
#######################################################################
#
#                 Cambridge Crystallographic Data Centre
#                                CCDC 
#
#######################################################################
#
# If this CIF has been generated from an entry in the Cambridge 
# Structural Database, then it will include bibliographic, chemical, 
# crystal, experimental, refinement or atomic coordinate data resulting 
# from the CCDC's data processing and validation procedures.
#
#######################################################################

data_HOHMUN
_chemical_formula_moiety         'C17 H26 N2 O2 S1'
_chemical_name_systematic        
(R)-1-(t-butylsulfinyl)-N-(3,5-dimethylphenyl)prolinamide
_symmetry_cell_setting           orthorhombic
_symmetry_space_group_name_H-M   'P 21 21 21'
_symmetry_Int_Tables_number      19
_space_group_name_Hall           'P 2ac 2ab'
loop_
_symmetry_equiv_pos_site_id
_symmetry_equiv_pos_as_xyz
1 x,y,z
2 1/2-x,-y,1/2+z
3 -x,1/2+y,1/2-z
4 1/2+x,1/2-y,-z
_cell_length_a                   10.6065(2)
_cell_length_b                   10.9193(3)
_cell_length_c                   30.9854(6)
_cell_angle_alpha                90
_cell_angle_beta                 90
_cell_angle_gamma                90
_cell_volume                     3588.59
_cell_formula_units_Z            8
loop_
_atom_site_label
_atom_site_type_symbol
_atom_site_fract_x
_atom_site_fract_y
_atom_site_fract_z
S1 S 0.61291(5) 0.45324(6) 0.586973(17)
O1 O 0.34355(15) 0.36022(17) 0.68136(6)
O2 O 0.68728(16) 0.55572(19) 0.56757(6)
N1 N 0.54763(19) 0.29306(18) 0.68293(6)
N2 N 0.49194(18) 0.51011(19) 0.61416(6)
C1 C 0.4165(2) 0.1157(2) 0.70309(7)
H1 H 0.3410 0.1620 0.7006
C2 C 0.4118(2) -0.0086(2) 0.71509(7)
C3 C 0.5221(2) -0.0744(2) 0.71864(8)
H2 H 0.5184 -0.1581 0.7270
C4 C 0.6386(2) -0.0214(2) 0.71034(7)
C5 C 0.6437(2) 0.1015(2) 0.69887(7)
H3 H 0.7230 0.1391 0.6937
C6 C 0.5332(2) 0.1704(2) 0.69492(7)
C7 C 0.2850(3) -0.0663(3) 0.72385(9)
H4 H 0.2949 -0.1552 0.7265
H5 H 0.2275 -0.0478 0.7000
H6 H 0.2505 -0.0334 0.7508
C8 C 0.7573(3) -0.0967(3) 0.71364(10)
H7 H 0.7595 -0.1383 0.7416
H8 H 0.8309 -0.0430 0.7110
H9 H 0.7586 -0.1577 0.6904
C9 C 0.4565(2) 0.3791(2) 0.67682(7)
C10 C 0.5065(2) 0.5026(2) 0.66231(7)
H10 H 0.5970 0.5120 0.6707
C11 C 0.4300(3) 0.6095(2) 0.67860(8)
H11 H 0.4618 0.6386 0.7068
H12 H 0.3399 0.5872 0.6815
C12 C 0.4486(3) 0.7059(2) 0.64369(9)
H13 H 0.3822 0.7694 0.6451
H14 H 0.5322 0.7456 0.6463
C13 C 0.4392(2) 0.6319(3) 0.60232(8)
H15 H 0.3504 0.6245 0.5928
H16 H 0.4890 0.6703 0.5789
C14 C 0.5329(3) 0.3765(3) 0.54180(9)
C15 C 0.4674(4) 0.4691(5) 0.51302(12)
H17 H 0.4414 0.4293 0.4861
H18 H 0.5255 0.5363 0.5065
H19 H 0.3930 0.5015 0.5279
C16 C 0.6392(3) 0.3133(3) 0.51743(11)
H20 H 0.6842 0.2579 0.5370
H21 H 0.6979 0.3750 0.5063
H22 H 0.6041 0.2663 0.4933
C17 C 0.4450(3) 0.2831(4) 0.56151(14)
H23 H 0.4055 0.2348 0.5385
H24 H 0.3796 0.3252 0.5782
H25 H 0.4929 0.2286 0.5806
H51 H 0.628(3) 0.321(3) 0.6788(9)
S2 S 0.89626(5) 0.40191(6) 0.636338(18)
O3 O 1.13682(17) 0.6668(2) 0.58075(7)
O4 O 0.81279(15) 0.36887(19) 0.67356(6)
N3 N 0.9456(2) 0.6154(2) 0.55283(7)
N4 N 0.99263(19) 0.5134(2) 0.65003(7)
C18 C 1.0929(2) 0.6104(3) 0.49073(9)
H26 H 1.1628 0.6310 0.5084
C19 C 1.1089(3) 0.5890(2) 0.44647(9)
C20 C 1.0071(3) 0.5577(3) 0.42100(9)
H27 H 1.0202 0.5387 0.3914
C21 C 0.8855(3) 0.5535(3) 0.43789(8)
C22 C 0.8697(3) 0.5771(3) 0.48174(8)
H28 H 0.7873 0.5769 0.4937
C23 C 0.9722(2) 0.6007(3) 0.50829(8)
C24 C 1.2389(3) 0.6038(4) 0.42665(11)
H29 H 1.2460 0.5511 0.4012
H30 H 1.3032 0.5805 0.4478
H31 H 1.2515 0.6894 0.4182
C25 C 0.7734(3) 0.5268(3) 0.40993(10)
H32 H 0.7302 0.6035 0.4029
H33 H 0.7155 0.4724 0.4254
H34 H 0.8015 0.4870 0.3833
C26 C 1.0259(2) 0.6422(3) 0.58527(9)
C27 C 0.9661(2) 0.6356(2) 0.63030(8)
H35 H 0.8732 0.6506 0.6286
C28 C 1.0277(3) 0.7239(3) 0.66187(10)
H36 H 0.9836 0.8038 0.6620
H37 H 1.1174 0.7373 0.6545
C29 C 1.0149(3) 0.6600(3) 0.70557(9)
H38 H 1.0776 0.6915 0.7265
H39 H 0.9293 0.6708 0.7177
C30 C 1.0399(2) 0.5284(3) 0.69478(8)
H40 H 1.1312 0.5101 0.6964
H41 H 0.9943 0.4734 0.7148
C31 C 1.0057(2) 0.2728(3) 0.63048(8)
C32 C 1.0539(3) 0.2273(3) 0.67365(10)
H42 H 1.0967 0.1486 0.6697
H43 H 0.9829 0.2169 0.6935
H44 H 1.1133 0.2870 0.6856
C33 C 0.9251(3) 0.1742(3) 0.60846(11)
H45 H 0.9761 0.1005 0.6038
H46 H 0.8948 0.2050 0.5806
H47 H 0.8529 0.1541 0.6269
C34 C 1.1118(3) 0.3148(3) 0.60092(9)
H48 H 1.1632 0.3761 0.6159
H49 H 1.0759 0.3509 0.5747
H50 H 1.1646 0.2445 0.5932
H52 H 0.867(3) 0.597(3) 0.5603(9)
loop_
_geom_bond_atom_site_label_1
_geom_bond_atom_site_label_2
_geom_bond_site_symmetry_1
_geom_bond_site_symmetry_2
S1 O2 1_555 1_555
O1 C9 1_555 1_555
N1 C6 1_555 1_555
N2 S1 1_555 1_555
C1 H1 1_555 1_555
C2 C1 1_555 1_555
C3 C2 1_555 1_555
H2 C3 1_555 1_555
C4 C3 1_555 1_555
C5 C4 1_555 1_555
H3 C5 1_555 1_555
C6 C1 1_555 1_555
C7 C2 1_555 1_555
H4 C7 1_555 1_555
H5 C7 1_555 1_555
H6 C7 1_555 1_555
C8 C4 1_555 1_555
H7 C8 1_555 1_555
H8 C8 1_555 1_555
H9 C8 1_555 1_555
C9 N1 1_555 1_555
C10 N2 1_555 1_555
H10 C10 1_555 1_555
C11 C10 1_555 1_555
H11 C11 1_555 1_555
H12 C11 1_555 1_555
C12 C11 1_555 1_555
H13 C12 1_555 1_555
H14 C12 1_555 1_555
C13 N2 1_555 1_555
H15 C13 1_555 1_555
H16 C13 1_555 1_555
C14 S1 1_555 1_555
C15 C14 1_555 1_555
H17 C15 1_555 1_555
H18 C15 1_555 1_555
H19 C15 1_555 1_555
C16 C14 1_555 1_555
H20 C16 1_555 1_555
H21 C16 1_555 1_555
H22 C16 1_555 1_555
C17 C14 1_555 1_555
H23 C17 1_555 1_555
H24 C17 1_555 1_555
H25 C17 1_555 1_555
S2 O4 1_555 1_555
O3 C26 1_555 1_555
N3 C23 1_555 1_555
N4 S2 1_555 1_555
C18 H26 1_555 1_555
C19 C18 1_555 1_555
C20 C19 1_555 1_555
H27 C20 1_555 1_555
C21 C20 1_555 1_555
C22 C21 1_555 1_555
H28 C22 1_555 1_555
C23 C18 1_555 1_555
C24 C19 1_555 1_555
H29 C24 1_555 1_555
H30 C24 1_555 1_555
H31 C24 1_555 1_555
C25 C21 1_555 1_555
H32 C25 1_555 1_555
H33 C25 1_555 1_555
H34 C25 1_555 1_555
C26 N3 1_555 1_555
C27 N4 1_555 1_555
H35 C27 1_555 1_555
C28 C27 1_555 1_555
H36 C28 1_555 1_555
H37 C28 1_555 1_555
C29 C28 1_555 1_555
H38 C29 1_555 1_555
H39 C29 1_555 1_555
C30 N4 1_555 1_555
H40 C30 1_555 1_555
H41 C30 1_555 1_555
C31 S2 1_555 1_555
C32 C31 1_555 1_555
H42 C32 1_555 1_555
H43 C32 1_555 1_555
H44 C32 1_555 1_555
C33 C31 1_555 1_555
H45 C33 1_555 1_555
H46 C33 1_555 1_555
H47 C33 1_555 1_555
C34 C31 1_555 1_555
H48 C34 1_555 1_555
H49 C34 1_555 1_555
H50 C34 1_555 1_555
H51 N1 1_555 1_555
H52 N3 1_555 1_555
C5 C6 1_555 1_555
C9 C10 1_555 1_555
C12 C13 1_555 1_555
C22 C23 1_555 1_555
C26 C27 1_555 1_555
C29 C30 1_555 1_555

#END
