
#######################################################################
#
#                 Cambridge Crystallographic Data Centre
#                                CCDC 
#
#######################################################################
#
# If this CIF has been generated from an entry in the Cambridge 
# Structural Database, then it will include bibliographic, chemical, 
# crystal, experimental, refinement or atomic coordinate data resulting 
# from the CCDC's data processing and validation procedures.
#
#######################################################################

data_HOHPOL
_chemical_formula_moiety         'C96 Cl20'
_chemical_name_systematic        icosachloro-C96fullerene
_symmetry_cell_setting           monoclinic
_symmetry_space_group_name_H-M   'P 21/n'
_symmetry_Int_Tables_number      14
_space_group_name_Hall           '-P 2yn'
loop_
_symmetry_equiv_pos_site_id
_symmetry_equiv_pos_as_xyz
1 x,y,z
2 1/2-x,1/2+y,1/2-z
3 -x,-y,-z
4 1/2+x,1/2-y,1/2+z
_cell_length_a                   21.5850(10)
_cell_length_b                   22.1550(10)
_cell_length_c                   28.184(2)
_cell_angle_alpha                90
_cell_angle_beta                 102.984(10)
_cell_angle_gamma                90
_cell_volume                     13133.4
_exptl_crystal_colour            orange
_exptl_crystal_description       plate
_cell_formula_units_Z            8
loop_
_atom_site_label
_atom_site_type_symbol
_atom_site_fract_x
_atom_site_fract_y
_atom_site_fract_z
Cl1 Cl 0.30074(6) 0.50490(5) 0.01801(4)
Cl2 Cl 0.41125(5) 0.54550(5) 0.12241(4)
Cl3 Cl 0.51447(5) 0.48143(5) 0.20078(4)
Cl4 Cl 0.44112(5) 0.56477(4) 0.25472(4)
Cl5 Cl 0.08246(5) 0.56052(4) 0.12891(4)
Cl6 Cl 0.13414(5) 0.51571(5) 0.01625(4)
Cl7 Cl 0.39112(7) 0.33338(7) 0.00985(6)
Cl8 Cl 0.50376(5) 0.47034(5) 0.33127(4)
Cl9 Cl 0.30081(5) 0.46680(5) 0.42043(4)
Cl10 Cl -0.04417(5) 0.41308(5) 0.11220(4)
Cl11 Cl 0.01747(5) 0.36611(5) -0.00479(4)
Cl12 Cl 0.29363(6) 0.19199(5) -0.00305(4)
Cl13 Cl 0.45008(5) 0.36797(5) 0.42118(4)
Cl14 Cl 0.14151(5) 0.40215(5) 0.40394(4)
Cl15 Cl 0.08312(5) 0.20847(5) -0.01060(4)
Cl16 Cl 0.31096(6) 0.08250(5) 0.10186(5)
Cl17 Cl 0.44039(5) 0.20765(5) 0.39617(4)
Cl18 Cl 0.11759(5) 0.22099(5) 0.38385(4)
Cl19 Cl 0.10168(5) 0.09579(5) 0.09230(5)
Cl20 Cl 0.26677(5) 0.12412(4) 0.38183(4)
C1 C 0.31672(19) 0.48271(17) 0.14660(16)
C2 C 0.29626(19) 0.49450(17) 0.19015(16)
C3 C 0.23033(19) 0.49561(17) 0.19074(16)
C4 C 0.18574(18) 0.48689(17) 0.14555(16)
C5 C 0.20638(19) 0.47320(18) 0.10325(16)
C6 C 0.2725(2) 0.46969(18) 0.10404(16)
C7 C 0.2934(2) 0.4443(2) 0.05956(17)
C8 C 0.3531(2) 0.4071(2) 0.07592(18)
C9 C 0.3946(2) 0.41989(19) 0.11843(18)
C10 C 0.3882(2) 0.47709(18) 0.14752(17)
C11 C 0.43269(19) 0.46197(19) 0.19909(17)
C12 C 0.41195(19) 0.48850(18) 0.24348(16)
C13 C 0.34077(19) 0.49397(17) 0.23582(16)
C14 C 0.32220(19) 0.48810(17) 0.27871(16)
C15 C 0.25737(19) 0.48472(17) 0.28106(16)
C16 C 0.21090(19) 0.49221(17) 0.23720(16)
C17 C 0.14710(19) 0.47479(17) 0.23664(16)
C18 C 0.10343(18) 0.46369(18) 0.19179(16)
C19 C 0.11516(19) 0.48515(18) 0.14452(16)
C20 C 0.08048(19) 0.43888(18) 0.10993(16)
C21 C 0.0995(2) 0.42342(19) 0.07039(16)
C22 C 0.1566(2) 0.45270(18) 0.05752(16)
C23 C 0.1834(2) 0.4007(2) 0.03522(16)
C24 C 0.2469(2) 0.3958(2) 0.03634(16)
C25 C 0.2743(2) 0.3394(2) 0.03617(16)
C26 C 0.3447(2) 0.3433(2) 0.05776(19)
C27 C 0.3645(2) 0.2957(2) 0.09546(17)
C28 C 0.40093(19) 0.31015(19) 0.14182(17)
C29 C 0.41731(19) 0.37243(19) 0.15247(17)
C30 C 0.43181(19) 0.39429(19) 0.19897(17)
C31 C 0.43528(19) 0.35665(19) 0.23993(17)
C32 C 0.43151(19) 0.38133(18) 0.28534(16)
C33 C 0.42900(19) 0.44954(19) 0.29210(17)
C34 C 0.37305(19) 0.46081(18) 0.31510(16)
C35 C 0.3595(2) 0.42671(18) 0.35057(16)
C36 C 0.2949(2) 0.42861(18) 0.36221(16)
C37 C 0.2426(2) 0.45586(18) 0.32333(16)
C38 C 0.1819(2) 0.43559(18) 0.32066(16)
C39 C 0.13448(19) 0.44439(18) 0.27753(16)
C40 C 0.09026(19) 0.39551(18) 0.27179(16)
C41 C 0.06022(18) 0.37551(18) 0.22464(16)
C42 C 0.06232(18) 0.41612(18) 0.18604(16)
C43 C 0.04057(18) 0.39802(19) 0.13416(16)
C44 C 0.05383(19) 0.33178(18) 0.12654(16)
C45 C 0.07329(19) 0.31580(19) 0.08400(16)
C46 C 0.0845(2) 0.36257(19) 0.04733(16)
C47 C 0.1462(2) 0.3488(2) 0.03226(16)
C48 C 0.1732(2) 0.2910(2) 0.03290(16)
C49 C 0.2385(2) 0.2863(2) 0.03487(16)
C50 C 0.2737(2) 0.2277(2) 0.04953(16)
C51 C 0.3321(2) 0.24078(19) 0.08958(16)
C52 C 0.33663(19) 0.20107(18) 0.12834(16)
C53 C 0.37248(19) 0.21334(18) 0.17478(17)
C54 C 0.40558(19) 0.27022(19) 0.18208(17)
C55 C 0.42637(18) 0.29361(19) 0.23078(16)
C56 C 0.42057(18) 0.25693(18) 0.26998(17)
C57 C 0.41730(19) 0.28126(18) 0.31510(16)
C58 C 0.41999(18) 0.34346(19) 0.32282(16)
C59 C 0.3919(2) 0.36670(19) 0.36387(16)
C60 C 0.3344(2) 0.32779(18) 0.36689(15)
C61 C 0.2811(2) 0.36241(18) 0.36717(15)
C62 C 0.2206(2) 0.33735(18) 0.35847(16)
C63 C 0.1648(2) 0.38088(18) 0.34834(16)
C64 C 0.10986(19) 0.35518(19) 0.31128(16)
C65 C 0.10211(19) 0.29488(19) 0.30267(16)
C66 C 0.07597(19) 0.27336(18) 0.25454(16)
C67 C 0.05595(18) 0.31189(18) 0.21456(17)
C68 C 0.05885(19) 0.29057(18) 0.16624(16)
C69 C 0.08482(19) 0.23187(18) 0.16191(16)
C70 C 0.10163(19) 0.21677(19) 0.11792(17)
C71 C 0.0960(2) 0.25761(19) 0.08020(16)
C72 C 0.1346(2) 0.2382(2) 0.04413(16)
C73 C 0.1761(2) 0.18976(19) 0.07356(16)
C74 C 0.2378(2) 0.18519(19) 0.07604(17)
C75 C 0.2828(2) 0.15605(19) 0.11890(17)
C76 C 0.2554(2) 0.14790(18) 0.16309(16)
C77 C 0.2998(2) 0.14878(18) 0.20995(17)
C78 C 0.3592(2) 0.18058(18) 0.21602(16)
C79 C 0.38806(19) 0.19970(18) 0.26266(17)
C80 C 0.36348(19) 0.18819(18) 0.30449(16)
C81 C 0.3853(2) 0.23638(18) 0.34264(16)
C82 C 0.3285(2) 0.26626(18) 0.35637(15)
C83 C 0.2680(2) 0.23931(18) 0.34805(16)
C84 C 0.2135(2) 0.27485(18) 0.34933(16)
C85 C 0.1463(2) 0.24812(18) 0.33229(16)
C86 C 0.1460(2) 0.20025(18) 0.29425(16)
C87 C 0.10367(18) 0.21508(18) 0.24944(16)
C88 C 0.11174(19) 0.19543(18) 0.20437(17)
C89 C 0.16621(19) 0.15747(17) 0.20351(16)
C90 C 0.1910(2) 0.15229(18) 0.16027(16)
C91 C 0.1456(2) 0.1658(2) 0.11283(16)
C92 C 0.2079(2) 0.14495(17) 0.24816(16)
C93 C 0.2746(2) 0.14084(17) 0.25142(16)
C94 C 0.3068(2) 0.16000(17) 0.29894(16)
C95 C 0.2597(2) 0.17376(18) 0.33000(16)
C96 C 0.1979(2) 0.16571(18) 0.29366(16)
Cl21 Cl 0.56630(6) 0.04012(6) 0.01086(5)
Cl22 Cl 0.51336(5) -0.00416(5) 0.11523(5)
Cl23 Cl 0.45486(5) 0.05917(5) 0.19353(5)
Cl24 Cl 0.55785(5) -0.02577(5) 0.24798(5)
Cl25 Cl 0.84667(5) -0.02163(5) 0.12745(4)
Cl26 Cl 0.73215(6) 0.02359(5) 0.01562(4)
Cl27 Cl 0.47235(8) 0.20675(10) 0.00539(7)
Cl28 Cl 0.53857(6) 0.06816(5) 0.32464(5)
Cl29 Cl 0.79299(6) 0.06971(5) 0.41800(4)
Cl30 Cl 0.96592(5) 0.12651(5) 0.11324(5)
Cl31 Cl 0.83911(7) 0.17665(6) -0.00446(5)
Cl32 Cl 0.56476(6) 0.35146(7) -0.00462(5)
Cl33 Cl 0.64262(6) 0.16897(5) 0.41618(4)
Cl34 Cl 0.94370(5) 0.13318(6) 0.40400(4)
Cl35 Cl 0.76767(8) 0.33313(7) -0.01051(5)
Cl36 Cl 0.60524(7) 0.45835(6) 0.10233(6)
Cl37 Cl 0.64128(6) 0.32992(5) 0.39320(4)
Cl38 Cl 0.95805(6) 0.31457(6) 0.38561(5)
Cl39 Cl 0.81082(6) 0.44456(6) 0.09457(6)
Cl40 Cl 0.80886(6) 0.41031(5) 0.38436(4)
C97 C 0.6228(2) 0.0566(2) 0.14262(17)
C98 C 0.6675(2) 0.04419(18) 0.18635(17)
C99 C 0.7342(2) 0.04307(19) 0.18792(17)
C100 C 0.7539(2) 0.05202(19) 0.14379(17)
C101 C 0.7097(2) 0.0666(2) 0.10095(17)
C102 C 0.6439(2) 0.0690(2) 0.10012(18)
C103 C 0.5982(2) 0.0973(2) 0.05548(18)
C104 C 0.5480(3) 0.1346(3) 0.0716(2)
C105 C 0.5303(2) 0.1211(2) 0.11297(18)
C106 C 0.5522(2) 0.0632(2) 0.14198(18)
C107 C 0.5365(2) 0.0782(2) 0.19346(18)
C108 C 0.5815(2) 0.05062(19) 0.23795(18)
C109 C 0.6488(2) 0.04489(18) 0.23131(17)
C110 C 0.6912(2) 0.04986(18) 0.27488(17)
C111 C 0.7581(2) 0.05302(18) 0.27871(17)
C112 C 0.7800(2) 0.04594(18) 0.23529(17)
C113 C 0.84420(19) 0.06323(18) 0.23561(17)
C114 C 0.86228(19) 0.07466(19) 0.19132(17)
C115 C 0.8239(2) 0.05443(19) 0.14350(18)
C116 C 0.8393(2) 0.10119(19) 0.10938(17)
C117 C 0.7972(2) 0.1173(2) 0.06945(17)
C118 C 0.7328(2) 0.0877(2) 0.05627(18)
C119 C 0.6937(3) 0.1402(3) 0.03278(18)
C120 C 0.6314(3) 0.1459(3) 0.03340(19)
C121 C 0.6052(2) 0.2038(3) 0.03315(18)
C122 C 0.5456(3) 0.1978(3) 0.0543(2)
C123 C 0.5483(2) 0.2460(2) 0.09180(18)
C124 C 0.5373(2) 0.2307(2) 0.13780(18)
C125 C 0.5267(2) 0.1684(2) 0.14776(19)
C126 C 0.5377(2) 0.1458(2) 0.19358(18)
C127 C 0.55761(19) 0.1827(2) 0.23528(17)
C128 C 0.5863(2) 0.15711(19) 0.28045(17)
C129 C 0.5916(2) 0.0887(2) 0.28652(17)
C130 C 0.6613(2) 0.0766(2) 0.31072(17)
C131 C 0.6951(2) 0.1103(2) 0.34692(17)
C132 C 0.7667(2) 0.1079(2) 0.35977(17)
C133 C 0.7965(2) 0.08124(19) 0.32112(17)
C134 C 0.8560(2) 0.10136(18) 0.31945(16)
C135 C 0.8795(2) 0.09263(19) 0.27704(17)
C136 C 0.92129(18) 0.14167(18) 0.27219(17)
C137 C 0.92500(18) 0.16215(19) 0.22558(17)
C138 C 0.90077(19) 0.12269(19) 0.18654(17)
C139 C 0.8928(2) 0.1411(2) 0.13476(18)
C140 C 0.8755(2) 0.2078(2) 0.12773(17)
C141 C 0.8326(2) 0.2245(2) 0.08485(17)
C142 C 0.8001(2) 0.1783(2) 0.04743(19)
C143 C 0.7306(2) 0.1934(2) 0.03053(17)
C144 C 0.7041(2) 0.2510(3) 0.03141(17)
C145 C 0.6405(2) 0.2561(3) 0.03303(18)
C146 C 0.6139(2) 0.3144(2) 0.04823(18)
C147 C 0.5778(2) 0.3009(2) 0.08714(18)
C148 C 0.5958(2) 0.3399(2) 0.12680(18)
C149 C 0.5853(2) 0.3268(2) 0.17249(18)
C150 C 0.55598(19) 0.2699(2) 0.17854(17)
C151 C 0.5617(2) 0.2459(2) 0.22675(17)
C152 C 0.5900(2) 0.28193(19) 0.26650(17)
C153 C 0.6181(2) 0.25679(19) 0.31149(17)
C154 C 0.6196(2) 0.1945(2) 0.31867(17)
C155 C 0.6704(2) 0.1702(2) 0.36006(17)
C156 C 0.7302(2) 0.2090(2) 0.36467(16)
C157 C 0.7836(2) 0.1741(2) 0.36558(16)
C158 C 0.8395(2) 0.1991(2) 0.35804(16)
C159 C 0.8892(2) 0.1555(2) 0.34803(16)
C160 C 0.92416(19) 0.1815(2) 0.31189(16)
C161 C 0.92761(19) 0.2417(2) 0.30421(17)
C162 C 0.92649(19) 0.2641(2) 0.25632(17)
C163 C 0.92416(19) 0.22605(19) 0.21625(17)
C164 C 0.8936(2) 0.2485(2) 0.16774(17)
C165 C 0.8661(2) 0.3074(2) 0.16370(18)
C166 C 0.8248(2) 0.3233(2) 0.11977(18)
C167 C 0.8090(2) 0.2833(2) 0.08105(17)
C168 C 0.7498(2) 0.3035(2) 0.04467(18)
C169 C 0.7250(2) 0.3513(2) 0.07405(18)
C170 C 0.6647(2) 0.3565(2) 0.07608(19)
C171 C 0.6443(2) 0.3848(2) 0.11869(19)
C172 C 0.6965(2) 0.3924(2) 0.16318(18)
C173 C 0.6785(2) 0.39118(19) 0.20938(17)
C174 C 0.6220(2) 0.35929(19) 0.21454(18)
C175 C 0.6188(2) 0.33935(19) 0.26045(18)
C176 C 0.6670(2) 0.34969(19) 0.30309(17)
C177 C 0.6663(2) 0.3013(2) 0.34024(17)
C178 C 0.7307(2) 0.2708(2) 0.35472(16)
C179 C 0.7868(2) 0.2975(2) 0.34754(17)
C180 C 0.8417(2) 0.2612(2) 0.34947(16)
C181 C 0.9002(2) 0.2880(2) 0.33340(17)
C182 C 0.8795(2) 0.33696(19) 0.29589(17)
C183 C 0.89684(19) 0.32252(19) 0.25154(18)
C184 C 0.8631(2) 0.34347(19) 0.20613(18)
C185 C 0.8086(2) 0.38125(19) 0.20502(18)
C186 C 0.7594(2) 0.3876(2) 0.16129(18)
C187 C 0.7776(2) 0.3744(2) 0.11441(19)
C188 C 0.7919(2) 0.39365(19) 0.24923(17)
C189 C 0.7268(2) 0.39785(18) 0.25192(18)
C190 C 0.7211(2) 0.37841(19) 0.29877(17)
C191 C 0.7858(2) 0.3631(2) 0.33067(17)
C192 C 0.8276(2) 0.37167(19) 0.29509(18)
Cl41? Cl 0.7919(7) 0.3574(6) 0.0031(5)
Cl42? Cl 0.7527(5) 0.2025(5) -0.0348(4)
Cl43? Cl 0.4129(5) 0.4363(8) 0.0308(5)
Cl44? Cl 0.5559(5) 0.2164(5) -0.0323(3)
Cl45? Cl 0.4455(4) 0.1138(3) 0.0760(2)
Cl46? Cl 0.4667(3) 0.4339(3) 0.0851(3)
loop_
_geom_bond_atom_site_label_1
_geom_bond_atom_site_label_2
_geom_bond_site_symmetry_1
_geom_bond_site_symmetry_2
Cl1 C7 1_555 1_555
Cl2 C10 1_555 1_555
Cl3 C11 1_555 1_555
Cl4 C12 1_555 1_555
Cl5 C19 1_555 1_555
Cl6 C22 1_555 1_555
Cl7 C26 1_555 1_555
Cl8 C33 1_555 1_555
Cl9 C36 1_555 1_555
Cl10 C43 1_555 1_555
Cl11 C46 1_555 1_555
Cl12 C50 1_555 1_555
Cl13 C59 1_555 1_555
Cl14 C63 1_555 1_555
Cl15 C72 1_555 1_555
Cl16 C75 1_555 1_555
Cl17 C81 1_555 1_555
Cl18 C85 1_555 1_555
Cl19 C91 1_555 1_555
Cl20 C95 1_555 1_555
C1 C2 1_555 1_555
C2 C3 1_555 1_555
C3 C4 1_555 1_555
C4 C5 1_555 1_555
C5 C6 1_555 1_555
C6 C1 1_555 1_555
C7 C6 1_555 1_555
C8 C7 1_555 1_555
C9 C8 1_555 1_555
C10 C1 1_555 1_555
C11 C10 1_555 1_555
C12 C11 1_555 1_555
C13 C2 1_555 1_555
C14 C13 1_555 1_555
C15 C14 1_555 1_555
C16 C3 1_555 1_555
C17 C16 1_555 1_555
C18 C17 1_555 1_555
C19 C4 1_555 1_555
C20 C19 1_555 1_555
C21 C20 1_555 1_555
C22 C5 1_555 1_555
C23 C22 1_555 1_555
C24 C7 1_555 1_555
C25 C24 1_555 1_555
C26 C8 1_555 1_555
C27 C26 1_555 1_555
C28 C27 1_555 1_555
C29 C9 1_555 1_555
C30 C11 1_555 1_555
C31 C30 1_555 1_555
C32 C31 1_555 1_555
C33 C12 1_555 1_555
C34 C14 1_555 1_555
C35 C34 1_555 1_555
C36 C35 1_555 1_555
C37 C15 1_555 1_555
C38 C37 1_555 1_555
C39 C17 1_555 1_555
C40 C39 1_555 1_555
C41 C40 1_555 1_555
C42 C18 1_555 1_555
C43 C20 1_555 1_555
C44 C43 1_555 1_555
C45 C44 1_555 1_555
C46 C21 1_555 1_555
C47 C23 1_555 1_555
C48 C47 1_555 1_555
C49 C25 1_555 1_555
C50 C49 1_555 1_555
C51 C27 1_555 1_555
C52 C51 1_555 1_555
C53 C52 1_555 1_555
C54 C28 1_555 1_555
C55 C31 1_555 1_555
C56 C55 1_555 1_555
C57 C56 1_555 1_555
C58 C32 1_555 1_555
C59 C35 1_555 1_555
C60 C59 1_555 1_555
C61 C36 1_555 1_555
C62 C61 1_555 1_555
C63 C38 1_555 1_555
C64 C40 1_555 1_555
C65 C64 1_555 1_555
C66 C65 1_555 1_555
C67 C41 1_555 1_555
C68 C44 1_555 1_555
C69 C68 1_555 1_555
C70 C69 1_555 1_555
C71 C45 1_555 1_555
C72 C48 1_555 1_555
C73 C72 1_555 1_555
C74 C50 1_555 1_555
C75 C52 1_555 1_555
C76 C75 1_555 1_555
C77 C76 1_555 1_555
C78 C53 1_555 1_555
C79 C56 1_555 1_555
C80 C79 1_555 1_555
C81 C57 1_555 1_555
C82 C60 1_555 1_555
C83 C82 1_555 1_555
C84 C62 1_555 1_555
C85 C65 1_555 1_555
C86 C85 1_555 1_555
C87 C66 1_555 1_555
C88 C69 1_555 1_555
C89 C88 1_555 1_555
C90 C76 1_555 1_555
C91 C70 1_555 1_555
C92 C89 1_555 1_555
C93 C77 1_555 1_555
C94 C80 1_555 1_555
C95 C83 1_555 1_555
C96 C86 1_555 1_555
Cl21 C103 1_555 1_555
Cl22 C106 1_555 1_555
Cl23 C107 1_555 1_555
Cl24 C108 1_555 1_555
Cl25 C115 1_555 1_555
Cl26 C118 1_555 1_555
Cl27 C122 1_555 1_555
Cl28 C129 1_555 1_555
Cl29 C132 1_555 1_555
Cl30 C139 1_555 1_555
Cl31 C142 1_555 1_555
Cl32 C146 1_555 1_555
Cl33 C155 1_555 1_555
Cl34 C159 1_555 1_555
Cl35 C168 1_555 1_555
Cl36 C171 1_555 1_555
Cl37 C177 1_555 1_555
Cl38 C181 1_555 1_555
Cl39 C187 1_555 1_555
Cl40 C191 1_555 1_555
C97 C98 1_555 1_555
C98 C99 1_555 1_555
C99 C100 1_555 1_555
C100 C101 1_555 1_555
C101 C102 1_555 1_555
C102 C97 1_555 1_555
C103 C102 1_555 1_555
C104 C103 1_555 1_555
C105 C104 1_555 1_555
C106 C97 1_555 1_555
C107 C106 1_555 1_555
C108 C107 1_555 1_555
C109 C98 1_555 1_555
C110 C109 1_555 1_555
C111 C110 1_555 1_555
C112 C99 1_555 1_555
C113 C112 1_555 1_555
C114 C113 1_555 1_555
C115 C100 1_555 1_555
C116 C115 1_555 1_555
C117 C116 1_555 1_555
C118 C101 1_555 1_555
C119 C118 1_555 1_555
C120 C103 1_555 1_555
C121 C120 1_555 1_555
C122 C104 1_555 1_555
C123 C122 1_555 1_555
C124 C123 1_555 1_555
C125 C105 1_555 1_555
C126 C107 1_555 1_555
C127 C126 1_555 1_555
C128 C127 1_555 1_555
C129 C108 1_555 1_555
C130 C110 1_555 1_555
C131 C130 1_555 1_555
C132 C131 1_555 1_555
C133 C111 1_555 1_555
C134 C133 1_555 1_555
C135 C113 1_555 1_555
C136 C135 1_555 1_555
C137 C136 1_555 1_555
C138 C114 1_555 1_555
C139 C116 1_555 1_555
C140 C139 1_555 1_555
C141 C140 1_555 1_555
C142 C117 1_555 1_555
C143 C119 1_555 1_555
C144 C143 1_555 1_555
C145 C121 1_555 1_555
C146 C145 1_555 1_555
C147 C123 1_555 1_555
C148 C147 1_555 1_555
C149 C148 1_555 1_555
C150 C124 1_555 1_555
C151 C127 1_555 1_555
C152 C151 1_555 1_555
C153 C152 1_555 1_555
C154 C128 1_555 1_555
C155 C131 1_555 1_555
C156 C155 1_555 1_555
C157 C132 1_555 1_555
C158 C157 1_555 1_555
C159 C134 1_555 1_555
C160 C136 1_555 1_555
C161 C160 1_555 1_555
C162 C161 1_555 1_555
C163 C137 1_555 1_555
C164 C140 1_555 1_555
C165 C164 1_555 1_555
C166 C165 1_555 1_555
C167 C141 1_555 1_555
C168 C144 1_555 1_555
C169 C168 1_555 1_555
C170 C146 1_555 1_555
C171 C148 1_555 1_555
C172 C171 1_555 1_555
C173 C172 1_555 1_555
C174 C149 1_555 1_555
C175 C152 1_555 1_555
C176 C175 1_555 1_555
C177 C153 1_555 1_555
C178 C156 1_555 1_555
C179 C178 1_555 1_555
C180 C158 1_555 1_555
C181 C161 1_555 1_555
C182 C181 1_555 1_555
C183 C162 1_555 1_555
C184 C165 1_555 1_555
C185 C184 1_555 1_555
C186 C172 1_555 1_555
C187 C166 1_555 1_555
C188 C185 1_555 1_555
C189 C173 1_555 1_555
C190 C176 1_555 1_555
C191 C179 1_555 1_555
C192 C182 1_555 1_555
C9 C10 1_555 1_555
C12 C13 1_555 1_555
C15 C16 1_555 1_555
C18 C19 1_555 1_555
C21 C22 1_555 1_555
C23 C24 1_555 1_555
C25 C26 1_555 1_555
C28 C29 1_555 1_555
C29 C30 1_555 1_555
C32 C33 1_555 1_555
C33 C34 1_555 1_555
C36 C37 1_555 1_555
C38 C39 1_555 1_555
C41 C42 1_555 1_555
C42 C43 1_555 1_555
C45 C46 1_555 1_555
C46 C47 1_555 1_555
C48 C49 1_555 1_555
C50 C51 1_555 1_555
C53 C54 1_555 1_555
C54 C55 1_555 1_555
C57 C58 1_555 1_555
C58 C59 1_555 1_555
C60 C61 1_555 1_555
C62 C63 1_555 1_555
C63 C64 1_555 1_555
C66 C67 1_555 1_555
C67 C68 1_555 1_555
C70 C71 1_555 1_555
C71 C72 1_555 1_555
C73 C74 1_555 1_555
C73 C91 1_555 1_555
C74 C75 1_555 1_555
C77 C78 1_555 1_555
C78 C79 1_555 1_555
C80 C81 1_555 1_555
C81 C82 1_555 1_555
C83 C84 1_555 1_555
C84 C85 1_555 1_555
C86 C87 1_555 1_555
C87 C88 1_555 1_555
C89 C90 1_555 1_555
C90 C91 1_555 1_555
C92 C93 1_555 1_555
C92 C96 1_555 1_555
C93 C94 1_555 1_555
C94 C95 1_555 1_555
C95 C96 1_555 1_555
C105 C106 1_555 1_555
C108 C109 1_555 1_555
C111 C112 1_555 1_555
C114 C115 1_555 1_555
C117 C118 1_555 1_555
C119 C120 1_555 1_555
C121 C122 1_555 1_555
C124 C125 1_555 1_555
C125 C126 1_555 1_555
C128 C129 1_555 1_555
C129 C130 1_555 1_555
C132 C133 1_555 1_555
C134 C135 1_555 1_555
C137 C138 1_555 1_555
C138 C139 1_555 1_555
C141 C142 1_555 1_555
C142 C143 1_555 1_555
C144 C145 1_555 1_555
C146 C147 1_555 1_555
C149 C150 1_555 1_555
C150 C151 1_555 1_555
C153 C154 1_555 1_555
C154 C155 1_555 1_555
C156 C157 1_555 1_555
C158 C159 1_555 1_555
C159 C160 1_555 1_555
C162 C163 1_555 1_555
C163 C164 1_555 1_555
C166 C167 1_555 1_555
C167 C168 1_555 1_555
C169 C170 1_555 1_555
C169 C187 1_555 1_555
C170 C171 1_555 1_555
C173 C174 1_555 1_555
C174 C175 1_555 1_555
C176 C177 1_555 1_555
C177 C178 1_555 1_555
C179 C180 1_555 1_555
C180 C181 1_555 1_555
C182 C183 1_555 1_555
C183 C184 1_555 1_555
C185 C186 1_555 1_555
C186 C187 1_555 1_555
C188 C189 1_555 1_555
C188 C192 1_555 1_555
C189 C190 1_555 1_555
C190 C191 1_555 1_555
C191 C192 1_555 1_555

#END
