
#######################################################################
#
#                 Cambridge Crystallographic Data Centre
#                                CCDC 
#
#######################################################################
#
# If this CIF has been generated from an entry in the Cambridge 
# Structural Database, then it will include bibliographic, chemical, 
# crystal, experimental, refinement or atomic coordinate data resulting 
# from the CCDC's data processing and validation procedures.
#
#######################################################################

data_HOHPUR
_chemical_formula_moiety         'C94 Cl28'
_chemical_name_systematic        octacosachloro-C94fullerene
_symmetry_cell_setting           triclinic
_symmetry_space_group_name_H-M   'P -1'
_symmetry_Int_Tables_number      2
_space_group_name_Hall           '-P 1'
loop_
_symmetry_equiv_pos_site_id
_symmetry_equiv_pos_as_xyz
1 x,y,z
2 -x,-y,-z
_cell_length_a                   13.1370(10)
_cell_length_b                   14.3031(7)
_cell_length_c                   21.3030(9)
_cell_angle_alpha                70.457(4)
_cell_angle_beta                 85.080(10)
_cell_angle_gamma                70.249(7)
_cell_volume                     3548.63
_exptl_crystal_colour            orange
_exptl_crystal_description       plate
_cell_formula_units_Z            2
loop_
_atom_site_label
_atom_site_type_symbol
_atom_site_fract_x
_atom_site_fract_y
_atom_site_fract_z
Cl1 Cl 0.80981(10) 0.48986(9) 0.58425(5)
Cl2 Cl 0.81001(9) 0.28344(8) 0.54949(5)
Cl3 Cl 0.88623(11) 0.72621(10) 0.51958(6)
Cl4 Cl 0.65514(10) 0.71643(9) 0.57711(5)
Cl5 Cl 0.66732(9) 0.20685(7) 0.48059(5)
Cl6 Cl 0.88381(9) 0.14848(7) 0.41444(5)
Cl7 Cl 1.05919(9) 0.19663(8) 0.29672(5)
Cl8 Cl 1.18633(9) 0.41515(8) 0.28346(5)
Cl9 Cl 0.90504(12) 0.93654(10) 0.37797(7)
Cl10 Cl 0.71154(17) 0.94248(11) 0.47353(8)
Cl11 Cl 0.96999(9) 0.31276(8) 0.10334(5)
Cl12 Cl 1.12567(9) 0.51963(8) 0.08402(5)
Cl13 Cl 0.89768(10) 1.01438(8) 0.07541(7)
Cl14 Cl 0.91828(10) 1.02801(8) 0.21243(6)
Cl15 Cl 0.6779(2) 1.1451(2) 0.17081(12)
Cl16 Cl 0.70142(12) 1.11818(10) 0.31455(7)
Cl17 Cl 0.44807(18) 1.15479(9) 0.26904(8)
Cl18 Cl 0.31522(9) 1.02833(8) 0.36857(5)
Cl19 Cl 0.26332(8) 1.08610(7) 0.21269(5)
Cl20 Cl 0.17648(8) 0.90871(8) 0.29700(5)
Cl21 Cl 0.19054(8) 0.91411(8) 0.14925(5)
Cl22 Cl 0.19932(9) 0.69138(8) 0.24486(5)
Cl23 Cl 0.43169(10) 0.40297(8) 0.17893(6)
Cl24 Cl 0.67025(10) 0.41384(8) 0.04324(5)
Cl25 Cl 0.95673(9) 0.82557(8) -0.00927(5)
Cl26 Cl 0.28455(9) 0.72210(8) 0.07258(5)
Cl27 Cl 0.52201(10) 0.74382(8) -0.04092(5)
Cl28 Cl 0.66726(9) 0.92121(8) -0.04489(5)
C1 C 0.8661(3) 0.4987(3) 0.41414(19)
C2 C 0.8222(4) 0.5751(3) 0.4481(2)
C3 C 0.7439(4) 0.5727(3) 0.5055(2)
C4 C 0.6520(4) 0.5495(3) 0.4864(2)
C5 C 0.6548(4) 0.4641(3) 0.47039(19)
C6 C 0.7515(4) 0.3703(3) 0.4698(2)
C7 C 0.8357(4) 0.4078(3) 0.4233(2)
C8 C 0.8662(4) 0.3533(3) 0.3785(2)
C9 C 0.9371(3) 0.3745(3) 0.3268(2)
C10 C 0.9743(3) 0.4561(3) 0.3182(2)
C11 C 0.9354(4) 0.5238(3) 0.3585(2)
C12 C 0.9417(4) 0.6293(3) 0.3336(2)
C13 C 0.8834(4) 0.7057(3) 0.3630(2)
C14 C 0.8336(4) 0.6725(3) 0.4238(2)
C15 C 0.7798(4) 0.7449(3) 0.4630(2)
C16 C 0.6968(4) 0.6947(4) 0.5002(2)
C17 C 0.5979(4) 0.7313(3) 0.4562(2)
C18 C 0.5684(4) 0.6465(3) 0.4560(2)
C19 C 0.4922(3) 0.6610(3) 0.40898(19)
C20 C 0.4953(3) 0.5725(3) 0.3916(2)
C21 C 0.5754(3) 0.4762(3) 0.4237(2)
C22 C 0.6105(3) 0.3986(3) 0.3932(2)
C23 C 0.7095(4) 0.3135(3) 0.4295(2)
C24 C 0.8002(4) 0.2839(3) 0.3814(2)
C25 C 0.7609(4) 0.3103(3) 0.3105(2)
C26 C 0.8406(4) 0.3136(3) 0.2623(2)
C27 C 0.9482(4) 0.3203(3) 0.2746(2)
C28 C 0.9695(3) 0.3894(3) 0.2065(2)
C29 C 1.0163(3) 0.4595(3) 0.1997(2)
C30 C 1.0443(3) 0.4833(3) 0.2585(2)
C31 C 1.0204(3) 0.5988(3) 0.2298(2)
C32 C 0.9799(3) 0.6651(3) 0.2683(2)
C33 C 0.9446(4) 0.7727(3) 0.2330(2)
C34 C 0.8803(4) 0.8467(3) 0.2619(2)
C35 C 0.8551(4) 0.8166(3) 0.3271(2)
C36 C 0.7934(5) 0.9002(4) 0.3561(2)
C37 C 0.7299(4) 0.8636(3) 0.4201(2)
C38 C 0.6212(5) 0.8949(4) 0.3904(3)
C39 C 0.5532(4) 0.8312(3) 0.4102(2)
C40 C 0.4652(4) 0.8504(3) 0.36831(19)
C41 C 0.4372(3) 0.7652(3) 0.36726(19)
C42 C 0.3741(3) 0.7728(3) 0.31353(19)
C43 C 0.3796(3) 0.6880(3) 0.2963(2)
C44 C 0.4467(3) 0.5841(3) 0.3321(2)
C45 C 0.4859(3) 0.5083(3) 0.2991(2)
C46 C 0.5737(4) 0.4150(3) 0.3298(2)
C47 C 0.6513(4) 0.3612(3) 0.2886(2)
C48 C 0.6266(4) 0.3967(3) 0.2200(2)
C49 C 0.7077(4) 0.3936(3) 0.1732(2)
C50 C 0.8135(4) 0.3557(3) 0.1942(2)
C51 C 0.8982(4) 0.3955(3) 0.1526(2)
C52 C 0.8480(4) 0.5085(3) 0.10689(19)
C53 C 0.9051(4) 0.5792(3) 0.0972(2)
C54 C 1.0095(3) 0.5484(3) 0.1355(2)
C55 C 1.0054(3) 0.6365(3) 0.1618(2)
C56 C 0.9558(3) 0.7445(3) 0.1272(2)
C57 C 0.9352(4) 0.8123(3) 0.1634(2)
C58 C 0.8519(4) 0.9229(3) 0.1425(2)
C59 C 0.8350(4) 0.9522(3) 0.2097(2)
C60 C 0.7158(4) 1.0075(3) 0.2250(2)
C61 C 0.7042(4) 0.9940(4) 0.3041(2)
C62 C 0.6050(4) 0.9739(4) 0.3320(2)
C63 C 0.5014(4) 1.0153(3) 0.2908(2)
C64 C 0.4118(4) 0.9613(3) 0.32062(19)
C65 C 0.3602(3) 0.9613(3) 0.25546(19)
C66 C 0.3096(3) 0.8738(3) 0.2641(2)
C67 C 0.3102(3) 0.8391(3) 0.2003(2)
C68 C 0.3273(4) 0.7162(3) 0.2305(2)
C69 C 0.3968(3) 0.6458(3) 0.1932(2)
C70 C 0.4603(3) 0.5456(3) 0.2270(2)
C71 C 0.5200(4) 0.4734(3) 0.1879(2)
C72 C 0.5546(4) 0.5320(3) 0.1209(2)
C73 C 0.6691(4) 0.4738(3) 0.1062(2)
C74 C 0.7382(4) 0.5453(3) 0.08507(19)
C75 C 0.6859(4) 0.6537(3) 0.05454(19)
C76 C 0.7445(4) 0.7215(3) 0.04589(19)
C77 C 0.8525(3) 0.6856(3) 0.06468(19)
C78 C 0.8890(3) 0.7767(3) 0.06588(19)
C79 C 0.7781(3) 0.8554(3) 0.0718(2)
C80 C 0.7568(4) 0.9096(3) 0.1155(2)
C81 C 0.6504(4) 0.9360(3) 0.14519(19)
C82 C 0.6346(4) 0.9719(3) 0.2000(2)
C83 C 0.5326(4) 0.9819(3) 0.2307(2)
C84 C 0.4573(3) 0.9485(3) 0.21355(19)
C85 C 0.4733(3) 0.9032(3) 0.16282(19)
C86 C 0.4058(3) 0.8486(3) 0.15613(19)
C87 C 0.4357(3) 0.7910(3) 0.11308(19)
C88 C 0.4058(4) 0.6951(3) 0.1198(2)
C89 C 0.5049(4) 0.6329(3) 0.0914(2)
C90 C 0.5635(4) 0.7030(3) 0.04573(19)
C91 C 0.5267(4) 0.7931(3) 0.07380(19)
C92 C 0.5906(3) 0.8500(3) 0.07808(18)
C93 C 0.6946(4) 0.8345(3) 0.04168(19)
C94 C 0.5703(3) 0.9012(3) 0.12596(19)
Cl29? Cl 0.7784(12) 0.9333(9) 0.4603(5)
Cl30? Cl 0.6750(12) 1.1460(10) 0.1955(6)
Cl31? Cl 0.5827(8) 1.1311(6) 0.3488(4)
Cl32? Cl 0.5353(6) 0.9781(5) 0.4702(3)
Cl33? Cl 0.751(2) 0.7046(15) 0.5440(8)
Cl34? Cl 0.4030(18) 1.1688(12) 0.2507(9)
Cl35? Cl 0.886(3) 1.025(2) 0.107(2)
loop_
_geom_bond_atom_site_label_1
_geom_bond_atom_site_label_2
_geom_bond_site_symmetry_1
_geom_bond_site_symmetry_2
Cl1 C3 1_555 1_555
Cl2 C6 1_555 1_555
Cl3 C15 1_555 1_555
Cl4 C16 1_555 1_555
Cl5 C23 1_555 1_555
Cl6 C24 1_555 1_555
Cl7 C27 1_555 1_555
Cl8 C30 1_555 1_555
Cl9 C36 1_555 1_555
Cl10 C37 1_555 1_555
Cl11 C51 1_555 1_555
Cl12 C54 1_555 1_555
Cl13 C58 1_555 1_555
Cl14 C59 1_555 1_555
Cl15 C60 1_555 1_555
Cl16 C61 1_555 1_555
Cl17 C63 1_555 1_555
Cl18 C64 1_555 1_555
Cl19 C65 1_555 1_555
Cl20 C66 1_555 1_555
Cl21 C67 1_555 1_555
Cl22 C68 1_555 1_555
Cl23 C71 1_555 1_555
Cl24 C73 1_555 1_555
Cl25 C78 1_555 1_555
Cl26 C88 1_555 1_555
Cl27 C90 1_555 1_555
Cl28 C93 1_555 1_555
C1 C2 1_555 1_555
C2 C3 1_555 1_555
C3 C4 1_555 1_555
C4 C5 1_555 1_555
C5 C6 1_555 1_555
C6 C7 1_555 1_555
C7 C1 1_555 1_555
C8 C7 1_555 1_555
C9 C8 1_555 1_555
C10 C9 1_555 1_555
C11 C1 1_555 1_555
C12 C11 1_555 1_555
C13 C12 1_555 1_555
C14 C2 1_555 1_555
C15 C14 1_555 1_555
C16 C3 1_555 1_555
C17 C16 1_555 1_555
C18 C4 1_555 1_555
C19 C18 1_555 1_555
C20 C19 1_555 1_555
C21 C5 1_555 1_555
C22 C21 1_555 1_555
C23 C6 1_555 1_555
C24 C8 1_555 1_555
C25 C24 1_555 1_555
C26 C25 1_555 1_555
C27 C9 1_555 1_555
C28 C27 1_555 1_555
C29 C28 1_555 1_555
C30 C10 1_555 1_555
C31 C30 1_555 1_555
C32 C12 1_555 1_555
C33 C32 1_555 1_555
C34 C33 1_555 1_555
C35 C13 1_555 1_555
C36 C35 1_555 1_555
C37 C15 1_555 1_555
C38 C37 1_555 1_555
C39 C17 1_555 1_555
C40 C39 1_555 1_555
C41 C19 1_555 1_555
C42 C41 1_555 1_555
C43 C42 1_555 1_555
C44 C20 1_555 1_555
C45 C44 1_555 1_555
C46 C22 1_555 1_555
C47 C25 1_555 1_555
C48 C47 1_555 1_555
C49 C48 1_555 1_555
C50 C26 1_555 1_555
C51 C28 1_555 1_555
C52 C51 1_555 1_555
C53 C52 1_555 1_555
C54 C29 1_555 1_555
C55 C31 1_555 1_555
C56 C55 1_555 1_555
C57 C33 1_555 1_555
C58 C57 1_555 1_555
C59 C34 1_555 1_555
C60 C59 1_555 1_555
C61 C36 1_555 1_555
C62 C38 1_555 1_555
C63 C62 1_555 1_555
C64 C40 1_555 1_555
C65 C64 1_555 1_555
C66 C42 1_555 1_555
C67 C66 1_555 1_555
C68 C43 1_555 1_555
C69 C68 1_555 1_555
C70 C45 1_555 1_555
C71 C48 1_555 1_555
C72 C71 1_555 1_555
C73 C49 1_555 1_555
C74 C52 1_555 1_555
C75 C74 1_555 1_555
C76 C75 1_555 1_555
C77 C53 1_555 1_555
C78 C56 1_555 1_555
C79 C78 1_555 1_555
C80 C58 1_555 1_555
C81 C80 1_555 1_555
C82 C60 1_555 1_555
C83 C63 1_555 1_555
C84 C65 1_555 1_555
C85 C84 1_555 1_555
C86 C67 1_555 1_555
C87 C86 1_555 1_555
C88 C69 1_555 1_555
C89 C72 1_555 1_555
C90 C75 1_555 1_555
C91 C87 1_555 1_555
C92 C91 1_555 1_555
C93 C76 1_555 1_555
C94 C81 1_555 1_555
C10 C11 1_555 1_555
C13 C14 1_555 1_555
C15 C16 1_555 1_555
C17 C18 1_555 1_555
C20 C21 1_555 1_555
C22 C23 1_555 1_555
C23 C24 1_555 1_555
C26 C27 1_555 1_555
C29 C30 1_555 1_555
C31 C32 1_555 1_555
C34 C35 1_555 1_555
C36 C37 1_555 1_555
C38 C39 1_555 1_555
C40 C41 1_555 1_555
C43 C44 1_555 1_555
C45 C46 1_555 1_555
C46 C47 1_555 1_555
C49 C50 1_555 1_555
C50 C51 1_555 1_555
C53 C54 1_555 1_555
C54 C55 1_555 1_555
C56 C57 1_555 1_555
C58 C59 1_555 1_555
C60 C61 1_555 1_555
C61 C62 1_555 1_555
C63 C64 1_555 1_555
C65 C66 1_555 1_555
C67 C68 1_555 1_555
C69 C70 1_555 1_555
C70 C71 1_555 1_555
C72 C73 1_555 1_555
C73 C74 1_555 1_555
C76 C77 1_555 1_555
C77 C78 1_555 1_555
C79 C80 1_555 1_555
C79 C93 1_555 1_555
C81 C82 1_555 1_555
C82 C83 1_555 1_555
C83 C84 1_555 1_555
C85 C86 1_555 1_555
C85 C94 1_555 1_555
C87 C88 1_555 1_555
C88 C89 1_555 1_555
C89 C90 1_555 1_555
C90 C91 1_555 1_555
C92 C93 1_555 1_555
C92 C94 1_555 1_555

#END
