
#######################################################################
#
#                 Cambridge Crystallographic Data Centre
#                                CCDC 
#
#######################################################################
#
# If this CIF has been generated from an entry in the Cambridge 
# Structural Database, then it will include bibliographic, chemical, 
# crystal, experimental, refinement or atomic coordinate data resulting 
# from the CCDC's data processing and validation procedures.
#
#######################################################################

data_HOHRON
_chemical_formula_moiety         'C56 H56 B2 S4'
_chemical_name_systematic        
(2,2':5',2'':5'',2'''-quaterthiene-5,5'''-diyldiethene-2,1-diyl)bis(dimesitylborane)
_symmetry_cell_setting           monoclinic
_symmetry_space_group_name_H-M   'P 21/c'
_symmetry_Int_Tables_number      14
_space_group_name_Hall           '-P 2ybc'
loop_
_symmetry_equiv_pos_site_id
_symmetry_equiv_pos_as_xyz
1 x,y,z
2 -x,1/2+y,1/2-z
3 -x,-y,-z
4 x,1/2-y,1/2+z
_cell_length_a                   14.2730(4)
_cell_length_b                   11.0900(3)
_cell_length_c                   15.6148(5)
_cell_angle_alpha                90
_cell_angle_beta                 101.853(9)
_cell_angle_gamma                90
_cell_volume                     2418.93
_exptl_crystal_colour            red
_exptl_crystal_description       parallelepiped
_chemical_melting_point          '523 K'
_cell_formula_units_Z            2
_exptl_crystal_recrystallization_method methanol/toluene
loop_
_atom_site_label
_atom_site_type_symbol
_atom_site_fract_x
_atom_site_fract_y
_atom_site_fract_z
S1 S 0.36689(4) 0.59720(5) 0.44830(4)
S2 S 0.34166(4) 0.91166(5) 0.27579(3)
C1 C 0.48594(14) 0.55296(18) 0.47363(13)
C2 C 0.54115(14) 0.63089(19) 0.43727(13)
H1 H 0.6086 0.6231 0.4446
C3 C 0.48858(14) 0.72391(18) 0.38794(13)
H2 H 0.5170 0.7848 0.3589
C4 C 0.39252(15) 0.71757(18) 0.38601(13)
C5 C 0.31585(15) 0.79290(18) 0.33905(13)
C6 C 0.21962(15) 0.7858(2) 0.33631(15)
H3 H 0.1913 0.7265 0.3668
C7 C 0.16683(15) 0.8752(2) 0.28344(15)
H4 H 0.0992 0.8817 0.2745
C8 C 0.22192(14) 0.95179(19) 0.24602(13)
C9 C 0.19154(15) 1.05509(19) 0.19064(13)
H5 H 0.1246 1.0652 0.1704
C10 C 0.24869(15) 1.13775(19) 0.16474(13)
H6 H 0.3158 1.1246 0.1798
C11 C 0.28567(14) 1.36169(18) 0.11456(13)
C12 C 0.30725(14) 1.41093(18) 0.03738(13)
C13 C 0.37384(14) 1.50412(19) 0.04185(14)
H7 H 0.3891 1.5341 -0.0107
C14 C 0.41844(14) 1.55375(18) 0.12156(14)
C15 C 0.39734(14) 1.50547(19) 0.19729(14)
H8 H 0.4277 1.5381 0.2523
C16 C 0.33327(14) 1.41038(19) 0.19536(13)
C17 C 0.26095(16) 1.3626(2) -0.05119(14)
H9 H 0.2811 1.2789 -0.0565
H10 H 0.2804 1.4117 -0.0968
H11 H 0.1912 1.3657 -0.0580
C18 C 0.31282(18) 1.3697(2) 0.28240(15)
H12 H 0.2662 1.4244 0.2999
H13 H 0.3722 1.3707 0.3269
H14 H 0.2867 1.2877 0.2765
C19 C 0.48578(16) 1.6595(2) 0.12574(16)
H15 H 0.5197 1.6542 0.0773
H16 H 0.5322 1.6579 0.1815
H17 H 0.4492 1.7349 0.1211
C20 C 0.07561(16) 1.4396(2) 0.15260(16)
H18 H 0.0868 1.3980 0.2092
H19 H 0.0260 1.5011 0.1510
H20 H 0.1351 1.4781 0.1447
C21 C 0.10644(14) 1.25984(19) 0.05966(13)
C22 C 0.04314(15) 1.34924(19) 0.07972(14)
C23 C -0.05131(15) 1.3535(2) 0.03428(15)
H21 H -0.0922 1.4145 0.0485
C24 C -0.08754(15) 1.2719(2) -0.03139(15)
C25 C -0.02561(15) 1.1853(2) -0.05193(14)
H22 H -0.0491 1.1292 -0.0972
C26 C 0.06952(15) 1.17737(19) -0.00832(13)
C27 C -0.19090(16) 1.2773(2) -0.07874(17)
H23 H -0.2239 1.3412 -0.0533
H24 H -0.2219 1.1997 -0.0730
H25 H -0.1939 1.2945 -0.1409
C28 C 0.13123(16) 1.0823(2) -0.03914(15)
H26 H 0.1492 1.1095 -0.0933
H27 H 0.0954 1.0066 -0.0501
H28 H 0.1891 1.0694 0.0060
B1 B 0.21315(16) 1.2532(2) 0.11227(15)
S1B S 0.63311(4) 0.40280(5) 0.55170(4)
S2B S 0.65834(4) 0.08834(5) 0.72421(3)
C1B C 0.51406(14) 0.44704(18) 0.52637(13)
C2B C 0.45885(14) 0.36911(19) 0.56273(13)
H1B H 0.3914 0.3769 0.5554
C3B C 0.51142(14) 0.27609(18) 0.61206(13)
H2B H 0.4830 0.2152 0.6411
C4B C 0.60748(15) 0.28243(18) 0.61399(13)
C5B C 0.68415(15) 0.20710(18) 0.66095(13)
C6B C 0.78038(15) 0.2142(2) 0.66369(15)
H3B H 0.8087 0.2735 0.6332
C7B C 0.83317(15) 0.1248(2) 0.71656(15)
H4B H 0.9008 0.1183 0.7255
C8B C 0.77808(14) 0.04821(19) 0.75398(13)
C9B C 0.80846(15) -0.05509(19) 0.80936(13)
H5B H 0.8754 -0.0652 0.8296
C10B C 0.75131(15) -0.13775(19) 0.83526(13)
H6B H 0.6842 -0.1246 0.8202
C11B C 0.71433(14) -0.36169(18) 0.88544(13)
C12B C 0.69275(14) -0.41093(18) 0.96262(13)
C13B C 0.62616(14) -0.50412(19) 0.95815(14)
H7B H 0.6109 -0.5341 1.0107
C14B C 0.58156(14) -0.55375(18) 0.87844(14)
C15B C 0.60266(14) -0.50547(19) 0.80271(14)
H8B H 0.5723 -0.5381 0.7477
C16B C 0.66673(14) -0.41038(19) 0.80464(13)
C17B C 0.73905(16) -0.3626(2) 1.05119(14)
H9B H 0.7189 -0.2789 1.0565
H10B H 0.7196 -0.4117 1.0968
H11B H 0.8088 -0.3657 1.0580
C18B C 0.68718(18) -0.3697(2) 0.71760(15)
H12B H 0.7338 -0.4244 0.7001
H13B H 0.6278 -0.3707 0.6731
H14B H 0.7133 -0.2877 0.7235
C19B C 0.51422(16) -0.6595(2) 0.87426(16)
H15B H 0.4803 -0.6542 0.9227
H16B H 0.4678 -0.6579 0.8185
H17B H 0.5508 -0.7349 0.8789
C20B C 0.92439(16) -0.4396(2) 0.84740(16)
H18B H 0.9132 -0.3980 0.7908
H19B H 0.9740 -0.5011 0.8490
H20B H 0.8649 -0.4781 0.8553
C21B C 0.89356(14) -0.25984(19) 0.94034(13)
C22B C 0.95686(15) -0.34924(19) 0.92028(14)
C23B C 1.05131(15) -0.3535(2) 0.96572(15)
H21B H 1.0922 -0.4145 0.9515
C24B C 1.08754(15) -0.2719(2) 1.03139(15)
C25B C 1.02561(15) -0.1853(2) 1.05193(14)
H22B H 1.0491 -0.1292 1.0972
C26B C 0.93048(15) -0.17737(19) 1.00832(13)
C27B C 1.19090(16) -0.2773(2) 1.07874(17)
H23B H 1.2239 -0.3412 1.0533
H24B H 1.2219 -0.1997 1.0730
H25B H 1.1939 -0.2945 1.1409
C28B C 0.86877(16) -0.0823(2) 1.03914(15)
H26B H 0.8508 -0.1095 1.0933
H27B H 0.9046 -0.0066 1.0501
H28B H 0.8109 -0.0694 0.9940
B1B B 0.78685(16) -0.2532(2) 0.88773(15)
H29? H 0.1008 1.0405 -0.0930
H30? H 0.1355 1.0130 0.0004
H31? H 0.1939 1.1143 -0.0439
loop_
_geom_bond_atom_site_label_1
_geom_bond_atom_site_label_2
_geom_bond_site_symmetry_1
_geom_bond_site_symmetry_2
S1 C1 1_555 1_555
S2 C5 1_555 1_555
C1 C2 1_555 1_555
C2 H1 1_555 1_555
C3 C2 1_555 1_555
H2 C3 1_555 1_555
C4 S1 1_555 1_555
C5 C4 1_555 1_555
C6 C5 1_555 1_555
H3 C6 1_555 1_555
C7 C6 1_555 1_555
H4 C7 1_555 1_555
C8 S2 1_555 1_555
C9 C8 1_555 1_555
H5 C9 1_555 1_555
C10 C9 1_555 1_555
H6 C10 1_555 1_555
C11 C12 1_555 1_555
C12 C13 1_555 1_555
C13 H7 1_555 1_555
C14 C13 1_555 1_555
C15 C14 1_555 1_555
H8 C15 1_555 1_555
C16 C11 1_555 1_555
C17 C12 1_555 1_555
H9 C17 1_555 1_555
H10 C17 1_555 1_555
H11 C17 1_555 1_555
C18 C16 1_555 1_555
H12 C18 1_555 1_555
H13 C18 1_555 1_555
H14 C18 1_555 1_555
C19 C14 1_555 1_555
H15 C19 1_555 1_555
H16 C19 1_555 1_555
H17 C19 1_555 1_555
C20 H18 1_555 1_555
H19 C20 1_555 1_555
H20 C20 1_555 1_555
C21 C22 1_555 1_555
C22 C20 1_555 1_555
C23 C22 1_555 1_555
H21 C23 1_555 1_555
C24 C23 1_555 1_555
C25 C24 1_555 1_555
H22 C25 1_555 1_555
C26 C21 1_555 1_555
C27 C24 1_555 1_555
H23 C27 1_555 1_555
H24 C27 1_555 1_555
H25 C27 1_555 1_555
C28 C26 1_555 1_555
H26 C28 1_555 1_555
H27 C28 1_555 1_555
H28 C28 1_555 1_555
B1 C10 1_555 1_555
S1B C1B 1_555 1_555
S2B C5B 1_555 1_555
C1B C1 1_555 1_555
C2B C1B 1_555 1_555
H1B C2B 1_555 1_555
C3B C2B 1_555 1_555
H2B C3B 1_555 1_555
C4B S1B 1_555 1_555
C5B C4B 1_555 1_555
C6B C5B 1_555 1_555
H3B C6B 1_555 1_555
C7B C6B 1_555 1_555
H4B C7B 1_555 1_555
C8B S2B 1_555 1_555
C9B C8B 1_555 1_555
H5B C9B 1_555 1_555
C10B C9B 1_555 1_555
H6B C10B 1_555 1_555
C11B C12B 1_555 1_555
C12B C13B 1_555 1_555
C13B H7B 1_555 1_555
C14B C13B 1_555 1_555
C15B C14B 1_555 1_555
H8B C15B 1_555 1_555
C16B C11B 1_555 1_555
C17B C12B 1_555 1_555
H9B C17B 1_555 1_555
H10B C17B 1_555 1_555
H11B C17B 1_555 1_555
C18B C16B 1_555 1_555
H12B C18B 1_555 1_555
H13B C18B 1_555 1_555
H14B C18B 1_555 1_555
C19B C14B 1_555 1_555
H15B C19B 1_555 1_555
H16B C19B 1_555 1_555
H17B C19B 1_555 1_555
C20B H18B 1_555 1_555
H19B C20B 1_555 1_555
H20B C20B 1_555 1_555
C21B C22B 1_555 1_555
C22B C20B 1_555 1_555
C23B C22B 1_555 1_555
H21B C23B 1_555 1_555
C24B C23B 1_555 1_555
C25B C24B 1_555 1_555
H22B C25B 1_555 1_555
C26B C21B 1_555 1_555
C27B C24B 1_555 1_555
H23B C27B 1_555 1_555
H24B C27B 1_555 1_555
H25B C27B 1_555 1_555
C28B C26B 1_555 1_555
H26B C28B 1_555 1_555
H27B C28B 1_555 1_555
H28B C28B 1_555 1_555
B1B C10B 1_555 1_555
C3 C4 1_555 1_555
C7 C8 1_555 1_555
C11 B1 1_555 1_555
C15 C16 1_555 1_555
C21 B1 1_555 1_555
C25 C26 1_555 1_555
C3B C4B 1_555 1_555
C7B C8B 1_555 1_555
C11B B1B 1_555 1_555
C15B C16B 1_555 1_555
C21B B1B 1_555 1_555
C25B C26B 1_555 1_555

#END
