
#######################################################################
#
#                 Cambridge Crystallographic Data Centre
#                                CCDC 
#
#######################################################################
#
# If this CIF has been generated from an entry in the Cambridge 
# Structural Database, then it will include bibliographic, chemical, 
# crystal, experimental, refinement or atomic coordinate data resulting 
# from the CCDC's data processing and validation procedures.
#
#######################################################################

data_HOHSII
_chemical_formula_moiety         'C28 H36 B2 O2 S1'
_chemical_name_systematic        
2-(5-(dimesitylboryl)-2-thienyl)-4,4,5,5-tetramethyl-1,3,2-dioxaborolane
_symmetry_cell_setting           orthorhombic
_symmetry_space_group_name_H-M   'P n a 21'
_symmetry_Int_Tables_number      33
_space_group_name_Hall           'P 2c -2n'
loop_
_symmetry_equiv_pos_site_id
_symmetry_equiv_pos_as_xyz
1 x,y,z
2 -x,-y,1/2+z
3 1/2+x,1/2-y,z
4 1/2-x,1/2+y,1/2+z
_cell_length_a                   28.190(3)
_cell_length_b                   8.2935(10)
_cell_length_c                   11.6391(14)
_cell_angle_alpha                90
_cell_angle_beta                 90
_cell_angle_gamma                90
_cell_volume                     2721.15
_exptl_crystal_colour            colorless
_exptl_crystal_description       block
_cell_formula_units_Z            4
loop_
_atom_site_label
_atom_site_type_symbol
_atom_site_fract_x
_atom_site_fract_y
_atom_site_fract_z
S1 S 0.622039(10) 0.53633(4) 0.42753(3)
O1 O 0.52376(4) 0.45904(14) 0.54547(10)
O2 O 0.55141(4) 0.26283(13) 0.66693(10)
C1 C 0.48513(5) 0.42566(19) 0.62657(16)
C2 C 0.49923(6) 0.2562(2) 0.67227(17)
C3 C 0.43832(6) 0.4329(2) 0.5622(2)
H1 H 0.4327 0.5433 0.5355
H2 H 0.4125 0.4002 0.6136
H3 H 0.4395 0.3598 0.4961
C4 C 0.48760(6) 0.5567(2) 0.71840(17)
H4 H 0.5170 0.5453 0.7624
H5 H 0.4604 0.5461 0.7702
H6 H 0.4869 0.6629 0.6816
C5 C 0.48373(7) 0.1216(2) 0.5913(3)
H7 H 0.4914 0.1514 0.5120
H8 H 0.4495 0.1048 0.5986
H9 H 0.5004 0.0219 0.6115
C6 C 0.48418(8) 0.2222(3) 0.7951(2)
H10 H 0.4950 0.1144 0.8176
H11 H 0.4495 0.2277 0.8010
H12 H 0.4984 0.3028 0.8461
C7 C 0.61265(5) 0.40073(16) 0.53626(12)
C8 C 0.65534(5) 0.33613(17) 0.57220(12)
H13 H 0.6578 0.2592 0.6323
C9 C 0.69498(5) 0.39546(17) 0.51062(11)
H14 H 0.7267 0.3626 0.5251
C10 C 0.68255(4) 0.50776(14) 0.42649(12)
C11 C 0.76646(4) 0.54112(14) 0.31979(10)
C12 C 0.80611(4) 0.64475(15) 0.33645(10)
C13 C 0.85204(5) 0.58673(17) 0.32052(11)
H15 H 0.8781 0.6571 0.3334
C14 C 0.86080(5) 0.42887(17) 0.28663(11)
C15 C 0.82226(5) 0.32756(16) 0.26899(11)
H16 H 0.8277 0.2193 0.2458
C16 C 0.77569(4) 0.38097(15) 0.28463(11)
C17 C 0.79968(5) 0.81826(18) 0.37175(14)
H17 H 0.8308 0.8699 0.3793
H18 H 0.7830 0.8226 0.4456
H19 H 0.7810 0.8750 0.3134
C18 C 0.91061(5) 0.3697(2) 0.26627(16)
H20 H 0.9096 0.2584 0.2382
H21 H 0.9285 0.3738 0.3384
H22 H 0.9262 0.4383 0.2090
C19 C 0.73682(5) 0.26190(16) 0.25703(13)
H23 H 0.7433 0.2112 0.1826
H24 H 0.7063 0.3183 0.2537
H25 H 0.7356 0.1789 0.3169
C20 C 0.69094(4) 0.75673(14) 0.28465(10)
C21 C 0.67195(5) 0.88370(15) 0.35175(10)
C22 C 0.64814(5) 1.01154(15) 0.29932(12)
H26 H 0.6349 1.0940 0.3460
C23 C 0.64325(5) 1.02128(15) 0.18037(11)
C24 C 0.66192(5) 0.89642(15) 0.11403(11)
H27 H 0.6587 0.9008 0.0329
C25 C 0.68520(4) 0.76554(14) 0.16350(10)
C26 C 0.67854(6) 0.89282(18) 0.48057(12)
H28 H 0.6979 0.9872 0.4998
H29 H 0.6945 0.7949 0.5076
H30 H 0.6475 0.9021 0.5178
C27 C 0.61935(5) 1.16499(18) 0.12645(14)
H31 H 0.6435 1.2374 0.0946
H32 H 0.6009 1.2225 0.1848
H33 H 0.5982 1.1287 0.0649
C28 C 0.70190(5) 0.63008(16) 0.08691(11)
H34 H 0.6828 0.5335 0.1018
H35 H 0.7353 0.6068 0.1029
H36 H 0.6983 0.6619 0.0063
B1 B 0.56198(5) 0.37213(18) 0.58348(14)
B2 B 0.71434(5) 0.60372(16) 0.34234(11)
loop_
_geom_bond_atom_site_label_1
_geom_bond_atom_site_label_2
_geom_bond_site_symmetry_1
_geom_bond_site_symmetry_2
S1 C7 1_555 1_555
O1 C1 1_555 1_555
O2 C2 1_555 1_555
C1 C2 1_555 1_555
C2 C5 1_555 1_555
C3 C1 1_555 1_555
H1 C3 1_555 1_555
H2 C3 1_555 1_555
H3 C3 1_555 1_555
C4 C1 1_555 1_555
H4 C4 1_555 1_555
H5 C4 1_555 1_555
H6 C4 1_555 1_555
C5 H7 1_555 1_555
H8 C5 1_555 1_555
H9 C5 1_555 1_555
C6 C2 1_555 1_555
H10 C6 1_555 1_555
H11 C6 1_555 1_555
H12 C6 1_555 1_555
C7 C8 1_555 1_555
C8 H13 1_555 1_555
C9 C8 1_555 1_555
H14 C9 1_555 1_555
C10 S1 1_555 1_555
C11 C12 1_555 1_555
C12 C13 1_555 1_555
C13 H15 1_555 1_555
C14 C13 1_555 1_555
C15 C14 1_555 1_555
H16 C15 1_555 1_555
C16 C11 1_555 1_555
C17 C12 1_555 1_555
H17 C17 1_555 1_555
H18 C17 1_555 1_555
H19 C17 1_555 1_555
C18 C14 1_555 1_555
H20 C18 1_555 1_555
H21 C18 1_555 1_555
H22 C18 1_555 1_555
C19 C16 1_555 1_555
H23 C19 1_555 1_555
H24 C19 1_555 1_555
H25 C19 1_555 1_555
C20 C21 1_555 1_555
C21 C22 1_555 1_555
C22 H26 1_555 1_555
C23 C22 1_555 1_555
C24 C23 1_555 1_555
H27 C24 1_555 1_555
C25 C20 1_555 1_555
C26 C21 1_555 1_555
H28 C26 1_555 1_555
H29 C26 1_555 1_555
H30 C26 1_555 1_555
C27 C23 1_555 1_555
H31 C27 1_555 1_555
H32 C27 1_555 1_555
H33 C27 1_555 1_555
C28 C25 1_555 1_555
H34 C28 1_555 1_555
H35 C28 1_555 1_555
H36 C28 1_555 1_555
B1 O1 1_555 1_555
B2 C10 1_555 1_555
O2 B1 1_555 1_555
C7 B1 1_555 1_555
C9 C10 1_555 1_555
C11 B2 1_555 1_555
C15 C16 1_555 1_555
C20 B2 1_555 1_555
C24 C25 1_555 1_555

#END
