
#######################################################################
#
#                 Cambridge Crystallographic Data Centre
#                                CCDC 
#
#######################################################################
#
# If this CIF has been generated from an entry in the Cambridge 
# Structural Database, then it will include bibliographic, chemical, 
# crystal, experimental, refinement or atomic coordinate data resulting 
# from the CCDC's data processing and validation procedures.
#
#######################################################################

data_HOHSEE
_chemical_formula_moiety         'C22 H25 B1 S1'
_chemical_name_systematic        dimesityl(2-thienyl)borane
_symmetry_cell_setting           monoclinic
_symmetry_space_group_name_H-M   'P 21/n'
_symmetry_Int_Tables_number      14
_space_group_name_Hall           '-P 2yn'
loop_
_symmetry_equiv_pos_site_id
_symmetry_equiv_pos_as_xyz
1 x,y,z
2 1/2-x,1/2+y,1/2-z
3 -x,-y,-z
4 1/2+x,1/2-y,1/2+z
_cell_length_a                   11.9904(17)
_cell_length_b                   8.1359(11)
_cell_length_c                   19.658(3)
_cell_angle_alpha                90
_cell_angle_beta                 100.74(3)
_cell_angle_gamma                90
_cell_volume                     1884.1
_exptl_crystal_colour            colorless
_exptl_crystal_description       'tabular block'
_cell_formula_units_Z            4
loop_
_atom_site_label
_atom_site_type_symbol
_atom_site_fract_x
_atom_site_fract_y
_atom_site_fract_z
S1 S 0.20854(3) 0.76928(5) 0.684344(18)
C1 C 0.18337(10) 0.77355(14) 0.59498(6)
C2 C 0.0923(2) 0.8802(3) 0.57203(13)
H1 H 0.0664(18) 0.894(3) 0.5251(13)
C3 C 0.04622(12) 0.95280(17) 0.62569(8)
H2 H -0.0154(17) 1.026(3) 0.6194(10)
C4 C 0.10300(13) 0.90410(17) 0.68915(7)
H3 H 0.0882(17) 0.934(2) 0.7349(10)
C5 C 0.23864(10) 0.70722(14) 0.47254(6)
C6 C 0.19174(10) 0.59429(15) 0.42005(6)
C7 C 0.16985(11) 0.64367(17) 0.35065(7)
H4 H 0.1327(15) 0.564(2) 0.3148(9)
C8 C 0.19533(11) 0.80084(18) 0.33056(6)
C9 C 0.24594(10) 0.90954(16) 0.38163(6)
H5 H 0.2647(15) 1.022(2) 0.3686(9)
C10 C 0.26747(10) 0.86595(14) 0.45177(6)
C11 C 0.16085(12) 0.42049(17) 0.43623(8)
H6 H 0.1006(18) 0.415(3) 0.4635(11)
H7 H 0.2251(17) 0.358(2) 0.4635(10)
H8 H 0.136(2) 0.359(3) 0.3965(13)
C12 C 0.16837(16) 0.8510(2) 0.25528(8)
H9 H 0.183(2) 0.968(4) 0.2477(15)
H10 H 0.091(3) 0.843(4) 0.2368(15)
H11 H 0.219(3) 0.792(4) 0.2282(15)
C13 C 0.32460(13) 0.99261(17) 0.50250(7)
H12 H 0.3567(19) 0.953(3) 0.5457(12)
H13 H 0.374(2) 1.058(3) 0.4855(13)
H14 H 0.269(2) 1.075(3) 0.5135(14)
C14 C 0.31319(10) 0.50751(14) 0.58835(6)
C15 C 0.25382(10) 0.38031(15) 0.61532(6)
C16 C 0.31249(11) 0.24285(14) 0.64621(6)
H15 H 0.2696(14) 0.156(2) 0.6642(8)
C17 C 0.42965(11) 0.22904(15) 0.65322(6)
C18 C 0.48874(10) 0.35585(15) 0.62787(6)
H16 H 0.5698(14) 0.347(2) 0.6336(8)
C19 C 0.43238(10) 0.49308(14) 0.59524(6)
C20 C 0.12644(11) 0.38124(18) 0.61050(8)
H17 H 0.0931(19) 0.286(3) 0.5826(11)
H18 H 0.0894(17) 0.479(3) 0.5884(10)
H19 H 0.106(2) 0.365(3) 0.6555(12)
C21 C 0.49088(12) 0.08232(17) 0.68954(8)
H20 H 0.5727 0.0943 0.6913
H21 H 0.4640 -0.0181 0.6641
H22 H 0.4757 0.0755 0.7367
C22 C 0.50151(11) 0.62830(16) 0.57062(7)
H23 H 0.4719(16) 0.662(2) 0.5246(10)
H24 H 0.5777(16) 0.597(2) 0.5715(9)
H25 H 0.4983(18) 0.729(2) 0.6000(11)
B1 B 0.24809(11) 0.66195(16) 0.55175(7)
C23? C 0.19579(3) 0.79325(5) 0.666754(18)
H26? H 0.2560 0.7431 0.6992
S2? S 0.0804(5) 0.8931(7) 0.5557(3)
H27? H 0.4356 0.0068 0.7035
H28? H 0.5443 0.1192 0.7306
H29? H 0.5325 0.0257 0.6580
loop_
_geom_bond_atom_site_label_1
_geom_bond_atom_site_label_2
_geom_bond_site_symmetry_1
_geom_bond_site_symmetry_2
S1 C1 1_555 1_555
C1 C2 1_555 1_555
C2 H1 1_555 1_555
C3 C2 1_555 1_555
H2 C3 1_555 1_555
C4 S1 1_555 1_555
H3 C4 1_555 1_555
C5 C6 1_555 1_555
C6 C7 1_555 1_555
C7 H4 1_555 1_555
C8 C7 1_555 1_555
C9 C8 1_555 1_555
H5 C9 1_555 1_555
C10 C5 1_555 1_555
C11 C6 1_555 1_555
H6 C11 1_555 1_555
H7 C11 1_555 1_555
H8 C11 1_555 1_555
C12 C8 1_555 1_555
H9 C12 1_555 1_555
H10 C12 1_555 1_555
H11 C12 1_555 1_555
C13 C10 1_555 1_555
H12 C13 1_555 1_555
H13 C13 1_555 1_555
H14 C13 1_555 1_555
C14 C15 1_555 1_555
C15 C16 1_555 1_555
C16 H15 1_555 1_555
C17 C16 1_555 1_555
C18 C17 1_555 1_555
H16 C18 1_555 1_555
C19 C14 1_555 1_555
C20 C15 1_555 1_555
H17 C20 1_555 1_555
H18 C20 1_555 1_555
H19 C20 1_555 1_555
C21 C17 1_555 1_555
H20 C21 1_555 1_555
H21 C21 1_555 1_555
H22 C21 1_555 1_555
C22 C19 1_555 1_555
H23 C22 1_555 1_555
H24 C22 1_555 1_555
H25 C22 1_555 1_555
B1 C1 1_555 1_555
C3 C4 1_555 1_555
C5 B1 1_555 1_555
C9 C10 1_555 1_555
C14 B1 1_555 1_555
C18 C19 1_555 1_555

#END
