
#######################################################################
#
#                 Cambridge Crystallographic Data Centre
#                                CCDC 
#
#######################################################################
#
# If this CIF has been generated from an entry in the Cambridge 
# Structural Database, then it will include bibliographic, chemical, 
# crystal, experimental, refinement or atomic coordinate data resulting 
# from the CCDC's data processing and validation procedures.
#
#######################################################################

data_HOHSOO
_chemical_formula_moiety         'C22 H24 B1 I1 S1'
_chemical_name_systematic        (5-iodo-2-thienyl)(dimesityl)borane
_symmetry_cell_setting           orthorhombic
_symmetry_space_group_name_H-M   'P n a 21'
_symmetry_Int_Tables_number      33
_space_group_name_Hall           'P 2c -2n'
loop_
_symmetry_equiv_pos_site_id
_symmetry_equiv_pos_as_xyz
1 x,y,z
2 -x,-y,1/2+z
3 1/2+x,1/2-y,z
4 1/2-x,1/2+y,1/2+z
_cell_length_a                   21.451(3)
_cell_length_b                   8.2996(12)
_cell_length_c                   11.8245(17)
_cell_angle_alpha                90
_cell_angle_beta                 90
_cell_angle_gamma                90
_cell_volume                     2105.17
_exptl_crystal_colour            colorless
_exptl_crystal_description       plate
_cell_formula_units_Z            4
_exptl_crystal_recrystallization_method hexane
loop_
_atom_site_label
_atom_site_type_symbol
_atom_site_fract_x
_atom_site_fract_y
_atom_site_fract_z
I1 I 0.486599(6) 0.678222(12) 0.817535(18)
S1 S 0.57640(2) 0.44148(5) 0.66077(4)
C1 C 0.57110(10) 0.5758(2) 0.77033(16)
C2 C 0.62779(9) 0.6128(2) 0.8144(2)
H1 H 0.6340 0.6846 0.8759
C3 C 0.67676(10) 0.5329(2) 0.75722(16)
H2 H 0.7194 0.5452 0.7771
C4 C 0.65691(9) 0.4342(2) 0.67003(16)
C5 C 0.66603(9) 0.17943(19) 0.53121(15)
C6 C 0.66456(9) 0.16489(19) 0.41217(15)
C7 C 0.63690(8) 0.0314(2) 0.36133(16)
H3 H 0.6361 0.0241 0.2812
C8 C 0.61045(9) -0.0921(2) 0.42585(17)
C9 C 0.61245(9) -0.0793(2) 0.54346(17)
H4 H 0.5952 -0.1630 0.5885
C10 C 0.63925(10) 0.0541(2) 0.59667(16)
C11 C 0.69126(9) 0.2953(2) 0.33717(14)
H5 H 0.6852 0.2659 0.2576
H6 H 0.7359 0.3072 0.3527
H7 H 0.6700 0.3974 0.3527
C12 C 0.58088(11) -0.2364(2) 0.37012(18)
H8 H 0.5640 -0.3084 0.4283
H9 H 0.6123 -0.2940 0.3256
H10 H 0.5471 -0.2008 0.3203
C13 C 0.64052(11) 0.0529(2) 0.72477(16)
H11 H 0.5986 0.0757 0.7538
H12 H 0.6695 0.1358 0.7518
H13 H 0.6542 -0.0530 0.7519
C14 C 0.76677(9) 0.3814(2) 0.57132(15)
C15 C 0.81634(9) 0.2707(2) 0.58979(15)
C16 C 0.87808(10) 0.3199(3) 0.57875(17)
H14 H 0.9105 0.2447 0.5930
C17 C 0.89330(10) 0.4763(3) 0.54742(18)
C18 C 0.84535(11) 0.5827(3) 0.52570(18)
H15 H 0.8552 0.6891 0.5021
C19 C 0.78300(9) 0.5398(2) 0.53719(16)
C20 C 0.80367(11) 0.0976(3) 0.6227(2)
H16 H 0.8433 0.0420 0.6361
H17 H 0.7810 0.0436 0.5615
H18 H 0.7785 0.0950 0.6919
C21 C 0.96051(12) 0.5269(3) 0.5365(3)
H19 H 0.9734 0.5190 0.4571
H20 H 0.9867 0.4561 0.5828
H21 H 0.9651 0.6384 0.5623
C22 C 0.73504(12) 0.6649(2) 0.5081(2)
H22 H 0.7291 0.7372 0.5728
H23 H 0.6954 0.6120 0.4899
H24 H 0.7493 0.7274 0.4427
B1 B 0.69672(10) 0.3298(2) 0.58962(17)
H25? H 0.9768 0.5567 0.6110
H26? H 0.9635 0.6196 0.4854
H27? H 0.9850 0.4373 0.5058
loop_
_geom_bond_atom_site_label_1
_geom_bond_atom_site_label_2
_geom_bond_site_symmetry_1
_geom_bond_site_symmetry_2
I1 C1 1_555 1_555
S1 C1 1_555 1_555
C1 C2 1_555 1_555
C2 H1 1_555 1_555
C3 C2 1_555 1_555
H2 C3 1_555 1_555
C4 S1 1_555 1_555
C5 C6 1_555 1_555
C6 C7 1_555 1_555
C7 H3 1_555 1_555
C8 C7 1_555 1_555
C9 C8 1_555 1_555
H4 C9 1_555 1_555
C10 C5 1_555 1_555
C11 C6 1_555 1_555
H5 C11 1_555 1_555
H6 C11 1_555 1_555
H7 C11 1_555 1_555
C12 C8 1_555 1_555
H8 C12 1_555 1_555
H9 C12 1_555 1_555
H10 C12 1_555 1_555
C13 C10 1_555 1_555
H11 C13 1_555 1_555
H12 C13 1_555 1_555
H13 C13 1_555 1_555
C14 C15 1_555 1_555
C15 C16 1_555 1_555
C16 H14 1_555 1_555
C17 C16 1_555 1_555
C18 C17 1_555 1_555
H15 C18 1_555 1_555
C19 C14 1_555 1_555
C20 C15 1_555 1_555
H16 C20 1_555 1_555
H17 C20 1_555 1_555
H18 C20 1_555 1_555
C21 C17 1_555 1_555
H19 C21 1_555 1_555
H20 C21 1_555 1_555
H21 C21 1_555 1_555
C22 C19 1_555 1_555
H22 C22 1_555 1_555
H23 C22 1_555 1_555
H24 C22 1_555 1_555
B1 C4 1_555 1_555
C3 C4 1_555 1_555
C5 B1 1_555 1_555
C9 C10 1_555 1_555
C14 B1 1_555 1_555
C18 C19 1_555 1_555

#END
