
#######################################################################
#
#                 Cambridge Crystallographic Data Centre
#                                CCDC 
#
#######################################################################
#
# If this CIF has been generated from an entry in the Cambridge 
# Structural Database, then it will include bibliographic, chemical, 
# crystal, experimental, refinement or atomic coordinate data resulting 
# from the CCDC's data processing and validation procedures.
#
#######################################################################

data_HOJGIY
_chemical_formula_moiety         'C26 H24 N1 S2 1+,B1 F4 1-'
_chemical_name_systematic        
'(Diphenyl-\l^4^-sulfanyl)((methylimino)(diphenyl)-\l^6^-sulfanyl)methylium tetrafluoroborate'
_symmetry_cell_setting           orthorhombic
_symmetry_space_group_name_H-M   'P b c a'
_symmetry_Int_Tables_number      61
_space_group_name_Hall           '-P 2ac 2ab'
loop_
_symmetry_equiv_pos_site_id
_symmetry_equiv_pos_as_xyz
1 x,y,z
2 1/2-x,-y,1/2+z
3 1/2+x,1/2-y,-z
4 -x,1/2+y,1/2-z
5 -x,-y,-z
6 1/2+x,y,1/2-z
7 1/2-x,1/2+y,z
8 x,1/2-y,1/2+z
_cell_length_a                   15.037(3)
_cell_length_b                   16.940(3)
_cell_length_c                   18.892(4)
_cell_angle_alpha                90
_cell_angle_beta                 90
_cell_angle_gamma                90
_cell_volume                     4812.3
_exptl_crystal_colour            colorless
_exptl_crystal_description       block
_chemical_melting_point          '403-404 K'
_cell_formula_units_Z            8
_exptl_crystal_recrystallization_method 'methanol/diethyl ether'
loop_
_atom_site_label
_atom_site_type_symbol
_atom_site_fract_x
_atom_site_fract_y
_atom_site_fract_z
S1 S 0.17895(2) 0.05736(2) 0.414614(17)
C1 C 0.12665(9) 0.07489(8) 0.33809(7)
H1 H 0.1338(12) 0.1219(11) 0.3126(10)
S2 S 0.04604(2) 0.008180(19) 0.319252(17)
N1 N 0.12628(8) 0.04339(8) 0.48253(6)
C2 C 0.25724(9) 0.13700(8) 0.41683(7)
C3 C 0.27064(10) 0.17218(9) 0.48209(8)
H2 H 0.2386 0.1550 0.5226
C4 C 0.33168(12) 0.23288(10) 0.48699(9)
H3 H 0.3411 0.2582 0.5312
C5 C 0.37920(11) 0.25710(10) 0.42835(10)
H4 H 0.4212 0.2987 0.4325
C6 C 0.36571(11) 0.22078(11) 0.36353(10)
H5 H 0.3987 0.2373 0.3233
C7 C 0.30430(10) 0.16053(10) 0.35730(9)
H6 H 0.2944 0.1356 0.3129
C8 C 0.24731(9) -0.02821(8) 0.40914(7)
C9 C 0.27634(11) -0.05279(10) 0.34330(8)
H7 H 0.2589 -0.0253 0.3017
C10 C 0.33112(13) -0.11801(12) 0.33895(10)
H8 H 0.3513 -0.1359 0.2941
C11 C 0.35663(12) -0.15734(10) 0.39954(11)
H9 H 0.3943 -0.2022 0.3962
C12 C 0.32780(11) -0.13204(10) 0.46499(10)
H10 H 0.3459 -0.1594 0.5065
C13 C 0.27262(11) -0.06687(9) 0.47053(8)
H11 H 0.2526 -0.0491 0.5155
C14 C 0.05312(9) -0.01160(8) 0.22659(7)
C15 C 0.07932(11) -0.08654(9) 0.20674(9)
H12 H 0.0917 -0.1257 0.2413
C16 C 0.08716(12) -0.10333(10) 0.13513(9)
H13 H 0.1054 -0.1544 0.1204
C17 C 0.06864(11) -0.04626(11) 0.08519(9)
H14 H 0.0740 -0.0583 0.0363
C18 C 0.04229(11) 0.02824(11) 0.10608(9)
H15 H 0.0296 0.0673 0.0714
C19 C 0.03417(10) 0.04649(9) 0.17702(8)
H16 H 0.0160 0.0977 0.1916
C20 C -0.06064(9) 0.05473(8) 0.32551(7)
C21 C -0.07020(10) 0.13632(9) 0.32248(8)
H17 H -0.0201 0.1698 0.3166
C22 C -0.15539(11) 0.16711(9) 0.32828(8)
H18 H -0.1640 0.2226 0.3260
C23 C -0.22803(10) 0.11783(10) 0.33734(8)
H19 H -0.2860 0.1397 0.3414
C24 C -0.21651(10) 0.03712(10) 0.34041(8)
H20 H -0.2666 0.0036 0.3465
C25 C -0.13212(9) 0.00453(9) 0.33470(8)
H21 H -0.1237 -0.0510 0.3371
C26 C 0.05600(11) 0.10090(10) 0.49983(9)
H22 H 0.0813 0.1438 0.5283
H23 H 0.0088 0.0746 0.5267
H24 H 0.0312 0.1226 0.4560
B1 B 0.10510(12) 0.27269(10) 0.17111(9)
F1 F 0.03936(6) 0.33023(5) 0.17493(6)
F2 F 0.08900(7) 0.22366(6) 0.11365(5)
F3 F 0.18707(6) 0.30864(6) 0.16341(6)
F4 F 0.10361(8) 0.22802(6) 0.23260(5)
loop_
_geom_bond_atom_site_label_1
_geom_bond_atom_site_label_2
_geom_bond_site_symmetry_1
_geom_bond_site_symmetry_2
S1 C1 1_555 1_555
C1 H1 1_555 1_555
S2 C1 1_555 1_555
N1 S1 1_555 1_555
C2 S1 1_555 1_555
C3 C2 1_555 1_555
H2 C3 1_555 1_555
C4 C3 1_555 1_555
H3 C4 1_555 1_555
C5 C4 1_555 1_555
H4 C5 1_555 1_555
C6 C5 1_555 1_555
H5 C6 1_555 1_555
C7 C2 1_555 1_555
H6 C7 1_555 1_555
C8 S1 1_555 1_555
C9 C8 1_555 1_555
H7 C9 1_555 1_555
C10 C9 1_555 1_555
H8 C10 1_555 1_555
C11 C10 1_555 1_555
H9 C11 1_555 1_555
C12 C11 1_555 1_555
H10 C12 1_555 1_555
C13 C8 1_555 1_555
H11 C13 1_555 1_555
C14 S2 1_555 1_555
C15 C14 1_555 1_555
H12 C15 1_555 1_555
C16 C15 1_555 1_555
H13 C16 1_555 1_555
C17 C16 1_555 1_555
H14 C17 1_555 1_555
C18 C17 1_555 1_555
H15 C18 1_555 1_555
C19 C14 1_555 1_555
H16 C19 1_555 1_555
C20 S2 1_555 1_555
C21 C20 1_555 1_555
H17 C21 1_555 1_555
C22 C21 1_555 1_555
H18 C22 1_555 1_555
C23 C22 1_555 1_555
H19 C23 1_555 1_555
C24 C23 1_555 1_555
H20 C24 1_555 1_555
C25 C20 1_555 1_555
H21 C25 1_555 1_555
C26 N1 1_555 1_555
H22 C26 1_555 1_555
H23 C26 1_555 1_555
H24 C26 1_555 1_555
B1 F1 1_555 1_555
F2 B1 1_555 1_555
F3 B1 1_555 1_555
F4 B1 1_555 1_555
C6 C7 1_555 1_555
C12 C13 1_555 1_555
C18 C19 1_555 1_555
C24 C25 1_555 1_555

#END
