
#######################################################################
#
#                 Cambridge Crystallographic Data Centre
#                                CCDC 
#
#######################################################################
#
# If this CIF has been generated from an entry in the Cambridge 
# Structural Database, then it will include bibliographic, chemical, 
# crystal, experimental, refinement or atomic coordinate data resulting 
# from the CCDC's data processing and validation procedures.
#
#######################################################################

data_HOJMIE
_chemical_formula_moiety         'C23 H30 O4'
_chemical_name_systematic        
'(3a,6,9a-trimethyl-2-oxododecahydronaphtho[2,1-b]furan-6-yl)methyl benzoate'
_symmetry_cell_setting           orthorhombic
_symmetry_space_group_name_H-M   'P 21 21 21'
_symmetry_Int_Tables_number      19
_space_group_name_Hall           'P 2ac 2ab'
loop_
_symmetry_equiv_pos_site_id
_symmetry_equiv_pos_as_xyz
1 x,y,z
2 1/2-x,-y,1/2+z
3 -x,1/2+y,1/2-z
4 1/2+x,1/2-y,-z
_cell_length_a                   7.8448(9)
_cell_length_b                   12.3771(14)
_cell_length_c                   20.720(2)
_cell_angle_alpha                90
_cell_angle_beta                 90
_cell_angle_gamma                90
_cell_volume                     2011.83
_exptl_crystal_colour            colorless
_exptl_crystal_description       prismatic
_cell_formula_units_Z            4
loop_
_atom_site_label
_atom_site_type_symbol
_atom_site_fract_x
_atom_site_fract_y
_atom_site_fract_z
O1 O 0.1529(2) 0.67816(15) 0.06838(9)
O2 O 0.3892(2) 0.61155(13) 0.11236(8)
O3 O 0.7814(2) 0.76592(14) 0.35413(7)
O4 O 0.8982(3) 0.6234(2) 0.40154(12)
C1 C 0.6171(3) 0.95151(18) 0.17942(11)
H1 H 0.5763 0.9911 0.1421
H2 H 0.5219 0.9420 0.2088
C2 C 0.7553(3) 1.01705(19) 0.21282(12)
H3 H 0.7084 1.0857 0.2268
H4 H 0.8468 1.0317 0.1825
C3 C 0.8262(3) 0.9566(2) 0.27093(12)
H5 H 0.7367 0.9493 0.3029
H6 H 0.9168 0.9994 0.2900
C4 C 0.8958(3) 0.8446(2) 0.25503(10)
C5 C 0.7580(3) 0.78086(18) 0.21789(10)
H7 H 0.6623 0.7772 0.2482
C6 C 0.8003(3) 0.66207(18) 0.20426(11)
H8 H 0.8474 0.6295 0.2429
H9 H 0.8862 0.6583 0.1707
C7 C 0.6429(3) 0.59779(19) 0.18301(12)
H10 H 0.6754 0.5242 0.1727
H11 H 0.5604 0.5955 0.2179
C8 C 0.5642(3) 0.65087(19) 0.12440(11)
C9 C 0.5275(3) 0.76924(17) 0.13972(10)
H12 H 0.4612 0.7660 0.1798
C10 C 0.6815(3) 0.83987(17) 0.15760(9)
C11 C 0.3957(3) 0.7967(2) 0.08875(10)
H13 H 0.3254 0.8574 0.1017
H14 H 0.4483 0.8122 0.0474
C12 C 0.2953(3) 0.6931(2) 0.08696(11)
C13 C 0.6613(3) 0.6240(2) 0.06272(12)
H15 H 0.6424 0.5497 0.0516
H16 H 0.7809 0.6359 0.0694
H17 H 0.6218 0.6695 0.0283
C14 C 0.8049(3) 0.8547(2) 0.10018(10)
H18 H 0.7406 0.8603 0.0609
H19 H 0.8801 0.7937 0.0977
H20 H 0.8705 0.9194 0.1063
C15 C 1.0688(3) 0.8520(2) 0.22002(13)
H21 H 1.0602 0.9024 0.1849
H22 H 1.0993 0.7822 0.2035
H23 H 1.1545 0.8761 0.2498
C16 C 0.9370(3) 0.7873(2) 0.31900(12)
H24 H 0.9957 0.7198 0.3103
H25 H 1.0116 0.8324 0.3448
C17 C 0.7788(3) 0.6811(2) 0.39260(13)
C18 C 0.6100(3) 0.66607(19) 0.42405(11)
C19 C 0.4671(3) 0.7241(2) 0.40715(12)
H26 H 0.4747 0.7774 0.3757
C20 C 0.3136(4) 0.7037(3) 0.43643(15)
H27 H 0.2177 0.7433 0.4247
C21 C 0.3008(5) 0.6256(3) 0.48277(14)
H28 H 0.1960 0.6113 0.5019
C22 C 0.4415(5) 0.5687(2) 0.50099(13)
H29 H 0.4336 0.5172 0.5335
C23 C 0.5959(4) 0.5879(2) 0.47105(13)
H30 H 0.6912 0.5477 0.4827
loop_
_geom_bond_atom_site_label_1
_geom_bond_atom_site_label_2
_geom_bond_site_symmetry_1
_geom_bond_site_symmetry_2
O1 C12 1_555 1_555
O2 C8 1_555 1_555
O3 C16 1_555 1_555
O4 C17 1_555 1_555
C1 H1 1_555 1_555
H2 C1 1_555 1_555
C2 C1 1_555 1_555
H3 C2 1_555 1_555
H4 C2 1_555 1_555
C3 C2 1_555 1_555
H5 C3 1_555 1_555
H6 C3 1_555 1_555
C4 C3 1_555 1_555
C5 C4 1_555 1_555
H7 C5 1_555 1_555
C6 C5 1_555 1_555
H8 C6 1_555 1_555
H9 C6 1_555 1_555
C7 C6 1_555 1_555
H10 C7 1_555 1_555
H11 C7 1_555 1_555
C8 C7 1_555 1_555
C9 C8 1_555 1_555
H12 C9 1_555 1_555
C10 C1 1_555 1_555
C11 C9 1_555 1_555
H13 C11 1_555 1_555
H14 C11 1_555 1_555
C12 O2 1_555 1_555
C13 C8 1_555 1_555
H15 C13 1_555 1_555
H16 C13 1_555 1_555
H17 C13 1_555 1_555
C14 C10 1_555 1_555
H18 C14 1_555 1_555
H19 C14 1_555 1_555
H20 C14 1_555 1_555
C15 C4 1_555 1_555
H21 C15 1_555 1_555
H22 C15 1_555 1_555
H23 C15 1_555 1_555
C16 C4 1_555 1_555
H24 C16 1_555 1_555
H25 C16 1_555 1_555
C17 O3 1_555 1_555
C18 C17 1_555 1_555
C19 C18 1_555 1_555
H26 C19 1_555 1_555
C20 C19 1_555 1_555
H27 C20 1_555 1_555
C21 C20 1_555 1_555
H28 C21 1_555 1_555
C22 C21 1_555 1_555
H29 C22 1_555 1_555
C23 C18 1_555 1_555
H30 C23 1_555 1_555
C5 C10 1_555 1_555
C9 C10 1_555 1_555
C11 C12 1_555 1_555
C22 C23 1_555 1_555

#END
