
#######################################################################
#
#                 Cambridge Crystallographic Data Centre
#                                CCDC 
#
#######################################################################
#
# If this CIF has been generated from an entry in the Cambridge 
# Structural Database, then it will include bibliographic, chemical, 
# crystal, experimental, refinement or atomic coordinate data resulting 
# from the CCDC's data processing and validation procedures.
#
#######################################################################

data_HOJMEZ
_chemical_formula_moiety         'C26 H20 N6 O4,H2 O1'
_chemical_name_systematic        
"rac-3,3'-bis((2-Salicylidenehydrazino)carbonyl)-2,2'-bipyridine monohydrate"
_symmetry_cell_setting           triclinic
_symmetry_space_group_name_H-M   'P -1'
_symmetry_Int_Tables_number      2
_space_group_name_Hall           '-P 1'
loop_
_symmetry_equiv_pos_site_id
_symmetry_equiv_pos_as_xyz
1 x,y,z
2 -x,-y,-z
_cell_length_a                   7.317(2)
_cell_length_b                   10.273(3)
_cell_length_c                   15.740(4)
_cell_angle_alpha                98.569(5)
_cell_angle_beta                 90.687(5)
_cell_angle_gamma                93.486(5)
_cell_volume                     1167.5
_exptl_crystal_colour            yellow
_exptl_crystal_description       prism
_cell_formula_units_Z            2
_exptl_crystal_recrystallization_method acetonitrile/water
loop_
_atom_site_label
_atom_site_type_symbol
_atom_site_fract_x
_atom_site_fract_y
_atom_site_fract_z
O1 O 0.20386(12) 0.61009(9) 0.20972(6)
O2 O 0.28083(13) 0.78567(9) 0.00662(6)
O3 O 0.31882(14) 0.46491(11) 0.42253(7)
O4 O 0.40258(14) 0.77856(10) -0.23072(7)
N1 N -0.14119(14) 0.74196(10) 0.02032(6)
N2 N -0.03698(14) 0.87275(10) 0.22547(6)
N3 N -0.05766(15) 0.51100(11) 0.25489(7)
N4 N 0.03367(15) 0.46756(11) 0.32110(6)
N5 N 0.26476(14) 0.99407(10) -0.02342(6)
N6 N 0.33659(14) 0.95651(10) -0.10310(6)
C1 C -0.05770(15) 0.72427(11) 0.09390(7)
C2 C -0.07017(15) 0.60316(12) 0.12456(7)
C3 C -0.17457(16) 0.49842(12) 0.07704(8)
C4 C -0.25994(16) 0.51603(12) 0.00090(8)
C5 C -0.23871(17) 0.63881(12) -0.02497(8)
C6 C 0.03947(16) 0.57935(11) 0.20111(7)
C7 C 0.02505(15) 0.84824(11) 0.14541(7)
C8 C 0.13748(15) 0.93974(11) 0.10860(7)
C9 C 0.16934(17) 1.06565(12) 0.15540(8)
C10 C 0.09727(17) 1.09376(13) 0.23660(8)
C11 C 0.00243(17) 0.99319(13) 0.27019(8)
C12 C 0.23112(16) 0.89734(12) 0.02602(7)
C13 C -0.06072(18) 0.39960(13) 0.36917(8)
C14 C 0.02637(17) 0.35101(13) 0.44091(8)
C15 C 0.21006(17) 0.38732(13) 0.46602(8)
C16 C 0.28509(19) 0.34403(15) 0.53784(9)
C17 C 0.18096(19) 0.26293(15) 0.58359(9)
C18 C 0.0011(2) 0.22510(16) 0.55920(10)
C19 C -0.07560(19) 0.26911(15) 0.48876(9)
C20 C 0.39157(16) 1.04815(12) -0.14612(8)
C21 C 0.45410(16) 1.01295(13) -0.23345(8)
C22 C 0.51444(18) 1.11297(15) -0.27954(9)
C23 C 0.5723(2) 1.08253(18) -0.36350(10)
C24 C 0.5727(2) 0.95188(18) -0.40126(9)
C25 C 0.51406(19) 0.85135(17) -0.35711(9)
C26 C 0.45464(17) 0.88090(14) -0.27313(8)
H1 H 0.246(3) 0.488(2) 0.3794(14)
H2 H 0.371(3) 0.814(2) -0.1781(16)
H4 H 0.248(2) 1.1324(16) 0.1318(10)
H5 H 0.122(2) 1.1777(17) 0.2705(11)
H6 H -0.043(2) 1.0070(16) 0.3284(10)
H7 H -0.193(2) 0.3791(16) 0.3577(10)
H8 H 0.411(3) 0.3693(19) 0.5558(12)
H9 H 0.233(2) 0.2344(17) 0.6339(11)
H10 H -0.069(3) 0.1710(19) 0.5927(12)
H11 H -0.205(3) 0.2414(18) 0.4696(11)
H12 H 0.388(2) 1.1402(16) -0.1220(10)
H13 H 0.513(2) 1.2072(17) -0.2497(10)
H14 H 0.612(3) 1.155(2) -0.3949(13)
H15 H 0.618(3) 0.9309(19) -0.4586(13)
H16 H 0.520(3) 0.757(2) -0.3811(12)
H17 H -0.182(3) 0.5042(18) 0.2503(11)
H18 H -0.332(2) 0.4445(15) -0.0338(10)
H20 H -0.184(2) 0.4126(16) 0.0962(10)
H21 H 0.216(2) 1.0743(18) -0.0114(11)
H22 H -0.299(2) 0.6565(15) -0.0778(10)
O5 O 0.54202(15) 0.49441(12) 0.24205(8)
H3 H 0.517(3) 0.409(2) 0.2384(14)
H19 H 0.440(3) 0.529(2) 0.2363(14)
loop_
_geom_bond_atom_site_label_1
_geom_bond_atom_site_label_2
_geom_bond_site_symmetry_1
_geom_bond_site_symmetry_2
O1 C6 1_555 1_555
O2 C12 1_555 1_555
O3 C15 1_555 1_555
O4 C26 1_555 1_555
O5 H3 1_555 1_555
N1 C1 1_555 1_555
N2 C7 1_555 1_555
N3 N4 1_555 1_555
N4 C13 1_555 1_555
N5 N6 1_555 1_555
N6 C20 1_555 1_555
C1 C2 1_555 1_555
C2 C3 1_555 1_555
C3 C4 1_555 1_555
C4 C5 1_555 1_555
C5 N1 1_555 1_555
C6 N3 1_555 1_555
C7 C1 1_555 1_555
C8 C7 1_555 1_555
C9 C8 1_555 1_555
C10 C9 1_555 1_555
C11 N2 1_555 1_555
C12 N5 1_555 1_555
C13 C14 1_555 1_555
C14 C15 1_555 1_555
C15 C16 1_555 1_555
C16 C17 1_555 1_555
C17 C18 1_555 1_555
C18 C19 1_555 1_555
C19 C14 1_555 1_555
C20 C21 1_555 1_555
C21 C22 1_555 1_555
C22 C23 1_555 1_555
C23 C24 1_555 1_555
C24 C25 1_555 1_555
C25 C26 1_555 1_555
C26 C21 1_555 1_555
H1 O3 1_555 1_555
H2 O4 1_555 1_555
H4 C9 1_555 1_555
H5 C10 1_555 1_555
H6 C11 1_555 1_555
H7 C13 1_555 1_555
H8 C16 1_555 1_555
H9 C17 1_555 1_555
H10 C18 1_555 1_555
H11 C19 1_555 1_555
H12 C20 1_555 1_555
H13 C22 1_555 1_555
H14 C23 1_555 1_555
H15 C24 1_555 1_555
H16 C25 1_555 1_555
H17 N3 1_555 1_555
H18 C4 1_555 1_555
H19 O5 1_555 1_555
H20 C3 1_555 1_555
H21 N5 1_555 1_555
H22 C5 1_555 1_555
C2 C6 1_555 1_555
C8 C12 1_555 1_555
C10 C11 1_555 1_555

#END
