
#######################################################################
#
#                 Cambridge Crystallographic Data Centre
#                                CCDC 
#
#######################################################################
#
# If this CIF has been generated from an entry in the Cambridge 
# Structural Database, then it will include bibliographic, chemical, 
# crystal, experimental, refinement or atomic coordinate data resulting 
# from the CCDC's data processing and validation procedures.
#
#######################################################################

data_HOJNAX
_chemical_formula_moiety         'C20 H24 N2 O4'
_chemical_name_systematic        
4-((2,6-diisopropylphenyl)carbonoimidoyl)-2-methoxy-3-nitrophenol
_symmetry_cell_setting           monoclinic
_symmetry_space_group_name_H-M   'C 2/c'
_symmetry_Int_Tables_number      15
_space_group_name_Hall           '-C 2yn'
loop_
_symmetry_equiv_pos_site_id
_symmetry_equiv_pos_as_xyz
1 x,y,z
2 -x,y,1/2-z
3 1/2+x,1/2+y,z
4 1/2-x,1/2+y,1/2-z
5 -x,-y,-z
6 x,-y,1/2+z
7 1/2-x,1/2-y,-z
8 1/2+x,1/2-y,1/2+z
_cell_length_a                   28.315(2)
_cell_length_b                   7.8580(6)
_cell_length_c                   18.0219(13)
_cell_angle_alpha                90
_cell_angle_beta                 104.138(2)
_cell_angle_gamma                90
_cell_volume                     3888.4
_cell_formula_units_Z            8
loop_
_atom_site_label
_atom_site_type_symbol
_atom_site_fract_x
_atom_site_fract_y
_atom_site_fract_z
O1 O 0.03454(7) -0.33232(17) -0.09687(10)
H1 H 0.0389 -0.4279 -0.0782
O2 O 0.02880(6) 0.00480(19) -0.13880(9)
O3 O 0.10205(8) 0.3079(2) -0.08873(10)
O4 O 0.04430(7) 0.3234(2) -0.03174(14)
N1 N 0.07703(7) 0.2486(2) -0.04939(10)
N2 N 0.14531(5) 0.31308(18) 0.08412(8)
C1 C 0.06263(7) -0.2199(2) -0.04923(11)
C2 C 0.09585(8) -0.2645(2) 0.01722(12)
H2 H 0.0995 -0.3783 0.0316
C3 C 0.12385(7) -0.1427(2) 0.06295(11)
H3 H 0.1465 -0.1766 0.1071
C4 C 0.11909(6) 0.0300(2) 0.04474(10)
C5 C 0.08538(7) 0.0707(2) -0.02293(10)
C6 C 0.05776(7) -0.0478(2) -0.07069(11)
C7 C 0.14823(7) 0.1555(2) 0.09647(10)
H4 H 0.1700 0.1167 0.1406
C8 C 0.17198(6) 0.4303(2) 0.13880(9)
C9 C 0.15172(7) 0.4847(3) 0.19831(11)
C10 C 0.17667(9) 0.6094(3) 0.24790(13)
H5 H 0.1644 0.6456 0.2886
C11 C 0.21895(9) 0.6795(3) 0.23754(14)
H6 H 0.2348 0.7639 0.2706
C12 C 0.23798(7) 0.6257(3) 0.17858(13)
H7 H 0.2667 0.6745 0.1724
C13 C 0.21542(7) 0.4998(2) 0.12766(11)
C14 C 0.10449(8) 0.4116(3) 0.20985(12)
H8 H 0.0900 0.3429 0.1646
C15 C 0.11446(13) 0.2932(5) 0.27873(19)
H9 H 0.1304 0.3555 0.3237
H10 H 0.1351 0.2016 0.2707
H11 H 0.0842 0.2479 0.2852
C16 C 0.06780(10) 0.5495(5) 0.21617(19)
H12 H 0.0811 0.6200 0.2598
H13 H 0.0383 0.4975 0.2221
H14 H 0.0610 0.6179 0.1707
C17 C 0.23651(7) 0.4387(3) 0.06276(12)
H15 H 0.2300 0.3163 0.0570
C18 C 0.21088(10) 0.5223(4) -0.01226(14)
H16 H 0.1776 0.4851 -0.0267
H17 H 0.2270 0.4910 -0.0514
H18 H 0.2119 0.6437 -0.0061
C19 C 0.29146(9) 0.4614(4) 0.07813(17)
H19 H 0.3031 0.4064 0.0385
H20 H 0.3068 0.4117 0.1267
H21 H 0.2991 0.5806 0.0789
C20 C -0.02094(11) -0.0120(4) -0.1466(3)
H22 H -0.0292 -0.1304 -0.1461
H23 H -0.0382 0.0381 -0.1941
H24 H -0.0299 0.0448 -0.1049
loop_
_geom_bond_atom_site_label_1
_geom_bond_atom_site_label_2
_geom_bond_site_symmetry_1
_geom_bond_site_symmetry_2
O1 H1 1_555 1_555
O2 C6 1_555 1_555
O3 N1 1_555 1_555
O4 N1 1_555 1_555
N1 C5 1_555 1_555
N2 C7 1_555 1_555
C1 O1 1_555 1_555
C2 C1 1_555 1_555
H2 C2 1_555 1_555
C3 C2 1_555 1_555
H3 C3 1_555 1_555
C4 C3 1_555 1_555
C5 C4 1_555 1_555
C6 C1 1_555 1_555
C7 C4 1_555 1_555
H4 C7 1_555 1_555
C8 N2 1_555 1_555
C9 C8 1_555 1_555
C10 C9 1_555 1_555
H5 C10 1_555 1_555
C11 C10 1_555 1_555
H6 C11 1_555 1_555
C12 C11 1_555 1_555
H7 C12 1_555 1_555
C13 C8 1_555 1_555
C14 C9 1_555 1_555
H8 C14 1_555 1_555
C15 C14 1_555 1_555
H9 C15 1_555 1_555
H10 C15 1_555 1_555
H11 C15 1_555 1_555
C16 C14 1_555 1_555
H12 C16 1_555 1_555
H13 C16 1_555 1_555
H14 C16 1_555 1_555
C17 C13 1_555 1_555
H15 C17 1_555 1_555
C18 C17 1_555 1_555
H16 C18 1_555 1_555
H17 C18 1_555 1_555
H18 C18 1_555 1_555
C19 C17 1_555 1_555
H19 C19 1_555 1_555
H20 C19 1_555 1_555
H21 C19 1_555 1_555
C20 O2 1_555 1_555
H22 C20 1_555 1_555
H23 C20 1_555 1_555
H24 C20 1_555 1_555
C5 C6 1_555 1_555
C12 C13 1_555 1_555

#END
