
#######################################################################
#
#                 Cambridge Crystallographic Data Centre
#                                CCDC 
#
#######################################################################
#
# If this CIF has been generated from an entry in the Cambridge 
# Structural Database, then it will include bibliographic, chemical, 
# crystal, experimental, refinement or atomic coordinate data resulting 
# from the CCDC's data processing and validation procedures.
#
#######################################################################

data_HOJPAY02
_chemical_formula_moiety         'C23 H18 N2'
_chemical_name_systematic        N,N-diphenyl-4-(pyridin-2-yl)aniline
_symmetry_cell_setting           monoclinic
_symmetry_space_group_name_H-M   'P 21/c'
_symmetry_Int_Tables_number      14
_space_group_name_Hall           '-P 2ybc'
loop_
_symmetry_equiv_pos_site_id
_symmetry_equiv_pos_as_xyz
1 x,y,z
2 -x,1/2+y,1/2-z
3 -x,-y,-z
4 x,1/2-y,1/2+z
_cell_length_a                   13.98506(19)
_cell_length_b                   10.65635(14)
_cell_length_c                   11.37257(17)
_cell_angle_alpha                90
_cell_angle_beta                 99.9799(14)
_cell_angle_gamma                90
_cell_volume                     1669.21
_exptl_crystal_colour            colorless
_exptl_crystal_description       block
_cell_formula_units_Z            4
loop_
_atom_site_label
_atom_site_type_symbol
_atom_site_fract_x
_atom_site_fract_y
_atom_site_fract_z
N1 N 0.16485(7) 0.25866(9) 0.13749(10)
N2 N 0.46977(6) 0.70757(9) 0.18721(8)
C1 C 0.22471(7) 0.36079(10) 0.11865(10)
C2 C 0.23537(8) 0.46211(11) 0.19805(10)
H1 H 0.1992 0.4643 0.2614
C3 C 0.29826(8) 0.55914(10) 0.18488(10)
H2 H 0.3055 0.6265 0.2404
C4 C 0.35165(7) 0.56013(10) 0.09117(9)
C5 C 0.33803(8) 0.46073(10) 0.01005(9)
H3 H 0.3720 0.4605 -0.0554
C6 C 0.27570(8) 0.36201(10) 0.02320(10)
H4 H 0.2677 0.2951 -0.0329
C7 C 0.42196(7) 0.66264(10) 0.08249(9)
C8 C 0.43696(8) 0.71181(10) -0.02666(9)
H5 H 0.4026 0.6787 -0.0994
C9 C 0.50231(8) 0.80914(11) -0.02796(10)
H6 H 0.5127 0.8443 -0.1015
C10 C 0.55239(8) 0.85468(10) 0.07947(10)
H7 H 0.5983 0.9207 0.0814
C11 C 0.53350(8) 0.80095(10) 0.18390(10)
H8 H 0.5677 0.8321 0.2576
C12 C 0.07098(8) 0.28115(10) 0.16620(10)
C13 C 0.00915(8) 0.36748(11) 0.10110(11)
H9 H 0.0301 0.4129 0.0383
C14 C -0.08295(9) 0.38836(12) 0.12661(12)
H10 H -0.1251 0.4470 0.0808
C15 C -0.11334(8) 0.32346(12) 0.21919(11)
H11 H -0.1759 0.3386 0.2382
C16 C -0.05225(9) 0.23695(14) 0.28342(11)
H12 H -0.0734 0.1917 0.3462
C17 C 0.03987(9) 0.21486(12) 0.25760(11)
H13 H 0.0813 0.1547 0.3023
C18 C 0.18660(8) 0.13587(10) 0.09949(10)
C19 C 0.27675(8) 0.08269(11) 0.14326(10)
H14 H 0.3229 0.1276 0.1987
C20 C 0.29901(8) -0.03612(11) 0.10563(11)
H15 H 0.3608 -0.0718 0.1347
C21 C 0.23163(9) -0.10292(11) 0.02605(11)
H16 H 0.2470 -0.1843 0.0007
C22 C 0.14184(8) -0.05040(12) -0.01634(11)
H17 H 0.0952 -0.0964 -0.0702
C23 C 0.11937(8) 0.06906(11) 0.01931(10)
H18 H 0.0579 0.1051 -0.0112
loop_
_geom_bond_atom_site_label_1
_geom_bond_atom_site_label_2
_geom_bond_site_symmetry_1
_geom_bond_site_symmetry_2
N1 C1 1_555 1_555
N2 C7 1_555 1_555
C1 C2 1_555 1_555
C2 H1 1_555 1_555
C3 C2 1_555 1_555
H2 C3 1_555 1_555
C4 C3 1_555 1_555
C5 C4 1_555 1_555
H3 C5 1_555 1_555
C6 C1 1_555 1_555
H4 C6 1_555 1_555
C7 C4 1_555 1_555
C8 C7 1_555 1_555
H5 C8 1_555 1_555
C9 C8 1_555 1_555
H6 C9 1_555 1_555
C10 C9 1_555 1_555
H7 C10 1_555 1_555
C11 N2 1_555 1_555
H8 C11 1_555 1_555
C12 N1 1_555 1_555
C13 C12 1_555 1_555
H9 C13 1_555 1_555
C14 C13 1_555 1_555
H10 C14 1_555 1_555
C15 C14 1_555 1_555
H11 C15 1_555 1_555
C16 C15 1_555 1_555
H12 C16 1_555 1_555
C17 C12 1_555 1_555
H13 C17 1_555 1_555
C18 N1 1_555 1_555
C19 C18 1_555 1_555
H14 C19 1_555 1_555
C20 C19 1_555 1_555
H15 C20 1_555 1_555
C21 C20 1_555 1_555
H16 C21 1_555 1_555
C22 C21 1_555 1_555
H17 C22 1_555 1_555
C23 C18 1_555 1_555
H18 C23 1_555 1_555
C5 C6 1_555 1_555
C10 C11 1_555 1_555
C16 C17 1_555 1_555
C22 C23 1_555 1_555

#END
