
#######################################################################
#
#                 Cambridge Crystallographic Data Centre
#                                CCDC 
#
#######################################################################
#
# If this CIF has been generated from an entry in the Cambridge 
# Structural Database, then it will include bibliographic, chemical, 
# crystal, experimental, refinement or atomic coordinate data resulting 
# from the CCDC's data processing and validation procedures.
#
#######################################################################

data_HOKBOA
_chemical_formula_moiety         'C16 H21 F3 N2 O1 S1'
_chemical_name_systematic        
N-(1-(1,7-dimethyl-1H-indol-3-yl)-2,2,2-trifluoroethyl)-2-methylpropane-2-sulfinamide
_symmetry_cell_setting           monoclinic
_symmetry_space_group_name_H-M   'P 21'
_symmetry_Int_Tables_number      4
_space_group_name_Hall           'P 2yb'
loop_
_symmetry_equiv_pos_site_id
_symmetry_equiv_pos_as_xyz
1 x,y,z
2 -x,1/2+y,-z
_cell_length_a                   10.0649(7)
_cell_length_b                   17.5489(12)
_cell_length_c                   10.2527(7)
_cell_angle_alpha                90
_cell_angle_beta                 97.2680(10)
_cell_angle_gamma                90
_cell_volume                     1796.36
_cell_formula_units_Z            4
loop_
_atom_site_label
_atom_site_type_symbol
_atom_site_fract_x
_atom_site_fract_y
_atom_site_fract_z
C1 C 0.66878(18) 0.97166(11) 0.65502(19)
H1 H 0.7139 0.9503 0.5902
C2 C 0.56207(17) 0.93948(11) 0.70218(19)
C3 C 0.4233(2) 0.98809(15) 0.8837(2)
H2 H 0.3619 0.9483 0.8799
C4 C 0.4182(2) 1.04679(18) 0.9715(2)
H3 H 0.3526 1.0466 1.0277
C5 C 0.5097(3) 1.10664(17) 0.9779(3)
H4 H 0.5042 1.1446 1.0403
C6 C 0.6075(2) 1.11213(13) 0.8966(2)
C7 C 0.61324(18) 1.05217(11) 0.8072(2)
C8 C 0.52307(17) 0.98963(12) 0.80001(19)
C9 C 0.8117(3) 1.08666(16) 0.6828(3)
H5 H 0.8537 1.0625 0.6146
H6 H 0.8761 1.0929 0.7595
H7 H 0.7780 1.1357 0.6529
C10 C 0.50205(18) 0.86516(12) 0.6502(2)
H8 H 0.5536 0.8492 0.5800
C11 C 0.2397(3) 0.92103(15) 0.3568(3)
C12 C 0.3523(3) 0.97948(19) 0.3574(4)
H9 H 0.4299 0.9554 0.3303
H10 H 0.3741 0.9996 0.4445
H11 H 0.3236 1.0202 0.2978
C13 C 0.1941(4) 0.8919(2) 0.2183(3)
H12 H 0.1645 0.9341 0.1623
H13 H 0.1217 0.8566 0.2206
H14 H 0.2674 0.8669 0.1847
C14 C 0.1238(3) 0.95060(16) 0.4229(4)
H15 H 0.0859 0.9945 0.3764
H16 H 0.1553 0.9644 0.5121
H17 H 0.0568 0.9116 0.4223
C15 C 0.5146(3) 0.80189(14) 0.7499(3)
C16 C 0.7020(3) 1.18004(15) 0.9084(3)
H18 H 0.6749 1.2155 0.9713
H19 H 0.6991 1.2046 0.8244
H20 H 0.7916 1.1629 0.9369
F1 F 0.64026(15) 0.79286(10) 0.80632(18)
F2 F 0.44037(19) 0.81168(10) 0.84713(19)
F3 F 0.4775(2) 0.73495(9) 0.6958(2)
N1 N 0.70099(15) 1.03928(9) 0.71527(17)
N2 N 0.36312(17) 0.87229(12) 0.59005(19)
H21 H 0.311(2) 0.8943(15) 0.636(3)
O1 O 0.20403(14) 0.78218(8) 0.44961(14)
S1 S 0.31574(5) 0.83671(3) 0.44338(5)
C17 C 1.1489(2) 0.65248(11) 0.67153(19)
H22 H 1.1832 0.6775 0.6032
C18 C 1.03985(18) 0.67571(11) 0.72816(18)
C19 C 0.9315(2) 0.61759(14) 0.9213(2)
H23 H 0.8636 0.6535 0.9220
C20 C 0.9442(3) 0.55905(17) 1.0094(3)
H24 H 0.8852 0.5554 1.0721
C21 C 1.0441(3) 0.50489(15) 1.0065(2)
H25 H 1.0494 0.4659 1.0685
C22 C 1.1373(2) 0.50511(11) 0.9164(2)
C23 C 1.12481(18) 0.56676(10) 0.82829(18)
C24 C 1.02330(17) 0.62239(10) 0.82938(17)
C25 C 1.3174(2) 0.54927(14) 0.6900(2)
H26 H 1.3490 0.5777 0.6201
H27 H 1.2938 0.4987 0.6599
H28 H 1.3866 0.5467 0.7633
C26 C 0.95476(19) 0.74436(11) 0.69173(19)
H29 H 0.8654 0.7333 0.7154
C27 C 0.7772(3) 0.72629(13) 0.3309(2)
C28 C 0.6428(3) 0.7506(2) 0.2539(3)
H30 H 0.6430 0.8047 0.2398
H31 H 0.5712 0.7375 0.3033
H32 H 0.6303 0.7249 0.1706
C29 C 0.7764(5) 0.64445(17) 0.3774(4)
H33 H 0.7551 0.6114 0.3032
H34 H 0.7104 0.6386 0.4366
H35 H 0.8631 0.6315 0.4221
C30 C 0.8914(3) 0.74175(18) 0.2519(3)
H36 H 0.8822 0.7099 0.1751
H37 H 0.9750 0.7309 0.3046
H38 H 0.8896 0.7943 0.2256
C31 C 1.0065(2) 0.81417(12) 0.7700(2)
C32 C 1.2399(3) 0.44286(13) 0.9162(3)
H39 H 1.2300 0.4074 0.9857
H40 H 1.3281 0.4647 0.9296
H41 H 1.2272 0.4168 0.8333
F4 F 1.12913(16) 0.83424(10) 0.74854(18)
F5 F 0.92831(18) 0.87449(8) 0.74073(17)
F6 F 1.01098(18) 0.80238(9) 0.89876(14)
N3 N 1.20003(16) 0.58685(9) 0.73031(16)
N4 N 0.93898(16) 0.75942(10) 0.55139(16)
H42 H 1.006(2) 0.7723(14) 0.514(2)
O2 O 0.79694(17) 0.86547(8) 0.42906(17)
S2 S 0.79207(5) 0.78668(3) 0.47844(5)
loop_
_geom_bond_atom_site_label_1
_geom_bond_atom_site_label_2
_geom_bond_site_symmetry_1
_geom_bond_site_symmetry_2
C1 H1 1_555 1_555
C2 C1 1_555 1_555
C3 H2 1_555 1_555
C4 C3 1_555 1_555
H3 C4 1_555 1_555
C5 C4 1_555 1_555
H4 C5 1_555 1_555
C6 C5 1_555 1_555
C7 C6 1_555 1_555
C8 C2 1_555 1_555
C9 H5 1_555 1_555
H6 C9 1_555 1_555
H7 C9 1_555 1_555
C10 C2 1_555 1_555
H8 C10 1_555 1_555
C11 C12 1_555 1_555
C12 H9 1_555 1_555
H10 C12 1_555 1_555
H11 C12 1_555 1_555
C13 C11 1_555 1_555
H12 C13 1_555 1_555
H13 C13 1_555 1_555
H14 C13 1_555 1_555
C14 C11 1_555 1_555
H15 C14 1_555 1_555
H16 C14 1_555 1_555
H17 C14 1_555 1_555
C15 C10 1_555 1_555
C16 C6 1_555 1_555
H18 C16 1_555 1_555
H19 C16 1_555 1_555
H20 C16 1_555 1_555
F1 C15 1_555 1_555
F2 C15 1_555 1_555
F3 C15 1_555 1_555
N1 C1 1_555 1_555
N2 C10 1_555 1_555
H21 N2 1_555 1_555
O1 S1 1_555 1_555
S1 C11 1_555 1_555
C17 H22 1_555 1_555
C18 C17 1_555 1_555
C19 H23 1_555 1_555
C20 C19 1_555 1_555
H24 C20 1_555 1_555
C21 C20 1_555 1_555
H25 C21 1_555 1_555
C22 C21 1_555 1_555
C23 C22 1_555 1_555
C24 C18 1_555 1_555
C25 H26 1_555 1_555
H27 C25 1_555 1_555
H28 C25 1_555 1_555
C26 C18 1_555 1_555
H29 C26 1_555 1_555
C27 C28 1_555 1_555
C28 H30 1_555 1_555
H31 C28 1_555 1_555
H32 C28 1_555 1_555
C29 C27 1_555 1_555
H33 C29 1_555 1_555
H34 C29 1_555 1_555
H35 C29 1_555 1_555
C30 C27 1_555 1_555
H36 C30 1_555 1_555
H37 C30 1_555 1_555
H38 C30 1_555 1_555
C31 C26 1_555 1_555
C32 C22 1_555 1_555
H39 C32 1_555 1_555
H40 C32 1_555 1_555
H41 C32 1_555 1_555
F4 C31 1_555 1_555
F5 C31 1_555 1_555
F6 C31 1_555 1_555
N3 C17 1_555 1_555
N4 C26 1_555 1_555
H42 N4 1_555 1_555
O2 S2 1_555 1_555
S2 C27 1_555 1_555
C3 C8 1_555 1_555
C7 C8 1_555 1_555
C7 N1 1_555 1_555
C9 N1 1_555 1_555
N2 S1 1_555 1_555
C19 C24 1_555 1_555
C23 C24 1_555 1_555
C23 N3 1_555 1_555
C25 N3 1_555 1_555
N4 S2 1_555 1_555

#END
