
#######################################################################
#
#                 Cambridge Crystallographic Data Centre
#                                CCDC 
#
#######################################################################
#
# If this CIF has been generated from an entry in the Cambridge 
# Structural Database, then it will include bibliographic, chemical, 
# crystal, experimental, refinement or atomic coordinate data resulting 
# from the CCDC's data processing and validation procedures.
#
#######################################################################

data_HOKGUK
_chemical_name_common            p-bis(bis(Dimethylamino)boryl)benzene
_chemical_formula_moiety         'C14 H28 B2 N4'
_chemical_name_systematic        1,4-bis(bis(Dimethylamino)boryl)benzene
_symmetry_cell_setting           monoclinic
_symmetry_space_group_name_H-M   'P 21/c'
_symmetry_Int_Tables_number      14
_space_group_name_Hall           '-P 2ybc'
loop_
_symmetry_equiv_pos_site_id
_symmetry_equiv_pos_as_xyz
1 x,y,z
2 -x,1/2+y,1/2-z
3 -x,-y,-z
4 x,1/2-y,1/2+z
_cell_length_a                   6.7166(6)
_cell_length_b                   12.7645(8)
_cell_length_c                   9.7065(7)
_cell_angle_alpha                90
_cell_angle_beta                 93.278(7)
_cell_angle_gamma                90
_cell_volume                     830.816
_exptl_crystal_colour            colorless
_exptl_crystal_description       block
_cell_formula_units_Z            2
loop_
_atom_site_label
_atom_site_type_symbol
_atom_site_fract_x
_atom_site_fract_y
_atom_site_fract_z
B1 B 0.2802(2) 0.30295(11) 0.40498(15)
N1 N 0.09811(18) 0.31222(8) 0.32281(13)
N2 N 0.36246(18) 0.20320(8) 0.44341(13)
C1 C 0.3954(2) 0.40653(10) 0.45553(14)
C2 C 0.4252(2) 0.49054(10) 0.36559(13)
H1 H 0.3749 0.4853 0.2724
C3 C 0.4742(2) 0.41893(10) 0.59179(14)
H2 H 0.4584 0.3641 0.6564
C4 C 0.0165(2) 0.23291(12) 0.22723(15)
H3 H 0.1144 0.1767 0.2185
H4 H -0.0139 0.2648 0.1367
H5 H -0.1059 0.2039 0.2623
C5 C -0.0272(2) 0.40563(12) 0.32175(19)
H6 H 0.0287 0.4561 0.3895
H7 H -0.1623 0.3862 0.3453
H8 H -0.0322 0.4373 0.2296
C6 C 0.2483(3) 0.10684(11) 0.45396(16)
H9 H 0.1058 0.1223 0.4390
H10 H 0.2738 0.0764 0.5460
H11 H 0.2884 0.0570 0.3840
C7 C 0.5704(2) 0.18657(11) 0.48865(18)
H12 H 0.6455 0.2515 0.4770
H13 H 0.6266 0.1309 0.4332
H14 H 0.5791 0.1661 0.5861
B1B B 0.7198(2) 0.69705(11) 0.59502(15)
N1B N 0.90189(18) 0.68778(8) 0.67719(13)
N2B N 0.63754(18) 0.79680(8) 0.55659(13)
C1B C 0.6046(2) 0.59347(10) 0.54447(14)
C2B C 0.5748(2) 0.50946(10) 0.63441(13)
H1B H 0.6251 0.5147 0.7276
C3B C 0.5258(2) 0.58107(10) 0.40821(14)
H2B H 0.5416 0.6359 0.3436
C4B C 0.9835(2) 0.76709(12) 0.77277(15)
H3B H 0.8856 0.8233 0.7815
H4B H 1.0139 0.7352 0.8633
H5B H 1.1059 0.7961 0.7377
C5B C 1.0272(2) 0.59437(12) 0.67825(19)
H6B H 0.9713 0.5439 0.6105
H7B H 1.1623 0.6138 0.6547
H8B H 1.0322 0.5627 0.7704
C6B C 0.7517(3) 0.89316(11) 0.54604(16)
H9B H 0.8942 0.8777 0.5610
H10B H 0.7262 0.9236 0.4540
H11B H 0.7116 0.9430 0.6160
C7B C 0.4296(2) 0.81343(11) 0.51135(18)
H12B H 0.3545 0.7485 0.5230
H13B H 0.3734 0.8691 0.5668
H14B H 0.4209 0.8339 0.4139
loop_
_geom_bond_atom_site_label_1
_geom_bond_atom_site_label_2
_geom_bond_site_symmetry_1
_geom_bond_site_symmetry_2
B1 N1 1_555 1_555
N1 C4 1_555 1_555
N2 B1 1_555 1_555
C1 B1 1_555 1_555
C2 C1 1_555 1_555
H1 C2 1_555 1_555
C3 C1 1_555 1_555
H2 C3 1_555 1_555
C4 H3 1_555 1_555
H4 C4 1_555 1_555
H5 C4 1_555 1_555
C5 N1 1_555 1_555
H6 C5 1_555 1_555
H7 C5 1_555 1_555
H8 C5 1_555 1_555
C6 N2 1_555 1_555
H9 C6 1_555 1_555
H10 C6 1_555 1_555
H11 C6 1_555 1_555
C7 N2 1_555 1_555
H12 C7 1_555 1_555
H13 C7 1_555 1_555
H14 C7 1_555 1_555
B1B N1B 1_555 1_555
N1B C4B 1_555 1_555
N2B B1B 1_555 1_555
C1B B1B 1_555 1_555
C2B C3 1_555 1_555
H1B C2B 1_555 1_555
C3B C2 1_555 1_555
H2B C3B 1_555 1_555
C4B H3B 1_555 1_555
H4B C4B 1_555 1_555
H5B C4B 1_555 1_555
C5B N1B 1_555 1_555
H6B C5B 1_555 1_555
H7B C5B 1_555 1_555
H8B C5B 1_555 1_555
C6B N2B 1_555 1_555
H9B C6B 1_555 1_555
H10B C6B 1_555 1_555
H11B C6B 1_555 1_555
C7B N2B 1_555 1_555
H12B C7B 1_555 1_555
H13B C7B 1_555 1_555
H14B C7B 1_555 1_555
C1B C2B 1_555 1_555
C1B C3B 1_555 1_555

#END
