
#######################################################################
#
#                 Cambridge Crystallographic Data Centre
#                                CCDC 
#
#######################################################################
#
# If this CIF has been generated from an entry in the Cambridge 
# Structural Database, then it will include bibliographic, chemical, 
# crystal, experimental, refinement or atomic coordinate data resulting 
# from the CCDC's data processing and validation procedures.
#
#######################################################################

data_HOKHOF
_chemical_formula_moiety         'C18 H39 B3 N6'
_chemical_name_systematic        1,3,5-tris(bis(Dimethylamino)boryl)benzene
_symmetry_cell_setting           triclinic
_symmetry_space_group_name_H-M   'P -1'
_symmetry_Int_Tables_number      2
_space_group_name_Hall           '-P 1'
loop_
_symmetry_equiv_pos_site_id
_symmetry_equiv_pos_as_xyz
1 x,y,z
2 -x,-y,-z
_cell_length_a                   8.5070(11)
_cell_length_b                   10.0520(13)
_cell_length_c                   15.1233(17)
_cell_angle_alpha                85.667(10)
_cell_angle_beta                 78.556(10)
_cell_angle_gamma                66.589(9)
_cell_volume                     1163.17
_exptl_crystal_colour            colorless
_exptl_crystal_description       block
_cell_formula_units_Z            2
loop_
_atom_site_label
_atom_site_type_symbol
_atom_site_fract_x
_atom_site_fract_y
_atom_site_fract_z
C1 C 0.5174(5) 0.5780(4) 0.3240(2)
C2 C 0.6076(4) 0.4283(4) 0.3171(2)
H1 H 0.6723 0.3796 0.3626
C3 C 0.6077(4) 0.3452(4) 0.2460(2)
C4 C 0.5108(4) 0.4212(4) 0.1799(2)
H2 H 0.5045 0.3677 0.1324
C5 C 0.4229(4) 0.5725(4) 0.1808(2)
C6 C 0.4285(5) 0.6475(4) 0.2537(2)
H3 H 0.3696 0.7501 0.2557
B1 B 0.5163(6) 0.6680(4) 0.4061(3)
B2 B 0.7202(6) 0.1755(5) 0.2418(3)
B3 B 0.3158(5) 0.6571(4) 0.1044(3)
N1 N 0.3507(4) 0.7628(3) 0.4540(2)
N2 N 0.6752(4) 0.6540(3) 0.4286(2)
N3 N 0.9008(4) 0.1294(3) 0.2436(2)
N4 N 0.6392(4) 0.0782(3) 0.2383(2)
N5 N 0.3537(5) 0.7720(3) 0.0584(2)
N6 N 0.1832(4) 0.6170(4) 0.0867(2)
C7 C 0.3199(6) 0.8959(4) 0.4999(3)
H4 H 0.4241 0.9184 0.4843
H5 H 0.2942 0.8828 0.5653
H6 H 0.2209 0.9758 0.4810
C8 C 0.1920(5) 0.7393(5) 0.4609(3)
H7 H 0.2146 0.6556 0.4238
H8 H 0.1031 0.8256 0.4397
H9 H 0.1504 0.7209 0.5240
C9 C 0.6954(6) 0.6908(5) 0.5160(3)
H10 H 0.5876 0.7079 0.5598
H11 H 0.7201 0.7787 0.5102
H12 H 0.7920 0.6107 0.5367
C10 C 0.8422(5) 0.5925(5) 0.3679(3)
H13 H 0.9145 0.5000 0.3921
H14 H 0.9013 0.6597 0.3623
H15 H 0.8234 0.5764 0.3084
C11 C 1.0116(6) -0.0094(5) 0.2747(3)
H16 H 0.9411 -0.0649 0.3000
H17 H 1.0686 0.0056 0.3212
H18 H 1.1004 -0.0631 0.2239
C12 C 0.9955(5) 0.2239(5) 0.2184(3)
H19 H 0.9180 0.3167 0.1970
H20 H 1.0955 0.1778 0.1702
H21 H 1.0367 0.2405 0.2710
C13 C 0.7297(7) -0.0756(5) 0.2104(4)
H22 H 0.8519 -0.0956 0.1843
H23 H 0.6733 -0.0954 0.1653
H24 H 0.7238 -0.1377 0.2630
C14 C 0.4517(6) 0.1203(5) 0.2577(3)
H25 H 0.3947 0.2216 0.2777
H26 H 0.4216 0.0582 0.3054
H27 H 0.4121 0.1094 0.2031
C15 C 0.5213(7) 0.7816(6) 0.0476(3)
H28 H 0.6000 0.6985 0.0769
H29 H 0.5073 0.8716 0.0753
H30 H 0.5703 0.7813 -0.0168
C16 C 0.2307(7) 0.8948(5) 0.0170(3)
H31 H 0.1142 0.8930 0.0333
H32 H 0.2673 0.8887 -0.0487
H33 H 0.2279 0.9854 0.0386
C17 C 0.1149(6) 0.6463(6) 0.0032(3)
H34 H -0.0091 0.7098 0.0158
H35 H 0.1295 0.5549 -0.0229
H36 H 0.1784 0.6940 -0.0396
C18 C 0.1089(6) 0.5284(6) 0.1469(3)
H37 H 0.1488 0.4321 0.1201
H38 H -0.0186 0.5745 0.1560
H39 H 0.1464 0.5191 0.2051
loop_
_geom_bond_atom_site_label_1
_geom_bond_atom_site_label_2
_geom_bond_site_symmetry_1
_geom_bond_site_symmetry_2
C1 C2 1_555 1_555
C2 H1 1_555 1_555
C3 C2 1_555 1_555
C4 C3 1_555 1_555
H2 C4 1_555 1_555
C5 C4 1_555 1_555
C6 C1 1_555 1_555
H3 C6 1_555 1_555
B1 C1 1_555 1_555
B2 C3 1_555 1_555
B3 C5 1_555 1_555
N1 B1 1_555 1_555
N2 B1 1_555 1_555
N3 B2 1_555 1_555
N4 B2 1_555 1_555
N5 B3 1_555 1_555
N6 B3 1_555 1_555
C7 N1 1_555 1_555
H4 C7 1_555 1_555
H5 C7 1_555 1_555
H6 C7 1_555 1_555
C8 N1 1_555 1_555
H7 C8 1_555 1_555
H8 C8 1_555 1_555
H9 C8 1_555 1_555
C9 N2 1_555 1_555
H10 C9 1_555 1_555
H11 C9 1_555 1_555
H12 C9 1_555 1_555
C10 N2 1_555 1_555
H13 C10 1_555 1_555
H14 C10 1_555 1_555
H15 C10 1_555 1_555
C11 N3 1_555 1_555
H16 C11 1_555 1_555
H17 C11 1_555 1_555
H18 C11 1_555 1_555
C12 N3 1_555 1_555
H19 C12 1_555 1_555
H20 C12 1_555 1_555
H21 C12 1_555 1_555
C13 N4 1_555 1_555
H22 C13 1_555 1_555
H23 C13 1_555 1_555
H24 C13 1_555 1_555
C14 N4 1_555 1_555
H25 C14 1_555 1_555
H26 C14 1_555 1_555
H27 C14 1_555 1_555
C15 N5 1_555 1_555
H28 C15 1_555 1_555
H29 C15 1_555 1_555
H30 C15 1_555 1_555
C16 N5 1_555 1_555
H31 C16 1_555 1_555
H32 C16 1_555 1_555
H33 C16 1_555 1_555
C17 N6 1_555 1_555
H34 C17 1_555 1_555
H35 C17 1_555 1_555
H36 C17 1_555 1_555
C18 N6 1_555 1_555
H37 C18 1_555 1_555
H38 C18 1_555 1_555
H39 C18 1_555 1_555
C5 C6 1_555 1_555

#END
