
#######################################################################
#
#                 Cambridge Crystallographic Data Centre
#                                CCDC 
#
#######################################################################
#
# If this CIF has been generated from an entry in the Cambridge 
# Structural Database, then it will include bibliographic, chemical, 
# crystal, experimental, refinement or atomic coordinate data resulting 
# from the CCDC's data processing and validation procedures.
#
#######################################################################

data_HOKKUP
_chemical_formula_moiety         'C20 H14 F1 N1 O3'
_chemical_name_systematic        
2-ethyl-6-(4-fluorophenoxy)-1H-benzo[de]isoquinoline-1,3(2H)-dione
_symmetry_cell_setting           monoclinic
_symmetry_space_group_name_H-M   'P 21/c'
_symmetry_Int_Tables_number      14
_space_group_name_Hall           '-P 2ybc'
loop_
_symmetry_equiv_pos_site_id
_symmetry_equiv_pos_as_xyz
1 x,y,z
2 -x,1/2+y,1/2-z
3 -x,-y,-z
4 x,1/2-y,1/2+z
_cell_length_a                   8.972(3)
_cell_length_b                   7.295(3)
_cell_length_c                   24.757(10)
_cell_angle_alpha                90
_cell_angle_beta                 96.902(7)
_cell_angle_gamma                90
_cell_volume                     1608.62
_exptl_crystal_colour            yellow
_exptl_crystal_description       rectangular
_cell_formula_units_Z            4
loop_
_atom_site_label
_atom_site_type_symbol
_atom_site_fract_x
_atom_site_fract_y
_atom_site_fract_z
F1 F 1.20767(15) 0.1750(2) 0.77540(6)
N1 N 0.54396(17) 0.3371(2) 1.11696(6)
O1 O 0.28967(15) 0.3218(2) 1.10279(6)
O2 O 0.79791(15) 0.3415(2) 1.13142(5)
O3 O 0.70079(14) 0.1749(2) 0.87692(5)
C1 C 0.69156(18) 0.2829(2) 1.04134(7)
C2 C 0.8269(2) 0.2737(3) 1.02090(8)
H1 H 0.921(2) 0.287(3) 1.0457(8)
C3 C 0.8344(2) 0.2381(3) 0.96598(8)
H2 H 0.928(2) 0.229(3) 0.9525(8)
C4 C 0.70558(19) 0.2111(3) 0.93119(7)
C5 C 0.56209(18) 0.2175(2) 0.95030(7)
C6 C 0.4264(2) 0.1896(3) 0.91595(8)
H3 H 0.430(2) 0.164(2) 0.8792(8)
C7 C 0.2922(2) 0.1978(3) 0.93710(8)
H4 H 0.202(2) 0.175(3) 0.9132(8)
C8 C 0.2875(2) 0.2357(3) 0.99173(8)
H5 H 0.199(2) 0.244(3) 1.0069(7)
C9 C 0.41688(17) 0.2646(2) 1.02612(7)
C10 C 0.55756(17) 0.2552(2) 1.00595(6)
C11 C 0.6860(2) 0.3216(2) 1.09919(7)
C12 C 0.4089(2) 0.3086(2) 1.08402(7)
C13 C 0.5370(3) 0.3878(4) 1.17465(8)
H6 H 0.443(2) 0.462(3) 1.1758(8)
H7 H 0.622(3) 0.473(3) 1.1855(9)
C14 C 0.5335(4) 0.2222(5) 1.21067(11)
H8 H 0.445(4) 0.146(4) 1.1979(12)
H9 H 0.534(3) 0.263(4) 1.2480(13)
H10 H 0.622(3) 0.152(4) 1.2086(10)
C15 C 0.8356(2) 0.1768(3) 0.85336(7)
C16 C 0.8924(2) 0.3407(3) 0.83800(8)
H11 H 0.846(2) 0.452(3) 0.8456(8)
C17 C 1.0193(2) 0.3397(3) 0.81148(8)
H12 H 1.061(2) 0.451(3) 0.8000(8)
C18 C 1.0825(2) 0.1750(3) 0.80150(7)
C19 C 1.0282(2) 0.0109(3) 0.81702(8)
H13 H 1.076(2) -0.105(3) 0.8093(8)
C20 C 0.9020(2) 0.0110(3) 0.84368(8)
H14 H 0.855(2) -0.101(3) 0.8539(8)
loop_
_geom_bond_atom_site_label_1
_geom_bond_atom_site_label_2
_geom_bond_site_symmetry_1
_geom_bond_site_symmetry_2
F1 C18 1_555 1_555
N1 C11 1_555 1_555
O1 C12 1_555 1_555
O2 C11 1_555 1_555
O3 C4 1_555 1_555
C1 C2 1_555 1_555
C2 H1 1_555 1_555
C3 C2 1_555 1_555
H2 C3 1_555 1_555
C4 C3 1_555 1_555
C5 C4 1_555 1_555
C6 C5 1_555 1_555
H3 C6 1_555 1_555
C7 C6 1_555 1_555
H4 C7 1_555 1_555
C8 C7 1_555 1_555
H5 C8 1_555 1_555
C9 C8 1_555 1_555
C10 C1 1_555 1_555
C11 C1 1_555 1_555
C12 N1 1_555 1_555
C13 N1 1_555 1_555
H6 C13 1_555 1_555
H7 C13 1_555 1_555
C14 C13 1_555 1_555
H8 C14 1_555 1_555
H9 C14 1_555 1_555
H10 C14 1_555 1_555
C15 O3 1_555 1_555
C16 C15 1_555 1_555
H11 C16 1_555 1_555
C17 C16 1_555 1_555
H12 C17 1_555 1_555
C18 C17 1_555 1_555
C19 C18 1_555 1_555
H13 C19 1_555 1_555
C20 C15 1_555 1_555
H14 C20 1_555 1_555
C5 C10 1_555 1_555
C9 C10 1_555 1_555
C9 C12 1_555 1_555
C19 C20 1_555 1_555

#END
