
#######################################################################
#
#                 Cambridge Crystallographic Data Centre
#                                CCDC 
#
#######################################################################
#
# If this CIF has been generated from an entry in the Cambridge 
# Structural Database, then it will include bibliographic, chemical, 
# crystal, experimental, refinement or atomic coordinate data resulting 
# from the CCDC's data processing and validation procedures.
#
#######################################################################

data_HOKLEA
_chemical_formula_moiety         'C20 H14 N2 O5'
_chemical_name_systematic        
2-ethyl-6-(4-nitrophenoxy)-1H-benzo[de]isoquinoline-1,3(2H)-dione
_symmetry_cell_setting           monoclinic
_symmetry_space_group_name_H-M   'P 21/c'
_symmetry_Int_Tables_number      14
_space_group_name_Hall           '-P 2ybc'
loop_
_symmetry_equiv_pos_site_id
_symmetry_equiv_pos_as_xyz
1 x,y,z
2 -x,1/2+y,1/2-z
3 -x,-y,-z
4 x,1/2-y,1/2+z
_cell_length_a                   13.916(5)
_cell_length_b                   11.329(4)
_cell_length_c                   10.530(4)
_cell_angle_alpha                90
_cell_angle_beta                 98.067(7)
_cell_angle_gamma                90
_cell_volume                     1643.67
_exptl_crystal_colour            yellow
_exptl_crystal_description       rectangular
_cell_formula_units_Z            4
loop_
_atom_site_label
_atom_site_type_symbol
_atom_site_fract_x
_atom_site_fract_y
_atom_site_fract_z
O1 O 0.74251(10) 0.71188(13) 0.02138(16)
N1 N 0.30328(12) 0.63965(16) 0.11283(17)
C1 C 0.60559(14) 0.63281(17) 0.09513(18)
C2 C 0.46180(14) 0.54406(17) 0.16504(18)
O2 O 0.31689(12) 0.46926(15) 0.22742(17)
C3 C 0.44577(14) 0.72404(17) 0.03504(19)
C4 C 0.50382(14) 0.63464(17) 0.09858(18)
C5 C 0.66148(17) 0.54140(19) 0.1589(2)
O3 O 0.28766(11) 0.80050(14) -0.01644(17)
C6 C 0.64480(14) 0.72299(18) 0.0242(2)
C7 C 0.35632(16) 0.54563(19) 0.1717(2)
C8 C 0.34100(15) 0.72619(19) 0.0394(2)
C9 C 0.61844(17) 0.4549(2) 0.2213(2)
C10 C 0.51807(16) 0.4557(2) 0.2243(2)
C11 C 0.58740(16) 0.8087(2) -0.0393(2)
C12 C 0.79409(14) 0.79864(19) -0.0340(2)
N2 N 0.97072(13) 1.0416(2) -0.1902(2)
O4 O 1.02604(12) 1.00584(18) -0.26156(18)
C13 C 0.85448(15) 0.9936(2) -0.0433(2)
C14 C 0.48787(16) 0.80869(19) -0.0321(2)
C15 C 0.90837(14) 0.95612(19) -0.1359(2)
O5 O 0.96555(13) 1.14489(17) -0.1597(2)
C16 C 0.19822(17) 0.6474(3) 0.1241(3)
C17 C 0.79682(15) 0.9133(2) 0.0093(2)
C18 C 0.90636(17) 0.8411(2) -0.1785(2)
C19 C 0.84785(17) 0.7616(2) -0.1269(2)
C20 C 0.1355(2) 0.5979(3) 0.0093(3)
H1 H 0.4470(15) 0.8674(19) -0.076(2)
H2 H 0.7609(15) 0.9383(17) 0.073(2)
H3 H 0.6159(15) 0.8667(19) -0.088(2)
H4 H 0.150(2) 0.508(3) -0.002(3)
H5 H 0.4892(15) 0.393(2) 0.269(2)
H6 H 0.1939(17) 0.605(2) 0.206(2)
H7 H 0.6588(15) 0.394(2) 0.262(2)
H8 H 0.9443(16) 0.8178(19) -0.239(2)
H9 H 0.8434(16) 0.686(2) -0.156(2)
H10 H 0.8555(15) 1.072(2) -0.015(2)
H11 H 0.7288(16) 0.5420(18) 0.156(2)
H12 H 0.1479(19) 0.642(2) -0.074(3)
H13 H 0.1830(19) 0.736(3) 0.139(3)
H14 H 0.070(2) 0.611(3) 0.020(3)
loop_
_geom_bond_atom_site_label_1
_geom_bond_atom_site_label_2
_geom_bond_site_symmetry_1
_geom_bond_site_symmetry_2
O1 C6 1_555 1_555
N1 C7 1_555 1_555
C1 C4 1_555 1_555
C2 C4 1_555 1_555
O2 C7 1_555 1_555
C3 C4 1_555 1_555
C5 C1 1_555 1_555
O3 C8 1_555 1_555
C6 C1 1_555 1_555
C7 C2 1_555 1_555
C8 N1 1_555 1_555
C9 C5 1_555 1_555
C10 C2 1_555 1_555
C11 C6 1_555 1_555
C12 O1 1_555 1_555
N2 O4 1_555 1_555
C13 C15 1_555 1_555
C14 C3 1_555 1_555
C15 N2 1_555 1_555
O5 N2 1_555 1_555
C16 N1 1_555 1_555
C17 C12 1_555 1_555
C18 C15 1_555 1_555
C19 C12 1_555 1_555
C20 C16 1_555 1_555
H1 C14 1_555 1_555
H2 C17 1_555 1_555
H3 C11 1_555 1_555
H4 C20 1_555 1_555
H5 C10 1_555 1_555
H6 C16 1_555 1_555
H7 C9 1_555 1_555
H8 C18 1_555 1_555
H9 C19 1_555 1_555
H10 C13 1_555 1_555
H11 C5 1_555 1_555
H12 C20 1_555 1_555
H13 C16 1_555 1_555
H14 C20 1_555 1_555
C3 C8 1_555 1_555
C9 C10 1_555 1_555
C11 C14 1_555 1_555
C13 C17 1_555 1_555
C18 C19 1_555 1_555

#END
