
#######################################################################
#
#                 Cambridge Crystallographic Data Centre
#                                CCDC 
#
#######################################################################
#
# If this CIF has been generated from an entry in the Cambridge 
# Structural Database, then it will include bibliographic, chemical, 
# crystal, experimental, refinement or atomic coordinate data resulting 
# from the CCDC's data processing and validation procedures.
#
#######################################################################

data_HOLDOC01
_chemical_formula_moiety         'C8 H8 N1 O2 1-,C7 H10 N1 1+'
_chemical_name_systematic        'benzylammonium benzylcarbamate'
_symmetry_cell_setting           triclinic
_symmetry_space_group_name_H-M   'P -1'
_symmetry_Int_Tables_number      2
_space_group_name_Hall           '-P 1'
loop_
_symmetry_equiv_pos_site_id
_symmetry_equiv_pos_as_xyz
1 x,y,z
2 -x,-y,-z
_cell_length_a                   5.8051(3)
_cell_length_b                   9.4469(5)
_cell_length_c                   25.2290(10)
_cell_angle_alpha                79.301(7)
_cell_angle_beta                 89.010(6)
_cell_angle_gamma                89.649(7)
_cell_volume                     1359.3
_exptl_crystal_colour            colorless
_exptl_crystal_description       needle
_cell_formula_units_Z            4
loop_
_atom_site_label
_atom_site_type_symbol
_atom_site_fract_x
_atom_site_fract_y
_atom_site_fract_z
O1 O 0.2563(2) 0.6638(2) 0.0103(1)
O2 O 0.5393(2) 0.8252(2) -0.0150(1)
N2 N 0.2570(3) 0.8741(3) 0.0397(2)
H4 H 0.3322 0.9503 0.0427
C8 C 0.3569(5) 0.7813(5) 0.0111(4)
C9 C 0.0321(5) 0.8533(5) 0.0654(4)
H16 H 0.0026 0.7507 0.0748
H17 H -0.0825 0.8949 0.0395
C10 C 0.0021(5) 0.9177(5) 0.1155(4)
C11 C 0.1700(5) 0.9099(5) 0.1536(4)
H18 H 0.3097 0.8654 0.1482
C12 C 0.1359(5) 0.9668(5) 0.1996(4)
H19 H 0.2495 0.9576 0.2256
C13 C -0.0720(5) 1.0388(5) 0.2075(4)
H20 H -0.0950 1.0775 0.2385
C14 C -0.2411(5) 1.0516(5) 0.1690(4)
H21 H -0.3775 1.0996 0.1738
C15 C -0.2039(5) 0.9925(5) 0.1232(4)
H22 H -0.3176 1.0021 0.0971
O3 O 0.2385(2) 0.1689(2) 0.4922(1)
O4 O -0.0435(2) 0.3095(2) 0.5161(1)
N4 N 0.2433(3) 0.4092(3) 0.4621(2)
H8 H 0.1722 0.4902 0.4600
C23 C 0.1416(5) 0.2898(5) 0.4907(4)
C24 C 0.4650(5) 0.4084(5) 0.4350(4)
H30 H 0.4838 0.3164 0.4236
H31 H 0.5842 0.4151 0.4609
C25 C 0.5041(5) 0.5257(5) 0.3868(4)
C26 C 0.3380(5) 0.5562(5) 0.3483(4)
H32 H 0.1982 0.5079 0.3520
C27 C 0.3879(5) 0.6636(5) 0.3028(4)
H33 H 0.2794 0.6835 0.2757
C28 C 0.5910(5) 0.7400(5) 0.2970(4)
H34 H 0.6182 0.8113 0.2668
C29 C 0.7521(5) 0.7081(5) 0.3369(4)
H35 H 0.8907 0.7576 0.3332
C30 C 0.7110(5) 0.6030(5) 0.3829(5)
H36 H 0.8185 0.5847 0.4102
N1 N 0.8225(3) 0.6341(3) -0.0438(2)
H1 H 0.7278 0.6962 -0.0319
H2 H 0.9587 0.6352 -0.0283
H3 H 0.7632 0.5459 -0.0356
C1 C 0.8520(4) 0.6754(4) -0.1028(3)
H9 H 0.9118 0.7728 -0.1114
H10 H 0.7020 0.6758 -0.1193
C2 C 1.0110(5) 0.5769(5) -0.1272(4)
C3 C 1.2259(5) 0.5377(5) -0.1044(3)
H11 H 1.2737 0.5727 -0.0743
C4 C 1.3640(5) 0.4478(5) -0.1271(4)
H12 H 1.5034 0.4188 -0.1106
C5 C 1.3101(5) 0.3977(5) -0.1727(4)
H13 H 1.4057 0.3338 -0.1867
C6 C 1.1020(5) 0.4479(4) -0.1974(4)
H14 H 1.0638 0.4204 -0.2297
C7 C 0.9520(5) 0.5369(5) -0.1754(4)
H15 H 0.8155 0.5688 -0.1925
N3 N -0.3228(3) 0.0899(3) 0.5443(2)
H5 H -0.2315 0.1644 0.5319
H6 H -0.4590 0.1036 0.5285
H7 H -0.2587 0.0096 0.5371
C16 C -0.3550(4) 0.0765(4) 0.6040(3)
H23 H -0.4222 0.1649 0.6116
H24 H -0.2051 0.0645 0.6208
C17 C -0.5080(5) -0.0498(5) 0.6290(4)
C18 C -0.4449(5) -0.1374(5) 0.6778(4)
H25 H -0.3076 -0.1203 0.6941
C19 C -0.5881(5) -0.2509(5) 0.7019(4)
H26 H -0.5450 -0.3099 0.7339
C20 C -0.7931(5) -0.2752(5) 0.6784(4)
H27 H -0.8853 -0.3510 0.6951
C21 C -0.8650(5) -0.1913(5) 0.6311(4)
H28 H -1.0022 -0.2106 0.6154
C22 C -0.7239(5) -0.0754(5) 0.6073(4)
H29 H -0.7742 -0.0140 0.5764
loop_
_geom_bond_atom_site_label_1
_geom_bond_atom_site_label_2
_geom_bond_site_symmetry_1
_geom_bond_site_symmetry_2
O1 C8 1_555 1_555
O2 C8 1_555 1_555
O3 C23 1_555 1_555
O4 C23 1_555 1_555
N1 H1 1_555 1_555
H2 N1 1_555 1_555
H3 N1 1_555 1_555
N2 H4 1_555 1_555
N3 H5 1_555 1_555
H6 N3 1_555 1_555
H7 N3 1_555 1_555
N4 H8 1_555 1_555
C1 N1 1_555 1_555
H9 C1 1_555 1_555
H10 C1 1_555 1_555
C2 C1 1_555 1_555
C3 C2 1_555 1_555
H11 C3 1_555 1_555
C4 C3 1_555 1_555
H12 C4 1_555 1_555
C5 C4 1_555 1_555
H13 C5 1_555 1_555
C6 C5 1_555 1_555
H14 C6 1_555 1_555
C7 C2 1_555 1_555
H15 C7 1_555 1_555
C8 N2 1_555 1_555
C9 N2 1_555 1_555
H16 C9 1_555 1_555
H17 C9 1_555 1_555
C10 C9 1_555 1_555
C11 C10 1_555 1_555
H18 C11 1_555 1_555
C12 C11 1_555 1_555
H19 C12 1_555 1_555
C13 C12 1_555 1_555
H20 C13 1_555 1_555
C14 C13 1_555 1_555
H21 C14 1_555 1_555
C15 C10 1_555 1_555
H22 C15 1_555 1_555
C16 N3 1_555 1_555
H23 C16 1_555 1_555
H24 C16 1_555 1_555
C17 C16 1_555 1_555
C18 C17 1_555 1_555
H25 C18 1_555 1_555
C19 C18 1_555 1_555
H26 C19 1_555 1_555
C20 C19 1_555 1_555
H27 C20 1_555 1_555
C21 C20 1_555 1_555
H28 C21 1_555 1_555
C22 C17 1_555 1_555
H29 C22 1_555 1_555
C23 N4 1_555 1_555
C24 N4 1_555 1_555
H30 C24 1_555 1_555
H31 C24 1_555 1_555
C25 C24 1_555 1_555
C26 C25 1_555 1_555
H32 C26 1_555 1_555
C27 C26 1_555 1_555
H33 C27 1_555 1_555
C28 C27 1_555 1_555
H34 C28 1_555 1_555
C29 C28 1_555 1_555
H35 C29 1_555 1_555
C30 C25 1_555 1_555
H36 C30 1_555 1_555
C6 C7 1_555 1_555
C14 C15 1_555 1_555
C21 C22 1_555 1_555
C29 C30 1_555 1_555

#END
