
#######################################################################
#
#                 Cambridge Crystallographic Data Centre
#                                CCDC 
#
#######################################################################
#
# If this CIF has been generated from an entry in the Cambridge 
# Structural Database, then it will include bibliographic, chemical, 
# crystal, experimental, refinement or atomic coordinate data resulting 
# from the CCDC's data processing and validation procedures.
#
#######################################################################

data_HOLGEV
_chemical_formula_moiety         'C26 H25 N1 O6'
_chemical_name_systematic        
6-(3-(2,4-Dimethylanilino)-2-hydroxypropoxy)-1,8-dihydroxy-3-methyl-9,10-dihydroanthracene-9,10-dione
_symmetry_cell_setting           monoclinic
_symmetry_space_group_name_H-M   'P 21/c'
_symmetry_Int_Tables_number      14
_space_group_name_Hall           '-P 2ybc'
loop_
_symmetry_equiv_pos_site_id
_symmetry_equiv_pos_as_xyz
1 x,y,z
2 -x,1/2+y,1/2-z
3 -x,-y,-z
4 x,1/2-y,1/2+z
_cell_length_a                   5.0668(3)
_cell_length_b                   29.7496(17)
_cell_length_c                   14.2201(8)
_cell_angle_alpha                90
_cell_angle_beta                 90.530(4)
_cell_angle_gamma                90
_cell_volume                     2143.38
_exptl_crystal_colour            yellow
_exptl_crystal_description       plate
_cell_formula_units_Z            4
_exptl_crystal_recrystallization_method methanol
loop_
_atom_site_label
_atom_site_type_symbol
_atom_site_fract_x
_atom_site_fract_y
_atom_site_fract_z
C1 C -1.0367(9) 1.13766(15) 0.5591(3)
H1 H -1.1427 1.1638 0.5469
H2 H -0.9129 1.1440 0.6088
H3 H -1.1484 1.1132 0.5774
C2 C -0.8902(8) 1.12513(13) 0.4719(3)
C3 C -0.9564(8) 1.14342(13) 0.3858(3)
H4 H -1.0914 1.1645 0.3824
C4 C -0.8269(8) 1.13118(13) 0.3037(3)
C5 C -0.6234(7) 1.09890(12) 0.3064(2)
C6 C -0.5564(7) 1.08053(12) 0.3954(2)
C7 C -0.6889(7) 1.09336(13) 0.4748(3)
H5 H -0.6426 1.0804 0.5322
C8 C -0.4926(7) 1.08413(12) 0.2218(3)
C9 C -0.2884(7) 1.05060(12) 0.2275(2)
C10 C -0.2116(7) 1.03164(12) 0.3150(2)
C11 C -0.3414(7) 1.04653(13) 0.4030(3)
C12 C -0.1578(8) 1.03526(13) 0.1470(2)
C13 C 0.0369(8) 1.00294(13) 0.1525(3)
H6 H 0.1215 0.9933 0.0983
C14 C 0.1057(7) 0.98486(12) 0.2389(3)
C15 C -0.0191(7) 0.99984(12) 0.3210(2)
H7 H 0.0298 0.9881 0.3792
C16 C 0.4139(8) 0.93266(13) 0.1716(3)
H8 H 0.5121 0.9552 0.1370
H9 H 0.2815 0.9198 0.1300
C17 C 0.5967(8) 0.89666(13) 0.2081(3)
H10 H 0.7291 0.9111 0.2487
C18 C 0.7400(8) 0.87514(14) 0.1259(3)
H11 H 0.6129 0.8624 0.0820
H12 H 0.8421 0.8977 0.0930
C19 C 1.0724(7) 0.81541(12) 0.1014(3)
C20 C 1.1235(8) 0.82906(14) 0.0102(3)
H13 H 1.0373 0.8541 -0.0145
C21 C 1.3044(8) 0.80537(15) -0.0453(3)
H14 H 1.3358 0.8149 -0.1064
C22 C 1.4366(8) 0.76818(15) -0.0109(3)
C23 C 1.6400(9) 0.74387(17) -0.0682(3)
H15 H 1.7896 0.7367 -0.0290
H16 H 1.6951 0.7627 -0.1192
H17 H 1.5650 0.7166 -0.0929
C24 C 1.3773(8) 0.75469(13) 0.0789(3)
H18 H 1.4617 0.7293 0.1025
C25 C 1.1997(8) 0.77663(13) 0.1365(3)
C26 C 1.1395(11) 0.76031(16) 0.2335(3)
H19 H 1.1720 0.7840 0.2779
H20 H 1.2503 0.7351 0.2483
H21 H 0.9577 0.7514 0.2364
N1 N 0.9123(7) 0.84036(11) 0.1610(2)
H22 H 0.9165 0.8349 0.2204
O1 O -0.9091(7) 1.15045(11) 0.2223(2)
H23 H -0.8354 1.1383 0.1779
O2 O -0.5598(6) 1.10083(9) 0.14266(17)
O3 O -0.2174(6) 1.05188(11) 0.06045(18)
H24 H -0.3365 1.0704 0.0648
O4 O -0.2717(6) 1.03226(10) 0.47874(18)
O5 O 0.2908(5) 0.95260(9) 0.25280(17)
O6 O 0.4665(6) 0.86440(11) 0.2613(2)
H25 H 0.3221 0.8590 0.2372
loop_
_geom_bond_atom_site_label_1
_geom_bond_atom_site_label_2
_geom_bond_site_symmetry_1
_geom_bond_site_symmetry_2
C1 H1 1_555 1_555
H2 C1 1_555 1_555
H3 C1 1_555 1_555
C2 C1 1_555 1_555
C3 C2 1_555 1_555
H4 C3 1_555 1_555
C4 C3 1_555 1_555
C5 C4 1_555 1_555
C6 C5 1_555 1_555
C7 C2 1_555 1_555
H5 C7 1_555 1_555
C8 C5 1_555 1_555
C9 C8 1_555 1_555
C10 C9 1_555 1_555
C11 C6 1_555 1_555
C12 C9 1_555 1_555
C13 C12 1_555 1_555
H6 C13 1_555 1_555
C14 C13 1_555 1_555
C15 C10 1_555 1_555
H7 C15 1_555 1_555
C16 H8 1_555 1_555
H9 C16 1_555 1_555
C17 C16 1_555 1_555
H10 C17 1_555 1_555
C18 C17 1_555 1_555
H11 C18 1_555 1_555
H12 C18 1_555 1_555
C19 C20 1_555 1_555
C20 H13 1_555 1_555
C21 C20 1_555 1_555
H14 C21 1_555 1_555
C22 C21 1_555 1_555
C23 C22 1_555 1_555
H15 C23 1_555 1_555
H16 C23 1_555 1_555
H17 C23 1_555 1_555
C24 C22 1_555 1_555
H18 C24 1_555 1_555
C25 C19 1_555 1_555
C26 C25 1_555 1_555
H19 C26 1_555 1_555
H20 C26 1_555 1_555
H21 C26 1_555 1_555
N1 C18 1_555 1_555
H22 N1 1_555 1_555
O1 C4 1_555 1_555
H23 O1 1_555 1_555
O2 C8 1_555 1_555
O3 C12 1_555 1_555
H24 O3 1_555 1_555
O4 C11 1_555 1_555
O5 C14 1_555 1_555
O6 C17 1_555 1_555
H25 O6 1_555 1_555
C6 C7 1_555 1_555
C10 C11 1_555 1_555
C14 C15 1_555 1_555
C16 O5 1_555 1_555
C19 N1 1_555 1_555
C24 C25 1_555 1_555

#END
