
#######################################################################
#
#                 Cambridge Crystallographic Data Centre
#                                CCDC 
#
#######################################################################
#
# If this CIF has been generated from an entry in the Cambridge 
# Structural Database, then it will include bibliographic, chemical, 
# crystal, experimental, refinement or atomic coordinate data resulting 
# from the CCDC's data processing and validation procedures.
#
#######################################################################

data_HOLJUO
_chemical_formula_moiety         'C16 H15 N3 O1'
_chemical_name_systematic        4-Benzyl-1-p-tolyl-1H-1,2,4-triazol-5(4H)-one
_symmetry_cell_setting           monoclinic
_symmetry_space_group_name_H-M   'P 21/n'
_symmetry_Int_Tables_number      14
_space_group_name_Hall           '-P 2yn'
loop_
_symmetry_equiv_pos_site_id
_symmetry_equiv_pos_as_xyz
1 x,y,z
2 1/2-x,1/2+y,1/2-z
3 -x,-y,-z
4 1/2+x,1/2-y,1/2+z
_cell_length_a                   4.6130(9)
_cell_length_b                   25.488(5)
_cell_length_c                   11.460(2)
_cell_angle_alpha                90
_cell_angle_beta                 96.18(3)
_cell_angle_gamma                90
_cell_volume                     1339.59
_exptl_crystal_colour            colorless
_exptl_crystal_description       block
_cell_formula_units_Z            4
_exptl_crystal_recrystallization_method 'dichloromethane/ethyl acetate'
loop_
_atom_site_label
_atom_site_type_symbol
_atom_site_fract_x
_atom_site_fract_y
_atom_site_fract_z
O1 O 0.4812(3) 0.20822(5) 0.27648(11)
N1 N 0.5904(3) 0.17809(5) 0.09066(12)
N2 N 0.5011(4) 0.19124(6) -0.02578(13)
N3 N 0.2711(3) 0.24033(5) 0.09506(13)
C1 C 0.7986(4) 0.13699(6) 0.11575(15)
C2 C 0.8840(4) 0.10765(7) 0.02333(16)
H1 H 0.8061 0.1147 -0.0533
C3 C 1.0867(4) 0.06763(7) 0.04622(16)
H2 H 1.1441 0.0483 -0.0162
C4 C 1.2065(4) 0.05553(7) 0.15959(17)
C5 C 1.1164(4) 0.08567(7) 0.25051(17)
H3 H 1.1928 0.0784 0.3272
C6 C 0.9155(4) 0.12638(7) 0.23019(16)
H4 H 0.8605 0.1462 0.2923
C7 C 1.4263(4) 0.01155(7) 0.18258(18)
H5 H 1.6175 0.0243 0.1720
H6 H 1.3764 -0.0167 0.1287
H7 H 1.4243 -0.0009 0.2616
C8 C 0.4527(4) 0.20823(6) 0.16844(16)
C9 C 0.3125(4) 0.22863(7) -0.01808(17)
H8 H 0.2161 0.2456 -0.0828
C10 C 0.0864(4) 0.28203(7) 0.13604(18)
H9 H 0.0539 0.2752 0.2169
H10 H -0.1016 0.2817 0.0891
C11 C 0.2243(4) 0.33566(7) 0.12782(15)
C12 C 0.4397(4) 0.35251(7) 0.21405(16)
H11 H 0.4966 0.3310 0.2779
C13 C 0.5705(5) 0.40130(8) 0.20553(18)
H12 H 0.7158 0.4121 0.2631
C14 C 0.4840(5) 0.43383(7) 0.11114(17)
H13 H 0.5691 0.4667 0.1057
C15 C 0.2713(5) 0.41719(8) 0.02540(18)
H14 H 0.2142 0.4389 -0.0381
C16 C 0.1420(4) 0.36866(7) 0.03274(17)
H15 H -0.0006 0.3579 -0.0259
loop_
_geom_bond_atom_site_label_1
_geom_bond_atom_site_label_2
_geom_bond_site_symmetry_1
_geom_bond_site_symmetry_2
O1 C8 1_555 1_555
N1 N2 1_555 1_555
N2 C9 1_555 1_555
N3 C8 1_555 1_555
C1 N1 1_555 1_555
C2 C1 1_555 1_555
H1 C2 1_555 1_555
C3 C2 1_555 1_555
H2 C3 1_555 1_555
C4 C3 1_555 1_555
C5 C4 1_555 1_555
H3 C5 1_555 1_555
C6 C1 1_555 1_555
H4 C6 1_555 1_555
C7 C4 1_555 1_555
H5 C7 1_555 1_555
H6 C7 1_555 1_555
H7 C7 1_555 1_555
C8 N1 1_555 1_555
C9 N3 1_555 1_555
H8 C9 1_555 1_555
C10 N3 1_555 1_555
H9 C10 1_555 1_555
H10 C10 1_555 1_555
C11 C10 1_555 1_555
C12 C11 1_555 1_555
H11 C12 1_555 1_555
C13 C12 1_555 1_555
H12 C13 1_555 1_555
C14 C13 1_555 1_555
H13 C14 1_555 1_555
C15 C14 1_555 1_555
H14 C15 1_555 1_555
C16 C11 1_555 1_555
H15 C16 1_555 1_555
C5 C6 1_555 1_555
C15 C16 1_555 1_555

#END
