
#######################################################################
#
#                 Cambridge Crystallographic Data Centre
#                                CCDC 
#
#######################################################################
#
# If this CIF has been generated from an entry in the Cambridge 
# Structural Database, then it will include bibliographic, chemical, 
# crystal, experimental, refinement or atomic coordinate data resulting 
# from the CCDC's data processing and validation procedures.
#
#######################################################################

data_HOLKOK
_chemical_formula_moiety         'C26 H27 Br1 N1 O3 P1'
_chemical_name_systematic        
'ethyl 1-((2-bromophenyl)(diphenylphosphoryl)methyl)prolinate'
_symmetry_cell_setting           triclinic
_symmetry_space_group_name_H-M   'P -1'
_symmetry_Int_Tables_number      2
_space_group_name_Hall           '-P 1'
loop_
_symmetry_equiv_pos_site_id
_symmetry_equiv_pos_as_xyz
1 x,y,z
2 -x,-y,-z
_cell_length_a                   9.4832(13)
_cell_length_b                   11.2471(13)
_cell_length_c                   12.8517(11)
_cell_angle_alpha                104.059(9)
_cell_angle_beta                 109.087(10)
_cell_angle_gamma                97.056(10)
_cell_volume                     1225.61
_cell_formula_units_Z            2
loop_
_atom_site_label
_atom_site_type_symbol
_atom_site_fract_x
_atom_site_fract_y
_atom_site_fract_z
Br1 Br -0.50873(5) -0.50983(4) -0.28588(3)
P1 P -0.77989(11) -0.83266(8) -0.24386(7)
O1 O -0.8426(5) -0.4307(3) -0.1726(2)
O2 O -0.8825(4) -0.3517(3) -0.3194(2)
O3 O -0.8757(3) -0.9580(2) -0.3187(2)
N1 N -0.9579(3) -0.6756(3) -0.3263(2)
C1 C -0.9808(4) -0.5664(3) -0.3670(3)
H1 H -0.9507 -0.5728 -0.4338
C2 C -1.1549(5) -0.5750(5) -0.4036(4)
H2 H -1.1762 -0.5098 -0.3496
H3 H -1.1972 -0.5658 -0.4801
C3 C -1.2218(6) -0.7026(5) -0.4029(5)
H4 H -1.3089 -0.7448 -0.4739
H5 H -1.2549 -0.6959 -0.3382
C4 C -1.0958(5) -0.7739(4) -0.3920(4)
H6 H -1.1055 -0.8346 -0.3511
H7 H -1.0964 -0.8172 -0.4673
C5 C -0.8076(4) -0.7043(3) -0.3085(3)
H8 H -0.7344 -0.6294 -0.2505
C6 C -0.7586(4) -0.7263(3) -0.4122(3)
C7 C -0.6362(4) -0.6484(3) -0.4156(3)
C8 C -0.5978(4) -0.6669(3) -0.5129(3)
H9 H -0.5149 -0.6130 -0.5125
C9 C -0.6841(5) -0.7660(4) -0.6099(3)
H10 H -0.6608 -0.7781 -0.6761
C10 C -0.8039(5) -0.8465(4) -0.6090(3)
H11 H -0.8608 -0.9141 -0.6741
C11 C -0.8405(4) -0.8274(3) -0.5113(3)
H12 H -0.9217 -0.8833 -0.5117
C12 C -0.8937(5) -0.4444(4) -0.2737(4)
C13 C -0.8099(6) -0.2253(4) -0.2399(4)
H13 H -0.8346 -0.2160 -0.1712
H14 H -0.8500 -0.1641 -0.2764
C14 C -0.6423(7) -0.2001(5) -0.2065(5)
H15 H -0.5984 -0.1152 -0.1574
H16 H -0.6177 -0.2118 -0.2745
H17 H -0.6017 -0.2570 -0.1658
C15 C -0.5795(4) -0.8304(3) -0.2105(3)
C16 C -0.5399(5) -0.9130(4) -0.2891(4)
H18 H -0.6160 -0.9678 -0.3558
C17 C -0.3886(6) -0.9151(5) -0.2698(5)
H19 H -0.3629 -0.9705 -0.3237
C18 C -0.2757(5) -0.8353(5) -0.1709(4)
H20 H -0.1736 -0.8375 -0.1572
C19 C -0.3134(5) -0.7531(5) -0.0931(4)
H21 H -0.2368 -0.6987 -0.0264
C20 C -0.4645(5) -0.7499(4) -0.1123(3)
H22 H -0.4891 -0.6930 -0.0588
C21 C -0.8080(4) -0.7858(3) -0.1086(3)
C22 C -0.8171(6) -0.8764(4) -0.0534(4)
H23 H -0.8065 -0.9568 -0.0855
C23 C -0.8419(7) -0.8480(5) 0.0490(4)
H24 H -0.8467 -0.9094 0.0856
C24 C -0.8593(5) -0.7318(5) 0.0972(3)
H25 H -0.8765 -0.7139 0.1660
C25 C -0.8514(5) -0.6416(4) 0.0436(3)
H26 H -0.8640 -0.5620 0.0758
C26 C -0.8245(5) -0.6677(4) -0.0589(3)
H27 H -0.8176 -0.6052 -0.0941
loop_
_geom_bond_atom_site_label_1
_geom_bond_atom_site_label_2
_geom_bond_site_symmetry_1
_geom_bond_site_symmetry_2
Br1 C7 1_555 1_555
P1 O3 1_555 1_555
O1 C12 1_555 1_555
O2 C12 1_555 1_555
N1 C1 1_555 1_555
C1 H1 1_555 1_555
C2 C1 1_555 1_555
H2 C2 1_555 1_555
H3 C2 1_555 1_555
C3 C2 1_555 1_555
H4 C3 1_555 1_555
H5 C3 1_555 1_555
C4 N1 1_555 1_555
H6 C4 1_555 1_555
H7 C4 1_555 1_555
C5 P1 1_555 1_555
H8 C5 1_555 1_555
C6 C5 1_555 1_555
C7 C6 1_555 1_555
C8 C7 1_555 1_555
H9 C8 1_555 1_555
C9 C8 1_555 1_555
H10 C9 1_555 1_555
C10 C9 1_555 1_555
H11 C10 1_555 1_555
C11 C6 1_555 1_555
H12 C11 1_555 1_555
C12 C1 1_555 1_555
C13 O2 1_555 1_555
H13 C13 1_555 1_555
H14 C13 1_555 1_555
C14 C13 1_555 1_555
H15 C14 1_555 1_555
H16 C14 1_555 1_555
H17 C14 1_555 1_555
C15 P1 1_555 1_555
C16 C15 1_555 1_555
H18 C16 1_555 1_555
C17 C16 1_555 1_555
H19 C17 1_555 1_555
C18 C17 1_555 1_555
H20 C18 1_555 1_555
C19 C18 1_555 1_555
H21 C19 1_555 1_555
C20 C15 1_555 1_555
H22 C20 1_555 1_555
C21 P1 1_555 1_555
C22 C21 1_555 1_555
H23 C22 1_555 1_555
C23 C22 1_555 1_555
H24 C23 1_555 1_555
C24 C23 1_555 1_555
H25 C24 1_555 1_555
C25 C24 1_555 1_555
H26 C25 1_555 1_555
C26 C21 1_555 1_555
H27 C26 1_555 1_555
N1 C5 1_555 1_555
C3 C4 1_555 1_555
C10 C11 1_555 1_555
C19 C20 1_555 1_555
C25 C26 1_555 1_555

#END
