
#######################################################################
#
#                 Cambridge Crystallographic Data Centre
#                                CCDC 
#
#######################################################################
#
# If this CIF has been generated from an entry in the Cambridge 
# Structural Database, then it will include bibliographic, chemical, 
# crystal, experimental, refinement or atomic coordinate data resulting 
# from the CCDC's data processing and validation procedures.
#
#######################################################################

data_HOLNUT
_chemical_compound_source        
'isolated from the twigs and leaves of Croton laevigatus'
_chemical_name_common            'crotonlaevin O'
_chemical_formula_moiety         'C20 H30 O3'
_chemical_name_systematic        
(5S,9R,10S,12S,13S)-2-(2-hydroxybut-3-en-2-yl)-7,7,10a-trimethyl-1,2,6,6a,7,8,9,10,10a,10b-decahydro-4H-benzo[f]isochromen-4-one
_symmetry_cell_setting           orthorhombic
_symmetry_space_group_name_H-M   'P 21 21 2'
_symmetry_Int_Tables_number      18
_space_group_name_Hall           'P 2 2ab'
loop_
_symmetry_equiv_pos_site_id
_symmetry_equiv_pos_as_xyz
1 x,y,z
2 -x,-y,z
3 1/2-x,1/2+y,-z
4 1/2+x,1/2-y,-z
_cell_length_a                   15.646(17)
_cell_length_b                   10.703(12)
_cell_length_c                   10.876(12)
_cell_angle_alpha                90
_cell_angle_beta                 90
_cell_angle_gamma                90
_cell_volume                     1821.29
_exptl_crystal_colour            colorless
_exptl_crystal_description       block
_chemical_melting_point          '440.7 K'
_cell_formula_units_Z            4
loop_
_atom_site_label
_atom_site_type_symbol
_atom_site_fract_x
_atom_site_fract_y
_atom_site_fract_z
C1 C -0.01849(13) 0.2878(2) 0.98373(16)
H1 H -0.0591 0.2193 0.9852
H2 H -0.0478 0.3605 0.9513
C2 C 0.00996(16) 0.3155(2) 1.11538(17)
H3 H 0.0461 0.3891 1.1160
H4 H -0.0398 0.3326 1.1659
C3 C 0.05859(15) 0.2058(2) 1.16841(18)
H5 H 0.0204 0.1346 1.1737
H6 H 0.0765 0.2265 1.2513
C4 C 0.13719(13) 0.1685(2) 1.09359(17)
C5 C 0.10883(11) 0.14783(18) 0.95734(16)
H7 H 0.0700 0.0761 0.9607
C6 C 0.18156(13) 0.1053(2) 0.87374(18)
H8 H 0.2301 0.1602 0.8861
H9 H 0.1988 0.0218 0.8980
C7 C 0.15961(12) 0.10396(19) 0.74039(18)
H10 H 0.1996 0.0714 0.6858
C8 C 0.08626(11) 0.14657(17) 0.69475(16)
C9 C 0.01690(10) 0.19691(16) 0.77749(14)
H11 H -0.0177 0.1250 0.8028
C10 C 0.05509(11) 0.25370(16) 0.89711(16)
C11 C -0.04177(11) 0.28136(18) 0.70209(15)
H12 H -0.0908 0.3059 0.7510
H13 H -0.0113 0.3563 0.6777
C12 C -0.07097(10) 0.21074(18) 0.58968(16)
H14 H -0.0956 0.1312 0.6168
C13 C -0.13695(10) 0.27705(19) 0.50881(16)
C14 C -0.10566(14) 0.4012(2) 0.4631(2)
H15 H -0.0583 0.3998 0.4115
C15 C -0.13701(18) 0.5087(3) 0.4874(3)
H16 H -0.1844 0.5155 0.5385
H17 H -0.1124 0.5801 0.4539
C16 C -0.15986(14) 0.1945(2) 0.39899(18)
H18 H -0.1771 0.1135 0.4277
H19 H -0.1109 0.1861 0.3463
H20 H -0.2059 0.2321 0.3539
C17 C 0.07637(11) 0.14822(18) 0.55943(16)
C18 C 0.17097(17) 0.0445(2) 1.1450(2)
H21 H 0.1771 0.0510 1.2326
H22 H 0.2255 0.0261 1.1088
H23 H 0.1314 -0.0213 1.1259
C19 C 0.20797(16) 0.2668(2) 1.1110(2)
H24 H 0.1866 0.3476 1.0883
H25 H 0.2560 0.2460 1.0599
H26 H 0.2255 0.2680 1.1955
C20 C 0.10774(14) 0.36998(18) 0.86531(18)
H27 H 0.0736 0.4261 0.8170
H28 H 0.1574 0.3457 0.8192
H29 H 0.1252 0.4109 0.9397
O1 O 0.13326(8) 0.12162(14) 0.48755(12)
O2 O 0.00142(7) 0.18331(12) 0.51024(10)
O3 O -0.20741(8) 0.28899(18) 0.58996(12)
H30 H -0.2478 0.3206 0.5533
loop_
_geom_bond_atom_site_label_1
_geom_bond_atom_site_label_2
_geom_bond_site_symmetry_1
_geom_bond_site_symmetry_2
C1 H1 1_555 1_555
H2 C1 1_555 1_555
C2 C1 1_555 1_555
H3 C2 1_555 1_555
H4 C2 1_555 1_555
C3 C2 1_555 1_555
H5 C3 1_555 1_555
H6 C3 1_555 1_555
C4 C3 1_555 1_555
C5 C4 1_555 1_555
H7 C5 1_555 1_555
C6 C5 1_555 1_555
H8 C6 1_555 1_555
H9 C6 1_555 1_555
C7 C6 1_555 1_555
H10 C7 1_555 1_555
C8 C7 1_555 1_555
C9 C8 1_555 1_555
H11 C9 1_555 1_555
C10 C1 1_555 1_555
C11 C9 1_555 1_555
H12 C11 1_555 1_555
H13 C11 1_555 1_555
C12 C11 1_555 1_555
H14 C12 1_555 1_555
C13 C12 1_555 1_555
C14 C13 1_555 1_555
H15 C14 1_555 1_555
C15 C14 1_555 1_555
H16 C15 1_555 1_555
H17 C15 1_555 1_555
C16 C13 1_555 1_555
H18 C16 1_555 1_555
H19 C16 1_555 1_555
H20 C16 1_555 1_555
C17 C8 1_555 1_555
C18 C4 1_555 1_555
H21 C18 1_555 1_555
H22 C18 1_555 1_555
H23 C18 1_555 1_555
C19 C4 1_555 1_555
H24 C19 1_555 1_555
H25 C19 1_555 1_555
H26 C19 1_555 1_555
C20 C10 1_555 1_555
H27 C20 1_555 1_555
H28 C20 1_555 1_555
H29 C20 1_555 1_555
O1 C17 1_555 1_555
O2 C12 1_555 1_555
O3 C13 1_555 1_555
H30 O3 1_555 1_555
C5 C10 1_555 1_555
C9 C10 1_555 1_555
C17 O2 1_555 1_555

#END
