
#######################################################################
#
#                 Cambridge Crystallographic Data Centre
#                                CCDC 
#
#######################################################################
#
# If this CIF has been generated from an entry in the Cambridge 
# Structural Database, then it will include bibliographic, chemical, 
# crystal, experimental, refinement or atomic coordinate data resulting 
# from the CCDC's data processing and validation procedures.
#
#######################################################################

data_HOLNON
_chemical_compound_source        
'isolated from the twigs and leaves of Croton laevigatus'
_chemical_name_common            'crotonlaevin N'
_chemical_formula_moiety         'C20 H30 O3'
_chemical_name_systematic        
(5S,9R,10S,12R,13S)-2-(2-hydroxybut-3-en-2-yl)-7,7,10a-trimethyl-1,2,6,6a,7,8,9,10,10a,10b-decahydro-4H-benzo[f]isochromen-4-one
_symmetry_cell_setting           orthorhombic
_symmetry_space_group_name_H-M   'P 21 21 21'
_symmetry_Int_Tables_number      19
_space_group_name_Hall           'P 2ac 2ab'
loop_
_symmetry_equiv_pos_site_id
_symmetry_equiv_pos_as_xyz
1 x,y,z
2 1/2-x,-y,1/2+z
3 1/2+x,1/2-y,-z
4 -x,1/2+y,1/2-z
_cell_length_a                   7.1319(6)
_cell_length_b                   14.3359(11)
_cell_length_c                   17.4859(15)
_cell_angle_alpha                90
_cell_angle_beta                 90
_cell_angle_gamma                90
_cell_volume                     1787.8
_chemical_melting_point          '398 K'
_cell_formula_units_Z            4
loop_
_atom_site_label
_atom_site_type_symbol
_atom_site_fract_x
_atom_site_fract_y
_atom_site_fract_z
O1 O 0.22892(18) 0.67682(8) 0.55845(7)
O2 O 0.21134(19) 0.71448(8) 0.40170(8)
H1 H 0.1303 0.7545 0.3961
O3 O 0.4616(2) 0.64192(11) 0.63399(10)
C1 C 0.3158(3) 0.61691(12) 0.60504(10)
C2 C 0.0641(3) 0.65117(11) 0.51376(10)
H2 H -0.0127 0.7078 0.5109
C3 C 0.1280(2) 0.63135(11) 0.43059(10)
C4 C 0.0561(2) 0.49332(11) 0.57852(9)
H3 H 0.0992 0.4643 0.5309
C5 C 0.2773(3) 0.55671(12) 0.42563(10)
H4 H 0.2372 0.4950 0.4249
C6 C -0.0547(3) 0.58015(12) 0.55615(11)
H5 H -0.1593 0.5619 0.5240
H6 H -0.1053 0.6088 0.6019
C7 C 0.2285(2) 0.52428(11) 0.62144(10)
C8 C 0.0913(3) 0.34110(12) 0.64413(10)
H7 H 0.1614 0.3302 0.5968
C9 C -0.0554(3) 0.41768(12) 0.62327(10)
C10 C 0.3064(3) 0.47391(14) 0.67705(12)
H8 H 0.4096 0.4982 0.7027
C11 C -0.1496(3) 0.46058(14) 0.69402(11)
H9 H -0.0566 0.4907 0.7251
H10 H -0.2098 0.4123 0.7231
H11 H -0.2413 0.5056 0.6781
C12 C 0.2349(3) 0.38008(13) 0.69997(12)
H12 H 0.1783 0.3846 0.7503
H13 H 0.3397 0.3371 0.7035
C13 C 0.0161(4) 0.24306(13) 0.66797(11)
C14 C -0.0637(4) 0.23834(16) 0.74983(12)
H14 H 0.0281 0.2612 0.7853
H15 H -0.0942 0.1749 0.7621
H16 H -0.1748 0.2760 0.7530
C15 C -0.0413(3) 0.60437(17) 0.38206(12)
H17 H -0.1400 0.6489 0.3898
H18 H -0.0841 0.5435 0.3968
H19 H -0.0063 0.6038 0.3291
C16 C 0.4552(4) 0.57133(18) 0.42226(18)
C17 C 0.1820(5) 0.17335(15) 0.66437(18)
H20 H 0.2485 0.1815 0.6171
H21 H 0.1348 0.1107 0.6673
H22 H 0.2654 0.1846 0.7065
C18 C -0.1337(5) 0.21273(17) 0.61093(14)
H23 H -0.0740 0.1996 0.5622
H24 H -0.1904 0.1553 0.6289
C19 C -0.2045(4) 0.37641(17) 0.56937(13)
H25 H -0.3050 0.4213 0.5631
H26 H -0.1485 0.3660 0.5195
C20 C -0.2867(5) 0.2846(2) 0.59859(17)
H27 H -0.3521 0.2955 0.6464
H28 H -0.3768 0.2609 0.5618
H29 H 0.545(5) 0.520(2) 0.4172(18)
H30 H 0.505(4) 0.633(2) 0.4241(17)
loop_
_geom_bond_atom_site_label_1
_geom_bond_atom_site_label_2
_geom_bond_site_symmetry_1
_geom_bond_site_symmetry_2
O1 C1 1_555 1_555
O2 H1 1_555 1_555
O3 C1 1_555 1_555
C1 C7 1_555 1_555
C2 O1 1_555 1_555
H2 C2 1_555 1_555
C3 O2 1_555 1_555
C4 H3 1_555 1_555
C5 C3 1_555 1_555
H4 C5 1_555 1_555
C6 C2 1_555 1_555
H5 C6 1_555 1_555
H6 C6 1_555 1_555
C7 C4 1_555 1_555
C8 H7 1_555 1_555
C9 C4 1_555 1_555
C10 C7 1_555 1_555
H8 C10 1_555 1_555
C11 C9 1_555 1_555
H9 C11 1_555 1_555
H10 C11 1_555 1_555
H11 C11 1_555 1_555
C12 C8 1_555 1_555
H12 C12 1_555 1_555
H13 C12 1_555 1_555
C13 C8 1_555 1_555
C14 C13 1_555 1_555
H14 C14 1_555 1_555
H15 C14 1_555 1_555
H16 C14 1_555 1_555
C15 C3 1_555 1_555
H17 C15 1_555 1_555
H18 C15 1_555 1_555
H19 C15 1_555 1_555
C16 C5 1_555 1_555
C17 C13 1_555 1_555
H20 C17 1_555 1_555
H21 C17 1_555 1_555
H22 C17 1_555 1_555
C18 C13 1_555 1_555
H23 C18 1_555 1_555
H24 C18 1_555 1_555
C19 C9 1_555 1_555
H25 C19 1_555 1_555
H26 C19 1_555 1_555
C20 C18 1_555 1_555
H27 C20 1_555 1_555
H28 C20 1_555 1_555
H29 C16 1_555 1_555
H30 C16 1_555 1_555
C2 C3 1_555 1_555
C4 C6 1_555 1_555
C8 C9 1_555 1_555
C10 C12 1_555 1_555
C19 C20 1_555 1_555

#END
