
#######################################################################
#
#                 Cambridge Crystallographic Data Centre
#                                CCDC 
#
#######################################################################
#
# If this CIF has been generated from an entry in the Cambridge 
# Structural Database, then it will include bibliographic, chemical, 
# crystal, experimental, refinement or atomic coordinate data resulting 
# from the CCDC's data processing and validation procedures.
#
#######################################################################

data_HOLNIG
_chemical_formula_moiety         '2(C4 H7 N2 1+),C4 H4 O4 2-,C4 H6 O4'
_chemical_name_systematic        
'bis(4-Methylimidazolium) succinate succinic acid solvate'
_symmetry_cell_setting           monoclinic
_symmetry_space_group_name_H-M   'P 21/c'
_symmetry_Int_Tables_number      14
_space_group_name_Hall           '-P 2ybc'
loop_
_symmetry_equiv_pos_site_id
_symmetry_equiv_pos_as_xyz
1 x,y,z
2 -x,1/2+y,1/2-z
3 -x,-y,-z
4 x,1/2-y,1/2+z
_cell_length_a                   17.260(5)
_cell_length_b                   14.066(4)
_cell_length_c                   7.761(2)
_cell_angle_alpha                90
_cell_angle_beta                 95.008(6)
_cell_angle_gamma                90
_cell_volume                     1877.02
_exptl_crystal_colour            colorless
_exptl_crystal_description       plate
_cell_formula_units_Z            4
loop_
_atom_site_label
_atom_site_type_symbol
_atom_site_fract_x
_atom_site_fract_y
_atom_site_fract_z
C1 C 0.45695(11) 0.47579(16) 0.7860(3)
C2 C 0.50516(13) 0.33293(17) 0.7523(3)
H1 H 0.5380 0.2839 0.7247
C3 C 0.40700(12) 0.41101(16) 0.8406(3)
H2 H 0.3597 0.4241 0.8847
C4 C 0.45464(13) 0.58059(16) 0.7747(3)
H3 H 0.4367 0.5993 0.6590
H4 H 0.5059 0.6057 0.8036
H5 H 0.4199 0.6050 0.8540
N1 N 0.43813(11) 0.32252(14) 0.8197(3)
H19 H 0.4148(14) 0.2622(18) 0.842(3)
N2 N 0.51776(10) 0.42424(13) 0.7306(3)
H20 H 0.5629(13) 0.4491(16) 0.678(3)
C5 C 0.96099(11) 0.34301(16) 0.3015(3)
C6 C 0.91078(12) 0.40732(16) 0.3567(3)
H6 H 0.8665 0.3936 0.4122
C7 C 1.00090(12) 0.48664(17) 0.2388(3)
H7 H 1.0302 0.5361 0.1986
C8 C 0.96426(13) 0.23840(16) 0.3093(3)
H8 H 0.9213 0.2150 0.3676
H9 H 1.0122 0.2190 0.3714
H10 H 0.9614 0.2131 0.1941
N3 N 0.93627(10) 0.49658(14) 0.3170(2)
H21 H 0.9102(13) 0.5635(17) 0.342(3)
N4 N 1.01708(10) 0.39539(13) 0.2269(2)
H22 H 1.0622(13) 0.3685(15) 0.177(3)
C9 C 0.83954(12) 0.73296(15) 0.4322(3)
C10 C 0.76053(11) 0.71074(15) 0.4945(3)
H11 H 0.7558 0.7446 0.6020
H12 H 0.7206 0.7348 0.4101
C11 C 0.74541(12) 0.60712(15) 0.5235(3)
H13 H 0.7865 0.5824 0.6046
H14 H 0.7482 0.5737 0.4150
C12 C 0.66724(12) 0.58515(15) 0.5925(3)
O1 O 0.88428(9) 0.66845(11) 0.3982(2)
O2 O 0.85672(8) 0.82023(10) 0.4172(2)
O3 O 0.65044(8) 0.49741(10) 0.6087(2)
O4 O 0.62385(9) 0.64950(11) 0.6310(3)
C13 C 0.70985(12) 0.28540(16) 0.5270(3)
C14 C 0.76523(12) 0.20813(16) 0.4875(3)
H15 H 0.8133 0.2165 0.5604
H16 H 0.7772 0.2145 0.3682
C15 C 0.73494(12) 0.10900(16) 0.5142(3)
H17 H 0.7241 0.1020 0.6341
H18 H 0.6863 0.1009 0.4431
C16 C 0.79014(13) 0.03232(16) 0.4709(3)
O5 O 0.73726(9) 0.37014(12) 0.5060(2)
H23 H 0.7020(17) 0.419(2) 0.544(3)
O6 O 0.64637(10) 0.27081(12) 0.5766(3)
O7 O 0.84928(10) 0.04663(12) 0.4027(3)
O8 O 0.76793(10) -0.05217(12) 0.5142(3)
H24 H 0.8020(17) -0.105(2) 0.473(4)
loop_
_geom_bond_atom_site_label_1
_geom_bond_atom_site_label_2
_geom_bond_site_symmetry_1
_geom_bond_site_symmetry_2
C1 C3 1_555 1_555
C2 H1 1_555 1_555
C3 H2 1_555 1_555
C4 C1 1_555 1_555
H3 C4 1_555 1_555
H4 C4 1_555 1_555
H5 C4 1_555 1_555
C5 C6 1_555 1_555
C6 H6 1_555 1_555
C7 H7 1_555 1_555
C8 C5 1_555 1_555
H8 C8 1_555 1_555
H9 C8 1_555 1_555
H10 C8 1_555 1_555
C9 C10 1_555 1_555
C10 H11 1_555 1_555
H12 C10 1_555 1_555
C11 C10 1_555 1_555
H13 C11 1_555 1_555
H14 C11 1_555 1_555
C12 C11 1_555 1_555
C13 C14 1_555 1_555
C14 H15 1_555 1_555
H16 C14 1_555 1_555
C15 C14 1_555 1_555
H17 C15 1_555 1_555
H18 C15 1_555 1_555
C16 C15 1_555 1_555
N1 C2 1_555 1_555
H19 N1 1_555 1_555
N2 C1 1_555 1_555
H20 N2 1_555 1_555
N3 C6 1_555 1_555
H21 N3 1_555 1_555
N4 C5 1_555 1_555
H22 N4 1_555 1_555
O1 C9 1_555 1_555
O2 C9 1_555 1_555
O3 C12 1_555 1_555
O4 C12 1_555 1_555
O5 C13 1_555 1_555
H23 O5 1_555 1_555
O6 C13 1_555 1_555
O7 C16 1_555 1_555
O8 C16 1_555 1_555
H24 O8 1_555 1_555
C2 N2 1_555 1_555
C3 N1 1_555 1_555
C7 N3 1_555 1_555
C7 N4 1_555 1_555

#END
