
#######################################################################
#
#                 Cambridge Crystallographic Data Centre
#                                CCDC 
#
#######################################################################
#
# If this CIF has been generated from an entry in the Cambridge 
# Structural Database, then it will include bibliographic, chemical, 
# crystal, experimental, refinement or atomic coordinate data resulting 
# from the CCDC's data processing and validation procedures.
#
#######################################################################

data_HOLPII
_chemical_formula_moiety         'C12 H18 N2 O1'
_chemical_name_systematic        
Cyclohexanespiro-2'-(2',3',6',7'-tetrahydro-1'H-cyclopenta(d)pyrimidin)-4'(5'H)-one
_symmetry_cell_setting           monoclinic
_symmetry_space_group_name_H-M   'P 21/n'
_symmetry_Int_Tables_number      14
_space_group_name_Hall           '-P 2yn'
loop_
_symmetry_equiv_pos_site_id
_symmetry_equiv_pos_as_xyz
1 x,y,z
2 1/2-x,1/2+y,1/2-z
3 -x,-y,-z
4 1/2+x,1/2-y,1/2+z
_cell_length_a                   10.294(2)
_cell_length_b                   10.461(2)
_cell_length_c                   10.659(2)
_cell_angle_alpha                90
_cell_angle_beta                 112.70(3)
_cell_angle_gamma                90
_cell_volume                     1058.91
_exptl_crystal_colour            colorless
_exptl_crystal_description       plate
_chemical_melting_point          '513-514 K'
_cell_formula_units_Z            4
_exptl_crystal_recrystallization_method 'ethyl acetate'
loop_
_atom_site_label
_atom_site_type_symbol
_atom_site_fract_x
_atom_site_fract_y
_atom_site_fract_z
O1 O -0.14346(9) 0.42583(8) 0.02403(9)
N1 N 0.08172(11) 0.34945(10) 0.09960(11)
N2 N 0.16234(11) 0.18929(10) 0.26816(11)
C1 C -0.05332(13) 0.34458(11) 0.09213(13)
C2 C -0.08039(13) 0.24658(11) 0.17362(13)
C3 C -0.21300(13) 0.22403(12) 0.19860(14)
H1 H -0.2919 0.2044 0.1147
H2 H -0.2364 0.2976 0.2412
C4 C -0.17249(14) 0.10798(13) 0.29541(15)
H3 H -0.2158 0.1143 0.3614
H4 H -0.2031 0.0291 0.2447
C5 C -0.01109(13) 0.11111(13) 0.36688(14)
H5 H 0.0185 0.1558 0.4531
H6 H 0.0282 0.0255 0.3820
C6 C 0.03058(13) 0.18298(11) 0.26602(13)
C7 C 0.17877(12) 0.24061(11) 0.14698(13)
C8 C 0.14163(13) 0.13822(12) 0.03476(14)
H7 H 0.0486 0.1045 0.0181
H8 H 0.1386 0.1776 -0.0487
C9 C 0.24726(14) 0.02825(12) 0.07214(14)
H9 H 0.2210 -0.0323 -0.0025
H10 H 0.2451 -0.0159 0.1513
C10 C 0.39614(13) 0.07713(13) 0.10258(15)
H11 H 0.4621 0.0064 0.1303
H12 H 0.4007 0.1147 0.0212
C11 C 0.43647(13) 0.17692(13) 0.21547(14)
H13 H 0.5287 0.2112 0.2298
H14 H 0.4422 0.1364 0.2993
C12 C 0.32970(12) 0.28661(12) 0.18128(14)
H15 H 0.3561 0.3445 0.2582
H16 H 0.3333 0.3340 0.1045
H17 H 0.1032(15) 0.4130(12) 0.0541(14)
H18 H 0.2347(13) 0.1526(15) 0.3359(14)
loop_
_geom_bond_atom_site_label_1
_geom_bond_atom_site_label_2
_geom_bond_site_symmetry_1
_geom_bond_site_symmetry_2
O1 C1 1_555 1_555
N1 C1 1_555 1_555
N2 C6 1_555 1_555
C1 C2 1_555 1_555
C2 C3 1_555 1_555
C3 H1 1_555 1_555
H2 C3 1_555 1_555
C4 C3 1_555 1_555
H3 C4 1_555 1_555
H4 C4 1_555 1_555
C5 C4 1_555 1_555
H5 C5 1_555 1_555
H6 C5 1_555 1_555
C6 C2 1_555 1_555
C7 N1 1_555 1_555
C8 C7 1_555 1_555
H7 C8 1_555 1_555
H8 C8 1_555 1_555
C9 C8 1_555 1_555
H9 C9 1_555 1_555
H10 C9 1_555 1_555
C10 C9 1_555 1_555
H11 C10 1_555 1_555
H12 C10 1_555 1_555
C11 C10 1_555 1_555
H13 C11 1_555 1_555
H14 C11 1_555 1_555
C12 C7 1_555 1_555
H15 C12 1_555 1_555
H16 C12 1_555 1_555
H17 N1 1_555 1_555
H18 N2 1_555 1_555
N2 C7 1_555 1_555
C5 C6 1_555 1_555
C11 C12 1_555 1_555

#END
