
#######################################################################
#
#                 Cambridge Crystallographic Data Centre
#                                CCDC 
#
#######################################################################
#
# If this CIF has been generated from an entry in the Cambridge 
# Structural Database, then it will include bibliographic, chemical, 
# crystal, experimental, refinement or atomic coordinate data resulting 
# from the CCDC's data processing and validation procedures.
#
#######################################################################

data_HOLQEF
_chemical_formula_moiety         'C21 H26 N4 2+,Cl1 1-,N1 O3 1-,H2 O1'
_chemical_name_systematic        
"2,2'-(Heptane-1,7-diyl)dibenzimidazolium chloride nitrate monohydrate"
_symmetry_cell_setting           orthorhombic
_symmetry_space_group_name_H-M   'P c a 21'
_symmetry_Int_Tables_number      29
_space_group_name_Hall           'P 2c -2ac'
loop_
_symmetry_equiv_pos_site_id
_symmetry_equiv_pos_as_xyz
1 x,y,z
2 -x,-y,1/2+z
3 1/2-x,y,1/2+z
4 1/2+x,-y,z
_cell_length_a                   24.462(10)
_cell_length_b                   5.102(2)
_cell_length_c                   18.210(7)
_cell_angle_alpha                90
_cell_angle_beta                 90
_cell_angle_gamma                90
_cell_volume                     2272.7
_exptl_crystal_colour            colorless
_exptl_crystal_description       prism
_cell_formula_units_Z            4
loop_
_atom_site_label
_atom_site_type_symbol
_atom_site_fract_x
_atom_site_fract_y
_atom_site_fract_z
C1 C 0.31252(16) 0.2574(8) 0.5321(2)
H1 H 0.3358 0.1258 0.5156
C2 C 0.28978(16) 0.4345(8) 0.4846(2)
H2 H 0.2975 0.4226 0.4347
C3 C 0.25529(18) 0.6318(8) 0.5097(3)
H3 H 0.2410 0.7496 0.4758
C4 C 0.24142(16) 0.6603(7) 0.5822(3)
H4 H 0.2180 0.7923 0.5981
C5 C 0.26436(14) 0.4805(7) 0.6308(2)
C6 C 0.29941(15) 0.2824(7) 0.60581(19)
C7 C 0.29322(16) 0.2498(7) 0.7275(2)
C8 C 0.30248(17) 0.1623(8) 0.8034(2)
H5 H 0.3179 -0.0129 0.8023
H6 H 0.2675 0.1516 0.8282
C9 C 0.34010(15) 0.3376(7) 0.8482(2)
H7 H 0.3235 0.5092 0.8537
H8 H 0.3745 0.3594 0.8224
C10 C 0.35076(16) 0.2195(7) 0.9238(2)
H9 H 0.3159 0.1796 0.9466
H10 H 0.3703 0.0555 0.9176
C11 C 0.38324(16) 0.3936(8) 0.9753(2)
H11 H 0.3640 0.5584 0.9818
H12 H 0.4185 0.4316 0.9534
C12 C 0.39191(15) 0.2656(7) 1.0503(2)
H13 H 0.3571 0.1985 1.0675
H14 H 0.4163 0.1173 1.0442
C13 C 0.41530(16) 0.4448(8) 1.1086(2)
H15 H 0.3891 0.5820 1.1197
H16 H 0.4483 0.5271 1.0901
C14 C 0.42850(16) 0.2939(7) 1.1783(2)
H17 H 0.3978 0.1810 1.1899
H18 H 0.4598 0.1819 1.1688
C15 C 0.44061(15) 0.4573(7) 1.2432(2)
C16 C 0.47804(15) 0.7535(7) 1.3163(2)
C17 C 0.44065(15) 0.6095(8) 1.3572(2)
C18 C 0.43226(17) 0.6605(9) 1.4312(2)
H19 H 0.4077 0.5627 1.4589
C19 C 0.46186(18) 0.8618(10) 1.4617(3)
H20 H 0.4571 0.9006 1.5112
C20 C 0.4989(2) 1.0102(10) 1.4205(3)
H21 H 0.5176 1.1473 1.4428
C21 C 0.50813(17) 0.9566(8) 1.3469(2)
H22 H 0.5333 1.0519 1.3194
N1 N 0.31566(11) 0.1448(6) 0.66844(17)
H23 H 0.3371 0.0113 0.6685
N2 N 0.26120(12) 0.4500(6) 0.70671(16)
H24 H 0.2418 0.5447 0.7357
N3 N 0.41815(12) 0.4278(6) 1.30898(16)
H25 H 0.3935 0.3142 1.3201
N4 N 0.47645(12) 0.6521(6) 1.24534(17)
H26 H 0.4956 0.7069 1.2088
N5 N 0.32105(13) 0.8845(7) 1.2993(2)
O1 O 0.32896(15) 0.9063(7) 1.23308(19)
O2 O 0.34026(11) 1.0441(6) 1.34445(16)
O4 O 0.29200(12) 0.6979(5) 1.32219(16)
O3 O 0.46016(12) 0.2164(7) 0.62756(17)
H27 H 0.4422(19) 0.087(7) 0.654(3)
H28 H 0.4403(18) 0.347(6) 0.633(3)
Cl1 Cl 0.40293(4) -0.28231(18) 0.68522(7)
loop_
_geom_bond_atom_site_label_1
_geom_bond_atom_site_label_2
_geom_bond_site_symmetry_1
_geom_bond_site_symmetry_2
C1 H1 1_555 1_555
C2 C1 1_555 1_555
H2 C2 1_555 1_555
C3 C2 1_555 1_555
H3 C3 1_555 1_555
C4 C3 1_555 1_555
H4 C4 1_555 1_555
C5 C4 1_555 1_555
C6 C1 1_555 1_555
C7 C8 1_555 1_555
C8 H5 1_555 1_555
H6 C8 1_555 1_555
C9 C8 1_555 1_555
H7 C9 1_555 1_555
H8 C9 1_555 1_555
C10 C9 1_555 1_555
H9 C10 1_555 1_555
H10 C10 1_555 1_555
C11 C10 1_555 1_555
H11 C11 1_555 1_555
H12 C11 1_555 1_555
C12 C11 1_555 1_555
H13 C12 1_555 1_555
H14 C12 1_555 1_555
C13 C12 1_555 1_555
H15 C13 1_555 1_555
H16 C13 1_555 1_555
C14 C13 1_555 1_555
H17 C14 1_555 1_555
H18 C14 1_555 1_555
C15 C14 1_555 1_555
C16 C17 1_555 1_555
C17 C18 1_555 1_555
C18 H19 1_555 1_555
C19 C18 1_555 1_555
H20 C19 1_555 1_555
C20 C19 1_555 1_555
H21 C20 1_555 1_555
C21 C16 1_555 1_555
H22 C21 1_555 1_555
N1 C6 1_555 1_555
H23 N1 1_555 1_555
N2 C5 1_555 1_555
H24 N2 1_555 1_555
N3 C15 1_555 1_555
H25 N3 1_555 1_555
N4 C15 1_555 1_555
H26 N4 1_555 1_555
N5 O1 1_555 1_555
O2 N5 1_555 1_555
O3 H27 1_555 1_555
O4 N5 1_555 1_555
H28 O3 1_555 1_555
C5 C6 1_555 1_555
C7 N1 1_555 1_555
C7 N2 1_555 1_555
C16 N4 1_555 1_555
C17 N3 1_555 1_555
C20 C21 1_555 1_555

#END
