
#######################################################################
#
#                 Cambridge Crystallographic Data Centre
#                                CCDC 
#
#######################################################################
#
# If this CIF has been generated from an entry in the Cambridge 
# Structural Database, then it will include bibliographic, chemical, 
# crystal, experimental, refinement or atomic coordinate data resulting 
# from the CCDC's data processing and validation procedures.
#
#######################################################################

data_HOLVIO01
_chemical_formula_moiety         'C15 H15 N1 O4 S1'
_chemical_name_systematic        
4-((4-Methylphenyl)sulfonyl)-1-oxa-4-azaspiro[4.5]deca-6,9-dien-8-one
_symmetry_cell_setting           monoclinic
_symmetry_space_group_name_H-M   'P 21/a'
_symmetry_Int_Tables_number      14
_space_group_name_Hall           '-P 2yab'
loop_
_symmetry_equiv_pos_site_id
_symmetry_equiv_pos_as_xyz
1 x,y,z
2 1/2-x,1/2+y,-z
3 -x,-y,-z
4 1/2+x,1/2-y,z
_cell_length_a                   8.369(3)
_cell_length_b                   14.973(6)
_cell_length_c                   11.882(5)
_cell_angle_alpha                90
_cell_angle_beta                 107.00(3)
_cell_angle_gamma                90
_cell_volume                     1423.86
_cell_formula_units_Z            4
loop_
_atom_site_label
_atom_site_type_symbol
_atom_site_fract_x
_atom_site_fract_y
_atom_site_fract_z
S1 S 0.06825(9) 0.41197(5) 0.78106(6)
O1 O -0.3865(3) 0.42004(15) 0.59260(19)
O2 O -0.1274(4) 0.2384(2) 0.3361(2)
O3 O 0.1369(3) 0.48790(13) 0.85193(17)
O4 O 0.1501(3) 0.37627(14) 0.70122(17)
N1 N -0.1165(3) 0.44318(15) 0.70197(18)
C1 C -0.2214(4) 0.39642(18) 0.5935(2)
C2 C -0.2140(4) 0.29726(19) 0.5995(3)
H1 H -0.2304 0.2691 0.6651
C3 C -0.1852(4) 0.2477(2) 0.5164(3)
H2 H -0.1869 0.1859 0.5238
C4 C -0.1509(5) 0.2857(3) 0.4132(3)
C5 C -0.1519(4) 0.3832(2) 0.4058(3)
H3 H -0.1301 0.4103 0.3414
C6 C -0.1826(4) 0.4337(2) 0.4876(3)
H4 H -0.1802 0.4954 0.4793
C7 C -0.3850(4) 0.4965(2) 0.6620(3)
H5 H -0.4782 0.4953 0.6950
H6 H -0.3927 0.5503 0.6152
C8 C -0.2247(4) 0.4938(2) 0.7565(3)
H7 H -0.1815 0.5535 0.7782
H8 H -0.2365 0.4636 0.8258
C9 C 0.0454(3) 0.32695(18) 0.8778(2)
C10 C 0.0559(4) 0.2379(2) 0.8497(3)
H9 H 0.0765 0.2220 0.7795
C11 C 0.0357(4) 0.1733(2) 0.9264(3)
H10 H 0.0431 0.1136 0.9072
C12 C 0.0048(4) 0.1945(2) 1.0312(3)
C13 C -0.0070(4) 0.2832(2) 1.0567(3)
H11 H -0.0288 0.2988 1.1266
C14 C 0.0124(4) 0.3497(2) 0.9821(2)
H12 H 0.0035 0.4093 1.0012
C15 C -0.0158(5) 0.1215(2) 1.1133(3)
H13 H -0.1023 0.0813 1.0717
H14 H -0.0455 0.1474 1.1783
H15 H 0.0874 0.0894 1.1421
loop_
_geom_bond_atom_site_label_1
_geom_bond_atom_site_label_2
_geom_bond_site_symmetry_1
_geom_bond_site_symmetry_2
S1 O3 1_555 1_555
O1 C1 1_555 1_555
O2 C4 1_555 1_555
O4 S1 1_555 1_555
N1 S1 1_555 1_555
C1 N1 1_555 1_555
C2 C1 1_555 1_555
H1 C2 1_555 1_555
C3 C2 1_555 1_555
H2 C3 1_555 1_555
C4 C3 1_555 1_555
C5 C4 1_555 1_555
H3 C5 1_555 1_555
C6 C1 1_555 1_555
H4 C6 1_555 1_555
C7 O1 1_555 1_555
H5 C7 1_555 1_555
H6 C7 1_555 1_555
C8 N1 1_555 1_555
H7 C8 1_555 1_555
H8 C8 1_555 1_555
C9 S1 1_555 1_555
C10 C9 1_555 1_555
H9 C10 1_555 1_555
C11 C10 1_555 1_555
H10 C11 1_555 1_555
C12 C11 1_555 1_555
C13 C12 1_555 1_555
H11 C13 1_555 1_555
C14 C9 1_555 1_555
H12 C14 1_555 1_555
C15 C12 1_555 1_555
H13 C15 1_555 1_555
H14 C15 1_555 1_555
H15 C15 1_555 1_555
C5 C6 1_555 1_555
C7 C8 1_555 1_555
C13 C14 1_555 1_555

#END
