
#######################################################################
#
#                 Cambridge Crystallographic Data Centre
#                                CCDC 
#
#######################################################################
#
# If this CIF has been generated from an entry in the Cambridge 
# Structural Database, then it will include bibliographic, chemical, 
# crystal, experimental, refinement or atomic coordinate data resulting 
# from the CCDC's data processing and validation procedures.
#
#######################################################################

data_HOMBUI
_chemical_formula_moiety         'C30 H21 N2 P1'
_chemical_name_systematic        9,9'-(Phenylphosphinediyl)bis(9H-carbazole)
_symmetry_cell_setting           triclinic
_symmetry_space_group_name_H-M   'P -1'
_symmetry_Int_Tables_number      2
_space_group_name_Hall           '-P 1'
loop_
_symmetry_equiv_pos_site_id
_symmetry_equiv_pos_as_xyz
1 x,y,z
2 -x,-y,-z
_cell_length_a                   9.659(12)
_cell_length_b                   10.339(12)
_cell_length_c                   12.812(15)
_cell_angle_alpha                68.633(13)
_cell_angle_beta                 85.291(14)
_cell_angle_gamma                72.208(14)
_cell_volume                     1133.92
_exptl_crystal_colour            colorless
_exptl_crystal_description       cube
_cell_formula_units_Z            2
loop_
_atom_site_label
_atom_site_type_symbol
_atom_site_fract_x
_atom_site_fract_y
_atom_site_fract_z
C1 C 0.3419(2) -0.1401(2) 0.24788(18)
C2 C 0.4438(3) -0.0686(3) 0.2465(2)
H1 H 0.4236 0.0310 0.2081
C3 C 0.5755(3) -0.1495(3) 0.3038(2)
H2 H 0.6438 -0.1029 0.3044
C4 C 0.6082(3) -0.2990(3) 0.3606(2)
H3 H 0.6974 -0.3511 0.3988
C5 C 0.5085(3) -0.3699(3) 0.3601(2)
H4 H 0.5304 -0.4699 0.3973
C6 C 0.3749(3) -0.2909(2) 0.30355(19)
C7 C 0.2519(3) -0.3327(2) 0.28641(19)
C8 C 0.2189(3) -0.4647(3) 0.3239(2)
H5 H 0.2849 -0.5495 0.3698
C9 C 0.0892(3) -0.4671(3) 0.2923(2)
H6 H 0.0667 -0.5546 0.3179
C10 C -0.0112(3) -0.3420(3) 0.2226(2)
H7 H -0.0981 -0.3477 0.2009
C11 C 0.0176(3) -0.2093(3) 0.1854(2)
H8 H -0.0493 -0.1250 0.1398
C12 C 0.1491(2) -0.2061(2) 0.21830(19)
C13 C 0.0404(3) 0.1498(2) 0.33062(18)
C14 C 0.1789(3) 0.1275(3) 0.3674(2)
H9 H 0.2592 0.1019 0.3259
C15 C 0.1954(3) 0.1443(3) 0.4676(2)
H10 H 0.2881 0.1284 0.4943
C16 C 0.0755(4) 0.1846(3) 0.5287(2)
H11 H 0.0887 0.1963 0.5954
C17 C -0.0623(4) 0.2072(3) 0.4922(2)
H12 H -0.1422 0.2341 0.5337
C18 C -0.0812(3) 0.1895(2) 0.3921(2)
C19 C -0.2081(3) 0.2053(2) 0.3312(2)
C20 C -0.3560(3) 0.2399(3) 0.3521(3)
H13 H -0.3897 0.2568 0.4175
C21 C -0.4511(3) 0.2485(3) 0.2744(4)
H14 H -0.5504 0.2732 0.2869
C22 C -0.4020(3) 0.2211(3) 0.1778(3)
H15 H -0.4691 0.2284 0.1263
C23 C -0.2551(3) 0.1831(3) 0.1559(3)
H16 H -0.2222 0.1638 0.0913
C24 C -0.1595(2) 0.1750(2) 0.2343(2)
C25 C 0.1981(2) 0.2030(2) 0.07149(18)
C26 C 0.3040(3) 0.1724(3) -0.0041(2)
H17 H 0.3297 0.0822 -0.0120
C27 C 0.3710(3) 0.2753(3) -0.0675(2)
H18 H 0.4422 0.2534 -0.1170
C28 C 0.3332(3) 0.4093(3) -0.0577(3)
H19 H 0.3775 0.4786 -0.1012
C29 C 0.2296(3) 0.4407(3) 0.0167(3)
H20 H 0.2047 0.5312 0.0241
C30 C 0.1617(3) 0.3389(3) 0.0810(2)
H21 H 0.0914 0.3616 0.1308
N1 N 0.2029(2) -0.08458(19) 0.19492(15)
N2 N -0.00565(19) 0.1397(2) 0.23265(16)
P1 P 0.08429(6) 0.08469(6) 0.12822(5)
loop_
_geom_bond_atom_site_label_1
_geom_bond_atom_site_label_2
_geom_bond_site_symmetry_1
_geom_bond_site_symmetry_2
C1 C2 1_555 1_555
C2 H1 1_555 1_555
C3 C2 1_555 1_555
H2 C3 1_555 1_555
C4 C3 1_555 1_555
H3 C4 1_555 1_555
C5 C4 1_555 1_555
H4 C5 1_555 1_555
C6 C1 1_555 1_555
C7 C6 1_555 1_555
C8 C7 1_555 1_555
H5 C8 1_555 1_555
C9 C8 1_555 1_555
H6 C9 1_555 1_555
C10 C9 1_555 1_555
H7 C10 1_555 1_555
C11 C10 1_555 1_555
H8 C11 1_555 1_555
C12 C7 1_555 1_555
C13 C14 1_555 1_555
C14 H9 1_555 1_555
C15 C14 1_555 1_555
H10 C15 1_555 1_555
C16 C15 1_555 1_555
H11 C16 1_555 1_555
C17 C16 1_555 1_555
H12 C17 1_555 1_555
C18 C13 1_555 1_555
C19 C18 1_555 1_555
C20 C19 1_555 1_555
H13 C20 1_555 1_555
C21 C20 1_555 1_555
H14 C21 1_555 1_555
C22 C21 1_555 1_555
H15 C22 1_555 1_555
C23 C22 1_555 1_555
H16 C23 1_555 1_555
C24 C19 1_555 1_555
C25 C26 1_555 1_555
C26 H17 1_555 1_555
C27 C26 1_555 1_555
H18 C27 1_555 1_555
C28 C27 1_555 1_555
H19 C28 1_555 1_555
C29 C28 1_555 1_555
H20 C29 1_555 1_555
C30 C25 1_555 1_555
H21 C30 1_555 1_555
N1 C1 1_555 1_555
N2 C13 1_555 1_555
P1 C25 1_555 1_555
C5 C6 1_555 1_555
C11 C12 1_555 1_555
C12 N1 1_555 1_555
C17 C18 1_555 1_555
C23 C24 1_555 1_555
C24 N2 1_555 1_555
C29 C30 1_555 1_555
N1 P1 1_555 1_555
N2 P1 1_555 1_555

#END
