
#######################################################################
#
#                 Cambridge Crystallographic Data Centre
#                                CCDC 
#
#######################################################################
#
# If this CIF has been generated from an entry in the Cambridge 
# Structural Database, then it will include bibliographic, chemical, 
# crystal, experimental, refinement or atomic coordinate data resulting 
# from the CCDC's data processing and validation procedures.
#
#######################################################################

data_HOMBUI02
_chemical_formula_moiety         'C30 H21 N2 P1'
_chemical_name_systematic        9,9'-(phenylphosphanediyl)bis(9H-carbazole)
_symmetry_cell_setting           triclinic
_symmetry_space_group_name_H-M   'P -1'
_symmetry_Int_Tables_number      2
_space_group_name_Hall           '-P 1'
loop_
_symmetry_equiv_pos_site_id
_symmetry_equiv_pos_as_xyz
1 x,y,z
2 -x,-y,-z
_cell_length_a                   9.5428(13)
_cell_length_b                   10.2866(11)
_cell_length_c                   12.7340(14)
_cell_angle_alpha                68.610(8)
_cell_angle_beta                 85.612(11)
_cell_angle_gamma                72.461(9)
_cell_volume                     1109.01
_exptl_crystal_colour            colorless
_exptl_crystal_description       Prism
_cell_formula_units_Z            2
_exptl_crystal_recrystallization_method Sublimation
_exptl_crystal_preparation       ', Luminescent'
loop_
_atom_site_label
_atom_site_type_symbol
_atom_site_fract_x
_atom_site_fract_y
_atom_site_fract_z
P1 P 0.58195(3) 0.58335(3) 0.12751(2)
N1 N 0.70269(10) 0.41297(10) 0.19464(8)
N2 N 0.49204(10) 0.63889(10) 0.23261(7)
C1 C 0.69747(12) 0.70275(12) 0.07013(9)
C2 C 0.65919(13) 0.84016(12) 0.07957(10)
H1 H 0.5869 0.8625 0.1310
C3 C 0.72652(14) 0.94480(13) 0.01395(11)
H2 H 0.7006 1.0376 0.0214
C4 C 0.83096(14) 0.91376(14) -0.06203(10)
H3 H 0.8753 0.9858 -0.1077
C5 C 0.87071(13) 0.77694(14) -0.07122(10)
H4 H 0.9440 0.7548 -0.1221
C6 C 0.80402(12) 0.67233(13) -0.00648(9)
H5 H 0.8308 0.5796 -0.0142
C7 C 0.84398(12) 0.35875(12) 0.24810(8)
C8 C 0.94696(12) 0.43158(12) 0.24574(9)
H6 H 0.9257 0.5338 0.2060
C9 C 1.08125(13) 0.35038(13) 0.30304(10)
H7 H 1.1520 0.3985 0.3031
C10 C 1.11491(13) 0.19986(14) 0.36052(10)
H8 H 1.2077 0.1470 0.3991
C11 C 1.01365(13) 0.12708(13) 0.36154(9)
H9 H 1.0367 0.0244 0.4001
C12 C 0.87732(12) 0.20654(12) 0.30522(9)
C13 C 0.75234(12) 0.16361(12) 0.28807(9)
C14 C 0.71986(13) 0.03042(13) 0.32713(10)
H10 H 0.7882 -0.0558 0.3751
C15 C 0.58695(14) 0.02618(13) 0.29493(10)
H11 H 0.5635 -0.0636 0.3213
C16 C 0.48650(14) 0.15268(13) 0.22399(10)
H12 H 0.3967 0.1469 0.2014
C17 C 0.51499(13) 0.28691(13) 0.18565(9)
H13 H 0.4457 0.3729 0.1383
C18 C 0.64902(12) 0.29066(11) 0.21924(9)
C19 C 0.33663(12) 0.67467(11) 0.23416(9)
C20 C 0.23865(13) 0.68499(12) 0.15391(10)
H14 H 0.2722 0.6657 0.0874
C21 C 0.08970(13) 0.72468(13) 0.17510(12)
H15 H 0.0201 0.7344 0.1211
C22 C 0.03972(13) 0.75054(14) 0.27354(13)
H16 H -0.0627 0.7754 0.2863
C23 C 0.13753(13) 0.74048(13) 0.35279(12)
H17 H 0.1034 0.7576 0.4200
C24 C 0.28780(12) 0.70456(12) 0.33205(10)
C25 C 0.41652(12) 0.68860(12) 0.39363(9)
C26 C 0.43612(14) 0.70577(13) 0.49474(10)
H18 H 0.3539 0.7329 0.5374
C27 C 0.57695(15) 0.68264(14) 0.53188(10)
H19 H 0.5915 0.6946 0.6004
C28 C 0.69807(13) 0.64190(13) 0.46964(9)
H20 H 0.7941 0.6258 0.4969
C29 C 0.68110(12) 0.62448(12) 0.36863(9)
H21 H 0.7638 0.5971 0.3264
C30 C 0.53952(12) 0.64835(11) 0.33140(9)
loop_
_geom_bond_atom_site_label_1
_geom_bond_atom_site_label_2
_geom_bond_site_symmetry_1
_geom_bond_site_symmetry_2
P1 N1 1_555 1_555
N1 C7 1_555 1_555
N2 P1 1_555 1_555
C1 P1 1_555 1_555
C2 C1 1_555 1_555
H1 C2 1_555 1_555
C3 C2 1_555 1_555
H2 C3 1_555 1_555
C4 C3 1_555 1_555
H3 C4 1_555 1_555
C5 C4 1_555 1_555
H4 C5 1_555 1_555
C6 C1 1_555 1_555
H5 C6 1_555 1_555
C7 C8 1_555 1_555
C8 H6 1_555 1_555
C9 C8 1_555 1_555
H7 C9 1_555 1_555
C10 C9 1_555 1_555
H8 C10 1_555 1_555
C11 C10 1_555 1_555
H9 C11 1_555 1_555
C12 C7 1_555 1_555
C13 C12 1_555 1_555
C14 C13 1_555 1_555
H10 C14 1_555 1_555
C15 C14 1_555 1_555
H11 C15 1_555 1_555
C16 C15 1_555 1_555
H12 C16 1_555 1_555
C17 C16 1_555 1_555
H13 C17 1_555 1_555
C18 N1 1_555 1_555
C19 N2 1_555 1_555
C20 C19 1_555 1_555
H14 C20 1_555 1_555
C21 C20 1_555 1_555
H15 C21 1_555 1_555
C22 C21 1_555 1_555
H16 C22 1_555 1_555
C23 C22 1_555 1_555
H17 C23 1_555 1_555
C24 C19 1_555 1_555
C25 C24 1_555 1_555
C26 C25 1_555 1_555
H18 C26 1_555 1_555
C27 C26 1_555 1_555
H19 C27 1_555 1_555
C28 C27 1_555 1_555
H20 C28 1_555 1_555
C29 C28 1_555 1_555
H21 C29 1_555 1_555
C30 N2 1_555 1_555
C5 C6 1_555 1_555
C11 C12 1_555 1_555
C13 C18 1_555 1_555
C17 C18 1_555 1_555
C23 C24 1_555 1_555
C25 C30 1_555 1_555
C29 C30 1_555 1_555

#END
