
#######################################################################
#
#                 Cambridge Crystallographic Data Centre
#                                CCDC 
#
#######################################################################
#
# If this CIF has been generated from an entry in the Cambridge 
# Structural Database, then it will include bibliographic, chemical, 
# crystal, experimental, refinement or atomic coordinate data resulting 
# from the CCDC's data processing and validation procedures.
#
#######################################################################

data_HOMCOD
_chemical_formula_moiety         'C16 H10 N4 O4'
_chemical_name_systematic        
1,1'-Dihydroxy-5,5'-biphthalazine-4,4'(3H,3'H)-dione
_symmetry_cell_setting           monoclinic
_symmetry_space_group_name_H-M   'C 2/c'
_symmetry_Int_Tables_number      15
_space_group_name_Hall           '-C 2yn'
loop_
_symmetry_equiv_pos_site_id
_symmetry_equiv_pos_as_xyz
1 x,y,z
2 -x,y,1/2-z
3 1/2+x,1/2+y,z
4 1/2-x,1/2+y,1/2-z
5 -x,-y,-z
6 x,-y,1/2+z
7 1/2-x,1/2-y,-z
8 1/2+x,1/2-y,1/2+z
_cell_length_a                   11.911(2)
_cell_length_b                   5.6352(11)
_cell_length_c                   19.818(4)
_cell_angle_alpha                90
_cell_angle_beta                 99.51(3)
_cell_angle_gamma                90
_cell_volume                     1311.92
_cell_formula_units_Z            4
loop_
_atom_site_label
_atom_site_type_symbol
_atom_site_fract_x
_atom_site_fract_y
_atom_site_fract_z
O1 O 0.33000(12) 0.9897(2) -0.00617(6)
H1 H 0.2895 1.0987 -0.0234
O2 O 0.33519(10) 0.99785(17) 0.26510(5)
N1 N 0.27943(12) 1.1536(2) 0.08901(6)
N2 N 0.28572(11) 1.1504(2) 0.15962(6)
H2 H 0.2489 1.2593 0.1771
C1 C 0.45263(15) 0.6296(3) 0.06869(7)
H3 H 0.4427 0.6223 0.0212
C2 C 0.51880(15) 0.4634(3) 0.10766(8)
H4 H 0.5512 0.3397 0.0865
C3 C 0.53744(13) 0.4799(3) 0.17863(7)
H5 H 0.5842 0.3693 0.2044
C4 C 0.48756(12) 0.6585(2) 0.21180(6)
C5 C 0.41321(12) 0.8197(2) 0.17245(6)
C6 C 0.40049(13) 0.8090(3) 0.10082(7)
C7 C 0.33281(13) 0.9897(3) 0.05933(7)
C8 C 0.34411(12) 0.9925(2) 0.20363(7)
O1A O 0.67000(12) 0.9897(2) 0.50617(6)
H1A H 0.7105 1.0987 0.5234
O2A O 0.66481(10) 0.99785(17) 0.23490(5)
N1A N 0.72057(12) 1.1536(2) 0.41099(6)
N2A N 0.71428(11) 1.1504(2) 0.34038(6)
H2A H 0.7511 1.2593 0.3229
C1A C 0.54737(15) 0.6296(3) 0.43131(7)
H3A H 0.5573 0.6223 0.4788
C2A C 0.48120(15) 0.4634(3) 0.39234(8)
H4A H 0.4488 0.3397 0.4135
C3A C 0.46256(13) 0.4799(3) 0.32137(7)
H5A H 0.4158 0.3693 0.2956
C4A C 0.51244(12) 0.6585(2) 0.28820(6)
C5A C 0.58679(12) 0.8197(2) 0.32755(6)
C6A C 0.59951(13) 0.8090(3) 0.39918(7)
C7A C 0.66719(13) 0.9897(3) 0.44067(7)
C8A C 0.65589(12) 0.9925(2) 0.29637(7)
loop_
_geom_bond_atom_site_label_1
_geom_bond_atom_site_label_2
_geom_bond_site_symmetry_1
_geom_bond_site_symmetry_2
O1 H1 1_555 1_555
O2 C8 1_555 1_555
N1 N2 1_555 1_555
N2 H2 1_555 1_555
C1 H3 1_555 1_555
C2 C1 1_555 1_555
H4 C2 1_555 1_555
C3 C2 1_555 1_555
H5 C3 1_555 1_555
C4 C3 1_555 1_555
C5 C4 1_555 1_555
C6 C1 1_555 1_555
C7 O1 1_555 1_555
C8 N2 1_555 1_555
O1A H1A 1_555 1_555
O2A C8A 1_555 1_555
N1A N2A 1_555 1_555
N2A H2A 1_555 1_555
C1A H3A 1_555 1_555
C2A C1A 1_555 1_555
H4A C2A 1_555 1_555
C3A C2A 1_555 1_555
H5A C3A 1_555 1_555
C4A C4 1_555 1_555
C5A C4A 1_555 1_555
C6A C1A 1_555 1_555
C7A O1A 1_555 1_555
C8A N2A 1_555 1_555
N1 C7 1_555 1_555
C5 C6 1_555 1_555
C5 C8 1_555 1_555
C6 C7 1_555 1_555
N1A C7A 1_555 1_555
C3A C4A 1_555 1_555
C5A C6A 1_555 1_555
C5A C8A 1_555 1_555
C6A C7A 1_555 1_555

#END
