
#######################################################################
#
#                 Cambridge Crystallographic Data Centre
#                                CCDC 
#
#######################################################################
#
# If this CIF has been generated from an entry in the Cambridge 
# Structural Database, then it will include bibliographic, chemical, 
# crystal, experimental, refinement or atomic coordinate data resulting 
# from the CCDC's data processing and validation procedures.
#
#######################################################################

data_HOMGAT
_chemical_formula_moiety         'C21 H21 Br1 N2 O4'
_chemical_name_systematic        
't-Butyl 2-(5-bromo-1H-indol-3-yl)-3-nitro-2-phenylpropanoate'
_symmetry_cell_setting           monoclinic
_symmetry_space_group_name_H-M   'P 21'
_symmetry_Int_Tables_number      4
_space_group_name_Hall           'P 2yb'
loop_
_symmetry_equiv_pos_site_id
_symmetry_equiv_pos_as_xyz
1 x,y,z
2 -x,1/2+y,-z
_cell_length_a                   10.0332(4)
_cell_length_b                   8.4710(4)
_cell_length_c                   12.9591(6)
_cell_angle_alpha                90
_cell_angle_beta                 107.322(4)
_cell_angle_gamma                90
_cell_volume                     1051.46
_cell_formula_units_Z            2
loop_
_atom_site_label
_atom_site_type_symbol
_atom_site_fract_x
_atom_site_fract_y
_atom_site_fract_z
Br1 Br 0.88023(4) 0.89045(6) 0.17084(4)
N1 N 1.5630(4) 0.8871(6) 0.3523(2)
C1 C 1.0329(4) 0.9007(7) 0.1117(3)
O1 O 1.6737(4) 0.9070(6) 0.3338(3)
C2 C 1.2499(4) 0.9013(7) 0.0269(3)
O2 O 1.6687(3) 1.2638(4) 0.3696(2)
C3 C 1.6070(4) 1.2171(5) 0.2694(3)
C4 C 1.3270(5) 1.3834(8) 0.1796(3)
H1 H 1.3541 1.3631 0.1182
C5 C 1.4638(4) 1.1397(5) 0.2614(3)
O3 O 1.5188(6) 0.7614(5) 0.3722(4)
C6 C 1.4766(4) 1.0301(5) 0.3574(3)
H2 H 1.5193 1.0870 0.4240
H3 H 1.3842 0.9970 0.3577
C7 C 1.2638(4) 0.9837(5) 0.1240(3)
C8 C 1.0201(5) 0.8187(6) 0.0155(4)
H4 H 0.9384 0.7643 -0.0187
O4 O 1.6501(3) 1.2396(4) 0.1937(2)
C9 C 1.4644(5) 1.0021(6) 0.0815(3)
H5 H 1.5554 1.0260 0.0830
N2 N 1.3734(4) 0.9149(6) 0.0035(3)
H6 H 1.3910 0.8745 -0.0519
C10 C 1.4032(4) 1.0495(5) 0.1569(3)
C11 C 1.3289(5) 1.3183(6) 0.3579(4)
H7 H 1.3573 1.2541 0.4187
C12 C 1.1287(5) 0.8194(6) -0.0280(3)
H8 H 1.1221 0.7667 -0.0923
C13 C 1.3691(4) 1.2819(5) 0.2675(3)
C14 C 1.1497(4) 0.9848(5) 0.1659(3)
H9 H 1.1532 1.0407 0.2284
C15 C 1.2456(6) 1.5135(7) 0.1819(5)
H10 H 1.2184 1.5804 0.1224
C16 C 1.2048(6) 1.5445(7) 0.2715(5)
H11 H 1.1482 1.6311 0.2724
C17 C 1.8028(4) 1.3493(5) 0.4001(3)
C18 C 1.8205(7) 1.3895(12) 0.5166(4)
H12 H 1.8236 1.2940 0.5572
H13 H 1.7432 1.4530 0.5213
H14 H 1.9058 1.4472 0.5457
C19 C 1.2470(6) 1.4494(7) 0.3587(5)
H15 H 1.2206 1.4722 0.4201
C20 C 1.7973(7) 1.4949(6) 0.3324(6)
H16 H 1.7844 1.4649 0.2586
H17 H 1.8831 1.5525 0.3590
H18 H 1.7208 1.5603 0.3364
C21 C 1.9129(6) 1.2368(9) 0.3903(7)
H19 H 1.9132 1.1456 0.4343
H20 H 2.0025 1.2874 0.4139
H21 H 1.8940 1.2049 0.3162
loop_
_geom_bond_atom_site_label_1
_geom_bond_atom_site_label_2
_geom_bond_site_symmetry_1
_geom_bond_site_symmetry_2
Br1 C1 1_555 1_555
N1 O1 1_555 1_555
C1 C8 1_555 1_555
C2 C7 1_555 1_555
O2 C3 1_555 1_555
C3 C5 1_555 1_555
C4 H1 1_555 1_555
C5 C6 1_555 1_555
O3 N1 1_555 1_555
C6 N1 1_555 1_555
H2 C6 1_555 1_555
H3 C6 1_555 1_555
C7 C10 1_555 1_555
C8 H4 1_555 1_555
O4 C3 1_555 1_555
C9 H5 1_555 1_555
N2 C2 1_555 1_555
H6 N2 1_555 1_555
C10 C5 1_555 1_555
C11 H7 1_555 1_555
C12 C2 1_555 1_555
H8 C12 1_555 1_555
C13 C4 1_555 1_555
C14 C1 1_555 1_555
H9 C14 1_555 1_555
C15 C4 1_555 1_555
H10 C15 1_555 1_555
C16 C15 1_555 1_555
H11 C16 1_555 1_555
C17 O2 1_555 1_555
C18 C17 1_555 1_555
H12 C18 1_555 1_555
H13 C18 1_555 1_555
H14 C18 1_555 1_555
C19 C11 1_555 1_555
H15 C19 1_555 1_555
C20 C17 1_555 1_555
H16 C20 1_555 1_555
H17 C20 1_555 1_555
H18 C20 1_555 1_555
C21 C17 1_555 1_555
H19 C21 1_555 1_555
H20 C21 1_555 1_555
H21 C21 1_555 1_555
C5 C13 1_555 1_555
C7 C14 1_555 1_555
C8 C12 1_555 1_555
C9 N2 1_555 1_555
C9 C10 1_555 1_555
C11 C13 1_555 1_555
C16 C19 1_555 1_555

#END
