
#######################################################################
#
#                 Cambridge Crystallographic Data Centre
#                                CCDC 
#
#######################################################################
#
# If this CIF has been generated from an entry in the Cambridge 
# Structural Database, then it will include bibliographic, chemical, 
# crystal, experimental, refinement or atomic coordinate data resulting 
# from the CCDC's data processing and validation procedures.
#
#######################################################################

data_HOMJOK
_chemical_formula_moiety         'C22 H23 Cl1 F1 N1 O2'
_chemical_name_systematic        
(R)-4-t-Butyl-N-((6-chloro-3-fluoro-4-methylene-3,4-dihydro-2H-chromen-3-yl)methyl)benzamide
_symmetry_cell_setting           monoclinic
_symmetry_space_group_name_H-M   'P 21'
_symmetry_Int_Tables_number      4
_space_group_name_Hall           'P 2yb'
loop_
_symmetry_equiv_pos_site_id
_symmetry_equiv_pos_as_xyz
1 x,y,z
2 -x,1/2+y,-z
_cell_length_a                   8.4882(3)
_cell_length_b                   11.8855(5)
_cell_length_c                   19.4286(8)
_cell_angle_alpha                90
_cell_angle_beta                 96.216(3)
_cell_angle_gamma                90
_cell_volume                     1948.56
_exptl_crystal_colour            colorless
_exptl_crystal_description       plate
_cell_formula_units_Z            4
loop_
_atom_site_label
_atom_site_type_symbol
_atom_site_fract_x
_atom_site_fract_y
_atom_site_fract_z
C1 C 0.4214(5) 0.4439(3) 0.4535(2)
C2 C 0.4829(5) 0.4120(4) 0.3852(2)
C3 C 0.4754(5) 0.5039(4) 0.3328(2)
C4 C 0.5340(6) 0.4891(5) 0.2687(3)
H1 H 0.5842 0.4205 0.2586
C5 C 0.5186(7) 0.5740(6) 0.2204(3)
C6 C 0.4413(7) 0.6725(5) 0.2311(3)
H2 H 0.4251 0.7273 0.1954
C7 C 0.3870(6) 0.6904(4) 0.2953(2)
H3 H 0.3376 0.7597 0.3047
C8 C 0.4050(5) 0.6071(4) 0.3456(2)
C9 C 0.4262(5) 0.5694(3) 0.4652(2)
H4 H 0.3743 0.5874 0.5071
H5 H 0.5379 0.5944 0.4733
C10 C 0.5316(6) 0.3090(4) 0.3738(3)
H6 H 0.5644 0.2898 0.3301
H7 H 0.5337 0.2539 0.4093
C11 C 0.5087(6) 0.3825(4) 0.5147(2)
H8 H 0.4969 0.3005 0.5069
H9 H 0.6229 0.4007 0.5168
C12 C 0.5296(5) 0.4865(3) 0.6234(2)
C13 C 0.4874(5) 0.4903(4) 0.6955(2)
C14 C 0.5710(6) 0.5647(5) 0.7422(3)
H10 H 0.6464 0.6145 0.7261
C15 C 0.5458(7) 0.5665(6) 0.8101(3)
H11 H 0.6056 0.6173 0.8404
C16 C 0.4361(6) 0.4971(5) 0.8368(3)
C17 C 0.3520(6) 0.4244(5) 0.7900(3)
H12 H 0.2762 0.3750 0.8063
C18 C 0.3750(6) 0.4219(4) 0.7214(3)
H13 H 0.3130 0.3725 0.6910
C19 C 0.4109(9) 0.4941(7) 0.9146(3)
C20 C 0.5199(19) 0.4005(11) 0.9475(4)
H14 H 0.5012 0.3310 0.9207
H15 H 0.4972 0.3876 0.9952
H16 H 0.6308 0.4233 0.9473
C21 C 0.2355(11) 0.4761(9) 0.9229(4)
H17 H 0.2057 0.3986 0.9103
H18 H 0.1712 0.5283 0.8926
H19 H 0.2173 0.4899 0.9711
C22 C 0.4550(10) 0.6092(8) 0.9482(3)
H20 H 0.4014 0.6182 0.9901
H21 H 0.4217 0.6695 0.9154
H22 H 0.5700 0.6131 0.9605
N1 N 0.4551(4) 0.4093(3) 0.58070(18)
H23 H 0.3716 0.3743 0.5934
O1 O 0.3480(3) 0.6295(2) 0.40713(15)
O2 O 0.6346(3) 0.5460(3) 0.60427(16)
F1 F 0.2601(3) 0.4115(2) 0.44924(13)
Cl1 Cl 0.5951(3) 0.5539(2) 0.14119(8)
C23 C -0.0804(5) 0.6703(3) 0.4348(2)
C24 C -0.0615(5) 0.6248(4) 0.3630(2)
C25 C -0.0157(5) 0.7111(4) 0.3131(2)
C26 C -0.0032(6) 0.6841(5) 0.2436(3)
H24 H -0.0276 0.6103 0.2268
C27 C 0.0451(7) 0.7658(6) 0.1998(3)
C28 C 0.0776(7) 0.8751(5) 0.2218(3)
H25 H 0.1077 0.9303 0.1904
C29 C 0.0658(6) 0.9025(4) 0.2896(3)
H26 H 0.0902 0.9767 0.3055
C30 C 0.0180(5) 0.8219(4) 0.3351(3)
C31 C 0.0247(5) 0.7702(3) 0.4524(2)
H27 H 0.0013 0.8015 0.4974
H28 H 0.1367 0.7454 0.4575
C32 C -0.0856(6) 0.5180(4) 0.3472(2)
H29 H -0.0739 0.4920 0.3018
H30 H -0.1146 0.4669 0.3813
C33 C -0.0581(5) 0.5820(3) 0.4927(2)
H31 H -0.1388 0.5222 0.4831
H32 H 0.0475 0.5468 0.4925
C34 C 0.0586(5) 0.6545(3) 0.6039(2)
C35 C 0.0264(5) 0.7014(3) 0.6729(2)
C36 C -0.1125(5) 0.7571(4) 0.6829(2)
H33 H -0.1925 0.7660 0.6451
C37 C -0.1360(5) 0.7994(4) 0.7466(3)
H34 H -0.2319 0.8379 0.7520
C38 C -0.0229(6) 0.7874(4) 0.8035(3)
C39 C 0.1176(6) 0.7332(4) 0.7931(2)
H35 H 0.1978 0.7251 0.8309
C40 C 0.1433(5) 0.6907(4) 0.7288(2)
H36 H 0.2406 0.6543 0.7227
C41 C -0.0506(7) 0.8293(6) 0.8763(3)
C42 C -0.0837(15) 0.7315(12) 0.9203(4)
H37 H -0.0756 0.7550 0.9689
H38 H -0.0065 0.6718 0.9148
H39 H -0.1909 0.7034 0.9062
C43 C -0.2152(13) 0.8927(12) 0.8735(5)
H40 H -0.2414 0.9058 0.9208
H41 H -0.2980 0.8465 0.8484
H42 H -0.2081 0.9649 0.8498
C44 C 0.0778(11) 0.8987(12) 0.9071(5)
H43 H 0.0415 0.9431 0.9448
H44 H 0.1125 0.9494 0.8719
H45 H 0.1665 0.8507 0.9253
N2 N -0.0712(4) 0.6278(3) 0.55987(19)
H46 H -0.1660 0.6391 0.5730
O3 O 0.0039(4) 0.8557(2) 0.40128(18)
O4 O 0.1930(3) 0.6439(3) 0.58825(16)
F2 F -0.2405(3) 0.7101(2) 0.43163(14)
Cl2 Cl 0.0678(3) 0.72835(19) 0.11368(8)
loop_
_geom_bond_atom_site_label_1
_geom_bond_atom_site_label_2
_geom_bond_site_symmetry_1
_geom_bond_site_symmetry_2
C1 C2 1_555 1_555
C2 C3 1_555 1_555
C3 C4 1_555 1_555
C4 H1 1_555 1_555
C5 C4 1_555 1_555
C6 C5 1_555 1_555
H2 C6 1_555 1_555
C7 C6 1_555 1_555
H3 C7 1_555 1_555
C8 C3 1_555 1_555
C9 C1 1_555 1_555
H4 C9 1_555 1_555
H5 C9 1_555 1_555
C10 C2 1_555 1_555
H6 C10 1_555 1_555
H7 C10 1_555 1_555
C11 C1 1_555 1_555
H8 C11 1_555 1_555
H9 C11 1_555 1_555
C12 C13 1_555 1_555
C13 C14 1_555 1_555
C14 H10 1_555 1_555
C15 C14 1_555 1_555
H11 C15 1_555 1_555
C16 C15 1_555 1_555
C17 C16 1_555 1_555
H12 C17 1_555 1_555
C18 C13 1_555 1_555
H13 C18 1_555 1_555
C19 C16 1_555 1_555
C20 C19 1_555 1_555
H14 C20 1_555 1_555
H15 C20 1_555 1_555
H16 C20 1_555 1_555
C21 C19 1_555 1_555
H17 C21 1_555 1_555
H18 C21 1_555 1_555
H19 C21 1_555 1_555
C22 C19 1_555 1_555
H20 C22 1_555 1_555
H21 C22 1_555 1_555
H22 C22 1_555 1_555
N1 C11 1_555 1_555
H23 N1 1_555 1_555
O1 C8 1_555 1_555
O2 C12 1_555 1_555
F1 C1 1_555 1_555
Cl1 C5 1_555 1_555
C23 C24 1_555 1_555
C24 C25 1_555 1_555
C25 C26 1_555 1_555
C26 H24 1_555 1_555
C27 C26 1_555 1_555
C28 C27 1_555 1_555
H25 C28 1_555 1_555
C29 C28 1_555 1_555
H26 C29 1_555 1_555
C30 C25 1_555 1_555
C31 C23 1_555 1_555
H27 C31 1_555 1_555
H28 C31 1_555 1_555
C32 C24 1_555 1_555
H29 C32 1_555 1_555
H30 C32 1_555 1_555
C33 C23 1_555 1_555
H31 C33 1_555 1_555
H32 C33 1_555 1_555
C34 C35 1_555 1_555
C35 C36 1_555 1_555
C36 H33 1_555 1_555
C37 C36 1_555 1_555
H34 C37 1_555 1_555
C38 C37 1_555 1_555
C39 C38 1_555 1_555
H35 C39 1_555 1_555
C40 C35 1_555 1_555
H36 C40 1_555 1_555
C41 C38 1_555 1_555
C42 C41 1_555 1_555
H37 C42 1_555 1_555
H38 C42 1_555 1_555
H39 C42 1_555 1_555
C43 C41 1_555 1_555
H40 C43 1_555 1_555
H41 C43 1_555 1_555
H42 C43 1_555 1_555
C44 C41 1_555 1_555
H43 C44 1_555 1_555
H44 C44 1_555 1_555
H45 C44 1_555 1_555
N2 C33 1_555 1_555
H46 N2 1_555 1_555
O3 C30 1_555 1_555
O4 C34 1_555 1_555
F2 C23 1_555 1_555
Cl2 C27 1_555 1_555
C7 C8 1_555 1_555
C9 O1 1_555 1_555
C12 N1 1_555 1_555
C17 C18 1_555 1_555
C29 C30 1_555 1_555
C31 O3 1_555 1_555
C34 N2 1_555 1_555
C39 C40 1_555 1_555

#END
