
#######################################################################
#
#                 Cambridge Crystallographic Data Centre
#                                CCDC 
#
#######################################################################
#
# If this CIF has been generated from an entry in the Cambridge 
# Structural Database, then it will include bibliographic, chemical, 
# crystal, experimental, refinement or atomic coordinate data resulting 
# from the CCDC's data processing and validation procedures.
#
#######################################################################

data_HOMKEB
_chemical_formula_moiety         'C47 H59 O4 P1,C2 H3 N1'
_chemical_name_systematic        
"(R)-3,7-bis(2,4,6-Tri-isopropylphenyl)-10,11,12,13-tetrahydrodiindeno[7,1-de:1',7'-fg][1,3,2]dioxaphosphocin-5-ol 5-oxide acetonitrile solvate"
_symmetry_cell_setting           monoclinic
_symmetry_space_group_name_H-M   'P 21'
_symmetry_Int_Tables_number      4
_space_group_name_Hall           'P 2yb'
loop_
_symmetry_equiv_pos_site_id
_symmetry_equiv_pos_as_xyz
1 x,y,z
2 -x,1/2+y,-z
_cell_length_a                   8.8887(3)
_cell_length_b                   17.5317(5)
_cell_length_c                   14.3142(4)
_cell_angle_alpha                90
_cell_angle_beta                 102.4930(10)
_cell_angle_gamma                90
_cell_volume                     2177.82
_exptl_crystal_colour            colorless
_exptl_crystal_description       block
_cell_formula_units_Z            2
loop_
_atom_site_label
_atom_site_type_symbol
_atom_site_fract_x
_atom_site_fract_y
_atom_site_fract_z
C1 C 0.22119(15) 0.39379(8) 1.14005(9)
C2 C 0.08660(14) 0.44892(8) 0.98064(9)
C3 C -0.10837(14) 0.38457(8) 0.74135(9)
C4 C 0.15777(15) 0.35029(8) 1.20402(9)
C5 C -0.38908(16) 0.26694(9) 0.64951(10)
C6 C -0.49648(16) 0.05837(9) 0.59623(10)
H1 H -0.5816 0.0617 0.6317
C7 C -0.03651(16) 0.44329(9) 0.57625(10)
H2 H -0.0080 0.4623 0.5204
C8 C 0.00763(15) 0.50678(8) 0.92512(9)
C9 C -0.22950(15) 0.26716(9) 0.64996(9)
C10 C 0.45950(15) 0.32447(10) 1.18867(10)
H3 H 0.5626 0.3154 1.1832
C11 C -0.15535(15) 0.19896(9) 0.63588(9)
C12 C 0.24743(15) 0.29455(8) 1.25883(9)
H4 H 0.2046 0.2658 1.3030
C13 C -0.10998(15) 0.37356(9) 0.57473(9)
H5 H -0.1370 0.3465 0.5160
C14 C -0.00512(15) 0.48504(9) 0.66036(9)
C15 C -0.14592(15) 0.34152(8) 0.65721(9)
C16 C -0.24094(16) 0.13137(9) 0.62112(10)
H6 H -0.1905 0.0851 0.6117
C17 C 0.12860(14) 0.45466(8) 1.08043(9)
C18 C 0.39756(15) 0.27956(9) 1.25100(10)
C19 C -0.00681(16) 0.57624(9) 1.06821(10)
H7 H -0.0410 0.6191 1.0985
C20 C -0.39828(16) 0.13002(9) 0.61982(9)
C21 C -0.04790(14) 0.45711(9) 0.74291(9)
C22 C -0.00738(15) 0.36090(9) 1.21670(10)
H8 H -0.0619 0.3958 1.1651
C23 C -0.46841(16) 0.19786(10) 0.63502(10)
H9 H -0.5751 0.1974 0.6356
C24 C 0.01498(15) 0.19658(9) 0.63231(9)
H10 H 0.0634 0.2457 0.6589
C25 C 0.37615(15) 0.38213(9) 1.13403(9)
C26 C 0.45786(16) 0.43360(9) 1.07509(10)
H11 H 0.3782 0.4665 1.0339
C27 C -0.04452(15) 0.56902(8) 0.97000(10)
C28 C 0.08212(16) 0.51979(8) 1.12245(9)
H12 H 0.1119 0.5258 1.1899
C29 C -0.09477(15) 0.28528(9) 1.20749(10)
H13 H -0.0951 0.2625 1.1449
H14 H -0.2011 0.2944 1.2134
H15 H -0.0442 0.2505 1.2582
C30 C 0.07275(17) 0.56136(9) 0.68002(10)
H16 H 0.0030 0.6034 0.6520
H17 H 0.1677 0.5638 0.6546
C31 C 0.10232(17) 0.13109(9) 0.69100(10)
H18 H 0.0795 0.1308 0.7550
H19 H 0.2133 0.1380 0.6965
H20 H 0.0700 0.0825 0.6591
C32 C -0.00802(18) 0.39839(10) 1.31392(11)
H21 H -0.1146 0.4052 1.3206
H22 H 0.0430 0.4482 1.3174
H23 H 0.0471 0.3656 1.3656
C33 C -0.16973(16) 0.57211(9) 0.80567(10)
H24 H -0.1801 0.6043 0.7478
H25 H -0.2646 0.5413 0.8004
C34 C 0.10993(16) 0.56468(9) 0.78997(9)
H26 H 0.1126 0.6181 0.8128
H27 H 0.2103 0.5402 0.8169
C35 C -0.14067(17) 0.62165(9) 0.89699(10)
H28 H -0.0836 0.6688 0.8887
H29 H -0.2385 0.6354 0.9152
C36 C -0.02497(15) 0.51970(8) 0.81789(9)
C37 C 0.55104(18) 0.15883(10) 1.24754(13)
H30 H 0.4672 0.1421 1.1953
H31 H 0.5935 0.1147 1.2865
H32 H 0.6322 0.1827 1.2209
C38 C 0.48881(17) 0.21672(10) 1.31001(11)
H33 H 0.4167 0.1888 1.3427
C39 C -0.47801(17) 0.33915(10) 0.66060(11)
H34 H -0.4074 0.3834 0.6595
C40 C 0.61872(19) 0.24825(12) 1.38771(11)
H35 H 0.6931 0.2750 1.3580
H36 H 0.6704 0.2062 1.4270
H37 H 0.5762 0.2838 1.4281
C41 C 0.5405(2) 0.38896(11) 1.00927(12)
H38 H 0.6231 0.3583 1.0480
H39 H 0.5845 0.4247 0.9698
H40 H 0.4668 0.3553 0.9678
C42 C -0.41046(18) -0.01560(10) 0.62600(12)
H41 H -0.3307 -0.0225 0.5890
H42 H -0.4829 -0.0584 0.6139
H43 H -0.3623 -0.0135 0.6943
C43 C 0.03332(17) 0.18942(11) 0.52826(10)
H44 H -0.0153 0.1421 0.5004
H45 H 0.1431 0.1886 0.5270
H46 H -0.0161 0.2330 0.4911
C44 C -0.6190(2) 0.35028(11) 0.57899(12)
H47 H -0.5873 0.3480 0.5176
H48 H -0.6657 0.4001 0.5857
H49 H -0.6942 0.3099 0.5814
C45 C -0.5713(2) 0.05638(11) 0.48872(12)
H50 H -0.4907 0.0550 0.4517
H51 H -0.6348 0.1021 0.4715
H52 H -0.6361 0.0108 0.4745
C46 C 0.57174(19) 0.48612(10) 1.14087(12)
H53 H 0.5158 0.5182 1.1780
H54 H 0.6243 0.5185 1.1021
H55 H 0.6480 0.4552 1.1845
C47 C -0.5279(2) 0.34103(14) 0.75603(13)
H56 H -0.5727 0.3910 0.7644
H57 H -0.4383 0.3322 0.8082
H58 H -0.6049 0.3012 0.7568
O1 O 0.12697(10) 0.38412(6) 0.93395(6)
O2 O -0.13646(10) 0.35326(6) 0.82659(6)
O3 O -0.06215(12) 0.28939(6) 0.98473(7)
O4 O 0.08283(12) 0.26313(6) 0.84948(7)
H59 H 0.1672 0.2495 0.8842
P1 P 0.00006(4) 0.31867(2) 0.90608(2)
C48 C 0.6508(2) 0.16789(15) 0.9304(2)
H60 H 0.6646 0.1595 0.8651
H61 H 0.6797 0.1216 0.9684
H62 H 0.7162 0.2104 0.9594
C49 C 0.4892(2) 0.18614(11) 0.92777(16)
N1 N 0.36319(16) 0.20100(9) 0.92197(12)
loop_
_geom_bond_atom_site_label_1
_geom_bond_atom_site_label_2
_geom_bond_site_symmetry_1
_geom_bond_site_symmetry_2
C1 C4 1_555 1_555
C2 C8 1_555 1_555
C3 C15 1_555 1_555
C4 C12 1_555 1_555
C5 C9 1_555 1_555
C6 H1 1_555 1_555
C7 H2 1_555 1_555
C8 C27 1_555 1_555
C9 C11 1_555 1_555
C10 H3 1_555 1_555
C11 C16 1_555 1_555
C12 H4 1_555 1_555
C13 C7 1_555 1_555
H5 C13 1_555 1_555
C14 C7 1_555 1_555
C15 C9 1_555 1_555
C16 H6 1_555 1_555
C17 C1 1_555 1_555
C18 C10 1_555 1_555
C19 H7 1_555 1_555
C20 C6 1_555 1_555
C21 C3 1_555 1_555
C22 C4 1_555 1_555
H8 C22 1_555 1_555
C23 C5 1_555 1_555
H9 C23 1_555 1_555
C24 C11 1_555 1_555
H10 C24 1_555 1_555
C25 C1 1_555 1_555
C26 C25 1_555 1_555
H11 C26 1_555 1_555
C27 C19 1_555 1_555
C28 C17 1_555 1_555
H12 C28 1_555 1_555
C29 C22 1_555 1_555
H13 C29 1_555 1_555
H14 C29 1_555 1_555
H15 C29 1_555 1_555
C30 C14 1_555 1_555
H16 C30 1_555 1_555
H17 C30 1_555 1_555
C31 C24 1_555 1_555
H18 C31 1_555 1_555
H19 C31 1_555 1_555
H20 C31 1_555 1_555
C32 C22 1_555 1_555
H21 C32 1_555 1_555
H22 C32 1_555 1_555
H23 C32 1_555 1_555
C33 H24 1_555 1_555
H25 C33 1_555 1_555
C34 C30 1_555 1_555
H26 C34 1_555 1_555
H27 C34 1_555 1_555
C35 C27 1_555 1_555
H28 C35 1_555 1_555
H29 C35 1_555 1_555
C36 C8 1_555 1_555
C37 H30 1_555 1_555
H31 C37 1_555 1_555
H32 C37 1_555 1_555
C38 C18 1_555 1_555
H33 C38 1_555 1_555
C39 C5 1_555 1_555
H34 C39 1_555 1_555
C40 C38 1_555 1_555
H35 C40 1_555 1_555
H36 C40 1_555 1_555
H37 C40 1_555 1_555
C41 C26 1_555 1_555
H38 C41 1_555 1_555
H39 C41 1_555 1_555
H40 C41 1_555 1_555
C42 C6 1_555 1_555
H41 C42 1_555 1_555
H42 C42 1_555 1_555
H43 C42 1_555 1_555
C43 C24 1_555 1_555
H44 C43 1_555 1_555
H45 C43 1_555 1_555
H46 C43 1_555 1_555
C44 C39 1_555 1_555
H47 C44 1_555 1_555
H48 C44 1_555 1_555
H49 C44 1_555 1_555
C45 C6 1_555 1_555
H50 C45 1_555 1_555
H51 C45 1_555 1_555
H52 C45 1_555 1_555
C46 C26 1_555 1_555
H53 C46 1_555 1_555
H54 C46 1_555 1_555
H55 C46 1_555 1_555
C47 C39 1_555 1_555
H56 C47 1_555 1_555
H57 C47 1_555 1_555
H58 C47 1_555 1_555
O1 C2 1_555 1_555
O2 C3 1_555 1_555
O3 P1 1_555 1_555
O4 H59 1_555 1_555
P1 O1 1_555 1_555
C48 H60 1_555 1_555
H61 C48 1_555 1_555
H62 C48 1_555 1_555
C49 C48 1_555 1_555
N1 C49 1_555 1_555
C2 C17 1_555 1_555
C10 C25 1_555 1_555
C12 C18 1_555 1_555
C13 C15 1_555 1_555
C14 C21 1_555 1_555
C16 C20 1_555 1_555
C19 C28 1_555 1_555
C20 C23 1_555 1_555
C21 C36 1_555 1_555
C33 C35 1_555 1_555
C33 C36 1_555 1_555
C34 C36 1_555 1_555
C37 C38 1_555 1_555
O2 P1 1_555 1_555
O4 P1 1_555 1_555

#END
