
#######################################################################
#
#                 Cambridge Crystallographic Data Centre
#                                CCDC 
#
#######################################################################
#
# If this CIF has been generated from an entry in the Cambridge 
# Structural Database, then it will include bibliographic, chemical, 
# crystal, experimental, refinement or atomic coordinate data resulting 
# from the CCDC's data processing and validation procedures.
#
#######################################################################

data_HOMKIF
_chemical_formula_moiety         'C22 H17 N1 O2'
_chemical_name_systematic        
2-Methyl-3a,8b-diphenyl-3a,8b-dihydro[1]benzofuro[2,3-d][1,3]oxazole
_symmetry_cell_setting           orthorhombic
_symmetry_space_group_name_H-M   'P 21 21 21'
_symmetry_Int_Tables_number      19
_space_group_name_Hall           'P 2ac 2ab'
loop_
_symmetry_equiv_pos_site_id
_symmetry_equiv_pos_as_xyz
1 x,y,z
2 1/2+x,1/2-y,-z
3 -x,1/2+y,1/2-z
4 1/2-x,-y,1/2+z
_cell_length_a                   9.4591(3)
_cell_length_b                   13.1139(4)
_cell_length_c                   13.8328(10)
_cell_angle_alpha                90
_cell_angle_beta                 90
_cell_angle_gamma                90
_cell_volume                     1715.9
_exptl_crystal_colour            colorless
_exptl_crystal_description       prism
_cell_formula_units_Z            4
loop_
_atom_site_label
_atom_site_type_symbol
_atom_site_fract_x
_atom_site_fract_y
_atom_site_fract_z
O1 O 0.0334(2) 0.99702(18) 0.81960(17)
O2 O 0.3607(2) 0.97083(18) 0.89436(18)
N1 N 0.2025(4) 1.1015(2) 0.8984(2)
C1 C -0.1535(4) 1.0114(3) 1.1564(3)
H1 H -0.2105 1.0096 1.2111
C2 C -0.0233(4) 1.0574(3) 1.1602(3)
H2 H 0.0083 1.0869 1.2174
C3 C 0.0608(4) 1.0596(3) 1.0783(3)
H3 H 0.1485 1.0914 1.0808
C4 C 0.0163(3) 1.0151(2) 0.9925(2)
C5 C 0.1153(3) 1.0095(3) 0.9085(2)
C6 C 0.2256(3) 0.9182(2) 0.9091(2)
C7 C 0.2343(3) 0.8568(2) 1.0014(2)
C8 C 0.1365(4) 0.7803(2) 1.0182(3)
H4 H 0.0697 0.7649 0.9712
C9 C 0.1370(4) 0.7263(3) 1.1047(3)
H5 H 0.0700 0.6756 1.1155
C10 C 0.2360(4) 0.7476(3) 1.1737(3)
H6 H 0.2365 0.7114 1.2314
C11 C -0.1154(4) 0.9694(3) 0.9897(3)
H7 H -0.1472 0.9396 0.9327
C12 C -0.2000(4) 0.9678(3) 1.0711(3)
H8 H -0.2886 0.9372 1.0685
C13 C 0.0799(4) 0.9112(3) 0.7730(3)
C14 C 0.1873(3) 0.8607(3) 0.8198(2)
C15 C 0.3312(4) 1.0720(3) 0.8913(3)
C16 C 0.4573(5) 1.1387(4) 0.8774(3)
H9 H 0.4891 1.1337 0.8117
H10 H 0.5316 1.1171 0.9201
H11 H 0.4325 1.2081 0.8915
C17 C 0.3335(4) 0.8771(3) 1.0725(3)
H12 H 0.4000 0.9283 1.0627
C18 C 0.3350(4) 0.8226(3) 1.1579(3)
H13 H 0.4029 0.8366 1.2046
C19 C 0.2383(4) 0.7699(3) 0.7815(3)
H14 H 0.3100 0.7344 0.8129
C20 C 0.1816(4) 0.7329(3) 0.6965(3)
H15 H 0.2158 0.6723 0.6704
C21 C 0.0754(4) 0.7847(3) 0.6503(3)
H16 H 0.0378 0.7583 0.5935
C22 C 0.0230(4) 0.8755(3) 0.6866(3)
H17 H -0.0477 0.9113 0.6545
loop_
_geom_bond_atom_site_label_1
_geom_bond_atom_site_label_2
_geom_bond_site_symmetry_1
_geom_bond_site_symmetry_2
O1 C5 1_555 1_555
O2 C6 1_555 1_555
N1 C5 1_555 1_555
C1 H1 1_555 1_555
C2 C1 1_555 1_555
H2 C2 1_555 1_555
C3 C2 1_555 1_555
H3 C3 1_555 1_555
C4 C3 1_555 1_555
C5 C4 1_555 1_555
C6 C5 1_555 1_555
C7 C6 1_555 1_555
C8 C7 1_555 1_555
H4 C8 1_555 1_555
C9 C8 1_555 1_555
H5 C9 1_555 1_555
C10 C9 1_555 1_555
H6 C10 1_555 1_555
C11 C4 1_555 1_555
H7 C11 1_555 1_555
C12 C1 1_555 1_555
H8 C12 1_555 1_555
C13 O1 1_555 1_555
C14 C6 1_555 1_555
C15 O2 1_555 1_555
C16 C15 1_555 1_555
H9 C16 1_555 1_555
H10 C16 1_555 1_555
H11 C16 1_555 1_555
C17 C7 1_555 1_555
H12 C17 1_555 1_555
C18 C10 1_555 1_555
H13 C18 1_555 1_555
C19 C14 1_555 1_555
H14 C19 1_555 1_555
C20 C19 1_555 1_555
H15 C20 1_555 1_555
C21 C20 1_555 1_555
H16 C21 1_555 1_555
C22 C13 1_555 1_555
H17 C22 1_555 1_555
N1 C15 1_555 1_555
C11 C12 1_555 1_555
C13 C14 1_555 1_555
C17 C18 1_555 1_555
C21 C22 1_555 1_555

#END
