
#######################################################################
#
#                 Cambridge Crystallographic Data Centre
#                                CCDC 
#
#######################################################################
#
# If this CIF has been generated from an entry in the Cambridge 
# Structural Database, then it will include bibliographic, chemical, 
# crystal, experimental, refinement or atomic coordinate data resulting 
# from the CCDC's data processing and validation procedures.
#
#######################################################################

data_HOMKOL
_chemical_formula_moiety         'C19 H19 N1 O2'
_chemical_name_systematic        
8b-Isopropyl-2-methyl-3a-phenyl-3a,8b-dihydro[1]benzofuro[2,3-d][1,3]oxazole
_symmetry_cell_setting           orthorhombic
_symmetry_space_group_name_H-M   'P b c a'
_symmetry_Int_Tables_number      61
_space_group_name_Hall           '-P 2ac 2ab'
loop_
_symmetry_equiv_pos_site_id
_symmetry_equiv_pos_as_xyz
1 x,y,z
2 1/2+x,1/2-y,-z
3 -x,1/2+y,1/2-z
4 1/2-x,-y,1/2+z
5 -x,-y,-z
6 1/2-x,1/2+y,z
7 x,1/2-y,1/2+z
8 1/2+x,y,1/2-z
_cell_length_a                   11.7627(2)
_cell_length_b                   13.6659(3)
_cell_length_c                   19.4478(14)
_cell_angle_alpha                90
_cell_angle_beta                 90
_cell_angle_gamma                90
_cell_volume                     3126.19
_exptl_crystal_colour            colorless
_exptl_crystal_description       block
_cell_formula_units_Z            8
loop_
_atom_site_label
_atom_site_type_symbol
_atom_site_fract_x
_atom_site_fract_y
_atom_site_fract_z
O1 O 0.43252(8) 0.69768(7) 0.43633(5)
O2 O 0.16203(7) 0.65376(6) 0.37769(4)
C1 C 0.25520(10) 0.61203(9) 0.41752(6)
N1 N 0.31512(10) 0.73906(8) 0.34081(6)
C2 C 0.21506(16) 0.71234(13) 0.60074(8)
H1 H 0.1636 0.7170 0.6369
C3 C 0.18402(13) 0.66404(11) 0.54104(7)
H2 H 0.1126 0.6355 0.5370
C4 C 0.26142(11) 0.65902(9) 0.48756(6)
C5 C 0.36304(10) 0.65897(9) 0.38175(6)
C6 C 0.43615(10) 0.59500(9) 0.33604(6)
C7 C 0.54231(12) 0.56227(12) 0.35637(8)
H3 H 0.5718 0.5812 0.3987
C8 C 0.60490(14) 0.50112(14) 0.31357(12)
H4 H 0.6757 0.4787 0.3278
C9 C 0.56331(16) 0.47347(13) 0.25044(10)
H5 H 0.6052 0.4320 0.2222
C10 C 0.32178(17) 0.75364(12) 0.60701(8)
H6 H 0.3418 0.7840 0.6481
C11 C 0.39961(15) 0.75099(11) 0.55369(8)
H7 H 0.4711 0.7796 0.5577
C12 C 0.36616(12) 0.70389(9) 0.49420(7)
C13 C 0.20780(12) 0.72768(9) 0.34034(6)
C14 C 0.24165(10) 0.50051(9) 0.41683(6)
H8 H 0.2534 0.4783 0.3695
C15 C 0.12256(12) 0.46880(11) 0.43859(8)
H9 H 0.1147 0.4761 0.4875
H10 H 0.1109 0.4015 0.4262
H11 H 0.0671 0.5089 0.4158
C16 C 0.33036(13) 0.45029(10) 0.46169(8)
H12 H 0.4051 0.4676 0.4460
H13 H 0.3208 0.3806 0.4588
H14 H 0.3211 0.4710 0.5085
C17 C 0.12427(15) 0.78630(12) 0.30097(8)
H15 H 0.1637 0.8337 0.2734
H16 H 0.0742 0.8193 0.3323
H17 H 0.0808 0.7439 0.2717
C18 C 0.45961(15) 0.50762(12) 0.22952(8)
H18 H 0.4318 0.4901 0.1865
C19 C 0.39578(12) 0.56777(10) 0.27154(7)
H19 H 0.3253 0.5902 0.2566
loop_
_geom_bond_atom_site_label_1
_geom_bond_atom_site_label_2
_geom_bond_site_symmetry_1
_geom_bond_site_symmetry_2
O1 C5 1_555 1_555
O2 C1 1_555 1_555
C1 C4 1_555 1_555
N1 C5 1_555 1_555
C2 H1 1_555 1_555
C3 C2 1_555 1_555
H2 C3 1_555 1_555
C4 C3 1_555 1_555
C5 C1 1_555 1_555
C6 C5 1_555 1_555
C7 C6 1_555 1_555
H3 C7 1_555 1_555
C8 C7 1_555 1_555
H4 C8 1_555 1_555
C9 C8 1_555 1_555
H5 C9 1_555 1_555
C10 C2 1_555 1_555
H6 C10 1_555 1_555
C11 C10 1_555 1_555
H7 C11 1_555 1_555
C12 O1 1_555 1_555
C13 O2 1_555 1_555
C14 C1 1_555 1_555
H8 C14 1_555 1_555
C15 C14 1_555 1_555
H9 C15 1_555 1_555
H10 C15 1_555 1_555
H11 C15 1_555 1_555
C16 C14 1_555 1_555
H12 C16 1_555 1_555
H13 C16 1_555 1_555
H14 C16 1_555 1_555
C17 C13 1_555 1_555
H15 C17 1_555 1_555
H16 C17 1_555 1_555
H17 C17 1_555 1_555
C18 C9 1_555 1_555
H18 C18 1_555 1_555
C19 C6 1_555 1_555
H19 C19 1_555 1_555
N1 C13 1_555 1_555
C4 C12 1_555 1_555
C11 C12 1_555 1_555
C18 C19 1_555 1_555

#END
