
#######################################################################
#
#                 Cambridge Crystallographic Data Centre
#                                CCDC 
#
#######################################################################
#
# If this CIF has been generated from an entry in the Cambridge 
# Structural Database, then it will include bibliographic, chemical, 
# crystal, experimental, refinement or atomic coordinate data resulting 
# from the CCDC's data processing and validation procedures.
#
#######################################################################

data_HOMMUT
_chemical_formula_moiety         'C16 H22 F3 N1 O5 S1'
_chemical_name_systematic        
1,1,1-Trifluoro-N-(1-(5-(4-methoxybenzyl)-2,2-dimethyl-1,3-dioxolan-4-yl)ethyl)methanesulfonamide
_symmetry_cell_setting           triclinic
_symmetry_space_group_name_H-M   'P -1'
_symmetry_Int_Tables_number      2
_space_group_name_Hall           '-P 1'
loop_
_symmetry_equiv_pos_site_id
_symmetry_equiv_pos_as_xyz
1 x,y,z
2 -x,-y,-z
_cell_length_a                   10.6200(8)
_cell_length_b                   13.0885(7)
_cell_length_c                   14.4067(8)
_cell_angle_alpha                77.937(5)
_cell_angle_beta                 89.515(5)
_cell_angle_gamma                84.836(5)
_cell_volume                     1950.25
_cell_formula_units_Z            4
loop_
_atom_site_label
_atom_site_type_symbol
_atom_site_fract_x
_atom_site_fract_y
_atom_site_fract_z
C1 C 0.3365(5) 0.9154(3) 0.1451(4)
C2 C 0.2560(6) 0.8823(4) 0.0936(4)
H1 H 0.2488 0.9104 0.0274
C3 C 0.1856(5) 0.8102(3) 0.1342(3)
H2 H 0.1271 0.7872 0.0952
C4 C 0.1891(3) 0.7642(2) 0.2295(3)
C5 C 0.2702(4) 0.7967(3) 0.2882(3)
H3 H 0.2733 0.7674 0.3543
C6 C 0.3514(5) 0.8773(4) 0.2467(5)
H4 H 0.4101 0.9032 0.2835
C7 C 0.1019(4) 0.6808(3) 0.2661(3)
H5 H 0.0257 0.6928 0.2248
H6 H 0.0744 0.6868 0.3307
C8 C 0.1631(3) 0.5705(2) 0.2696(2)
H7 H 0.2408 0.5598 0.3104
C9 C 0.0835(3) 0.4780(2) 0.3037(2)
H8 H 0.1044 0.4470 0.3719
C10 C 0.2199(4) 0.4497(3) 0.1798(3)
C11 C 0.1916(5) 0.4303(3) 0.0825(3)
H9 H 0.1043 0.4574 0.0640
H10 H 0.2022 0.3548 0.0842
H11 H 0.2498 0.4661 0.0362
C12 C 0.3506(4) 0.4049(3) 0.2168(4)
H12 H 0.4143 0.4363 0.1728
H13 H 0.3585 0.3287 0.2220
H14 H 0.3637 0.4206 0.2794
C13 C -0.0596(3) 0.4989(2) 0.2920(2)
H15 H -0.0890 0.5561 0.3257
C14 C -0.1062(4) 0.5308(3) 0.1893(3)
H16 H -0.0865 0.4723 0.1573
H17 H -0.0641 0.5917 0.1566
H18 H -0.1978 0.5489 0.1880
C15 C 0.4986(5) 1.0250(5) 0.1478(7)
H19 H 0.5091 0.9765 0.2096
H20 H 0.4742 1.0960 0.1573
H21 H 0.5785 1.0242 0.1133
C16 C -0.3347(5) 0.4370(5) 0.4288(4)
F1 F -0.3404(4) 0.5382(3) 0.3942(3)
F2 F -0.3889(3) 0.4212(3) 0.5122(3)
F3 F -0.3996(3) 0.3966(5) 0.3739(4)
N1 N -0.1188(3) 0.4030(2) 0.3366(2)
H22 H -0.1244 0.3552 0.3023
O1 O 0.1279(2) 0.40329(15) 0.24683(15)
O2 O 0.1999(2) 0.55832(16) 0.17647(17)
O3 O 0.4100(5) 0.9956(3) 0.0985(4)
O4 O -0.1166(3) 0.4372(3) 0.4978(2)
O5 O -0.1829(3) 0.2707(2) 0.4695(2)
S1 S -0.17266(9) 0.37923(7) 0.44012(6)
C17 C 0.6794(4) -0.2331(3) 0.1163(3)
C18 C 0.7636(4) -0.1718(3) 0.0642(3)
H23 H 0.7684 -0.1672 -0.0024
C19 C 0.8413(4) -0.1166(3) 0.1074(3)
H24 H 0.8985 -0.0740 0.0699
C20 C 0.8380(3) -0.1218(2) 0.2045(3)
C21 C 0.7556(4) -0.1857(3) 0.2567(3)
H25 H 0.7531 -0.1923 0.3236
C22 C 0.6756(4) -0.2409(3) 0.2134(3)
H26 H 0.6184 -0.2838 0.2506
C23 C 0.9220(4) -0.0582(3) 0.2503(3)
H27 H 0.9485 -0.0987 0.3141
H28 H 0.9990 -0.0464 0.2118
C24 C 0.8560(3) 0.0466(3) 0.2593(3)
H29 H 0.7775 0.0330 0.2969
C25 C 0.9295(3) 0.1220(2) 0.3037(2)
H30 H 0.9038 0.1167 0.3713
C26 C 0.7931(5) 0.2126(3) 0.1795(3)
C27 C 0.8202(8) 0.2842(4) 0.0868(4)
H31 H 0.9085 0.2698 0.0696
H32 H 0.8053 0.3573 0.0933
H33 H 0.7643 0.2721 0.0371
C28 C 0.6613(5) 0.2311(5) 0.2179(6)
H34 H 0.5983 0.2227 0.1714
H35 H 0.6490 0.3023 0.2299
H36 H 0.6514 0.1801 0.2773
C29 C 1.0736(3) 0.1103(2) 0.2985(2)
H37 H 1.1047 0.0375 0.3313
C30 C 1.1271(4) 0.1313(3) 0.1988(3)
H38 H 1.1016 0.2040 0.1670
H39 H 1.0947 0.0834 0.1628
H40 H 1.2196 0.1202 0.2024
C31 C 0.5141(5) -0.3460(4) 0.1166(4)
H41 H 0.5562 -0.4056 0.1617
H42 H 0.4634 -0.3720 0.0714
H43 H 0.4590 -0.3029 0.1511
C32 C 1.3374(5) 0.1136(5) 0.4503(4)
F4 F 1.4009(3) 0.1850(4) 0.4011(3)
F5 F 1.3860(3) 0.0877(3) 0.5370(2)
F6 F 1.3507(4) 0.0317(4) 0.4124(3)
N2 N 1.1241(3) 0.1851(2) 0.3495(2)
H44 H 1.1282 0.2497 0.3175
O6 O 0.8196(3) 0.10791(18) 0.16803(19)
O7 O 0.8848(2) 0.22401(16) 0.24932(16)
O8 O 0.6057(3) -0.2850(2) 0.0672(2)
O9 O 1.1149(3) 0.0729(3) 0.5080(2)
O10 O 1.1729(3) 0.2534(2) 0.4889(2)
S2 S 1.17094(9) 0.15978(7) 0.45572(6)
loop_
_geom_bond_atom_site_label_1
_geom_bond_atom_site_label_2
_geom_bond_site_symmetry_1
_geom_bond_site_symmetry_2
C1 C2 1_555 1_555
C2 H1 1_555 1_555
C3 C2 1_555 1_555
H2 C3 1_555 1_555
C4 C3 1_555 1_555
C5 C4 1_555 1_555
H3 C5 1_555 1_555
C6 C1 1_555 1_555
H4 C6 1_555 1_555
C7 C4 1_555 1_555
H5 C7 1_555 1_555
H6 C7 1_555 1_555
C8 C7 1_555 1_555
H7 C8 1_555 1_555
C9 C8 1_555 1_555
H8 C9 1_555 1_555
C10 C11 1_555 1_555
C11 H9 1_555 1_555
H10 C11 1_555 1_555
H11 C11 1_555 1_555
C12 C10 1_555 1_555
H12 C12 1_555 1_555
H13 C12 1_555 1_555
H14 C12 1_555 1_555
C13 C9 1_555 1_555
H15 C13 1_555 1_555
C14 C13 1_555 1_555
H16 C14 1_555 1_555
H17 C14 1_555 1_555
H18 C14 1_555 1_555
C15 H19 1_555 1_555
H20 C15 1_555 1_555
H21 C15 1_555 1_555
C16 F1 1_555 1_555
F2 C16 1_555 1_555
F3 C16 1_555 1_555
N1 C13 1_555 1_555
H22 N1 1_555 1_555
O1 C9 1_555 1_555
O2 C8 1_555 1_555
O3 C1 1_555 1_555
O4 S1 1_555 1_555
O5 S1 1_555 1_555
S1 C16 1_555 1_555
C17 C18 1_555 1_555
C18 H23 1_555 1_555
C19 C18 1_555 1_555
H24 C19 1_555 1_555
C20 C19 1_555 1_555
C21 C20 1_555 1_555
H25 C21 1_555 1_555
C22 C17 1_555 1_555
H26 C22 1_555 1_555
C23 C20 1_555 1_555
H27 C23 1_555 1_555
H28 C23 1_555 1_555
C24 C23 1_555 1_555
H29 C24 1_555 1_555
C25 C24 1_555 1_555
H30 C25 1_555 1_555
C26 C27 1_555 1_555
C27 H31 1_555 1_555
H32 C27 1_555 1_555
H33 C27 1_555 1_555
C28 C26 1_555 1_555
H34 C28 1_555 1_555
H35 C28 1_555 1_555
H36 C28 1_555 1_555
C29 C25 1_555 1_555
H37 C29 1_555 1_555
C30 C29 1_555 1_555
H38 C30 1_555 1_555
H39 C30 1_555 1_555
H40 C30 1_555 1_555
C31 H41 1_555 1_555
H42 C31 1_555 1_555
H43 C31 1_555 1_555
C32 F4 1_555 1_555
F5 C32 1_555 1_555
F6 C32 1_555 1_555
N2 C29 1_555 1_555
H44 N2 1_555 1_555
O6 C24 1_555 1_555
O7 C25 1_555 1_555
O8 C17 1_555 1_555
O9 S2 1_555 1_555
O10 S2 1_555 1_555
S2 C32 1_555 1_555
C5 C6 1_555 1_555
C10 O1 1_555 1_555
C10 O2 1_555 1_555
C15 O3 1_555 1_555
N1 S1 1_555 1_555
C21 C22 1_555 1_555
C26 O6 1_555 1_555
C26 O7 1_555 1_555
C31 O8 1_555 1_555
N2 S2 1_555 1_555

#END
