
#######################################################################
#
#                 Cambridge Crystallographic Data Centre
#                                CCDC 
#
#######################################################################
#
# If this CIF has been generated from an entry in the Cambridge 
# Structural Database, then it will include bibliographic, chemical, 
# crystal, experimental, refinement or atomic coordinate data resulting 
# from the CCDC's data processing and validation procedures.
#
#######################################################################

data_HOMNOO
_chemical_formula_moiety         'C18 H20 N4 2+,2(C6 H2 N3 O7 1-),2(H2 O1)'
_chemical_name_systematic        
"2,2'-Butane-1,4-diylbis-1H-benzimidazol-3-ium 2,4,6-trinitrophenolate dihydrate"
_symmetry_cell_setting           triclinic
_symmetry_space_group_name_H-M   'P -1'
_symmetry_Int_Tables_number      2
_space_group_name_Hall           '-P 1'
loop_
_symmetry_equiv_pos_site_id
_symmetry_equiv_pos_as_xyz
1 x,y,z
2 -x,-y,-z
_cell_length_a                   6.7890(5)
_cell_length_b                   11.6388(11)
_cell_length_c                   11.8581(14)
_cell_angle_alpha                100.7360(10)
_cell_angle_beta                 102.9440(10)
_cell_angle_gamma                106.916(2)
_cell_volume                     841.287
_exptl_crystal_colour            colorless
_exptl_crystal_description       block
_cell_formula_units_Z            1
loop_
_atom_site_label
_atom_site_type_symbol
_atom_site_fract_x
_atom_site_fract_y
_atom_site_fract_z
N1 N 0.1995(3) 0.85716(18) 0.43325(19)
H1 H 0.1681 0.8355 0.3562
N2 N 0.2620(4) 0.84658(18) 0.6166(2)
H2 H 0.2782 0.8170 0.6779
C1 C 0.2090(4) 0.7809(2) 0.5032(2)
C2 C 0.2872(4) 0.9698(2) 0.6210(2)
C3 C 0.2482(4) 0.9774(2) 0.5034(2)
C4 C 0.2590(4) 1.0889(2) 0.4753(3)
H3 H 0.2331 1.0941 0.3963
C5 C 0.3100(4) 1.1912(2) 0.5695(3)
H4 H 0.3200 1.2678 0.5540
C6 C 0.3471(5) 1.1839(3) 0.6877(3)
H5 H 0.3801 1.2555 0.7489
C7 C 0.3364(5) 1.0732(3) 0.7166(3)
H6 H 0.3608 1.0680 0.7955
C8 C 0.1673(5) 0.6458(2) 0.4628(2)
H7 H 0.3037 0.6319 0.4799
H8 H 0.1011 0.6173 0.3765
C9 C 0.0219(5) 0.5689(2) 0.5226(2)
H9 H 0.0895 0.5955 0.6089
H10 H -0.1138 0.5838 0.5072
N1A N -0.1995(3) 0.14284(18) 0.56675(19)
H1A H -0.1681 0.1645 0.6438
N2A N -0.2620(4) 0.15342(18) 0.3834(2)
H2A H -0.2782 0.1830 0.3221
C1A C -0.2090(4) 0.2191(2) 0.4968(2)
C2A C -0.2872(4) 0.0302(2) 0.3790(2)
C3A C -0.2482(4) 0.0226(2) 0.4966(2)
C4A C -0.2590(4) -0.0889(2) 0.5247(3)
H3A H -0.2331 -0.0941 0.6037
C5A C -0.3100(4) -0.1912(2) 0.4305(3)
H4A H -0.3200 -0.2678 0.4460
C6A C -0.3471(5) -0.1839(3) 0.3123(3)
H5A H -0.3801 -0.2555 0.2511
C7A C -0.3364(5) -0.0732(3) 0.2834(3)
H6A H -0.3608 -0.0680 0.2045
C8A C -0.1673(5) 0.3542(2) 0.5372(2)
H7A H -0.3037 0.3681 0.5201
H8A H -0.1011 0.3827 0.6235
C9A C -0.0219(5) 0.4311(2) 0.4774(2)
H9A H -0.0895 0.4045 0.3911
H10A H 0.1138 0.4162 0.4928
N3 N 0.7610(4) 0.4693(2) 1.0693(2)
N4 N 0.6610(5) 0.6182(2) 0.7144(2)
N5 N 1.1408(5) 0.9132(2) 1.0871(2)
O1 O 1.0598(4) 0.71555(19) 1.20128(18)
O2 O 0.8125(5) 0.4858(2) 1.1763(2)
O3 O 0.6557(4) 0.3653(2) 1.0023(2)
O4 O 0.5327(4) 0.5136(2) 0.66006(19)
O5 O 0.7054(5) 0.7025(2) 0.66623(18)
O6 O 1.2330(5) 0.9758(2) 1.0290(2)
O7 O 1.1651(5) 0.9551(2) 1.1929(2)
C10 C 0.9654(5) 0.6945(3) 1.0936(3)
C11 C 0.8179(5) 0.5735(2) 1.0176(2)
C12 C 0.7252(4) 0.5494(2) 0.8968(2)
H11 H 0.6335 0.4694 0.8524
C13 C 0.7676(5) 0.6434(2) 0.8409(2)
C14 C 0.9057(5) 0.7620(2) 0.9051(2)
H12 H 0.9365 0.8248 0.8664
C15 C 0.9966(5) 0.7865(2) 1.0254(2)
O8 O 0.3932(4) 0.79524(19) 0.82972(18)
H13 H 0.3758 0.7478 0.8759
H14 H 0.4993 0.8617 0.8683
loop_
_geom_bond_atom_site_label_1
_geom_bond_atom_site_label_2
_geom_bond_site_symmetry_1
_geom_bond_site_symmetry_2
N1 H1 1_555 1_555
N2 H2 1_555 1_555
C1 N1 1_555 1_555
C2 N2 1_555 1_555
C3 N1 1_555 1_555
C4 C3 1_555 1_555
H3 C4 1_555 1_555
C5 C4 1_555 1_555
H4 C5 1_555 1_555
C6 C5 1_555 1_555
H5 C6 1_555 1_555
C7 C2 1_555 1_555
H6 C7 1_555 1_555
C8 C1 1_555 1_555
H7 C8 1_555 1_555
H8 C8 1_555 1_555
C9 C8 1_555 1_555
H9 C9 1_555 1_555
H10 C9 1_555 1_555
N3 O2 1_555 1_555
N4 O4 1_555 1_555
N5 O6 1_555 1_555
O1 C10 1_555 1_555
O3 N3 1_555 1_555
O5 N4 1_555 1_555
O7 N5 1_555 1_555
C10 C11 1_555 1_555
C11 N3 1_555 1_555
C12 C11 1_555 1_555
H11 C12 1_555 1_555
C13 N4 1_555 1_555
C14 C13 1_555 1_555
H12 C14 1_555 1_555
C15 N5 1_555 1_555
O8 H13 1_555 1_555
H14 O8 1_555 1_555
N1A H1A 1_555 1_555
N2A H2A 1_555 1_555
C1A N1A 1_555 1_555
C2A N2A 1_555 1_555
C3A N1A 1_555 1_555
C4A C3A 1_555 1_555
H3A C4A 1_555 1_555
C5A C4A 1_555 1_555
H4A C5A 1_555 1_555
C6A C5A 1_555 1_555
H5A C6A 1_555 1_555
C7A C2A 1_555 1_555
H6A C7A 1_555 1_555
C8A C1A 1_555 1_555
H7A C8A 1_555 1_555
H8A C8A 1_555 1_555
C9A C9 1_555 1_555
H9A C9A 1_555 1_555
H10A C9A 1_555 1_555
N2 C1 1_555 1_555
C2 C3 1_555 1_555
C6 C7 1_555 1_555
C10 C15 1_555 1_555
C12 C13 1_555 1_555
C14 C15 1_555 1_555
N2A C1A 1_555 1_555
C2A C3A 1_555 1_555
C6A C7A 1_555 1_555
C8A C9A 1_555 1_555

#END
