
#######################################################################
#
#                 Cambridge Crystallographic Data Centre
#                                CCDC 
#
#######################################################################
#
# If this CIF has been generated from an entry in the Cambridge 
# Structural Database, then it will include bibliographic, chemical, 
# crystal, experimental, refinement or atomic coordinate data resulting 
# from the CCDC's data processing and validation procedures.
#
#######################################################################

data_HOMNAA
_chemical_formula_moiety         'C16 H20 F3 N1 O5 S1'
_chemical_name_systematic        
4-(4-Methoxyphenyl)-2,2,6-trimethyl-5-((trifluoromethyl)sulfonyl)tetrahydro-3aH-[1,3]dioxolo[4,5-c]pyrrole
_symmetry_cell_setting           orthorhombic
_symmetry_space_group_name_H-M   'P 21 21 21'
_symmetry_Int_Tables_number      19
_space_group_name_Hall           'P 2ac 2ab'
loop_
_symmetry_equiv_pos_site_id
_symmetry_equiv_pos_as_xyz
1 x,y,z
2 1/2-x,-y,1/2+z
3 1/2+x,1/2-y,-z
4 -x,1/2+y,1/2-z
_cell_length_a                   5.6196(6)
_cell_length_b                   15.0075(9)
_cell_length_c                   21.1057(15)
_cell_angle_alpha                90
_cell_angle_beta                 90
_cell_angle_gamma                90
_cell_volume                     1779.97
_cell_formula_units_Z            4
loop_
_atom_site_label
_atom_site_type_symbol
_atom_site_fract_x
_atom_site_fract_y
_atom_site_fract_z
C1 C 0.6238(15) 0.6165(4) 0.3308(3)
H1 H 0.7218 0.6720 0.3291
C2 C 0.5280(14) 0.5908(4) 0.2664(3)
H2 H 0.3666 0.6171 0.2596
C3 C 0.7122(13) 0.4565(4) 0.3124(3)
H3 H 0.8524 0.4472 0.2839
C4 C 0.7673(14) 0.5363(4) 0.3557(3)
H4 H 0.9416 0.5499 0.3554
C5 C 0.5346(16) 0.5961(5) 0.4351(3)
C6 C 0.3369(17) 0.5625(6) 0.4771(4)
H5 H 0.2353 0.6126 0.4897
H6 H 0.4051 0.5347 0.5149
H7 H 0.2417 0.5186 0.4539
C7 C 0.6750(18) 0.6687(5) 0.4654(4)
H8 H 0.8045 0.6867 0.4370
H9 H 0.7418 0.6473 0.5055
H10 H 0.5712 0.7199 0.4735
C8 C 0.6971(16) 0.6212(4) 0.2156(3)
H11 H 0.8521 0.5926 0.2218
H12 H 0.7157 0.6861 0.2180
H13 H 0.6336 0.6049 0.1740
C9 C 0.5801(17) 0.3949(5) 0.1590(4)
C10 C 0.6624(13) 0.3699(4) 0.3455(3)
C11 C 0.8226(13) 0.3016(4) 0.3420(3)
H14 H 0.9599 0.3084 0.3162
C12 C 0.7916(14) 0.2235(4) 0.3746(3)
H15 H 0.9070 0.1775 0.3714
C13 C 0.5924(15) 0.2119(4) 0.4119(3)
C14 C 0.4282(13) 0.2804(4) 0.4165(3)
H16 H 0.2927 0.2734 0.4429
C15 C 0.4589(13) 0.3581(4) 0.3834(3)
H17 H 0.3428 0.4039 0.3860
C16 C 0.3682(15) 0.1162(5) 0.4802(4)
H18 H 0.3644 0.1592 0.5151
H19 H 0.3741 0.0556 0.4974
H20 H 0.2248 0.1232 0.4542
F1 F 0.6843(11) 0.4583(3) 0.1300(2)
F2 F 0.4597(10) 0.3447(3) 0.1198(2)
F3 F 0.7404(10) 0.3446(4) 0.1864(2)
N1 N 0.5119(10) 0.4920(3) 0.2727(3)
O1 O 0.4332(10) 0.6231(3) 0.3765(2)
O2 O 0.6854(10) 0.5236(3) 0.4184(2)
O3 O 0.5751(10) 0.1320(3) 0.4418(2)
O4 O 0.2127(10) 0.4933(3) 0.1890(3)
O5 O 0.2913(10) 0.3541(3) 0.2469(2)
S1 S 0.3682(3) 0.43496(11) 0.22115(8)
loop_
_geom_bond_atom_site_label_1
_geom_bond_atom_site_label_2
_geom_bond_site_symmetry_1
_geom_bond_site_symmetry_2
C1 H1 1_555 1_555
C2 C1 1_555 1_555
H2 C2 1_555 1_555
C3 H3 1_555 1_555
C4 C1 1_555 1_555
H4 C4 1_555 1_555
C5 C6 1_555 1_555
C6 H5 1_555 1_555
H6 C6 1_555 1_555
H7 C6 1_555 1_555
C7 C5 1_555 1_555
H8 C7 1_555 1_555
H9 C7 1_555 1_555
H10 C7 1_555 1_555
C8 C2 1_555 1_555
H11 C8 1_555 1_555
H12 C8 1_555 1_555
H13 C8 1_555 1_555
C9 F1 1_555 1_555
C10 C3 1_555 1_555
C11 C10 1_555 1_555
H14 C11 1_555 1_555
C12 C11 1_555 1_555
H15 C12 1_555 1_555
C13 C12 1_555 1_555
C14 C13 1_555 1_555
H16 C14 1_555 1_555
C15 C10 1_555 1_555
H17 C15 1_555 1_555
C16 H18 1_555 1_555
H19 C16 1_555 1_555
H20 C16 1_555 1_555
F2 C9 1_555 1_555
F3 C9 1_555 1_555
N1 C2 1_555 1_555
O1 C1 1_555 1_555
O2 C4 1_555 1_555
O3 C13 1_555 1_555
O4 S1 1_555 1_555
O5 S1 1_555 1_555
S1 C9 1_555 1_555
C3 C4 1_555 1_555
C3 N1 1_555 1_555
C5 O1 1_555 1_555
C5 O2 1_555 1_555
C14 C15 1_555 1_555
C16 O3 1_555 1_555
N1 S1 1_555 1_555

#END
