
#######################################################################
#
#                 Cambridge Crystallographic Data Centre
#                                CCDC 
#
#######################################################################
#
# If this CIF has been generated from an entry in the Cambridge 
# Structural Database, then it will include bibliographic, chemical, 
# crystal, experimental, refinement or atomic coordinate data resulting 
# from the CCDC's data processing and validation procedures.
#
#######################################################################

data_HOMNUU
_chemical_formula_moiety         'C18 H20 N4 2+,2(C7 H5 O6 S1 1-)'
_chemical_name_systematic        
"2,2'-Butane-1,4-diylbis-1H-benzimidazol-3-ium bis(3-carboxy-4-hydroxybenzenesulfonate)"
_symmetry_cell_setting           triclinic
_symmetry_space_group_name_H-M   'P -1'
_symmetry_Int_Tables_number      2
_space_group_name_Hall           '-P 1'
loop_
_symmetry_equiv_pos_site_id
_symmetry_equiv_pos_as_xyz
1 x,y,z
2 -x,-y,-z
_cell_length_a                   8.5550(8)
_cell_length_b                   9.5823(11)
_cell_length_c                   9.7448(12)
_cell_angle_alpha                94.9090(10)
_cell_angle_beta                 96.807(2)
_cell_angle_gamma                95.3130(10)
_cell_volume                     786.032
_exptl_crystal_colour            colorless
_exptl_crystal_description       block
_cell_formula_units_Z            1
loop_
_atom_site_label
_atom_site_type_symbol
_atom_site_fract_x
_atom_site_fract_y
_atom_site_fract_z
N1 N 0.3944(3) 0.6432(2) 0.1362(2)
H1 H 0.4438 0.7219 0.1742
N2 N 0.3190(3) 0.4211(2) 0.0972(2)
H2 H 0.3116 0.3322 0.1055
C1 C 0.4133(3) 0.5171(3) 0.1807(3)
C2 C 0.2335(3) 0.4841(3) -0.0059(3)
C3 C 0.2819(4) 0.6273(3) 0.0187(3)
C4 C 0.2175(4) 0.7227(3) -0.0649(3)
H3 H 0.2480 0.8189 -0.0484
C5 C 0.1061(4) 0.6670(4) -0.1735(3)
H4 H 0.0605 0.7276 -0.2324
C6 C 0.0589(4) 0.5245(4) -0.1988(3)
H5 H -0.0166 0.4919 -0.2742
C7 C 0.1211(4) 0.4296(3) -0.1149(3)
H6 H 0.0888 0.3336 -0.1309
C8 C 0.5191(3) 0.4881(3) 0.3034(3)
H7 H 0.6200 0.5444 0.3072
H8 H 0.5381 0.3897 0.2945
C9 C 0.4490(3) 0.5209(3) 0.4381(3)
H9 H 0.4386 0.6209 0.4512
H10 H 0.3441 0.4708 0.4313
N1A N 0.6056(3) 0.3568(2) 0.8638(2)
H1A H 0.5562 0.2781 0.8258
N2A N 0.6810(3) 0.5789(2) 0.9028(2)
H2A H 0.6884 0.6678 0.8945
C1A C 0.5867(3) 0.4829(3) 0.8193(3)
C2A C 0.7665(3) 0.5159(3) 1.0059(3)
C3A C 0.7181(4) 0.3727(3) 0.9813(3)
C4A C 0.7825(4) 0.2773(3) 1.0649(3)
H3A H 0.7520 0.1811 1.0484
C5A C 0.8939(4) 0.3330(4) 1.1735(3)
H4A H 0.9395 0.2724 1.2324
C6A C 0.9411(4) 0.4755(4) 1.1988(3)
H5A H 1.0166 0.5081 1.2742
C7A C 0.8789(4) 0.5704(3) 1.1149(3)
H6A H 0.9112 0.6664 1.1309
C8A C 0.4809(3) 0.5119(3) 0.6966(3)
H7A H 0.3800 0.4556 0.6928
H8A H 0.4619 0.6103 0.7055
C9A C 0.5510(3) 0.4791(3) 0.5619(3)
H9A H 0.5614 0.3791 0.5488
H10A H 0.6559 0.5292 0.5687
O1 O -0.2643(2) 0.9741(2) 0.2009(2)
H11 H -0.3608 0.9687 0.1824
O2 O -0.3276(2) 0.8086(2) 0.3365(2)
O3 O -0.1010(3) 0.7269(2) 0.5054(2)
H12 H -0.1929 0.7347 0.4747
O4 O 0.4307(2) 0.9597(2) 0.1509(2)
O5 O 0.2602(2) 1.1446(2) 0.1302(2)
O6 O 0.4555(3) 1.1504(2) 0.3320(2)
S1 S 0.35057(8) 1.06486(7) 0.22526(7)
C10 C -0.2272(3) 0.8868(3) 0.2919(3)
C11 C -0.0574(3) 0.8866(3) 0.3331(3)
C12 C -0.0026(4) 0.8058(3) 0.4384(3)
C13 C 0.1604(4) 0.8075(3) 0.4771(3)
H13 H 0.1974 0.7541 0.5470
C14 C 0.2654(4) 0.8867(3) 0.4133(3)
H14 H 0.3734 0.8879 0.4406
C15 C 0.2114(3) 0.9660(3) 0.3073(3)
C16 C 0.0523(3) 0.9660(3) 0.2679(3)
H15 H 0.0169 1.0193 0.1972
loop_
_geom_bond_atom_site_label_1
_geom_bond_atom_site_label_2
_geom_bond_site_symmetry_1
_geom_bond_site_symmetry_2
N1 H1 1_555 1_555
N2 H2 1_555 1_555
C1 N1 1_555 1_555
C2 N2 1_555 1_555
C3 N1 1_555 1_555
C4 C3 1_555 1_555
H3 C4 1_555 1_555
C5 C4 1_555 1_555
H4 C5 1_555 1_555
C6 C5 1_555 1_555
H5 C6 1_555 1_555
C7 C2 1_555 1_555
H6 C7 1_555 1_555
C8 C1 1_555 1_555
H7 C8 1_555 1_555
H8 C8 1_555 1_555
C9 C8 1_555 1_555
H9 C9 1_555 1_555
H10 C9 1_555 1_555
O1 H11 1_555 1_555
O2 C10 1_555 1_555
O3 H12 1_555 1_555
O4 S1 1_555 1_555
O5 S1 1_555 1_555
O6 S1 1_555 1_555
S1 C15 1_555 1_555
C10 O1 1_555 1_555
C11 C10 1_555 1_555
C12 O3 1_555 1_555
C13 C12 1_555 1_555
H13 C13 1_555 1_555
C14 C13 1_555 1_555
H14 C14 1_555 1_555
C15 C14 1_555 1_555
C16 C11 1_555 1_555
H15 C16 1_555 1_555
N1A H1A 1_555 1_555
N2A H2A 1_555 1_555
C1A N1A 1_555 1_555
C2A N2A 1_555 1_555
C3A N1A 1_555 1_555
C4A C3A 1_555 1_555
H3A C4A 1_555 1_555
C5A C4A 1_555 1_555
H4A C5A 1_555 1_555
C6A C5A 1_555 1_555
H5A C6A 1_555 1_555
C7A C2A 1_555 1_555
H6A C7A 1_555 1_555
C8A C1A 1_555 1_555
H7A C8A 1_555 1_555
H8A C8A 1_555 1_555
C9A C9 1_555 1_555
H9A C9A 1_555 1_555
H10A C9A 1_555 1_555
N2 C1 1_555 1_555
C2 C3 1_555 1_555
C6 C7 1_555 1_555
C11 C12 1_555 1_555
C15 C16 1_555 1_555
N2A C1A 1_555 1_555
C2A C3A 1_555 1_555
C6A C7A 1_555 1_555
C8A C9A 1_555 1_555

#END
