
#######################################################################
#
#                 Cambridge Crystallographic Data Centre
#                                CCDC 
#
#######################################################################
#
# If this CIF has been generated from an entry in the Cambridge 
# Structural Database, then it will include bibliographic, chemical, 
# crystal, experimental, refinement or atomic coordinate data resulting 
# from the CCDC's data processing and validation procedures.
#
#######################################################################

data_HOMPUW
_chemical_formula_moiety         'C16 H16 N4 O2 2+,C7 H4 O6 S1 2-,2(H2 O1)'
_chemical_name_systematic        
'2-(2-(1H-Benzimidazol-3-ium-2-yl)-1,2-dihydroxyethyl)-1H-3,1-benzimidazol-3-ium 2-hydroxy-5-sulfonatobenzoate dihydrate'
_symmetry_cell_setting           triclinic
_symmetry_space_group_name_H-M   'P 1'
_symmetry_Int_Tables_number      1
_space_group_name_Hall           'P 1'
loop_
_symmetry_equiv_pos_site_id
_symmetry_equiv_pos_as_xyz
1 x,y,z
_cell_length_a                   7.6164(7)
_cell_length_b                   9.6694(8)
_cell_length_c                   10.0365(9)
_cell_angle_alpha                115.909(2)
_cell_angle_beta                 99.7190(10)
_cell_angle_gamma                103.9620(10)
_cell_volume                     612.545
_exptl_crystal_colour            colorless
_exptl_crystal_description       block
_cell_formula_units_Z            1
loop_
_atom_site_label
_atom_site_type_symbol
_atom_site_fract_x
_atom_site_fract_y
_atom_site_fract_z
N1 N 1.0655(4) 0.5547(4) 0.8033(3)
H1 H 1.0757 0.4782 0.8227
N2 N 0.9874(4) 0.6766(4) 0.6784(3)
H2 H 0.9394 0.6915 0.6039
N3 N 0.7803(4) 0.1374(4) 0.1207(3)
H3 H 0.7550 0.2049 0.0932
N4 N 0.8956(4) 0.0438(3) 0.2618(3)
H4 H 0.9573 0.0413 0.3403
O1 O 0.6894(3) 0.3472(3) 0.4502(3)
H5 H 0.6209 0.3243 0.4980
O2 O 0.9610(4) 0.4659(3) 0.3529(3)
H6 H 1.0434 0.4831 0.3132
C1 C 0.8761(5) 0.3678(4) 0.5193(4)
H7 H 0.8743 0.2806 0.5447
C2 C 0.9783(5) 0.3507(4) 0.3969(4)
H8 H 1.1133 0.3726 0.4421
C3 C 0.9754(5) 0.5327(4) 0.6655(4)
C4 C 1.0895(5) 0.8004(4) 0.8307(4)
C5 C 1.1398(5) 0.7220(4) 0.9100(4)
C6 C 1.2467(6) 0.8083(5) 1.0668(4)
H9 H 1.2797 0.7550 1.1195
C7 C 1.3004(6) 0.9748(5) 1.1389(5)
H10 H 1.3730 1.0368 1.2438
C8 C 1.2506(6) 1.0561(5) 1.0614(5)
H11 H 1.2898 1.1703 1.1156
C9 C 1.1448(6) 0.9704(5) 0.9068(5)
H12 H 1.1113 1.0242 0.8548
C10 C 0.8863(5) 0.1788(4) 0.2599(4)
C11 C 0.7893(5) -0.0924(4) 0.1159(4)
C12 C 0.7164(5) -0.0313(4) 0.0259(4)
C13 C 0.6021(5) -0.1358(5) -0.1282(4)
H13 H 0.5523 -0.0960 -0.1892
C14 C 0.5663(6) -0.3004(5) -0.1859(5)
H14 H 0.4914 -0.3742 -0.2890
C15 C 0.6396(7) -0.3606(5) -0.0936(5)
H15 H 0.6115 -0.4733 -0.1373
C16 C 0.7508(6) -0.2592(5) 0.0582(5)
H16 H 0.7981 -0.2996 0.1195
O3 O 0.4961(4) 0.4919(3) 0.2373(3)
O4 O 0.2099(4) 0.5108(3) 0.2083(3)
O5 O 0.7848(4) 0.7234(3) 0.4507(3)
H17 H 0.7204 0.6277 0.3843
O6 O 0.3447(4) 1.2085(4) 0.7630(3)
O7 O 0.4040(4) 1.2713(3) 0.5650(3)
O8 O 0.1259(3) 1.0459(3) 0.5022(3)
S1 S 0.32164(10) 1.14307(9) 0.59762(9)
C17 C 0.3859(5) 0.5704(4) 0.2743(4)
C18 C 0.4755(5) 0.7468(4) 0.4035(4)
C19 C 0.6713(5) 0.8129(5) 0.4815(4)
C20 C 0.7561(5) 0.9789(4) 0.5984(4)
H18 H 0.8857 1.0229 0.6524
C21 C 0.6467(5) 1.0767(4) 0.6330(4)
H19 H 0.7033 1.1869 0.7099
C22 C 0.4521(4) 1.0118(4) 0.5538(4)
C23 C 0.3675(5) 0.8468(4) 0.4408(4)
H20 H 0.2370 0.8027 0.3896
O9 O 0.0891(3) 0.3353(3) 0.8908(3)
H21 H 0.1321 0.3891 0.9899
H22 H 0.1720 0.2984 0.8561
O10 O 0.6587(4) 0.3261(4) 0.0216(3)
H23 H 0.6204 0.3803 0.0960
H24 H 0.5704 0.2851 -0.0637
loop_
_geom_bond_atom_site_label_1
_geom_bond_atom_site_label_2
_geom_bond_site_symmetry_1
_geom_bond_site_symmetry_2
N1 H1 1_555 1_555
N2 H2 1_555 1_555
N3 H3 1_555 1_555
N4 H4 1_555 1_555
O1 H5 1_555 1_555
O2 H6 1_555 1_555
C1 O1 1_555 1_555
H7 C1 1_555 1_555
C2 O2 1_555 1_555
H8 C2 1_555 1_555
C3 N1 1_555 1_555
C4 N2 1_555 1_555
C5 N1 1_555 1_555
C6 C5 1_555 1_555
H9 C6 1_555 1_555
C7 C6 1_555 1_555
H10 C7 1_555 1_555
C8 C7 1_555 1_555
H11 C8 1_555 1_555
C9 C4 1_555 1_555
H12 C9 1_555 1_555
C10 N3 1_555 1_555
C11 N4 1_555 1_555
C12 N3 1_555 1_555
C13 C12 1_555 1_555
H13 C13 1_555 1_555
C14 C13 1_555 1_555
H14 C14 1_555 1_555
C15 C14 1_555 1_555
H15 C15 1_555 1_555
C16 C11 1_555 1_555
H16 C16 1_555 1_555
O3 C17 1_555 1_555
O4 C17 1_555 1_555
O5 H17 1_555 1_555
O6 S1 1_555 1_555
O7 S1 1_555 1_555
O8 S1 1_555 1_555
S1 C22 1_555 1_555
C17 C18 1_555 1_555
C18 C19 1_555 1_555
C19 O5 1_555 1_555
C20 C19 1_555 1_555
H18 C20 1_555 1_555
C21 C20 1_555 1_555
H19 C21 1_555 1_555
C22 C21 1_555 1_555
C23 C18 1_555 1_555
H20 C23 1_555 1_555
O9 H21 1_555 1_555
H22 O9 1_555 1_555
O10 H23 1_555 1_555
H24 O10 1_555 1_555
N2 C3 1_555 1_555
N4 C10 1_555 1_555
C1 C2 1_555 1_555
C1 C3 1_555 1_555
C2 C10 1_555 1_555
C4 C5 1_555 1_555
C8 C9 1_555 1_555
C11 C12 1_555 1_555
C15 C16 1_555 1_555
C22 C23 1_555 1_555

#END
