
#######################################################################
#
#                 Cambridge Crystallographic Data Centre
#                                CCDC 
#
#######################################################################
#
# If this CIF has been generated from an entry in the Cambridge 
# Structural Database, then it will include bibliographic, chemical, 
# crystal, experimental, refinement or atomic coordinate data resulting 
# from the CCDC's data processing and validation procedures.
#
#######################################################################

data_HOMPOQ
_chemical_formula_moiety         'C16 H16 N4 O2 2+,C10 H6 O6 S2 2-,H2 O1'
_chemical_name_systematic        
"2,2'-(1,2-Dihydroxyethane-1,2-diyl)bis-1H-3,1-benzimidazol-3-ium naphthalene-1,5-disulfonate monohydrate"
_symmetry_cell_setting           monoclinic
_symmetry_space_group_name_H-M   'C 2/c'
_symmetry_Int_Tables_number      15
_space_group_name_Hall           '-C 2yn'
loop_
_symmetry_equiv_pos_site_id
_symmetry_equiv_pos_as_xyz
1 x,y,z
2 -x,y,1/2-z
3 1/2+x,1/2+y,z
4 1/2-x,1/2+y,1/2-z
5 -x,-y,-z
6 x,-y,1/2+z
7 1/2-x,1/2-y,-z
8 1/2+x,1/2-y,1/2+z
_cell_length_a                   15.7194(14)
_cell_length_b                   12.3693(11)
_cell_length_c                   14.5063(17)
_cell_angle_alpha                90
_cell_angle_beta                 112.6360(10)
_cell_angle_gamma                90
_cell_volume                     2603.3
_exptl_crystal_colour            colorless
_exptl_crystal_description       block
_cell_formula_units_Z            4
loop_
_atom_site_label
_atom_site_type_symbol
_atom_site_fract_x
_atom_site_fract_y
_atom_site_fract_z
N1 N 0.6278(2) 0.8154(3) 0.5968(3)
H1 H 0.6703 0.8237 0.6553
N2 N 0.5581(2) 0.7680(3) 0.4418(3)
H2 H 0.5482 0.7406 0.3841
O1 O 0.7843(4) 0.6989(5) 0.6184(4)
H3 H 0.7597 0.6628 0.6486
C1 C 0.7257(3) 0.7128(4) 0.5247(3)
H4 H 0.7121 0.6430 0.4902
C2 C 0.6379(3) 0.7643(3) 0.5208(3)
C3 C 0.4932(3) 0.8231(3) 0.4677(3)
C4 C 0.5384(3) 0.8532(4) 0.5669(3)
C5 C 0.4935(3) 0.9082(4) 0.6171(4)
H5 H 0.5233 0.9272 0.6839
C6 C 0.4024(4) 0.9338(4) 0.5643(4)
H6 H 0.3701 0.9721 0.5957
C7 C 0.3578(3) 0.9038(4) 0.4656(4)
H7 H 0.2960 0.9219 0.4325
C8 C 0.4017(3) 0.8482(4) 0.4142(4)
H8 H 0.3715 0.8288 0.3475
N1F N 0.8722(2) 0.6846(3) 0.4032(3)
H1F H 0.8297 0.6763 0.3447
N2F N 0.9419(2) 0.7320(3) 0.5582(3)
H2F H 0.9518 0.7594 0.6159
O1F O 0.7157(4) 0.8011(5) 0.3816(4)
H3F H 0.7403 0.8372 0.3514
C1F C 0.7743(3) 0.7872(4) 0.4753(3)
H4F H 0.7879 0.8570 0.5098
C2F C 0.8621(3) 0.7357(3) 0.4792(3)
C3F C 1.0068(3) 0.6769(3) 0.5323(3)
C4F C 0.9616(3) 0.6468(4) 0.4331(3)
C5F C 1.0065(3) 0.5918(4) 0.3829(4)
H5F H 0.9767 0.5728 0.3161
C6F C 1.0976(4) 0.5662(4) 0.4357(4)
H6F H 1.1299 0.5279 0.4043
C7F C 1.1422(3) 0.5962(4) 0.5344(4)
H7F H 1.2040 0.5781 0.5675
C8F C 1.0983(3) 0.6518(4) 0.5858(4)
H8F H 1.1285 0.6712 0.6525
O3 O 0.3465(2) 0.4300(3) 0.7245(2)
O4 O 0.2837(3) 0.5843(3) 0.7758(3)
O5 O 0.2232(2) 0.4059(4) 0.7806(3)
S1 S 0.30258(8) 0.47000(12) 0.78932(9)
C9 C 0.3563(3) 0.3933(4) 0.9776(4)
H11 H 0.2988 0.3602 0.9537
C10 C 0.3829(3) 0.4539(4) 0.9150(3)
C11 C 0.4699(3) 0.5067(4) 0.9483(3)
C12 C 0.5003(3) 0.5715(4) 0.8858(3)
H12 H 0.4617 0.5810 0.8191
C13 C 0.5842(3) 0.6196(4) 0.9211(4)
H13 H 0.6027 0.6612 0.8787
O3D O 0.6535(2) 0.5700(3) 1.2755(2)
O4D O 0.7163(3) 0.4157(3) 1.2242(3)
O5D O 0.7768(2) 0.5941(4) 1.2194(3)
S1D S 0.69742(8) 0.53000(12) 1.21068(9)
C9D C 0.6437(3) 0.6067(4) 1.0224(4)
H11D H 0.7012 0.6398 1.0463
C10D C 0.6171(3) 0.5461(4) 1.0850(3)
C11D C 0.5301(3) 0.4933(4) 1.0517(3)
C12D C 0.4997(3) 0.4285(4) 1.1142(3)
H12D H 0.5383 0.4190 1.1809
C13D C 0.4158(3) 0.3804(4) 1.0789(4)
H13D H 0.3973 0.3388 1.1213
O6 O 0.0000 0.8201(4) 0.7500
H14 H 0.0461 0.8602 0.7577
H14A H -0.0461 0.8602 0.7423
O2? O 0.7127(4) 0.6114(5) 0.4835(5)
H9? H 0.6954 0.6164 0.4226
H10? H 0.7664 0.7057 0.5953
loop_
_geom_bond_atom_site_label_1
_geom_bond_atom_site_label_2
_geom_bond_site_symmetry_1
_geom_bond_site_symmetry_2
N1 H1 1_555 1_555
N2 H2 1_555 1_555
O1 H3 1_555 1_555
C1 O1 1_555 1_555
H4 C1 1_555 1_555
C2 N1 1_555 1_555
C3 N2 1_555 1_555
C4 N1 1_555 1_555
C5 C4 1_555 1_555
H5 C5 1_555 1_555
C6 C5 1_555 1_555
H6 C6 1_555 1_555
C7 C6 1_555 1_555
H7 C7 1_555 1_555
C8 C3 1_555 1_555
H8 C8 1_555 1_555
O3 S1 1_555 1_555
O4 S1 1_555 1_555
O5 S1 1_555 1_555
S1 C10 1_555 1_555
C9 H11 1_555 1_555
C10 C9 1_555 1_555
C11 C10 1_555 1_555
C12 C11 1_555 1_555
H12 C12 1_555 1_555
C13 C12 1_555 1_555
H13 C13 1_555 1_555
O6 H14 1_555 1_555
N1F H1F 1_555 1_555
N2F H2F 1_555 1_555
O1F H3F 1_555 1_555
C1F C1 1_555 1_555
H4F C1F 1_555 1_555
C2F N1F 1_555 1_555
C3F N2F 1_555 1_555
C4F N1F 1_555 1_555
C5F C4F 1_555 1_555
H5F C5F 1_555 1_555
C6F C5F 1_555 1_555
H6F C6F 1_555 1_555
C7F C6F 1_555 1_555
H7F C7F 1_555 1_555
C8F C3F 1_555 1_555
H8F C8F 1_555 1_555
O3D S1D 1_555 1_555
O4D S1D 1_555 1_555
O5D S1D 1_555 1_555
S1D C10D 1_555 1_555
C9D C13 1_555 1_555
H11D C9D 1_555 1_555
C10D C9D 1_555 1_555
C11D C11 1_555 1_555
C12D C11D 1_555 1_555
H12D C12D 1_555 1_555
C13D C9 1_555 1_555
H13D C13D 1_555 1_555
H14A O6 1_555 1_555
N2 C2 1_555 1_555
C1 C2 1_555 1_555
C3 C4 1_555 1_555
C7 C8 1_555 1_555
N2F C2F 1_555 1_555
O1F C1F 1_555 1_555
C1F C2F 1_555 1_555
C3F C4F 1_555 1_555
C7F C8F 1_555 1_555
C10D C11D 1_555 1_555
C12D C13D 1_555 1_555

#END
