
#######################################################################
#
#                 Cambridge Crystallographic Data Centre
#                                CCDC 
#
#######################################################################
#
# If this CIF has been generated from an entry in the Cambridge 
# Structural Database, then it will include bibliographic, chemical, 
# crystal, experimental, refinement or atomic coordinate data resulting 
# from the CCDC's data processing and validation procedures.
#
#######################################################################

data_HOMPAC
_chemical_formula_moiety         
'2(C18 H20 N4 2+),1.5(C2 O4 2-),C2 H1 O4 1-,4(C2 H2 O4),4(H2 O1)'
_chemical_name_systematic        
"bis(2,2'-Butane-1,4-diylbis(1H-3,1-benzimidazol-3-ium)) sesquikis(oxalate) (hydrogen oxalate) tetrakis(oxalic acid) tetrahydrate"
_symmetry_cell_setting           monoclinic
_symmetry_space_group_name_H-M   'C 2/c'
_symmetry_Int_Tables_number      15
_space_group_name_Hall           '-C 2yn'
loop_
_symmetry_equiv_pos_site_id
_symmetry_equiv_pos_as_xyz
1 x,y,z
2 -x,y,1/2-z
3 1/2+x,1/2+y,z
4 1/2-x,1/2+y,1/2-z
5 -x,-y,-z
6 x,-y,1/2+z
7 1/2-x,1/2-y,-z
8 1/2+x,1/2-y,1/2+z
_cell_length_a                   32.449(3)
_cell_length_b                   18.3311(17)
_cell_length_c                   20.680(2)
_cell_angle_alpha                90
_cell_angle_beta                 112.2720(10)
_cell_angle_gamma                90
_cell_volume                     11383.3
_exptl_crystal_colour            colorless
_exptl_crystal_description       block
_cell_formula_units_Z            8
loop_
_atom_site_label
_atom_site_type_symbol
_atom_site_fract_x
_atom_site_fract_y
_atom_site_fract_z
N1 N 0.66871(14) 0.7813(3) 0.3912(2)
H1 H 0.6607 0.8264 0.3868
N2 N 0.66528(15) 0.6647(3) 0.3964(2)
H2 H 0.6550 0.6215 0.3965
N3 N 0.46247(15) 0.8057(3) 0.4804(2)
H3 H 0.4741 0.8480 0.4808
N4 N 0.45504(14) 0.6903(2) 0.4848(2)
H4 H 0.4613 0.6446 0.4883
C1 C 0.64234(18) 0.7252(3) 0.3878(3)
C2 C 0.70821(18) 0.6814(3) 0.4053(3)
C3 C 0.71108(18) 0.7566(3) 0.4028(3)
C4 C 0.75048(19) 0.7914(3) 0.4097(3)
H5 H 0.7521 0.8419 0.4070
C5 C 0.78639(19) 0.7484(4) 0.4207(3)
H6 H 0.8136 0.7696 0.4262
C6 C 0.7831(2) 0.6740(4) 0.4238(3)
H7 H 0.8084 0.6459 0.4313
C7 C 0.7444(2) 0.6395(3) 0.4163(3)
H8 H 0.7429 0.5890 0.4188
C8 C 0.48393(18) 0.7437(3) 0.4897(3)
C9 C 0.41385(17) 0.7189(3) 0.4733(3)
C10 C 0.41822(18) 0.7934(3) 0.4698(3)
C11 C 0.3825(2) 0.8395(3) 0.4579(3)
H9 H 0.3854 0.8899 0.4562
C12 C 0.3425(2) 0.8077(4) 0.4485(3)
H10 H 0.3176 0.8373 0.4385
C13 C 0.33791(19) 0.7334(4) 0.4535(3)
H11 H 0.3104 0.7144 0.4491
C14 C 0.37311(18) 0.6871(3) 0.4649(3)
H12 H 0.3700 0.6368 0.4669
C15 C 0.59461(18) 0.7311(3) 0.3770(3)
H13 H 0.5783 0.6917 0.3468
H14 H 0.5829 0.7768 0.3536
C16 C 0.58693(17) 0.7278(3) 0.4455(3)
H15 H 0.5960 0.6803 0.4668
H16 H 0.6052 0.7643 0.4774
C17 C 0.53870(17) 0.7407(3) 0.4338(3)
H17 H 0.5299 0.7888 0.4137
H18 H 0.5203 0.7050 0.4008
C18 C 0.53094(18) 0.7353(4) 0.5008(3)
H19 H 0.5414 0.6882 0.5222
H20 H 0.5481 0.7727 0.5328
N5 N 0.08456(14) 0.7757(3) 0.3552(2)
H21 H 0.0961 0.8182 0.3567
N6 N 0.07778(15) 0.6595(3) 0.3577(2)
H22 H 0.0843 0.6139 0.3610
N7 N 0.29224(14) 0.7648(2) 0.2751(2)
H23 H 0.2830 0.8087 0.2754
N8 N 0.29324(14) 0.6482(2) 0.2713(2)
H24 H 0.2846 0.6035 0.2683
C19 C 0.10616(18) 0.7134(3) 0.3629(3)
C20 C 0.03624(19) 0.6878(4) 0.3464(3)
C21 C 0.03990(18) 0.7621(3) 0.3443(3)
C22 C 0.0038(2) 0.8077(4) 0.3331(3)
H25 H 0.0061 0.8582 0.3313
C23 C -0.0358(2) 0.7734(5) 0.3245(3)
H26 H -0.0610 0.8015 0.3169
C24 C -0.0386(2) 0.7011(5) 0.3269(4)
H27 H -0.0661 0.6815 0.3214
C25 C -0.0042(2) 0.6531(4) 0.3367(3)
H28 H -0.0074 0.6027 0.3369
C26 C 0.26756(18) 0.7057(3) 0.2668(3)
C27 C 0.33561(18) 0.6701(3) 0.2813(3)
C28 C 0.33523(18) 0.7459(3) 0.2833(3)
C29 C 0.37284(19) 0.7866(3) 0.2931(3)
H29 H 0.3729 0.8372 0.2954
C30 C 0.4105(2) 0.7470(4) 0.2992(3)
H30 H 0.4365 0.7725 0.3049
C31 C 0.4115(2) 0.6728(4) 0.2973(3)
H31 H 0.4378 0.6491 0.3018
C32 C 0.3736(2) 0.6323(3) 0.2886(3)
H32 H 0.3740 0.5816 0.2878
C33 C 0.22026(17) 0.7039(3) 0.2560(3)
H33 H 0.2066 0.6614 0.2282
H34 H 0.2058 0.7468 0.2298
C34 C 0.21232(17) 0.7015(3) 0.3243(3)
H35 H 0.2227 0.6552 0.3476
H36 H 0.2291 0.7401 0.3550
C35 C 0.16354(18) 0.7104(3) 0.3104(3)
H37 H 0.1468 0.6731 0.2779
H38 H 0.1536 0.7575 0.2887
C36 C 0.15387(17) 0.7052(3) 0.3763(3)
H39 H 0.1641 0.6582 0.3982
H40 H 0.1705 0.7428 0.4087
O1 O 0.64233(15) 0.5144(2) 0.0827(3)
H41 H 0.6280 0.4923 0.1017
O2 O 0.68188(16) 0.4125(3) 0.1088(3)
O3 O 0.69597(15) 0.5672(3) 0.0227(3)
O4 O 0.73611(14) 0.4672(2) 0.0509(2)
H42 H 0.7508 0.4881 0.0319
C37 C 0.6744(2) 0.4742(4) 0.0818(4)
C38 C 0.7033(2) 0.5079(4) 0.0484(4)
O5 O 0.71195(13) 0.49823(19) 0.2801(2)
O6 O 0.74062(13) 0.3864(2) 0.3006(2)
O7 O 0.75997(13) 0.5272(2) 0.2048(2)
O8 O 0.79280(12) 0.41816(19) 0.2330(2)
H43 H 0.8069 0.4324 0.2099
C39 C 0.73693(19) 0.4480(3) 0.2762(3)
C40 C 0.76480(18) 0.4689(3) 0.2344(3)
O9 O 0.61600(12) 0.5447(2) 0.4197(2)
O10 O 0.58310(11) 0.43501(19) 0.3973(2)
H44 H 0.5684 0.4508 0.4189
O11 O 0.66515(13) 0.5072(2) 0.3485(2)
H45 H 0.6798 0.4911 0.3269
O12 O 0.63739(14) 0.3943(2) 0.3349(2)
C41 C 0.61118(18) 0.4846(3) 0.3951(3)
C42 C 0.63957(19) 0.4570(3) 0.3552(3)
O13 O 0.58853(12) 1.0141(2) 0.4045(2)
O14 O 0.62135(13) 0.9068(2) 0.4318(2)
O15 O 0.62324(14) 1.0339(2) 0.3089(2)
O16 O 0.65835(13) 0.9277(2) 0.3376(2)
C43 C 0.61248(17) 0.9650(3) 0.3976(3)
C44 C 0.6338(2) 0.9767(3) 0.3430(3)
O17 O 0.64109(16) 0.0557(3) 0.2027(3)
H46 H 0.6322 0.0465 0.2340
O18 O 0.5885(7) -0.021(2) 0.1487(7)
O19 O 0.66085(16) 0.0084(3) 0.0821(3)
O20 O 0.60616(14) 0.0941(3) 0.0423(2)
H47 H 0.6157 0.1007 0.0113
C45 C 0.6135(3) 0.0285(5) 0.1440(4)
C46 C 0.6299(3) 0.0443(4) 0.0850(4)
O22 O 0.51009(14) 0.9242(2) 0.4590(3)
O23 O 0.53931(13) 1.0360(2) 0.4716(2)
H48 H 0.5542 1.0196 0.4507
C47 C 0.5130(2) 0.9833(4) 0.4798(4)
O22D O 0.48991(14) 1.0758(2) 0.5410(3)
O23D O 0.46069(13) 0.9640(2) 0.5284(2)
H48D H 0.4458 0.9804 0.5493
C47D C 0.4870(2) 1.0167(4) 0.5202(4)
O24 O 0.46588(12) 0.5457(2) 0.5339(2)
O25 O 0.49768(13) 0.4352(2) 0.5604(2)
C48 C 0.48941(19) 0.4942(3) 0.5276(3)
O24D O 0.53412(12) 0.4543(2) 0.4661(2)
O25D O 0.50232(13) 0.5648(2) 0.4396(2)
C48D C 0.51059(19) 0.5058(3) 0.4724(3)
O26 O 0.51780(12) 0.5721(2) 0.3303(2)
H49 H 0.5098 0.5695 0.3633
O27 O 0.46308(17) 0.4931(3) 0.2815(3)
C49 C 0.4938(2) 0.5310(3) 0.2817(3)
O26A O 0.48220(12) 0.5721(2) 0.1697(2)
H49A H 0.4902 0.5695 0.1367
O27A O 0.53692(17) 0.4931(3) 0.2185(3)
C49A C 0.5062(2) 0.5310(3) 0.2183(3)
O28 O 0.58239(18) 0.4543(3) 0.1255(3)
H50 H 0.6014 0.4216 0.1460
H51 H 0.5688 0.4661 0.1519
O29 O 0.64004(19) 0.3519(3) 0.1892(4)
H52 H 0.6551 0.3769 0.1713
H53 H 0.6430 0.3705 0.2284
O30 O 0.73781(14) 0.6399(3) 0.9396(3)
H54 H 0.7235 0.6119 0.9565
H55 H 0.7351 0.6242 0.8995
O31 O 0.79403(15) 0.5299(3) 1.0083(3)
H56 H 0.7758 0.5635 0.9875
H57 H 0.8079 0.5171 0.9825
O21? O 0.5721(8) 0.030(2) 0.1384(8)
loop_
_geom_bond_atom_site_label_1
_geom_bond_atom_site_label_2
_geom_bond_site_symmetry_1
_geom_bond_site_symmetry_2
N1 H1 1_555 1_555
N2 H2 1_555 1_555
N3 H3 1_555 1_555
N4 H4 1_555 1_555
C1 N1 1_555 1_555
C2 N2 1_555 1_555
C3 N1 1_555 1_555
C4 C3 1_555 1_555
H5 C4 1_555 1_555
C5 C4 1_555 1_555
H6 C5 1_555 1_555
C6 C5 1_555 1_555
H7 C6 1_555 1_555
C7 C2 1_555 1_555
H8 C7 1_555 1_555
C8 N3 1_555 1_555
C9 N4 1_555 1_555
C10 N3 1_555 1_555
C11 C10 1_555 1_555
H9 C11 1_555 1_555
C12 C11 1_555 1_555
H10 C12 1_555 1_555
C13 C12 1_555 1_555
H11 C13 1_555 1_555
C14 C9 1_555 1_555
H12 C14 1_555 1_555
C15 C1 1_555 1_555
H13 C15 1_555 1_555
H14 C15 1_555 1_555
C16 C15 1_555 1_555
H15 C16 1_555 1_555
H16 C16 1_555 1_555
C17 C16 1_555 1_555
H17 C17 1_555 1_555
H18 C17 1_555 1_555
C18 C8 1_555 1_555
H19 C18 1_555 1_555
H20 C18 1_555 1_555
N5 H21 1_555 1_555
N6 H22 1_555 1_555
N7 H23 1_555 1_555
N8 H24 1_555 1_555
C19 N5 1_555 1_555
C20 N6 1_555 1_555
C21 N5 1_555 1_555
C22 C21 1_555 1_555
H25 C22 1_555 1_555
C23 C22 1_555 1_555
H26 C23 1_555 1_555
C24 C23 1_555 1_555
H27 C24 1_555 1_555
C25 C20 1_555 1_555
H28 C25 1_555 1_555
C26 N7 1_555 1_555
C27 N8 1_555 1_555
C28 N7 1_555 1_555
C29 C28 1_555 1_555
H29 C29 1_555 1_555
C30 C29 1_555 1_555
H30 C30 1_555 1_555
C31 C30 1_555 1_555
H31 C31 1_555 1_555
C32 C27 1_555 1_555
H32 C32 1_555 1_555
C33 C26 1_555 1_555
H33 C33 1_555 1_555
H34 C33 1_555 1_555
C34 C33 1_555 1_555
H35 C34 1_555 1_555
H36 C34 1_555 1_555
C35 C34 1_555 1_555
H37 C35 1_555 1_555
H38 C35 1_555 1_555
C36 C19 1_555 1_555
H39 C36 1_555 1_555
H40 C36 1_555 1_555
O1 H41 1_555 1_555
O2 C37 1_555 1_555
O3 C38 1_555 1_555
O4 H42 1_555 1_555
C37 O1 1_555 1_555
C38 O4 1_555 1_555
O5 C39 1_555 1_555
O6 C39 1_555 1_555
O7 C40 1_555 1_555
O8 H43 1_555 1_555
C39 C40 1_555 1_555
C40 O8 1_555 1_555
O9 C41 1_555 1_555
O10 H44 1_555 1_555
O11 H45 1_555 1_555
O12 C42 1_555 1_555
C41 O10 1_555 1_555
C42 O11 1_555 1_555
O13 C43 1_555 1_555
O14 C43 1_555 1_555
O15 C44 1_555 1_555
O16 C44 1_555 1_555
C43 C44 1_555 1_555
O17 H46 1_555 1_555
O18 C45 1_555 1_555
O19 C46 1_555 1_555
O20 H47 1_555 1_555
C45 O17 1_555 1_555
C46 O20 1_555 1_555
O22 C47 1_555 1_555
O23 H48 1_555 1_555
C47 O23 1_555 1_555
O24 C48 1_555 1_555
O25 C48 1_555 1_555
C48 C48D 1_555 1_555
O26 H49 1_555 1_555
O27 C49 1_555 1_555
C49 O26 1_555 1_555
O28 H50 1_555 1_555
H51 O28 1_555 1_555
O29 H52 1_555 1_555
H53 O29 1_555 1_555
O30 H54 1_555 1_555
H55 O30 1_555 1_555
O31 H56 1_555 1_555
H57 O31 1_555 1_555
O22D C47D 1_555 1_555
O23D H48D 1_555 1_555
C47D C47 1_555 1_555
O24D C48D 1_555 1_555
O25D C48D 1_555 1_555
O26A H49A 1_555 1_555
O27A C49A 1_555 1_555
C49A C49 1_555 1_555
N2 C1 1_555 1_555
N4 C8 1_555 1_555
C2 C3 1_555 1_555
C6 C7 1_555 1_555
C9 C10 1_555 1_555
C13 C14 1_555 1_555
C17 C18 1_555 1_555
N6 C19 1_555 1_555
N8 C26 1_555 1_555
C20 C21 1_555 1_555
C24 C25 1_555 1_555
C27 C28 1_555 1_555
C31 C32 1_555 1_555
C35 C36 1_555 1_555
C37 C38 1_555 1_555
C41 C42 1_555 1_555
C45 C46 1_555 1_555
O23D C47D 1_555 1_555
O26A C49A 1_555 1_555

#END
