
#######################################################################
#
#                 Cambridge Crystallographic Data Centre
#                                CCDC 
#
#######################################################################
#
# If this CIF has been generated from an entry in the Cambridge 
# Structural Database, then it will include bibliographic, chemical, 
# crystal, experimental, refinement or atomic coordinate data resulting 
# from the CCDC's data processing and validation procedures.
#
#######################################################################

data_HOMWAJ
_chemical_formula_moiety         'C25 H22 N2 O2 S1'
_chemical_name_systematic        
2-(1H-indol-3-ylmethyl)-3-methyl-1-((4-methylphenyl)sulfonyl)-1H-indole
_symmetry_cell_setting           monoclinic
_symmetry_space_group_name_H-M   'P 21/n'
_symmetry_Int_Tables_number      14
_space_group_name_Hall           '-P 2yn'
loop_
_symmetry_equiv_pos_site_id
_symmetry_equiv_pos_as_xyz
1 x,y,z
2 1/2-x,1/2+y,1/2-z
3 -x,-y,-z
4 1/2+x,1/2-y,1/2+z
_cell_length_a                   13.247(3)
_cell_length_b                   11.312(3)
_cell_length_c                   14.218(4)
_cell_angle_alpha                90
_cell_angle_beta                 109.780(16)
_cell_angle_gamma                90
_cell_volume                     2004.86
_exptl_crystal_colour            colorless
_exptl_crystal_description       block
_cell_formula_units_Z            4
loop_
_atom_site_label
_atom_site_type_symbol
_atom_site_fract_x
_atom_site_fract_y
_atom_site_fract_z
S1 S 0.52035(2) 0.29069(2) 0.78214(2)
O1 O 0.44265(7) 0.33996(8) 0.82083(6)
O2 O 0.61237(7) 0.23232(8) 0.84898(6)
N1 N 0.56725(8) 0.40224(9) 0.73236(7)
N2 N 0.49416(9) 0.68342(10) 0.95821(8)
H1 H 0.5253(14) 0.6801(16) 1.0233(14)
C1 C 0.45424(9) 0.19433(10) 0.68463(8)
C2 C 0.50690(9) 0.09301(11) 0.67114(9)
H2 H 0.5784 0.0772 0.7130
C3 C 0.45290(10) 0.01533(11) 0.59517(9)
H3 H 0.4880 -0.0545 0.5854
C4 C 0.34810(10) 0.03801(11) 0.53291(9)
C5 C 0.29708(10) 0.14071(11) 0.54865(9)
H4 H 0.2258 0.1571 0.5065
C6 C 0.34886(9) 0.21879(10) 0.62462(9)
H5 H 0.3134 0.2876 0.6357
C7 C 0.28982(11) -0.04818(13) 0.45212(11)
H6 H 0.3389 -0.1116 0.4488
H7 H 0.2636 -0.0070 0.3877
H8 H 0.2290 -0.0821 0.4673
C8 C 0.65620(9) 0.38872(10) 0.69891(9)
C9 C 0.73595(10) 0.30236(11) 0.72069(10)
H9 H 0.7364 0.2376 0.7633
C10 C 0.81499(10) 0.31541(12) 0.67709(11)
H10 H 0.8706 0.2582 0.6903
C11 C 0.81451(10) 0.41062(13) 0.61437(11)
H11 H 0.8696 0.4170 0.5859
C12 C 0.73478(10) 0.49592(12) 0.59309(10)
H12 H 0.7347 0.5606 0.5504
C13 C 0.65440(9) 0.48462(10) 0.63584(9)
C14 C 0.56187(9) 0.55648(10) 0.62834(8)
C15 C 0.53323(11) 0.66910(11) 0.57007(10)
H13 H 0.5893 0.7281 0.5990
H14 H 0.4647 0.6986 0.5727
H15 H 0.5269 0.6543 0.5004
C16 C 0.50923(9) 0.50547(10) 0.68475(8)
C17 C 0.41144(9) 0.55137(11) 0.70312(9)
H16 H 0.3657 0.4835 0.7065
H17 H 0.3701 0.6007 0.6455
C18 C 0.43458(9) 0.62353(10) 0.79740(9)
C19 C 0.39894(9) 0.74262(11) 0.80243(9)
C20 C 0.33922(10) 0.82427(11) 0.73120(10)
H18 H 0.3119 0.8035 0.6624
C21 C 0.32046(11) 0.93557(12) 0.76229(10)
H19 H 0.2813 0.9919 0.7142
C22 C 0.35854(10) 0.96638(11) 0.86402(10)
H20 H 0.3442 1.0432 0.8834
C23 C 0.41628(10) 0.88759(11) 0.93650(10)
H21 H 0.4410 0.9082 1.0053
C24 C 0.43684(9) 0.77648(11) 0.90436(9)
C25 C 0.49202(10) 0.59173(11) 0.89363(9)
H22 H 0.5256 0.5172 0.9131
loop_
_geom_bond_atom_site_label_1
_geom_bond_atom_site_label_2
_geom_bond_site_symmetry_1
_geom_bond_site_symmetry_2
S1 O1 1_555 1_555
O2 S1 1_555 1_555
N1 S1 1_555 1_555
N2 H1 1_555 1_555
C1 S1 1_555 1_555
C2 C1 1_555 1_555
H2 C2 1_555 1_555
C3 C2 1_555 1_555
H3 C3 1_555 1_555
C4 C3 1_555 1_555
C5 C4 1_555 1_555
H4 C5 1_555 1_555
C6 C1 1_555 1_555
H5 C6 1_555 1_555
C7 C4 1_555 1_555
H6 C7 1_555 1_555
H7 C7 1_555 1_555
H8 C7 1_555 1_555
C8 N1 1_555 1_555
C9 C8 1_555 1_555
H9 C9 1_555 1_555
C10 C9 1_555 1_555
H10 C10 1_555 1_555
C11 C10 1_555 1_555
H11 C11 1_555 1_555
C12 C11 1_555 1_555
H12 C12 1_555 1_555
C13 C8 1_555 1_555
C14 C13 1_555 1_555
C15 C14 1_555 1_555
H13 C15 1_555 1_555
H14 C15 1_555 1_555
H15 C15 1_555 1_555
C16 N1 1_555 1_555
C17 C16 1_555 1_555
H16 C17 1_555 1_555
H17 C17 1_555 1_555
C18 C17 1_555 1_555
C19 C18 1_555 1_555
C20 C19 1_555 1_555
H18 C20 1_555 1_555
C21 C20 1_555 1_555
H19 C21 1_555 1_555
C22 C21 1_555 1_555
H20 C22 1_555 1_555
C23 C22 1_555 1_555
H21 C23 1_555 1_555
C24 N2 1_555 1_555
C25 N2 1_555 1_555
H22 C25 1_555 1_555
C5 C6 1_555 1_555
C12 C13 1_555 1_555
C14 C16 1_555 1_555
C18 C25 1_555 1_555
C19 C24 1_555 1_555
C23 C24 1_555 1_555

#END
