
#######################################################################
#
#                 Cambridge Crystallographic Data Centre
#                                CCDC 
#
#######################################################################
#
# If this CIF has been generated from an entry in the Cambridge 
# Structural Database, then it will include bibliographic, chemical, 
# crystal, experimental, refinement or atomic coordinate data resulting 
# from the CCDC's data processing and validation procedures.
#
#######################################################################

data_HOMZOZ
_chemical_name_common            
1-Methyl-3-(1H-pyrrol-1-yl)-1,3-dihydro-2H-indol-2-one
_chemical_formula_moiety         'C13 H12 N2 O1'
_chemical_name_systematic        1-Methyl-3-(pyrrol-1-yl)indolin-2-one
_symmetry_cell_setting           monoclinic
_symmetry_space_group_name_H-M   'P 21/c'
_symmetry_Int_Tables_number      14
_space_group_name_Hall           '-P 2ybc'
loop_
_symmetry_equiv_pos_site_id
_symmetry_equiv_pos_as_xyz
1 x,y,z
2 -x,1/2+y,1/2-z
3 -x,-y,-z
4 x,1/2-y,1/2+z
_cell_length_a                   5.6739(9)
_cell_length_b                   27.118(4)
_cell_length_c                   13.708(2)
_cell_angle_alpha                90
_cell_angle_beta                 90.356(4)
_cell_angle_gamma                90
_cell_volume                     2109.14
_exptl_crystal_colour            colorless
_exptl_crystal_description       block
_chemical_melting_point          '148.5-149 deg.C'
_cell_formula_units_Z            8
loop_
_atom_site_label
_atom_site_type_symbol
_atom_site_fract_x
_atom_site_fract_y
_atom_site_fract_z
O1 O -0.2117(2) 0.62933(6) 0.63480(11)
N1 N 0.0673(3) 0.61738(6) 0.75517(12)
N2 N 0.1501(3) 0.57264(6) 0.52185(12)
C1 C -0.0429(3) 0.60729(7) 0.66911(15)
C2 C 0.0834(3) 0.56296(7) 0.62210(14)
H1 H -0.0255 0.5340 0.6230
C3 C 0.2831(3) 0.55339(7) 0.69212(14)
C4 C 0.4630(4) 0.51928(7) 0.69104(15)
H2 H 0.4774 0.4967 0.6384
C5 C 0.6238(4) 0.51839(8) 0.76853(15)
H3 H 0.7483 0.4950 0.7690
C6 C 0.6019(4) 0.55160(8) 0.84468(15)
H4 H 0.7133 0.5507 0.8967
C7 C 0.4215(4) 0.58626(8) 0.84708(15)
H5 H 0.4072 0.6090 0.8995
C8 C 0.2639(3) 0.58617(7) 0.76983(14)
C9 C -0.0101(4) 0.65532(8) 0.82247(16)
H6 H -0.1254 0.6767 0.7899
H7 H 0.1257 0.6750 0.8436
H8 H -0.0830 0.6398 0.8794
C10 C 0.0005(4) 0.56855(8) 0.44329(16)
H9 H -0.1555 0.5558 0.4447
C11 C 0.1137(4) 0.58589(8) 0.36271(16)
H10 H 0.0523 0.5871 0.2981
C12 C 0.3387(4) 0.60174(8) 0.39335(16)
H11 H 0.4568 0.6156 0.3529
C13 C 0.3570(4) 0.59359(7) 0.49170(15)
H12 H 0.4894 0.6011 0.5318
O2 O 0.5316(3) 0.81180(6) 0.49317(12)
N3 N 0.8207(3) 0.75359(6) 0.51940(13)
N4 N 0.8772(3) 0.87030(6) 0.61706(12)
C14 C 0.6990(4) 0.79580(8) 0.53911(16)
C15 C 0.8122(4) 0.81915(8) 0.63117(15)
H13 H 0.6971 0.8171 0.6860
C16 C 1.0147(3) 0.78498(7) 0.65266(15)
C17 C 1.1870(4) 0.78572(8) 0.72413(16)
H14 H 1.1907 0.8110 0.7720
C18 C 1.3558(4) 0.74829(9) 0.72426(18)
H15 H 1.4748 0.7480 0.7733
C19 C 1.3530(4) 0.71166(9) 0.65454(19)
H16 H 1.4710 0.6868 0.6559
C20 C 1.1805(4) 0.71060(8) 0.58246(17)
H17 H 1.1785 0.6856 0.5339
C21 C 1.0123(4) 0.74715(7) 0.58394(15)
C22 C 0.7546(5) 0.71872(9) 0.44394(17)
H18 H 0.5895 0.7241 0.4252
H19 H 0.7740 0.6850 0.4686
H20 H 0.8554 0.7235 0.3869
C23 C 1.0846(4) 0.88657(8) 0.57675(15)
H21 H 1.2134 0.8665 0.5576
C24 C 1.0724(4) 0.93658(8) 0.56919(15)
H22 H 1.1911 0.9576 0.5438
C25 C 0.8512(4) 0.95163(8) 0.60601(15)
H23 H 0.7946 0.9845 0.6102
C26 C 0.7346(4) 0.91013(8) 0.63430(15)
H24 H 0.5809 0.9090 0.6613
loop_
_geom_bond_atom_site_label_1
_geom_bond_atom_site_label_2
_geom_bond_site_symmetry_1
_geom_bond_site_symmetry_2
O1 C1 1_555 1_555
O2 C14 1_555 1_555
N1 C1 1_555 1_555
N2 C2 1_555 1_555
N3 C14 1_555 1_555
N4 C15 1_555 1_555
C1 C2 1_555 1_555
C2 H1 1_555 1_555
C3 C2 1_555 1_555
C4 C3 1_555 1_555
H2 C4 1_555 1_555
C5 C4 1_555 1_555
H3 C5 1_555 1_555
C6 C5 1_555 1_555
H4 C6 1_555 1_555
C7 C6 1_555 1_555
H5 C7 1_555 1_555
C8 N1 1_555 1_555
C9 N1 1_555 1_555
H6 C9 1_555 1_555
H7 C9 1_555 1_555
H8 C9 1_555 1_555
C10 N2 1_555 1_555
H9 C10 1_555 1_555
C11 C10 1_555 1_555
H10 C11 1_555 1_555
C12 C11 1_555 1_555
H11 C12 1_555 1_555
C13 N2 1_555 1_555
H12 C13 1_555 1_555
C14 C15 1_555 1_555
C15 H13 1_555 1_555
C16 C15 1_555 1_555
C17 C16 1_555 1_555
H14 C17 1_555 1_555
C18 C17 1_555 1_555
H15 C18 1_555 1_555
C19 C18 1_555 1_555
H16 C19 1_555 1_555
C20 C19 1_555 1_555
H17 C20 1_555 1_555
C21 N3 1_555 1_555
C22 N3 1_555 1_555
H18 C22 1_555 1_555
H19 C22 1_555 1_555
H20 C22 1_555 1_555
C23 N4 1_555 1_555
H21 C23 1_555 1_555
C24 C23 1_555 1_555
H22 C24 1_555 1_555
C25 C24 1_555 1_555
H23 C25 1_555 1_555
C26 N4 1_555 1_555
H24 C26 1_555 1_555
C3 C8 1_555 1_555
C7 C8 1_555 1_555
C12 C13 1_555 1_555
C16 C21 1_555 1_555
C20 C21 1_555 1_555
C25 C26 1_555 1_555

#END
