
#######################################################################
#
#                 Cambridge Crystallographic Data Centre
#                                CCDC 
#
#######################################################################
#
# If this CIF has been generated from an entry in the Cambridge 
# Structural Database, then it will include bibliographic, chemical, 
# crystal, experimental, refinement or atomic coordinate data resulting 
# from the CCDC's data processing and validation procedures.
#
#######################################################################

data_HOMZIT
_chemical_formula_moiety         'C14 H14 F3 N5'
_chemical_name_systematic        
N-(4,6-Dimethyl-2-pyrimidinyl)-N'-(3-(trifluoromethyl)phenyl)guanidine
_chemical_properties_biological  
'herbicidal activity against Brassica campestris'
_symmetry_cell_setting           monoclinic
_symmetry_space_group_name_H-M   'P 21/c'
_symmetry_Int_Tables_number      14
_space_group_name_Hall           '-P 2ybc'
loop_
_symmetry_equiv_pos_site_id
_symmetry_equiv_pos_as_xyz
1 x,y,z
2 -x,1/2+y,1/2-z
3 -x,-y,-z
4 x,1/2-y,1/2+z
_cell_length_a                   11.644(6)
_cell_length_b                   12.945(7)
_cell_length_c                   9.585(5)
_cell_angle_alpha                90
_cell_angle_beta                 90.00
_cell_angle_gamma                90
_cell_volume                     1444.76
_exptl_crystal_colour            colorless
_exptl_crystal_description       prism
_chemical_melting_point          '152-153 deg.C'
_cell_formula_units_Z            4
loop_
_atom_site_label
_atom_site_type_symbol
_atom_site_fract_x
_atom_site_fract_y
_atom_site_fract_z
F1 F 1.2278(2) 0.3088(2) -0.0256(3)
F2 F 1.0817(3) 0.3063(2) -0.1562(2)
F3 F 1.1078(2) 0.18756(18) -0.0141(3)
N1 N 0.7896(2) 0.32178(19) 0.3013(3)
N2 N 0.6761(3) 0.2030(2) 0.4063(3)
N3 N 0.7354(2) 0.17851(17) 0.1708(2)
N4 N 0.6951(2) 0.04525(19) 0.0239(2)
N5 N 0.6313(2) 0.03305(18) 0.2601(2)
C1 C 1.1172(3) 0.2896(3) -0.0275(4)
C2 C 1.0511(3) 0.3481(3) 0.0803(3)
C3 C 1.0957(3) 0.4392(3) 0.1337(4)
H1 H 1.1643 0.4660 0.0997
C4 C 1.0371(3) 0.4888(3) 0.2372(4)
H2 H 1.0661 0.5500 0.2736
C5 C 0.9353(3) 0.4491(2) 0.2886(4)
H3 H 0.8973 0.4835 0.3602
C6 C 0.8889(3) 0.3587(2) 0.2349(3)
C7 C 0.9469(3) 0.3085(2) 0.1277(3)
H4 H 0.9164 0.2490 0.0880
C8 C 0.7337(2) 0.2291(2) 0.2905(3)
C9 C 0.6855(2) 0.0831(2) 0.1553(3)
C10 C 0.5860(3) -0.0607(2) 0.2315(4)
C11 C 0.5258(3) -0.1139(3) 0.3495(4)
H5 H 0.5782 -0.1226 0.4259
H6 H 0.4990 -0.1802 0.3190
H7 H 0.4617 -0.0728 0.3792
C12 C 0.5940(3) -0.1028(2) 0.1003(4)
H8 H 0.5633 -0.1676 0.0814
C13 C 0.6486(3) -0.0468(2) -0.0031(3)
C14 C 0.6586(3) -0.0864(3) -0.1495(3)
H9 H 0.6742 -0.0298 -0.2115
H10 H 0.5878 -0.1189 -0.1763
H11 H 0.7200 -0.1357 -0.1547
H12 H 0.764(2) 0.3582(19) 0.375(2)
H13 H 0.640(3) 0.1425(15) 0.410(3)
H14 H 0.691(3) 0.232(2) 0.4896(18)
loop_
_geom_bond_atom_site_label_1
_geom_bond_atom_site_label_2
_geom_bond_site_symmetry_1
_geom_bond_site_symmetry_2
F1 C1 1_555 1_555
F2 C1 1_555 1_555
F3 C1 1_555 1_555
N1 C6 1_555 1_555
N2 C8 1_555 1_555
N3 C8 1_555 1_555
N4 C9 1_555 1_555
N5 C9 1_555 1_555
C1 C2 1_555 1_555
C2 C3 1_555 1_555
C3 H1 1_555 1_555
C4 C3 1_555 1_555
H2 C4 1_555 1_555
C5 C4 1_555 1_555
H3 C5 1_555 1_555
C6 C5 1_555 1_555
C7 C2 1_555 1_555
H4 C7 1_555 1_555
C8 N1 1_555 1_555
C9 N3 1_555 1_555
C10 N5 1_555 1_555
C11 C10 1_555 1_555
H5 C11 1_555 1_555
H6 C11 1_555 1_555
H7 C11 1_555 1_555
C12 C10 1_555 1_555
H8 C12 1_555 1_555
C13 N4 1_555 1_555
C14 C13 1_555 1_555
H9 C14 1_555 1_555
H10 C14 1_555 1_555
H11 C14 1_555 1_555
H12 N1 1_555 1_555
H13 N2 1_555 1_555
H14 N2 1_555 1_555
C6 C7 1_555 1_555
C12 C13 1_555 1_555

#END
