
#######################################################################
#
#                 Cambridge Crystallographic Data Centre
#                                CCDC 
#
#######################################################################
#
# If this CIF has been generated from an entry in the Cambridge 
# Structural Database, then it will include bibliographic, chemical, 
# crystal, experimental, refinement or atomic coordinate data resulting 
# from the CCDC's data processing and validation procedures.
#
#######################################################################

data_HONCUI
_chemical_formula_moiety         'C41 H67 N7 O10'
_chemical_name_systematic        
't-Butoxycarbonyl-valyl-alanyl-leucyl-\a-aminoisobutyryl-valyl-alanyl-phenylalanyl methyl ester'
_symmetry_cell_setting           monoclinic
_symmetry_space_group_name_H-M   'P 21'
_symmetry_Int_Tables_number      4
_space_group_name_Hall           'P 2yb'
loop_
_symmetry_equiv_pos_site_id
_symmetry_equiv_pos_as_xyz
1 x,y,z
2 -x,1/2+y,-z
_cell_length_a                   10.356(2)
_cell_length_b                   19.488(5)
_cell_length_c                   23.756(6)
_cell_angle_alpha                90
_cell_angle_beta                 102.25(2)
_cell_angle_gamma                90
_cell_volume                     4685.22
_exptl_crystal_description       plate
_cell_formula_units_Z            4
_exptl_crystal_recrystallization_method methanol/water
loop_
_atom_site_label
_atom_site_type_symbol
_atom_site_fract_x
_atom_site_fract_y
_atom_site_fract_z
C1 C -0.0846(5) 1.2109(4) -0.3404(3)
C2 C -0.2783(7) 1.2836(3) -0.3319(3)
C3 C -0.2564(6) 1.1645(3) -0.2924(2)
C4 C -0.2285(4) 1.2117(2) -0.3388(2)
O1 O -0.3088(3) 1.1917(1) -0.3949(1)
C5 C -0.2996(4) 1.1296(2) -0.4183(2)
O2 O -0.2272(3) 1.0835(2) -0.3960(1)
N1 N -0.3828(3) 1.1264 -0.4697(1)
C6 C -0.4047(4) 1.0611(2) -0.5002(2)
C7 C -0.5182(4) 1.0698(2) -0.5542(2)
C8 C -0.5315(7) 1.0079(3) -0.5923(3)
C9 C -0.6474(5) 1.0852(4) -0.5373(3)
C10 C -0.2847(4) 1.0325(2) -0.5174(2)
O3 O -0.2560(3) 0.9716(1) -0.5115(1)
N2 N -0.2148(3) 1.0764(2) -0.5434(1)
C11 C -0.1073(5) 1.0488(2) -0.5685(2)
C12 C -0.0560(6) 1.1012(3) -0.6039(2)
C13 C 0.0024(5) 1.0192(2) -0.5206(2)
O4 O 0.0554(3) 0.9650(2) -0.5271(2)
N3 N 0.0351(3) 1.0556(2) -0.4726(2)
C14 C 0.1386(4) 1.0301(2) -0.4265(2)
C15 C 0.1848(5) 1.0893(3) -0.3843(3)
C16 C 0.3004(6) 1.0770(3) -0.3381(2)
C17 C 0.3277(7) 1.1469(4) -0.3030(3)
C18 C 0.4213(5) 1.0535(5) -0.3602(3)
C19 C 0.0959(5) 0.9668(2) -0.3979(2)
O5 O 0.1726(3) 0.9181(2) -0.3858(1)
N4 N -0.0283(4) 0.9652(2) -0.3882(2)
C20 C -0.0790(5) 0.9063(2) -0.3613(2)
C21 C -0.0025(7) 0.8984(3) -0.2986(2)
C22 C -0.2250(6) 0.9186(3) -0.3652(3)
C23 C -0.0629(5) 0.8407(2) -0.3956(2)
O6 O -0.0186(4) 0.7882(2) -0.3717(1)
N5 N -0.1073(3) 0.8443(2) -0.4533(1)
C24 C -0.1050(4) 0.7820(2) -0.4870(2)
C25 C -0.2048(5) 0.7833(3) -0.5439(2)
C26 C -0.1755(5) 0.8349(3) -0.5877(2)
C27 C -0.3466(5) 0.7936(4) -0.5351(3)
C28 C 0.0316(4) 0.7648(2) -0.4958(2)
O7 O 0.0600(3) 0.7063(1) -0.5089(1)
N6 N 0.1210(3) 0.8160(2) -0.4891(1)
C29 C 0.2564(4) 0.8034(2) -0.4936(2)
C30 C 0.3218(5) 0.8712(3) -0.5036(3)
C31 C 0.3382(5) 0.7686(2) -0.4415(2)
O8 O 0.4346(3) 0.7340(2) -0.4475(1)
N7 N 0.3055(4) 0.7763(2) -0.3906(2)
C32 C 0.3903(5) 0.7462(3) -0.3399(2)
C33 C 0.5172(5) 0.7892(3) -0.3194(3)
C34 C 0.6292(5) 0.7463(3) -0.2883(2)
C35 C 0.7155(7) 0.7185(4) -0.3185(3)
C36 C 0.8185(7) 0.6766(5) -0.2913(4)
C37 C 0.8404(7) 0.6653(5) -0.2324(4)
C38 C 0.7578(7) 0.6960(4) -0.2020(3)
C39 C 0.6516(6) 0.7355(3) -0.2284(3)
C40 C 0.3070(9) 0.7446(6) -0.2911(3)
O9 O 0.3026(10) 0.7964(7) -0.2642(4)
O10 O 0.2747(9) 0.6835(6) -0.2818(4)
C41 C 0.1818(10) 0.7073(9) -0.2398(5)
C42 C 0.2920(6) 0.4985(4) 0.1689(3)
C43 C 0.4261(7) 0.3938(3) 0.1650(3)
C44 C 0.5430(7) 0.5028(4) 0.1923(3)
C45 C 0.4188(5) 0.4708(3) 0.1567(2)
O11 O 0.4226(3) 0.4785(1) 0.0960(1)
C46 C 0.4113(4) 0.5399(2) 0.0698(2)
O12 O 0.3824(4) 0.5935(2) 0.0907(1)
N8 N 0.4312(3) 0.5339(2) 0.0164(1)
C47 C 0.4334(4) 0.5946(2) -0.0191(2)
C48 C 0.4999(4) 0.5767(2) -0.0697(2)
C49 C 0.6443(6) 0.5581(4) -0.0468(3)
C50 C 0.4858(7) 0.6365(3) -0.1130(3)
C51 C 0.2957(4) 0.6251(2) -0.0402(2)
O13 O 0.2765(3) 0.6872(2) -0.0411(1)
N9 N 0.1967(3) 0.5809(2) -0.0574(1)
C52 C 0.0630(4) 0.6075(2) -0.0796(2)
C53 C -0.0279(5) 0.5489(3) -0.1061(2)
C54 C 0.0110(4) 0.6443(2) -0.0332(2)
O14 O -0.0454(3) 0.6996(2) -0.0419(1)
N10 N 0.0315(3) 0.6149(2) 0.0188(1)
C55 C -0.0169(4) 0.6493(2) 0.0646(2)
C56 C -0.0220(5) 0.5983(2) 0.1126(2)
C57 C -0.0890(5) 0.6234(3) 0.1592(2)
C58 C -0.2309(6) 0.6446(4) 0.1368(3)
C59 C -0.0780(7) 0.5667(3) 0.2050(3)
C60 C 0.0636(4) 0.7130(2) 0.0862(2)
O15 O 0.0097(3) 0.7623(1) 0.1041(1)
N11 N 0.1917(3) 0.7136(2) 0.0833(1)
C61 C 0.2765(4) 0.7738(2) 0.1010(2)
C62 C 0.4069(4) 0.7632(3) 0.0799(2)
C63 C 0.3065(6) 0.7821(3) 0.1663(2)
C64 C 0.2103(4) 0.8384(2) 0.0704(2)
O16 O 0.2134(3) 0.8928(1) 0.0956(1)
N12 N 0.1547(3) 0.8319(2) 0.0144(1)
C65 C 0.0992(4) 0.8913(2) -0.0191(2)
C66 C 0.1115(5) 0.8885(3) -0.0819(2)
C67 C 0.0305(7) 0.8321(3) -0.1159(2)
C68 C 0.2569(6) 0.8849(5) -0.0865(3)
C69 C -0.0432(4) 0.9059(2) -0.0146(2)
O17 O -0.0913(3) 0.9632(1) -0.0260(1)
N13 N -0.1127(3) 0.8544(2) 0.0002(1)
C70 C -0.2530(4) 0.8606(2) -0.0018(2)
C71 C -0.3218(5) 0.7920(3) -0.0222(2)
C72 C -0.2877(4) 0.8799(2) 0.0555(2)
O18 O -0.3954(3) 0.9072(2) 0.0552(1)
N14 N -0.2044(4) 0.8623(2) 0.1041(1)
C73 C -0.2473(5) 0.8636(3) 0.1596(2)
C74 C -0.1437(6) 0.8308(3) 0.2076(2)
C75 C -0.0340(5) 0.8775(3) 0.2333(2)
C76 C -0.0310(8) 0.9017(4) 0.2892(3)
C77 C 0.0695(13) 0.9465(7) 0.3139(4)
C78 C 0.1599(10) 0.9652(5) 0.2838(4)
C79 C 0.1617(7) 0.9419(3) 0.2282(3)
C80 C 0.0605(6) 0.8983(3) 0.2044(2)
C81 C -0.2771(5) 0.9358(3) 0.1754(2)
O19 O -0.2374(4) 0.9880(2) 0.1588(2)
O20 O -0.3534(5) 0.9314(2) 0.2153(2)
C82 C -0.3729(11) 0.9971(5) 0.2429(4)
loop_
_geom_bond_atom_site_label_1
_geom_bond_atom_site_label_2
_geom_bond_site_symmetry_1
_geom_bond_site_symmetry_2
C1 C4 1_555 1_555
C2 C4 1_555 1_555
C3 C4 1_555 1_555
C4 O1 1_555 1_555
O1 C5 1_555 1_555
C5 O2 1_555 1_555
N1 C5 1_555 1_555
C6 N1 1_555 1_555
C7 C6 1_555 1_555
C8 C7 1_555 1_555
C9 C7 1_555 1_555
C10 C6 1_555 1_555
O3 C10 1_555 1_555
N2 C10 1_555 1_555
C11 N2 1_555 1_555
C12 C11 1_555 1_555
C13 C11 1_555 1_555
O4 C13 1_555 1_555
N3 C13 1_555 1_555
C14 N3 1_555 1_555
C15 C14 1_555 1_555
C16 C15 1_555 1_555
C17 C16 1_555 1_555
C18 C16 1_555 1_555
C19 C14 1_555 1_555
O5 C19 1_555 1_555
N4 C19 1_555 1_555
C20 N4 1_555 1_555
C21 C20 1_555 1_555
C22 C20 1_555 1_555
C23 C20 1_555 1_555
O6 C23 1_555 1_555
N5 C23 1_555 1_555
C24 N5 1_555 1_555
C25 C24 1_555 1_555
C26 C25 1_555 1_555
C27 C25 1_555 1_555
C28 C24 1_555 1_555
O7 C28 1_555 1_555
N6 C28 1_555 1_555
C29 N6 1_555 1_555
C30 C29 1_555 1_555
C31 C29 1_555 1_555
O8 C31 1_555 1_555
N7 C31 1_555 1_555
C32 N7 1_555 1_555
C33 C32 1_555 1_555
C34 C33 1_555 1_555
C35 C34 1_555 1_555
C36 C35 1_555 1_555
C37 C36 1_555 1_555
C38 C37 1_555 1_555
C39 C34 1_555 1_555
C40 C32 1_555 1_555
O9 C40 1_555 1_555
O10 C40 1_555 1_555
C41 O10 1_555 1_555
C42 C45 1_555 1_555
C43 C45 1_555 1_555
C44 C45 1_555 1_555
C45 O11 1_555 1_555
O11 C46 1_555 1_555
C46 O12 1_555 1_555
N8 C46 1_555 1_555
C47 N8 1_555 1_555
C48 C47 1_555 1_555
C49 C48 1_555 1_555
C50 C48 1_555 1_555
C51 C47 1_555 1_555
O13 C51 1_555 1_555
N9 C51 1_555 1_555
C52 N9 1_555 1_555
C53 C52 1_555 1_555
C54 C52 1_555 1_555
O14 C54 1_555 1_555
N10 C54 1_555 1_555
C55 N10 1_555 1_555
C56 C55 1_555 1_555
C57 C56 1_555 1_555
C58 C57 1_555 1_555
C59 C57 1_555 1_555
C60 C55 1_555 1_555
O15 C60 1_555 1_555
N11 C60 1_555 1_555
C61 N11 1_555 1_555
C62 C61 1_555 1_555
C63 C61 1_555 1_555
C64 C61 1_555 1_555
O16 C64 1_555 1_555
N12 C64 1_555 1_555
C65 N12 1_555 1_555
C66 C65 1_555 1_555
C67 C66 1_555 1_555
C68 C66 1_555 1_555
C69 C65 1_555 1_555
O17 C69 1_555 1_555
N13 C69 1_555 1_555
C70 N13 1_555 1_555
C71 C70 1_555 1_555
C72 C70 1_555 1_555
O18 C72 1_555 1_555
N14 C72 1_555 1_555
C73 N14 1_555 1_555
C74 C73 1_555 1_555
C75 C74 1_555 1_555
C76 C75 1_555 1_555
C77 C76 1_555 1_555
C78 C77 1_555 1_555
C79 C78 1_555 1_555
C80 C75 1_555 1_555
C81 C73 1_555 1_555
O19 C81 1_555 1_555
O20 C81 1_555 1_555
C82 O20 1_555 1_555
C38 C39 1_555 1_555
C79 C80 1_555 1_555

#END
