
#######################################################################
#
#                 Cambridge Crystallographic Data Centre
#                                CCDC 
#
#######################################################################
#
# If this CIF has been generated from an entry in the Cambridge 
# Structural Database, then it will include bibliographic, chemical, 
# crystal, experimental, refinement or atomic coordinate data resulting 
# from the CCDC's data processing and validation procedures.
#
#######################################################################

data_HONFUN
_chemical_formula_moiety         'C9 H8 N1 1+,3(C9 H7 N1),C7 H6 O4,C7 H5 O4 1-'
_chemical_name_systematic        
'quinolium tris(quinoline) 2,4-dihydroxybenzoic acid 2,4-dihydroxybenzoate'
_symmetry_cell_setting           triclinic
_symmetry_space_group_name_H-M   'P -1'
_symmetry_Int_Tables_number      2
_space_group_name_Hall           '-P 1'
loop_
_symmetry_equiv_pos_site_id
_symmetry_equiv_pos_as_xyz
1 x,y,z
2 -x,-y,-z
_cell_length_a                   8.7839(10)
_cell_length_b                   12.9309(13)
_cell_length_c                   18.193(2)
_cell_angle_alpha                92.3200(10)
_cell_angle_beta                 94.394(2)
_cell_angle_gamma                92.9410(10)
_cell_volume                     2055.59
_exptl_crystal_colour            colorless
_exptl_crystal_description       block
_cell_formula_units_Z            2
loop_
_atom_site_label
_atom_site_type_symbol
_atom_site_fract_x
_atom_site_fract_y
_atom_site_fract_z
N1 N 0.9915(4) 0.0853(3) 0.1261(2)
C1 C 0.8856(6) 0.0090(4) 0.1215(3)
H1 H 0.8836 -0.0359 0.1602
C2 C 0.7760(6) -0.0086(4) 0.0618(3)
H2 H 0.7046 -0.0644 0.0611
C3 C 0.7746(5) 0.0560(4) 0.0053(3)
H3 H 0.7005 0.0468 -0.0341
C4 C 0.8872(5) 0.1374(3) 0.0071(2)
C5 C 0.9946(5) 0.1498(3) 0.0689(2)
C6 C 1.1092(5) 0.2302(4) 0.0721(3)
H4 H 1.1797 0.2391 0.1129
C7 C 1.1166(6) 0.2945(4) 0.0157(3)
H5 H 1.1929 0.3474 0.0178
C8 C 1.0107(7) 0.2823(4) -0.0458(3)
H6 H 1.0183 0.3266 -0.0845
C9 C 0.8978(6) 0.2072(4) -0.0498(3)
H7 H 0.8265 0.2015 -0.0904
N2 N 0.6233(4) 0.3441(3) 0.0332(2)
C10 C 0.5198(6) 0.2667(4) 0.0310(3)
H8 H 0.4506 0.2576 -0.0104
C11 C 0.5081(6) 0.1973(4) 0.0875(3)
H9 H 0.4328 0.1438 0.0835
C12 C 0.6063(7) 0.2089(4) 0.1472(3)
H10 H 0.5992 0.1636 0.1853
C13 C 0.7197(6) 0.2888(4) 0.1524(3)
C14 C 0.7249(6) 0.3580(4) 0.0934(3)
C15 C 0.8347(6) 0.4387(4) 0.0958(3)
H11 H 0.8374 0.4835 0.0572
C16 C 0.9406(8) 0.4524(5) 0.1562(4)
H12 H 1.0146 0.5067 0.1584
C17 C 0.9359(8) 0.3840(6) 0.2139(4)
H13 H 1.0076 0.3936 0.2543
C18 C 0.8294(7) 0.3045(5) 0.2123(3)
H14 H 0.8291 0.2600 0.2512
N3 N 0.0529(4) 0.8315(3) 0.3129(2)
H15 H -0.0308 0.8627 0.3153
C19 C 0.0696(6) 0.7668(3) 0.2570(3)
H16 H -0.0113 0.7547 0.2211
C20 C 0.2037(6) 0.7154(3) 0.2492(3)
H17 H 0.2135 0.6711 0.2085
C21 C 0.3200(5) 0.7321(3) 0.3032(3)
H18 H 0.4102 0.6983 0.2993
C22 C 0.3061(5) 0.7991(3) 0.3639(2)
C23 C 0.1684(5) 0.8494(3) 0.3671(2)
C24 C 0.1493(5) 0.9182(3) 0.4268(2)
H19 H 0.0596 0.9530 0.4287
C25 C 0.2620(6) 0.9335(3) 0.4817(3)
H20 H 0.2486 0.9785 0.5215
C26 C 0.3997(6) 0.8822(4) 0.4794(3)
H21 H 0.4757 0.8931 0.5178
C27 C 0.4211(5) 0.8172(3) 0.4214(3)
H22 H 0.5126 0.7844 0.4197
N4 N 0.2560(4) 0.6104(3) 0.5138(2)
C28 C 0.2699(5) 0.5479(3) 0.4572(3)
H23 H 0.3601 0.5134 0.4560
C29 C 0.1605(6) 0.5288(3) 0.3985(3)
H24 H 0.1776 0.4829 0.3597
C30 C 0.0285(6) 0.5781(4) 0.3987(3)
H25 H -0.0450 0.5683 0.3591
C31 C 0.0033(6) 0.6441(4) 0.4589(3)
C32 C 0.1217(6) 0.6593(3) 0.5161(3)
C33 C 0.1032(7) 0.7244(4) 0.5786(3)
H26 H 0.1807 0.7343 0.6164
C34 C -0.0316(9) 0.7729(5) 0.5822(4)
H27 H -0.0467 0.8152 0.6233
C35 C -0.1464(7) 0.7589(5) 0.5243(4)
H28 H -0.2367 0.7927 0.5275
C36 C -0.1293(6) 0.6975(4) 0.4639(4)
H29 H -0.2062 0.6910 0.4257
O1 O 0.3715(3) 0.5441(2) 0.08428(17)
H30 H 0.3766 0.5810 0.0488
O2 O 0.5798(4) 0.6411(2) 0.12647(17)
O3 O 0.7036(4) 0.6115(2) 0.25882(17)
H31 H 0.6932 0.6402 0.2195
O4 O 0.4949(3) 0.3384(2) 0.38925(17)
H32 H 0.5651 0.3603 0.4190
C37 C 0.4858(6) 0.5707(4) 0.1339(3)
C38 C 0.4874(5) 0.5098(3) 0.2005(2)
C39 C 0.5968(5) 0.5324(3) 0.2594(3)
C40 C 0.6006(5) 0.4763(3) 0.3222(2)
H33 H 0.6749 0.4930 0.3606
C41 C 0.4941(5) 0.3953(3) 0.3283(2)
C42 C 0.3837(5) 0.3705(3) 0.2709(2)
H34 H 0.3122 0.3157 0.2744
C43 C 0.3808(5) 0.4275(3) 0.2089(3)
H35 H 0.3053 0.4109 0.1710
O5 O 0.8014(3) 0.9275(2) 0.32229(17)
O6 O 0.7202(3) 0.8335(2) 0.22035(17)
O7 O 0.4562(3) 0.8631(2) 0.15351(15)
H36 H 0.5386 0.8366 0.1599
O8 O 0.1673(3) 1.1243(2) 0.25524(15)
H37 H 0.1083 1.1038 0.2200
C44 C 0.6995(5) 0.9024(3) 0.2675(3)
C45 C 0.5604(5) 0.9597(3) 0.2639(2)
C46 C 0.4450(5) 0.9383(3) 0.2074(2)
C47 C 0.3125(5) 0.9920(3) 0.2041(2)
H38 H 0.2361 0.9760 0.1665
C48 C 0.2942(5) 1.0689(3) 0.2566(2)
C49 C 0.4079(5) 1.0928(3) 0.3130(2)
H39 H 0.3960 1.1450 0.3484
C50 C 0.5381(5) 1.0383(3) 0.3156(2)
H40 H 0.6140 1.0546 0.3534
loop_
_geom_bond_atom_site_label_1
_geom_bond_atom_site_label_2
_geom_bond_site_symmetry_1
_geom_bond_site_symmetry_2
N1 C1 1_555 1_555
C1 H1 1_555 1_555
C2 C1 1_555 1_555
H2 C2 1_555 1_555
C3 C2 1_555 1_555
H3 C3 1_555 1_555
C4 C3 1_555 1_555
C5 N1 1_555 1_555
C6 C5 1_555 1_555
H4 C6 1_555 1_555
C7 C6 1_555 1_555
H5 C7 1_555 1_555
C8 C7 1_555 1_555
H6 C8 1_555 1_555
C9 C4 1_555 1_555
H7 C9 1_555 1_555
N2 C10 1_555 1_555
C10 H8 1_555 1_555
C11 C10 1_555 1_555
H9 C11 1_555 1_555
C12 C11 1_555 1_555
H10 C12 1_555 1_555
C13 C12 1_555 1_555
C14 N2 1_555 1_555
C15 C14 1_555 1_555
H11 C15 1_555 1_555
C16 C15 1_555 1_555
H12 C16 1_555 1_555
C17 C16 1_555 1_555
H13 C17 1_555 1_555
C18 C13 1_555 1_555
H14 C18 1_555 1_555
N3 H15 1_555 1_555
C19 N3 1_555 1_555
H16 C19 1_555 1_555
C20 C19 1_555 1_555
H17 C20 1_555 1_555
C21 C20 1_555 1_555
H18 C21 1_555 1_555
C22 C21 1_555 1_555
C23 N3 1_555 1_555
C24 C23 1_555 1_555
H19 C24 1_555 1_555
C25 C24 1_555 1_555
H20 C25 1_555 1_555
C26 C25 1_555 1_555
H21 C26 1_555 1_555
C27 C22 1_555 1_555
H22 C27 1_555 1_555
N4 C28 1_555 1_555
C28 H23 1_555 1_555
C29 C28 1_555 1_555
H24 C29 1_555 1_555
C30 C29 1_555 1_555
H25 C30 1_555 1_555
C31 C30 1_555 1_555
C32 N4 1_555 1_555
C33 C32 1_555 1_555
H26 C33 1_555 1_555
C34 C33 1_555 1_555
H27 C34 1_555 1_555
C35 C34 1_555 1_555
H28 C35 1_555 1_555
C36 C31 1_555 1_555
H29 C36 1_555 1_555
O1 H30 1_555 1_555
O2 C37 1_555 1_555
O3 H31 1_555 1_555
O4 H32 1_555 1_555
C37 O1 1_555 1_555
C38 C37 1_555 1_555
C39 O3 1_555 1_555
C40 C39 1_555 1_555
H33 C40 1_555 1_555
C41 O4 1_555 1_555
C42 C41 1_555 1_555
H34 C42 1_555 1_555
C43 C38 1_555 1_555
H35 C43 1_555 1_555
O5 C44 1_555 1_555
O6 C44 1_555 1_555
O7 H36 1_555 1_555
O8 H37 1_555 1_555
C44 C45 1_555 1_555
C45 C46 1_555 1_555
C46 O7 1_555 1_555
C47 C46 1_555 1_555
H38 C47 1_555 1_555
C48 O8 1_555 1_555
C49 C48 1_555 1_555
H39 C49 1_555 1_555
C50 C45 1_555 1_555
H40 C50 1_555 1_555
C4 C5 1_555 1_555
C8 C9 1_555 1_555
C13 C14 1_555 1_555
C17 C18 1_555 1_555
C22 C23 1_555 1_555
C26 C27 1_555 1_555
C31 C32 1_555 1_555
C35 C36 1_555 1_555
C38 C39 1_555 1_555
C40 C41 1_555 1_555
C42 C43 1_555 1_555
C47 C48 1_555 1_555
C49 C50 1_555 1_555

#END
