
#######################################################################
#
#                 Cambridge Crystallographic Data Centre
#                                CCDC 
#
#######################################################################
#
# If this CIF has been generated from an entry in the Cambridge 
# Structural Database, then it will include bibliographic, chemical, 
# crystal, experimental, refinement or atomic coordinate data resulting 
# from the CCDC's data processing and validation procedures.
#
#######################################################################

data_HONFOH
_chemical_formula_moiety         'C10 H10 N1 1+,C7 H4 Br1 O3 1-'
_chemical_name_systematic        '2-methylquinolinium 5-bromo-2-hydroxybenzoate'
_symmetry_cell_setting           triclinic
_symmetry_space_group_name_H-M   'P -1'
_symmetry_Int_Tables_number      2
_space_group_name_Hall           '-P 1'
loop_
_symmetry_equiv_pos_site_id
_symmetry_equiv_pos_as_xyz
1 x,y,z
2 -x,-y,-z
_cell_length_a                   9.0747(12)
_cell_length_b                   9.4344(11)
_cell_length_c                   10.6000(13)
_cell_angle_alpha                71.4220(10)
_cell_angle_beta                 86.679(2)
_cell_angle_gamma                62.1900(10)
_cell_volume                     756.4
_exptl_crystal_colour            colorless
_exptl_crystal_description       block
_cell_formula_units_Z            2
loop_
_atom_site_label
_atom_site_type_symbol
_atom_site_fract_x
_atom_site_fract_y
_atom_site_fract_z
Br1 Br 0.78339(8) 0.20676(10) 0.96088(7)
O1 O 0.4057(5) 0.0927(5) 0.6661(4)
O2 O 0.1554(5) 0.1723(6) 0.7392(4)
O3 O 0.0819(5) 0.3067(6) 0.9191(4)
H1 H 0.0694 0.2668 0.8647
C1 C 0.3019(8) 0.1504(8) 0.7444(5)
C2 C 0.3549(6) 0.2023(6) 0.8466(5)
C3 C 0.2409(7) 0.2821(8) 0.9253(5)
C4 C 0.2857(7) 0.3441(8) 1.0110(5)
H2 H 0.2071 0.4020 1.0609
C5 C 0.4476(7) 0.3192(7) 1.0215(5)
H3 H 0.4782 0.3603 1.0786
C6 C 0.5631(6) 0.2339(7) 0.9477(5)
C7 C 0.5182(6) 0.1756(6) 0.8599(5)
H4 H 0.5973 0.1185 0.8098
N1 N 0.7485(5) -0.0603(6) 0.5166(4)
H5 H 0.6941 -0.0731 0.4610
C8 C 0.8508(9) -0.3589(8) 0.6320(6)
H6 H 0.7887 -0.3868 0.7035
H7 H 0.9654 -0.4463 0.6506
H8 H 0.8031 -0.3500 0.5495
C9 C 0.8430(7) -0.1941(8) 0.6202(6)
C10 C 0.9321(7) -0.1754(8) 0.7117(5)
H9 H 0.9972 -0.2679 0.7859
C11 C 0.9234(7) -0.0211(8) 0.6919(5)
H10 H 0.9855 -0.0101 0.7515
C12 C 0.8208(6) 0.1216(7) 0.5818(5)
C13 C 0.7332(7) 0.0969(7) 0.4936(5)
C14 C 0.6302(7) 0.2319(9) 0.3799(6)
H11 H 0.5719 0.2156 0.3213
C15 C 0.6190(9) 0.3854(9) 0.3590(7)
H12 H 0.5527 0.4750 0.2837
C16 C 0.7019(8) 0.4154(8) 0.4449(7)
H13 H 0.6884 0.5240 0.4281
C17 C 0.8036(7) 0.2852(8) 0.5544(6)
H14 H 0.8615 0.3045 0.6109
loop_
_geom_bond_atom_site_label_1
_geom_bond_atom_site_label_2
_geom_bond_site_symmetry_1
_geom_bond_site_symmetry_2
Br1 C6 1_555 1_555
O1 C1 1_555 1_555
O2 C1 1_555 1_555
O3 H1 1_555 1_555
C1 C2 1_555 1_555
C2 C3 1_555 1_555
C3 O3 1_555 1_555
C4 C3 1_555 1_555
H2 C4 1_555 1_555
C5 C4 1_555 1_555
H3 C5 1_555 1_555
C6 C5 1_555 1_555
C7 C2 1_555 1_555
H4 C7 1_555 1_555
N1 H5 1_555 1_555
C8 H6 1_555 1_555
H7 C8 1_555 1_555
H8 C8 1_555 1_555
C9 N1 1_555 1_555
C10 C9 1_555 1_555
H9 C10 1_555 1_555
C11 C10 1_555 1_555
H10 C11 1_555 1_555
C12 C11 1_555 1_555
C13 N1 1_555 1_555
C14 C13 1_555 1_555
H11 C14 1_555 1_555
C15 C14 1_555 1_555
H12 C15 1_555 1_555
C16 C15 1_555 1_555
H13 C16 1_555 1_555
C17 C12 1_555 1_555
H14 C17 1_555 1_555
C6 C7 1_555 1_555
C8 C9 1_555 1_555
C12 C13 1_555 1_555
C16 C17 1_555 1_555

#END
