
#######################################################################
#
#                 Cambridge Crystallographic Data Centre
#                                CCDC 
#
#######################################################################
#
# If this CIF has been generated from an entry in the Cambridge 
# Structural Database, then it will include bibliographic, chemical, 
# crystal, experimental, refinement or atomic coordinate data resulting 
# from the CCDC's data processing and validation procedures.
#
#######################################################################

data_HONGAU
_chemical_formula_moiety         'C10 H10 N1 1+,C5 H5 O5 1-'
_chemical_name_systematic        '2-methylquinolinium 4-carboxy-2-oxobutanoate'
_symmetry_cell_setting           triclinic
_symmetry_space_group_name_H-M   'P -1'
_symmetry_Int_Tables_number      2
_space_group_name_Hall           '-P 1'
loop_
_symmetry_equiv_pos_site_id
_symmetry_equiv_pos_as_xyz
1 x,y,z
2 -x,-y,-z
_cell_length_a                   7.6303(8)
_cell_length_b                   8.8579(11)
_cell_length_c                   10.9127(13)
_cell_angle_alpha                105.726(2)
_cell_angle_beta                 100.0430(10)
_cell_angle_gamma                98.6000(10)
_cell_volume                     683.85
_exptl_crystal_colour            colorless
_exptl_crystal_description       block
_cell_formula_units_Z            2
loop_
_atom_site_label
_atom_site_type_symbol
_atom_site_fract_x
_atom_site_fract_y
_atom_site_fract_z
O1 O 0.5018(3) 0.1544(3) 0.2221(2)
O2 O 0.4643(3) 0.2200(3) 0.0381(2)
O3 O 1.0171(4) 0.4910(3) 0.1487(3)
O4 O 1.2823(3) 0.4383(3) 0.1245(3)
H1 H 1.3233 0.3631 0.0863
O5 O 0.8566(4) 0.1634(4) 0.2139(3)
C1 C 0.5557(5) 0.1834(4) 0.1278(3)
C2 C 0.7558(5) 0.1780(4) 0.1214(3)
C3 C 0.8134(5) 0.1914(4) 0.0010(3)
H2 H 0.7638 0.2756 -0.0251
H3 H 0.7620 0.0916 -0.0686
C4 C 1.0177(4) 0.2278(4) 0.0163(3)
H4 H 1.0699 0.1524 0.0537
H5 H 1.0451 0.2135 -0.0691
C5 C 1.1032(5) 0.3950(4) 0.1020(3)
N1 N 0.3242(4) -0.0742(3) 0.5801(3)
H6 H 0.3729 -0.0998 0.6468
C6 C 0.2892(5) -0.1824(4) 0.4629(3)
C7 C 0.2117(5) -0.1424(4) 0.3532(3)
H7 H 0.1876 -0.2166 0.2704
C8 C 0.1716(5) 0.0058(4) 0.3676(3)
H8 H 0.1199 0.0316 0.2943
C9 C 0.2072(4) 0.1196(4) 0.4916(3)
C10 C 0.2867(4) 0.0769(4) 0.6004(3)
C11 C 0.3286(5) 0.1851(4) 0.7276(3)
H9 H 0.3841 0.1567 0.7985
C12 C 0.2865(5) 0.3316(4) 0.7445(4)
H10 H 0.3127 0.4040 0.8281
C13 C 0.2041(5) 0.3757(4) 0.6380(4)
H11 H 0.1748 0.4763 0.6523
C14 C 0.1662(5) 0.2740(4) 0.5143(4)
H12 H 0.1133 0.3059 0.4445
C15 C 0.3311(5) -0.3431(4) 0.4539(4)
H13 H 0.4033 -0.3404 0.5362
H14 H 0.3975 -0.3718 0.3869
H15 H 0.2197 -0.4210 0.4328
loop_
_geom_bond_atom_site_label_1
_geom_bond_atom_site_label_2
_geom_bond_site_symmetry_1
_geom_bond_site_symmetry_2
O1 C1 1_555 1_555
O2 C1 1_555 1_555
O3 C5 1_555 1_555
O4 H1 1_555 1_555
O5 C2 1_555 1_555
C1 C2 1_555 1_555
C2 C3 1_555 1_555
C3 H2 1_555 1_555
H3 C3 1_555 1_555
C4 C3 1_555 1_555
H4 C4 1_555 1_555
H5 C4 1_555 1_555
C5 O4 1_555 1_555
N1 H6 1_555 1_555
C6 N1 1_555 1_555
C7 C6 1_555 1_555
H7 C7 1_555 1_555
C8 C7 1_555 1_555
H8 C8 1_555 1_555
C9 C8 1_555 1_555
C10 N1 1_555 1_555
C11 C10 1_555 1_555
H9 C11 1_555 1_555
C12 C11 1_555 1_555
H10 C12 1_555 1_555
C13 C12 1_555 1_555
H11 C13 1_555 1_555
C14 C9 1_555 1_555
H12 C14 1_555 1_555
C15 C6 1_555 1_555
H13 C15 1_555 1_555
H14 C15 1_555 1_555
H15 C15 1_555 1_555
C4 C5 1_555 1_555
C9 C10 1_555 1_555
C13 C14 1_555 1_555

#END
