
#######################################################################
#
#                 Cambridge Crystallographic Data Centre
#                                CCDC 
#
#######################################################################
#
# If this CIF has been generated from an entry in the Cambridge 
# Structural Database, then it will include bibliographic, chemical, 
# crystal, experimental, refinement or atomic coordinate data resulting 
# from the CCDC's data processing and validation procedures.
#
#######################################################################

data_HONGEY
_chemical_formula_moiety         'C10 H10 N1 1+,C8 H4 N1 O6 1-'
_chemical_name_systematic        '2-methylquinolinium 2-carboxy-5-nitrobenzoate'
_symmetry_cell_setting           triclinic
_symmetry_space_group_name_H-M   'P -1'
_symmetry_Int_Tables_number      2
_space_group_name_Hall           '-P 1'
loop_
_symmetry_equiv_pos_site_id
_symmetry_equiv_pos_as_xyz
1 x,y,z
2 -x,-y,-z
_cell_length_a                   7.3065(3)
_cell_length_b                   7.6501(4)
_cell_length_c                   14.7443(11)
_cell_angle_alpha                76.1290(10)
_cell_angle_beta                 86.510(2)
_cell_angle_gamma                86.296(2)
_cell_volume                     797.558
_exptl_crystal_colour            colorless
_exptl_crystal_description       block
_cell_formula_units_Z            2
loop_
_atom_site_label
_atom_site_type_symbol
_atom_site_fract_x
_atom_site_fract_y
_atom_site_fract_z
N1 N 0.2653(2) 0.51485(19) 0.38438(10)
H1 H 0.2979 0.5937 0.3349
C1 C 0.2098(3) 0.3591(2) 0.37467(13)
C2 C 0.1561(3) 0.2290(3) 0.45521(14)
H2 H 0.1177 0.1188 0.4494
C3 C 0.1599(3) 0.2628(3) 0.54125(14)
H3 H 0.1228 0.1762 0.5939
C4 C 0.2197(3) 0.4286(2) 0.55140(13)
C5 C 0.2734(2) 0.5569(2) 0.46971(12)
C6 C 0.3353(3) 0.7242(2) 0.47466(14)
H4 H 0.3715 0.8074 0.4205
C7 C 0.3418(3) 0.7630(3) 0.56019(14)
H5 H 0.3819 0.8738 0.5640
C8 C 0.2885(3) 0.6373(3) 0.64245(14)
H6 H 0.2936 0.6659 0.7001
C9 C 0.2294(3) 0.4738(3) 0.63857(14)
H7 H 0.1952 0.3917 0.6935
C10 C 0.2112(3) 0.3281(3) 0.27876(15)
H8 H 0.1976 0.4417 0.2341
H9 H 0.1116 0.2548 0.2747
H10 H 0.3255 0.2677 0.2656
N2 N 0.8842(3) 0.6349(2) 1.07126(11)
O1 O 0.21050(18) 1.0484(2) 0.84064(9)
H11 H 0.1389 1.0876 0.7989
O2 O 0.3924(2) 0.9873(2) 0.72339(10)
O3 O 0.63575(19) 1.24745(18) 0.76453(9)
O4 O 0.90964(18) 1.1092(2) 0.74995(10)
O5 O 1.0434(2) 0.6764(3) 1.06098(12)
O6 O 0.8286(2) 0.5108(2) 1.13310(11)
C11 C 0.3666(3) 0.9923(2) 0.80438(13)
C12 C 0.7521(3) 1.1175(2) 0.78711(12)
C13 C 0.5044(2) 0.9192(2) 0.87745(12)
C14 C 0.6886(2) 0.9637(2) 0.86560(12)
C15 C 0.8129(3) 0.8695(2) 0.92997(12)
H12 H 0.9364 0.8951 0.9227
C16 C 0.7502(3) 0.7375(2) 1.00495(12)
C17 C 0.5691(3) 0.6985(3) 1.02046(13)
H13 H 0.5300 0.6131 1.0731
C18 C 0.4455(3) 0.7902(3) 0.95546(13)
H14 H 0.3220 0.7650 0.9642
loop_
_geom_bond_atom_site_label_1
_geom_bond_atom_site_label_2
_geom_bond_site_symmetry_1
_geom_bond_site_symmetry_2
N1 H1 1_555 1_555
C1 N1 1_555 1_555
C2 C1 1_555 1_555
H2 C2 1_555 1_555
C3 C2 1_555 1_555
H3 C3 1_555 1_555
C4 C3 1_555 1_555
C5 N1 1_555 1_555
C6 C5 1_555 1_555
H4 C6 1_555 1_555
C7 C6 1_555 1_555
H5 C7 1_555 1_555
C8 C7 1_555 1_555
H6 C8 1_555 1_555
C9 C4 1_555 1_555
H7 C9 1_555 1_555
C10 C1 1_555 1_555
H8 C10 1_555 1_555
H9 C10 1_555 1_555
H10 C10 1_555 1_555
N2 O5 1_555 1_555
O1 H11 1_555 1_555
O2 C11 1_555 1_555
O3 C12 1_555 1_555
O4 C12 1_555 1_555
O6 N2 1_555 1_555
C11 O1 1_555 1_555
C12 C14 1_555 1_555
C13 C11 1_555 1_555
C14 C13 1_555 1_555
C15 C14 1_555 1_555
H12 C15 1_555 1_555
C16 N2 1_555 1_555
C17 C16 1_555 1_555
H13 C17 1_555 1_555
C18 C13 1_555 1_555
H14 C18 1_555 1_555
C4 C5 1_555 1_555
C8 C9 1_555 1_555
C15 C16 1_555 1_555
C17 C18 1_555 1_555

#END
