
#######################################################################
#
#                 Cambridge Crystallographic Data Centre
#                                CCDC 
#
#######################################################################
#
# If this CIF has been generated from an entry in the Cambridge 
# Structural Database, then it will include bibliographic, chemical, 
# crystal, experimental, refinement or atomic coordinate data resulting 
# from the CCDC's data processing and validation procedures.
#
#######################################################################

data_HONHUP
_chemical_formula_moiety         'C16 H8 Cl1 N1 O2'
_chemical_name_systematic        10-chloro-5H-benzo[a]phenoxazin-5-one
_symmetry_cell_setting           orthorhombic
_symmetry_space_group_name_H-M   'P n a 21'
_symmetry_Int_Tables_number      33
_space_group_name_Hall           'P 2c -2n'
loop_
_symmetry_equiv_pos_site_id
_symmetry_equiv_pos_as_xyz
1 x,y,z
2 -x,-y,1/2+z
3 1/2+x,1/2-y,z
4 1/2-x,1/2+y,1/2+z
_cell_length_a                   22.284(2)
_cell_length_b                   3.7804(3)
_cell_length_c                   28.107(3)
_cell_angle_alpha                90
_cell_angle_beta                 90
_cell_angle_gamma                90
_cell_volume                     2367.8
_exptl_crystal_colour            orange
_exptl_crystal_description       needle
_cell_formula_units_Z            8
loop_
_atom_site_label
_atom_site_type_symbol
_atom_site_fract_x
_atom_site_fract_y
_atom_site_fract_z
O1 O 0.60773(15) 0.3108(8) -0.14077(12)
C1 C 0.5763(2) 0.2877(10) -0.09895(18)
C2 C 0.51930(17) 0.4239(10) -0.09744(14)
H1 H 0.5022 0.5335 -0.1247
C3 C 0.48728(17) 0.3985(10) -0.05561(14)
H2 H 0.4476 0.4901 -0.0542
Cl1 Cl 0.47101(5) 0.1988(2) 0.03609(4)
C4 C 0.5124(2) 0.2392(8) -0.01511(15)
C5 C 0.57092(18) 0.1085(9) -0.01686(13)
H3 H 0.5884 0.0034 0.0105
C6 C 0.60392(16) 0.1330(10) -0.05924(14)
N1 N 0.66233(14) -0.0050(8) -0.06073(12)
C7 C 0.69048(17) 0.0131(9) -0.10126(13)
C8 C 0.75164(17) -0.1272(10) -0.10532(14)
C9 C 0.7800(2) -0.2718(9) -0.06524(18)
H4 H 0.7598 -0.2799 -0.0355
C10 C 0.83822(17) -0.4037(9) -0.06965(14)
H5 H 0.8577 -0.4997 -0.0425
C11 C 0.86827(16) -0.3972(9) -0.11311(15)
H6 H 0.9077 -0.4911 -0.1157
C12 C 0.8400(2) -0.2524(9) -0.1524(2)
H7 H 0.8605 -0.2451 -0.1820
C13 C 0.78230(17) -0.1179(9) -0.14918(13)
O2 O 0.77871(13) 0.0436(8) -0.23083(11)
C14 C 0.75295(16) 0.0363(10) -0.19167(14)
C15 C 0.6930(2) 0.1838(11) -0.18671(15)
H8 H 0.6738 0.2894 -0.2133
C16 C 0.66433(17) 0.1708(10) -0.14401(14)
O3 O 0.35543(15) 0.2885(8) 0.22049(13)
C17 C 0.3252(2) 0.2773(9) 0.17695(18)
C18 C 0.26717(17) 0.4243(10) 0.17657(14)
H9 H 0.2500 0.5253 0.2044
C19 C 0.23593(17) 0.4152(10) 0.13353(14)
H10 H 0.1964 0.5083 0.1314
Cl2 Cl 0.22177(5) 0.2643(2) 0.04057(4)
C20 C 0.2631(2) 0.2693(10) 0.09414(19)
C21 C 0.31955(18) 0.1268(10) 0.09465(14)
H11 H 0.3364 0.0267 0.0667
C22 C 0.35205(17) 0.1315(10) 0.13741(14)
N2 N 0.40960(15) -0.0086(9) 0.13881(11)
C23 C 0.43780(17) 0.0006(9) 0.17905(14)
C24 C 0.49930(17) -0.1435(10) 0.18296(14)
C25 C 0.5279(2) -0.2876(10) 0.14313(19)
H12 H 0.5077 -0.2929 0.1134
C26 C 0.58500(18) -0.4215(10) 0.14683(15)
H13 H 0.6038 -0.5240 0.1198
C27 C 0.61558(17) -0.4072(10) 0.19033(15)
H14 H 0.6553 -0.4962 0.1926
C28 C 0.5879(2) -0.2627(9) 0.2304(2)
H15 H 0.6086 -0.2543 0.2599
C29 C 0.52977(18) -0.1312(10) 0.22688(14)
O4 O 0.52663(12) 0.0335(8) 0.30836(11)
C30 C 0.50057(17) 0.0240(9) 0.26979(14)
C31 C 0.4398(2) 0.1631(12) 0.26441(16)
H16 H 0.4201 0.2643 0.2911
C32 C 0.41150(18) 0.1503(11) 0.22247(15)
loop_
_geom_bond_atom_site_label_1
_geom_bond_atom_site_label_2
_geom_bond_site_symmetry_1
_geom_bond_site_symmetry_2
O1 C1 1_555 1_555
C1 C2 1_555 1_555
C2 H1 1_555 1_555
C3 C2 1_555 1_555
H2 C3 1_555 1_555
Cl1 C4 1_555 1_555
C4 C3 1_555 1_555
C5 C4 1_555 1_555
H3 C5 1_555 1_555
C6 C1 1_555 1_555
N1 C6 1_555 1_555
C7 N1 1_555 1_555
C8 C7 1_555 1_555
C9 C8 1_555 1_555
H4 C9 1_555 1_555
C10 C9 1_555 1_555
H5 C10 1_555 1_555
C11 C10 1_555 1_555
H6 C11 1_555 1_555
C12 C11 1_555 1_555
H7 C12 1_555 1_555
C13 C8 1_555 1_555
O2 C14 1_555 1_555
C14 C13 1_555 1_555
C15 C14 1_555 1_555
H8 C15 1_555 1_555
C16 O1 1_555 1_555
O3 C17 1_555 1_555
C17 C18 1_555 1_555
C18 H9 1_555 1_555
C19 C18 1_555 1_555
H10 C19 1_555 1_555
Cl2 C20 1_555 1_555
C20 C19 1_555 1_555
C21 C20 1_555 1_555
H11 C21 1_555 1_555
C22 C17 1_555 1_555
N2 C22 1_555 1_555
C23 N2 1_555 1_555
C24 C23 1_555 1_555
C25 C24 1_555 1_555
H12 C25 1_555 1_555
C26 C25 1_555 1_555
H13 C26 1_555 1_555
C27 C26 1_555 1_555
H14 C27 1_555 1_555
C28 C27 1_555 1_555
H15 C28 1_555 1_555
C29 C24 1_555 1_555
O4 C30 1_555 1_555
C30 C29 1_555 1_555
C31 C30 1_555 1_555
H16 C31 1_555 1_555
C32 O3 1_555 1_555
C5 C6 1_555 1_555
C7 C16 1_555 1_555
C12 C13 1_555 1_555
C15 C16 1_555 1_555
C21 C22 1_555 1_555
C23 C32 1_555 1_555
C28 C29 1_555 1_555
C31 C32 1_555 1_555

#END
