
#######################################################################
#
#                 Cambridge Crystallographic Data Centre
#                                CCDC 
#
#######################################################################
#
# If this CIF has been generated from an entry in the Cambridge 
# Structural Database, then it will include bibliographic, chemical, 
# crystal, experimental, refinement or atomic coordinate data resulting 
# from the CCDC's data processing and validation procedures.
#
#######################################################################

data_HONJIF
_chemical_formula_moiety         'C16 H10 Cl1 N1 O3'
_chemical_name_systematic        
2-((5-chloro-2-hydroxyphenyl)amino)-1,4-naphthoquinone
_symmetry_cell_setting           monoclinic
_symmetry_space_group_name_H-M   'P 2/c'
_symmetry_Int_Tables_number      13
_space_group_name_Hall           '-P 2yc'
loop_
_symmetry_equiv_pos_site_id
_symmetry_equiv_pos_as_xyz
1 x,y,z
2 -x,y,1/2-z
3 -x,-y,-z
4 x,-y,1/2+z
_cell_length_a                   12.1478(2)
_cell_length_b                   3.92300(8)
_cell_length_c                   27.5931(5)
_cell_angle_alpha                90
_cell_angle_beta                 96.200(1)
_cell_angle_gamma                90
_cell_volume                     1307.28
_exptl_crystal_colour            red
_exptl_crystal_description       plate
_cell_formula_units_Z            4
loop_
_atom_site_label
_atom_site_type_symbol
_atom_site_fract_x
_atom_site_fract_y
_atom_site_fract_z
O1 O 0.57237(16) 0.3724(6) 0.80236(7)
O2 O 0.95009(17) 1.0671(6) 0.84017(7)
C1 C 0.6605(2) 0.5218(7) 0.81222(10)
C2 C 0.7248(2) 0.6383(7) 0.77183(9)
C3 C 0.8214(2) 0.8146(7) 0.78222(9)
H1 H 0.8595 0.8876 0.7566
C4 C 0.8657(2) 0.8904(7) 0.83082(10)
C5 C 0.8524(3) 0.8121(8) 0.91991(10)
H2 H 0.9201 0.9222 0.9266
C6 C 0.7953(3) 0.7004(9) 0.95783(11)
H3 H 0.8256 0.7350 0.9899
C7 C 0.6943(3) 0.5386(9) 0.94871(11)
H4 H 0.6563 0.4682 0.9744
C8 C 0.6503(3) 0.4821(8) 0.90140(11)
H5 H 0.5824 0.3722 0.8951
C9 C 0.7067(2) 0.5886(7) 0.86291(10)
C10 C 0.8082(2) 0.7594(7) 0.87216(9)
Cl1 Cl 0.57896(6) 1.0060(2) 0.55404(3)
O3 O 0.88868(16) 0.3733(6) 0.70533(7)
H6 H 0.9444 0.3074 0.6938
N1 N 0.6761(2) 0.5581(7) 0.72706(8)
H7 H 0.611(3) 0.475(8) 0.7265(11)
C11 C 0.8196(2) 0.5262(7) 0.67005(10)
C12 C 0.7147(2) 0.6285(7) 0.68139(9)
C13 C 0.6414(2) 0.7801(7) 0.64546(9)
H8 H 0.5718 0.8501 0.6526
C14 C 0.6722(2) 0.8261(7) 0.59941(9)
C15 C 0.7754(2) 0.7299(8) 0.58802(10)
H9 H 0.7954 0.7646 0.5568
C16 C 0.8486(2) 0.5814(7) 0.62346(10)
H10 H 0.9186 0.5173 0.6160
loop_
_geom_bond_atom_site_label_1
_geom_bond_atom_site_label_2
_geom_bond_site_symmetry_1
_geom_bond_site_symmetry_2
O1 C1 1_555 1_555
O2 C4 1_555 1_555
C1 C2 1_555 1_555
C2 C3 1_555 1_555
C3 H1 1_555 1_555
C4 C3 1_555 1_555
C5 H2 1_555 1_555
C6 C5 1_555 1_555
H3 C6 1_555 1_555
C7 C6 1_555 1_555
H4 C7 1_555 1_555
C8 C7 1_555 1_555
H5 C8 1_555 1_555
C9 C1 1_555 1_555
C10 C4 1_555 1_555
Cl1 C14 1_555 1_555
O3 H6 1_555 1_555
N1 C2 1_555 1_555
H7 N1 1_555 1_555
C11 O3 1_555 1_555
C12 N1 1_555 1_555
C13 C12 1_555 1_555
H8 C13 1_555 1_555
C14 C13 1_555 1_555
C15 C14 1_555 1_555
H9 C15 1_555 1_555
C16 C11 1_555 1_555
H10 C16 1_555 1_555
C5 C10 1_555 1_555
C8 C9 1_555 1_555
C9 C10 1_555 1_555
C11 C12 1_555 1_555
C15 C16 1_555 1_555

#END
