
#######################################################################
#
#                 Cambridge Crystallographic Data Centre
#                                CCDC 
#
#######################################################################
#
# If this CIF has been generated from an entry in the Cambridge 
# Structural Database, then it will include bibliographic, chemical, 
# crystal, experimental, refinement or atomic coordinate data resulting 
# from the CCDC's data processing and validation procedures.
#
#######################################################################

data_HONKEC
_chemical_formula_moiety         'C18 H20 O3'
_chemical_name_systematic        
5-(1-methoxyethyl)-1-methyl-9,10-dihydrophenanthrene-2,7-diol
_symmetry_cell_setting           monoclinic
_symmetry_space_group_name_H-M   'P 21/c'
_symmetry_Int_Tables_number      14
_space_group_name_Hall           '-P 2ybc'
loop_
_symmetry_equiv_pos_site_id
_symmetry_equiv_pos_as_xyz
1 x,y,z
2 -x,1/2+y,1/2-z
3 -x,-y,-z
4 x,1/2-y,1/2+z
_cell_length_a                   11.27020(10)
_cell_length_b                   7.00560(10)
_cell_length_c                   19.9028(3)
_cell_angle_alpha                90
_cell_angle_beta                 93.4090(10)
_cell_angle_gamma                90
_cell_volume                     1568.64
_exptl_crystal_description       block
_cell_formula_units_Z            4
loop_
_atom_site_label
_atom_site_type_symbol
_atom_site_fract_x
_atom_site_fract_y
_atom_site_fract_z
O1 O 0.30240(8) 0.60782(14) 0.02014(5)
O2 O -0.19100(8) 0.15146(16) 0.19892(5)
H1 H -0.2360 0.1598 0.1651
O3 O 0.64654(8) 0.19315(19) 0.09109(6)
H2 H 0.6595 0.2642 0.0596
C1 C 0.28723(10) 0.20405(18) 0.13153(6)
C2 C 0.24764(11) 0.4245(2) 0.02801(6)
H3 H 0.1704 0.4416 0.0473
C3 C 0.13171(11) 0.17038(17) 0.21527(6)
C4 C 0.16063(10) 0.18316(17) 0.14732(6)
C5 C 0.44605(11) 0.2926(2) 0.06084(7)
H4 H 0.4710 0.3505 0.0221
C6 C -0.07594(11) 0.15870(18) 0.18091(7)
C7 C 0.32622(10) 0.29909(18) 0.07452(6)
C8 C -0.04853(11) 0.15596(19) 0.11387(7)
H5 H -0.1088 0.1462 0.0801
C9 C 0.33345(11) 0.0390(2) 0.24129(7)
H6 H 0.3997 0.0349 0.2747
H7 H 0.3057 -0.0906 0.2334
C10 C 0.01334(11) 0.16343(17) 0.23261(6)
C11 C -0.02154(13) 0.1625(2) 0.30469(7)
H8 H -0.1030 0.2012 0.3063
H9 H 0.0283 0.2495 0.3307
H10 H -0.0121 0.0361 0.3229
C12 C 0.52818(11) 0.2017(2) 0.10381(7)
C13 C 0.23371(12) 0.1589(2) 0.26767(7)
H11 H 0.2067 0.1020 0.3085
H12 H 0.2628 0.2863 0.2784
C14 C 0.06885(11) 0.16782(18) 0.09753(6)
H13 H 0.0868 0.1655 0.0525
C15 C 0.49256(11) 0.1205(2) 0.16285(7)
H14 H 0.5485 0.0652 0.1931
C16 C 0.37405(11) 0.12198(19) 0.17673(6)
C17 C 0.22869(16) 0.3465(3) -0.04322(7)
H15 H 0.1779 0.4314 -0.0696
H16 H 0.1923 0.2227 -0.0418
H17 H 0.3039 0.3362 -0.0632
C18 C 0.3077(2) 0.7199(3) 0.07972(10)
H18 H 0.2286 0.7448 0.0928
H19 H 0.3469 0.8386 0.0715
H20 H 0.3513 0.6522 0.1151
loop_
_geom_bond_atom_site_label_1
_geom_bond_atom_site_label_2
_geom_bond_site_symmetry_1
_geom_bond_site_symmetry_2
O1 C2 1_555 1_555
O2 H1 1_555 1_555
O3 H2 1_555 1_555
C1 C4 1_555 1_555
C2 H3 1_555 1_555
C3 C4 1_555 1_555
C4 C14 1_555 1_555
C5 H4 1_555 1_555
C6 O2 1_555 1_555
C7 C1 1_555 1_555
C8 C6 1_555 1_555
H5 C8 1_555 1_555
C9 H6 1_555 1_555
H7 C9 1_555 1_555
C10 C3 1_555 1_555
C11 C10 1_555 1_555
H8 C11 1_555 1_555
H9 C11 1_555 1_555
H10 C11 1_555 1_555
C12 O3 1_555 1_555
C13 C3 1_555 1_555
H11 C13 1_555 1_555
H12 C13 1_555 1_555
C14 C8 1_555 1_555
H13 C14 1_555 1_555
C15 C12 1_555 1_555
H14 C15 1_555 1_555
C16 C1 1_555 1_555
C17 C2 1_555 1_555
H15 C17 1_555 1_555
H16 C17 1_555 1_555
H17 C17 1_555 1_555
C18 O1 1_555 1_555
H18 C18 1_555 1_555
H19 C18 1_555 1_555
H20 C18 1_555 1_555
C2 C7 1_555 1_555
C5 C7 1_555 1_555
C5 C12 1_555 1_555
C6 C10 1_555 1_555
C9 C13 1_555 1_555
C9 C16 1_555 1_555
C15 C16 1_555 1_555

#END
