
#######################################################################
#
#                 Cambridge Crystallographic Data Centre
#                                CCDC 
#
#######################################################################
#
# If this CIF has been generated from an entry in the Cambridge 
# Structural Database, then it will include bibliographic, chemical, 
# crystal, experimental, refinement or atomic coordinate data resulting 
# from the CCDC's data processing and validation procedures.
#
#######################################################################

data_HONQEI
_chemical_formula_moiety         'C39 H29 N1 O6'
_chemical_name_systematic        
3,3'-((4-(bis(4-Methylphenyl)amino)phenyl)methylene)bis(4-hydroxy-2H-chromen-2-one)
_symmetry_cell_setting           monoclinic
_symmetry_space_group_name_H-M   'P 21/c'
_symmetry_Int_Tables_number      14
_space_group_name_Hall           '-P 2ybc'
loop_
_symmetry_equiv_pos_site_id
_symmetry_equiv_pos_as_xyz
1 x,y,z
2 -x,1/2+y,1/2-z
3 -x,-y,-z
4 x,1/2-y,1/2+z
_cell_length_a                   22.4878(12)
_cell_length_b                   7.3667(4)
_cell_length_c                   19.2900(13)
_cell_angle_alpha                90
_cell_angle_beta                 103.390(7)
_cell_angle_gamma                90
_cell_volume                     3108.73
_cell_formula_units_Z            4
_exptl_crystal_recrystallization_method methanol
loop_
_atom_site_label
_atom_site_type_symbol
_atom_site_fract_x
_atom_site_fract_y
_atom_site_fract_z
N1 N 0.37640(19) -0.1337(7) 0.0910(3)
C1 C 0.3522(5) -0.7851(11) -0.0767(5)
H1 H 0.3646 -0.8873 -0.0458
H2 H 0.3775 -0.7774 -0.1103
H3 H 0.3103 -0.7999 -0.1018
C2 C 0.3586(3) -0.6133(8) -0.0328(3)
C3 C 0.3998(3) -0.4794(10) -0.0396(4)
H4 H 0.4245 -0.4964 -0.0717
C4 C 0.4057(3) -0.3209(10) -0.0003(4)
H5 H 0.4328 -0.2313 -0.0073
C5 C 0.3710(2) -0.2961(7) 0.0498(3)
C6 C 0.3320(2) -0.4320(8) 0.0591(3)
H6 H 0.3095 -0.4191 0.0936
C7 C 0.3255(3) -0.5881(7) 0.0180(3)
H7 H 0.2982 -0.6774 0.0249
C8 C 0.4366(2) -0.0707(8) 0.1249(3)
C9 C 0.4523(3) 0.1088(9) 0.1197(3)
H8 H 0.4237 0.1910 0.0950
C10 C 0.5108(3) 0.1659(10) 0.1513(4)
H9 H 0.5208 0.2874 0.1476
C11 C 0.5545(3) 0.0504(12) 0.1879(4)
C12 C 0.5380(3) -0.1277(13) 0.1932(4)
H10 H 0.5667 -0.2090 0.2183
C13 C 0.4799(3) -0.1891(10) 0.1625(4)
H11 H 0.4699 -0.3103 0.1671
C14 C 0.6195(3) 0.1119(15) 0.2214(5)
H12 H 0.6239 0.1294 0.2716
H13 H 0.6276 0.2241 0.2000
H14 H 0.6478 0.0211 0.2136
C15 C 0.3242(2) -0.0494(7) 0.1053(3)
C16 C 0.3261(2) 0.0475(8) 0.1673(3)
H15 H 0.3631 0.0583 0.2007
C17 C 0.2743(2) 0.1290(7) 0.1809(3)
H16 H 0.2774 0.1931 0.2231
C18 C 0.2180(2) 0.1168(7) 0.1328(3)
C19 C 0.2160(2) 0.0179(7) 0.0708(3)
H17 H 0.1790 0.0051 0.0377
C20 C 0.2680(2) -0.0620(7) 0.0570(3)
H18 H 0.2652 -0.1252 0.0147
C21 C 0.1570(9) 0.1929(18) 0.1452(11)
H19 H 0.1372 0.0855 0.1598
C22 C 0.1192(5) 0.2772(16) 0.2492(8)
C23 C 0.1602(15) 0.317(5) 0.204(3)
C24 C 0.1931(8) 0.469(3) 0.2127(11)
C25 C 0.1942(8) 0.588(3) 0.2731(9)
C26 C 0.1562(12) 0.537(6) 0.317(2)
C27 C 0.1519(16) 0.646(3) 0.375(2)
H20 H 0.1266 0.6117 0.4044
C28 C 0.1856(8) 0.805(3) 0.3881(10)
H21 H 0.1827 0.8782 0.4266
C29 C 0.2235(15) 0.856(5) 0.3439(16)
H22 H 0.2460 0.9630 0.3528
C30 C 0.2278(8) 0.747(3) 0.2864(12)
H23 H 0.2532 0.7813 0.2568
C31 C 0.1345(18) 0.357(5) 0.024(3)
C32 C 0.1117(18) 0.252(4) 0.0741(17)
C33 C 0.0498(5) 0.2200(13) 0.0585(6)
C34 C 0.0127(17) 0.265(4) -0.012(2)
C35 C 0.0393(15) 0.336(4) -0.0602(19)
C36 C 0.0112(15) 0.375(4) -0.131(2)
H24 H 0.0311 0.4284 -0.1637
C37 C -0.0512(11) 0.324(2) -0.1482(11)
H25 H -0.0732 0.3353 -0.1952
C38 C -0.0819(10) 0.257(3) -0.0970(16)
H26 H -0.1236 0.2333 -0.1108
C39 C -0.051(4) 0.224(12) -0.026(4)
O1 O 0.0191(6) 0.1421(17) 0.1020(8)
H27 H 0.0430 0.1142 0.1394
O2 O 0.2272(9) 0.532(3) 0.1692(15)
H28 H 0.2236 0.4644 0.1346
O3 O 0.0825(3) 0.1563(9) 0.2400(4)
O4 O 0.1212(3) 0.3862(13) 0.3059(4)
O5 O 0.1006(3) 0.3892(9) -0.0431(4)
O6 O 0.1856(4) 0.4319(11) 0.0378(5)
C40? C 0.1600 0.1902 0.1500
H29? H 0.1480 0.0945 0.1793
C41? C 0.2086(13) 0.515(5) 0.184(2)
C42? C 0.1761(18) 0.364(6) 0.205(3)
C43? C 0.1581(5) 0.3958(16) 0.2675(7)
C44? C 0.1745(15) 0.561(7) 0.309(3)
C45? C 0.2076(11) 0.687(4) 0.2864(14)
C46? C 0.230(2) 0.862(7) 0.3189(19)
H30? H 0.2547 0.9447 0.3028
C47? C 0.2051(10) 0.876(3) 0.3800(14)
H31? H 0.2156 0.9804 0.4075
C48? C 0.1663(10) 0.752(4) 0.4041(12)
H32? H 0.1514 0.7865 0.4433
C49? C 0.148(2) 0.579(4) 0.374(3)
H33? H 0.1243 0.4931 0.3908
C50? C 0.0498(8) 0.181(2) 0.1219(11)
C51? C 0.105(2) 0.227(6) 0.098(2)
C52? C 0.1049(12) 0.295(3) 0.0363(13)
C53? C 0.0478(10) 0.296(3) -0.0182(15)
C54? C -0.004(2) 0.239(5) 0.003(3)
C55? C -0.060(5) 0.234(13) -0.047(4)
H34? H -0.0952 0.1959 -0.0328
C56? C -0.0639(12) 0.285(3) -0.1169(16)
H35? H -0.1013 0.2818 -0.1500
C57? C -0.0117(15) 0.342(4) -0.138(2)
H36? H -0.0141 0.3765 -0.1847
C58? C 0.044(2) 0.347(5) -0.088(2)
H37? H 0.0791 0.3854 -0.1023
O7? O 0.1512(15) 0.367(5) 0.016(2)
H38? H 0.1818 0.3640 0.0485
O8? O 0.1235(7) 0.2764(19) 0.2958(8)
H39? H 0.1163 0.1863 0.2703
O9? O 0.2219(7) 0.5217(17) 0.1240(8)
O10? O 0.2261(4) 0.6656(11) 0.2235(5)
O11? O -0.0027(7) 0.192(2) 0.0716(10)
O12? O 0.0455(4) 0.1378(14) 0.1804(7)
loop_
_geom_bond_atom_site_label_1
_geom_bond_atom_site_label_2
_geom_bond_site_symmetry_1
_geom_bond_site_symmetry_2
N1 C5 1_555 1_555
C1 H1 1_555 1_555
H2 C1 1_555 1_555
H3 C1 1_555 1_555
C2 C1 1_555 1_555
C3 C2 1_555 1_555
H4 C3 1_555 1_555
C4 C3 1_555 1_555
H5 C4 1_555 1_555
C5 C4 1_555 1_555
C6 C5 1_555 1_555
H6 C6 1_555 1_555
C7 C2 1_555 1_555
H7 C7 1_555 1_555
C8 N1 1_555 1_555
C9 C8 1_555 1_555
H8 C9 1_555 1_555
C10 C9 1_555 1_555
H9 C10 1_555 1_555
C11 C10 1_555 1_555
C12 C11 1_555 1_555
H10 C12 1_555 1_555
C13 C8 1_555 1_555
H11 C13 1_555 1_555
C14 C11 1_555 1_555
H12 C14 1_555 1_555
H13 C14 1_555 1_555
H14 C14 1_555 1_555
C15 N1 1_555 1_555
C16 C15 1_555 1_555
H15 C16 1_555 1_555
C17 C16 1_555 1_555
H16 C17 1_555 1_555
C18 C17 1_555 1_555
C19 C18 1_555 1_555
H17 C19 1_555 1_555
C20 C15 1_555 1_555
H18 C20 1_555 1_555
C21 C18 1_555 1_555
H19 C21 1_555 1_555
C22 C23 1_555 1_555
C23 C21 1_555 1_555
C24 C23 1_555 1_555
C25 C24 1_555 1_555
C26 C25 1_555 1_555
C27 C26 1_555 1_555
H20 C27 1_555 1_555
C28 C27 1_555 1_555
H21 C28 1_555 1_555
C29 C28 1_555 1_555
H22 C29 1_555 1_555
C30 C25 1_555 1_555
H23 C30 1_555 1_555
C31 C32 1_555 1_555
C32 C21 1_555 1_555
C33 C32 1_555 1_555
C34 C33 1_555 1_555
C35 C34 1_555 1_555
C36 C35 1_555 1_555
H24 C36 1_555 1_555
C37 C36 1_555 1_555
H25 C37 1_555 1_555
C38 C37 1_555 1_555
H26 C38 1_555 1_555
C39 C34 1_555 1_555
O1 C33 1_555 1_555
H27 O1 1_555 1_555
O2 C24 1_555 1_555
H28 O2 1_555 1_555
O3 C22 1_555 1_555
O4 C22 1_555 1_555
O5 C31 1_555 1_555
O6 C31 1_555 1_555
C6 C7 1_555 1_555
C12 C13 1_555 1_555
C19 C20 1_555 1_555
C26 O4 1_555 1_555
C29 C30 1_555 1_555
C35 O5 1_555 1_555
C38 C39 1_555 1_555

#END
