
#######################################################################
#
#                 Cambridge Crystallographic Data Centre
#                                CCDC 
#
#######################################################################
#
# If this CIF has been generated from an entry in the Cambridge 
# Structural Database, then it will include bibliographic, chemical, 
# crystal, experimental, refinement or atomic coordinate data resulting 
# from the CCDC's data processing and validation procedures.
#
#######################################################################

data_HONYAM
_chemical_compound_source        'marine-derived fungus Aspergillus oryzae'
_chemical_name_common            'Speradine F'
_chemical_formula_moiety         'C21 H22 N2 O7'
_chemical_name_systematic        
1-Acetyl-1,10a,10b-trihydroxy-3,3,8-trimethyl-1,3a,4,10a,10b,10c-hexahydro-2H,3H-10-oxa-2a,8-diazacyclopenta[3,4]pentaleno[1,6-cd]acenaphthylene-2,9(8H)-dione
_symmetry_cell_setting           tetragonal
_symmetry_space_group_name_H-M   'P 43 21 2'
_symmetry_Int_Tables_number      96
_space_group_name_Hall           'P 4nw 2abw'
loop_
_symmetry_equiv_pos_site_id
_symmetry_equiv_pos_as_xyz
1 x,y,z
2 -x,-y,1/2+z
3 1/2-y,1/2+x,3/4+z
4 1/2+y,1/2-x,1/4+z
5 1/2-x,1/2+y,3/4-z
6 1/2+x,1/2-y,1/4-z
7 y,x,-z
8 -y,-x,1/2-z
_cell_length_a                   14.8878(4)
_cell_length_b                   14.8878(4)
_cell_length_c                   17.9410(8)
_cell_angle_alpha                90
_cell_angle_beta                 90
_cell_angle_gamma                90
_cell_volume                     3976.56
_exptl_crystal_colour            colorless
_exptl_crystal_description       Block
_cell_formula_units_Z            8
loop_
_atom_site_label
_atom_site_type_symbol
_atom_site_fract_x
_atom_site_fract_y
_atom_site_fract_z
O1 O 0.26911(12) 0.43581(10) 0.10852(9)
O2 O 0.39638(10) 0.62456(11) 0.15717(8)
H1 H 0.3840 0.6659 0.1855
O3 O 0.23720(10) 0.61196(12) 0.24704(8)
O4 O 0.27442(13) 0.69402(12) -0.11459(9)
O5 O 0.32892(11) 0.57862(10) -0.00408(8)
H2 H 0.3197 0.6047 -0.0436
O6 O 0.30161(10) 0.71854(10) 0.05166(8)
O7 O 0.14755(10) 0.54349(10) 0.01639(8)
H3 H 0.1710 0.4969 0.0312
N1 N 0.27462(15) 0.84717(15) -0.09475(13)
N2 N 0.16119(11) 0.61411(12) 0.13520(9)
C1 C 0.26026(17) 0.75996(16) -0.07536(14)
C2 C 0.22285(16) 0.85601(15) 0.02434(15)
C3 C 0.23040(15) 0.75926(14) 0.00739(13)
C4 C 0.14513(14) 0.70652(13) 0.02839(12)
H4 H 0.1054 0.6986 -0.0147
C5 C 0.18307(14) 0.61628(13) 0.05547(11)
C6 C 0.07534(14) 0.66514(15) 0.14778(11)
C7 C 0.09342(14) 0.74757(14) 0.09665(12)
H5 H 0.0357 0.7710 0.0791
C8 C 0.18084(17) 0.89145(16) 0.08557(16)
C9 C 0.14354(16) 0.82348(16) 0.13862(14)
H6 H 0.1025 0.8528 0.1728
H7 H 0.1921 0.7977 0.1676
C10 C 0.17360(19) 0.98518(17) 0.08863(19)
H8 H 0.1467 1.0128 0.1294
C11 C 0.2066(2) 1.03599(18) 0.0308(2)
H9 H 0.2035 1.0982 0.0349
C12 C 0.2445(2) 0.99969(18) -0.0334(2)
H10 H 0.2646 1.0358 -0.0722
C13 C 0.25092(17) 0.90623(17) -0.03636(17)
C14 C 0.3030(2) 0.8750(2) -0.1692(2)
H11 H 0.3145 0.8228 -0.1991
H12 H 0.3567 0.9104 -0.1655
H13 H 0.2563 0.9101 -0.1919
C15 C 0.05725(16) 0.68821(19) 0.22956(12)
H14 H 0.0469 0.6339 0.2571
H15 H 0.0053 0.7261 0.2329
H16 H 0.1083 0.7190 0.2500
C16 C -0.00342(15) 0.60951(17) 0.11951(13)
H17 H -0.0128 0.5592 0.1521
H18 H 0.0095 0.5882 0.0701
H19 H -0.0566 0.6460 0.1184
C17 C 0.23408(14) 0.60498(14) 0.17895(11)
C18 C 0.31741(14) 0.58710(14) 0.12926(11)
C19 C 0.33256(16) 0.48555(15) 0.11899(12)
C20 C 0.42769(18) 0.45370(18) 0.12059(18)
H20 H 0.4291 0.3897 0.1140
H21 H 0.4543 0.4689 0.1677
H22 H 0.4608 0.4820 0.0811
C21 C 0.28618(14) 0.62452(13) 0.05354(11)
loop_
_geom_bond_atom_site_label_1
_geom_bond_atom_site_label_2
_geom_bond_site_symmetry_1
_geom_bond_site_symmetry_2
O1 C19 1_555 1_555
O2 H1 1_555 1_555
O3 C17 1_555 1_555
O4 C1 1_555 1_555
O5 H2 1_555 1_555
O6 C3 1_555 1_555
O7 H3 1_555 1_555
N1 C1 1_555 1_555
N2 C5 1_555 1_555
C1 C3 1_555 1_555
C2 C3 1_555 1_555
C3 C4 1_555 1_555
C4 H4 1_555 1_555
C5 O7 1_555 1_555
C6 N2 1_555 1_555
C7 C4 1_555 1_555
H5 C7 1_555 1_555
C8 C2 1_555 1_555
C9 C7 1_555 1_555
H6 C9 1_555 1_555
H7 C9 1_555 1_555
C10 C8 1_555 1_555
H8 C10 1_555 1_555
C11 C10 1_555 1_555
H9 C11 1_555 1_555
C12 C11 1_555 1_555
H10 C12 1_555 1_555
C13 N1 1_555 1_555
C14 N1 1_555 1_555
H11 C14 1_555 1_555
H12 C14 1_555 1_555
H13 C14 1_555 1_555
C15 C6 1_555 1_555
H14 C15 1_555 1_555
H15 C15 1_555 1_555
H16 C15 1_555 1_555
C16 C6 1_555 1_555
H17 C16 1_555 1_555
H18 C16 1_555 1_555
H19 C16 1_555 1_555
C17 N2 1_555 1_555
C18 O2 1_555 1_555
C19 C18 1_555 1_555
C20 C19 1_555 1_555
H20 C20 1_555 1_555
H21 C20 1_555 1_555
H22 C20 1_555 1_555
C21 O5 1_555 1_555
O6 C21 1_555 1_555
C2 C13 1_555 1_555
C4 C5 1_555 1_555
C5 C21 1_555 1_555
C6 C7 1_555 1_555
C8 C9 1_555 1_555
C12 C13 1_555 1_555
C17 C18 1_555 1_555
C18 C21 1_555 1_555

#END
