
#######################################################################
#
#                 Cambridge Crystallographic Data Centre
#                                CCDC 
#
#######################################################################
#
# If this CIF has been generated from an entry in the Cambridge 
# Structural Database, then it will include bibliographic, chemical, 
# crystal, experimental, refinement or atomic coordinate data resulting 
# from the CCDC's data processing and validation procedures.
#
#######################################################################

data_HOPFUN
_chemical_formula_moiety         'C10 H12 N4 O8 P1,9(H2 O1)'
_chemical_name_systematic        "Inosine 5'-monophosphate nonahydrate"
_symmetry_cell_setting           monoclinic
_symmetry_space_group_name_H-M   'P 21'
_symmetry_Int_Tables_number      4
_space_group_name_Hall           'P 2yb'
loop_
_symmetry_equiv_pos_site_id
_symmetry_equiv_pos_as_xyz
1 x,y,z
2 -x,1/2+y,-z
_cell_length_a                   8.650(1)
_cell_length_b                   21.900(1)
_cell_length_c                   12.370(1)
_cell_angle_alpha                90
_cell_angle_beta                 110.38(9)
_cell_angle_gamma                90
_cell_volume                     2196.63
_exptl_crystal_colour            colorless
_exptl_crystal_description       needle
_cell_formula_units_Z            4
_chemical_properties_physical    'crystals are very hygroscopic'
loop_
_atom_site_label
_atom_site_type_symbol
_atom_site_fract_x
_atom_site_fract_y
_atom_site_fract_z
P1 P 0.2658(2) 0.0627 0.2544(2)
O1 O 0.4000(7) 0.0187(4) 0.3190(5)
O2 O 0.2079(6) 0.0425(3) 0.1194(5)
O3 O 0.1116(7) 0.0542(4) 0.2844(5)
O4 O 0.3265(8) 0.1266(3) 0.2624(5)
C1 C 0.3306(10) 0.0506(5) 0.0665(7)
C2 C 0.2769(10) 0.0225(4) -0.0505(7)
O5 O 0.2498(7) -0.0431(3) -0.0454(6)
C3 C 0.0913(10) -0.0585(4) -0.1161(7)
C4 C -0.0105(10) 0.0002(4) -0.1348(7)
C5 C 0.1182(11) 0.0467(5) -0.1396(7)
O6 O -0.1472(8) -0.0051(4) -0.2368(6)
O7 O 0.1267(9) 0.0426(4) -0.2511(5)
N1 N 0.0298(9) -0.1079(4) -0.0596(6)
C6 C 0.0539(15) -0.1114(5) 0.0552(9)
N2 N -0.0158(14) -0.1622(5) 0.0781(8)
C7 C -0.0778(11) -0.1920(4) -0.0247(9)
C8 C -0.0447(10) -0.1585(5) -0.1122(8)
N3 N -0.0896(11) -0.1739(4) -0.2241(7)
C9 C -0.1527(13) -0.2280(5) -0.2442(9)
N4 N -0.1922(9) -0.2642(4) -0.1683(8)
C10 C -0.1529(12) -0.2510(4) -0.0529(9)
O8 O -0.1826(12) -0.2873(4) 0.0103(9)
P2 P 0.4890(2) -0.3829 0.2542(2)
O9 O 0.4364(8) -0.4475(3) 0.2632(5)
O10 O 0.6714(6) -0.3749(4) 0.2833(5)
O11 O 0.4184(8) -0.3389(3) 0.3199(5)
O12 O 0.4117(6) -0.3639(3) 0.1191(5)
C11 C 0.2911(9) -0.2628(4) -0.1170(7)
C12 C 0.3738(10) -0.3212(4) -0.1331(7)
C13 C 0.1723(9) -0.3425(4) -0.0511(7)
C14 C 0.2429(11) -0.3681(4) -0.1386(6)
C15 C 0.2391(10) -0.3707(5) 0.0681(7)
O13 O 0.2057(8) -0.2773(3) -0.0439(6)
O14 O 0.4118(8) -0.3161(4) -0.2359(6)
O15 O 0.1232(9) -0.3636(4) -0.2497(5)
N5 N 0.4122(9) -0.2137(3) -0.0580(6)
C16 C 0.5029(14) -0.2099(5) 0.0523(10)
N6 N 0.5942(11) -0.1582(5) 0.0778(8)
C17 C 0.5497(10) -0.1296(5) -0.0247(9)
C18 C 0.4369(10) -0.1609(5) -0.1119(8)
N7 N 0.3665(11) -0.1465(5) -0.2226(7)
C19 C 0.4115(15) -0.0921(6) -0.2448(9)
N8 N 0.5245(10) -0.0568(4) -0.1682(8)
C20 C 0.5999(11) -0.0697(5) -0.0528(10)
O16 O 0.6927(11) -0.0329(4) 0.0111(9)
O17 O 0.8975(6) 0.0251(4) 0.5820(4)
O18 O 0.8154(7) 0.1555(4) 0.4180(4)
O19 O 0.8503(10) 0.1394(5) 0.6164(7)
O20 O 0.7333(9) 0.0397(6) 0.3872(8)
O21 O 0.1268(18) 0.3424(9) 0.7553(11)
O22 O 0.8663(14) -0.0307(7) 0.2408(11)
O23 O 0.0847(10) 0.0905(10) 0.5000(8)
O24 O -0.1247(13) -0.2876(7) 0.2437(10)
O25 O 0.4528(30) 0.1570(11) 0.4287(22)
O26 O 0.5361(34) 0.4017(7) 0.7309(22)
O29 O 0.4197(37) 0.5000(14) 0.4527(19)
O31 O -0.0843(33) -0.0942(13) -0.4209(21)
O32 O -0.3379(51) -0.1094(18) -0.4532(37)
O33 O 0.1651(77) -0.2262(18) -0.4326(24)
O35 O 0.1973(44) -0.0811(19) 0.5826(28)
O36 O 0.1764(47) 0.4111(18) 0.6013(27)
O37 O 0.2993(30) -0.2257(10) 0.2709(25)
O27? O 0.5344(25) 0.1789(11) 0.4527(13)
O28? O 0.3914(32) 0.1920(12) 0.4583(15)
O30? O 0.5585(37) 0.4836(12) 0.4574(20)
O34? O 0.3752(71) -0.2174(17) -0.4399(25)
loop_
_geom_bond_atom_site_label_1
_geom_bond_atom_site_label_2
_geom_bond_site_symmetry_1
_geom_bond_site_symmetry_2
P1 O1 1_555 1_555
O2 P1 1_555 1_555
O3 P1 1_555 1_555
O4 P1 1_555 1_555
C1 O2 1_555 1_555
C2 C1 1_555 1_555
O5 C2 1_555 1_555
C3 O5 1_555 1_555
C4 C3 1_555 1_555
C5 C2 1_555 1_555
O6 C4 1_555 1_555
O7 C5 1_555 1_555
N1 C3 1_555 1_555
C6 N1 1_555 1_555
N2 C6 1_555 1_555
C7 N2 1_555 1_555
C8 N1 1_555 1_555
N3 C8 1_555 1_555
C9 N3 1_555 1_555
N4 C9 1_555 1_555
C10 C7 1_555 1_555
O8 C10 1_555 1_555
P2 O9 1_555 1_555
O10 P2 1_555 1_555
O11 P2 1_555 1_555
O12 P2 1_555 1_555
C11 C12 1_555 1_555
C12 C14 1_555 1_555
C13 C14 1_555 1_555
C14 O15 1_555 1_555
C15 O12 1_555 1_555
O13 C11 1_555 1_555
O14 C12 1_555 1_555
N5 C11 1_555 1_555
C16 N5 1_555 1_555
N6 C16 1_555 1_555
C17 N6 1_555 1_555
C18 N5 1_555 1_555
N7 C18 1_555 1_555
C19 N7 1_555 1_555
N8 C19 1_555 1_555
C20 C17 1_555 1_555
O16 C20 1_555 1_555
C4 C5 1_555 1_555
C7 C8 1_555 1_555
N4 C10 1_555 1_555
C13 C15 1_555 1_555
C13 O13 1_555 1_555
C17 C18 1_555 1_555
N8 C20 1_555 1_555

#END
