
#######################################################################
#
#                 Cambridge Crystallographic Data Centre
#                                CCDC 
#
#######################################################################
#
# If this CIF has been generated from an entry in the Cambridge 
# Structural Database, then it will include bibliographic, chemical, 
# crystal, experimental, refinement or atomic coordinate data resulting 
# from the CCDC's data processing and validation procedures.
#
#######################################################################

data_HOPFUO
_chemical_formula_moiety         'C25 H22 N6 O6 S1'
_chemical_name_systematic        
'2-((5-((4-((2-(Acryloyloxy)ethyl)(methyl)amino)phenyl)diazenyl)-2-thienyl)diazenyl)-5-nitrophenyl acrylate'
_symmetry_cell_setting           triclinic
_symmetry_space_group_name_H-M   'P -1'
_symmetry_Int_Tables_number      2
_space_group_name_Hall           '-P 1'
loop_
_symmetry_equiv_pos_site_id
_symmetry_equiv_pos_as_xyz
1 x,y,z
2 -x,-y,-z
_cell_length_a                   8.176(2)
_cell_length_b                   11.859(3)
_cell_length_c                   15.016(3)
_cell_angle_alpha                67.61(2)
_cell_angle_beta                 75.52(2)
_cell_angle_gamma                85.57(3)
_cell_volume                     1303.15
_exptl_crystal_colour            'dark green'
_exptl_crystal_description       prism
_cell_formula_units_Z            2
_exptl_crystal_recrystallization_method chloroform/hexane
loop_
_atom_site_label
_atom_site_type_symbol
_atom_site_fract_x
_atom_site_fract_y
_atom_site_fract_z
S1 S 0.89417(11) 0.38682(8) 0.85542(7)
O1 O 2.0127(4) 0.3535(4) 0.5413(3)
O2 O 2.0055(4) 0.2138(3) 0.6840(3)
O3 O 1.4093(4) 0.1876(3) 0.86854(19)
O4 O 1.3703(5) 0.0482(3) 0.8095(3)
O5 O -0.2789(3) 0.1217(2) 1.42855(19)
O6 O -0.2259(5) 0.0781(5) 1.5751(3)
N1 N 1.9381(5) 0.2920(4) 0.6253(4)
N2 N 1.2478(4) 0.3775(3) 0.7622(2)
N3 N 1.1862(4) 0.4748(3) 0.7089(2)
N4 N 0.5560(3) 0.4478(3) 0.8952(2)
N5 N 0.5489(3) 0.3502(3) 0.9717(2)
N6 N -0.0924(4) 0.1855(3) 1.2175(2)
C1 C 1.1813(10) -0.0730(7) 1.0092(6)
H1 H 1.1918 -0.1118 0.9647
H2 H 1.1196 -0.1103 1.0743
C2 C 1.2447(8) 0.0214(6) 0.9835(5)
H3 H 1.2336 0.0598 1.0284
C3 C 1.3460(6) 0.0839(5) 0.8774(3)
C4 C 1.4996(5) 0.2606(3) 0.7774(3)
C5 C 1.6677(5) 0.2377(4) 0.7461(3)
H4 H 1.7184 0.1698 0.7843
C6 C 1.7573(4) 0.3169(4) 0.6580(3)
C7 C 1.6858(5) 0.4185(4) 0.6000(3)
H5 H 1.7497 0.4705 0.5394
C8 C 1.5186(5) 0.4422(3) 0.6326(3)
H6 H 1.4701 0.5117 0.5947
C9 C 1.4218(4) 0.3626(3) 0.7223(3)
C10 C 1.0152(4) 0.4895(3) 0.7464(3)
C11 C 0.9251(5) 0.5857(4) 0.6997(3)
H7 H 0.9717 0.6495 0.6409
C12 C 0.7550(5) 0.5779(4) 0.7498(3)
H8 H 0.6758 0.6357 0.7277
C13 C 0.7178(4) 0.4764(3) 0.8346(3)
C14 C 0.3855(4) 0.3152(3) 1.0323(3)
C15 C 0.2365(4) 0.3772(3) 1.0122(3)
H9 H 0.2439 0.4480 0.9559
C16 C 0.0823(4) 0.3357(3) 1.0735(3)
H10 H -0.0132 0.3793 1.0586
C17 C 0.0638(4) 0.2283(3) 1.1587(3)
C18 C 0.2156(4) 0.1677(3) 1.1796(3)
H11 H 0.2099 0.0979 1.2366
C19 C 0.3689(4) 0.2110(3) 1.1170(3)
H12 H 0.4655 0.1689 1.1319
C20 C -0.1170(5) 0.0667(3) 1.2968(3)
H13 H -0.0265 0.0146 1.2808
H14 H -0.2223 0.0312 1.2998
C21 C -0.1219(5) 0.0666(4) 1.3974(3)
H15 H -0.1169 -0.0162 1.4441
H16 H -0.0265 0.1131 1.3941
C22 C -0.3182(6) 0.1200(4) 1.5203(3)
C23 C -0.4842(6) 0.1692(4) 1.5477(4)
H17 H -0.5198 0.1674 1.6121
C24 C -0.5831(7) 0.2138(5) 1.4913(5)
H18 H -0.5522 0.2174 1.4263
H19 H -0.6869 0.2433 1.5146
C25 C -0.2436(4) 0.2559(4) 1.1992(3)
H20 H -0.2389 0.3302 1.2101
H21 H -0.3421 0.2089 1.2437
H22 H -0.2492 0.2749 1.1320
loop_
_geom_bond_atom_site_label_1
_geom_bond_atom_site_label_2
_geom_bond_site_symmetry_1
_geom_bond_site_symmetry_2
S1 C10 1_555 1_555
O1 N1 1_555 1_555
O2 N1 1_555 1_555
O3 C3 1_555 1_555
O4 C3 1_555 1_555
O5 C21 1_555 1_555
O6 C22 1_555 1_555
N1 C6 1_555 1_555
N2 N3 1_555 1_555
N3 C10 1_555 1_555
N4 N5 1_555 1_555
N5 C14 1_555 1_555
N6 C17 1_555 1_555
C1 H1 1_555 1_555
H2 C1 1_555 1_555
C2 C1 1_555 1_555
H3 C2 1_555 1_555
C3 C2 1_555 1_555
C4 O3 1_555 1_555
C5 C4 1_555 1_555
H4 C5 1_555 1_555
C6 C5 1_555 1_555
C7 C6 1_555 1_555
H5 C7 1_555 1_555
C8 C7 1_555 1_555
H6 C8 1_555 1_555
C9 N2 1_555 1_555
C10 C11 1_555 1_555
C11 H7 1_555 1_555
C12 C11 1_555 1_555
H8 C12 1_555 1_555
C13 S1 1_555 1_555
C14 C15 1_555 1_555
C15 H9 1_555 1_555
C16 C15 1_555 1_555
H10 C16 1_555 1_555
C17 C16 1_555 1_555
C18 C17 1_555 1_555
H11 C18 1_555 1_555
C19 C14 1_555 1_555
H12 C19 1_555 1_555
C20 N6 1_555 1_555
H13 C20 1_555 1_555
H14 C20 1_555 1_555
C21 C20 1_555 1_555
H15 C21 1_555 1_555
H16 C21 1_555 1_555
C22 O5 1_555 1_555
C23 C22 1_555 1_555
H17 C23 1_555 1_555
C24 C23 1_555 1_555
H18 C24 1_555 1_555
H19 C24 1_555 1_555
C25 N6 1_555 1_555
H20 C25 1_555 1_555
H21 C25 1_555 1_555
H22 C25 1_555 1_555
N4 C13 1_555 1_555
C4 C9 1_555 1_555
C8 C9 1_555 1_555
C12 C13 1_555 1_555
C18 C19 1_555 1_555

#END
