
#######################################################################
#
#                 Cambridge Crystallographic Data Centre
#                                CCDC 
#
#######################################################################
#
# If this CIF has been generated from an entry in the Cambridge 
# Structural Database, then it will include bibliographic, chemical, 
# crystal, experimental, refinement or atomic coordinate data resulting 
# from the CCDC's data processing and validation procedures.
#
#######################################################################

data_HOPKUT01
_chemical_formula_moiety         'C1 H1 N5 O2'
_chemical_name_systematic        5-nitro-2H-tetrazole
_symmetry_cell_setting           monoclinic
_symmetry_space_group_name_H-M   'P 21'
_symmetry_Int_Tables_number      4
_space_group_name_Hall           'P 2yb'
loop_
_symmetry_equiv_pos_site_id
_symmetry_equiv_pos_as_xyz
1 x,y,z
2 -x,1/2+y,-z
_cell_length_a                   5.3320(11)
_cell_length_b                   9.4551(19)
_cell_length_c                   8.3027(17)
_cell_angle_alpha                90
_cell_angle_beta                 107.07(3)
_cell_angle_gamma                90
_cell_volume                     400.138
_cell_formula_units_Z            4
loop_
_atom_site_label
_atom_site_type_symbol
_atom_site_fract_x
_atom_site_fract_y
_atom_site_fract_z
O1 O 1.13463(19) 0.36801(13) 0.48200(13)
O2 O 0.8798(2) 0.35907(13) 0.64412(13)
N1 N 0.8306(2) 0.17622(15) 0.26855(14)
N2 N 0.6407(2) 0.08629(15) 0.20231(14)
N3 N 0.5001(2) 0.07803(16) 0.30877(14)
N4 N 0.5851(2) 0.15763(14) 0.44476(15)
N5 N 0.9475(2) 0.32239(14) 0.52127(15)
C1 C 0.7882(3) 0.21663(17) 0.41278(17)
H1 H 0.355(3) 0.0245(19) 0.286(2)
O3 O 0.4802(2) 0.24363(12) 0.81802(13)
O4 O 0.2682(2) 0.06090(13) 0.68524(12)
N6 N 0.9207(2) 0.08737(14) 0.94006(13)
N7 N 1.0694(2) -0.02282(16) 1.00132(13)
N8 N 0.9203(2) -0.13491(14) 0.95096(15)
N9 N 0.6792(2) -0.10736(14) 0.85865(13)
N10 N 0.4620(2) 0.11838(14) 0.77974(13)
C2 C 0.6872(3) 0.03130(17) 0.85525(16)
H2 H 0.978(4) -0.2230(13) 0.986(3)
loop_
_geom_bond_atom_site_label_1
_geom_bond_atom_site_label_2
_geom_bond_site_symmetry_1
_geom_bond_site_symmetry_2
O1 N5 1_555 1_555
O2 N5 1_555 1_555
N1 N2 1_555 1_555
N2 N3 1_555 1_555
N3 N4 1_555 1_555
N4 C1 1_555 1_555
N5 C1 1_555 1_555
C1 N1 1_555 1_555
H1 N3 1_555 1_555
O3 N10 1_555 1_555
O4 N10 1_555 1_555
N6 N7 1_555 1_555
N7 N8 1_555 1_555
N8 N9 1_555 1_555
N9 C2 1_555 1_555
N10 C2 1_555 1_555
C2 N6 1_555 1_555
H2 N8 1_555 1_555

#END
