
#######################################################################
#
#                 Cambridge Crystallographic Data Centre
#                                CCDC 
#
#######################################################################
#
# If this CIF has been generated from an entry in the Cambridge 
# Structural Database, then it will include bibliographic, chemical, 
# crystal, experimental, refinement or atomic coordinate data resulting 
# from the CCDC's data processing and validation procedures.
#
#######################################################################

data_HOPLEF
_chemical_formula_moiety         'C48 H70 Mg1 N4 O1 Si2'
_chemical_name_systematic        
(tetrahydrofuran)-bis(N-(trimethylsilyl)-N'-(2,6-diisopropylphenyl)benzamidinato)-magnesium
_symmetry_cell_setting           monoclinic
_symmetry_space_group_name_H-M   'P 21/n'
_symmetry_Int_Tables_number      14
_space_group_name_Hall           '-P 2yn'
loop_
_symmetry_equiv_pos_site_id
_symmetry_equiv_pos_as_xyz
1 x,y,z
2 1/2-x,1/2+y,1/2-z
3 -x,-y,-z
4 1/2+x,1/2-y,1/2+z
_cell_length_a                   11.759(6)
_cell_length_b                   28.216(15)
_cell_length_c                   14.875(7)
_cell_angle_alpha                90
_cell_angle_beta                 96.913(8)
_cell_angle_gamma                90
_cell_volume                     4899.53
_exptl_crystal_colour            colorless
_exptl_crystal_description       block
_cell_formula_units_Z            4
loop_
_atom_site_label
_atom_site_type_symbol
_atom_site_fract_x
_atom_site_fract_y
_atom_site_fract_z
Mg1 Mg 0.22754(15) 0.13804(7) 0.27465(12)
O1 O 0.3289(4) 0.19414(16) 0.2468(3)
N1 N 0.1187(4) 0.15883(16) 0.3701(3)
N2 N 0.2965(4) 0.13193(17) 0.4163(3)
Si1 Si 0.40725(14) 0.10578(7) 0.48747(11)
C1 C 0.0069(5) 0.1767(2) 0.3836(3)
C2 C -0.0145(5) 0.2247(2) 0.3910(4)
C3 C -0.1271(6) 0.2398(3) 0.3960(4)
H1 H -0.1424 0.2723 0.4013
C4 C -0.2157(6) 0.2077(3) 0.3931(5)
H2 H -0.2910 0.2183 0.3959
C5 C -0.1937(5) 0.1601(3) 0.3863(4)
H3 H -0.2546 0.1385 0.3849
C6 C -0.0839(5) 0.1433(2) 0.3814(4)
C7 C -0.0613(5) 0.0905(2) 0.3738(4)
H4 H 0.0193 0.0849 0.3992
C8 C -0.1363(7) 0.0598(3) 0.4275(6)
H5 H -0.1370 0.0730 0.4876
H6 H -0.1057 0.0278 0.4323
H7 H -0.2138 0.0590 0.3966
C9 C -0.0733(6) 0.0749(3) 0.2741(4)
H8 H -0.1509 0.0809 0.2462
H9 H -0.0569 0.0413 0.2708
H10 H -0.0198 0.0925 0.2422
C10 C 0.0798(6) 0.2619(2) 0.3939(5)
H11 H 0.1534 0.2450 0.3923
C11 C 0.0901(8) 0.2921(3) 0.4818(6)
H12 H 0.0369 0.3184 0.4738
H13 H 0.1676 0.3041 0.4947
H14 H 0.0721 0.2725 0.5319
C12 C 0.0644(8) 0.2966(3) 0.3124(7)
H15 H 0.0621 0.2789 0.2564
H16 H 0.1282 0.3187 0.3170
H17 H -0.0066 0.3140 0.3129
C13 C 0.1998(5) 0.14917(19) 0.4389(4)
C14 C 0.1828(4) 0.1604(2) 0.5351(4)
C15 C 0.1054(5) 0.1374(2) 0.5814(4)
H18 H 0.0566 0.1145 0.5517
C16 C 0.0985(5) 0.1477(2) 0.6719(4)
H19 H 0.0458 0.1311 0.7030
C17 C 0.1664(6) 0.1811(3) 0.7160(4)
H20 H 0.1616 0.1874 0.7775
C18 C 0.2413(6) 0.2056(2) 0.6710(4)
H21 H 0.2875 0.2293 0.7010
C19 C 0.2498(5) 0.1954(2) 0.5806(4)
H22 H 0.3017 0.2126 0.5498
C20 C 0.3544(6) 0.0696(3) 0.5780(5)
H23 H 0.3191 0.0901 0.6190
H24 H 0.4181 0.0528 0.6113
H25 H 0.2984 0.0469 0.5510
C21 C 0.5128(6) 0.1494(3) 0.5411(6)
H26 H 0.5255 0.1738 0.4977
H27 H 0.5845 0.1334 0.5608
H28 H 0.4834 0.1636 0.5930
C22 C 0.4884(6) 0.0664(3) 0.4169(5)
H29 H 0.4410 0.0395 0.3960
H30 H 0.5575 0.0553 0.4528
H31 H 0.5086 0.0840 0.3651
N3 N 0.2664(4) 0.07908(16) 0.1955(3)
N4 N 0.1381(4) 0.13397(16) 0.1382(3)
Si2 Si 0.02748(14) 0.16044(6) 0.06894(11)
C23 C 0.3360(5) 0.0375(2) 0.1930(4)
C24 C 0.4464(5) 0.0408(2) 0.1620(4)
C25 C 0.5129(6) -0.0001(3) 0.1708(4)
H32 H 0.5864 0.0007 0.1520
C26 C 0.4762(6) -0.0410(3) 0.2050(5)
H33 H 0.5243 -0.0677 0.2102
C27 C 0.3704(6) -0.0435(3) 0.2320(4)
H34 H 0.3447 -0.0723 0.2541
C28 C 0.2994(5) -0.0040(2) 0.2273(4)
C29 C 0.1816(5) -0.0080(2) 0.2626(4)
H35 H 0.1307 0.0154 0.2284
C30 C 0.1271(6) -0.0549(3) 0.2460(6)
H36 H 0.1246 -0.0629 0.1823
H37 H 0.0498 -0.0539 0.2624
H38 H 0.1711 -0.0786 0.2822
C31 C 0.1906(6) 0.0064(3) 0.3622(4)
H39 H 0.1143 0.0092 0.3804
H40 H 0.2298 0.0366 0.3705
H41 H 0.2333 -0.0176 0.3990
C32 C 0.4902(5) 0.0848(2) 0.1221(4)
H42 H 0.4239 0.1062 0.1071
C33 C 0.5782(7) 0.1115(4) 0.1884(6)
H43 H 0.6434 0.0911 0.2062
H44 H 0.5431 0.1205 0.2416
H45 H 0.6035 0.1396 0.1592
C34 C 0.5400(8) 0.0749(3) 0.0354(6)
H46 H 0.6074 0.0551 0.0480
H47 H 0.5610 0.1046 0.0089
H48 H 0.4835 0.0587 -0.0067
C35 C 0.1993(4) 0.09634(19) 0.1245(3)
C36 C 0.1986(4) 0.0744(2) 0.0316(4)
C37 C 0.2396(5) 0.1009(2) -0.0370(4)
H49 H 0.2692 0.1315 -0.0247
C38 C 0.2366(5) 0.0820(3) -0.1233(4)
H50 H 0.2649 0.0998 -0.1691
C39 C 0.1928(5) 0.0373(3) -0.1429(5)
H51 H 0.1899 0.0250 -0.2018
C40 C 0.1544(6) 0.0119(3) -0.0768(5)
H52 H 0.1247 -0.0186 -0.0902
C41 C 0.1570(5) 0.0294(2) 0.0116(4)
H53 H 0.1306 0.0106 0.0569
C42 C -0.0642(7) 0.1924(3) 0.1424(5)
H54 H -0.1017 0.1697 0.1779
H55 H -0.1216 0.2107 0.1050
H56 H -0.0171 0.2135 0.1826
C43 C 0.0761(7) 0.2065(3) -0.0070(6)
H57 H 0.1211 0.2301 0.0290
H58 H 0.0100 0.2216 -0.0406
H59 H 0.1227 0.1919 -0.0489
C44 C -0.0642(7) 0.1177(3) -0.0014(6)
H60 H -0.0230 0.1057 -0.0493
H61 H -0.1336 0.1335 -0.0278
H62 H -0.0841 0.0916 0.0361
C45 C 0.3947(7) 0.2255(3) 0.3100(5)
H63 H 0.4756 0.2162 0.3185
H64 H 0.3653 0.2251 0.3689
C46 C 0.3807(10) 0.2738(4) 0.2677(7)
H65 H 0.3176 0.2910 0.2903
H66 H 0.4511 0.2924 0.2806
C47 C 0.3550(12) 0.2644(4) 0.1690(6)
H67 H 0.2827 0.2795 0.1449
H68 H 0.4162 0.2770 0.1365
C48 C 0.3468(8) 0.2139(3) 0.1581(5)
H69 H 0.4173 0.2012 0.1384
H70 H 0.2824 0.2057 0.1127
loop_
_geom_bond_atom_site_label_1
_geom_bond_atom_site_label_2
_geom_bond_site_symmetry_1
_geom_bond_site_symmetry_2
Mg1 O1 1_555 1_555
O1 C45 1_555 1_555
N1 Mg1 1_555 1_555
N2 Mg1 1_555 1_555
Si1 N2 1_555 1_555
C1 N1 1_555 1_555
C2 C1 1_555 1_555
C3 C2 1_555 1_555
H1 C3 1_555 1_555
C4 C3 1_555 1_555
H2 C4 1_555 1_555
C5 C4 1_555 1_555
H3 C5 1_555 1_555
C6 C1 1_555 1_555
C7 C6 1_555 1_555
H4 C7 1_555 1_555
C8 C7 1_555 1_555
H5 C8 1_555 1_555
H6 C8 1_555 1_555
H7 C8 1_555 1_555
C9 C7 1_555 1_555
H8 C9 1_555 1_555
H9 C9 1_555 1_555
H10 C9 1_555 1_555
C10 C2 1_555 1_555
H11 C10 1_555 1_555
C11 C10 1_555 1_555
H12 C11 1_555 1_555
H13 C11 1_555 1_555
H14 C11 1_555 1_555
C12 C10 1_555 1_555
H15 C12 1_555 1_555
H16 C12 1_555 1_555
H17 C12 1_555 1_555
C13 N1 1_555 1_555
C14 C13 1_555 1_555
C15 C14 1_555 1_555
H18 C15 1_555 1_555
C16 C15 1_555 1_555
H19 C16 1_555 1_555
C17 C16 1_555 1_555
H20 C17 1_555 1_555
C18 C17 1_555 1_555
H21 C18 1_555 1_555
C19 C14 1_555 1_555
H22 C19 1_555 1_555
C20 Si1 1_555 1_555
H23 C20 1_555 1_555
H24 C20 1_555 1_555
H25 C20 1_555 1_555
C21 Si1 1_555 1_555
H26 C21 1_555 1_555
H27 C21 1_555 1_555
H28 C21 1_555 1_555
C22 Si1 1_555 1_555
H29 C22 1_555 1_555
H30 C22 1_555 1_555
H31 C22 1_555 1_555
N3 Mg1 1_555 1_555
N4 Mg1 1_555 1_555
Si2 N4 1_555 1_555
C23 N3 1_555 1_555
C24 C23 1_555 1_555
C25 C24 1_555 1_555
H32 C25 1_555 1_555
C26 C25 1_555 1_555
H33 C26 1_555 1_555
C27 C26 1_555 1_555
H34 C27 1_555 1_555
C28 C23 1_555 1_555
C29 C28 1_555 1_555
H35 C29 1_555 1_555
C30 C29 1_555 1_555
H36 C30 1_555 1_555
H37 C30 1_555 1_555
H38 C30 1_555 1_555
C31 C29 1_555 1_555
H39 C31 1_555 1_555
H40 C31 1_555 1_555
H41 C31 1_555 1_555
C32 C24 1_555 1_555
H42 C32 1_555 1_555
C33 C32 1_555 1_555
H43 C33 1_555 1_555
H44 C33 1_555 1_555
H45 C33 1_555 1_555
C34 C32 1_555 1_555
H46 C34 1_555 1_555
H47 C34 1_555 1_555
H48 C34 1_555 1_555
C35 N3 1_555 1_555
C36 C35 1_555 1_555
C37 C36 1_555 1_555
H49 C37 1_555 1_555
C38 C37 1_555 1_555
H50 C38 1_555 1_555
C39 C38 1_555 1_555
H51 C39 1_555 1_555
C40 C39 1_555 1_555
H52 C40 1_555 1_555
C41 C36 1_555 1_555
H53 C41 1_555 1_555
C42 Si2 1_555 1_555
H54 C42 1_555 1_555
H55 C42 1_555 1_555
H56 C42 1_555 1_555
C43 Si2 1_555 1_555
H57 C43 1_555 1_555
H58 C43 1_555 1_555
H59 C43 1_555 1_555
C44 Si2 1_555 1_555
H60 C44 1_555 1_555
H61 C44 1_555 1_555
H62 C44 1_555 1_555
C45 H63 1_555 1_555
H64 C45 1_555 1_555
C46 C45 1_555 1_555
H65 C46 1_555 1_555
H66 C46 1_555 1_555
C47 C46 1_555 1_555
H67 C47 1_555 1_555
H68 C47 1_555 1_555
C48 O1 1_555 1_555
H69 C48 1_555 1_555
H70 C48 1_555 1_555
N2 C13 1_555 1_555
C5 C6 1_555 1_555
C18 C19 1_555 1_555
N4 C35 1_555 1_555
C27 C28 1_555 1_555
C40 C41 1_555 1_555
C47 C48 1_555 1_555

#END
