
#######################################################################
#
#                 Cambridge Crystallographic Data Centre
#                                CCDC 
#
#######################################################################
#
# If this CIF has been generated from an entry in the Cambridge 
# Structural Database, then it will include bibliographic, chemical, 
# crystal, experimental, refinement or atomic coordinate data resulting 
# from the CCDC's data processing and validation procedures.
#
#######################################################################

data_HOPMOP
_chemical_formula_moiety         'C22 H22 S6 Si2'
_chemical_name_systematic        
3,3'-Bibisthieno[2,3-b:3',2'-d]thiene-5,5'-diylbis(trimethylsilane)
_symmetry_cell_setting           orthorhombic
_symmetry_space_group_name_H-M   'P n a 21'
_symmetry_Int_Tables_number      33
_space_group_name_Hall           'P 2c -2n'
loop_
_symmetry_equiv_pos_site_id
_symmetry_equiv_pos_as_xyz
1 x,y,z
2 -x,-y,1/2+z
3 1/2+x,1/2-y,z
4 1/2-x,1/2+y,1/2+z
_cell_length_a                   11.4964(16)
_cell_length_b                   14.345(2)
_cell_length_c                   15.846(2)
_cell_angle_alpha                90
_cell_angle_beta                 90
_cell_angle_gamma                90
_cell_volume                     2613.26
_chemical_melting_point          '183-185 deg.C'
_cell_formula_units_Z            4
loop_
_atom_site_label
_atom_site_type_symbol
_atom_site_fract_x
_atom_site_fract_y
_atom_site_fract_z
S1 S 0.56814(7) 0.17837(6) -0.00301(5)
Si1 Si 0.70382(8) 0.14931(6) -0.17161(6)
C1 C 0.5736(2) 0.13168(19) -0.10422(19)
S2 S 0.33015(8) 0.15094(6) 0.09329(6)
Si2 Si 0.65606(8) -0.17305(6) 0.03358(6)
C2 C 0.4703(2) 0.08939(19) -0.12432(18)
H1 H 0.4564 0.0609 -0.1761
S3 S 0.08955(7) 0.05621(7) 0.05220(7)
C3 C 0.3868(2) 0.09331(18) -0.05882(17)
S4 S 0.16710(8) -0.10447(6) -0.32199(6)
C4 C 0.2691(2) 0.06138(18) -0.04460(19)
S5 S 0.39692(7) -0.21904(6) -0.29285(5)
C5 C 0.1845(2) 0.00798(19) -0.0904(2)
S6 S 0.58057(7) -0.23904(6) -0.14665(6)
C6 C 0.0838(3) 0.0018(2) -0.0445(3)
C7 C 0.2308(3) 0.0893(2) 0.0333(2)
C8 C 0.4280(3) 0.1408(2) 0.01059(19)
C9 C 0.1284(3) -0.0347(2) -0.2388(2)
C10 C 0.2028(2) -0.03865(18) -0.1712(2)
C11 C 0.2973(2) -0.10070(18) -0.18979(19)
C12 C 0.3971(2) -0.13645(18) -0.14477(18)
C13 C 0.4520(2) -0.12471(19) -0.06522(18)
H2 H 0.4220 -0.0869 -0.0228
C14 C 0.5527(3) -0.1737(2) -0.05661(19)
C15 C 0.4573(3) -0.1986(2) -0.19430(19)
C16 C 0.2893(3) -0.1394(2) -0.2685(2)
C17 C 0.6852(5) 0.2637(3) -0.2243(3)
H3 H 0.6812 0.3120 -0.1824
H4 H 0.6147 0.2633 -0.2567
H5 H 0.7502 0.2751 -0.2610
C18 C 0.8340(3) 0.1536(3) -0.1022(4)
H6 H 0.8437 0.0945 -0.0746
H7 H 0.8240 0.2016 -0.0606
H8 H 0.9017 0.1669 -0.1356
C19 C 0.7119(4) 0.0506(3) -0.2469(3)
H9 H 0.7217 -0.0066 -0.2163
H10 H 0.7768 0.0595 -0.2842
H11 H 0.6414 0.0478 -0.2793
C20 C 0.6776(5) -0.2945(3) 0.0676(3)
H12 H 0.6051 -0.3196 0.0874
H13 H 0.7339 -0.2964 0.1123
H14 H 0.7050 -0.3310 0.0208
C21 C 0.7973(4) -0.1270(4) -0.0030(4)
H15 H 0.7880 -0.0635 -0.0207
H16 H 0.8247 -0.1638 -0.0496
H17 H 0.8527 -0.1299 0.0423
C22 C 0.5971(4) -0.0963(4) 0.1157(3)
H18 H 0.5240 -0.1206 0.1352
H19 H 0.5856 -0.0350 0.0929
H20 H 0.6507 -0.0932 0.1621
H21 H 0.016(3) -0.036(2) -0.053(2)
H22 H 0.061(3) 0.000(2) -0.238(2)
loop_
_geom_bond_atom_site_label_1
_geom_bond_atom_site_label_2
_geom_bond_site_symmetry_1
_geom_bond_site_symmetry_2
S1 C1 1_555 1_555
Si1 C1 1_555 1_555
C1 C2 1_555 1_555
S2 C7 1_555 1_555
Si2 C14 1_555 1_555
C2 H1 1_555 1_555
S3 C6 1_555 1_555
C3 C2 1_555 1_555
S4 C9 1_555 1_555
C4 C3 1_555 1_555
S5 C15 1_555 1_555
C5 C4 1_555 1_555
S6 C14 1_555 1_555
C6 C5 1_555 1_555
C7 S3 1_555 1_555
C8 S1 1_555 1_555
C9 C10 1_555 1_555
C10 C5 1_555 1_555
C11 C10 1_555 1_555
C12 C11 1_555 1_555
C13 C12 1_555 1_555
H2 C13 1_555 1_555
C14 C13 1_555 1_555
C15 S6 1_555 1_555
C16 S4 1_555 1_555
C17 Si1 1_555 1_555
H3 C17 1_555 1_555
H4 C17 1_555 1_555
H5 C17 1_555 1_555
C18 Si1 1_555 1_555
H6 C18 1_555 1_555
H7 C18 1_555 1_555
H8 C18 1_555 1_555
C19 Si1 1_555 1_555
H9 C19 1_555 1_555
H10 C19 1_555 1_555
H11 C19 1_555 1_555
C20 Si2 1_555 1_555
H12 C20 1_555 1_555
H13 C20 1_555 1_555
H14 C20 1_555 1_555
C21 Si2 1_555 1_555
H15 C21 1_555 1_555
H16 C21 1_555 1_555
H17 C21 1_555 1_555
C22 Si2 1_555 1_555
H18 C22 1_555 1_555
H19 C22 1_555 1_555
H20 C22 1_555 1_555
H21 C6 1_555 1_555
H22 C9 1_555 1_555
S2 C8 1_555 1_555
C3 C8 1_555 1_555
C4 C7 1_555 1_555
S5 C16 1_555 1_555
C11 C16 1_555 1_555
C12 C15 1_555 1_555

#END
