
#######################################################################
#
#                 Cambridge Crystallographic Data Centre
#                                CCDC 
#
#######################################################################
#
# If this CIF has been generated from an entry in the Cambridge 
# Structural Database, then it will include bibliographic, chemical, 
# crystal, experimental, refinement or atomic coordinate data resulting 
# from the CCDC's data processing and validation procedures.
#
#######################################################################

data_HOPMIK
_chemical_compound_source        'Marine-derived sediment'
_chemical_name_common            'anithiactin A'
_chemical_formula_moiety         'C11 H11 N3 O1 S1'
_chemical_name_systematic        
2-(2-(methylamino)phenyl)-1,3-thiazole-4-carboxamide
_symmetry_cell_setting           monoclinic
_symmetry_space_group_name_H-M   'P 21/c'
_symmetry_Int_Tables_number      14
_space_group_name_Hall           '-P 2ybc'
loop_
_symmetry_equiv_pos_site_id
_symmetry_equiv_pos_as_xyz
1 x,y,z
2 -x,1/2+y,1/2-z
3 -x,-y,-z
4 x,1/2-y,1/2+z
_cell_length_a                   15.1825(12)
_cell_length_b                   5.2022(4)
_cell_length_c                   14.7674(12)
_cell_angle_alpha                90
_cell_angle_beta                 111.728(2)
_cell_angle_gamma                90
_cell_volume                     1083.5
_exptl_crystal_colour            'pale yellow'
_exptl_crystal_description       block
_cell_formula_units_Z            4
loop_
_atom_site_label
_atom_site_type_symbol
_atom_site_fract_x
_atom_site_fract_y
_atom_site_fract_z
C1 C 0.2924(3) 0.2437(8) 0.2037(3)
C2 C 0.3412(3) 0.0677(7) 0.1663(3)
C3 C 0.4115(3) -0.0873(8) 0.2337(3)
H1 H 0.4452 -0.2032 0.2110
C4 C 0.4312(3) -0.0708(8) 0.3315(3)
H2 H 0.4777 -0.1763 0.3739
C5 C 0.3833(3) 0.0996(8) 0.3686(3)
H3 H 0.3970 0.1095 0.4353
C6 C 0.3145(3) 0.2553(8) 0.3042(3)
H4 H 0.2821 0.3710 0.3286
N1 N 0.3221(2) 0.0481(7) 0.0690(2)
H5 H 0.2858 0.1613 0.0307
C7 C 0.3600(3) -0.1544(9) 0.0270(3)
H6 H 0.4270 -0.1295 0.0449
H7 H 0.3295 -0.1504 -0.0427
H8 H 0.3488 -0.3178 0.0510
C8 C 0.2183(3) 0.4156(7) 0.1397(3)
S1 S 0.17194(7) 0.6619(2) 0.18853(8)
C9 C 0.1067(3) 0.7626(8) 0.0740(3)
H9 H 0.0663 0.9038 0.0595
C10 C 0.1211(3) 0.6104(7) 0.0062(3)
N2 N 0.1848(2) 0.4116(6) 0.0444(2)
C11 C 0.0742(3) 0.6429(8) -0.1003(3)
O1 O 0.0374(2) 0.8513(5) -0.1354(2)
N3 N 0.0738(2) 0.4374(6) -0.1542(2)
H10 H 0.0471 0.4451 -0.2166
H11 H 0.1002 0.2970 -0.1265
loop_
_geom_bond_atom_site_label_1
_geom_bond_atom_site_label_2
_geom_bond_site_symmetry_1
_geom_bond_site_symmetry_2
C1 C2 1_555 1_555
C2 C3 1_555 1_555
C3 H1 1_555 1_555
C4 C3 1_555 1_555
H2 C4 1_555 1_555
C5 C4 1_555 1_555
H3 C5 1_555 1_555
C6 C1 1_555 1_555
H4 C6 1_555 1_555
N1 C2 1_555 1_555
H5 N1 1_555 1_555
C7 N1 1_555 1_555
H6 C7 1_555 1_555
H7 C7 1_555 1_555
H8 C7 1_555 1_555
C8 C1 1_555 1_555
S1 C8 1_555 1_555
C9 S1 1_555 1_555
H9 C9 1_555 1_555
C10 C9 1_555 1_555
N2 C8 1_555 1_555
C11 C10 1_555 1_555
O1 C11 1_555 1_555
N3 C11 1_555 1_555
H10 N3 1_555 1_555
H11 N3 1_555 1_555
C5 C6 1_555 1_555
C10 N2 1_555 1_555

#END
