
#######################################################################
#
#                 Cambridge Crystallographic Data Centre
#                                CCDC 
#
#######################################################################
#
# If this CIF has been generated from an entry in the Cambridge 
# Structural Database, then it will include bibliographic, chemical, 
# crystal, experimental, refinement or atomic coordinate data resulting 
# from the CCDC's data processing and validation procedures.
#
#######################################################################

data_HOPMIJ
_chemical_formula_moiety         'C11 H11 Br1 S3 Si1'
_chemical_name_systematic        
(4-Bromobisthieno[2,3-b:3',2'-d]thiophen-2-yl)(trimethyl)silane
_symmetry_cell_setting           triclinic
_symmetry_space_group_name_H-M   'P -1'
_symmetry_Int_Tables_number      2
_space_group_name_Hall           '-P 1'
loop_
_symmetry_equiv_pos_site_id
_symmetry_equiv_pos_as_xyz
1 x,y,z
2 -x,-y,-z
_cell_length_a                   8.0503(18)
_cell_length_b                   9.591(2)
_cell_length_c                   9.965(2)
_cell_angle_alpha                85.848(4)
_cell_angle_beta                 79.656(4)
_cell_angle_gamma                68.223(4)
_cell_volume                     702.867
_exptl_crystal_colour            colorless
_exptl_crystal_description       block
_chemical_melting_point          '79-81 deg.C'
_cell_formula_units_Z            2
loop_
_atom_site_label
_atom_site_type_symbol
_atom_site_fract_x
_atom_site_fract_y
_atom_site_fract_z
Br1 Br 0.45986(6) 0.73167(4) 0.00003(4)
S1 S 0.94974(11) 0.34035(10) 0.38521(9)
S2 S 1.09435(12) 0.57629(11) 0.21539(10)
S3 S 0.95887(16) 0.82198(11) -0.00973(10)
Si1 Si 0.64692(11) 0.19913(9) 0.43017(8)
C1 C 0.4014(5) 0.2782(5) 0.4237(4)
H1 H 0.3833 0.2988 0.3306
H2 H 0.3461 0.3695 0.4750
H3 H 0.3473 0.2072 0.4620
C2 C 0.6892(6) 0.1579(5) 0.6086(4)
H4 H 0.6395 0.0844 0.6475
H5 H 0.6326 0.2483 0.6613
H6 H 0.8175 0.1197 0.6094
C3 C 0.7579(6) 0.0264(4) 0.3258(4)
H7 H 0.7345 0.0490 0.2340
H8 H 0.7103 -0.0486 0.3638
H9 H 0.8863 -0.0105 0.3255
C4 C 0.7426(4) 0.3426(3) 0.3537(3)
C5 C 0.6767(4) 0.4513(3) 0.2597(3)
H10 H 0.5668 0.4701 0.2306
C6 C 0.7915(4) 0.5328(3) 0.2105(3)
C7 C 0.9456(4) 0.4832(3) 0.2697(3)
C8 C 0.7934(4) 0.6516(3) 0.1135(3)
C9 C 0.9478(5) 0.6831(4) 0.1072(3)
C10 C 0.6827(5) 0.7465(3) 0.0211(3)
C11 C 0.7487(6) 0.8395(4) -0.0491(4)
H11 H 0.701(5) 0.914(4) -0.122(4)
loop_
_geom_bond_atom_site_label_1
_geom_bond_atom_site_label_2
_geom_bond_site_symmetry_1
_geom_bond_site_symmetry_2
Br1 C10 1_555 1_555
S1 C4 1_555 1_555
S2 C7 1_555 1_555
S3 C9 1_555 1_555
Si1 C1 1_555 1_555
C1 H1 1_555 1_555
H2 C1 1_555 1_555
H3 C1 1_555 1_555
C2 Si1 1_555 1_555
H4 C2 1_555 1_555
H5 C2 1_555 1_555
H6 C2 1_555 1_555
C3 Si1 1_555 1_555
H7 C3 1_555 1_555
H8 C3 1_555 1_555
H9 C3 1_555 1_555
C4 Si1 1_555 1_555
C5 C4 1_555 1_555
H10 C5 1_555 1_555
C6 C5 1_555 1_555
C7 S1 1_555 1_555
C8 C6 1_555 1_555
C9 S2 1_555 1_555
C10 C8 1_555 1_555
C11 S3 1_555 1_555
H11 C11 1_555 1_555
C6 C7 1_555 1_555
C8 C9 1_555 1_555
C10 C11 1_555 1_555

#END
