
#######################################################################
#
#                 Cambridge Crystallographic Data Centre
#                                CCDC 
#
#######################################################################
#
# If this CIF has been generated from an entry in the Cambridge 
# Structural Database, then it will include bibliographic, chemical, 
# crystal, experimental, refinement or atomic coordinate data resulting 
# from the CCDC's data processing and validation procedures.
#
#######################################################################

data_HOPMUV
_chemical_formula_moiety         'C44 H40 S12 Si4'
_chemical_name_systematic        
rac-Thieno[2,3-b]tristhieno[3'''',2'''':4''',5''']thieno[3''',2''':4'',5'']thieno[2'',3'':3',4';2''',3''':7',8';3'''',2'''':5',6']cycloocta[1',2':4,5]thieno[3,2-d]thiene-2,5,12,15-tetrayltetrakis(trimethylsilane)
_symmetry_cell_setting           triclinic
_symmetry_space_group_name_H-M   'P -1'
_symmetry_Int_Tables_number      2
_space_group_name_Hall           '-P 1'
loop_
_symmetry_equiv_pos_site_id
_symmetry_equiv_pos_as_xyz
1 x,y,z
2 -x,-y,-z
_cell_length_a                   10.928(10)
_cell_length_b                   14.441(14)
_cell_length_c                   18.117(18)
_cell_angle_alpha                74.483(16)
_cell_angle_beta                 78.083(18)
_cell_angle_gamma                85.768(19)
_cell_volume                     2694.96
_exptl_crystal_colour            orange
_exptl_crystal_description       needle
_chemical_melting_point          'above 300 deg.C'
_cell_formula_units_Z            2
loop_
_atom_site_label
_atom_site_type_symbol
_atom_site_fract_x
_atom_site_fract_y
_atom_site_fract_z
S1 S 0.45171(5) 0.79987(4) -0.40008(3)
S2 S 0.50487(5) 0.93963(3) -0.30138(3)
S3 S 0.47165(4) 0.93526(2) -0.12564(2)
S4 S -0.02930(3) 0.73473(2) 0.02379(2)
S5 S -0.19449(4) 0.89824(3) 0.08581(3)
S6 S -0.14408(4) 1.06596(3) 0.15581(3)
S7 S 0.58750(4) 0.39934(2) -0.15904(3)
S8 S 0.34200(4) 0.39293(2) -0.03236(3)
S9 S 0.16272(4) 0.54359(2) 0.03510(2)
S10 S 0.51681(3) 0.83949(2) 0.06262(2)
S11 S 0.45213(4) 0.83705(3) 0.23996(2)
S12 S 0.20432(5) 0.81849(3) 0.36907(3)
Si1 Si 0.34198(5) 0.60592(4) -0.39388(3)
Si2 Si 0.05508(4) 1.16565(3) 0.21007(3)
Si3 Si 0.78856(5) 0.52296(3) -0.28482(3)
Si4 Si -0.08918(6) 0.78663(4) 0.40479(3)
C1 C 0.18505(12) 0.63874(14) -0.41361(11)
H1 H 0.1863 0.7012 -0.4496
H2 H 0.1283 0.6399 -0.3657
H3 H 0.1581 0.5924 -0.4359
C2 C 0.45324(18) 0.63113(16) -0.49010(9)
H4 H 0.4399 0.6958 -0.5194
H5 H 0.4393 0.5871 -0.5188
H6 H 0.5376 0.6234 -0.4815
C3 C 0.34371(19) 0.48471(10) -0.32426(10)
H7 H 0.2819 0.4833 -0.2779
H8 H 0.4249 0.4715 -0.3108
H9 H 0.3253 0.4370 -0.3482
C4 C 0.38329(15) 0.69532(10) -0.34409(9)
C5 C 0.36497(14) 0.68837(10) -0.26739(8)
H10 H 0.3268 0.6354 -0.2305
C6 C 0.40732(13) 0.76713(9) -0.24498(8)
C7 C 0.45407(17) 0.83446(13) -0.31511(10)
C8 C 0.41203(12) 0.79882(9) -0.17811(7)
C9 C 0.46577(13) 0.89026(9) -0.20207(7)
C10 C 0.38004(12) 0.76638(8) -0.09861(7)
C11 C 0.41205(11) 0.82837(8) -0.05800(6)
C12 C 0.12562(12) 0.73440(9) 0.02751(7)
C13 C 0.15954(12) 0.80555(8) 0.05577(7)
C14 C -0.05861(13) 0.83049(9) 0.06384(7)
C15 C 0.04815(14) 0.86563(10) 0.07463(8)
C16 C 0.02114(13) 0.94861(9) 0.10650(8)
C17 C -0.10453(14) 0.97000(9) 0.11806(8)
C18 C 0.08881(13) 1.01081(8) 0.13071(7)
H11 H 0.1753 1.0107 0.1254
C19 C 0.00390(11) 1.07271(7) 0.16399(6)
C20 C 0.22138(12) 1.18989(14) 0.17286(15)
H12 H 0.2465 1.2362 0.1959
H13 H 0.2358 1.2148 0.1171
H14 H 0.2692 1.1314 0.1859
C21 C 0.0462(3) 1.10702(13) 0.31391(7)
H15 H 0.0710 1.1512 0.3391
H16 H 0.1010 1.0515 0.3196
H17 H -0.0381 1.0876 0.3375
C22 C -0.03150(18) 1.28070(9) 0.18729(14)
H18 H -0.0030 1.3248 0.2112
H19 H -0.1193 1.2702 0.2071
H20 H -0.0174 1.3071 0.1317
C23 C 0.80475(19) 0.65455(8) -0.33073(10)
H21 H 0.8743 0.6653 -0.3740
H22 H 0.8188 0.6861 -0.2929
H23 H 0.7296 0.6800 -0.3489
C24 C 0.75313(15) 0.46169(9) -0.35498(7)
H24 H 0.7449 0.3941 -0.3307
H25 H 0.8198 0.4717 -0.3999
H26 H 0.6763 0.4874 -0.3708
C25 C 0.93276(11) 0.46298(11) -0.26045(12)
H27 H 0.9183 0.3957 -0.2375
H28 H 0.9600 0.4904 -0.2239
H29 H 0.9961 0.4712 -0.3070
C26 C 0.65086(12) 0.50876(9) -0.20130(7)
C27 C 0.58298(12) 0.57915(9) -0.17117(7)
H30 H 0.6058 0.6433 -0.1881
C28 C 0.47706(12) 0.54750(9) -0.11323(7)
C29 C 0.46734(13) 0.44593(9) -0.10379(7)
C30 C 0.36895(12) 0.57914(8) -0.06755(7)
C31 C 0.29122(12) 0.50684(8) -0.02179(7)
C32 C 0.32422(12) 0.67361(8) -0.05732(7)
C33 C 0.21459(13) 0.66130(9) -0.00132(8)
C34 C 0.38933(12) 0.82358(8) 0.01937(7)
C35 C 0.27865(12) 0.81818(8) 0.07475(7)
C36 C 0.29556(12) 0.82193(8) 0.15213(7)
C37 C 0.42024(13) 0.83482(9) 0.15006(7)
C38 C 0.22022(13) 0.81401(9) 0.22942(7)
C39 C 0.08962(14) 0.80267(10) 0.26467(8)
H31 H 0.0289 0.7968 0.2371
C40 C 0.29260(14) 0.82109(10) 0.28027(8)
C41 C 0.06263(16) 0.80127(11) 0.34103(9)
C42 C -0.20913(13) 0.8237(2) 0.34123(9)
H32 H -0.2002 0.7838 0.3057
H33 H -0.1972 0.8896 0.3122
H34 H -0.2914 0.8167 0.3733
C43 C -0.1181(2) 0.65711(9) 0.45210(13)
H35 H -0.0599 0.6325 0.4861
H36 H -0.1074 0.6224 0.4127
H37 H -0.2020 0.6495 0.4819
C44 C -0.0928(2) 0.85571(10) 0.47781(8)
H38 H -0.0301 0.8303 0.5084
H39 H -0.1737 0.8506 0.5114
H40 H -0.0764 0.9220 0.4515
loop_
_geom_bond_atom_site_label_1
_geom_bond_atom_site_label_2
_geom_bond_site_symmetry_1
_geom_bond_site_symmetry_2
S1 C4 1_555 1_555
S2 C7 1_555 1_555
S3 C9 1_555 1_555
S4 C12 1_555 1_555
S5 C14 1_555 1_555
S6 C17 1_555 1_555
S7 C26 1_555 1_555
S8 C29 1_555 1_555
S9 C31 1_555 1_555
S10 C34 1_555 1_555
S11 C37 1_555 1_555
S12 C40 1_555 1_555
Si1 C1 1_555 1_555
Si2 C19 1_555 1_555
Si3 C23 1_555 1_555
Si4 C41 1_555 1_555
C1 H1 1_555 1_555
H2 C1 1_555 1_555
H3 C1 1_555 1_555
C2 Si1 1_555 1_555
H4 C2 1_555 1_555
H5 C2 1_555 1_555
H6 C2 1_555 1_555
C3 Si1 1_555 1_555
H7 C3 1_555 1_555
H8 C3 1_555 1_555
H9 C3 1_555 1_555
C4 Si1 1_555 1_555
C5 C4 1_555 1_555
H10 C5 1_555 1_555
C6 C5 1_555 1_555
C7 S1 1_555 1_555
C8 C6 1_555 1_555
C9 S2 1_555 1_555
C10 C8 1_555 1_555
C11 S3 1_555 1_555
C12 C13 1_555 1_555
C13 C15 1_555 1_555
C14 S4 1_555 1_555
C15 C14 1_555 1_555
C16 C15 1_555 1_555
C17 S5 1_555 1_555
C18 C16 1_555 1_555
H11 C18 1_555 1_555
C19 S6 1_555 1_555
C20 Si2 1_555 1_555
H12 C20 1_555 1_555
H13 C20 1_555 1_555
H14 C20 1_555 1_555
C21 Si2 1_555 1_555
H15 C21 1_555 1_555
H16 C21 1_555 1_555
H17 C21 1_555 1_555
C22 Si2 1_555 1_555
H18 C22 1_555 1_555
H19 C22 1_555 1_555
H20 C22 1_555 1_555
C23 H21 1_555 1_555
H22 C23 1_555 1_555
H23 C23 1_555 1_555
C24 Si3 1_555 1_555
H24 C24 1_555 1_555
H25 C24 1_555 1_555
H26 C24 1_555 1_555
C25 Si3 1_555 1_555
H27 C25 1_555 1_555
H28 C25 1_555 1_555
H29 C25 1_555 1_555
C26 Si3 1_555 1_555
C27 C26 1_555 1_555
H30 C27 1_555 1_555
C28 C27 1_555 1_555
C29 S7 1_555 1_555
C30 C28 1_555 1_555
C31 S8 1_555 1_555
C32 C10 1_555 1_555
C33 S9 1_555 1_555
C34 C11 1_555 1_555
C35 C13 1_555 1_555
C36 C35 1_555 1_555
C37 S10 1_555 1_555
C38 C36 1_555 1_555
C39 C38 1_555 1_555
H31 C39 1_555 1_555
C40 S11 1_555 1_555
C41 S12 1_555 1_555
C42 Si4 1_555 1_555
H32 C42 1_555 1_555
H33 C42 1_555 1_555
H34 C42 1_555 1_555
C43 Si4 1_555 1_555
H35 C43 1_555 1_555
H36 C43 1_555 1_555
H37 C43 1_555 1_555
C44 Si4 1_555 1_555
H38 C44 1_555 1_555
H39 C44 1_555 1_555
H40 C44 1_555 1_555
C6 C7 1_555 1_555
C8 C9 1_555 1_555
C10 C11 1_555 1_555
C12 C33 1_555 1_555
C16 C17 1_555 1_555
C18 C19 1_555 1_555
C28 C29 1_555 1_555
C30 C31 1_555 1_555
C30 C32 1_555 1_555
C32 C33 1_555 1_555
C34 C35 1_555 1_555
C36 C37 1_555 1_555
C38 C40 1_555 1_555
C39 C41 1_555 1_555

#END
