
#######################################################################
#
#                 Cambridge Crystallographic Data Centre
#                                CCDC 
#
#######################################################################
#
# If this CIF has been generated from an entry in the Cambridge 
# Structural Database, then it will include bibliographic, chemical, 
# crystal, experimental, refinement or atomic coordinate data resulting 
# from the CCDC's data processing and validation procedures.
#
#######################################################################

data_HOPNAC
_chemical_formula_moiety         'C23 H30 N2'
_chemical_name_systematic        
4-(2,6-Di-isopropylphenyl)-1,2,3,3a,4,5-hexahydropyrrolo[1,2-a]quinazoline
_symmetry_cell_setting           triclinic
_symmetry_space_group_name_H-M   'P -1'
_symmetry_Int_Tables_number      2
_space_group_name_Hall           '-P 1'
loop_
_symmetry_equiv_pos_site_id
_symmetry_equiv_pos_as_xyz
1 x,y,z
2 -x,-y,-z
_cell_length_a                   8.9150(5)
_cell_length_b                   9.0415(5)
_cell_length_c                   13.2976(7)
_cell_angle_alpha                85.139(1)
_cell_angle_beta                 72.634(1)
_cell_angle_gamma                65.228(1)
_cell_volume                     927.855
_exptl_crystal_colour            colorless
_exptl_crystal_description       lath
_chemical_melting_point          '186-189 deg.C'
_cell_formula_units_Z            2
loop_
_atom_site_label
_atom_site_type_symbol
_atom_site_fract_x
_atom_site_fract_y
_atom_site_fract_z
N1 N 0.60640(11) 0.93676(11) 0.23277(7)
N2 N 0.62350(15) 1.06026(14) 0.06865(9)
C1 C 0.42035(14) 1.03156(14) 0.27279(9)
H1 H 0.3895 1.0634 0.3481
H2 H 0.3596 0.9640 0.2673
C2 C 0.36354(14) 1.18269(13) 0.21065(8)
C3 C 0.20705(14) 1.31457(13) 0.25209(9)
H3 H 0.1349 1.3080 0.3196
C4 C 0.15329(14) 1.45615(13) 0.19715(9)
H4 H 0.0447 1.5443 0.2259
C5 C 0.26149(15) 1.46594(13) 0.09954(9)
H5 H 0.2273 1.5627 0.0619
C6 C 0.41911(15) 1.33628(14) 0.05602(9)
H6 H 0.4918 1.3453 -0.0107
C7 C 0.47123(14) 1.19205(13) 0.11030(9)
C8 C 0.74852(14) 1.05409(14) -0.03058(9)
H7 H 0.7975 1.1340 -0.0298
H8 H 0.6962 1.0766 -0.0893
C9 C 0.88768(14) 0.87844(14) -0.04089(9)
H9 H 0.8726 0.8093 -0.0876
H10 H 1.0047 0.8761 -0.0697
C10 C 0.86013(14) 0.81974(13) 0.07216(9)
H11 H 0.8998 0.6998 0.0726
H12 H 0.9217 0.8524 0.1107
C11 C 0.66595(14) 0.90565(14) 0.11976(9)
H13 H 0.6087 0.8431 0.0997
C12 C 0.68144(13) 0.81528(12) 0.30139(8)
C13 C 0.77289(13) 0.85286(13) 0.35809(8)
C14 C 0.83526(14) 0.74613(13) 0.43296(9)
H14 H 0.8968 0.7709 0.4715
C15 C 0.80865(14) 0.60464(13) 0.45188(9)
H15 H 0.8489 0.5342 0.5043
C16 C 0.72293(14) 0.56672(13) 0.39383(9)
H16 H 0.7073 0.4684 0.4061
C17 C 0.65879(14) 0.66896(13) 0.31778(8)
C18 C 0.79967(15) 1.00936(13) 0.34248(9)
H17 H 0.7581 1.0641 0.2814
C19 C 0.98937(18) 0.97753(18) 0.31741(12)
H18 H 1.0294 0.9359 0.3795
H19 H 1.0026 1.0794 0.2983
H20 H 1.0580 0.8968 0.2583
C20 C 0.6919(2) 1.12383(17) 0.43984(12)
H21 H 0.5699 1.1470 0.4528
H22 H 0.7069 1.2259 0.4283
H23 H 0.7297 1.0722 0.5010
C21 C 0.56935(15) 0.61528(13) 0.25626(9)
H24 H 0.5255 0.7040 0.2085
C22 C 0.69805(17) 0.46058(15) 0.18763(10)
H25 H 0.7918 0.4824 0.1379
H26 H 0.6388 0.4278 0.1484
H27 H 0.7459 0.3727 0.2327
C23 C 0.41491(17) 0.58710(17) 0.32898(10)
H28 H 0.4556 0.4967 0.3742
H29 H 0.3563 0.5604 0.2862
H30 H 0.3341 0.6862 0.3729
loop_
_geom_bond_atom_site_label_1
_geom_bond_atom_site_label_2
_geom_bond_site_symmetry_1
_geom_bond_site_symmetry_2
N1 C1 1_555 1_555
N2 C7 1_555 1_555
C1 H1 1_555 1_555
H2 C1 1_555 1_555
C2 C1 1_555 1_555
C3 C2 1_555 1_555
H3 C3 1_555 1_555
C4 C3 1_555 1_555
H4 C4 1_555 1_555
C5 C4 1_555 1_555
H5 C5 1_555 1_555
C6 C5 1_555 1_555
H6 C6 1_555 1_555
C7 C2 1_555 1_555
C8 N2 1_555 1_555
H7 C8 1_555 1_555
H8 C8 1_555 1_555
C9 C8 1_555 1_555
H9 C9 1_555 1_555
H10 C9 1_555 1_555
C10 C9 1_555 1_555
H11 C10 1_555 1_555
H12 C10 1_555 1_555
C11 N1 1_555 1_555
H13 C11 1_555 1_555
C12 N1 1_555 1_555
C13 C12 1_555 1_555
C14 C13 1_555 1_555
H14 C14 1_555 1_555
C15 C14 1_555 1_555
H15 C15 1_555 1_555
C16 C15 1_555 1_555
H16 C16 1_555 1_555
C17 C12 1_555 1_555
C18 C13 1_555 1_555
H17 C18 1_555 1_555
C19 C18 1_555 1_555
H18 C19 1_555 1_555
H19 C19 1_555 1_555
H20 C19 1_555 1_555
C20 C18 1_555 1_555
H21 C20 1_555 1_555
H22 C20 1_555 1_555
H23 C20 1_555 1_555
C21 C17 1_555 1_555
H24 C21 1_555 1_555
C22 C21 1_555 1_555
H25 C22 1_555 1_555
H26 C22 1_555 1_555
H27 C22 1_555 1_555
C23 C21 1_555 1_555
H28 C23 1_555 1_555
H29 C23 1_555 1_555
H30 C23 1_555 1_555
N2 C11 1_555 1_555
C6 C7 1_555 1_555
C10 C11 1_555 1_555
C16 C17 1_555 1_555

#END
