
#######################################################################
#
#                 Cambridge Crystallographic Data Centre
#                                CCDC 
#
#######################################################################
#
# If this CIF has been generated from an entry in the Cambridge 
# Structural Database, then it will include bibliographic, chemical, 
# crystal, experimental, refinement or atomic coordinate data resulting 
# from the CCDC's data processing and validation procedures.
#
#######################################################################

data_HOPNIK
_chemical_formula_moiety         'C23 H22 N2'
_chemical_name_systematic        
5-Benzyl-5,6,12,13-tetrahydro-4bH-isoquinolino[2,1-a]quinazoline
_symmetry_cell_setting           monoclinic
_symmetry_space_group_name_H-M   'P 21'
_symmetry_Int_Tables_number      4
_space_group_name_Hall           'P 2yb'
loop_
_symmetry_equiv_pos_site_id
_symmetry_equiv_pos_as_xyz
1 x,y,z
2 -x,1/2+y,-z
_cell_length_a                   10.7489(8)
_cell_length_b                   5.0850(4)
_cell_length_c                   15.8645(12)
_cell_angle_alpha                90
_cell_angle_beta                 103.529(2)
_cell_angle_gamma                90
_cell_volume                     843.063
_exptl_crystal_colour            colorless
_exptl_crystal_description       rod
_cell_formula_units_Z            2
loop_
_atom_site_label
_atom_site_type_symbol
_atom_site_fract_x
_atom_site_fract_y
_atom_site_fract_z
N1 N -0.07974(13) 0.3489(3) -0.25460(9)
N2 N -0.27856(14) 0.5945(3) -0.28536(9)
C1 C -0.21027(16) 0.3613(4) -0.30677(11)
H1 H -0.2564 0.2020 -0.2930
C2 C -0.21390(16) 0.3540(4) -0.40313(11)
C3 C -0.13532(18) 0.1744(4) -0.43248(12)
H2 H -0.0788 0.0663 -0.3919
C4 C -0.13891(19) 0.1520(4) -0.52021(13)
H3 H -0.0854 0.0283 -0.5395
C5 C -0.22096(18) 0.3109(4) -0.57974(12)
H4 H -0.2239 0.2965 -0.6399
C6 C -0.29819(18) 0.4899(4) -0.55070(12)
H5 H -0.3529 0.6006 -0.5914
C7 C -0.29757(16) 0.5116(4) -0.46275(11)
C8 C -0.38818(17) 0.6961(4) -0.43344(11)
H6 H -0.4723 0.6913 -0.4754
H7 H -0.3547 0.8778 -0.4318
C9 C -0.40484(17) 0.6207(4) -0.34410(12)
H8 H -0.4548 0.7577 -0.3223
H9 H -0.4519 0.4523 -0.3473
C10 C -0.26597(16) 0.6385(4) -0.19570(11)
C11 C -0.33895(16) 0.8298(4) -0.16564(11)
H10 H -0.4004 0.9283 -0.2062
C12 C -0.32294(18) 0.8775(4) -0.07783(12)
H11 H -0.3741 1.0068 -0.0589
C13 C -0.23298(18) 0.7385(4) -0.01727(12)
H12 H -0.2237 0.7679 0.0430
C14 C -0.15697(18) 0.5560(4) -0.04638(12)
H13 H -0.0933 0.4640 -0.0053
C15 C -0.17150(17) 0.5039(4) -0.13445(11)
C16 C -0.08530(16) 0.3075(4) -0.16397(11)
H14 H 0.0020 0.3222 -0.1264
H15 H -0.1169 0.1276 -0.1575
C17 C -0.00482(16) 0.5843(3) -0.26459(11)
H16 H -0.0347 0.7352 -0.2352
H17 H -0.0182 0.6278 -0.3269
C18 C 0.13610(16) 0.5387(4) -0.22627(11)
C19 C 0.19896(18) 0.3289(4) -0.25448(12)
H18 H 0.1526 0.2117 -0.2971
C20 C 0.32876(19) 0.2896(4) -0.22082(13)
H19 H 0.3707 0.1450 -0.2401
C21 C 0.39758(19) 0.4611(4) -0.15901(14)
H20 H 0.4866 0.4347 -0.1363
C22 C 0.33626(19) 0.6694(4) -0.13076(13)
H21 H 0.3832 0.7872 -0.0886
C23 C 0.20586(18) 0.7082(4) -0.16377(12)
H22 H 0.1640 0.8513 -0.1435
loop_
_geom_bond_atom_site_label_1
_geom_bond_atom_site_label_2
_geom_bond_site_symmetry_1
_geom_bond_site_symmetry_2
N1 C1 1_555 1_555
N2 C1 1_555 1_555
C1 H1 1_555 1_555
C2 C1 1_555 1_555
C3 C2 1_555 1_555
H2 C3 1_555 1_555
C4 C3 1_555 1_555
H3 C4 1_555 1_555
C5 C4 1_555 1_555
H4 C5 1_555 1_555
C6 C5 1_555 1_555
H5 C6 1_555 1_555
C7 C2 1_555 1_555
C8 C7 1_555 1_555
H6 C8 1_555 1_555
H7 C8 1_555 1_555
C9 N2 1_555 1_555
H8 C9 1_555 1_555
H9 C9 1_555 1_555
C10 N2 1_555 1_555
C11 C10 1_555 1_555
H10 C11 1_555 1_555
C12 C11 1_555 1_555
H11 C12 1_555 1_555
C13 C12 1_555 1_555
H12 C13 1_555 1_555
C14 C13 1_555 1_555
H13 C14 1_555 1_555
C15 C10 1_555 1_555
C16 N1 1_555 1_555
H14 C16 1_555 1_555
H15 C16 1_555 1_555
C17 N1 1_555 1_555
H16 C17 1_555 1_555
H17 C17 1_555 1_555
C18 C17 1_555 1_555
C19 C18 1_555 1_555
H18 C19 1_555 1_555
C20 C19 1_555 1_555
H19 C20 1_555 1_555
C21 C20 1_555 1_555
H20 C21 1_555 1_555
C22 C21 1_555 1_555
H21 C22 1_555 1_555
C23 C18 1_555 1_555
H22 C23 1_555 1_555
C6 C7 1_555 1_555
C8 C9 1_555 1_555
C14 C15 1_555 1_555
C15 C16 1_555 1_555
C22 C23 1_555 1_555

#END
