
#######################################################################
#
#                 Cambridge Crystallographic Data Centre
#                                CCDC 
#
#######################################################################
#
# If this CIF has been generated from an entry in the Cambridge 
# Structural Database, then it will include bibliographic, chemical, 
# crystal, experimental, refinement or atomic coordinate data resulting 
# from the CCDC's data processing and validation procedures.
#
#######################################################################

data_HOQSUB01
_chemical_formula_moiety         'C57 H66 O6'
_chemical_name_systematic        
7,15,23-Tri-t-butyl-25,26,27-tris(benzyloxy)-2,4,10,12,18,20-hexahomo-3,11,19-trioxcalix(3)arene
_symmetry_cell_setting           monoclinic
_symmetry_space_group_name_H-M   'A 2/a'
_symmetry_Int_Tables_number      15
_space_group_name_Hall           '-A 2yn'
loop_
_symmetry_equiv_pos_site_id
_symmetry_equiv_pos_as_xyz
1 x,y,z
2 x,1/2+y,1/2+z
3 1/2-x,y,-z
4 1/2-x,1/2+y,1/2-z
5 -x,-y,-z
6 -x,1/2-y,1/2-z
7 1/2+x,-y,z
8 1/2+x,1/2-y,1/2+z
_cell_length_a                   27.9648(13)
_cell_length_b                   9.8510(6)
_cell_length_c                   34.6640(17)
_cell_angle_alpha                90
_cell_angle_beta                 101.179(4)
_cell_angle_gamma                90
_cell_volume                     9368.1
_exptl_crystal_colour            colorless
_exptl_crystal_description       plate
_cell_formula_units_Z            8
loop_
_atom_site_label
_atom_site_type_symbol
_atom_site_fract_x
_atom_site_fract_y
_atom_site_fract_z
O1 O 0.59998(10) 0.2991(2) 0.10829(7)
C1 C 0.61274(15) 0.3101(4) 0.07154(11)
C2 C 0.66068(14) 0.2895(4) 0.06754(11)
C3 C 0.67206(15) 0.2979(4) 0.03042(11)
H1 H 0.7041 0.2830 0.0278
C4 C 0.63690(15) 0.3280(4) -0.00338(11)
C5 C 0.59020(15) 0.3550(4) 0.00232(11)
H2 H 0.5665 0.3792 -0.0193
C6 C 0.57706(14) 0.3474(4) 0.03910(11)
C7 C 0.52534(14) 0.3828(4) 0.04267(11)
H3 H 0.5032 0.3554 0.0188
H4 H 0.5168 0.3322 0.0644
O2 O 0.51912(9) 0.5254(2) 0.04905(7)
C8 C 0.53130(15) 0.5707(4) 0.08899(11)
H5 H 0.5366 0.4922 0.1062
H6 H 0.5040 0.6213 0.0952
C9 C 0.59350(16) 0.1607(4) 0.12038(11)
H7 H 0.5928 0.1601 0.1482
H8 H 0.6214 0.1073 0.1166
C10 C 0.54780(15) 0.0946(4) 0.09841(12)
C11 C 0.50342(19) 0.1201(5) 0.10801(15)
H9 H 0.5011 0.1775 0.1289
C12 C 0.4652(2) -0.0279(6) 0.05568(18)
H10 H 0.4374 -0.0684 0.0412
C13 C 0.46108(19) 0.0587(6) 0.08599(19)
H11 H 0.4307 0.0768 0.0920
C14 C 0.5086(2) -0.0547(5) 0.04686(15)
H12 H 0.5111 -0.1150 0.0267
C15 C 0.54977(17) 0.0069(4) 0.06763(12)
H13 H 0.5797 -0.0109 0.0608
C16 C 0.65152(14) 0.3293(4) -0.04368(11)
C17 C 0.68923(16) 0.4406(4) -0.04526(12)
H14 H 0.6983 0.4398 -0.0706
H15 H 0.7175 0.4246 -0.0252
H16 H 0.6755 0.5274 -0.0410
C18 C 0.67392(17) 0.1910(4) -0.05063(13)
H17 H 0.6834 0.1912 -0.0758
H18 H 0.6503 0.1207 -0.0500
H19 H 0.7020 0.1748 -0.0304
C19 C 0.60783(17) 0.3535(5) -0.07719(12)
H20 H 0.6186 0.3534 -0.1019
H21 H 0.5933 0.4396 -0.0735
H22 H 0.5843 0.2826 -0.0772
O3 O 0.55933(10) 0.7031(2) 0.16023(7)
C20 C 0.58897(14) 0.7269(4) 0.13297(11)
C21 C 0.57637(14) 0.6593(4) 0.09686(11)
C22 C 0.60468(15) 0.6811(4) 0.06869(11)
H23 H 0.5960 0.6382 0.0444
C23 C 0.64514(15) 0.7639(4) 0.07527(11)
C24 C 0.65805(15) 0.8224(4) 0.11255(11)
H24 H 0.6862 0.8747 0.1182
C25 C 0.63067(14) 0.8056(4) 0.14142(11)
C26 C 0.64504(16) 0.8771(4) 0.18058(11)
H25 H 0.6742 0.9302 0.1804
H26 H 0.6192 0.9395 0.1837
O4 O 0.65404(10) 0.7865(3) 0.21372(7)
C27 C 0.70430(15) 0.7694(4) 0.23193(11)
H27 H 0.7062 0.7079 0.2540
H28 H 0.7171 0.8564 0.2422
C28 C 0.52594(18) 0.8108(4) 0.16292(16)
H29 H 0.5122 0.8440 0.1368
H30 H 0.5431 0.8853 0.1779
C29 C 0.48576(15) 0.7620(4) 0.18257(12)
C30 C 0.46771(17) 0.8459(4) 0.20822(13)
H31 H 0.4817 0.9306 0.2144
C31 C 0.42894(18) 0.8050(5) 0.22479(13)
H32 H 0.4174 0.8618 0.2424
C32 C 0.40743(17) 0.6813(5) 0.21549(13)
H33 H 0.3807 0.6551 0.2260
C33 C 0.42572(17) 0.5960(4) 0.19050(13)
H34 H 0.4118 0.5109 0.1846
C34 C 0.46455(16) 0.6360(4) 0.17411(11)
H35 H 0.4766 0.5776 0.1572
C35 C 0.67552(15) 0.7857(4) 0.04368(11)
C36 C 0.69915(18) 0.9261(4) 0.04681(13)
H36 H 0.6742 0.9945 0.0434
H37 H 0.7182 0.9359 0.0268
H38 H 0.7198 0.9361 0.0722
C37 C 0.71493(16) 0.6753(4) 0.04879(12)
H39 H 0.6998 0.5875 0.0467
H40 H 0.7357 0.6843 0.0742
H41 H 0.7340 0.6850 0.0287
C38 C 0.64408(17) 0.7739(5) 0.00216(12)
H42 H 0.6288 0.6863 -0.0009
H43 H 0.6643 0.7848 -0.0170
H44 H 0.6195 0.8434 -0.0015
O5 O 0.70479(10) 0.4895(3) 0.20893(7)
C39 C 0.73392(14) 0.5805(4) 0.19337(11)
C40 C 0.73605(14) 0.7157(4) 0.20523(11)
C41 C 0.76831(15) 0.8017(4) 0.19167(11)
H45 H 0.7702 0.8916 0.2000
C42 C 0.79801(15) 0.7600(4) 0.16614(11)
C43 C 0.79422(15) 0.6242(4) 0.15456(11)
H46 H 0.8137 0.5928 0.1376
C44 C 0.76232(15) 0.5338(4) 0.16741(11)
C45 C 0.75624(16) 0.3922(4) 0.15114(12)
H47 H 0.7864 0.3608 0.1442
H48 H 0.7474 0.3305 0.1704
O6 O 0.71818(10) 0.3980(2) 0.11690(7)
C46 C 0.70147(15) 0.2675(4) 0.10277(12)
H49 H 0.6896 0.2173 0.1231
H50 H 0.7278 0.2165 0.0951
C47 C 0.65510(14) 0.4803(4) 0.18711(12)
H51 H 0.6552 0.4594 0.1598
H52 H 0.6387 0.5667 0.1881
C48 C 0.62817(16) 0.3709(4) 0.20458(11)
C49 C 0.65118(16) 0.2549(4) 0.22167(11)
H53 H 0.6846 0.2448 0.2237
C50 C 0.62478(18) 0.1542(4) 0.23569(11)
H54 H 0.6405 0.0772 0.2475
C51 C 0.57519(18) 0.1675(4) 0.23224(12)
H55 H 0.5572 0.0988 0.2411
C52 C 0.55218(17) 0.2831(4) 0.21557(12)
H56 H 0.5187 0.2927 0.2135
C53 C 0.57857(15) 0.3846(4) 0.20197(11)
H57 H 0.5628 0.4626 0.1910
C54 C 0.83408(16) 0.8568(4) 0.15208(12)
C55 C 0.8220(2) 1.0058(5) 0.15834(18)
H58 H 0.8453 1.0630 0.1493
H59 H 0.8231 1.0219 0.1858
H60 H 0.7899 1.0259 0.1439
C56 C 0.88563(17) 0.8298(5) 0.17455(15)
H61 H 0.9079 0.8909 0.1656
H62 H 0.8946 0.7379 0.1701
H63 H 0.8869 0.8436 0.2021
C57 C 0.8325(2) 0.8381(6) 0.10823(13)
H64 H 0.8552 0.8992 0.0998
H65 H 0.8002 0.8571 0.0940
H66 H 0.8410 0.7463 0.1033
loop_
_geom_bond_atom_site_label_1
_geom_bond_atom_site_label_2
_geom_bond_site_symmetry_1
_geom_bond_site_symmetry_2
O1 C1 1_555 1_555
C1 C2 1_555 1_555
C2 C3 1_555 1_555
C3 H1 1_555 1_555
C4 C3 1_555 1_555
C5 C4 1_555 1_555
H2 C5 1_555 1_555
C6 C1 1_555 1_555
C7 C6 1_555 1_555
H3 C7 1_555 1_555
H4 C7 1_555 1_555
O2 C7 1_555 1_555
C8 O2 1_555 1_555
H5 C8 1_555 1_555
H6 C8 1_555 1_555
C9 O1 1_555 1_555
H7 C9 1_555 1_555
H8 C9 1_555 1_555
C10 C9 1_555 1_555
C11 C10 1_555 1_555
H9 C11 1_555 1_555
C12 H10 1_555 1_555
C13 C11 1_555 1_555
H11 C13 1_555 1_555
C14 C12 1_555 1_555
H12 C14 1_555 1_555
C15 C10 1_555 1_555
H13 C15 1_555 1_555
C16 C4 1_555 1_555
C17 C16 1_555 1_555
H14 C17 1_555 1_555
H15 C17 1_555 1_555
H16 C17 1_555 1_555
C18 C16 1_555 1_555
H17 C18 1_555 1_555
H18 C18 1_555 1_555
H19 C18 1_555 1_555
C19 C16 1_555 1_555
H20 C19 1_555 1_555
H21 C19 1_555 1_555
H22 C19 1_555 1_555
O3 C20 1_555 1_555
C20 C21 1_555 1_555
C21 C8 1_555 1_555
C22 C21 1_555 1_555
H23 C22 1_555 1_555
C23 C22 1_555 1_555
C24 C23 1_555 1_555
H24 C24 1_555 1_555
C25 C20 1_555 1_555
C26 C25 1_555 1_555
H25 C26 1_555 1_555
H26 C26 1_555 1_555
O4 C26 1_555 1_555
C27 O4 1_555 1_555
H27 C27 1_555 1_555
H28 C27 1_555 1_555
C28 O3 1_555 1_555
H29 C28 1_555 1_555
H30 C28 1_555 1_555
C29 C28 1_555 1_555
C30 C29 1_555 1_555
H31 C30 1_555 1_555
C31 C30 1_555 1_555
H32 C31 1_555 1_555
C32 C31 1_555 1_555
H33 C32 1_555 1_555
C33 C32 1_555 1_555
H34 C33 1_555 1_555
C34 C29 1_555 1_555
H35 C34 1_555 1_555
C35 C23 1_555 1_555
C36 C35 1_555 1_555
H36 C36 1_555 1_555
H37 C36 1_555 1_555
H38 C36 1_555 1_555
C37 C35 1_555 1_555
H39 C37 1_555 1_555
H40 C37 1_555 1_555
H41 C37 1_555 1_555
C38 C35 1_555 1_555
H42 C38 1_555 1_555
H43 C38 1_555 1_555
H44 C38 1_555 1_555
O5 C39 1_555 1_555
C39 C40 1_555 1_555
C40 C27 1_555 1_555
C41 C40 1_555 1_555
H45 C41 1_555 1_555
C42 C41 1_555 1_555
C43 C42 1_555 1_555
H46 C43 1_555 1_555
C44 C39 1_555 1_555
C45 C44 1_555 1_555
H47 C45 1_555 1_555
H48 C45 1_555 1_555
O6 C45 1_555 1_555
C46 C2 1_555 1_555
H49 C46 1_555 1_555
H50 C46 1_555 1_555
C47 O5 1_555 1_555
H51 C47 1_555 1_555
H52 C47 1_555 1_555
C48 C47 1_555 1_555
C49 C48 1_555 1_555
H53 C49 1_555 1_555
C50 C49 1_555 1_555
H54 C50 1_555 1_555
C51 C50 1_555 1_555
H55 C51 1_555 1_555
C52 C51 1_555 1_555
H56 C52 1_555 1_555
C53 C48 1_555 1_555
H57 C53 1_555 1_555
C54 C42 1_555 1_555
C55 C54 1_555 1_555
H58 C55 1_555 1_555
H59 C55 1_555 1_555
H60 C55 1_555 1_555
C56 C54 1_555 1_555
H61 C56 1_555 1_555
H62 C56 1_555 1_555
H63 C56 1_555 1_555
C57 C54 1_555 1_555
H64 C57 1_555 1_555
H65 C57 1_555 1_555
H66 C57 1_555 1_555
C5 C6 1_555 1_555
C12 C13 1_555 1_555
C14 C15 1_555 1_555
C24 C25 1_555 1_555
C33 C34 1_555 1_555
C43 C44 1_555 1_555
O6 C46 1_555 1_555
C52 C53 1_555 1_555

#END
