
#######################################################################
#
#                 Cambridge Crystallographic Data Centre
#                                CCDC 
#
#######################################################################
#
# If this CIF has been generated from an entry in the Cambridge 
# Structural Database, then it will include bibliographic, chemical, 
# crystal, experimental, refinement or atomic coordinate data resulting 
# from the CCDC's data processing and validation procedures.
#
#######################################################################

data_HOQXOB
_chemical_name_common            
2-(4-(2-(2-Ethyl-1-benzothiophen-3-yl)-3,3,4,4,5,5-hexafluoro-1-cyclopenten-1-yl)-5-pentyl-2-thienyl)-1,3-dioxolane
_chemical_formula_moiety         'C27 H26 F6 O2 S2'
_chemical_name_systematic        
1-(2-Ethyl-1-benzothien-3-yl)-2-(2-n-pentyl-5-(1,3-dioxolan-2-yl)-3-thienyl)perfluorocyclopentene
_symmetry_cell_setting           triclinic
_symmetry_space_group_name_H-M   'P -1'
_symmetry_Int_Tables_number      2
_space_group_name_Hall           '-P 1'
loop_
_symmetry_equiv_pos_site_id
_symmetry_equiv_pos_as_xyz
1 x,y,z
2 -x,-y,-z
_cell_length_a                   10.2996(11)
_cell_length_b                   10.7924(11)
_cell_length_c                   13.3082(14)
_cell_angle_alpha                106.680(1)
_cell_angle_beta                 100.844(1)
_cell_angle_gamma                105.164(1)
_cell_volume                     1311.12
_exptl_crystal_colour            colorless
_exptl_crystal_description       block
_cell_formula_units_Z            2
_chemical_properties_physical    light-sensitive
_exptl_crystal_recrystallization_method 'diethyl ether/hexane'
_exptl_crystal_preparation       
'photochromic; single crystals turn from colorless to purple when irradiated with 254nm UV light, and revert to colorless when irradiated with visible light above 450nm'
loop_
_atom_site_label
_atom_site_type_symbol
_atom_site_fract_x
_atom_site_fract_y
_atom_site_fract_z
F1 F 0.4070(2) 0.2319(3) 0.52057(16)
F2 F 0.3811(2) 0.0346(2) 0.53872(17)
F3 F 0.2315(2) 0.2846(2) 0.62681(19)
F4 F 0.1432(2) 0.0626(3) 0.55701(19)
F5 F 0.22756(18) 0.2369(2) 0.80481(16)
F6 F 0.2459(2) 0.03584(19) 0.73982(18)
C1 C 0.3900(3) 0.1659(3) 0.5925(2)
C2 C 0.2567(3) 0.1670(3) 0.6255(3)
C3 C 0.2928(3) 0.1668(3) 0.7420(3)
S1 S 0.90392(7) 0.25903(9) 0.70753(7)
S2 S 0.66104(7) 0.41619(7) 1.09900(5)
O1 O 0.4881(2) 0.2871(3) 1.24053(17)
O2 O 0.6534(3) 0.1937(3) 1.2185(2)
C4 C 0.8621(3) 0.3844(3) 0.6667(2)
C5 C 0.9499(4) 0.4863(4) 0.6409(3)
H1 H 1.0412 0.4893 0.6418
C6 C 0.8993(4) 0.5816(4) 0.6142(3)
H2 H 0.9562 0.6488 0.5957
C7 C 0.7641(4) 0.5792(3) 0.6145(3)
H3 H 0.7322 0.6457 0.5972
C8 C 0.6760(3) 0.4801(3) 0.6401(2)
H4 H 0.5857 0.4800 0.6402
C9 C 0.7236(3) 0.3793(3) 0.66588(19)
C10 C 0.6546(2) 0.2687(2) 0.69791(18)
C11 C 0.7378(2) 0.1957(3) 0.7225(2)
C12 C 0.7023(3) 0.0736(3) 0.7570(3)
H5 H 0.6098 0.0114 0.7113
H6 H 0.6972 0.1042 0.8317
C13 C 0.8040(4) -0.0057(3) 0.7511(3)
H7 H 0.8124 -0.0346 0.6780
H8 H 0.7698 -0.0849 0.7703
H9 H 0.8942 0.0520 0.8011
C14 C 0.5057(2) 0.2302(2) 0.69866(18)
C15 C 0.4508(2) 0.2284(2) 0.78248(18)
C16 C 0.6172(2) 0.3998(2) 0.96284(18)
C17 C 0.5193(2) 0.2731(2) 0.90025(18)
C18 C 0.4796(3) 0.1914(2) 0.9643(2)
H10 H 0.4133 0.1036 0.9347
C19 C 0.5479(3) 0.2541(3) 1.0720(2)
C20 C 0.5295(4) 0.2012(3) 1.1627(2)
H11 H 0.4582 0.1095 1.1320
C21 C 0.5789(5) 0.3237(5) 1.3409(3)
H12 H 0.5279 0.3029 1.3917
H13 H 0.6304 0.4215 1.3691
C22 C 0.6731(5) 0.2481(5) 1.3292(4)
H14 H 0.7694 0.3079 1.3664
H15 H 0.6516 0.1758 1.3594
C23 C 0.6785(2) 0.5216(2) 0.9330(2)
H16 H 0.6544 0.5980 0.9741
H17 H 0.6354 0.5001 0.8560
C24 C 0.8366(2) 0.5666(3) 0.9540(2)
H18 H 0.8607 0.4950 0.9061
H19 H 0.8802 0.5784 1.0289
C25 C 0.8951(3) 0.6999(3) 0.9350(2)
H20 H 0.8439 0.6915 0.8629
H21 H 0.8801 0.7735 0.9884
C26 C 1.0493(3) 0.7376(3) 0.9433(3)
H22 H 1.0637 0.6650 0.8885
H23 H 1.0999 0.7431 1.0146
C27 C 1.1105(4) 0.8722(4) 0.9280(4)
H24 H 1.0617 0.8676 0.8573
H25 H 1.2082 0.8890 0.9331
H26 H 1.1003 0.9454 0.9837
C28? C 0.3969(9) 0.1936(12) 0.5908(8)
C29? C 0.2627(11) 0.1179(12) 0.6105(9)
C30? C 0.2920(10) 0.1682(13) 0.7345(9)
F7? F 0.3887(13) 0.3039(10) 0.5655(10)
F8? F 0.4256(13) 0.1109(12) 0.5079(10)
F9? F 0.1537(12) 0.1499(12) 0.5660(13)
F10? F 0.2270(12) -0.0195(10) 0.5707(11)
F11? F 0.2375(12) 0.2684(9) 0.7653(11)
F12? F 0.2348(16) 0.0701(10) 0.7721(13)
loop_
_geom_bond_atom_site_label_1
_geom_bond_atom_site_label_2
_geom_bond_site_symmetry_1
_geom_bond_site_symmetry_2
F1 C1 1_555 1_555
F2 C1 1_555 1_555
F3 C2 1_555 1_555
F4 C2 1_555 1_555
F5 C3 1_555 1_555
F6 C3 1_555 1_555
C1 C2 1_555 1_555
C2 C3 1_555 1_555
C3 C15 1_555 1_555
S1 C4 1_555 1_555
S2 C16 1_555 1_555
O1 C20 1_555 1_555
O2 C20 1_555 1_555
C4 C5 1_555 1_555
C5 H1 1_555 1_555
C6 C5 1_555 1_555
H2 C6 1_555 1_555
C7 C6 1_555 1_555
H3 C7 1_555 1_555
C8 C7 1_555 1_555
H4 C8 1_555 1_555
C9 C4 1_555 1_555
C10 C9 1_555 1_555
C11 S1 1_555 1_555
C12 C11 1_555 1_555
H5 C12 1_555 1_555
H6 C12 1_555 1_555
C13 C12 1_555 1_555
H7 C13 1_555 1_555
H8 C13 1_555 1_555
H9 C13 1_555 1_555
C14 C1 1_555 1_555
C15 C14 1_555 1_555
C16 C17 1_555 1_555
C17 C15 1_555 1_555
C18 C17 1_555 1_555
H10 C18 1_555 1_555
C19 S2 1_555 1_555
C20 C19 1_555 1_555
H11 C20 1_555 1_555
C21 O1 1_555 1_555
H12 C21 1_555 1_555
H13 C21 1_555 1_555
C22 O2 1_555 1_555
H14 C22 1_555 1_555
H15 C22 1_555 1_555
C23 C16 1_555 1_555
H16 C23 1_555 1_555
H17 C23 1_555 1_555
C24 C23 1_555 1_555
H18 C24 1_555 1_555
H19 C24 1_555 1_555
C25 C24 1_555 1_555
H20 C25 1_555 1_555
H21 C25 1_555 1_555
C26 C25 1_555 1_555
H22 C26 1_555 1_555
H23 C26 1_555 1_555
C27 C26 1_555 1_555
H24 C27 1_555 1_555
H25 C27 1_555 1_555
H26 C27 1_555 1_555
C8 C9 1_555 1_555
C10 C11 1_555 1_555
C10 C14 1_555 1_555
C18 C19 1_555 1_555
C21 C22 1_555 1_555

#END
