
#######################################################################
#
#                 Cambridge Crystallographic Data Centre
#                                CCDC 
#
#######################################################################
#
# If this CIF has been generated from an entry in the Cambridge 
# Structural Database, then it will include bibliographic, chemical, 
# crystal, experimental, refinement or atomic coordinate data resulting 
# from the CCDC's data processing and validation procedures.
#
#######################################################################

data_HORDIC
_chemical_name_common            
'2-Bromo-5-((tritylcarbonyl)amino)-N-tritylbenzamide ethyl acetate solvate'
_chemical_formula_moiety         'C46 H35 Br1 N2 O2,C4 H8 O2'
_chemical_name_systematic        
'2-Bromo-5-((triphenylacetyl)amino)-N-tritylbenzamide ethyl acetate solvate'
_symmetry_cell_setting           triclinic
_symmetry_space_group_name_H-M   'P -1'
_symmetry_Int_Tables_number      2
_space_group_name_Hall           '-P 1'
loop_
_symmetry_equiv_pos_site_id
_symmetry_equiv_pos_as_xyz
1 x,y,z
2 -x,-y,-z
_cell_length_a                   10.0756(13)
_cell_length_b                   13.5573(17)
_cell_length_c                   16.036(2)
_cell_angle_alpha                99.681(3)
_cell_angle_beta                 95.973(2)
_cell_angle_gamma                99.563(2)
_cell_volume                     2109.56
_exptl_crystal_colour            colorless
_exptl_crystal_description       block
_chemical_melting_point          '124-125 deg.C'
_cell_formula_units_Z            2
_exptl_crystal_recrystallization_method 'ethyl acetate'
loop_
_atom_site_label
_atom_site_type_symbol
_atom_site_fract_x
_atom_site_fract_y
_atom_site_fract_z
Br1 Br -0.11149(5) 0.52046(4) 0.67128(3)
O1 O -0.1906(4) 0.1541(3) 0.3078(3)
O2 O 0.2888(3) 0.4729(3) 0.6407(2)
N1 N 0.0179(4) 0.2231(3) 0.3771(2)
H1 H 0.1029 0.2231 0.3755
N2 N 0.1460(3) 0.4225(3) 0.7319(2)
H2 H 0.0613 0.4057 0.7365
C1 C -0.0156(4) 0.2912(3) 0.4447(3)
C2 C 0.0830(4) 0.3317(3) 0.5138(3)
H3 H 0.1678 0.3132 0.5136
C3 C 0.0602(4) 0.3986(3) 0.5831(3)
C4 C -0.0671(4) 0.4258(3) 0.5813(3)
C5 C -0.1650(5) 0.3865(4) 0.5112(3)
H4 H -0.2495 0.4057 0.5106
C6 C -0.1409(5) 0.3203(3) 0.4430(3)
H5 H -0.2075 0.2951 0.3961
C7 C -0.0693(5) 0.1576(4) 0.3144(3)
C8 C -0.0047(4) 0.0859(3) 0.2495(3)
C9 C 0.0335(4) -0.0049(4) 0.2889(3)
C10 C 0.0490(7) -0.0068(4) 0.3743(4)
H6 H 0.0299 0.0476 0.4117
C11 C 0.0896(8) -0.0817(5) 0.4060(4)
H7 H 0.1030 -0.0781 0.4648
C12 C 0.1121(6) -0.1652(5) 0.3521(5)
H8 H 0.1368 -0.2203 0.3733
C13 C 0.0972(5) -0.1652(4) 0.2659(4)
H9 H 0.1148 -0.2203 0.2284
C14 C 0.0578(5) -0.0876(4) 0.2350(4)
H10 H 0.0467 -0.0897 0.1764
C15 C 0.1204(5) 0.1527(4) 0.2249(3)
C16 C 0.2446(5) 0.1234(4) 0.2239(3)
H11 H 0.2554 0.0619 0.2396
C17 C 0.3546(5) 0.1838(5) 0.2001(4)
H12 H 0.4377 0.1625 0.2003
C18 C 0.3416(7) 0.2707(5) 0.1772(4)
H13 H 0.4152 0.3113 0.1616
C19 C 0.2180(7) 0.3009(4) 0.1765(3)
H14 H 0.2087 0.3620 0.1597
C20 C 0.1073(5) 0.2426(4) 0.2001(3)
H15 H 0.0245 0.2644 0.1991
C21 C -0.1127(5) 0.0407(3) 0.1706(3)
C22 C -0.0949(5) 0.0580(4) 0.0886(3)
H16 H -0.0149 0.0977 0.0796
C23 C -0.1963(6) 0.0162(4) 0.0205(3)
H17 H -0.1843 0.0285 -0.0338
C24 C -0.3165(6) -0.0442(5) 0.0330(4)
H18 H -0.3843 -0.0723 -0.0128
C25 C -0.3334(6) -0.0615(4) 0.1121(4)
H19 H -0.4136 -0.1013 0.1205
C26 C -0.2345(5) -0.0214(4) 0.1801(3)
H20 H -0.2481 -0.0356 0.2337
C27 C 0.1756(5) 0.4353(3) 0.6538(3)
C28 C 0.2419(4) 0.4341(3) 0.8099(3)
C29 C 0.3590(5) 0.3810(4) 0.7862(3)
C30 C 0.4918(5) 0.4252(5) 0.8068(4)
H21 H 0.5142 0.4913 0.8382
C31 C 0.5941(8) 0.3767(7) 0.7834(5)
H22 H 0.6843 0.4093 0.7980
C32 C 0.5620(8) 0.2802(9) 0.7384(6)
H23 H 0.6315 0.2468 0.7225
C33 C 0.4274(8) 0.2292(6) 0.7150(5)
H24 H 0.4053 0.1625 0.6847
C34 C 0.3284(6) 0.2839(5) 0.7399(4)
H25 H 0.2375 0.2532 0.7243
C35 C 0.2891(4) 0.5450(4) 0.8537(3)
C36 C 0.3544(5) 0.5671(4) 0.9366(3)
H26 H 0.3740 0.5150 0.9641
C37 C 0.3915(5) 0.6705(5) 0.9796(4)
H27 H 0.4359 0.6848 1.0353
C38 C 0.3639(5) 0.7504(5) 0.9415(4)
H28 H 0.3891 0.8174 0.9708
C39 C 0.2984(5) 0.7281(4) 0.8595(4)
H29 H 0.2776 0.7804 0.8326
C40 C 0.2628(4) 0.6274(4) 0.8162(3)
H30 H 0.2199 0.6142 0.7602
C41 C 0.1559(5) 0.3834(4) 0.8709(3)
C42 C 0.0393(5) 0.4172(4) 0.8890(3)
H31 H 0.0157 0.4713 0.8657
C43 C -0.0434(5) 0.3728(4) 0.9409(3)
H32 H -0.1224 0.3966 0.9522
C44 C -0.0076(6) 0.2909(5) 0.9769(3)
H33 H -0.0635 0.2598 1.0114
C45 C 0.1097(6) 0.2578(4) 0.9607(3)
H34 H 0.1346 0.2046 0.9848
C46 C 0.1919(5) 0.3037(4) 0.9081(3)
H35 H 0.2719 0.2812 0.8976
O3 O 0.3105(4) 0.2150(4) 0.4296(3)
O4 O 0.5297(5) 0.2388(4) 0.4353(4)
C47 C 0.4335(8) 0.3698(6) 0.4136(6)
H36 H 0.3531 0.3807 0.3815
H37 H 0.5093 0.3827 0.3827
H38 H 0.4510 0.4152 0.4680
C48 C 0.4149(9) 0.2696(7) 0.4260(6)
C49 C 0.5343(10) 0.1355(8) 0.4582(7)
H39 H 0.6218 0.1390 0.4912
H40 H 0.4654 0.1217 0.4948
C50 C 0.5142(11) 0.0520(8) 0.3884(7)
H41 H 0.5278 0.0770 0.3368
H42 H 0.4234 0.0140 0.3829
H43 H 0.5780 0.0086 0.3985
loop_
_geom_bond_atom_site_label_1
_geom_bond_atom_site_label_2
_geom_bond_site_symmetry_1
_geom_bond_site_symmetry_2
Br1 C4 1_555 1_555
O1 C7 1_555 1_555
O2 C27 1_555 1_555
O3 C48 1_555 1_555
O4 C48 1_555 1_555
N1 H1 1_555 1_555
N2 H2 1_555 1_555
C1 N1 1_555 1_555
C2 C1 1_555 1_555
H3 C2 1_555 1_555
C3 C2 1_555 1_555
C4 C3 1_555 1_555
C5 C4 1_555 1_555
H4 C5 1_555 1_555
C6 C1 1_555 1_555
H5 C6 1_555 1_555
C7 N1 1_555 1_555
C8 C7 1_555 1_555
C9 C8 1_555 1_555
C10 C9 1_555 1_555
H6 C10 1_555 1_555
C11 C10 1_555 1_555
H7 C11 1_555 1_555
C12 C11 1_555 1_555
H8 C12 1_555 1_555
C13 C12 1_555 1_555
H9 C13 1_555 1_555
C14 C9 1_555 1_555
H10 C14 1_555 1_555
C15 C8 1_555 1_555
C16 C15 1_555 1_555
H11 C16 1_555 1_555
C17 C16 1_555 1_555
H12 C17 1_555 1_555
C18 C17 1_555 1_555
H13 C18 1_555 1_555
C19 C18 1_555 1_555
H14 C19 1_555 1_555
C20 C15 1_555 1_555
H15 C20 1_555 1_555
C21 C8 1_555 1_555
C22 C21 1_555 1_555
H16 C22 1_555 1_555
C23 C22 1_555 1_555
H17 C23 1_555 1_555
C24 C23 1_555 1_555
H18 C24 1_555 1_555
C25 C24 1_555 1_555
H19 C25 1_555 1_555
C26 C21 1_555 1_555
H20 C26 1_555 1_555
C27 N2 1_555 1_555
C28 N2 1_555 1_555
C29 C28 1_555 1_555
C30 C29 1_555 1_555
H21 C30 1_555 1_555
C31 C30 1_555 1_555
H22 C31 1_555 1_555
C32 C31 1_555 1_555
H23 C32 1_555 1_555
C33 C32 1_555 1_555
H24 C33 1_555 1_555
C34 C29 1_555 1_555
H25 C34 1_555 1_555
C35 C28 1_555 1_555
C36 C35 1_555 1_555
H26 C36 1_555 1_555
C37 C36 1_555 1_555
H27 C37 1_555 1_555
C38 C37 1_555 1_555
H28 C38 1_555 1_555
C39 C38 1_555 1_555
H29 C39 1_555 1_555
C40 C35 1_555 1_555
H30 C40 1_555 1_555
C41 C28 1_555 1_555
C42 C41 1_555 1_555
H31 C42 1_555 1_555
C43 C42 1_555 1_555
H32 C43 1_555 1_555
C44 C43 1_555 1_555
H33 C44 1_555 1_555
C45 C44 1_555 1_555
H34 C45 1_555 1_555
C46 C41 1_555 1_555
H35 C46 1_555 1_555
C47 H36 1_555 1_555
H37 C47 1_555 1_555
H38 C47 1_555 1_555
C48 C47 1_555 1_555
C49 O4 1_555 1_555
H39 C49 1_555 1_555
H40 C49 1_555 1_555
C50 C49 1_555 1_555
H41 C50 1_555 1_555
H42 C50 1_555 1_555
H43 C50 1_555 1_555
C3 C27 1_555 1_555
C5 C6 1_555 1_555
C13 C14 1_555 1_555
C19 C20 1_555 1_555
C25 C26 1_555 1_555
C33 C34 1_555 1_555
C39 C40 1_555 1_555
C45 C46 1_555 1_555

#END
