
#######################################################################
#
#                 Cambridge Crystallographic Data Centre
#                                CCDC 
#
#######################################################################
#
# If this CIF has been generated from an entry in the Cambridge 
# Structural Database, then it will include bibliographic, chemical, 
# crystal, experimental, refinement or atomic coordinate data resulting 
# from the CCDC's data processing and validation procedures.
#
#######################################################################

data_HORDUO
_chemical_formula_moiety         'C37 H35 Br1 N2 O2,C4 H8 O2'
_chemical_name_systematic        
'5-((1-Adamantylcarbonyl)amino)-2-bromo-N-tritylbenzamide ethyl acetate solvate'
_symmetry_cell_setting           monoclinic
_symmetry_space_group_name_H-M   'P 21/c'
_symmetry_Int_Tables_number      14
_space_group_name_Hall           '-P 2ybc'
loop_
_symmetry_equiv_pos_site_id
_symmetry_equiv_pos_as_xyz
1 x,y,z
2 -x,1/2+y,1/2-z
3 -x,-y,-z
4 x,1/2-y,1/2+z
_cell_length_a                   11.8909(11)
_cell_length_b                   10.2401(9)
_cell_length_c                   28.515(3)
_cell_angle_alpha                90
_cell_angle_beta                 92.568(2)
_cell_angle_gamma                90
_cell_volume                     3468.61
_exptl_crystal_colour            colorless
_exptl_crystal_description       block
_cell_formula_units_Z            4
_exptl_crystal_recrystallization_method 'ethyl acetate'
loop_
_atom_site_label
_atom_site_type_symbol
_atom_site_fract_x
_atom_site_fract_y
_atom_site_fract_z
Br1 Br 0.44563(3) 0.87033(4) 0.607832(12)
O1 O 0.62320(17) 1.1413(2) 0.65555(7)
O2 O 0.6974(2) 1.0014(3) 0.82742(8)
N1 N 0.7336(2) 0.9634(2) 0.64499(8)
H1 H 0.7325 0.8795 0.6454
N2 N 0.5646(2) 0.8458(3) 0.81663(9)
H2 H 0.5265 0.7881 0.8311
C1 C 0.6440(2) 1.0260(3) 0.66154(10)
C2 C 0.5723(2) 0.9411(3) 0.69123(10)
C3 C 0.4833(3) 0.8685(3) 0.67348(10)
C4 C 0.4201(3) 0.7923(3) 0.70241(11)
H3 H 0.3600 0.7433 0.6900
C5 C 0.4471(3) 0.7898(3) 0.74933(11)
H4 H 0.4041 0.7396 0.7690
C6 C 0.5371(3) 0.8605(3) 0.76839(11)
C7 C 0.5995(3) 0.9380(3) 0.73890(10)
H5 H 0.6593 0.9876 0.7512
C8 C 0.6437(3) 0.9114(3) 0.84329(11)
C9 C 0.8343(2) 1.0270(3) 0.62613(10)
C10 C 0.8116(2) 1.0772(3) 0.57589(10)
C11 C 0.7049(3) 1.0999(3) 0.55663(11)
H6 H 0.6427 1.0818 0.5742
C12 C 0.6892(3) 1.1488(4) 0.51211(12)
H7 H 0.6165 1.1636 0.4999
C13 C 0.7798(3) 1.1762(4) 0.48512(11)
H8 H 0.7689 1.2114 0.4552
C14 C 0.8863(3) 1.1506(4) 0.50326(12)
H9 H 0.9481 1.1669 0.4853
C15 C 0.9024(3) 1.1008(3) 0.54796(12)
H10 H 0.9750 1.0827 0.5596
C16 C 0.9249(3) 0.9193(3) 0.62488(10)
C17 C 0.8993(3) 0.8014(3) 0.60373(12)
H11 H 0.8280 0.7879 0.5898
C18 C 0.9792(3) 0.7027(4) 0.60305(13)
H12 H 0.9602 0.6226 0.5896
C19 C 1.0845(4) 0.7220(4) 0.62181(14)
H13 H 1.1372 0.6549 0.6217
C20 C 1.1131(3) 0.8409(5) 0.64096(14)
H14 H 1.1859 0.8554 0.6530
C21 C 1.0337(3) 0.9390(4) 0.64237(12)
H15 H 1.0538 1.0196 0.6553
C22 C 0.8733(2) 1.1348(3) 0.66096(11)
C23 C 0.9129(3) 1.2540(4) 0.64715(13)
H16 H 0.9124 1.2749 0.6154
C24 C 0.9538(4) 1.3437(4) 0.68028(17)
H17 H 0.9802 1.4242 0.6704
C25 C 0.9558(4) 1.3156(5) 0.72669(17)
H18 H 0.9836 1.3761 0.7486
C26 C 0.9160(4) 1.1959(5) 0.74139(14)
H19 H 0.9165 1.1758 0.7732
C27 C 0.8751(3) 1.1059(4) 0.70817(12)
H20 H 0.8487 1.0254 0.7180
C28 C 0.6675(3) 0.8679(3) 0.89361(11)
C29 C 0.6016(3) 0.7490(4) 0.90946(12)
H21 H 0.6163 0.6755 0.8892
H22 H 0.5216 0.7677 0.9068
C30 C 0.6353(3) 0.7134(4) 0.96059(12)
H23 H 0.5926 0.6370 0.9704
C31 C 0.6103(4) 0.8300(4) 0.99145(13)
H24 H 0.5304 0.8495 0.9889
H25 H 0.6300 0.8090 1.0240
C32 C 0.6763(3) 0.9475(4) 0.97685(12)
H26 H 0.6599 1.0214 0.9973
C33 C 0.8012(3) 0.9180(4) 0.98049(14)
H27 H 0.8433 0.9936 0.9707
H28 H 0.8240 0.8983 1.0128
C34 C 0.8261(3) 0.8029(4) 0.94960(14)
H29 H 0.9068 0.7832 0.9525
C35 C 0.7943(3) 0.8360(4) 0.89905(13)
H30 H 0.8115 0.7626 0.8791
H31 H 0.8378 0.9105 0.8893
C36 C 0.6435(3) 0.9828(3) 0.92597(12)
H32 H 0.6860 1.0586 0.9166
H33 H 0.5640 1.0046 0.9233
C37 C 0.7602(4) 0.6843(4) 0.96381(15)
H34 H 0.7827 0.6597 0.9957
H35 H 0.7765 0.6116 0.9434
O3 O 0.7826(3) 0.7218(4) 0.69922(15)
O4 O 0.6769(4) 0.5472(4) 0.69473(15)
C38 C 0.7352(5) 0.6306(5) 0.71975(19)
C39 C 0.7572(5) 0.5982(5) 0.76715(19)
H36 H 0.7962 0.6691 0.7828
H37 H 0.8031 0.5210 0.7692
H38 H 0.6875 0.5823 0.7819
C40 C 0.6524(7) 0.5966(9) 0.6464(2)
H39 H 0.6961 0.6739 0.6397
H40 H 0.5729 0.6146 0.6405
C41 C 0.6904(4) 0.4793(6) 0.6193(2)
H41 H 0.7711 0.4781 0.6192
H42 H 0.6600 0.4839 0.5876
H43 H 0.6643 0.4010 0.6339
loop_
_geom_bond_atom_site_label_1
_geom_bond_atom_site_label_2
_geom_bond_site_symmetry_1
_geom_bond_site_symmetry_2
Br1 C3 1_555 1_555
O1 C1 1_555 1_555
O2 C8 1_555 1_555
O3 C38 1_555 1_555
O4 C38 1_555 1_555
N1 H1 1_555 1_555
N2 H2 1_555 1_555
C1 N1 1_555 1_555
C2 C1 1_555 1_555
C3 C2 1_555 1_555
C4 C3 1_555 1_555
H3 C4 1_555 1_555
C5 C4 1_555 1_555
H4 C5 1_555 1_555
C6 N2 1_555 1_555
C7 C2 1_555 1_555
H5 C7 1_555 1_555
C8 N2 1_555 1_555
C9 N1 1_555 1_555
C10 C9 1_555 1_555
C11 C10 1_555 1_555
H6 C11 1_555 1_555
C12 C11 1_555 1_555
H7 C12 1_555 1_555
C13 C12 1_555 1_555
H8 C13 1_555 1_555
C14 C13 1_555 1_555
H9 C14 1_555 1_555
C15 C10 1_555 1_555
H10 C15 1_555 1_555
C16 C9 1_555 1_555
C17 C16 1_555 1_555
H11 C17 1_555 1_555
C18 C17 1_555 1_555
H12 C18 1_555 1_555
C19 C18 1_555 1_555
H13 C19 1_555 1_555
C20 C19 1_555 1_555
H14 C20 1_555 1_555
C21 C16 1_555 1_555
H15 C21 1_555 1_555
C22 C9 1_555 1_555
C23 C22 1_555 1_555
H16 C23 1_555 1_555
C24 C23 1_555 1_555
H17 C24 1_555 1_555
C25 C24 1_555 1_555
H18 C25 1_555 1_555
C26 C25 1_555 1_555
H19 C26 1_555 1_555
C27 C22 1_555 1_555
H20 C27 1_555 1_555
C28 C8 1_555 1_555
C29 C28 1_555 1_555
H21 C29 1_555 1_555
H22 C29 1_555 1_555
C30 C29 1_555 1_555
H23 C30 1_555 1_555
C31 C30 1_555 1_555
H24 C31 1_555 1_555
H25 C31 1_555 1_555
C32 C31 1_555 1_555
H26 C32 1_555 1_555
C33 C32 1_555 1_555
H27 C33 1_555 1_555
H28 C33 1_555 1_555
C34 C33 1_555 1_555
H29 C34 1_555 1_555
C35 C28 1_555 1_555
H30 C35 1_555 1_555
H31 C35 1_555 1_555
C36 C28 1_555 1_555
H32 C36 1_555 1_555
H33 C36 1_555 1_555
C37 C30 1_555 1_555
H34 C37 1_555 1_555
H35 C37 1_555 1_555
C38 C39 1_555 1_555
C39 H36 1_555 1_555
H37 C39 1_555 1_555
H38 C39 1_555 1_555
C40 O4 1_555 1_555
H39 C40 1_555 1_555
H40 C40 1_555 1_555
C41 C40 1_555 1_555
H41 C41 1_555 1_555
H42 C41 1_555 1_555
H43 C41 1_555 1_555
C5 C6 1_555 1_555
C6 C7 1_555 1_555
C14 C15 1_555 1_555
C20 C21 1_555 1_555
C26 C27 1_555 1_555
C32 C36 1_555 1_555
C34 C35 1_555 1_555
C34 C37 1_555 1_555

#END
