
#######################################################################
#
#                 Cambridge Crystallographic Data Centre
#                                CCDC 
#
#######################################################################
#
# If this CIF has been generated from an entry in the Cambridge 
# Structural Database, then it will include bibliographic, chemical, 
# crystal, experimental, refinement or atomic coordinate data resulting 
# from the CCDC's data processing and validation procedures.
#
#######################################################################

data_HORDAU
_chemical_formula_moiety         'C26 H21 Br1 N2 O1,C1 H1 Cl3'
_chemical_name_systematic        
'5-Amino-2-bromo-N-tritylbenzamide chloroform solvate'
_symmetry_cell_setting           monoclinic
_symmetry_space_group_name_H-M   'P 21/c'
_symmetry_Int_Tables_number      14
_space_group_name_Hall           '-P 2ybc'
loop_
_symmetry_equiv_pos_site_id
_symmetry_equiv_pos_as_xyz
1 x,y,z
2 -x,1/2+y,1/2-z
3 -x,-y,-z
4 x,1/2-y,1/2+z
_cell_length_a                   13.101(7)
_cell_length_b                   10.531(6)
_cell_length_c                   19.954(10)
_cell_angle_alpha                90
_cell_angle_beta                 103.860(7)
_cell_angle_gamma                90
_cell_volume                     2672.83
_exptl_crystal_colour            colorless
_exptl_crystal_description       block
_chemical_melting_point          '184-185 deg.C'
_cell_formula_units_Z            4
_exptl_crystal_recrystallization_method chloroform
loop_
_atom_site_label
_atom_site_type_symbol
_atom_site_fract_x
_atom_site_fract_y
_atom_site_fract_z
Br1 Br 0.36713(5) 0.28740(7) 0.15383(4)
C1 C 0.2367(4) 0.2852(6) 0.0849(3)
C2 C 0.2151(5) 0.3907(6) 0.0430(3)
H1 H 0.2601 0.4602 0.0516
C3 C 0.1285(6) 0.3944(7) -0.0107(3)
H2 H 0.1158 0.4663 -0.0385
C4 C 0.0588(5) 0.2927(6) -0.0249(3)
C5 C 0.0793(5) 0.1889(6) 0.0194(3)
H3 H 0.0326 0.1210 0.0118
C6 C 0.1672(4) 0.1829(5) 0.0750(3)
C7 C 0.1704(4) 0.0683(6) 0.1206(3)
C8 C 0.2168(4) -0.0087(5) 0.2459(3)
C9 C 0.2811(4) 0.0589(6) 0.3111(3)
C10 C 0.2434(5) 0.1741(7) 0.3310(3)
H4 H 0.1815 0.2084 0.3042
C11 C 0.2966(6) 0.2376(7) 0.3897(4)
H5 H 0.2714 0.3147 0.4020
C12 C 0.3878(6) 0.1852(9) 0.4301(4)
H6 H 0.4244 0.2274 0.4695
C13 C 0.4243(6) 0.0703(9) 0.4119(4)
H7 H 0.4850 0.0353 0.4396
C14 C 0.3719(5) 0.0066(7) 0.3531(3)
H8 H 0.3972 -0.0709 0.3416
C15 C 0.2772(4) -0.1227(6) 0.2262(3)
C16 C 0.3699(5) -0.1011(7) 0.2044(3)
H9 H 0.3920 -0.0183 0.2000
C17 C 0.4288(5) -0.2015(8) 0.1894(3)
H10 H 0.4906 -0.1859 0.1757
C18 C 0.3959(6) -0.3242(8) 0.1947(4)
H11 H 0.4355 -0.3916 0.1845
C19 C 0.3046(6) -0.3475(7) 0.2149(4)
H12 H 0.2825 -0.4306 0.2184
C20 C 0.2452(5) -0.2468(6) 0.2302(4)
H13 H 0.1830 -0.2634 0.2433
C21 C 0.1095(4) -0.0418(5) 0.2598(3)
C22 C 0.1075(5) -0.1075(6) 0.3198(3)
H14 H 0.1705 -0.1355 0.3481
C23 C 0.0132(5) -0.1330(6) 0.3388(3)
H15 H 0.0137 -0.1770 0.3793
C24 C -0.0797(5) -0.0919(6) 0.2968(4)
H16 H -0.1429 -0.1075 0.3087
C25 C -0.0790(5) -0.0284(7) 0.2378(4)
H17 H -0.1422 -0.0011 0.2094
C26 C 0.0150(4) -0.0033(6) 0.2190(3)
H18 H 0.0135 0.0401 0.1782
N1 N 0.2035(3) 0.0888(4) 0.1896(2)
H19 H 0.2184 0.1659 0.2024
N2 N -0.0295(5) 0.2951(6) -0.0803(3)
H20 H -0.0722 0.2318 -0.0874
H21 H -0.0412 0.3599 -0.1073
O1 O 0.1389(3) -0.0358(4) 0.09640(19)
Cl1 Cl 0.3192(2) -0.2939(2) -0.01439(15)
Cl2 Cl 0.17647(18) -0.0912(3) -0.06745(12)
Cl3 Cl 0.37868(18) -0.0303(3) 0.02107(13)
C27 C 0.2779(5) -0.1415(8) -0.0004(4)
H22 H 0.2479 -0.1477 0.0401
loop_
_geom_bond_atom_site_label_1
_geom_bond_atom_site_label_2
_geom_bond_site_symmetry_1
_geom_bond_site_symmetry_2
Br1 C1 1_555 1_555
Cl1 C27 1_555 1_555
Cl2 C27 1_555 1_555
Cl3 C27 1_555 1_555
C1 C2 1_555 1_555
C2 H1 1_555 1_555
C3 C2 1_555 1_555
H2 C3 1_555 1_555
C4 C3 1_555 1_555
C5 C4 1_555 1_555
H3 C5 1_555 1_555
C6 C1 1_555 1_555
C7 C6 1_555 1_555
C8 C9 1_555 1_555
C9 C10 1_555 1_555
C10 H4 1_555 1_555
C11 C10 1_555 1_555
H5 C11 1_555 1_555
C12 C11 1_555 1_555
H6 C12 1_555 1_555
C13 C12 1_555 1_555
H7 C13 1_555 1_555
C14 C9 1_555 1_555
H8 C14 1_555 1_555
C15 C8 1_555 1_555
C16 C15 1_555 1_555
H9 C16 1_555 1_555
C17 C16 1_555 1_555
H10 C17 1_555 1_555
C18 C17 1_555 1_555
H11 C18 1_555 1_555
C19 C18 1_555 1_555
H12 C19 1_555 1_555
C20 C15 1_555 1_555
H13 C20 1_555 1_555
C21 C8 1_555 1_555
C22 C21 1_555 1_555
H14 C22 1_555 1_555
C23 C22 1_555 1_555
H15 C23 1_555 1_555
C24 C23 1_555 1_555
H16 C24 1_555 1_555
C25 C24 1_555 1_555
H17 C25 1_555 1_555
C26 C21 1_555 1_555
H18 C26 1_555 1_555
N1 C7 1_555 1_555
H19 N1 1_555 1_555
N2 C4 1_555 1_555
H20 N2 1_555 1_555
H21 N2 1_555 1_555
O1 C7 1_555 1_555
C27 H22 1_555 1_555
C5 C6 1_555 1_555
C8 N1 1_555 1_555
C13 C14 1_555 1_555
C19 C20 1_555 1_555
C25 C26 1_555 1_555

#END
