
#######################################################################
#
#                 Cambridge Crystallographic Data Centre
#                                CCDC 
#
#######################################################################
#
# If this CIF has been generated from an entry in the Cambridge 
# Structural Database, then it will include bibliographic, chemical, 
# crystal, experimental, refinement or atomic coordinate data resulting 
# from the CCDC's data processing and validation procedures.
#
#######################################################################

data_HORDOI
_chemical_formula_moiety         'C37 H35 Br1 N2 O2,C1 H1 Cl3'
_chemical_name_systematic        
'5-((1-Adamantylcarbonyl)amino)-2-bromo-N-tritylbenzamide chloroform solvate'
_symmetry_cell_setting           monoclinic
_symmetry_space_group_name_H-M   'P 21/c'
_symmetry_Int_Tables_number      14
_space_group_name_Hall           '-P 2ybc'
loop_
_symmetry_equiv_pos_site_id
_symmetry_equiv_pos_as_xyz
1 x,y,z
2 -x,1/2+y,1/2-z
3 -x,-y,-z
4 x,1/2-y,1/2+z
_cell_length_a                   11.3955(11)
_cell_length_b                   11.1852(11)
_cell_length_c                   27.326(3)
_cell_angle_alpha                90
_cell_angle_beta                 93.064(2)
_cell_angle_gamma                90
_cell_volume                     3478.02
_exptl_crystal_colour            colorless
_exptl_crystal_description       prismatic
_cell_formula_units_Z            4
_exptl_crystal_recrystallization_method chloroform
loop_
_atom_site_label
_atom_site_type_symbol
_atom_site_fract_x
_atom_site_fract_y
_atom_site_fract_z
Br1 Br -0.27064(4) 1.03217(5) 0.342750(18)
O1 O -0.1488(3) 0.7480(3) 0.32991(11)
O2 O 0.2758(3) 0.8631(4) 0.26585(19)
N1 N -0.0299(3) 0.8180(3) 0.39220(12)
H1 H 0.0096 0.8801 0.4016
N2 N 0.1883(3) 1.0328(3) 0.23992(14)
H2 H 0.1959 1.0945 0.2216
C1 C -0.0822(3) 0.8231(4) 0.34718(15)
C2 C -0.0508(3) 0.9315(4) 0.31843(14)
C3 C -0.1249(4) 1.0298(4) 0.31221(15)
C4 C -0.0945(4) 1.1259(4) 0.28402(16)
H3 H -0.1449 1.1911 0.2801
C5 C 0.0101(4) 1.1251(4) 0.26183(16)
H4 H 0.0316 1.1913 0.2438
C6 C 0.0849(4) 1.0273(4) 0.26569(15)
C7 C 0.0539(4) 0.9315(4) 0.29432(15)
H5 H 0.1038 0.8659 0.2975
C8 C 0.2777(4) 0.9521(4) 0.2406(2)
C9 C -0.0318(4) 0.7180(4) 0.42787(15)
C10 C -0.1453(4) 0.7187(4) 0.45562(15)
C11 C -0.2482(4) 0.7716(5) 0.43729(18)
H6 H -0.2495 0.8106 0.4072
C12 C -0.3492(5) 0.7673(6) 0.4632(2)
H7 H -0.4182 0.8021 0.4503
C13 C -0.3476(6) 0.7120(6) 0.5078(2)
H8 H -0.4152 0.7097 0.5254
C14 C -0.2473(5) 0.6605(5) 0.5262(2)
H9 H -0.2465 0.6219 0.5563
C15 C -0.1483(5) 0.6646(5) 0.50118(18)
H10 H -0.0801 0.6300 0.5150
C16 C 0.0727(4) 0.7421(4) 0.46467(16)
C17 C 0.0732(5) 0.8469(5) 0.49125(19)
H11 H 0.0108 0.8999 0.4867
C18 C 0.1654(6) 0.8747(6) 0.5247(2)
H12 H 0.1650 0.9460 0.5422
C19 C 0.2566(6) 0.7963(7) 0.5316(2)
H13 H 0.3190 0.8146 0.5536
C20 C 0.2563(5) 0.6903(6) 0.5061(2)
H14 H 0.3180 0.6364 0.5110
C21 C 0.1640(4) 0.6646(5) 0.47309(18)
H15 H 0.1640 0.5925 0.4561
C22 C -0.0155(4) 0.5992(4) 0.40047(15)
C23 C -0.0782(4) 0.4983(4) 0.41130(19)
H16 H -0.1358 0.5013 0.4341
C24 C -0.0540(5) 0.3910(5) 0.38743(19)
H17 H -0.0962 0.3227 0.3948
C25 C 0.0299(4) 0.3839(5) 0.35358(19)
H18 H 0.0462 0.3114 0.3387
C26 C 0.0892(4) 0.4846(5) 0.34200(19)
H19 H 0.1445 0.4818 0.3182
C27 C 0.0673(4) 0.5917(4) 0.36558(17)
H20 H 0.1093 0.6597 0.3577
C28 C 0.3781(4) 0.9757(4) 0.20860(18)
C29 C 0.3799(5) 1.0946(6) 0.1842(3)
H21 H 0.3851 1.1566 0.2091
H22 H 0.3068 1.1058 0.1649
C30 C 0.4853(5) 1.1082(7) 0.1501(3)
H23 H 0.4847 1.1856 0.1333
C31 C 0.4788(7) 1.0055(8) 0.1148(3)
H24 H 0.4050 1.0103 0.0955
H25 H 0.5418 1.0135 0.0925
C32 C 0.4870(6) 0.8895(7) 0.1375(3)
H26 H 0.4850 0.8274 0.1122
C33 C 0.5951(5) 0.8738(6) 0.1712(3)
H27 H 0.5929 0.7963 0.1872
H28 H 0.6649 0.8770 0.1525
C34 C 0.5997(5) 0.9681(6) 0.2081(3)
H29 H 0.6714 0.9583 0.2291
C35 C 0.4943(5) 0.9547(6) 0.2389(2)
H30 H 0.5003 1.0115 0.2657
H31 H 0.4940 0.8749 0.2528
C36 C 0.3776(5) 0.8779(7) 0.1684(2)
H32 H 0.3769 0.7996 0.1836
H33 H 0.3070 0.8855 0.1472
C37 C 0.5994(6) 1.0913(6) 0.1859(3)
H34 H 0.6695 1.1022 0.1677
H35 H 0.5999 1.1510 0.2116
Cl1 Cl 0.2094(3) 1.0864(3) 0.39452(14)
Cl2 Cl 0.3084(2) 0.8590(2) 0.40060(14)
Cl3 Cl 0.4590(3) 1.0532(3) 0.3971(2)
C38 C 0.3248(8) 0.9943(8) 0.3832(6)
H36 H 0.3217 0.9884 0.3474
loop_
_geom_bond_atom_site_label_1
_geom_bond_atom_site_label_2
_geom_bond_site_symmetry_1
_geom_bond_site_symmetry_2
Br1 C3 1_555 1_555
O1 C1 1_555 1_555
O2 C8 1_555 1_555
N1 H1 1_555 1_555
N2 H2 1_555 1_555
C1 N1 1_555 1_555
C2 C1 1_555 1_555
C3 C2 1_555 1_555
C4 C3 1_555 1_555
H3 C4 1_555 1_555
C5 C4 1_555 1_555
H4 C5 1_555 1_555
C6 N2 1_555 1_555
C7 C2 1_555 1_555
H5 C7 1_555 1_555
C8 N2 1_555 1_555
C9 N1 1_555 1_555
C10 C9 1_555 1_555
C11 C10 1_555 1_555
H6 C11 1_555 1_555
C12 C11 1_555 1_555
H7 C12 1_555 1_555
C13 C12 1_555 1_555
H8 C13 1_555 1_555
C14 C13 1_555 1_555
H9 C14 1_555 1_555
C15 C10 1_555 1_555
H10 C15 1_555 1_555
C16 C9 1_555 1_555
C17 C16 1_555 1_555
H11 C17 1_555 1_555
C18 C17 1_555 1_555
H12 C18 1_555 1_555
C19 C18 1_555 1_555
H13 C19 1_555 1_555
C20 C19 1_555 1_555
H14 C20 1_555 1_555
C21 C16 1_555 1_555
H15 C21 1_555 1_555
C22 C9 1_555 1_555
C23 C22 1_555 1_555
H16 C23 1_555 1_555
C24 C23 1_555 1_555
H17 C24 1_555 1_555
C25 C24 1_555 1_555
H18 C25 1_555 1_555
C26 C25 1_555 1_555
H19 C26 1_555 1_555
C27 C22 1_555 1_555
H20 C27 1_555 1_555
C28 C8 1_555 1_555
C29 C28 1_555 1_555
H21 C29 1_555 1_555
H22 C29 1_555 1_555
C30 C29 1_555 1_555
H23 C30 1_555 1_555
C31 C30 1_555 1_555
H24 C31 1_555 1_555
H25 C31 1_555 1_555
C32 C31 1_555 1_555
H26 C32 1_555 1_555
C33 C32 1_555 1_555
H27 C33 1_555 1_555
H28 C33 1_555 1_555
C34 C33 1_555 1_555
H29 C34 1_555 1_555
C35 C28 1_555 1_555
H30 C35 1_555 1_555
H31 C35 1_555 1_555
C36 C28 1_555 1_555
H32 C36 1_555 1_555
H33 C36 1_555 1_555
C37 C30 1_555 1_555
H34 C37 1_555 1_555
H35 C37 1_555 1_555
Cl1 C38 1_555 1_555
Cl2 C38 1_555 1_555
Cl3 C38 1_555 1_555
C38 H36 1_555 1_555
C5 C6 1_555 1_555
C6 C7 1_555 1_555
C14 C15 1_555 1_555
C20 C21 1_555 1_555
C26 C27 1_555 1_555
C32 C36 1_555 1_555
C34 C35 1_555 1_555
C34 C37 1_555 1_555

#END
