
#######################################################################
#
#                 Cambridge Crystallographic Data Centre
#                                CCDC 
#
#######################################################################
#
# If this CIF has been generated from an entry in the Cambridge 
# Structural Database, then it will include bibliographic, chemical, 
# crystal, experimental, refinement or atomic coordinate data resulting 
# from the CCDC's data processing and validation procedures.
#
#######################################################################

data_HORFEA
_chemical_formula_moiety         'C26 H19 I1 N2 O3'
_chemical_name_systematic        2-Iodo-5-nitro-N-tritylbenzamide
_symmetry_cell_setting           triclinic
_symmetry_space_group_name_H-M   'P -1'
_symmetry_Int_Tables_number      2
_space_group_name_Hall           '-P 1'
loop_
_symmetry_equiv_pos_site_id
_symmetry_equiv_pos_as_xyz
1 x,y,z
2 -x,-y,-z
_cell_length_a                   8.4506(9)
_cell_length_b                   9.3577(10)
_cell_length_c                   15.3062(16)
_cell_angle_alpha                92.232(1)
_cell_angle_beta                 95.942(1)
_cell_angle_gamma                111.294(1)
_cell_volume                     1117.86
_exptl_crystal_colour            colorless
_exptl_crystal_description       block
_chemical_melting_point          '256-258 deg.C'
_cell_formula_units_Z            2
loop_
_atom_site_label
_atom_site_type_symbol
_atom_site_fract_x
_atom_site_fract_y
_atom_site_fract_z
I1 I -0.25052(3) 0.53049(3) 0.470878(15)
C1 C -0.0384(4) 0.7320(3) 0.4624(2)
C2 C 0.0083(4) 0.7683(4) 0.3794(2)
H1 H -0.0595 0.7083 0.3297
C3 C 0.1536(4) 0.8918(4) 0.3700(2)
H2 H 0.1853 0.9159 0.3145
C4 C 0.2511(4) 0.9790(4) 0.4442(2)
C5 C 0.2065(4) 0.9483(3) 0.5278(2)
H3 H 0.2735 1.0109 0.5769
C6 C 0.0606(4) 0.8229(3) 0.53733(19)
C7 C 0.0081(4) 0.7933(3) 0.62848(18)
C8 C 0.1131(3) 0.7681(3) 0.78246(18)
C9 C -0.0350(4) 0.6224(3) 0.80206(19)
C10 C -0.1315(4) 0.5081(3) 0.7373(2)
H4 H -0.1123 0.5209 0.6788
C11 C -0.2569(4) 0.3743(4) 0.7583(2)
H5 H -0.3224 0.2993 0.7138
C12 C -0.2845(4) 0.3523(4) 0.8446(3)
H6 H -0.3673 0.2621 0.8586
C13 C -0.1890(4) 0.4646(4) 0.9099(2)
H7 H -0.2080 0.4505 0.9683
C14 C -0.0644(4) 0.5988(4) 0.8891(2)
H8 H 0.0000 0.6737 0.9338
C15 C 0.0979(4) 0.9208(3) 0.81362(18)
C16 C -0.0443(4) 0.9298(4) 0.8464(2)
H9 H -0.1370 0.8401 0.8515
C17 C -0.0506(5) 1.0717(5) 0.8718(2)
H10 H -0.1472 1.0760 0.8942
C18 C 0.0847(6) 1.2058(4) 0.8643(2)
H11 H 0.0804 1.3005 0.8818
C19 C 0.2254(5) 1.1983(4) 0.8307(3)
H12 H 0.3172 1.2884 0.8250
C20 C 0.2322(4) 1.0576(4) 0.8052(2)
H13 H 0.3284 1.0544 0.7819
C21 C 0.2772(3) 0.7535(3) 0.82867(18)
C22 C 0.3459(4) 0.8217(4) 0.9131(2)
H14 H 0.2990 0.8852 0.9400
C23 C 0.4833(4) 0.7966(4) 0.9578(2)
H15 H 0.5281 0.8434 1.0143
C24 C 0.5535(4) 0.7030(4) 0.9192(2)
H16 H 0.6448 0.6851 0.9496
C25 C 0.4885(4) 0.6356(4) 0.8352(2)
H17 H 0.5379 0.5743 0.8083
C26 C 0.3495(4) 0.6587(4) 0.7905(2)
H18 H 0.3042 0.6102 0.7344
N1 N 0.1275(3) 0.7724(3) 0.68692(15)
H19 H 0.2150 0.7611 0.6679
N2 N 0.4107(4) 1.1081(4) 0.4359(2)
O1 O -0.1295(3) 0.7911(2) 0.64593(13)
O2 O 0.4812(4) 1.1971(3) 0.5002(2)
O3 O 0.4671(3) 1.1172(4) 0.3647(2)
loop_
_geom_bond_atom_site_label_1
_geom_bond_atom_site_label_2
_geom_bond_site_symmetry_1
_geom_bond_site_symmetry_2
I1 C1 1_555 1_555
C1 C2 1_555 1_555
C2 H1 1_555 1_555
C3 C2 1_555 1_555
H2 C3 1_555 1_555
C4 C3 1_555 1_555
C5 C4 1_555 1_555
H3 C5 1_555 1_555
C6 C1 1_555 1_555
C7 C6 1_555 1_555
C8 C9 1_555 1_555
C9 C10 1_555 1_555
C10 H4 1_555 1_555
C11 C10 1_555 1_555
H5 C11 1_555 1_555
C12 C11 1_555 1_555
H6 C12 1_555 1_555
C13 C12 1_555 1_555
H7 C13 1_555 1_555
C14 C9 1_555 1_555
H8 C14 1_555 1_555
C15 C8 1_555 1_555
C16 C15 1_555 1_555
H9 C16 1_555 1_555
C17 C16 1_555 1_555
H10 C17 1_555 1_555
C18 C17 1_555 1_555
H11 C18 1_555 1_555
C19 C18 1_555 1_555
H12 C19 1_555 1_555
C20 C15 1_555 1_555
H13 C20 1_555 1_555
C21 C8 1_555 1_555
C22 C21 1_555 1_555
H14 C22 1_555 1_555
C23 C22 1_555 1_555
H15 C23 1_555 1_555
C24 C23 1_555 1_555
H16 C24 1_555 1_555
C25 C24 1_555 1_555
H17 C25 1_555 1_555
C26 C21 1_555 1_555
H18 C26 1_555 1_555
N1 C7 1_555 1_555
H19 N1 1_555 1_555
N2 C4 1_555 1_555
O1 C7 1_555 1_555
O2 N2 1_555 1_555
O3 N2 1_555 1_555
C5 C6 1_555 1_555
C8 N1 1_555 1_555
C13 C14 1_555 1_555
C19 C20 1_555 1_555
C25 C26 1_555 1_555

#END
