
#######################################################################
#
#                 Cambridge Crystallographic Data Centre
#                                CCDC 
#
#######################################################################
#
# If this CIF has been generated from an entry in the Cambridge 
# Structural Database, then it will include bibliographic, chemical, 
# crystal, experimental, refinement or atomic coordinate data resulting 
# from the CCDC's data processing and validation procedures.
#
#######################################################################

data_HORFAW
_chemical_formula_moiety         'C26 H19 Br1 N2 O3'
_chemical_name_systematic        2-Bromo-5-nitro-N-tritylbenzamide
_symmetry_cell_setting           triclinic
_symmetry_space_group_name_H-M   'P -1'
_symmetry_Int_Tables_number      2
_space_group_name_Hall           '-P 1'
loop_
_symmetry_equiv_pos_site_id
_symmetry_equiv_pos_as_xyz
1 x,y,z
2 -x,-y,-z
_cell_length_a                   8.292(2)
_cell_length_b                   9.416(3)
_cell_length_c                   15.730(4)
_cell_angle_alpha                77.792(3)
_cell_angle_beta                 85.614(3)
_cell_angle_gamma                65.372(3)
_cell_volume                     1091.1
_exptl_crystal_colour            colorless
_exptl_crystal_description       block
_chemical_melting_point          '242-243 deg.C'
_cell_formula_units_Z            2
loop_
_atom_site_label
_atom_site_type_symbol
_atom_site_fract_x
_atom_site_fract_y
_atom_site_fract_z
Br1 Br 0.07996(4) 0.67073(3) 0.510180(19)
C1 C 0.2794(3) 0.4777(3) 0.50577(16)
C2 C 0.3658(4) 0.4558(3) 0.42808(16)
H1 H 0.3281 0.5368 0.3790
C3 C 0.5072(4) 0.3147(3) 0.42320(17)
H2 H 0.5681 0.2991 0.3715
C4 C 0.5567(3) 0.1967(3) 0.49674(18)
C5 C 0.4737(4) 0.2162(3) 0.57525(17)
H3 H 0.5118 0.1340 0.6238
C6 C 0.3332(3) 0.3592(3) 0.58117(15)
C7 C 0.2511(3) 0.3865(3) 0.66840(15)
C8 C 0.0843(3) 0.2777(3) 0.78876(15)
C9 C -0.1006(3) 0.4162(3) 0.79001(15)
C10 C -0.1276(4) 0.5727(3) 0.75407(18)
H4 H -0.0337 0.5943 0.7280
C11 C -0.2919(4) 0.6961(3) 0.7565(2)
H5 H -0.3068 0.7999 0.7322
C12 C -0.4338(4) 0.6690(4) 0.79423(18)
H6 H -0.5440 0.7532 0.7959
C13 C -0.4102(4) 0.5161(4) 0.8292(2)
H7 H -0.5056 0.4954 0.8541
C14 C -0.2446(4) 0.3909(4) 0.82792(19)
H8 H -0.2304 0.2877 0.8532
C15 C 0.0674(3) 0.1161(3) 0.80600(16)
C16 C 0.0042(4) 0.0715(4) 0.74151(18)
H9 H -0.0300 0.1399 0.6877
C17 C -0.0084(6) -0.0738(4) 0.7564(2)
H10 H -0.0470 -0.1038 0.7119
C18 C 0.0353(5) -0.1736(4) 0.8359(2)
H11 H 0.0260 -0.2708 0.8457
C19 C 0.0929(4) -0.1296(4) 0.9010(2)
H12 H 0.1207 -0.1962 0.9556
C20 C 0.1098(4) 0.0137(3) 0.88621(17)
H13 H 0.1504 0.0416 0.9309
C21 C 0.2146(3) 0.2706(3) 0.85587(15)
C22 C 0.1597(4) 0.3528(3) 0.92282(17)
H14 H 0.0410 0.4211 0.9262
C23 C 0.2799(4) 0.3348(4) 0.98543(19)
H15 H 0.2410 0.3915 1.0302
C24 C 0.4557(4) 0.2340(4) 0.98174(19)
H16 H 0.5359 0.2226 1.0236
C25 C 0.5119(4) 0.1503(3) 0.91584(19)
H17 H 0.6306 0.0813 0.9132
C26 C 0.3930(4) 0.1680(3) 0.85327(18)
H18 H 0.4326 0.1106 0.8088
N1 N 0.1631(3) 0.2939(2) 0.70074(13)
H19 H 0.1514 0.2384 0.6667
N2 N 0.7031(4) 0.0426(3) 0.4920(2)
O1 O 0.2714(3) 0.4799(2) 0.70459(12)
O2 O 0.7610(4) -0.0525(3) 0.55890(19)
O3 O 0.7560(4) 0.0140(3) 0.42080(18)
loop_
_geom_bond_atom_site_label_1
_geom_bond_atom_site_label_2
_geom_bond_site_symmetry_1
_geom_bond_site_symmetry_2
Br1 C1 1_555 1_555
C1 C2 1_555 1_555
C2 H1 1_555 1_555
C3 C2 1_555 1_555
H2 C3 1_555 1_555
C4 C3 1_555 1_555
C5 C4 1_555 1_555
H3 C5 1_555 1_555
C6 C1 1_555 1_555
C7 C6 1_555 1_555
C8 C9 1_555 1_555
C9 C10 1_555 1_555
C10 H4 1_555 1_555
C11 C10 1_555 1_555
H5 C11 1_555 1_555
C12 C11 1_555 1_555
H6 C12 1_555 1_555
C13 C12 1_555 1_555
H7 C13 1_555 1_555
C14 C9 1_555 1_555
H8 C14 1_555 1_555
C15 C8 1_555 1_555
C16 C15 1_555 1_555
H9 C16 1_555 1_555
C17 C16 1_555 1_555
H10 C17 1_555 1_555
C18 C17 1_555 1_555
H11 C18 1_555 1_555
C19 C18 1_555 1_555
H12 C19 1_555 1_555
C20 C15 1_555 1_555
H13 C20 1_555 1_555
C21 C8 1_555 1_555
C22 C21 1_555 1_555
H14 C22 1_555 1_555
C23 C22 1_555 1_555
H15 C23 1_555 1_555
C24 C23 1_555 1_555
H16 C24 1_555 1_555
C25 C24 1_555 1_555
H17 C25 1_555 1_555
C26 C21 1_555 1_555
H18 C26 1_555 1_555
N1 C7 1_555 1_555
H19 N1 1_555 1_555
N2 C4 1_555 1_555
O1 C7 1_555 1_555
O2 N2 1_555 1_555
O3 N2 1_555 1_555
C5 C6 1_555 1_555
C8 N1 1_555 1_555
C13 C14 1_555 1_555
C19 C20 1_555 1_555
C25 C26 1_555 1_555

#END
