
#######################################################################
#
#                 Cambridge Crystallographic Data Centre
#                                CCDC 
#
#######################################################################
#
# If this CIF has been generated from an entry in the Cambridge 
# Structural Database, then it will include bibliographic, chemical, 
# crystal, experimental, refinement or atomic coordinate data resulting 
# from the CCDC's data processing and validation procedures.
#
#######################################################################

data_HORJUU
_chemical_formula_moiety         'C23 H28 N4 O5'
_chemical_name_systematic        
't-Butyl 2-(1-(2-(methylcarbamoyl)phenylamino)-1-oxopropan-2-ylcarbamoyl)phenylcarbamate'
_symmetry_cell_setting           monoclinic
_symmetry_space_group_name_H-M   'P 21/n'
_symmetry_Int_Tables_number      14
_space_group_name_Hall           '-P 2yn'
loop_
_symmetry_equiv_pos_site_id
_symmetry_equiv_pos_as_xyz
1 x,y,z
2 1/2-x,1/2+y,1/2-z
3 -x,-y,-z
4 1/2+x,1/2-y,1/2+z
_cell_length_a                   15.2190(10)
_cell_length_b                   9.4069(6)
_cell_length_c                   16.2675(11)
_cell_angle_alpha                90
_cell_angle_beta                 101.4400(10)
_cell_angle_gamma                90
_cell_volume                     2282.65
_exptl_crystal_colour            colorless
_exptl_crystal_description       needle
_chemical_melting_point          '185-186 deg.C'
_cell_formula_units_Z            4
_exptl_crystal_recrystallization_method 'ethyl acetate/petroleum ether'
loop_
_atom_site_label
_atom_site_type_symbol
_atom_site_fract_x
_atom_site_fract_y
_atom_site_fract_z
O1 O 0.19061(8) 0.60714(13) 1.03848(7)
O2 O 0.06910(9) 0.75057(16) 1.03094(8)
O3 O 0.25648(8) 0.67311(12) 0.81720(7)
O4 O 0.52018(8) 0.88765(16) 0.79580(8)
O5 O 0.27360(8) 1.07474(16) 0.91201(8)
N1 N 0.14961(9) 0.73650(16) 0.92620(9)
H1 H 0.1974 0.6977 0.9157
N2 N 0.27808(9) 0.86768(14) 0.74272(8)
H2 H 0.2555 0.9455 0.7200
N3 N 0.41055(9) 1.01662(16) 0.83822(8)
H3 H 0.3533 1.0254 0.8305
N4 N 0.31622(11) 1.10555(18) 1.05083(10)
H4 H 0.3568 1.1350 1.0918
C1 C 0.12939(11) 0.70318(19) 1.00154(10)
C2 C 0.10325(10) 0.82533(17) 0.86346(10)
C3 C 0.02395(12) 0.8948(2) 0.87075(13)
H5 H 0.0011 0.8846 0.9194
C4 C -0.02044(12) 0.9784(2) 0.80611(14)
H6 H -0.0728 1.0248 0.8118
C5 C 0.01147(12) 0.9941(2) 0.73346(14)
H7 H -0.0202 1.0481 0.6895
C6 C 0.09076(11) 0.92933(19) 0.72621(11)
H8 H 0.1126 0.9410 0.6772
C7 C 0.13882(10) 0.84676(17) 0.79074(10)
C8 C 0.22818(11) 0.78760(17) 0.78409(9)
C9 C 0.36859(11) 0.82933(18) 0.73442(10)
H9 H 0.3774 0.7291 0.7503
C10 C 0.38073(14) 0.8426(2) 0.64430(12)
H10 H 0.3716 0.9396 0.6264
H11 H 0.3380 0.7829 0.6089
H12 H 0.4403 0.8136 0.6407
C11 C 0.44082(12) 0.91469(19) 0.79271(10)
C12 C 0.46070(11) 1.11084(18) 0.89691(11)
C13 C 0.54492(12) 1.1582(2) 0.88949(13)
H13 H 0.5704 1.1267 0.8454
C14 C 0.59102(15) 1.2524(2) 0.94771(15)
H14 H 0.6481 1.2821 0.9430
C15 C 0.55417(15) 1.3026(2) 1.01206(15)
H15 H 0.5857 1.3663 1.0508
C16 C 0.46992(14) 1.2579(2) 1.01892(13)
H16 H 0.4443 1.2939 1.0619
C17 C 0.42205(12) 1.16033(19) 0.96325(11)
C18 C 0.23216(15) 1.0516(3) 1.06746(14)
H17 H 0.2393 0.9537 1.0840
H18 H 0.1865 1.0596 1.0177
H19 H 0.2151 1.1060 1.1117
C19 C 0.18310(12) 0.5392(2) 1.11825(10)
C20 C 0.26386(14) 0.4419(2) 1.13317(14)
H20 H 0.3175 0.4976 1.1385
H21 H 0.2600 0.3776 1.0867
H22 H 0.2653 0.3886 1.1838
C21 C 0.19014(18) 0.6499(3) 1.18667(13)
H23 H 0.1388 0.7113 1.1750
H24 H 0.2436 0.7051 1.1887
H25 H 0.1925 0.6037 1.2397
C22 C 0.09708(14) 0.4549(2) 1.10705(14)
H26 H 0.0934 0.3917 1.0602
H27 H 0.0469 0.5188 1.0969
H28 H 0.0962 0.4008 1.1569
C23 C 0.33164(12) 1.11012(19) 0.97276(12)
loop_
_geom_bond_atom_site_label_1
_geom_bond_atom_site_label_2
_geom_bond_site_symmetry_1
_geom_bond_site_symmetry_2
O1 C1 1_555 1_555
O2 C1 1_555 1_555
O3 C8 1_555 1_555
O4 C11 1_555 1_555
O5 C23 1_555 1_555
N1 H1 1_555 1_555
N2 H2 1_555 1_555
N3 H3 1_555 1_555
N4 H4 1_555 1_555
C1 N1 1_555 1_555
C2 N1 1_555 1_555
C3 C2 1_555 1_555
H5 C3 1_555 1_555
C4 C3 1_555 1_555
H6 C4 1_555 1_555
C5 C4 1_555 1_555
H7 C5 1_555 1_555
C6 C5 1_555 1_555
H8 C6 1_555 1_555
C7 C2 1_555 1_555
C8 N2 1_555 1_555
C9 N2 1_555 1_555
H9 C9 1_555 1_555
C10 C9 1_555 1_555
H10 C10 1_555 1_555
H11 C10 1_555 1_555
H12 C10 1_555 1_555
C11 N3 1_555 1_555
C12 N3 1_555 1_555
C13 C12 1_555 1_555
H13 C13 1_555 1_555
C14 C13 1_555 1_555
H14 C14 1_555 1_555
C15 C14 1_555 1_555
H15 C15 1_555 1_555
C16 C15 1_555 1_555
H16 C16 1_555 1_555
C17 C12 1_555 1_555
C18 N4 1_555 1_555
H17 C18 1_555 1_555
H18 C18 1_555 1_555
H19 C18 1_555 1_555
C19 O1 1_555 1_555
C20 C19 1_555 1_555
H20 C20 1_555 1_555
H21 C20 1_555 1_555
H22 C20 1_555 1_555
C21 C19 1_555 1_555
H23 C21 1_555 1_555
H24 C21 1_555 1_555
H25 C21 1_555 1_555
C22 C19 1_555 1_555
H26 C22 1_555 1_555
H27 C22 1_555 1_555
H28 C22 1_555 1_555
C23 N4 1_555 1_555
C6 C7 1_555 1_555
C7 C8 1_555 1_555
C9 C11 1_555 1_555
C16 C17 1_555 1_555
C17 C23 1_555 1_555

#END
