
#######################################################################
#
#                 Cambridge Crystallographic Data Centre
#                                CCDC 
#
#######################################################################
#
# If this CIF has been generated from an entry in the Cambridge 
# Structural Database, then it will include bibliographic, chemical, 
# crystal, experimental, refinement or atomic coordinate data resulting 
# from the CCDC's data processing and validation procedures.
#
#######################################################################

data_HORLAD
_chemical_formula_moiety         'C21 H17 N3 O1,2(H2 O1)'
_chemical_name_systematic        
'2-((2-(1-methyl-1H-benzimidazol-2-yl)phenyl)carbonoimidoyl)phenol dihydrate'
_symmetry_cell_setting           triclinic
_symmetry_space_group_name_H-M   'P -1'
_symmetry_Int_Tables_number      2
_space_group_name_Hall           '-P 1'
loop_
_symmetry_equiv_pos_site_id
_symmetry_equiv_pos_as_xyz
1 x,y,z
2 -x,-y,-z
_cell_length_a                   5.5526(11)
_cell_length_b                   10.809(2)
_cell_length_c                   16.095(3)
_cell_angle_alpha                93.298(10)
_cell_angle_beta                 91.208(9)
_cell_angle_gamma                98.123(10)
_cell_volume                     954.298
_cell_formula_units_Z            2
loop_
_atom_site_label
_atom_site_type_symbol
_atom_site_fract_x
_atom_site_fract_y
_atom_site_fract_z
C1 C -0.2310(5) 0.2483(2) 0.18726(17)
C2 C -0.4328(6) 0.1828(3) 0.1450(2)
H1 H -0.4765 0.2057 0.0926
C3 C -0.5688(6) 0.0845(3) 0.1795(2)
H2 H -0.7040 0.0409 0.1504
C4 C -0.5065(6) 0.0497(3) 0.2573(2)
H3 H -0.5997 -0.0168 0.2810
C5 C -0.3064(6) 0.1139(2) 0.2995(2)
H4 H -0.2650 0.0903 0.3520
C6 C -0.1630(5) 0.2141(2) 0.26553(16)
C7 C 0.0422(5) 0.2831(2) 0.31152(16)
H5 H 0.0828 0.2576 0.3636
C8 C 0.3723(4) 0.4439(2) 0.33018(14)
C9 C 0.5068(5) 0.3893(2) 0.38797(16)
H6 H 0.4647 0.3052 0.3979
C10 C 0.7026(5) 0.4592(3) 0.43069(18)
H7 H 0.7919 0.4219 0.4692
C11 C 0.7663(5) 0.5827(3) 0.41688(17)
H8 H 0.8980 0.6294 0.4462
C12 C 0.6364(5) 0.6378(2) 0.35992(16)
H9 H 0.6804 0.7222 0.3511
C13 C 0.4406(4) 0.5703(2) 0.31514(14)
C14 C 0.3031(4) 0.6331(2) 0.25488(14)
C15 C 0.0739(4) 0.7517(2) 0.20011(16)
C16 C -0.0831(5) 0.8366(3) 0.1834(2)
H10 H -0.1428 0.8843 0.2261
C17 C -0.1476(6) 0.8481(3) 0.1015(2)
H11 H -0.2544 0.9039 0.0891
C18 C -0.0586(6) 0.7794(3) 0.0375(2)
H12 H -0.1032 0.7916 -0.0172
C19 C 0.0939(5) 0.6937(3) 0.05232(17)
H13 H 0.1521 0.6464 0.0091
C20 C 0.1576(4) 0.6807(2) 0.13475(15)
C21 C 0.4516(5) 0.5239(2) 0.12709(16)
H14 H 0.3479 0.4586 0.0953
H15 H 0.5485 0.4874 0.1665
H16 H 0.5563 0.5718 0.0903
N1 N 0.1708(4) 0.37824(16) 0.28367(12)
N2 N 0.3036(3) 0.60515(17) 0.17115(12)
N3 N 0.1709(4) 0.72084(17) 0.27513(12)
O1 O -0.1076(4) 0.34601(18) 0.15150(11)
H17 H 0.0069 0.3777 0.1823
O2 O 0.2135(5) 0.8505(2) 0.43829(15)
H18 H 0.181(7) 0.817(3) 0.3884(13)
H19 H 0.363(4) 0.857(3) 0.453(2)
O3 O 0.2762(6) 0.1122(2) 0.49095(18)
H20 H 0.253(7) 0.0329(19) 0.470(2)
H21 H 0.144(5) 0.122(4) 0.517(2)
loop_
_geom_bond_atom_site_label_1
_geom_bond_atom_site_label_2
_geom_bond_site_symmetry_1
_geom_bond_site_symmetry_2
C1 C2 1_555 1_555
C2 H1 1_555 1_555
C3 C2 1_555 1_555
H2 C3 1_555 1_555
C4 C3 1_555 1_555
H3 C4 1_555 1_555
C5 C4 1_555 1_555
H4 C5 1_555 1_555
C6 C1 1_555 1_555
C7 C6 1_555 1_555
H5 C7 1_555 1_555
C8 C9 1_555 1_555
C9 H6 1_555 1_555
C10 C9 1_555 1_555
H7 C10 1_555 1_555
C11 C10 1_555 1_555
H8 C11 1_555 1_555
C12 C11 1_555 1_555
H9 C12 1_555 1_555
C13 C8 1_555 1_555
C14 C13 1_555 1_555
C15 C16 1_555 1_555
C16 H10 1_555 1_555
C17 C16 1_555 1_555
H11 C17 1_555 1_555
C18 C17 1_555 1_555
H12 C18 1_555 1_555
C19 C18 1_555 1_555
H13 C19 1_555 1_555
C20 C15 1_555 1_555
C21 H14 1_555 1_555
H15 C21 1_555 1_555
H16 C21 1_555 1_555
N1 C7 1_555 1_555
N2 C14 1_555 1_555
N3 C14 1_555 1_555
O1 C1 1_555 1_555
H17 O1 1_555 1_555
O2 H18 1_555 1_555
H19 O2 1_555 1_555
O3 H20 1_555 1_555
H21 O3 1_555 1_555
C5 C6 1_555 1_555
C8 N1 1_555 1_555
C12 C13 1_555 1_555
C15 N3 1_555 1_555
C19 C20 1_555 1_555
C20 N2 1_555 1_555
C21 N2 1_555 1_555

#END
