
#######################################################################
#
#                 Cambridge Crystallographic Data Centre
#                                CCDC 
#
#######################################################################
#
# If this CIF has been generated from an entry in the Cambridge 
# Structural Database, then it will include bibliographic, chemical, 
# crystal, experimental, refinement or atomic coordinate data resulting 
# from the CCDC's data processing and validation procedures.
#
#######################################################################

data_HORLUW
_chemical_formula_moiety         'C43 H62 N2 O8 Si2'
_chemical_name_systematic        
'Methyl 2-(1-(3-(benzyloxy)-9-(dimethylamino)-4a,5-bis(t-butyl(dimethyl)silyloxy)-4-oxo-4,4a,7,8,8a,9-hexahydronaphtho[2,3-d]isoxazol-7-yl)ethyl)-6-methoxybenzoate'
_symmetry_cell_setting           monoclinic
_symmetry_space_group_name_H-M   'P 21'
_symmetry_Int_Tables_number      4
_space_group_name_Hall           'P 2yb'
loop_
_symmetry_equiv_pos_site_id
_symmetry_equiv_pos_as_xyz
1 x,y,z
2 -x,1/2+y,-z
_cell_length_a                   13.116(3)
_cell_length_b                   11.381(2)
_cell_length_c                   15.075(3)
_cell_angle_alpha                90
_cell_angle_beta                 97.420(5)
_cell_angle_gamma                90
_cell_volume                     2231.45
_exptl_crystal_colour            colorless
_exptl_crystal_description       block
_chemical_melting_point          '146 deg.C'
_cell_formula_units_Z            2
_exptl_crystal_recrystallization_method hexanes
loop_
_atom_site_label
_atom_site_type_symbol
_atom_site_fract_x
_atom_site_fract_y
_atom_site_fract_z
Si1 Si 0.13018(7) -0.12218(9) 0.53580(7)
Si2 Si 0.42584(8) 0.16622(9) 0.64582(7)
O1 O 0.19586(17) -0.1534(2) 0.63395(15)
O2 O 0.33676(17) 0.0766(2) 0.67768(16)
O3 O 0.09439(19) 0.0359(2) 0.68748(17)
O4 O 0.10294(18) 0.2262(2) 0.84612(17)
C1 C 0.3429(3) -0.0412(3) 0.6973(2)
C2 C 0.2616(2) -0.1897(3) 0.7854(2)
H1 H 0.1947 -0.2296 0.7906
C3 C 0.2402(2) -0.0945(3) 0.7111(2)
C4 C 0.1665(3) -0.0001(3) 0.7381(2)
O5 O 0.2518(2) 0.0215(2) 0.97454(17)
C5 C 0.3338(3) -0.2824(3) 0.7546(2)
H2 H 0.2968 -0.3252 0.7030
H3 H 0.3508 -0.3398 0.8036
C6 C 0.1893(2) 0.0386(3) 0.8309(2)
C7 C 0.1598(3) 0.1364(3) 0.8812(3)
C8 C 0.6797(3) -0.1164(4) 0.8334(3)
N1 N 0.1935(3) 0.1286(3) 0.9665(2)
C9 C 0.4353(2) -0.2333(3) 0.7273(2)
H4 H 0.4474 -0.2759 0.6716
C10 C 0.2472(3) -0.0287(3) 0.8927(2)
C11 C 0.6266(3) -0.1961(3) 0.7749(2)
O6 O 0.8178(2) 0.0102(3) 0.8768(3)
C12 C 0.4278(3) -0.1049(3) 0.7036(2)
H5 H 0.4890 -0.0664 0.6922
C13 C 0.0426(3) 0.4248(3) 0.8549(2)
C14 C 0.3019(3) -0.1401(3) 0.8786(2)
H6 H 0.3761 -0.1202 0.8782
C15 C 0.0853(3) 0.4617(4) 0.7813(3)
H7 H 0.1387 0.4167 0.7610
C16 C 0.5306(3) -0.2583(3) 0.7979(2)
H8 H 0.5153 -0.2282 0.8571
N2 N 0.2967(3) -0.2312(3) 0.9473(2)
C17 C 0.5537(3) -0.3894(3) 0.8073(3)
H9 H 0.5694 -0.4206 0.7500
H10 H 0.4937 -0.4304 0.8249
H11 H 0.6129 -0.4016 0.8532
C18 C 0.0827(3) 0.3192(3) 0.9082(3)
H12 H 0.1467 0.3397 0.9473
H13 H 0.0313 0.2923 0.9464
C19 C 0.6663(3) -0.2212(4) 0.6964(3)
H14 H 0.6313 -0.2755 0.6553
C20 C 0.1830(3) -0.2315(4) 0.4589(3)
C21 C 0.6402(3) -0.0789(5) 0.9182(4)
C22 C -0.0087(3) -0.1508(4) 0.5403(3)
H15 H -0.0169 -0.2277 0.5676
H16 H -0.0457 -0.1499 0.4795
H17 H -0.0366 -0.0897 0.5762
C23 C 0.5481(3) 0.1596(4) 0.7226(3)
H18 H 0.5336 0.1388 0.7828
H19 H 0.5820 0.2364 0.7243
H20 H 0.5932 0.1001 0.7014
C24 C 0.7725(3) -0.0651(4) 0.8132(3)
C25 C -0.0369(3) 0.4902(4) 0.8809(3)
H21 H -0.0696 0.4655 0.9304
C26 C 0.0523(3) 0.5625(4) 0.7364(3)
H22 H 0.0843 0.5874 0.6866
C27 C 0.7543(3) -0.1695(5) 0.6767(3)
H23 H 0.7790 -0.1879 0.6218
C28 C -0.0248(4) 0.6265(4) 0.7624(3)
H24 H -0.0483 0.6953 0.7303
C29 C 0.8081(3) -0.0916(4) 0.7344(3)
H25 H 0.8694 -0.0564 0.7196
C30 C 0.4457(3) 0.1255(4) 0.5310(3)
H26 H 0.4650 0.0425 0.5295
H27 H 0.5007 0.1739 0.5119
H28 H 0.3819 0.1386 0.4906
C31 C 0.1716(4) -0.3571(4) 0.4939(3)
H29 H 0.0988 -0.3736 0.4971
H30 H 0.2106 -0.3646 0.5536
H31 H 0.1981 -0.4132 0.4531
C32 C 0.1236(4) -0.2237(5) 0.3652(3)
H32 H 0.1294 -0.1440 0.3418
H33 H 0.0510 -0.2421 0.3678
H34 H 0.1522 -0.2800 0.3258
C33 C 0.1503(3) 0.0289(4) 0.4933(3)
H35 H 0.1105 0.0852 0.5240
H36 H 0.1275 0.0318 0.4289
H37 H 0.2234 0.0490 0.5048
C34 C 0.4281(3) 0.4060(4) 0.6052(3)
H38 H 0.3988 0.4844 0.6113
H39 H 0.4258 0.3868 0.5416
H40 H 0.4996 0.4050 0.6337
C35 C 0.3644(3) 0.3495(4) 0.7485(3)
H41 H 0.4351 0.3524 0.7789
H42 H 0.3250 0.2913 0.7778
H43 H 0.3324 0.4270 0.7516
C36 C 0.3661(4) -0.2080(5) 1.0309(3)
H44 H 0.4350 -0.1896 1.0165
H45 H 0.3693 -0.2778 1.0693
H46 H 0.3398 -0.1414 1.0623
C37 C -0.0692(4) 0.5916(5) 0.8353(4)
H47 H -0.1226 0.6374 0.8547
C38 C 0.1938(4) -0.2593(4) 0.9665(3)
H48 H 0.1965 -0.3284 1.0056
H49 H 0.1495 -0.2760 0.9105
H50 H 0.1659 -0.1924 0.9965
C39 C 0.2956(3) -0.2063(5) 0.4559(3)
H51 H 0.3250 -0.2678 0.4214
H52 H 0.3320 -0.2049 0.5169
H53 H 0.3030 -0.1300 0.4274
C40 C 0.9187(3) 0.0507(5) 0.8649(4)
H54 H 0.9622 -0.0167 0.8545
H55 H 0.9489 0.0926 0.9188
H56 H 0.9142 0.1039 0.8134
C41 C 0.3656(3) 0.3151(3) 0.6504(3)
C42 C 0.2543(3) 0.3153(4) 0.6039(3)
H57 H 0.2267 0.3953 0.6036
H58 H 0.2124 0.2632 0.6361
H59 H 0.2529 0.2876 0.5422
O7 O 0.554(3) -0.021(4) 0.913(3)
C43 C 0.5352(7) 0.0313(9) 1.0025(5)
H60 H 0.4743 0.0789 0.9935
H61 H 0.5244 -0.0336 1.0408
H62 H 0.5918 0.0779 1.0297
O8 O 0.6994(6) -0.0857(8) 0.9803(6)
C44? C 0.6655(8) -0.0414(9) 1.0631(7)
H63? H 0.6808 -0.0686 1.1237
H64? H 0.7171 0.0138 1.0505
H65? H 0.5994 -0.0041 1.0553
O9? O 0.6657(7) -0.1389(9) 1.0007(6)
O10? O 0.577(3) -0.001(4) 0.912(4)
loop_
_geom_bond_atom_site_label_1
_geom_bond_atom_site_label_2
_geom_bond_site_symmetry_1
_geom_bond_site_symmetry_2
Si1 O1 1_555 1_555
Si2 O2 1_555 1_555
O1 C3 1_555 1_555
O2 C1 1_555 1_555
O3 C4 1_555 1_555
O4 C7 1_555 1_555
C1 C3 1_555 1_555
C2 H1 1_555 1_555
C3 C2 1_555 1_555
C4 C3 1_555 1_555
O5 N1 1_555 1_555
C5 C2 1_555 1_555
H2 C5 1_555 1_555
H3 C5 1_555 1_555
C6 C4 1_555 1_555
C7 C6 1_555 1_555
C8 C11 1_555 1_555
N1 C7 1_555 1_555
C9 C5 1_555 1_555
H4 C9 1_555 1_555
C10 O5 1_555 1_555
C11 C16 1_555 1_555
O6 C24 1_555 1_555
C12 C1 1_555 1_555
H5 C12 1_555 1_555
C13 C15 1_555 1_555
C14 C2 1_555 1_555
H6 C14 1_555 1_555
C15 H7 1_555 1_555
C16 C9 1_555 1_555
H8 C16 1_555 1_555
N2 C14 1_555 1_555
C17 C16 1_555 1_555
H9 C17 1_555 1_555
H10 C17 1_555 1_555
H11 C17 1_555 1_555
C18 O4 1_555 1_555
H12 C18 1_555 1_555
H13 C18 1_555 1_555
C19 C11 1_555 1_555
H14 C19 1_555 1_555
C20 Si1 1_555 1_555
C21 C8 1_555 1_555
C22 Si1 1_555 1_555
H15 C22 1_555 1_555
H16 C22 1_555 1_555
H17 C22 1_555 1_555
C23 Si2 1_555 1_555
H18 C23 1_555 1_555
H19 C23 1_555 1_555
H20 C23 1_555 1_555
C24 C8 1_555 1_555
C25 C13 1_555 1_555
H21 C25 1_555 1_555
C26 C15 1_555 1_555
H22 C26 1_555 1_555
C27 C19 1_555 1_555
H23 C27 1_555 1_555
C28 C26 1_555 1_555
H24 C28 1_555 1_555
C29 C24 1_555 1_555
H25 C29 1_555 1_555
C30 Si2 1_555 1_555
H26 C30 1_555 1_555
H27 C30 1_555 1_555
H28 C30 1_555 1_555
C31 C20 1_555 1_555
H29 C31 1_555 1_555
H30 C31 1_555 1_555
H31 C31 1_555 1_555
C32 C20 1_555 1_555
H32 C32 1_555 1_555
H33 C32 1_555 1_555
H34 C32 1_555 1_555
C33 Si1 1_555 1_555
H35 C33 1_555 1_555
H36 C33 1_555 1_555
H37 C33 1_555 1_555
C34 H38 1_555 1_555
H39 C34 1_555 1_555
H40 C34 1_555 1_555
C35 H41 1_555 1_555
H42 C35 1_555 1_555
H43 C35 1_555 1_555
C36 N2 1_555 1_555
H44 C36 1_555 1_555
H45 C36 1_555 1_555
H46 C36 1_555 1_555
C37 C25 1_555 1_555
H47 C37 1_555 1_555
C38 N2 1_555 1_555
H48 C38 1_555 1_555
H49 C38 1_555 1_555
H50 C38 1_555 1_555
C39 C20 1_555 1_555
H51 C39 1_555 1_555
H52 C39 1_555 1_555
H53 C39 1_555 1_555
C40 O6 1_555 1_555
H54 C40 1_555 1_555
H55 C40 1_555 1_555
H56 C40 1_555 1_555
C41 Si2 1_555 1_555
C42 C41 1_555 1_555
H57 C42 1_555 1_555
H58 C42 1_555 1_555
H59 C42 1_555 1_555
O7 C21 1_555 1_555
C43 O7 1_555 1_555
H60 C43 1_555 1_555
H61 C43 1_555 1_555
H62 C43 1_555 1_555
O8 C21 1_555 1_555
C6 C10 1_555 1_555
C9 C12 1_555 1_555
C10 C14 1_555 1_555
C13 C18 1_555 1_555
C27 C29 1_555 1_555
C28 C37 1_555 1_555
C34 C41 1_555 1_555
C35 C41 1_555 1_555

#END
