
#######################################################################
#
#                 Cambridge Crystallographic Data Centre
#                                CCDC 
#
#######################################################################
#
# If this CIF has been generated from an entry in the Cambridge 
# Structural Database, then it will include bibliographic, chemical, 
# crystal, experimental, refinement or atomic coordinate data resulting 
# from the CCDC's data processing and validation procedures.
#
#######################################################################

data_HORMOQ
_chemical_formula_moiety         'C26 H22 N4 O12 S1'
_chemical_name_systematic        
1-(2-Deoxy-3,5-di-O-p-nitrobenzoyl-4-thio-\b-D-ribofuranosyl)-4,5-bis(methoxycarbonyl)imidazole
_symmetry_cell_setting           monoclinic
_symmetry_space_group_name_H-M   'C 2'
_symmetry_Int_Tables_number      5
_space_group_name_Hall           'C 2y'
loop_
_symmetry_equiv_pos_site_id
_symmetry_equiv_pos_as_xyz
1 x,y,z
2 -x,y,-z
3 1/2+x,1/2+y,z
4 1/2-x,1/2+y,-z
_cell_length_a                   23.354(5)
_cell_length_b                   6.9820(10)
_cell_length_c                   18.924(4)
_cell_angle_alpha                90
_cell_angle_beta                 106.46(3)
_cell_angle_gamma                90
_cell_volume                     2959.24
_exptl_crystal_colour            yellow
_chemical_melting_point          86-88deg.C
_cell_formula_units_Z            4
loop_
_atom_site_label
_atom_site_type_symbol
_atom_site_fract_x
_atom_site_fract_y
_atom_site_fract_z
S1 S 0.8516(1) 0.6811(3) 0.0569(1)
O1 O 0.7416(4) 0.3713(21) -0.1471(5)
O2 O 0.7647(4) 0.4776(20) -0.2390(5)
O3 O 0.8554(5) 0.3715(14) -0.2871(5)
O4 O 0.9387(5) 0.5522(13) -0.2471(5)
O5 O 0.7626(3) 0.3873(8) 0.1126(3)
O6 O 0.7870(3) 0.4025(9) 0.2374(4)
O7 O 0.4678(4) 0.5514(13) 0.0872(7)
O8 O 0.4852(4) 0.4885(14) 0.2042(6)
O9 O 0.9309(3) 0.3926(8) 0.2452(3)
O10 O 0.9164(4) 0.6510(9) 0.3086(4)
O11 O 0.9240(6) -0.1974(12) 0.5290(5)
O12 O 0.9087(5) 0.0391(12) 0.5920(5)
N1 N 0.8618(4) 0.4617(10) -0.0586(4)
N2 N 0.9427(4) 0.4686(10) -0.0999(4)
N3 N 0.5004(5) 0.5099(12) 0.1477(7)
N4 N 0.9181(5) -0.0287(15) 0.5383(5)
C1 C 0.8601(5) 0.5456(11) 0.1410(5)
C2 C 0.8273(5) 0.4770(13) -0.0038(5)
C3 C 0.8313(5) 0.2993(12) 0.0450(5)
C4 C 0.8250(4) 0.3564(12) 0.1191(5)
C5 C 0.9256(4) 0.5105(12) 0.1808(5)
C6 C 0.9234(5) 0.4799(16) 0.3037(5)
C7 C 0.9256(5) 0.3462(12) 0.3649(5)
C8 C 0.9123(6) 0.4097(14) 0.4283(6)
C9 C 0.9130(6) 0.2926(15) 0.4858(6)
C10 C 0.9201(5) 0.1015(16) 0.4765(6)
C11 C 0.9338(6) 0.0253(13) 0.4169(6)
C12 C 0.9346(5) 0.1478(13) 0.3582(6)
C13 C 0.9238(5) 0.4703(13) -0.0412(5)
C14 C 0.8923(4) 0.4524(11) -0.1580(5)
C15 C 0.8957(5) 0.4542(15) -0.2342(6)
C16 C 0.9275(15) 0.5675(24) -0.3312(9)
C17 C 0.8411(4) 0.4486(10) -0.1344(5)
C18 C 0.7780(5) 0.4276(11) -0.1727(5)
C19 C 0.7048(6) 0.4337(27) -0.2866(7)
C20 C 0.7492(5) 0.4066(12) 0.1782(6)
C21 C 0.6843(5) 0.4355(11) 0.1670(5)
C22 C 0.6647(5) 0.4461(12) 0.2308(5)
C23 C 0.6039(5) 0.4645(13) 0.2248(7)
C24 C 0.5653(5) 0.4794(12) 0.1552(7)
C25 C 0.5826(5) 0.4789(13) 0.0922(6)
C26 C 0.6440(4) 0.4532(12) 0.0999(6)
H1 H 0.8421(5) 0.6183(11) 0.1736(5)
H2 H 0.7853(5) 0.4965(13) -0.0308(5)
H3 H 0.7999(5) 0.2098(12) 0.0215(5)
H4 H 0.8694(5) 0.2363(12) 0.0512(5)
H5 H 0.8413(4) 0.2564(12) 0.1556(5)
H6 H 0.9447(4) 0.4470(12) 0.1478(5)
H7 H 0.9457(4) 0.6319(12) 0.1955(5)
H8 H 0.9025(6) 0.5379(14) 0.4314(6)
H9 H 0.9088(6) 0.3410(15) 0.5298(6)
H10 H 0.9424(6) -0.1044(13) 0.4151(6)
H11 H 0.9409(5) 0.0987(13) 0.3154(6)
H12 H 0.9488(5) 0.4765(13) 0.0067(5)
H13 H 0.8853(16) 0.575(37) -0.3547(15)
H14 H 0.9436(97) 0.457(17) -0.3488(20)
H15 H 0.947(10) 0.681(19) -0.3425(14)
H16 H 0.7035(15) 0.457(15) -0.3371(9)
H17 H 0.6761(8) 0.514(11) -0.2734(39)
H18 H 0.6956(20) 0.3017(46) -0.2806(44)
H19 H 0.6923(5) 0.4408(12) 0.2771(5)
H20 H 0.5901(5) 0.4665(13) 0.2663(7)
H21 H 0.5551(5) 0.4948(13) 0.0462(6)
H22 H 0.6571(4) 0.4483(12) 0.0579(6)
loop_
_geom_bond_atom_site_label_1
_geom_bond_atom_site_label_2
_geom_bond_site_symmetry_1
_geom_bond_site_symmetry_2
S1 C1 1_555 1_555
O1 C18 1_555 1_555
O2 C18 1_555 1_555
O3 C15 1_555 1_555
O4 C15 1_555 1_555
O5 C4 1_555 1_555
O6 C20 1_555 1_555
O7 N3 1_555 1_555
O8 N3 1_555 1_555
O9 C5 1_555 1_555
O10 C6 1_555 1_555
O11 N4 1_555 1_555
O12 N4 1_555 1_555
N1 C2 1_555 1_555
N2 C13 1_555 1_555
N3 C24 1_555 1_555
N4 C10 1_555 1_555
C1 C4 1_555 1_555
C2 S1 1_555 1_555
C3 C2 1_555 1_555
C4 C3 1_555 1_555
C5 C1 1_555 1_555
C6 O9 1_555 1_555
C7 C6 1_555 1_555
C8 C7 1_555 1_555
C9 C8 1_555 1_555
C10 C9 1_555 1_555
C11 C10 1_555 1_555
C12 C7 1_555 1_555
C13 N1 1_555 1_555
C14 N2 1_555 1_555
C15 C14 1_555 1_555
C16 O4 1_555 1_555
C17 N1 1_555 1_555
C18 C17 1_555 1_555
C19 O2 1_555 1_555
C20 O5 1_555 1_555
C21 C20 1_555 1_555
C22 C21 1_555 1_555
C23 C22 1_555 1_555
C24 C23 1_555 1_555
C25 C24 1_555 1_555
C26 C21 1_555 1_555
H1 C1 1_555 1_555
H2 C2 1_555 1_555
H3 C3 1_555 1_555
H4 C3 1_555 1_555
H5 C4 1_555 1_555
H6 C5 1_555 1_555
H7 C5 1_555 1_555
H8 C8 1_555 1_555
H9 C9 1_555 1_555
H10 C11 1_555 1_555
H11 C12 1_555 1_555
H12 C13 1_555 1_555
H13 C16 1_555 1_555
H14 C16 1_555 1_555
H15 C16 1_555 1_555
H16 C19 1_555 1_555
H17 C19 1_555 1_555
H18 C19 1_555 1_555
H19 C22 1_555 1_555
H20 C23 1_555 1_555
H21 C25 1_555 1_555
H22 C26 1_555 1_555
C11 C12 1_555 1_555
C14 C17 1_555 1_555
C25 C26 1_555 1_555

#END
