
#######################################################################
#
#                 Cambridge Crystallographic Data Centre
#                                CCDC 
#
#######################################################################
#
# If this CIF has been generated from an entry in the Cambridge 
# Structural Database, then it will include bibliographic, chemical, 
# crystal, experimental, refinement or atomic coordinate data resulting 
# from the CCDC's data processing and validation procedures.
#
#######################################################################

data_HORMUY
_chemical_formula_moiety         'C32 H43 B1 N2 O1,1.5(C7 H8)'
_chemical_name_systematic        
'triethyl(3-(2-(oxido)-2-(2-naphthyl)ethyl)-1-mesityl-4,5-dimethyl-1H-imidazol-3-ium)borate toluene solvate'
_symmetry_cell_setting           triclinic
_symmetry_space_group_name_H-M   'P -1'
_symmetry_Int_Tables_number      2
_space_group_name_Hall           '-P 1'
loop_
_symmetry_equiv_pos_site_id
_symmetry_equiv_pos_as_xyz
1 x,y,z
2 -x,-y,-z
_cell_length_a                   11.7096(6)
_cell_length_b                   15.6144(9)
_cell_length_c                   22.0422(18)
_cell_angle_alpha                85.313(6)
_cell_angle_beta                 86.194(6)
_cell_angle_gamma                68.487(5)
_cell_volume                     3733.98
_exptl_crystal_colour            colorless
_exptl_crystal_description       block
_cell_formula_units_Z            4
loop_
_atom_site_label
_atom_site_type_symbol
_atom_site_fract_x
_atom_site_fract_y
_atom_site_fract_z
C1 C 0.9554(6) 0.3793(4) 0.0526(3)
H1 H 0.9530 0.3197 0.0689
H2 H 0.8822 0.4124 0.0291
H3 H 0.9575 0.4159 0.0862
C2 C 1.2762(5) 0.2294(4) -0.1143(3)
H4 H 1.2276 0.2275 -0.0783
C3 C 1.3840(5) 0.1919(4) -0.2004(3)
C4 C 1.3825(5) 0.2757(4) -0.1870(3)
C5 C 1.4415(6) 0.1343(4) -0.2525(3)
H5 H 1.4761 0.1688 -0.2826
H6 H 1.3793 0.1181 -0.2715
H7 H 1.5070 0.0778 -0.2379
C6 C 1.4394(6) 0.3382(4) -0.2205(3)
H8 H 1.3747 0.3965 -0.2331
H9 H 1.4859 0.3087 -0.2566
H10 H 1.4947 0.3502 -0.1938
C7 C 1.2925(6) 0.0791(4) -0.1479(3)
C8 C 1.3751(7) 0.0041(4) -0.1156(3)
C9 C 1.3476(8) -0.0751(5) -0.1082(3)
H11 H 1.4032 -0.1283 -0.0876
C10 C 1.2435(10) -0.0794(5) -0.1297(4)
C11 C 1.1655(7) -0.0033(5) -0.1619(3)
H12 H 1.0938 -0.0066 -0.1777
C12 C 1.1885(7) 0.0785(4) -0.1720(3)
C13 C 1.4893(7) 0.0075(5) -0.0913(3)
H13 H 1.5426 0.0172 -0.1253
H14 H 1.5327 -0.0508 -0.0685
H15 H 1.4677 0.0584 -0.0643
C14 C 1.2121(10) -0.1666(5) -0.1169(4)
H16 H 1.2804 -0.2200 -0.1316
H17 H 1.1376 -0.1592 -0.1379
H18 H 1.1982 -0.1762 -0.0729
C15 C 1.1023(6) 0.1597(5) -0.2060(3)
H19 H 1.0684 0.2110 -0.1793
H20 H 1.0354 0.1440 -0.2203
H21 H 1.1462 0.1779 -0.2411
C16 C 1.2857(5) 0.3814(4) -0.1000(3)
H22 H 1.1955 0.4123 -0.0952
H23 H 1.3183 0.4244 -0.1240
C17 C 1.3418(6) 0.3593(4) -0.0363(3)
H24 H 1.3100 0.4170 -0.0137
C18 C 1.4799(6) 0.3293(4) -0.0429(3)
C19 C 1.5519(6) 0.2377(4) -0.0385(3)
H25 H 1.5139 0.1933 -0.0311
C20 C 1.6817(6) 0.2073(5) -0.0446(3)
C21 C 1.7560(7) 0.1133(5) -0.0407(3)
H26 H 1.7192 0.0680 -0.0346
C22 C 1.8815(7) 0.0865(6) -0.0457(3)
H27 H 1.9309 0.0228 -0.0417
C23 C 1.9368(7) 0.1504(7) -0.0562(4)
H28 H 2.0237 0.1304 -0.0611
C24 C 1.8674(7) 0.2431(6) -0.0598(3)
H29 H 1.9068 0.2868 -0.0657
C25 C 1.7373(7) 0.2741(5) -0.0546(3)
C26 C 1.6619(7) 0.3686(5) -0.0588(3)
H30 H 1.6982 0.4141 -0.0650
C27 C 1.5383(7) 0.3944(4) -0.0540(3)
H31 H 1.4891 0.4581 -0.0582
C28 C 1.2151(6) 0.3958(4) 0.0893(3)
H32 H 1.1932 0.4564 0.0662
H33 H 1.1552 0.4028 0.1242
C29 C 1.3415(7) 0.3708(5) 0.1138(3)
H34 H 1.3630 0.3123 0.1384
H35 H 1.3419 0.4195 0.1392
H36 H 1.4018 0.3645 0.0798
C30 C 1.2151(6) 0.2238(4) 0.0838(3)
H37 H 1.2968 0.1991 0.1020
H38 H 1.1525 0.2374 0.1177
C31 C 1.2013(6) 0.1489(4) 0.0477(3)
H39 H 1.1169 0.1689 0.0341
H40 H 1.2198 0.0918 0.0736
H41 H 1.2585 0.1379 0.0121
C32 C 1.0701(5) 0.3635(4) 0.0112(3)
H42 H 1.0641 0.4232 -0.0101
H43 H 1.0703 0.3216 -0.0202
B1 B 1.2012(7) 0.3206(5) 0.0446(3)
N1 N 1.3171(4) 0.1642(3) -0.1539(2)
N2 N 1.3143(4) 0.2974(3) -0.1331(2)
O1 O 1.3069(3) 0.2930(2) -0.00324(17)
C33 C 0.3554(6) 0.8512(4) 0.4579(3)
H44 H 0.2943 0.8268 0.4764
H45 H 0.3144 0.9067 0.4319
H46 H 0.3969 0.8669 0.4901
C34 C 0.3349(6) 0.6216(4) 0.4521(3)
H47 H 0.2807 0.6812 0.4344
H48 H 0.2857 0.5917 0.4768
H49 H 0.3798 0.5822 0.4194
C35 C 0.4811(5) 0.7652(4) 0.6164(3)
H50 H 0.4341 0.7670 0.5825
C36 C 0.6257(5) 0.7198(4) 0.6834(3)
C37 C 0.5427(6) 0.8026(4) 0.6986(3)
C38 C 0.7403(6) 0.6574(4) 0.7130(3)
H51 H 0.7459 0.6805 0.7523
H52 H 0.8118 0.6558 0.6867
H53 H 0.7384 0.5951 0.7194
C39 C 0.5388(6) 0.8613(4) 0.7500(3)
H54 H 0.4562 0.8828 0.7694
H55 H 0.5593 0.9146 0.7341
H56 H 0.5984 0.8249 0.7802
C40 C 0.3518(6) 0.9166(4) 0.6499(3)
C41 C 0.3720(6) 0.9909(4) 0.6199(3)
C42 C 0.2709(7) 1.0729(4) 0.6122(3)
H57 H 0.2822 1.1254 0.5918
C43 C 0.1563(7) 1.0790(5) 0.6334(3)
C44 C 0.1405(6) 1.0030(5) 0.6655(3)
H58 H 0.0613 1.0080 0.6818
C45 C 0.2387(6) 0.9200(4) 0.6740(3)
C46 C 0.4961(6) 0.9847(4) 0.5942(3)
H59 H 0.5268 0.9349 0.5661
H60 H 0.5528 0.9718 0.6274
H61 H 0.4900 1.0433 0.5722
C47 C 0.0468(7) 1.1676(4) 0.6233(3)
H62 H 0.0704 1.2204 0.6290
H63 H -0.0200 1.1678 0.6525
H64 H 0.0192 1.1720 0.5817
C48 C 0.2201(6) 0.8383(4) 0.7078(3)
H65 H 0.2282 0.7914 0.6792
H66 H 0.1379 0.8578 0.7276
H67 H 0.2820 0.8123 0.7388
C49 C 0.6421(5) 0.6147(3) 0.5966(3)
H68 H 0.5819 0.5850 0.5921
H69 H 0.7119 0.5700 0.6191
C50 C 0.6885(6) 0.6391(4) 0.5335(3)
H70 H 0.7182 0.5825 0.5098
C51 C 0.7962(6) 0.6703(4) 0.5399(3)
C52 C 0.7783(6) 0.7618(4) 0.5346(3)
H71 H 0.6990 0.8057 0.5262
C53 C 0.8757(7) 0.7920(4) 0.5415(3)
C54 C 0.8585(7) 0.8869(4) 0.5373(3)
H72 H 0.7797 0.9313 0.5286
C55 C 0.9529(9) 0.9156(6) 0.5455(3)
H73 H 0.9391 0.9796 0.5437
C56 C 1.0680(8) 0.8517(7) 0.5562(3)
H74 H 1.1337 0.8725 0.5604
C57 C 1.0914(7) 0.7582(6) 0.5612(3)
H75 H 1.1715 0.7153 0.5694
C58 C 0.9938(7) 0.7272(5) 0.5539(3)
C59 C 1.0094(7) 0.6329(5) 0.5580(3)
H76 H 1.0886 0.5879 0.5651
C60 C 0.9127(6) 0.6046(4) 0.5520(3)
H77 H 0.9249 0.5408 0.5560
C61 C 0.6136(6) 0.6079(4) 0.4091(3)
H78 H 0.6489 0.5470 0.4315
H79 H 0.5637 0.6009 0.3766
C62 C 0.7203(6) 0.6333(4) 0.3786(3)
H80 H 0.6871 0.6925 0.3552
H81 H 0.7688 0.5854 0.3513
H82 H 0.7728 0.6380 0.4100
C63 C 0.4503(6) 0.7781(4) 0.4195(3)
H83 H 0.5117 0.8037 0.4015
H84 H 0.4079 0.7664 0.3854
C64 C 0.4265(6) 0.6370(4) 0.4924(3)
H85 H 0.4749 0.5772 0.5133
H86 H 0.3799 0.6790 0.5242
B2 B 0.5223(7) 0.6803(5) 0.4561(3)
N3 N 0.4545(4) 0.8300(3) 0.6557(2)
N4 N 0.5837(4) 0.6975(3) 0.6320(2)
O2 O 0.5960(3) 0.7061(2) 0.50252(17)
C72 C 0.7974(14) 0.0676(10) 0.7629(7)
C73 C 0.8540(14) -0.0092(13) 0.8017(5)
H95 H 0.8743 -0.0014 0.8414
C74 C 0.8809(15) -0.0973(11) 0.7824(8)
H96 H 0.9197 -0.1497 0.8090
C75 C 0.8512(17) -0.1087(11) 0.7244(9)
H97 H 0.8696 -0.1689 0.7112
C76 C 0.7946(16) -0.0319(15) 0.6856(6)
H98 H 0.7743 -0.0397 0.6459
C77 C 0.7677(14) 0.0562(13) 0.7048(6)
H99 H 0.7289 0.1086 0.6783
C78 C 0.761(3) 0.1585(13) 0.7810(11)
H100 H 0.6810 0.1750 0.8031
H101 H 0.7540 0.2009 0.7450
H102 H 0.8220 0.1628 0.8076
C79 C 0.2482(8) 0.6018(5) 0.2285(5)
H103 H 0.3161 0.6035 0.2030
C80 C 0.2481(8) 0.6116(5) 0.2891(4)
H104 H 0.3163 0.6193 0.3059
C81 C 0.1523(8) 0.5897(4) 0.2039(3)
H105 H 0.1546 0.5818 0.1615
C82 C 0.0526(7) 0.5885(4) 0.2393(4)
C83 C 0.1507(8) 0.6105(4) 0.3261(4)
H106 H 0.1507 0.6173 0.3685
C84 C 0.0524(6) 0.5995(4) 0.3016(3)
H107 H -0.0161 0.5993 0.3272
C85 C -0.0538(8) 0.5798(5) 0.2125(4)
H108 H -0.0697 0.6157 0.1733
H109 H -0.1261 0.6031 0.2401
H110 H -0.0368 0.5148 0.2062
C86 C 0.2880(8) 0.5858(3) 0.6979(2)
H111 H 0.2657 0.5794 0.6583
C87 C 0.4102(7) 0.5682(3) 0.7092(3)
H112 H 0.4714 0.5498 0.6774
C88 C 0.4429(5) 0.5774(4) 0.7671(4)
H113 H 0.5264 0.5654 0.7749
C89 C 0.3534(8) 0.6043(4) 0.8137(3)
H114 H 0.3757 0.6106 0.8533
C90 C 0.2312(7) 0.6219(3) 0.8024(3)
H115 H 0.1701 0.6402 0.8342
C91 C 0.1986(5) 0.6126(3) 0.7445(4)
C92 C 0.0722(12) 0.6340(8) 0.7278(6)
H116 H 0.0169 0.6533 0.7636
H117 H 0.0644 0.5791 0.7128
H118 H 0.0503 0.6839 0.6958
C65? C 0.8171(13) -0.0396(8) 0.7282(6)
C66? C 0.8069(13) 0.0360(10) 0.6879(5)
H87? H 0.8158 0.0290 0.6453
C67? C 0.7835(13) 0.1218(8) 0.7101(7)
H88? H 0.7765 0.1735 0.6826
C68? C 0.7704(16) 0.1321(9) 0.7725(7)
H89? H 0.7544 0.1908 0.7877
C69? C 0.7806(17) 0.0566(12) 0.8128(5)
H90? H 0.7717 0.0636 0.8554
C70? C 0.8040(15) -0.0293(10) 0.7906(5)
H91? H 0.8110 -0.0809 0.8181
C71? C 0.844(3) -0.1280(10) 0.7046(10)
H92? H 0.7691 -0.1301 0.6880
H93? H 0.8718 -0.1763 0.7373
H94? H 0.9078 -0.1380 0.6722
loop_
_geom_bond_atom_site_label_1
_geom_bond_atom_site_label_2
_geom_bond_site_symmetry_1
_geom_bond_site_symmetry_2
C1 H1 1_555 1_555
H2 C1 1_555 1_555
H3 C1 1_555 1_555
C2 H4 1_555 1_555
C3 C4 1_555 1_555
C4 C6 1_555 1_555
C5 C3 1_555 1_555
H5 C5 1_555 1_555
H6 C5 1_555 1_555
H7 C5 1_555 1_555
C6 H8 1_555 1_555
H9 C6 1_555 1_555
H10 C6 1_555 1_555
C7 C8 1_555 1_555
C8 C9 1_555 1_555
C9 H11 1_555 1_555
C10 C9 1_555 1_555
C11 C10 1_555 1_555
H12 C11 1_555 1_555
C12 C7 1_555 1_555
C13 C8 1_555 1_555
H13 C13 1_555 1_555
H14 C13 1_555 1_555
H15 C13 1_555 1_555
C14 C10 1_555 1_555
H16 C14 1_555 1_555
H17 C14 1_555 1_555
H18 C14 1_555 1_555
C15 C12 1_555 1_555
H19 C15 1_555 1_555
H20 C15 1_555 1_555
H21 C15 1_555 1_555
C16 H22 1_555 1_555
H23 C16 1_555 1_555
C17 C16 1_555 1_555
H24 C17 1_555 1_555
C18 C17 1_555 1_555
C19 C18 1_555 1_555
H25 C19 1_555 1_555
C20 C19 1_555 1_555
C21 C20 1_555 1_555
H26 C21 1_555 1_555
C22 C21 1_555 1_555
H27 C22 1_555 1_555
C23 C22 1_555 1_555
H28 C23 1_555 1_555
C24 C23 1_555 1_555
H29 C24 1_555 1_555
C25 C20 1_555 1_555
C26 C25 1_555 1_555
H30 C26 1_555 1_555
C27 C18 1_555 1_555
H31 C27 1_555 1_555
C28 H32 1_555 1_555
H33 C28 1_555 1_555
C29 C28 1_555 1_555
H34 C29 1_555 1_555
H35 C29 1_555 1_555
H36 C29 1_555 1_555
C30 H37 1_555 1_555
H38 C30 1_555 1_555
C31 C30 1_555 1_555
H39 C31 1_555 1_555
H40 C31 1_555 1_555
H41 C31 1_555 1_555
C32 C1 1_555 1_555
H42 C32 1_555 1_555
H43 C32 1_555 1_555
B1 C28 1_555 1_555
N1 C2 1_555 1_555
N2 C2 1_555 1_555
O1 C17 1_555 1_555
C33 H44 1_555 1_555
H45 C33 1_555 1_555
H46 C33 1_555 1_555
C34 H47 1_555 1_555
H48 C34 1_555 1_555
H49 C34 1_555 1_555
C35 H50 1_555 1_555
C36 C37 1_555 1_555
C37 C39 1_555 1_555
C38 C36 1_555 1_555
H51 C38 1_555 1_555
H52 C38 1_555 1_555
H53 C38 1_555 1_555
C39 H54 1_555 1_555
H55 C39 1_555 1_555
H56 C39 1_555 1_555
C40 C41 1_555 1_555
C41 C42 1_555 1_555
C42 H57 1_555 1_555
C43 C42 1_555 1_555
C44 C43 1_555 1_555
H58 C44 1_555 1_555
C45 C40 1_555 1_555
C46 C41 1_555 1_555
H59 C46 1_555 1_555
H60 C46 1_555 1_555
H61 C46 1_555 1_555
C47 C43 1_555 1_555
H62 C47 1_555 1_555
H63 C47 1_555 1_555
H64 C47 1_555 1_555
C48 C45 1_555 1_555
H65 C48 1_555 1_555
H66 C48 1_555 1_555
H67 C48 1_555 1_555
C49 H68 1_555 1_555
H69 C49 1_555 1_555
C50 C49 1_555 1_555
H70 C50 1_555 1_555
C51 C50 1_555 1_555
C52 C51 1_555 1_555
H71 C52 1_555 1_555
C53 C52 1_555 1_555
C54 C53 1_555 1_555
H72 C54 1_555 1_555
C55 C54 1_555 1_555
H73 C55 1_555 1_555
C56 C55 1_555 1_555
H74 C56 1_555 1_555
C57 C56 1_555 1_555
H75 C57 1_555 1_555
C58 C53 1_555 1_555
C59 C58 1_555 1_555
H76 C59 1_555 1_555
C60 C51 1_555 1_555
H77 C60 1_555 1_555
C61 H78 1_555 1_555
H79 C61 1_555 1_555
C62 C61 1_555 1_555
H80 C62 1_555 1_555
H81 C62 1_555 1_555
H82 C62 1_555 1_555
C63 C33 1_555 1_555
H83 C63 1_555 1_555
H84 C63 1_555 1_555
C64 C34 1_555 1_555
H85 C64 1_555 1_555
H86 C64 1_555 1_555
B2 C61 1_555 1_555
N3 C35 1_555 1_555
N4 C35 1_555 1_555
O2 C50 1_555 1_555
C72 C73 1_555 1_555
C73 H95 1_555 1_555
C74 C73 1_555 1_555
H96 C74 1_555 1_555
C75 C74 1_555 1_555
H97 C75 1_555 1_555
C76 C75 1_555 1_555
H98 C76 1_555 1_555
C77 C72 1_555 1_555
H99 C77 1_555 1_555
C78 C72 1_555 1_555
H100 C78 1_555 1_555
H101 C78 1_555 1_555
H102 C78 1_555 1_555
C79 H103 1_555 1_555
C80 C79 1_555 1_555
H104 C80 1_555 1_555
C81 C79 1_555 1_555
H105 C81 1_555 1_555
C82 C81 1_555 1_555
C83 C80 1_555 1_555
H106 C83 1_555 1_555
C84 C82 1_555 1_555
H107 C84 1_555 1_555
C85 C82 1_555 1_555
H108 C85 1_555 1_555
H109 C85 1_555 1_555
H110 C85 1_555 1_555
C86 H111 1_555 1_555
C87 C86 1_555 1_555
H112 C87 1_555 1_555
C88 C87 1_555 1_555
H113 C88 1_555 1_555
C89 C88 1_555 1_555
H114 C89 1_555 1_555
C90 C89 1_555 1_555
H115 C90 1_555 1_555
C91 C86 1_555 1_555
C92 C91 1_555 1_555
H116 C92 1_555 1_555
H117 C92 1_555 1_555
H118 C92 1_555 1_555
C3 N1 1_555 1_555
C4 N2 1_555 1_555
C7 N1 1_555 1_555
C11 C12 1_555 1_555
C16 N2 1_555 1_555
C24 C25 1_555 1_555
C26 C27 1_555 1_555
C30 B1 1_555 1_555
C32 B1 1_555 1_555
B1 O1 1_555 1_555
C36 N4 1_555 1_555
C37 N3 1_555 1_555
C40 N3 1_555 1_555
C44 C45 1_555 1_555
C49 N4 1_555 1_555
C57 C58 1_555 1_555
C59 C60 1_555 1_555
C63 B2 1_555 1_555
C64 B2 1_555 1_555
B2 O2 1_555 1_555
C76 C77 1_555 1_555
C83 C84 1_555 1_555
C90 C91 1_555 1_555

#END
