
#######################################################################
#
#                 Cambridge Crystallographic Data Centre
#                                CCDC 
#
#######################################################################
#
# If this CIF has been generated from an entry in the Cambridge 
# Structural Database, then it will include bibliographic, chemical, 
# crystal, experimental, refinement or atomic coordinate data resulting 
# from the CCDC's data processing and validation procedures.
#
#######################################################################

data_HORMIK
_chemical_formula_moiety         'C17 H16 N4 O2 S1'
_chemical_name_systematic        
1-(2-Deoxy-3-O-benyl-4-thio-\a-D-ribofuranosyl)-4,5-dicyanoimidazole
_symmetry_cell_setting           orthorhombic
_symmetry_space_group_name_H-M   'P 21 21 21'
_symmetry_Int_Tables_number      19
_space_group_name_Hall           'P 2ac 2ab'
loop_
_symmetry_equiv_pos_site_id
_symmetry_equiv_pos_as_xyz
1 x,y,z
2 1/2-x,-y,1/2+z
3 1/2+x,1/2-y,-z
4 -x,1/2+y,1/2-z
_cell_length_a                   6.4350(10)
_cell_length_b                   10.8020(10)
_cell_length_c                   22.7900(10)
_cell_angle_alpha                90
_cell_angle_beta                 90
_cell_angle_gamma                90
_cell_volume                     1584.15
_chemical_melting_point          108-109deg.C
_cell_formula_units_Z            4
loop_
_atom_site_label
_atom_site_type_symbol
_atom_site_fract_x
_atom_site_fract_y
_atom_site_fract_z
S1 S 0.2513(1) 0.1504(1) 0.9699(1)
O1 O 0.1374(3) 0.1260(2) 0.8259(1)
O2 O 0.6477(4) -0.0075(2) 0.9301(1)
N1 N 0.1817(3) 0.3684(2) 0.9113(1)
N2 N -0.1139(4) 0.4528(2) 0.8789(1)
N3 N 0.5141(4) 0.6008(2) 0.9665(1)
N4 N -0.0819(5) 0.7746(3) 0.9000(1)
C1 C -0.1699(5) 0.1927(3) 0.7479(1)
C2 C -0.3429(5) 0.2294(3) 0.7160(1)
C3 C -0.4829(5) 0.1439(3) 0.6965(1)
C4 C -0.4539(5) 0.0196(3) 0.7087(1)
C5 C -0.2835(5) -0.0171(3) 0.7408(1)
C6 C -0.1393(5) 0.0695(3) 0.7610(1)
C7 C 0.0479(6) 0.0258(3) 0.7947(1)
C8 C 0.3247(5) 0.0948(3) 0.8567(1)
C9 C 0.2833(5) 0.0282(3) 0.9144(1)
C10 C 0.4496(6) -0.0649(3) 0.9313(1)
C11 C 0.4378(5) 0.2141(3) 0.8699(1)
C12 C 0.3440(5) 0.2759(3) 0.9241(1)
C13 C 0.1972(4) 0.4923(3) 0.9208(1)
C14 C 0.3743(5) 0.5523(3) 0.9459(1)
C15 C 0.0157(5) 0.5434(3) 0.9004(1)
C16 C -0.0406(5) 0.6724(3) 0.9003(1)
C17 C -0.0085(5) 0.3503(3) 0.8867(1)
H1 H -0.0783(58) 0.2638(32) 0.7596(13)
H2 H -0.3706(45) 0.3117(28) 0.7082(11)
H3 H 0.7593(65) -0.0706(36) 0.9248(15)
H4 H -0.6063(50) 0.1601(29) 0.6732(12)
H5 H -0.5582(43) -0.0418(23) 0.6965(10)
H6 H -0.2689(48) -0.0937(29) 0.7479(11)
H7 H 0.1480(45) -0.0135(27) 0.7706(11)
H8 H 0.0106(44) -0.0424(28) 0.8219(11)
H9 H 0.4006(46) 0.0400(27) 0.8331(10)
H10 H 0.1518(45) -0.0124(27) 0.9137(11)
H11 H 0.4607(36) -0.1369(23) 0.9007(10)
H12 H 0.4183(40) -0.0928(24) 0.9703(11)
H13 H 0.5747(51) 0.1883(25) 0.8786(11)
H14 H 0.4306(39) 0.2695(22) 0.8347(10)
H15 H 0.4516(47) 0.3199(26) 0.9466(11)
H16 H -0.0574(56) 0.2722(29) 0.8693(13)
loop_
_geom_bond_atom_site_label_1
_geom_bond_atom_site_label_2
_geom_bond_site_symmetry_1
_geom_bond_site_symmetry_2
S1 C9 1_555 1_555
O1 C7 1_555 1_555
O2 C10 1_555 1_555
N1 C12 1_555 1_555
N2 C15 1_555 1_555
N3 C14 1_555 1_555
N4 C16 1_555 1_555
C1 C2 1_555 1_555
C2 C3 1_555 1_555
C3 C4 1_555 1_555
C4 C5 1_555 1_555
C5 C6 1_555 1_555
C6 C1 1_555 1_555
C7 C6 1_555 1_555
C8 O1 1_555 1_555
C9 C8 1_555 1_555
C10 C9 1_555 1_555
C11 C8 1_555 1_555
C12 S1 1_555 1_555
C13 N1 1_555 1_555
C14 C13 1_555 1_555
C15 C13 1_555 1_555
C16 C15 1_555 1_555
C17 N1 1_555 1_555
H1 C1 1_555 1_555
H2 C2 1_555 1_555
H3 O2 1_555 1_555
H4 C3 1_555 1_555
H5 C4 1_555 1_555
H6 C5 1_555 1_555
H7 C7 1_555 1_555
H8 C7 1_555 1_555
H9 C8 1_555 1_555
H10 C9 1_555 1_555
H11 C10 1_555 1_555
H12 C10 1_555 1_555
H13 C11 1_555 1_555
H14 C11 1_555 1_555
H15 C12 1_555 1_555
H16 C17 1_555 1_555
N2 C17 1_555 1_555
C11 C12 1_555 1_555

#END
