
#######################################################################
#
#                 Cambridge Crystallographic Data Centre
#                                CCDC 
#
#######################################################################
#
# If this CIF has been generated from an entry in the Cambridge 
# Structural Database, then it will include bibliographic, chemical, 
# crystal, experimental, refinement or atomic coordinate data resulting 
# from the CCDC's data processing and validation procedures.
#
#######################################################################

data_HORNEJ
_chemical_formula_moiety         'C17 H33 B1 N2 O1'
_chemical_name_systematic        
2,6-di-t-butyl-8,8-diethyl-8-borata-5,6-dihydro-8H-imidazo[5,1-c][1,4]oxazin-2-ium
_symmetry_cell_setting           monoclinic
_symmetry_space_group_name_H-M   'P 21/c'
_symmetry_Int_Tables_number      14
_space_group_name_Hall           '-P 2ybc'
loop_
_symmetry_equiv_pos_site_id
_symmetry_equiv_pos_as_xyz
1 x,y,z
2 -x,1/2+y,1/2-z
3 -x,-y,-z
4 x,1/2-y,1/2+z
_cell_length_a                   12.9028(5)
_cell_length_b                   11.8814(4)
_cell_length_c                   12.6969(3)
_cell_angle_alpha                90
_cell_angle_beta                 104.000(3)
_cell_angle_gamma                90
_cell_volume                     1888.66
_exptl_crystal_colour            colorless
_exptl_crystal_description       block
_cell_formula_units_Z            4
loop_
_atom_site_label
_atom_site_type_symbol
_atom_site_fract_x
_atom_site_fract_y
_atom_site_fract_z
C1 C 0.51674(16) 0.34486(17) 0.56737(15)
H1 H 0.4577 0.3612 0.5046
H2 H 0.5470 0.2709 0.5581
H3 H 0.5721 0.4026 0.5734
C2 C 0.57001(17) 0.3267(2) 0.76846(17)
H4 H 0.6242 0.3845 0.7686
H5 H 0.6009 0.2521 0.7636
H6 H 0.5456 0.3319 0.8356
C3 C 0.42337(17) 0.45815(16) 0.68107(16)
H7 H 0.4060 0.4631 0.7519
H8 H 0.3578 0.4656 0.6233
H9 H 0.4730 0.5187 0.6745
C4 C 0.47521(14) 0.34468(15) 0.67093(13)
C5 C 0.39636(13) 0.24618(13) 0.66329(12)
H10 H 0.4373 0.1746 0.6637
C6 C 0.34440(15) 0.24263(14) 0.75922(12)
H11 H 0.4002 0.2401 0.8282
H12 H 0.3006 0.3110 0.7595
C7 C 0.24530(13) 0.09154(14) 0.83046(12)
H13 H 0.2645 0.1132 0.9047
C8 C 0.17366(13) 0.00420(14) 0.67795(12)
H14 H 0.1325 -0.0481 0.6284
C9 C 0.12171(14) -0.06930(15) 0.84814(14)
C10 C 0.17561(17) -0.06733(18) 0.96899(14)
H15 H 0.2491 -0.0948 0.9804
H16 H 0.1360 -0.1158 1.0080
H17 H 0.1764 0.0099 0.9963
C11 C 0.00794(15) -0.02336(19) 0.82662(16)
H18 H 0.0095 0.0534 0.8553
H19 H -0.0348 -0.0715 0.8625
H20 H -0.0239 -0.0225 0.7483
C12 C 0.12265(19) -0.18800(17) 0.80374(17)
H21 H 0.0849 -0.1889 0.7269
H22 H 0.0870 -0.2391 0.8443
H23 H 0.1966 -0.2125 0.8114
C13 C 0.23323(13) 0.08921(13) 0.65108(12)
C14 C 0.14317(14) 0.16110(15) 0.45333(13)
H24 H 0.1565 0.1953 0.3867
H25 H 0.1066 0.0883 0.4327
C15 C 0.06929(17) 0.23774(18) 0.49702(17)
H26 H 0.0485 0.2006 0.5577
H27 H 0.0054 0.2538 0.4394
H28 H 0.1063 0.3084 0.5222
C16 C 0.33191(15) 0.04940(15) 0.48999(13)
H29 H 0.3559 0.0876 0.4307
H30 H 0.3964 0.0331 0.5483
C17 C 0.28112(19) -0.06209(17) 0.44666(18)
H31 H 0.2569 -0.1014 0.5042
H32 H 0.3338 -0.1086 0.4226
H33 H 0.2200 -0.0481 0.3853
N1 N 0.27665(11) 0.14187(11) 0.74936(10)
N2 N 0.18246(11) 0.00575(11) 0.78909(10)
O1 O 0.31455(9) 0.24885(9) 0.56644(8)
B1 B 0.25716(15) 0.13731(15) 0.53798(13)
loop_
_geom_bond_atom_site_label_1
_geom_bond_atom_site_label_2
_geom_bond_site_symmetry_1
_geom_bond_site_symmetry_2
C1 H1 1_555 1_555
H2 C1 1_555 1_555
H3 C1 1_555 1_555
C2 H4 1_555 1_555
H5 C2 1_555 1_555
H6 C2 1_555 1_555
C3 H7 1_555 1_555
H8 C3 1_555 1_555
H9 C3 1_555 1_555
C4 C1 1_555 1_555
C5 C4 1_555 1_555
H10 C5 1_555 1_555
C6 C5 1_555 1_555
H11 C6 1_555 1_555
H12 C6 1_555 1_555
C7 H13 1_555 1_555
C8 H14 1_555 1_555
C9 C10 1_555 1_555
C10 H15 1_555 1_555
H16 C10 1_555 1_555
H17 C10 1_555 1_555
C11 C9 1_555 1_555
H18 C11 1_555 1_555
H19 C11 1_555 1_555
H20 C11 1_555 1_555
C12 C9 1_555 1_555
H21 C12 1_555 1_555
H22 C12 1_555 1_555
H23 C12 1_555 1_555
C13 C8 1_555 1_555
C14 H24 1_555 1_555
H25 C14 1_555 1_555
C15 C14 1_555 1_555
H26 C15 1_555 1_555
H27 C15 1_555 1_555
H28 C15 1_555 1_555
C16 H29 1_555 1_555
H30 C16 1_555 1_555
C17 C16 1_555 1_555
H31 C17 1_555 1_555
H32 C17 1_555 1_555
H33 C17 1_555 1_555
N1 C6 1_555 1_555
N2 C7 1_555 1_555
O1 C5 1_555 1_555
B1 C13 1_555 1_555
C2 C4 1_555 1_555
C3 C4 1_555 1_555
C7 N1 1_555 1_555
C8 N2 1_555 1_555
C9 N2 1_555 1_555
C13 N1 1_555 1_555
C14 B1 1_555 1_555
C16 B1 1_555 1_555
O1 B1 1_555 1_555

#END
