
#######################################################################
#
#                 Cambridge Crystallographic Data Centre
#                                CCDC 
#
#######################################################################
#
# If this CIF has been generated from an entry in the Cambridge 
# Structural Database, then it will include bibliographic, chemical, 
# crystal, experimental, refinement or atomic coordinate data resulting 
# from the CCDC's data processing and validation procedures.
#
#######################################################################

data_HORNIN
_chemical_formula_moiety         'C13 H27 B1 N2'
_chemical_name_systematic        (1-t-butyl-1H-imidazole)(triethyl)borate
_symmetry_cell_setting           monoclinic
_symmetry_space_group_name_H-M   'P 21/n'
_symmetry_Int_Tables_number      14
_space_group_name_Hall           '-P 2yn'
loop_
_symmetry_equiv_pos_site_id
_symmetry_equiv_pos_as_xyz
1 x,y,z
2 1/2-x,1/2+y,1/2-z
3 -x,-y,-z
4 1/2+x,1/2-y,1/2+z
_cell_length_a                   10.7950(4)
_cell_length_b                   10.2921(4)
_cell_length_c                   13.4612(4)
_cell_angle_alpha                90
_cell_angle_beta                 97.670(3)
_cell_angle_gamma                90
_cell_volume                     1482.2
_exptl_crystal_colour            colorless
_exptl_crystal_description       needle
_cell_formula_units_Z            4
loop_
_atom_site_label
_atom_site_type_symbol
_atom_site_fract_x
_atom_site_fract_y
_atom_site_fract_z
C1 C -0.18329(13) -0.08350(15) 0.14807(11)
C2 C -0.16671(16) -0.20632(16) 0.21098(13)
H1 H -0.0848 -0.2446 0.2055
H2 H -0.2326 -0.2686 0.1868
H3 H -0.1721 -0.1849 0.2812
C3 C -0.16850(19) -0.1136(2) 0.03945(13)
H4 H -0.1791 -0.0337 -0.0003
H5 H -0.2319 -0.1771 0.0125
H6 H -0.0850 -0.1494 0.0363
C4 C 0.00936(13) -0.00105(14) 0.26253(10)
H7 H 0.0246 -0.0776 0.3017
C5 C -0.07369(15) 0.13635(16) 0.14899(12)
H8 H -0.1264 0.1745 0.0946
C6 C 0.02532(15) 0.19274(16) 0.20384(11)
H9 H 0.0545 0.2784 0.1946
C7 C 0.13989(14) 0.25289(17) 0.43005(12)
H10 H 0.2093 0.2835 0.4802
H11 H 0.1129 0.3272 0.3857
C8 C 0.03088(16) 0.2133(2) 0.48515(13)
H12 H 0.0054 0.2877 0.5231
H13 H 0.0569 0.1418 0.5313
H14 H -0.0396 0.1852 0.4364
C9 C 0.22987(15) 0.00632(16) 0.42513(12)
H15 H 0.1534 -0.0312 0.4468
H16 H 0.2631 -0.0574 0.3803
C10 C 0.32735(17) 0.0283(2) 0.51758(14)
H17 H 0.3461 -0.0546 0.5522
H18 H 0.2942 0.0897 0.5631
H19 H 0.4039 0.0638 0.4965
C11 C 0.30637(14) 0.19419(16) 0.30548(12)
H20 H 0.2756 0.2712 0.2655
H21 H 0.3751 0.2236 0.3567
C12 C 0.35991(17) 0.0977(2) 0.23609(14)
H22 H 0.4269 0.1396 0.2053
H23 H 0.2936 0.0696 0.1836
H24 H 0.3935 0.0221 0.2749
C13 C -0.31027(15) -0.02241(18) 0.15662(15)
H25 H -0.3202 0.0568 0.1160
H26 H -0.3154 -0.0008 0.2268
H27 H -0.3767 -0.0841 0.1325
N1 N -0.08415(11) 0.01296(12) 0.18664(8)
N2 N 0.07740(11) 0.10629(12) 0.27537(8)
B1 B 0.19327(15) 0.13958(17) 0.36273(12)
loop_
_geom_bond_atom_site_label_1
_geom_bond_atom_site_label_2
_geom_bond_site_symmetry_1
_geom_bond_site_symmetry_2
C1 C2 1_555 1_555
C2 H1 1_555 1_555
H2 C2 1_555 1_555
H3 C2 1_555 1_555
C3 C1 1_555 1_555
H4 C3 1_555 1_555
H5 C3 1_555 1_555
H6 C3 1_555 1_555
C4 H7 1_555 1_555
C5 H8 1_555 1_555
C6 C5 1_555 1_555
H9 C6 1_555 1_555
C7 H10 1_555 1_555
H11 C7 1_555 1_555
C8 C7 1_555 1_555
H12 C8 1_555 1_555
H13 C8 1_555 1_555
H14 C8 1_555 1_555
C9 H15 1_555 1_555
H16 C9 1_555 1_555
C10 C9 1_555 1_555
H17 C10 1_555 1_555
H18 C10 1_555 1_555
H19 C10 1_555 1_555
C11 H20 1_555 1_555
H21 C11 1_555 1_555
C12 C11 1_555 1_555
H22 C12 1_555 1_555
H23 C12 1_555 1_555
H24 C12 1_555 1_555
C13 C1 1_555 1_555
H25 C13 1_555 1_555
H26 C13 1_555 1_555
H27 C13 1_555 1_555
N1 C1 1_555 1_555
N2 C4 1_555 1_555
B1 C7 1_555 1_555
C4 N1 1_555 1_555
C5 N1 1_555 1_555
C6 N2 1_555 1_555
C9 B1 1_555 1_555
C11 B1 1_555 1_555
N2 B1 1_555 1_555

#END
