
#######################################################################
#
#                 Cambridge Crystallographic Data Centre
#                                CCDC 
#
#######################################################################
#
# If this CIF has been generated from an entry in the Cambridge 
# Structural Database, then it will include bibliographic, chemical, 
# crystal, experimental, refinement or atomic coordinate data resulting 
# from the CCDC's data processing and validation procedures.
#
#######################################################################

data_HORNOS
_chemical_formula_moiety         'C42 H52 N2 O6,C1 H2 Cl2'
_chemical_name_systematic        
"N,N'-bis(5-Ethynyl-2-octyloxybenzoyl)-4,6-dimethoxy-1,3-phenylenediamine dichloromethane solvate"
_symmetry_cell_setting           triclinic
_symmetry_space_group_name_H-M   'P -1'
_symmetry_Int_Tables_number      2
_space_group_name_Hall           '-P 1'
loop_
_symmetry_equiv_pos_site_id
_symmetry_equiv_pos_as_xyz
1 x,y,z
2 -x,-y,-z
_cell_length_a                   11.415(4)
_cell_length_b                   12.505(4)
_cell_length_c                   15.308(5)
_cell_angle_alpha                94.678(7)
_cell_angle_beta                 99.096(7)
_cell_angle_gamma                103.542(6)
_cell_volume                     2081.61
_exptl_crystal_colour            colorless
_chemical_melting_point          '197 deg.C'
_cell_formula_units_Z            2
_exptl_crystal_recrystallization_method dichloromethane/methanol
loop_
_atom_site_label
_atom_site_type_symbol
_atom_site_fract_x
_atom_site_fract_y
_atom_site_fract_z
O1 O 0.5876(2) -0.1177(2) 0.53800(16)
O2 O 0.9984(2) 0.1226(2) 0.62816(17)
O3 O 0.9448(3) 0.1840(2) 0.31920(19)
O4 O 0.6369(3) -0.0034(3) 0.25102(18)
O5 O 1.2290(2) 0.28883(19) 0.53828(17)
O6 O 0.3608(2) -0.21446(19) 0.34354(17)
N1 N 1.0004(3) 0.1721(3) 0.4655(2)
N2 N 0.5816(3) -0.0679(3) 0.3748(2)
C1 C 0.8937(3) 0.0976(3) 0.4821(3)
C2 C 0.8947(4) 0.0721(3) 0.5688(3)
C3 C 0.7936(3) -0.0005(3) 0.5887(2)
H1 H 0.7946 -0.0188 0.6465
C4 C 0.6933(3) -0.0453(3) 0.5248(3)
C5 C 0.6890(3) -0.0192(3) 0.4370(3)
C6 C 0.7923(3) 0.0520(3) 0.4176(2)
H2 H 0.7926 0.0691 0.3596
C7 C 0.5838(4) -0.1426(3) 0.6275(2)
H3 H 0.6423 -0.1847 0.6446
H4 H 0.5031 -0.1850 0.6307
H5 H 0.6036 -0.0748 0.6672
C8 C 1.0089(4) 0.0922(3) 0.7159(3)
H6 H 0.9428 0.1075 0.7425
H7 H 1.0857 0.1340 0.7511
H8 H 1.0052 0.0145 0.7136
C9 C 1.0181(4) 0.2095(3) 0.3868(3)
C10 C 1.1406(3) 0.2899(3) 0.3885(3)
C11 C 1.1506(3) 0.3307(3) 0.3071(3)
H9 H 1.0845 0.3086 0.2599
C12 C 1.2585(4) 0.4045(3) 0.2949(3)
C13 C 1.3560(4) 0.4348(3) 0.3630(3)
H10 H 1.4284 0.4818 0.3546
C14 C 1.3494(3) 0.3970(3) 0.4444(3)
H11 H 1.4167 0.4190 0.4906
C15 C 1.2402(4) 0.3248(3) 0.4576(3)
C16 C 1.2626(4) 0.4470(4) 0.2104(4)
C17 C 1.2687(6) 0.4825(5) 0.1435(5)
C18 C 1.3284(3) 0.3302(3) 0.6121(2)
H12 H 1.3496 0.4106 0.6205
H13 H 1.4000 0.3059 0.6009
C19 C 1.2887(3) 0.2865(3) 0.6933(2)
H14 H 1.2698 0.2062 0.6847
H15 H 1.2147 0.3080 0.7021
C20 C 1.3870(4) 0.3299(3) 0.7758(3)
H16 H 1.4626 0.3137 0.7644
H17 H 1.4013 0.4099 0.7860
C21 C 1.3566(4) 0.2823(4) 0.8594(3)
H18 H 1.2817 0.2995 0.8715
H19 H 1.3415 0.2023 0.8492
C22 C 1.4561(4) 0.3254(4) 0.9402(3)
H20 H 1.4667 0.4047 0.9531
H21 H 1.5325 0.3136 0.9264
C23 C 1.4304(4) 0.2713(4) 1.0228(3)
H22 H 1.3529 0.2816 1.0356
H23 H 1.4216 0.1922 1.0102
C24 C 1.5264(5) 0.3150(4) 1.1030(3)
H24 H 1.5341 0.3937 1.1167
H25 H 1.6042 0.3058 1.0901
C25 C 1.4993(5) 0.2573(4) 1.1850(3)
H26 H 1.4132 0.2425 1.1859
H27 H 1.5443 0.3045 1.2381
H28 H 1.5236 0.1888 1.1822
C26 C 0.5586(4) -0.0581(3) 0.2872(3)
C27 C 0.4383(3) -0.1145(3) 0.2316(3)
C28 C 0.4185(4) -0.0921(3) 0.1446(3)
H29 H 0.4809 -0.0416 0.1264
C29 C 0.3139(4) -0.1385(3) 0.0825(3)
C30 C 0.2214(4) -0.2147(3) 0.1118(3)
H30 H 0.1487 -0.2482 0.0725
C31 C 0.2367(4) -0.2400(3) 0.1970(3)
H31 H 0.1745 -0.2915 0.2145
C32 C 0.3415(3) -0.1913(3) 0.2578(3)
C33 C 0.2978(4) -0.1125(4) -0.0072(3)
C34 C 0.2849(5) -0.0944(5) -0.0799(4)
C35 C 0.2605(3) -0.2887(3) 0.3728(3)
H32 H 0.2420 -0.3616 0.3391
H33 H 0.1877 -0.2607 0.3633
C36 C 0.2981(3) -0.2956(3) 0.4691(2)
H34 H 0.3175 -0.2222 0.5020
H35 H 0.3713 -0.3231 0.4779
C37 C 0.1960(3) -0.3727(3) 0.5050(2)
H36 H 0.1212 -0.3483 0.4918
H37 H 0.1809 -0.4472 0.4749
C38 C 0.2282(3) -0.3745(3) 0.6040(3)
H38 H 0.2420 -0.3000 0.6338
H39 H 0.3042 -0.3970 0.6170
C39 C 0.1297(3) -0.4522(3) 0.6416(3)
H40 H 0.0519 -0.4341 0.6239
H41 H 0.1214 -0.5278 0.6160
C40 C 0.1578(4) -0.4453(3) 0.7417(3)
H42 H 0.1644 -0.3700 0.7670
H43 H 0.2368 -0.4612 0.7591
C41 C 0.0618(4) -0.5248(4) 0.7820(3)
H44 H -0.0177 -0.5102 0.7639
H45 H 0.0566 -0.6005 0.7583
C42 C 0.0914(5) -0.5136(5) 0.8821(3)
H46 H 0.1733 -0.5209 0.9007
H47 H 0.0346 -0.5706 0.9033
H48 H 0.0854 -0.4422 0.9063
H49 H 1.064(3) 0.197(3) 0.513(2)
H50 H 0.515(4) -0.094(3) 0.390(3)
H51 H 1.248(4) 0.492(4) 0.088(3)
H52 H 0.274(3) -0.086(3) -0.135(3)
Cl1 Cl 0.1519(2) 0.07518(19) 0.13692(15)
Cl2 Cl 0.0545(3) 0.2239(4) 0.0569(3)
C43 C 0.0294(8) 0.1180(7) 0.1072(6)
C44? C 0.145(3) 0.097(3) 0.035(3)
Cl3? Cl 0.0843(4) 0.1786(4) -0.0231(3)
loop_
_geom_bond_atom_site_label_1
_geom_bond_atom_site_label_2
_geom_bond_site_symmetry_1
_geom_bond_site_symmetry_2
O1 C4 1_555 1_555
O2 C2 1_555 1_555
O3 C9 1_555 1_555
O4 C26 1_555 1_555
O5 C15 1_555 1_555
O6 C32 1_555 1_555
N1 C1 1_555 1_555
N2 C5 1_555 1_555
Cl1 C43 1_555 1_555
Cl2 C43 1_555 1_555
C1 C2 1_555 1_555
C2 C3 1_555 1_555
C3 H1 1_555 1_555
C4 C3 1_555 1_555
C5 C4 1_555 1_555
C6 C1 1_555 1_555
H2 C6 1_555 1_555
C7 O1 1_555 1_555
H3 C7 1_555 1_555
H4 C7 1_555 1_555
H5 C7 1_555 1_555
C8 O2 1_555 1_555
H6 C8 1_555 1_555
H7 C8 1_555 1_555
H8 C8 1_555 1_555
C9 N1 1_555 1_555
C10 C9 1_555 1_555
C11 C10 1_555 1_555
H9 C11 1_555 1_555
C12 C11 1_555 1_555
C13 C12 1_555 1_555
H10 C13 1_555 1_555
C14 C13 1_555 1_555
H11 C14 1_555 1_555
C15 C10 1_555 1_555
C16 C12 1_555 1_555
C17 C16 1_555 1_555
C18 O5 1_555 1_555
H12 C18 1_555 1_555
H13 C18 1_555 1_555
C19 C18 1_555 1_555
H14 C19 1_555 1_555
H15 C19 1_555 1_555
C20 C19 1_555 1_555
H16 C20 1_555 1_555
H17 C20 1_555 1_555
C21 C20 1_555 1_555
H18 C21 1_555 1_555
H19 C21 1_555 1_555
C22 C21 1_555 1_555
H20 C22 1_555 1_555
H21 C22 1_555 1_555
C23 C22 1_555 1_555
H22 C23 1_555 1_555
H23 C23 1_555 1_555
C24 C23 1_555 1_555
H24 C24 1_555 1_555
H25 C24 1_555 1_555
C25 C24 1_555 1_555
H26 C25 1_555 1_555
H27 C25 1_555 1_555
H28 C25 1_555 1_555
C26 N2 1_555 1_555
C27 C26 1_555 1_555
C28 C27 1_555 1_555
H29 C28 1_555 1_555
C29 C28 1_555 1_555
C30 C29 1_555 1_555
H30 C30 1_555 1_555
C31 C30 1_555 1_555
H31 C31 1_555 1_555
C32 C27 1_555 1_555
C33 C29 1_555 1_555
C34 C33 1_555 1_555
C35 O6 1_555 1_555
H32 C35 1_555 1_555
H33 C35 1_555 1_555
C36 C35 1_555 1_555
H34 C36 1_555 1_555
H35 C36 1_555 1_555
C37 C36 1_555 1_555
H36 C37 1_555 1_555
H37 C37 1_555 1_555
C38 C37 1_555 1_555
H38 C38 1_555 1_555
H39 C38 1_555 1_555
C39 C38 1_555 1_555
H40 C39 1_555 1_555
H41 C39 1_555 1_555
C40 C39 1_555 1_555
H42 C40 1_555 1_555
H43 C40 1_555 1_555
C41 C40 1_555 1_555
H44 C41 1_555 1_555
H45 C41 1_555 1_555
C42 C41 1_555 1_555
H46 C42 1_555 1_555
H47 C42 1_555 1_555
H48 C42 1_555 1_555
H49 N1 1_555 1_555
H50 N2 1_555 1_555
H51 C17 1_555 1_555
H52 C34 1_555 1_555
C5 C6 1_555 1_555
C14 C15 1_555 1_555
C31 C32 1_555 1_555

#END
