
#######################################################################
#
#                 Cambridge Crystallographic Data Centre
#                                CCDC 
#
#######################################################################
#
# If this CIF has been generated from an entry in the Cambridge 
# Structural Database, then it will include bibliographic, chemical, 
# crystal, experimental, refinement or atomic coordinate data resulting 
# from the CCDC's data processing and validation procedures.
#
#######################################################################

data_HORNUZ
_chemical_formula_moiety         'C15 H17 N1 O3 S1'
_chemical_name_systematic        
'3-(allylamino)-2-(methylsulfanyl)-3-oxo-1-phenylprop-1-en-1-yl acetate'
_symmetry_cell_setting           orthorhombic
_symmetry_space_group_name_H-M   'P b c a'
_symmetry_Int_Tables_number      61
_space_group_name_Hall           '-P 2ac 2ab'
loop_
_symmetry_equiv_pos_site_id
_symmetry_equiv_pos_as_xyz
1 x,y,z
2 1/2-x,-y,1/2+z
3 -x,1/2+y,1/2-z
4 1/2+x,1/2-y,-z
5 -x,-y,-z
6 1/2+x,y,1/2-z
7 x,1/2-y,1/2+z
8 1/2-x,1/2+y,z
_cell_length_a                   9.6013(4)
_cell_length_b                   15.5775(6)
_cell_length_c                   20.8542(8)
_cell_angle_alpha                90
_cell_angle_beta                 90
_cell_angle_gamma                90
_cell_volume                     3119.04
_exptl_crystal_colour            white
_exptl_crystal_description       prismatic
_cell_formula_units_Z            8
loop_
_atom_site_label
_atom_site_type_symbol
_atom_site_fract_x
_atom_site_fract_y
_atom_site_fract_z
S1 S 0.36191(7) 0.18517(4) 0.36188(3)
N1 N 0.36644(19) 0.25250(13) 0.52035(9)
O1 O 0.35655(16) 0.42441(10) 0.43181(9)
O2 O 0.1289(2) 0.42653(13) 0.45310(11)
O3 O 0.57509(16) 0.28048(11) 0.47612(9)
C1 C 0.3132(3) 0.4616(2) 0.30075(18)
H1 H 0.3672 0.4994 0.3247
C2 C 0.2685(4) 0.4834(3) 0.2397(2)
H2 H 0.2948 0.5359 0.2223
C3 C 0.1861(5) 0.4290(4) 0.20444(19)
H3 H 0.1582 0.4444 0.1633
C4 C 0.1450(4) 0.3521(3) 0.22986(15)
H4 H 0.0874 0.3156 0.2066
C5 C 0.1901(3) 0.32884(19) 0.29064(13)
H5 H 0.1619 0.2767 0.3080
C6 C 0.2760(2) 0.38205(16) 0.32553(12)
C7 C 0.3339(2) 0.35648(14) 0.38809(11)
C8 C 0.3787(2) 0.27966(14) 0.40724(10)
C9 C 0.4488(2) 0.27118(13) 0.47153(10)
C10 C 0.4200(3) 0.23871(17) 0.58458(11)
H6 H 0.5074 0.2077 0.5818
H7 H 0.3548 0.2031 0.6082
C11 C 0.4433(3) 0.3202(2) 0.62093(13)
H8 H 0.4842 0.3654 0.5987
C12 C 0.4128(4) 0.3336(3) 0.67890(16)
H9 H 0.3717 0.2904 0.7032
H10 H 0.4314 0.3867 0.6974
C13 C 0.2414(3) 0.45470(15) 0.46262(12)
C14 C 0.2767(4) 0.52600(18) 0.50715(17)
H11 H 0.1964 0.5403 0.5325
H12 H 0.3051 0.5753 0.4829
H13 H 0.3512 0.5084 0.5349
C15 C 0.5083(3) 0.12165(19) 0.38713(17)
H14 H 0.5931 0.1497 0.3747
H15 H 0.5036 0.0661 0.3673
H16 H 0.5063 0.1152 0.4329
H17 H 0.2839(17) 0.2473(15) 0.5142(11)
loop_
_geom_bond_atom_site_label_1
_geom_bond_atom_site_label_2
_geom_bond_site_symmetry_1
_geom_bond_site_symmetry_2
S1 C8 1_555 1_555
N1 C9 1_555 1_555
O1 C7 1_555 1_555
O2 C13 1_555 1_555
O3 C9 1_555 1_555
C1 H1 1_555 1_555
C2 C1 1_555 1_555
H2 C2 1_555 1_555
C3 C2 1_555 1_555
H3 C3 1_555 1_555
C4 C3 1_555 1_555
H4 C4 1_555 1_555
C5 C4 1_555 1_555
H5 C5 1_555 1_555
C6 C1 1_555 1_555
C7 C6 1_555 1_555
C8 C7 1_555 1_555
C9 C8 1_555 1_555
C10 N1 1_555 1_555
H6 C10 1_555 1_555
H7 C10 1_555 1_555
C11 C10 1_555 1_555
H8 C11 1_555 1_555
C12 C11 1_555 1_555
H9 C12 1_555 1_555
H10 C12 1_555 1_555
C13 O1 1_555 1_555
C14 C13 1_555 1_555
H11 C14 1_555 1_555
H12 C14 1_555 1_555
H13 C14 1_555 1_555
C15 S1 1_555 1_555
H14 C15 1_555 1_555
H15 C15 1_555 1_555
H16 C15 1_555 1_555
H17 N1 1_555 1_555
C5 C6 1_555 1_555

#END
