
#######################################################################
#
#                 Cambridge Crystallographic Data Centre
#                                CCDC 
#
#######################################################################
#
# If this CIF has been generated from an entry in the Cambridge 
# Structural Database, then it will include bibliographic, chemical, 
# crystal, experimental, refinement or atomic coordinate data resulting 
# from the CCDC's data processing and validation procedures.
#
#######################################################################

data_HORTEP
_chemical_compound_source        'fungal strain Chaetomium globosum'
_chemical_name_common            'Chaetoglobosin Fex'
_chemical_formula_moiety         'C32 H38 N2 O5,C1 H4 O1'
_chemical_name_systematic        
'6,14-dihydroxy-3-(1H-indol-3-ylmethyl)-4,10,12-trimethyl-5-methylene-3,3a,4,5,6,6a,9,10,15,16-decahydro-1H-cyclotrideca[d]isoindole-1,13,17(2H,14H)-trione methanol solvate'
_symmetry_cell_setting           orthorhombic
_symmetry_space_group_name_H-M   'P 21 21 21'
_symmetry_Int_Tables_number      19
_space_group_name_Hall           'P 2ac 2ab'
loop_
_symmetry_equiv_pos_site_id
_symmetry_equiv_pos_as_xyz
1 x,y,z
2 1/2-x,-y,1/2+z
3 1/2+x,1/2-y,-z
4 -x,1/2+y,1/2-z
_cell_length_a                   12.1155(3)
_cell_length_b                   12.4576(3)
_cell_length_c                   20.5469(6)
_cell_angle_alpha                90
_cell_angle_beta                 90
_cell_angle_gamma                90
_cell_volume                     3101.14
_exptl_crystal_colour            colorless
_cell_formula_units_Z            4
loop_
_atom_site_label
_atom_site_type_symbol
_atom_site_fract_x
_atom_site_fract_y
_atom_site_fract_z
O1 O -0.18487(15) -0.23133(14) -0.76135(8)
H1 H -0.2414 -0.2410 -0.7825
O2 O 0.13924(15) -0.05984(15) -0.78904(10)
O3 O 0.13470(15) -0.01309(15) -0.93789(9)
O4 O 0.22841(17) -0.09977(19) -1.09459(11)
H2 H 0.2124 -0.1003 -1.1334
C1 C -0.07290(17) -0.14986(16) -0.84687(10)
H3 H -0.1287 -0.1655 -0.8801
N1 N 0.03983(18) 0.09430(16) -0.79506(9)
H4 H 0.0722 0.1258 -0.7631
O5 O 0.1265(2) -0.27075(16) -1.14903(9)
C2 C 0.06488(19) -0.00496(18) -0.81232(11)
C3 C -0.01674(17) -0.04173(16) -0.86559(10)
C4 C 0.00784(18) -0.24169(17) -0.84652(10)
H5 H 0.0740 -0.2320 -0.8243
C5 C -0.0676(2) 0.26635(17) -0.99265(14)
C6 C -0.10061(18) 0.05348(17) -0.87080(10)
H6 H -0.1058 0.0744 -0.9167
C7 C 0.04376(18) -0.05111(16) -0.93067(11)
C8 C -0.0082(2) -0.33431(17) -0.87527(11)
H7 H -0.0762 -0.3453 -0.8952
C9 C -0.0452(2) 0.14704(18) -0.83297(11)
H8 H -0.0992 0.1800 -0.8036
C10 C -0.01719(19) -0.10289(19) -0.98657(11)
H9 H -0.0901 -0.0713 -0.9899
H10 H -0.0263 -0.1788 -0.9775
C11 C -0.13322(19) -0.13438(17) -0.78195(11)
H11 H -0.0770 -0.1167 -0.7493
C12 C -0.21387(18) -0.03995(18) -0.78422(12)
C13 C -0.0680(2) 0.28581(17) -0.92449(13)
N2 N -0.1976(2) 0.3893(2) -0.97174(15)
H12 H -0.2501 0.4351 -0.9761
C14 C 0.1477(2) -0.15638(18) -1.05917(12)
H13 H 0.1772 -0.1712 -1.0157
C15 C 0.0069(2) 0.2343(2) -0.87637(13)
H14 H 0.0368 0.2899 -0.8484
H15 H 0.0682 0.2025 -0.8998
C16 C 0.1186(2) -0.37192(18) -0.99264(13)
H16 H 0.1717 -0.3236 -0.9782
C17 C 0.0741(2) -0.35145(18) -1.04997(13)
C18 C -0.21709(19) 0.02262(19) -0.84735(12)
H17 H -0.2457 -0.0275 -0.8800
C19 C 0.0933(2) -0.46439(18) -0.94818(13)
H18 H 0.0254 -0.4992 -0.9634
C20 C 0.1180(2) -0.2617(2) -1.09041(12)
C21 C -0.1507(2) 0.3317(2) -1.02135(16)
C22 C 0.0420(2) -0.09002(18) -1.05147(11)
H19 H 0.0604 -0.0148 -1.0572
H20 H -0.0086 -0.1097 -1.0860
C23 C 0.0742(2) -0.42399(18) -0.87858(13)
H21 H 0.0484 -0.4831 -0.8519
H22 H 0.1438 -0.3994 -0.8607
C24 C -0.0032(3) 0.20300(19) -1.03383(14)
H23 H 0.0535 0.1611 -1.0169
C25 C -0.1478(3) 0.3627(2) -0.91414(18)
H24 H -0.1654 0.3922 -0.8739
C26 C -0.2960(3) 0.1177(2) -0.84793(17)
H25 H -0.2773 0.1660 -0.8132
H26 H -0.3703 0.0926 -0.8421
H27 H -0.2902 0.1546 -0.8888
C27 C -0.2783(2) -0.0205(3) -0.73375(15)
H28 H -0.3299 0.0347 -0.7356
H29 H -0.2721 -0.0620 -0.6963
C28 C -0.1085(3) 0.2662(3) -1.12556(17)
H30 H -0.1221 0.2632 -1.1701
C29 C -0.1712(3) 0.3316(3) -1.08796(18)
H31 H -0.2259 0.3748 -1.1060
C30 C 0.1869(3) -0.5465(2) -0.95049(17)
H32 H 0.1949 -0.5730 -0.9941
H33 H 0.1702 -0.6052 -0.9218
H34 H 0.2545 -0.5130 -0.9370
C31 C -0.0239(3) 0.2029(2) -1.09932(16)
H35 H 0.0187 0.1603 -1.1267
C32 C -0.001(2) -0.4254(14) -1.0847(8)
H36 H 0.0135 -0.4977 -1.0708
H37 H 0.0121 -0.4197 -1.1307
H38 H -0.0757 -0.4069 -1.0752
O6 O 0.3085(9) -0.0046(9) -0.7065(5)
H42 H 0.2597 -0.0342 -0.7275
C34 C 0.4013(4) 0.0045(6) -0.7440(3)
H43 H 0.3812 0.0021 -0.7892
H44 H 0.4506 -0.0538 -0.7344
H45 H 0.4373 0.0714 -0.7348
C33? C -0.037(3) -0.405(3) -1.0728(16)
H39? H -0.0328 -0.4814 -1.0654
H40? H -0.0473 -0.3921 -1.1184
H41? H -0.0972 -0.3757 -1.0487
H46? H 0.4022 0.0041 -0.7908
H47? H 0.4105 -0.0675 -0.7282
H48? H 0.4605 0.0486 -0.7282
O7? O 0.3046(10) 0.0439(9) -0.7230(5)
H49? H 0.2539 0.0098 -0.7394
loop_
_geom_bond_atom_site_label_1
_geom_bond_atom_site_label_2
_geom_bond_site_symmetry_1
_geom_bond_site_symmetry_2
O1 H1 1_555 1_555
O2 C2 1_555 1_555
O3 C7 1_555 1_555
O4 H2 1_555 1_555
C1 H3 1_555 1_555
N1 H4 1_555 1_555
O5 C20 1_555 1_555
C2 N1 1_555 1_555
C3 C1 1_555 1_555
C4 C1 1_555 1_555
H5 C4 1_555 1_555
C5 C13 1_555 1_555
C6 C3 1_555 1_555
H6 C6 1_555 1_555
C7 C3 1_555 1_555
C8 C4 1_555 1_555
H7 C8 1_555 1_555
C9 N1 1_555 1_555
H8 C9 1_555 1_555
C10 C7 1_555 1_555
H9 C10 1_555 1_555
H10 C10 1_555 1_555
C11 O1 1_555 1_555
H11 C11 1_555 1_555
C12 C11 1_555 1_555
C13 C15 1_555 1_555
N2 H12 1_555 1_555
C14 O4 1_555 1_555
H13 C14 1_555 1_555
C15 C9 1_555 1_555
H14 C15 1_555 1_555
H15 C15 1_555 1_555
C16 H16 1_555 1_555
C17 C16 1_555 1_555
C18 C6 1_555 1_555
H17 C18 1_555 1_555
C19 C16 1_555 1_555
H18 C19 1_555 1_555
C20 C14 1_555 1_555
C21 C5 1_555 1_555
C22 C10 1_555 1_555
H19 C22 1_555 1_555
H20 C22 1_555 1_555
C23 C8 1_555 1_555
H21 C23 1_555 1_555
H22 C23 1_555 1_555
C24 C5 1_555 1_555
H23 C24 1_555 1_555
C25 C13 1_555 1_555
H24 C25 1_555 1_555
C26 C18 1_555 1_555
H25 C26 1_555 1_555
H26 C26 1_555 1_555
H27 C26 1_555 1_555
C27 C12 1_555 1_555
H28 C27 1_555 1_555
H29 C27 1_555 1_555
C28 H30 1_555 1_555
C29 C21 1_555 1_555
H31 C29 1_555 1_555
C30 C19 1_555 1_555
H32 C30 1_555 1_555
H33 C30 1_555 1_555
H34 C30 1_555 1_555
C31 C24 1_555 1_555
H35 C31 1_555 1_555
C32 C17 1_555 1_555
H36 C32 1_555 1_555
H37 C32 1_555 1_555
H38 C32 1_555 1_555
O6 H42 1_555 1_555
C34 O6 1_555 1_555
H43 C34 1_555 1_555
H44 C34 1_555 1_555
H45 C34 1_555 1_555
C1 C11 1_555 1_555
C2 C3 1_555 1_555
C6 C9 1_555 1_555
C12 C18 1_555 1_555
N2 C21 1_555 1_555
N2 C25 1_555 1_555
C14 C22 1_555 1_555
C17 C20 1_555 1_555
C19 C23 1_555 1_555
C28 C29 1_555 1_555
C28 C31 1_555 1_555

#END
