
#######################################################################
#
#                 Cambridge Crystallographic Data Centre
#                                CCDC 
#
#######################################################################
#
# If this CIF has been generated from an entry in the Cambridge 
# Structural Database, then it will include bibliographic, chemical, 
# crystal, experimental, refinement or atomic coordinate data resulting 
# from the CCDC's data processing and validation procedures.
#
#######################################################################

data_HOSCAV
_chemical_formula_moiety         'C11 H10 Cl1 F1 O2'
_chemical_name_systematic        
2-Chloro-1-(6-fluoro-3,4-dihydro-2H-chromen-2-yl)ethanone
_symmetry_cell_setting           monoclinic
_symmetry_space_group_name_H-M   'P 21/c'
_symmetry_Int_Tables_number      14
_space_group_name_Hall           '-P 2ybc'
loop_
_symmetry_equiv_pos_site_id
_symmetry_equiv_pos_as_xyz
1 x,y,z
2 -x,1/2+y,1/2-z
3 -x,-y,-z
4 x,1/2-y,1/2+z
_cell_length_a                   9.704(3)
_cell_length_b                   9.720(3)
_cell_length_c                   10.804(4)
_cell_angle_alpha                90
_cell_angle_beta                 101.637(7)
_cell_angle_gamma                90
_cell_volume                     998.118
_exptl_crystal_colour            colorless
_exptl_crystal_description       Prism
_cell_formula_units_Z            4
loop_
_atom_site_label
_atom_site_type_symbol
_atom_site_fract_x
_atom_site_fract_y
_atom_site_fract_z
Cl1 Cl 0.29999(8) 0.06003(8) 0.46282(7)
O1 O 0.6337(2) 0.3728(2) 0.50089(17)
F1 F 1.0157(2) 0.7779(2) 0.4805(2)
C1 C 0.7331(3) 0.4738(3) 0.5024(2)
C2 C 0.9201(3) 0.6183(3) 0.6021(3)
H1 H 0.9827 0.6483 0.6738
C3 C 0.8247(3) 0.5141(3) 0.6117(3)
C4 C 0.7381(3) 0.5330(3) 0.3864(3)
H2 H 0.6773 0.5026 0.3137
C5 C 0.8324(3) 0.6361(3) 0.3789(3)
H3 H 0.8355 0.6776 0.3019
C6 C 0.8214(3) 0.4463(3) 0.7360(3)
H4 H 0.9162 0.4203 0.7767
H5 H 0.7865 0.5112 0.7906
C7 C 0.4282(3) 0.1895(3) 0.4699(3)
H6 H 0.4958 0.1617 0.4197
H7 H 0.3834 0.2735 0.4335
C8 C 0.5040(3) 0.2175(3) 0.6024(3)
C9 C 0.9219(3) 0.6765(3) 0.4875(3)
O2 O 0.4794(3) 0.1587(3) 0.6926(2)
C10 C 0.6086(4) 0.3338(5) 0.6206(3)
H8 H 0.5568 0.4116 0.6465
C11 C 0.7298(5) 0.3218(5) 0.7187(4)
H9 H 0.7849 0.2438 0.7006
H10 H 0.6999 0.3028 0.7974
loop_
_geom_bond_atom_site_label_1
_geom_bond_atom_site_label_2
_geom_bond_site_symmetry_1
_geom_bond_site_symmetry_2
Cl1 C7 1_555 1_555
O1 C1 1_555 1_555
F1 C9 1_555 1_555
C1 C3 1_555 1_555
C2 H1 1_555 1_555
C3 C2 1_555 1_555
C4 C1 1_555 1_555
H2 C4 1_555 1_555
C5 C4 1_555 1_555
H3 C5 1_555 1_555
C6 C3 1_555 1_555
H4 C6 1_555 1_555
H5 C6 1_555 1_555
C7 H6 1_555 1_555
H7 C7 1_555 1_555
C8 C7 1_555 1_555
C9 C2 1_555 1_555
O2 C8 1_555 1_555
C10 O1 1_555 1_555
H8 C10 1_555 1_555
C11 C6 1_555 1_555
H9 C11 1_555 1_555
H10 C11 1_555 1_555
C5 C9 1_555 1_555
C8 C10 1_555 1_555
C10 C11 1_555 1_555

#END
