
#######################################################################
#
#                 Cambridge Crystallographic Data Centre
#                                CCDC 
#
#######################################################################
#
# If this CIF has been generated from an entry in the Cambridge 
# Structural Database, then it will include bibliographic, chemical, 
# crystal, experimental, refinement or atomic coordinate data resulting 
# from the CCDC's data processing and validation procedures.
#
#######################################################################

data_HOSCIC
_chemical_formula_moiety         'C29 H22 N2 O2'
_chemical_name_systematic        
2-Benzyl-1-(4-nitrophenyl)-3,5-diphenyl-1H-pyrrole
_symmetry_cell_setting           monoclinic
_symmetry_space_group_name_H-M   'C 2/c'
_symmetry_Int_Tables_number      15
_space_group_name_Hall           '-C 2yn'
loop_
_symmetry_equiv_pos_site_id
_symmetry_equiv_pos_as_xyz
1 x,y,z
2 -x,y,1/2-z
3 1/2+x,1/2+y,z
4 1/2-x,1/2+y,1/2-z
5 -x,-y,-z
6 x,-y,1/2+z
7 1/2-x,1/2-y,-z
8 1/2+x,1/2-y,1/2+z
_cell_length_a                   29.049(3)
_cell_length_b                   9.2550(9)
_cell_length_c                   21.089(2)
_cell_angle_alpha                90
_cell_angle_beta                 126.526(2)
_cell_angle_gamma                90
_cell_volume                     4556.13
_exptl_crystal_colour            yellow
_exptl_crystal_description       prismatic
_cell_formula_units_Z            8
loop_
_atom_site_label
_atom_site_type_symbol
_atom_site_fract_x
_atom_site_fract_y
_atom_site_fract_z
O1 O 0.08404(9) -0.60433(19) 0.37593(12)
O2 O 0.06493(8) -0.48407(19) 0.27534(11)
N1 N 0.06482(6) 0.02667(15) 0.47056(8)
N2 N 0.07380(8) -0.4923(2) 0.33957(15)
C1 C 0.01883(7) 0.1212(2) 0.42763(11)
C2 C 0.03493(7) 0.2475(2) 0.46804(10)
H1 H 0.0120 0.3292 0.4534
C3 C 0.09255(7) 0.23487(19) 0.53647(10)
C4 C 0.11013(7) 0.0974(2) 0.53711(10)
C5 C 0.16533(7) 0.0223(2) 0.59573(10)
H2 H 0.1568 -0.0708 0.6076
H3 H 0.1862 0.0783 0.6441
C6 C 0.20402(7) -0.0022(2) 0.57108(10)
C7 C 0.24440(9) -0.1102(2) 0.60607(13)
H4 H 0.2468 -0.1699 0.6434
C8 C 0.28146(11) -0.1307(3) 0.58612(17)
H5 H 0.3089 -0.2034 0.6105
C9 C 0.27812(10) -0.0454(3) 0.53119(17)
H6 H 0.3027 -0.0612 0.5173
C10 C 0.23919(9) 0.0624(2) 0.49665(12)
H7 H 0.2375 0.1224 0.4599
C11 C 0.20195(8) 0.0830(2) 0.51627(11)
H8 H 0.1748 0.1565 0.4917
C12 C -0.03587(7) 0.07979(19) 0.35366(10)
C13 C -0.06116(8) 0.16891(19) 0.28833(11)
H9 H -0.0426 0.2530 0.2908
C14 C -0.11361(9) 0.1340(2) 0.21957(11)
H10 H -0.1306 0.1959 0.1764
C15 C -0.14094(8) 0.0087(2) 0.21434(12)
H11 H -0.1760 -0.0153 0.1676
C16 C -0.11604(9) -0.0807(2) 0.27866(12)
H12 H -0.1345 -0.1654 0.2756
C17 C -0.06387(8) -0.0458(2) 0.34767(12)
H13 H -0.0473 -0.1076 0.3908
C18 C 0.12480(8) 0.3498(2) 0.59508(10)
C19 C 0.09919(9) 0.4340(2) 0.61970(11)
H14 H 0.0614 0.4152 0.6002
C20 C 0.12805(11) 0.5457(2) 0.67261(13)
H15 H 0.1097 0.6006 0.6884
C21 C 0.18367(12) 0.5761(3) 0.70205(13)
H16 H 0.2032 0.6520 0.7372
C22 C 0.20966(10) 0.4934(3) 0.67887(13)
H17 H 0.2476 0.5122 0.6992
C23 C 0.18108(9) 0.3822(2) 0.62575(11)
H18 H 0.1998 0.3280 0.6103
C24 C 0.06862(7) -0.1061(2) 0.43983(10)
C25 C 0.06498(7) -0.1026(2) 0.37145(10)
H19 H 0.0614 -0.0146 0.3476
C26 C 0.06670(7) -0.2292(2) 0.33850(11)
H20 H 0.0638 -0.2279 0.2921
C27 C 0.07278(8) -0.3574(2) 0.37558(12)
C28 C 0.07723(8) -0.3633(2) 0.44376(12)
H21 H 0.0818 -0.4514 0.4681
C29 C 0.07485(7) -0.2362(2) 0.47598(11)
H22 H 0.0775 -0.2384 0.5221
loop_
_geom_bond_atom_site_label_1
_geom_bond_atom_site_label_2
_geom_bond_site_symmetry_1
_geom_bond_site_symmetry_2
O1 N2 1_555 1_555
O2 N2 1_555 1_555
N1 C1 1_555 1_555
N2 C27 1_555 1_555
C1 C2 1_555 1_555
C2 H1 1_555 1_555
C3 C2 1_555 1_555
C4 N1 1_555 1_555
C5 C4 1_555 1_555
H2 C5 1_555 1_555
H3 C5 1_555 1_555
C6 C5 1_555 1_555
C7 C6 1_555 1_555
H4 C7 1_555 1_555
C8 C7 1_555 1_555
H5 C8 1_555 1_555
C9 C8 1_555 1_555
H6 C9 1_555 1_555
C10 C9 1_555 1_555
H7 C10 1_555 1_555
C11 C6 1_555 1_555
H8 C11 1_555 1_555
C12 C1 1_555 1_555
C13 C12 1_555 1_555
H9 C13 1_555 1_555
C14 C13 1_555 1_555
H10 C14 1_555 1_555
C15 C14 1_555 1_555
H11 C15 1_555 1_555
C16 C15 1_555 1_555
H12 C16 1_555 1_555
C17 C12 1_555 1_555
H13 C17 1_555 1_555
C18 C3 1_555 1_555
C19 C18 1_555 1_555
H14 C19 1_555 1_555
C20 C19 1_555 1_555
H15 C20 1_555 1_555
C21 C20 1_555 1_555
H16 C21 1_555 1_555
C22 C21 1_555 1_555
H17 C22 1_555 1_555
C23 C18 1_555 1_555
H18 C23 1_555 1_555
C24 N1 1_555 1_555
C25 C24 1_555 1_555
H19 C25 1_555 1_555
C26 C25 1_555 1_555
H20 C26 1_555 1_555
C27 C26 1_555 1_555
C28 C27 1_555 1_555
H21 C28 1_555 1_555
C29 C24 1_555 1_555
H22 C29 1_555 1_555
C3 C4 1_555 1_555
C10 C11 1_555 1_555
C16 C17 1_555 1_555
C22 C23 1_555 1_555
C28 C29 1_555 1_555

#END
