
#######################################################################
#
#                 Cambridge Crystallographic Data Centre
#                                CCDC 
#
#######################################################################
#
# If this CIF has been generated from an entry in the Cambridge 
# Structural Database, then it will include bibliographic, chemical, 
# crystal, experimental, refinement or atomic coordinate data resulting 
# from the CCDC's data processing and validation procedures.
#
#######################################################################

data_HOSLAC
_chemical_formula_moiety         'C19 H21 F3 N2 O5'
_chemical_name_systematic        
"Diethyl 2,2,2-trifluoro-1-(3'-indolyl)ethylacetamidomalonate"
_symmetry_cell_setting           monoclinic
_symmetry_space_group_name_H-M   'P 21/c'
_symmetry_Int_Tables_number      14
_space_group_name_Hall           '-P 2ybc'
loop_
_symmetry_equiv_pos_site_id
_symmetry_equiv_pos_as_xyz
1 x,y,z
2 -x,1/2+y,1/2-z
3 -x,-y,-z
4 x,1/2-y,1/2+z
_cell_length_a                   7.626(4)
_cell_length_b                   17.515(4)
_cell_length_c                   15.066(3)
_cell_angle_alpha                90
_cell_angle_beta                 101.02(3)
_cell_angle_gamma                90
_cell_volume                     1975.25
_exptl_crystal_colour            colorless
_exptl_crystal_description       needle
_chemical_melting_point          162-163deg.C
_cell_formula_units_Z            4
loop_
_atom_site_label
_atom_site_type_symbol
_atom_site_fract_x
_atom_site_fract_y
_atom_site_fract_z
F1 F 1.0651(2) 0.1303(1) 0.9777(1)
F2 F 1.0174(2) 0.2438(1) 0.9256(1)
F3 F 0.9487(2) 0.2134(1) 1.05259(10)
O1 O 0.6020(3) 0.1898(1) 1.0716(1)
O2 O 0.4314(2) 0.2840(1) 1.0003(1)
O3 O 0.3596(2) 0.2065(2) 0.7868(1)
O4 O 0.4152(2) 0.11011(9) 0.8863(1)
O5 O 0.7774(3) 0.3522(1) 0.9907(1)
N1 N 0.8255(3) 0.1292(1) 0.6824(1)
N2 N 0.6310(3) 0.2885(1) 0.8692(1)
C1 C 0.8157(4) 0.1755(2) 0.7544(2)
C2 C 0.7847(3) 0.1326(1) 0.8255(1)
C3 C 0.7730(3) 0.0546(1) 0.7956(2)
C4 C 0.7985(3) 0.0552(2) 0.7055(2)
C5 C 0.7978(4) -0.0118(2) 0.6551(2)
C6 C 0.7741(5) -0.0814(2) 0.6965(2)
C7 C 0.7491(5) -0.0814(2) 0.7858(2)
C8 C 0.7474(4) -0.0155(2) 0.8355(2)
C9 C 0.7673(3) 0.1604(1) 0.9186(2)
C10 C 0.9477(4) 0.1882(2) 0.9684(2)
C11 C 0.6072(3) 0.2169(1) 0.9137(1)
C12 C 0.5514(3) 0.2286(1) 1.0066(1)
C13 C 0.3682(4) 0.3016(2) 1.0838(2)
C14 C 0.2636(6) 0.3741(2) 1.0676(2)
C15 C 0.4450(3) 0.1779(1) 0.8535(1)
C16 C 0.2750(4) 0.0640(2) 0.8313(2)
C17 C 0.2541(6) -0.0072(2) 0.8817(3)
C18 C 0.7111(3) 0.3512(1) 0.9108(2)
C19 C 0.7145(6) 0.4190(2) 0.8496(3)
H1 H 0.837(3) 0.143(2) 0.630(2)
H2 H 0.830(3) 0.228(2) 0.751(2)
H3 H 0.816(3) -0.008(2) 0.595(2)
H4 H 0.774(4) -0.124(2) 0.665(2)
H5 H 0.743(4) -0.129(2) 0.813(2)
H6 H 0.727(3) -0.018(1) 0.897(2)
H7 H 0.737(3) 0.118(1) 0.953(1)
H8 H 0.472(3) 0.306(1) 1.130(2)
H9 H 0.291(4) 0.256(2) 1.096(2)
H10 H 0.350(5) 0.413(2) 1.060(2)
H11 H 0.221(4) 0.386(2) 1.124(2)
H12 H 0.164(5) 0.369(2) 1.015(2)
H13 H 0.162(4) 0.094(1) 0.817(2)
H14 H 0.317(3) 0.056(2) 0.773(2)
H15 H 0.158(4) -0.041(2) 0.848(2)
H16 H 0.219(4) 0.04(2) 0.938(2)
H17 H 0.357(4) -0.034(2) 0.893(2)
H18 H 0.690(6) 0.406(3) 0.786(3)
H19 H 0.628(6) 0.449(3) 0.858(3)
H20 H 0.816(6) 0.442(2) 0.861(3)
H21 H 0.570(3) 0.292(1) 0.819(2)
loop_
_geom_bond_atom_site_label_1
_geom_bond_atom_site_label_2
_geom_bond_site_symmetry_1
_geom_bond_site_symmetry_2
F1 C10 1_555 1_555
F2 C10 1_555 1_555
F3 C10 1_555 1_555
O1 C12 1_555 1_555
O2 C12 1_555 1_555
O3 C15 1_555 1_555
O4 C15 1_555 1_555
O5 C18 1_555 1_555
N1 C1 1_555 1_555
N2 C11 1_555 1_555
C1 C2 1_555 1_555
C2 C3 1_555 1_555
C3 C4 1_555 1_555
C4 N1 1_555 1_555
C5 C4 1_555 1_555
C6 C5 1_555 1_555
C7 C6 1_555 1_555
C8 C3 1_555 1_555
C9 C2 1_555 1_555
C10 C9 1_555 1_555
C11 C9 1_555 1_555
C12 C11 1_555 1_555
C13 O2 1_555 1_555
C14 C13 1_555 1_555
C15 C11 1_555 1_555
C16 O4 1_555 1_555
C17 C16 1_555 1_555
C18 N2 1_555 1_555
C19 C18 1_555 1_555
H1 N1 1_555 1_555
H2 C1 1_555 1_555
H3 C5 1_555 1_555
H4 C6 1_555 1_555
H5 C7 1_555 1_555
H6 C8 1_555 1_555
H7 C9 1_555 1_555
H8 C13 1_555 1_555
H9 C13 1_555 1_555
H10 C14 1_555 1_555
H11 C14 1_555 1_555
H12 C14 1_555 1_555
H13 C16 1_555 1_555
H14 C16 1_555 1_555
H15 C17 1_555 1_555
H16 C17 1_555 1_555
H17 C17 1_555 1_555
H18 C19 1_555 1_555
H19 C19 1_555 1_555
H20 C19 1_555 1_555
H21 N2 1_555 1_555
C7 C8 1_555 1_555

#END
