
#######################################################################
#
#                 Cambridge Crystallographic Data Centre
#                                CCDC 
#
#######################################################################
#
# If this CIF has been generated from an entry in the Cambridge 
# Structural Database, then it will include bibliographic, chemical, 
# crystal, experimental, refinement or atomic coordinate data resulting 
# from the CCDC's data processing and validation procedures.
#
#######################################################################

data_HOSZUL
_chemical_formula_moiety         'C23 H20 N2 O3 S2'
_chemical_name_systematic        
N-((3-(Phenylsulfanyl)-1-(phenylsulfonyl)-1H-indol-2-yl)methyl)acetamide
_symmetry_cell_setting           triclinic
_symmetry_space_group_name_H-M   'P -1'
_symmetry_Int_Tables_number      2
_space_group_name_Hall           '-P 1'
loop_
_symmetry_equiv_pos_site_id
_symmetry_equiv_pos_as_xyz
1 x,y,z
2 -x,-y,-z
_cell_length_a                   8.8129(2)
_cell_length_b                   10.8880(3)
_cell_length_c                   11.3711(3)
_cell_angle_alpha                86.6980(10)
_cell_angle_beta                 76.4940(10)
_cell_angle_gamma                83.3170(10)
_cell_volume                     1053.21
_exptl_crystal_colour            colorless
_exptl_crystal_description       block
_cell_formula_units_Z            2
_exptl_crystal_recrystallization_method methanol
loop_
_atom_site_label
_atom_site_type_symbol
_atom_site_fract_x
_atom_site_fract_y
_atom_site_fract_z
C1 C 0.80217(15) 0.18662(12) 0.83970(11)
C2 C 0.79544(18) 0.07935(15) 0.91125(14)
H1 H 0.8532 0.0644 0.9703
C3 C 0.6993(2) -0.00414(16) 0.89092(17)
H2 H 0.6929 -0.0775 0.9370
C4 C 0.6116(2) 0.01768(16) 0.80390(17)
H3 H 0.5467 -0.0404 0.7937
C5 C 0.61930(18) 0.12411(15) 0.73246(14)
H4 H 0.5611 0.1385 0.6736
C6 C 0.71616(15) 0.20927(12) 0.75069(11)
C7 C 0.74318(15) 0.33121(12) 0.69884(11)
C8 C 0.83792(15) 0.38163(12) 0.75660(11)
C9 C 0.87341(16) 0.51288(13) 0.75136(13)
H5 H 0.9854 0.5152 0.7415
H6 H 0.8427 0.5560 0.6822
C10 C 0.64041(17) 0.62259(15) 0.87510(15)
C11 C 0.5609(2) 0.66919(19) 0.99829(18)
H7 H 0.4948 0.7443 0.9901
H8 H 0.6387 0.6850 1.0405
H9 H 0.4982 0.6081 1.0430
C12 C 1.17375(14) 0.22315(13) 0.72453(12)
C13 C 1.23409(17) 0.30613(15) 0.63391(14)
H10 H 1.2222 0.3904 0.6477
C14 C 1.31247(19) 0.26126(19) 0.52229(16)
H11 H 1.3537 0.3157 0.4601
C15 C 1.3295(2) 0.1370(2) 0.50313(16)
H12 H 1.3821 0.1075 0.4277
C16 C 1.2700(2) 0.05551(18) 0.59387(19)
H13 H 1.2830 -0.0288 0.5798
C17 C 1.19143(19) 0.09758(15) 0.70519(16)
H14 H 1.1506 0.0425 0.7669
C18 C 0.76928(15) 0.32193(12) 0.45609(11)
C19 C 0.90885(16) 0.24822(14) 0.45385(12)
H15 H 0.9484 0.2367 0.5232
C20 C 0.98919(19) 0.19193(16) 0.34812(14)
H16 H 1.0825 0.1418 0.3468
C21 C 0.9327(2) 0.20926(16) 0.24488(14)
H17 H 0.9882 0.1719 0.1738
C22 C 0.7938(2) 0.28199(17) 0.24709(13)
H18 H 0.7551 0.2934 0.1774
C23 C 0.71127(17) 0.33808(15) 0.35210(13)
H19 H 0.6169 0.3867 0.3533
N1 N 0.87779(12) 0.29375(10) 0.84621(9)
N2 N 0.78974(13) 0.57402(11) 0.86117(11)
H20 H 0.8371 0.5792 0.9185
O1 O 1.06998(14) 0.18125(12) 0.95384(10)
O2 O 1.09978(14) 0.39630(11) 0.88318(11)
O3 O 0.57273(17) 0.62503(18) 0.79379(14)
S1 S 1.06294(4) 0.27656(3) 0.86411(3)
S2 S 0.65950(4) 0.40353(3) 0.58434(3)
loop_
_geom_bond_atom_site_label_1
_geom_bond_atom_site_label_2
_geom_bond_site_symmetry_1
_geom_bond_site_symmetry_2
C1 C2 1_555 1_555
C2 H1 1_555 1_555
C3 C2 1_555 1_555
H2 C3 1_555 1_555
C4 C3 1_555 1_555
H3 C4 1_555 1_555
C5 C4 1_555 1_555
H4 C5 1_555 1_555
C6 C1 1_555 1_555
C7 C6 1_555 1_555
C8 C7 1_555 1_555
C9 C8 1_555 1_555
H5 C9 1_555 1_555
H6 C9 1_555 1_555
C10 C11 1_555 1_555
C11 H7 1_555 1_555
H8 C11 1_555 1_555
H9 C11 1_555 1_555
C12 C13 1_555 1_555
C13 H10 1_555 1_555
C14 C13 1_555 1_555
H11 C14 1_555 1_555
C15 C14 1_555 1_555
H12 C15 1_555 1_555
C16 C15 1_555 1_555
H13 C16 1_555 1_555
C17 C12 1_555 1_555
H14 C17 1_555 1_555
C18 C19 1_555 1_555
C19 H15 1_555 1_555
C20 C19 1_555 1_555
H16 C20 1_555 1_555
C21 C20 1_555 1_555
H17 C21 1_555 1_555
C22 C21 1_555 1_555
H18 C22 1_555 1_555
C23 C18 1_555 1_555
H19 C23 1_555 1_555
N1 C1 1_555 1_555
N2 C9 1_555 1_555
H20 N2 1_555 1_555
O1 S1 1_555 1_555
O2 S1 1_555 1_555
O3 C10 1_555 1_555
S1 C12 1_555 1_555
S2 C7 1_555 1_555
C5 C6 1_555 1_555
C8 N1 1_555 1_555
C10 N2 1_555 1_555
C16 C17 1_555 1_555
C18 S2 1_555 1_555
C22 C23 1_555 1_555
N1 S1 1_555 1_555

#END
