
#######################################################################
#
#                 Cambridge Crystallographic Data Centre
#                                CCDC 
#
#######################################################################
#
# If this CIF has been generated from an entry in the Cambridge 
# Structural Database, then it will include bibliographic, chemical, 
# crystal, experimental, refinement or atomic coordinate data resulting 
# from the CCDC's data processing and validation procedures.
#
#######################################################################

data_HOTAUR11
_chemical_formula_moiety         'C3 H9 N1 O3 S1'
_chemical_name_systematic        3-Ammoniopropane-1-sulfonate
_symmetry_cell_setting           orthorhombic
_symmetry_space_group_name_H-M   'P m n 21'
_symmetry_Int_Tables_number      31
_space_group_name_Hall           'P 2ac -2'
loop_
_symmetry_equiv_pos_site_id
_symmetry_equiv_pos_as_xyz
1 x,y,z
2 1/2-x,-y,1/2+z
3 1/2+x,-y,1/2+z
4 -x,y,z
_cell_length_a                   7.0590
_cell_length_b                   5.4920
_cell_length_c                   7.4280
_cell_angle_alpha                90
_cell_angle_beta                 90
_cell_angle_gamma                90
_cell_volume                     287.969
_cell_formula_units_Z            2
loop_
_atom_site_label
_atom_site_type_symbol
_atom_site_fract_x
_atom_site_fract_y
_atom_site_fract_z
H1 H -0.12050 0.64886 0.77767
H2 H -0.12627 0.21157 0.77763
H3 H -0.12498 0.44391 0.48813
H4 H -0.12611 -0.01596 0.47271
O1 O -0.17130 0.25490 0.15150
H5 H 0.00000 0.54093 0.95765
C1 C 0.00000 0.30920 0.73100
C2 C 0.00000 0.33860 0.52910
C3 C 0.00000 0.09080 0.43620
N1 N 0.00000 0.55230 0.81870
O2 O 0.00000 -0.12600 0.12690
S1 S 0.00000 0.11780 0.20000
H1C H 0.12050 0.64886 0.77767
H2C H 0.12627 0.21157 0.77763
H3C H 0.12498 0.44391 0.48813
H4C H 0.12611 -0.01596 0.47271
O1C O 0.17130 0.25490 0.15150
loop_
_geom_bond_atom_site_label_1
_geom_bond_atom_site_label_2
_geom_bond_site_symmetry_1
_geom_bond_site_symmetry_2
H1 N1 1_555 1_555
H2 C1 1_555 1_555
H3 C2 1_555 1_555
H4 C3 1_555 1_555
O1 S1 1_555 1_555
H5 N1 1_555 1_555
C1 C2 1_555 1_555
C2 C3 1_555 1_555
C3 S1 1_555 1_555
N1 C1 1_555 1_555
O2 S1 1_555 1_555
S1 O1C 1_555 1_555
H1C N1 1_555 1_555
H2C C1 1_555 1_555
H3C C2 1_555 1_555
H4C C3 1_555 1_555

#END
