
#######################################################################
#
#                 Cambridge Crystallographic Data Centre
#                                CCDC 
#
#######################################################################
#
# If this CIF has been generated from an entry in the Cambridge 
# Structural Database, then it will include bibliographic, chemical, 
# crystal, experimental, refinement or atomic coordinate data resulting 
# from the CCDC's data processing and validation procedures.
#
#######################################################################

data_HOTCOK
_chemical_formula_moiety         'C69 H81 N9 O9,4(C2 H6 O1 S1)'
_chemical_name_systematic        
"N,N',N''-tris(4-(((4-(hexyloxy)phenyl)carbamoyl)amino)phenyl)-N,N',N''-trimethylbenzene-1,3,5-tricarboxamide dimethyl sulfoxide solvate"
_symmetry_cell_setting           monoclinic
_symmetry_space_group_name_H-M   'P 21/c'
_symmetry_Int_Tables_number      14
_space_group_name_Hall           '-P 2ybc'
loop_
_symmetry_equiv_pos_site_id
_symmetry_equiv_pos_as_xyz
1 x,y,z
2 -x,1/2+y,1/2-z
3 -x,-y,-z
4 x,1/2-y,1/2+z
_cell_length_a                   33.454(7)
_cell_length_b                   10.009(2)
_cell_length_c                   25.229(5)
_cell_angle_alpha                90
_cell_angle_beta                 95.31(3)
_cell_angle_gamma                90
_cell_volume                     8411.45
_exptl_crystal_colour            colorless
_exptl_crystal_description       Block
_cell_formula_units_Z            4
loop_
_atom_site_label
_atom_site_type_symbol
_atom_site_fract_x
_atom_site_fract_y
_atom_site_fract_z
N1 N 0.07337(6) 0.8481(2) 0.39327(8)
N2 N 0.23008(6) 0.7926(2) 0.49454(8)
H1 H 0.2407 0.8694 0.4987
N3 N 0.28247(6) 0.7037(2) 0.54782(8)
H2 H 0.2955 0.7681 0.5330
N4 N 0.15917(6) 1.36285(19) 0.30370(8)
N5 N 0.19946(6) 1.2501(2) 0.51994(7)
H3 H 0.1837 1.2936 0.5386
N6 N 0.22778(6) 1.1896(2) 0.60104(8)
H4 H 0.2095 1.2387 0.6101
N7 N 0.20660(6) 0.8104(2) 0.22402(7)
N8 N 0.30620(6) 1.02168(19) 0.39657(8)
H5 H 0.3112 1.1044 0.3945
N9 N 0.34223(6) 1.03999(19) 0.47743(8)
H6 H 0.3383 1.1267 0.4727
O1 O 0.02881(5) 0.9570(2) 0.33613(8)
O2 O 0.22265(6) 0.59306(19) 0.53653(8)
O3 O 0.36909(5) 0.41947(16) 0.71095(6)
O4 O 0.13764(7) 1.31626(19) 0.21851(7)
O5 O 0.25137(5) 1.09747(17) 0.52614(6)
O6 O 0.31518(5) 0.95447(18) 0.77564(6)
O7 O 0.14438(5) 0.73315(16) 0.19566(6)
O8 O 0.31861(5) 0.83660(18) 0.44864(7)
O9 O 0.45103(5) 0.88350(19) 0.64776(7)
C1 C 0.10568(7) 1.1010(2) 0.31112(8)
H7 H 0.0911 1.1673 0.3281
C2 C 0.09711(7) 0.9657(2) 0.31791(8)
C3 C 0.11750(7) 0.8684(2) 0.29165(8)
H8 H 0.1110 0.7766 0.2954
C4 C 0.14743(7) 0.9061(2) 0.25983(8)
C5 C 0.15682(7) 1.0398(2) 0.25454(8)
H9 H 0.1779 1.0649 0.2337
C6 C 0.13564(7) 1.1380(2) 0.27948(8)
C7 C 0.06341(7) 0.9250(2) 0.35012(9)
C8 C 0.04202(8) 0.7899(3) 0.42312(11)
H10 H 0.0156 0.8139 0.4058
H11 H 0.0447 0.8246 0.4596
H12 H 0.0448 0.6925 0.4239
C9 C 0.11421(7) 0.8328(2) 0.41646(8)
C10 C 0.13613(8) 0.9429(3) 0.43503(9)
H13 H 0.1251 1.0300 0.4303
C11 C 0.17402(8) 0.9265(2) 0.46046(9)
H14 H 0.1888 1.0028 0.4732
C12 C 0.19098(7) 0.8012(2) 0.46788(8)
C13 C 0.16949(8) 0.6904(2) 0.44758(9)
H15 H 0.1811 0.6039 0.4508
C14 C 0.13119(8) 0.7067(3) 0.42267(10)
H16 H 0.1164 0.6306 0.4097
C15 C 0.24339(7) 0.6890(2) 0.52716(9)
C16 C 0.30298(7) 0.6258(2) 0.58840(9)
C17 C 0.33744(7) 0.6792(2) 0.61592(9)
H17 H 0.3463 0.7656 0.6068
C18 C 0.35886(7) 0.6089(2) 0.65615(9)
H18 H 0.3823 0.6470 0.6743
C19 C 0.34631(7) 0.4826(2) 0.67009(9)
C20 C 0.31231(7) 0.4273(2) 0.64253(9)
H19 H 0.3038 0.3404 0.6515
C21 C 0.29068(8) 0.4984(3) 0.60188(10)
H20 H 0.2675 0.4598 0.5833
C22 C 0.35988(8) 0.2818(2) 0.72004(10)
H21 H 0.3601 0.2307 0.6865
H22 H 0.3328 0.2742 0.7327
C23 C 0.39108(8) 0.2262(3) 0.76149(10)
H23 H 0.4181 0.2452 0.7502
H24 H 0.3880 0.1279 0.7627
C24 C 0.38888(8) 0.2816(3) 0.81716(10)
H25 H 0.3626 0.2574 0.8296
H26 H 0.3904 0.3803 0.8158
C25 C 0.42216(8) 0.2299(3) 0.85693(10)
H27 H 0.4210 0.1311 0.8574
H28 H 0.4484 0.2561 0.8448
C26 C 0.41988(9) 0.2813(3) 0.91310(10)
H29 H 0.3949 0.2475 0.9266
H30 H 0.4182 0.3800 0.9121
C27 C 0.45534(11) 0.2407(4) 0.95181(13)
H31 H 0.4519 0.2771 0.9871
H32 H 0.4802 0.2757 0.9394
H33 H 0.4568 0.1430 0.9539
C28 C 0.14365(7) 1.2804(2) 0.26517(9)
C29 C 0.16533(10) 1.5044(3) 0.29141(11)
H34 H 0.1552 1.5221 0.2544
H35 H 0.1940 1.5253 0.2965
H36 H 0.1508 1.5602 0.3152
C30 C 0.16904(7) 1.3229(2) 0.35818(9)
C31 C 0.14305(7) 1.3556(2) 0.39571(9)
H37 H 0.1180 1.3967 0.3851
C32 C 0.15387(7) 1.3277(2) 0.44908(9)
H38 H 0.1360 1.3498 0.4750
C33 C 0.19072(7) 1.2677(2) 0.46497(9)
C34 C 0.21634(7) 1.2316(2) 0.42669(9)
H39 H 0.2412 1.1886 0.4370
C35 C 0.20525(7) 1.2589(2) 0.37345(9)
H40 H 0.2225 1.2338 0.3472
C36 C 0.22831(7) 1.1730(2) 0.54701(9)
C37 C 0.25080(7) 1.1247(2) 0.64242(9)
C38 C 0.28297(7) 1.0405(2) 0.63519(9)
H41 H 0.2901 1.0227 0.6003
C39 C 0.30487(8) 0.9822(2) 0.67904(9)
H42 H 0.3266 0.9244 0.6736
C40 C 0.29523(7) 1.0077(2) 0.73018(9)
C41 C 0.26319(8) 1.0928(3) 0.73751(9)
H43 H 0.2564 1.1116 0.7725
C42 C 0.24137(7) 1.1496(3) 0.69431(9)
H44 H 0.2195 1.2069 0.6999
C43 C 0.34370(8) 0.8519(3) 0.76853(10)
H45 H 0.3641 0.8841 0.7455
H46 H 0.3301 0.7730 0.7514
C44 C 0.36335(8) 0.8151(3) 0.82244(10)
H47 H 0.3432 0.7727 0.8435
H48 H 0.3730 0.8974 0.8413
C45 C 0.39855(8) 0.7198(3) 0.81911(11)
H49 H 0.4173 0.7579 0.7949
H50 H 0.3885 0.6338 0.8038
C46 C 0.42121(9) 0.6944(3) 0.87341(12)
H51 H 0.4273 0.7815 0.8909
H52 H 0.4034 0.6445 0.8957
C47 C 0.45977(9) 0.6177(3) 0.87184(13)
H53 H 0.4766 0.6621 0.8468
H54 H 0.4536 0.5265 0.8583
C48 C 0.48340(10) 0.6081(4) 0.92682(15)
H55 H 0.5082 0.5574 0.9239
H56 H 0.4670 0.5625 0.9516
H57 H 0.4901 0.6981 0.9401
C49 C 0.16597(7) 0.8070(2) 0.22523(8)
C50 C 0.22396(8) 0.7381(3) 0.18120(10)
H58 H 0.2086 0.7584 0.1472
H59 H 0.2229 0.6419 0.1880
H60 H 0.2519 0.7658 0.1798
C51 C 0.23248(7) 0.8620(2) 0.26799(9)
C52 C 0.26183(8) 0.9554(3) 0.25960(10)
H61 H 0.2651 0.9853 0.2245
C53 C 0.28643(8) 1.0052(3) 0.30244(11)
H62 H 0.3067 1.0684 0.2963
C54 C 0.28189(7) 0.9640(2) 0.35406(9)
C55 C 0.25276(7) 0.8699(2) 0.36226(9)
H63 H 0.2493 0.8405 0.3973
C56 C 0.22865(7) 0.8184(2) 0.31947(9)
H64 H 0.2092 0.7523 0.3255
C57 C 0.32207(7) 0.9567(2) 0.44152(9)
C58 C 0.36835(7) 0.9974(2) 0.52159(9)
C59 C 0.39177(7) 0.8812(2) 0.51984(9)
H65 H 0.3890 0.8258 0.4892
C60 C 0.41877(7) 0.8470(3) 0.56218(9)
H66 H 0.4345 0.7683 0.5605
C61 C 0.42319(7) 0.9273(3) 0.60747(10)
C62 C 0.40034(8) 1.0415(3) 0.60945(10)
H67 H 0.4031 1.0968 0.6402
C63 C 0.37323(8) 1.0757(3) 0.56651(10)
H68 H 0.3577 1.1549 0.5682
C64 C 0.45534(8) 0.9616(3) 0.69519(10)
H69 H 0.4297 0.9635 0.7118
H70 H 0.4627 1.0545 0.6867
C65 C 0.48772(8) 0.9004(3) 0.73292(10)
H71 H 0.5136 0.9041 0.7169
H72 H 0.4813 0.8053 0.7388
C66 C 0.49178(8) 0.9733(3) 0.78618(10)
H73 H 0.4952 1.0699 0.7794
H74 H 0.4665 0.9620 0.8033
C67 C 0.52655(8) 0.9263(3) 0.82473(10)
H75 H 0.5245 0.8284 0.8293
H76 H 0.5521 0.9449 0.8091
C68 C 0.52782(10) 0.9921(3) 0.87864(11)
H77 H 0.5021 0.9748 0.8939
H78 H 0.5303 1.0899 0.8740
C69 C 0.56207(10) 0.9444(4) 0.91779(12)
H79 H 0.5610 0.9910 0.9518
H80 H 0.5877 0.9633 0.9035
H81 H 0.5595 0.8479 0.9233
O10 O 0.15693(6) 1.35299(19) 0.59954(7)
S1 S 0.14101(2) 1.48165(7) 0.61964(2)
C70 C 0.09276(10) 1.4484(4) 0.63863(14)
H82 H 0.0949 1.3932 0.6709
H83 H 0.0771 1.4007 0.6099
H84 H 0.0794 1.5327 0.6458
C71 C 0.12658(9) 1.5814(3) 0.56281(11)
H85 H 0.1075 1.5317 0.5384
H86 H 0.1504 1.6038 0.5447
H87 H 0.1139 1.6638 0.5740
S2 S 0.30633(3) 1.42525(9) 0.45904(3)
O11 O 0.31862(6) 1.29639(17) 0.43114(8)
C72 C 0.35054(10) 1.5167(3) 0.47086(15)
H88 H 0.3678 1.4746 0.4996
H89 H 0.3441 1.6081 0.4811
H90 H 0.3646 1.5188 0.4384
C73 C 0.28209(9) 1.5234(3) 0.40695(12)
H91 H 0.2559 1.4842 0.3954
H92 H 0.2987 1.5258 0.3769
H93 H 0.2783 1.6145 0.4198
S3? S 0.32826(7) 1.4385(2) 0.41723(9)
H94? H 0.3768 1.4760 0.4807
H95? H 0.3338 1.5085 0.5006
H96? H 0.3541 1.6113 0.4625
H97? H 0.2659 1.4838 0.3766
H98? H 0.2870 1.6178 0.3996
H99? H 0.2677 1.5161 0.4389
loop_
_geom_bond_atom_site_label_1
_geom_bond_atom_site_label_2
_geom_bond_site_symmetry_1
_geom_bond_site_symmetry_2
N1 C7 1_555 1_555
N2 H1 1_555 1_555
N3 H2 1_555 1_555
N4 C28 1_555 1_555
N5 H3 1_555 1_555
N6 H4 1_555 1_555
N7 C49 1_555 1_555
N8 H5 1_555 1_555
N9 H6 1_555 1_555
O1 C7 1_555 1_555
O2 C15 1_555 1_555
O3 C19 1_555 1_555
O4 C28 1_555 1_555
O5 C36 1_555 1_555
O6 C40 1_555 1_555
O7 C49 1_555 1_555
O8 C57 1_555 1_555
O9 C61 1_555 1_555
C1 H7 1_555 1_555
C2 C1 1_555 1_555
C3 C2 1_555 1_555
H8 C3 1_555 1_555
C4 C3 1_555 1_555
C5 C4 1_555 1_555
H9 C5 1_555 1_555
C6 C1 1_555 1_555
C7 C2 1_555 1_555
C8 N1 1_555 1_555
H10 C8 1_555 1_555
H11 C8 1_555 1_555
H12 C8 1_555 1_555
C9 N1 1_555 1_555
C10 C9 1_555 1_555
H13 C10 1_555 1_555
C11 C10 1_555 1_555
H14 C11 1_555 1_555
C12 N2 1_555 1_555
C13 C12 1_555 1_555
H15 C13 1_555 1_555
C14 C9 1_555 1_555
H16 C14 1_555 1_555
C15 N2 1_555 1_555
C16 N3 1_555 1_555
C17 C16 1_555 1_555
H17 C17 1_555 1_555
C18 C17 1_555 1_555
H18 C18 1_555 1_555
C19 C18 1_555 1_555
C20 C19 1_555 1_555
H19 C20 1_555 1_555
C21 C16 1_555 1_555
H20 C21 1_555 1_555
C22 O3 1_555 1_555
H21 C22 1_555 1_555
H22 C22 1_555 1_555
C23 C22 1_555 1_555
H23 C23 1_555 1_555
H24 C23 1_555 1_555
C24 C23 1_555 1_555
H25 C24 1_555 1_555
H26 C24 1_555 1_555
C25 C24 1_555 1_555
H27 C25 1_555 1_555
H28 C25 1_555 1_555
C26 C25 1_555 1_555
H29 C26 1_555 1_555
H30 C26 1_555 1_555
C27 C26 1_555 1_555
H31 C27 1_555 1_555
H32 C27 1_555 1_555
H33 C27 1_555 1_555
C28 C6 1_555 1_555
C29 N4 1_555 1_555
H34 C29 1_555 1_555
H35 C29 1_555 1_555
H36 C29 1_555 1_555
C30 N4 1_555 1_555
C31 C30 1_555 1_555
H37 C31 1_555 1_555
C32 C31 1_555 1_555
H38 C32 1_555 1_555
C33 N5 1_555 1_555
C34 C33 1_555 1_555
H39 C34 1_555 1_555
C35 C30 1_555 1_555
H40 C35 1_555 1_555
C36 N5 1_555 1_555
C37 N6 1_555 1_555
C38 C37 1_555 1_555
H41 C38 1_555 1_555
C39 C38 1_555 1_555
H42 C39 1_555 1_555
C40 C39 1_555 1_555
C41 C40 1_555 1_555
H43 C41 1_555 1_555
C42 C37 1_555 1_555
H44 C42 1_555 1_555
C43 O6 1_555 1_555
H45 C43 1_555 1_555
H46 C43 1_555 1_555
C44 C43 1_555 1_555
H47 C44 1_555 1_555
H48 C44 1_555 1_555
C45 C44 1_555 1_555
H49 C45 1_555 1_555
H50 C45 1_555 1_555
C46 C45 1_555 1_555
H51 C46 1_555 1_555
H52 C46 1_555 1_555
C47 C46 1_555 1_555
H53 C47 1_555 1_555
H54 C47 1_555 1_555
C48 C47 1_555 1_555
H55 C48 1_555 1_555
H56 C48 1_555 1_555
H57 C48 1_555 1_555
C49 C4 1_555 1_555
C50 N7 1_555 1_555
H58 C50 1_555 1_555
H59 C50 1_555 1_555
H60 C50 1_555 1_555
C51 N7 1_555 1_555
C52 C51 1_555 1_555
H61 C52 1_555 1_555
C53 C52 1_555 1_555
H62 C53 1_555 1_555
C54 N8 1_555 1_555
C55 C54 1_555 1_555
H63 C55 1_555 1_555
C56 C51 1_555 1_555
H64 C56 1_555 1_555
C57 N8 1_555 1_555
C58 N9 1_555 1_555
C59 C58 1_555 1_555
H65 C59 1_555 1_555
C60 C59 1_555 1_555
H66 C60 1_555 1_555
C61 C60 1_555 1_555
C62 C61 1_555 1_555
H67 C62 1_555 1_555
C63 C58 1_555 1_555
H68 C63 1_555 1_555
C64 O9 1_555 1_555
H69 C64 1_555 1_555
H70 C64 1_555 1_555
C65 C64 1_555 1_555
H71 C65 1_555 1_555
H72 C65 1_555 1_555
C66 C65 1_555 1_555
H73 C66 1_555 1_555
H74 C66 1_555 1_555
C67 C66 1_555 1_555
H75 C67 1_555 1_555
H76 C67 1_555 1_555
C68 C67 1_555 1_555
H77 C68 1_555 1_555
H78 C68 1_555 1_555
C69 C68 1_555 1_555
H79 C69 1_555 1_555
H80 C69 1_555 1_555
H81 C69 1_555 1_555
O10 S1 1_555 1_555
S1 C70 1_555 1_555
C70 H82 1_555 1_555
H83 C70 1_555 1_555
H84 C70 1_555 1_555
C71 S1 1_555 1_555
H85 C71 1_555 1_555
H86 C71 1_555 1_555
H87 C71 1_555 1_555
S2 O11 1_555 1_555
C72 S2 1_555 1_555
H88 C72 1_555 1_555
H89 C72 1_555 1_555
H90 C72 1_555 1_555
C73 S2 1_555 1_555
H91 C73 1_555 1_555
H92 C73 1_555 1_555
H93 C73 1_555 1_555
N3 C15 1_555 1_555
N6 C36 1_555 1_555
N9 C57 1_555 1_555
C5 C6 1_555 1_555
C11 C12 1_555 1_555
C13 C14 1_555 1_555
C20 C21 1_555 1_555
C32 C33 1_555 1_555
C34 C35 1_555 1_555
C41 C42 1_555 1_555
C53 C54 1_555 1_555
C55 C56 1_555 1_555
C62 C63 1_555 1_555

#END
