
#######################################################################
#
#                 Cambridge Crystallographic Data Centre
#                                CCDC 
#
#######################################################################
#
# If this CIF has been generated from an entry in the Cambridge 
# Structural Database, then it will include bibliographic, chemical, 
# crystal, experimental, refinement or atomic coordinate data resulting 
# from the CCDC's data processing and validation procedures.
#
#######################################################################

data_HOTCEZ
_chemical_formula_moiety         'C17 H26 Cl1 N1 O5'
_chemical_name_systematic        
N-((2S)-4-Chloro-2-((1R,2S,5R)-L-menthyloxy)-5-oxo-2,5-dihydro-3-furyl)-L-alanine
_symmetry_cell_setting           orthorhombic
_symmetry_space_group_name_H-M   'P 21 21 2'
_symmetry_Int_Tables_number      18
_space_group_name_Hall           'P 2 2ab'
loop_
_symmetry_equiv_pos_site_id
_symmetry_equiv_pos_as_xyz
1 x,y,z
2 -x,-y,z
3 1/2-x,1/2+y,-z
4 1/2+x,1/2-y,-z
_cell_length_a                   11.2481(15)
_cell_length_b                   19.642(2)
_cell_length_c                   9.0668(11)
_cell_angle_alpha                90
_cell_angle_beta                 90
_cell_angle_gamma                90
_cell_volume                     2003.18
_exptl_crystal_colour            colorless
_exptl_crystal_description       block
_cell_formula_units_Z            4
loop_
_atom_site_label
_atom_site_type_symbol
_atom_site_fract_x
_atom_site_fract_y
_atom_site_fract_z
C1 C 0.4798(4) 0.78198(19) 0.8644(4)
H1 H 0.5545 0.7992 0.8232
C2 C 0.4754(4) 0.79762(19) 1.0295(4)
H2 H 0.3996 0.7797 1.0661
C3 C 0.5733(5) 0.7571(2) 1.1058(6)
H3 H 0.6499 0.7742 1.0735
H4 H 0.5677 0.7645 1.2114
C4 C 0.5674(6) 0.6817(2) 1.0753(6)
H5 H 0.6345 0.6594 1.1219
H6 H 0.4953 0.6633 1.1185
C5 C 0.5686(6) 0.6664(2) 0.9133(6)
H7 H 0.6455 0.6807 0.8729
C6 C 0.4707(4) 0.70649(18) 0.8358(4)
H8 H 0.4756 0.6983 0.7305
H9 H 0.3940 0.6903 0.8696
C7 C 0.5537(6) 0.5895(2) 0.8864(7)
H10 H 0.6122 0.5650 0.9423
H11 H 0.5640 0.5799 0.7833
H12 H 0.4756 0.5756 0.9167
C8 C 0.4770(5) 0.8738(2) 1.0660(5)
H13 H 0.4168 0.8955 1.0038
C9 C 0.4415(6) 0.8870(3) 1.2264(6)
H14 H 0.3749 0.8587 1.2517
H15 H 0.4200 0.9340 1.2381
H16 H 0.5072 0.8765 1.2900
C10 C 0.5941(6) 0.9084(3) 1.0329(7)
H17 H 0.6546 0.8904 1.0967
H18 H 0.5864 0.9565 1.0491
H19 H 0.6156 0.9001 0.9321
C11 C 0.3749(3) 0.81985(15) 0.6456(3)
H20 H 0.4534 0.8277 0.6018
C12 C 0.2880(3) 0.87618(15) 0.6067(3)
C13 C 0.1874(3) 0.84593(15) 0.5583(4)
C14 C 0.2086(3) 0.77365(15) 0.5426(4)
C15 C 0.2405(3) 0.99911(15) 0.6191(4)
H21 H 0.1863 0.9920 0.5359
C16 C 0.1683(3) 1.00945(19) 0.7577(5)
H22 H 0.1188 0.9704 0.7741
H23 H 0.1193 1.0492 0.7469
H24 H 0.2208 1.0154 0.8402
C17 C 0.3137(3) 1.06179(15) 0.5905(4)
Cl1 Cl 0.04908(8) 0.87823(4) 0.51989(12)
N1 N 0.3197(2) 0.94048(12) 0.6313(3)
H25 H 0.3922 0.9481 0.6563
O1 O 0.3799(2) 0.81852(11) 0.7981(2)
O2 O 0.31972(19) 0.75881(10) 0.5881(3)
O3 O 0.1433(2) 0.72965(11) 0.4945(3)
O4 O 0.2496(2) 1.10975(12) 0.5305(4)
H26 H 0.2919 1.1427 0.5122
O5 O 0.4163(2) 1.06720(11) 0.6217(3)
loop_
_geom_bond_atom_site_label_1
_geom_bond_atom_site_label_2
_geom_bond_site_symmetry_1
_geom_bond_site_symmetry_2
C1 H1 1_555 1_555
C2 C1 1_555 1_555
H2 C2 1_555 1_555
C3 C2 1_555 1_555
H3 C3 1_555 1_555
H4 C3 1_555 1_555
C4 C3 1_555 1_555
H5 C4 1_555 1_555
H6 C4 1_555 1_555
C5 C4 1_555 1_555
H7 C5 1_555 1_555
C6 C1 1_555 1_555
H8 C6 1_555 1_555
H9 C6 1_555 1_555
C7 C5 1_555 1_555
H10 C7 1_555 1_555
H11 C7 1_555 1_555
H12 C7 1_555 1_555
C8 C2 1_555 1_555
H13 C8 1_555 1_555
C9 C8 1_555 1_555
H14 C9 1_555 1_555
H15 C9 1_555 1_555
H16 C9 1_555 1_555
C10 C8 1_555 1_555
H17 C10 1_555 1_555
H18 C10 1_555 1_555
H19 C10 1_555 1_555
C11 H20 1_555 1_555
C12 C11 1_555 1_555
C13 C12 1_555 1_555
C14 C13 1_555 1_555
C15 H21 1_555 1_555
C16 C15 1_555 1_555
H22 C16 1_555 1_555
H23 C16 1_555 1_555
H24 C16 1_555 1_555
C17 C15 1_555 1_555
Cl1 C13 1_555 1_555
N1 C12 1_555 1_555
H25 N1 1_555 1_555
O1 C1 1_555 1_555
O2 C11 1_555 1_555
O3 C14 1_555 1_555
O4 C17 1_555 1_555
H26 O4 1_555 1_555
O5 C17 1_555 1_555
C5 C6 1_555 1_555
C11 O1 1_555 1_555
C14 O2 1_555 1_555
C15 N1 1_555 1_555

#END
