
#######################################################################
#
#                 Cambridge Crystallographic Data Centre
#                                CCDC 
#
#######################################################################
#
# If this CIF has been generated from an entry in the Cambridge 
# Structural Database, then it will include bibliographic, chemical, 
# crystal, experimental, refinement or atomic coordinate data resulting 
# from the CCDC's data processing and validation procedures.
#
#######################################################################

data_HOTCUQ
_chemical_formula_moiety         'C51 H42 N12 O12'
_chemical_name_systematic        
N,N',N''-trimethyl-N,N',N''-tris(4-(((2-nitrophenyl)carbamoyl)amino)phenyl)benzene-1,3,5-tricarboxamide
_symmetry_cell_setting           monoclinic
_symmetry_space_group_name_H-M   'P 21/n'
_symmetry_Int_Tables_number      14
_space_group_name_Hall           '-P 2yn'
loop_
_symmetry_equiv_pos_site_id
_symmetry_equiv_pos_as_xyz
1 x,y,z
2 1/2-x,1/2+y,1/2-z
3 -x,-y,-z
4 1/2+x,1/2-y,1/2+z
_cell_length_a                   13.6978(5)
_cell_length_b                   25.3895(9)
_cell_length_c                   14.1634(5)
_cell_angle_alpha                90
_cell_angle_beta                 103.658(2)
_cell_angle_gamma                90
_cell_volume                     4786.46
_exptl_crystal_colour            colorless
_exptl_crystal_description       Plate
_cell_formula_units_Z            4
loop_
_atom_site_label
_atom_site_type_symbol
_atom_site_fract_x
_atom_site_fract_y
_atom_site_fract_z
O1 O 0.99445(16) 0.16346(8) 0.83593(16)
O2 O 0.5697(2) 0.39689(10) 0.66210(18)
O3 O 0.2855(2) 0.36978(14) 0.3896(2)
O4 O 0.1489(2) 0.41026(18) 0.3945(2)
N1 N 0.86897(18) 0.18903(10) 0.70952(18)
N2 N 0.5860(2) 0.34217(10) 0.5378(2)
H1 H 0.568(3) 0.3403(14) 0.4765(14)
N3 N 0.4525(2) 0.39788(12) 0.5148(2)
H2 H 0.418(4) 0.3793(19) 0.458(4)
N4 N 0.2403(2) 0.40737(17) 0.4157(2)
C1 C 0.9913(2) 0.28932(12) 0.7321(2)
H3 H 0.9759 0.2778 0.6664
C2 C 0.9773(2) 0.25568(12) 0.8048(2)
C3 C 0.9467(2) 0.19923(12) 0.7850(2)
C4 C 0.8454(3) 0.13409(13) 0.6818(3)
H4 H 0.9049 0.1122 0.7064
H5 H 0.8254 0.1314 0.6108
H6 H 0.7903 0.1220 0.7095
C5 C 0.7975(2) 0.22885(12) 0.6672(2)
C6 C 0.7792(2) 0.23937(12) 0.5679(2)
H7 H 0.8133 0.2200 0.5280
C7 C 0.7112(2) 0.27816(12) 0.5278(2)
H8 H 0.6993 0.2856 0.4603
C8 C 0.6596(2) 0.30660(12) 0.5858(2)
C9 C 0.6781(2) 0.29589(13) 0.6848(2)
H9 H 0.6444 0.3152 0.7250
C10 C 0.7462(2) 0.25667(12) 0.7244(2)
H10 H 0.7578 0.2488 0.7917
C11 C 0.5396(3) 0.38070(14) 0.5796(3)
C12 C 0.3979(3) 0.44344(15) 0.5247(3)
C13 C 0.4418(3) 0.48546(16) 0.5815(3)
H11 H 0.5087 0.4824 0.6195
C14 C 0.3892(4) 0.53218(18) 0.5836(4)
H12 H 0.4210 0.5607 0.6226
C15 C 0.2922(4) 0.5377(2) 0.5304(4)
H13 H 0.2574 0.5700 0.5316
C16 C 0.2459(4) 0.4962(2) 0.4754(4)
H14 H 0.1784 0.4996 0.4389
C17 C 0.2971(3) 0.44973(17) 0.4731(3)
O5 O 1.13220(16) 0.37651(9) 1.04758(15)
O6 O 0.55071(18) 0.26993(10) 0.86063(17)
O7 O 0.4244(2) 0.09851(12) 0.9228(3)
O8 O 0.3314(3) 0.07162(13) 0.7857(3)
N5 N 1.01332(19) 0.32720(11) 1.09275(18)
N6 N 0.6396(2) 0.22529(12) 0.9928(2)
H15 H 0.634(3) 0.1998(16) 1.032(3)
N7 N 0.4796(2) 0.20051(13) 0.9235(2)
H16 H 0.494(3) 0.1690(18) 0.956(3)
N8 N 0.3643(2) 0.10675(15) 0.8454(3)
C18 C 0.9988(2) 0.27257(12) 0.9007(2)
H17 H 0.9898 0.2493 0.9504
C19 C 1.0334(2) 0.32343(12) 0.9241(2)
C20 C 1.0625(2) 0.34464(12) 1.0263(2)
C21 C 1.0497(3) 0.34324(14) 1.1946(2)
H18 H 1.1215 0.3516 1.2072
H19 H 1.0395 0.3144 1.2372
H20 H 1.0125 0.3744 1.2073
C22 C 0.9176(2) 0.30186(13) 1.0668(2)
C23 C 0.8365(2) 0.32672(13) 1.0051(2)
H21 H 0.8449 0.3611 0.9816
C24 C 0.7446(2) 0.30250(13) 0.9776(2)
H22 H 0.6900 0.3199 0.9354
C25 C 0.7318(2) 0.25172(13) 1.0123(2)
C26 C 0.8131(2) 0.22736(14) 1.0751(2)
H23 H 0.8050 0.1931 1.0992
C27 C 0.9047(2) 0.25214(13) 1.1027(2)
H24 H 0.9590 0.2352 1.1462
C28 C 0.5575(2) 0.23534(14) 0.9210(2)
C29 C 0.3842(2) 0.20400(14) 0.8616(2)
C30 C 0.3402(3) 0.25302(15) 0.8352(3)
H25 H 0.3757 0.2841 0.8600
C31 C 0.2459(3) 0.25705(16) 0.7737(3)
H26 H 0.2173 0.2909 0.7575
C32 C 0.1925(3) 0.21286(17) 0.7355(3)
H27 H 0.1279 0.2162 0.6929
C33 C 0.2332(3) 0.16464(17) 0.7591(3)
H28 H 0.1975 0.1339 0.7324
C34 C 0.3271(3) 0.16017(15) 0.8226(3)
O9 O 1.09086(19) 0.35254(9) 0.61458(17)
O10 O 0.7445(3) 0.44558(12) 0.9636(3)
N9 N 1.0342(2) 0.42509(11) 0.67479(19)
N10 N 0.8156(3) 0.51842(12) 0.9192(3)
H29 H 0.836(3) 0.5512(10) 0.932(3)
N11 N 0.7238(3) 0.52663(14) 1.0314(3)
H30 H 0.7285 0.5614 1.0284
C35 C 1.0497(2) 0.35667(12) 0.8512(2)
H31 H 1.0760 0.3910 0.8673
C36 C 1.0278(2) 0.33996(12) 0.7552(2)
C37 C 1.0518(2) 0.37303(12) 0.6757(2)
C38 C 1.0761(4) 0.45804(15) 0.6084(3)
H32 H 1.1495 0.4592 0.6309
H33 H 1.0491 0.4938 0.6074
H34 H 1.0578 0.4431 0.5428
C39 C 0.9752(3) 0.44987(13) 0.7338(2)
C40 C 1.0164(3) 0.49065(13) 0.7949(2)
H35 H 1.0813 0.5037 0.7946
C41 C 0.9625(3) 0.51235(14) 0.8563(3)
H36 H 0.9912 0.5398 0.8996
C42 C 0.8672(3) 0.49431(13) 0.8552(3)
C43 C 0.8239(3) 0.45372(14) 0.7921(3)
H37 H 0.7583 0.4412 0.7912
C44 C 0.8788(3) 0.43218(13) 0.7311(2)
H38 H 0.8501 0.4051 0.6870
C45 C 0.7620(3) 0.49294(16) 0.9705(3)
C46 C 0.6514(3) 0.51367(19) 1.0810(3)
C47 C 0.4928(4) 0.4916(2) 1.1714(4)
H39 H 0.4374 0.4846 1.1992
O11 O 0.7022(5) 0.62094(19) 1.0967(5)
C48 C 0.6038(6) 0.4602(3) 1.0679(6)
H40 H 0.6270 0.4333 1.0321
C49 C 0.5257(7) 0.4525(3) 1.1102(8)
H41 H 0.4907 0.4199 1.0994
C50 C 0.5419(7) 0.5372(3) 1.1877(7)
H42 H 0.5230 0.5627 1.2291
C51 C 0.6209(6) 0.5474(3) 1.1438(6)
N12 N 0.6674(4) 0.5972(2) 1.1675(4)
O12 O 0.6629(5) 0.6188(2) 1.2427(4)
C52? C 0.6353(10) 0.4650(6) 1.1147(9)
H43? H 0.6786 0.4368 1.1076
C53? C 0.5588(12) 0.4559(8) 1.1581(11)
H44? H 0.5519 0.4212 1.1808
C54? C 0.5029(15) 0.5465(8) 1.1375(14)
H45? H 0.4564 0.5726 1.1468
C55? C 0.5785(11) 0.5599(6) 1.0930(11)
O13? O 0.5046(11) 0.6369(6) 1.0306(10)
N13? N 0.5911(11) 0.6097(6) 1.0652(10)
loop_
_geom_bond_atom_site_label_1
_geom_bond_atom_site_label_2
_geom_bond_site_symmetry_1
_geom_bond_site_symmetry_2
O1 C3 1_555 1_555
O2 C11 1_555 1_555
O3 N4 1_555 1_555
O4 N4 1_555 1_555
N1 C3 1_555 1_555
N2 H1 1_555 1_555
N3 H2 1_555 1_555
N4 C17 1_555 1_555
C1 H3 1_555 1_555
C2 C1 1_555 1_555
C3 C2 1_555 1_555
C4 N1 1_555 1_555
H4 C4 1_555 1_555
H5 C4 1_555 1_555
H6 C4 1_555 1_555
C5 N1 1_555 1_555
C6 C5 1_555 1_555
H7 C6 1_555 1_555
C7 C6 1_555 1_555
H8 C7 1_555 1_555
C8 N2 1_555 1_555
C9 C8 1_555 1_555
H9 C9 1_555 1_555
C10 C5 1_555 1_555
H10 C10 1_555 1_555
C11 N2 1_555 1_555
C12 N3 1_555 1_555
C13 C12 1_555 1_555
H11 C13 1_555 1_555
C14 C13 1_555 1_555
H12 C14 1_555 1_555
C15 C14 1_555 1_555
H13 C15 1_555 1_555
C16 C15 1_555 1_555
H14 C16 1_555 1_555
C17 C12 1_555 1_555
O5 C20 1_555 1_555
O6 C28 1_555 1_555
O7 N8 1_555 1_555
O8 N8 1_555 1_555
N5 C20 1_555 1_555
N6 H15 1_555 1_555
N7 H16 1_555 1_555
N8 C34 1_555 1_555
C18 C2 1_555 1_555
H17 C18 1_555 1_555
C19 C18 1_555 1_555
C20 C19 1_555 1_555
C21 N5 1_555 1_555
H18 C21 1_555 1_555
H19 C21 1_555 1_555
H20 C21 1_555 1_555
C22 N5 1_555 1_555
C23 C22 1_555 1_555
H21 C23 1_555 1_555
C24 C23 1_555 1_555
H22 C24 1_555 1_555
C25 N6 1_555 1_555
C26 C25 1_555 1_555
H23 C26 1_555 1_555
C27 C22 1_555 1_555
H24 C27 1_555 1_555
C28 N6 1_555 1_555
C29 N7 1_555 1_555
C30 C29 1_555 1_555
H25 C30 1_555 1_555
C31 C30 1_555 1_555
H26 C31 1_555 1_555
C32 C31 1_555 1_555
H27 C32 1_555 1_555
C33 C32 1_555 1_555
H28 C33 1_555 1_555
C34 C29 1_555 1_555
O9 C37 1_555 1_555
O10 C45 1_555 1_555
N9 C37 1_555 1_555
N10 H29 1_555 1_555
N11 H30 1_555 1_555
C35 C19 1_555 1_555
H31 C35 1_555 1_555
C36 C1 1_555 1_555
C37 C36 1_555 1_555
C38 N9 1_555 1_555
H32 C38 1_555 1_555
H33 C38 1_555 1_555
H34 C38 1_555 1_555
C39 N9 1_555 1_555
C40 C39 1_555 1_555
H35 C40 1_555 1_555
C41 C40 1_555 1_555
H36 C41 1_555 1_555
C42 N10 1_555 1_555
C43 C42 1_555 1_555
H37 C43 1_555 1_555
C44 C39 1_555 1_555
H38 C44 1_555 1_555
C45 N10 1_555 1_555
C46 N11 1_555 1_555
C47 H39 1_555 1_555
O11 N12 1_555 1_555
C48 C46 1_555 1_555
H40 C48 1_555 1_555
C49 C47 1_555 1_555
H41 C49 1_555 1_555
C50 C47 1_555 1_555
H42 C50 1_555 1_555
C51 C46 1_555 1_555
N12 C51 1_555 1_555
O12 N12 1_555 1_555
N3 C11 1_555 1_555
C7 C8 1_555 1_555
C9 C10 1_555 1_555
C16 C17 1_555 1_555
N7 C28 1_555 1_555
C24 C25 1_555 1_555
C26 C27 1_555 1_555
C33 C34 1_555 1_555
N11 C45 1_555 1_555
C35 C36 1_555 1_555
C41 C42 1_555 1_555
C43 C44 1_555 1_555
C48 C49 1_555 1_555
C50 C51 1_555 1_555

#END
