
#######################################################################
#
#                 Cambridge Crystallographic Data Centre
#                                CCDC 
#
#######################################################################
#
# If this CIF has been generated from an entry in the Cambridge 
# Structural Database, then it will include bibliographic, chemical, 
# crystal, experimental, refinement or atomic coordinate data resulting 
# from the CCDC's data processing and validation procedures.
#
#######################################################################

data_HOTCID
_chemical_formula_moiety         'C18 H20 N3 O2'
_chemical_name_systematic        
4,4,5,5-Tetramethyl-2-(4-(2-pyridyl)phenyl)-4,5-dihydroimidazole-1-oxyl-3-oxide
_symmetry_cell_setting           monoclinic
_symmetry_space_group_name_H-M   'P 21/c'
_symmetry_Int_Tables_number      14
_space_group_name_Hall           '-P 2ybc'
loop_
_symmetry_equiv_pos_site_id
_symmetry_equiv_pos_as_xyz
1 x,y,z
2 -x,1/2+y,1/2-z
3 -x,-y,-z
4 x,1/2-y,1/2+z
_cell_length_a                   8.5150(17)
_cell_length_b                   22.286(5)
_cell_length_c                   9.1360(18)
_cell_angle_alpha                90
_cell_angle_beta                 109.45(3)
_cell_angle_gamma                90
_cell_volume                     1634.76
_exptl_crystal_colour            blue
_exptl_crystal_description       block
_cell_formula_units_Z            4
_exptl_crystal_recrystallization_method n-heptane/dichloromethane
loop_
_atom_site_label
_atom_site_type_symbol
_atom_site_fract_x
_atom_site_fract_y
_atom_site_fract_z
C1 C 0.0559(3) 0.57868(12) 0.7773(3)
C2 C 0.3900(3) 0.72221(12) 0.7712(3)
C3 C 0.3958(3) 0.66754(12) 0.6990(3)
H1 H 0.4731 0.6620 0.6483
C4 C 0.5033(3) 0.77122(11) 0.7688(3)
C5 C 0.2755(3) 0.72855(12) 0.8480(3)
H2 H 0.2695 0.7646 0.8972
C6 C 0.1736(3) 0.62798(11) 0.7782(3)
C7 C 0.2889(3) 0.62182(12) 0.7019(3)
H3 H 0.2939 0.5859 0.6516
C8 C 0.1706(3) 0.68223(12) 0.8522(3)
H4 H 0.0959 0.6873 0.9058
C9 C 0.7488(3) 0.82333(12) 0.7781(3)
C10 C 0.6108(3) 0.86972(12) 0.7722(3)
C11 C -0.1592(4) 0.48645(15) 0.7597(4)
H5 H -0.2267 0.4533 0.7561
C12 C 0.8852(4) 0.81846(14) 0.9347(4)
H6 H 0.8362 0.8120 1.0140
H7 H 0.9490 0.8549 0.9558
H8 H 0.9569 0.7854 0.9333
C13 C 0.8263(4) 0.82919(15) 0.6510(4)
H9 H 0.9077 0.7981 0.6628
H10 H 0.8789 0.8677 0.6585
H11 H 0.7411 0.8254 0.5514
C14 C -0.0669(5) 0.58456(16) 0.8416(5)
H12 H -0.0773 0.6201 0.8908
C15 C 0.6523(4) 0.91381(15) 0.9054(4)
H13 H 0.5576 0.9390 0.8945
H14 H 0.7450 0.9382 0.9045
H15 H 0.6808 0.8923 1.0017
C16 C 0.5432(4) 0.90355(16) 0.6188(4)
H16 H 0.5157 0.8755 0.5343
H17 H 0.6262 0.9310 0.6094
H18 H 0.4452 0.9254 0.6161
C17 C -0.0414(4) 0.48541(14) 0.6919(4)
H19 H -0.0351 0.4514 0.6352
C18 C -0.1762(6) 0.53756(18) 0.8335(6)
H20 H -0.2595 0.5410 0.8779
N1 N 0.6539(3) 0.76539(10) 0.7555(3)
N2 N 0.4734(3) 0.82976(10) 0.7821(3)
N3 N 0.0669(3) 0.52930(11) 0.6995(3)
O1 O 0.7257(3) 0.71598(9) 0.7424(3)
O2 O 0.3395(3) 0.85231(9) 0.7914(3)
loop_
_geom_bond_atom_site_label_1
_geom_bond_atom_site_label_2
_geom_bond_site_symmetry_1
_geom_bond_site_symmetry_2
C1 C6 1_555 1_555
C2 C3 1_555 1_555
C3 H1 1_555 1_555
C4 C2 1_555 1_555
C5 C2 1_555 1_555
H2 C5 1_555 1_555
C6 C7 1_555 1_555
C7 C3 1_555 1_555
H3 C7 1_555 1_555
C8 C5 1_555 1_555
H4 C8 1_555 1_555
C9 C10 1_555 1_555
C10 C15 1_555 1_555
C11 H5 1_555 1_555
C12 C9 1_555 1_555
H6 C12 1_555 1_555
H7 C12 1_555 1_555
H8 C12 1_555 1_555
C13 C9 1_555 1_555
H9 C13 1_555 1_555
H10 C13 1_555 1_555
H11 C13 1_555 1_555
C14 C1 1_555 1_555
H12 C14 1_555 1_555
C15 H13 1_555 1_555
H14 C15 1_555 1_555
H15 C15 1_555 1_555
C16 C10 1_555 1_555
H16 C16 1_555 1_555
H17 C16 1_555 1_555
H18 C16 1_555 1_555
C17 C11 1_555 1_555
H19 C17 1_555 1_555
C18 C11 1_555 1_555
H20 C18 1_555 1_555
N1 C4 1_555 1_555
N2 C4 1_555 1_555
N3 C1 1_555 1_555
O1 N1 1_555 1_555
O2 N2 1_555 1_555
C6 C8 1_555 1_555
C9 N1 1_555 1_555
C10 N2 1_555 1_555
C14 C18 1_555 1_555
C17 N3 1_555 1_555

#END
