
#######################################################################
#
#                 Cambridge Crystallographic Data Centre
#                                CCDC 
#
#######################################################################
#
# If this CIF has been generated from an entry in the Cambridge 
# Structural Database, then it will include bibliographic, chemical, 
# crystal, experimental, refinement or atomic coordinate data resulting 
# from the CCDC's data processing and validation procedures.
#
#######################################################################

data_HOTDEA
_chemical_formula_moiety         'C13 H10 F1 N1 O2'
_chemical_name_systematic        'Phenyl N-(4-fluorophenyl)carbamate'
_symmetry_cell_setting           triclinic
_symmetry_space_group_name_H-M   'P -1'
_symmetry_Int_Tables_number      2
_space_group_name_Hall           '-P 1'
loop_
_symmetry_equiv_pos_site_id
_symmetry_equiv_pos_as_xyz
1 x,y,z
2 -x,-y,-z
_cell_length_a                   5.8860(12)
_cell_length_b                   7.8540(16)
_cell_length_c                   24.761(5)
_cell_angle_alpha                96.62(3)
_cell_angle_beta                 92.82(3)
_cell_angle_gamma                91.19(3)
_cell_volume                     1135.26
_exptl_crystal_colour            colorless
_exptl_crystal_description       block
_cell_formula_units_Z            4
_exptl_crystal_recrystallization_method methanol
loop_
_atom_site_label
_atom_site_type_symbol
_atom_site_fract_x
_atom_site_fract_y
_atom_site_fract_z
N1 N 0.0390(6) -0.6473(4) 0.26993(14)
H1 H -0.0691 -0.7213 0.2599
F1 F -0.0366(5) -0.3165(3) 0.47653(11)
O1 O 0.1510(5) -0.7508(4) 0.19019(13)
O2 O 0.3575(5) -0.5355(4) 0.23766(11)
C1 C 0.3835(12) -0.7830(7) 0.0572(2)
H3 H 0.3416 -0.7637 0.0218
C2 C 0.2332(9) -0.7392(6) 0.0984(3)
H4 H 0.0941 -0.6896 0.0917
C3 C 0.3045(9) -0.7740(6) 0.1487(2)
C4 C 0.5077(11) -0.8420(6) 0.1599(2)
H5 H 0.5516 -0.8605 0.1953
C5 C 0.6465(9) -0.8828(6) 0.1186(3)
H6 H 0.7849 -0.9327 0.1259
C6 C 0.5889(11) -0.8528(7) 0.0673(3)
H7 H 0.6871 -0.8792 0.0394
C7 C 0.1980(8) -0.6340(6) 0.23447(19)
C8 C 0.0241(7) -0.5556(5) 0.32213(17)
C9 C -0.1636(7) -0.5849(5) 0.35086(18)
H8 H -0.2782 -0.6603 0.3349
C10 C -0.1859(8) -0.5051(6) 0.4028(2)
H9 H -0.3134 -0.5253 0.4221
C11 C -0.0157(8) -0.3963(5) 0.42483(19)
C12 C 0.1691(8) -0.3626(5) 0.39833(18)
H10 H 0.2818 -0.2868 0.4150
C13 C 0.1923(7) -0.4407(5) 0.34595(18)
H11 H 0.3192 -0.4165 0.3269
N2 N 0.6939(5) -0.2644(4) 0.22504(13)
H2 H 0.6083 -0.3507 0.2300
F2 F 1.1428(5) -0.3284(4) 0.03482(12)
O3 O 0.5300(5) -0.1536(4) 0.29759(12)
O4 O 0.8164(4) -0.0021(3) 0.26628(10)
C14 C 0.4753(10) 0.1478(6) 0.4438(2)
H12 H 0.4594 0.2114 0.4774
C15 C 0.6668(9) 0.0580(6) 0.4346(2)
H13 H 0.7815 0.0618 0.4620
C16 C 0.6942(7) -0.0391(5) 0.3851(2)
H14 H 0.8265 -0.0994 0.3790
C17 C 0.5254(8) -0.0445(5) 0.34616(18)
C18 C 0.3329(8) 0.0490(6) 0.35436(18)
H15 H 0.2203 0.0478 0.3266
C19 C 0.3070(9) 0.1455(6) 0.4044(2)
H16 H 0.1761 0.2075 0.4107
C20 C 0.6969(7) -0.1294(6) 0.26345(17)
C21 C 0.8171(7) -0.2801(5) 0.17706(16)
C22 C 1.0269(7) -0.2011(5) 0.17460(18)
H17 H 1.0954 -0.1378 0.2054
C23 C 1.1343(7) -0.2167(5) 0.12616(19)
H18 H 1.2738 -0.1612 0.1237
C24 C 1.0365(9) -0.3124(6) 0.08250(19)
C25 C 0.8320(8) -0.3995(5) 0.08437(18)
H19 H 0.7693 -0.4681 0.0540
C26 C 0.7227(7) -0.3818(5) 0.13273(17)
H20 H 0.5845 -0.4393 0.1352
loop_
_geom_bond_atom_site_label_1
_geom_bond_atom_site_label_2
_geom_bond_site_symmetry_1
_geom_bond_site_symmetry_2
N1 H1 1_555 1_555
N2 H2 1_555 1_555
F1 C11 1_555 1_555
F2 C24 1_555 1_555
O1 C3 1_555 1_555
O2 C7 1_555 1_555
O3 C17 1_555 1_555
O4 C20 1_555 1_555
C1 H3 1_555 1_555
C2 C1 1_555 1_555
H4 C2 1_555 1_555
C3 C2 1_555 1_555
C4 C3 1_555 1_555
H5 C4 1_555 1_555
C5 C4 1_555 1_555
H6 C5 1_555 1_555
C6 C1 1_555 1_555
H7 C6 1_555 1_555
C7 N1 1_555 1_555
C8 N1 1_555 1_555
C9 C8 1_555 1_555
H8 C9 1_555 1_555
C10 C9 1_555 1_555
H9 C10 1_555 1_555
C11 C10 1_555 1_555
C12 C11 1_555 1_555
H10 C12 1_555 1_555
C13 C8 1_555 1_555
H11 C13 1_555 1_555
C14 H12 1_555 1_555
C15 C14 1_555 1_555
H13 C15 1_555 1_555
C16 C15 1_555 1_555
H14 C16 1_555 1_555
C17 C16 1_555 1_555
C18 C17 1_555 1_555
H15 C18 1_555 1_555
C19 C14 1_555 1_555
H16 C19 1_555 1_555
C20 N2 1_555 1_555
C21 N2 1_555 1_555
C22 C21 1_555 1_555
H17 C22 1_555 1_555
C23 C22 1_555 1_555
H18 C23 1_555 1_555
C24 C23 1_555 1_555
C25 C24 1_555 1_555
H19 C25 1_555 1_555
C26 C21 1_555 1_555
H20 C26 1_555 1_555
O1 C7 1_555 1_555
O3 C20 1_555 1_555
C5 C6 1_555 1_555
C12 C13 1_555 1_555
C18 C19 1_555 1_555
C25 C26 1_555 1_555

#END
