
#######################################################################
#
#                 Cambridge Crystallographic Data Centre
#                                CCDC 
#
#######################################################################
#
# If this CIF has been generated from an entry in the Cambridge 
# Structural Database, then it will include bibliographic, chemical, 
# crystal, experimental, refinement or atomic coordinate data resulting 
# from the CCDC's data processing and validation procedures.
#
#######################################################################

data_HOTFUR
_chemical_formula_moiety         'C38 H58 Li2 N2 P2 Si4'
_chemical_name_systematic        
(\m~2~-1,3-bis(Trimethylsilyl)-(2,2-diphenyl-3-aza-2-phospha-allyl-C,N))-(\m~2~-1,3-bis(trimethylsilyl)-(2,2-diphenyl-3-aza-2-phospha-allyl-C,N,N))-di-lithium
_symmetry_cell_setting           triclinic
_symmetry_space_group_name_H-M   'P -1'
_symmetry_Int_Tables_number      2
_space_group_name_Hall           '-P 1'
loop_
_symmetry_equiv_pos_site_id
_symmetry_equiv_pos_as_xyz
1 x,y,z
2 -x,-y,-z
_cell_length_a                   10.988(2)
_cell_length_b                   11.478(2)
_cell_length_c                   18.753(3)
_cell_angle_alpha                100.750(10)
_cell_angle_beta                 94.930(10)
_cell_angle_gamma                108.830(10)
_cell_volume                     2171.94
_exptl_crystal_colour            colorless
_cell_formula_units_Z            2
_exptl_crystal_recrystallization_method hexane
loop_
_atom_site_label
_atom_site_type_symbol
_atom_site_fract_x
_atom_site_fract_y
_atom_site_fract_z
Li1 Li 0.0490(9) 0.6052(8) 0.2593(6)
Li2 Li 0.1796(8) 0.4533(9) 0.2288(5)
P1 P 0.32404(10) 0.74519(10) 0.23893(6)
P2 P -0.04144(11) 0.30387(10) 0.24953(6)
Si1 Si 0.16227(14) 0.86994(13) 0.32872(8)
Si2 Si 0.41863(12) 0.53414(11) 0.15370(7)
Si3 Si -0.10852(12) 0.42493(12) 0.12892(7)
Si4 Si 0.16316(12) 0.38620(12) 0.39394(7)
N1 N 0.2034(3) 0.7495(3) 0.2806(2)
N2 N -0.0271(3) 0.4211(3) 0.2107(2)
C1 C 0.2993(4) 0.6008(4) 0.1858(3)
H1 H 0.2387(45) 0.5921(43) 0.1480(25)
C2 C 0.2882(7) 0.9793(8) 0.4058(4)
H2 H 0.3162(7) 0.9305(8) 0.4372(4)
H3 H 0.2519(7) 1.0367(8) 0.4347(4)
H4 H 0.3631(7) 1.0285(8) 0.3862(4)
C3 C 0.1104(6) 0.9639(5) 0.2697(4)
H5 H 0.0437(6) 0.9068(5) 0.2288(4)
H6 H 0.1856(6) 1.0131(5) 0.2504(4)
H7 H 0.0744(6) 1.0213(5) 0.2989(4)
C4 C 0.0128(7) 0.7904(7) 0.3667(4)
H8 H -0.0545(7) 0.7323(7) 0.3263(4)
H9 H -0.0195(7) 0.8543(7) 0.3922(4)
H10 H 0.0342(7) 0.7430(7) 0.4012(4)
C5 C 0.3590(4) 0.8695(4) 0.1880(2)
C6 C 0.4218(4) 0.9964(4) 0.2236(2)
H11 H 0.4532(4) 1.0180(4) 0.2748(2)
C7 C 0.4387(5) 1.0912(4) 0.1852(3)
H12 H 0.4822(5) 1.1771(4) 0.2100(3)
C8 C 0.3924(6) 1.0604(5) 0.1116(3)
H13 H 0.4029(6) 1.1253(5) 0.0853(3)
C9 C 0.3313(6) 0.9373(6) 0.0757(3)
H14 H 0.2989(6) 0.9165(6) 0.0247(3)
C10 C 0.3166(5) 0.8430(5) 0.1137(3)
H15 H 0.2761(5) 0.7574(5) 0.0878(3)
C11 C 0.4738(4) 0.7877(4) 0.3029(2)
C12 C 0.5959(4) 0.8385(4) 0.2828(2)
H16 H 0.6019(4) 0.8597(4) 0.2363(2)
C13 C 0.7075(4) 0.8582(4) 0.3296(3)
H17 H 0.7901(4) 0.8920(4) 0.3151(3)
C14 C 0.7001(5) 0.8291(5) 0.3975(3)
H18 H 0.7775(5) 0.8432(5) 0.4298(3)
C15 C 0.5792(5) 0.7791(6) 0.4186(3)
H19 H 0.5737(5) 0.7590(6) 0.4654(3)
C16 C 0.4675(5) 0.7589(5) 0.3712(2)
H20 H 0.3849(5) 0.7246(5) 0.3857(2)
C17 C 0.3272(5) 0.3759(4) 0.0901(3)
H21 H 0.3893(5) 0.3371(4) 0.0717(3)
H22 H 0.2749(5) 0.3871(4) 0.0487(3)
H23 H 0.2700(5) 0.3210(4) 0.1169(3)
C18 C 0.5157(6) 0.5051(5) 0.2308(3)
H24 H 0.5791(6) 0.4691(5) 0.2115(3)
H25 H 0.4573(6) 0.4458(5) 0.2549(3)
H26 H 0.5617(6) 0.5851(5) 0.2665(3)
C19 C 0.5340(5) 0.6225(4) 0.0994(3)
H27 H 0.5933(5) 0.5773(4) 0.0853(3)
H28 H 0.5843(5) 0.7072(4) 0.1292(3)
H29 H 0.4852(5) 0.6295(4) 0.0551(3)
C20 C 0.1052(4) 0.3177(5) 0.2965(2)
H30 H 0.1215(51) 0.2546(50) 0.2834(28)
C21 C -0.0370(5) 0.3667(5) 0.0494(2)
H31 H 0.0571(5) 0.4122(5) 0.0578(2)
H32 H -0.0766(5) 0.3812(5) 0.0046(2)
H33 H -0.0539(5) 0.2761(5) 0.0439(2)
C22 C -0.0890(5) 0.5954(4) 0.1340(3)
H34 H 0.0038(5) 0.6469(4) 0.1445(3)
H35 H -0.1332(5) 0.6243(4) 0.1733(3)
H36 H -0.1275(5) 0.6039(4) 0.0870(3)
C23 C -0.2862(4) 0.3347(5) 0.1090(3)
H37 H -0.3278(4) 0.3626(5) 0.1498(3)
H38 H -0.3009(4) 0.2443(5) 0.1030(3)
H39 H -0.3237(4) 0.3494(5) 0.0636(3)
C24 C -0.1006(4) 0.1547(4) 0.1815(2)
C25 C -0.0141(5) 0.1111(5) 0.1443(2)
H40 H 0.0763(5) 0.1593(5) 0.1552(2)
C26 C -0.0572(6) -0.0006(5) 0.0920(3)
H41 H 0.0038(6) -0.0291(5) 0.0677(3)
C27 C -0.1882(6) -0.0718(5) 0.0744(3)
H42 H -0.2176(6) -0.1489(5) 0.0382(3)
C28 C -0.2758(6) -0.0295(5) 0.1102(3)
H43 H -0.3662(6) -0.0773(5) 0.0982(3)
C29 C -0.2327(5) 0.0817(4) 0.1634(2)
H44 H -0.2940(5) 0.1091(4) 0.1881(2)
C30 C -0.1698(4) 0.2925(4) 0.3066(2)
C31 C -0.2312(4) 0.3802(5) 0.3165(2)
H45 H -0.2086(4) 0.4476(5) 0.2919(2)
C32 C -0.3254(5) 0.3718(5) 0.3618(3)
H46 H -0.3659(5) 0.4339(5) 0.3688(3)
C33 C -0.3603(5) 0.2722(6) 0.3967(3)
H47 H -0.4254(5) 0.2658(6) 0.4274(3)
C34 C -0.3015(5) 0.1831(5) 0.3871(3)
H48 H -0.3259(5) 0.1150(5) 0.4111(3)
C35 C -0.2065(4) 0.1924(4) 0.3423(2)
H49 H -0.1658(4) 0.1304(4) 0.3358(2)
C36 C 0.1236(5) 0.5325(5) 0.4239(3)
H50 H 0.1558(5) 0.5676(5) 0.4765(3)
H51 H 0.0291(5) 0.5119(5) 0.4148(3)
H52 H 0.1653(5) 0.5949(5) 0.3962(3)
C37 C 0.3440(5) 0.4253(6) 0.4116(3)
H53 H 0.3763(5) 0.4624(6) 0.4640(3)
H54 H 0.3857(5) 0.4860(6) 0.3829(3)
H55 H 0.3644(5) 0.3481(6) 0.3971(3)
C38 C 0.0977(6) 0.2801(6) 0.4564(3)
H56 H 0.1342(6) 0.3248(6) 0.5075(3)
H57 H 0.1220(6) 0.2045(6) 0.4446(3)
H58 H 0.0026(6) 0.2551(6) 0.4498(3)
loop_
_geom_bond_atom_site_label_1
_geom_bond_atom_site_label_2
_geom_bond_site_symmetry_1
_geom_bond_site_symmetry_2
Li1 N1 1_555 1_555
Li2 N2 1_555 1_555
P1 N1 1_555 1_555
P2 N2 1_555 1_555
Si1 N1 1_555 1_555
Si2 C1 1_555 1_555
Si3 N2 1_555 1_555
Si4 C20 1_555 1_555
N2 Li1 1_555 1_555
C1 Li2 1_555 1_555
H1 C1 1_555 1_555
C2 Si1 1_555 1_555
H2 C2 1_555 1_555
H3 C2 1_555 1_555
H4 C2 1_555 1_555
C3 Si1 1_555 1_555
H5 C3 1_555 1_555
H6 C3 1_555 1_555
H7 C3 1_555 1_555
C4 Si1 1_555 1_555
H8 C4 1_555 1_555
H9 C4 1_555 1_555
H10 C4 1_555 1_555
C5 P1 1_555 1_555
C6 C5 1_555 1_555
H11 C6 1_555 1_555
C7 C6 1_555 1_555
H12 C7 1_555 1_555
C8 C7 1_555 1_555
H13 C8 1_555 1_555
C9 C8 1_555 1_555
H14 C9 1_555 1_555
C10 C5 1_555 1_555
H15 C10 1_555 1_555
C11 P1 1_555 1_555
C12 C11 1_555 1_555
H16 C12 1_555 1_555
C13 C12 1_555 1_555
H17 C13 1_555 1_555
C14 C13 1_555 1_555
H18 C14 1_555 1_555
C15 C14 1_555 1_555
H19 C15 1_555 1_555
C16 C11 1_555 1_555
H20 C16 1_555 1_555
C17 Si2 1_555 1_555
H21 C17 1_555 1_555
H22 C17 1_555 1_555
H23 C17 1_555 1_555
C18 Si2 1_555 1_555
H24 C18 1_555 1_555
H25 C18 1_555 1_555
H26 C18 1_555 1_555
C19 Si2 1_555 1_555
H27 C19 1_555 1_555
H28 C19 1_555 1_555
H29 C19 1_555 1_555
C20 Li2 1_555 1_555
H30 C20 1_555 1_555
C21 Si3 1_555 1_555
H31 C21 1_555 1_555
H32 C21 1_555 1_555
H33 C21 1_555 1_555
C22 Si3 1_555 1_555
H34 C22 1_555 1_555
H35 C22 1_555 1_555
H36 C22 1_555 1_555
C23 Si3 1_555 1_555
H37 C23 1_555 1_555
H38 C23 1_555 1_555
H39 C23 1_555 1_555
C24 P2 1_555 1_555
C25 C24 1_555 1_555
H40 C25 1_555 1_555
C26 C25 1_555 1_555
H41 C26 1_555 1_555
C27 C26 1_555 1_555
H42 C27 1_555 1_555
C28 C27 1_555 1_555
H43 C28 1_555 1_555
C29 C24 1_555 1_555
H44 C29 1_555 1_555
C30 P2 1_555 1_555
C31 C30 1_555 1_555
H45 C31 1_555 1_555
C32 C31 1_555 1_555
H46 C32 1_555 1_555
C33 C32 1_555 1_555
H47 C33 1_555 1_555
C34 C33 1_555 1_555
H48 C34 1_555 1_555
C35 C30 1_555 1_555
H49 C35 1_555 1_555
C36 Si4 1_555 1_555
H50 C36 1_555 1_555
H51 C36 1_555 1_555
H52 C36 1_555 1_555
C37 Si4 1_555 1_555
H53 C37 1_555 1_555
H54 C37 1_555 1_555
H55 C37 1_555 1_555
C38 Si4 1_555 1_555
H56 C38 1_555 1_555
H57 C38 1_555 1_555
H58 C38 1_555 1_555
P1 C1 1_555 1_555
P2 C20 1_555 1_555
C9 C10 1_555 1_555
C15 C16 1_555 1_555
C28 C29 1_555 1_555
C34 C35 1_555 1_555

#END
