
#######################################################################
#
#                 Cambridge Crystallographic Data Centre
#                                CCDC 
#
#######################################################################
#
# If this CIF has been generated from an entry in the Cambridge 
# Structural Database, then it will include bibliographic, chemical, 
# crystal, experimental, refinement or atomic coordinate data resulting 
# from the CCDC's data processing and validation procedures.
#
#######################################################################

data_HOTFOM
_chemical_formula_moiety         'C14 H11 N3 O1 S1'
_chemical_name_systematic        5-(4-Phenoxyphenyl)-1,3,4-thiadiazol-2-amine
_symmetry_cell_setting           monoclinic
_symmetry_space_group_name_H-M   'P 21/c'
_symmetry_Int_Tables_number      14
_space_group_name_Hall           '-P 2ybc'
loop_
_symmetry_equiv_pos_site_id
_symmetry_equiv_pos_as_xyz
1 x,y,z
2 -x,1/2+y,1/2-z
3 -x,-y,-z
4 x,1/2-y,1/2+z
_cell_length_a                   13.409(3)
_cell_length_b                   10.582(2)
_cell_length_c                   9.5710(19)
_cell_angle_alpha                90
_cell_angle_beta                 108.58(3)
_cell_angle_gamma                90
_cell_volume                     1287.28
_exptl_crystal_colour            colorless
_exptl_crystal_description       block
_chemical_melting_point          '542 K'
_cell_formula_units_Z            4
_exptl_crystal_recrystallization_method acetone
loop_
_atom_site_label
_atom_site_type_symbol
_atom_site_fract_x
_atom_site_fract_y
_atom_site_fract_z
S1 S 0.07308(7) 0.15388(7) 0.18224(8)
O1 O 0.3343(2) -0.0997(2) -0.2453(3)
N1 N 0.0991(2) -0.0816(2) 0.2420(3)
N2 N 0.0458(2) -0.0359(2) 0.3336(3)
N3 N -0.0237(2) 0.1545(2) 0.3882(3)
H1 H -0.0449 0.1197 0.4550
H2 H -0.0344 0.2337 0.3693
C1 C 0.4549(4) 0.1716(4) -0.4561(5)
H3 H 0.4826 0.2314 -0.5046
C2 C 0.3629(4) 0.1137(4) -0.5265(5)
H4 H 0.3273 0.1343 -0.6242
C3 C 0.3208(3) 0.0249(4) -0.4566(5)
H5 H 0.2572 -0.0142 -0.5061
C4 C 0.3732(3) -0.0048(3) -0.3145(4)
C5 C 0.4662(3) 0.0517(4) -0.2422(4)
H6 H 0.5027 0.0301 -0.1451
C6 C 0.5062(3) 0.1415(4) -0.3144(5)
H7 H 0.5691 0.1818 -0.2648
C7 C 0.2835(3) -0.0671(3) -0.1459(4)
C8 C 0.2482(3) 0.0534(3) -0.1339(4)
H8 H 0.2603 0.1185 -0.1918
C9 C 0.1947(3) 0.0763(3) -0.0349(4)
H9 H 0.1701 0.1573 -0.0272
C10 C 0.1769(2) -0.0194(3) 0.0532(3)
C11 C 0.2148(2) -0.1399(3) 0.0400(4)
H10 H 0.2044 -0.2051 0.0989
C12 C 0.2673(2) -0.1634(3) -0.0592(4)
H11 H 0.2919 -0.2443 -0.0677
C13 C 0.1199(2) 0.0043(3) 0.1577(3)
C14 C 0.0255(2) 0.0854(3) 0.3138(3)
loop_
_geom_bond_atom_site_label_1
_geom_bond_atom_site_label_2
_geom_bond_site_symmetry_1
_geom_bond_site_symmetry_2
S1 C13 1_555 1_555
O1 C4 1_555 1_555
N1 N2 1_555 1_555
N2 C14 1_555 1_555
N3 H1 1_555 1_555
H2 N3 1_555 1_555
C1 H3 1_555 1_555
C2 C1 1_555 1_555
H4 C2 1_555 1_555
C3 C2 1_555 1_555
H5 C3 1_555 1_555
C4 C3 1_555 1_555
C5 C4 1_555 1_555
H6 C5 1_555 1_555
C6 C1 1_555 1_555
H7 C6 1_555 1_555
C7 O1 1_555 1_555
C8 C7 1_555 1_555
H8 C8 1_555 1_555
C9 C8 1_555 1_555
H9 C9 1_555 1_555
C10 C9 1_555 1_555
C11 C10 1_555 1_555
H10 C11 1_555 1_555
C12 C7 1_555 1_555
H11 C12 1_555 1_555
C13 N1 1_555 1_555
C14 S1 1_555 1_555
N3 C14 1_555 1_555
C5 C6 1_555 1_555
C10 C13 1_555 1_555
C11 C12 1_555 1_555

#END
