
#######################################################################
#
#                 Cambridge Crystallographic Data Centre
#                                CCDC 
#
#######################################################################
#
# If this CIF has been generated from an entry in the Cambridge 
# Structural Database, then it will include bibliographic, chemical, 
# crystal, experimental, refinement or atomic coordinate data resulting 
# from the CCDC's data processing and validation procedures.
#
#######################################################################

data_HOTFOL
_chemical_formula_moiety         'C27 H49 Li1 N1 O2 P1 Si2'
_chemical_name_systematic        
1,3-bis(Trimethylsilyl)-(2,2-diphenyl-3-aza-2-phospha-allyl-C,N)-bis(ethoxyethane)-lithium
_symmetry_cell_setting           triclinic
_symmetry_space_group_name_H-M   'P -1'
_symmetry_Int_Tables_number      2
_space_group_name_Hall           '-P 1'
loop_
_symmetry_equiv_pos_site_id
_symmetry_equiv_pos_as_xyz
1 x,y,z
2 -x,-y,-z
_cell_length_a                   9.332(3)
_cell_length_b                   10.682(4)
_cell_length_c                   17.870(5)
_cell_angle_alpha                89.36(3)
_cell_angle_beta                 79.07(3)
_cell_angle_gamma                65.26(3)
_cell_volume                     1583.86
_exptl_crystal_colour            yellow
_cell_formula_units_Z            2
loop_
_atom_site_label
_atom_site_type_symbol
_atom_site_fract_x
_atom_site_fract_y
_atom_site_fract_z
Li1 Li -0.0255(6) 0.4341(5) 0.7525(3)
P1 P 0.10178(8) 0.16617(7) 0.73824(4)
Si1 Si 0.29870(9) 0.25637(8) 0.61131(4)
Si2 Si -0.17078(9) 0.20695(8) 0.88395(4)
O1 O 0.0207(3) 0.5503(2) 0.81879(13)
O2 O -0.1865(3) 0.5556(2) 0.69517(14)
N1 N 0.1558(3) 0.2697(2) 0.68879(12)
C1 C -0.0840(3) 0.2544(3) 0.7945(2)
H1 H -0.1569(38) 0.2942(31) 0.7666(18)
C2 C 0.5078(4) 0.1573(4) 0.6265(2)
H2 H 0.5241(4) 0.0630(4) 0.6382(2)
H3 H 0.5246(4) 0.2027(4) 0.6692(2)
H4 H 0.5849(4) 0.1539(4) 0.5801(2)
C3 C 0.2760(4) 0.4343(3) 0.5894(2)
H5 H 0.1669(4) 0.4896(3) 0.5810(2)
H6 H 0.3548(4) 0.4289(3) 0.5432(2)
H7 H 0.2944(4) 0.4777(3) 0.6324(2)
C4 C 0.2794(5) 0.1777(4) 0.5228(2)
H8 H 0.1701(5) 0.2282(4) 0.5136(2)
H9 H 0.3007(5) 0.0807(4) 0.5294(2)
H10 H 0.3574(5) 0.1829(4) 0.4791(2)
C5 C -0.0720(4) 0.2102(4) 0.9654(2)
H11 H -0.1252(4) 0.1836(4) 1.0113(2)
H12 H -0.0811(4) 0.3037(4) 0.9749(2)
H13 H 0.0421(4) 0.1451(4) 0.9525(2)
C6 C -0.3863(4) 0.3376(3) 0.9107(2)
H14 H -0.4381(4) 0.3159(3) 0.9589(2)
H15 H -0.4431(4) 0.3350(3) 0.8703(2)
H16 H -0.3901(4) 0.4301(3) 0.9168(2)
C7 C -0.1736(4) 0.0324(3) 0.8810(2)
H17 H -0.2224(4) 0.0169(3) 0.9317(2)
H18 H -0.0630(4) -0.0391(3) 0.8659(2)
H19 H -0.2367(4) 0.0284(3) 0.8439(2)
C8 C 0.2376(3) 0.0783(3) 0.80211(15)
C9 C 0.3125(3) 0.1486(3) 0.8318(2)
H20 H 0.2987(3) 0.2371(3) 0.8155(2)
C10 C 0.4074(4) 0.0907(4) 0.8853(2)
H21 H 0.4573(4) 0.1401(4) 0.9057(2)
C11 C 0.4292(4) -0.0381(4) 0.9088(2)
H22 H 0.4947(4) -0.0777(4) 0.9452(2)
C12 C 0.3562(4) -0.1094(3) 0.8796(2)
H23 H 0.3708(4) -0.1981(3) 0.8960(2)
C13 C 0.2613(3) -0.0518(3) 0.8264(2)
H24 H 0.2117(3) -0.1018(3) 0.8062(2)
C14 C 0.1187(3) 0.0245(3) 0.67516(15)
C15 C 0.2658(4) -0.0851(3) 0.6447(2)
H25 H 0.3608(4) -0.0918(3) 0.6599(2)
C16 C 0.2752(4) -0.1844(3) 0.5927(2)
H26 H 0.3759(4) -0.2597(3) 0.5731(2)
C17 C 0.1380(5) -0.1741(4) 0.5690(2)
H27 H 0.1446(5) -0.2415(4) 0.5327(2)
C18 C -0.0075(5) -0.0662(4) 0.5983(2)
H28 H -0.1016(5) -0.0583(4) 0.5817(2)
C19 C -0.0179(4) 0.0312(3) 0.6518(2)
H29 H -0.1199(4) 0.1038(3) 0.6730(2)
C20 C 0.1003(5) 0.6363(4) 0.7912(3)
H30 H 0.0441(5) 0.7273(4) 0.8209(3)
H31 H 0.0933(5) 0.6518(4) 0.7370(3)
C21 C 0.2693(5) 0.5751(6) 0.7974(3)
H32 H 0.3188(5) 0.6370(6) 0.7780(3)
H33 H 0.3260(5) 0.4858(6) 0.7672(3)
H34 H 0.2768(5) 0.5613(6) 0.8511(3)
C22 C -0.0239(6) 0.5554(6) 0.8988(2)
H35 H 0.0420(6) 0.5909(6) 0.9216(2)
H36 H 0.0039(6) 0.4598(6) 0.9138(2)
C23 C -0.1877(6) 0.6369(6) 0.9311(3)
H37 H -0.2055(6) 0.6333(6) 0.9867(3)
H38 H -0.2548(6) 0.6013(6) 0.9106(3)
H39 H -0.2166(6) 0.7328(6) 0.9184(3)
C24 C -0.3193(6) 0.6816(5) 0.7257(4)
H40 H -0.3561(6) 0.6737(5) 0.7805(4)
H41 H -0.4087(6) 0.6948(5) 0.6996(4)
C25 C -0.2877(6) 0.8024(4) 0.7187(3)
H42 H -0.3857(6) 0.8841(4) 0.7411(3)
H43 H -0.2543(6) 0.8132(4) 0.6645(3)
H44 H -0.2016(6) 0.7920(4) 0.7456(3)
C26 C -0.1977(5) 0.5014(5) 0.6230(2)
H45 H -0.2177(5) 0.5750(5) 0.5870(2)
H46 H -0.0924(5) 0.4244(5) 0.6012(2)
C27 C -0.3213(6) 0.4522(5) 0.6281(3)
H47 H -0.3198(6) 0.4179(5) 0.5772(3)
H48 H -0.4269(6) 0.5281(5) 0.6482(3)
H49 H -0.3013(6) 0.3772(5) 0.6624(3)
loop_
_geom_bond_atom_site_label_1
_geom_bond_atom_site_label_2
_geom_bond_site_symmetry_1
_geom_bond_site_symmetry_2
Li1 O1 1_555 1_555
P1 N1 1_555 1_555
Si1 N1 1_555 1_555
Si2 C1 1_555 1_555
O1 C20 1_555 1_555
O2 Li1 1_555 1_555
N1 Li1 1_555 1_555
C1 Li1 1_555 1_555
H1 C1 1_555 1_555
C2 Si1 1_555 1_555
H2 C2 1_555 1_555
H3 C2 1_555 1_555
H4 C2 1_555 1_555
C3 Si1 1_555 1_555
H5 C3 1_555 1_555
H6 C3 1_555 1_555
H7 C3 1_555 1_555
C4 Si1 1_555 1_555
H8 C4 1_555 1_555
H9 C4 1_555 1_555
H10 C4 1_555 1_555
C5 Si2 1_555 1_555
H11 C5 1_555 1_555
H12 C5 1_555 1_555
H13 C5 1_555 1_555
C6 Si2 1_555 1_555
H14 C6 1_555 1_555
H15 C6 1_555 1_555
H16 C6 1_555 1_555
C7 Si2 1_555 1_555
H17 C7 1_555 1_555
H18 C7 1_555 1_555
H19 C7 1_555 1_555
C8 P1 1_555 1_555
C9 C8 1_555 1_555
H20 C9 1_555 1_555
C10 C9 1_555 1_555
H21 C10 1_555 1_555
C11 C10 1_555 1_555
H22 C11 1_555 1_555
C12 C11 1_555 1_555
H23 C12 1_555 1_555
C13 C8 1_555 1_555
H24 C13 1_555 1_555
C14 P1 1_555 1_555
C15 C14 1_555 1_555
H25 C15 1_555 1_555
C16 C15 1_555 1_555
H26 C16 1_555 1_555
C17 C16 1_555 1_555
H27 C17 1_555 1_555
C18 C17 1_555 1_555
H28 C18 1_555 1_555
C19 C14 1_555 1_555
H29 C19 1_555 1_555
C20 H30 1_555 1_555
H31 C20 1_555 1_555
C21 C20 1_555 1_555
H32 C21 1_555 1_555
H33 C21 1_555 1_555
H34 C21 1_555 1_555
C22 O1 1_555 1_555
H35 C22 1_555 1_555
H36 C22 1_555 1_555
C23 C22 1_555 1_555
H37 C23 1_555 1_555
H38 C23 1_555 1_555
H39 C23 1_555 1_555
C24 O2 1_555 1_555
H40 C24 1_555 1_555
H41 C24 1_555 1_555
C25 C24 1_555 1_555
H42 C25 1_555 1_555
H43 C25 1_555 1_555
H44 C25 1_555 1_555
C26 O2 1_555 1_555
H45 C26 1_555 1_555
H46 C26 1_555 1_555
C27 C26 1_555 1_555
H47 C27 1_555 1_555
H48 C27 1_555 1_555
H49 C27 1_555 1_555
P1 C1 1_555 1_555
C12 C13 1_555 1_555
C18 C19 1_555 1_555

#END
