
#######################################################################
#
#                 Cambridge Crystallographic Data Centre
#                                CCDC 
#
#######################################################################
#
# If this CIF has been generated from an entry in the Cambridge 
# Structural Database, then it will include bibliographic, chemical, 
# crystal, experimental, refinement or atomic coordinate data resulting 
# from the CCDC's data processing and validation procedures.
#
#######################################################################

data_HOTLAE
_chemical_formula_moiety         'C22 H33 N3 S1'
_chemical_name_systematic        
N-(6-Ethyl-4-thia-1,2-diazaspiro[4.11]hexadec-1-en-3-ylidene)-4-methylaniline
_symmetry_cell_setting           monoclinic
_symmetry_space_group_name_H-M   'P 21/n'
_symmetry_Int_Tables_number      14
_space_group_name_Hall           '-P 2yn'
loop_
_symmetry_equiv_pos_site_id
_symmetry_equiv_pos_as_xyz
1 x,y,z
2 1/2-x,1/2+y,1/2-z
3 -x,-y,-z
4 1/2+x,1/2-y,1/2+z
_cell_length_a                   12.916(3)
_cell_length_b                   10.273(2)
_cell_length_c                   16.287(3)
_cell_angle_alpha                90
_cell_angle_beta                 104.75(3)
_cell_angle_gamma                90
_cell_volume                     2089.84
_exptl_crystal_colour            yellow
_exptl_crystal_description       platelet
_cell_formula_units_Z            4
loop_
_atom_site_label
_atom_site_type_symbol
_atom_site_fract_x
_atom_site_fract_y
_atom_site_fract_z
S1 S 1.18951(4) -0.11436(5) 0.46678(4)
N1 N 1.00207(14) -0.23553(18) 0.44386(12)
N2 N 1.01268(15) -0.17797(18) 0.51238(12)
N3 N 1.13148(15) -0.05532(18) 0.61471(12)
C1 C 1.08958(16) -0.22386(19) 0.40061(13)
C2 C 1.13684(17) -0.3616(2) 0.39500(14)
H1 H 1.0833 -0.4120 0.3538
C3 C 1.23871(17) -0.3540(2) 0.36179(16)
H2 H 1.2379 -0.2722 0.3319
H3 H 1.3008 -0.3532 0.4101
C4 C 1.25184(19) -0.4654(2) 0.30219(17)
H4 H 1.3235 -0.4607 0.2938
H5 H 1.2461 -0.5474 0.3302
C5 C 1.17210(19) -0.4667(2) 0.21553(16)
H6 H 1.1003 -0.4607 0.2234
H7 H 1.1778 -0.5493 0.1882
C6 C 1.18792(19) -0.3572(2) 0.15709(17)
H8 H 1.2576 -0.3675 0.1456
H9 H 1.1883 -0.2750 0.1865
C7 C 1.1033(2) -0.3507(3) 0.07280(16)
H10 H 1.1009 -0.4341 0.0445
H11 H 1.1250 -0.2859 0.0372
C8 C 0.9908(2) -0.3173(3) 0.08018(17)
H12 H 0.9710 -0.3779 0.1192
H13 H 0.9408 -0.3287 0.0251
C9 C 0.9805(2) -0.1781(2) 0.11118(15)
H14 H 1.0510 -0.1474 0.1412
H15 H 0.9549 -0.1223 0.0622
C10 C 0.90532(19) -0.1643(2) 0.16953(15)
H16 H 0.8938 -0.0724 0.1778
H17 H 0.8366 -0.2022 0.1415
C11 C 0.94570(17) -0.2282(2) 0.25629(15)
H18 H 0.8878 -0.2306 0.2843
H19 H 0.9659 -0.3174 0.2484
C12 C 1.04116(17) -0.1583(2) 0.31358(13)
H20 H 1.0192 -0.0707 0.3237
H21 H 1.0969 -0.1510 0.2836
C13 C 1.1563(2) -0.4313(2) 0.48160(16)
H22 H 1.2025 -0.3766 0.5241
H23 H 1.0882 -0.4379 0.4962
C14 C 1.2052(3) -0.5652(3) 0.4877(2)
H24 H 1.2136 -0.5986 0.5441
H25 H 1.2739 -0.5603 0.4754
H26 H 1.1593 -0.6219 0.4476
C15 C 1.11287(17) -0.1066(2) 0.54177(14)
C16 C 1.22543(18) 0.0170(2) 0.64955(13)
C17 C 1.26505(19) 0.1112(2) 0.60465(14)
H27 H 1.2316 0.1256 0.5477
C18 C 1.3539(2) 0.1837(2) 0.64399(15)
H28 H 1.3790 0.2468 0.6129
C19 C 1.40694(19) 0.1649(2) 0.72867(15)
C20 C 1.3661(2) 0.0716(2) 0.77335(15)
H29 H 1.3997 0.0575 0.8303
C21 C 1.2762(2) -0.0012(2) 0.73511(14)
H30 H 1.2497 -0.0623 0.7667
C22 C 1.5047(2) 0.2435(3) 0.76997(18)
H31 H 1.5305 0.2175 0.8282
H32 H 1.4864 0.3343 0.7674
H33 H 1.5593 0.2290 0.7406
loop_
_geom_bond_atom_site_label_1
_geom_bond_atom_site_label_2
_geom_bond_site_symmetry_1
_geom_bond_site_symmetry_2
S1 C1 1_555 1_555
N1 N2 1_555 1_555
N2 C15 1_555 1_555
N3 C15 1_555 1_555
C1 N1 1_555 1_555
C2 C1 1_555 1_555
H1 C2 1_555 1_555
C3 C2 1_555 1_555
H2 C3 1_555 1_555
H3 C3 1_555 1_555
C4 C3 1_555 1_555
H4 C4 1_555 1_555
H5 C4 1_555 1_555
C5 C4 1_555 1_555
H6 C5 1_555 1_555
H7 C5 1_555 1_555
C6 C5 1_555 1_555
H8 C6 1_555 1_555
H9 C6 1_555 1_555
C7 C6 1_555 1_555
H10 C7 1_555 1_555
H11 C7 1_555 1_555
C8 C7 1_555 1_555
H12 C8 1_555 1_555
H13 C8 1_555 1_555
C9 C8 1_555 1_555
H14 C9 1_555 1_555
H15 C9 1_555 1_555
C10 C9 1_555 1_555
H16 C10 1_555 1_555
H17 C10 1_555 1_555
C11 C10 1_555 1_555
H18 C11 1_555 1_555
H19 C11 1_555 1_555
C12 C1 1_555 1_555
H20 C12 1_555 1_555
H21 C12 1_555 1_555
C13 C2 1_555 1_555
H22 C13 1_555 1_555
H23 C13 1_555 1_555
C14 C13 1_555 1_555
H24 C14 1_555 1_555
H25 C14 1_555 1_555
H26 C14 1_555 1_555
C15 S1 1_555 1_555
C16 N3 1_555 1_555
C17 C16 1_555 1_555
H27 C17 1_555 1_555
C18 C17 1_555 1_555
H28 C18 1_555 1_555
C19 C18 1_555 1_555
C20 C19 1_555 1_555
H29 C20 1_555 1_555
C21 C16 1_555 1_555
H30 C21 1_555 1_555
C22 C19 1_555 1_555
H31 C22 1_555 1_555
H32 C22 1_555 1_555
H33 C22 1_555 1_555
C11 C12 1_555 1_555
C20 C21 1_555 1_555

#END
