
#######################################################################
#
#                 Cambridge Crystallographic Data Centre
#                                CCDC 
#
#######################################################################
#
# If this CIF has been generated from an entry in the Cambridge 
# Structural Database, then it will include bibliographic, chemical, 
# crystal, experimental, refinement or atomic coordinate data resulting 
# from the CCDC's data processing and validation procedures.
#
#######################################################################

data_HOTNIP
_chemical_formula_moiety         'C19 H18 N2 O4 S1'
_chemical_name_systematic        
2-((4-methoxyphenyl)sulfonyl)-1,2,3,4-tetrahydro-5H-[1,4]diazepino[1,2-a]indol-5-one
_symmetry_cell_setting           monoclinic
_symmetry_space_group_name_H-M   'P 21/c'
_symmetry_Int_Tables_number      14
_space_group_name_Hall           '-P 2ybc'
loop_
_symmetry_equiv_pos_site_id
_symmetry_equiv_pos_as_xyz
1 x,y,z
2 -x,1/2+y,1/2-z
3 -x,-y,-z
4 x,1/2-y,1/2+z
_cell_length_a                   7.5507(15)
_cell_length_b                   20.462(4)
_cell_length_c                   11.003(2)
_cell_angle_alpha                90
_cell_angle_beta                 96.46(3)
_cell_angle_gamma                90
_cell_volume                     1689.2
_exptl_crystal_colour            colorless
_cell_formula_units_Z            4
loop_
_atom_site_label
_atom_site_type_symbol
_atom_site_fract_x
_atom_site_fract_y
_atom_site_fract_z
S1 S 0.47969(6) 0.54001(2) 0.26323(4)
O1 O 1.0643(2) 0.41628(7) 0.09966(13)
O2 O 0.40138(17) 0.54031(6) 0.13881(12)
O3 O 0.39930(17) 0.50219(7) 0.35167(13)
O4 O 0.5327(2) 0.81089(6) 0.44402(14)
N1 N 0.96615(19) 0.40969(7) 0.28551(13)
N2 N 0.68244(19) 0.51249(7) 0.26209(13)
C1 C 1.0005(2) 0.34255(9) 0.30655(16)
C2 C 1.0872(3) 0.29701(9) 0.24044(18)
H1 H 1.1377 0.3088 0.1703
C3 C 1.0949(3) 0.23346(10) 0.28348(19)
H2 H 1.1512 0.2019 0.2406
C4 C 1.0218(3) 0.21509(10) 0.3881(2)
H3 H 1.0284 0.1718 0.4137
C5 C 0.9391(3) 0.26079(10) 0.45462(18)
H4 H 0.8912 0.2487 0.5256
C6 C 0.9284(2) 0.32518(9) 0.41394(16)
C7 C 0.8468(2) 0.38269(10) 0.45669(17)
H5 H 0.7882 0.3853 0.5265
C8 C 0.8684(2) 0.43219(9) 0.37977(16)
C9 C 0.7860(2) 0.49844(9) 0.38123(17)
H6 H 0.7082 0.5005 0.4455
H7 H 0.8786 0.5311 0.3982
C10 C 0.7808(3) 0.53797(9) 0.16404(18)
H8 H 0.7741 0.5853 0.1632
H9 H 0.7254 0.5222 0.0857
C11 C 0.9759(2) 0.51708(9) 0.18108(19)
H10 H 1.0352 0.5357 0.1154
H11 H 1.0318 0.5353 0.2574
C12 C 1.0054(2) 0.44440(9) 0.18286(17)
C13 C 0.4944(2) 0.62141(9) 0.31463(16)
C14 C 0.5687(2) 0.63569(9) 0.43388(17)
H12 H 0.6104 0.6021 0.4865
C15 C 0.5799(3) 0.69963(9) 0.47312(17)
H13 H 0.6311 0.7093 0.5519
C16 C 0.5151(2) 0.74974(9) 0.39547(17)
C17 C 0.4380(3) 0.73588(9) 0.27843(18)
H14 H 0.3914 0.7693 0.2272
C18 C 0.4305(3) 0.67151(9) 0.23790(17)
H15 H 0.3821 0.6621 0.1584
C19 C 0.4689(4) 0.86513(10) 0.3700(2)
H16 H 0.5316 0.8671 0.2988
H17 H 0.4886 0.9048 0.4161
H18 H 0.3437 0.8599 0.3452
loop_
_geom_bond_atom_site_label_1
_geom_bond_atom_site_label_2
_geom_bond_site_symmetry_1
_geom_bond_site_symmetry_2
S1 O2 1_555 1_555
O1 C12 1_555 1_555
O3 S1 1_555 1_555
O4 C16 1_555 1_555
N1 C1 1_555 1_555
N2 S1 1_555 1_555
C1 C2 1_555 1_555
C2 H1 1_555 1_555
C3 C2 1_555 1_555
H2 C3 1_555 1_555
C4 C3 1_555 1_555
H3 C4 1_555 1_555
C5 C4 1_555 1_555
H4 C5 1_555 1_555
C6 C1 1_555 1_555
C7 C6 1_555 1_555
H5 C7 1_555 1_555
C8 N1 1_555 1_555
C9 N2 1_555 1_555
H6 C9 1_555 1_555
H7 C9 1_555 1_555
C10 N2 1_555 1_555
H8 C10 1_555 1_555
H9 C10 1_555 1_555
C11 C10 1_555 1_555
H10 C11 1_555 1_555
H11 C11 1_555 1_555
C12 N1 1_555 1_555
C13 S1 1_555 1_555
C14 C13 1_555 1_555
H12 C14 1_555 1_555
C15 C14 1_555 1_555
H13 C15 1_555 1_555
C16 C15 1_555 1_555
C17 C16 1_555 1_555
H14 C17 1_555 1_555
C18 C13 1_555 1_555
H15 C18 1_555 1_555
C19 O4 1_555 1_555
H16 C19 1_555 1_555
H17 C19 1_555 1_555
H18 C19 1_555 1_555
C5 C6 1_555 1_555
C7 C8 1_555 1_555
C8 C9 1_555 1_555
C11 C12 1_555 1_555
C17 C18 1_555 1_555

#END
