
#######################################################################
#
#                 Cambridge Crystallographic Data Centre
#                                CCDC 
#
#######################################################################
#
# If this CIF has been generated from an entry in the Cambridge 
# Structural Database, then it will include bibliographic, chemical, 
# crystal, experimental, refinement or atomic coordinate data resulting 
# from the CCDC's data processing and validation procedures.
#
#######################################################################

data_HOTNUB
_chemical_formula_moiety         'C19 H12 Br1 N1 O1'
_chemical_name_systematic        
7-(4-bromophenyl)-6H-pyrido[2,1-a]isoquinolin-6-one
_symmetry_cell_setting           monoclinic
_symmetry_space_group_name_H-M   'P 21/c'
_symmetry_Int_Tables_number      14
_space_group_name_Hall           '-P 2ybc'
loop_
_symmetry_equiv_pos_site_id
_symmetry_equiv_pos_as_xyz
1 x,y,z
2 -x,1/2+y,1/2-z
3 -x,-y,-z
4 x,1/2-y,1/2+z
_cell_length_a                   11.8326(2)
_cell_length_b                   7.7368(2)
_cell_length_c                   15.4846(3)
_cell_angle_alpha                90
_cell_angle_beta                 90.846(1)
_cell_angle_gamma                90
_cell_volume                     1417.41
_exptl_crystal_colour            orange
_exptl_crystal_description       plate
_cell_formula_units_Z            4
loop_
_atom_site_label
_atom_site_type_symbol
_atom_site_fract_x
_atom_site_fract_y
_atom_site_fract_z
Br1 Br 1.00508(3) 0.13923(5) 0.40417(2)
N1 N 1.49326(19) 0.2524(3) 0.02557(13)
O1 O 1.47048(18) 0.2828(3) 0.17263(12)
C1 C 1.5929(2) 0.3404(4) 0.03743(18)
H1 H 1.6159 0.3719 0.0936
C2 C 1.6588(3) 0.3828(4) -0.03017(19)
H2 H 1.7271 0.4426 -0.0210
C3 C 1.6240(3) 0.3363(4) -0.11398(19)
H3 H 1.6682 0.3662 -0.1616
C4 C 1.5256(3) 0.2476(4) -0.12594(18)
H4 H 1.5025 0.2169 -0.1822
C5 C 1.4573(2) 0.2004(4) -0.05519(16)
C6 C 1.3538(2) 0.1072(4) -0.06402(16)
C7 C 1.3180(3) 0.0368(4) -0.14439(17)
H5 H 1.3632 0.0513 -0.1933
C8 C 1.2188(3) -0.0519(5) -0.15149(19)
H6 H 1.1955 -0.0973 -0.2052
C9 C 1.1515(3) -0.0755(4) -0.0787(2)
H7 H 1.0833 -0.1372 -0.0840
C10 C 1.1836(2) -0.0102(4) -0.00036(19)
H8 H 1.1370 -0.0274 0.0475
C11 C 1.2862(2) 0.0835(4) 0.01029(17)
C12 C 1.3222(2) 0.1489(4) 0.09195(16)
C13 C 1.4275(2) 0.2267(4) 0.10447(16)
C14 C 1.2464(2) 0.1426(4) 0.16788(16)
C15 C 1.2744(3) 0.0508(4) 0.24261(18)
H9 H 1.3434 -0.0093 0.2461
C16 C 1.2014(3) 0.0475(4) 0.31184(18)
H10 H 1.2196 -0.0174 0.3614
C17 C 1.1021(2) 0.1399(4) 0.30741(18)
C18 C 1.0727(2) 0.2338(4) 0.23509(19)
H11 H 1.0050 0.2973 0.2330
C19 C 1.1449(2) 0.2331(4) 0.16525(18)
H12 H 1.1247 0.2951 0.1151
loop_
_geom_bond_atom_site_label_1
_geom_bond_atom_site_label_2
_geom_bond_site_symmetry_1
_geom_bond_site_symmetry_2
Br1 C17 1_555 1_555
N1 C1 1_555 1_555
O1 C13 1_555 1_555
C1 H1 1_555 1_555
C2 C1 1_555 1_555
H2 C2 1_555 1_555
C3 C2 1_555 1_555
H3 C3 1_555 1_555
C4 C3 1_555 1_555
H4 C4 1_555 1_555
C5 N1 1_555 1_555
C6 C5 1_555 1_555
C7 C6 1_555 1_555
H5 C7 1_555 1_555
C8 C7 1_555 1_555
H6 C8 1_555 1_555
C9 C8 1_555 1_555
H7 C9 1_555 1_555
C10 C9 1_555 1_555
H8 C10 1_555 1_555
C11 C6 1_555 1_555
C12 C11 1_555 1_555
C13 N1 1_555 1_555
C14 C12 1_555 1_555
C15 C14 1_555 1_555
H9 C15 1_555 1_555
C16 C15 1_555 1_555
H10 C16 1_555 1_555
C17 C16 1_555 1_555
C18 C17 1_555 1_555
H11 C18 1_555 1_555
C19 C14 1_555 1_555
H12 C19 1_555 1_555
C4 C5 1_555 1_555
C10 C11 1_555 1_555
C12 C13 1_555 1_555
C18 C19 1_555 1_555

#END
