
#######################################################################
#
#                 Cambridge Crystallographic Data Centre
#                                CCDC 
#
#######################################################################
#
# If this CIF has been generated from an entry in the Cambridge 
# Structural Database, then it will include bibliographic, chemical, 
# crystal, experimental, refinement or atomic coordinate data resulting 
# from the CCDC's data processing and validation procedures.
#
#######################################################################

data_HOTNUA
_chemical_name_common            
'2-Hydroxy-5-nitrobenzene-1,3-diyl dibenzenesulfonate'
_chemical_formula_moiety         'C18 H13 N1 O9 S2'
_chemical_name_systematic        
'2-Hydroxy-5-nitro-1,3-phenylene dibenzenesulfonate'
_symmetry_cell_setting           monoclinic
_symmetry_space_group_name_H-M   'P 21/c'
_symmetry_Int_Tables_number      14
_space_group_name_Hall           '-P 2ybc'
loop_
_symmetry_equiv_pos_site_id
_symmetry_equiv_pos_as_xyz
1 x,y,z
2 -x,1/2+y,1/2-z
3 -x,-y,-z
4 x,1/2-y,1/2+z
_cell_length_a                   7.5390(15)
_cell_length_b                   11.552(2)
_cell_length_c                   21.726(4)
_cell_angle_alpha                90
_cell_angle_beta                 93.01(3)
_cell_angle_gamma                90
_cell_volume                     1889.52
_exptl_crystal_colour            colorless
_exptl_crystal_description       block
_cell_formula_units_Z            4
_exptl_crystal_recrystallization_method 'ethyl acetate/petroleum ether'
loop_
_atom_site_label
_atom_site_type_symbol
_atom_site_fract_x
_atom_site_fract_y
_atom_site_fract_z
N1 N 0.9709(4) 0.3959(3) 0.28128(12)
S1 S 0.97563(10) 0.29109(9) 0.03428(4)
O1 O 0.9998(3) 0.3387(3) -0.02474(11)
C1 C 0.7629(5) -0.0153(4) 0.07375(19)
H1 H 0.7450 -0.0608 0.1082
S2 S 0.33565(11) 0.15823(8) 0.21898(4)
O2 O 1.1226(3) 0.2834(3) 0.07866(12)
C2 C 0.7023(5) -0.0527(4) 0.0162(2)
H2 H 0.6455 -0.1240 0.0120
O3 O 0.8286(3) 0.3757(2) 0.06136(9)
C3 C 0.7248(5) 0.0140(4) -0.03493(19)
H3 H 0.6852 -0.0131 -0.0736
O4 O 0.1473(3) 0.1568(3) 0.21808(12)
C4 C 0.8060(5) 0.1215(4) -0.02967(16)
H4 H 0.8179 0.1681 -0.0641
O5 O 0.4309(4) 0.0866(2) 0.17920(12)
C5 C 0.8688(4) 0.1575(3) 0.02805(14)
O6 O 0.3791(3) 0.29110(19) 0.20159(10)
C6 C 0.8504(5) 0.0897(4) 0.08046(16)
H5 H 0.8957 0.1144 0.1189
O7 O 0.9282(4) 0.3672(3) 0.33225(11)
C7 C 0.3883(6) 0.1517(4) 0.40271(17)
H6 H 0.3189 0.1681 0.4358
O8 O 1.1148(3) 0.4389(3) 0.27122(11)
C8 C 0.3178(5) 0.1671(3) 0.34315(16)
H7 H 0.2026 0.1945 0.3358
O9 O 0.4964(3) 0.3074(2) 0.08157(9)
H8 H 0.3937 0.3041 0.0922
C9 C 0.4235(4) 0.1404(3) 0.29461(14)
C10 C 0.5962(5) 0.0996(3) 0.30564(17)
H9 H 0.6661 0.0808 0.2731
C11 C 0.6614(5) 0.0876(3) 0.36604(18)
H10 H 0.7772 0.0619 0.3742
C12 C 0.5579(6) 0.1130(4) 0.41368(18)
H11 H 0.6032 0.1039 0.4540
C13 C 0.5567(4) 0.3201(2) 0.19198(14)
C14 C 0.6064(4) 0.3280(3) 0.13119(14)
C15 C 0.7810(4) 0.3614(3) 0.12276(13)
C16 C 0.9016(4) 0.3859(3) 0.17087(14)
H12 H 1.0171 0.4087 0.1639
C17 C 0.8443(4) 0.3754(3) 0.22956(13)
C18 C 0.6726(4) 0.3444(3) 0.24125(14)
H13 H 0.6362 0.3401 0.2814
loop_
_geom_bond_atom_site_label_1
_geom_bond_atom_site_label_2
_geom_bond_site_symmetry_1
_geom_bond_site_symmetry_2
N1 O7 1_555 1_555
S1 O1 1_555 1_555
C1 H1 1_555 1_555
S2 O4 1_555 1_555
O2 S1 1_555 1_555
C2 C1 1_555 1_555
H2 C2 1_555 1_555
O3 S1 1_555 1_555
C3 C2 1_555 1_555
H3 C3 1_555 1_555
C4 C3 1_555 1_555
H4 C4 1_555 1_555
O5 S2 1_555 1_555
C5 S1 1_555 1_555
O6 S2 1_555 1_555
C6 C1 1_555 1_555
H5 C6 1_555 1_555
C7 H6 1_555 1_555
O8 N1 1_555 1_555
C8 C7 1_555 1_555
H7 C8 1_555 1_555
O9 H8 1_555 1_555
C9 S2 1_555 1_555
C10 C9 1_555 1_555
H9 C10 1_555 1_555
C11 C10 1_555 1_555
H10 C11 1_555 1_555
C12 C7 1_555 1_555
H11 C12 1_555 1_555
C13 O6 1_555 1_555
C14 O9 1_555 1_555
C15 O3 1_555 1_555
C16 C15 1_555 1_555
H12 C16 1_555 1_555
C17 N1 1_555 1_555
C18 C13 1_555 1_555
H13 C18 1_555 1_555
C4 C5 1_555 1_555
C5 C6 1_555 1_555
C8 C9 1_555 1_555
C11 C12 1_555 1_555
C13 C14 1_555 1_555
C14 C15 1_555 1_555
C16 C17 1_555 1_555
C17 C18 1_555 1_555

#END
