
#######################################################################
#
#                 Cambridge Crystallographic Data Centre
#                                CCDC 
#
#######################################################################
#
# If this CIF has been generated from an entry in the Cambridge 
# Structural Database, then it will include bibliographic, chemical, 
# crystal, experimental, refinement or atomic coordinate data resulting 
# from the CCDC's data processing and validation procedures.
#
#######################################################################

data_HOTVIX
_chemical_formula_moiety         'C31 H52 O2,C1 H4 O1'
_chemical_name_systematic        
'3a-(2-hydroxyethyl)-5a,5b,8,8,11a-pentamethyl-1-(prop-1-en-2-yl)icosahydro-1H-cyclopenta[a]chrysen-9-ol methanol solvate'
_symmetry_cell_setting           orthorhombic
_symmetry_space_group_name_H-M   'P 2 21 21'
_symmetry_Int_Tables_number      18
_space_group_name_Hall           'P 2bc 2'
loop_
_symmetry_equiv_pos_site_id
_symmetry_equiv_pos_as_xyz
1 x,y,z
2 -x,1/2-y,1/2+z
3 x,-y,-z
4 -x,1/2+y,1/2-z
_cell_length_a                   6.9273(3)
_cell_length_b                   12.2412(4)
_cell_length_c                   33.8983(13)
_cell_angle_alpha                90
_cell_angle_beta                 90
_cell_angle_gamma                90
_cell_volume                     2874.52
_cell_formula_units_Z            4
loop_
_atom_site_label
_atom_site_type_symbol
_atom_site_fract_x
_atom_site_fract_y
_atom_site_fract_z
O1 O -0.3343(2) 0.41940(14) -0.10545(4)
H1 H -0.4441 0.4228 -0.0965
O2 O -0.3442(2) -0.04678(11) -0.44031(4)
H2 H -0.2286 -0.0596 -0.4427
C1 C -0.1335(3) 0.42136(15) -0.20804(5)
H3 H -0.0006 0.4291 -0.2166
H4 H -0.2056 0.4828 -0.2185
C2 C -0.1399(3) 0.42575(16) -0.16280(5)
H5 H -0.0546 0.3704 -0.1521
H6 H -0.0943 0.4965 -0.1539
C3 C -0.3428(3) 0.40699(16) -0.14757(5)
H7 H -0.4260 0.4647 -0.1581
C4 C -0.4277(3) 0.29604(16) -0.16006(5)
C5 C -0.4171(3) 0.29279(15) -0.20615(5)
H8 H -0.4973 0.3544 -0.2147
C6 C -0.5129(3) 0.19270(15) -0.22474(5)
H9 H -0.4282 0.1300 -0.2223
H10 H -0.6322 0.1764 -0.2110
C7 C -0.5553(3) 0.21408(16) -0.26829(5)
H11 H -0.6498 0.2723 -0.2702
H12 H -0.6123 0.1489 -0.2797
C8 C -0.3758(3) 0.24586(14) -0.29275(5)
C9 C -0.2581(3) 0.33541(15) -0.27060(5)
H13 H -0.3410 0.4003 -0.2711
C10 C -0.2171(3) 0.31459(15) -0.22550(5)
C11 C -0.0782(3) 0.36799(16) -0.29456(5)
H14 H -0.0144 0.4284 -0.2814
H15 H 0.0109 0.3069 -0.2950
C12 C -0.1237(3) 0.40161(17) -0.33728(5)
H16 H -0.1880 0.4720 -0.3372
H17 H -0.0037 0.4096 -0.3518
C13 C -0.2519(3) 0.31821(16) -0.35837(5)
H18 H -0.1795 0.2495 -0.3594
C14 C -0.4401(3) 0.29546(15) -0.33416(5)
C15 C -0.5782(3) 0.21581(16) -0.35633(5)
H19 H -0.5277 0.1422 -0.3538
H20 H -0.7031 0.2174 -0.3434
C16 C -0.6073(3) 0.24094(17) -0.40055(6)
H21 H -0.6784 0.1816 -0.4127
H22 H -0.6835 0.3070 -0.4033
C17 C -0.4144(3) 0.25579(17) -0.42193(5)
C18 C -0.3036(3) 0.34855(16) -0.40097(5)
H23 H -0.3920 0.4109 -0.3995
C19 C -0.1410(4) 0.38140(17) -0.42966(6)
H24 H -0.0275 0.3363 -0.4240
C20 C -0.2221(5) 0.34786(19) -0.47107(6)
H25 H -0.2258 0.4105 -0.4886
H26 H -0.1417 0.2919 -0.4829
C21 C -0.4262(4) 0.30416(19) -0.46382(6)
H27 H -0.4598 0.2484 -0.4830
H28 H -0.5208 0.3625 -0.4651
C22 C -0.3011(4) 0.14650(17) -0.42276(5)
H29 H -0.1676 0.1615 -0.4295
H30 H -0.3028 0.1146 -0.3966
C23 C -0.3823(4) 0.06400(16) -0.45194(5)
H31 H -0.5206 0.0745 -0.4542
H32 H -0.3258 0.0770 -0.4777
C24 C -0.5557(3) 0.40299(16) -0.32919(5)
H33 H -0.6172 0.4213 -0.3537
H34 H -0.4696 0.4608 -0.3217
H35 H -0.6520 0.3935 -0.3091
C25 C -0.2561(3) 0.14007(15) -0.29862(5)
H36 H -0.2642 0.0959 -0.2753
H37 H -0.1237 0.1588 -0.3035
H38 H -0.3064 0.0999 -0.3207
C26 C -0.0685(3) 0.22268(16) -0.21855(6)
H39 H 0.0292 0.2258 -0.2386
H40 H -0.1324 0.1531 -0.2196
H41 H -0.0099 0.2319 -0.1931
C27 C -0.3279(3) 0.20073(16) -0.13897(5)
H42 H -0.1905 0.2080 -0.1416
H43 H -0.3686 0.1330 -0.1506
H44 H -0.3622 0.2014 -0.1115
C28 C -0.6415(3) 0.29638(18) -0.14799(5)
H45 H -0.6975 0.2264 -0.1537
H46 H -0.7087 0.3520 -0.1625
H47 H -0.6518 0.3109 -0.1202
C29 C -0.0795(4) 0.50041(17) -0.42967(5)
C30 C -0.2492(15) 0.5820(5) -0.4278(3)
H48 H -0.3096 0.5777 -0.4024
H49 H -0.3418 0.5641 -0.4479
H50 H -0.2018 0.6547 -0.4321
C31 C 0.0971(12) 0.5322(7) -0.4341(3)
H51 H 0.1312 0.6040 -0.4284
H52 H 0.1901 0.4833 -0.4431
O3 O -0.0434(3) -0.5761(2) -0.05283(5)
H58 H -0.1097 -0.5806 -0.0728
C34 C -0.1362(5) -0.6316(2) -0.02141(7)
H59 H -0.0726 -0.6144 0.0030
H60 H -0.1302 -0.7089 -0.0259
H61 H -0.2688 -0.6090 -0.0200
C32? C 0.1257(11) 0.5169(7) -0.4460(3)
H53? H 0.1477 0.5933 -0.4505
H54? H 0.1393 0.4776 -0.4703
H55? H 0.2181 0.4902 -0.4272
C33? C -0.1675(14) 0.5854(5) -0.4174(2)
H56? H -0.1002 0.6503 -0.4138
H57? H -0.2990 0.5823 -0.4120
loop_
_geom_bond_atom_site_label_1
_geom_bond_atom_site_label_2
_geom_bond_site_symmetry_1
_geom_bond_site_symmetry_2
O1 H1 1_555 1_555
O2 H2 1_555 1_555
C1 H3 1_555 1_555
H4 C1 1_555 1_555
C2 C1 1_555 1_555
H5 C2 1_555 1_555
H6 C2 1_555 1_555
C3 O1 1_555 1_555
H7 C3 1_555 1_555
C4 C3 1_555 1_555
C5 C4 1_555 1_555
H8 C5 1_555 1_555
C6 C5 1_555 1_555
H9 C6 1_555 1_555
H10 C6 1_555 1_555
C7 C6 1_555 1_555
H11 C7 1_555 1_555
H12 C7 1_555 1_555
C8 C7 1_555 1_555
C9 C8 1_555 1_555
H13 C9 1_555 1_555
C10 C1 1_555 1_555
C11 C9 1_555 1_555
H14 C11 1_555 1_555
H15 C11 1_555 1_555
C12 C11 1_555 1_555
H16 C12 1_555 1_555
H17 C12 1_555 1_555
C13 C12 1_555 1_555
H18 C13 1_555 1_555
C14 C8 1_555 1_555
C15 C14 1_555 1_555
H19 C15 1_555 1_555
H20 C15 1_555 1_555
C16 C15 1_555 1_555
H21 C16 1_555 1_555
H22 C16 1_555 1_555
C17 C16 1_555 1_555
C18 C13 1_555 1_555
H23 C18 1_555 1_555
C19 C18 1_555 1_555
H24 C19 1_555 1_555
C20 C19 1_555 1_555
H25 C20 1_555 1_555
H26 C20 1_555 1_555
C21 C17 1_555 1_555
H27 C21 1_555 1_555
H28 C21 1_555 1_555
C22 C17 1_555 1_555
H29 C22 1_555 1_555
H30 C22 1_555 1_555
C23 O2 1_555 1_555
H31 C23 1_555 1_555
H32 C23 1_555 1_555
C24 C14 1_555 1_555
H33 C24 1_555 1_555
H34 C24 1_555 1_555
H35 C24 1_555 1_555
C25 C8 1_555 1_555
H36 C25 1_555 1_555
H37 C25 1_555 1_555
H38 C25 1_555 1_555
C26 C10 1_555 1_555
H39 C26 1_555 1_555
H40 C26 1_555 1_555
H41 C26 1_555 1_555
C27 C4 1_555 1_555
H42 C27 1_555 1_555
H43 C27 1_555 1_555
H44 C27 1_555 1_555
C28 C4 1_555 1_555
H45 C28 1_555 1_555
H46 C28 1_555 1_555
H47 C28 1_555 1_555
C29 C19 1_555 1_555
C30 C29 1_555 1_555
H48 C30 1_555 1_555
H49 C30 1_555 1_555
H50 C30 1_555 1_555
C31 C29 1_555 1_555
H51 C31 1_555 1_555
H52 C31 1_555 1_555
O3 H58 1_555 1_555
C34 O3 1_555 1_555
H59 C34 1_555 1_555
H60 C34 1_555 1_555
H61 C34 1_555 1_555
C2 C3 1_555 1_555
C5 C10 1_555 1_555
C9 C10 1_555 1_555
C13 C14 1_555 1_555
C17 C18 1_555 1_555
C20 C21 1_555 1_555
C22 C23 1_555 1_555

#END
