
#######################################################################
#
#                 Cambridge Crystallographic Data Centre
#                                CCDC 
#
#######################################################################
#
# If this CIF has been generated from an entry in the Cambridge 
# Structural Database, then it will include bibliographic, chemical, 
# crystal, experimental, refinement or atomic coordinate data resulting 
# from the CCDC's data processing and validation procedures.
#
#######################################################################

data_HOTWUK
_chemical_formula_moiety         'C25 H29 N3 O4'
_chemical_name_systematic        
'9-hydroxy-2-(hydroxyimino)-9a,11b-dimethyl-9-(pyridin-2-ylmethyl)-1,6,6a,6b,7,8,9,9a,10,11,11a,11b-dodecahydrocyclopenta[7,8]phenanthro[1,10-cd][1,2]oxazol-3(2H)-one unknown solvate'
_symmetry_cell_setting           orthorhombic
_symmetry_space_group_name_H-M   'P 21 21 21'
_symmetry_Int_Tables_number      19
_space_group_name_Hall           'P 2ac 2ab'
loop_
_symmetry_equiv_pos_site_id
_symmetry_equiv_pos_as_xyz
1 x,y,z
2 1/2-x,-y,1/2+z
3 1/2+x,1/2-y,-z
4 -x,1/2+y,1/2-z
_cell_length_a                   12.2836(5)
_cell_length_b                   13.2366(6)
_cell_length_c                   16.5473(10)
_cell_angle_alpha                90
_cell_angle_beta                 90
_cell_angle_gamma                90
_cell_volume                     2690.48
_exptl_crystal_colour            colorless
_exptl_crystal_description       prism
_cell_formula_units_Z            4
loop_
_atom_site_label
_atom_site_type_symbol
_atom_site_fract_x
_atom_site_fract_y
_atom_site_fract_z
O1 O 0.6195(2) 1.3999(2) -0.1211(2)
N1 N 0.4765(3) 0.7765(3) 0.0585(3)
O2 O 0.1103(3) 1.5652(2) -0.0658(3)
H1 H 0.0683 1.6128 -0.0597
C1 C 0.3715(3) 0.8000(3) 0.0462(3)
C2 C 0.3288(3) 1.3496(3) -0.1305(3)
O3 O 0.2660(2) 0.8402(2) -0.1077(2)
H2 H 0.2929 0.7836 -0.1103
N2 N 0.5812(3) 1.5005(3) -0.1180(2)
C3 C 0.3451(4) 0.9042(3) 0.0135(3)
H3 H 0.3974 0.9520 0.0350
H4 H 0.2736 0.9239 0.0328
C4 C 0.4277(3) 1.1790(3) -0.1353(3)
H5 H 0.4118 1.1761 -0.1933
C5 C 0.2816(4) 1.3517(3) -0.2162(3)
H6 H 0.2882 1.4186 -0.2380
H7 H 0.2062 1.3327 -0.2145
H8 H 0.3209 1.3050 -0.2497
N3 N 0.2089(3) 1.6004(3) -0.0919(2)
C6 C 0.2799(4) 1.5310(3) -0.0964(3)
C7 C 0.4258(3) 1.0713(3) -0.1023(3)
H9 H 0.4407 1.0770 -0.0442
C8 C 0.3161(3) 1.0177(3) -0.1094(3)
C9 C 0.2816(4) 1.0079(4) -0.1987(3)
H10 H 0.2086 0.9823 -0.2015
H11 H 0.3299 0.9623 -0.2260
H12 H 0.2848 1.0730 -0.2241
C10 C 0.4586(4) 0.8922(3) -0.1165(3)
H13 H 0.4515 0.8529 -0.1657
H14 H 0.5045 0.8553 -0.0791
C11 C 0.2640(3) 1.4226(3) -0.0749(3)
H15 H 0.1871 1.4064 -0.0784
H16 H 0.2866 1.4121 -0.0193
O4 O 0.4099(3) 1.6593(2) -0.1327(3)
C12 C 0.3464(3) 0.9107(3) -0.0790(3)
C13 C 0.3368(3) 1.2415(3) -0.0938(3)
H17 H 0.3578 1.2494 -0.0370
C14 C 0.5417(4) 1.2247(3) -0.1245(4)
H18 H 0.5717 1.2042 -0.0728
H19 H 0.5896 1.2003 -0.1669
C15 C 0.2335(3) 1.0780(3) -0.0622(3)
H20 H 0.2545 1.0797 -0.0057
H21 H 0.1629 1.0455 -0.0660
C16 C 0.4419(3) 1.3882(3) -0.1302(3)
C17 C 0.2252(3) 1.1861(3) -0.0946(3)
H22 H 0.1737 1.2237 -0.0619
H23 H 0.1976 1.1842 -0.1495
C18 C 0.2897(4) 0.7302(3) 0.0618(3)
H24 H 0.2169 0.7482 0.0566
C19 C 0.4762(4) 1.4909(3) -0.1238(3)
C20 C 0.3187(4) 0.6330(4) 0.0855(3)
H25 H 0.2650 0.5849 0.0952
C21 C 0.5342(3) 1.3373(3) -0.1282(3)
C22 C 0.3907(4) 1.5721(3) -0.1194(3)
C23 C 0.5089(3) 0.9955(3) -0.1353(3)
H26 H 0.5188 1.0042 -0.1931
H27 H 0.5787 1.0031 -0.1086
C24 C 0.5025(4) 0.6821(4) 0.0804(4)
H28 H 0.5757 0.6656 0.0865
C25 C 0.4254(5) 0.6081(4) 0.0945(3)
H29 H 0.4459 0.5432 0.1097
loop_
_geom_bond_atom_site_label_1
_geom_bond_atom_site_label_2
_geom_bond_site_symmetry_1
_geom_bond_site_symmetry_2
O1 N2 1_555 1_555
N1 C1 1_555 1_555
O2 H1 1_555 1_555
C1 C3 1_555 1_555
C2 C5 1_555 1_555
O3 H2 1_555 1_555
N2 C19 1_555 1_555
C3 H3 1_555 1_555
H4 C3 1_555 1_555
C4 H5 1_555 1_555
C5 H6 1_555 1_555
H7 C5 1_555 1_555
H8 C5 1_555 1_555
N3 O2 1_555 1_555
C6 N3 1_555 1_555
C7 C4 1_555 1_555
H9 C7 1_555 1_555
C8 C7 1_555 1_555
C9 C8 1_555 1_555
H10 C9 1_555 1_555
H11 C9 1_555 1_555
H12 C9 1_555 1_555
C10 H13 1_555 1_555
H14 C10 1_555 1_555
C11 C2 1_555 1_555
H15 C11 1_555 1_555
H16 C11 1_555 1_555
O4 C22 1_555 1_555
C12 O3 1_555 1_555
C13 C2 1_555 1_555
H17 C13 1_555 1_555
C14 C4 1_555 1_555
H18 C14 1_555 1_555
H19 C14 1_555 1_555
C15 C8 1_555 1_555
H20 C15 1_555 1_555
H21 C15 1_555 1_555
C16 C2 1_555 1_555
C17 C13 1_555 1_555
H22 C17 1_555 1_555
H23 C17 1_555 1_555
C18 C1 1_555 1_555
H24 C18 1_555 1_555
C19 C16 1_555 1_555
C20 C18 1_555 1_555
H25 C20 1_555 1_555
C21 O1 1_555 1_555
C22 C6 1_555 1_555
C23 C7 1_555 1_555
H26 C23 1_555 1_555
H27 C23 1_555 1_555
C24 N1 1_555 1_555
H28 C24 1_555 1_555
C25 C20 1_555 1_555
H29 C25 1_555 1_555
C3 C12 1_555 1_555
C4 C13 1_555 1_555
C6 C11 1_555 1_555
C8 C12 1_555 1_555
C10 C12 1_555 1_555
C10 C23 1_555 1_555
C14 C21 1_555 1_555
C15 C17 1_555 1_555
C16 C21 1_555 1_555
C19 C22 1_555 1_555
C24 C25 1_555 1_555

#END
