
#######################################################################
#
#                 Cambridge Crystallographic Data Centre
#                                CCDC 
#
#######################################################################
#
# If this CIF has been generated from an entry in the Cambridge 
# Structural Database, then it will include bibliographic, chemical, 
# crystal, experimental, refinement or atomic coordinate data resulting 
# from the CCDC's data processing and validation procedures.
#
#######################################################################

data_HOTXEV
_chemical_formula_moiety         'C20 H20 N4 O2'
_chemical_name_systematic        
3',7',7'-trimethyl-1',7',8',9'-tetrahydrospiro[indole-3,4'-pyrazolo[3,4-b]quinoline]-2,5'(1H,6'H)-dione
_symmetry_cell_setting           monoclinic
_symmetry_space_group_name_H-M   'P 21/c'
_symmetry_Int_Tables_number      14
_space_group_name_Hall           '-P 2ybc'
loop_
_symmetry_equiv_pos_site_id
_symmetry_equiv_pos_as_xyz
1 x,y,z
2 -x,1/2+y,1/2-z
3 -x,-y,-z
4 x,1/2-y,1/2+z
_cell_length_a                   11.4690(6)
_cell_length_b                   12.7904(7)
_cell_length_c                   12.6842(7)
_cell_angle_alpha                90
_cell_angle_beta                 111.971(2)
_cell_angle_gamma                90
_cell_volume                     1725.55
_cell_formula_units_Z            4
loop_
_atom_site_label
_atom_site_type_symbol
_atom_site_fract_x
_atom_site_fract_y
_atom_site_fract_z
O1 O 0.71806(16) -0.08449(14) 0.38206(15)
O2 O 0.89201(13) 0.11822(13) 0.41748(12)
N1 N 0.65691(16) 0.27443(13) 0.03459(14)
H1 H 0.6042 0.3230 0.0013
N2 N 0.76697(15) 0.24944(13) 0.02319(13)
N3 N 0.54976(12) 0.20358(10) 0.14054(12)
H2 H 0.4901 0.2488 0.1162
N4 N 0.96173(15) -0.01485(15) 0.33584(14)
H3 H 1.0383 -0.0179 0.3833
C1 C 0.8863(3) -0.22787(18) 0.1202(2)
H4 H 0.9201 -0.2860 0.0979
C2 C 0.7626(3) -0.20203(17) 0.06036(19)
H5 H 0.7132 -0.2438 0.0002
C3 C 0.7111(2) -0.11308(15) 0.08999(16)
H6 H 0.6284 -0.0937 0.0486
C4 C 0.78513(17) -0.05457(13) 0.18166(14)
C5 C 0.75926(14) 0.04857(13) 0.22810(13)
C6 C 0.64152(15) 0.05329(13) 0.25461(13)
C7 C 0.63181(17) -0.02384(15) 0.33701(15)
C8 C 0.51866(17) -0.01992(16) 0.36914(15)
H7 H 0.5380 0.0235 0.4362
H8 H 0.5014 -0.0899 0.3890
C9 C 0.40033(17) 0.02257(16) 0.27581(16)
C10 C 0.2958(2) 0.0366(2) 0.3222(2)
H9 H 0.3233 0.0845 0.3851
H10 H 0.2765 -0.0297 0.3472
H11 H 0.2220 0.0639 0.2634
C11 C 0.3548(2) -0.0533(2) 0.1755(2)
H12 H 0.2872 -0.0219 0.1138
H13 H 0.3258 -0.1166 0.1983
H14 H 0.4228 -0.0691 0.1514
C12 C 0.75268(15) 0.13657(13) 0.14755(13)
C13 C 0.65179(16) 0.20557(13) 0.10925(15)
C14 C 0.82649(16) 0.16708(14) 0.08773(14)
C15 C 0.9464(2) 0.1261(2) 0.0844(2)
H15 H 0.9330 0.0572 0.0520
H16 H 1.0086 0.1232 0.1602
H17 H 0.9751 0.1714 0.0387
C16 C 0.54943(15) 0.12476(14) 0.21310(14)
C17 C 0.43401(17) 0.12897(16) 0.24100(17)
H18 H 0.3642 0.1541 0.1752
H19 H 0.4473 0.1783 0.3025
C18 C 0.9621(2) -0.1698(2) 0.2129(2)
H20 H 1.0458 -0.1876 0.2524
C19 C 0.90825(18) -0.08428(16) 0.24418(16)
C20 C 0.87708(16) 0.05713(15) 0.33958(14)
loop_
_geom_bond_atom_site_label_1
_geom_bond_atom_site_label_2
_geom_bond_site_symmetry_1
_geom_bond_site_symmetry_2
O1 C7 1_555 1_555
O2 C20 1_555 1_555
N1 H1 1_555 1_555
N2 N1 1_555 1_555
N3 H2 1_555 1_555
N4 H3 1_555 1_555
C1 H4 1_555 1_555
C2 C1 1_555 1_555
H5 C2 1_555 1_555
C3 C2 1_555 1_555
H6 C3 1_555 1_555
C4 C3 1_555 1_555
C5 C4 1_555 1_555
C6 C5 1_555 1_555
C7 C6 1_555 1_555
C8 C7 1_555 1_555
H7 C8 1_555 1_555
H8 C8 1_555 1_555
C9 C8 1_555 1_555
C10 C9 1_555 1_555
H9 C10 1_555 1_555
H10 C10 1_555 1_555
H11 C10 1_555 1_555
C11 C9 1_555 1_555
H12 C11 1_555 1_555
H13 C11 1_555 1_555
H14 C11 1_555 1_555
C12 C5 1_555 1_555
C13 N1 1_555 1_555
C14 N2 1_555 1_555
C15 C14 1_555 1_555
H15 C15 1_555 1_555
H16 C15 1_555 1_555
H17 C15 1_555 1_555
C16 N3 1_555 1_555
C17 C9 1_555 1_555
H18 C17 1_555 1_555
H19 C17 1_555 1_555
C18 C1 1_555 1_555
H20 C18 1_555 1_555
C19 N4 1_555 1_555
C20 N4 1_555 1_555
N3 C13 1_555 1_555
C4 C19 1_555 1_555
C5 C20 1_555 1_555
C6 C16 1_555 1_555
C12 C13 1_555 1_555
C12 C14 1_555 1_555
C16 C17 1_555 1_555
C18 C19 1_555 1_555

#END
