
#######################################################################
#
#                 Cambridge Crystallographic Data Centre
#                                CCDC 
#
#######################################################################
#
# If this CIF has been generated from an entry in the Cambridge 
# Structural Database, then it will include bibliographic, chemical, 
# crystal, experimental, refinement or atomic coordinate data resulting 
# from the CCDC's data processing and validation procedures.
#
#######################################################################

data_HOTXIZ
_chemical_name_common            N,N-dibenzyl-2-bromocyclohexanamine
_chemical_formula_moiety         'C20 H24 Br1 N1'
_chemical_name_systematic        trans-N,N-dibenzyl-2-bromocyclohexan-1-amine
_symmetry_cell_setting           monoclinic
_symmetry_space_group_name_H-M   'C c'
_symmetry_Int_Tables_number      9
_space_group_name_Hall           'C -2yc'
loop_
_symmetry_equiv_pos_site_id
_symmetry_equiv_pos_as_xyz
1 x,y,z
2 x,-y,1/2+z
3 1/2+x,1/2+y,z
4 1/2+x,1/2-y,1/2+z
_cell_length_a                   12.4100(18)
_cell_length_b                   12.4380(18)
_cell_length_c                   22.372(3)
_cell_angle_alpha                90
_cell_angle_beta                 92.461(2)
_cell_angle_gamma                90
_cell_volume                     3450.06
_exptl_crystal_colour            colorless
_exptl_crystal_description       Plate
_cell_formula_units_Z            8
_chemical_properties_physical    'Air-sensitive, Moisture-sensitive'
loop_
_atom_site_label
_atom_site_type_symbol
_atom_site_fract_x
_atom_site_fract_y
_atom_site_fract_z
Br1 Br 0.54351(2) 0.56005(3) 0.591428(15)
C1 C 0.4107(3) 0.6119(3) 0.54974(14)
H1 H 0.3473 0.5872 0.5722
C2 C 0.4118(3) 0.7338(3) 0.54878(15)
H2 H 0.4745 0.7593 0.5268
H3 H 0.4191 0.7615 0.5903
C3 C 0.3072(3) 0.7772(3) 0.51835(19)
H4 H 0.2455 0.7596 0.5433
H5 H 0.3118 0.8565 0.5152
C4 C 0.2875(3) 0.7291(3) 0.45582(16)
H6 H 0.3431 0.7559 0.4290
H7 H 0.2161 0.7523 0.4392
C5 C 0.2919(3) 0.6061(3) 0.45837(16)
H8 H 0.2817 0.5766 0.4174
H9 H 0.2324 0.5792 0.4824
C6 C 0.4006(3) 0.5670(2) 0.48630(14)
H10 H 0.4584 0.6019 0.4633
N1 N 0.4189(2) 0.4512(2) 0.48337(12)
C7 C 0.3372(3) 0.3859(3) 0.51220(15)
H11 H 0.2724 0.3806 0.4850
H12 H 0.3158 0.4228 0.5491
C8 C 0.3759(3) 0.2734(3) 0.52821(15)
C9 C 0.3006(3) 0.1919(3) 0.53351(17)
H13 H 0.2267 0.2060 0.5238
C10 C 0.3313(3) 0.0904(3) 0.55271(17)
H14 H 0.2785 0.0358 0.5567
C11 C 0.4390(4) 0.0682(3) 0.56615(18)
H15 H 0.4603 -0.0017 0.5790
C12 C 0.5159(3) 0.1487(3) 0.56070(16)
H16 H 0.5900 0.1337 0.5695
C13 C 0.4839(3) 0.2516(3) 0.54226(16)
H17 H 0.5362 0.3070 0.5393
C14 C 0.4332(3) 0.4124(3) 0.42198(14)
H18 H 0.3653 0.4233 0.3979
H19 H 0.4487 0.3344 0.4231
C15 C 0.5240(3) 0.4704(2) 0.39244(14)
C16 C 0.5077(3) 0.5181(3) 0.33709(15)
H20 H 0.4384 0.5145 0.3174
C17 C 0.5906(3) 0.5710(3) 0.30968(18)
H21 H 0.5777 0.6030 0.2715
C18 C 0.6921(4) 0.5774(3) 0.3376(2)
H22 H 0.7491 0.6135 0.3189
C19 C 0.7093(3) 0.5301(3) 0.39380(19)
H23 H 0.7785 0.5339 0.4135
C20 C 0.6265(3) 0.4777(3) 0.42081(18)
H24 H 0.6391 0.4463 0.4592
Br2 Br 0.67513(2) 0.06811(3) 0.152790(14)
C21 C 0.7304(3) 0.1963(3) 0.19634(14)
H25 H 0.7048 0.2615 0.1738
C22 C 0.8530(3) 0.1954(3) 0.19751(15)
H26 H 0.8780 0.1906 0.1562
H27 H 0.8806 0.1319 0.2201
C23 C 0.8963(3) 0.2987(3) 0.22736(18)
H28 H 0.9761 0.2954 0.2310
H29 H 0.8760 0.3612 0.2019
C24 C 0.8514(3) 0.3136(3) 0.28931(16)
H30 H 0.8802 0.2565 0.3164
H31 H 0.8752 0.3839 0.3059
C25 C 0.7289(3) 0.3088(3) 0.28635(15)
H32 H 0.7002 0.3692 0.2616
H33 H 0.7021 0.3171 0.3271
C26 C 0.6876(2) 0.2020(2) 0.25949(14)
H34 H 0.7235 0.1430 0.2833
N2 N 0.5712(2) 0.1841(2) 0.26118(11)
C27 C 0.5066(2) 0.2680(2) 0.23142(15)
H35 H 0.5433 0.2921 0.1953
H36 H 0.5021 0.3304 0.2587
C28 C 0.3934(3) 0.2314(3) 0.21320(14)
C29 C 0.3112(3) 0.3067(3) 0.20647(16)
H37 H 0.3254 0.3798 0.2163
C30 C 0.2086(3) 0.2766(3) 0.18562(16)
H38 H 0.1529 0.3289 0.1817
C31 C 0.1875(3) 0.1711(3) 0.17061(15)
H39 H 0.1179 0.1510 0.1550
C32 C 0.2677(3) 0.0944(3) 0.17826(17)
H40 H 0.2523 0.0212 0.1691
C33 C 0.3709(3) 0.1240(3) 0.19931(15)
H41 H 0.4259 0.0712 0.2042
C34 C 0.5343(3) 0.1646(2) 0.32170(15)
H42 H 0.4555 0.1771 0.3215
H43 H 0.5691 0.2179 0.3492
C35 C 0.5574(3) 0.0530(3) 0.34636(15)
C36 C 0.5299(3) 0.0321(3) 0.40523(16)
H44 H 0.5000 0.0877 0.4285
C37 C 0.5460(3) -0.0695(3) 0.42989(16)
H45 H 0.5258 -0.0831 0.4697
C38 C 0.5912(3) -0.1511(3) 0.39697(16)
H46 H 0.6027 -0.2202 0.4141
C39 C 0.6194(3) -0.1306(3) 0.33879(16)
H47 H 0.6507 -0.1861 0.3161
C40 C 0.6022(3) -0.0292(3) 0.31313(17)
H48 H 0.6210 -0.0164 0.2730
loop_
_geom_bond_atom_site_label_1
_geom_bond_atom_site_label_2
_geom_bond_site_symmetry_1
_geom_bond_site_symmetry_2
Br1 C1 1_555 1_555
C1 H1 1_555 1_555
C2 C1 1_555 1_555
H2 C2 1_555 1_555
H3 C2 1_555 1_555
C3 C2 1_555 1_555
H4 C3 1_555 1_555
H5 C3 1_555 1_555
C4 C3 1_555 1_555
H6 C4 1_555 1_555
H7 C4 1_555 1_555
C5 C4 1_555 1_555
H8 C5 1_555 1_555
H9 C5 1_555 1_555
C6 C1 1_555 1_555
H10 C6 1_555 1_555
N1 C6 1_555 1_555
C7 N1 1_555 1_555
H11 C7 1_555 1_555
H12 C7 1_555 1_555
C8 C7 1_555 1_555
C9 C8 1_555 1_555
H13 C9 1_555 1_555
C10 C9 1_555 1_555
H14 C10 1_555 1_555
C11 C10 1_555 1_555
H15 C11 1_555 1_555
C12 C11 1_555 1_555
H16 C12 1_555 1_555
C13 C8 1_555 1_555
H17 C13 1_555 1_555
C14 N1 1_555 1_555
H18 C14 1_555 1_555
H19 C14 1_555 1_555
C15 C14 1_555 1_555
C16 C15 1_555 1_555
H20 C16 1_555 1_555
C17 C16 1_555 1_555
H21 C17 1_555 1_555
C18 C17 1_555 1_555
H22 C18 1_555 1_555
C19 C18 1_555 1_555
H23 C19 1_555 1_555
C20 C15 1_555 1_555
H24 C20 1_555 1_555
Br2 C21 1_555 1_555
C21 H25 1_555 1_555
C22 C21 1_555 1_555
H26 C22 1_555 1_555
H27 C22 1_555 1_555
C23 C22 1_555 1_555
H28 C23 1_555 1_555
H29 C23 1_555 1_555
C24 C23 1_555 1_555
H30 C24 1_555 1_555
H31 C24 1_555 1_555
C25 C24 1_555 1_555
H32 C25 1_555 1_555
H33 C25 1_555 1_555
C26 C21 1_555 1_555
H34 C26 1_555 1_555
N2 C26 1_555 1_555
C27 N2 1_555 1_555
H35 C27 1_555 1_555
H36 C27 1_555 1_555
C28 C27 1_555 1_555
C29 C28 1_555 1_555
H37 C29 1_555 1_555
C30 C29 1_555 1_555
H38 C30 1_555 1_555
C31 C30 1_555 1_555
H39 C31 1_555 1_555
C32 C31 1_555 1_555
H40 C32 1_555 1_555
C33 C28 1_555 1_555
H41 C33 1_555 1_555
C34 N2 1_555 1_555
H42 C34 1_555 1_555
H43 C34 1_555 1_555
C35 C34 1_555 1_555
C36 C35 1_555 1_555
H44 C36 1_555 1_555
C37 C36 1_555 1_555
H45 C37 1_555 1_555
C38 C37 1_555 1_555
H46 C38 1_555 1_555
C39 C38 1_555 1_555
H47 C39 1_555 1_555
C40 C35 1_555 1_555
H48 C40 1_555 1_555
C5 C6 1_555 1_555
C12 C13 1_555 1_555
C19 C20 1_555 1_555
C25 C26 1_555 1_555
C32 C33 1_555 1_555
C39 C40 1_555 1_555

#END
