
#######################################################################
#
#                 Cambridge Crystallographic Data Centre
#                                CCDC 
#
#######################################################################
#
# If this CIF has been generated from an entry in the Cambridge 
# Structural Database, then it will include bibliographic, chemical, 
# crystal, experimental, refinement or atomic coordinate data resulting 
# from the CCDC's data processing and validation procedures.
#
#######################################################################

data_HOTZOH
_chemical_formula_moiety         'C14 H14 I1 N1 O4'
_chemical_name_systematic        
'2-(4-methylene-5-oxotetrahydrofuran-3-yl)ethyl (4-iodophenyl)carbamate'
_symmetry_cell_setting           monoclinic
_symmetry_space_group_name_H-M   'P 21'
_symmetry_Int_Tables_number      4
_space_group_name_Hall           'P 2yb'
loop_
_symmetry_equiv_pos_site_id
_symmetry_equiv_pos_as_xyz
1 x,y,z
2 -x,1/2+y,-z
_cell_length_a                   6.2726(7)
_cell_length_b                   19.511(2)
_cell_length_c                   12.1465(14)
_cell_angle_alpha                90
_cell_angle_beta                 103.566(2)
_cell_angle_gamma                90
_cell_volume                     1445.07
_exptl_crystal_colour            colorless
_exptl_crystal_description       block
_cell_formula_units_Z            4
loop_
_atom_site_label
_atom_site_type_symbol
_atom_site_fract_x
_atom_site_fract_y
_atom_site_fract_z
I1 I -0.17073(6) 0.36104(2) 0.78535(2)
N1 N 0.1431(7) 0.5589(2) 0.4474(3)
H1 H 0.0826 0.5998 0.4423
O1 O 0.7718(6) 0.80124(18) -0.0638(3)
O2 O 0.9004(5) 0.72052(17) 0.0638(3)
O3 O 0.3756(7) 0.49349(19) 0.3703(3)
O4 O 0.3096(6) 0.60555(16) 0.3255(3)
C1 C 0.7376(7) 0.7590(2) 0.0021(4)
C2 C 0.5268(7) 0.7387(2) 0.0277(3)
C3 C 0.5741(7) 0.6763(2) 0.1035(3)
H2 H 0.5460 0.6346 0.0543
C4 C 0.8204(7) 0.6825(2) 0.1505(4)
H3 H 0.8532 0.7077 0.2232
H4 H 0.8893 0.6366 0.1628
C5 C 0.3451(8) 0.7746(3) -0.0102(4)
H5 H 0.3480 0.8144 -0.0551
H6 H 0.2119 0.7606 0.0074
C6 C 0.4348(8) 0.6710(2) 0.1911(4)
H7 H 0.4821 0.7067 0.2496
H8 H 0.2794 0.6798 0.1534
C7 C 0.4524(8) 0.6019(2) 0.2477(4)
H9 H 0.4040 0.5652 0.1911
H10 H 0.6054 0.5927 0.2890
C8 C 0.2847(8) 0.5469(2) 0.3806(3)
C9 C 0.0827(8) 0.5130(2) 0.5239(4)
C10 C 0.2071(9) 0.4553(2) 0.5670(4)
H11 H 0.3384 0.4453 0.5439
C11 C 0.1378(9) 0.4126(3) 0.6436(4)
H12 H 0.2225 0.3736 0.6737
C12 C -0.0558(8) 0.4272(2) 0.6758(4)
C13 C -0.1768(9) 0.4850(3) 0.6352(4)
H13 H -0.3070 0.4952 0.6591
C14 C -0.1071(9) 0.5278(3) 0.5596(4)
H14 H -0.1898 0.5676 0.5319
I2 I 0.46428(6) 0.63416(2) -0.25656(3)
N2 N 0.0581(7) 0.44718(19) 0.0640(3)
H15 H 0.0987 0.4039 0.0667
O5 O 0.1238(7) 0.1834(2) 0.5465(3)
O6 O 0.1645(7) 0.2427(3) 0.3955(4)
O7 O -0.1433(8) 0.52296(18) 0.1433(3)
O8 O -0.1466(6) 0.40935(16) 0.1785(3)
C15 C 0.0585(9) 0.2279(3) 0.4767(4)
C16 C -0.1327(9) 0.2730(2) 0.4646(4)
C17 C -0.1148(9) 0.3288(3) 0.3828(4)
H16 H -0.0336 0.3677 0.4274
C18 C 0.0418(11) 0.2942(4) 0.3180(5)
H17 H -0.0426 0.2723 0.2476
H18 H 0.1429 0.3285 0.2978
C19 C -0.2938(11) 0.2617(3) 0.5202(5)
H19 H -0.2853 0.2234 0.5692
H20 H -0.4151 0.2922 0.5101
C20 C -0.3262(8) 0.3573(3) 0.3097(4)
H21 H -0.3909 0.3227 0.2519
H22 H -0.4313 0.3650 0.3578
C21 C -0.2968(9) 0.4231(3) 0.2511(4)
H23 H -0.4396 0.4394 0.2052
H24 H -0.2353 0.4589 0.3075
C22 C -0.0826(8) 0.4656(2) 0.1290(4)
C23 C 0.1446(8) 0.4906(2) -0.0068(4)
C24 C 0.3280(9) 0.4680(2) -0.0432(4)
H25 H 0.3908 0.4247 -0.0189
C25 C 0.4201(9) 0.5085(2) -0.1150(4)
H26 H 0.5456 0.4933 -0.1392
C26 C 0.3241(8) 0.5715(2) -0.1505(4)
C27 C 0.1415(8) 0.5939(3) -0.1169(4)
H27 H 0.0777 0.6368 -0.1429
C28 C 0.0497(9) 0.5541(2) -0.0452(4)
H28 H -0.0766 0.5698 -0.0223
loop_
_geom_bond_atom_site_label_1
_geom_bond_atom_site_label_2
_geom_bond_site_symmetry_1
_geom_bond_site_symmetry_2
I1 C12 1_555 1_555
N1 H1 1_555 1_555
O1 C1 1_555 1_555
O2 C1 1_555 1_555
O3 C8 1_555 1_555
O4 C7 1_555 1_555
C1 C2 1_555 1_555
C2 C3 1_555 1_555
C3 H2 1_555 1_555
C4 O2 1_555 1_555
H3 C4 1_555 1_555
H4 C4 1_555 1_555
C5 C2 1_555 1_555
H5 C5 1_555 1_555
H6 C5 1_555 1_555
C6 C3 1_555 1_555
H7 C6 1_555 1_555
H8 C6 1_555 1_555
C7 C6 1_555 1_555
H9 C7 1_555 1_555
H10 C7 1_555 1_555
C8 N1 1_555 1_555
C9 N1 1_555 1_555
C10 C9 1_555 1_555
H11 C10 1_555 1_555
C11 C10 1_555 1_555
H12 C11 1_555 1_555
C12 C11 1_555 1_555
C13 C12 1_555 1_555
H13 C13 1_555 1_555
C14 C9 1_555 1_555
H14 C14 1_555 1_555
I2 C26 1_555 1_555
N2 H15 1_555 1_555
O5 C15 1_555 1_555
O6 C15 1_555 1_555
O7 C22 1_555 1_555
O8 C21 1_555 1_555
C15 C16 1_555 1_555
C16 C17 1_555 1_555
C17 H16 1_555 1_555
C18 O6 1_555 1_555
H17 C18 1_555 1_555
H18 C18 1_555 1_555
C19 C16 1_555 1_555
H19 C19 1_555 1_555
H20 C19 1_555 1_555
C20 C17 1_555 1_555
H21 C20 1_555 1_555
H22 C20 1_555 1_555
C21 C20 1_555 1_555
H23 C21 1_555 1_555
H24 C21 1_555 1_555
C22 N2 1_555 1_555
C23 N2 1_555 1_555
C24 C23 1_555 1_555
H25 C24 1_555 1_555
C25 C24 1_555 1_555
H26 C25 1_555 1_555
C26 C25 1_555 1_555
C27 C26 1_555 1_555
H27 C27 1_555 1_555
C28 C23 1_555 1_555
H28 C28 1_555 1_555
O4 C8 1_555 1_555
C3 C4 1_555 1_555
C13 C14 1_555 1_555
O8 C22 1_555 1_555
C17 C18 1_555 1_555
C27 C28 1_555 1_555

#END
