
#######################################################################
#
#                 Cambridge Crystallographic Data Centre
#                                CCDC 
#
#######################################################################
#
# If this CIF has been generated from an entry in the Cambridge 
# Structural Database, then it will include bibliographic, chemical, 
# crystal, experimental, refinement or atomic coordinate data resulting 
# from the CCDC's data processing and validation procedures.
#
#######################################################################

data_HOVBAW
_chemical_formula_moiety         'C22 H22 Cl1 N1 O4'
_chemical_name_systematic        
N-Chloroacetyl-3-carboxyethyl-2,6-diphenyl-4-hydroxy-cdeltas^3^-tetrahydropyridine
_chemical_properties_biological  'antibacterial and antitubercular activities'
_symmetry_cell_setting           triclinic
_symmetry_space_group_name_H-M   'P -1'
_symmetry_Int_Tables_number      2
_space_group_name_Hall           '-P 1'
loop_
_symmetry_equiv_pos_site_id
_symmetry_equiv_pos_as_xyz
1 x,y,z
2 -x,-y,-z
_cell_length_a                   9.9133(3)
_cell_length_b                   14.0282(4)
_cell_length_c                   15.6990(5)
_cell_angle_alpha                69.258(2)
_cell_angle_beta                 89.705(2)
_cell_angle_gamma                80.031(2)
_cell_volume                     2007.12
_exptl_crystal_colour            colorless
_exptl_crystal_description       prism
_cell_formula_units_Z            4
_exptl_crystal_recrystallization_method ethanol
loop_
_atom_site_label
_atom_site_type_symbol
_atom_site_fract_x
_atom_site_fract_y
_atom_site_fract_z
C1 C 1.1694(2) 0.05337(18) 0.40275(15)
H1 H 1.1475 -0.0165 0.4222
C2 C 1.2988(3) 0.0468(2) 0.45600(18)
H2 H 1.2790 0.0364 0.5189
H3 H 1.3660 -0.0121 0.4555
C3 C 1.3565(2) 0.1433(2) 0.4161(2)
C4 C 1.3337(2) 0.2052(2) 0.32803(19)
C5 C 1.2448(2) 0.18389(18) 0.26228(16)
H4 H 1.3033 0.1763 0.2137
C6 C 1.1260(3) 0.27191(18) 0.21604(16)
C7 C 1.0725(3) 0.3431(2) 0.2548(2)
H5 H 1.1079 0.3368 0.3117
C8 C 0.9671(4) 0.4236(2) 0.2101(3)
H6 H 0.9313 0.4711 0.2371
C9 C 0.9150(4) 0.4337(3) 0.1263(3)
H7 H 0.8460 0.4894 0.0953
C10 C 0.9637(5) 0.3629(3) 0.0883(3)
H8 H 0.9247 0.3681 0.0328
C11 C 1.0711(4) 0.2828(2) 0.1316(2)
H9 H 1.1066 0.2360 0.1038
C12 C 1.0455(2) 0.12477(17) 0.41685(14)
C13 C 0.9230(3) 0.1364(2) 0.36965(18)
H10 H 0.9177 0.0985 0.3321
C14 C 0.8086(3) 0.2031(3) 0.3775(2)
H11 H 0.7271 0.2105 0.3447
C15 C 0.8136(3) 0.2587(2) 0.4329(2)
H12 H 0.7366 0.3049 0.4371
C16 C 0.9335(3) 0.2457(2) 0.4824(2)
H13 H 0.9373 0.2823 0.5212
C17 C 1.0487(3) 0.1785(2) 0.47479(17)
H14 H 1.1291 0.1695 0.5092
C18 C 1.4018(3) 0.2949(3) 0.2926(3)
C19 C 1.4369(7) 0.4361(5) 0.1613(4)
H15 H 1.4230 0.4772 0.2000
H16 H 1.5341 0.4224 0.1520
C20 C 1.3661(12) 0.4866(5) 0.0816(6)
H17 H 1.3963 0.5512 0.0518
H18 H 1.2702 0.4999 0.0916
H19 H 1.3807 0.4453 0.0439
C21 C 1.1956(3) 0.0249(2) 0.25344(18)
C22 C 1.1485(4) -0.0793(2) 0.2936(2)
H20 H 1.1049 -0.0946 0.2460
H21 H 1.0829 -0.0774 0.3393
N1 N 1.19856(19) 0.08412(14) 0.30518(12)
O1 O 1.4357(2) 0.1608(2) 0.47609(17)
H43 H 1.4663 0.2138 0.4504
O2 O 1.4650(2) 0.3255(2) 0.3421(2)
O3 O 1.3876(3) 0.3393(2) 0.20359(19)
O4 O 1.2309(3) 0.05054(16) 0.17581(14)
Cl1 Cl 1.29392(13) -0.17433(7) 0.34316(7)
C23 C 1.2999(2) 0.05445(17) -0.10063(14)
H22 H 1.3520 -0.0164 -0.0829
C24 C 1.1737(3) 0.0500(2) -0.04706(18)
H23 H 1.1331 -0.0078 -0.0478
H24 H 1.1993 0.0384 0.0159
C25 C 1.0713(3) 0.1468(2) -0.0848(2)
C26 C 1.0659(2) 0.21214(19) -0.1724(2)
C27 C 1.1683(2) 0.19281(17) -0.23859(16)
H25 H 1.1146 0.1911 -0.2901
C28 C 1.2534(2) 0.27721(18) -0.27887(17)
C29 C 1.2633(3) 0.3509(2) -0.2415(2)
H26 H 1.2174 0.3500 -0.1895
C30 C 1.3415(3) 0.4266(2) -0.2810(3)
H27 H 1.3469 0.4765 -0.2555
C31 C 1.4100(4) 0.4285(3) -0.3566(3)
H28 H 1.4619 0.4796 -0.3829
C32 C 1.4022(4) 0.3550(3) -0.3934(2)
H29 H 1.4507 0.3553 -0.4444
C33 C 1.3233(3) 0.2800(2) -0.3562(2)
H30 H 1.3170 0.2313 -0.3829
C34 C 1.3944(2) 0.12096(16) -0.08438(14)
C35 C 1.5128(2) 0.1302(2) -0.13117(17)
H31 H 1.5327 0.0953 -0.1715
C36 C 1.6013(3) 0.1900(2) -0.1191(2)
H32 H 1.6806 0.1952 -0.1511
C37 C 1.5736(3) 0.2418(2) -0.0605(2)
H33 H 1.6329 0.2834 -0.0532
C38 C 1.4595(3) 0.2325(2) -0.0128(2)
H34 H 1.4411 0.2673 0.0278
C39 C 1.3695(3) 0.1716(2) -0.02389(16)
H35 H 1.2919 0.1651 0.0098
C40 C 0.9526(3) 0.2986(2) -0.2039(3)
C41 C 0.8315(5) 0.4379(4) -0.3292(5)
H36 H 0.7464 0.4136 -0.3321
H37 H 0.8211 0.4779 -0.2895
C42 C 0.8599(9) 0.4995(5) -0.4159(4)
H38 H 0.7863 0.5578 -0.4402
H39 H 0.8693 0.4597 -0.4550
H40 H 0.9439 0.5237 -0.4126
C43 C 1.2773(3) 0.0300(2) -0.25038(17)
C44 C 1.3660(4) -0.0767(2) -0.2113(2)
H41 H 1.4361 -0.0770 -0.1682
H42 H 1.4112 -0.0948 -0.2598
N2 N 1.25614(18) 0.08934(14) -0.19848(12)
O5 O 0.9819(2) 0.16071(19) -0.02432(17)
H44 H 0.9253 0.2138 -0.0489
O6 O 0.8697(2) 0.32357(19) -0.1539(2)
O7 O 0.9447(2) 0.34913(18) -0.2928(2)
O8 O 1.2279(3) 0.05818(16) -0.32780(13)
Cl2 Cl 1.26238(13) -0.16705(7) -0.15615(7)
loop_
_geom_bond_atom_site_label_1
_geom_bond_atom_site_label_2
_geom_bond_site_symmetry_1
_geom_bond_site_symmetry_2
C1 H1 1_555 1_555
C2 C1 1_555 1_555
H2 C2 1_555 1_555
H3 C2 1_555 1_555
C3 C2 1_555 1_555
C4 C3 1_555 1_555
C5 C4 1_555 1_555
H4 C5 1_555 1_555
C6 C5 1_555 1_555
C7 C6 1_555 1_555
H5 C7 1_555 1_555
C8 C7 1_555 1_555
H6 C8 1_555 1_555
C9 C8 1_555 1_555
H7 C9 1_555 1_555
C10 C9 1_555 1_555
H8 C10 1_555 1_555
C11 C6 1_555 1_555
H9 C11 1_555 1_555
C12 C1 1_555 1_555
C13 C12 1_555 1_555
H10 C13 1_555 1_555
C14 C13 1_555 1_555
H11 C14 1_555 1_555
C15 C14 1_555 1_555
H12 C15 1_555 1_555
C16 C15 1_555 1_555
H13 C16 1_555 1_555
C17 C12 1_555 1_555
H14 C17 1_555 1_555
C18 C4 1_555 1_555
C19 H15 1_555 1_555
H16 C19 1_555 1_555
C20 C19 1_555 1_555
H17 C20 1_555 1_555
H18 C20 1_555 1_555
H19 C20 1_555 1_555
C21 C22 1_555 1_555
C22 H20 1_555 1_555
H21 C22 1_555 1_555
C23 H22 1_555 1_555
C24 C23 1_555 1_555
H23 C24 1_555 1_555
H24 C24 1_555 1_555
C25 C24 1_555 1_555
C26 C25 1_555 1_555
C27 C26 1_555 1_555
H25 C27 1_555 1_555
C28 C27 1_555 1_555
C29 C28 1_555 1_555
H26 C29 1_555 1_555
C30 C29 1_555 1_555
H27 C30 1_555 1_555
C31 C30 1_555 1_555
H28 C31 1_555 1_555
C32 C31 1_555 1_555
H29 C32 1_555 1_555
C33 C28 1_555 1_555
H30 C33 1_555 1_555
C34 C23 1_555 1_555
C35 C34 1_555 1_555
H31 C35 1_555 1_555
C36 C35 1_555 1_555
H32 C36 1_555 1_555
C37 C36 1_555 1_555
H33 C37 1_555 1_555
C38 C37 1_555 1_555
H34 C38 1_555 1_555
C39 C34 1_555 1_555
H35 C39 1_555 1_555
C40 C26 1_555 1_555
C41 H36 1_555 1_555
H37 C41 1_555 1_555
C42 C41 1_555 1_555
H38 C42 1_555 1_555
H39 C42 1_555 1_555
H40 C42 1_555 1_555
C43 C44 1_555 1_555
C44 H41 1_555 1_555
H42 C44 1_555 1_555
N1 C1 1_555 1_555
N2 C23 1_555 1_555
O1 C3 1_555 1_555
H43 O1 1_555 1_555
O2 C18 1_555 1_555
O3 C18 1_555 1_555
O4 C21 1_555 1_555
O5 C25 1_555 1_555
H44 O5 1_555 1_555
O6 C40 1_555 1_555
O7 C40 1_555 1_555
O8 C43 1_555 1_555
Cl1 C22 1_555 1_555
Cl2 C44 1_555 1_555
C5 N1 1_555 1_555
C10 C11 1_555 1_555
C16 C17 1_555 1_555
C19 O3 1_555 1_555
C21 N1 1_555 1_555
C27 N2 1_555 1_555
C32 C33 1_555 1_555
C38 C39 1_555 1_555
C41 O7 1_555 1_555
C43 N2 1_555 1_555

#END
