
#######################################################################
#
#                 Cambridge Crystallographic Data Centre
#                                CCDC 
#
#######################################################################
#
# If this CIF has been generated from an entry in the Cambridge 
# Structural Database, then it will include bibliographic, chemical, 
# crystal, experimental, refinement or atomic coordinate data resulting 
# from the CCDC's data processing and validation procedures.
#
#######################################################################

data_HOVCEA
_chemical_formula_moiety         'C24 H54 K1 N8 1+,C2 H6 O1,I1 1-'
_chemical_name_systematic        
'(4,7,13,16,21,24-Hexamethyl-1,4,7,10,13,16,21,24-octa-azabicyclo(8.8.8)hexacosane)-potassium iodide ethanol solvate'
_symmetry_cell_setting           orthorhombic
_symmetry_space_group_name_H-M   'P b c a'
_symmetry_Int_Tables_number      61
_space_group_name_Hall           '-P 2ac 2ab'
loop_
_symmetry_equiv_pos_site_id
_symmetry_equiv_pos_as_xyz
1 x,y,z
2 1/2+x,y,1/2-z
3 x,1/2-y,1/2+z
4 1/2-x,1/2+y,z
5 -x,-y,-z
6 1/2-x,-y,1/2+z
7 -x,1/2+y,1/2-z
8 1/2+x,1/2-y,-z
_cell_length_a                   17.815(4)
_cell_length_b                   16.942(3)
_cell_length_c                   23.136(5)
_cell_angle_alpha                90
_cell_angle_beta                 90
_cell_angle_gamma                90
_cell_volume                     6982.95
_cell_formula_units_Z            8
loop_
_atom_site_label
_atom_site_type_symbol
_atom_site_fract_x
_atom_site_fract_y
_atom_site_fract_z
I1 I 0.11893(2) 0.103368(14) 0.334780(13)
K1 K 0.05982(4) -0.24509(4) 0.39656(3)
N1 N 0.0262(2) -0.2635(2) 0.52950(12)
C1 C 0.0506(3) -0.1913(3) 0.5598(2)
H1 H 0.0534(3) -0.2024(3) 0.6009(2)
H2 H 0.0128(3) -0.1508(3) 0.5543(2)
C2 C 0.1257(2) -0.1590(3) 0.5401(2)
H3 H 0.1401(2) -0.1162(3) 0.5656(2)
H4 H 0.1631(2) -0.2003(3) 0.5439(2)
N2 N 0.1267(2) -0.1296(2) 0.47981(13)
C3 C 0.0794(3) -0.0592(3) 0.4739(2)
H5 H 0.0288(3) -0.0718(3) 0.4850(2)
H6 H 0.0800(3) -0.0416(3) 0.4345(2)
H7 H 0.0983(3) -0.0180(3) 0.4985(2)
C4 C 0.2047(2) -0.1112(2) 0.4630(2)
H8 H 0.2365(2) -0.1551(2) 0.4740(2)
H9 H 0.2212(2) -0.0653(2) 0.4846(2)
C5 C 0.2160(2) -0.0950(2) 0.3990(2)
H10 H 0.1856(2) -0.0499(2) 0.3881(2)
H11 H 0.2681(2) -0.0811(2) 0.3925(2)
N3 N 0.1965(2) -0.1619(2) 0.36106(13)
C6 C 0.2529(3) -0.2255(3) 0.3675(2)
H12 H 0.2540(3) -0.2428(3) 0.4070(2)
H13 H 0.3015(3) -0.2058(3) 0.3568(2)
H14 H 0.2398(3) -0.2690(3) 0.3429(2)
C7 C 0.1947(2) -0.1353(2) 0.3007(2)
H15 H 0.2444(2) -0.1168(2) 0.2901(2)
H16 H 0.1607(2) -0.0908(2) 0.2977(2)
C8 C 0.1704(2) -0.1982(2) 0.2577(2)
H17 H 0.1743(2) -0.1767(2) 0.2189(2)
H18 H 0.2048(2) -0.2424(2) 0.2603(2)
N4 N 0.0927(2) -0.2276(2) 0.26662(12)
C9 C 0.0839(2) -0.3050(2) 0.2382(2)
H19 H 0.1078(2) -0.3028(2) 0.2006(2)
H20 H 0.0309(2) -0.3147(2) 0.2321(2)
C10 C 0.1167(2) -0.3743(2) 0.2717(2)
H21 H 0.1139(2) -0.4211(2) 0.2476(2)
H22 H 0.1693(2) -0.3637(2) 0.2792(2)
N5 N 0.0790(2) -0.3912(2) 0.32741(12)
C11 C 0.0026(2) -0.4204(3) 0.3168(2)
H23 H -0.0257(2) -0.3810(3) 0.2965(2)
H24 H -0.0214(2) -0.4316(3) 0.3531(2)
H25 H 0.0049(2) -0.4677(3) 0.2940(2)
C12 C 0.1231(2) -0.4513(2) 0.3587(2)
H26 H 0.1756(2) -0.4359(2) 0.3583(2)
H27 H 0.1190(2) -0.5012(2) 0.3384(2)
C13 C 0.0983(2) -0.4630(2) 0.4213(2)
H28 H 0.0455(2) -0.4768(2) 0.4217(2)
H29 H 0.1259(2) -0.5071(2) 0.4376(2)
N6 N 0.1098(2) -0.3931(2) 0.45841(12)
C14 C 0.1908(2) -0.3831(3) 0.4709(2)
H30 H 0.2177(2) -0.3764(3) 0.4353(2)
H31 H 0.2092(2) -0.4291(3) 0.4906(2)
H32 H 0.1979(2) -0.3375(3) 0.4949(2)
C15 C 0.0675(2) -0.4036(2) 0.5128(2)
H33 H 0.0886(2) -0.4481(2) 0.5335(2)
H34 H 0.0159(2) -0.4167(2) 0.5033(2)
C16 C 0.0673(3) -0.3326(3) 0.5525(2)
H35 H 0.0450(3) -0.3478(3) 0.5891(2)
H36 H 0.1188(3) -0.3172(3) 0.5601(2)
C17 C -0.0563(2) -0.2745(3) 0.5387(2)
H37 H -0.0680(2) -0.2626(3) 0.5788(2)
H38 H -0.0688(2) -0.3295(3) 0.5321(2)
C18 C -0.1053(2) -0.2235(2) 0.5000(2)
H39 H -0.1573(2) -0.2306(2) 0.5113(2)
H40 H -0.0925(2) -0.1685(2) 0.5066(2)
N7 N -0.0985(2) -0.2403(2) 0.43766(13)
C19 C -0.1209(3) -0.3221(2) 0.4249(2)
H41 H -0.1160(3) -0.3318(2) 0.3842(2)
H42 H -0.1722(3) -0.3299(2) 0.4364(2)
H43 H -0.0892(3) -0.3578(2) 0.4459(2)
C20 C -0.1459(2) -0.1849(3) 0.4045(2)
H44 H -0.1379(2) -0.1320(3) 0.4192(2)
H45 H -0.1982(2) -0.1983(3) 0.4111(2)
C21 C -0.1312(2) -0.1849(3) 0.3396(2)
H46 H -0.1425(2) -0.2369(3) 0.3244(2)
H47 H -0.1651(2) -0.1476(3) 0.3214(2)
N8 N -0.0534(2) -0.1641(2) 0.32406(12)
C22 C -0.0388(3) -0.0807(3) 0.3376(2)
H48 H 0.0119(3) -0.0678(3) 0.3273(2)
H49 H -0.0460(3) -0.0720(3) 0.3782(2)
H50 H -0.0728(3) -0.0480(3) 0.3161(2)
C23 C -0.0417(2) -0.1792(3) 0.2619(2)
H51 H -0.0731(2) -0.1433(3) 0.2400(2)
H52 H -0.0582(2) -0.2325(3) 0.2533(2)
C24 C 0.0392(2) -0.1698(3) 0.2416(2)
H53 H 0.0404(2) -0.1747(3) 0.1998(2)
H54 H 0.0561(2) -0.1170(3) 0.2513(2)
O1 O 0.2069(7) -0.0013(5) 0.1420(4)
H55 H 0.2235(7) -0.0464(5) 0.1427(4)
C25 C 0.2286(5) 0.0362(4) 0.1880(3)
H56 H 0.2830(5) 0.0358(4) 0.1877(3)
H57 H 0.2130(5) 0.0047(4) 0.2208(3)
C26 C 0.2067(2) 0.1136(2) 0.1995(2)
H58 H 0.2285(2) 0.1305(2) 0.2354(2)
H59 H 0.1530(2) 0.1162(2) 0.2022(2)
H60 H 0.2236(2) 0.1475(2) 0.1689(2)
loop_
_geom_bond_atom_site_label_1
_geom_bond_atom_site_label_2
_geom_bond_site_symmetry_1
_geom_bond_site_symmetry_2
K1 N1 1_555 1_555
N1 C1 1_555 1_555
C1 H1 1_555 1_555
H2 C1 1_555 1_555
C2 C1 1_555 1_555
H3 C2 1_555 1_555
H4 C2 1_555 1_555
N2 K1 1_555 1_555
C3 N2 1_555 1_555
H5 C3 1_555 1_555
H6 C3 1_555 1_555
H7 C3 1_555 1_555
C4 N2 1_555 1_555
H8 C4 1_555 1_555
H9 C4 1_555 1_555
C5 C4 1_555 1_555
H10 C5 1_555 1_555
H11 C5 1_555 1_555
N3 K1 1_555 1_555
C6 N3 1_555 1_555
H12 C6 1_555 1_555
H13 C6 1_555 1_555
H14 C6 1_555 1_555
C7 N3 1_555 1_555
H15 C7 1_555 1_555
H16 C7 1_555 1_555
C8 C7 1_555 1_555
H17 C8 1_555 1_555
H18 C8 1_555 1_555
N4 K1 1_555 1_555
C9 N4 1_555 1_555
H19 C9 1_555 1_555
H20 C9 1_555 1_555
C10 C9 1_555 1_555
H21 C10 1_555 1_555
H22 C10 1_555 1_555
N5 K1 1_555 1_555
C11 N5 1_555 1_555
H23 C11 1_555 1_555
H24 C11 1_555 1_555
H25 C11 1_555 1_555
C12 N5 1_555 1_555
H26 C12 1_555 1_555
H27 C12 1_555 1_555
C13 C12 1_555 1_555
H28 C13 1_555 1_555
H29 C13 1_555 1_555
N6 K1 1_555 1_555
C14 N6 1_555 1_555
H30 C14 1_555 1_555
H31 C14 1_555 1_555
H32 C14 1_555 1_555
C15 N6 1_555 1_555
H33 C15 1_555 1_555
H34 C15 1_555 1_555
C16 N1 1_555 1_555
H35 C16 1_555 1_555
H36 C16 1_555 1_555
C17 N1 1_555 1_555
H37 C17 1_555 1_555
H38 C17 1_555 1_555
C18 C17 1_555 1_555
H39 C18 1_555 1_555
H40 C18 1_555 1_555
N7 K1 1_555 1_555
C19 N7 1_555 1_555
H41 C19 1_555 1_555
H42 C19 1_555 1_555
H43 C19 1_555 1_555
C20 N7 1_555 1_555
H44 C20 1_555 1_555
H45 C20 1_555 1_555
C21 C20 1_555 1_555
H46 C21 1_555 1_555
H47 C21 1_555 1_555
N8 K1 1_555 1_555
C22 N8 1_555 1_555
H48 C22 1_555 1_555
H49 C22 1_555 1_555
H50 C22 1_555 1_555
C23 N8 1_555 1_555
H51 C23 1_555 1_555
H52 C23 1_555 1_555
C24 N4 1_555 1_555
H53 C24 1_555 1_555
H54 C24 1_555 1_555
O1 H55 1_555 1_555
C25 O1 1_555 1_555
H56 C25 1_555 1_555
H57 C25 1_555 1_555
C26 C25 1_555 1_555
H58 C26 1_555 1_555
H59 C26 1_555 1_555
H60 C26 1_555 1_555
C2 N2 1_555 1_555
C5 N3 1_555 1_555
C8 N4 1_555 1_555
C10 N5 1_555 1_555
C13 N6 1_555 1_555
C15 C16 1_555 1_555
C18 N7 1_555 1_555
C21 N8 1_555 1_555
C23 C24 1_555 1_555

#END
