
#######################################################################
#
#                 Cambridge Crystallographic Data Centre
#                                CCDC 
#
#######################################################################
#
# If this CIF has been generated from an entry in the Cambridge 
# Structural Database, then it will include bibliographic, chemical, 
# crystal, experimental, refinement or atomic coordinate data resulting 
# from the CCDC's data processing and validation procedures.
#
#######################################################################

data_HOVSOB
_chemical_formula_moiety         'C23 H33 N1 O5 S1'
_chemical_name_systematic        
'2-((R)-7-(Dimethylamino)chroman-4-yl)ethyl ((1S)-7,7-dimethyl-2-oxobicyclo[2.2.1]heptan-1-yl)methanesulfonate'
_symmetry_cell_setting           monoclinic
_symmetry_space_group_name_H-M   'P 21'
_symmetry_Int_Tables_number      4
_space_group_name_Hall           'P 2yb'
loop_
_symmetry_equiv_pos_site_id
_symmetry_equiv_pos_as_xyz
1 x,y,z
2 -x,1/2+y,-z
_cell_length_a                   6.8296(10)
_cell_length_b                   17.401(2)
_cell_length_c                   9.4820(13)
_cell_angle_alpha                90
_cell_angle_beta                 91.529(2)
_cell_angle_gamma                90
_cell_volume                     1126.46
_exptl_crystal_colour            colorless
_exptl_crystal_description       block
_chemical_melting_point          '379 K'
_cell_formula_units_Z            2
loop_
_atom_site_label
_atom_site_type_symbol
_atom_site_fract_x
_atom_site_fract_y
_atom_site_fract_z
S1 S 0.95284(10) 0.26095(5) 0.42104(8)
C1 C 0.6805(5) 0.4316(2) 0.2867(4)
C2 C 0.6828(6) 0.5128(2) 0.2267(5)
H1 H 0.6578 0.5507 0.2989
H2 H 0.5868 0.5186 0.1502
C3 C 0.8909(5) 0.51955(19) 0.1737(4)
H3 H 0.9083 0.5599 0.1031
C4 C 1.0264(7) 0.5263(2) 0.3022(5)
H4 H 0.9802 0.5649 0.3671
H5 H 1.1587 0.5390 0.2756
C5 C 1.0168(5) 0.4447(2) 0.3677(4)
H6 H 1.1464 0.4221 0.3759
H7 H 0.9606 0.4466 0.4605
C6 C 0.8842(4) 0.39783(16) 0.2639(3)
C7 C 0.9351(5) 0.43681(18) 0.1204(3)
C8 C 0.7980(8) 0.4106(3) -0.0001(4)
H8 H 0.8103 0.4446 -0.0790
H9 H 0.6652 0.4112 0.0308
H10 H 0.8322 0.3593 -0.0278
C9 C 1.1472(6) 0.4251(3) 0.0791(4)
H11 H 1.1692 0.3716 0.0599
H12 H 1.2330 0.4414 0.1552
H13 H 1.1729 0.4548 -0.0036
C10 C 0.8939(4) 0.31105(17) 0.2626(3)
H14 H 0.9895 0.2964 0.1936
H15 H 0.7678 0.2923 0.2281
C11 C 0.5983(4) 0.2462(2) 0.5120(3)
H16 H 0.5976 0.2110 0.4327
H17 H 0.4962 0.2841 0.4951
C12 C 0.5594(4) 0.20267(17) 0.6460(3)
H18 H 0.6621 0.1647 0.6600
H19 H 0.4367 0.1751 0.6333
C13 C 0.5483(4) 0.25146(16) 0.7808(3)
H20 H 0.6670 0.2830 0.7884
C14 C 0.3713(5) 0.30529(18) 0.7764(3)
H21 H 0.3907 0.3460 0.8452
H22 H 0.3580 0.3286 0.6837
C15 C 0.1873(4) 0.2613(2) 0.8083(3)
H23 H 0.0753 0.2953 0.7980
H24 H 0.1704 0.2199 0.7406
C16 C 0.3661(4) 0.19468(18) 0.9872(3)
C17 C 0.5383(4) 0.20233(16) 0.9122(3)
C18 C 0.7009(4) 0.16446(19) 0.9682(3)
H25 H 0.8193 0.1693 0.9227
C19 C 0.6953(5) 0.1199(2) 1.0880(3)
H26 H 0.8081 0.0949 1.1203
C20 C 0.5212(5) 0.1119(2) 1.1620(3)
C21 C 0.3573(5) 0.1511(2) 1.1091(3)
H27 H 0.2400 0.1480 1.1564
C22 C 0.3286(7) 0.0539(3) 1.3472(4)
H28 H 0.2711 0.1021 1.3724
H29 H 0.3483 0.0231 1.4303
H30 H 0.2427 0.0274 1.2817
C23 C 0.6770(8) 0.0219(3) 1.3299(5)
H31 H 0.7121 -0.0129 1.2562
H32 H 0.6439 -0.0068 1.4124
H33 H 0.7857 0.0552 1.3520
N1 N 0.5115(6) 0.0671(2) 1.2837(4)
O1 O 0.5456(4) 0.4003(2) 0.3370(4)
O2 O 0.9411(5) 0.18062(19) 0.3912(4)
O3 O 1.1296(4) 0.2896(2) 0.4811(3)
O4 O 0.7900(3) 0.28457(15) 0.5255(2)
O5 O 0.1938(3) 0.23002(16) 0.9478(2)
loop_
_geom_bond_atom_site_label_1
_geom_bond_atom_site_label_2
_geom_bond_site_symmetry_1
_geom_bond_site_symmetry_2
S1 C10 1_555 1_555
C1 C2 1_555 1_555
C2 H1 1_555 1_555
H2 C2 1_555 1_555
C3 C2 1_555 1_555
H3 C3 1_555 1_555
C4 C3 1_555 1_555
H4 C4 1_555 1_555
H5 C4 1_555 1_555
C5 C4 1_555 1_555
H6 C5 1_555 1_555
H7 C5 1_555 1_555
C6 C1 1_555 1_555
C7 C3 1_555 1_555
C8 C7 1_555 1_555
H8 C8 1_555 1_555
H9 C8 1_555 1_555
H10 C8 1_555 1_555
C9 C7 1_555 1_555
H11 C9 1_555 1_555
H12 C9 1_555 1_555
H13 C9 1_555 1_555
C10 C6 1_555 1_555
H14 C10 1_555 1_555
H15 C10 1_555 1_555
C11 H16 1_555 1_555
H17 C11 1_555 1_555
C12 C11 1_555 1_555
H18 C12 1_555 1_555
H19 C12 1_555 1_555
C13 C12 1_555 1_555
H20 C13 1_555 1_555
C14 C13 1_555 1_555
H21 C14 1_555 1_555
H22 C14 1_555 1_555
C15 C14 1_555 1_555
H23 C15 1_555 1_555
H24 C15 1_555 1_555
C16 C17 1_555 1_555
C17 C13 1_555 1_555
C18 C17 1_555 1_555
H25 C18 1_555 1_555
C19 C18 1_555 1_555
H26 C19 1_555 1_555
C20 C19 1_555 1_555
C21 C16 1_555 1_555
H27 C21 1_555 1_555
C22 H28 1_555 1_555
H29 C22 1_555 1_555
H30 C22 1_555 1_555
C23 H31 1_555 1_555
H32 C23 1_555 1_555
H33 C23 1_555 1_555
N1 C20 1_555 1_555
O1 C1 1_555 1_555
O2 S1 1_555 1_555
O3 S1 1_555 1_555
O4 S1 1_555 1_555
O5 C15 1_555 1_555
C5 C6 1_555 1_555
C6 C7 1_555 1_555
C11 O4 1_555 1_555
C16 O5 1_555 1_555
C20 C21 1_555 1_555
C22 N1 1_555 1_555
C23 N1 1_555 1_555

#END
