
#######################################################################
#
#                 Cambridge Crystallographic Data Centre
#                                CCDC 
#
#######################################################################
#
# If this CIF has been generated from an entry in the Cambridge 
# Structural Database, then it will include bibliographic, chemical, 
# crystal, experimental, refinement or atomic coordinate data resulting 
# from the CCDC's data processing and validation procedures.
#
#######################################################################

data_HOVTET
_chemical_formula_moiety         'C20 H18 F1 N5 O1 S1'
_chemical_name_systematic        
6-ethoxy-N-(4-fluorophenyl)-3-(methylsulfanyl)-1-phenyl-1H-pyrazolo[3,4-d]pyrimidin-4-amine
_symmetry_cell_setting           monoclinic
_symmetry_space_group_name_H-M   'C 2/c'
_symmetry_Int_Tables_number      15
_space_group_name_Hall           '-C 2yn'
loop_
_symmetry_equiv_pos_site_id
_symmetry_equiv_pos_as_xyz
1 x,y,z
2 -x,y,1/2-z
3 1/2+x,1/2+y,z
4 1/2-x,1/2+y,1/2-z
5 -x,-y,-z
6 x,-y,1/2+z
7 1/2-x,1/2-y,-z
8 1/2+x,1/2-y,1/2+z
_cell_length_a                   20.583(3)
_cell_length_b                   15.434(3)
_cell_length_c                   13.875(2)
_cell_angle_alpha                90
_cell_angle_beta                 121.671(2)
_cell_angle_gamma                90
_cell_volume                     3751.36
_exptl_crystal_colour            colorless
_exptl_crystal_description       needle
_cell_formula_units_Z            8
loop_
_atom_site_label
_atom_site_type_symbol
_atom_site_fract_x
_atom_site_fract_y
_atom_site_fract_z
O1 O 0.32024(11) 0.08631(13) 0.20715(18)
S1 S 0.68447(5) 0.22267(6) 0.54364(9)
F1 F 0.35088(12) 0.59925(13) 0.2083(2)
C1 C 0.61844(16) 0.1377(2) 0.4862(3)
C2 C 0.53854(16) 0.14290(19) 0.4114(3)
C3 C 0.48278(16) 0.20815(19) 0.3576(3)
C4 C 0.39473(17) 0.1007(2) 0.2765(3)
C5 C 0.51364(16) 0.05906(19) 0.3888(3)
C6 C 0.46044(16) 0.36793(19) 0.3311(3)
C7 C 0.49752(18) 0.4455(2) 0.3764(3)
H1 H 0.5482 0.4450 0.4357
C8 C 0.4610(2) 0.5231(2) 0.3357(3)
H2 H 0.4863 0.5752 0.3665
C9 C 0.3871(2) 0.5221(2) 0.2492(3)
C10 C 0.34850(19) 0.4480(2) 0.2031(3)
H3 H 0.2976 0.4495 0.1446
C11 C 0.38526(17) 0.3701(2) 0.2433(3)
H4 H 0.3593 0.3187 0.2113
C12 C 0.58257(18) -0.0845(2) 0.4510(3)
C13 C 0.5197(2) -0.1366(2) 0.3923(3)
H5 H 0.4712 -0.1123 0.3509
C14 C 0.5286(2) -0.2248(2) 0.3951(4)
H6 H 0.4858 -0.2599 0.3549
C15 C 0.5987(3) -0.2621(3) 0.4551(4)
H7 H 0.6040 -0.3220 0.4561
C16 C 0.6616(2) -0.2100(3) 0.5142(4)
H8 H 0.7098 -0.2349 0.5556
C17 C 0.6540(2) -0.1214(2) 0.5131(3)
H9 H 0.6969 -0.0865 0.5541
C18 C 0.6982(2) 0.2342(3) 0.6792(3)
H10 H 0.7342 0.2799 0.7191
H11 H 0.7174 0.1810 0.7203
H12 H 0.6504 0.2482 0.6722
C19 C 0.29534(18) -0.0017(2) 0.1877(3)
H13 H 0.3033 -0.0275 0.2569
H14 H 0.3238 -0.0349 0.1626
C20 C 0.2126(2) -0.0013(3) 0.0988(3)
H15 H 0.1937 -0.0597 0.0838
H16 H 0.2056 0.0239 0.0307
H17 H 0.1852 0.0321 0.1244
N1 N 0.57581(13) 0.00689(16) 0.4480(2)
N2 N 0.64074(14) 0.05647(18) 0.5081(2)
N3 N 0.41001(13) 0.18604(16) 0.2894(2)
N4 N 0.44043(13) 0.03384(15) 0.3205(2)
N5 N 0.50345(13) 0.29266(16) 0.3749(2)
H18 H 0.5515 0.3013 0.4209
loop_
_geom_bond_atom_site_label_1
_geom_bond_atom_site_label_2
_geom_bond_site_symmetry_1
_geom_bond_site_symmetry_2
O1 C4 1_555 1_555
S1 C1 1_555 1_555
F1 C9 1_555 1_555
C1 C2 1_555 1_555
C2 C3 1_555 1_555
C3 N3 1_555 1_555
C4 N3 1_555 1_555
C5 C2 1_555 1_555
C6 C7 1_555 1_555
C7 H1 1_555 1_555
C8 C7 1_555 1_555
H2 C8 1_555 1_555
C9 C8 1_555 1_555
C10 C9 1_555 1_555
H3 C10 1_555 1_555
C11 C6 1_555 1_555
H4 C11 1_555 1_555
C12 C13 1_555 1_555
C13 H5 1_555 1_555
C14 C13 1_555 1_555
H6 C14 1_555 1_555
C15 C14 1_555 1_555
H7 C15 1_555 1_555
C16 C15 1_555 1_555
H8 C16 1_555 1_555
C17 C12 1_555 1_555
H9 C17 1_555 1_555
C18 S1 1_555 1_555
H10 C18 1_555 1_555
H11 C18 1_555 1_555
H12 C18 1_555 1_555
C19 O1 1_555 1_555
H13 C19 1_555 1_555
H14 C19 1_555 1_555
C20 C19 1_555 1_555
H15 C20 1_555 1_555
H16 C20 1_555 1_555
H17 C20 1_555 1_555
N1 C5 1_555 1_555
N2 C1 1_555 1_555
N4 C4 1_555 1_555
N5 C3 1_555 1_555
H18 N5 1_555 1_555
C5 N4 1_555 1_555
C6 N5 1_555 1_555
C10 C11 1_555 1_555
C12 N1 1_555 1_555
C16 C17 1_555 1_555
N1 N2 1_555 1_555

#END
