
#######################################################################
#
#                 Cambridge Crystallographic Data Centre
#                                CCDC 
#
#######################################################################
#
# If this CIF has been generated from an entry in the Cambridge 
# Structural Database, then it will include bibliographic, chemical, 
# crystal, experimental, refinement or atomic coordinate data resulting 
# from the CCDC's data processing and validation procedures.
#
#######################################################################

data_HOWCIH
_chemical_formula_moiety         'C35 H27 N3 O3 S1'
_chemical_name_systematic        
"ethyl (2S,2'R)-1'-benzyl-3-oxo-3H-dispiro[1-benzothiophene-2,3'-pyrrolidine-2',11''-indeno[1,2-b]quinoxaline]-4'-carboxylate"
_symmetry_cell_setting           monoclinic
_symmetry_space_group_name_H-M   'P 21/c'
_symmetry_Int_Tables_number      14
_space_group_name_Hall           '-P 2ybc'
loop_
_symmetry_equiv_pos_site_id
_symmetry_equiv_pos_as_xyz
1 x,y,z
2 -x,1/2+y,1/2-z
3 -x,-y,-z
4 x,1/2-y,1/2+z
_cell_length_a                   11.3893(5)
_cell_length_b                   15.1181(7)
_cell_length_c                   16.7136(7)
_cell_angle_alpha                90
_cell_angle_beta                 100.766(2)
_cell_angle_gamma                90
_cell_volume                     2827.17
_exptl_crystal_colour            colorless
_exptl_crystal_description       block
_cell_formula_units_Z            4
loop_
_atom_site_label
_atom_site_type_symbol
_atom_site_fract_x
_atom_site_fract_y
_atom_site_fract_z
C1 C 0.94305(15) 0.59196(11) 0.32387(10)
C2 C 1.02494(16) 0.61651(12) 0.27599(11)
H1 H 1.0270 0.6742 0.2569
C3 C 1.10351(18) 0.55315(14) 0.25723(12)
H2 H 1.1592 0.5689 0.2255
C4 C 1.10079(19) 0.46711(14) 0.28464(12)
H3 H 1.1534 0.4255 0.2703
C5 C 1.02072(18) 0.44219(12) 0.33317(12)
H4 H 1.0191 0.3844 0.3520
C6 C 0.94291(15) 0.50536(11) 0.35315(10)
C7 C 0.85854(15) 0.50023(11) 0.40909(10)
C8 C 0.74977(16) 0.44736(12) 0.49827(11)
C9 C 0.70512(19) 0.37615(14) 0.53845(13)
H5 H 0.7266 0.3184 0.5285
C10 C 0.6306(2) 0.39205(16) 0.59184(14)
H6 H 0.6010 0.3448 0.6177
C11 C 0.59810(19) 0.47810(16) 0.60827(13)
H7 H 0.5490 0.4878 0.6461
C12 C 0.63773(19) 0.54804(14) 0.56935(12)
H8 H 0.6151 0.6052 0.5804
C13 C 0.71247(16) 0.53441(12) 0.51270(10)
C14 C 0.81360(15) 0.58677(10) 0.41819(10)
C15 C 0.85285(15) 0.64971(10) 0.35577(10)
C16 C 0.74095(15) 0.67850(10) 0.29184(10)
C17 C 0.60427(17) 0.61769(11) 0.16969(10)
C18 C 0.5082(2) 0.57525(14) 0.12280(13)
H9 H 0.4675 0.5308 0.1449
C19 C 0.4738(2) 0.60023(18) 0.04237(14)
H10 H 0.4089 0.5727 0.0098
C20 C 0.5351(2) 0.66581(17) 0.01002(13)
H11 H 0.5104 0.6822 -0.0441
C21 C 0.6315(2) 0.70724(14) 0.05597(12)
H12 H 0.6731 0.7507 0.0334
C22 C 0.66571(16) 0.68277(11) 0.13706(10)
C23 C 0.68928(15) 0.75054(10) 0.34217(10)
H13 H 0.6505 0.7203 0.3821
C24 C 0.59899(18) 0.81252(12) 0.29378(12)
C25 C 0.80035(16) 0.79654(11) 0.38832(12)
H14 H 0.8121 0.8530 0.3633
H15 H 0.7934 0.8066 0.4446
C26 C 0.99701(19) 0.73891(12) 0.45364(12)
H16 H 1.0523 0.6910 0.4498
H17 H 0.9653 0.7307 0.5031
C27 C 1.06247(16) 0.82614(12) 0.45754(11)
C28 C 1.0953(2) 0.86170(15) 0.38916(14)
H18 H 1.0783 0.8308 0.3402
C29 C 1.1527(2) 0.94207(17) 0.39172(16)
H19 H 1.1738 0.9649 0.3447
C30 C 1.1787(2) 0.98798(16) 0.46243(18)
H20 H 1.2177 1.0422 0.4643
C31 C 1.1471(3) 0.95415(17) 0.53055(17)
H21 H 1.1647 0.9853 0.5793
C32 C 1.0890(2) 0.87391(15) 0.52796(14)
H22 H 1.0674 0.8519 0.5751
N1 N 0.74601(13) 0.60603(9) 0.47047(8)
N2 N 0.82817(14) 0.43036(9) 0.44648(9)
N3 N 0.89985(13) 0.73649(9) 0.38373(9)
S1 S 0.78568(8) 0.73399(5) 0.20235(4)
C33 C 0.6529(4) 0.6080(3) 0.2563(3)
O1 O 0.6242(2) 0.54889(17) 0.29998(16)
O2 O 0.6159(7) 0.8878(3) 0.2794(6)
O3 O 0.4957(7) 0.7732(6) 0.2675(8)
C34 C 0.3996(7) 0.8243(8) 0.2179(8)
H23 H 0.4244 0.8455 0.1688
H24 H 0.3788 0.8747 0.2482
C35 C 0.2971(6) 0.7641(5) 0.1971(6)
H25 H 0.3197 0.7137 0.1684
H26 H 0.2322 0.7944 0.1632
H27 H 0.2724 0.7447 0.2461
S2? S 0.6310(4) 0.5815(3) 0.2707(2)
C36? C 0.7539(7) 0.7084(5) 0.2082(4)
O4? O 0.8375(8) 0.7589(5) 0.2028(5)
O5? O 0.6076(16) 0.8911(4) 0.2969(10)
O6? O 0.5072(16) 0.7644(13) 0.2591(17)
C37? C 0.4105(14) 0.8121(16) 0.2061(14)
H28? H 0.3973 0.7864 0.1520
H29? H 0.4333 0.8735 0.2018
C38? C 0.2996(15) 0.8074(19) 0.2390(16)
H30? H 0.2866 0.7476 0.2544
H31? H 0.2337 0.8264 0.1981
H32? H 0.3063 0.8451 0.2858
loop_
_geom_bond_atom_site_label_1
_geom_bond_atom_site_label_2
_geom_bond_site_symmetry_1
_geom_bond_site_symmetry_2
C1 C2 1_555 1_555
C2 H1 1_555 1_555
C3 C2 1_555 1_555
H2 C3 1_555 1_555
C4 C3 1_555 1_555
H3 C4 1_555 1_555
C5 C4 1_555 1_555
H4 C5 1_555 1_555
C6 C1 1_555 1_555
C7 C6 1_555 1_555
C8 C9 1_555 1_555
C9 H5 1_555 1_555
C10 C9 1_555 1_555
H6 C10 1_555 1_555
C11 C10 1_555 1_555
H7 C11 1_555 1_555
C12 C11 1_555 1_555
H8 C12 1_555 1_555
C13 C8 1_555 1_555
C14 C7 1_555 1_555
C15 C1 1_555 1_555
C16 C15 1_555 1_555
C17 C18 1_555 1_555
C18 H9 1_555 1_555
C19 C18 1_555 1_555
H10 C19 1_555 1_555
C20 C19 1_555 1_555
H11 C20 1_555 1_555
C21 C20 1_555 1_555
H12 C21 1_555 1_555
C22 C17 1_555 1_555
C23 C16 1_555 1_555
H13 C23 1_555 1_555
C24 C23 1_555 1_555
C25 C23 1_555 1_555
H14 C25 1_555 1_555
H15 C25 1_555 1_555
C26 H16 1_555 1_555
H17 C26 1_555 1_555
C27 C26 1_555 1_555
C28 C27 1_555 1_555
H18 C28 1_555 1_555
C29 C28 1_555 1_555
H19 C29 1_555 1_555
C30 C29 1_555 1_555
H20 C30 1_555 1_555
C31 C30 1_555 1_555
H21 C31 1_555 1_555
C32 C27 1_555 1_555
H22 C32 1_555 1_555
N1 C13 1_555 1_555
N2 C7 1_555 1_555
N3 C15 1_555 1_555
S1 C16 1_555 1_555
C33 C16 1_555 1_555
O1 C33 1_555 1_555
O2 C24 1_555 1_555
O3 C24 1_555 1_555
C34 O3 1_555 1_555
H23 C34 1_555 1_555
H24 C34 1_555 1_555
C35 C34 1_555 1_555
H25 C35 1_555 1_555
H26 C35 1_555 1_555
H27 C35 1_555 1_555
C5 C6 1_555 1_555
C8 N2 1_555 1_555
C12 C13 1_555 1_555
C14 C15 1_555 1_555
C14 N1 1_555 1_555
C17 C33 1_555 1_555
C21 C22 1_555 1_555
C22 S1 1_555 1_555
C25 N3 1_555 1_555
C26 N3 1_555 1_555
C31 C32 1_555 1_555

#END
