
#######################################################################
#
#                 Cambridge Crystallographic Data Centre
#                                CCDC 
#
#######################################################################
#
# If this CIF has been generated from an entry in the Cambridge 
# Structural Database, then it will include bibliographic, chemical, 
# crystal, experimental, refinement or atomic coordinate data resulting 
# from the CCDC's data processing and validation procedures.
#
#######################################################################

data_HOWGAC
_chemical_name_common            
2,6-bis(Pentafluorobenzoyl)dithieno[2,3-b:3',2'-d]thiophene
_chemical_formula_moiety         'C22 H2 F10 O2 S3'
_chemical_name_systematic        
7H-cyclopenta[b]thieno[2,3-d]thiene-2,6-diylbis(pentafluorophenylmethanone)
_symmetry_cell_setting           triclinic
_symmetry_space_group_name_H-M   'P -1'
_symmetry_Int_Tables_number      2
_space_group_name_Hall           '-P 1'
loop_
_symmetry_equiv_pos_site_id
_symmetry_equiv_pos_as_xyz
1 x,y,z
2 -x,-y,-z
_cell_length_a                   6.1883(3)
_cell_length_b                   9.3340(5)
_cell_length_c                   18.096(1)
_cell_angle_alpha                103.105(1)
_cell_angle_beta                 97.954(1)
_cell_angle_gamma                93.810(1)
_cell_volume                     1003.04
_exptl_crystal_colour            'light yellow'
_exptl_crystal_description       rod
_cell_formula_units_Z            2
_exptl_crystal_recrystallization_method hexanes/dichloromethane
loop_
_atom_site_label
_atom_site_type_symbol
_atom_site_fract_x
_atom_site_fract_y
_atom_site_fract_z
S1 S 0.53700(9) 0.81187(7) 1.00184(3)
S2 S 1.14139(9) 0.66702(7) 1.06927(3)
S3 S 1.07809(9) 0.82915(7) 0.88858(3)
O1 O 1.2672(3) 0.5634(2) 1.20365(10)
O2 O 1.0988(3) 0.9228(2) 0.75056(10)
C1 C 0.9387(3) 0.7413(2) 1.02014(12)
C2 C 0.7480(3) 0.7424(3) 1.05265(12)
C3 C 0.7667(4) 0.6864(3) 1.11940(12)
H1 H 0.6531 0.6806 1.1493
C4 C 0.9708(4) 0.6416(3) 1.13505(12)
C5 C 1.0751(4) 0.5846(3) 1.19878(13)
C6 C 0.9483(4) 0.5603(3) 1.26062(13)
C7 C 0.7448(4) 0.4782(2) 1.24683(13)
C8 C 0.6434(4) 0.4505(3) 1.30567(14)
C9 C 0.7412(4) 0.5056(3) 1.38064(14)
C10 C 0.9419(4) 0.5890(3) 1.39695(13)
C11 C 1.0427(4) 0.6140(3) 1.33734(13)
C12 C 0.9155(3) 0.7988(2) 0.95386(12)
C13 C 0.7051(4) 0.8374(3) 0.93524(12)
C14 C 0.6714(4) 0.8859(3) 0.86656(13)
H2 H 0.5359 0.9130 0.8449
C15 C 0.8610(4) 0.8888(3) 0.83540(12)
C16 C 0.9110(4) 0.9201(3) 0.76351(13)
C17 C 0.7293(4) 0.9372(3) 0.70292(12)
C18 C 0.7169(4) 0.8521(3) 0.62854(13)
C19 C 0.5521(4) 0.8588(3) 0.57055(13)
C20 C 0.3963(4) 0.9551(3) 0.58521(14)
C21 C 0.4067(4) 1.0447(3) 0.65764(14)
C22 C 0.5700(4) 1.0337(3) 0.71521(13)
F1 F 0.6459(2) 0.42007(15) 1.17454(7)
F2 F 0.4505(2) 0.36688(16) 1.29080(9)
F3 F 0.6412(3) 0.47815(18) 1.43747(8)
F4 F 1.0341(3) 0.64515(18) 1.46972(8)
F5 F 1.2365(2) 0.69673(18) 1.35495(8)
F6 F 0.8618(3) 0.75341(18) 0.61231(8)
F7 F 0.5435(3) 0.77366(18) 0.49984(8)
F8 F 0.2369(3) 0.96359(18) 0.52916(9)
F9 F 0.2600(3) 1.14236(18) 0.67139(10)
F10 F 0.5741(3) 1.12251(16) 0.78516(8)
loop_
_geom_bond_atom_site_label_1
_geom_bond_atom_site_label_2
_geom_bond_site_symmetry_1
_geom_bond_site_symmetry_2
S1 C2 1_555 1_555
S2 C1 1_555 1_555
S3 C12 1_555 1_555
O1 C5 1_555 1_555
O2 C16 1_555 1_555
C1 C2 1_555 1_555
C2 C3 1_555 1_555
C3 H1 1_555 1_555
C4 S2 1_555 1_555
C5 C4 1_555 1_555
C6 C5 1_555 1_555
C7 C6 1_555 1_555
C8 C7 1_555 1_555
C9 C8 1_555 1_555
C10 C9 1_555 1_555
C11 C6 1_555 1_555
C12 C1 1_555 1_555
C13 S1 1_555 1_555
C14 C13 1_555 1_555
H2 C14 1_555 1_555
C15 S3 1_555 1_555
C16 C15 1_555 1_555
C17 C16 1_555 1_555
C18 C17 1_555 1_555
C19 C18 1_555 1_555
C20 C19 1_555 1_555
C21 C20 1_555 1_555
C22 C17 1_555 1_555
F1 C7 1_555 1_555
F2 C8 1_555 1_555
F3 C9 1_555 1_555
F4 C10 1_555 1_555
F5 C11 1_555 1_555
F6 C18 1_555 1_555
F7 C19 1_555 1_555
F8 C20 1_555 1_555
F9 C21 1_555 1_555
F10 C22 1_555 1_555
C3 C4 1_555 1_555
C10 C11 1_555 1_555
C12 C13 1_555 1_555
C14 C15 1_555 1_555
C21 C22 1_555 1_555

#END
