
#######################################################################
#
#                 Cambridge Crystallographic Data Centre
#                                CCDC 
#
#######################################################################
#
# If this CIF has been generated from an entry in the Cambridge 
# Structural Database, then it will include bibliographic, chemical, 
# crystal, experimental, refinement or atomic coordinate data resulting 
# from the CCDC's data processing and validation procedures.
#
#######################################################################

data_HOWJOU
_chemical_formula_moiety         'C28 H22 Br1 N1'
_chemical_name_systematic        
10-Bromo-N,N-bis(4-methylphenyl)anthracen-9-amine
_symmetry_cell_setting           monoclinic
_symmetry_space_group_name_H-M   'P n'
_symmetry_Int_Tables_number      7
_space_group_name_Hall           'P -2yac'
loop_
_symmetry_equiv_pos_site_id
_symmetry_equiv_pos_as_xyz
1 x,y,z
2 1/2+x,-y,1/2+z
_cell_length_a                   11.1157(3)
_cell_length_b                   16.9988(4)
_cell_length_c                   11.1207(3)
_cell_angle_alpha                90
_cell_angle_beta                 90.1120(10)
_cell_angle_gamma                90
_cell_volume                     2101.29
_exptl_crystal_colour            orange
_cell_formula_units_Z            4
loop_
_atom_site_label
_atom_site_type_symbol
_atom_site_fract_x
_atom_site_fract_y
_atom_site_fract_z
Br1 Br 0.10355(5) 0.49870(3) 1.15779(5)
N1 N 0.0964(5) 0.5035(2) 0.6088(4)
C1 C 0.4184(5) 0.7117(3) 0.3607(5)
H1 H 0.4111 0.7032 0.2739
H2 H 0.5011 0.7008 0.3863
H3 H 0.3980 0.7664 0.3797
C2 C 0.3318(5) 0.6564(3) 0.4271(5)
C3 C 0.2206(5) 0.6399(3) 0.3798(4)
H4 H 0.1975 0.6625 0.3051
C4 C 0.1404(5) 0.5899(3) 0.4404(4)
H5 H 0.0630 0.5794 0.4078
C5 C 0.1759(5) 0.5560(2) 0.5487(4)
C6 C 0.0230(5) 0.4501(2) 0.5464(4)
C7 C -0.0899(5) 0.4276(3) 0.5938(4)
H6 H -0.1169 0.4492 0.6678
C8 C -0.1612(5) 0.3739(3) 0.5318(4)
H7 H -0.2349 0.3574 0.5668
C9 C -0.1286(6) 0.3437(3) 0.4213(4)
C10 C -0.2080(6) 0.2866(3) 0.3554(5)
H8 H -0.1840 0.2327 0.3754
H9 H -0.2000 0.2949 0.2685
H10 H -0.2919 0.2949 0.3791
C11 C 0.0999(6) 0.4991(3) 0.9869(5)
C12 C 0.1653(5) 0.4414(3) 0.9253(4)
C13 C 0.1627(5) 0.4427(3) 0.7968(4)
C14 C 0.0978(5) 0.5015(2) 0.7360(5)
C15 C 0.0588(5) 0.4167(3) 0.4359(4)
H11 H 0.1353 0.4291 0.4029
C16 C -0.0193(5) 0.3651(2) 0.3745(4)
H12 H 0.0045 0.3445 0.2988
C17 C 0.3624(5) 0.6247(3) 0.5377(4)
H13 H 0.4376 0.6380 0.5731
C18 C 0.2856(5) 0.5741(3) 0.5977(4)
H14 H 0.3090 0.5520 0.6726
C19 C 0.0331(5) 0.5593(3) 0.8003(4)
C20 C 0.0336(5) 0.5578(3) 0.9295(4)
C21 C -0.0376(5) 0.6161(3) 0.9913(5)
H15 H -0.0403 0.6161 1.0767
C22 C -0.1003(6) 0.6707(3) 0.9293(6)
H16 H -0.1447 0.7093 0.9721
C23 C -0.1017(6) 0.6720(3) 0.8013(5)
H17 H -0.1484 0.7100 0.7595
C24 C -0.0347(5) 0.6179(3) 0.7390(5)
H18 H -0.0336 0.6196 0.6536
C25 C 0.2266(5) 0.3836(3) 0.7330(4)
H19 H 0.2240 0.3833 0.6476
C26 C 0.2911(6) 0.3279(3) 0.7911(5)
H20 H 0.3344 0.2898 0.7462
C27 C 0.2947(6) 0.3260(3) 0.9182(6)
H21 H 0.3389 0.2859 0.9580
C28 C 0.2352(6) 0.3812(3) 0.9837(5)
H22 H 0.2398 0.3800 1.0690
Br2 Br 1.39447(5) 0.99575(3) 0.35104(5)
N2 N 0.8449(5) 0.9970(2) 0.3518(4)
C29 C 0.5965(5) 0.7878(3) 0.0333(5)
H23 H 0.5902 0.7355 0.0699
H24 H 0.6408 0.7840 -0.0426
H25 H 0.5157 0.8085 0.0178
C30 C 0.6614(5) 0.8414(3) 0.1165(5)
C31 C 0.6190(5) 0.8581(3) 0.2316(5)
H26 H 0.5463 0.8341 0.2573
C32 C 0.6780(5) 0.9080(3) 0.3099(4)
H27 H 0.6466 0.9167 0.3881
C33 C 0.7838(4) 0.9457(3) 0.2746(4)
C34 C 0.7828(5) 1.0504(3) 0.4288(4)
C35 C 0.6726(5) 1.0812(3) 0.3953(4)
H28 H 0.6394 1.0681 0.3191
C36 C 0.6089(5) 1.1320(3) 0.4730(5)
H29 H 0.5322 1.1516 0.4499
C37 C 0.6577(5) 1.1534(3) 0.5827(5)
C38 C 0.5877(5) 1.2072(3) 0.6667(5)
H30 H 0.5913 1.2614 0.6366
H31 H 0.6231 1.2050 0.7474
H32 H 0.5037 1.1900 0.6702
C39 C 1.2235(5) 0.9970(3) 0.3532(5)
C40 C 1.1650(5) 1.0553(3) 0.2873(4)
C41 C 1.2256(6) 1.1154(3) 0.2160(5)
H33 H 1.3110 1.1166 0.2122
C42 C 1.1616(6) 1.1682(4) 0.1569(6)
H34 H 1.2031 1.2069 0.1113
C43 C 1.0326(6) 1.1700(3) 0.1579(5)
H35 H 0.9902 1.2091 0.1139
C44 C 0.9711(6) 1.1146(3) 0.2234(5)
H36 H 0.8856 1.1151 0.2249
C45 C 1.0360(5) 1.0562(3) 0.2892(4)
C46 C 0.9723(5) 0.9972(2) 0.3549(5)
C47 C 0.8331(5) 1.0734(3) 0.5378(4)
H37 H 0.9103 1.0547 0.5610
C48 C 0.7697(5) 1.1238(3) 0.6125(4)
H38 H 0.8047 1.1386 0.6871
C49 C 0.7696(5) 0.8765(3) 0.0855(4)
H39 H 0.8035 0.8647 0.0093
C50 C 0.8311(4) 0.9283(3) 0.1608(4)
H40 H 0.9044 0.9516 0.1353
C51 C 1.0341(5) 0.9391(3) 0.4188(4)
C52 C 0.9734(5) 0.8810(3) 0.4865(4)
H41 H 0.8879 0.8806 0.4866
C53 C 1.0332(6) 0.8261(3) 0.5510(5)
H42 H 0.9897 0.7880 0.5960
C54 C 1.1599(6) 0.8251(3) 0.5517(5)
H43 H 1.2014 0.7860 0.5966
C55 C 1.2236(6) 0.8798(3) 0.4884(5)
H44 H 1.3090 0.8786 0.4903
C56 C 1.1628(5) 0.9394(3) 0.4186(4)
loop_
_geom_bond_atom_site_label_1
_geom_bond_atom_site_label_2
_geom_bond_site_symmetry_1
_geom_bond_site_symmetry_2
Br1 C11 1_555 1_555
N1 C5 1_555 1_555
C1 H1 1_555 1_555
H2 C1 1_555 1_555
H3 C1 1_555 1_555
C2 C1 1_555 1_555
C3 C2 1_555 1_555
H4 C3 1_555 1_555
C4 C3 1_555 1_555
H5 C4 1_555 1_555
C5 C4 1_555 1_555
C6 N1 1_555 1_555
C7 C6 1_555 1_555
H6 C7 1_555 1_555
C8 C7 1_555 1_555
H7 C8 1_555 1_555
C9 C8 1_555 1_555
C10 C9 1_555 1_555
H8 C10 1_555 1_555
H9 C10 1_555 1_555
H10 C10 1_555 1_555
C11 C12 1_555 1_555
C12 C13 1_555 1_555
C13 C14 1_555 1_555
C14 N1 1_555 1_555
C15 C6 1_555 1_555
H11 C15 1_555 1_555
C16 C9 1_555 1_555
H12 C16 1_555 1_555
C17 C2 1_555 1_555
H13 C17 1_555 1_555
C18 C5 1_555 1_555
H14 C18 1_555 1_555
C19 C14 1_555 1_555
C20 C11 1_555 1_555
C21 C20 1_555 1_555
H15 C21 1_555 1_555
C22 C21 1_555 1_555
H16 C22 1_555 1_555
C23 C22 1_555 1_555
H17 C23 1_555 1_555
C24 C19 1_555 1_555
H18 C24 1_555 1_555
C25 C13 1_555 1_555
H19 C25 1_555 1_555
C26 C25 1_555 1_555
H20 C26 1_555 1_555
C27 C26 1_555 1_555
H21 C27 1_555 1_555
C28 C12 1_555 1_555
H22 C28 1_555 1_555
Br2 C39 1_555 1_555
N2 C33 1_555 1_555
C29 H23 1_555 1_555
H24 C29 1_555 1_555
H25 C29 1_555 1_555
C30 C29 1_555 1_555
C31 C30 1_555 1_555
H26 C31 1_555 1_555
C32 C31 1_555 1_555
H27 C32 1_555 1_555
C33 C32 1_555 1_555
C34 N2 1_555 1_555
C35 C34 1_555 1_555
H28 C35 1_555 1_555
C36 C35 1_555 1_555
H29 C36 1_555 1_555
C37 C36 1_555 1_555
C38 C37 1_555 1_555
H30 C38 1_555 1_555
H31 C38 1_555 1_555
H32 C38 1_555 1_555
C39 C40 1_555 1_555
C40 C41 1_555 1_555
C41 H33 1_555 1_555
C42 C41 1_555 1_555
H34 C42 1_555 1_555
C43 C42 1_555 1_555
H35 C43 1_555 1_555
C44 C43 1_555 1_555
H36 C44 1_555 1_555
C45 C40 1_555 1_555
C46 N2 1_555 1_555
C47 C34 1_555 1_555
H37 C47 1_555 1_555
C48 C37 1_555 1_555
H38 C48 1_555 1_555
C49 C30 1_555 1_555
H39 C49 1_555 1_555
C50 C33 1_555 1_555
H40 C50 1_555 1_555
C51 C46 1_555 1_555
C52 C51 1_555 1_555
H41 C52 1_555 1_555
C53 C52 1_555 1_555
H42 C53 1_555 1_555
C54 C53 1_555 1_555
H43 C54 1_555 1_555
C55 C54 1_555 1_555
H44 C55 1_555 1_555
C56 C39 1_555 1_555
C15 C16 1_555 1_555
C17 C18 1_555 1_555
C19 C20 1_555 1_555
C23 C24 1_555 1_555
C27 C28 1_555 1_555
C44 C45 1_555 1_555
C45 C46 1_555 1_555
C47 C48 1_555 1_555
C49 C50 1_555 1_555
C51 C56 1_555 1_555
C55 C56 1_555 1_555

#END
