
#######################################################################
#
#                 Cambridge Crystallographic Data Centre
#                                CCDC 
#
#######################################################################
#
# If this CIF has been generated from an entry in the Cambridge 
# Structural Database, then it will include bibliographic, chemical, 
# crystal, experimental, refinement or atomic coordinate data resulting 
# from the CCDC's data processing and validation procedures.
#
#######################################################################

data_HOWJIO
_chemical_formula_moiety         'C28 H22 Br1 N1,C1 H2 Cl2'
_chemical_name_systematic        
'10-Bromo-N,N-bis(4-methylphenyl)anthracen-9-amine dichloromethane solvate'
_symmetry_cell_setting           orthorhombic
_symmetry_space_group_name_H-M   'P b c a'
_symmetry_Int_Tables_number      61
_space_group_name_Hall           '-P 2ac 2ab'
loop_
_symmetry_equiv_pos_site_id
_symmetry_equiv_pos_as_xyz
1 x,y,z
2 1/2+x,1/2-y,-z
3 -x,1/2+y,1/2-z
4 1/2-x,-y,1/2+z
5 -x,-y,-z
6 1/2-x,1/2+y,z
7 x,1/2-y,1/2+z
8 1/2+x,y,1/2-z
_cell_length_a                   12.2686(9)
_cell_length_b                   12.6470(9)
_cell_length_c                   31.172(2)
_cell_angle_alpha                90
_cell_angle_beta                 90
_cell_angle_gamma                90
_cell_volume                     4836.68
_exptl_crystal_colour            yellow
_exptl_crystal_description       Lamellar
_cell_formula_units_Z            8
loop_
_atom_site_label
_atom_site_type_symbol
_atom_site_fract_x
_atom_site_fract_y
_atom_site_fract_z
Br1 Br 0.64563(4) 0.24163(4) 0.33255(2)
C1 C 0.6321(4) 0.2302(3) 0.27221(14)
C2 C 0.5433(4) 0.1736(3) 0.25497(15)
C3 C 0.4635(4) 0.1207(4) 0.28042(16)
H1 H 0.4676 0.1249 0.3108
C4 C 0.3814(4) 0.0641(4) 0.26187(17)
H2 H 0.3295 0.0290 0.2794
C5 C 0.3727(4) 0.0573(4) 0.21652(17)
H3 H 0.3157 0.0170 0.2039
C6 C 0.4456(4) 0.1083(3) 0.19107(16)
H4 H 0.4385 0.1039 0.1608
C7 C 0.5334(4) 0.1689(3) 0.20921(15)
C8 C 0.6070(4) 0.2244(3) 0.18295(15)
C9 C 0.6964(4) 0.2781(3) 0.20058(16)
C10 C 0.7741(4) 0.3319(4) 0.17427(17)
H5 H 0.7650 0.3323 0.1440
C11 C 0.8613(4) 0.3825(4) 0.19206(18)
H6 H 0.9126 0.4172 0.1741
C12 C 0.8755(4) 0.3836(4) 0.23676(18)
H7 H 0.9367 0.4192 0.2486
C13 C 0.8035(4) 0.3349(4) 0.26341(17)
H8 H 0.8150 0.3367 0.2935
C14 C 0.7106(4) 0.2808(3) 0.24634(16)
C15 C 0.4976(4) 0.2903(4) 0.12370(16)
C16 C 0.4773(4) 0.3865(4) 0.14380(16)
H9 H 0.5244 0.4105 0.1659
C17 C 0.3887(4) 0.4474(4) 0.13173(17)
H10 H 0.3770 0.5136 0.1454
C18 C 0.3163(4) 0.4143(4) 0.10005(17)
C19 C 0.3369(4) 0.3170(4) 0.08085(16)
H11 H 0.2885 0.2920 0.0593
C20 C 0.4261(4) 0.2552(4) 0.09220(15)
H12 H 0.4382 0.1892 0.0784
C21 C 0.2178(4) 0.4804(5) 0.08849(19)
H13 H 0.1582 0.4647 0.1084
H14 H 0.1948 0.4637 0.0591
H15 H 0.2366 0.5555 0.0904
C22 C 0.6548(4) 0.1716(4) 0.10891(16)
C23 C 0.6567(4) 0.1934(4) 0.06512(16)
H16 H 0.6126 0.2486 0.0539
C24 C 0.7220(4) 0.1356(4) 0.03799(18)
H17 H 0.7199 0.1507 0.0082
C25 C 0.7910(4) 0.0559(4) 0.05246(17)
C26 C 0.7907(4) 0.0361(4) 0.09651(17)
H18 H 0.8372 -0.0171 0.1078
C27 C 0.7236(4) 0.0927(4) 0.12428(17)
H19 H 0.7248 0.0772 0.1541
C28 C 0.8584(5) -0.0097(5) 0.02234(18)
H20 H 0.8161 -0.0713 0.0130
H21 H 0.9246 -0.0335 0.0370
H22 H 0.8785 0.0329 -0.0027
N1 N 0.5876(3) 0.2279(3) 0.13765(12)
C29 C 0.9524(6) 0.2896(6) 0.0713(2)
H23 H 0.9717 0.3213 0.0993
H24 H 0.8821 0.2520 0.0746
Cl1 Cl 1.05394(13) 0.19979(14) 0.05575(6)
Cl2 Cl 0.9392(2) 0.3895(2) 0.03257(14)
loop_
_geom_bond_atom_site_label_1
_geom_bond_atom_site_label_2
_geom_bond_site_symmetry_1
_geom_bond_site_symmetry_2
Br1 C1 1_555 1_555
C1 C2 1_555 1_555
C2 C3 1_555 1_555
C3 H1 1_555 1_555
C4 C3 1_555 1_555
H2 C4 1_555 1_555
C5 C4 1_555 1_555
H3 C5 1_555 1_555
C6 C5 1_555 1_555
H4 C6 1_555 1_555
C7 C2 1_555 1_555
C8 C7 1_555 1_555
C9 C8 1_555 1_555
C10 C9 1_555 1_555
H5 C10 1_555 1_555
C11 C10 1_555 1_555
H6 C11 1_555 1_555
C12 C11 1_555 1_555
H7 C12 1_555 1_555
C13 C12 1_555 1_555
H8 C13 1_555 1_555
C14 C1 1_555 1_555
C15 C16 1_555 1_555
C16 H9 1_555 1_555
C17 C16 1_555 1_555
H10 C17 1_555 1_555
C18 C17 1_555 1_555
C19 C18 1_555 1_555
H11 C19 1_555 1_555
C20 C15 1_555 1_555
H12 C20 1_555 1_555
C21 C18 1_555 1_555
H13 C21 1_555 1_555
H14 C21 1_555 1_555
H15 C21 1_555 1_555
C22 C23 1_555 1_555
C23 H16 1_555 1_555
C24 C23 1_555 1_555
H17 C24 1_555 1_555
C25 C24 1_555 1_555
C26 C25 1_555 1_555
H18 C26 1_555 1_555
C27 C22 1_555 1_555
H19 C27 1_555 1_555
C28 C25 1_555 1_555
H20 C28 1_555 1_555
H21 C28 1_555 1_555
H22 C28 1_555 1_555
N1 C8 1_555 1_555
C29 H23 1_555 1_555
H24 C29 1_555 1_555
Cl1 C29 1_555 1_555
Cl2 C29 1_555 1_555
C6 C7 1_555 1_555
C9 C14 1_555 1_555
C13 C14 1_555 1_555
C15 N1 1_555 1_555
C19 C20 1_555 1_555
C22 N1 1_555 1_555
C26 C27 1_555 1_555

#END
