
#######################################################################
#
#                 Cambridge Crystallographic Data Centre
#                                CCDC 
#
#######################################################################
#
# If this CIF has been generated from an entry in the Cambridge 
# Structural Database, then it will include bibliographic, chemical, 
# crystal, experimental, refinement or atomic coordinate data resulting 
# from the CCDC's data processing and validation procedures.
#
#######################################################################

data_HOWMEM
_chemical_compound_source        
'leaves of Uncaria hirsuta HAVILAND (Rubiaceae)'
_chemical_formula_moiety         'C29 H46 O3'
_chemical_name_systematic        (3\b)-3-hydroxy-27-noroleano-13(28)-lactone
_chemical_properties_biological  
'leaves of Uncaria hirsuta has been used as folk medicine for treating ailments in the cardiovascular and central nervous systems'
_symmetry_cell_setting           orthorhombic
_symmetry_space_group_name_H-M   'P 21 21 21'
_symmetry_Int_Tables_number      19
_space_group_name_Hall           'P 2ac 2ab'
loop_
_symmetry_equiv_pos_site_id
_symmetry_equiv_pos_as_xyz
1 x,y,z
2 1/2-x,-y,1/2+z
3 -x,1/2+y,1/2-z
4 1/2+x,1/2-y,-z
_cell_length_a                   11.4632(10)
_cell_length_b                   14.5388(12)
_cell_length_c                   15.3259(13)
_cell_angle_alpha                90
_cell_angle_beta                 90
_cell_angle_gamma                90
_cell_volume                     2554.23
_exptl_crystal_colour            colorless
_exptl_crystal_description       prismatic
_cell_formula_units_Z            4
_exptl_crystal_recrystallization_method 'ethyl acetate/petroleum ether'
loop_
_atom_site_label
_atom_site_type_symbol
_atom_site_fract_x
_atom_site_fract_y
_atom_site_fract_z
O1 O 0.5785(2) 0.2445(2) 0.82252(13)
H1 H 0.6364 0.2137 0.8339
O2 O 0.24219(18) 0.41231(17) 0.13107(15)
O3 O 0.32650(15) 0.34490(12) 0.24453(12)
C1 C 0.4816(3) 0.1957(2) 0.59214(18)
H2 H 0.4292 0.1488 0.5700
H3 H 0.5572 0.1863 0.5651
C2 C 0.4937(3) 0.1843(2) 0.69099(19)
H4 H 0.4170 0.1873 0.7176
H5 H 0.5264 0.1241 0.7035
C3 C 0.5700(3) 0.2567(2) 0.73041(18)
C4 C 0.5317(3) 0.3557(2) 0.71183(18)
C5 C 0.5132(2) 0.3638(2) 0.61114(16)
H6 H 0.5910 0.3528 0.5866
C6 C 0.4824(3) 0.4598(2) 0.58030(18)
H7 H 0.5289 0.5045 0.6119
H8 H 0.4009 0.4720 0.5926
C7 C 0.5045(3) 0.47015(18) 0.48280(17)
H9 H 0.5870 0.4613 0.4715
H10 H 0.4844 0.5323 0.4653
C8 C 0.4346(2) 0.40194(17) 0.42734(17)
C9 C 0.4545(2) 0.30360(17) 0.46537(16)
C10 C 0.4350(2) 0.29096(19) 0.56604(17)
C11 C 0.3924(2) 0.23201(18) 0.40879(17)
H11 H 0.4007 0.1716 0.4349
H12 H 0.3099 0.2464 0.4054
C12 C 0.4448(3) 0.23160(17) 0.31778(16)
H13 H 0.5241 0.2087 0.3213
H14 H 0.4006 0.1893 0.2816
C13 C 0.4464(2) 0.32462(16) 0.27402(16)
C14 C 0.4871(2) 0.40305(16) 0.33295(16)
H15 H 0.5716 0.3955 0.3397
C15 C 0.4688(3) 0.49582(18) 0.28549(19)
H16 H 0.3880 0.5143 0.2923
H17 H 0.5169 0.5421 0.3135
C16 C 0.4981(3) 0.49381(18) 0.18796(18)
H18 H 0.5820 0.4988 0.1809
H19 H 0.4627 0.5467 0.1599
C17 C 0.4555(2) 0.40551(17) 0.14201(17)
C18 C 0.5097(2) 0.32222(16) 0.18630(16)
C19 C 0.6411(2) 0.31845(19) 0.17725(17)
H20 H 0.6707 0.2637 0.2058
H21 H 0.6756 0.3717 0.2053
C20 C 0.6753(3) 0.3170(2) 0.07905(18)
C21 C 0.6131(3) 0.3962(2) 0.0303(2)
H22 H 0.6497 0.4536 0.0473
H23 H 0.6267 0.3882 -0.0318
C22 C 0.4830(3) 0.4051(2) 0.04475(19)
H24 H 0.4430 0.3542 0.0169
H25 H 0.4553 0.4618 0.0185
C23 C 0.4233(3) 0.3821(3) 0.7651(2)
H26 H 0.4443 0.3884 0.8254
H27 H 0.3652 0.3349 0.7592
H28 H 0.3926 0.4393 0.7439
C24 C 0.6320(3) 0.4189(3) 0.7394(2)
H29 H 0.6590 0.4013 0.7963
H30 H 0.6051 0.4814 0.7410
H31 H 0.6947 0.4136 0.6982
C25 C 0.3056(2) 0.2953(2) 0.59146(19)
H32 H 0.2595 0.2665 0.5468
H33 H 0.2823 0.3584 0.5977
H34 H 0.2941 0.2636 0.6458
C26 C 0.3054(3) 0.4303(2) 0.4270(2)
H35 H 0.2775 0.4339 0.4860
H36 H 0.2607 0.3854 0.3955
H37 H 0.2974 0.4892 0.3995
C27 C 0.3308(3) 0.39098(18) 0.16708(19)
C28 C 0.6423(3) 0.2246(2) 0.0388(2)
H38 H 0.6754 0.2200 -0.0186
H39 H 0.5589 0.2199 0.0350
H40 H 0.6718 0.1757 0.0746
C29 C 0.8060(3) 0.3285(3) 0.0717(2)
H41 H 0.8442 0.2783 0.1007
H42 H 0.8288 0.3854 0.0985
H43 H 0.8280 0.3290 0.0113
H44 H 0.651(2) 0.2566(19) 0.7066(18)
H45 H 0.5379(15) 0.2950(17) 0.4558(16)
H46 H 0.4739(19) 0.2677(14) 0.1596(15)
loop_
_geom_bond_atom_site_label_1
_geom_bond_atom_site_label_2
_geom_bond_site_symmetry_1
_geom_bond_site_symmetry_2
O1 H1 1_555 1_555
O2 C27 1_555 1_555
O3 C13 1_555 1_555
C1 H2 1_555 1_555
H3 C1 1_555 1_555
C2 C1 1_555 1_555
H4 C2 1_555 1_555
H5 C2 1_555 1_555
C3 O1 1_555 1_555
C4 C3 1_555 1_555
C5 C4 1_555 1_555
H6 C5 1_555 1_555
C6 C5 1_555 1_555
H7 C6 1_555 1_555
H8 C6 1_555 1_555
C7 C6 1_555 1_555
H9 C7 1_555 1_555
H10 C7 1_555 1_555
C8 C7 1_555 1_555
C9 C8 1_555 1_555
C10 C1 1_555 1_555
C11 C9 1_555 1_555
H11 C11 1_555 1_555
H12 C11 1_555 1_555
C12 C11 1_555 1_555
H13 C12 1_555 1_555
H14 C12 1_555 1_555
C13 C12 1_555 1_555
C14 C8 1_555 1_555
H15 C14 1_555 1_555
C15 C14 1_555 1_555
H16 C15 1_555 1_555
H17 C15 1_555 1_555
C16 C15 1_555 1_555
H18 C16 1_555 1_555
H19 C16 1_555 1_555
C17 C16 1_555 1_555
C18 C13 1_555 1_555
C19 C18 1_555 1_555
H20 C19 1_555 1_555
H21 C19 1_555 1_555
C20 C19 1_555 1_555
C21 C20 1_555 1_555
H22 C21 1_555 1_555
H23 C21 1_555 1_555
C22 C17 1_555 1_555
H24 C22 1_555 1_555
H25 C22 1_555 1_555
C23 C4 1_555 1_555
H26 C23 1_555 1_555
H27 C23 1_555 1_555
H28 C23 1_555 1_555
C24 C4 1_555 1_555
H29 C24 1_555 1_555
H30 C24 1_555 1_555
H31 C24 1_555 1_555
C25 C10 1_555 1_555
H32 C25 1_555 1_555
H33 C25 1_555 1_555
H34 C25 1_555 1_555
C26 C8 1_555 1_555
H35 C26 1_555 1_555
H36 C26 1_555 1_555
H37 C26 1_555 1_555
C27 O3 1_555 1_555
C28 C20 1_555 1_555
H38 C28 1_555 1_555
H39 C28 1_555 1_555
H40 C28 1_555 1_555
C29 C20 1_555 1_555
H41 C29 1_555 1_555
H42 C29 1_555 1_555
H43 C29 1_555 1_555
H44 C3 1_555 1_555
H45 C9 1_555 1_555
H46 C18 1_555 1_555
C2 C3 1_555 1_555
C5 C10 1_555 1_555
C9 C10 1_555 1_555
C13 C14 1_555 1_555
C17 C18 1_555 1_555
C17 C27 1_555 1_555
C21 C22 1_555 1_555

#END
