
#######################################################################
#
#                 Cambridge Crystallographic Data Centre
#                                CCDC 
#
#######################################################################
#
# If this CIF has been generated from an entry in the Cambridge 
# Structural Database, then it will include bibliographic, chemical, 
# crystal, experimental, refinement or atomic coordinate data resulting 
# from the CCDC's data processing and validation procedures.
#
#######################################################################

data_HOWNEO
_chemical_formula_moiety         'C42 H48 N24 O12,16(H2 O1)'
_chemical_name_systematic        'Hexamethylcucurbit(6)uril hydrate clathrate'
_symmetry_cell_setting           monoclinic
_symmetry_space_group_name_H-M   'C 2/m'
_symmetry_Int_Tables_number      12
_space_group_name_Hall           '-C 2y'
loop_
_symmetry_equiv_pos_site_id
_symmetry_equiv_pos_as_xyz
1 x,y,z
2 -x,y,-z
3 1/2+x,1/2+y,z
4 1/2-x,1/2+y,-z
5 -x,-y,-z
6 x,-y,z
7 1/2-x,1/2-y,-z
8 1/2+x,1/2-y,z
_cell_length_a                   14.8304(11)
_cell_length_b                   19.0315(14)
_cell_length_c                   12.5878(9)
_cell_angle_alpha                90
_cell_angle_beta                 94.618(5)
_cell_angle_gamma                90
_cell_volume                     3541.31
_exptl_crystal_colour            colorless
_exptl_crystal_description       block
_cell_formula_units_Z            2
loop_
_atom_site_label
_atom_site_type_symbol
_atom_site_fract_x
_atom_site_fract_y
_atom_site_fract_z
C1 C -0.04660(19) 0.17578(17) 0.2787(2)
C2 C 0.06022(19) 0.24326(14) 0.3806(2)
H1 H 0.0637 0.2946 0.3769
C3 C 0.10659(18) 0.20848(15) 0.2872(2)
C4 C 0.18078(19) 0.17614(15) 0.4497(3)
C5 C 0.0387(2) 0.12821(19) 0.1371(2)
H2 H -0.0213 0.1261 0.1005
H3 H 0.0769 0.1545 0.0923
C6 C 0.24433(18) 0.12833(15) 0.2924(3)
H4 H 0.2978 0.1241 0.3417
H5 H 0.2612 0.1541 0.2306
C7 C 0.0197(3) 0.0000 0.1406(3)
C8 C 0.16857(17) 0.04022(16) 0.1579(2)
C9 C 0.2443(3) 0.0000 0.3160(4)
C10 C -0.1039(2) 0.2480(2) 0.4222(3)
H6 H -0.1609 0.2402 0.3803
H7 H -0.0955 0.2983 0.4297
C11 C 0.1464(3) 0.2624(2) 0.2160(3)
H8 H 0.0985 0.2896 0.1803
H9 H 0.1797 0.2389 0.1641
H10 H 0.1862 0.2929 0.2584
N1 N -0.03172(15) 0.21955(14) 0.3656(2)
N2 N 0.03341(15) 0.16638(13) 0.23701(18)
N3 N 0.10919(15) 0.21746(13) 0.4733(2)
N4 N 0.17771(14) 0.16733(11) 0.3422(2)
N5 N 0.07346(15) 0.05790(13) 0.14902(19)
N6 N 0.21441(15) 0.05813(12) 0.2588(2)
O1 O -0.11931(15) 0.15339(16) 0.24579(18)
O2 O -0.06188(18) 0.0000 0.1237(3)
O3 O 0.23919(15) 0.15391(13) 0.5142(2)
O4 O 0.2904(3) 0.0000 0.3975(3)
H11 H 0.2797 0.0615 0.0727
H12 H 0.2106 0.1240 0.0683
H13 H 0.1897 0.0567 -0.0013
C12 C 0.2167(4) 0.0738(3) 0.0656(5)
C1A C 0.04660(19) 0.17578(17) 0.7213(2)
C2A C -0.06022(19) 0.24326(14) 0.6194(2)
H1A H -0.0637 0.2946 0.6231
C3A C -0.10659(18) 0.20848(15) 0.7128(2)
C4A C -0.18078(19) 0.17614(15) 0.5503(3)
C5A C -0.0387(2) 0.12821(19) 0.8629(2)
H2A H 0.0213 0.1261 0.8995
H3A H -0.0769 0.1545 0.9077
C6A C -0.24433(18) 0.12833(15) 0.7076(3)
H4A H -0.2978 0.1241 0.6583
H5A H -0.2612 0.1541 0.7694
C7A C -0.0197(3) 0.0000 0.8594(3)
C8A C -0.16857(17) 0.04022(16) 0.8421(2)
C9A C -0.2443(3) 0.0000 0.6840(4)
C10A C 0.1039(2) 0.2480(2) 0.5778(3)
H6A H 0.1609 0.2402 0.6197
H7A H 0.0955 0.2983 0.5703
C11A C -0.1464(3) 0.2624(2) 0.7840(3)
H8A H -0.0985 0.2896 0.8197
H9A H -0.1797 0.2389 0.8359
H10A H -0.1862 0.2929 0.7416
N1A N 0.03172(15) 0.21955(14) 0.6344(2)
N2A N -0.03341(15) 0.16638(13) 0.76299(18)
N3A N -0.10919(15) 0.21746(13) 0.5267(2)
N4A N -0.17771(14) 0.16733(11) 0.6578(2)
N5A N -0.07346(15) 0.05790(13) 0.85098(19)
N6A N -0.21441(15) 0.05813(12) 0.7412(2)
O1A O 0.11931(15) 0.15339(16) 0.75421(18)
O2A O 0.06188(18) 0.0000 0.8763(3)
O3A O -0.23919(15) 0.15391(13) 0.4858(2)
O4A O -0.2904(3) 0.0000 0.6025(3)
H11A H -0.2797 0.0615 0.9273
H12A H -0.2106 0.1240 0.9317
H13A H -0.1897 0.0567 1.0013
C12A C -0.2167(4) 0.0738(3) 0.9344(5)
C1E C -0.04660(19) -0.17578(17) 0.2787(2)
C2E C 0.06022(19) -0.24326(14) 0.3806(2)
H1E H 0.0637 -0.2946 0.3769
C3E C 0.10659(18) -0.20848(15) 0.2872(2)
C4E C 0.18078(19) -0.17614(15) 0.4497(3)
C5E C 0.0387(2) -0.12821(19) 0.1371(2)
H2E H -0.0213 -0.1261 0.1005
H3E H 0.0769 -0.1545 0.0923
C6E C 0.24433(18) -0.12833(15) 0.2924(3)
H4E H 0.2978 -0.1241 0.3417
H5E H 0.2612 -0.1541 0.2306
C8E C 0.16857(17) -0.04022(16) 0.1579(2)
C10E C -0.1039(2) -0.2480(2) 0.4222(3)
H6E H -0.1609 -0.2402 0.3803
H7E H -0.0955 -0.2983 0.4297
C11E C 0.1464(3) -0.2624(2) 0.2160(3)
H8E H 0.0985 -0.2896 0.1803
H9E H 0.1797 -0.2389 0.1641
H10E H 0.1862 -0.2929 0.2584
N1E N -0.03172(15) -0.21955(14) 0.3656(2)
N2E N 0.03341(15) -0.16638(13) 0.23701(18)
N3E N 0.10919(15) -0.21746(13) 0.4733(2)
N4E N 0.17771(14) -0.16733(11) 0.3422(2)
N5E N 0.07346(15) -0.05790(13) 0.14902(19)
N6E N 0.21441(15) -0.05813(12) 0.2588(2)
O1E O -0.11931(15) -0.15339(16) 0.24579(18)
O3E O 0.23919(15) -0.15391(13) 0.5142(2)
H11E H 0.2797 -0.0615 0.0727
H12E H 0.2106 -0.1240 0.0683
H13E H 0.1897 -0.0567 -0.0013
C12E C 0.2167(4) -0.0738(3) 0.0656(5)
C1D C 0.04660(19) -0.17578(17) 0.7213(2)
C2D C -0.06022(19) -0.24326(14) 0.6194(2)
H1D H -0.0637 -0.2946 0.6231
C3D C -0.10659(18) -0.20848(15) 0.7128(2)
C4D C -0.18078(19) -0.17614(15) 0.5503(3)
C5D C -0.0387(2) -0.12821(19) 0.8629(2)
H2D H 0.0213 -0.1261 0.8995
H3D H -0.0769 -0.1545 0.9077
C6D C -0.24433(18) -0.12833(15) 0.7076(3)
H4D H -0.2978 -0.1241 0.6583
H5D H -0.2612 -0.1541 0.7694
C8D C -0.16857(17) -0.04022(16) 0.8421(2)
C10D C 0.1039(2) -0.2480(2) 0.5778(3)
H6D H 0.1609 -0.2402 0.6197
H7D H 0.0955 -0.2983 0.5703
C11D C -0.1464(3) -0.2624(2) 0.7840(3)
H8D H -0.0985 -0.2896 0.8197
H9D H -0.1797 -0.2389 0.8359
H10D H -0.1862 -0.2929 0.7416
N1D N 0.03172(15) -0.21955(14) 0.6344(2)
N2D N -0.03341(15) -0.16638(13) 0.76299(18)
N3D N -0.10919(15) -0.21746(13) 0.5267(2)
N4D N -0.17771(14) -0.16733(11) 0.6578(2)
N5D N -0.07346(15) -0.05790(13) 0.85098(19)
N6D N -0.21441(15) -0.05813(12) 0.7412(2)
O1D O 0.11931(15) -0.15339(16) 0.75421(18)
O3D O -0.23919(15) -0.15391(13) 0.4858(2)
H11D H -0.2797 -0.0615 0.9273
H12D H -0.2106 -0.1240 0.9317
H13D H -0.1897 -0.0567 1.0013
C12D C -0.2167(4) -0.0738(3) 0.9344(5)
loop_
_geom_bond_atom_site_label_1
_geom_bond_atom_site_label_2
_geom_bond_site_symmetry_1
_geom_bond_site_symmetry_2
C1 N1 1_555 1_555
C2 H1 1_555 1_555
C3 C2 1_555 1_555
C4 N3 1_555 1_555
C5 H2 1_555 1_555
H3 C5 1_555 1_555
C6 H4 1_555 1_555
H5 C6 1_555 1_555
C7 N5 1_555 1_555
C8 N5 1_555 1_555
C9 N6 1_555 1_555
C10 H6 1_555 1_555
H7 C10 1_555 1_555
C11 C3 1_555 1_555
H8 C11 1_555 1_555
H9 C11 1_555 1_555
H10 C11 1_555 1_555
N1 C2 1_555 1_555
N2 C1 1_555 1_555
N3 C2 1_555 1_555
N4 C3 1_555 1_555
N5 C5 1_555 1_555
N6 C6 1_555 1_555
O1 C1 1_555 1_555
O2 C7 1_555 1_555
O3 C4 1_555 1_555
O4 C9 1_555 1_555
H11 C12 1_555 1_555
H12 C12 1_555 1_555
H13 C12 1_555 1_555
C12 C8 1_555 1_555
C1A N1A 1_555 1_555
C2A H1A 1_555 1_555
C3A C2A 1_555 1_555
C4A N3A 1_555 1_555
C5A H2A 1_555 1_555
H3A C5A 1_555 1_555
C6A H4A 1_555 1_555
H5A C6A 1_555 1_555
C7A N5A 1_555 1_555
C8A N5A 1_555 1_555
C9A N6A 1_555 1_555
C10A N3 1_555 1_555
H6A C10A 1_555 1_555
H7A C10A 1_555 1_555
C11A C3A 1_555 1_555
H8A C11A 1_555 1_555
H9A C11A 1_555 1_555
H10A C11A 1_555 1_555
N1A C2A 1_555 1_555
N2A C1A 1_555 1_555
N3A C10 1_555 1_555
N4A C3A 1_555 1_555
N5A C5A 1_555 1_555
N6A C6A 1_555 1_555
O1A C1A 1_555 1_555
O2A C7A 1_555 1_555
O3A C4A 1_555 1_555
O4A C9A 1_555 1_555
H11A C12A 1_555 1_555
H12A C12A 1_555 1_555
H13A C12A 1_555 1_555
C12A C8A 1_555 1_555
C1E N1E 1_555 1_555
C2E H1E 1_555 1_555
C3E C2E 1_555 1_555
C4E N3E 1_555 1_555
C5E H2E 1_555 1_555
H3E C5E 1_555 1_555
C6E H4E 1_555 1_555
H5E C6E 1_555 1_555
C8E C8 1_555 1_555
C10E H6E 1_555 1_555
H7E C10E 1_555 1_555
C11E C3E 1_555 1_555
H8E C11E 1_555 1_555
H9E C11E 1_555 1_555
H10E C11E 1_555 1_555
N1E C2E 1_555 1_555
N2E C1E 1_555 1_555
N3E C2E 1_555 1_555
N4E C3E 1_555 1_555
N5E C7 1_555 1_555
N6E C9 1_555 1_555
O1E C1E 1_555 1_555
O3E C4E 1_555 1_555
H11E C12E 1_555 1_555
H12E C12E 1_555 1_555
H13E C12E 1_555 1_555
C12E C8E 1_555 1_555
C1D N1D 1_555 1_555
C2D H1D 1_555 1_555
C3D C2D 1_555 1_555
C4D N3D 1_555 1_555
C5D H2D 1_555 1_555
H3D C5D 1_555 1_555
C6D H4D 1_555 1_555
H5D C6D 1_555 1_555
C8D C8A 1_555 1_555
C10D N3E 1_555 1_555
H6D C10D 1_555 1_555
H7D C10D 1_555 1_555
C11D C3D 1_555 1_555
H8D C11D 1_555 1_555
H9D C11D 1_555 1_555
H10D C11D 1_555 1_555
N1D C2D 1_555 1_555
N2D C1D 1_555 1_555
N3D C10E 1_555 1_555
N4D C3D 1_555 1_555
N5D C7A 1_555 1_555
N6D C9A 1_555 1_555
O1D C1D 1_555 1_555
O3D C4D 1_555 1_555
H11D C12D 1_555 1_555
H12D C12D 1_555 1_555
H13D C12D 1_555 1_555
C12D C8D 1_555 1_555
C3 N2 1_555 1_555
C4 N4 1_555 1_555
C5 N2 1_555 1_555
C6 N4 1_555 1_555
C8 N6 1_555 1_555
C10 N1 1_555 1_555
C2A N3A 1_555 1_555
C3A N2A 1_555 1_555
C4A N4A 1_555 1_555
C5A N2A 1_555 1_555
C6A N4A 1_555 1_555
C8A N6A 1_555 1_555
C10A N1A 1_555 1_555
C3E N2E 1_555 1_555
C4E N4E 1_555 1_555
C5E N2E 1_555 1_555
C5E N5E 1_555 1_555
C6E N4E 1_555 1_555
C6E N6E 1_555 1_555
C8E N5E 1_555 1_555
C8E N6E 1_555 1_555
C10E N1E 1_555 1_555
C2D N3D 1_555 1_555
C3D N2D 1_555 1_555
C4D N4D 1_555 1_555
C5D N2D 1_555 1_555
C5D N5D 1_555 1_555
C6D N4D 1_555 1_555
C6D N6D 1_555 1_555
C8D N5D 1_555 1_555
C8D N6D 1_555 1_555
C10D N1D 1_555 1_555

#END
