
#######################################################################
#
#                 Cambridge Crystallographic Data Centre
#                                CCDC 
#
#######################################################################
#
# If this CIF has been generated from an entry in the Cambridge 
# Structural Database, then it will include bibliographic, chemical, 
# crystal, experimental, refinement or atomic coordinate data resulting 
# from the CCDC's data processing and validation procedures.
#
#######################################################################

data_HOWNEN
_chemical_formula_moiety         'C26 H26 N1 O1 1+,Cl1 1-,H2 O1'
_chemical_name_systematic        
'[N(R),3S]-2-(Anthracen-9-ylmethyl)-1,2,3,4-tetrahydro-3-(hydroxymethyl)-2-methylisoquinolinium chloride monohydrate'
_symmetry_cell_setting           orthorhombic
_symmetry_space_group_name_H-M   'P 21 21 21'
_symmetry_Int_Tables_number      19
_space_group_name_Hall           'P 2ac 2ab'
loop_
_symmetry_equiv_pos_site_id
_symmetry_equiv_pos_as_xyz
1 x,y,z
2 1/2-x,-y,1/2+z
3 -x,1/2+y,1/2-z
4 1/2+x,1/2-y,-z
_cell_length_a                   10.6986(3)
_cell_length_b                   15.9588(5)
_cell_length_c                   25.0076(6)
_cell_angle_alpha                90
_cell_angle_beta                 90
_cell_angle_gamma                90
_cell_volume                     4269.72
_chemical_melting_point          '122-123 deg.C'
_cell_formula_units_Z            8
_exptl_crystal_recrystallization_method methanol
loop_
_atom_site_label
_atom_site_type_symbol
_atom_site_fract_x
_atom_site_fract_y
_atom_site_fract_z
Cl1 Cl 0.11745(8) 0.22334(6) 0.27936(4)
Cl2 Cl 0.36990(9) 0.76733(5) 0.28317(4)
O1 O -0.16960(18) 0.46394(13) 0.34147(8)
H1 H -0.1647 0.4131 0.3329
N1 N 0.05836(19) 0.58690(13) 0.36243(8)
C1 C 0.1935(2) 0.61201(17) 0.35749(11)
H2 H 0.2022 0.6505 0.3267
H3 H 0.2178 0.6434 0.3900
C2 C 0.2824(2) 0.54028(18) 0.35023(10)
C3 C 0.4099(3) 0.5543(2) 0.35880(11)
H4 H 0.4384 0.6083 0.3691
C4 C 0.4944(3) 0.4897(2) 0.35229(12)
H5 H 0.5811 0.4997 0.3576
C5 C 0.4539(3) 0.4110(2) 0.33814(12)
H6 H 0.5122 0.3665 0.3344
C6 C 0.3278(3) 0.39684(19) 0.32938(11)
H7 H 0.3001 0.3423 0.3197
C7 C 0.2407(2) 0.46150(17) 0.33461(10)
C8 C 0.1043(2) 0.44699(16) 0.32296(10)
H8 H 0.0967 0.4124 0.2903
H9 H 0.0669 0.4151 0.3529
C9 C 0.0318(2) 0.52693(17) 0.31520(10)
H10 H 0.0678 0.5544 0.2827
C10 C -0.1057(3) 0.51302(19) 0.30329(11)
H11 H -0.1474 0.5683 0.3008
H12 H -0.1132 0.4855 0.2679
C11 C -0.0174(3) 0.66549(18) 0.35746(11)
H13 H 0.0132 0.7072 0.3831
H14 H -0.1054 0.6530 0.3649
H15 H -0.0095 0.6877 0.3211
C12 C 0.0317(2) 0.54067(16) 0.41544(9)
H16 H -0.0468 0.5085 0.4109
H17 H 0.0996 0.4995 0.4212
C13 C 0.0196(2) 0.59265(15) 0.46550(9)
C14 C -0.0998(2) 0.61874(16) 0.48237(10)
C15 C -0.2125(3) 0.60221(18) 0.45351(11)
H18 H -0.2088 0.5709 0.4212
C16 C -0.3248(3) 0.6305(2) 0.47138(13)
H19 H -0.3976 0.6206 0.4506
C17 C -0.3356(3) 0.6741(2) 0.52006(13)
H20 H -0.4149 0.6932 0.5319
C18 C -0.2330(3) 0.68848(19) 0.54964(12)
H21 H -0.2413 0.7162 0.5831
C19 C -0.1122(3) 0.66314(16) 0.53211(10)
C20 C -0.0069(3) 0.67970(18) 0.56240(11)
H22 H -0.0157 0.7098 0.5949
C21 C 0.1115(3) 0.65363(17) 0.54667(10)
C22 C 0.2186(3) 0.6711(2) 0.57873(11)
H23 H 0.2095 0.7031 0.6105
C23 C 0.3327(3) 0.6428(2) 0.56447(12)
H24 H 0.4035 0.6556 0.5859
C24 C 0.3467(3) 0.5941(2) 0.51785(12)
H25 H 0.4270 0.5732 0.5086
C25 C 0.2474(3) 0.57670(18) 0.48595(11)
H26 H 0.2595 0.5433 0.4549
C26 C 0.1257(3) 0.60724(16) 0.49793(9)
O2 O 0.6916(2) 0.44604(15) 0.17041(9)
H27 H 0.6613 0.3980 0.1750
N2 N 0.4910(2) 0.59024(13) 0.15346(8)
C27 C 0.3645(3) 0.62970(17) 0.16242(10)
H28 H 0.3686 0.6658 0.1946
H29 H 0.3443 0.6660 0.1315
C28 C 0.2619(3) 0.56707(18) 0.16956(11)
C29 C 0.1382(3) 0.5914(2) 0.15999(12)
H30 H 0.1206 0.6474 0.1494
C30 C 0.0415(3) 0.5347(3) 0.16584(13)
H31 H -0.0422 0.5517 0.1593
C31 C 0.0665(3) 0.4539(3) 0.18110(12)
H32 H 0.0002 0.4146 0.1844
C32 C 0.1877(3) 0.4295(2) 0.19168(11)
H33 H 0.2040 0.3736 0.2027
C33 C 0.2868(3) 0.48574(18) 0.18635(10)
C34 C 0.4184(2) 0.45873(19) 0.19669(11)
H34 H 0.4453 0.4211 0.1674
H35 H 0.4206 0.4261 0.2303
C35 C 0.5105(2) 0.52987(18) 0.20098(10)
H36 H 0.4865 0.5620 0.2337
C36 C 0.6445(3) 0.5012(2) 0.20995(12)
H37 H 0.6991 0.5512 0.2115
H38 H 0.6495 0.4729 0.2451
C37 C 0.5855(3) 0.65905(18) 0.15472(11)
H39 H 0.5631 0.7019 0.1283
H40 H 0.6682 0.6362 0.1462
H41 H 0.5872 0.6842 0.1905
C38 C 0.4971(3) 0.54092(16) 0.10009(9)
H42 H 0.5633 0.4980 0.1035
H43 H 0.4168 0.5109 0.0956
C39 C 0.5215(3) 0.58990(16) 0.04945(9)
C40 C 0.6437(3) 0.59348(16) 0.02829(10)
C41 C 0.7511(3) 0.5585(2) 0.05434(12)
H44 H 0.7417 0.5330 0.0884
C42 C 0.8660(3) 0.5613(2) 0.03128(13)
H45 H 0.9359 0.5388 0.0498
C43 C 0.8827(3) 0.5970(3) -0.01979(14)
H46 H 0.9632 0.5968 -0.0359
C44 C 0.7857(3) 0.6311(2) -0.04577(12)
H47 H 0.7985 0.6555 -0.0800
C45 C 0.6640(3) 0.63136(18) -0.02297(10)
C46 C 0.5643(3) 0.66748(19) -0.05004(11)
H48 H 0.5794 0.6946 -0.0832
C47 C 0.4436(3) 0.66511(17) -0.03017(10)
C48 C 0.3408(4) 0.70029(19) -0.05940(12)
H49 H 0.3562 0.7285 -0.0922
C49 C 0.2235(4) 0.6939(2) -0.04111(13)
H50 H 0.1567 0.7183 -0.0607
C50 C 0.1990(3) 0.6513(2) 0.00695(13)
H51 H 0.1154 0.6465 0.0194
C51 C 0.2939(3) 0.61659(19) 0.03592(11)
H52 H 0.2746 0.5868 0.0677
C52 C 0.4206(3) 0.62381(17) 0.01989(10)
O3 O -0.1516(3) 0.30436(15) 0.30275(11)
O4 O 0.3423(4) 0.1922(3) 0.19468(16)
H53 H 0.4138(17) 0.209(3) 0.202(2)
H54 H 0.293(3) 0.225(3) 0.208(2)
loop_
_geom_bond_atom_site_label_1
_geom_bond_atom_site_label_2
_geom_bond_site_symmetry_1
_geom_bond_site_symmetry_2
O1 H1 1_555 1_555
N1 C1 1_555 1_555
C1 H2 1_555 1_555
H3 C1 1_555 1_555
C2 C1 1_555 1_555
C3 C2 1_555 1_555
H4 C3 1_555 1_555
C4 C3 1_555 1_555
H5 C4 1_555 1_555
C5 C4 1_555 1_555
H6 C5 1_555 1_555
C6 C5 1_555 1_555
H7 C6 1_555 1_555
C7 C2 1_555 1_555
C8 C7 1_555 1_555
H8 C8 1_555 1_555
H9 C8 1_555 1_555
C9 N1 1_555 1_555
H10 C9 1_555 1_555
C10 O1 1_555 1_555
H11 C10 1_555 1_555
H12 C10 1_555 1_555
C11 N1 1_555 1_555
H13 C11 1_555 1_555
H14 C11 1_555 1_555
H15 C11 1_555 1_555
C12 N1 1_555 1_555
H16 C12 1_555 1_555
H17 C12 1_555 1_555
C13 C12 1_555 1_555
C14 C13 1_555 1_555
C15 C14 1_555 1_555
H18 C15 1_555 1_555
C16 C15 1_555 1_555
H19 C16 1_555 1_555
C17 C16 1_555 1_555
H20 C17 1_555 1_555
C18 C17 1_555 1_555
H21 C18 1_555 1_555
C19 C14 1_555 1_555
C20 C19 1_555 1_555
H22 C20 1_555 1_555
C21 C20 1_555 1_555
C22 C21 1_555 1_555
H23 C22 1_555 1_555
C23 C22 1_555 1_555
H24 C23 1_555 1_555
C24 C23 1_555 1_555
H25 C24 1_555 1_555
C25 C24 1_555 1_555
H26 C25 1_555 1_555
C26 C13 1_555 1_555
O2 H27 1_555 1_555
N2 C27 1_555 1_555
C27 H28 1_555 1_555
H29 C27 1_555 1_555
C28 C27 1_555 1_555
C29 C28 1_555 1_555
H30 C29 1_555 1_555
C30 C29 1_555 1_555
H31 C30 1_555 1_555
C31 C30 1_555 1_555
H32 C31 1_555 1_555
C32 C31 1_555 1_555
H33 C32 1_555 1_555
C33 C28 1_555 1_555
C34 C33 1_555 1_555
H34 C34 1_555 1_555
H35 C34 1_555 1_555
C35 N2 1_555 1_555
H36 C35 1_555 1_555
C36 O2 1_555 1_555
H37 C36 1_555 1_555
H38 C36 1_555 1_555
C37 N2 1_555 1_555
H39 C37 1_555 1_555
H40 C37 1_555 1_555
H41 C37 1_555 1_555
C38 N2 1_555 1_555
H42 C38 1_555 1_555
H43 C38 1_555 1_555
C39 C38 1_555 1_555
C40 C39 1_555 1_555
C41 C40 1_555 1_555
H44 C41 1_555 1_555
C42 C41 1_555 1_555
H45 C42 1_555 1_555
C43 C42 1_555 1_555
H46 C43 1_555 1_555
C44 C43 1_555 1_555
H47 C44 1_555 1_555
C45 C40 1_555 1_555
C46 C45 1_555 1_555
H48 C46 1_555 1_555
C47 C46 1_555 1_555
C48 C47 1_555 1_555
H49 C48 1_555 1_555
C49 C48 1_555 1_555
H50 C49 1_555 1_555
C50 C49 1_555 1_555
H51 C50 1_555 1_555
C51 C50 1_555 1_555
H52 C51 1_555 1_555
C52 C39 1_555 1_555
O4 H53 1_555 1_555
H54 O4 1_555 1_555
C6 C7 1_555 1_555
C8 C9 1_555 1_555
C9 C10 1_555 1_555
C18 C19 1_555 1_555
C21 C26 1_555 1_555
C25 C26 1_555 1_555
C32 C33 1_555 1_555
C34 C35 1_555 1_555
C35 C36 1_555 1_555
C44 C45 1_555 1_555
C47 C52 1_555 1_555
C51 C52 1_555 1_555

#END
