
#######################################################################
#
#                 Cambridge Crystallographic Data Centre
#                                CCDC 
#
#######################################################################
#
# If this CIF has been generated from an entry in the Cambridge 
# Structural Database, then it will include bibliographic, chemical, 
# crystal, experimental, refinement or atomic coordinate data resulting 
# from the CCDC's data processing and validation procedures.
#
#######################################################################

data_HOWNAJ
_chemical_formula_moiety         'C17 H28 N1 O1 1+,Br1 1-'
_chemical_name_systematic        
'[N(S)]-N-Allyl-N-benzyl-N-[(1S)-1-(hydroxymethyl)-3-methylbutyl]-N-methylammonium bromide'
_symmetry_cell_setting           orthorhombic
_symmetry_space_group_name_H-M   'P 21 21 21'
_symmetry_Int_Tables_number      19
_space_group_name_Hall           'P 2ac 2ab'
loop_
_symmetry_equiv_pos_site_id
_symmetry_equiv_pos_as_xyz
1 x,y,z
2 1/2+x,1/2-y,-z
3 -x,1/2+y,1/2-z
4 1/2-x,-y,1/2+z
_cell_length_a                   8.083(4)
_cell_length_b                   11.977(5)
_cell_length_c                   18.029(12)
_cell_angle_alpha                90
_cell_angle_beta                 90
_cell_angle_gamma                90
_cell_volume                     1745.39
_exptl_crystal_colour            colorless
_exptl_crystal_description       block
_chemical_melting_point          '143-144 deg.C'
_cell_formula_units_Z            4
_exptl_crystal_recrystallization_method acetone
loop_
_atom_site_label
_atom_site_type_symbol
_atom_site_fract_x
_atom_site_fract_y
_atom_site_fract_z
Br1 Br 0.22512(14) 0.15591(8) 0.18671(6)
O1 O 0.5582(8) 0.1296(6) 0.7416(4)
H1 H 0.5986 0.1920 0.7462
N1 N 0.1918(9) 0.2164(5) 0.6943(3)
C1 C 0.0648(12) 0.1246(8) 0.6972(5)
H2 H 0.1186 0.0550 0.7078
H3 H 0.0092 0.1197 0.6503
H4 H -0.0143 0.1407 0.7355
C2 C 0.0959(11) 0.3266(7) 0.6774(4)
H5 H 0.0437 0.3187 0.6292
H6 H 0.0081 0.3340 0.7137
C3 C 0.1927(13) 0.4332(8) 0.6770(5)
H7 H 0.2677 0.4460 0.7153
C4 C 0.1767(16) 0.5092(9) 0.6255(6)
H8 H 0.1025 0.4982 0.5868
H9 H 0.2395 0.5742 0.6276
C5 C 0.2867(11) 0.2250(7) 0.7687(4)
H10 H 0.3525 0.2937 0.7673
C6 C 0.4098(12) 0.1247(8) 0.7799(5)
H11 H 0.4346 0.1190 0.8324
H12 H 0.3533 0.0566 0.7656
C7 C 0.1717(12) 0.2332(9) 0.8341(4)
H13 H 0.1385 0.1583 0.8483
H14 H 0.0729 0.2729 0.8188
C8 C 0.2431(17) 0.2915(8) 0.9023(4)
H15 H 0.3509 0.2578 0.9131
C9 C 0.269(2) 0.4156(9) 0.8923(6)
H16 H 0.3549 0.4282 0.8567
H17 H 0.2992 0.4484 0.9389
H18 H 0.1678 0.4490 0.8749
C10 C 0.1315(18) 0.2701(12) 0.9672(5)
H19 H 0.0241 0.3008 0.9572
H20 H 0.1770 0.3047 1.0107
H21 H 0.1221 0.1912 0.9752
C11 C 0.3178(13) 0.1949(8) 0.6327(5)
H22 H 0.3938 0.2575 0.6315
H23 H 0.3814 0.1292 0.6462
C12 C 0.2517(13) 0.1777(7) 0.5554(4)
C13 C 0.2511(14) 0.2631(9) 0.5047(5)
H24 H 0.2775 0.3350 0.5201
C14 C 0.2127(14) 0.2441(9) 0.4329(4)
H25 H 0.2137 0.3027 0.3990
C15 C 0.1717(14) 0.1368(9) 0.4098(5)
H26 H 0.1432 0.1238 0.3606
C16 C 0.1732(16) 0.0505(9) 0.4593(5)
H27 H 0.1471 -0.0214 0.4436
C17 C 0.2130(17) 0.0694(8) 0.5319(5)
H28 H 0.2144 0.0106 0.5656
loop_
_geom_bond_atom_site_label_1
_geom_bond_atom_site_label_2
_geom_bond_site_symmetry_1
_geom_bond_site_symmetry_2
O1 H1 1_555 1_555
N1 C1 1_555 1_555
C1 H2 1_555 1_555
H3 C1 1_555 1_555
H4 C1 1_555 1_555
C2 N1 1_555 1_555
H5 C2 1_555 1_555
H6 C2 1_555 1_555
C3 C2 1_555 1_555
H7 C3 1_555 1_555
C4 C3 1_555 1_555
H8 C4 1_555 1_555
H9 C4 1_555 1_555
C5 N1 1_555 1_555
H10 C5 1_555 1_555
C6 O1 1_555 1_555
H11 C6 1_555 1_555
H12 C6 1_555 1_555
C7 C5 1_555 1_555
H13 C7 1_555 1_555
H14 C7 1_555 1_555
C8 C7 1_555 1_555
H15 C8 1_555 1_555
C9 C8 1_555 1_555
H16 C9 1_555 1_555
H17 C9 1_555 1_555
H18 C9 1_555 1_555
C10 C8 1_555 1_555
H19 C10 1_555 1_555
H20 C10 1_555 1_555
H21 C10 1_555 1_555
C11 N1 1_555 1_555
H22 C11 1_555 1_555
H23 C11 1_555 1_555
C12 C11 1_555 1_555
C13 C12 1_555 1_555
H24 C13 1_555 1_555
C14 C13 1_555 1_555
H25 C14 1_555 1_555
C15 C14 1_555 1_555
H26 C15 1_555 1_555
C16 C15 1_555 1_555
H27 C16 1_555 1_555
C17 C12 1_555 1_555
H28 C17 1_555 1_555
C5 C6 1_555 1_555
C16 C17 1_555 1_555

#END
