
#######################################################################
#
#                 Cambridge Crystallographic Data Centre
#                                CCDC 
#
#######################################################################
#
# If this CIF has been generated from an entry in the Cambridge 
# Structural Database, then it will include bibliographic, chemical, 
# crystal, experimental, refinement or atomic coordinate data resulting 
# from the CCDC's data processing and validation procedures.
#
#######################################################################

data_HOWNOX
_chemical_formula_moiety         'C21 H28 N1 O1 1+,Br1 1-'
_chemical_name_systematic        
'[N(R)]-N-Allyl-N-benzyl-N-[(1S)-1-(hydroxymethyl)-3-phenylpropyl]-N-methylammonium bromide'
_symmetry_cell_setting           monoclinic
_symmetry_space_group_name_H-M   'P 21'
_symmetry_Int_Tables_number      4
_space_group_name_Hall           'P 2yb'
loop_
_symmetry_equiv_pos_site_id
_symmetry_equiv_pos_as_xyz
1 x,y,z
2 -x,1/2+y,-z
_cell_length_a                   9.128(4)
_cell_length_b                   12.148(3)
_cell_length_c                   9.773(2)
_cell_angle_alpha                90
_cell_angle_beta                 114.80(2)
_cell_angle_gamma                90
_cell_volume                     983.757
_exptl_crystal_colour            colorless
_exptl_crystal_description       block
_chemical_melting_point          '179-180 deg.C'
_cell_formula_units_Z            2
_exptl_crystal_recrystallization_method ethanol
loop_
_atom_site_label
_atom_site_type_symbol
_atom_site_fract_x
_atom_site_fract_y
_atom_site_fract_z
Br1 Br -0.35128(10) -0.42632(7) -0.33202(9)
O1 O -0.3865(8) -1.2451(5) -0.1137(7)
H1 H -0.3661 -1.2952 -0.1593
N1 N -0.5705(8) -1.0336(5) -0.1973(7)
C1 C -1.0651(12) -1.2315(8) -0.4690(10)
H2 H -1.0317 -1.2917 -0.4044
C2 C -1.2079(14) -1.1828(10) -0.4950(13)
H3 H -1.2702 -1.2089 -0.4472
C3 C -1.2614(13) -1.0938(11) -0.5930(14)
H4 H -1.3615 -1.0621 -0.6150
C4 C -1.1638(12) -1.0532(10) -0.6571(10)
H5 H -1.1962 -0.9916 -0.7193
C5 C -1.0191(12) -1.1029(8) -0.6297(9)
H6 H -0.9546 -1.0752 -0.6743
C6 C -0.9681(11) -1.1943(7) -0.5359(9)
C7 C -0.8045(11) -1.2459(8) -0.5017(9)
H7 H -0.8014 -1.2679 -0.5959
H8 H -0.7932 -1.3119 -0.4422
C8 C -0.6589(10) -1.1692(7) -0.4157(8)
H9 H -0.5609 -1.2027 -0.4122
H10 H -0.6744 -1.0996 -0.4687
C9 C -0.6415(10) -1.1486(6) -0.2547(8)
H11 H -0.7510 -1.1489 -0.2596
C10 C -0.5511(12) -1.2439(7) -0.1508(9)
H12 H -0.5667 -1.2392 -0.0588
H13 H -0.5977 -1.3129 -0.1998
C11 C -0.5244(12) -1.0278(7) -0.0303(8)
H14 H -0.5157 -0.9522 0.0006
H15 H -0.4226 -1.0639 0.0230
H16 H -0.6056 -1.0637 -0.0079
C12 C -0.6989(10) -0.9454(7) -0.2764(9)
H17 H -0.6580 -0.8747 -0.2300
H18 H -0.7157 -0.9409 -0.3810
C13 C -0.8595(13) -0.9659(10) -0.271(2)
H19 H -0.9251 -1.0241 -0.3238
C14 C -0.909(2) -0.8922(12) -0.1810(15)
H20 H -0.8418 -0.8343 -0.1288
H21 H -1.0070 -0.9027 -0.1755
C15 C -0.4282(10) -1.0091(7) -0.2331(10)
H22 H -0.4684 -0.9966 -0.3408
H23 H -0.3602 -1.0740 -0.2096
C16 C -0.3247(9) -0.9122(9) -0.1526(7)
C17 C -0.3616(12) -0.8100(8) -0.2132(10)
H24 H -0.4535 -0.7993 -0.3022
C18 C -0.2594(16) -0.7179(9) -0.1408(14)
H25 H -0.2836 -0.6479 -0.1829
C19 C -0.1254(16) -0.7351(13) -0.0082(15)
H26 H -0.0591 -0.6762 0.0409
C20 C -0.0889(14) -0.8403(12) 0.0525(11)
H27 H 0.0029 -0.8521 0.1413
C21 C -0.1873(9) -0.9260(14) -0.0178(8)
H28 H -0.1624 -0.9958 0.0249
loop_
_geom_bond_atom_site_label_1
_geom_bond_atom_site_label_2
_geom_bond_site_symmetry_1
_geom_bond_site_symmetry_2
O1 H1 1_555 1_555
N1 C9 1_555 1_555
C1 H2 1_555 1_555
C2 C1 1_555 1_555
H3 C2 1_555 1_555
C3 C2 1_555 1_555
H4 C3 1_555 1_555
C4 C3 1_555 1_555
H5 C4 1_555 1_555
C5 C4 1_555 1_555
H6 C5 1_555 1_555
C6 C1 1_555 1_555
C7 C6 1_555 1_555
H7 C7 1_555 1_555
H8 C7 1_555 1_555
C8 C7 1_555 1_555
H9 C8 1_555 1_555
H10 C8 1_555 1_555
C9 C8 1_555 1_555
H11 C9 1_555 1_555
C10 O1 1_555 1_555
H12 C10 1_555 1_555
H13 C10 1_555 1_555
C11 N1 1_555 1_555
H14 C11 1_555 1_555
H15 C11 1_555 1_555
H16 C11 1_555 1_555
C12 N1 1_555 1_555
H17 C12 1_555 1_555
H18 C12 1_555 1_555
C13 C12 1_555 1_555
H19 C13 1_555 1_555
C14 C13 1_555 1_555
H20 C14 1_555 1_555
H21 C14 1_555 1_555
C15 N1 1_555 1_555
H22 C15 1_555 1_555
H23 C15 1_555 1_555
C16 C15 1_555 1_555
C17 C16 1_555 1_555
H24 C17 1_555 1_555
C18 C17 1_555 1_555
H25 C18 1_555 1_555
C19 C18 1_555 1_555
H26 C19 1_555 1_555
C20 C19 1_555 1_555
H27 C20 1_555 1_555
C21 C16 1_555 1_555
H28 C21 1_555 1_555
C5 C6 1_555 1_555
C9 C10 1_555 1_555
C20 C21 1_555 1_555

#END
