
#######################################################################
#
#                 Cambridge Crystallographic Data Centre
#                                CCDC 
#
#######################################################################
#
# If this CIF has been generated from an entry in the Cambridge 
# Structural Database, then it will include bibliographic, chemical, 
# crystal, experimental, refinement or atomic coordinate data resulting 
# from the CCDC's data processing and validation procedures.
#
#######################################################################

data_HOWPEP
_chemical_name_common            
'5,12-Dibutyl-5,12-dihydroquino[2,3-b]acridine-7,14-dione monohydrate'
_chemical_formula_moiety         'C28 H28 N2 O2,H2 O1'
_chemical_name_systematic        'N,N-Di-n-butylquinacridone monohydrate'
_symmetry_cell_setting           triclinic
_symmetry_space_group_name_H-M   'P -1'
_symmetry_Int_Tables_number      2
_space_group_name_Hall           '-P 1'
loop_
_symmetry_equiv_pos_site_id
_symmetry_equiv_pos_as_xyz
1 x,y,z
2 -x,-y,-z
_cell_length_a                   4.9927(10)
_cell_length_b                   14.153(3)
_cell_length_c                   16.101(3)
_cell_angle_alpha                98.85(3)
_cell_angle_beta                 95.32(3)
_cell_angle_gamma                90.86(3)
_cell_volume                     1118.84
_exptl_crystal_colour            red
_exptl_crystal_description       block
_cell_formula_units_Z            2
_exptl_crystal_recrystallization_method 'chloroform/petroleum ether'
_exptl_crystal_preparation       luminescent
loop_
_atom_site_label
_atom_site_type_symbol
_atom_site_fract_x
_atom_site_fract_y
_atom_site_fract_z
C1 C 0.1980(4) 0.96168(17) 0.05436(14)
C2 C 0.0289(5) 1.03307(18) 0.08577(15)
H1 H 0.0461 1.0559 0.1434
C3 C 0.1651(4) 0.92847(17) -0.03386(14)
C4 C 0.3360(5) 0.85308(18) -0.07175(16)
C5 C 0.5278(5) 0.81479(18) -0.01331(16)
C6 C 0.7006(5) 0.7434(2) -0.0447(2)
H2 H 0.6906 0.7223 -0.1026
C7 C 0.8846(6) 0.7040(2) 0.0081(2)
H3 H 1.0011 0.6579 -0.0136
C8 C 0.8927(6) 0.7346(2) 0.0948(2)
H4 H 1.0131 0.7071 0.1310
C9 C 0.7275(5) 0.8043(2) 0.12812(19)
H5 H 0.7340 0.8224 0.1863
C10 C 0.5474(5) 0.84881(18) 0.07400(16)
C11 C 0.4546(5) 0.9687(2) 0.19563(15)
H6 H 0.4138 1.0360 0.2004
H7 H 0.6460 0.9645 0.2111
C12 C 0.3023(5) 0.9245(2) 0.25834(16)
H8 H 0.1168 0.9441 0.2538
H9 H 0.3024 0.8554 0.2442
C13 C 0.4250(6) 0.9540(2) 0.34870(18)
H10 H 0.6048 0.9293 0.3542
H11 H 0.4410 1.0233 0.3608
C14 C 0.2619(7) 0.9186(3) 0.4132(2)
H12 H 0.0917 0.9492 0.4132
H13 H 0.3582 0.9334 0.4682
H14 H 0.2325 0.8506 0.3990
N1 N 0.3937(4) 0.92407(15) 0.10660(12)
O1 O 0.3138(4) 0.82459(15) -0.14899(12)
C1A C -0.1980(4) 1.03832(17) -0.05436(14)
C2A C -0.0289(5) 0.96693(18) -0.08577(15)
H1A H -0.0461 0.9441 -0.1434
C3A C -0.1651(4) 1.07153(17) 0.03386(14)
C4A C -0.3360(5) 1.14692(18) 0.07175(16)
C5A C -0.5278(5) 1.18521(18) 0.01331(16)
C6A C -0.7006(5) 1.2566(2) 0.0447(2)
H2A H -0.6906 1.2777 0.1026
C7A C -0.8846(6) 1.2960(2) -0.0081(2)
H3A H -1.0011 1.3421 0.0136
C8A C -0.8927(6) 1.2654(2) -0.0948(2)
H4A H -1.0131 1.2929 -0.1310
C9A C -0.7275(5) 1.1957(2) -0.12812(19)
H5A H -0.7340 1.1776 -0.1863
C10A C -0.5474(5) 1.15119(18) -0.07400(16)
C11A C -0.4546(5) 1.0313(2) -0.19563(15)
H6A H -0.4138 0.9640 -0.2004
H7A H -0.6460 1.0355 -0.2111
C12A C -0.3023(5) 1.0755(2) -0.25834(16)
H8A H -0.1168 1.0559 -0.2538
H9A H -0.3024 1.1446 -0.2442
C13A C -0.4250(6) 1.0460(2) -0.34870(18)
H10A H -0.6048 1.0707 -0.3542
H11A H -0.4410 0.9767 -0.3608
C14A C -0.2619(7) 1.0814(3) -0.4132(2)
H12A H -0.0917 1.0508 -0.4132
H13A H -0.3582 1.0666 -0.4682
H14A H -0.2325 1.1494 -0.3990
N1A N -0.3937(4) 1.07593(15) -0.10660(12)
O1A O -0.3138(4) 1.17541(15) 0.14899(12)
C15 C 0.8390(5) 0.44225(18) 0.43257(15)
C16 C 1.0187(5) 0.51287(19) 0.41736(16)
H15 H 1.0321 0.5225 0.3620
C17 C 0.8217(5) 0.43081(18) 0.51755(15)
C18 C 0.6355(5) 0.35851(19) 0.53912(16)
C19 C 0.4620(5) 0.30703(19) 0.46842(17)
C20 C 0.2612(6) 0.2426(2) 0.48465(19)
H16 H 0.2425 0.2343 0.5400
C21 C 0.0924(6) 0.1919(2) 0.4197(2)
H17 H -0.0408 0.1503 0.4309
C22 C 0.1258(6) 0.2045(2) 0.33718(19)
H18 H 0.0123 0.1708 0.2931
C23 C 0.3207(6) 0.2649(2) 0.31904(18)
H19 H 0.3403 0.2702 0.2630
C24 C 0.4933(5) 0.31984(19) 0.38431(16)
C25 C 0.7254(5) 0.39116(19) 0.27886(15)
H20 H 0.6943 0.3286 0.2446
H21 H 0.9111 0.4106 0.2761
C26 C 0.5422(5) 0.4618(2) 0.24177(17)
H22 H 0.5437 0.5204 0.2820
H23 H 0.3595 0.4354 0.2330
C27 C 0.6237(6) 0.4857(2) 0.15837(19)
H24 H 0.7995 0.5177 0.1679
H25 H 0.6373 0.4268 0.1194
C28 C 0.4223(7) 0.5496(3) 0.1190(3)
H26 H 0.2488 0.5177 0.1084
H27 H 0.4806 0.5631 0.0667
H28 H 0.4107 0.6085 0.1569
N2 N 0.6854(4) 0.38335(16) 0.36676(13)
O2 O 0.6287(4) 0.34398(15) 0.61270(12)
C15A C 1.1610(5) 0.55775(18) 0.56743(15)
C16A C 0.9813(5) 0.48713(19) 0.58264(16)
H15A H 0.9679 0.4775 0.6380
C17A C 1.1783(5) 0.56919(18) 0.48245(15)
C18A C 1.3645(5) 0.64149(19) 0.46088(16)
C19A C 1.5380(5) 0.69297(19) 0.53158(17)
C20A C 1.7388(6) 0.7574(2) 0.51535(19)
H16A H 1.7575 0.7657 0.4600
C21A C 1.9076(6) 0.8081(2) 0.5803(2)
H17A H 2.0408 0.8497 0.5691
C22A C 1.8742(6) 0.7955(2) 0.66282(19)
H18A H 1.9877 0.8292 0.7069
C23A C 1.6793(6) 0.7351(2) 0.68096(18)
H19A H 1.6597 0.7298 0.7370
C24A C 1.5067(5) 0.68016(19) 0.61569(16)
C25A C 1.2746(5) 0.60884(19) 0.72114(15)
H20A H 1.3057 0.6714 0.7554
H21A H 1.0889 0.5894 0.7239
C26A C 1.4578(5) 0.5382(2) 0.75823(17)
H22A H 1.4563 0.4796 0.7180
H23A H 1.6405 0.5646 0.7670
C27A C 1.3763(6) 0.5143(2) 0.84163(19)
H24A H 1.2005 0.4823 0.8321
H25A H 1.3627 0.5732 0.8806
C28A C 1.5777(7) 0.4504(3) 0.8810(3)
H26A H 1.7512 0.4823 0.8916
H27A H 1.5194 0.4369 0.9333
H28A H 1.5893 0.3915 0.8431
N2A N 1.3146(4) 0.61665(16) 0.63324(13)
O2A O 1.3713(4) 0.65602(15) 0.38730(12)
O3 O 0.1492(12) 0.2928(5) 0.7033(3)
H29 H 0.232(14) 0.292(8) 0.658(3)
H30 H -0.016(6) 0.277(7) 0.681(5)
loop_
_geom_bond_atom_site_label_1
_geom_bond_atom_site_label_2
_geom_bond_site_symmetry_1
_geom_bond_site_symmetry_2
C1 C2 1_555 1_555
C2 H1 1_555 1_555
C3 C1 1_555 1_555
C4 C3 1_555 1_555
C5 C4 1_555 1_555
C6 C5 1_555 1_555
H2 C6 1_555 1_555
C7 C6 1_555 1_555
H3 C7 1_555 1_555
C8 C7 1_555 1_555
H4 C8 1_555 1_555
C9 C8 1_555 1_555
H5 C9 1_555 1_555
C10 C5 1_555 1_555
C11 H6 1_555 1_555
H7 C11 1_555 1_555
C12 C11 1_555 1_555
H8 C12 1_555 1_555
H9 C12 1_555 1_555
C13 C12 1_555 1_555
H10 C13 1_555 1_555
H11 C13 1_555 1_555
C14 C13 1_555 1_555
H12 C14 1_555 1_555
H13 C14 1_555 1_555
H14 C14 1_555 1_555
C15 C16 1_555 1_555
C16 H15 1_555 1_555
C17 C15 1_555 1_555
C18 C17 1_555 1_555
C19 C18 1_555 1_555
C20 C19 1_555 1_555
H16 C20 1_555 1_555
C21 C20 1_555 1_555
H17 C21 1_555 1_555
C22 C21 1_555 1_555
H18 C22 1_555 1_555
C23 C22 1_555 1_555
H19 C23 1_555 1_555
C24 C19 1_555 1_555
C25 H20 1_555 1_555
H21 C25 1_555 1_555
C26 C25 1_555 1_555
H22 C26 1_555 1_555
H23 C26 1_555 1_555
C27 C26 1_555 1_555
H24 C27 1_555 1_555
H25 C27 1_555 1_555
C28 C27 1_555 1_555
H26 C28 1_555 1_555
H27 C28 1_555 1_555
H28 C28 1_555 1_555
N1 C1 1_555 1_555
N2 C15 1_555 1_555
O1 C4 1_555 1_555
O2 C18 1_555 1_555
O3 H29 1_555 1_555
H30 O3 1_555 1_555
C1A C2A 1_555 1_555
C2A C3 1_555 1_555
H1A C2A 1_555 1_555
C3A C2 1_555 1_555
C4A C3A 1_555 1_555
C5A C4A 1_555 1_555
C6A C5A 1_555 1_555
H2A C6A 1_555 1_555
C7A C6A 1_555 1_555
H3A C7A 1_555 1_555
C8A C7A 1_555 1_555
H4A C8A 1_555 1_555
C9A C8A 1_555 1_555
H5A C9A 1_555 1_555
C10A C5A 1_555 1_555
C11A H6A 1_555 1_555
H7A C11A 1_555 1_555
C12A C11A 1_555 1_555
H8A C12A 1_555 1_555
H9A C12A 1_555 1_555
C13A C12A 1_555 1_555
H10A C13A 1_555 1_555
H11A C13A 1_555 1_555
C14A C13A 1_555 1_555
H12A C14A 1_555 1_555
H13A C14A 1_555 1_555
H14A C14A 1_555 1_555
C15A C16A 1_555 1_555
C16A C17 1_555 1_555
H15A C16A 1_555 1_555
C17A C16 1_555 1_555
C18A C17A 1_555 1_555
C19A C18A 1_555 1_555
C20A C19A 1_555 1_555
H16A C20A 1_555 1_555
C21A C20A 1_555 1_555
H17A C21A 1_555 1_555
C22A C21A 1_555 1_555
H18A C22A 1_555 1_555
C23A C22A 1_555 1_555
H19A C23A 1_555 1_555
C24A C19A 1_555 1_555
C25A H20A 1_555 1_555
H21A C25A 1_555 1_555
C26A C25A 1_555 1_555
H22A C26A 1_555 1_555
H23A C26A 1_555 1_555
C27A C26A 1_555 1_555
H24A C27A 1_555 1_555
H25A C27A 1_555 1_555
C28A C27A 1_555 1_555
H26A C28A 1_555 1_555
H27A C28A 1_555 1_555
H28A C28A 1_555 1_555
N1A C1A 1_555 1_555
N2A C15A 1_555 1_555
O1A C4A 1_555 1_555
O2A C18A 1_555 1_555
C9 C10 1_555 1_555
C10 N1 1_555 1_555
C11 N1 1_555 1_555
C23 C24 1_555 1_555
C24 N2 1_555 1_555
C25 N2 1_555 1_555
C1A C3A 1_555 1_555
C9A C10A 1_555 1_555
C10A N1A 1_555 1_555
C11A N1A 1_555 1_555
C15A C17A 1_555 1_555
C23A C24A 1_555 1_555
C24A N2A 1_555 1_555
C25A N2A 1_555 1_555

#END
