
#######################################################################
#
#                 Cambridge Crystallographic Data Centre
#                                CCDC 
#
#######################################################################
#
# If this CIF has been generated from an entry in the Cambridge 
# Structural Database, then it will include bibliographic, chemical, 
# crystal, experimental, refinement or atomic coordinate data resulting 
# from the CCDC's data processing and validation procedures.
#
#######################################################################

data_HOWWUN
_chemical_formula_moiety         'C9 H7 I1 O1'
_chemical_name_systematic        1-(iodoethynyl)-4-methoxybenzene
_symmetry_cell_setting           orthorhombic
_symmetry_space_group_name_H-M   'P 21 21 21'
_symmetry_Int_Tables_number      19
_space_group_name_Hall           'P 2ac 2ab'
loop_
_symmetry_equiv_pos_site_id
_symmetry_equiv_pos_as_xyz
1 x,y,z
2 1/2+x,1/2-y,-z
3 -x,1/2+y,1/2-z
4 1/2-x,-y,1/2+z
_cell_length_a                   4.1575(2)
_cell_length_b                   7.5150(4)
_cell_length_c                   27.5459(16)
_cell_angle_alpha                90
_cell_angle_beta                 90
_cell_angle_gamma                90
_cell_volume                     860.633
_exptl_crystal_colour            colorless
_exptl_crystal_description       plate
_cell_formula_units_Z            4
loop_
_atom_site_label
_atom_site_type_symbol
_atom_site_fract_x
_atom_site_fract_y
_atom_site_fract_z
I1 I 0.97833(4) 0.83260(2) 0.72851(2)
O1 O 0.5152(6) -0.0744(2) 0.54060(7)
C1 C 0.3394(8) -0.2228(4) 0.55956(12)
H1 H 0.4521 -0.2708 0.5879
H2 H 0.3222 -0.3152 0.5346
H3 H 0.1236 -0.1839 0.5691
C2 C 0.5766(7) 0.0632(4) 0.57148(10)
C3 C 0.7562(7) 0.2024(4) 0.55198(10)
H4 H 0.8293 0.1961 0.5194
C4 C 0.8283(7) 0.3497(4) 0.57993(10)
H5 H 0.9498 0.4445 0.5664
C5 C 0.7232(7) 0.3600(4) 0.62812(10)
C6 C 0.7993(7) 0.5112(4) 0.65806(11)
C7 C 0.8650(7) 0.6356(4) 0.68336(11)
C8 C 0.4734(8) 0.0705(3) 0.61916(9)
H6 H 0.3543 -0.0253 0.6327
C9 C 0.5451(8) 0.2193(4) 0.64715(10)
H7 H 0.4716 0.2251 0.6798
loop_
_geom_bond_atom_site_label_1
_geom_bond_atom_site_label_2
_geom_bond_site_symmetry_1
_geom_bond_site_symmetry_2
I1 C7 1_555 1_555
O1 C1 1_555 1_555
C1 H1 1_555 1_555
H2 C1 1_555 1_555
H3 C1 1_555 1_555
C2 O1 1_555 1_555
C3 C2 1_555 1_555
H4 C3 1_555 1_555
C4 C3 1_555 1_555
H5 C4 1_555 1_555
C5 C4 1_555 1_555
C6 C5 1_555 1_555
C7 C6 1_555 1_555
C8 C2 1_555 1_555
H6 C8 1_555 1_555
C9 C5 1_555 1_555
H7 C9 1_555 1_555
C8 C9 1_555 1_555

#END
