
#######################################################################
#
#                 Cambridge Crystallographic Data Centre
#                                CCDC 
#
#######################################################################
#
# If this CIF has been generated from an entry in the Cambridge 
# Structural Database, then it will include bibliographic, chemical, 
# crystal, experimental, refinement or atomic coordinate data resulting 
# from the CCDC's data processing and validation procedures.
#
#######################################################################

data_HOWXEY
_chemical_formula_moiety         'C12 H8 I2 O2'
_chemical_name_systematic        1,2-bis(iodoethynyl)-4,5-dimethoxybenzene
_symmetry_cell_setting           monoclinic
_symmetry_space_group_name_H-M   'P 21/c'
_symmetry_Int_Tables_number      14
_space_group_name_Hall           '-P 2ybc'
loop_
_symmetry_equiv_pos_site_id
_symmetry_equiv_pos_as_xyz
1 x,y,z
2 -x,1/2+y,1/2-z
3 -x,-y,-z
4 x,1/2-y,1/2+z
_cell_length_a                   11.3400(19)
_cell_length_b                   8.6615(14)
_cell_length_c                   14.276(2)
_cell_angle_alpha                90
_cell_angle_beta                 112.589(4)
_cell_angle_gamma                90
_cell_volume                     1294.64
_exptl_crystal_colour            'light brown'
_exptl_crystal_description       plate
_cell_formula_units_Z            4
loop_
_atom_site_label
_atom_site_type_symbol
_atom_site_fract_x
_atom_site_fract_y
_atom_site_fract_z
I1 I 0.51663(2) 0.13952(2) 0.28167(2)
I2 I 0.32728(2) 0.57583(2) 0.49140(2)
O1 O -0.26584(16) 0.4870(2) -0.01935(13)
O2 O -0.18441(16) 0.2985(2) -0.11854(13)
C1 C -0.3185(3) 0.5924(3) 0.0328(2)
H1 H -0.3256 0.5401 0.0913
H2 H -0.4033 0.6262 -0.0136
H3 H -0.2623 0.6823 0.0561
C2 C -0.1473(2) 0.4292(3) 0.03302(18)
C3 C -0.1019(2) 0.3248(3) -0.02156(18)
C4 C 0.0176(2) 0.2594(3) 0.02390(17)
H4 H 0.0467 0.1874 -0.0126
C5 C 0.0964(2) 0.2990(3) 0.12387(18)
C6 C 0.2249(2) 0.2405(3) 0.16947(19)
C7 C 0.3329(2) 0.1980(3) 0.20908(19)
C8 C 0.2039(2) 0.4947(3) 0.35986(19)
C9 C 0.1340(2) 0.4507(3) 0.27824(19)
C10 C 0.0520(2) 0.4027(3) 0.17802(18)
C11 C -0.1467(2) 0.1888(3) -0.17668(19)
H5 H -0.0668 0.2227 -0.1816
H6 H -0.2135 0.1809 -0.2449
H7 H -0.1339 0.0877 -0.1434
C12 C -0.0712(2) 0.4667(3) 0.13211(18)
H8 H -0.1021 0.5357 0.1692
loop_
_geom_bond_atom_site_label_1
_geom_bond_atom_site_label_2
_geom_bond_site_symmetry_1
_geom_bond_site_symmetry_2
I1 C7 1_555 1_555
I2 C8 1_555 1_555
O1 C1 1_555 1_555
O2 C3 1_555 1_555
C1 H1 1_555 1_555
H2 C1 1_555 1_555
H3 C1 1_555 1_555
C2 O1 1_555 1_555
C3 C2 1_555 1_555
C4 C3 1_555 1_555
H4 C4 1_555 1_555
C5 C4 1_555 1_555
C6 C5 1_555 1_555
C7 C6 1_555 1_555
C8 C9 1_555 1_555
C9 C10 1_555 1_555
C10 C5 1_555 1_555
C11 O2 1_555 1_555
H5 C11 1_555 1_555
H6 C11 1_555 1_555
H7 C11 1_555 1_555
C12 C2 1_555 1_555
H8 C12 1_555 1_555
C10 C12 1_555 1_555

#END
