
#######################################################################
#
#                 Cambridge Crystallographic Data Centre
#                                CCDC 
#
#######################################################################
#
# If this CIF has been generated from an entry in the Cambridge 
# Structural Database, then it will include bibliographic, chemical, 
# crystal, experimental, refinement or atomic coordinate data resulting 
# from the CCDC's data processing and validation procedures.
#
#######################################################################

data_HOWXAS
_chemical_formula_moiety         'C14 H15 F3 N2 O2'
_chemical_name_systematic        
cis-syn-3a-Trifluoroacetylamino-8a-methoxy-8a,8b-dihydrocyclopenta(b)indole
_symmetry_cell_setting           triclinic
_symmetry_space_group_name_H-M   'P -1'
_symmetry_Int_Tables_number      2
_space_group_name_Hall           '-P 1'
loop_
_symmetry_equiv_pos_site_id
_symmetry_equiv_pos_as_xyz
1 x,y,z
2 -x,-y,-z
_cell_length_a                   11.277(2)
_cell_length_b                   12.015(2)
_cell_length_c                   11.056(2)
_cell_angle_alpha                97.87(1)
_cell_angle_beta                 94.66(2)
_cell_angle_gamma                71.73(1)
_cell_volume                     1407.93
_exptl_crystal_colour            colorless
_exptl_crystal_description       prism
_chemical_melting_point          '140-141 deg.C'
_cell_formula_units_Z            4
loop_
_atom_site_label
_atom_site_type_symbol
_atom_site_fract_x
_atom_site_fract_y
_atom_site_fract_z
F1 F 0.1038(3) 0.2856(5) 1.2146(7)
F2 F 0.2830(8) 0.2594(6) 1.2992(4)
F3 F 0.2546(6) 0.1545(3) 1.1395(3)
O1 O 0.2763(3) 0.4337(2) 1.17604(18)
O2 O 0.50128(17) 0.25400(17) 0.86895(16)
N1 N 0.22407(17) 0.35167(16) 0.79140(16)
N2 N 0.22511(18) 0.33170(16) 1.00139(17)
C1 C 0.2353(2) 0.41121(19) 0.9161(2)
C2 C 0.1330(2) 0.5294(2) 0.9281(3)
C3 C 0.1873(3) 0.6078(2) 0.8672(3)
C4 C 0.3224(3) 0.5732(2) 0.9141(3)
C5 C 0.3615(2) 0.4410(2) 0.9235(2)
C6 C 0.4313(2) 0.3602(2) 0.8169(2)
C7 C 0.5157(3) 0.4012(3) 0.7471(3)
C8 C 0.5135(3) 0.3848(3) 0.6273(3)
C9 C 0.4264(3) 0.3331(3) 0.5552(3)
C10 C 0.3368(3) 0.3053(3) 0.6050(2)
C11 C 0.3245(2) 0.3352(2) 0.7357(2)
C12 C 0.2435(2) 0.3527(2) 1.1209(2)
C13 C 0.2207(3) 0.2632(2) 1.1957(2)
C14 C 0.5617(4) 0.1541(3) 0.7870(3)
H1 H 0.0577 0.5234 0.8868
H2 H 0.1177 0.5589 1.0114
H3 H 0.1812 0.5919 0.7810
H4 H 0.1457 0.6888 0.8915
H5 H 0.3734 0.5896 0.8587
H6 H 0.3302 0.6155 0.9921
H7 H 0.4060 0.4229 0.9990
H8 H 0.5718 0.4389 0.7903
H9 H 0.5713 0.4080 0.5860
H10 H 0.4329 0.3187 0.4690
H11 H 0.2841 0.2673 0.5568
H12 H 0.2039 0.2624 0.9698
H13 H 0.6208 0.1721 0.7436
H14 H 0.6032 0.0898 0.8326
H15 H 0.5012 0.1330 0.7320
F7 F -0.1867(3) 0.4415(4) 0.5383(6)
F8 F -0.0181(7) 0.3416(3) 0.4591(4)
F9 F -0.0205(4) 0.4506(3) 0.6275(3)
O3 O -0.1425(2) 0.2180(2) 0.5911(2)
O4 O 0.2758(3) 0.0362(2) 0.6173(2)
N3 N 0.15861(19) 0.12913(17) 0.85340(17)
N4 N 0.02416(17) 0.24312(16) 0.71001(17)
C15 C 0.0478(2) 0.1362(2) 0.7697(2)
C16 C -0.0622(3) 0.1377(3) 0.8453(3)
C17 C -0.0279(19) -0.0025(11) 0.8456(9)
C19 C 0.0165(4) -0.0586(3) 0.7343(6)
C20 C 0.0822(3) 0.0188(2) 0.6832(2)
C21 C 0.2243(3) -0.0242(2) 0.6943(2)
C22 C 0.2918(3) -0.1546(2) 0.6811(3)
C23 C 0.3849(3) -0.1993(3) 0.7586(3)
C24 C 0.4214(3) -0.1273(3) 0.8618(3)
C25 C 0.3600(3) -0.0142(3) 0.8907(3)
C26 C 0.2462(2) 0.0369(2) 0.8186(2)
C27 C -0.0671(2) 0.2709(2) 0.6247(2)
C28 C -0.0713(3) 0.3771(2) 0.5612(3)
C29 C 0.3144(6) -0.0133(4) 0.5082(5)
H16 H 0.0536 0.0318 0.6015
H17 H 0.2676 -0.2052 0.6166
H18 H 0.4294 -0.2813 0.7466
H19 H 0.4917 -0.1635 0.9121
H20 H 0.3889 0.0321 0.9563
H21 H 0.0745 0.2935 0.7323
H22 H 0.2454 -0.0260 0.4585
H23 H 0.3765 -0.0870 0.5147
H24 H 0.3476 0.0368 0.4718
F4? F 0.1746(16) 0.3094(8) 1.2971(10)
F5? F 0.3173(10) 0.1883(13) 1.2231(18)
F6? F 0.1441(15) 0.2127(13) 1.1396(7)
F10? F -0.147(3) 0.384(3) 0.468(2)
F11? F 0.0360(12) 0.381(3) 0.535(3)
F12? F -0.116(4) 0.4646(18) 0.624(3)
C18? C -0.1003(19) 0.0300(11) 0.8101(17)
loop_
_geom_bond_atom_site_label_1
_geom_bond_atom_site_label_2
_geom_bond_site_symmetry_1
_geom_bond_site_symmetry_2
F1 C13 1_555 1_555
F2 C13 1_555 1_555
F3 C13 1_555 1_555
F7 C28 1_555 1_555
F8 C28 1_555 1_555
F9 C28 1_555 1_555
O1 C12 1_555 1_555
O2 C6 1_555 1_555
O3 C27 1_555 1_555
O4 C21 1_555 1_555
N1 C1 1_555 1_555
N2 C1 1_555 1_555
N3 C15 1_555 1_555
N4 C15 1_555 1_555
C1 C2 1_555 1_555
C2 C3 1_555 1_555
C3 C4 1_555 1_555
C4 C5 1_555 1_555
C5 C1 1_555 1_555
C6 C5 1_555 1_555
C7 C6 1_555 1_555
C8 C7 1_555 1_555
C9 C8 1_555 1_555
C10 C9 1_555 1_555
C11 N1 1_555 1_555
C12 N2 1_555 1_555
C13 C12 1_555 1_555
C14 O2 1_555 1_555
C15 C16 1_555 1_555
C16 C17 1_555 1_555
C17 C19 1_555 1_555
C19 C20 1_555 1_555
C20 C15 1_555 1_555
C21 C20 1_555 1_555
C22 C21 1_555 1_555
C23 C22 1_555 1_555
C24 C23 1_555 1_555
C25 C24 1_555 1_555
C26 N3 1_555 1_555
C27 N4 1_555 1_555
C28 C27 1_555 1_555
C29 O4 1_555 1_555
H1 C2 1_555 1_555
H2 C2 1_555 1_555
H3 C3 1_555 1_555
H4 C3 1_555 1_555
H5 C4 1_555 1_555
H6 C4 1_555 1_555
H7 C5 1_555 1_555
H8 C7 1_555 1_555
H9 C8 1_555 1_555
H10 C9 1_555 1_555
H11 C10 1_555 1_555
H12 N2 1_555 1_555
H13 C14 1_555 1_555
H14 C14 1_555 1_555
H15 C14 1_555 1_555
H16 C20 1_555 1_555
H17 C22 1_555 1_555
H18 C23 1_555 1_555
H19 C24 1_555 1_555
H20 C25 1_555 1_555
H21 N4 1_555 1_555
H22 C29 1_555 1_555
H23 C29 1_555 1_555
H24 C29 1_555 1_555
C6 C11 1_555 1_555
C10 C11 1_555 1_555
C21 C26 1_555 1_555
C25 C26 1_555 1_555

#END
