
#######################################################################
#
#                 Cambridge Crystallographic Data Centre
#                                CCDC 
#
#######################################################################
#
# If this CIF has been generated from an entry in the Cambridge 
# Structural Database, then it will include bibliographic, chemical, 
# crystal, experimental, refinement or atomic coordinate data resulting 
# from the CCDC's data processing and validation procedures.
#
#######################################################################

data_HOWXIC
_chemical_formula_moiety         'C10 H7 I1 O1'
_chemical_name_systematic        1-(4-(iodoethynyl)phenyl)ethanone
_symmetry_cell_setting           monoclinic
_symmetry_space_group_name_H-M   'P 21/c'
_symmetry_Int_Tables_number      14
_space_group_name_Hall           '-P 2ybc'
loop_
_symmetry_equiv_pos_site_id
_symmetry_equiv_pos_as_xyz
1 x,y,z
2 -x,1/2+y,1/2-z
3 -x,-y,-z
4 x,1/2-y,1/2+z
_cell_length_a                   4.097(2)
_cell_length_b                   9.610(5)
_cell_length_c                   23.248(13)
_cell_angle_alpha                90
_cell_angle_beta                 91.288(10)
_cell_angle_gamma                90
_cell_volume                     915.093
_exptl_crystal_colour            colorless
_exptl_crystal_description       plate
_cell_formula_units_Z            4
loop_
_atom_site_label
_atom_site_type_symbol
_atom_site_fract_x
_atom_site_fract_y
_atom_site_fract_z
I1 I 0.56497(2) 0.30323(2) 0.63437(2)
O1 O 1.3813(3) 0.20420(12) 0.25348(5)
C1 C 1.1028(4) -0.01132(17) 0.25174(7)
H1 H 1.2125 -0.0900 0.2708
H2 H 1.1581 -0.0100 0.2110
H3 H 0.8659 -0.0211 0.2553
C2 C 1.2124(4) 0.12169(16) 0.27956(6)
C3 C 1.1153(4) 0.15197(16) 0.33951(6)
C4 C 0.9428(4) 0.05543(16) 0.37169(7)
H4 H 0.8875 -0.0323 0.3553
C5 C 0.8515(4) 0.08599(17) 0.42708(7)
H5 H 0.7366 0.0189 0.4488
C6 C 0.9279(4) 0.21548(17) 0.45119(7)
C7 C 0.8211(4) 0.24846(17) 0.50774(7)
C8 C 0.7225(4) 0.27319(17) 0.55460(7)
C9 C 1.1986(4) 0.28002(16) 0.36430(7)
H6 H 1.3208 0.3455 0.3430
C10 C 1.1050(4) 0.31204(17) 0.41923(7)
H7 H 1.1606 0.3998 0.4355
loop_
_geom_bond_atom_site_label_1
_geom_bond_atom_site_label_2
_geom_bond_site_symmetry_1
_geom_bond_site_symmetry_2
I1 C8 1_555 1_555
O1 C2 1_555 1_555
C1 H1 1_555 1_555
H2 C1 1_555 1_555
H3 C1 1_555 1_555
C2 C1 1_555 1_555
C3 C2 1_555 1_555
C4 C3 1_555 1_555
H4 C4 1_555 1_555
C5 C4 1_555 1_555
H5 C5 1_555 1_555
C6 C5 1_555 1_555
C7 C6 1_555 1_555
C8 C7 1_555 1_555
C9 C3 1_555 1_555
H6 C9 1_555 1_555
C10 C6 1_555 1_555
H7 C10 1_555 1_555
C9 C10 1_555 1_555

#END
