
#######################################################################
#
#                 Cambridge Crystallographic Data Centre
#                                CCDC 
#
#######################################################################
#
# If this CIF has been generated from an entry in the Cambridge 
# Structural Database, then it will include bibliographic, chemical, 
# crystal, experimental, refinement or atomic coordinate data resulting 
# from the CCDC's data processing and validation procedures.
#
#######################################################################

data_HOWXUO
_chemical_formula_moiety         'C46 H42 O5'
_chemical_name_systematic        
'dimethyl 2,10-bis(biphenyl-4-yl)-11-methoxyhexacyclo[7.6.2.0^1,7^.0^5,17^.0^6,8^.0^12,16^]heptadeca-3,12(16)-diene-4,8-dicarboxylate'
_symmetry_cell_setting           orthorhombic
_symmetry_space_group_name_H-M   'P 21 21 21'
_symmetry_Int_Tables_number      19
_space_group_name_Hall           'P 2ac 2ab'
loop_
_symmetry_equiv_pos_site_id
_symmetry_equiv_pos_as_xyz
1 x,y,z
2 1/2-x,-y,1/2+z
3 1/2+x,1/2-y,-z
4 -x,1/2+y,1/2-z
_cell_length_a                   6.4278(8)
_cell_length_b                   20.659(3)
_cell_length_c                   26.404(3)
_cell_angle_alpha                90
_cell_angle_beta                 90
_cell_angle_gamma                90
_cell_volume                     3506.24
_exptl_crystal_colour            colorless
_exptl_crystal_description       plate
_cell_formula_units_Z            4
loop_
_atom_site_label
_atom_site_type_symbol
_atom_site_fract_x
_atom_site_fract_y
_atom_site_fract_z
O1 O -0.1644(2) -0.89172(8) -0.30398(6)
O2 O -0.8535(3) -0.71208(8) -0.44676(5)
O3 O -1.0233(3) -0.79169(8) -0.40664(5)
O4 O -0.4803(3) -0.52539(7) -0.33346(6)
O5 O -0.1709(3) -0.88754(9) -0.21953(6)
C1 C -0.8749(3) -0.74623(11) -0.41038(8)
C2 C -0.2405(4) -0.87057(10) -0.25970(8)
C3 C -0.7652(3) -0.72321(10) -0.26409(7)
C4 C -0.7387(3) -0.74719(10) -0.16773(7)
C5 C -0.4899(3) -0.60005(10) -0.42442(8)
C6 C -0.5747(3) -0.62061(10) -0.28388(7)
C7 C -0.4600(3) -0.59320(10) -0.32889(8)
H1 H -0.3097 -0.6056 -0.3274
C8 C -0.5743(3) -0.68542(10) -0.28017(7)
C9 C -0.4184(3) -0.82513(10) -0.26662(8)
C10 C -0.5677(3) -0.62658(10) -0.37484(7)
H2 H -0.7197 -0.6165 -0.3727
C11 C -0.7390(3) -0.74312(10) -0.36530(7)
C12 C -0.8281(3) -0.76056(10) -0.31257(7)
H3 H -0.9754 -0.7761 -0.3129
C13 C -0.5387(4) -0.81520(10) -0.22636(8)
H4 H -0.4958 -0.8368 -0.1964
C14 C -0.6170(3) -0.56095(11) -0.45373(8)
H5 H -0.7557 -0.5529 -0.4430
C15 C -0.5465(4) -0.53349(11) -0.49816(8)
H6 H -0.6378 -0.5072 -0.5176
C16 C -0.7528(4) -0.69511(11) -0.06872(8)
C17 C -0.5433(3) -0.70091(10) -0.36890(7)
H7 H -0.4556 -0.7173 -0.3974
C18 C -0.4571(3) -0.79430(10) -0.31785(7)
H8 H -0.3567 -0.8128 -0.3429
C19 C -0.7326(4) -0.57777(11) -0.25941(8)
H9 H -0.8167 -0.5564 -0.2860
H10 H -0.6603 -0.5436 -0.2399
C20 C -0.3438(3) -0.54365(11) -0.51502(8)
C21 C -0.7319(3) -0.77493(11) -0.22121(7)
H11 H -0.8517 -0.8057 -0.2237
C22 C -0.9444(3) -0.67691(11) -0.25100(8)
H12 H -1.0179 -0.6651 -0.2826
H13 H -1.0448 -0.6999 -0.2290
C23 C -0.6772(3) -0.80487(11) -0.33708(8)
H14 H -0.7223 -0.8483 -0.3497
C24 C -0.2671(4) -0.51209(10) -0.56196(8)
C25 C -0.5680(4) -0.71619(12) -0.14694(8)
H15 H -0.4441 -0.7123 -0.1663
C26 C -0.2880(3) -0.61094(11) -0.44129(8)
H16 H -0.1980 -0.6378 -0.4220
C27 C -0.2161(4) -0.58349(11) -0.48562(8)
H17 H -0.0776 -0.5918 -0.4963
C28 C -0.8753(4) -0.61519(11) -0.22438(8)
H18 H -0.9981 -0.5885 -0.2157
H19 H -0.8010 -0.6261 -0.1927
C29 C -0.2899(4) -0.42488(12) -0.62293(8)
H20 H -0.3555 -0.3863 -0.6343
C30 C -0.5745(4) -0.69089(12) -0.09861(8)
H21 H -0.4545 -0.6701 -0.0854
C31 C -0.4388(3) -0.72021(10) -0.31842(7)
H22 H -0.2907 -0.7056 -0.3167
C32 C -0.743(2) -0.6641(11) -0.0174(4)
C33 C -0.8980(14) -0.6800(5) 0.0181(4)
H23 H -1.0037 -0.7101 0.0094
C34 C -0.8967(11) -0.6519(3) 0.0651(2)
H24 H -1.0027 -0.6630 0.0886
C35 C -0.7448(16) -0.6077(8) 0.0794(6)
H25 H -0.7427 -0.5898 0.1125
C36 C -0.5973(17) -0.5907(4) 0.0440(3)
H26 H -0.4948 -0.5594 0.0524
C37 C -0.5962(12) -0.6189(3) -0.0043(2)
H27 H -0.4928 -0.6066 -0.0281
C38 C -0.1268(4) -0.45060(13) -0.65012(9)
H28 H -0.0796 -0.4298 -0.6801
C39 C -0.9142(4) -0.75398(12) -0.13765(8)
H29 H -1.0312 -0.7769 -0.1504
C40 C -0.1020(4) -0.53707(12) -0.58991(8)
H30 H -0.0357 -0.5756 -0.5788
C41 C -0.3586(4) -0.45484(11) -0.57918(8)
H31 H -0.4699 -0.4362 -0.5605
C42 C -0.0325(4) -0.50678(13) -0.63357(9)
H32 H 0.0803 -0.5247 -0.6521
C43 C 0.0064(4) -0.93681(12) -0.30070(10)
H33 H -0.0366 -0.9747 -0.2810
H34 H 0.1249 -0.9159 -0.2841
H35 H 0.0469 -0.9505 -0.3348
C44 C -0.9215(4) -0.72794(12) -0.08931(8)
H36 H -1.0447 -0.7326 -0.0698
C45 C -1.1474(4) -0.80087(14) -0.45180(8)
H37 H -1.2568 -0.8328 -0.4450
H38 H -1.0584 -0.8164 -0.4794
H39 H -1.2110 -0.7596 -0.4616
C46 C -0.3208(8) -0.49128(19) -0.3095(2)
H40 H -0.1869 -0.5032 -0.3246
H41 H -0.3196 -0.5020 -0.2733
H42 H -0.3439 -0.4447 -0.3136
C47? C -0.787(5) -0.669(2) -0.0164(7)
C48? C -0.965(3) -0.6707(10) 0.0112(7)
H43? H -1.0834 -0.6918 -0.0028
C49? C -0.983(2) -0.6426(5) 0.0597(4)
H44? H -1.1111 -0.6434 0.0776
C50? C -0.812(3) -0.6144(15) 0.0802(11)
H45? H -0.8216 -0.5963 0.1131
C51? C -0.621(3) -0.6109(7) 0.0547(6)
H46? H -0.5032 -0.5911 0.0700
C52? C -0.610(2) -0.6369(5) 0.0071(4)
H47? H -0.4831 -0.6339 -0.0112
C53? C -0.297(2) -0.4887(5) -0.3430(6)
H48? H -0.2540 -0.4946 -0.3783
H49? H -0.1853 -0.5034 -0.3205
H50? H -0.3249 -0.4427 -0.3367
loop_
_geom_bond_atom_site_label_1
_geom_bond_atom_site_label_2
_geom_bond_site_symmetry_1
_geom_bond_site_symmetry_2
O1 C2 1_555 1_555
O2 C1 1_555 1_555
O3 C1 1_555 1_555
O4 C7 1_555 1_555
O5 C2 1_555 1_555
C1 C11 1_555 1_555
C2 C9 1_555 1_555
C3 C8 1_555 1_555
C4 C21 1_555 1_555
C5 C10 1_555 1_555
C6 C7 1_555 1_555
C7 H1 1_555 1_555
C8 C6 1_555 1_555
C9 C13 1_555 1_555
C10 C7 1_555 1_555
H2 C10 1_555 1_555
C11 C12 1_555 1_555
C12 C3 1_555 1_555
H3 C12 1_555 1_555
C13 H4 1_555 1_555
C14 C5 1_555 1_555
H5 C14 1_555 1_555
C15 C14 1_555 1_555
H6 C15 1_555 1_555
C16 C30 1_555 1_555
C17 C10 1_555 1_555
H7 C17 1_555 1_555
C18 C9 1_555 1_555
H8 C18 1_555 1_555
C19 C6 1_555 1_555
H9 C19 1_555 1_555
H10 C19 1_555 1_555
C20 C15 1_555 1_555
C21 C3 1_555 1_555
H11 C21 1_555 1_555
C22 C3 1_555 1_555
H12 C22 1_555 1_555
H13 C22 1_555 1_555
C23 C11 1_555 1_555
H14 C23 1_555 1_555
C24 C20 1_555 1_555
C25 C4 1_555 1_555
H15 C25 1_555 1_555
C26 C5 1_555 1_555
H16 C26 1_555 1_555
C27 C20 1_555 1_555
H17 C27 1_555 1_555
C28 C19 1_555 1_555
H18 C28 1_555 1_555
H19 C28 1_555 1_555
C29 H20 1_555 1_555
C30 C25 1_555 1_555
H21 C30 1_555 1_555
C31 C8 1_555 1_555
H22 C31 1_555 1_555
C32 C16 1_555 1_555
C33 C32 1_555 1_555
H23 C33 1_555 1_555
C34 C33 1_555 1_555
H24 C34 1_555 1_555
C35 C34 1_555 1_555
H25 C35 1_555 1_555
C36 C35 1_555 1_555
H26 C36 1_555 1_555
C37 C32 1_555 1_555
H27 C37 1_555 1_555
C38 C29 1_555 1_555
H28 C38 1_555 1_555
C39 C4 1_555 1_555
H29 C39 1_555 1_555
C40 C24 1_555 1_555
H30 C40 1_555 1_555
C41 C24 1_555 1_555
H31 C41 1_555 1_555
C42 C38 1_555 1_555
H32 C42 1_555 1_555
C43 O1 1_555 1_555
H33 C43 1_555 1_555
H34 C43 1_555 1_555
H35 C43 1_555 1_555
C44 C16 1_555 1_555
H36 C44 1_555 1_555
C45 O3 1_555 1_555
H37 C45 1_555 1_555
H38 C45 1_555 1_555
H39 C45 1_555 1_555
C46 O4 1_555 1_555
H40 C46 1_555 1_555
H41 C46 1_555 1_555
H42 C46 1_555 1_555
C11 C17 1_555 1_555
C12 C23 1_555 1_555
C13 C21 1_555 1_555
C17 C31 1_555 1_555
C18 C23 1_555 1_555
C18 C31 1_555 1_555
C22 C28 1_555 1_555
C26 C27 1_555 1_555
C29 C41 1_555 1_555
C36 C37 1_555 1_555
C39 C44 1_555 1_555
C40 C42 1_555 1_555

#END
