
#######################################################################
#
#                 Cambridge Crystallographic Data Centre
#                                CCDC 
#
#######################################################################
#
# If this CIF has been generated from an entry in the Cambridge 
# Structural Database, then it will include bibliographic, chemical, 
# crystal, experimental, refinement or atomic coordinate data resulting 
# from the CCDC's data processing and validation procedures.
#
#######################################################################

data_HOXCUU
_chemical_formula_moiety         'C20 H17 Cl2 N3 O4'
_chemical_name_systematic        
'methyl (2-(((4-chloro-1-(4-chlorophenyl)-1H-pyrazol-3-yl)oxy)methyl)phenyl)(methoxyimino)acetate'
_symmetry_cell_setting           monoclinic
_symmetry_space_group_name_H-M   'P 21/n'
_symmetry_Int_Tables_number      14
_space_group_name_Hall           '-P 2yn'
loop_
_symmetry_equiv_pos_site_id
_symmetry_equiv_pos_as_xyz
1 x,y,z
2 1/2-x,1/2+y,1/2-z
3 -x,-y,-z
4 1/2+x,1/2-y,1/2+z
_cell_length_a                   11.516(2)
_cell_length_b                   16.498(3)
_cell_length_c                   12.093(2)
_cell_angle_alpha                90
_cell_angle_beta                 118.28(3)
_cell_angle_gamma                90
_cell_volume                     2023.33
_cell_formula_units_Z            4
loop_
_atom_site_label
_atom_site_type_symbol
_atom_site_fract_x
_atom_site_fract_y
_atom_site_fract_z
Cl1 Cl 0.23970(12) 0.14193(7) 0.15819(11)
O1 O 0.4569(2) 0.08049(15) 0.0807(2)
N1 N 0.4387(3) -0.05459(17) 0.2882(3)
C1 C 0.5422(4) -0.1854(2) 0.3214(4)
H1 H 0.5519 -0.1777 0.2500
Cl2 Cl 0.64066(13) -0.35101(7) 0.58892(12)
O2 O 0.7605(3) 0.00924(17) 0.5178(3)
N2 N 0.4934(3) -0.03073(18) 0.2144(3)
C2 C 0.5890(4) -0.2552(2) 0.3916(4)
H2 H 0.6316 -0.2944 0.3688
N3 N 0.8687(3) -0.01645(17) 0.2980(3)
O3 O 0.8595(3) -0.09413(15) 0.4777(2)
C3 C 0.5721(4) -0.2663(2) 0.4951(4)
O4 O 0.8779(3) 0.02885(15) 0.2061(2)
C4 C 0.5071(4) -0.2100(3) 0.5298(4)
H3 H 0.4946 -0.2190 0.5993
C5 C 0.4607(4) -0.1398(2) 0.4598(3)
H4 H 0.4161 -0.1013 0.4816
C6 C 0.4811(3) -0.1273(2) 0.3575(3)
C7 C 0.3456(3) -0.0016(2) 0.2812(3)
H5 H 0.2953 -0.0056 0.3225
C8 C 0.3402(4) 0.0581(2) 0.2027(3)
C9 C 0.4325(3) 0.0372(2) 0.1633(3)
C10 C 0.5949(3) 0.0792(2) 0.1070(3)
H6 H 0.6008 0.0961 0.0330
H7 H 0.6297 0.0246 0.1286
C11 C 0.6735(3) 0.1353(2) 0.2135(3)
C12 C 0.6435(4) 0.2175(2) 0.1969(4)
H8 H 0.5791 0.2358 0.1191
C13 C 0.7059(4) 0.2721(2) 0.2917(5)
H9 H 0.6852 0.3268 0.2776
C14 C 0.7984(4) 0.2464(2) 0.4067(5)
H10 H 0.8396 0.2833 0.4720
C15 C 0.8312(4) 0.1646(2) 0.4262(4)
H11 H 0.8942 0.1469 0.5050
C16 C 0.7707(3) 0.1094(2) 0.3292(3)
C17 C 0.8160(3) 0.0238(2) 0.3534(3)
C18 C 0.9388(5) -0.0199(3) 0.1488(4)
H12 H 0.9448 0.0110 0.0844
H13 H 0.8865 -0.0675 0.1125
H14 H 1.0256 -0.0355 0.2114
C19 C 0.8083(3) -0.0209(2) 0.4581(3)
C20 C 0.8579(5) -0.1387(3) 0.5796(4)
H15 H 0.8970 -0.1911 0.5861
H16 H 0.7685 -0.1453 0.5637
H17 H 0.9071 -0.1096 0.6567
loop_
_geom_bond_atom_site_label_1
_geom_bond_atom_site_label_2
_geom_bond_site_symmetry_1
_geom_bond_site_symmetry_2
Cl1 C8 1_555 1_555
O1 C9 1_555 1_555
N1 N2 1_555 1_555
C1 H1 1_555 1_555
Cl2 C3 1_555 1_555
O2 C19 1_555 1_555
N2 C9 1_555 1_555
C2 C1 1_555 1_555
H2 C2 1_555 1_555
N3 O4 1_555 1_555
O3 C19 1_555 1_555
C3 C2 1_555 1_555
O4 C18 1_555 1_555
C4 C3 1_555 1_555
H3 C4 1_555 1_555
C5 C4 1_555 1_555
H4 C5 1_555 1_555
C6 N1 1_555 1_555
C7 N1 1_555 1_555
H5 C7 1_555 1_555
C8 C7 1_555 1_555
C9 C8 1_555 1_555
C10 O1 1_555 1_555
H6 C10 1_555 1_555
H7 C10 1_555 1_555
C11 C10 1_555 1_555
C12 C11 1_555 1_555
H8 C12 1_555 1_555
C13 C12 1_555 1_555
H9 C13 1_555 1_555
C14 C13 1_555 1_555
H10 C14 1_555 1_555
C15 C14 1_555 1_555
H11 C15 1_555 1_555
C16 C11 1_555 1_555
C17 N3 1_555 1_555
C18 H12 1_555 1_555
H13 C18 1_555 1_555
H14 C18 1_555 1_555
C19 C17 1_555 1_555
C20 O3 1_555 1_555
H15 C20 1_555 1_555
H16 C20 1_555 1_555
H17 C20 1_555 1_555
C1 C6 1_555 1_555
C5 C6 1_555 1_555
C15 C16 1_555 1_555
C16 C17 1_555 1_555

#END
