
#######################################################################
#
#                 Cambridge Crystallographic Data Centre
#                                CCDC 
#
#######################################################################
#
# If this CIF has been generated from an entry in the Cambridge 
# Structural Database, then it will include bibliographic, chemical, 
# crystal, experimental, refinement or atomic coordinate data resulting 
# from the CCDC's data processing and validation procedures.
#
#######################################################################

data_HOXDIJ
_chemical_formula_moiety         'C25 H30 N2 O6'
_chemical_name_systematic        
'methyl 8-(3-t-butoxy-3-oxopropyl)-1-(2-nitrophenyl)-8-vinyl-5,6,7,8-tetrahydroindolizine-2-carboxylate'
_symmetry_cell_setting           triclinic
_symmetry_space_group_name_H-M   'P -1'
_symmetry_Int_Tables_number      2
_space_group_name_Hall           '-P 1'
loop_
_symmetry_equiv_pos_site_id
_symmetry_equiv_pos_as_xyz
1 x,y,z
2 -x,-y,-z
_cell_length_a                   9.7500(19)
_cell_length_b                   9.802(2)
_cell_length_c                   12.753(3)
_cell_angle_alpha                90.65(3)
_cell_angle_beta                 104.03(3)
_cell_angle_gamma                92.90(3)
_cell_volume                     1180.57
_cell_formula_units_Z            2
loop_
_atom_site_label
_atom_site_type_symbol
_atom_site_fract_x
_atom_site_fract_y
_atom_site_fract_z
O1 O 0.2941(2) 0.9343(2) 0.19242(18)
N1 N -0.1375(2) 0.4053(2) 0.17266(19)
C1 C 0.5132(4) 0.8916(4) 0.1408(4)
H1 H 0.4716 0.8971 0.0647
H2 H 0.5018 0.7994 0.1631
H3 H 0.6122 0.9185 0.1554
N2 N 0.3602(3) 0.4933(3) 0.2604(2)
O2 O 0.2271(3) 0.9511(3) 0.0109(2)
C2 C 0.4453(4) 1.1286(4) 0.1644(4)
H4 H 0.4001 1.1846 0.2069
H5 H 0.3961 1.1318 0.0896
H6 H 0.5418 1.1619 0.1732
C3 C 0.5060(4) 0.9746(4) 0.3227(3)
H7 H 0.4607 1.0359 0.3612
H8 H 0.6055 0.9991 0.3383
H9 H 0.4918 0.8827 0.3449
O3 O 0.4814(3) 0.5038(4) 0.2534(3)
O4 O 0.2777(3) 0.4293(3) 0.1944(2)
C4 C 0.4420(3) 0.9840(3) 0.2012(3)
O5 O 0.0579(2) 0.0979(2) 0.35952(19)
C5 C 0.2009(3) 0.9217(3) 0.0951(3)
O6 O 0.2423(2) 0.2468(2) 0.41461(19)
C6 C 0.0595(3) 0.8657(3) 0.1088(3)
H10 H -0.0065 0.8560 0.0385
H11 H 0.0227 0.9301 0.1520
C7 C 0.0697(3) 0.7278(3) 0.1632(2)
H12 H 0.1329 0.7399 0.2346
H13 H 0.1129 0.6664 0.1220
C8 C -0.0708(3) 0.6581(3) 0.1754(2)
C9 C -0.1309(3) 0.7392(3) 0.2537(3)
H14 H -0.1266 0.8336 0.2470
C10 C -0.1880(3) 0.6926(4) 0.3293(3)
H15 H -0.1952 0.5990 0.3397
H16 H -0.2216 0.7528 0.3728
C11 C -0.1779(3) 0.6522(3) 0.0654(3)
H17 H -0.2089 0.7433 0.0471
H18 H -0.1325 0.6208 0.0105
C12 C -0.3067(3) 0.5566(3) 0.0655(3)
H19 H -0.3499 0.5848 0.1227
H20 H -0.3762 0.5620 -0.0029
C13 C -0.2641(3) 0.4143(3) 0.0822(3)
H21 H -0.3417 0.3583 0.0972
H22 H -0.2442 0.3785 0.0166
C14 C -0.0432(3) 0.5151(3) 0.2155(2)
C15 C -0.0903(3) 0.2893(3) 0.2194(2)
H23 H -0.1349 0.2029 0.2028
C16 C 0.0346(3) 0.3181(3) 0.2960(2)
C17 C 0.0641(3) 0.4626(3) 0.2915(2)
C18 C 0.1235(3) 0.2226(3) 0.3616(3)
C19 C 0.1384(4) -0.0049(3) 0.4209(3)
H24 H 0.0816 -0.0890 0.4138
H25 H 0.1666 0.0237 0.4957
H26 H 0.2210 -0.0185 0.3945
C20 C 0.1855(3) 0.5395(3) 0.3673(2)
C21 C 0.3227(3) 0.5542(3) 0.3538(2)
C22 C 0.4311(3) 0.6250(3) 0.4277(3)
H27 H 0.5222 0.6315 0.4170
C23 C 0.4025(4) 0.6851(3) 0.5166(3)
H28 H 0.4741 0.7342 0.5662
C24 C 0.2683(4) 0.6734(3) 0.5328(3)
H29 H 0.2500 0.7127 0.5943
C25 C 0.1609(3) 0.6037(3) 0.4586(2)
H30 H 0.0700 0.5993 0.4696
loop_
_geom_bond_atom_site_label_1
_geom_bond_atom_site_label_2
_geom_bond_site_symmetry_1
_geom_bond_site_symmetry_2
O1 C4 1_555 1_555
N1 C13 1_555 1_555
C1 H1 1_555 1_555
H2 C1 1_555 1_555
H3 C1 1_555 1_555
N2 O3 1_555 1_555
O2 C5 1_555 1_555
C2 H4 1_555 1_555
H5 C2 1_555 1_555
H6 C2 1_555 1_555
C3 H7 1_555 1_555
H8 C3 1_555 1_555
H9 C3 1_555 1_555
O4 N2 1_555 1_555
C4 C1 1_555 1_555
O5 C18 1_555 1_555
C5 O1 1_555 1_555
O6 C18 1_555 1_555
C6 C5 1_555 1_555
H10 C6 1_555 1_555
H11 C6 1_555 1_555
C7 C6 1_555 1_555
H12 C7 1_555 1_555
H13 C7 1_555 1_555
C8 C7 1_555 1_555
C9 C8 1_555 1_555
H14 C9 1_555 1_555
C10 C9 1_555 1_555
H15 C10 1_555 1_555
H16 C10 1_555 1_555
C11 C8 1_555 1_555
H17 C11 1_555 1_555
H18 C11 1_555 1_555
C12 C11 1_555 1_555
H19 C12 1_555 1_555
H20 C12 1_555 1_555
C13 C12 1_555 1_555
H21 C13 1_555 1_555
H22 C13 1_555 1_555
C14 N1 1_555 1_555
C15 N1 1_555 1_555
H23 C15 1_555 1_555
C16 C15 1_555 1_555
C17 C14 1_555 1_555
C18 C16 1_555 1_555
C19 O5 1_555 1_555
H24 C19 1_555 1_555
H25 C19 1_555 1_555
H26 C19 1_555 1_555
C20 C17 1_555 1_555
C21 N2 1_555 1_555
C22 C21 1_555 1_555
H27 C22 1_555 1_555
C23 C22 1_555 1_555
H28 C23 1_555 1_555
C24 C23 1_555 1_555
H29 C24 1_555 1_555
C25 C20 1_555 1_555
H30 C25 1_555 1_555
C2 C4 1_555 1_555
C3 C4 1_555 1_555
C8 C14 1_555 1_555
C16 C17 1_555 1_555
C20 C21 1_555 1_555
C24 C25 1_555 1_555

#END
