
#######################################################################
#
#                 Cambridge Crystallographic Data Centre
#                                CCDC 
#
#######################################################################
#
# If this CIF has been generated from an entry in the Cambridge 
# Structural Database, then it will include bibliographic, chemical, 
# crystal, experimental, refinement or atomic coordinate data resulting 
# from the CCDC's data processing and validation procedures.
#
#######################################################################

data_HOXDUV
_chemical_formula_moiety         'C29 H25 N1 O1'
_chemical_name_systematic        
3-(10-methyl-9,10-dihydroacridin-9-yl)-1,3-diphenylpropan-1-one
_symmetry_cell_setting           monoclinic
_symmetry_space_group_name_H-M   'C 2/c'
_symmetry_Int_Tables_number      15
_space_group_name_Hall           '-C 2yn'
loop_
_symmetry_equiv_pos_site_id
_symmetry_equiv_pos_as_xyz
1 x,y,z
2 -x,y,1/2-z
3 1/2+x,1/2+y,z
4 1/2-x,1/2+y,1/2-z
5 -x,-y,-z
6 x,-y,1/2+z
7 1/2-x,1/2-y,-z
8 1/2+x,1/2-y,1/2+z
_cell_length_a                   44.695(6)
_cell_length_b                   5.6461(7)
_cell_length_c                   18.771(3)
_cell_angle_alpha                90
_cell_angle_beta                 114.034(16)
_cell_angle_gamma                90
_cell_volume                     4326.24
_exptl_crystal_colour            colorless
_exptl_crystal_description       Plate
_cell_formula_units_Z            8
loop_
_atom_site_label
_atom_site_type_symbol
_atom_site_fract_x
_atom_site_fract_y
_atom_site_fract_z
C1 C 0.10754(6) 0.6522(5) 0.23733(15)
C2 C 0.12070(6) 0.6249(5) 0.17501(15)
H1 H 0.1294 0.4637 0.1791
C3 C 0.15002(6) 0.8005(5) 0.19144(15)
H2 H 0.1429 0.9609 0.1971
C4 C 0.19910(6) 0.5499(5) 0.26359(15)
C5 C 0.18370(6) 0.6237(5) 0.12674(16)
C6 C 0.16160(6) 0.7999(5) 0.12662(15)
C7 C 0.17816(6) 0.7309(5) 0.26653(15)
C8 C 0.04268(6) 0.4678(5) -0.01370(16)
C9 C 0.07152(6) 0.4469(6) 0.06272(16)
C10 C 0.09398(6) 0.6537(5) 0.09281(15)
H3 H 0.0810 0.7918 0.0922
H4 H 0.1044 0.6844 0.0573
C11 C 0.19278(7) 0.6120(6) 0.06378(18)
H5 H 0.2073 0.4955 0.0626
C12 C 0.15016(7) 0.9619(6) 0.06556(16)
H6 H 0.1360 1.0815 0.0665
C13 C 0.09043(7) 0.8548(5) 0.24078(17)
H7 H 0.0864 0.9726 0.2034
C14 C 0.21766(7) 0.2747(6) 0.1883(2)
H8 H 0.2395 0.3341 0.2030
H9 H 0.2098 0.2104 0.1365
H10 H 0.2178 0.1529 0.2242
C15 C 0.22269(7) 0.4597(6) 0.33357(17)
H11 H 0.2362 0.3359 0.3325
C16 C 0.15922(8) 0.9498(6) 0.00375(17)
H12 H 0.1513 1.0588 -0.0368
C17 C 0.01992(7) 0.2853(6) -0.03806(18)
H13 H 0.0227 0.1541 -0.0061
C18 C 0.03811(7) 0.6614(6) -0.06247(17)
H14 H 0.0531 0.7857 -0.0472
C19 C 0.20648(8) 0.7398(7) 0.40672(18)
H15 H 0.2093 0.8061 0.4544
C20 C 0.11340(7) 0.4828(6) 0.29465(17)
H16 H 0.1250 0.3466 0.2941
C21 C 0.07928(8) 0.8832(6) 0.2992(2)
H17 H 0.0678 1.0193 0.3004
C22 C 0.08501(9) 0.7135(7) 0.3548(2)
H18 H 0.0774 0.7330 0.3937
C23 C 0.10217(9) 0.5136(7) 0.35305(19)
H19 H 0.1063 0.3979 0.3912
C24 C 0.18276(7) 0.8271(6) 0.33781(17)
H20 H 0.1697 0.9530 0.3397
C25 C 0.22575(8) 0.5545(7) 0.40361(18)
H21 H 0.2412 0.4918 0.4498
C26 C 0.18031(8) 0.7727(7) 0.00341(19)
H22 H 0.1863 0.7611 -0.0385
C27 C -0.00691(8) 0.2958(7) -0.1095(2)
H23 H -0.0220 0.1725 -0.1253
C28 C -0.01089(8) 0.4889(8) -0.1564(2)
H24 H -0.0289 0.4969 -0.2040
C29 C 0.01132(9) 0.6709(7) -0.13418(19)
H25 H 0.0085 0.8003 -0.1669
N1 N 0.19620(5) 0.4676(4) 0.19034(13)
O1 O 0.07672(6) 0.2608(4) 0.09832(14)
loop_
_geom_bond_atom_site_label_1
_geom_bond_atom_site_label_2
_geom_bond_site_symmetry_1
_geom_bond_site_symmetry_2
C1 C2 1_555 1_555
C2 H1 1_555 1_555
C3 C2 1_555 1_555
H2 C3 1_555 1_555
C4 C7 1_555 1_555
C5 C6 1_555 1_555
C6 C3 1_555 1_555
C7 C3 1_555 1_555
C8 C9 1_555 1_555
C9 C10 1_555 1_555
C10 C2 1_555 1_555
H3 C10 1_555 1_555
H4 C10 1_555 1_555
C11 C5 1_555 1_555
H5 C11 1_555 1_555
C12 C6 1_555 1_555
H6 C12 1_555 1_555
C13 C1 1_555 1_555
H7 C13 1_555 1_555
C14 H8 1_555 1_555
H9 C14 1_555 1_555
H10 C14 1_555 1_555
C15 C4 1_555 1_555
H11 C15 1_555 1_555
C16 C12 1_555 1_555
H12 C16 1_555 1_555
C17 C8 1_555 1_555
H13 C17 1_555 1_555
C18 C8 1_555 1_555
H14 C18 1_555 1_555
C19 H15 1_555 1_555
C20 C1 1_555 1_555
H16 C20 1_555 1_555
C21 C13 1_555 1_555
H17 C21 1_555 1_555
C22 C21 1_555 1_555
H18 C22 1_555 1_555
C23 C20 1_555 1_555
H19 C23 1_555 1_555
C24 C7 1_555 1_555
H20 C24 1_555 1_555
C25 C15 1_555 1_555
H21 C25 1_555 1_555
C26 C11 1_555 1_555
H22 C26 1_555 1_555
C27 C17 1_555 1_555
H23 C27 1_555 1_555
C28 C27 1_555 1_555
H24 C28 1_555 1_555
C29 C18 1_555 1_555
H25 C29 1_555 1_555
N1 C4 1_555 1_555
O1 C9 1_555 1_555
C5 N1 1_555 1_555
C14 N1 1_555 1_555
C16 C26 1_555 1_555
C19 C24 1_555 1_555
C19 C25 1_555 1_555
C22 C23 1_555 1_555
C28 C29 1_555 1_555

#END
