
#######################################################################
#
#                 Cambridge Crystallographic Data Centre
#                                CCDC 
#
#######################################################################
#
# If this CIF has been generated from an entry in the Cambridge 
# Structural Database, then it will include bibliographic, chemical, 
# crystal, experimental, refinement or atomic coordinate data resulting 
# from the CCDC's data processing and validation procedures.
#
#######################################################################

data_HOXFEH
_chemical_formula_moiety         'C19 H19 N1 O1'
_chemical_name_systematic        
10-methyl-4'H,10H-spiro[acridine-9,1'-cyclohexan]-4'-one
_symmetry_cell_setting           triclinic
_symmetry_space_group_name_H-M   'P -1'
_symmetry_Int_Tables_number      2
_space_group_name_Hall           '-P 1'
loop_
_symmetry_equiv_pos_site_id
_symmetry_equiv_pos_as_xyz
1 x,y,z
2 -x,-y,-z
_cell_length_a                   8.6574(8)
_cell_length_b                   9.3517(8)
_cell_length_c                   10.6769(9)
_cell_angle_alpha                103.888(7)
_cell_angle_beta                 108.883(8)
_cell_angle_gamma                108.807(8)
_cell_volume                     714.717
_exptl_crystal_colour            colorless
_exptl_crystal_description       Plate
_cell_formula_units_Z            2
loop_
_atom_site_label
_atom_site_type_symbol
_atom_site_fract_x
_atom_site_fract_y
_atom_site_fract_z
C1 C 0.5258(2) 0.70742(19) 0.25511(16)
C2 C 0.6150(2) 0.8224(2) 0.41556(16)
H1 H 0.5274 0.7951 0.4543
H2 H 0.7164 0.8039 0.4680
C3 C 0.0230(2) 0.7405(2) 0.06261(18)
H3 H -0.0825 0.7539 0.0280
C4 C 0.3476(2) 0.71356(18) 0.17623(15)
C5 C 0.6678(2) 0.7577(2) 0.19757(18)
H4 H 0.7598 0.7223 0.2371
H5 H 0.6090 0.6991 0.0944
C6 C 0.4715(2) 0.53211(19) 0.24869(16)
C7 C 0.3270(2) 0.46777(19) 0.28299(16)
C8 C 0.2066(2) 0.64677(19) 0.21327(16)
C9 C 0.3162(2) 0.7834(2) 0.07517(17)
H6 H 0.4048 0.8216 0.0445
C10 C 0.2795(2) 0.3146(2) 0.29216(17)
H7 H 0.1865 0.2738 0.3179
C11 C 0.0466(2) 0.6636(2) 0.15778(18)
H8 H -0.0447 0.6226 0.1851
C12 C 0.8197(2) 1.0506(2) 0.3811(2)
C13 C 0.6824(2) 1.0032(2) 0.43868(18)
H9 H 0.5808 1.0239 0.3906
H10 H 0.7367 1.0692 0.5403
C14 C 0.1559(2) 0.7975(2) 0.01885(18)
H11 H 0.1381 0.8454 -0.0483
C15 C 0.3705(3) 0.2233(2) 0.26306(19)
H12 H 0.3383 0.1212 0.2692
C16 C 0.0995(3) 0.5089(2) 0.3602(2)
H13 H -0.0086 0.4152 0.2874
H14 H 0.0699 0.5972 0.3922
H15 H 0.1519 0.4815 0.4397
C17 C 0.5588(3) 0.4365(2) 0.21855(18)
H16 H 0.6528 0.4764 0.1936
C18 C 0.5086(3) 0.2828(2) 0.2250(2)
H17 H 0.5679 0.2201 0.2037
C19 C 0.7626(2) 0.9413(2) 0.2305(2)
H18 H 0.8689 0.9626 0.2123
H19 H 0.6811 0.9692 0.1650
N1 N 0.22922(18) 0.55874(17) 0.30164(14)
O1 O 0.96529(18) 1.16950(17) 0.45015(17)
loop_
_geom_bond_atom_site_label_1
_geom_bond_atom_site_label_2
_geom_bond_site_symmetry_1
_geom_bond_site_symmetry_2
C1 C2 1_555 1_555
C2 H1 1_555 1_555
H2 C2 1_555 1_555
C3 H3 1_555 1_555
C4 C1 1_555 1_555
C5 C1 1_555 1_555
H4 C5 1_555 1_555
H5 C5 1_555 1_555
C6 C1 1_555 1_555
C7 C6 1_555 1_555
C8 C4 1_555 1_555
C9 C4 1_555 1_555
H6 C9 1_555 1_555
C10 C7 1_555 1_555
H7 C10 1_555 1_555
C11 C3 1_555 1_555
H8 C11 1_555 1_555
C12 C13 1_555 1_555
C13 C2 1_555 1_555
H9 C13 1_555 1_555
H10 C13 1_555 1_555
C14 C3 1_555 1_555
H11 C14 1_555 1_555
C15 C10 1_555 1_555
H12 C15 1_555 1_555
C16 H13 1_555 1_555
H14 C16 1_555 1_555
H15 C16 1_555 1_555
C17 C6 1_555 1_555
H16 C17 1_555 1_555
C18 C15 1_555 1_555
H17 C18 1_555 1_555
C19 C5 1_555 1_555
H18 C19 1_555 1_555
H19 C19 1_555 1_555
N1 C7 1_555 1_555
O1 C12 1_555 1_555
C8 C11 1_555 1_555
C8 N1 1_555 1_555
C9 C14 1_555 1_555
C12 C19 1_555 1_555
C16 N1 1_555 1_555
C17 C18 1_555 1_555

#END
