
#######################################################################
#
#                 Cambridge Crystallographic Data Centre
#                                CCDC 
#
#######################################################################
#
# If this CIF has been generated from an entry in the Cambridge 
# Structural Database, then it will include bibliographic, chemical, 
# crystal, experimental, refinement or atomic coordinate data resulting 
# from the CCDC's data processing and validation procedures.
#
#######################################################################

data_HOXFIL
_chemical_formula_moiety         'C15 H18 O4'
_chemical_name_systematic        
4a-hydroxy-8-(hydroxymethyl)-3,5-dimethyl-5,6,7,7a-tetrahydroazuleno[6,5-b]furan-4(4aH)-one
_symmetry_cell_setting           orthorhombic
_symmetry_space_group_name_H-M   'P 21 21 21'
_symmetry_Int_Tables_number      19
_space_group_name_Hall           'P 2ac 2ab'
loop_
_symmetry_equiv_pos_site_id
_symmetry_equiv_pos_as_xyz
1 x,y,z
2 1/2-x,-y,1/2+z
3 1/2+x,1/2-y,-z
4 -x,1/2+y,1/2-z
_cell_length_a                   5.4612(8)
_cell_length_b                   13.158(2)
_cell_length_c                   17.948(3)
_cell_angle_alpha                90
_cell_angle_beta                 90
_cell_angle_gamma                90
_cell_volume                     1289.72
_exptl_crystal_colour            colorless
_exptl_crystal_description       plate
_cell_formula_units_Z            4
loop_
_atom_site_label
_atom_site_type_symbol
_atom_site_fract_x
_atom_site_fract_y
_atom_site_fract_z
C1 C 1.0601(4) 0.94055(18) 0.54882(11)
H1 H 1.0376 0.9418 0.4958
H2 H 1.2224 0.9172 0.5601
H3 H 1.0380 1.0078 0.5685
C2 C 0.8780(4) 0.87083(15) 0.58293(10)
C3 C 0.7050(4) 0.81675(16) 0.54812(11)
H4 H 0.6852 0.8152 0.4967
C4 C 0.8403(3) 0.85072(13) 0.66117(9)
C5 C 0.6466(3) 0.78614(13) 0.66655(9)
C6 C 0.5238(4) 0.73255(14) 0.72620(10)
H5 H 0.3848 0.6958 0.7131
C7 C 0.5877(3) 0.72988(13) 0.79804(10)
C8 C 0.4532(4) 0.65857(16) 0.85004(12)
H6 H 0.5688 0.6087 0.8687
H7 H 0.3947 0.6974 0.8924
C9 C 0.8006(4) 0.78663(15) 0.83128(10)
H8 H 0.9466 0.7443 0.8247
C10 C 0.8609(3) 0.89304(13) 0.80010(9)
C11 C 0.9847(3) 0.89079(13) 0.72303(9)
C12 C 0.7741(5) 0.8085(2) 0.91634(12)
H9 H 0.6054 0.8244 0.9285
H10 H 0.8239 0.7496 0.9451
C13 C 0.9370(5) 0.89735(18) 0.93329(11)
H11 H 1.0745 0.8757 0.9636
H12 H 0.8465 0.9488 0.9605
C14 C 1.0278(3) 0.94041(15) 0.85959(9)
H13 H 1.1928 0.9134 0.8514
C15 C 1.0470(5) 1.05434(18) 0.85748(13)
H14 H 1.0961 1.0756 0.8086
H15 H 1.1664 1.0765 0.8932
H16 H 0.8908 1.0837 0.8693
O1 O 0.5598(3) 0.76364(11) 0.59711(7)
O2 O 1.1906(2) 0.92383(11) 0.71369(7)
O3 O 0.6466(2) 0.95591(9) 0.79457(7)
H17 H 0.5386 0.9249 0.7724
O4 O 0.2548(3) 0.60715(12) 0.81856(10)
H18 H 0.3035 0.5704 0.7848
loop_
_geom_bond_atom_site_label_1
_geom_bond_atom_site_label_2
_geom_bond_site_symmetry_1
_geom_bond_site_symmetry_2
C1 H1 1_555 1_555
H2 C1 1_555 1_555
H3 C1 1_555 1_555
C2 C1 1_555 1_555
C3 C2 1_555 1_555
H4 C3 1_555 1_555
C4 C2 1_555 1_555
C5 C4 1_555 1_555
C6 C5 1_555 1_555
H5 C6 1_555 1_555
C7 C6 1_555 1_555
C8 C7 1_555 1_555
H6 C8 1_555 1_555
H7 C8 1_555 1_555
C9 C7 1_555 1_555
H8 C9 1_555 1_555
C10 C9 1_555 1_555
C11 C4 1_555 1_555
C12 C9 1_555 1_555
H9 C12 1_555 1_555
H10 C12 1_555 1_555
C13 C12 1_555 1_555
H11 C13 1_555 1_555
H12 C13 1_555 1_555
C14 C10 1_555 1_555
H13 C14 1_555 1_555
C15 C14 1_555 1_555
H14 C15 1_555 1_555
H15 C15 1_555 1_555
H16 C15 1_555 1_555
O1 C3 1_555 1_555
O2 C11 1_555 1_555
O3 C10 1_555 1_555
H17 O3 1_555 1_555
O4 C8 1_555 1_555
H18 O4 1_555 1_555
C5 O1 1_555 1_555
C10 C11 1_555 1_555
C13 C14 1_555 1_555

#END
