
#######################################################################
#
#                 Cambridge Crystallographic Data Centre
#                                CCDC 
#
#######################################################################
#
# If this CIF has been generated from an entry in the Cambridge 
# Structural Database, then it will include bibliographic, chemical, 
# crystal, experimental, refinement or atomic coordinate data resulting 
# from the CCDC's data processing and validation procedures.
#
#######################################################################

data_HOXFUX
_chemical_formula_moiety         'C15 H10 B2 N4 O2'
_chemical_name_systematic        
"[2,3,1]benzodiazaborinino[2',1':5,6][1,3,5,2,6]oxadiazadiborinino[2,3-a][2,3,1]benzodiazaborinin-8-one"
_symmetry_cell_setting           monoclinic
_symmetry_space_group_name_H-M   'C 2/c'
_symmetry_Int_Tables_number      15
_space_group_name_Hall           '-C 2yn'
loop_
_symmetry_equiv_pos_site_id
_symmetry_equiv_pos_as_xyz
1 x,y,z
2 -x,y,1/2-z
3 1/2+x,1/2+y,z
4 1/2-x,1/2+y,1/2-z
5 -x,-y,-z
6 x,-y,1/2+z
7 1/2-x,1/2-y,-z
8 1/2+x,1/2-y,1/2+z
_cell_length_a                   13.168(3)
_cell_length_b                   13.741(3)
_cell_length_c                   15.038(4)
_cell_angle_alpha                90
_cell_angle_beta                 102.980(3)
_cell_angle_gamma                90
_cell_volume                     2651.47
_exptl_crystal_colour            colorless
_exptl_crystal_description       block
_cell_formula_units_Z            8
loop_
_atom_site_label
_atom_site_type_symbol
_atom_site_fract_x
_atom_site_fract_y
_atom_site_fract_z
O1 O 0.62803(5) 0.26188(5) 0.20365(4)
O2 O 0.60939(4) 0.16111(4) 0.45747(4)
N1 N 0.64755(6) 0.38971(5) 0.33556(5)
N2 N 0.63222(5) 0.29251(5) 0.35558(4)
N3 N 0.62403(5) 0.13221(5) 0.30118(4)
N4 N 0.62909(5) 0.07228(5) 0.22718(4)
C1 C 0.61713(6) 0.33670(6) 0.51574(5)
C2 C 0.60216(6) 0.31794(6) 0.60372(5)
H1 H 0.5930 0.2529 0.6220
C3 C 0.60075(7) 0.39415(6) 0.66415(5)
H2 H 0.5906 0.3808 0.7235
C4 C 0.61419(6) 0.49060(6) 0.63837(5)
H3 H 0.6127 0.5423 0.6801
C5 C 0.62954(6) 0.51031(6) 0.55210(5)
H4 H 0.6390 0.5755 0.5346
C6 C 0.63111(6) 0.43374(6) 0.49049(5)
C7 C 0.64713(6) 0.45236(6) 0.39976(5)
H5 H 0.6587 0.5183 0.3858
C8 C 0.62810(6) 0.23168(6) 0.27901(5)
C9 C 0.63218(6) -0.02039(6) 0.24256(5)
H6 H 0.6368 -0.0608 0.1924
C10 C 0.62942(6) -0.07015(6) 0.32722(5)
C11 C 0.64090(6) -0.17155(6) 0.33433(5)
H7 H 0.6496 -0.2088 0.2834
C12 C 0.63942(6) -0.21687(6) 0.41646(6)
H8 H 0.6477 -0.2855 0.4217
C13 C 0.62584(6) -0.16246(6) 0.49190(6)
H9 H 0.6243 -0.1942 0.5477
C14 C 0.61462(6) -0.06218(6) 0.48468(5)
H10 H 0.6053 -0.0254 0.5358
C15 C 0.61696(6) -0.01442(6) 0.40243(5)
B1 B 0.61851(6) 0.25893(6) 0.44319(5)
B2 B 0.61488(6) 0.09604(6) 0.38951(5)
loop_
_geom_bond_atom_site_label_1
_geom_bond_atom_site_label_2
_geom_bond_site_symmetry_1
_geom_bond_site_symmetry_2
O1 C8 1_555 1_555
O2 B1 1_555 1_555
N1 N2 1_555 1_555
N2 C8 1_555 1_555
N3 N4 1_555 1_555
N4 C9 1_555 1_555
C1 C2 1_555 1_555
C2 H1 1_555 1_555
C3 C2 1_555 1_555
H2 C3 1_555 1_555
C4 C3 1_555 1_555
H3 C4 1_555 1_555
C5 C4 1_555 1_555
H4 C5 1_555 1_555
C6 C1 1_555 1_555
C7 N1 1_555 1_555
H5 C7 1_555 1_555
C8 N3 1_555 1_555
C9 H6 1_555 1_555
C10 C9 1_555 1_555
C11 C10 1_555 1_555
H7 C11 1_555 1_555
C12 C11 1_555 1_555
H8 C12 1_555 1_555
C13 C12 1_555 1_555
H9 C13 1_555 1_555
C14 C13 1_555 1_555
H10 C14 1_555 1_555
C15 C10 1_555 1_555
B1 N2 1_555 1_555
B2 O2 1_555 1_555
N3 B2 1_555 1_555
C1 B1 1_555 1_555
C5 C6 1_555 1_555
C6 C7 1_555 1_555
C14 C15 1_555 1_555
C15 B2 1_555 1_555

#END
