
#######################################################################
#
#                 Cambridge Crystallographic Data Centre
#                                CCDC 
#
#######################################################################
#
# If this CIF has been generated from an entry in the Cambridge 
# Structural Database, then it will include bibliographic, chemical, 
# crystal, experimental, refinement or atomic coordinate data resulting 
# from the CCDC's data processing and validation procedures.
#
#######################################################################

data_HOXFOR
_chemical_formula_moiety         'C26 H18 B2 N6 O3'
_chemical_name_systematic        
11,23-bis(pyridin-3-yl)-12,24,25-trioxa-9,10,21,22-tetraaza-1,13-diborahexacyclo[11.11.1.0^1,10^.0^2,7^.0^13,22^.0^14,19^]pentacosa-2,4,6,8,10,14,16,18,20,22-decaene
_symmetry_cell_setting           monoclinic
_symmetry_space_group_name_H-M   'C 2/c'
_symmetry_Int_Tables_number      15
_space_group_name_Hall           '-C 2yn'
loop_
_symmetry_equiv_pos_site_id
_symmetry_equiv_pos_as_xyz
1 x,y,z
2 -x,y,1/2-z
3 1/2+x,1/2+y,z
4 1/2-x,1/2+y,1/2-z
5 -x,-y,-z
6 x,-y,1/2+z
7 1/2-x,1/2-y,-z
8 1/2+x,1/2-y,1/2+z
_cell_length_a                   25.5569(11)
_cell_length_b                   5.7176(3)
_cell_length_c                   19.1584(9)
_cell_angle_alpha                90
_cell_angle_beta                 128.852(2)
_cell_angle_gamma                90
_cell_volume                     2180.17
_exptl_crystal_colour            colorless
_exptl_crystal_description       parallelepiped
_chemical_melting_point          '547-548 K'
_cell_formula_units_Z            4
loop_
_atom_site_label
_atom_site_type_symbol
_atom_site_fract_x
_atom_site_fract_y
_atom_site_fract_z
O1 O 0.5000 0.68387(15) 0.2500
O2 O 0.41475(3) 0.37735(11) 0.17795(4)
N1 N 0.49332(3) 0.36915(13) 0.15707(5)
N2 N 0.50621(4) 0.28305(14) 0.10018(5)
N3 N 0.37253(4) -0.25303(14) 0.00067(5)
C1 C 0.55431(4) 0.38447(16) 0.10710(6)
H1 H 0.5648 0.3212 0.0713
C2 C 0.59485(4) 0.58453(15) 0.16305(6)
C3 C 0.63783(4) 0.69035(17) 0.15007(6)
H2 H 0.6426 0.6252 0.1087
C4 C 0.67324(5) 0.89053(17) 0.19797(6)
H3 H 0.7028 0.9619 0.1901
C5 C 0.66518(4) 0.98629(16) 0.25773(6)
H4 H 0.6882 1.1261 0.2891
C6 C 0.62348(4) 0.87777(15) 0.27167(6)
H5 H 0.6192 0.9429 0.3135
C7 C 0.58792(4) 0.67487(15) 0.22506(5)
C8 C 0.43507(4) 0.30262(14) 0.13463(5)
C9 C 0.38925(4) 0.13218(14) 0.06216(5)
C10 C 0.41308(4) -0.08155(15) 0.05654(6)
H6 H 0.4603 -0.1060 0.0942
C11 C 0.30617(5) -0.21166(16) -0.05349(6)
H7 H 0.2769 -0.3316 -0.0939
C12 C 0.27760(4) -0.00434(16) -0.05409(6)
H8 H 0.2303 0.0177 -0.0945
C13 C 0.32015(4) 0.17025(15) 0.00616(6)
H9 H 0.3024 0.3126 0.0090
B1 B 0.54026(4) 0.54457(16) 0.23902(6)
O2A O 0.58525(3) 0.37735(11) 0.32205(4)
N1A N 0.50668(3) 0.36915(13) 0.34293(5)
N2A N 0.49379(4) 0.28305(14) 0.39982(5)
N3A N 0.62747(4) -0.25303(14) 0.49933(5)
C1A C 0.44569(4) 0.38447(16) 0.39290(6)
H1A H 0.4352 0.3212 0.4287
C2A C 0.40515(4) 0.58453(15) 0.33695(6)
C3A C 0.36217(4) 0.69035(17) 0.34993(6)
H2A H 0.3574 0.6252 0.3913
C4A C 0.32676(5) 0.89053(17) 0.30203(6)
H3A H 0.2972 0.9619 0.3099
C5A C 0.33482(4) 0.98629(16) 0.24227(6)
H4A H 0.3118 1.1261 0.2109
C6A C 0.37652(4) 0.87777(15) 0.22833(6)
H5A H 0.3808 0.9429 0.1865
C7A C 0.41208(4) 0.67487(15) 0.27494(5)
C8A C 0.56493(4) 0.30262(14) 0.36537(5)
C9A C 0.61075(4) 0.13218(14) 0.43784(5)
C10A C 0.58692(4) -0.08155(15) 0.44346(6)
H6A H 0.5397 -0.1060 0.4058
C11A C 0.69383(5) -0.21166(16) 0.55349(6)
H7A H 0.7231 -0.3316 0.5939
C12A C 0.72240(4) -0.00434(16) 0.55409(6)
H8A H 0.7697 0.0177 0.5945
C13A C 0.67985(4) 0.17025(15) 0.49384(6)
H9A H 0.6976 0.3126 0.4910
B1A B 0.45974(4) 0.54457(16) 0.26098(6)
loop_
_geom_bond_atom_site_label_1
_geom_bond_atom_site_label_2
_geom_bond_site_symmetry_1
_geom_bond_site_symmetry_2
O1 B1 1_555 1_555
O2 C8 1_555 1_555
N1 N2 1_555 1_555
N2 C1 1_555 1_555
N3 C10 1_555 1_555
C1 H1 1_555 1_555
C2 C1 1_555 1_555
C3 C2 1_555 1_555
H2 C3 1_555 1_555
C4 C3 1_555 1_555
H3 C4 1_555 1_555
C5 C4 1_555 1_555
H4 C5 1_555 1_555
C6 C5 1_555 1_555
H5 C6 1_555 1_555
C7 C2 1_555 1_555
C8 N1 1_555 1_555
C9 C8 1_555 1_555
C10 C9 1_555 1_555
H6 C10 1_555 1_555
C11 N3 1_555 1_555
H7 C11 1_555 1_555
C12 C11 1_555 1_555
H8 C12 1_555 1_555
C13 C9 1_555 1_555
H9 C13 1_555 1_555
B1 N1 1_555 1_555
O2A B1 1_555 1_555
N1A N2A 1_555 1_555
N2A C1A 1_555 1_555
N3A C10A 1_555 1_555
C1A H1A 1_555 1_555
C2A C1A 1_555 1_555
C3A C2A 1_555 1_555
H2A C3A 1_555 1_555
C4A C3A 1_555 1_555
H3A C4A 1_555 1_555
C5A C4A 1_555 1_555
H4A C5A 1_555 1_555
C6A C5A 1_555 1_555
H5A C6A 1_555 1_555
C7A C2A 1_555 1_555
C8A O2A 1_555 1_555
C9A C8A 1_555 1_555
C10A C9A 1_555 1_555
H6A C10A 1_555 1_555
C11A N3A 1_555 1_555
H7A C11A 1_555 1_555
C12A C11A 1_555 1_555
H8A C12A 1_555 1_555
C13A C9A 1_555 1_555
H9A C13A 1_555 1_555
B1A O1 1_555 1_555
O2 B1A 1_555 1_555
C6 C7 1_555 1_555
C7 B1 1_555 1_555
C12 C13 1_555 1_555
N1A C8A 1_555 1_555
N1A B1A 1_555 1_555
C6A C7A 1_555 1_555
C7A B1A 1_555 1_555
C12A C13A 1_555 1_555

#END
