
#######################################################################
#
#                 Cambridge Crystallographic Data Centre
#                                CCDC 
#
#######################################################################
#
# If this CIF has been generated from an entry in the Cambridge 
# Structural Database, then it will include bibliographic, chemical, 
# crystal, experimental, refinement or atomic coordinate data resulting 
# from the CCDC's data processing and validation procedures.
#
#######################################################################

data_HOXGAE
_chemical_formula_moiety         'C36 H34'
_chemical_name_systematic        5,10-bis(4-t-butylphenyl)indeno[2,1-a]indene
_symmetry_cell_setting           monoclinic
_symmetry_space_group_name_H-M   'P 21/c'
_symmetry_Int_Tables_number      14
_space_group_name_Hall           '-P 2ybc'
loop_
_symmetry_equiv_pos_site_id
_symmetry_equiv_pos_as_xyz
1 x,y,z
2 -x,1/2+y,1/2-z
3 -x,-y,-z
4 x,1/2-y,1/2+z
_cell_length_a                   8.850(3)
_cell_length_b                   17.876(6)
_cell_length_c                   8.597(3)
_cell_angle_alpha                90
_cell_angle_beta                 107.197(5)
_cell_angle_gamma                90
_cell_volume                     1299.26
_exptl_crystal_colour            red
_exptl_crystal_description       block
_cell_formula_units_Z            2
loop_
_atom_site_label
_atom_site_type_symbol
_atom_site_fract_x
_atom_site_fract_y
_atom_site_fract_z
C1 C 0.3963(4) 0.6075(2) -0.0815(4)
C2 C 0.5119(4) 0.57498(19) -0.1423(4)
C3 C 0.5675(4) 0.6131(2) -0.2554(5)
H1 H 0.6447 0.5913 -0.2982
C4 C 0.5064(4) 0.6850(2) -0.3047(4)
H2 H 0.5419 0.7122 -0.3822
C5 C 0.3956(4) 0.71551(19) -0.2405(4)
H3 H 0.3563 0.7643 -0.2734
C6 C 0.3396(4) 0.6769(2) -0.1289(4)
H4 H 0.2625 0.6989 -0.0861
C7 C 0.3565(4) 0.5578(2) 0.0422(4)
C8 C 0.4509(4) 0.4990(2) 0.0525(4)
C9 C 0.2432(4) 0.5743(2) 0.1336(5)
C10 C 0.2875(4) 0.5712(2) 0.3051(5)
H5 H 0.3919 0.5562 0.3635
C11 C 0.1812(4) 0.58983(19) 0.3905(4)
H6 H 0.2149 0.5886 0.5062
C12 C 0.0272(4) 0.60999(17) 0.3091(4)
C13 C -0.0149(4) 0.6100(2) 0.1393(4)
H7 H -0.1207 0.6223 0.0799
C14 C 0.0900(5) 0.5931(2) 0.0543(5)
H8 H 0.0555 0.5944 -0.0613
C15 C -0.0915(4) 0.63555(19) 0.3960(4)
C16 C -0.0386(5) 0.6154(2) 0.5771(4)
H9 H -0.0221 0.5613 0.5895
H10 H -0.1203 0.6307 0.6266
H11 H 0.0605 0.6415 0.6312
C17 C -0.2528(4) 0.5995(3) 0.3192(5)
H12 H -0.2945 0.6159 0.2057
H13 H -0.3259 0.6147 0.3798
H14 H -0.2417 0.5450 0.3229
C18 C -0.1054(6) 0.7207(2) 0.3815(6)
H15 H -0.0024 0.7435 0.4353
H16 H -0.1834 0.7383 0.4337
H17 H -0.1392 0.7349 0.2662
C1B C 0.6037(4) 0.3925(2) 0.0815(4)
C2B C 0.4881(4) 0.42502(19) 0.1423(4)
C3B C 0.4325(4) 0.3869(2) 0.2554(5)
H1B H 0.3553 0.4087 0.2982
C4B C 0.4936(4) 0.3150(2) 0.3047(4)
H2B H 0.4581 0.2878 0.3822
C5B C 0.6044(4) 0.28449(19) 0.2405(4)
H3B H 0.6437 0.2357 0.2734
C6B C 0.6604(4) 0.3231(2) 0.1289(4)
H4B H 0.7375 0.3011 0.0861
C7B C 0.6435(4) 0.4422(2) -0.0422(4)
C8B C 0.5491(4) 0.5010(2) -0.0525(4)
C9B C 0.7568(4) 0.4257(2) -0.1336(5)
C10B C 0.7125(4) 0.4288(2) -0.3051(5)
H5B H 0.6081 0.4438 -0.3635
C11B C 0.8188(4) 0.41017(19) -0.3905(4)
H6B H 0.7851 0.4114 -0.5062
C12B C 0.9728(4) 0.39001(17) -0.3091(4)
C13B C 1.0149(4) 0.3900(2) -0.1393(4)
H7B H 1.1207 0.3777 -0.0799
C14B C 0.9100(5) 0.4069(2) -0.0543(5)
H8B H 0.9445 0.4056 0.0613
C15B C 1.0915(4) 0.36445(19) -0.3960(4)
C16B C 1.0386(5) 0.3846(2) -0.5771(4)
H9B H 1.0221 0.4387 -0.5895
H10B H 1.1203 0.3693 -0.6266
H11B H 0.9395 0.3585 -0.6312
C17B C 1.2528(4) 0.4005(3) -0.3192(5)
H12B H 1.2945 0.3841 -0.2057
H13B H 1.3259 0.3853 -0.3798
H14B H 1.2417 0.4550 -0.3229
C18B C 1.1054(6) 0.2793(2) -0.3815(6)
H15B H 1.0024 0.2565 -0.4353
H16B H 1.1834 0.2617 -0.4337
H17B H 1.1392 0.2651 -0.2662
loop_
_geom_bond_atom_site_label_1
_geom_bond_atom_site_label_2
_geom_bond_site_symmetry_1
_geom_bond_site_symmetry_2
C1 C2 1_555 1_555
C2 C3 1_555 1_555
C3 H1 1_555 1_555
C4 C3 1_555 1_555
H2 C4 1_555 1_555
C5 C4 1_555 1_555
H3 C5 1_555 1_555
C6 C1 1_555 1_555
H4 C6 1_555 1_555
C7 C1 1_555 1_555
C8 C7 1_555 1_555
C9 C7 1_555 1_555
C10 C9 1_555 1_555
H5 C10 1_555 1_555
C11 C10 1_555 1_555
H6 C11 1_555 1_555
C12 C11 1_555 1_555
C13 C12 1_555 1_555
H7 C13 1_555 1_555
C14 C9 1_555 1_555
H8 C14 1_555 1_555
C15 C12 1_555 1_555
C16 C15 1_555 1_555
H9 C16 1_555 1_555
H10 C16 1_555 1_555
H11 C16 1_555 1_555
C17 C15 1_555 1_555
H12 C17 1_555 1_555
H13 C17 1_555 1_555
H14 C17 1_555 1_555
C18 C15 1_555 1_555
H15 C18 1_555 1_555
H16 C18 1_555 1_555
H17 C18 1_555 1_555
C1B C2B 1_555 1_555
C2B C8 1_555 1_555
C3B C2B 1_555 1_555
H1B C3B 1_555 1_555
C4B C3B 1_555 1_555
H2B C4B 1_555 1_555
C5B C4B 1_555 1_555
H3B C5B 1_555 1_555
C6B C1B 1_555 1_555
H4B C6B 1_555 1_555
C7B C1B 1_555 1_555
C8B C2 1_555 1_555
C9B C7B 1_555 1_555
C10B C9B 1_555 1_555
H5B C10B 1_555 1_555
C11B C10B 1_555 1_555
H6B C11B 1_555 1_555
C12B C11B 1_555 1_555
C13B C12B 1_555 1_555
H7B C13B 1_555 1_555
C14B C9B 1_555 1_555
H8B C14B 1_555 1_555
C15B C12B 1_555 1_555
C16B C15B 1_555 1_555
H9B C16B 1_555 1_555
H10B C16B 1_555 1_555
H11B C16B 1_555 1_555
C17B C15B 1_555 1_555
H12B C17B 1_555 1_555
H13B C17B 1_555 1_555
H14B C17B 1_555 1_555
C18B C15B 1_555 1_555
H15B C18B 1_555 1_555
H16B C18B 1_555 1_555
H17B C18B 1_555 1_555
C5 C6 1_555 1_555
C8 C8B 1_555 1_555
C13 C14 1_555 1_555
C5B C6B 1_555 1_555
C7B C8B 1_555 1_555
C13B C14B 1_555 1_555

#END
