
#######################################################################
#
#                 Cambridge Crystallographic Data Centre
#                                CCDC 
#
#######################################################################
#
# If this CIF has been generated from an entry in the Cambridge 
# Structural Database, then it will include bibliographic, chemical, 
# crystal, experimental, refinement or atomic coordinate data resulting 
# from the CCDC's data processing and validation procedures.
#
#######################################################################

data_HOXHIN
_chemical_formula_moiety         'C21 H21 N1 Si1'
_chemical_name_systematic        
2,4-diphenyl-3-((trimethylsilyl)ethynyl)-1H-pyrrole
_symmetry_cell_setting           orthorhombic
_symmetry_space_group_name_H-M   'P b c a'
_symmetry_Int_Tables_number      61
_space_group_name_Hall           '-P 2ac 2ab'
loop_
_symmetry_equiv_pos_site_id
_symmetry_equiv_pos_as_xyz
1 x,y,z
2 1/2-x,-y,1/2+z
3 -x,1/2+y,1/2-z
4 1/2+x,1/2-y,-z
5 -x,-y,-z
6 1/2+x,y,1/2-z
7 x,1/2-y,1/2+z
8 1/2-x,1/2+y,z
_cell_length_a                   10.9956(11)
_cell_length_b                   9.3889(10)
_cell_length_c                   36.638(4)
_cell_angle_alpha                90
_cell_angle_beta                 90
_cell_angle_gamma                90
_cell_volume                     3782.38
_exptl_crystal_colour            colorless
_chemical_melting_point          '429 K'
_cell_formula_units_Z            8
_exptl_crystal_recrystallization_method 'petroleum ether'
loop_
_atom_site_label
_atom_site_type_symbol
_atom_site_fract_x
_atom_site_fract_y
_atom_site_fract_z
Si1 Si 0.38118(6) 0.17479(7) 0.39262(2)
C1 C 0.60375(19) -0.1923(2) 0.35387(6)
C2 C 0.52948(19) -0.0789(2) 0.36690(6)
C3 C 0.62304(19) -0.1226(2) 0.28481(7)
C4 C 0.7271(2) -0.3775(2) 0.35255(6)
H1 H 0.7732 -0.4558 0.3597
C5 C 0.6477(2) -0.2088(2) 0.31730(7)
C6 C 0.6463(2) -0.3319(3) 0.41444(7)
C7 C 0.4704(2) 0.0216(2) 0.37725(7)
N1 N 0.7224(2) -0.3256(3) 0.31822(7)
H2 H 0.7605 -0.3604 0.2998
C8 C 0.6554(2) -0.3000(3) 0.37529(7)
C9 C 0.5184(2) -0.0392(3) 0.28195(7)
H3 H 0.4620 -0.0394 0.3009
C10 C 0.4974(2) 0.0433(3) 0.25149(8)
H4 H 0.4278 0.0994 0.2504
C11 C 0.7035(2) -0.1209(3) 0.25560(7)
H5 H 0.7739 -0.1756 0.2567
C12 C 0.7325(3) -0.4181(3) 0.43126(8)
H6 H 0.7970 -0.4541 0.4177
C13 C 0.5774(2) 0.0441(3) 0.22288(8)
H7 H 0.5625 0.1000 0.2024
C14 C 0.5428(3) -0.3123(3) 0.47203(9)
H8 H 0.4788 -0.2763 0.4858
C15 C 0.5507(3) -0.2796(3) 0.43548(8)
H9 H 0.4918 -0.2220 0.4248
C16 C 0.6807(2) -0.0394(3) 0.22487(8)
H10 H 0.7352 -0.0408 0.2055
C17 C 0.6287(3) -0.3981(4) 0.48834(9)
H11 H 0.6226 -0.4201 0.5130
C18 C 0.4825(4) 0.3308(3) 0.39551(13)
H12 H 0.5455 0.3126 0.4131
H13 H 0.4364 0.4126 0.4029
H14 H 0.5184 0.3484 0.3721
C19 C 0.7233(3) -0.4508(4) 0.46793(9)
H15 H 0.7814 -0.5088 0.4788
C20 C 0.2571(3) 0.2024(4) 0.35891(9)
H16 H 0.2915 0.2270 0.3357
H17 H 0.2051 0.2781 0.3671
H18 H 0.2105 0.1164 0.3566
C21 C 0.3154(3) 0.1274(5) 0.43761(9)
H19 H 0.3798 0.1129 0.4549
H20 H 0.2686 0.0416 0.4353
H21 H 0.2638 0.2033 0.4459
loop_
_geom_bond_atom_site_label_1
_geom_bond_atom_site_label_2
_geom_bond_site_symmetry_1
_geom_bond_site_symmetry_2
Si1 C7 1_555 1_555
C1 C2 1_555 1_555
C2 C7 1_555 1_555
C3 C5 1_555 1_555
C4 H1 1_555 1_555
C5 C1 1_555 1_555
C6 C8 1_555 1_555
N1 C4 1_555 1_555
H2 N1 1_555 1_555
C8 C1 1_555 1_555
C9 C3 1_555 1_555
H3 C9 1_555 1_555
C10 C9 1_555 1_555
H4 C10 1_555 1_555
C11 C3 1_555 1_555
H5 C11 1_555 1_555
C12 C6 1_555 1_555
H6 C12 1_555 1_555
C13 C10 1_555 1_555
H7 C13 1_555 1_555
C14 H8 1_555 1_555
C15 C6 1_555 1_555
H9 C15 1_555 1_555
C16 C11 1_555 1_555
H10 C16 1_555 1_555
C17 C14 1_555 1_555
H11 C17 1_555 1_555
C18 Si1 1_555 1_555
H12 C18 1_555 1_555
H13 C18 1_555 1_555
H14 C18 1_555 1_555
C19 C12 1_555 1_555
H15 C19 1_555 1_555
C20 Si1 1_555 1_555
H16 C20 1_555 1_555
H17 C20 1_555 1_555
H18 C20 1_555 1_555
C21 Si1 1_555 1_555
H19 C21 1_555 1_555
H20 C21 1_555 1_555
H21 C21 1_555 1_555
C4 C8 1_555 1_555
C5 N1 1_555 1_555
C13 C16 1_555 1_555
C14 C15 1_555 1_555
C17 C19 1_555 1_555

#END
