
#######################################################################
#
#                 Cambridge Crystallographic Data Centre
#                                CCDC 
#
#######################################################################
#
# If this CIF has been generated from an entry in the Cambridge 
# Structural Database, then it will include bibliographic, chemical, 
# crystal, experimental, refinement or atomic coordinate data resulting 
# from the CCDC's data processing and validation procedures.
#
#######################################################################

data_HOXNEP
_chemical_formula_moiety         'C20 H10 N2 S4'
_chemical_name_systematic        
cis-2,3-bis(2,2'-bithiophen-5-yl)but-2-enedinitrile
_symmetry_cell_setting           monoclinic
_symmetry_space_group_name_H-M   'P 21/n'
_symmetry_Int_Tables_number      14
_space_group_name_Hall           '-P 2yn'
loop_
_symmetry_equiv_pos_site_id
_symmetry_equiv_pos_as_xyz
1 x,y,z
2 1/2-x,1/2+y,1/2-z
3 -x,-y,-z
4 1/2+x,1/2-y,1/2+z
_cell_length_a                   11.5540(10)
_cell_length_b                   6.1045(4)
_cell_length_c                   26.177(2)
_cell_angle_alpha                90
_cell_angle_beta                 98.578(8)
_cell_angle_gamma                90
_cell_volume                     1825.65
_exptl_crystal_colour            red
_exptl_crystal_description       needle
_cell_formula_units_Z            4
loop_
_atom_site_label
_atom_site_type_symbol
_atom_site_fract_x
_atom_site_fract_y
_atom_site_fract_z
S1 S 0.16075(7) -0.28450(12) 0.32353(3)
C1 C 0.0668(3) -0.1862(5) 0.27100(12)
C2 C 0.0973(3) 0.0217(5) 0.25905(12)
H1 H 0.0562 0.1033 0.2312
C3 C 0.1958(3) 0.1041(5) 0.29210(12)
H2 H 0.2281 0.2455 0.2887
C4 C 0.2392(3) -0.0427(5) 0.32944(12)
S2 S -0.1070(3) -0.2690(6) 0.18717(13)
C5 C -0.1960(9) -0.4942(16) 0.1898(4)
H3 H -0.2576 -0.5347 0.1632
C6 C -0.1669(11) -0.605(2) 0.2343(4)
H4 H -0.2059 -0.7342 0.2428
C7 C -0.0723(15) -0.509(3) 0.2670(6)
H5 H -0.0410 -0.5676 0.2998
C8 C -0.0291(3) -0.3205(5) 0.24651(12)
C9 C 0.3422(3) -0.0192(5) 0.36958(12)
C10 C 0.4300(3) -0.1868(5) 0.37012(13)
C11 C 0.3586(3) 0.1463(5) 0.40524(12)
C12 C 0.4738(3) 0.1636(5) 0.43580(13)
S3 S 0.12304(7) 0.26262(13) 0.40125(3)
C13 C 0.2725(3) 0.3029(5) 0.41743(12)
C14 C 0.2947(3) 0.4881(5) 0.44695(12)
H6 H 0.3715 0.5358 0.4604
C15 C 0.1934(3) 0.6003(5) 0.45541(12)
H7 H 0.1944 0.7334 0.4743
C16 C 0.0935(3) 0.4980(5) 0.43375(12)
N1 N 0.4937(3) -0.3299(5) 0.37031(12)
N2 N 0.5645(3) 0.1759(5) 0.45981(12)
S4 S -0.1434(3) 0.4125(7) 0.4146(2)
C17 C -0.0269(3) 0.5671(5) 0.43296(12)
C18 C -0.0587(14) 0.775(2) 0.4485(10)
H8 H -0.0037 0.8860 0.4603
C19 C -0.1834(7) 0.8025(13) 0.4449(3)
H9 H -0.2215 0.9312 0.4541
C20 C -0.2374(8) 0.6175(14) 0.4262(4)
H10 H -0.3201 0.6021 0.4200
S5? S -0.0851(5) -0.5333(8) 0.27528(18)
C21? C -0.1832(12) -0.593(2) 0.2207(4)
H11? H -0.2376 -0.7104 0.2178
C22? C -0.1716(10) -0.4482(18) 0.1825(5)
H12? H -0.2198 -0.4506 0.1497
C23? C -0.0817(13) -0.295(3) 0.1958(5)
H13? H -0.0598 -0.1865 0.1730
S6? S -0.0688(4) 0.8131(7) 0.4508(3)
C24? C -0.1246(12) 0.443(3) 0.4135(9)
H14? H -0.1189 0.3014 0.3990
C25? C -0.2345(8) 0.5458(14) 0.4172(4)
H15? H -0.3090 0.4797 0.4078
C26? C -0.2164(7) 0.7503(16) 0.4361(4)
H16? H -0.2775 0.8489 0.4408
loop_
_geom_bond_atom_site_label_1
_geom_bond_atom_site_label_2
_geom_bond_site_symmetry_1
_geom_bond_site_symmetry_2
S1 C1 1_555 1_555
C1 C2 1_555 1_555
C2 H1 1_555 1_555
C3 C2 1_555 1_555
H2 C3 1_555 1_555
C4 S1 1_555 1_555
S2 C5 1_555 1_555
C5 H3 1_555 1_555
C6 C5 1_555 1_555
H4 C6 1_555 1_555
C7 C6 1_555 1_555
H5 C7 1_555 1_555
C8 C1 1_555 1_555
C9 C4 1_555 1_555
C10 C9 1_555 1_555
C11 C9 1_555 1_555
C12 C11 1_555 1_555
S3 C13 1_555 1_555
C13 C11 1_555 1_555
C14 C13 1_555 1_555
H6 C14 1_555 1_555
C15 C14 1_555 1_555
H7 C15 1_555 1_555
C16 S3 1_555 1_555
N1 C10 1_555 1_555
N2 C12 1_555 1_555
S4 C17 1_555 1_555
C17 C16 1_555 1_555
C18 C17 1_555 1_555
H8 C18 1_555 1_555
C19 C18 1_555 1_555
H9 C19 1_555 1_555
C20 S4 1_555 1_555
H10 C20 1_555 1_555
C3 C4 1_555 1_555
S2 C8 1_555 1_555
C7 C8 1_555 1_555
C15 C16 1_555 1_555
C19 C20 1_555 1_555

#END
