
#######################################################################
#
#                 Cambridge Crystallographic Data Centre
#                                CCDC 
#
#######################################################################
#
# If this CIF has been generated from an entry in the Cambridge 
# Structural Database, then it will include bibliographic, chemical, 
# crystal, experimental, refinement or atomic coordinate data resulting 
# from the CCDC's data processing and validation procedures.
#
#######################################################################

data_HOXPEQ
_chemical_formula_moiety         'C30 H27 B1 N2 O5'
_chemical_name_systematic        
(2-(((9-Anthrylmethyl)(methyl)ammonio)methyl)phenyl)-(4-nitrocatecholato)-(methanolato)-boron
_symmetry_cell_setting           monoclinic
_symmetry_space_group_name_H-M   'P 21/c'
_symmetry_Int_Tables_number      14
_space_group_name_Hall           '-P 2ybc'
loop_
_symmetry_equiv_pos_site_id
_symmetry_equiv_pos_as_xyz
1 x,y,z
2 -x,1/2+y,1/2-z
3 -x,-y,-z
4 x,1/2-y,1/2+z
_cell_length_a                   10.7385(4)
_cell_length_b                   12.4075(5)
_cell_length_c                   19.1650(8)
_cell_angle_alpha                90
_cell_angle_beta                 105.615(2)
_cell_angle_gamma                90
_cell_volume                     2459.26
_exptl_crystal_colour            yellow
_exptl_crystal_description       parallelepiped
_cell_formula_units_Z            4
_exptl_crystal_recrystallization_method methanol
loop_
_atom_site_label
_atom_site_type_symbol
_atom_site_fract_x
_atom_site_fract_y
_atom_site_fract_z
C1 C 0.2640(3) 0.5957(3) 0.52186(19)
C2 C 0.2383(3) 0.6816(3) 0.5659(2)
H1 H 0.2695 0.6764 0.6171
C3 C 0.1708(4) 0.7700(3) 0.5363(3)
H2 H 0.1574 0.8267 0.5668
C4 C 0.1199(4) 0.7790(4) 0.4607(3)
H3 H 0.0707 0.8406 0.4407
C5 C 0.1409(4) 0.7002(4) 0.4166(2)
H4 H 0.1055 0.7069 0.3657
C6 C 0.2156(3) 0.6069(3) 0.4451(2)
C7 C 0.2435(4) 0.5289(4) 0.4002(2)
H5 H 0.2086 0.5360 0.3494
C8 C 0.3213(3) 0.4401(3) 0.4270(2)
C9 C 0.3556(4) 0.3626(4) 0.3802(2)
H6 H 0.3243 0.3710 0.3292
C10 C 0.4315(4) 0.2779(4) 0.4072(2)
H7 H 0.4527 0.2271 0.3751
C11 C 0.4797(3) 0.2640(3) 0.4825(2)
H8 H 0.5326 0.2035 0.5009
C12 C 0.4510(3) 0.3365(3) 0.5290(2)
H9 H 0.4858 0.3263 0.5797
C13 C 0.3702(3) 0.4272(3) 0.50389(19)
C14 C 0.3381(3) 0.5039(3) 0.55069(18)
C15 C 0.3832(3) 0.4849(3) 0.63122(17)
H10 H 0.3831 0.5538 0.6572
H11 H 0.4728 0.4568 0.6442
C16 C 0.1696(3) 0.4534(3) 0.6547(2)
H12 H 0.1835 0.5090 0.6924
H13 H 0.1125 0.3974 0.6648
H14 H 0.1296 0.4860 0.6074
C17 C 0.3578(3) 0.3490(3) 0.72530(17)
H15 H 0.3860 0.4037 0.7639
H16 H 0.2935 0.3017 0.7385
C18 C 0.4731(3) 0.2824(3) 0.72038(18)
C19 C 0.5965(4) 0.3243(3) 0.75116(19)
H17 H 0.6061 0.3903 0.7773
C20 C 0.7042(4) 0.2704(4) 0.7437(2)
H18 H 0.7879 0.2987 0.7652
C21 C 0.6909(4) 0.1751(4) 0.7051(2)
H19 H 0.7650 0.1387 0.6989
C22 C 0.5689(4) 0.1332(3) 0.6758(2)
H20 H 0.5612 0.0670 0.6501
C23 C 0.4563(3) 0.1840(3) 0.68220(18)
C24 C 0.2043(3) 0.1758(3) 0.5260(2)
C25 C 0.1364(3) 0.2273(3) 0.4638(2)
H21 H 0.0964 0.2954 0.4647
C26 C 0.1303(3) 0.1720(4) 0.3987(2)
C27 C 0.1880(4) 0.0747(4) 0.3955(2)
H22 H 0.1811 0.0413 0.3500
C28 C 0.2565(4) 0.0252(3) 0.4587(2)
H23 H 0.2975 -0.0423 0.4575
C29 C 0.2638(4) 0.0769(3) 0.5243(2)
C30 C 0.1344(4) 0.0491(3) 0.6797(2)
H24 H 0.0719 0.1085 0.6711
H25 H 0.1209 0.0030 0.7186
H26 H 0.1222 0.0064 0.6354
B1 B 0.3166(4) 0.1306(3) 0.6455(2)
O1 O 0.2258(2) 0.21249(18) 0.59515(13)
O2 O 0.3265(2) 0.04342(19) 0.59058(15)
O3 O 0.2616(2) 0.09131(19) 0.70023(12)
N1 N 0.2953(3) 0.4049(2) 0.65410(15)
H27 H 0.276(3) 0.351(3) 0.6187(18)
N2 N 0.0634(3) 0.2247(3) 0.3313(2)
O4 O 0.0138(3) 0.3145(3) 0.33473(14)
O5 O 0.0552(3) 0.1774(3) 0.27304(15)
loop_
_geom_bond_atom_site_label_1
_geom_bond_atom_site_label_2
_geom_bond_site_symmetry_1
_geom_bond_site_symmetry_2
C1 C2 1_555 1_555
C2 H1 1_555 1_555
C3 C2 1_555 1_555
H2 C3 1_555 1_555
C4 C3 1_555 1_555
H3 C4 1_555 1_555
C5 C4 1_555 1_555
H4 C5 1_555 1_555
C6 C1 1_555 1_555
C7 C6 1_555 1_555
H5 C7 1_555 1_555
C8 C7 1_555 1_555
C9 C8 1_555 1_555
H6 C9 1_555 1_555
C10 C9 1_555 1_555
H7 C10 1_555 1_555
C11 C10 1_555 1_555
H8 C11 1_555 1_555
C12 C11 1_555 1_555
H9 C12 1_555 1_555
C13 C8 1_555 1_555
C14 C1 1_555 1_555
C15 C14 1_555 1_555
H10 C15 1_555 1_555
H11 C15 1_555 1_555
C16 H12 1_555 1_555
H13 C16 1_555 1_555
H14 C16 1_555 1_555
C17 H15 1_555 1_555
H16 C17 1_555 1_555
C18 C17 1_555 1_555
C19 C18 1_555 1_555
H17 C19 1_555 1_555
C20 C19 1_555 1_555
H18 C20 1_555 1_555
C21 C20 1_555 1_555
H19 C21 1_555 1_555
C22 C21 1_555 1_555
H20 C22 1_555 1_555
C23 C18 1_555 1_555
C24 C25 1_555 1_555
C25 H21 1_555 1_555
C26 C25 1_555 1_555
C27 C26 1_555 1_555
H22 C27 1_555 1_555
C28 C27 1_555 1_555
H23 C28 1_555 1_555
C29 C24 1_555 1_555
C30 H24 1_555 1_555
H25 C30 1_555 1_555
H26 C30 1_555 1_555
B1 C23 1_555 1_555
O1 C24 1_555 1_555
O2 C29 1_555 1_555
O3 C30 1_555 1_555
N1 C15 1_555 1_555
H27 N1 1_555 1_555
N2 C26 1_555 1_555
O4 N2 1_555 1_555
O5 N2 1_555 1_555
C5 C6 1_555 1_555
C12 C13 1_555 1_555
C13 C14 1_555 1_555
C16 N1 1_555 1_555
C17 N1 1_555 1_555
C22 C23 1_555 1_555
C28 C29 1_555 1_555
B1 O1 1_555 1_555
B1 O2 1_555 1_555
B1 O3 1_555 1_555

#END
