
#######################################################################
#
#                 Cambridge Crystallographic Data Centre
#                                CCDC 
#
#######################################################################
#
# If this CIF has been generated from an entry in the Cambridge 
# Structural Database, then it will include bibliographic, chemical, 
# crystal, experimental, refinement or atomic coordinate data resulting 
# from the CCDC's data processing and validation procedures.
#
#######################################################################

data_HOXWIC
_chemical_compound_source        'fungus Talaromyces flavus'
_chemical_name_common            'Talaflavuterpenoid A'
_chemical_formula_moiety         'C15 H20 O2'
_chemical_name_systematic        
4a,5-dimethyl-4-(2-methyloxiran-2-yl)-4a,5,6,7-tetrahydronaphthalen-1(4H)-one
_symmetry_cell_setting           orthorhombic
_symmetry_space_group_name_H-M   'P 21 21 21'
_symmetry_Int_Tables_number      19
_space_group_name_Hall           'P 2ac 2ab'
loop_
_symmetry_equiv_pos_site_id
_symmetry_equiv_pos_as_xyz
1 x,y,z
2 1/2-x,-y,1/2+z
3 1/2+x,1/2-y,-z
4 -x,1/2+y,1/2-z
_cell_length_a                   7.5035(2)
_cell_length_b                   11.8931(4)
_cell_length_c                   14.1616(4)
_cell_angle_alpha                90
_cell_angle_beta                 90
_cell_angle_gamma                90
_cell_volume                     1263.78
_exptl_crystal_colour            'light colorless'
_exptl_crystal_description       needle
_cell_formula_units_Z            4
_exptl_crystal_recrystallization_method 'Vapour Deposition'
loop_
_atom_site_label
_atom_site_type_symbol
_atom_site_fract_x
_atom_site_fract_y
_atom_site_fract_z
O1 O -0.23900(15) -0.37167(9) -0.33456(8)
O2 O 0.21582(15) -0.17118(9) -0.02586(7)
C1 C 0.3475(2) -0.18836(13) -0.32224(10)
H1 H 0.4038 -0.2362 -0.2744
C2 C 0.2368(2) -0.21734(12) -0.12028(9)
C3 C -0.0751(2) -0.18281(14) -0.16145(11)
H2 H -0.1167 -0.1483 -0.1068
C4 C 0.14591(19) -0.18211(12) -0.29817(9)
C5 C 0.0566(2) -0.08539(13) -0.35323(11)
H3 H 0.1017 -0.0147 -0.3309
H4 H -0.0700 -0.0882 -0.3437
H5 H 0.0825 -0.0931 -0.4193
C6 C 0.2455(2) -0.34336(13) -0.12096(11)
H6 H 0.3267 -0.3684 -0.0730
H7 H 0.2862 -0.3687 -0.1816
H8 H 0.1291 -0.3736 -0.1087
C7 C 0.05116(19) -0.29039(11) -0.32712(9)
C8 C 0.11313(19) -0.15825(12) -0.19075(9)
H9 H 0.1309 -0.0773 -0.1817
C9 C -0.1351(2) -0.30833(12) -0.29393(10)
C10 C -0.1870(2) -0.24997(14) -0.20740(11)
H10 H -0.3015 -0.2601 -0.1838
C11 C 0.3784(2) -0.24448(15) -0.41861(11)
H11 H 0.3201 -0.2006 -0.4674
H12 H 0.5051 -0.2456 -0.4322
C12 C 0.1233(2) -0.36931(13) -0.38204(10)
H13 H 0.0545 -0.4319 -0.3970
C13 C 0.4418(2) -0.07451(15) -0.31922(12)
H14 H 0.4075 -0.0308 -0.3732
H15 H 0.5684 -0.0859 -0.3199
H16 H 0.4086 -0.0353 -0.2626
C14 C 0.3073(2) -0.36305(16) -0.42072(12)
H17 H 0.3074 -0.3903 -0.4853
H18 H 0.3850 -0.4113 -0.3839
C15 C 0.3801(2) -0.15223(16) -0.07622(11)
H19 H 0.4852 -0.1926 -0.0552
H20 H 0.4027 -0.0772 -0.1002
loop_
_geom_bond_atom_site_label_1
_geom_bond_atom_site_label_2
_geom_bond_site_symmetry_1
_geom_bond_site_symmetry_2
O1 C9 1_555 1_555
O2 C2 1_555 1_555
C1 H1 1_555 1_555
C2 C6 1_555 1_555
C3 H2 1_555 1_555
C4 C1 1_555 1_555
C5 C4 1_555 1_555
H3 C5 1_555 1_555
H4 C5 1_555 1_555
H5 C5 1_555 1_555
C6 H6 1_555 1_555
H7 C6 1_555 1_555
H8 C6 1_555 1_555
C7 C4 1_555 1_555
C8 C2 1_555 1_555
H9 C8 1_555 1_555
C9 C7 1_555 1_555
C10 C3 1_555 1_555
H10 C10 1_555 1_555
C11 C1 1_555 1_555
H11 C11 1_555 1_555
H12 C11 1_555 1_555
C12 C7 1_555 1_555
H13 C12 1_555 1_555
C13 C1 1_555 1_555
H14 C13 1_555 1_555
H15 C13 1_555 1_555
H16 C13 1_555 1_555
C14 C11 1_555 1_555
H17 C14 1_555 1_555
H18 C14 1_555 1_555
C15 O2 1_555 1_555
H19 C15 1_555 1_555
H20 C15 1_555 1_555
C2 C15 1_555 1_555
C3 C8 1_555 1_555
C4 C8 1_555 1_555
C9 C10 1_555 1_555
C12 C14 1_555 1_555

#END
