
#######################################################################
#
#                 Cambridge Crystallographic Data Centre
#                                CCDC 
#
#######################################################################
#
# If this CIF has been generated from an entry in the Cambridge 
# Structural Database, then it will include bibliographic, chemical, 
# crystal, experimental, refinement or atomic coordinate data resulting 
# from the CCDC's data processing and validation procedures.
#
#######################################################################

data_HOYDAB
_chemical_formula_moiety         'C42 H40 N6 O12 S2,3(C3 H6 O1)'
_chemical_name_systematic        
"(+)-3,3',11a,11a'-Tetrahydroxy-2,2',3,3'-tetramethyl-6,6'-bis(phenylsulfonyl)-2,2',3,3',5a,5a',6,6',11,11',11a,11a'-dodecahydro-10b,10b'-bipyrazino[1',2':1,5]pyrrolo[2,3-b]indole-1,1',4,4'-tetrone acetone solvate"
_symmetry_cell_setting           orthorhombic
_symmetry_space_group_name_H-M   'P 21 21 21'
_symmetry_Int_Tables_number      19
_space_group_name_Hall           'P 2ac 2ab'
loop_
_symmetry_equiv_pos_site_id
_symmetry_equiv_pos_as_xyz
1 x,y,z
2 1/2-x,-y,1/2+z
3 -x,1/2+y,1/2-z
4 1/2+x,1/2-y,-z
_cell_length_a                   11.7728(2)
_cell_length_b                   12.0547(2)
_cell_length_c                   35.2767(6)
_cell_angle_alpha                90
_cell_angle_beta                 90
_cell_angle_gamma                90
_cell_volume                     5006.38
_exptl_crystal_colour            colorless
_exptl_crystal_description       needle
_cell_formula_units_Z            4
_exptl_crystal_recrystallization_method pentane/acetone
loop_
_atom_site_label
_atom_site_type_symbol
_atom_site_fract_x
_atom_site_fract_y
_atom_site_fract_z
S1 S 0.46056(5) -0.01632(5) 0.171280(16)
S2 S 1.04309(5) 0.19195(5) 0.180985(16)
O1 O 0.40521(14) -0.03351(15) 0.07868(5)
O2 O 1.05784(15) 0.39274(16) 0.11798(5)
O3 O 0.44087(18) -0.0759(2) -0.00054(5)
H1 H 0.379(2) -0.053(3) 0.0090(10)
O4 O 1.01320(17) 0.58794(17) 0.07634(5)
H2 H 0.980(3) 0.562(3) 0.0558(7)
O5 O 0.63545(16) 0.51860(16) 0.08526(6)
O6 O 0.80834(15) -0.08634(16) 0.01467(5)
O7 O 0.62506(15) 0.10824(15) 0.03073(5)
H3 H 0.668(2) 0.129(3) 0.0141(7)
O8 O 0.81493(16) 0.34531(15) 0.05439(5)
H4 H 0.770(2) 0.376(2) 0.0386(8)
O9 O 1.02867(15) 0.12779(15) 0.21464(5)
O10 O 0.48787(15) -0.04127(16) 0.20978(5)
O11 O 0.40074(15) 0.08333(15) 0.16224(5)
O12 O 1.09402(15) 0.14172(15) 0.14847(5)
N1 N 0.86837(17) 0.35925(17) 0.11675(5)
N2 N 0.59814(16) -0.01485(17) 0.07954(5)
N3 N 0.62270(17) -0.13698(17) 0.01478(6)
N4 N 0.81896(19) 0.57220(18) 0.09349(6)
N5 N 0.91594(17) 0.23711(17) 0.16884(6)
N6 N 0.58208(16) -0.01519(17) 0.14808(5)
C1 C 0.73068(19) 0.08521(19) 0.11621(6)
C2 C 0.7486(2) 0.20729(19) 0.13033(6)
C3 C 0.7215(2) 0.22244(19) 0.17236(7)
C4 C 0.7756(2) -0.00153(19) 0.14366(6)
C5 C 0.6163(2) 0.23031(19) 0.18988(7)
H5 H 0.5483 0.2238 0.1755
C6 C 0.8872(2) -0.0321(2) 0.15077(7)
H6 H 0.9478 0.0013 0.1371
C7 C 0.6122(2) 0.2479(2) 0.22878(7)
H7 H 0.5408 0.2515 0.2412
C8 C 0.9093(2) -0.1122(2) 0.17817(7)
H8 H 0.9855 -0.1317 0.1839
C9 C 0.8202(2) -0.1639(2) 0.19723(7)
H9 H 0.8364 -0.2180 0.2161
C10 C 0.7114(2) 0.2601(2) 0.24962(7)
H10 H 0.7070 0.2719 0.2762
C11 C 0.8170(2) 0.2553(2) 0.23213(7)
H11 H 0.8850 0.2642 0.2463
C12 C 0.7078(2) -0.1375(2) 0.18908(7)
H12 H 0.6467 -0.1744 0.2014
C13 C 0.8200(2) 0.23714(19) 0.19339(7)
C14 C 0.6880(2) -0.0553(2) 0.16227(6)
C15 C 0.87633(19) 0.24409(19) 0.12930(6)
H13 H 0.9229 0.1975 0.1117
C16 C 0.60250(19) 0.05226(19) 0.11407(6)
H14 H 0.5514 0.1184 0.1127
C17 C 0.9623(2) 0.4247(2) 0.11206(6)
C18 C 0.4978(2) -0.0507(2) 0.06458(7)
C19 C 0.5062(2) -0.1251(2) 0.02893(7)
C20 C 0.9384(2) 0.5478(2) 0.10417(7)
C21 C 0.7357(2) 0.4952(2) 0.09050(7)
C22 C 0.7108(2) -0.0727(2) 0.02545(7)
C23 C 0.6796(2) 0.0234(2) 0.05174(6)
C24 C 0.7741(2) 0.3745(2) 0.09106(7)
C25 C 0.6844(2) 0.29280(19) 0.10521(7)
H15 H 0.6471 0.2551 0.0836
H16 H 0.6256 0.3319 0.1202
C26 C 0.7787(2) 0.0682(2) 0.07528(6)
H17 H 0.8062 0.1394 0.0647
H18 H 0.8424 0.0146 0.0755
C27 C 0.9673(3) 0.6079(2) 0.14109(8)
H19 H 1.0458 0.5908 0.1483
H20 H 0.9156 0.5832 0.1612
H21 H 0.9592 0.6880 0.1374
C28 C 0.4582(3) -0.2383(2) 0.04007(8)
H22 H 0.3857 -0.2282 0.0533
H23 H 0.5119 -0.2762 0.0569
H24 H 0.4462 -0.2830 0.0172
C29 C 0.7874(3) 0.6893(2) 0.08958(9)
H25 H 0.7245 0.6961 0.0715
H26 H 0.8528 0.7316 0.0803
H27 H 0.7636 0.7184 0.1143
C30 C 0.6450(2) -0.2256(2) -0.01263(8)
H28 H 0.7084 -0.2041 -0.0291
H29 H 0.5770 -0.2381 -0.0281
H30 H 0.6644 -0.2940 0.0009
C31 C 0.3813(2) -0.1292(2) 0.15320(7)
C32 C 1.1238(2) 0.3106(2) 0.19347(7)
C33 C 1.0736(2) 0.4045(2) 0.20827(7)
H31 H 0.9932 0.4105 0.2097
C34 C 0.4350(2) -0.2296(2) 0.14622(8)
H32 H 0.5141 -0.2379 0.1508
C35 C 1.1423(2) 0.4897(2) 0.22099(7)
H33 H 1.1089 0.5547 0.2314
C36 C 0.3717(3) -0.3172(2) 0.13261(9)
H34 H 0.4071 -0.3867 0.1280
C37 C 0.2568(3) -0.3041(3) 0.12569(9)
H35 H 0.2138 -0.3643 0.1159
C38 C 1.2596(2) 0.4810(2) 0.21868(8)
H36 H 1.3066 0.5397 0.2275
C39 C 1.3081(2) 0.3854(2) 0.20337(9)
H37 H 1.3884 0.3794 0.2016
C40 C 0.2045(2) -0.2035(3) 0.13294(9)
H38 H 0.1253 -0.1955 0.1286
C41 C 1.2406(2) 0.2992(2) 0.19069(7)
H39 H 1.2735 0.2339 0.1803
C42 C 0.2669(2) -0.1138(2) 0.14649(8)
H40 H 0.2318 -0.0441 0.1510
O13 O 0.74465(19) 0.20145(18) -0.02749(6)
C43 C 0.7864(2) 0.1767(2) -0.05772(8)
C44 C 0.8236(4) 0.2625(3) -0.08505(11)
H41 H 0.7630 0.2760 -0.1035
H42 H 0.8919 0.2369 -0.0983
H43 H 0.8406 0.3314 -0.0714
C45 C 0.7995(3) 0.0594(3) -0.07033(9)
H44 H 0.7604 0.0102 -0.0525
H45 H 0.8803 0.0402 -0.0712
H46 H 0.7663 0.0506 -0.0956
O14 O 0.72376(16) 0.47050(17) -0.00358(5)
C46 C 0.6352(2) 0.4527(2) -0.02066(7)
C47 C 0.6152(3) 0.4999(3) -0.05914(8)
H47 H 0.6800 0.5461 -0.0665
H48 H 0.5461 0.5453 -0.0588
H49 H 0.6061 0.4394 -0.0774
C48 C 0.5421(3) 0.3844(3) -0.00359(9)
H50 H 0.5627 0.3640 0.0224
H51 H 0.5311 0.3171 -0.0187
H52 H 0.4715 0.4275 -0.0033
O15 O 0.7474(2) 0.4907(2) 0.17834(7)
C49 C 0.6921(3) 0.5293(2) 0.20396(8)
C50 C 0.5672(3) 0.5455(3) 0.20038(10)
H53 H 0.5429 0.5247 0.1748
H54 H 0.5486 0.6235 0.2050
H55 H 0.5280 0.4988 0.2190
C51 C 0.7469(2) 0.5592(2) 0.24114(7)
H56 H 0.7284 0.5026 0.2601
H57 H 0.7184 0.6314 0.2496
H58 H 0.8294 0.5630 0.2379
loop_
_geom_bond_atom_site_label_1
_geom_bond_atom_site_label_2
_geom_bond_site_symmetry_1
_geom_bond_site_symmetry_2
S1 O10 1_555 1_555
S2 O9 1_555 1_555
O1 C18 1_555 1_555
O2 C17 1_555 1_555
O3 H1 1_555 1_555
O4 H2 1_555 1_555
O5 C21 1_555 1_555
O6 C22 1_555 1_555
O7 H3 1_555 1_555
O8 H4 1_555 1_555
O11 S1 1_555 1_555
O12 S2 1_555 1_555
N1 C15 1_555 1_555
N2 C16 1_555 1_555
N3 C19 1_555 1_555
N4 C20 1_555 1_555
N5 S2 1_555 1_555
N6 S1 1_555 1_555
C1 C2 1_555 1_555
C2 C3 1_555 1_555
C3 C5 1_555 1_555
C4 C1 1_555 1_555
C5 H5 1_555 1_555
C6 C4 1_555 1_555
H6 C6 1_555 1_555
C7 C5 1_555 1_555
H7 C7 1_555 1_555
C8 C6 1_555 1_555
H8 C8 1_555 1_555
C9 C8 1_555 1_555
H9 C9 1_555 1_555
C10 C7 1_555 1_555
H10 C10 1_555 1_555
C11 C10 1_555 1_555
H11 C11 1_555 1_555
C12 C9 1_555 1_555
H12 C12 1_555 1_555
C13 N5 1_555 1_555
C14 N6 1_555 1_555
C15 N5 1_555 1_555
H13 C15 1_555 1_555
C16 N6 1_555 1_555
H14 C16 1_555 1_555
C17 N1 1_555 1_555
C18 N2 1_555 1_555
C19 O3 1_555 1_555
C20 O4 1_555 1_555
C21 N4 1_555 1_555
C22 N3 1_555 1_555
C23 O7 1_555 1_555
C24 O8 1_555 1_555
C25 C2 1_555 1_555
H15 C25 1_555 1_555
H16 C25 1_555 1_555
C26 C1 1_555 1_555
H17 C26 1_555 1_555
H18 C26 1_555 1_555
C27 C20 1_555 1_555
H19 C27 1_555 1_555
H20 C27 1_555 1_555
H21 C27 1_555 1_555
C28 C19 1_555 1_555
H22 C28 1_555 1_555
H23 C28 1_555 1_555
H24 C28 1_555 1_555
C29 N4 1_555 1_555
H25 C29 1_555 1_555
H26 C29 1_555 1_555
H27 C29 1_555 1_555
C30 N3 1_555 1_555
H28 C30 1_555 1_555
H29 C30 1_555 1_555
H30 C30 1_555 1_555
C31 S1 1_555 1_555
C32 S2 1_555 1_555
C33 C32 1_555 1_555
H31 C33 1_555 1_555
C34 C31 1_555 1_555
H32 C34 1_555 1_555
C35 C33 1_555 1_555
H33 C35 1_555 1_555
C36 C34 1_555 1_555
H34 C36 1_555 1_555
C37 C36 1_555 1_555
H35 C37 1_555 1_555
C38 C35 1_555 1_555
H36 C38 1_555 1_555
C39 C38 1_555 1_555
H37 C39 1_555 1_555
C40 C37 1_555 1_555
H38 C40 1_555 1_555
C41 C32 1_555 1_555
H39 C41 1_555 1_555
C42 C31 1_555 1_555
H40 C42 1_555 1_555
O13 C43 1_555 1_555
C43 C44 1_555 1_555
C44 H41 1_555 1_555
H42 C44 1_555 1_555
H43 C44 1_555 1_555
C45 C43 1_555 1_555
H44 C45 1_555 1_555
H45 C45 1_555 1_555
H46 C45 1_555 1_555
O14 C46 1_555 1_555
C46 C47 1_555 1_555
C47 H47 1_555 1_555
H48 C47 1_555 1_555
H49 C47 1_555 1_555
C48 C46 1_555 1_555
H50 C48 1_555 1_555
H51 C48 1_555 1_555
H52 C48 1_555 1_555
O15 C49 1_555 1_555
C49 C50 1_555 1_555
C50 H53 1_555 1_555
H54 C50 1_555 1_555
H55 C50 1_555 1_555
C51 C49 1_555 1_555
H56 C51 1_555 1_555
H57 C51 1_555 1_555
H58 C51 1_555 1_555
N1 C24 1_555 1_555
N2 C23 1_555 1_555
C1 C16 1_555 1_555
C2 C15 1_555 1_555
C3 C13 1_555 1_555
C4 C14 1_555 1_555
C11 C13 1_555 1_555
C12 C14 1_555 1_555
C17 C20 1_555 1_555
C18 C19 1_555 1_555
C21 C24 1_555 1_555
C22 C23 1_555 1_555
C23 C26 1_555 1_555
C24 C25 1_555 1_555
C39 C41 1_555 1_555
C40 C42 1_555 1_555

#END
