
#######################################################################
#
#                 Cambridge Crystallographic Data Centre
#                                CCDC 
#
#######################################################################
#
# If this CIF has been generated from an entry in the Cambridge 
# Structural Database, then it will include bibliographic, chemical, 
# crystal, experimental, refinement or atomic coordinate data resulting 
# from the CCDC's data processing and validation procedures.
#
#######################################################################

data_HOYFAD
_chemical_formula_moiety         'C28 H23 N3'
_chemical_name_systematic        
9-Ethyl-3,6-bis(2-(2-pyridinyl)vinyl)-9H-carbazole
_symmetry_cell_setting           trigonal
_symmetry_space_group_name_H-M   'P 32'
_symmetry_Int_Tables_number      145
_space_group_name_Hall           'P 32'
loop_
_symmetry_equiv_pos_site_id
_symmetry_equiv_pos_as_xyz
1 x,y,z
2 -y,x-y,2/3+z
3 -x+y,-x,1/3+z
_cell_length_a                   25.603(18)
_cell_length_b                   25.603(18)
_cell_length_c                   6.177(6)
_cell_angle_alpha                90
_cell_angle_beta                 90
_cell_angle_gamma                120
_cell_volume                     3506.63
_cell_formula_units_Z            6
_exptl_crystal_preparation       fluorescent
loop_
_atom_site_label
_atom_site_type_symbol
_atom_site_fract_x
_atom_site_fract_y
_atom_site_fract_z
N1 N 0.5576(3) 0.3787(5) -0.4239(13)
N2 N 0.5059(5) 0.5927(5) 0.537(3)
N3 N 0.3360(4) 0.0898(4) 0.440(2)
C1 C 0.5616(5) 0.4275(7) -0.295(2)
C2 C 0.5899(4) 0.4866(6) -0.3280(17)
H1 H 0.6136 0.5040 -0.4501
C3 C 0.5824(5) 0.5211(5) -0.172(3)
H2 H 0.6030 0.5627 -0.1884
C4 C 0.5445(6) 0.4956(8) 0.015(2)
C5 C 0.5168(4) 0.4355(6) 0.0379(17)
H3 H 0.4921 0.4177 0.1575
C6 C 0.5238(4) 0.4005(5) -0.106(2)
C7 C 0.5015(4) 0.3349(5) -0.1243(18)
C8 C 0.4638(4) 0.2854(6) 0.0104(15)
H4 H 0.4496 0.2916 0.1408
C9 C 0.4486(4) 0.2283(5) -0.053(2)
C10 C 0.4707(5) 0.2191(5) -0.250(2)
H5 H 0.4609 0.1800 -0.2870
C11 C 0.5055(5) 0.2642(6) -0.3870(16)
H6 H 0.5179 0.2569 -0.5194
C12 C 0.5216(4) 0.3215(6) -0.321(2)
C13 C 0.4952(6) 0.6329(7) 0.678(2)
H7 H 0.4792 0.6200 0.8159
C14 C 0.5078(8) 0.6860(8) 0.611(3)
H8 H 0.4948 0.7082 0.6914
C15 C 0.5392(8) 0.7094(6) 0.429(4)
H9 H 0.5545 0.7501 0.3973
C16 C 0.5484(6) 0.6743(9) 0.292(2)
H10 H 0.5657 0.6895 0.1571
C17 C 0.5339(6) 0.6205(8) 0.342(2)
C18 C 0.5345(4) 0.5365(5) 0.1907(19)
H11 H 0.5147 0.5189 0.3194
C19 C 0.5531(6) 0.5924(7) 0.158(3)
H12 H 0.5756 0.6137 0.0379
C20 C 0.3021(5) 0.0404(9) 0.5830(17)
H13 H 0.2931 0.0490 0.7196
C21 C 0.2826(5) -0.0171(7) 0.535(2)
H14 H 0.2590 -0.0489 0.6275
C22 C 0.3003(5) -0.0248(5) 0.339(3)
H15 H 0.2896 -0.0641 0.3010
C23 C 0.3324(4) 0.0187(7) 0.1884(16)
H16 H 0.3413 0.0094 0.0527
C24 C 0.3496(5) 0.0727(7) 0.245(2)
C25 C 0.4104(4) 0.1793(6) 0.1026(17)
H17 H 0.4007 0.1913 0.2314
C26 C 0.3901(4) 0.1241(6) 0.0795(15)
H18 H 0.3999 0.1120 -0.0488
C27 C 0.5925(4) 0.3881(4) -0.6179(14)
H19 H 0.5963 0.4229 -0.6944
H20 H 0.5713 0.3533 -0.7116
C28 C 0.6555(4) 0.3981(4) -0.5703(13)
H21 H 0.6771 0.4331 -0.4800
H22 H 0.6770 0.4042 -0.7038
H23 H 0.6521 0.3634 -0.4972
N4 N 0.1099(4) 0.9554(5) -0.4255(13)
N5 N 0.3281(4) 1.2416(4) 0.423(2)
N6 N 0.1609(4) 0.7408(4) 0.542(2)
C29 C 0.1442(4) 1.0115(7) -0.321(2)
C30 C 0.1589(5) 1.0680(6) -0.3848(16)
H24 H 0.1444 1.0752 -0.5128
C31 C 0.1961(5) 1.1132(5) -0.250(2)
H25 H 0.2071 1.1524 -0.2903
C32 C 0.2200(4) 1.1058(6) -0.049(2)
C33 C 0.2034(4) 1.0481(6) 0.0118(14)
H26 H 0.2167 1.0408 0.1424
C34 C 0.1646(4) 0.9984(5) -0.131(2)
C35 C 0.1423(4) 0.9348(5) -0.1094(19)
C36 C 0.1503(4) 0.8990(6) 0.0400(16)
H27 H 0.1753 0.9168 0.1587
C37 C 0.1215(6) 0.8367(8) 0.015(2)
C38 C 0.0841(6) 0.8113(5) -0.172(3)
H28 H 0.0649 0.7697 -0.1879
C39 C 0.0741(5) 0.8439(6) -0.333(2)
H29 H 0.0489 0.8261 -0.4513
C40 C 0.1064(5) 0.9066(7) -0.295(2)
C41 C 0.3653(5) 1.2890(8) 0.5785(16)
H30 H 0.3765 1.2796 0.7097
C42 C 0.3824(5) 1.3454(7) 0.527(2)
H31 H 0.4049 1.3764 0.6241
C43 C 0.3675(6) 1.3581(6) 0.336(3)
H32 H 0.3834 1.3986 0.3006
C44 C 0.3313(6) 1.3173(6) 0.189(2)
H33 H 0.3186 1.3280 0.0641
C45 C 0.3158(5) 1.2632(9) 0.2327(19)
C46 C 0.2575(5) 1.1541(6) 0.1128(19)
H34 H 0.2669 1.1428 0.2435
C47 C 0.2770(5) 1.2104(7) 0.0781(16)
H35 H 0.2668 1.2204 -0.0538
C48 C 0.1724(6) 0.7006(7) 0.6842(19)
H36 H 0.1918 0.7134 0.8171
C49 C 0.1532(6) 0.6455(6) 0.610(2)
H37 H 0.1576 0.6185 0.6980
C50 C 0.1283(6) 0.6268(5) 0.418(3)
H38 H 0.1170 0.5876 0.3771
C51 C 0.1181(6) 0.6622(8) 0.2756(18)
H39 H 0.0990 0.6481 0.1428
C52 C 0.1379(6) 0.7185(8) 0.344(2)
C53 C 0.1330(5) 0.7983(5) 0.1913(19)
H40 H 0.1523 0.8160 0.3207
C54 C 0.1168(6) 0.7474(7) 0.156(2)
H41 H 0.0946 0.7264 0.0350
C55 C 0.0719(5) 0.9449(4) -0.6196(13)
H42 H 0.0669 0.9093 -0.6942
H43 H 0.0928 0.9789 -0.7169
C56 C 0.0108(5) 0.9364(4) -0.5702(13)
H44 H -0.0136 0.8979 -0.5022
H45 H -0.0081 0.9380 -0.7023
H46 H 0.0149 0.9678 -0.4747
loop_
_geom_bond_atom_site_label_1
_geom_bond_atom_site_label_2
_geom_bond_site_symmetry_1
_geom_bond_site_symmetry_2
N1 C1 1_555 1_555
N2 C13 1_555 1_555
N3 C20 1_555 1_555
N4 C29 1_555 1_555
N5 C41 1_555 1_555
N6 C48 1_555 1_555
C1 C2 1_555 1_555
C2 H1 1_555 1_555
C3 C2 1_555 1_555
H2 C3 1_555 1_555
C4 C3 1_555 1_555
C5 C4 1_555 1_555
H3 C5 1_555 1_555
C6 C1 1_555 1_555
C7 C6 1_555 1_555
C8 C7 1_555 1_555
H4 C8 1_555 1_555
C9 C8 1_555 1_555
C10 C9 1_555 1_555
H5 C10 1_555 1_555
C11 C10 1_555 1_555
H6 C11 1_555 1_555
C12 N1 1_555 1_555
C13 H7 1_555 1_555
C14 C13 1_555 1_555
H8 C14 1_555 1_555
C15 C14 1_555 1_555
H9 C15 1_555 1_555
C16 C15 1_555 1_555
H10 C16 1_555 1_555
C17 N2 1_555 1_555
C18 C4 1_555 1_555
H11 C18 1_555 1_555
C19 C17 1_555 1_555
H12 C19 1_555 1_555
C20 H13 1_555 1_555
C21 C20 1_555 1_555
H14 C21 1_555 1_555
C22 C21 1_555 1_555
H15 C22 1_555 1_555
C23 C22 1_555 1_555
H16 C23 1_555 1_555
C24 N3 1_555 1_555
C25 C9 1_555 1_555
H17 C25 1_555 1_555
C26 C24 1_555 1_555
H18 C26 1_555 1_555
C27 N1 1_555 1_555
H19 C27 1_555 1_555
H20 C27 1_555 1_555
C28 C27 1_555 1_555
H21 C28 1_555 1_555
H22 C28 1_555 1_555
H23 C28 1_555 1_555
C29 C30 1_555 1_555
C30 H24 1_555 1_555
C31 C30 1_555 1_555
H25 C31 1_555 1_555
C32 C31 1_555 1_555
C33 C32 1_555 1_555
H26 C33 1_555 1_555
C34 C29 1_555 1_555
C35 C34 1_555 1_555
C36 C35 1_555 1_555
H27 C36 1_555 1_555
C37 C36 1_555 1_555
C38 C37 1_555 1_555
H28 C38 1_555 1_555
C39 C38 1_555 1_555
H29 C39 1_555 1_555
C40 N4 1_555 1_555
C41 H30 1_555 1_555
C42 C41 1_555 1_555
H31 C42 1_555 1_555
C43 C42 1_555 1_555
H32 C43 1_555 1_555
C44 C43 1_555 1_555
H33 C44 1_555 1_555
C45 N5 1_555 1_555
C46 C32 1_555 1_555
H34 C46 1_555 1_555
C47 C45 1_555 1_555
H35 C47 1_555 1_555
C48 H36 1_555 1_555
C49 C48 1_555 1_555
H37 C49 1_555 1_555
C50 C49 1_555 1_555
H38 C50 1_555 1_555
C51 C50 1_555 1_555
H39 C51 1_555 1_555
C52 N6 1_555 1_555
C53 C37 1_555 1_555
H40 C53 1_555 1_555
C54 C52 1_555 1_555
H41 C54 1_555 1_555
C55 N4 1_555 1_555
H42 C55 1_555 1_555
H43 C55 1_555 1_555
C56 C55 1_555 1_555
H44 C56 1_555 1_555
H45 C56 1_555 1_555
H46 C56 1_555 1_555
C5 C6 1_555 1_555
C7 C12 1_555 1_555
C11 C12 1_555 1_555
C16 C17 1_555 1_555
C18 C19 1_555 1_555
C23 C24 1_555 1_555
C25 C26 1_555 1_555
C33 C34 1_555 1_555
C35 C40 1_555 1_555
C39 C40 1_555 1_555
C44 C45 1_555 1_555
C46 C47 1_555 1_555
C51 C52 1_555 1_555
C53 C54 1_555 1_555

#END
