
#######################################################################
#
#                 Cambridge Crystallographic Data Centre
#                                CCDC 
#
#######################################################################
#
# If this CIF has been generated from an entry in the Cambridge 
# Structural Database, then it will include bibliographic, chemical, 
# crystal, experimental, refinement or atomic coordinate data resulting 
# from the CCDC's data processing and validation procedures.
#
#######################################################################

data_HOYKEN
_chemical_formula_moiety         'C120 H168 Mg4 N3 O15 1-,C6 H16 N1 1+'
_chemical_name_systematic        
'triethylammonium tris(\m-2-[bis(3,5-di-t-butyl-2-oxidobenzyl)amino]propanoato)-tris(phenylmethanol)-tetra-magnesium unknown solvate'
_symmetry_cell_setting           trigonal
_symmetry_space_group_name_H-M   'P 3 2 1'
_symmetry_Int_Tables_number      150
_space_group_name_Hall           'P 3 2"'
loop_
_symmetry_equiv_pos_site_id
_symmetry_equiv_pos_as_xyz
1 x,y,z
2 -y,x-y,z
3 -x+y,-x,z
4 y,x,-z
5 -x,-x+y,-z
6 x-y,-y,-z
_cell_length_a                   21.817(3)
_cell_length_b                   21.817(3)
_cell_length_c                   16.960(3)
_cell_angle_alpha                90
_cell_angle_beta                 90
_cell_angle_gamma                120
_cell_volume                     6991.12
_exptl_crystal_colour            'light colorless'
_exptl_crystal_description       block
_cell_formula_units_Z            2
loop_
_atom_site_label
_atom_site_type_symbol
_atom_site_fract_x
_atom_site_fract_y
_atom_site_fract_z
Mg1 Mg 0.50478(5) 0.20349(5) 0.16683(6)
Mg2 Mg 0.6667 0.3333 0.25875(10)
O1 O 0.75114(10) 0.34941(11) 0.33128(11)
H1 H 0.7741(4) 0.3265(4) 0.3273(13)
O2 O 0.46834(10) 0.17087(10) 0.27253(12)
O3 O 0.47362(9) 0.16352(10) 0.06403(11)
O4 O 0.57793(9) 0.30968(9) 0.18763(11)
O5 O 0.59709(9) 0.41930(9) 0.17307(11)
N1 N 0.43829(12) 0.25333(13) 0.15236(16)
C1 C 0.52911(15) 0.16058(15) -0.09082(17)
C2 C 0.55974(14) 0.35460(15) 0.16478(17)
C3 C 0.45076(14) 0.18380(15) 0.00347(19)
C4 C 0.48814(15) 0.32543(16) 0.12373(19)
H2 H 0.4970 0.3196 0.0683
C5 C 0.59727(15) 0.21177(17) -0.04754(19)
H3 H 0.6119 0.2594 -0.0633
H4 H 0.6337 0.2010 -0.0604
H5 H 0.5890 0.2071 0.0083
C6 C 0.35832(18) 0.07313(17) 0.3206(2)
C7 C 0.47130(14) 0.18080(15) -0.07558(19)
C8 C 0.40308(14) 0.20861(16) 0.0148(2)
C9 C 0.37546(17) 0.22702(18) -0.0505(2)
H6 H 0.3439 0.2432 -0.0415
C10 C 0.54693(18) 0.16544(19) -0.17847(19)
H7 H 0.5702 0.2141 -0.1948
H8 H 0.5041 0.1388 -0.2082
H9 H 0.5777 0.1465 -0.1875
C11 C 0.29580(19) 0.1558(2) 0.2821(3)
H10 H 0.2758 0.1836 0.2702
C12 C 0.39298(17) 0.22195(17) -0.1241(2)
C13 C 0.38945(19) 0.02830(18) 0.3414(2)
C14 C 0.44258(16) 0.20031(15) -0.1356(2)
H11 H 0.4570 0.1991 -0.1869
C15 C 0.25262(18) 0.0868(2) 0.3150(3)
C16 C 0.46195(16) 0.37904(18) 0.1232(2)
H12 H 0.4142 0.3565 0.1038
H13 H 0.4919 0.4181 0.0895
H14 H 0.4634 0.3960 0.1758
C17 C 0.37889(14) 0.21260(17) 0.0985(2)
H15 H 0.3494 0.2343 0.0966
H16 H 0.3503 0.1650 0.1190
C18 C 0.36557(18) 0.18118(18) 0.2678(2)
C19 C 0.39881(17) 0.14235(17) 0.28635(19)
C20 C 0.50164(16) 0.08403(15) -0.06253(19)
H17 H 0.5386 0.0725 -0.0676
H18 H 0.4618 0.0521 -0.0941
H19 H 0.4874 0.0798 -0.0083
C21 C 0.2929(2) 0.2435(3) -0.1710(4)
H20 H 0.2598 0.1987 -0.1482
H21 H 0.2716 0.2527 -0.2156
H22 H 0.3059 0.2803 -0.1325
C22 C 0.3342(2) -0.04688(19) 0.3663(3)
H23 H 0.3053 -0.0447 0.4077
H24 H 0.3577 -0.0714 0.3849
H25 H 0.3049 -0.0717 0.3220
C23 C 0.41035(17) 0.25469(16) 0.2325(2)
H26 H 0.3820 0.2774 0.2290
H27 H 0.4498 0.2828 0.2674
C24 C 0.3426(3) 0.1909(3) -0.2596(3)
H28 H 0.3824 0.1852 -0.2725
H29 H 0.3285 0.2066 -0.3054
H30 H 0.3040 0.1464 -0.2422
C25 C 0.36185(19) 0.24169(18) -0.1987(2)
C26 C 0.8019(2) 0.4213(2) 0.3650(2)
H31 H 0.8220 0.4616 0.3336
C27 C 0.7917(3) 0.3748(4) 0.5764(3)
H32 H 0.7650 0.3348 0.6071
C28 C 0.4324(2) 0.02200(19) 0.2735(2)
H33 H 0.4040 0.0070 0.2266
H34 H 0.4462 -0.0121 0.2871
H35 H 0.4739 0.0671 0.2645
C29 C 0.2859(2) 0.0506(2) 0.3306(2)
H36 H 0.2579 0.0051 0.3504
C30 C 0.1737(2) 0.0588(2) 0.3325(4)
C31 C 0.1393(3) -0.0096(4) 0.3730(4)
H37 H 0.1328 -0.0461 0.3367
H38 H 0.0941 -0.0193 0.3928
H39 H 0.1685 -0.0084 0.4161
C32 C 0.7775(3) 0.3663(3) 0.4976(3)
H40 H 0.7424 0.3232 0.4776
C33 C 0.8178(2) 0.4248(3) 0.4468(3)
C34 C 0.1389(3) 0.0700(6) 0.2664(4)
H41 H 0.1660 0.1184 0.2494
H42 H 0.0924 0.0598 0.2818
H43 H 0.1353 0.0393 0.2239
C35 C 0.4380(2) 0.0626(2) 0.4129(2)
H44 H 0.4757 0.1088 0.3987
H45 H 0.4574 0.0337 0.4293
H46 H 0.4111 0.0666 0.4553
C36 C 0.1703(3) 0.0977(6) 0.4037(6)
H47 H 0.2144 0.1177 0.4317
H48 H 0.1326 0.0655 0.4375
H49 H 0.1617 0.1349 0.3874
C37 C 0.8675(3) 0.4869(3) 0.4823(4)
H50 H 0.8929 0.5270 0.4512
C38 C 0.8810(3) 0.4917(3) 0.5617(3)
H51 H 0.9173 0.5329 0.5838
C39 C 0.8344(4) 0.4275(4) 0.6124(3)
H52 H 0.8382 0.4283 0.6670
C40 C 0.4116(3) 0.3165(3) -0.2208(3)
H53 H 0.4327 0.3438 -0.1740
H54 H 0.3862 0.3355 -0.2481
H55 H 0.4479 0.3186 -0.2544
Mg1A Mg 0.79651(5) 0.30129(7) 0.16683(6)
O1A O 0.65059(11) 0.40173(15) 0.33128(11)
H1A H 0.6735(4) 0.4476(6) 0.3273(13)
O2A O 0.82913(10) 0.29747(14) 0.27253(12)
O3A O 0.83648(10) 0.31010(13) 0.06403(11)
O4A O 0.69032(9) 0.26825(13) 0.18763(11)
O5A O 0.58070(9) 0.17779(13) 0.17307(11)
N1A N 0.74667(13) 0.18496(18) 0.15236(16)
C1A C 0.83942(15) 0.36853(21) -0.09082(17)
C2A C 0.64540(15) 0.20514(21) 0.16478(17)
C3A C 0.81620(15) 0.26696(21) 0.00347(19)
C4A C 0.67457(16) 0.16271(22) 0.12373(19)
H2A H 0.6804 0.1774 0.0683
C5A C 0.78823(17) 0.38550(23) -0.04754(19)
H3A H 0.7406 0.3525 -0.0633
H4A H 0.7990 0.4327 -0.0604
H5A H 0.7929 0.3819 0.0083
C6A C 0.92687(17) 0.28519(25) 0.3206(2)
C7A C 0.81920(15) 0.29050(21) -0.07558(19)
C8A C 0.79139(16) 0.19447(21) 0.0148(2)
C9A C 0.77298(18) 0.14844(25) -0.0505(2)
H6A H 0.7568 0.1007 -0.0415
C10A C 0.83456(19) 0.38149(26) -0.17847(19)
H7A H 0.7859 0.3561 -0.1948
H8A H 0.8612 0.3653 -0.2082
H9A H 0.8535 0.4312 -0.1875
C11A C 0.8442(2) 0.14000(28) 0.2821(3)
H10A H 0.8164 0.0922 0.2702
C12A C 0.77805(17) 0.17103(24) -0.1241(2)
C13A C 0.97170(18) 0.36115(26) 0.3414(2)
C14A C 0.79969(15) 0.24227(22) -0.1356(2)
H11A H 0.8009 0.2579 -0.1869
C15A C 0.9132(2) 0.16582(27) 0.3150(3)
C16A C 0.62096(18) 0.08291(24) 0.1232(2)
H12A H 0.6435 0.0577 0.1038
H13A H 0.5819 0.0738 0.0895
H14A H 0.6040 0.0674 0.1758
C17A C 0.78740(17) 0.16629(22) 0.0985(2)
H15A H 0.7657 0.1151 0.0966
H16A H 0.8350 0.1853 0.1190
C18A C 0.81882(18) 0.18439(25) 0.2678(2)
C19A C 0.85765(17) 0.25646(24) 0.28635(19)
C20A C 0.91597(15) 0.41761(22) -0.06253(19)
H17A H 0.9275 0.4661 -0.0676
H18A H 0.9479 0.4097 -0.0941
H19A H 0.9202 0.4076 -0.0083
C21A C 0.7565(3) 0.0494(4) -0.1710(4)
H20A H 0.8013 0.0611 -0.1482
H21A H 0.7473 0.0189 -0.2156
H22A H 0.7197 0.0256 -0.1325
C22A C 1.04688(19) 0.38108(28) 0.3663(3)
H23A H 1.0447 0.3500 0.4077
H24A H 1.0714 0.4291 0.3849
H25A H 1.0717 0.3766 0.3220
C23A C 0.74531(16) 0.15566(23) 0.2325(2)
H26A H 0.7226 0.1046 0.2290
H27A H 0.7172 0.1670 0.2674
C24A C 0.8091(3) 0.1517(4) -0.2596(3)
H28A H 0.8148 0.1972 -0.2725
H29A H 0.7934 0.1219 -0.3054
H30A H 0.8536 0.1576 -0.2422
C25A C 0.75831(18) 0.12016(26) -0.1987(2)
C26A C 0.5787(2) 0.3806(3) 0.3650(2)
H31A H 0.5384 0.3604 0.3336
C27A C 0.6252(4) 0.4169(5) 0.5764(3)
H32A H 0.6652 0.4302 0.6071
C28A C 0.97800(19) 0.41040(28) 0.2735(2)
H33A H 0.9930 0.3970 0.2266
H34A H 1.0121 0.4583 0.2871
H35A H 0.9329 0.4068 0.2645
C29A C 0.9494(2) 0.2353(3) 0.3306(2)
H36A H 0.9949 0.2528 0.3504
C30A C 0.9412(2) 0.1149(3) 0.3325(4)
C31A C 1.0096(4) 0.1489(5) 0.3730(4)
H37A H 1.0461 0.1789 0.3367
H38A H 1.0193 0.1134 0.3928
H39A H 1.0084 0.1769 0.4161
C32A C 0.6337(3) 0.4112(4) 0.4976(3)
H40A H 0.6768 0.4192 0.4776
C33A C 0.5752(3) 0.3930(4) 0.4468(3)
C34A C 0.9300(6) 0.0689(7) 0.2664(4)
H41A H 0.8816 0.0476 0.2494
H42A H 0.9402 0.0326 0.2818
H43A H 0.9607 0.0960 0.2239
C35A C 0.9374(2) 0.3754(3) 0.4129(2)
H44A H 0.8912 0.3669 0.3987
H45A H 0.9663 0.4237 0.4293
H46A H 0.9334 0.3445 0.4553
C36A C 0.9023(6) 0.0726(7) 0.4037(6)
H47A H 0.8823 0.0967 0.4317
H48A H 0.9345 0.0671 0.4375
H49A H 0.8651 0.0268 0.3874
C37A C 0.5131(3) 0.3806(4) 0.4823(4)
H50A H 0.4730 0.3659 0.4512
C38A C 0.5083(3) 0.3893(4) 0.5617(3)
H51A H 0.4671 0.3844 0.5838
C39A C 0.5725(4) 0.4069(6) 0.6124(3)
H52A H 0.5717 0.4099 0.6670
C40A C 0.6835(3) 0.0951(4) -0.2208(3)
H53A H 0.6562 0.0889 -0.1740
H54A H 0.6645 0.0507 -0.2481
H55A H 0.6814 0.1293 -0.2544
Mg1B Mg 0.69871(7) 0.49522(5) 0.16683(6)
O1B O 0.59827(15) 0.24886(10) 0.33128(11)
H1B H 0.5524(6) 0.2259(4) 0.3273(13)
O2B O 0.70253(14) 0.53166(10) 0.27253(12)
O3B O 0.68990(13) 0.52638(9) 0.06403(11)
O4B O 0.73175(13) 0.42207(9) 0.18763(11)
O5B O 0.82221(13) 0.40291(9) 0.17307(11)
N1B N 0.81504(18) 0.56171(12) 0.15236(16)
C1B C 0.63147(21) 0.47089(15) -0.09082(17)
C2B C 0.79486(21) 0.44026(14) 0.16478(17)
C3B C 0.73304(21) 0.54924(14) 0.00347(19)
C4B C 0.83729(22) 0.51186(15) 0.12373(19)
H2B H 0.8226 0.5030 0.0683
C5B C 0.61450(23) 0.40273(15) -0.04754(19)
H3B H 0.6475 0.3881 -0.0633
H4B H 0.5673 0.3663 -0.0604
H5B H 0.6181 0.4110 0.0083
C6B C 0.71481(25) 0.64168(18) 0.3206(2)
C7B C 0.70950(21) 0.52870(14) -0.07558(19)
C8B C 0.80553(21) 0.59692(14) 0.0148(2)
C9B C 0.85156(25) 0.62454(17) -0.0505(2)
H6B H 0.8993 0.6561 -0.0415
C10B C 0.61851(26) 0.45307(18) -0.17847(19)
H7B H 0.6439 0.4298 -0.1948
H8B H 0.6347 0.4959 -0.2082
H9B H 0.5688 0.4223 -0.1875
C11B C 0.86000(28) 0.70420(19) 0.2821(3)
H10B H 0.9078 0.7242 0.2702
C12B C 0.82897(24) 0.60702(17) -0.1241(2)
C13B C 0.63885(26) 0.61055(19) 0.3414(2)
C14B C 0.75773(22) 0.55742(16) -0.1356(2)
H11B H 0.7421 0.5430 -0.1869
C15B C 0.83418(27) 0.74738(18) 0.3150(3)
C16B C 0.91709(24) 0.53805(16) 0.1232(2)
H12B H 0.9423 0.5858 0.1038
H13B H 0.9262 0.5081 0.0895
H14B H 0.9326 0.5366 0.1758
C17B C 0.83371(22) 0.62111(14) 0.0985(2)
H15B H 0.8849 0.6506 0.0966
H16B H 0.8147 0.6497 0.1190
C18B C 0.81561(25) 0.63443(18) 0.2678(2)
C19B C 0.74354(24) 0.60119(17) 0.28635(19)
C20B C 0.58239(22) 0.49836(16) -0.06253(19)
H17B H 0.5339 0.4614 -0.0676
H18B H 0.5903 0.5382 -0.0941
H19B H 0.5924 0.5126 -0.0083
C21B C 0.9506(4) 0.7071(2) -0.1710(4)
H20B H 0.9389 0.7402 -0.1482
H21B H 0.9811 0.7284 -0.2156
H22B H 0.9744 0.6941 -0.1325
C22B C 0.61892(28) 0.6658(2) 0.3663(3)
H23B H 0.6500 0.6947 0.4077
H24B H 0.5709 0.6423 0.3849
H25B H 0.6234 0.6951 0.3220
C23B C 0.84434(23) 0.58965(17) 0.2325(2)
H26B H 0.8954 0.6180 0.2290
H27B H 0.8330 0.5502 0.2674
C24B C 0.8483(4) 0.6574(3) -0.2596(3)
H28B H 0.8028 0.6176 -0.2725
H29B H 0.8781 0.6715 -0.3054
H30B H 0.8424 0.6960 -0.2422
C25B C 0.87984(26) 0.63815(19) -0.1987(2)
C26B C 0.6194(3) 0.1981(2) 0.3650(2)
H31B H 0.6396 0.1780 0.3336
C27B C 0.5831(5) 0.2083(3) 0.5764(3)
H32B H 0.5698 0.2350 0.6071
C28B C 0.58960(28) 0.5676(2) 0.2735(2)
H33B H 0.6030 0.5960 0.2266
H34B H 0.5417 0.5538 0.2871
H35B H 0.5932 0.5261 0.2645
C29B C 0.7647(3) 0.7141(2) 0.3306(2)
H36B H 0.7472 0.7421 0.3504
C30B C 0.8851(3) 0.8263(2) 0.3325(4)
C31B C 0.8511(5) 0.8607(3) 0.3730(4)
H37B H 0.8211 0.8672 0.3367
H38B H 0.8866 0.9059 0.3928
H39B H 0.8231 0.8315 0.4161
C32B C 0.5888(4) 0.2225(3) 0.4976(3)
H40B H 0.5808 0.2576 0.4776
C33B C 0.6070(4) 0.1822(2) 0.4468(3)
C34B C 0.9311(7) 0.8611(3) 0.2664(4)
H41B H 0.9524 0.8340 0.2494
H42B H 0.9674 0.9076 0.2818
H43B H 0.9040 0.8647 0.2239
C35B C 0.6246(3) 0.5620(2) 0.4129(2)
H44B H 0.6331 0.5243 0.3987
H45B H 0.5763 0.5426 0.4293
H46B H 0.6555 0.5889 0.4553
C36B C 0.9274(7) 0.8297(3) 0.4037(6)
H47B H 0.9033 0.7856 0.4317
H48B H 0.9329 0.8674 0.4375
H49B H 0.9732 0.8383 0.3874
C37B C 0.6194(4) 0.1325(3) 0.4823(4)
H50B H 0.6341 0.1071 0.4512
C38B C 0.6107(4) 0.1190(3) 0.5617(3)
H51B H 0.6156 0.0827 0.5838
C39B C 0.5931(6) 0.1656(4) 0.6124(3)
H52B H 0.5901 0.1618 0.6670
C40B C 0.9049(4) 0.5884(3) -0.2208(3)
H53B H 0.9111 0.5673 -0.1740
H54B H 0.9493 0.6138 -0.2481
H55B H 0.8707 0.5521 -0.2544
loop_
_geom_bond_atom_site_label_1
_geom_bond_atom_site_label_2
_geom_bond_site_symmetry_1
_geom_bond_site_symmetry_2
Mg1 O2 1_555 1_555
Mg2 O1 1_555 1_555
O1 H1 1_555 1_555
O2 C19 1_555 1_555
O3 Mg1 1_555 1_555
O4 Mg1 1_555 1_555
O5 C2 1_555 1_555
N1 Mg1 1_555 1_555
C1 C5 1_555 1_555
C2 O4 1_555 1_555
C3 O3 1_555 1_555
C4 N1 1_555 1_555
H2 C4 1_555 1_555
C5 H3 1_555 1_555
H4 C5 1_555 1_555
H5 C5 1_555 1_555
C6 C13 1_555 1_555
C7 C1 1_555 1_555
C8 C3 1_555 1_555
C9 C8 1_555 1_555
H6 C9 1_555 1_555
C10 C1 1_555 1_555
H7 C10 1_555 1_555
H8 C10 1_555 1_555
H9 C10 1_555 1_555
C11 H10 1_555 1_555
C12 C9 1_555 1_555
C13 C22 1_555 1_555
C14 C7 1_555 1_555
H11 C14 1_555 1_555
C15 C11 1_555 1_555
C16 C4 1_555 1_555
H12 C16 1_555 1_555
H13 C16 1_555 1_555
H14 C16 1_555 1_555
C17 N1 1_555 1_555
H15 C17 1_555 1_555
H16 C17 1_555 1_555
C18 C11 1_555 1_555
C19 C6 1_555 1_555
C20 C1 1_555 1_555
H17 C20 1_555 1_555
H18 C20 1_555 1_555
H19 C20 1_555 1_555
C21 H20 1_555 1_555
H21 C21 1_555 1_555
H22 C21 1_555 1_555
C22 H23 1_555 1_555
H24 C22 1_555 1_555
H25 C22 1_555 1_555
C23 N1 1_555 1_555
H26 C23 1_555 1_555
H27 C23 1_555 1_555
C24 H28 1_555 1_555
H29 C24 1_555 1_555
H30 C24 1_555 1_555
C25 C12 1_555 1_555
C26 O1 1_555 1_555
H31 C26 1_555 1_555
C27 H32 1_555 1_555
C28 C13 1_555 1_555
H33 C28 1_555 1_555
H34 C28 1_555 1_555
H35 C28 1_555 1_555
C29 C6 1_555 1_555
H36 C29 1_555 1_555
C30 C15 1_555 1_555
C31 C30 1_555 1_555
H37 C31 1_555 1_555
H38 C31 1_555 1_555
H39 C31 1_555 1_555
C32 C27 1_555 1_555
H40 C32 1_555 1_555
C33 C26 1_555 1_555
C34 C30 1_555 1_555
H41 C34 1_555 1_555
H42 C34 1_555 1_555
H43 C34 1_555 1_555
C35 C13 1_555 1_555
H44 C35 1_555 1_555
H45 C35 1_555 1_555
H46 C35 1_555 1_555
C36 C30 1_555 1_555
H47 C36 1_555 1_555
H48 C36 1_555 1_555
H49 C36 1_555 1_555
C37 C33 1_555 1_555
H50 C37 1_555 1_555
C38 C37 1_555 1_555
H51 C38 1_555 1_555
C39 C27 1_555 1_555
H52 C39 1_555 1_555
C40 C25 1_555 1_555
H53 C40 1_555 1_555
H54 C40 1_555 1_555
H55 C40 1_555 1_555
Mg1A O2A 1_555 1_555
O1A Mg2 1_555 1_555
H1A O1A 1_555 1_555
O2A C19A 1_555 1_555
O3A Mg1A 1_555 1_555
O4A Mg2 1_555 1_555
O5A Mg1 1_555 1_555
N1A Mg1A 1_555 1_555
C1A C5A 1_555 1_555
C2A O4A 1_555 1_555
C3A O3A 1_555 1_555
C4A N1A 1_555 1_555
H2A C4A 1_555 1_555
C5A H3A 1_555 1_555
H4A C5A 1_555 1_555
H5A C5A 1_555 1_555
C6A C13A 1_555 1_555
C7A C1A 1_555 1_555
C8A C3A 1_555 1_555
C9A C8A 1_555 1_555
H6A C9A 1_555 1_555
C10A C1A 1_555 1_555
H7A C10A 1_555 1_555
H8A C10A 1_555 1_555
H9A C10A 1_555 1_555
C11A H10A 1_555 1_555
C12A C9A 1_555 1_555
C13A C22A 1_555 1_555
C14A C7A 1_555 1_555
H11A C14A 1_555 1_555
C15A C11A 1_555 1_555
C16A C4A 1_555 1_555
H12A C16A 1_555 1_555
H13A C16A 1_555 1_555
H14A C16A 1_555 1_555
C17A N1A 1_555 1_555
H15A C17A 1_555 1_555
H16A C17A 1_555 1_555
C18A C11A 1_555 1_555
C19A C6A 1_555 1_555
C20A C1A 1_555 1_555
H17A C20A 1_555 1_555
H18A C20A 1_555 1_555
H19A C20A 1_555 1_555
C21A H20A 1_555 1_555
H21A C21A 1_555 1_555
H22A C21A 1_555 1_555
C22A H23A 1_555 1_555
H24A C22A 1_555 1_555
H25A C22A 1_555 1_555
C23A N1A 1_555 1_555
H26A C23A 1_555 1_555
H27A C23A 1_555 1_555
C24A H28A 1_555 1_555
H29A C24A 1_555 1_555
H30A C24A 1_555 1_555
C25A C12A 1_555 1_555
C26A O1A 1_555 1_555
H31A C26A 1_555 1_555
C27A H32A 1_555 1_555
C28A C13A 1_555 1_555
H33A C28A 1_555 1_555
H34A C28A 1_555 1_555
H35A C28A 1_555 1_555
C29A C6A 1_555 1_555
H36A C29A 1_555 1_555
C30A C15A 1_555 1_555
C31A C30A 1_555 1_555
H37A C31A 1_555 1_555
H38A C31A 1_555 1_555
H39A C31A 1_555 1_555
C32A C27A 1_555 1_555
H40A C32A 1_555 1_555
C33A C26A 1_555 1_555
C34A C30A 1_555 1_555
H41A C34A 1_555 1_555
H42A C34A 1_555 1_555
H43A C34A 1_555 1_555
C35A C13A 1_555 1_555
H44A C35A 1_555 1_555
H45A C35A 1_555 1_555
H46A C35A 1_555 1_555
C36A C30A 1_555 1_555
H47A C36A 1_555 1_555
H48A C36A 1_555 1_555
H49A C36A 1_555 1_555
C37A C33A 1_555 1_555
H50A C37A 1_555 1_555
C38A C37A 1_555 1_555
H51A C38A 1_555 1_555
C39A C27A 1_555 1_555
H52A C39A 1_555 1_555
C40A C25A 1_555 1_555
H53A C40A 1_555 1_555
H54A C40A 1_555 1_555
H55A C40A 1_555 1_555
Mg1B O5 1_555 1_555
O1B Mg2 1_555 1_555
H1B O1B 1_555 1_555
O2B Mg1B 1_555 1_555
O3B Mg1B 1_555 1_555
O4B Mg2 1_555 1_555
O5B Mg1A 1_555 1_555
N1B Mg1B 1_555 1_555
C1B C5B 1_555 1_555
C2B O4B 1_555 1_555
C3B O3B 1_555 1_555
C4B N1B 1_555 1_555
H2B C4B 1_555 1_555
C5B H3B 1_555 1_555
H4B C5B 1_555 1_555
H5B C5B 1_555 1_555
C6B C13B 1_555 1_555
C7B C1B 1_555 1_555
C8B C3B 1_555 1_555
C9B C8B 1_555 1_555
H6B C9B 1_555 1_555
C10B C1B 1_555 1_555
H7B C10B 1_555 1_555
H8B C10B 1_555 1_555
H9B C10B 1_555 1_555
C11B H10B 1_555 1_555
C12B C9B 1_555 1_555
C13B C22B 1_555 1_555
C14B C7B 1_555 1_555
H11B C14B 1_555 1_555
C15B C11B 1_555 1_555
C16B C4B 1_555 1_555
H12B C16B 1_555 1_555
H13B C16B 1_555 1_555
H14B C16B 1_555 1_555
C17B N1B 1_555 1_555
H15B C17B 1_555 1_555
H16B C17B 1_555 1_555
C18B C11B 1_555 1_555
C19B O2B 1_555 1_555
C20B C1B 1_555 1_555
H17B C20B 1_555 1_555
H18B C20B 1_555 1_555
H19B C20B 1_555 1_555
C21B H20B 1_555 1_555
H21B C21B 1_555 1_555
H22B C21B 1_555 1_555
C22B H23B 1_555 1_555
H24B C22B 1_555 1_555
H25B C22B 1_555 1_555
C23B N1B 1_555 1_555
H26B C23B 1_555 1_555
H27B C23B 1_555 1_555
C24B H28B 1_555 1_555
H29B C24B 1_555 1_555
H30B C24B 1_555 1_555
C25B C12B 1_555 1_555
C26B O1B 1_555 1_555
H31B C26B 1_555 1_555
C27B H32B 1_555 1_555
C28B C13B 1_555 1_555
H33B C28B 1_555 1_555
H34B C28B 1_555 1_555
H35B C28B 1_555 1_555
C29B C6B 1_555 1_555
H36B C29B 1_555 1_555
C30B C15B 1_555 1_555
C31B C30B 1_555 1_555
H37B C31B 1_555 1_555
H38B C31B 1_555 1_555
H39B C31B 1_555 1_555
C32B C27B 1_555 1_555
H40B C32B 1_555 1_555
C33B C26B 1_555 1_555
C34B C30B 1_555 1_555
H41B C34B 1_555 1_555
H42B C34B 1_555 1_555
H43B C34B 1_555 1_555
C35B C13B 1_555 1_555
H44B C35B 1_555 1_555
H45B C35B 1_555 1_555
H46B C35B 1_555 1_555
C36B C30B 1_555 1_555
H47B C36B 1_555 1_555
H48B C36B 1_555 1_555
H49B C36B 1_555 1_555
C37B C33B 1_555 1_555
H50B C37B 1_555 1_555
C38B C37B 1_555 1_555
H51B C38B 1_555 1_555
C39B C27B 1_555 1_555
H52B C39B 1_555 1_555
C40B C25B 1_555 1_555
H53B C40B 1_555 1_555
H54B C40B 1_555 1_555
H55B C40B 1_555 1_555
Mg2 O4 1_555 1_555
C2 C4 1_555 1_555
C3 C7 1_555 1_555
C8 C17 1_555 1_555
C12 C14 1_555 1_555
C15 C29 1_555 1_555
C18 C19 1_555 1_555
C18 C23 1_555 1_555
C21 C25 1_555 1_555
C24 C25 1_555 1_555
C32 C33 1_555 1_555
C38 C39 1_555 1_555
Mg1A O4A 1_555 1_555
O5A C2A 1_555 1_555
C2A C4A 1_555 1_555
C3A C7A 1_555 1_555
C8A C17A 1_555 1_555
C12A C14A 1_555 1_555
C15A C29A 1_555 1_555
C18A C19A 1_555 1_555
C18A C23A 1_555 1_555
C21A C25A 1_555 1_555
C24A C25A 1_555 1_555
C32A C33A 1_555 1_555
C38A C39A 1_555 1_555
Mg1B O4B 1_555 1_555
O5B C2B 1_555 1_555
C2B C4B 1_555 1_555
C3B C7B 1_555 1_555
C6B C19B 1_555 1_555
C8B C17B 1_555 1_555
C12B C14B 1_555 1_555
C15B C29B 1_555 1_555
C18B C19B 1_555 1_555
C18B C23B 1_555 1_555
C21B C25B 1_555 1_555
C24B C25B 1_555 1_555
C32B C33B 1_555 1_555
C38B C39B 1_555 1_555

#END
