
#######################################################################
#
#                 Cambridge Crystallographic Data Centre
#                                CCDC 
#
#######################################################################
#
# If this CIF has been generated from an entry in the Cambridge 
# Structural Database, then it will include bibliographic, chemical, 
# crystal, experimental, refinement or atomic coordinate data resulting 
# from the CCDC's data processing and validation procedures.
#
#######################################################################

data_HOYSIZ
_chemical_formula_moiety         'C6 N8 O11 2-,2(H4 N1 1+)'
_chemical_name_systematic        
'diammonium (4-((4-(dinitromethanidyl)-1,2,5-oxadiazol-3-yl)oxy)-1,2,5-oxadiazol-3-yl)(dinitro)methanide'
_symmetry_cell_setting           triclinic
_symmetry_space_group_name_H-M   'P -1'
_symmetry_Int_Tables_number      2
_space_group_name_Hall           '-P 1'
loop_
_symmetry_equiv_pos_site_id
_symmetry_equiv_pos_as_xyz
1 x,y,z
2 -x,-y,-z
_cell_length_a                   7.691(4)
_cell_length_b                   9.290(5)
_cell_length_c                   10.564(5)
_cell_angle_alpha                94.504(8)
_cell_angle_beta                 104.174(7)
_cell_angle_gamma                100.366(7)
_cell_volume                     713.897
_exptl_crystal_colour            yellow
_exptl_crystal_description       block
_cell_formula_units_Z            2
loop_
_atom_site_label
_atom_site_type_symbol
_atom_site_fract_x
_atom_site_fract_y
_atom_site_fract_z
N1 N 0.7561(2) 1.00177(18) 0.51679(16)
N2 N 0.6157(2) 1.20676(18) 0.45074(16)
N3 N 0.8665(2) 1.1606(2) 0.26197(17)
N4 N 0.7017(2) 0.98747(19) 0.08741(16)
N5 N 0.4799(2) 0.71787(19) -0.00331(16)
N6 N 0.2242(2) 0.5479(2) -0.00629(19)
N7 N 0.0261(2) 0.74049(17) 0.17726(15)
N8 N 0.1530(2) 0.54537(18) 0.27782(17)
O1 O 0.7339(2) 1.01468(17) 0.62892(13)
O2 O 0.8210(2) 0.90061(16) 0.47573(15)
O3 O 0.5758(2) 1.23158(18) 0.55628(15)
O4 O 0.5669(2) 1.27917(16) 0.35617(16)
O5 O 0.84563(19) 1.10926(17) 0.13184(14)
O6 O 0.49445(19) 0.86415(16) 0.19365(13)
O7 O 0.3580(2) 0.59014(18) -0.06951(15)
O8 O -0.0881(2) 0.74055(19) 0.24032(16)
O9 O 0.0457(2) 0.83166(17) 0.09742(14)
O10 O 0.0578(2) 0.53693(19) 0.35731(17)
O11 O 0.2705(2) 0.46570(17) 0.28154(16)
C1 C 0.7090(2) 1.1003(2) 0.42790(18)
C2 C 0.7395(2) 1.0754(2) 0.29844(18)
C3 C 0.6394(2) 0.9681(2) 0.18829(18)
C4 C 0.4200(2) 0.7502(2) 0.09711(18)
C5 C 0.2590(2) 0.6459(2) 0.09655(18)
C6 C 0.1423(2) 0.6421(2) 0.18676(18)
N9 N 0.2799(3) 0.4098(2) 0.5764(2)
H1 H 0.210(5) 0.415(4) 0.492(4)
H2 H 0.352(6) 0.506(6) 0.596(4)
H3 H 0.198(5) 0.390(4) 0.627(3)
H4 H 0.339(6) 0.328(6) 0.567(4)
N10 N 0.2344(3) 0.1721(2) 0.15508(19)
H5 H 0.206(5) 0.091(5) 0.210(4)
H6 H 0.333(5) 0.172(4) 0.126(3)
H7 H 0.245(6) 0.275(6) 0.190(4)
H8 H 0.143(9) 0.176(7) 0.099(6)
loop_
_geom_bond_atom_site_label_1
_geom_bond_atom_site_label_2
_geom_bond_site_symmetry_1
_geom_bond_site_symmetry_2
N1 O1 1_555 1_555
N2 O3 1_555 1_555
N3 O5 1_555 1_555
N4 O5 1_555 1_555
N5 O7 1_555 1_555
N6 O7 1_555 1_555
N7 O8 1_555 1_555
N8 O10 1_555 1_555
O2 N1 1_555 1_555
O4 N2 1_555 1_555
O6 C3 1_555 1_555
O9 N7 1_555 1_555
O11 N8 1_555 1_555
C1 N1 1_555 1_555
C2 N3 1_555 1_555
C3 N4 1_555 1_555
C4 N5 1_555 1_555
C5 N6 1_555 1_555
C6 N7 1_555 1_555
N9 H1 1_555 1_555
H2 N9 1_555 1_555
H3 N9 1_555 1_555
H4 N9 1_555 1_555
N10 H5 1_555 1_555
H6 N10 1_555 1_555
H7 N10 1_555 1_555
H8 N10 1_555 1_555
N2 C1 1_555 1_555
N8 C6 1_555 1_555
O6 C4 1_555 1_555
C1 C2 1_555 1_555
C2 C3 1_555 1_555
C4 C5 1_555 1_555
C5 C6 1_555 1_555

#END
