
#######################################################################
#
#                 Cambridge Crystallographic Data Centre
#                                CCDC 
#
#######################################################################
#
# If this CIF has been generated from an entry in the Cambridge 
# Structural Database, then it will include bibliographic, chemical, 
# crystal, experimental, refinement or atomic coordinate data resulting 
# from the CCDC's data processing and validation procedures.
#
#######################################################################

data_HOYWOJ01
_chemical_formula_moiety         
'C12 H24 O6,C9 H22 N2 2+,2(Cl1 O4 1-),0.5(H2 O1)'
_chemical_name_systematic        
'4-ammonio-2,2,6,6-tetramethylpiperidinium perchlorate 1,4,7,10,13,16-hexaoxacyclooctadecane hemihydrate'
_symmetry_cell_setting           monoclinic
_symmetry_space_group_name_H-M   'P 21/m'
_symmetry_Int_Tables_number      11
_space_group_name_Hall           '-P 2yb'
loop_
_symmetry_equiv_pos_site_id
_symmetry_equiv_pos_as_xyz
1 x,y,z
2 -x,1/2+y,-z
3 -x,-y,-z
4 x,1/2-y,z
_cell_length_a                   10.337(2)
_cell_length_b                   11.655(2)
_cell_length_c                   13.504(3)
_cell_angle_alpha                90
_cell_angle_beta                 108.17(3)
_cell_angle_gamma                90
_cell_volume                     1545.81
_exptl_crystal_colour            colorless
_exptl_crystal_description       block
_cell_formula_units_Z            2
loop_
_atom_site_label
_atom_site_type_symbol
_atom_site_fract_x
_atom_site_fract_y
_atom_site_fract_z
N1 N 0.8512(5) 0.2500 1.2281(4)
H17 H 0.8227 0.3136 1.2546
H18 H 0.9442 0.2500 1.2459
N2 N 0.7826(6) 0.2500 0.8999(4)
H19 H 0.7267 0.2500 0.8326
H20 H 0.8701 0.2500 0.8973
C9 C 0.7604(5) 0.1360(4) 0.9473(3)
C10 C 0.8313(5) 0.1431(4) 1.0653(3)
H21 H 0.8077 0.0761 1.0986
H22 H 0.9291 0.1431 1.0791
C11 C 0.7904(6) 0.2500 1.1113(4)
H23 H 0.6911 0.2500 1.0942
C12 C 0.8267(6) 0.0465(5) 0.8968(4)
H24 H 0.9216 0.0640 0.9118
H25 H 0.7834 0.0471 0.8227
H26 H 0.8169 -0.0280 0.9238
C13 C 0.6081(5) 0.1102(5) 0.9211(4)
H27 H 0.5958 0.0311 0.9357
H28 H 0.5633 0.1254 0.8486
H29 H 0.5697 0.1581 0.9626
H17C H 0.8227 0.1864 1.2546
C9C C 0.7604(5) 0.3640(4) 0.9473(3)
C10C C 0.8313(5) 0.3569(4) 1.0653(3)
H21C H 0.8077 0.4239 1.0986
H22C H 0.9291 0.3569 1.0791
C12C C 0.8267(6) 0.4535(5) 0.8968(4)
H24C H 0.9216 0.4360 0.9118
H25C H 0.7834 0.4529 0.8227
H26C H 0.8169 0.5280 0.9238
C13C C 0.6081(5) 0.3898(5) 0.9211(4)
H27C H 0.5958 0.4689 0.9357
H28C H 0.5633 0.3746 0.8486
H29C H 0.5697 0.3419 0.9626
Cl1 Cl 0.5961(3) 0.2500 0.60773(16)
O4 O 0.696(3) 0.2500 0.6769(12)
O5 O 0.509(3) 0.2500 0.667(2)
O6 O 0.5620(15) 0.1603(12) 0.5535(11)
O6C O 0.5620(15) 0.3397(12) 0.5535(11)
Cl2 Cl 0.81807(18) 0.7500 0.05870(15)
O7 O 0.7425(5) 0.6517(4) 0.0633(4)
O8 O 0.8507(8) 0.7500 -0.0364(5)
O9 O 0.9409(7) 0.7500 0.1431(6)
O7C O 0.7425(5) 0.8483(4) 0.0633(4)
O10 O 0.909(4) 0.2500 0.476(3)
H30 H 0.8686 0.1899 0.4446
H30C H 0.8686 0.3101 0.4446
O1 O 0.6117(4) 0.1273(4) 0.2381(4)
O2 O 0.8654(5) 0.0305(4) 0.3401(3)
O3 O 1.1038(5) 0.1277(5) 0.3159(4)
C1 C 0.6292(9) 0.0463(9) 0.3163(7)
H1 H 0.5453 0.0039 0.3066
H2 H 0.6537 0.0836 0.3839
C2 C 0.7386(10) -0.0322(6) 0.3109(5)
H3 H 0.7449 -0.0963 0.3580
H4 H 0.7192 -0.0619 0.2407
C3 C 0.9806(11) -0.0355(7) 0.3381(6)
H5 H 0.9720 -0.0574 0.2670
H6 H 0.9863 -0.1048 0.3790
C4 C 1.1026(9) 0.0332(9) 0.3811(6)
H7 H 1.1063 0.0607 0.4497
H8 H 1.1825 -0.0139 0.3885
C5 C 1.2157(14) 0.2046(18) 0.3851(13)
H9 H 1.3023 0.1664 0.4077
H10 H 1.1919 0.2284 0.4452
C6 C 1.2185(14) 0.1950(17) 0.3213(14)
H11 H 1.2136 0.2206 0.2527
H12 H 1.3013 0.1524 0.3498
C7 C 0.4912(10) 0.2066(11) 0.1960(10)
H13 H 0.4073 0.1682 0.1912
H14 H 0.4873 0.2333 0.1279
C8 C 0.5123(12) 0.1912(12) 0.2703(12)
H15 H 0.5492 0.2159 0.3414
H16 H 0.4301 0.1485 0.2619
O1C O 0.6117(4) 0.3727(4) 0.2381(4)
O2C O 0.8654(5) 0.4695(4) 0.3401(3)
O3C O 1.1038(5) 0.3723(5) 0.3159(4)
C1C C 0.6292(9) 0.4537(9) 0.3163(7)
H1C H 0.5453 0.4961 0.3066
H2C H 0.6537 0.4164 0.3839
C2C C 0.7386(10) 0.5322(6) 0.3109(5)
H3C H 0.7449 0.5963 0.3580
H4C H 0.7192 0.5619 0.2407
C3C C 0.9806(11) 0.5355(7) 0.3381(6)
H5C H 0.9720 0.5574 0.2670
H6C H 0.9863 0.6048 0.3790
C4C C 1.1026(9) 0.4668(9) 0.3811(6)
H7C H 1.1063 0.4393 0.4497
H8C H 1.1825 0.5139 0.3885
C5C C 1.2157(14) 0.2954(18) 0.3851(13)
H9C H 1.3023 0.3336 0.4077
H10C H 1.1919 0.2716 0.4452
C6C C 1.2185(14) 0.3050(17) 0.3213(14)
H11C H 1.2136 0.2794 0.2527
H12C H 1.3013 0.3476 0.3498
C7C C 0.4912(10) 0.2934(11) 0.1960(10)
H13C H 0.4073 0.3318 0.1912
H14C H 0.4873 0.2667 0.1279
C8C C 0.5123(12) 0.3088(12) 0.2703(12)
H15C H 0.5492 0.2841 0.3414
H16C H 0.4301 0.3515 0.2619
loop_
_geom_bond_atom_site_label_1
_geom_bond_atom_site_label_2
_geom_bond_site_symmetry_1
_geom_bond_site_symmetry_2
O1 C1 1_555 1_555
O2 C2 1_555 1_555
O3 C4 1_555 1_555
C1 H1 1_555 1_555
H2 C1 1_555 1_555
C2 C1 1_555 1_555
H3 C2 1_555 1_555
H4 C2 1_555 1_555
C3 O2 1_555 1_555
H5 C3 1_555 1_555
H6 C3 1_555 1_555
C4 C3 1_555 1_555
H7 C4 1_555 1_555
H8 C4 1_555 1_555
C5 O3 1_555 1_555
H9 C5 1_555 1_555
H10 C5 1_555 1_555
C6 O3 1_555 1_555
H11 C6 1_555 1_555
H12 C5 1_555 1_555
C7 O1 1_555 1_555
H13 C7 1_555 1_555
H14 C7 1_555 1_555
C8 O1 1_555 1_555
H15 C8 1_555 1_555
H16 C8 1_555 1_555
N1 H17 1_555 1_555
H18 N1 1_555 1_555
N2 H19 1_555 1_555
H20 N2 1_555 1_555
C9 N2 1_555 1_555
C10 C9 1_555 1_555
H21 C10 1_555 1_555
H22 C10 1_555 1_555
C11 N1 1_555 1_555
H23 C11 1_555 1_555
C12 C9 1_555 1_555
H24 C12 1_555 1_555
H25 C12 1_555 1_555
H26 C12 1_555 1_555
C13 C9 1_555 1_555
H27 C13 1_555 1_555
H28 C13 1_555 1_555
H29 C13 1_555 1_555
Cl1 O4 1_555 1_555
O5 Cl1 1_555 1_555
O6 Cl1 1_555 1_555
Cl2 O7 1_555 1_555
O8 Cl2 1_555 1_555
O9 Cl2 1_555 1_555
O10 H30 1_555 1_555
O1C C1C 1_555 1_555
O2C C2C 1_555 1_555
O3C C4C 1_555 1_555
C1C H1C 1_555 1_555
H2C C1C 1_555 1_555
C2C C1C 1_555 1_555
H3C C2C 1_555 1_555
H4C C2C 1_555 1_555
C3C O2C 1_555 1_555
H5C C3C 1_555 1_555
H6C C3C 1_555 1_555
C4C C3C 1_555 1_555
H7C C4C 1_555 1_555
H8C C4C 1_555 1_555
C5C C5 1_555 1_555
H9C C5C 1_555 1_555
H10C C5 1_555 1_555
C6C C6 1_555 1_555
H11C C6 1_555 1_555
H12C C5C 1_555 1_555
C7C C7 1_555 1_555
H13C C7C 1_555 1_555
H14C C7 1_555 1_555
C8C C8 1_555 1_555
H15C C8C 1_555 1_555
H16C C8C 1_555 1_555
H17C N1 1_555 1_555
C9C N2 1_555 1_555
C10C C11 1_555 1_555
H21C C10C 1_555 1_555
H22C C10C 1_555 1_555
C12C C9C 1_555 1_555
H24C C12C 1_555 1_555
H25C C12C 1_555 1_555
H26C C12C 1_555 1_555
C13C C9C 1_555 1_555
H27C C13C 1_555 1_555
H28C C13C 1_555 1_555
H29C C13C 1_555 1_555
O6C Cl1 1_555 1_555
O7C Cl2 1_555 1_555
H30C O10 1_555 1_555
H9 C6 1_555 1_555
H10 C5C 1_555 1_555
C6 H12 1_555 1_555
H11 C6C 1_555 1_555
H13 C8 1_555 1_555
H14 C7C 1_555 1_555
C10 C11 1_555 1_555
O1C C7C 1_555 1_555
O1C C8C 1_555 1_555
O3C C5C 1_555 1_555
O3C C6C 1_555 1_555
C5C H10C 1_555 1_555
H9C C6C 1_555 1_555
C6C H11C 1_555 1_555
C6C H12C 1_555 1_555
C7C H14C 1_555 1_555
H13C C8C 1_555 1_555
C9C C10C 1_555 1_555

#END
