
#######################################################################
#
#                 Cambridge Crystallographic Data Centre
#                                CCDC 
#
#######################################################################
#
# If this CIF has been generated from an entry in the Cambridge 
# Structural Database, then it will include bibliographic, chemical, 
# crystal, experimental, refinement or atomic coordinate data resulting 
# from the CCDC's data processing and validation procedures.
#
#######################################################################

data_HOYZIF
_chemical_formula_moiety         'C8 H12 N4 O1 S1'
_chemical_name_systematic        
4-(4-Oxopent-2-en-2-ylamino)-1,2,4-triazol-1-ium-5-thiolate
_symmetry_cell_setting           monoclinic
_symmetry_space_group_name_H-M   'P 21/n'
_symmetry_Int_Tables_number      14
_space_group_name_Hall           '-P 2yn'
loop_
_symmetry_equiv_pos_site_id
_symmetry_equiv_pos_as_xyz
1 x,y,z
2 1/2-x,1/2+y,1/2-z
3 -x,-y,-z
4 1/2+x,1/2-y,1/2+z
_cell_length_a                   10.620(6)
_cell_length_b                   9.520(5)
_cell_length_c                   10.764(5)
_cell_angle_alpha                90
_cell_angle_beta                 99.560(14)
_cell_angle_gamma                90
_cell_volume                     1073.15
_exptl_crystal_colour            yellow
_exptl_crystal_description       prism
_cell_formula_units_Z            4
_exptl_crystal_recrystallization_method ethanol/dichloromethane
loop_
_atom_site_label
_atom_site_type_symbol
_atom_site_fract_x
_atom_site_fract_y
_atom_site_fract_z
C1 C 0.6978(2) 0.4476(2) 0.6177(2)
H1 H 0.6385 0.4804 0.6695
H2 H 0.7230 0.5246 0.5697
H3 H 0.7717 0.4092 0.6702
C2 C 0.63580(17) 0.3365(2) 0.53014(16)
C3 C 0.51805(18) 0.2824(2) 0.53712(17)
H4 H 0.4781 0.3133 0.6027
C4 C 0.45166(17) 0.1828(2) 0.45229(17)
C5 C 0.31956(19) 0.1390(3) 0.4704(2)
H5 H 0.2574 0.1966 0.4191
H6 H 0.3113 0.1500 0.5573
H7 H 0.3058 0.0423 0.4464
C6 C 0.9660(2) 0.1873(2) 0.5572(2)
H8 H 1.0551 0.1644 0.5677
H9 H 0.9162 0.1048 0.5318
H10 H 0.9457 0.2212 0.6355
C7 C 0.93642(17) 0.29676(19) 0.45994(16)
C8 C 0.81958(17) 0.45095(18) 0.33090(15)
N1 N 0.70361(13) 0.28695(16) 0.44362(13)
H11 H 0.6761 0.2136 0.4010
N2 N 0.81498(13) 0.34888(15) 0.42069(13)
N3 N 0.94393(14) 0.45391(16) 0.32250(14)
H12 H 0.9753 0.5092 0.2723
N4 N 1.01765(14) 0.35996(17) 0.40183(15)
O1 O 0.49708(12) 0.13376(15) 0.36199(13)
S1 S 0.69902(5) 0.54628(5) 0.25545(4)
loop_
_geom_bond_atom_site_label_1
_geom_bond_atom_site_label_2
_geom_bond_site_symmetry_1
_geom_bond_site_symmetry_2
C1 H1 1_555 1_555
H2 C1 1_555 1_555
H3 C1 1_555 1_555
C2 C1 1_555 1_555
C3 C2 1_555 1_555
H4 C3 1_555 1_555
C4 C3 1_555 1_555
C5 C4 1_555 1_555
H5 C5 1_555 1_555
H6 C5 1_555 1_555
H7 C5 1_555 1_555
C6 H8 1_555 1_555
H9 C6 1_555 1_555
H10 C6 1_555 1_555
C7 C6 1_555 1_555
C8 N2 1_555 1_555
N1 C2 1_555 1_555
H11 N1 1_555 1_555
N2 C7 1_555 1_555
N3 C8 1_555 1_555
H12 N3 1_555 1_555
N4 C7 1_555 1_555
O1 C4 1_555 1_555
S1 C8 1_555 1_555
N1 N2 1_555 1_555
N3 N4 1_555 1_555

#END
