
#######################################################################
#
#                 Cambridge Crystallographic Data Centre
#                                CCDC 
#
#######################################################################
#
# If this CIF has been generated from an entry in the Cambridge 
# Structural Database, then it will include bibliographic, chemical, 
# crystal, experimental, refinement or atomic coordinate data resulting 
# from the CCDC's data processing and validation procedures.
#
#######################################################################

data_HOZNIV
_chemical_formula_moiety         'C6 H12 O3,C1 H1 Br3'
_chemical_name_systematic        
'2,4,6-trimethyl-1,3,5-trioxane tribromomethane solvate'
_symmetry_cell_setting           monoclinic
_symmetry_space_group_name_H-M   'P 21/c'
_symmetry_Int_Tables_number      14
_space_group_name_Hall           '-P 2ybc'
loop_
_symmetry_equiv_pos_site_id
_symmetry_equiv_pos_as_xyz
1 x,y,z
2 -x,1/2+y,1/2-z
3 -x,-y,-z
4 x,1/2-y,1/2+z
_cell_length_a                   11.632(3)
_cell_length_b                   14.062(3)
_cell_length_c                   8.2400(10)
_cell_angle_alpha                90
_cell_angle_beta                 107.010(10)
_cell_angle_gamma                90
_cell_volume                     1288.85
_exptl_crystal_colour            'dull light colorless'
_exptl_crystal_description       cylinder
_cell_formula_units_Z            4
loop_
_atom_site_label
_atom_site_type_symbol
_atom_site_fract_x
_atom_site_fract_y
_atom_site_fract_z
Br1 Br 0.70601(10) 0.28348(7) 0.41968(13)
Br2 Br 0.88905(9) 0.40317(8) 0.28586(13)
Br3 Br 0.60962(10) 0.42302(8) 0.11070(13)
C1 C 0.7331(7) 0.4014(6) 0.3187(11)
H1 H 0.7295 0.4539 0.3988
O1 O 0.7037(5) 0.5449(4) 0.6075(7)
O2 O 0.8667(5) 0.6205(4) 0.7878(7)
O3 O 0.7173(6) 0.7094(4) 0.6039(8)
C2 C 0.7857(9) 0.5428(6) 0.7707(12)
H2 H 0.7423 0.5463 0.8590
C3 C 0.8000(9) 0.7084(6) 0.7648(12)
H3 H 0.7572 0.7146 0.8534
C4 C 0.6360(8) 0.6318(7) 0.5805(11)
H4 H 0.5883 0.6364 0.6634
C5 C 0.8600(9) 0.4526(7) 0.7914(12)
H5 H 0.9032 0.4510 0.7056
H6 H 0.8068 0.3972 0.7770
H7 H 0.9179 0.4512 0.9049
C6 C 0.8856(11) 0.7901(7) 0.7776(15)
H8 H 0.8416 0.8502 0.7690
H9 H 0.9227 0.7860 0.6853
H10 H 0.9483 0.7873 0.8870
C7 C 0.5537(9) 0.6325(7) 0.4047(13)
H11 H 0.6007 0.6271 0.3239
H12 H 0.5081 0.6922 0.3846
H13 H 0.4979 0.5788 0.3895
loop_
_geom_bond_atom_site_label_1
_geom_bond_atom_site_label_2
_geom_bond_site_symmetry_1
_geom_bond_site_symmetry_2
Br1 C1 1_555 1_555
Br2 C1 1_555 1_555
Br3 C1 1_555 1_555
C1 H1 1_555 1_555
O1 C2 1_555 1_555
O2 C2 1_555 1_555
O3 C3 1_555 1_555
C2 H2 1_555 1_555
C3 O2 1_555 1_555
H3 C3 1_555 1_555
C4 O1 1_555 1_555
H4 C4 1_555 1_555
C5 C2 1_555 1_555
H5 C5 1_555 1_555
H6 C5 1_555 1_555
H7 C5 1_555 1_555
C6 C3 1_555 1_555
H8 C6 1_555 1_555
H9 C6 1_555 1_555
H10 C6 1_555 1_555
C7 C4 1_555 1_555
H11 C7 1_555 1_555
H12 C7 1_555 1_555
H13 C7 1_555 1_555
O3 C4 1_555 1_555

#END
