
#######################################################################
#
#                 Cambridge Crystallographic Data Centre
#                                CCDC 
#
#######################################################################
#
# If this CIF has been generated from an entry in the Cambridge 
# Structural Database, then it will include bibliographic, chemical, 
# crystal, experimental, refinement or atomic coordinate data resulting 
# from the CCDC's data processing and validation procedures.
#
#######################################################################

data_HOZNOB
_chemical_formula_moiety         'C6 H12 O3,C1 H1 Cl3'
_chemical_name_systematic        
'2,4,6-trimethyl-1,3,5-trioxane chloroform solvate'
_symmetry_cell_setting           monoclinic
_symmetry_space_group_name_H-M   'P 21/c'
_symmetry_Int_Tables_number      14
_space_group_name_Hall           '-P 2ybc'
loop_
_symmetry_equiv_pos_site_id
_symmetry_equiv_pos_as_xyz
1 x,y,z
2 -x,1/2+y,1/2-z
3 -x,-y,-z
4 x,1/2-y,1/2+z
_cell_length_a                   11.579(9)
_cell_length_b                   13.627(10)
_cell_length_c                   7.941(4)
_cell_angle_alpha                90
_cell_angle_beta                 107.000(15)
_cell_angle_gamma                90
_cell_volume                     1198.24
_exptl_crystal_colour            'light colorless'
_exptl_crystal_description       cylinder
_cell_formula_units_Z            4
loop_
_atom_site_label
_atom_site_type_symbol
_atom_site_fract_x
_atom_site_fract_y
_atom_site_fract_z
Cl1 Cl 0.70186(7) 0.28517(5) 0.38295(10)
Cl2 Cl 0.86640(6) 0.39995(6) 0.25223(10)
Cl3 Cl 0.60905(6) 0.42216(6) 0.10060(10)
C1 C 0.7264(2) 0.39866(18) 0.2950(4)
H1 H 0.727(2) 0.448(2) 0.382(4)
O1 O 0.87650(14) 0.61384(11) 0.8089(2)
O2 O 0.71199(13) 0.54075(10) 0.6096(2)
O3 O 0.71863(14) 0.70953(11) 0.6440(2)
C2 C 0.8078(2) 0.69961(17) 0.8095(4)
C3 C 0.8011(2) 0.52991(16) 0.7760(3)
C4 C 0.6424(2) 0.62681(17) 0.6062(4)
C5 C 0.5553(3) 0.6381(2) 0.4270(5)
C6 C 0.8896(3) 0.7872(2) 0.8378(5)
C7 C 0.8763(3) 0.4418(2) 0.7691(4)
H2 H 0.767(2) 0.6897(17) 0.906(3)
H3 H 0.758(2) 0.5256(18) 0.874(3)
H4 H 0.605(3) 0.6219(19) 0.697(4)
H5 H 0.501(3) 0.582(2) 0.400(4)
H6 H 0.598(3) 0.639(2) 0.339(5)
H7 H 0.514(3) 0.699(2) 0.426(4)
H8 H 0.845(3) 0.842(3) 0.846(5)
H9 H 0.928(3) 0.792(2) 0.737(5)
H10 H 0.955(4) 0.776(3) 0.941(6)
H11 H 0.835(3) 0.383(2) 0.742(4)
H12 H 0.914(3) 0.452(2) 0.677(4)
H13 H 0.936(3) 0.430(2) 0.885(4)
loop_
_geom_bond_atom_site_label_1
_geom_bond_atom_site_label_2
_geom_bond_site_symmetry_1
_geom_bond_site_symmetry_2
Cl1 C1 1_555 1_555
Cl2 C1 1_555 1_555
Cl3 C1 1_555 1_555
C1 H1 1_555 1_555
O1 C2 1_555 1_555
O2 C3 1_555 1_555
O3 C2 1_555 1_555
C2 C6 1_555 1_555
C3 O1 1_555 1_555
C4 O2 1_555 1_555
C5 C4 1_555 1_555
C6 H8 1_555 1_555
C7 C3 1_555 1_555
H2 C2 1_555 1_555
H3 C3 1_555 1_555
H4 C4 1_555 1_555
H5 C5 1_555 1_555
H6 C5 1_555 1_555
H7 C5 1_555 1_555
H9 C6 1_555 1_555
H10 C6 1_555 1_555
H11 C7 1_555 1_555
H12 C7 1_555 1_555
H13 C7 1_555 1_555
O3 C4 1_555 1_555

#END
