
#######################################################################
#
#                 Cambridge Crystallographic Data Centre
#                                CCDC 
#
#######################################################################
#
# If this CIF has been generated from an entry in the Cambridge 
# Structural Database, then it will include bibliographic, chemical, 
# crystal, experimental, refinement or atomic coordinate data resulting 
# from the CCDC's data processing and validation procedures.
#
#######################################################################

data_HOZPET
_chemical_name_common            paraldehyde
_chemical_formula_moiety         'C6 H12 O3'
_chemical_name_systematic        2,4,6-trimethyl-1,3,5-trioxane
_symmetry_cell_setting           orthorhombic
_symmetry_space_group_name_H-M   'P b c a'
_symmetry_Int_Tables_number      61
_space_group_name_Hall           '-P 2ac 2ab'
loop_
_symmetry_equiv_pos_site_id
_symmetry_equiv_pos_as_xyz
1 x,y,z
2 1/2-x,-y,1/2+z
3 -x,1/2+y,1/2-z
4 1/2+x,1/2-y,-z
5 -x,-y,-z
6 1/2+x,y,1/2-z
7 x,1/2-y,1/2+z
8 1/2-x,1/2+y,z
_cell_length_a                   12.8475(12)
_cell_length_b                   8.1256(5)
_cell_length_c                   14.3082(13)
_cell_angle_alpha                90
_cell_angle_beta                 90
_cell_angle_gamma                90
_cell_volume                     1493.69
_exptl_crystal_colour            'light colorless'
_exptl_crystal_description       cylinder
_cell_formula_units_Z            8
loop_
_atom_site_label
_atom_site_type_symbol
_atom_site_fract_x
_atom_site_fract_y
_atom_site_fract_z
O1 O 0.64555(5) 0.11660(10) 0.61064(5)
O2 O 0.73957(5) 0.15337(10) 0.74728(5)
O3 O 0.56263(5) 0.20939(10) 0.74412(5)
C1 C 0.55130(8) 0.11279(17) 0.66223(7)
C2 C 0.73041(8) 0.05742(16) 0.66490(7)
C3 C 0.64580(8) 0.14952(17) 0.79932(7)
C4 C 0.65802(11) 0.2584(2) 0.88282(9)
C5 C 0.46594(9) 0.1857(2) 0.60432(9)
C6 C 0.82877(10) 0.0741(2) 0.61007(10)
H1 H 0.5387(8) -0.0046(17) 0.6809(8)
H2 H 0.7140(9) -0.0574(19) 0.6836(9)
H3 H 0.6320(8) 0.0297(18) 0.8161(9)
H4 H 0.7138(10) 0.2188(19) 0.9221(10)
H5 H 0.6726(11) 0.376(2) 0.8599(11)
H6 H 0.5992(11) 0.261(2) 0.9170(11)
H7 H 0.4024(11) 0.1878(18) 0.6407(10)
H8 H 0.4882(10) 0.300(2) 0.5851(10)
H9 H 0.4545(10) 0.1185(19) 0.5495(10)
H10 H 0.8363(9) 0.189(2) 0.5911(10)
H11 H 0.8235(11) 0.010(2) 0.5545(12)
H12 H 0.8900(11) 0.041(2) 0.6477(11)
loop_
_geom_bond_atom_site_label_1
_geom_bond_atom_site_label_2
_geom_bond_site_symmetry_1
_geom_bond_site_symmetry_2
O1 C1 1_555 1_555
O2 C2 1_555 1_555
O3 C1 1_555 1_555
C1 C5 1_555 1_555
C2 O1 1_555 1_555
C3 O2 1_555 1_555
C4 C3 1_555 1_555
C5 H7 1_555 1_555
C6 C2 1_555 1_555
H1 C1 1_555 1_555
H2 C2 1_555 1_555
H3 C3 1_555 1_555
H4 C4 1_555 1_555
H5 C4 1_555 1_555
H6 C4 1_555 1_555
H8 C5 1_555 1_555
H9 C5 1_555 1_555
H10 C6 1_555 1_555
H11 C6 1_555 1_555
H12 C6 1_555 1_555
O3 C3 1_555 1_555

#END
