
#######################################################################
#
#                 Cambridge Crystallographic Data Centre
#                                CCDC 
#
#######################################################################
#
# If this CIF has been generated from an entry in the Cambridge 
# Structural Database, then it will include bibliographic, chemical, 
# crystal, experimental, refinement or atomic coordinate data resulting 
# from the CCDC's data processing and validation procedures.
#
#######################################################################

data_HPHCHO10
_chemical_compound_source        'Strychos dolichothyrsa'
_chemical_name_common            Filican-3-one
_chemical_formula_moiety         'C30 H50 O1'
_chemical_name_systematic        
21-Isopropyl-4\b,5\b,9\b,13\a,14\b,17\a-hexamethyl-perhydrocyclopenta(a)chrysen-3-one
_symmetry_cell_setting           monoclinic
_symmetry_space_group_name_H-M   'P 21'
_symmetry_Int_Tables_number      4
_space_group_name_Hall           'P 2yb'
loop_
_symmetry_equiv_pos_site_id
_symmetry_equiv_pos_as_xyz
1 x,y,z
2 -x,1/2+y,-z
_cell_length_a                   13.538(6)
_cell_length_b                   6.342(3)
_cell_length_c                   14.797(7)
_cell_angle_alpha                90
_cell_angle_beta                 96.04(15)
_cell_angle_gamma                90
_cell_volume                     1263.39
_exptl_crystal_colour            colorless
_chemical_melting_point          521-2K
_cell_formula_units_Z            2
loop_
_atom_site_label
_atom_site_type_symbol
_atom_site_fract_x
_atom_site_fract_y
_atom_site_fract_z
C1 C 0.97960 0.45560 0.80310
C2 C 1.01490 0.60980 0.88150
C3 C 0.94070 0.63200 0.94810
C4 C 0.83830 0.71050 0.90120
C5 C 0.79880 0.54010 0.82890
C6 C 0.69850 0.62100 0.78170
C7 C 0.66310 0.49530 0.69140
C8 C 0.74470 0.50990 0.62710
C9 C 0.84150 0.39820 0.67000
C10 C 0.87680 0.51350 0.75970
C11 C 0.92500 0.40170 0.60620
C12 C 0.88900 0.35230 0.50640
C13 C 0.79990 0.48480 0.46750
C14 C 0.71070 0.44160 0.52770
C15 C 0.61920 0.56630 0.48660
C16 C 0.58710 0.52760 0.38410
C17 C 0.67600 0.54290 0.32460
C18 C 0.76350 0.42330 0.37320
C19 C 0.83450 0.40680 0.29560
C20 C 0.76450 0.36890 0.21160
C21 C 0.65900 0.40620 0.23720
C22 C 0.58810 0.48340 0.15270
C23 C 0.76700 0.75750 0.97140
C24 C 0.78360 0.32960 0.88170
C25 C 0.82730 0.16410 0.68920
C26 C 0.83370 0.72250 0.47320
C27 C 0.67580 0.21170 0.52380
C28 C 0.69000 0.77380 0.29500
C29 C 0.48830 0.55000 0.17290
C30 C 0.57500 0.31210 0.07660
O1 O 0.95400 0.59390 1.03020
H1 H 1.03000 0.44200 0.75900
H2 H 0.97700 0.31300 0.83700
H3 H 0.62000 0.25500 0.25200
H4 H 0.61400 0.62100 0.12500
H5 H 0.85100 0.86100 0.87500
H6 H 0.64200 0.63500 0.82700
H7 H 0.70400 0.78700 0.76500
H8 H 0.65900 0.33300 0.71100
H9 H 0.59500 0.52700 0.66300
H10 H 0.76200 0.67800 0.62600
H11 H 0.88600 0.65500 0.73000
H12 H 0.94600 0.58200 0.61000
H13 H 0.98500 0.34100 0.62800
H14 H 1.08400 0.58900 0.91000
H15 H 1.02300 0.76700 0.84800
H16 H 0.56300 0.58700 0.52200
H17 H 0.64500 0.74700 0.48800
H18 H 0.54800 0.40700 0.37900
H19 H 0.53300 0.65800 0.35800
H20 H 0.73800 0.28000 0.39700
H21 H 0.87800 0.54500 0.29500
H22 H 0.88900 0.29100 0.30800
H23 H 0.77600 0.48400 0.16300
H24 H 0.77700 0.23200 0.18200
H25 H 0.94500 0.40400 0.46800
H26 H 0.87500 0.21900 0.50200
H27 H 0.69900 0.81200 0.94000
H28 H 0.75100 0.62500 1.00500
H29 H 0.79000 0.86800 1.01900
H30 H 0.75800 0.22200 0.83600
H31 H 0.85200 0.28700 0.91000
H32 H 0.73900 0.35300 0.92800
H33 H 0.87200 0.08000 0.65800
H34 H 0.76100 0.08400 0.66900
H35 H 0.87500 0.06400 0.71700
H36 H 0.78400 0.80000 0.51200
H37 H 0.90800 0.73700 0.50100
H38 H 0.83600 0.78600 0.40900
H39 H 0.61700 0.18900 0.55600
H40 H 0.65200 0.17700 0.45400
H41 H 0.73000 0.11500 0.54200
H42 H 0.62900 0.83900 0.25700
H43 H 0.70800 0.87600 0.34700
H44 H 0.74700 0.79600 0.25200
H45 H 0.49200 0.67000 0.22000
H46 H 0.44200 0.60300 0.11900
H47 H 0.45200 0.42900 0.20100
H48 H 0.64700 0.27300 0.06300
H49 H 0.54800 0.18400 0.10400
H50 H 0.53800 0.35700 0.02200
loop_
_geom_bond_atom_site_label_1
_geom_bond_atom_site_label_2
_geom_bond_site_symmetry_1
_geom_bond_site_symmetry_2
C1 C2 1_555 1_555
C2 C3 1_555 1_555
C3 C4 1_555 1_555
C4 C5 1_555 1_555
C5 C6 1_555 1_555
C6 C7 1_555 1_555
C7 C8 1_555 1_555
C8 C9 1_555 1_555
C9 C10 1_555 1_555
C10 C1 1_555 1_555
C11 C9 1_555 1_555
C12 C11 1_555 1_555
C13 C12 1_555 1_555
C14 C8 1_555 1_555
C15 C14 1_555 1_555
C16 C15 1_555 1_555
C17 C16 1_555 1_555
C18 C13 1_555 1_555
C19 C18 1_555 1_555
C20 C19 1_555 1_555
C21 C17 1_555 1_555
C22 C21 1_555 1_555
C23 C4 1_555 1_555
C24 C5 1_555 1_555
C25 C9 1_555 1_555
C26 C13 1_555 1_555
C27 C14 1_555 1_555
C28 C17 1_555 1_555
C29 C22 1_555 1_555
C30 C22 1_555 1_555
O1 C3 1_555 1_555
H1 C1 1_555 1_555
H2 C1 1_555 1_555
H3 C21 1_555 1_555
H4 C22 1_555 1_555
H5 C4 1_555 1_555
H6 C6 1_555 1_555
H7 C6 1_555 1_555
H8 C7 1_555 1_555
H9 C7 1_555 1_555
H10 C8 1_555 1_555
H11 C10 1_555 1_555
H12 C11 1_555 1_555
H13 C11 1_555 1_555
H14 C2 1_555 1_555
H15 C2 1_555 1_555
H16 C15 1_555 1_555
H17 C15 1_555 1_555
H18 C16 1_555 1_555
H19 C16 1_555 1_555
H20 C18 1_555 1_555
H21 C19 1_555 1_555
H22 C19 1_555 1_555
H23 C20 1_555 1_555
H24 C20 1_555 1_555
H25 C12 1_555 1_555
H26 C12 1_555 1_555
H27 C23 1_555 1_555
H28 C23 1_555 1_555
H29 C23 1_555 1_555
H30 C24 1_555 1_555
H31 C24 1_555 1_555
H32 C24 1_555 1_555
H33 C25 1_555 1_555
H34 C25 1_555 1_555
H35 C25 1_555 1_555
H36 C26 1_555 1_555
H37 C26 1_555 1_555
H38 C26 1_555 1_555
H39 C27 1_555 1_555
H40 C27 1_555 1_555
H41 C27 1_555 1_555
H42 C28 1_555 1_555
H43 C28 1_555 1_555
H44 C28 1_555 1_555
H45 C29 1_555 1_555
H46 C29 1_555 1_555
H47 C29 1_555 1_555
H48 C30 1_555 1_555
H49 C30 1_555 1_555
H50 C30 1_555 1_555
C5 C10 1_555 1_555
C13 C14 1_555 1_555
C17 C18 1_555 1_555
C20 C21 1_555 1_555

#END
