
#######################################################################
#
#                 Cambridge Crystallographic Data Centre
#                                CCDC 
#
#######################################################################
#
# If this CIF has been generated from an entry in the Cambridge 
# Structural Database, then it will include bibliographic, chemical, 
# crystal, experimental, refinement or atomic coordinate data resulting 
# from the CCDC's data processing and validation procedures.
#
#######################################################################

data_HUBSAA
_chemical_name_common            'Antrodin F'
_chemical_formula_moiety         'C15 H24 O2'
_chemical_name_systematic        
8-(Hydroxymethyl)-1,2,6-trimethyltricyclo[5.3.1.0^2,6^]undec-8-en-4-ol
_chemical_properties_biological  'basidiomycete Antrodiella albocinnamomea'
_symmetry_cell_setting           monoclinic
_symmetry_space_group_name_H-M   'P 21'
_symmetry_Int_Tables_number      4
_space_group_name_Hall           'P 2yb'
loop_
_symmetry_equiv_pos_site_id
_symmetry_equiv_pos_as_xyz
1 x,y,z
2 -x,1/2+y,-z
_cell_length_a                   13.8420(3)
_cell_length_b                   7.42280(10)
_cell_length_c                   14.5141(3)
_cell_angle_alpha                90
_cell_angle_beta                 116.43
_cell_angle_gamma                90
_cell_volume                     1335.4
_exptl_crystal_colour            colorless
_exptl_crystal_description       prism
_cell_formula_units_Z            4
loop_
_atom_site_label
_atom_site_type_symbol
_atom_site_fract_x
_atom_site_fract_y
_atom_site_fract_z
O1 O 0.89062(9) 0.67717(17) 0.45850(8)
H1 H 0.9134 0.7633 0.4361
O2 O 0.97114(9) -0.03522(17) 0.39288(9)
H2 H 1.0107 0.0342 0.4405
C1 C 0.83038(12) 0.5559(2) 0.37600(11)
H3 H 0.8261 0.4364 0.4057
C2 C 0.87949(12) 0.5291(2) 0.30118(11)
H4 H 0.9360 0.4350 0.3274
H5 H 0.9128 0.6426 0.2936
C3 C 0.78796(11) 0.4713(2) 0.19625(11)
C4 C 0.77695(11) 0.2641(2) 0.17506(10)
H6 H 0.8106 0.2289 0.1294
C5 C 0.82233(12) 0.1521(2) 0.27258(11)
C6 C 0.92749(12) 0.0595(2) 0.29834(12)
H7 H 0.9170 -0.0262 0.2424
H8 H 0.9806 0.1509 0.3005
C7 C 0.71617(13) 0.6211(2) 0.30722(11)
H9 H 0.7155 0.7532 0.2976
H10 H 0.6675 0.5915 0.3385
C8 C 0.67900(12) 0.5239(2) 0.20317(11)
C9 C 0.61955(11) 0.3382(2) 0.19212(11)
C10 C 0.65932(12) 0.2288(2) 0.29326(11)
H11 H 0.6631 0.3104 0.3487
H12 H 0.6052 0.1346 0.2844
C11 C 0.76747(12) 0.1400(2) 0.32715(11)
H13 H 0.7972 0.0733 0.3895
C12 C 0.80422(14) 0.5631(3) 0.10945(12)
H14 H 0.8041 0.6941 0.1176
H15 H 0.7456 0.5285 0.0429
H16 H 0.8734 0.5252 0.1125
C13 C 0.65474(11) 0.2358(2) 0.12029(11)
H17 H 0.6357 0.1065 0.1159
H18 H 0.6225 0.2884 0.0503
C14 C 0.49660(12) 0.3537(3) 0.14833(13)
H19 H 0.4678 0.4155 0.0817
H20 H 0.4784 0.4226 0.1961
H21 H 0.4650 0.2330 0.1392
C15 C 0.60746(14) 0.6539(3) 0.11755(12)
H22 H 0.5452 0.6893 0.1286
H23 H 0.5823 0.5940 0.0507
H24 H 0.6492 0.7612 0.1188
O3 O 0.03649(8) 1.07726(17) 0.10444(9)
H25 H 0.0551 1.1784 0.0919
O4 O 0.10390(9) 0.39865(18) 0.06298(9)
H26 H 0.0587 0.4577 0.0130
C16 C 0.13052(11) 0.9659(2) 0.15625(12)
H27 H 0.1652 0.9422 0.1099
C17 C 0.09978(12) 0.7892(2) 0.18888(12)
H28 H 0.0764 0.7008 0.1320
H29 H 0.0397 0.8083 0.2073
C18 C 0.20059(12) 0.7191(2) 0.28307(11)
C19 C 0.27056(11) 0.5784(2) 0.25907(11)
H30 H 0.2540 0.4532 0.2732
C20 C 0.26270(11) 0.5917(2) 0.15178(11)
C21 C 0.21066(12) 0.4410(2) 0.07717(12)
H31 H 0.2075 0.4743 0.0098
H32 H 0.2563 0.3320 0.1020
C22 C 0.21240(12) 1.0482(2) 0.25719(12)
H33 H 0.1751 1.1165 0.2905
H34 H 0.2612 1.1312 0.2446
C23 C 0.27682(12) 0.8904(2) 0.32626(11)
C24 C 0.38536(12) 0.6328(2) 0.33574(11)
H35 H 0.3997 0.6052 0.4074
H36 H 0.4401 0.5722 0.3202
C25 C 0.38319(12) 0.8359(2) 0.31743(11)
C26 C 0.48502(13) 0.9310(3) 0.39487(12)
H37 H 0.4956 0.9047 0.4649
H38 H 0.4772 1.0614 0.3830
H39 H 0.5475 0.8880 0.3863
C27 C 0.37651(12) 0.8661(2) 0.20876(11)
H40 H 0.3446 0.9862 0.1835
H41 H 0.4506 0.8669 0.2148
C28 C 0.31143(11) 0.7272(2) 0.13053(11)
H42 H 0.3050 0.7371 0.0628
C29 C 0.16633(15) 0.6298(3) 0.35951(14)
H43 H 0.1267 0.7171 0.3804
H44 H 0.2306 0.5893 0.4202
H45 H 0.1198 0.5262 0.3266
C30 C 0.30351(15) 0.9373(3) 0.43823(12)
H46 H 0.3465 1.0481 0.4584
H47 H 0.3447 0.8386 0.4835
H48 H 0.2364 0.9553 0.4442
loop_
_geom_bond_atom_site_label_1
_geom_bond_atom_site_label_2
_geom_bond_site_symmetry_1
_geom_bond_site_symmetry_2
O1 H1 1_555 1_555
O2 H2 1_555 1_555
C1 O1 1_555 1_555
H3 C1 1_555 1_555
C2 C1 1_555 1_555
H4 C2 1_555 1_555
H5 C2 1_555 1_555
C3 C2 1_555 1_555
C4 C3 1_555 1_555
H6 C4 1_555 1_555
C5 C4 1_555 1_555
C6 O2 1_555 1_555
H7 C6 1_555 1_555
H8 C6 1_555 1_555
C7 C1 1_555 1_555
H9 C7 1_555 1_555
H10 C7 1_555 1_555
C8 C3 1_555 1_555
C9 C8 1_555 1_555
C10 C9 1_555 1_555
H11 C10 1_555 1_555
H12 C10 1_555 1_555
C11 C5 1_555 1_555
H13 C11 1_555 1_555
C12 C3 1_555 1_555
H14 C12 1_555 1_555
H15 C12 1_555 1_555
H16 C12 1_555 1_555
C13 C4 1_555 1_555
H17 C13 1_555 1_555
H18 C13 1_555 1_555
C14 C9 1_555 1_555
H19 C14 1_555 1_555
H20 C14 1_555 1_555
H21 C14 1_555 1_555
C15 C8 1_555 1_555
H22 C15 1_555 1_555
H23 C15 1_555 1_555
H24 C15 1_555 1_555
O3 H25 1_555 1_555
O4 H26 1_555 1_555
C16 O3 1_555 1_555
H27 C16 1_555 1_555
C17 C16 1_555 1_555
H28 C17 1_555 1_555
H29 C17 1_555 1_555
C18 C17 1_555 1_555
C19 C18 1_555 1_555
H30 C19 1_555 1_555
C20 C19 1_555 1_555
C21 O4 1_555 1_555
H31 C21 1_555 1_555
H32 C21 1_555 1_555
C22 C16 1_555 1_555
H33 C22 1_555 1_555
H34 C22 1_555 1_555
C23 C18 1_555 1_555
C24 C19 1_555 1_555
H35 C24 1_555 1_555
H36 C24 1_555 1_555
C25 C23 1_555 1_555
C26 C25 1_555 1_555
H37 C26 1_555 1_555
H38 C26 1_555 1_555
H39 C26 1_555 1_555
C27 C25 1_555 1_555
H40 C27 1_555 1_555
H41 C27 1_555 1_555
C28 C20 1_555 1_555
H42 C28 1_555 1_555
C29 C18 1_555 1_555
H43 C29 1_555 1_555
H44 C29 1_555 1_555
H45 C29 1_555 1_555
C30 C23 1_555 1_555
H46 C30 1_555 1_555
H47 C30 1_555 1_555
H48 C30 1_555 1_555
C5 C6 1_555 1_555
C7 C8 1_555 1_555
C9 C13 1_555 1_555
C10 C11 1_555 1_555
C20 C21 1_555 1_555
C22 C23 1_555 1_555
C24 C25 1_555 1_555
C27 C28 1_555 1_555

#END
