
#######################################################################
#
#                 Cambridge Crystallographic Data Centre
#                                CCDC 
#
#######################################################################
#
# If this CIF has been generated from an entry in the Cambridge 
# Structural Database, then it will include bibliographic, chemical, 
# crystal, experimental, refinement or atomic coordinate data resulting 
# from the CCDC's data processing and validation procedures.
#
#######################################################################

data_HUBXEH
_chemical_formula_moiety         'C22 H18 Br2 S7 Si2,C1 H1 Cl3'
_chemical_name_systematic        
"6,7-Dibromo-5,8-bis(trimethylsilyl)thiopheno(3',2'-4,5)thiopheno(2,3-b)thiopheno(3'''',2''''-4''',5''')thiopheno(3''',2'''-4'',5'')thiopheno(3'',2''-4,5)thiopheno(3,2-d)thiophene chloroform solvate"
_symmetry_cell_setting           rhombohedral
_symmetry_space_group_name_H-M   'R -3'
_symmetry_Int_Tables_number      148
_space_group_name_Hall           '-R 3'
loop_
_symmetry_equiv_pos_site_id
_symmetry_equiv_pos_as_xyz
1 x,y,z
2 -y,x-y,z
3 -x+y,-x,z
4 2/3+x,1/3+y,1/3+z
5 2/3-y,1/3+x-y,1/3+z
6 2/3-x+y,1/3-x,1/3+z
7 1/3+x,2/3+y,2/3+z
8 2/3+y,1/3-x+y,1/3-z
9 2/3+x-y,1/3+x,1/3-z
10 -x,-y,-z
11 y,-x+y,-z
12 x-y,x,-z
13 1/3-x,2/3-y,2/3-z
14 1/3+y,2/3-x+y,2/3-z
15 1/3+x-y,2/3+x,2/3-z
16 2/3-x,1/3-y,1/3-z
17 1/3-y,2/3+x-y,2/3+z
18 1/3-x+y,2/3-x,2/3+z
_cell_length_a                   36.319(2)
_cell_length_b                   36.319(2)
_cell_length_c                   12.8012(8)
_cell_angle_alpha                90
_cell_angle_beta                 90
_cell_angle_gamma                120.00
_cell_volume                     14623.4
_exptl_crystal_colour            colorless
_exptl_crystal_description       needle
_cell_formula_units_Z            18
loop_
_atom_site_label
_atom_site_type_symbol
_atom_site_fract_x
_atom_site_fract_y
_atom_site_fract_z
Cl1 Cl 0.7876(4) 0.1043(4) 0.7392(12)
Cl2 Cl 0.7766(5) 0.1777(2) 0.7345(9)
Cl3 Cl 0.7058(2) 0.0948(4) 0.6892(10)
C23 C 0.7523(2) 0.1232(2) 0.7646(6)
H19 H 0.7445 0.1190 0.8404
Cl4 Cl 0.7810(4) 0.0963(4) 0.7682(11)
Cl5 Cl 0.7701(5) 0.1700(2) 0.7607(9)
Cl6 Cl 0.7096(3) 0.0924(4) 0.6591(10)
C24 C 0.7634(2) 0.1250(3) 0.6926(5)
H20 H 0.7806 0.1346 0.6269
Br1 Br 0.588668(13) 0.119309(12) 0.44183(3)
Br2 Br 0.500228(12) 0.124525(11) 0.60331(3)
Si1 Si 0.55707(3) 0.14078(3) 0.19215(8)
Si2 Si 0.41252(3) 0.02070(4) 0.54923(9)
S1 S 0.57223(3) 0.22194(3) 0.31460(7)
S2 S 0.60454(3) 0.27552(3) 0.52043(7)
S3 S 0.64457(3) 0.26971(3) 0.73030(7)
S4 S 0.66115(3) 0.20557(3) 0.85417(7)
S5 S 0.63281(3) 0.10923(3) 0.85369(8)
S6 S 0.56227(3) 0.02452(3) 0.75672(8)
S7 S 0.47735(3) -0.00518(3) 0.63334(8)
C1 C 0.57043(11) 0.17309(11) 0.3158(3)
C2 C 0.57981(11) 0.16528(10) 0.4140(3)
C3 C 0.58836(10) 0.19710(10) 0.4903(3)
C4 C 0.58649(11) 0.23042(11) 0.4440(3)
C5 C 0.60287(10) 0.20677(11) 0.5979(3)
C6 C 0.61541(11) 0.24887(11) 0.6170(3)
C7 C 0.61251(11) 0.18807(11) 0.6871(3)
C8 C 0.63824(11) 0.21996(11) 0.7564(3)
C9 C 0.60570(11) 0.14758(11) 0.7254(3)
C10 C 0.63293(12) 0.15405(11) 0.8073(3)
C11 C 0.57832(11) 0.10218(11) 0.7084(3)
C12 C 0.59221(12) 0.07937(11) 0.7673(3)
C13 C 0.53735(11) 0.07238(11) 0.6622(3)
C14 C 0.52673(12) 0.03080(11) 0.6780(3)
C15 C 0.50221(12) 0.07369(11) 0.6171(3)
C16 C 0.46734(12) 0.03516(11) 0.5956(3)
C17 C 0.51113(14) 0.08724(12) 0.2204(3)
H1 H 0.5094 0.0672 0.1668
H2 H 0.4849 0.0886 0.2201
H3 H 0.5149 0.0777 0.2891
C18 C 0.60407(14) 0.13762(15) 0.1486(3)
H4 H 0.5982 0.1237 0.0801
H5 H 0.6101 0.1211 0.1993
H6 H 0.6287 0.1664 0.1432
C19 C 0.54334(15) 0.16875(13) 0.0924(3)
H7 H 0.5368 0.1532 0.0262
H8 H 0.5674 0.1975 0.0824
H9 H 0.5185 0.1704 0.1156
C20 C 0.38315(13) -0.03760(13) 0.5243(4)
H10 H 0.3539 -0.0465 0.5034
H11 H 0.3828 -0.0527 0.5880
H12 H 0.3973 -0.0443 0.4682
C21 C 0.38604(14) 0.03348(15) 0.6561(4)
H13 H 0.3563 0.0230 0.6375
H14 H 0.4005 0.0643 0.6662
H15 H 0.3874 0.0198 0.7208
C22 C 0.41560(15) 0.05007(15) 0.4287(4)
H16 H 0.3869 0.0398 0.4012
H17 H 0.4327 0.0455 0.3765
H18 H 0.4289 0.0805 0.4444
loop_
_geom_bond_atom_site_label_1
_geom_bond_atom_site_label_2
_geom_bond_site_symmetry_1
_geom_bond_site_symmetry_2
Br1 C2 1_555 1_555
Br2 C15 1_555 1_555
Si1 C1 1_555 1_555
Si2 C16 1_555 1_555
S1 C1 1_555 1_555
S2 C4 1_555 1_555
S3 C6 1_555 1_555
S4 C8 1_555 1_555
S5 C10 1_555 1_555
S6 C12 1_555 1_555
S7 C14 1_555 1_555
C1 C2 1_555 1_555
C2 C3 1_555 1_555
C3 C4 1_555 1_555
C4 S1 1_555 1_555
C5 C3 1_555 1_555
C6 S2 1_555 1_555
C7 C5 1_555 1_555
C8 S3 1_555 1_555
C9 C7 1_555 1_555
C10 S4 1_555 1_555
C11 C9 1_555 1_555
C12 S5 1_555 1_555
C13 C11 1_555 1_555
C14 S6 1_555 1_555
C15 C13 1_555 1_555
C16 S7 1_555 1_555
C17 Si1 1_555 1_555
H1 C17 1_555 1_555
H2 C17 1_555 1_555
H3 C17 1_555 1_555
C18 Si1 1_555 1_555
H4 C18 1_555 1_555
H5 C18 1_555 1_555
H6 C18 1_555 1_555
C19 Si1 1_555 1_555
H7 C19 1_555 1_555
H8 C19 1_555 1_555
H9 C19 1_555 1_555
C20 Si2 1_555 1_555
H10 C20 1_555 1_555
H11 C20 1_555 1_555
H12 C20 1_555 1_555
C21 Si2 1_555 1_555
H13 C21 1_555 1_555
H14 C21 1_555 1_555
H15 C21 1_555 1_555
C22 Si2 1_555 1_555
H16 C22 1_555 1_555
H17 C22 1_555 1_555
H18 C22 1_555 1_555
Cl1 C23 1_555 1_555
Cl2 C23 1_555 1_555
Cl3 C23 1_555 1_555
C23 H19 1_555 1_555
Cl4 Cl1 1_555 1_555
Cl5 Cl2 1_555 1_555
Cl6 Cl3 1_555 1_555
C24 Cl1 1_555 1_555
H20 C24 1_555 1_555
C5 C6 1_555 1_555
C7 C8 1_555 1_555
C9 C10 1_555 1_555
C11 C12 1_555 1_555
C13 C14 1_555 1_555
C15 C16 1_555 1_555
Cl2 C24 1_555 1_555
Cl3 C24 1_555 1_555
C23 Cl5 1_555 1_555
C23 Cl4 1_555 1_555
C23 Cl6 1_555 1_555
C23 C24 1_555 1_555
Cl4 C24 1_555 1_555
Cl5 C24 1_555 1_555
Cl6 C24 1_555 1_555

#END
