
#######################################################################
#
#                 Cambridge Crystallographic Data Centre
#                                CCDC 
#
#######################################################################
#
# If this CIF has been generated from an entry in the Cambridge 
# Structural Database, then it will include bibliographic, chemical, 
# crystal, experimental, refinement or atomic coordinate data resulting 
# from the CCDC's data processing and validation procedures.
#
#######################################################################

data_HUCJIA
_chemical_name_common            
'bis(5,6-dihydropyrazino[1,2,3,4-lmn][1,10]phenanthrolinediium) 5,11,17,23-tetrasulfate-25,26,27,28-tetrahydroxy-2,8,14,20-tetrathiacalix(4)arene tetrahydrate'
_chemical_formula_moiety         'C24 H12 O16 S8 4-,2(C14 H12 N2 2+),4(H2 O1)'
_chemical_name_systematic        
'bis(5,6-dihydropyrazino[1,2,3,4-lmn][1,10]phenanthrolinediium) 25,26,27,28-tetrahydroxy-2,8,14,20-tetrathiapentacyclo[19.3.1.1^3,7^.1^9,13^.1^15,19^]octacosa-1(25),3(28),4,6,9(27),10,12,15(26),16,18,21,23-dodecaene-5,11,17,23-tetrasulfonate tetrahydrate'
_symmetry_cell_setting           triclinic
_symmetry_space_group_name_H-M   'P -1'
_symmetry_Int_Tables_number      2
_space_group_name_Hall           '-P 1'
loop_
_symmetry_equiv_pos_site_id
_symmetry_equiv_pos_as_xyz
1 x,y,z
2 -x,-y,-z
_cell_length_a                   12.354(3)
_cell_length_b                   14.404(3)
_cell_length_c                   16.103(3)
_cell_angle_alpha                69.19(3)
_cell_angle_beta                 88.31(3)
_cell_angle_gamma                82.76(3)
_cell_volume                     2656.83
_cell_formula_units_Z            2
loop_
_atom_site_label
_atom_site_type_symbol
_atom_site_fract_x
_atom_site_fract_y
_atom_site_fract_z
S1 S -0.09140(7) 0.30042(7) 0.03111(6)
S2 S 0.06066(8) 0.38931(7) 0.30696(6)
S3 S 0.28303(7) 0.48595(7) -0.00685(6)
S4 S 0.61940(7) 0.35266(7) 0.23860(6)
S5 S 0.54909(7) 0.13184(7) 0.03760(6)
S6 S 0.40600(8) -0.11649(7) 0.35336(6)
S7 S 0.17503(7) -0.04327(7) 0.04588(6)
S8 S -0.19854(8) -0.06431(8) 0.24030(6)
O1 O 0.1126(2) 0.17305(18) -0.00698(16)
H1 H 0.0908 0.2331 -0.0251
O2 O -0.1364(3) -0.1312(2) 0.31950(17)
O3 O -0.2795(2) 0.0070(2) 0.25928(19)
O4 O -0.2414(2) -0.1181(2) 0.19061(16)
O5 O 0.1026(2) 0.37908(19) -0.05648(15)
H2 H 0.1451 0.4159 -0.0874
O6 O 0.1055(2) 0.2889(2) 0.36556(16)
O7 O 0.1222(2) 0.4659(2) 0.31212(18)
O8 O -0.0558(2) 0.4096(2) 0.32055(16)
O9 O 0.3516(2) 0.29181(18) -0.03075(16)
H3 H 0.3710 0.2369 -0.0346
O10 O 0.5710(2) 0.2882(2) 0.31938(15)
O11 O 0.7331(2) 0.31861(19) 0.22929(15)
O12 O 0.6003(2) 0.45861(19) 0.22758(16)
O13 O 0.3510(2) 0.09408(18) -0.03533(14)
H4 H 0.2922 0.0878 -0.0538
O14 O 0.4893(2) -0.2004(2) 0.36461(16)
O15 O 0.4404(2) -0.04306(19) 0.38644(15)
O16 O 0.2998(2) -0.14653(19) 0.38604(16)
C1 C 0.0401(3) 0.1225(3) 0.0510(2)
C2 C 0.0607(3) 0.0174(3) 0.0846(2)
C3 C -0.0112(3) -0.0383(3) 0.1429(2)
H5 H 0.0023 -0.1078 0.1642
C4 C -0.1033(3) 0.0083(3) 0.1701(2)
C5 C -0.1227(3) 0.1108(3) 0.1394(2)
H6 H -0.1834 0.1420 0.1589
C6 C -0.0527(3) 0.1689(3) 0.0793(2)
C7 C 0.0973(3) 0.3875(3) 0.0239(2)
C8 C 0.0094(3) 0.3480(3) 0.0770(2)
C9 C -0.0031(3) 0.3505(3) 0.1620(2)
H7 H -0.0620 0.3249 0.1959
C10 C 0.0729(3) 0.3915(3) 0.1965(2)
C11 C 0.1590(3) 0.4327(3) 0.1435(2)
H8 H 0.2081 0.4623 0.1658
C12 C 0.1723(3) 0.4303(3) 0.0587(2)
C13 C 0.5103(3) 0.2388(2) 0.0671(2)
C14 C 0.4186(3) 0.3072(3) 0.0266(2)
C15 C 0.3948(3) 0.3946(3) 0.0462(2)
C16 C 0.4606(3) 0.4108(3) 0.1073(2)
H9 H 0.4458 0.4694 0.1196
C17 C 0.5474(3) 0.3414(3) 0.1498(2)
C18 C 0.5722(3) 0.2556(3) 0.1291(2)
H10 H 0.6310 0.2090 0.1573
C19 C 0.3599(3) 0.0428(2) 0.0533(2)
C20 C 0.2839(3) -0.0195(3) 0.1019(2)
C21 C 0.2970(3) -0.0654(3) 0.1942(2)
H11 H 0.2446 -0.1038 0.2269
C22 C 0.3872(3) -0.0543(3) 0.2371(2)
C23 C 0.4660(3) 0.0038(3) 0.1892(2)
H12 H 0.5277 0.0096 0.2178
C24 C 0.4512(3) 0.0530(3) 0.0977(2)
N1 N 0.6839(3) 0.5665(2) 0.37029(19)
N2 N 0.5108(3) 0.6751(2) 0.25049(18)
C25 C 0.7710(3) 0.5120(3) 0.4160(2)
H13 H 0.8367 0.5386 0.4106
C26 C 0.7635(4) 0.4137(3) 0.4726(3)
H14 H 0.8252 0.3733 0.5028
C27 C 0.6655(4) 0.3776(3) 0.4834(3)
H15 H 0.6602 0.3132 0.5232
C28 C 0.5721(3) 0.4353(3) 0.4357(2)
C29 C 0.4675(3) 0.4015(3) 0.4450(2)
H16 H 0.4590 0.3389 0.4867
C30 C 0.3820(4) 0.4563(3) 0.3964(2)
H17 H 0.3142 0.4329 0.4055
C31 C 0.3940(3) 0.5522(3) 0.3291(2)
C32 C 0.3076(3) 0.6109(3) 0.2704(3)
H18 H 0.2386 0.5899 0.2769
C33 C 0.3253(3) 0.6972(3) 0.2052(3)
H19 H 0.2686 0.7358 0.1668
C34 C 0.4284(3) 0.7280(3) 0.1956(2)
H20 H 0.4403 0.7869 0.1499
C35 C 0.4966(3) 0.5870(3) 0.3195(2)
C36 C 0.5860(3) 0.5301(3) 0.3760(2)
C37 C 0.6226(3) 0.7051(3) 0.2326(2)
H21 H 0.6175 0.7771 0.2030
H22 H 0.6590 0.6741 0.1931
C38 C 0.6892(3) 0.6744(3) 0.3172(2)
H23 H 0.7645 0.6853 0.3030
H24 H 0.6613 0.7150 0.3518
N3 N 0.3086(3) 0.1211(2) 0.4210(2)
N4 N 0.2432(3) -0.0530(2) 0.54741(19)
C39 C 0.3570(3) 0.1921(3) 0.3568(3)
H25 H 0.4111 0.2231 0.3717
C40 C 0.3253(4) 0.2178(3) 0.2696(3)
H26 H 0.3619 0.2632 0.2252
C41 C 0.2418(3) 0.1782(3) 0.2472(3)
H27 H 0.2190 0.1990 0.1882
C42 C 0.1901(3) 0.1063(3) 0.3126(2)
C43 C 0.0998(3) 0.0629(3) 0.2952(3)
H28 H 0.0704 0.0857 0.2379
C44 C 0.0561(3) -0.0100(3) 0.3595(3)
H29 H -0.0053 -0.0342 0.3468
C45 C 0.1025(3) -0.0508(3) 0.4471(3)
C46 C 0.0696(4) -0.1366(3) 0.5137(3)
H30 H 0.0106 -0.1656 0.5035
C47 C 0.1251(4) -0.1766(3) 0.5935(3)
H31 H 0.1038 -0.2329 0.6375
C48 C 0.2114(4) -0.1340(3) 0.6084(3)
H32 H 0.2488 -0.1624 0.6626
C49 C 0.1896(3) -0.0090(3) 0.4661(2)
C50 C 0.2306(3) 0.0741(3) 0.4007(2)
C51 C 0.3359(3) 0.0935(3) 0.5158(3)
H33 H 0.2793 0.1246 0.5438
H34 H 0.4042 0.1174 0.5219
C52 C 0.3460(3) -0.0165(3) 0.5601(2)
H35 H 0.3609 -0.0344 0.6230
H36 H 0.4061 -0.0475 0.5350
O17 O 0.2045(2) 0.46048(18) 0.80093(15)
O18 O 0.2033(3) 0.2999(2) 0.52212(18)
O19 O 0.0191(6) 0.5461(6) 0.4352(5)
O23 O 0.0619(9) 0.6932(8) 0.1864(7)
O20? O 0.0063(7) 0.5981(6) 0.3838(5)
O21? O 0.0361(12) 0.7301(10) 0.3477(8)
O22? O 0.0954(6) 0.7639(5) 0.3455(4)
loop_
_geom_bond_atom_site_label_1
_geom_bond_atom_site_label_2
_geom_bond_site_symmetry_1
_geom_bond_site_symmetry_2
S1 C6 1_555 1_555
S2 O6 1_555 1_555
S3 C12 1_555 1_555
S4 O10 1_555 1_555
S5 C13 1_555 1_555
S6 O14 1_555 1_555
S7 C2 1_555 1_555
S8 O2 1_555 1_555
O1 H1 1_555 1_555
O3 S8 1_555 1_555
O4 S8 1_555 1_555
O5 H2 1_555 1_555
O7 S2 1_555 1_555
O8 S2 1_555 1_555
O9 H3 1_555 1_555
O11 S4 1_555 1_555
O12 S4 1_555 1_555
O13 H4 1_555 1_555
O15 S6 1_555 1_555
O16 S6 1_555 1_555
C1 O1 1_555 1_555
C2 C1 1_555 1_555
C3 C2 1_555 1_555
H5 C3 1_555 1_555
C4 S8 1_555 1_555
C5 C4 1_555 1_555
H6 C5 1_555 1_555
C6 C1 1_555 1_555
C7 O5 1_555 1_555
C8 S1 1_555 1_555
C9 C8 1_555 1_555
H7 C9 1_555 1_555
C10 S2 1_555 1_555
C11 C10 1_555 1_555
H8 C11 1_555 1_555
C12 C7 1_555 1_555
C13 C14 1_555 1_555
C14 O9 1_555 1_555
C15 S3 1_555 1_555
C16 C15 1_555 1_555
H9 C16 1_555 1_555
C17 S4 1_555 1_555
C18 C13 1_555 1_555
H10 C18 1_555 1_555
C19 O13 1_555 1_555
C20 S7 1_555 1_555
C21 C20 1_555 1_555
H11 C21 1_555 1_555
C22 S6 1_555 1_555
C23 C22 1_555 1_555
H12 C23 1_555 1_555
C24 S5 1_555 1_555
N1 C25 1_555 1_555
N2 C34 1_555 1_555
C25 H13 1_555 1_555
C26 C25 1_555 1_555
H14 C26 1_555 1_555
C27 C26 1_555 1_555
H15 C27 1_555 1_555
C28 C27 1_555 1_555
C29 C28 1_555 1_555
H16 C29 1_555 1_555
C30 C29 1_555 1_555
H17 C30 1_555 1_555
C31 C30 1_555 1_555
C32 C31 1_555 1_555
H18 C32 1_555 1_555
C33 C32 1_555 1_555
H19 C33 1_555 1_555
C34 C33 1_555 1_555
H20 C34 1_555 1_555
C35 N2 1_555 1_555
C36 N1 1_555 1_555
C37 N2 1_555 1_555
H21 C37 1_555 1_555
H22 C37 1_555 1_555
C38 N1 1_555 1_555
H23 C38 1_555 1_555
H24 C38 1_555 1_555
N3 C39 1_555 1_555
N4 C48 1_555 1_555
C39 H25 1_555 1_555
C40 C39 1_555 1_555
H26 C40 1_555 1_555
C41 C40 1_555 1_555
H27 C41 1_555 1_555
C42 C41 1_555 1_555
C43 C42 1_555 1_555
H28 C43 1_555 1_555
C44 C43 1_555 1_555
H29 C44 1_555 1_555
C45 C44 1_555 1_555
C46 C45 1_555 1_555
H30 C46 1_555 1_555
C47 C46 1_555 1_555
H31 C47 1_555 1_555
C48 C47 1_555 1_555
H32 C48 1_555 1_555
C49 N4 1_555 1_555
C50 N3 1_555 1_555
C51 N3 1_555 1_555
H33 C51 1_555 1_555
H34 C51 1_555 1_555
C52 N4 1_555 1_555
H35 C52 1_555 1_555
H36 C52 1_555 1_555
C3 C4 1_555 1_555
C5 C6 1_555 1_555
C7 C8 1_555 1_555
C9 C10 1_555 1_555
C11 C12 1_555 1_555
C14 C15 1_555 1_555
C16 C17 1_555 1_555
C17 C18 1_555 1_555
C19 C20 1_555 1_555
C19 C24 1_555 1_555
C21 C22 1_555 1_555
C23 C24 1_555 1_555
C28 C36 1_555 1_555
C31 C35 1_555 1_555
C35 C36 1_555 1_555
C37 C38 1_555 1_555
C42 C50 1_555 1_555
C45 C49 1_555 1_555
C49 C50 1_555 1_555
C51 C52 1_555 1_555

#END
