
#######################################################################
#
#                 Cambridge Crystallographic Data Centre
#                                CCDC 
#
#######################################################################
#
# If this CIF has been generated from an entry in the Cambridge 
# Structural Database, then it will include bibliographic, chemical, 
# crystal, experimental, refinement or atomic coordinate data resulting 
# from the CCDC's data processing and validation procedures.
#
#######################################################################

data_HUCLEW
_chemical_formula_moiety         'C8 H4 N2 O8,2(H2 O1)'
_chemical_name_systematic        
'2,3,5,6-Pyrazinetetracarboxylic acid dihydrate'
_symmetry_cell_setting           triclinic
_symmetry_space_group_name_H-M   'P -1'
_symmetry_Int_Tables_number      2
_space_group_name_Hall           '-P 1'
loop_
_symmetry_equiv_pos_site_id
_symmetry_equiv_pos_as_xyz
1 x,y,z
2 -x,-y,-z
_cell_length_a                   5.4409(3)
_cell_length_b                   6.4041(3)
_cell_length_c                   8.6995(3)
_cell_angle_alpha                98.572(3)
_cell_angle_beta                 107.374(3)
_cell_angle_gamma                105.519(3)
_cell_volume                     269.972
_exptl_crystal_colour            colorless
_exptl_crystal_description       needle
_chemical_melting_point          475K
_cell_formula_units_Z            1
_exptl_crystal_recrystallization_method 'aqueous hydrochloric acid'
loop_
_atom_site_label
_atom_site_type_symbol
_atom_site_fract_x
_atom_site_fract_y
_atom_site_fract_z
O1 O 0.2537(2) 0.94900(13) 0.09048(10)
H1 H 0.2360(44) 1.0775(39) 0.1506(26)
O2 O 0.6351(2) 1.00251(14) 0.30665(10)
O3 O 0.7472(2) 0.6144(2) 0.44454(10)
O4 O 1.0968(2) 0.7796(2) 0.36953(10)
H2 H 1.1841(39) 0.8257(32) 0.4822(24)
N1 N 0.3101(2) 0.5957(2) -0.07642(11)
C1 C 0.4610(2) 0.8972(2) 0.17216(13)
C2 C 0.4784(2) 0.6852(2) 0.08150(13)
C3 C 0.6683(2) 0.5881(2) 0.15839(13)
C4 C 0.8416(2) 0.6668(2) 0.34187(13)
C3A C 0.3317(2) 0.4119(2) -0.15839(13)
C2A C 0.5216(2) 0.3148(2) -0.08150(13)
N1A N 0.6899(2) 0.4043(2) 0.07642(11)
C1A C 0.5390(2) 0.1028(2) -0.17216(13)
O1A O 0.7463(2) 0.05100(13) -0.09048(10)
H1A H 0.7640(44) -0.0775(39) -0.1506(26)
O2A O 0.3649(2) -0.00251(14) -0.30665(10)
C4A C 0.1584(2) 0.3332(2) -0.34187(13)
O3A O 0.2528(2) 0.3856(2) -0.44454(10)
O4A O -0.0968(2) 0.2204(2) -0.36953(10)
H2A H -0.1841(39) 0.1743(32) -0.4822(24)
H3 H 0.2219(39) 0.3267(32) 0.3289(25)
H4 H 0.0203(45) 0.2839(33) 0.1737(26)
O5 O 0.1840(2) 0.29009(14) 0.21977(10)
loop_
_geom_bond_atom_site_label_1
_geom_bond_atom_site_label_2
_geom_bond_site_symmetry_1
_geom_bond_site_symmetry_2
O1 H1 1_555 1_555
O2 C1 1_555 1_555
O3 C4 1_555 1_555
O4 H2 1_555 1_555
N1 C2 1_555 1_555
C1 O1 1_555 1_555
C2 C1 1_555 1_555
C3 C2 1_555 1_555
C4 O4 1_555 1_555
H3 O5 1_555 1_555
H4 O5 1_555 1_555
C3A N1 1_555 1_555
C2A C3A 1_555 1_555
N1A C3 1_555 1_555
C1A C2A 1_555 1_555
O1A C1A 1_555 1_555
H1A O1A 1_555 1_555
O2A C1A 1_555 1_555
C4A C3A 1_555 1_555
O3A C4A 1_555 1_555
O4A C4A 1_555 1_555
H2A O4A 1_555 1_555
C3 C4 1_555 1_555
C2A N1A 1_555 1_555

#END
