
#######################################################################
#
#                 Cambridge Crystallographic Data Centre
#                                CCDC 
#
#######################################################################
#
# If this CIF has been generated from an entry in the Cambridge 
# Structural Database, then it will include bibliographic, chemical, 
# crystal, experimental, refinement or atomic coordinate data resulting 
# from the CCDC's data processing and validation procedures.
#
#######################################################################

data_HUCLEW02
_chemical_formula_moiety         'C8 H4 N2 O8,2(H2 O1)'
_chemical_name_systematic        
'2,3,5,6-Pyrazinetetracarboxylic acid dihydrate'
_symmetry_cell_setting           triclinic
_symmetry_space_group_name_H-M   'P -1'
_symmetry_Int_Tables_number      2
_space_group_name_Hall           '-P 1'
loop_
_symmetry_equiv_pos_site_id
_symmetry_equiv_pos_as_xyz
1 x,y,z
2 -x,-y,-z
_cell_length_a                   5.4606(10)
_cell_length_b                   6.4133(10)
_cell_length_c                   8.7164(10)
_cell_angle_alpha                98.962(5)
_cell_angle_beta                 107.408(5)
_cell_angle_gamma                105.348(5)
_cell_volume                     271.572
_exptl_crystal_colour            'pale yellow'
_exptl_crystal_description       plate
_chemical_melting_point          '480 K'
_cell_formula_units_Z            1
_exptl_crystal_recrystallization_method 'aqueous hydrochloric acid'
loop_
_atom_site_label
_atom_site_type_symbol
_atom_site_fract_x
_atom_site_fract_y
_atom_site_fract_z
O1 O 0.25425(18) -0.05133(14) 0.09079(10)
O3 O 0.63211(19) 0.00291(15) 0.30658(11)
O4 O 0.7471(2) -0.38336(18) 0.44397(11)
O5 O 1.09379(18) -0.22022(17) 0.36970(11)
N1 N 0.31162(10) -0.40491(8) -0.07616(6)
H1 H 0.2333(3) 0.0937(3) 0.15603(19)
H2 H 1.1991(4) -0.1674(3) 0.4906(2)
C1 C 0.45986(14) -0.10308(11) 0.17202(8)
C2 C 0.47813(13) -0.31491(10) 0.08163(8)
C3 C 0.66738(13) -0.41147(11) 0.15876(8)
C4 C 0.84072(14) -0.33187(11) 0.34145(8)
C3A C 0.33262(13) -0.58853(11) -0.15876(8)
C2A C 0.52187(13) -0.68509(10) -0.08163(8)
N1A N 0.68838(10) -0.59509(8) 0.07616(6)
C1A C 0.54014(14) -0.89692(11) -0.17202(8)
O1A O 0.74575(18) -0.94867(14) -0.09079(10)
H1A H 0.7667(3) -1.0937(3) -0.15603(19)
O3A O 0.36789(19) -1.00291(15) -0.30658(11)
C4A C 0.15928(14) -0.66813(11) -0.34145(8)
O4A O 0.2529(2) -0.61664(18) -0.44397(11)
O5A O -0.09379(18) -0.77978(17) -0.36970(11)
H2A H -0.1991(4) -0.8326(3) -0.4906(2)
O2 O 0.18278(19) 0.28981(14) 0.21995(11)
H3 H 0.2212(4) 0.3306(3) 0.3381(2)
H4 H 0.0010(4) 0.2893(3) 0.1651(2)
loop_
_geom_bond_atom_site_label_1
_geom_bond_atom_site_label_2
_geom_bond_site_symmetry_1
_geom_bond_site_symmetry_2
O1 H1 1_555 1_555
O2 H3 1_555 1_555
O3 C1 1_555 1_555
O4 C4 1_555 1_555
O5 H2 1_555 1_555
N1 C2 1_555 1_555
C1 O1 1_555 1_555
C2 C1 1_555 1_555
C3 C2 1_555 1_555
C4 O5 1_555 1_555
H4 O2 1_555 1_555
C3A N1 1_555 1_555
C2A C3A 1_555 1_555
N1A C3 1_555 1_555
C1A C2A 1_555 1_555
O1A C1A 1_555 1_555
H1A O1A 1_555 1_555
O3A C1A 1_555 1_555
C4A C3A 1_555 1_555
O4A C4A 1_555 1_555
O5A C4A 1_555 1_555
H2A O5A 1_555 1_555
C3 C4 1_555 1_555
C2A N1A 1_555 1_555

#END
