
#######################################################################
#
#                 Cambridge Crystallographic Data Centre
#                                CCDC 
#
#######################################################################
#
# If this CIF has been generated from an entry in the Cambridge 
# Structural Database, then it will include bibliographic, chemical, 
# crystal, experimental, refinement or atomic coordinate data resulting 
# from the CCDC's data processing and validation procedures.
#
#######################################################################

data_HUCRON
_chemical_formula_moiety         'C7 H16 N3 O3 1+,C3 H4 N1 O3 1-'
_chemical_name_systematic        
'2-Hydroxy-N-(2-((2-(hydroxyimino)propanoyl)amino)ethyl)ethanaminium 2-(hydroxyimino)propanoate'
_symmetry_cell_setting           monoclinic
_symmetry_space_group_name_H-M   'P 21/c'
_symmetry_Int_Tables_number      14
_space_group_name_Hall           '-P 2ybc'
loop_
_symmetry_equiv_pos_site_id
_symmetry_equiv_pos_as_xyz
1 x,y,z
2 -x,1/2+y,1/2-z
3 -x,-y,-z
4 x,1/2-y,1/2+z
_cell_length_a                   9.355(2)
_cell_length_b                   6.9960(10)
_cell_length_c                   20.606(4)
_cell_angle_alpha                90
_cell_angle_beta                 96.99(3)
_cell_angle_gamma                90
_cell_volume                     1338.59
_exptl_crystal_colour            colorless
_exptl_crystal_description       block
_cell_formula_units_Z            4
_exptl_crystal_recrystallization_method water
loop_
_atom_site_label
_atom_site_type_symbol
_atom_site_fract_x
_atom_site_fract_y
_atom_site_fract_z
O1 O -0.84446(13) -0.16641(17) 0.98706(6)
O2 O -0.60613(13) -0.22237(19) 1.00166(6)
O3 O -0.84727(14) -0.3817(2) 0.80265(6)
H1 H -0.939(2) -0.373(3) 0.7840(10)
N1 N -0.85445(16) -0.3060(2) 0.86557(7)
C1 C -0.7283(2) -0.2267(3) 0.96857(9)
C2 C -0.73259(19) -0.3166(3) 0.90150(9)
C3 C -0.59762(19) -0.4002(3) 0.88233(9)
H7 H -0.6191 -0.4704 0.8423
H8 H -0.5558 -0.4846 0.9162
H9 H -0.5309 -0.2995 0.8762
O4 O 0.55821(13) 0.0801(2) 0.88257(6)
H2 H 0.583(2) 0.126(3) 0.9258(10)
O5 O 0.12037(13) 0.11505(19) 0.75400(6)
O6 O -0.27505(15) -0.2615(2) 1.00518(6)
H3 H -0.369(2) -0.261(3) 0.9960(9)
N2 N 0.41206(16) 0.1204(2) 0.87427(7)
N3 N 0.13295(17) 0.1750(2) 0.86292(8)
H4 H 0.189(2) 0.184(3) 0.8990(9)
N4 N -0.10824(17) -0.0767(2) 0.90998(7)
H5 H -0.008(2) -0.108(3) 0.9240(9)
H6 H -0.139(2) -0.009(3) 0.9426(9)
C4 C 0.4116(2) -0.0067(3) 0.76127(9)
H10 H 0.5142 -0.0162 0.7719
H11 H 0.3899 0.0728 0.7234
H12 H 0.3720 -0.1319 0.7523
C5 C 0.3476(2) 0.0790(3) 0.81755(9)
C6 C 0.1903(2) 0.1255(3) 0.80944(9)
C7 C -0.01883(19) 0.2223(3) 0.86077(9)
H13 H -0.0450 0.3120 0.8254
H14 H -0.0345 0.2847 0.9013
C8 C -0.1158(2) 0.0483(3) 0.85087(9)
H15 H -0.2145 0.0903 0.8394
H16 H -0.0887 -0.0260 0.8145
C9 C -0.19929(19) -0.2503(3) 0.89620(8)
H17 H -0.1580 -0.3293 0.8646
H18 H -0.2948 -0.2118 0.8770
C10 C -0.2118(2) -0.3664(3) 0.95673(9)
H19 H -0.2698 -0.4789 0.9449
H20 H -0.1167 -0.4091 0.9750
loop_
_geom_bond_atom_site_label_1
_geom_bond_atom_site_label_2
_geom_bond_site_symmetry_1
_geom_bond_site_symmetry_2
O1 C1 1_555 1_555
O2 C1 1_555 1_555
O3 H1 1_555 1_555
O4 H2 1_555 1_555
O5 C6 1_555 1_555
O6 H3 1_555 1_555
N1 O3 1_555 1_555
N2 O4 1_555 1_555
N3 H4 1_555 1_555
N4 H5 1_555 1_555
H6 N4 1_555 1_555
C1 C2 1_555 1_555
C2 N1 1_555 1_555
C3 C2 1_555 1_555
H7 C3 1_555 1_555
H8 C3 1_555 1_555
H9 C3 1_555 1_555
C4 H10 1_555 1_555
H11 C4 1_555 1_555
H12 C4 1_555 1_555
C5 N2 1_555 1_555
C6 N3 1_555 1_555
C7 N3 1_555 1_555
H13 C7 1_555 1_555
H14 C7 1_555 1_555
C8 N4 1_555 1_555
H15 C8 1_555 1_555
H16 C8 1_555 1_555
C9 N4 1_555 1_555
H17 C9 1_555 1_555
H18 C9 1_555 1_555
C10 O6 1_555 1_555
H19 C10 1_555 1_555
H20 C10 1_555 1_555
C4 C5 1_555 1_555
C5 C6 1_555 1_555
C7 C8 1_555 1_555
C9 C10 1_555 1_555

#END
