
#######################################################################
#
#                 Cambridge Crystallographic Data Centre
#                                CCDC 
#
#######################################################################
#
# If this CIF has been generated from an entry in the Cambridge 
# Structural Database, then it will include bibliographic, chemical, 
# crystal, experimental, refinement or atomic coordinate data resulting 
# from the CCDC's data processing and validation procedures.
#
#######################################################################

data_HUCSOP
_chemical_name_common            
'bis(guanidinium) 3,6-dinitropyrazolo[4,3-c]pyrazole-1,4-diide'
_chemical_formula_moiety         'C4 N6 O4 2-,2(C1 H6 N3 1+)'
_chemical_name_systematic        
'bis(diaminomethaniminium) 3,6-dinitropyrazolo[4,3-c]pyrazole-1,4-diide'
_symmetry_cell_setting           monoclinic
_symmetry_space_group_name_H-M   'P 21/c'
_symmetry_Int_Tables_number      14
_space_group_name_Hall           '-P 2ybc'
loop_
_symmetry_equiv_pos_site_id
_symmetry_equiv_pos_as_xyz
1 x,y,z
2 -x,1/2+y,1/2-z
3 -x,-y,-z
4 x,1/2-y,1/2+z
_cell_length_a                   3.5077(3)
_cell_length_b                   10.0767(8)
_cell_length_c                   17.6548(14)
_cell_angle_alpha                90
_cell_angle_beta                 91.124(3)
_cell_angle_gamma                90
_cell_volume                     623.907
_exptl_crystal_colour            orange
_exptl_crystal_description       rod
_cell_formula_units_Z            2
loop_
_atom_site_label
_atom_site_type_symbol
_atom_site_fract_x
_atom_site_fract_y
_atom_site_fract_z
N1 N 1.1883(3) 0.58441(11) 0.57907(6)
N2 N 1.1647(3) 0.46711(11) 0.61426(6)
C1 C 1.0191(3) 0.37545(12) 0.56474(7)
C2 C 0.9435(3) 0.43501(12) 0.49373(7)
N3 N 0.9590(3) 0.24644(11) 0.58828(6)
O1 O 0.8017(3) 0.16710(9) 0.54317(5)
O2 O 1.0590(3) 0.21138(10) 0.65374(5)
N1B N 0.8117(3) 0.41559(11) 0.42093(6)
N2B N 0.8353(3) 0.53289(11) 0.38574(6)
C1B C 0.9809(3) 0.62455(12) 0.43526(7)
C2B C 1.0565(3) 0.56499(12) 0.50627(7)
N3B N 1.0410(3) 0.75356(11) 0.41172(6)
O1B O 1.1983(3) 0.83290(9) 0.45683(5)
O2B O 0.9410(3) 0.78862(10) 0.34626(5)
C3 C 0.3771(3) 0.12891(12) 0.32626(7)
N4 N 0.4938(3) 0.24426(11) 0.29973(7)
H1 H 0.4786 0.2607 0.2508
H2 H 0.5866 0.3047 0.3310
N5 N 0.4039(3) 0.10539(12) 0.40001(6)
H3 H 0.4986 0.1663 0.4308
H4 H 0.3270 0.0289 0.4183
N6 N 0.2364(3) 0.03661(11) 0.28029(6)
H5 H 0.2195 0.0516 0.2312
H6 H 0.1598 -0.0398 0.2988
loop_
_geom_bond_atom_site_label_1
_geom_bond_atom_site_label_2
_geom_bond_site_symmetry_1
_geom_bond_site_symmetry_2
N1 N2 1_555 1_555
N2 C1 1_555 1_555
C1 C2 1_555 1_555
C2 N1B 1_555 1_555
N3 C1 1_555 1_555
O1 N3 1_555 1_555
O2 N3 1_555 1_555
C3 N4 1_555 1_555
N4 H1 1_555 1_555
H2 N4 1_555 1_555
N5 C3 1_555 1_555
H3 N5 1_555 1_555
H4 N5 1_555 1_555
N6 C3 1_555 1_555
H5 N6 1_555 1_555
H6 N6 1_555 1_555
N1B N2B 1_555 1_555
N2B C1B 1_555 1_555
C1B C2B 1_555 1_555
C2B N1 1_555 1_555
N3B C1B 1_555 1_555
O1B N3B 1_555 1_555
O2B N3B 1_555 1_555
C2 C2B 1_555 1_555

#END
