
#######################################################################
#
#                 Cambridge Crystallographic Data Centre
#                                CCDC 
#
#######################################################################
#
# If this CIF has been generated from an entry in the Cambridge 
# Structural Database, then it will include bibliographic, chemical, 
# crystal, experimental, refinement or atomic coordinate data resulting 
# from the CCDC's data processing and validation procedures.
#
#######################################################################

data_HUCTEF
_chemical_formula_moiety         'C16 H23 N2 O5'
_chemical_name_systematic        
'2-(3,4,5-trimethoxyphenyl)-4,4,5,5-tetramethyl-4,5-dihydro-1H-imidazoline-1-oxyl 3-oxide radical'
_symmetry_cell_setting           orthorhombic
_symmetry_space_group_name_H-M   'P b c a'
_symmetry_Int_Tables_number      61
_space_group_name_Hall           '-P 2ac 2ab'
loop_
_symmetry_equiv_pos_site_id
_symmetry_equiv_pos_as_xyz
1 x,y,z
2 1/2-x,-y,1/2+z
3 -x,1/2+y,1/2-z
4 1/2+x,1/2-y,-z
5 -x,-y,-z
6 1/2+x,y,1/2-z
7 x,1/2-y,1/2+z
8 1/2-x,1/2+y,z
_cell_length_a                   20.623(3)
_cell_length_b                   7.2168(12)
_cell_length_c                   22.831(4)
_cell_angle_alpha                90
_cell_angle_beta                 90
_cell_angle_gamma                90
_cell_volume                     3397.98
_exptl_crystal_colour            blue
_exptl_crystal_description       block
_cell_formula_units_Z            8
_exptl_crystal_recrystallization_method n-heptane/dichloromethane
loop_
_atom_site_label
_atom_site_type_symbol
_atom_site_fract_x
_atom_site_fract_y
_atom_site_fract_z
N1 N 0.06793(9) 0.2073(3) 0.49665(8)
N2 N 0.15280(9) 0.0432(3) 0.47376(8)
O1 O 0.01712(9) 0.2652(3) 0.52296(7)
O2 O 0.20243(8) -0.0630(3) 0.47707(7)
O3 O 0.07153(8) 0.1394(2) 0.72841(6)
O4 O 0.12645(7) -0.1894(2) 0.74689(6)
O5 O 0.17240(8) -0.3947(2) 0.65885(7)
C1 C 0.08745(10) 0.2830(3) 0.43780(9)
C2 C 0.13132(10) 0.1227(3) 0.41649(9)
C3 C 0.11082(10) 0.0839(3) 0.51744(9)
C4 C 0.11306(10) 0.0103(3) 0.57690(9)
C5 C 0.14140(10) -0.1615(3) 0.58697(10)
H1 H 0.1574 -0.2313 0.5559
C6 C 0.14551(10) -0.2276(3) 0.64375(10)
C7 C 0.12210(10) -0.1231(3) 0.69035(10)
C8 C 0.09320(11) 0.0479(3) 0.67984(9)
C9 C 0.08840(10) 0.1132(3) 0.62324(9)
H2 H 0.0686 0.2266 0.6161
C10 C 0.03918(13) 0.3130(4) 0.71996(10)
H3 H 0.0693 0.4022 0.7047
H4 H 0.0224 0.3562 0.7567
H5 H 0.0041 0.2971 0.6928
C11 C 0.18747(13) -0.1598(5) 0.77318(11)
H6 H 0.2203 -0.2234 0.7511
H7 H 0.1868 -0.2064 0.8126
H8 H 0.1968 -0.0295 0.7737
C12 C 0.19952(13) -0.5035(4) 0.61337(12)
H9 H 0.1663 -0.5354 0.5857
H10 H 0.2177 -0.6146 0.6296
H11 H 0.2329 -0.4343 0.5940
C13 C 0.12386(12) 0.4629(3) 0.45043(11)
H12 H 0.0965 0.5449 0.4724
H13 H 0.1358 0.5209 0.4141
H14 H 0.1622 0.4360 0.4727
C14 C 0.02814(11) 0.3224(3) 0.40075(10)
H15 H 0.0019 0.2129 0.3984
H16 H 0.0414 0.3586 0.3621
H17 H 0.0035 0.4207 0.4183
C15 C 0.18983(12) 0.1816(4) 0.38065(10)
H18 H 0.2168 0.2619 0.4037
H19 H 0.1756 0.2462 0.3462
H20 H 0.2141 0.0739 0.3694
C16 C 0.09402(13) -0.0316(3) 0.38572(10)
H21 H 0.1214 -0.1385 0.3818
H22 H 0.0808 0.0099 0.3476
H23 H 0.0564 -0.0633 0.4084
loop_
_geom_bond_atom_site_label_1
_geom_bond_atom_site_label_2
_geom_bond_site_symmetry_1
_geom_bond_site_symmetry_2
N1 O1 1_555 1_555
N2 O2 1_555 1_555
O3 C8 1_555 1_555
O4 C7 1_555 1_555
O5 C6 1_555 1_555
C1 N1 1_555 1_555
C2 N2 1_555 1_555
C3 N1 1_555 1_555
C4 C3 1_555 1_555
C5 C4 1_555 1_555
H1 C5 1_555 1_555
C6 C5 1_555 1_555
C7 C6 1_555 1_555
C8 C7 1_555 1_555
C9 C4 1_555 1_555
H2 C9 1_555 1_555
C10 O3 1_555 1_555
H3 C10 1_555 1_555
H4 C10 1_555 1_555
H5 C10 1_555 1_555
C11 O4 1_555 1_555
H6 C11 1_555 1_555
H7 C11 1_555 1_555
H8 C11 1_555 1_555
C12 O5 1_555 1_555
H9 C12 1_555 1_555
H10 C12 1_555 1_555
H11 C12 1_555 1_555
C13 C1 1_555 1_555
H12 C13 1_555 1_555
H13 C13 1_555 1_555
H14 C13 1_555 1_555
C14 C1 1_555 1_555
H15 C14 1_555 1_555
H16 C14 1_555 1_555
H17 C14 1_555 1_555
C15 C2 1_555 1_555
H18 C15 1_555 1_555
H19 C15 1_555 1_555
H20 C15 1_555 1_555
C16 C2 1_555 1_555
H21 C16 1_555 1_555
H22 C16 1_555 1_555
H23 C16 1_555 1_555
N2 C3 1_555 1_555
C1 C2 1_555 1_555
C8 C9 1_555 1_555

#END
