
#######################################################################
#
#                 Cambridge Crystallographic Data Centre
#                                CCDC 
#
#######################################################################
#
# If this CIF has been generated from an entry in the Cambridge 
# Structural Database, then it will include bibliographic, chemical, 
# crystal, experimental, refinement or atomic coordinate data resulting 
# from the CCDC's data processing and validation procedures.
#
#######################################################################

data_HUCVUX
_chemical_formula_moiety         'C25 H21 F2 N3 O5'
_chemical_name_systematic        
'Ethyl 2-((2,6-difluorobenzyl)oxy)-4-(4,6-dimethoxy-2-pyrimidinyl)-3-quinolinecarboxylate'
_symmetry_cell_setting           triclinic
_symmetry_space_group_name_H-M   'P -1'
_symmetry_Int_Tables_number      2
_space_group_name_Hall           '-P 1'
loop_
_symmetry_equiv_pos_site_id
_symmetry_equiv_pos_as_xyz
1 x,y,z
2 -x,-y,-z
_cell_length_a                   9.6623(6)
_cell_length_b                   10.7044(6)
_cell_length_c                   11.3856(7)
_cell_angle_alpha                84.4660(10)
_cell_angle_beta                 82.251(2)
_cell_angle_gamma                81.3940(10)
_cell_volume                     1150.21
_exptl_crystal_colour            colorless
_exptl_crystal_description       block
_cell_formula_units_Z            2
_exptl_crystal_recrystallization_method ethanol
loop_
_atom_site_label
_atom_site_type_symbol
_atom_site_fract_x
_atom_site_fract_y
_atom_site_fract_z
C1 C -0.11250(16) 1.02922(15) 0.13717(14)
C2 C -0.20285(19) 1.12507(18) 0.08156(17)
H1 H -0.1963 1.2096 0.0892
C3 C -0.3002(2) 1.09504(19) 0.01640(17)
H2 H -0.3596 1.1593 -0.0200
C4 C -0.31136(19) 0.96834(19) 0.00409(17)
H3 H -0.3772 0.9490 -0.0414
C5 C -0.22682(18) 0.87332(17) 0.05793(15)
H4 H -0.2358 0.7894 0.0496
C6 C -0.12486(16) 0.90099(15) 0.12685(13)
C7 C -0.02903(16) 0.80657(15) 0.18258(14)
C8 C 0.07269(16) 0.84312(14) 0.23904(14)
C9 C 0.07460(16) 0.97547(15) 0.24412(14)
C10 C -0.03328(16) 0.66870(15) 0.17606(13)
C11 C -0.15329(17) 0.50141(15) 0.20841(15)
C12 C -0.03457(18) 0.42061(16) 0.17093(16)
H5 H -0.0349 0.3339 0.1700
C13 C 0.08520(18) 0.47704(15) 0.13469(15)
C14 C -0.3984(2) 0.5352(2) 0.2799(2)
H6 H -0.3829 0.5797 0.3452
H7 H -0.4753 0.4874 0.3041
H8 H -0.4207 0.5951 0.2145
C15 C 0.3280(2) 0.4621(2) 0.0603(2)
H9 H 0.3116 0.5246 -0.0044
H10 H 0.4055 0.3993 0.0354
H11 H 0.3501 0.5021 0.1261
C16 C 0.17828(19) 0.75111(15) 0.29953(15)
C17 C 0.1993(3) 0.5997(2) 0.4653(2)
H12 H 0.1614 0.6036 0.5484
H13 H 0.2941 0.6220 0.4559
C18 C 0.2047(3) 0.4705(2) 0.4309(2)
H14 H 0.1105 0.4507 0.4343
H15 H 0.2555 0.4119 0.4845
H16 H 0.2516 0.4643 0.3514
C19 C 0.17799(19) 1.13573(16) 0.31615(18)
H17 H 0.0887 1.1728 0.3567
H18 H 0.1933 1.1807 0.2384
C20 C 0.29534(18) 1.14504(15) 0.38676(16)
C21 C 0.2822(2) 1.12069(18) 0.50781(18)
C22 C 0.3845(3) 1.1322(2) 0.5770(2)
H19 H 0.3701 1.1150 0.6590
C23 C 0.5084(3) 1.1696(2) 0.5223(3)
H20 H 0.5792 1.1781 0.5676
C24 C 0.5287(2) 1.1944(2) 0.4020(3)
H21 H 0.6129 1.2195 0.3648
C25 C 0.4223(2) 1.18172(18) 0.33639(19)
F1 F 0.16058(16) 1.08091(16) 0.55995(13)
F2 F 0.44154(15) 1.20738(14) 0.21759(13)
N1 N -0.01274(14) 1.06487(12) 0.19857(12)
N2 N 0.08787(14) 0.60077(13) 0.13662(12)
N3 N -0.15616(14) 0.62592(13) 0.21236(12)
O1 O -0.27320(13) 0.45076(12) 0.24386(13)
O2 O 0.20379(13) 0.40262(12) 0.09621(12)
O3 O 0.30275(14) 0.73618(13) 0.27045(13)
O4 O 0.11257(15) 0.68999(12) 0.39364(12)
O5 O 0.17624(12) 1.00344(10) 0.30413(11)
loop_
_geom_bond_atom_site_label_1
_geom_bond_atom_site_label_2
_geom_bond_site_symmetry_1
_geom_bond_site_symmetry_2
C1 C2 1_555 1_555
C2 H1 1_555 1_555
C3 C2 1_555 1_555
H2 C3 1_555 1_555
C4 C3 1_555 1_555
H3 C4 1_555 1_555
C5 C4 1_555 1_555
H4 C5 1_555 1_555
C6 C1 1_555 1_555
C7 C6 1_555 1_555
C8 C7 1_555 1_555
C9 C8 1_555 1_555
C10 C7 1_555 1_555
C11 C12 1_555 1_555
C12 H5 1_555 1_555
C13 C12 1_555 1_555
C14 H6 1_555 1_555
H7 C14 1_555 1_555
H8 C14 1_555 1_555
C15 H9 1_555 1_555
H10 C15 1_555 1_555
H11 C15 1_555 1_555
C16 C8 1_555 1_555
C17 H12 1_555 1_555
H13 C17 1_555 1_555
C18 C17 1_555 1_555
H14 C18 1_555 1_555
H15 C18 1_555 1_555
H16 C18 1_555 1_555
C19 H17 1_555 1_555
H18 C19 1_555 1_555
C20 C19 1_555 1_555
C21 C20 1_555 1_555
C22 C21 1_555 1_555
H19 C22 1_555 1_555
C23 C22 1_555 1_555
H20 C23 1_555 1_555
C24 C23 1_555 1_555
H21 C24 1_555 1_555
C25 C20 1_555 1_555
F1 C21 1_555 1_555
F2 C25 1_555 1_555
N1 C1 1_555 1_555
N2 C10 1_555 1_555
N3 C10 1_555 1_555
O1 C11 1_555 1_555
O2 C13 1_555 1_555
O3 C16 1_555 1_555
O4 C16 1_555 1_555
O5 C9 1_555 1_555
C5 C6 1_555 1_555
C9 N1 1_555 1_555
C11 N3 1_555 1_555
C13 N2 1_555 1_555
C14 O1 1_555 1_555
C15 O2 1_555 1_555
C17 O4 1_555 1_555
C19 O5 1_555 1_555
C24 C25 1_555 1_555

#END
