
#######################################################################
#
#                 Cambridge Crystallographic Data Centre
#                                CCDC 
#
#######################################################################
#
# If this CIF has been generated from an entry in the Cambridge 
# Structural Database, then it will include bibliographic, chemical, 
# crystal, experimental, refinement or atomic coordinate data resulting 
# from the CCDC's data processing and validation procedures.
#
#######################################################################

data_HUCXOT
_chemical_compound_source        
'dried leaves of Primsatomoris malayana Ridley (Rubiaceae)'
_chemical_name_common            'Methyl 3-acetoxyurs-12-en-28-oate'
_chemical_formula_moiety         'C33 H52 O4'
_chemical_name_systematic        'Methyl 3-acetoxy-3-dehydroxyursolate'
_symmetry_cell_setting           orthorhombic
_symmetry_space_group_name_H-M   'P 21 21 21'
_symmetry_Int_Tables_number      19
_space_group_name_Hall           'P 2ac 2ab'
loop_
_symmetry_equiv_pos_site_id
_symmetry_equiv_pos_as_xyz
1 x,y,z
2 1/2-x,-y,1/2+z
3 -x,1/2+y,1/2-z
4 1/2+x,1/2-y,-z
_cell_length_a                   6.82450(10)
_cell_length_b                   13.4874(2)
_cell_length_c                   32.2233(5)
_cell_angle_alpha                90
_cell_angle_beta                 90
_cell_angle_gamma                90
_cell_volume                     2965.99
_exptl_crystal_colour            colorless
_exptl_crystal_description       block
_cell_formula_units_Z            4
loop_
_atom_site_label
_atom_site_type_symbol
_atom_site_fract_x
_atom_site_fract_y
_atom_site_fract_z
O1 O 0.8683(2) 0.63811(9) 0.94880(4)
O2 O 0.5731(2) 0.69609(13) 0.93041(6)
O3 O 1.03757(18) -0.18360(9) 0.86981(4)
O4 O 1.20002(18) -0.09494(10) 0.82218(4)
C1 C 0.8406(3) 0.54575(12) 0.92596(5)
H1 H 0.7088 0.5471 0.9124
C2 C 0.8468(3) 0.45891(13) 0.95692(5)
C3 C 0.8466(2) 0.36120(12) 0.93090(5)
H2 H 0.7162 0.3605 0.9167
C4 C 0.8493(3) 0.26628(12) 0.95708(5)
H3 H 0.9840 0.2539 0.9672
H4 H 0.7628 0.2747 0.9815
C5 C 0.7799(3) 0.17749(12) 0.93146(5)
H5 H 0.6399 0.1869 0.9245
H6 H 0.7903 0.1169 0.9487
C6 C 0.8959(2) 0.16124(12) 0.89087(5)
C7 C 0.7757(2) 0.09206(12) 0.86003(5)
C8 C 0.7354(2) -0.00924(12) 0.88113(5)
H7 H 0.8521 -0.0281 0.8976
H8 H 0.6246 -0.0013 0.9007
C9 C 0.6875(2) -0.09377(12) 0.85118(5)
H9 H 0.5591 -0.0809 0.8379
H10 H 0.6772 -0.1566 0.8669
C10 C 0.8445(2) -0.10472(12) 0.81746(5)
C11 C 0.8054(3) -0.19544(12) 0.78927(6)
H11 H 0.9208 -0.2068 0.7713
H12 H 0.7873 -0.2550 0.8068
C12 C 0.6244(3) -0.18105(13) 0.76217(6)
H13 H 0.5069 -0.1769 0.7801
H14 H 0.6088 -0.2393 0.7438
C13 C 0.6387(3) -0.08737(13) 0.73579(6)
H15 H 0.7532 -0.0950 0.7167
C14 C 0.6737(3) 0.00559(12) 0.76254(5)
H16 H 0.5554 0.0166 0.7803
C15 C 0.8546(2) -0.00871(12) 0.79156(5)
H17 H 0.9717 -0.0151 0.7731
C16 C 0.8921(2) 0.08048(12) 0.81955(5)
C17 C 1.0181(2) 0.14961(12) 0.80750(5)
H18 H 1.0886 0.1375 0.7826
C18 C 1.0591(3) 0.24517(12) 0.82969(5)
H19 H 1.0380 0.3009 0.8102
H20 H 1.1986 0.2462 0.8381
C19 C 0.9313(2) 0.26154(11) 0.86828(5)
H21 H 0.8000 0.2808 0.8571
C20 C 0.9982(2) 0.35270(12) 0.89520(5)
C21 C 0.9818(3) 0.44612(12) 0.86787(5)
H22 H 1.0873 0.4448 0.8468
H23 H 0.8549 0.4447 0.8530
C22 C 0.9963(3) 0.54291(12) 0.89246(5)
H24 H 1.1277 0.5482 0.9053
H25 H 0.9788 0.6000 0.8735
C23 C 0.7261(3) 0.70689(15) 0.94762(6)
C24 C 0.7851(4) 0.79780(15) 0.97118(7)
H26 H 0.6719 0.8420 0.9740
H27 H 0.8899 0.8322 0.9562
H28 H 0.8322 0.7787 0.9988
C25 C 1.0202(3) 0.46737(14) 0.98688(6)
H29 H 0.9960 0.5213 1.0066
H30 H 1.1401 0.4813 0.9712
H31 H 1.0357 0.4049 1.0020
C26 C 0.6580(3) 0.46347(15) 0.98272(6)
H32 H 0.6476 0.5286 0.9960
H33 H 0.6611 0.4117 1.0041
H34 H 0.5447 0.4530 0.9646
C27 C 1.0929(2) 0.11123(12) 0.90219(5)
H35 H 1.1746 0.1581 0.9177
H36 H 1.1610 0.0914 0.8767
H37 H 1.0679 0.0525 0.9193
C28 C 0.5736(2) 0.13716(12) 0.84835(5)
H38 H 0.4877 0.0848 0.8377
H39 H 0.5916 0.1879 0.8269
H40 H 0.5142 0.1672 0.8730
C29 C 1.0468(3) -0.12439(12) 0.83603(5)
C30 C 1.2249(3) -0.20894(15) 0.88788(7)
H41 H 1.2043 -0.2512 0.9122
H42 H 1.2930 -0.1482 0.8963
H43 H 1.3043 -0.2445 0.8674
C31 C 0.4540(4) -0.07768(16) 0.70914(8)
H44 H 0.4315 -0.1398 0.6941
H45 H 0.4711 -0.0235 0.6892
H46 H 0.3412 -0.0636 0.7270
C32 C 0.7024(3) 0.09685(14) 0.73502(5)
H47 H 0.5835 0.1083 0.7187
H48 H 0.8135 0.0858 0.7163
H49 H 0.7285 0.1549 0.7525
C33 C 1.2140(3) 0.34623(13) 0.91040(6)
H50 H 1.2638 0.4131 0.9158
H51 H 1.2945 0.3145 0.8890
H52 H 1.2198 0.3070 0.9360
loop_
_geom_bond_atom_site_label_1
_geom_bond_atom_site_label_2
_geom_bond_site_symmetry_1
_geom_bond_site_symmetry_2
O1 C1 1_555 1_555
O2 C23 1_555 1_555
O3 C29 1_555 1_555
O4 C29 1_555 1_555
C1 H1 1_555 1_555
C2 C1 1_555 1_555
C3 C2 1_555 1_555
H2 C3 1_555 1_555
C4 C3 1_555 1_555
H3 C4 1_555 1_555
H4 C4 1_555 1_555
C5 C4 1_555 1_555
H5 C5 1_555 1_555
H6 C5 1_555 1_555
C6 C5 1_555 1_555
C7 C6 1_555 1_555
C8 C7 1_555 1_555
H7 C8 1_555 1_555
H8 C8 1_555 1_555
C9 C8 1_555 1_555
H9 C9 1_555 1_555
H10 C9 1_555 1_555
C10 C9 1_555 1_555
C11 C10 1_555 1_555
H11 C11 1_555 1_555
H12 C11 1_555 1_555
C12 C11 1_555 1_555
H13 C12 1_555 1_555
H14 C12 1_555 1_555
C13 C12 1_555 1_555
H15 C13 1_555 1_555
C14 C13 1_555 1_555
H16 C14 1_555 1_555
C15 C10 1_555 1_555
H17 C15 1_555 1_555
C16 C7 1_555 1_555
C17 C16 1_555 1_555
H18 C17 1_555 1_555
C18 C17 1_555 1_555
H19 C18 1_555 1_555
H20 C18 1_555 1_555
C19 C6 1_555 1_555
H21 C19 1_555 1_555
C20 C3 1_555 1_555
C21 C20 1_555 1_555
H22 C21 1_555 1_555
H23 C21 1_555 1_555
C22 C1 1_555 1_555
H24 C22 1_555 1_555
H25 C22 1_555 1_555
C23 O1 1_555 1_555
C24 C23 1_555 1_555
H26 C24 1_555 1_555
H27 C24 1_555 1_555
H28 C24 1_555 1_555
C25 C2 1_555 1_555
H29 C25 1_555 1_555
H30 C25 1_555 1_555
H31 C25 1_555 1_555
C26 C2 1_555 1_555
H32 C26 1_555 1_555
H33 C26 1_555 1_555
H34 C26 1_555 1_555
C27 C6 1_555 1_555
H35 C27 1_555 1_555
H36 C27 1_555 1_555
H37 C27 1_555 1_555
C28 C7 1_555 1_555
H38 C28 1_555 1_555
H39 C28 1_555 1_555
H40 C28 1_555 1_555
C29 C10 1_555 1_555
C30 O3 1_555 1_555
H41 C30 1_555 1_555
H42 C30 1_555 1_555
H43 C30 1_555 1_555
C31 C13 1_555 1_555
H44 C31 1_555 1_555
H45 C31 1_555 1_555
H46 C31 1_555 1_555
C32 C14 1_555 1_555
H47 C32 1_555 1_555
H48 C32 1_555 1_555
H49 C32 1_555 1_555
C33 C20 1_555 1_555
H50 C33 1_555 1_555
H51 C33 1_555 1_555
H52 C33 1_555 1_555
C14 C15 1_555 1_555
C15 C16 1_555 1_555
C18 C19 1_555 1_555
C19 C20 1_555 1_555
C21 C22 1_555 1_555

#END
