
#######################################################################
#
#                 Cambridge Crystallographic Data Centre
#                                CCDC 
#
#######################################################################
#
# If this CIF has been generated from an entry in the Cambridge 
# Structural Database, then it will include bibliographic, chemical, 
# crystal, experimental, refinement or atomic coordinate data resulting 
# from the CCDC's data processing and validation procedures.
#
#######################################################################

data_HUCZEL
_chemical_formula_moiety         'C9 H11 N3 O2'
_chemical_name_systematic        
(2RS)-3-Hydroxy-2-methyl-2-(2-pyridyl)imidazolidine-4-one
_symmetry_cell_setting           monoclinic
_symmetry_space_group_name_H-M   'P 21/c'
_symmetry_Int_Tables_number      14
_space_group_name_Hall           '-P 2ybc'
loop_
_symmetry_equiv_pos_site_id
_symmetry_equiv_pos_as_xyz
1 x,y,z
2 -x,1/2+y,1/2-z
3 -x,-y,-z
4 x,1/2-y,1/2+z
_cell_length_a                   8.207(2)
_cell_length_b                   10.604(2)
_cell_length_c                   10.642(2)
_cell_angle_alpha                90
_cell_angle_beta                 106.43(3)
_cell_angle_gamma                90
_cell_volume                     888.324
_exptl_crystal_colour            colorless
_exptl_crystal_description       block
_cell_formula_units_Z            4
_exptl_crystal_recrystallization_method ethanol
loop_
_atom_site_label
_atom_site_type_symbol
_atom_site_fract_x
_atom_site_fract_y
_atom_site_fract_z
O1 O 0.16520(11) 0.16310(8) 0.36523(9)
O2 O 0.40231(11) 0.01414(8) 0.28974(9)
N1 N 0.33317(13) 0.31162(10) 0.12474(10)
N2 N 0.02391(13) 0.16898(10) 0.05476(10)
N3 N 0.27351(13) 0.20590(10) 0.29470(10)
C1 C 0.21832(17) 0.43456(12) 0.27885(13)
H1 H 0.1455 0.4293 0.3351
H2 H 0.1815 0.5026 0.2179
H3 H 0.3330 0.4496 0.3307
C2 C 0.21024(15) 0.31194(11) 0.20447(11)
C3 C 0.03258(15) 0.27995(11) 0.11645(11)
C4 C 0.36622(15) 0.12145(12) 0.24864(12)
C5 C 0.41829(16) 0.18664(12) 0.14047(12)
H4 H 0.5407 0.1966 0.1638
H5 H 0.3818 0.1385 0.0598
C6 C -0.10579(17) 0.36021(12) 0.09906(13)
H6 H -0.0958 0.4360 0.1446
C7 C -0.25965(17) 0.32455(13) 0.01199(13)
H7 H -0.3546 0.3762 -0.0018
C8 C -0.26922(16) 0.21144(13) -0.05353(13)
H8 H -0.3702 0.1859 -0.1130
C9 C -0.12508(16) 0.13664(12) -0.02886(12)
H9 H -0.1323 0.0601 -0.0727
H10 H 0.229(3) 0.1711(18) 0.454(2)
H11 H 0.409(2) 0.3703(16) 0.1556(15)
loop_
_geom_bond_atom_site_label_1
_geom_bond_atom_site_label_2
_geom_bond_site_symmetry_1
_geom_bond_site_symmetry_2
O1 N3 1_555 1_555
O2 C4 1_555 1_555
N1 C2 1_555 1_555
N2 C3 1_555 1_555
N3 C2 1_555 1_555
C1 H1 1_555 1_555
H2 C1 1_555 1_555
H3 C1 1_555 1_555
C2 C1 1_555 1_555
C3 C2 1_555 1_555
C4 N3 1_555 1_555
C5 N1 1_555 1_555
H4 C5 1_555 1_555
H5 C5 1_555 1_555
C6 C3 1_555 1_555
H6 C6 1_555 1_555
C7 C6 1_555 1_555
H7 C7 1_555 1_555
C8 C7 1_555 1_555
H8 C8 1_555 1_555
C9 N2 1_555 1_555
H9 C9 1_555 1_555
H10 O1 1_555 1_555
H11 N1 1_555 1_555
C4 C5 1_555 1_555
C8 C9 1_555 1_555

#END
