
#######################################################################
#
#                 Cambridge Crystallographic Data Centre
#                                CCDC 
#
#######################################################################
#
# If this CIF has been generated from an entry in the Cambridge 
# Structural Database, then it will include bibliographic, chemical, 
# crystal, experimental, refinement or atomic coordinate data resulting 
# from the CCDC's data processing and validation procedures.
#
#######################################################################

data_HUCZOV
_chemical_formula_moiety         'C16 H15 N3 O2'
_chemical_name_systematic        
3-Methyl-1-(3-nitrophenyl)-5-phenyl-4,5-dihydro-1H-pyrazole
_symmetry_cell_setting           monoclinic
_symmetry_space_group_name_H-M   'P 21/n'
_symmetry_Int_Tables_number      14
_space_group_name_Hall           '-P 2yn'
loop_
_symmetry_equiv_pos_site_id
_symmetry_equiv_pos_as_xyz
1 x,y,z
2 1/2-x,1/2+y,1/2-z
3 -x,-y,-z
4 1/2+x,1/2-y,1/2+z
_cell_length_a                   12.0173(4)
_cell_length_b                   7.9324(2)
_cell_length_c                   15.4944(5)
_cell_angle_alpha                90
_cell_angle_beta                 99.160(2)
_cell_angle_gamma                90
_cell_volume                     1458.18
_exptl_crystal_colour            red
_exptl_crystal_description       plate
_cell_formula_units_Z            4
_exptl_crystal_recrystallization_method methanol
loop_
_atom_site_label
_atom_site_type_symbol
_atom_site_fract_x
_atom_site_fract_y
_atom_site_fract_z
C1 C 0.40009(13) 0.17187(19) 0.06087(10)
N1 N 0.29773(12) 0.18897(16) 0.00749(10)
C2 C 0.54447(14) 0.00161(19) 0.13960(10)
C3 C 0.24060(14) 0.3481(2) -0.02008(11)
H1 H 0.2879 0.4156 -0.0529
C4 C 0.44095(13) 0.01314(19) 0.08743(10)
H2 H 0.3991 -0.0832 0.0703
N2 N 0.23515(12) 0.04742(18) -0.02230(9)
C5 C 0.46581(14) 0.3125(2) 0.08824(11)
H3 H 0.4395 0.4197 0.0714
C6 C 0.21138(13) 0.4493(2) 0.05545(11)
C7 C 0.56934(14) 0.2941(2) 0.13993(12)
H4 H 0.6121 0.3895 0.1572
N3 N 0.58488(14) -0.1672(2) 0.16800(11)
C8 C 0.21969(14) 0.6221(2) 0.05691(13)
H5 H 0.2456 0.6777 0.0111
O1 O 0.67543(13) -0.17917(18) 0.21576(11)
C9 C 0.61085(14) 0.1383(2) 0.16652(11)
H6 H 0.6809 0.1259 0.2013
O2 O 0.52813(13) -0.28871(17) 0.14279(11)
C10 C 0.17261(15) 0.3710(3) 0.12393(13)
H7 H 0.1664 0.2542 0.1241
C11 C 0.13676(16) 0.2830(2) -0.08217(13)
H8 H 0.0675 0.3240 -0.0649
H9 H 0.1391 0.3168 -0.1420
C12 C 0.14648(15) 0.0972(2) -0.07219(12)
C13 C 0.14288(17) 0.4619(3) 0.19199(14)
H10 H 0.1166 0.4065 0.2377
C14 C 0.19016(16) 0.7141(3) 0.12524(16)
H11 H 0.1963 0.8310 0.1255
C15 C 0.15175(17) 0.6329(4) 0.19279(14)
H12 H 0.1318 0.6945 0.2391
C16 C 0.06227(18) -0.0247(3) -0.11675(16)
H13 H 0.0856 -0.1375 -0.1002
H14 H 0.0567 -0.0124 -0.1789
H15 H -0.0098 -0.0029 -0.0999
loop_
_geom_bond_atom_site_label_1
_geom_bond_atom_site_label_2
_geom_bond_site_symmetry_1
_geom_bond_site_symmetry_2
C1 N1 1_555 1_555
N1 C3 1_555 1_555
C2 C4 1_555 1_555
C3 H1 1_555 1_555
C4 C1 1_555 1_555
H2 C4 1_555 1_555
N2 N1 1_555 1_555
C5 C1 1_555 1_555
H3 C5 1_555 1_555
C6 C3 1_555 1_555
C7 C5 1_555 1_555
H4 C7 1_555 1_555
N3 C2 1_555 1_555
C8 C6 1_555 1_555
H5 C8 1_555 1_555
O1 N3 1_555 1_555
C9 C2 1_555 1_555
H6 C9 1_555 1_555
O2 N3 1_555 1_555
C10 C6 1_555 1_555
H7 C10 1_555 1_555
C11 C3 1_555 1_555
H8 C11 1_555 1_555
H9 C11 1_555 1_555
C12 N2 1_555 1_555
C13 C10 1_555 1_555
H10 C13 1_555 1_555
C14 C8 1_555 1_555
H11 C14 1_555 1_555
C15 C13 1_555 1_555
H12 C15 1_555 1_555
C16 C12 1_555 1_555
H13 C16 1_555 1_555
H14 C16 1_555 1_555
H15 C16 1_555 1_555
C7 C9 1_555 1_555
C11 C12 1_555 1_555
C14 C15 1_555 1_555

#END
