
#######################################################################
#
#                 Cambridge Crystallographic Data Centre
#                                CCDC 
#
#######################################################################
#
# If this CIF has been generated from an entry in the Cambridge 
# Structural Database, then it will include bibliographic, chemical, 
# crystal, experimental, refinement or atomic coordinate data resulting 
# from the CCDC's data processing and validation procedures.
#
#######################################################################

data_HUDBOY
_chemical_formula_moiety         'C14 H13 N3 O3'
_chemical_name_systematic        
1-[4-(2-Furyl)but-3-en-2-ylidene]-2-(2-nitrophenyl)hydrazine
_symmetry_cell_setting           triclinic
_symmetry_space_group_name_H-M   'P -1'
_symmetry_Int_Tables_number      2
_space_group_name_Hall           '-P 1'
loop_
_symmetry_equiv_pos_site_id
_symmetry_equiv_pos_as_xyz
1 x,y,z
2 -x,-y,-z
_cell_length_a                   8.2261(2)
_cell_length_b                   9.0200(2)
_cell_length_c                   9.1027(2)
_cell_angle_alpha                89.166(2)
_cell_angle_beta                 77.549(2)
_cell_angle_gamma                80.250(2)
_cell_volume                     649.834
_exptl_crystal_colour            red
_exptl_crystal_description       plate
_cell_formula_units_Z            2
_exptl_crystal_recrystallization_method methanol
loop_
_atom_site_label
_atom_site_type_symbol
_atom_site_fract_x
_atom_site_fract_y
_atom_site_fract_z
N1 N 0.15950(19) 0.59694(17) 0.52496(19)
H1 H 0.1972 0.5044 0.5403
N2 N 0.2372(2) 0.66928(18) 0.40298(19)
O1 O 0.58672(18) 0.12781(16) 0.35428(17)
C1 C 0.0217(2) 0.6737(2) 0.6216(2)
C2 C -0.0559(2) 0.6146(2) 0.7579(2)
N3 N -0.0014(2) 0.4629(2) 0.8002(2)
C3 C 0.3716(2) 0.5962(2) 0.3164(2)
O2 O -0.0875(2) 0.41053(18) 0.9101(2)
C4 C 0.4454(2) 0.4401(2) 0.3302(2)
H2 H 0.3927 0.3866 0.4093
O3 O 0.1291(2) 0.38750(17) 0.72528(19)
C5 C -0.0499(3) 0.8183(2) 0.5884(3)
H3 H -0.0067 0.8594 0.4969
C6 C 0.7845(3) 0.1262(2) 0.1462(3)
H4 H 0.8526 0.1572 0.0600
C7 C 0.6560(2) 0.2129(2) 0.2398(2)
C8 C -0.1819(3) 0.9011(2) 0.6869(3)
H5 H -0.2263 0.9974 0.6615
C9 C 0.5839(2) 0.3679(2) 0.2372(2)
H6 H 0.6390 0.4249 0.1628
C10 C 0.4503(3) 0.6843(2) 0.1883(3)
H7 H 0.3815 0.7816 0.1884
H8 H 0.4589 0.6319 0.0952
H9 H 0.5610 0.6961 0.1990
C11 C -0.1892(3) 0.7005(3) 0.8576(3)
H10 H -0.2368 0.6600 0.9479
C12 C -0.2507(3) 0.8442(3) 0.8237(3)
H11 H -0.3376 0.9029 0.8917
C13 C 0.7968(3) -0.0203(3) 0.2030(3)
H12 H 0.8740 -0.1046 0.1615
C14 C 0.6766(3) -0.0147(3) 0.3274(3)
H13 H 0.6563 -0.0965 0.3878
loop_
_geom_bond_atom_site_label_1
_geom_bond_atom_site_label_2
_geom_bond_site_symmetry_1
_geom_bond_site_symmetry_2
N1 H1 1_555 1_555
N2 N1 1_555 1_555
O1 C7 1_555 1_555
C1 N1 1_555 1_555
C2 C1 1_555 1_555
N3 C2 1_555 1_555
C3 N2 1_555 1_555
O2 N3 1_555 1_555
C4 C3 1_555 1_555
H2 C4 1_555 1_555
O3 N3 1_555 1_555
C5 C1 1_555 1_555
H3 C5 1_555 1_555
C6 H4 1_555 1_555
C7 C6 1_555 1_555
C8 C5 1_555 1_555
H5 C8 1_555 1_555
C9 C4 1_555 1_555
H6 C9 1_555 1_555
C10 C3 1_555 1_555
H7 C10 1_555 1_555
H8 C10 1_555 1_555
H9 C10 1_555 1_555
C11 C2 1_555 1_555
H10 C11 1_555 1_555
C12 C8 1_555 1_555
H11 C12 1_555 1_555
C13 C6 1_555 1_555
H12 C13 1_555 1_555
C14 O1 1_555 1_555
H13 C14 1_555 1_555
C7 C9 1_555 1_555
C11 C12 1_555 1_555
C13 C14 1_555 1_555

#END
