
#######################################################################
#
#                 Cambridge Crystallographic Data Centre
#                                CCDC 
#
#######################################################################
#
# If this CIF has been generated from an entry in the Cambridge 
# Structural Database, then it will include bibliographic, chemical, 
# crystal, experimental, refinement or atomic coordinate data resulting 
# from the CCDC's data processing and validation procedures.
#
#######################################################################

data_HUDCAL
_chemical_formula_moiety         'C15 H17 N3 O5'
_chemical_name_systematic        
3-Methoxy-4-(3-(2-methyl-4-nitro-1H-imidazol-1-yl)propoxy)benzaldehyde
_symmetry_cell_setting           monoclinic
_symmetry_space_group_name_H-M   'P 21/n'
_symmetry_Int_Tables_number      14
_space_group_name_Hall           '-P 2yn'
loop_
_symmetry_equiv_pos_site_id
_symmetry_equiv_pos_as_xyz
1 x,y,z
2 1/2-x,1/2+y,1/2-z
3 -x,-y,-z
4 1/2+x,1/2-y,1/2+z
_cell_length_a                   9.4885(14)
_cell_length_b                   13.048(2)
_cell_length_c                   12.745(2)
_cell_angle_alpha                90
_cell_angle_beta                 101.120(3)
_cell_angle_gamma                90
_cell_volume                     1548.28
_exptl_crystal_colour            colorless
_exptl_crystal_description       block
_cell_formula_units_Z            4
_exptl_crystal_recrystallization_method 'ethyl acetate/dichloromethane'
loop_
_atom_site_label
_atom_site_type_symbol
_atom_site_fract_x
_atom_site_fract_y
_atom_site_fract_z
C1 C 0.2645(2) 1.03088(14) -0.03024(16)
H1 H 0.2344 1.0901 0.0028
C2 C 0.21471(17) 0.93177(12) 0.00141(13)
C3 C 0.25719(18) 0.84045(12) -0.04102(14)
H2 H 0.3193 0.8421 -0.0912
C4 C 0.3482(2) 0.65169(17) -0.1102(2)
H3 H 0.3107 0.6882 -0.1769
H4 H 0.3681 0.5803 -0.1262
H5 H 0.4370 0.6847 -0.0737
C5 C 0.20870(17) 0.74857(12) -0.00975(13)
C6 C 0.11391(16) 0.74686(11) 0.06315(12)
C7 C 0.07388(17) 0.83703(11) 0.10519(13)
H6 H 0.0114 0.8359 0.1551
C8 C 0.12529(17) 0.92983(12) 0.07433(13)
H7 H 0.0985 0.9921 0.1038
C9 C -0.01627(18) 0.64126(12) 0.16566(14)
H8 H -0.1090 0.6775 0.1440
H9 H 0.0344 0.6699 0.2346
C10 C -0.04042(17) 0.52728(12) 0.17563(14)
H10 H -0.1107 0.5152 0.2225
H11 H -0.0800 0.4981 0.1043
C11 C 0.0990(2) 0.47573(13) 0.2218(2)
H12 H 0.1721 0.4966 0.1802
H13 H 0.1316 0.4999 0.2962
C12 C 0.16148(17) 0.29675(13) 0.16772(13)
C13 C 0.2589(2) 0.33135(16) 0.09670(16)
H14 H 0.2936 0.2717 0.0624
H15 H 0.3407 0.3680 0.1390
H16 H 0.2066 0.3772 0.0417
C14 C 0.01304(17) 0.30668(12) 0.28026(15)
H17 H -0.0475 0.3304 0.3264
C15 C 0.04200(16) 0.20834(11) 0.25747(13)
N1 N 0.09014(14) 0.36345(10) 0.22222(12)
N2 N 0.13429(14) 0.20076(10) 0.18821(11)
N3 N -0.01634(15) 0.11998(11) 0.29957(12)
O1 O 0.34061(19) 1.04390(12) -0.09476(13)
O2 O 0.24432(13) 0.65445(9) -0.04271(11)
O3 O 0.06945(12) 0.65190(8) 0.08547(10)
O4 O 0.02197(15) 0.03485(9) 0.27613(12)
O5 O -0.10418(15) 0.13411(11) 0.35800(12)
loop_
_geom_bond_atom_site_label_1
_geom_bond_atom_site_label_2
_geom_bond_site_symmetry_1
_geom_bond_site_symmetry_2
C1 H1 1_555 1_555
C2 C1 1_555 1_555
C3 C2 1_555 1_555
H2 C3 1_555 1_555
C4 H3 1_555 1_555
H4 C4 1_555 1_555
H5 C4 1_555 1_555
C5 C3 1_555 1_555
C6 C5 1_555 1_555
C7 C6 1_555 1_555
H6 C7 1_555 1_555
C8 C2 1_555 1_555
H7 C8 1_555 1_555
C9 H8 1_555 1_555
H9 C9 1_555 1_555
C10 C9 1_555 1_555
H10 C10 1_555 1_555
H11 C10 1_555 1_555
C11 C10 1_555 1_555
H12 C11 1_555 1_555
H13 C11 1_555 1_555
C12 C13 1_555 1_555
C13 H14 1_555 1_555
H15 C13 1_555 1_555
H16 C13 1_555 1_555
C14 H17 1_555 1_555
C15 C14 1_555 1_555
N1 C11 1_555 1_555
N2 C12 1_555 1_555
N3 C15 1_555 1_555
O1 C1 1_555 1_555
O2 C4 1_555 1_555
O3 C6 1_555 1_555
O4 N3 1_555 1_555
O5 N3 1_555 1_555
C5 O2 1_555 1_555
C7 C8 1_555 1_555
C9 O3 1_555 1_555
C12 N1 1_555 1_555
C14 N1 1_555 1_555
C15 N2 1_555 1_555

#END
