
#######################################################################
#
#                 Cambridge Crystallographic Data Centre
#                                CCDC 
#
#######################################################################
#
# If this CIF has been generated from an entry in the Cambridge 
# Structural Database, then it will include bibliographic, chemical, 
# crystal, experimental, refinement or atomic coordinate data resulting 
# from the CCDC's data processing and validation procedures.
#
#######################################################################

data_HUDGIX
_chemical_formula_moiety         'C22 H16 N2 O1 S2'
_chemical_name_systematic        
N,N'-bis((E)-2-Thienylmethylene)-4,4'-oxydianiline
_symmetry_cell_setting           monoclinic
_symmetry_space_group_name_H-M   'P 21/n'
_symmetry_Int_Tables_number      14
_space_group_name_Hall           '-P 2yn'
loop_
_symmetry_equiv_pos_site_id
_symmetry_equiv_pos_as_xyz
1 x,y,z
2 1/2-x,1/2+y,1/2-z
3 -x,-y,-z
4 1/2+x,1/2-y,1/2+z
_cell_length_a                   6.0897(7)
_cell_length_b                   41.478(3)
_cell_length_c                   7.5300(12)
_cell_angle_alpha                90
_cell_angle_beta                 90.1300(10)
_cell_angle_gamma                90
_cell_volume                     1901.99
_exptl_crystal_colour            red
_exptl_crystal_description       block
_cell_formula_units_Z            4
_exptl_crystal_recrystallization_method ethanol
loop_
_atom_site_label
_atom_site_type_symbol
_atom_site_fract_x
_atom_site_fract_y
_atom_site_fract_z
S1 S 0.4955(3) 0.05770(4) 0.6056(3)
S2 S 0.4773(3) 0.44248(5) 0.5080(3)
N1 N 0.6149(7) 0.12778(10) 0.5599(6)
N2 N 0.6082(7) 0.37230(10) 0.5480(6)
O1 O 0.9917(5) 0.25041(8) 0.5517(5)
C1 C 0.8811(7) 0.22122(11) 0.5554(6)
C2 C 0.9821(7) 0.19597(11) 0.6410(6)
H1 H 1.1137 0.1994 0.7010
C3 C 0.8919(7) 0.16597(11) 0.6389(6)
H2 H 0.9637 0.1492 0.6969
C4 C 0.6937(8) 0.15984(10) 0.5516(6)
C5 C 0.5935(8) 0.18563(11) 0.4622(6)
H3 H 0.4627 0.1822 0.4012
C6 C 0.6854(8) 0.21602(11) 0.4629(6)
H4 H 0.6177 0.2329 0.4024
C7 C 0.8781(7) 0.27942(10) 0.5519(6)
C8 C 0.9794(8) 0.30454(12) 0.4627(6)
H5 H 1.1085 0.3009 0.4001
C9 C 0.8885(8) 0.33485(12) 0.4669(6)
H6 H 0.9595 0.3519 0.4109
C10 C 0.6885(7) 0.34028(11) 0.5557(6)
C11 C 0.5918(8) 0.31457(11) 0.6446(6)
H7 H 0.4615 0.3178 0.7062
C12 C 0.6863(7) 0.28442(11) 0.6428(6)
H8 H 0.6201 0.2675 0.7032
C13 C 0.4187(9) 0.12173(12) 0.5275(7)
H9 H 0.3245 0.1384 0.4960
C14 C 0.3329(9) 0.08851(12) 0.5382(7)
C15 C 0.1330(9) 0.07893(13) 0.4965(8)
H10 H 0.0224 0.0927 0.4570
C16 C 0.1061(11) 0.04474(15) 0.5191(10)
H11 H -0.0240 0.0338 0.4956
C17 C 0.2895(12) 0.03046(15) 0.5779(10)
H12 H 0.3025 0.0085 0.6006
C18 C 0.4106(9) 0.37824(12) 0.5808(7)
H13 H 0.3178 0.3613 0.6101
C19 C 0.3211(9) 0.41082(12) 0.5748(7)
C20 C 0.1186(9) 0.42042(13) 0.6180(8)
H14 H 0.0087 0.4065 0.6558
C21 C 0.0893(11) 0.45432(15) 0.6002(9)
H15 H -0.0408 0.4650 0.6270
C22 C 0.2677(13) 0.46897(15) 0.5412(12)
H16 H 0.2775 0.4910 0.5203
loop_
_geom_bond_atom_site_label_1
_geom_bond_atom_site_label_2
_geom_bond_site_symmetry_1
_geom_bond_site_symmetry_2
S1 C14 1_555 1_555
S2 C19 1_555 1_555
N1 C4 1_555 1_555
N2 C10 1_555 1_555
O1 C1 1_555 1_555
C1 C2 1_555 1_555
C2 H1 1_555 1_555
C3 C2 1_555 1_555
H2 C3 1_555 1_555
C4 C3 1_555 1_555
C5 C4 1_555 1_555
H3 C5 1_555 1_555
C6 C1 1_555 1_555
H4 C6 1_555 1_555
C7 O1 1_555 1_555
C8 C7 1_555 1_555
H5 C8 1_555 1_555
C9 C8 1_555 1_555
H6 C9 1_555 1_555
C10 C9 1_555 1_555
C11 C10 1_555 1_555
H7 C11 1_555 1_555
C12 C7 1_555 1_555
H8 C12 1_555 1_555
C13 N1 1_555 1_555
H9 C13 1_555 1_555
C14 C13 1_555 1_555
C15 C14 1_555 1_555
H10 C15 1_555 1_555
C16 C15 1_555 1_555
H11 C16 1_555 1_555
C17 S1 1_555 1_555
H12 C17 1_555 1_555
C18 N2 1_555 1_555
H13 C18 1_555 1_555
C19 C18 1_555 1_555
C20 C19 1_555 1_555
H14 C20 1_555 1_555
C21 C20 1_555 1_555
H15 C21 1_555 1_555
C22 S2 1_555 1_555
H16 C22 1_555 1_555
C5 C6 1_555 1_555
C11 C12 1_555 1_555
C16 C17 1_555 1_555
C21 C22 1_555 1_555

#END
