
#######################################################################
#
#                 Cambridge Crystallographic Data Centre
#                                CCDC 
#
#######################################################################
#
# If this CIF has been generated from an entry in the Cambridge 
# Structural Database, then it will include bibliographic, chemical, 
# crystal, experimental, refinement or atomic coordinate data resulting 
# from the CCDC's data processing and validation procedures.
#
#######################################################################

data_HUDHUK
_chemical_formula_moiety         'C11 H9 N3 O2'
_chemical_name_systematic        N'-(2-Furylmethylene)nicotinohydrazide
_symmetry_cell_setting           monoclinic
_symmetry_space_group_name_H-M   'C c'
_symmetry_Int_Tables_number      9
_space_group_name_Hall           'C -2yc'
loop_
_symmetry_equiv_pos_site_id
_symmetry_equiv_pos_as_xyz
1 x,y,z
2 x,-y,1/2+z
3 1/2+x,1/2+y,z
4 1/2+x,1/2-y,1/2+z
_cell_length_a                   17.4363(3)
_cell_length_b                   16.9143(3)
_cell_length_c                   7.96390(10)
_cell_angle_alpha                90
_cell_angle_beta                 115.3260(10)
_cell_angle_gamma                90
_cell_volume                     2123
_exptl_crystal_colour            pink
_exptl_crystal_description       block
_cell_formula_units_Z            8
_exptl_crystal_recrystallization_method methanol
loop_
_atom_site_label
_atom_site_type_symbol
_atom_site_fract_x
_atom_site_fract_y
_atom_site_fract_z
N1 N 0.20002(12) 0.30973(11) 0.8151(3)
N2 N 0.15397(11) 0.29763(11) 0.6278(2)
H1 H 0.1101 0.3262 0.5653
C1 C 0.17831(13) 0.24079(13) 0.5439(3)
O2 O 0.27842(12) 0.33154(12) 1.1928(2)
O3 O 0.23970(12) 0.19833(11) 0.6284(3)
C3 C 0.12722(13) 0.23106(12) 0.3412(3)
C6 C 0.17080(15) 0.36173(14) 0.8885(3)
H3 H 0.1217 0.3892 0.8143
C8 C 0.21241(16) 0.37849(14) 1.0833(4)
C9 C 0.07516(16) 0.28882(14) 0.2286(3)
H5 H 0.0719 0.3366 0.2829
N5 N 0.02917(18) 0.28065(15) 0.0467(3)
C11 C 0.13288(17) 0.16115(14) 0.2577(4)
H7 H 0.1678 0.1206 0.3283
C15 C 0.1971(2) 0.43309(15) 1.1883(5)
H11 H 0.1554 0.4720 1.1465
C16 C 0.0358(2) 0.2127(2) -0.0274(4)
H12 H 0.0036 0.2059 -0.1543
C20 C 0.3036(2) 0.3593(2) 1.3692(4)
H16 H 0.3482 0.3383 1.4732
C21 C 0.0865(2) 0.15199(17) 0.0696(4)
H17 H 0.0897 0.1056 0.0102
C22 C 0.2564(2) 0.4201(2) 1.3734(5)
H18 H 0.2614 0.4485 1.4776
O1 O 0.52299(10) -0.06828(10) 0.4681(3)
N3 N 0.45709(11) -0.21482(11) 0.4338(2)
N4 N 0.40911(11) -0.14890(11) 0.3504(3)
H2 H 0.3552 -0.1532 0.2855
C2 C 0.44693(14) -0.07807(13) 0.3711(3)
O4 O 0.53896(10) -0.35845(9) 0.5715(2)
C4 C 0.39031(13) -0.01116(13) 0.2696(3)
C5 C 0.45280(14) -0.35168(14) 0.4952(3)
C7 C 0.41431(15) -0.27691(14) 0.4225(3)
H4 H 0.3554 -0.2738 0.3644
C10 C 0.28729(18) 0.10962(16) 0.0818(4)
H6 H 0.2520 0.1515 0.0195
N6 N 0.26106(14) 0.03697(14) 0.0239(3)
C12 C 0.41892(19) -0.42120(16) 0.5088(5)
H8 H 0.3614 -0.4324 0.4666
C13 C 0.41546(17) 0.06558(14) 0.3224(4)
H9 H 0.4676 0.0759 0.4214
C14 C 0.31279(16) -0.02186(15) 0.1181(4)
H10 H 0.2956 -0.0734 0.0793
C17 C 0.36299(19) 0.12676(15) 0.2276(4)
H13 H 0.3788 0.1789 0.2621
C18 C 0.4863(2) -0.47379(17) 0.5986(5)
H14 H 0.4821 -0.5263 0.6282
C19 C 0.5564(2) -0.43447(15) 0.6328(4)
H15 H 0.6107 -0.4557 0.6911
loop_
_geom_bond_atom_site_label_1
_geom_bond_atom_site_label_2
_geom_bond_site_symmetry_1
_geom_bond_site_symmetry_2
N1 N2 1_555 1_555
N2 H1 1_555 1_555
O1 C2 1_555 1_555
N3 N4 1_555 1_555
N4 H2 1_555 1_555
C1 N2 1_555 1_555
C2 N4 1_555 1_555
O2 C8 1_555 1_555
O3 C1 1_555 1_555
C3 C1 1_555 1_555
O4 C5 1_555 1_555
C4 C2 1_555 1_555
C5 C7 1_555 1_555
C6 N1 1_555 1_555
H3 C6 1_555 1_555
C7 N3 1_555 1_555
H4 C7 1_555 1_555
C8 C6 1_555 1_555
C9 C3 1_555 1_555
H5 C9 1_555 1_555
N5 C9 1_555 1_555
C10 H6 1_555 1_555
C11 C3 1_555 1_555
H7 C11 1_555 1_555
N6 C10 1_555 1_555
C12 C5 1_555 1_555
H8 C12 1_555 1_555
C13 C4 1_555 1_555
H9 C13 1_555 1_555
C14 C4 1_555 1_555
H10 C14 1_555 1_555
C15 C8 1_555 1_555
H11 C15 1_555 1_555
C16 N5 1_555 1_555
H12 C16 1_555 1_555
C17 C10 1_555 1_555
H13 C17 1_555 1_555
C18 C12 1_555 1_555
H14 C18 1_555 1_555
C19 O4 1_555 1_555
H15 C19 1_555 1_555
C20 O2 1_555 1_555
H16 C20 1_555 1_555
C21 C11 1_555 1_555
H17 C21 1_555 1_555
C22 C15 1_555 1_555
H18 C22 1_555 1_555
N6 C14 1_555 1_555
C13 C17 1_555 1_555
C16 C21 1_555 1_555
C18 C19 1_555 1_555
C20 C22 1_555 1_555

#END
