
#######################################################################
#
#                 Cambridge Crystallographic Data Centre
#                                CCDC 
#
#######################################################################
#
# If this CIF has been generated from an entry in the Cambridge 
# Structural Database, then it will include bibliographic, chemical, 
# crystal, experimental, refinement or atomic coordinate data resulting 
# from the CCDC's data processing and validation procedures.
#
#######################################################################

data_HUDHOE01
_chemical_formula_moiety         'C16 H15 Br1 N2 O5,2(H2 O1)'
_chemical_name_systematic        
"N'-(5-Bromo-2-hydroxy-3-methoxybenzylidene)-4-hydroxy-3-methoxybenzohydrazide dihydrate"
_symmetry_cell_setting           monoclinic
_symmetry_space_group_name_H-M   'P 21/c'
_symmetry_Int_Tables_number      14
_space_group_name_Hall           '-P 2ybc'
loop_
_symmetry_equiv_pos_site_id
_symmetry_equiv_pos_as_xyz
1 x,y,z
2 -x,1/2+y,1/2-z
3 -x,-y,-z
4 x,1/2-y,1/2+z
_cell_length_a                   9.279(2)
_cell_length_b                   8.6970(15)
_cell_length_c                   24.223(2)
_cell_angle_alpha                90
_cell_angle_beta                 111.671(2)
_cell_angle_gamma                90
_cell_volume                     1816.62
_exptl_crystal_colour            colorless
_exptl_crystal_description       block
_cell_formula_units_Z            4
loop_
_atom_site_label
_atom_site_type_symbol
_atom_site_fract_x
_atom_site_fract_y
_atom_site_fract_z
Br1 Br 0.88217(4) 0.46235(5) 1.135395(16)
O1 O 1.1852(2) 0.8020(2) 0.99229(9)
H1 H 1.1225 0.8466 0.9636
O2 O 1.0289(2) 1.0522(3) 0.85612(9)
O3 O 1.3520(2) 0.6258(3) 1.07798(9)
O4 O 0.3818(2) 1.2760(2) 0.71149(9)
O5 O 0.5164(2) 1.4114(2) 0.64850(8)
H2 H 0.5670 1.4417 0.6292
N1 N 0.9164(3) 0.9027(3) 0.92583(9)
N2 N 0.8227(3) 0.9892(3) 0.87912(9)
H3 H 0.7191 0.9783 0.8643
C1 C 0.9497(3) 0.7386(3) 1.00753(11)
C2 C 1.1094(3) 0.7268(3) 1.02177(11)
C3 C 1.1977(3) 0.6318(3) 1.06851(12)
C4 C 1.1290(4) 0.5544(3) 1.10158(12)
H4 H 1.1880 0.4926 1.1332
C5 C 0.9716(4) 0.5694(3) 1.08752(12)
C6 C 0.8813(3) 0.6574(3) 1.04153(12)
H5 H 0.7750 0.6638 1.0326
C7 C 0.8543(3) 0.8319(3) 0.95782(12)
H6 H 0.7483 0.8403 0.9492
C8 C 0.8889(3) 1.0609(3) 0.84454(12)
C9 C 0.7853(3) 1.1511(3) 0.79331(11)
C10 C 0.6259(3) 1.1677(3) 0.77866(11)
H7 H 0.5782 1.1195 0.8017
C11 C 0.5385(3) 1.2549(3) 0.73044(11)
C12 C 0.6089(3) 1.3272(3) 0.69542(11)
C13 C 0.7664(3) 1.3127(3) 0.71042(12)
H8 H 0.8144 1.3621 0.6877
C14 C 0.8541(3) 1.2254(3) 0.75895(12)
H9 H 0.9605 1.2166 0.7685
C15 C 1.4439(4) 0.5133(4) 1.11750(16)
H10 H 1.3973 0.4139 1.1061
H11 H 1.4507 0.5364 1.1571
H12 H 1.5459 0.5132 1.1161
C16 C 0.3013(4) 1.2212(4) 0.74674(15)
H13 H 0.3472 1.2629 0.7861
H14 H 0.3071 1.1110 0.7486
H15 H 0.1947 1.2523 0.7295
O6 O 0.3399(3) 0.0215(3) 0.91687(11)
H18 H 0.2474(17) 0.051(4) 0.8989(14)
H19 H 0.387(3) 0.088(3) 0.9430(12)
O7 O 0.5007(2) 0.7689(3) 0.99883(9)
H16 H 0.4383 0.7108 1.0073
H17 H 0.4479 0.8330 0.9733
loop_
_geom_bond_atom_site_label_1
_geom_bond_atom_site_label_2
_geom_bond_site_symmetry_1
_geom_bond_site_symmetry_2
Br1 C5 1_555 1_555
O1 H1 1_555 1_555
O2 C8 1_555 1_555
O3 C3 1_555 1_555
O4 C11 1_555 1_555
O5 H2 1_555 1_555
N1 N2 1_555 1_555
N2 H3 1_555 1_555
C1 C2 1_555 1_555
C2 O1 1_555 1_555
C3 C2 1_555 1_555
C4 C3 1_555 1_555
H4 C4 1_555 1_555
C5 C4 1_555 1_555
C6 C1 1_555 1_555
H5 C6 1_555 1_555
C7 N1 1_555 1_555
H6 C7 1_555 1_555
C8 N2 1_555 1_555
C9 C8 1_555 1_555
C10 C9 1_555 1_555
H7 C10 1_555 1_555
C11 C10 1_555 1_555
C12 O5 1_555 1_555
C13 C12 1_555 1_555
H8 C13 1_555 1_555
C14 C9 1_555 1_555
H9 C14 1_555 1_555
C15 O3 1_555 1_555
H10 C15 1_555 1_555
H11 C15 1_555 1_555
H12 C15 1_555 1_555
C16 O4 1_555 1_555
H13 C16 1_555 1_555
H14 C16 1_555 1_555
H15 C16 1_555 1_555
O6 H18 1_555 1_555
O7 H16 1_555 1_555
H17 O7 1_555 1_555
H19 O6 1_555 1_555
C1 C7 1_555 1_555
C5 C6 1_555 1_555
C11 C12 1_555 1_555
C13 C14 1_555 1_555

#END
