
#######################################################################
#
#                 Cambridge Crystallographic Data Centre
#                                CCDC 
#
#######################################################################
#
# If this CIF has been generated from an entry in the Cambridge 
# Structural Database, then it will include bibliographic, chemical, 
# crystal, experimental, refinement or atomic coordinate data resulting 
# from the CCDC's data processing and validation procedures.
#
#######################################################################

data_HUDKIB
_chemical_formula_moiety         'C16 H12 N2 O3'
_chemical_name_systematic        8-((4-Nitrobenzyl)oxy)quinoline
_symmetry_cell_setting           monoclinic
_symmetry_space_group_name_H-M   'P n'
_symmetry_Int_Tables_number      7
_space_group_name_Hall           'P -2yac'
loop_
_symmetry_equiv_pos_site_id
_symmetry_equiv_pos_as_xyz
1 x,y,z
2 1/2+x,-y,1/2+z
_cell_length_a                   4.176(3)
_cell_length_b                   7.395(3)
_cell_length_c                   21.513(18)
_cell_angle_alpha                90
_cell_angle_beta                 94.08(3)
_cell_angle_gamma                90
_cell_volume                     662.67
_exptl_crystal_colour            'pale yellow'
_exptl_crystal_description       block
_cell_formula_units_Z            2
_exptl_crystal_recrystallization_method 'ethyl acetate/THF'
loop_
_atom_site_label
_atom_site_type_symbol
_atom_site_fract_x
_atom_site_fract_y
_atom_site_fract_z
O1 O 0.8658(4) 0.5082(2) 0.23916(8)
O2 O 0.1576(6) -0.2236(3) 0.08570(10)
O3 O 0.3470(9) -0.1172(4) 0.00328(11)
N1 N 1.2733(5) 0.4283(2) 0.33661(9)
N2 N 0.2926(6) -0.1057(3) 0.05809(11)
C1 C 1.4711(6) 0.3933(4) 0.38541(12)
H1 H 1.5451 0.2752 0.3903
C2 C 1.5794(6) 0.5201(4) 0.43068(12)
H2 H 1.7160 0.4858 0.4647
C3 C 1.4798(6) 0.6939(4) 0.42365(11)
H3 H 1.5518 0.7809 0.4526
C4 C 1.2677(5) 0.7427(3) 0.37262(11)
C5 C 1.1593(7) 0.9231(4) 0.36205(14)
H4 H 1.2225 1.0140 0.3902
C6 C 0.9646(6) 0.9620(4) 0.31112(14)
H5 H 0.8982 1.0807 0.3040
C7 C 0.8594(6) 0.8260(3) 0.26827(12)
H6 H 0.7238 0.8555 0.2336
C8 C 0.9567(5) 0.6509(3) 0.27772(11)
C9 C 1.1702(5) 0.6040(3) 0.33024(11)
C10 C 0.6534(6) 0.5515(3) 0.18613(12)
H7 H 0.7577 0.6328 0.1585
H8 H 0.4614 0.6100 0.1992
C11 C 0.5679(5) 0.3764(3) 0.15321(11)
C12 C 0.6351(5) 0.3513(4) 0.09144(11)
H9 H 0.7404 0.4417 0.0708
C13 C 0.5469(6) 0.1932(3) 0.06027(12)
H10 H 0.5918 0.1769 0.0189
C14 C 0.3921(6) 0.0609(3) 0.09139(11)
C15 C 0.3210(6) 0.0814(3) 0.15294(11)
H11 H 0.2155 -0.0096 0.1733
C16 C 0.4104(5) 0.2402(3) 0.18354(10)
H12 H 0.3646 0.2560 0.2249
loop_
_geom_bond_atom_site_label_1
_geom_bond_atom_site_label_2
_geom_bond_site_symmetry_1
_geom_bond_site_symmetry_2
O1 C8 1_555 1_555
O2 N2 1_555 1_555
O3 N2 1_555 1_555
N1 C1 1_555 1_555
N2 C14 1_555 1_555
C1 H1 1_555 1_555
C2 C1 1_555 1_555
H2 C2 1_555 1_555
C3 C2 1_555 1_555
H3 C3 1_555 1_555
C4 C3 1_555 1_555
C5 C4 1_555 1_555
H4 C5 1_555 1_555
C6 C5 1_555 1_555
H5 C6 1_555 1_555
C7 C6 1_555 1_555
H6 C7 1_555 1_555
C8 C7 1_555 1_555
C9 N1 1_555 1_555
C10 O1 1_555 1_555
H7 C10 1_555 1_555
H8 C10 1_555 1_555
C11 C10 1_555 1_555
C12 C11 1_555 1_555
H9 C12 1_555 1_555
C13 C12 1_555 1_555
H10 C13 1_555 1_555
C14 C13 1_555 1_555
C15 C14 1_555 1_555
H11 C15 1_555 1_555
C16 C11 1_555 1_555
H12 C16 1_555 1_555
C4 C9 1_555 1_555
C8 C9 1_555 1_555
C15 C16 1_555 1_555

#END
