
#######################################################################
#
#                 Cambridge Crystallographic Data Centre
#                                CCDC 
#
#######################################################################
#
# If this CIF has been generated from an entry in the Cambridge 
# Structural Database, then it will include bibliographic, chemical, 
# crystal, experimental, refinement or atomic coordinate data resulting 
# from the CCDC's data processing and validation procedures.
#
#######################################################################

data_HUDKUN
_chemical_formula_moiety         'C15 H13 N5'
_chemical_name_systematic        
N-(2-Pyridinyl)-N'-(4-pyridinyl)pyridine-2,6-diamine
_symmetry_cell_setting           orthorhombic
_symmetry_space_group_name_H-M   'P b c a'
_symmetry_Int_Tables_number      61
_space_group_name_Hall           '-P 2ac 2ab'
loop_
_symmetry_equiv_pos_site_id
_symmetry_equiv_pos_as_xyz
1 x,y,z
2 1/2-x,-y,1/2+z
3 -x,1/2+y,1/2-z
4 1/2+x,1/2-y,-z
5 -x,-y,-z
6 1/2+x,y,1/2-z
7 x,1/2-y,1/2+z
8 1/2-x,1/2+y,z
_cell_length_a                   11.4884(15)
_cell_length_b                   7.3445(10)
_cell_length_c                   30.718(4)
_cell_angle_alpha                90
_cell_angle_beta                 90
_cell_angle_gamma                90
_cell_volume                     2591.88
_exptl_crystal_colour            colorless
_exptl_crystal_description       block
_cell_formula_units_Z            8
loop_
_atom_site_label
_atom_site_type_symbol
_atom_site_fract_x
_atom_site_fract_y
_atom_site_fract_z
N1 N 0.09096(15) 1.0142(2) 0.36725(5)
C1 C -0.05825(17) 0.6096(3) 0.40354(7)
N2 N -0.06267(16) 0.6024(3) 0.44682(6)
N3 N 0.18582(17) 1.2747(2) 0.34296(6)
H1 H 0.2400 1.3509 0.3493
C2 C 0.0235(2) 1.1978(3) 0.24144(7)
H2 H -0.0457 1.1441 0.2324
C3 C 0.06292(18) 0.9532(3) 0.44324(7)
H3 H 0.0349 0.8779 0.4652
C4 C 0.14379(19) 1.1700(3) 0.37742(7)
C5 C 0.15115(19) 1.2712(3) 0.29979(7)
C6 C 0.22262(19) 1.3511(3) 0.26852(8)
H4 H 0.2920 1.4068 0.2766
N4 N -0.00874(17) 0.7580(2) 0.38310(6)
H5 H -0.0140 0.7558 0.3552
C7 C 0.04739(18) 1.1955(3) 0.28529(7)
H6 H -0.0049 1.1443 0.3049
N5 N 0.09143(19) 1.2706(3) 0.21080(6)
C8 C 0.1620(2) 1.2251(3) 0.42019(7)
H7 H 0.2001 1.3335 0.4266
C9 C 0.04771(17) 0.9094(3) 0.39941(7)
C10 C 0.1212(2) 1.1128(3) 0.45271(7)
H8 H 0.1332 1.1451 0.4816
C11 C -0.1031(2) 0.4715(3) 0.37727(8)
H9 H -0.0978 0.4792 0.3471
C12 C 0.1897(2) 1.3467(3) 0.22582(8)
H10 H 0.2391 1.4007 0.2056
C13 C -0.1133(2) 0.4549(4) 0.46451(9)
H11 H -0.1165 0.4479 0.4947
C14 C -0.1602(2) 0.3157(4) 0.44141(10)
H12 H -0.1947 0.2172 0.4554
C15 C -0.1552(2) 0.3242(4) 0.39659(10)
H13 H -0.1867 0.2313 0.3797
loop_
_geom_bond_atom_site_label_1
_geom_bond_atom_site_label_2
_geom_bond_site_symmetry_1
_geom_bond_site_symmetry_2
N1 C4 1_555 1_555
C1 N2 1_555 1_555
N2 C13 1_555 1_555
N3 H1 1_555 1_555
C2 H2 1_555 1_555
C3 H3 1_555 1_555
C4 N3 1_555 1_555
C5 N3 1_555 1_555
C6 C5 1_555 1_555
H4 C6 1_555 1_555
N4 C1 1_555 1_555
H5 N4 1_555 1_555
C7 C2 1_555 1_555
H6 C7 1_555 1_555
N5 C2 1_555 1_555
C8 C4 1_555 1_555
H7 C8 1_555 1_555
C9 N1 1_555 1_555
C10 C3 1_555 1_555
H8 C10 1_555 1_555
C11 C1 1_555 1_555
H9 C11 1_555 1_555
C12 C6 1_555 1_555
H10 C12 1_555 1_555
C13 H11 1_555 1_555
C14 C13 1_555 1_555
H12 C14 1_555 1_555
C15 C11 1_555 1_555
H13 C15 1_555 1_555
C3 C9 1_555 1_555
C5 C7 1_555 1_555
N4 C9 1_555 1_555
N5 C12 1_555 1_555
C8 C10 1_555 1_555
C14 C15 1_555 1_555

#END
