
#######################################################################
#
#                 Cambridge Crystallographic Data Centre
#                                CCDC 
#
#######################################################################
#
# If this CIF has been generated from an entry in the Cambridge 
# Structural Database, then it will include bibliographic, chemical, 
# crystal, experimental, refinement or atomic coordinate data resulting 
# from the CCDC's data processing and validation procedures.
#
#######################################################################

data_HUDMID
_chemical_formula_moiety         'C20 H26 N1 O1 1+,Br1 1-'
_chemical_name_systematic        
'[N(S)]-N-Allyl-N-benzyl-N-[(1S)-1-(hydroxymethyl)-2-phenylethyl]-N-methylammonium bromide'
_symmetry_cell_setting           orthorhombic
_symmetry_space_group_name_H-M   'P 21 21 21'
_symmetry_Int_Tables_number      19
_space_group_name_Hall           'P 2ac 2ab'
loop_
_symmetry_equiv_pos_site_id
_symmetry_equiv_pos_as_xyz
1 x,y,z
2 1/2+x,1/2-y,-z
3 -x,1/2+y,1/2-z
4 1/2-x,-y,1/2+z
_cell_length_a                   8.270(5)
_cell_length_b                   11.477(6)
_cell_length_c                   20.560(9)
_cell_angle_alpha                90
_cell_angle_beta                 90
_cell_angle_gamma                90
_cell_volume                     1951.45
_exptl_crystal_colour            colorless
_exptl_crystal_description       block
_chemical_melting_point          '185-186 deg.C'
_cell_formula_units_Z            4
_exptl_crystal_recrystallization_method ethanol
loop_
_atom_site_label
_atom_site_type_symbol
_atom_site_fract_x
_atom_site_fract_y
_atom_site_fract_z
Br1 Br 0.80848(9) 0.16531(5) 0.74720(5)
O1 O 0.6989(9) 0.9430(5) 0.6665(3)
H1 H 0.720(13) 0.996(7) 0.684(4)
N1 N 0.7097(7) 0.7885(4) 0.7958(2)
C1 C 0.7886(10) 0.9558(6) 0.9279(4)
H2 H 0.7510 1.0167 0.9022
C2 C 0.7813(11) 0.9634(9) 0.9960(5)
H3 H 0.7344 1.0283 1.0155
C3 C 0.8425(13) 0.8766(11) 1.0338(4)
H4 H 0.8369 0.8821 1.0789
C4 C 0.9110(14) 0.7827(8) 1.0059(5)
H5 H 0.9554 0.7246 1.0318
C5 C 0.9158(10) 0.7720(6) 0.9393(4)
H6 H 0.9628 0.7062 0.9208
C6 C 0.8524(8) 0.8568(5) 0.8996(3)
C7 C 0.8594(8) 0.8459(6) 0.8270(3)
H7 H 0.9542 0.8006 0.8155
H8 H 0.8728 0.9231 0.8085
C8 C 0.5684(9) 0.8705(5) 0.8017(3)
H9 H 0.4766 0.8380 0.7796
H10 H 0.5959 0.9441 0.7824
H11 H 0.5426 0.8817 0.8468
C9 C 0.6626(8) 0.6795(5) 0.8323(3)
H12 H 0.6566 0.6977 0.8783
H13 H 0.5553 0.6562 0.8183
C10 C 0.7743(9) 0.5792(5) 0.8235(3)
H14 H 0.8847 0.5930 0.8195
C11 C 0.7213(10) 0.4731(5) 0.8211(3)
H15 H 0.6112 0.4583 0.8250
H16 H 0.7934 0.4118 0.8155
C12 C 0.7506(8) 0.7598(5) 0.7240(3)
H17 H 0.8356 0.7004 0.7251
C13 C 0.8167(9) 0.8595(6) 0.6840(3)
H18 H 0.9015 0.8979 0.7085
H19 H 0.8650 0.8283 0.6447
C14 C 0.6042(8) 0.7033(6) 0.6898(3)
H20 H 0.5664 0.6387 0.7161
H21 H 0.5174 0.7601 0.6875
C15 C 0.6390(9) 0.6597(6) 0.6226(3)
C16 C 0.5797(13) 0.7161(7) 0.5684(4)
H22 H 0.5186 0.7836 0.5732
C17 C 0.6104(19) 0.6732(11) 0.5071(5)
H23 H 0.5681 0.7097 0.4705
C18 C 0.7055(18) 0.5747(14) 0.5010(6)
H24 H 0.7274 0.5456 0.4597
C19 C 0.7673(13) 0.5197(11) 0.5532(6)
H25 H 0.8323 0.4542 0.5481
C20 C 0.7325(10) 0.5621(7) 0.6147(4)
H26 H 0.7732 0.5240 0.6511
loop_
_geom_bond_atom_site_label_1
_geom_bond_atom_site_label_2
_geom_bond_site_symmetry_1
_geom_bond_site_symmetry_2
O1 H1 1_555 1_555
N1 C7 1_555 1_555
C1 H2 1_555 1_555
C2 C1 1_555 1_555
H3 C2 1_555 1_555
C3 C2 1_555 1_555
H4 C3 1_555 1_555
C4 C3 1_555 1_555
H5 C4 1_555 1_555
C5 C4 1_555 1_555
H6 C5 1_555 1_555
C6 C1 1_555 1_555
C7 C6 1_555 1_555
H7 C7 1_555 1_555
H8 C7 1_555 1_555
C8 N1 1_555 1_555
H9 C8 1_555 1_555
H10 C8 1_555 1_555
H11 C8 1_555 1_555
C9 N1 1_555 1_555
H12 C9 1_555 1_555
H13 C9 1_555 1_555
C10 C9 1_555 1_555
H14 C10 1_555 1_555
C11 C10 1_555 1_555
H15 C11 1_555 1_555
H16 C11 1_555 1_555
C12 N1 1_555 1_555
H17 C12 1_555 1_555
C13 O1 1_555 1_555
H18 C13 1_555 1_555
H19 C13 1_555 1_555
C14 C12 1_555 1_555
H20 C14 1_555 1_555
H21 C14 1_555 1_555
C15 C14 1_555 1_555
C16 C15 1_555 1_555
H22 C16 1_555 1_555
C17 C16 1_555 1_555
H23 C17 1_555 1_555
C18 C17 1_555 1_555
H24 C18 1_555 1_555
C19 C18 1_555 1_555
H25 C19 1_555 1_555
C20 C15 1_555 1_555
H26 C20 1_555 1_555
C5 C6 1_555 1_555
C12 C13 1_555 1_555
C19 C20 1_555 1_555

#END
