
#######################################################################
#
#                 Cambridge Crystallographic Data Centre
#                                CCDC 
#
#######################################################################
#
# If this CIF has been generated from an entry in the Cambridge 
# Structural Database, then it will include bibliographic, chemical, 
# crystal, experimental, refinement or atomic coordinate data resulting 
# from the CCDC's data processing and validation procedures.
#
#######################################################################

data_HUDPUS
_chemical_formula_moiety         'C19 H17 Cl1 N2 O4'
_chemical_name_systematic        
'(S)-Ethyl 2-[4-(6-chloroquinoxalin-2-yloxy)phenoxy]propanoate'
_chemical_properties_biological  
'has a potent selective herbicidal activity against annual and perennial grass weeds'
_symmetry_cell_setting           monoclinic
_symmetry_space_group_name_H-M   'P 21'
_symmetry_Int_Tables_number      4
_space_group_name_Hall           'P 2yb'
loop_
_symmetry_equiv_pos_site_id
_symmetry_equiv_pos_as_xyz
1 x,y,z
2 -x,1/2+y,-z
_cell_length_a                   9.970(2)
_cell_length_b                   4.4760(9)
_cell_length_c                   20.450(4)
_cell_angle_alpha                90
_cell_angle_beta                 94.54(3)
_cell_angle_gamma                90
_cell_volume                     909.733
_exptl_crystal_colour            colorless
_exptl_crystal_description       needle
_chemical_melting_point          '350 K'
_cell_formula_units_Z            2
_exptl_crystal_recrystallization_method 'ethyl acetate'
loop_
_atom_site_label
_atom_site_type_symbol
_atom_site_fract_x
_atom_site_fract_y
_atom_site_fract_z
Cl1 Cl 0.50826(14) 0.9066(5) 0.08796(7)
O1 O 1.8615(3) 0.4503(12) 0.3878(2)
O2 O 1.7523(4) 0.0871(12) 0.3367(2)
O3 O 1.5198(3) 0.2389(10) 0.38949(16)
O4 O 1.2147(3) 0.1148(12) 0.15458(16)
N1 N 0.9132(4) 0.2496(12) 0.05649(17)
N2 N 1.0378(4) 0.4196(12) 0.18081(17)
C1 C 2.0926(5) 0.474(2) 0.4119(4)
H1 H 2.1793 0.4138 0.3993
H2 H 2.0803 0.3998 0.4551
H3 H 2.0871 0.6882 0.4120
C2 C 1.9882(5) 0.353(2) 0.3656(3)
H4 H 1.9988 0.4282 0.3218
H5 H 1.9928 0.1370 0.3648
C3 C 1.7536(5) 0.3000(15) 0.3698(3)
C4 C 1.6313(4) 0.4380(16) 0.3988(2)
H6 H 1.6092 0.6308 0.3779
C5 C 1.6551(6) 0.476(2) 0.4726(3)
H7 H 1.5771 0.5645 0.4893
H8 H 1.7316 0.6029 0.4824
H9 H 1.6716 0.2841 0.4927
C6 C 1.4468(4) 0.2317(14) 0.3298(2)
C7 C 1.3386(5) 0.0408(14) 0.3263(2)
H10 H 1.3203 -0.0682 0.3633
C8 C 1.2570(5) 0.0074(15) 0.2696(2)
H11 H 1.1837 -0.1217 0.2677
C9 C 1.2861(5) 0.1681(15) 0.2160(2)
C10 C 1.3937(5) 0.3564(15) 0.2181(3)
H12 H 1.4119 0.4639 0.1808
C11 C 1.4758(5) 0.3883(16) 0.2752(3)
H13 H 1.5500 0.5147 0.2765
C12 C 1.0919(5) 0.2395(14) 0.1409(2)
C13 C 0.9127(4) 0.5295(12) 0.1580(2)
C14 C 0.8466(5) 0.7268(13) 0.1979(2)
H14 H 0.8859 0.7811 0.2389
C15 C 0.7228(5) 0.8395(14) 0.1757(2)
H15 H 0.6783 0.9715 0.2017
C16 C 0.6646(5) 0.7562(14) 0.1148(2)
C17 C 0.7261(5) 0.5646(14) 0.0749(2)
H16 H 0.6852 0.5136 0.0340
C18 C 0.8516(4) 0.4457(12) 0.0964(2)
C19 C 1.0293(5) 0.1538(15) 0.0790(2)
H17 H 1.0746 0.0216 0.0534
loop_
_geom_bond_atom_site_label_1
_geom_bond_atom_site_label_2
_geom_bond_site_symmetry_1
_geom_bond_site_symmetry_2
Cl1 C16 1_555 1_555
O1 C2 1_555 1_555
O2 C3 1_555 1_555
O3 C4 1_555 1_555
O4 C9 1_555 1_555
N1 C18 1_555 1_555
N2 C12 1_555 1_555
C1 H1 1_555 1_555
H2 C1 1_555 1_555
H3 C1 1_555 1_555
C2 C1 1_555 1_555
H4 C2 1_555 1_555
H5 C2 1_555 1_555
C3 O1 1_555 1_555
C4 C3 1_555 1_555
H6 C4 1_555 1_555
C5 C4 1_555 1_555
H7 C5 1_555 1_555
H8 C5 1_555 1_555
H9 C5 1_555 1_555
C6 O3 1_555 1_555
C7 C6 1_555 1_555
H10 C7 1_555 1_555
C8 C7 1_555 1_555
H11 C8 1_555 1_555
C9 C8 1_555 1_555
C10 C9 1_555 1_555
H12 C10 1_555 1_555
C11 C6 1_555 1_555
H13 C11 1_555 1_555
C12 O4 1_555 1_555
C13 N2 1_555 1_555
C14 C13 1_555 1_555
H14 C14 1_555 1_555
C15 C14 1_555 1_555
H15 C15 1_555 1_555
C16 C15 1_555 1_555
C17 C16 1_555 1_555
H16 C17 1_555 1_555
C18 C13 1_555 1_555
C19 N1 1_555 1_555
H17 C19 1_555 1_555
C10 C11 1_555 1_555
C12 C19 1_555 1_555
C17 C18 1_555 1_555

#END
