
#######################################################################
#
#                 Cambridge Crystallographic Data Centre
#                                CCDC 
#
#######################################################################
#
# If this CIF has been generated from an entry in the Cambridge 
# Structural Database, then it will include bibliographic, chemical, 
# crystal, experimental, refinement or atomic coordinate data resulting 
# from the CCDC's data processing and validation procedures.
#
#######################################################################

data_HUDTIK
_chemical_formula_moiety         'C14 H12 O4'
_chemical_name_systematic        
1-(3,4-Dihydroxyphenyl)-2-(4-hydroxyphenyl)ethanone
_symmetry_cell_setting           triclinic
_symmetry_space_group_name_H-M   'P -1'
_symmetry_Int_Tables_number      2
_space_group_name_Hall           '-P 1'
loop_
_symmetry_equiv_pos_site_id
_symmetry_equiv_pos_as_xyz
1 x,y,z
2 -x,-y,-z
_cell_length_a                   5.7073(11)
_cell_length_b                   9.3464(19)
_cell_length_c                   11.202(2)
_cell_angle_alpha                100.112(9)
_cell_angle_beta                 94.792(9)
_cell_angle_gamma                100.625(9)
_cell_volume                     574.014
_exptl_crystal_colour            colorless
_exptl_crystal_description       block
_cell_formula_units_Z            2
_exptl_crystal_recrystallization_method methanol/water
loop_
_atom_site_label
_atom_site_type_symbol
_atom_site_fract_x
_atom_site_fract_y
_atom_site_fract_z
C1 C 0.0231(3) 0.4370(2) 0.17089(17)
C2 C 0.2221(3) 0.4285(2) 0.24884(17)
C3 C 0.2784(3) 0.5201(2) 0.36129(17)
H1 H 0.4123 0.5140 0.4120
C4 C 0.1374(3) 0.62287(19) 0.40118(17)
C5 C -0.0606(3) 0.6309(2) 0.32327(18)
H2 H -0.1561 0.6986 0.3480
C6 C -0.1164(3) 0.5392(2) 0.20949(18)
H3 H -0.2490 0.5460 0.1582
C7 C 0.2107(4) 0.7192(2) 0.52317(18)
C8 C 0.0779(4) 0.8423(2) 0.56251(19)
H4 H 0.0603 0.8942 0.4956
H5 H -0.0821 0.7977 0.5769
C9 C 0.1937(3) 0.9545(2) 0.67514(18)
C10 C 0.4194(4) 1.0415(2) 0.67929(19)
H6 H 0.5049 1.0265 0.6126
C11 C 0.5210(4) 1.1498(2) 0.77965(19)
H7 H 0.6730 1.2070 0.7802
C12 C 0.3970(3) 1.1730(2) 0.87899(17)
C13 C 0.1733(4) 1.0874(2) 0.8778(2)
H8 H 0.0887 1.1019 0.9449
C14 C 0.0751(4) 0.9795(2) 0.7761(2)
H9 H -0.0763 0.9220 0.7760
O1 O -0.0188(3) 0.34464(17) 0.06112(13)
H10 H -0.1572 0.3388 0.0313
O2 O 0.3534(2) 0.32578(15) 0.20545(12)
H11 H 0.4435 0.3133 0.2620
O3 O 0.3760(3) 0.70119(18) 0.59031(14)
O4 O 0.5023(3) 1.28604(17) 0.97474(14)
H12 H 0.4249 1.2818 1.0329
loop_
_geom_bond_atom_site_label_1
_geom_bond_atom_site_label_2
_geom_bond_site_symmetry_1
_geom_bond_site_symmetry_2
C1 C2 1_555 1_555
C2 C3 1_555 1_555
C3 H1 1_555 1_555
C4 C3 1_555 1_555
C5 C4 1_555 1_555
H2 C5 1_555 1_555
C6 C1 1_555 1_555
H3 C6 1_555 1_555
C7 C4 1_555 1_555
C8 C7 1_555 1_555
H4 C8 1_555 1_555
H5 C8 1_555 1_555
C9 C8 1_555 1_555
C10 C9 1_555 1_555
H6 C10 1_555 1_555
C11 C10 1_555 1_555
H7 C11 1_555 1_555
C12 C11 1_555 1_555
C13 C12 1_555 1_555
H8 C13 1_555 1_555
C14 C9 1_555 1_555
H9 C14 1_555 1_555
O1 C1 1_555 1_555
H10 O1 1_555 1_555
O2 C2 1_555 1_555
H11 O2 1_555 1_555
O3 C7 1_555 1_555
O4 C12 1_555 1_555
H12 O4 1_555 1_555
C5 C6 1_555 1_555
C13 C14 1_555 1_555

#END
