
#######################################################################
#
#                 Cambridge Crystallographic Data Centre
#                                CCDC 
#
#######################################################################
#
# If this CIF has been generated from an entry in the Cambridge 
# Structural Database, then it will include bibliographic, chemical, 
# crystal, experimental, refinement or atomic coordinate data resulting 
# from the CCDC's data processing and validation procedures.
#
#######################################################################

data_HUDWIO
_chemical_name_common            
'di-potassium  3,4-bis(3-dinitromethylfurazan-4-oxy)furazan'
_chemical_formula_moiety         'C8 N10 O13 2-,2(K1 1+)'
_chemical_name_systematic        
'di-potassium (4-((4-((4-(dinitromethanidyl)-1,2,5-oxadiazol-3-yl)oxy)-1,2,5-oxadiazol-3-yl)oxy)-1,2,5-oxadiazol-3-yl)(dinitro)methanide'
_symmetry_cell_setting           monoclinic
_symmetry_space_group_name_H-M   'C 2/c'
_symmetry_Int_Tables_number      15
_space_group_name_Hall           '-C 2yn'
loop_
_symmetry_equiv_pos_site_id
_symmetry_equiv_pos_as_xyz
1 x,y,z
2 -x,y,1/2-z
3 1/2+x,1/2+y,z
4 1/2-x,1/2+y,1/2-z
5 -x,-y,-z
6 x,-y,1/2+z
7 1/2-x,1/2-y,-z
8 1/2+x,1/2-y,1/2+z
_cell_length_a                   13.2796(19)
_cell_length_b                   6.9892(10)
_cell_length_c                   18.484(3)
_cell_angle_alpha                90
_cell_angle_beta                 104.019(2)
_cell_angle_gamma                90
_cell_volume                     1664.47
_exptl_crystal_colour            yellow
_exptl_crystal_description       block
_cell_formula_units_Z            4
_exptl_crystal_recrystallization_method 'Vapour Deposition'
loop_
_atom_site_label
_atom_site_type_symbol
_atom_site_fract_x
_atom_site_fract_y
_atom_site_fract_z
K1 K 0.93794(5) 1.24656(8) 0.51999(4)
N1 N 0.72151(16) 0.9517(3) 0.58531(13)
N2 N 0.86688(17) 0.7495(3) 0.57932(13)
N3 N 0.63620(17) 0.5616(3) 0.61283(13)
N4 N 0.72337(17) 0.3696(3) 0.70696(14)
N5 N 0.91095(19) 0.1848(4) 0.73173(18)
O1 O 0.91548(14) 0.8787(3) 0.55680(12)
O2 O 0.89965(15) 0.5808(3) 0.58278(12)
O3 O 0.75858(14) 1.0935(3) 0.56003(12)
O4 O 0.63304(14) 0.9586(3) 0.59637(12)
O5 O 0.62968(13) 0.4049(3) 0.65785(11)
O6 O 0.88632(13) 0.5179(2) 0.72832(11)
O7 O 1.0000 0.0728(4) 0.7500
C1 C 0.7756(2) 0.7803(3) 0.60061(15)
C2 C 0.73193(19) 0.6198(4) 0.63304(14)
C3 C 0.78413(19) 0.4984(4) 0.69190(15)
C4 C 0.94511(19) 0.3583(4) 0.73913(15)
N1A N 1.27849(16) 0.9517(3) 0.91469(13)
N2A N 1.13312(17) 0.7495(3) 0.92068(13)
N3A N 1.36380(17) 0.5616(3) 0.88717(13)
N4A N 1.27663(17) 0.3696(3) 0.79304(14)
N5A N 1.08905(19) 0.1848(4) 0.76827(18)
O1A O 1.08452(14) 0.8787(3) 0.94320(12)
O2A O 1.10035(15) 0.5808(3) 0.91722(12)
O3A O 1.24142(14) 1.0935(3) 0.93997(12)
O4A O 1.36696(14) 0.9586(3) 0.90363(12)
O5A O 1.37032(13) 0.4049(3) 0.84215(11)
O6A O 1.11368(13) 0.5179(2) 0.77168(11)
C1A C 1.2244(2) 0.7803(3) 0.89939(15)
C2A C 1.26807(19) 0.6198(4) 0.86696(14)
C3A C 1.21587(19) 0.4984(4) 0.80810(15)
C4A C 1.05489(19) 0.3583(4) 0.76087(15)
loop_
_geom_bond_atom_site_label_1
_geom_bond_atom_site_label_2
_geom_bond_site_symmetry_1
_geom_bond_site_symmetry_2
N1 O3 1_555 1_555
N2 O1 1_555 1_555
N3 O5 1_555 1_555
N4 O5 1_555 1_555
N5 O7 1_555 1_555
O2 N2 1_555 1_555
O4 N1 1_555 1_555
O6 C3 1_555 1_555
O7 N5A 1_555 1_555
C1 N1 1_555 1_555
C2 N3 1_555 1_555
C3 N4 1_555 1_555
C4 N5 1_555 1_555
N1A O3A 1_555 1_555
N2A O1A 1_555 1_555
N3A O5A 1_555 1_555
N4A O5A 1_555 1_555
N5A C4A 1_555 1_555
O2A N2A 1_555 1_555
O4A N1A 1_555 1_555
O6A C3A 1_555 1_555
C1A N1A 1_555 1_555
C2A N3A 1_555 1_555
C3A N4A 1_555 1_555
C4A C4 1_555 1_555
N2 C1 1_555 1_555
O6 C4 1_555 1_555
C1 C2 1_555 1_555
C2 C3 1_555 1_555
N2A C1A 1_555 1_555
O6A C4A 1_555 1_555
C1A C2A 1_555 1_555
C2A C3A 1_555 1_555

#END
