
#######################################################################
#
#                 Cambridge Crystallographic Data Centre
#                                CCDC 
#
#######################################################################
#
# If this CIF has been generated from an entry in the Cambridge 
# Structural Database, then it will include bibliographic, chemical, 
# crystal, experimental, refinement or atomic coordinate data resulting 
# from the CCDC's data processing and validation procedures.
#
#######################################################################

data_HUDYOV
_chemical_formula_moiety         'C15 H13 N3 O4'
_chemical_name_systematic        
'(2-((Pyridin-2-ylcarbonyl)carbohydrazonoyl)phenoxy)acetic acid'
_symmetry_cell_setting           monoclinic
_symmetry_space_group_name_H-M   'P 21/c'
_symmetry_Int_Tables_number      14
_space_group_name_Hall           '-P 2ybc'
loop_
_symmetry_equiv_pos_site_id
_symmetry_equiv_pos_as_xyz
1 x,y,z
2 -x,1/2+y,1/2-z
3 -x,-y,-z
4 x,1/2-y,1/2+z
_cell_length_a                   8.871(2)
_cell_length_b                   9.042(2)
_cell_length_c                   17.389(4)
_cell_angle_alpha                90
_cell_angle_beta                 94.765(3)
_cell_angle_gamma                90
_cell_volume                     1389.98
_exptl_crystal_colour            colorless
_exptl_crystal_description       block
_cell_formula_units_Z            4
_exptl_crystal_recrystallization_method methanol/acetone
loop_
_atom_site_label
_atom_site_type_symbol
_atom_site_fract_x
_atom_site_fract_y
_atom_site_fract_z
N1 N 0.5796(2) 0.6090(2) 0.33901(11)
C1 C 0.6090(3) 0.5119(2) 0.39612(13)
C2 C 0.7443(3) 0.5054(3) 0.44083(14)
H1 H 0.7596 0.4364 0.4803
C3 C 0.8563(3) 0.6037(3) 0.42557(15)
H2 H 0.9488 0.6027 0.4549
C4 C 0.8296(3) 0.7032(3) 0.36644(16)
H3 H 0.9044 0.7692 0.3543
C5 C 0.4850(2) 0.4041(3) 0.40971(13)
C6 C 0.1114(3) 0.3732(2) 0.33134(13)
H4 H 0.1103 0.4555 0.2993
C7 C -0.0249(3) 0.2837(3) 0.33563(14)
C8 C -0.0354(3) 0.1807(3) 0.39414(15)
H5 H 0.0465 0.1669 0.4304
C9 C -0.1651(3) 0.0984(3) 0.39943(16)
H6 H -0.1709 0.0302 0.4391
C10 C -0.2859(3) 0.1183(3) 0.34527(17)
H7 H -0.3733 0.0625 0.3484
C11 C -0.2790(3) 0.2190(3) 0.28689(15)
H8 H -0.3611 0.2309 0.2506
C12 C -0.1494(3) 0.3035(3) 0.28189(14)
C13 C -0.2598(3) 0.4491(3) 0.17649(14)
H9 H -0.2442 0.5471 0.1559
H10 H -0.3484 0.4531 0.2056
C14 C -0.2888(3) 0.3425(3) 0.11069(14)
C15 C 0.6908(3) 0.7033(3) 0.32572(15)
H11 H 0.6727 0.7729 0.2866
N2 N 0.3553(2) 0.4263(2) 0.36523(10)
H12 H 0.3495 0.4971 0.3321
N3 N 0.2323(2) 0.3368(2) 0.37230(11)
O1 O 0.50069(18) 0.30437(19) 0.45682(10)
O2 O -0.13215(17) 0.40989(18) 0.22698(9)
O3 O -0.21338(19) 0.2346(2) 0.10071(10)
O4 O -0.4074(2) 0.38551(19) 0.06633(10)
H13 H -0.4261 0.3245 0.0320
loop_
_geom_bond_atom_site_label_1
_geom_bond_atom_site_label_2
_geom_bond_site_symmetry_1
_geom_bond_site_symmetry_2
N1 C1 1_555 1_555
C1 C2 1_555 1_555
C2 H1 1_555 1_555
C3 C2 1_555 1_555
H2 C3 1_555 1_555
C4 C3 1_555 1_555
H3 C4 1_555 1_555
C5 C1 1_555 1_555
C6 H4 1_555 1_555
C7 C6 1_555 1_555
C8 C7 1_555 1_555
H5 C8 1_555 1_555
C9 C8 1_555 1_555
H6 C9 1_555 1_555
C10 C9 1_555 1_555
H7 C10 1_555 1_555
C11 C10 1_555 1_555
H8 C11 1_555 1_555
C12 C7 1_555 1_555
C13 H9 1_555 1_555
H10 C13 1_555 1_555
C14 C13 1_555 1_555
C15 N1 1_555 1_555
H11 C15 1_555 1_555
N2 C5 1_555 1_555
H12 N2 1_555 1_555
N3 C6 1_555 1_555
O1 C5 1_555 1_555
O2 C12 1_555 1_555
O3 C14 1_555 1_555
O4 C14 1_555 1_555
H13 O4 1_555 1_555
C4 C15 1_555 1_555
C11 C12 1_555 1_555
C13 O2 1_555 1_555
N2 N3 1_555 1_555

#END
