
#######################################################################
#
#                 Cambridge Crystallographic Data Centre
#                                CCDC 
#
#######################################################################
#
# If this CIF has been generated from an entry in the Cambridge 
# Structural Database, then it will include bibliographic, chemical, 
# crystal, experimental, refinement or atomic coordinate data resulting 
# from the CCDC's data processing and validation procedures.
#
#######################################################################

data_HUDYEM
_chemical_formula_moiety         'C19 H21 Cl1 N2 O1'
_chemical_name_systematic        1-(4-chlorobenzyl)-1-cyclopentyl-3-phenylurea
_symmetry_cell_setting           orthorhombic
_symmetry_space_group_name_H-M   'P b c a'
_symmetry_Int_Tables_number      61
_space_group_name_Hall           '-P 2ac 2ab'
loop_
_symmetry_equiv_pos_site_id
_symmetry_equiv_pos_as_xyz
1 x,y,z
2 1/2-x,-y,1/2+z
3 1/2+x,1/2-y,-z
4 -x,1/2+y,1/2-z
5 -x,-y,-z
6 1/2+x,y,1/2-z
7 1/2-x,1/2+y,z
8 x,1/2-y,1/2+z
_cell_length_a                   12.1585(5)
_cell_length_b                   8.6721(4)
_cell_length_c                   32.6152(12)
_cell_angle_alpha                90
_cell_angle_beta                 90
_cell_angle_gamma                90
_cell_volume                     3438.94
_exptl_crystal_colour            colorless
_exptl_crystal_description       needle
_cell_formula_units_Z            8
loop_
_atom_site_label
_atom_site_type_symbol
_atom_site_fract_x
_atom_site_fract_y
_atom_site_fract_z
Cl1 Cl 0.23590(4) -0.16966(8) -0.05434(2)
O1 O 0.15878(8) -0.14846(11) 0.15909(3)
N1 N 0.08966(10) 0.07872(15) 0.13656(4)
N2 N 0.23017(10) 0.07453(16) 0.18515(4)
H1 H 0.2489(14) 0.162(2) 0.1777(5)
C1 C 0.17668(14) -0.1232(2) -0.00710(5)
C2 C 0.22919(13) -0.0213(2) 0.01841(5)
H2 H 0.2975 0.0233 0.0106
C3 C 0.18127(12) 0.0160(2) 0.05576(5)
H3 H 0.2173 0.0863 0.0736
C4 C 0.08150(12) -0.04807(17) 0.06739(4)
C5 C 0.03091(13) -0.15110(19) 0.04097(5)
H4 H -0.0373 -0.1962 0.0486
C6 C 0.07769(14) -0.1895(2) 0.00376(5)
H5 H 0.0423 -0.2604 -0.0141
C7 C 0.02356(12) -0.00774(19) 0.10708(4)
H6 H -0.0428 0.0535 0.1005
H7 H -0.0012 -0.1045 0.1203
C8 C 0.06470(12) 0.24352(18) 0.14250(5)
H8 H 0.1190 0.2854 0.1627
C9 C 0.07296(15) 0.3403(2) 0.10377(5)
H9 H 0.0381 0.2873 0.0802
H10 H 0.1506 0.3629 0.0969
C10 C 0.01105(17) 0.4869(2) 0.11481(6)
H11 H -0.0149 0.5406 0.0898
H12 H 0.0584 0.5579 0.1307
C11 C -0.08580(17) 0.4315(2) 0.14061(7)
H13 H -0.1520 0.4182 0.1233
H14 H -0.1027 0.5070 0.1625
C12 C -0.05145(14) 0.2774(2) 0.15928(6)
H15 H -0.1033 0.1949 0.1511
H16 H -0.0502 0.2841 0.1896
C13 C 0.15966(11) -0.00577(17) 0.16037(4)
C14 C 0.29239(11) 0.00718(17) 0.21711(4)
C15 C 0.39770(12) 0.06323(18) 0.22439(5)
H17 H 0.4283 0.1387 0.2066
C16 C 0.45819(13) 0.0096(2) 0.25737(5)
H18 H 0.5295 0.0500 0.2625
C17 C 0.41528(14) -0.1025(2) 0.28280(5)
H19 H 0.4569 -0.1396 0.3054
C18 C 0.31135(14) -0.16039(19) 0.27514(5)
H20 H 0.2822 -0.2390 0.2923
C19 C 0.24920(12) -0.10478(18) 0.24270(4)
H21 H 0.1772 -0.1434 0.2381
loop_
_geom_bond_atom_site_label_1
_geom_bond_atom_site_label_2
_geom_bond_site_symmetry_1
_geom_bond_site_symmetry_2
Cl1 C1 1_555 1_555
O1 C13 1_555 1_555
N1 C7 1_555 1_555
N2 H1 1_555 1_555
C1 C2 1_555 1_555
C2 H2 1_555 1_555
C3 C2 1_555 1_555
H3 C3 1_555 1_555
C4 C3 1_555 1_555
C5 C4 1_555 1_555
H4 C5 1_555 1_555
C6 C1 1_555 1_555
H5 C6 1_555 1_555
C7 C4 1_555 1_555
H6 C7 1_555 1_555
H7 C7 1_555 1_555
C8 N1 1_555 1_555
H8 C8 1_555 1_555
C9 C8 1_555 1_555
H9 C9 1_555 1_555
H10 C9 1_555 1_555
C10 C9 1_555 1_555
H11 C10 1_555 1_555
H12 C10 1_555 1_555
C11 C10 1_555 1_555
H13 C11 1_555 1_555
H14 C11 1_555 1_555
C12 C8 1_555 1_555
H15 C12 1_555 1_555
H16 C12 1_555 1_555
C13 N1 1_555 1_555
C14 N2 1_555 1_555
C15 C14 1_555 1_555
H17 C15 1_555 1_555
C16 C15 1_555 1_555
H18 C16 1_555 1_555
C17 C16 1_555 1_555
H19 C17 1_555 1_555
C18 C17 1_555 1_555
H20 C18 1_555 1_555
C19 C14 1_555 1_555
H21 C19 1_555 1_555
N2 C13 1_555 1_555
C5 C6 1_555 1_555
C11 C12 1_555 1_555
C18 C19 1_555 1_555

#END
