
#######################################################################
#
#                 Cambridge Crystallographic Data Centre
#                                CCDC 
#
#######################################################################
#
# If this CIF has been generated from an entry in the Cambridge 
# Structural Database, then it will include bibliographic, chemical, 
# crystal, experimental, refinement or atomic coordinate data resulting 
# from the CCDC's data processing and validation procedures.
#
#######################################################################

data_HUFDIW
_chemical_formula_moiety         'C11 H13 Cl1 O3'
_chemical_name_systematic        
1-(4-(3-Chloropropoxy)-2-hydroxyphenyl)ethanone
_symmetry_cell_setting           orthorhombic
_symmetry_space_group_name_H-M   'P 21 21 2'
_symmetry_Int_Tables_number      18
_space_group_name_Hall           'P 2 2ab'
loop_
_symmetry_equiv_pos_site_id
_symmetry_equiv_pos_as_xyz
1 x,y,z
2 -x,-y,z
3 1/2+x,1/2-y,-z
4 1/2-x,1/2+y,-z
_cell_length_a                   18.620(2)
_cell_length_b                   11.963(11)
_cell_length_c                   5.0240(6)
_cell_angle_alpha                90
_cell_angle_beta                 90
_cell_angle_gamma                90
_cell_volume                     1119.1
_exptl_crystal_colour            colorless
_exptl_crystal_description       block
_cell_formula_units_Z            4
_exptl_crystal_recrystallization_method 'n-hexane/ethyl acetate'
loop_
_atom_site_label
_atom_site_type_symbol
_atom_site_fract_x
_atom_site_fract_y
_atom_site_fract_z
O1 O 0.61841(8) 0.94594(14) -0.1602(4)
O2 O 0.81896(9) 1.15126(15) 0.7343(4)
O3 O 0.70120(10) 1.19429(14) 0.4881(5)
H1 H 0.7320 1.2012 0.6036
Cl1 Cl 0.48481(5) 0.70010(7) -0.1232(2)
C1 C 0.89472(15) 0.9967(2) 0.6420(7)
H2 H 0.9204 1.0254 0.7930
H3 H 0.9250 0.9996 0.4875
H4 H 0.8809 0.9207 0.6755
C2 C 0.82884(13) 1.0662(2) 0.5953(6)
C3 C 0.77663(12) 1.03407(19) 0.3905(6)
C4 C 0.71379(12) 1.09934(19) 0.3463(6)
C5 C 0.66330(12) 1.06801(19) 0.1590(6)
H5 H 0.6227 1.1119 0.1321
C6 C 0.67293(12) 0.97085(19) 0.0103(6)
C7 C 0.73511(12) 0.9060(2) 0.0441(6)
H6 H 0.7426 0.8424 -0.0586
C8 C 0.78500(13) 0.93830(19) 0.2325(6)
H7 H 0.8259 0.8947 0.2555
C9 C 0.62364(13) 0.8441(2) -0.3163(6)
H8 H 0.6283 0.7797 -0.2001
H9 H 0.6653 0.8470 -0.4320
C10 C 0.55550(14) 0.8356(2) -0.4797(6)
H10 H 0.5519 0.9012 -0.5923
H11 H 0.5591 0.7709 -0.5953
C11 C 0.48784(15) 0.8259(2) -0.3180(7)
H12 H 0.4468 0.8274 -0.4368
H13 H 0.4843 0.8899 -0.2002
loop_
_geom_bond_atom_site_label_1
_geom_bond_atom_site_label_2
_geom_bond_site_symmetry_1
_geom_bond_site_symmetry_2
O1 C6 1_555 1_555
O2 C2 1_555 1_555
O3 H1 1_555 1_555
Cl1 C11 1_555 1_555
C1 H2 1_555 1_555
H3 C1 1_555 1_555
H4 C1 1_555 1_555
C2 C1 1_555 1_555
C3 C2 1_555 1_555
C4 O3 1_555 1_555
C5 C4 1_555 1_555
H5 C5 1_555 1_555
C6 C5 1_555 1_555
C7 C6 1_555 1_555
H6 C7 1_555 1_555
C8 C3 1_555 1_555
H7 C8 1_555 1_555
C9 O1 1_555 1_555
H8 C9 1_555 1_555
H9 C9 1_555 1_555
C10 C9 1_555 1_555
H10 C10 1_555 1_555
H11 C10 1_555 1_555
C11 C10 1_555 1_555
H12 C11 1_555 1_555
H13 C11 1_555 1_555
C3 C4 1_555 1_555
C7 C8 1_555 1_555

#END
