
#######################################################################
#
#                 Cambridge Crystallographic Data Centre
#                                CCDC 
#
#######################################################################
#
# If this CIF has been generated from an entry in the Cambridge 
# Structural Database, then it will include bibliographic, chemical, 
# crystal, experimental, refinement or atomic coordinate data resulting 
# from the CCDC's data processing and validation procedures.
#
#######################################################################

data_HUFDUI
_chemical_formula_moiety         'C20 H11 N5,C1 H4 O1'
_chemical_name_systematic        
'3-(1H-Imidazo[4,5-f][1,10]phenanthrolin-2-yl)benzonitrile methanol solvate'
_symmetry_cell_setting           monoclinic
_symmetry_space_group_name_H-M   'P 21/n'
_symmetry_Int_Tables_number      14
_space_group_name_Hall           '-P 2yn'
loop_
_symmetry_equiv_pos_site_id
_symmetry_equiv_pos_as_xyz
1 x,y,z
2 1/2-x,1/2+y,1/2-z
3 -x,-y,-z
4 1/2+x,1/2-y,1/2+z
_cell_length_a                   7.1150(10)
_cell_length_b                   18.385(2)
_cell_length_c                   13.5576(12)
_cell_angle_alpha                90
_cell_angle_beta                 99.956(19)
_cell_angle_gamma                90
_cell_volume                     1746.75
_exptl_crystal_colour            colorless
_exptl_crystal_description       block
_cell_formula_units_Z            4
_exptl_crystal_recrystallization_method dichloromethane/methanol
loop_
_atom_site_label
_atom_site_type_symbol
_atom_site_fract_x
_atom_site_fract_y
_atom_site_fract_z
C1 C 0.6541(5) -0.05805(18) 0.7761(3)
C2 C 0.6702(4) -0.07430(16) 0.6737(2)
C3 C 0.6441(4) -0.14493(17) 0.6377(3)
H1 H 0.6173 -0.1822 0.6795
C4 C 0.6581(5) -0.15944(17) 0.5396(3)
H2 H 0.6398 -0.2066 0.5152
C5 C 0.6993(4) -0.10430(17) 0.4769(2)
H3 H 0.7079 -0.1149 0.4107
C6 C 0.7281(4) -0.03325(15) 0.5117(2)
C7 C 0.7123(4) -0.01864(16) 0.6113(2)
H4 H 0.7300 0.0285 0.6360
C8 C 0.7695(4) 0.02402(15) 0.4435(2)
C9 C 0.8262(4) 0.08115(15) 0.3144(2)
C10 C 0.8600(4) 0.10077(16) 0.2162(2)
C11 C 0.8394(4) 0.05275(17) 0.1346(2)
H5 H 0.7998 0.0051 0.1413
C12 C 0.8787(5) 0.07721(19) 0.0448(2)
H6 H 0.8629 0.0470 -0.0110
C13 C 0.9430(5) 0.14836(19) 0.0393(2)
H7 H 0.9758 0.1633 -0.0210
C14 C 0.9157(4) 0.17313(16) 0.2013(2)
C15 C 0.9232(4) 0.22708(16) 0.2820(2)
C16 C 0.9749(5) 0.34573(18) 0.3349(3)
H8 H 1.0103 0.3930 0.3221
C17 C 0.9213(5) 0.33164(18) 0.4271(2)
H9 H 0.9197 0.3687 0.4737
C18 C 0.8714(5) 0.26248(17) 0.4477(2)
H10 H 0.8365 0.2515 0.5090
C19 C 0.8732(4) 0.20771(15) 0.3752(2)
C20 C 0.8320(4) 0.13278(15) 0.3885(2)
N1 N 0.6392(5) -0.04524(19) 0.8570(2)
N2 N 0.7870(3) 0.01301(12) 0.34899(16)
N3 N 0.7950(3) 0.09555(12) 0.47126(17)
H14 H 0.7891 0.1137 0.5291
N4 N 0.9610(4) 0.19635(14) 0.11301(19)
N5 N 0.9787(4) 0.29620(13) 0.26399(19)
C21 C 0.9291(6) 0.1623(3) 0.7300(3)
H11 H 0.9003 0.1877 0.7875
H12 H 1.0353 0.1853 0.7075
H13 H 0.9610 0.1127 0.7478
O1 O 0.7700(4) 0.16399(13) 0.65327(16)
H15 H 0.6578 0.1781 0.6823
loop_
_geom_bond_atom_site_label_1
_geom_bond_atom_site_label_2
_geom_bond_site_symmetry_1
_geom_bond_site_symmetry_2
C1 C2 1_555 1_555
C2 C3 1_555 1_555
C3 H1 1_555 1_555
C4 C3 1_555 1_555
H2 C4 1_555 1_555
C5 C4 1_555 1_555
H3 C5 1_555 1_555
C6 C5 1_555 1_555
C7 C2 1_555 1_555
H4 C7 1_555 1_555
C8 C6 1_555 1_555
C9 C10 1_555 1_555
C10 C11 1_555 1_555
C11 H5 1_555 1_555
C12 C11 1_555 1_555
H6 C12 1_555 1_555
C13 C12 1_555 1_555
H7 C13 1_555 1_555
C14 C10 1_555 1_555
C15 C14 1_555 1_555
C16 H8 1_555 1_555
C17 C16 1_555 1_555
H9 C17 1_555 1_555
C18 C17 1_555 1_555
H10 C18 1_555 1_555
C19 C15 1_555 1_555
C20 C9 1_555 1_555
C21 H11 1_555 1_555
H12 C21 1_555 1_555
H13 C21 1_555 1_555
N1 C1 1_555 1_555
N2 C8 1_555 1_555
N3 C8 1_555 1_555
H14 N3 1_555 1_555
N4 C13 1_555 1_555
N5 C15 1_555 1_555
O1 C21 1_555 1_555
H15 O1 1_555 1_555
C6 C7 1_555 1_555
C9 N2 1_555 1_555
C14 N4 1_555 1_555
C16 N5 1_555 1_555
C18 C19 1_555 1_555
C19 C20 1_555 1_555
C20 N3 1_555 1_555

#END
