
#######################################################################
#
#                 Cambridge Crystallographic Data Centre
#                                CCDC 
#
#######################################################################
#
# If this CIF has been generated from an entry in the Cambridge 
# Structural Database, then it will include bibliographic, chemical, 
# crystal, experimental, refinement or atomic coordinate data resulting 
# from the CCDC's data processing and validation procedures.
#
#######################################################################

data_HUFGUL
_chemical_formula_moiety         'C17 H20 N2 O3'
_chemical_name_systematic        
(7-Dimethylamino-1-hydroxy-3-naphthyl)(morpholino)methanone
_symmetry_cell_setting           orthorhombic
_symmetry_space_group_name_H-M   'P c a 21'
_symmetry_Int_Tables_number      29
_space_group_name_Hall           'P 2c -2ac'
loop_
_symmetry_equiv_pos_site_id
_symmetry_equiv_pos_as_xyz
1 x,y,z
2 -x,-y,1/2+z
3 1/2-x,y,1/2+z
4 1/2+x,-y,z
_cell_length_a                   12.6250(5)
_cell_length_b                   13.9634(6)
_cell_length_c                   8.8369(3)
_cell_angle_alpha                90
_cell_angle_beta                 90
_cell_angle_gamma                90
_cell_volume                     1557.84
_exptl_crystal_colour            silver
_exptl_crystal_description       block
_cell_formula_units_Z            4
_exptl_crystal_recrystallization_method 'ethyl acetate'
loop_
_atom_site_label
_atom_site_type_symbol
_atom_site_fract_x
_atom_site_fract_y
_atom_site_fract_z
O1 O 0.67137(15) 0.76538(16) 0.3748(2)
H1 H 0.7257 0.7921 0.4033
O2 O 0.64658(15) 0.84718(18) 0.9402(3)
O3 O 0.31381(16) 0.94813(16) 1.1678(2)
N1 N 0.38830(19) 0.55244(19) 0.1665(3)
N2 N 0.47850(17) 0.89337(17) 0.9690(3)
C1 C 0.4410(2) 0.76093(18) 0.7082(3)
H2 H 0.3886 0.7595 0.7821
C2 C 0.53284(19) 0.81050(16) 0.7348(3)
C3 C 0.6131(2) 0.81177(19) 0.6231(3)
H3 H 0.6762 0.8439 0.6422
C4 C 0.59920(19) 0.76642(18) 0.4873(3)
C5 C 0.50466(19) 0.71367(16) 0.4583(3)
C6 C 0.4919(2) 0.66117(17) 0.3236(3)
H4 H 0.5446 0.6634 0.2501
C7 C 0.4022(2) 0.60611(19) 0.2982(3)
C8 C 0.3216(2) 0.6086(2) 0.4082(4)
H5 H 0.2593 0.5746 0.3911
C9 C 0.3321(2) 0.65914(19) 0.5389(4)
H6 H 0.2772 0.6589 0.6090
C10 C 0.4249(2) 0.71200(17) 0.5702(3)
C11 C 0.5567(2) 0.8524(2) 0.8856(3)
C12 C 0.38259(19) 0.94019(19) 0.9127(3)
H7 H 0.3663 0.9165 0.8121
H8 H 0.3944 1.0087 0.9058
C13 C 0.2917(2) 0.9210(2) 1.0154(4)
H9 H 0.2303 0.9561 0.9799
H10 H 0.2748 0.8533 1.0124
C14 C 0.4045(2) 0.8996(2) 1.2216(4)
H11 H 0.3910 0.8312 1.2215
H12 H 0.4184 0.9190 1.3251
C15 C 0.5006(2) 0.9204(2) 1.1257(3)
H13 H 0.5177 0.9880 1.1310
H14 H 0.5608 0.8844 1.1631
C16 C 0.3346(3) 0.4603(2) 0.1784(5)
H15 H 0.2810 0.4639 0.2552
H16 H 0.3850 0.4116 0.2047
H17 H 0.3024 0.4448 0.0831
C17 C 0.4705(3) 0.5571(3) 0.0525(5)
H18 H 0.5021 0.6196 0.0533
H19 H 0.4402 0.5449 -0.0453
H20 H 0.5236 0.5098 0.0738
loop_
_geom_bond_atom_site_label_1
_geom_bond_atom_site_label_2
_geom_bond_site_symmetry_1
_geom_bond_site_symmetry_2
O1 H1 1_555 1_555
O2 C11 1_555 1_555
O3 C13 1_555 1_555
N1 C7 1_555 1_555
N2 C11 1_555 1_555
C1 H2 1_555 1_555
C2 C1 1_555 1_555
C3 C2 1_555 1_555
H3 C3 1_555 1_555
C4 O1 1_555 1_555
C5 C4 1_555 1_555
C6 C5 1_555 1_555
H4 C6 1_555 1_555
C7 C6 1_555 1_555
C8 C7 1_555 1_555
H5 C8 1_555 1_555
C9 C8 1_555 1_555
H6 C9 1_555 1_555
C10 C1 1_555 1_555
C11 C2 1_555 1_555
C12 N2 1_555 1_555
H7 C12 1_555 1_555
H8 C12 1_555 1_555
C13 C12 1_555 1_555
H9 C13 1_555 1_555
H10 C13 1_555 1_555
C14 O3 1_555 1_555
H11 C14 1_555 1_555
H12 C14 1_555 1_555
C15 N2 1_555 1_555
H13 C15 1_555 1_555
H14 C15 1_555 1_555
C16 N1 1_555 1_555
H15 C16 1_555 1_555
H16 C16 1_555 1_555
H17 C16 1_555 1_555
C17 N1 1_555 1_555
H18 C17 1_555 1_555
H19 C17 1_555 1_555
H20 C17 1_555 1_555
C3 C4 1_555 1_555
C5 C10 1_555 1_555
C9 C10 1_555 1_555
C14 C15 1_555 1_555

#END
