
#######################################################################
#
#                 Cambridge Crystallographic Data Centre
#                                CCDC 
#
#######################################################################
#
# If this CIF has been generated from an entry in the Cambridge 
# Structural Database, then it will include bibliographic, chemical, 
# crystal, experimental, refinement or atomic coordinate data resulting 
# from the CCDC's data processing and validation procedures.
#
#######################################################################

data_HUFMUR
_chemical_formula_moiety         'C16 H22 Cl4 N2 O2 S1'
_chemical_name_systematic        
N^2^,N^2^,N^5^,N^5^-tetrakis(2-Chloroethyl)-3,4-dimethylthiophene-2,5-dicarboxamide
_chemical_properties_biological  'potential anti-tumour drug'
_symmetry_cell_setting           monoclinic
_symmetry_space_group_name_H-M   'P 21/c'
_symmetry_Int_Tables_number      14
_space_group_name_Hall           '-P 2ybc'
loop_
_symmetry_equiv_pos_site_id
_symmetry_equiv_pos_as_xyz
1 x,y,z
2 -x,1/2+y,1/2-z
3 -x,-y,-z
4 x,1/2-y,1/2+z
_cell_length_a                   7.9238(4)
_cell_length_b                   21.1712(11)
_cell_length_c                   12.6186(7)
_cell_angle_alpha                90
_cell_angle_beta                 99.2380(10)
_cell_angle_gamma                90
_cell_volume                     2089.39
_exptl_crystal_colour            white
_exptl_crystal_description       block
_cell_formula_units_Z            4
_exptl_crystal_recrystallization_method 'ethyl acetate/petroleum ether'
loop_
_atom_site_label
_atom_site_type_symbol
_atom_site_fract_x
_atom_site_fract_y
_atom_site_fract_z
C1 C 0.6440(3) 0.16192(11) 0.56639(16)
C2 C 0.4663(3) 0.10478(11) 0.41970(16)
C3 C 0.7314(3) 0.11337(11) 0.52879(16)
C4 C 0.6267(3) 0.07973(11) 0.44327(16)
C5 C 0.9129(3) 0.09640(14) 0.5718(2)
H1 H 0.9596 0.1267 0.6251
H2 H 0.9788 0.0965 0.5142
H3 H 0.9166 0.0551 0.6034
C6 C 0.6887(4) 0.02243(13) 0.3905(2)
H4 H 0.5947 0.0033 0.3441
H5 H 0.7362 -0.0073 0.4445
H6 H 0.7749 0.0348 0.3491
C7 C 0.3109(3) 0.08236(11) 0.34627(17)
C8 C 0.7126(3) 0.21071(11) 0.64859(17)
C9 C 0.6710(3) 0.13373(12) 0.79073(18)
H7 H 0.7502 0.1203 0.8534
H8 H 0.6717 0.1022 0.7350
C10 C 0.4939(4) 0.13895(13) 0.8188(2)
H9 H 0.4128 0.1483 0.7547
H10 H 0.4904 0.1732 0.8694
C11 C 0.7869(4) 0.24259(14) 0.8346(2)
H11 H 0.7587 0.2291 0.9031
H12 H 0.7269 0.2819 0.8152
C12 C 0.9744(4) 0.25440(18) 0.8472(3)
H13 H 1.0070 0.2838 0.9059
H14 H 1.0009 0.2738 0.7822
C13 C 0.4527(3) 0.10073(11) 0.18708(17)
H15 H 0.4924 0.0670 0.1451
H16 H 0.5478 0.1132 0.2414
C14 C 0.4016(3) 0.15598(12) 0.11482(18)
H17 H 0.3109 0.1434 0.0577
H18 H 0.4985 0.1696 0.0824
C15 C 0.1637(3) 0.05019(11) 0.17242(19)
H19 H 0.1273 0.0125 0.2063
H20 H 0.1937 0.0379 0.1038
C16 C 0.0165(3) 0.09661(13) 0.1536(2)
H21 H 0.0514 0.1342 0.1190
H22 H -0.0148 0.1089 0.2219
Cl1 Cl 1.09507(11) 0.18434(6) 0.87299(8)
Cl2 Cl 0.43645(12) 0.06673(3) 0.87659(6)
Cl3 Cl -0.16257(10) 0.06186(4) 0.07135(7)
Cl4 Cl 0.32971(10) 0.22004(3) 0.18815(6)
N1 N 0.3156(2) 0.07637(9) 0.24030(14)
N2 N 0.7258(2) 0.19471(9) 0.75320(14)
O1 O 0.1805(3) 0.06964(11) 0.38336(14)
O2 O 0.7529(3) 0.26329(8) 0.62021(14)
S1 S 0.43739(8) 0.16811(3) 0.50083(4)
loop_
_geom_bond_atom_site_label_1
_geom_bond_atom_site_label_2
_geom_bond_site_symmetry_1
_geom_bond_site_symmetry_2
C1 C3 1_555 1_555
C2 C4 1_555 1_555
C3 C4 1_555 1_555
C4 C6 1_555 1_555
C5 C3 1_555 1_555
H1 C5 1_555 1_555
H2 C5 1_555 1_555
H3 C5 1_555 1_555
C6 H4 1_555 1_555
H5 C6 1_555 1_555
H6 C6 1_555 1_555
C7 C2 1_555 1_555
C8 C1 1_555 1_555
C9 H7 1_555 1_555
H8 C9 1_555 1_555
C10 C9 1_555 1_555
H9 C10 1_555 1_555
H10 C10 1_555 1_555
C11 H11 1_555 1_555
H12 C11 1_555 1_555
C12 C11 1_555 1_555
H13 C12 1_555 1_555
H14 C12 1_555 1_555
C13 H15 1_555 1_555
H16 C13 1_555 1_555
C14 C13 1_555 1_555
H17 C14 1_555 1_555
H18 C14 1_555 1_555
C15 H19 1_555 1_555
H20 C15 1_555 1_555
C16 C15 1_555 1_555
H21 C16 1_555 1_555
H22 C16 1_555 1_555
Cl1 C12 1_555 1_555
Cl2 C10 1_555 1_555
Cl3 C16 1_555 1_555
Cl4 C14 1_555 1_555
N1 C7 1_555 1_555
N2 C8 1_555 1_555
O1 C7 1_555 1_555
O2 C8 1_555 1_555
S1 C1 1_555 1_555
C2 S1 1_555 1_555
C9 N2 1_555 1_555
C11 N2 1_555 1_555
C13 N1 1_555 1_555
C15 N1 1_555 1_555

#END
