
#######################################################################
#
#                 Cambridge Crystallographic Data Centre
#                                CCDC 
#
#######################################################################
#
# If this CIF has been generated from an entry in the Cambridge 
# Structural Database, then it will include bibliographic, chemical, 
# crystal, experimental, refinement or atomic coordinate data resulting 
# from the CCDC's data processing and validation procedures.
#
#######################################################################

data_HUFQUV
_chemical_formula_moiety         'C9 H11 N2 O4 1+,Cl1 O4 1-'
_chemical_name_systematic        
'2-Carboxy-1-(3-nitrophenyl)ethanaminium perchlorate'
_symmetry_cell_setting           triclinic
_symmetry_space_group_name_H-M   'P -1'
_symmetry_Int_Tables_number      2
_space_group_name_Hall           '-P 1'
loop_
_symmetry_equiv_pos_site_id
_symmetry_equiv_pos_as_xyz
1 x,y,z
2 -x,-y,-z
_cell_length_a                   7.5932(8)
_cell_length_b                   7.88430(10)
_cell_length_c                   11.8615(6)
_cell_angle_alpha                94.745(3)
_cell_angle_beta                 99.780(7)
_cell_angle_gamma                116.323(4)
_cell_volume                     617.108
_exptl_crystal_colour            colorless
_exptl_crystal_description       prism
_cell_formula_units_Z            2
loop_
_atom_site_label
_atom_site_type_symbol
_atom_site_fract_x
_atom_site_fract_y
_atom_site_fract_z
Cl1 Cl 0.34320(15) 0.01534(15) 0.65117(8)
O1 O 0.3304(6) -0.1381(5) 0.5737(3)
O2 O 0.5400(5) 0.1058(5) 0.7279(3)
O3 O 0.1979(6) -0.0555(6) 0.7205(3)
O4 O 0.3233(9) 0.1574(7) 0.5920(3)
O5 O 0.1696(4) 0.4174(4) 0.4775(2)
O6 O 0.0141(5) 0.5359(5) 0.3563(2)
H1 H -0.0234 0.5592 0.4138
C1 C 0.7013(5) 0.4845(5) 0.1024(3)
C2 C 0.6238(5) 0.4860(5) 0.1994(3)
H2 H 0.6888 0.5908 0.2602
C3 C 0.4454(5) 0.3264(5) 0.2039(3)
N1 N 0.8866(5) 0.6592(5) 0.0985(3)
N2 N 0.2618(5) 0.1458(5) 0.3442(3)
H3 H 0.2265 0.1591 0.4110
H4 H 0.3490 0.0984 0.3536
H5 H 0.1525 0.0659 0.2896
C4 C 0.1278(5) 0.4556(5) 0.3827(3)
C5 C 0.3587(5) 0.3383(5) 0.3081(3)
H6 H 0.4696 0.4278 0.3728
C6 C 0.3520(5) 0.1742(5) 0.1112(3)
H7 H 0.2322 0.0683 0.1136
O7 O 0.9505(5) 0.6627(5) 0.0093(3)
C7 C 0.4334(6) 0.1763(6) 0.0143(3)
H8 H 0.3682 0.0730 -0.0475
O8 O 0.9618(5) 0.7907(5) 0.1799(3)
C8 C 0.6139(6) 0.3347(6) 0.0106(3)
H9 H 0.6728 0.3382 -0.0524
C9 C 0.2089(6) 0.4171(6) 0.2816(3)
H10 H 0.2741 0.5361 0.2528
H11 H 0.0960 0.3263 0.2198
loop_
_geom_bond_atom_site_label_1
_geom_bond_atom_site_label_2
_geom_bond_site_symmetry_1
_geom_bond_site_symmetry_2
Cl1 O1 1_555 1_555
O2 Cl1 1_555 1_555
O3 Cl1 1_555 1_555
O4 Cl1 1_555 1_555
O5 C4 1_555 1_555
O6 H1 1_555 1_555
C1 C2 1_555 1_555
C2 H2 1_555 1_555
C3 C2 1_555 1_555
N1 C1 1_555 1_555
N2 H3 1_555 1_555
H4 N2 1_555 1_555
H5 N2 1_555 1_555
C4 O6 1_555 1_555
C5 C3 1_555 1_555
H6 C5 1_555 1_555
C6 C3 1_555 1_555
H7 C6 1_555 1_555
O7 N1 1_555 1_555
C7 C6 1_555 1_555
H8 C7 1_555 1_555
O8 N1 1_555 1_555
C8 C1 1_555 1_555
H9 C8 1_555 1_555
C9 C4 1_555 1_555
H10 C9 1_555 1_555
H11 C9 1_555 1_555
N2 C5 1_555 1_555
C5 C9 1_555 1_555
C7 C8 1_555 1_555

#END
