
#######################################################################
#
#                 Cambridge Crystallographic Data Centre
#                                CCDC 
#
#######################################################################
#
# If this CIF has been generated from an entry in the Cambridge 
# Structural Database, then it will include bibliographic, chemical, 
# crystal, experimental, refinement or atomic coordinate data resulting 
# from the CCDC's data processing and validation procedures.
#
#######################################################################

data_HUFQIJ
_chemical_formula_moiety         'C12 H9 Br1 F2 N2 O1'
_chemical_name_systematic        
(4-Bromo-3,5-dimethyl-1H-pyrazol-1-yl)(2,6-difluorophenyl)methanone
_symmetry_cell_setting           monoclinic
_symmetry_space_group_name_H-M   'P 21/c'
_symmetry_Int_Tables_number      14
_space_group_name_Hall           '-P 2ybc'
loop_
_symmetry_equiv_pos_site_id
_symmetry_equiv_pos_as_xyz
1 x,y,z
2 -x,1/2+y,1/2-z
3 -x,-y,-z
4 x,1/2-y,1/2+z
_cell_length_a                   7.116(3)
_cell_length_b                   29.304(10)
_cell_length_c                   11.674(4)
_cell_angle_alpha                90
_cell_angle_beta                 91.533(5)
_cell_angle_gamma                90
_cell_volume                     2433.48
_exptl_crystal_colour            colorless
_exptl_crystal_description       block
_cell_formula_units_Z            8
_exptl_crystal_recrystallization_method ethanol
loop_
_atom_site_label
_atom_site_type_symbol
_atom_site_fract_x
_atom_site_fract_y
_atom_site_fract_z
Br1 Br 0.48772(10) 0.41014(2) 0.89703(6)
F1 F 0.7911(6) 0.30667(16) 1.4485(4)
F2 F 0.1573(5) 0.32948(15) 1.3484(3)
O1 O 0.5532(8) 0.26916(16) 1.2410(4)
N1 N 0.5031(7) 0.34346(17) 1.1966(4)
N2 N 0.4946(7) 0.38788(17) 1.2406(5)
C1 C 0.4918(9) 0.4144(2) 1.1501(6)
C2 C 0.4947(9) 0.3874(2) 1.0474(5)
C3 C 0.5023(8) 0.3431(2) 1.0775(5)
C4 C 0.4855(11) 0.4650(2) 1.1623(6)
H1 H 0.4898 0.4731 1.2438
H2 H 0.3690 0.4767 1.1265
H3 H 0.5936 0.4785 1.1247
C5 C 0.5039(10) 0.3009(2) 1.0060(6)
H4 H 0.4885 0.3092 0.9250
H5 H 0.4005 0.2809 1.0279
H6 H 0.6238 0.2850 1.0183
C6 C 0.5157(10) 0.3064(2) 1.2725(5)
C7 C 0.4758(9) 0.3177(2) 1.3954(5)
C8 C 0.6131(9) 0.3157(2) 1.4813(6)
C9 C 0.5761(11) 0.3226(2) 1.5946(6)
H7 H 0.6742 0.3219 1.6513
C10 C 0.3931(10) 0.3306(2) 1.6239(6)
H8 H 0.3650 0.3341 1.7025
C11 C 0.2501(10) 0.3337(2) 1.5433(6)
H9 H 0.1250 0.3405 1.5642
C12 C 0.2950(9) 0.3266(2) 1.4315(6)
Br2 Br 1.00200(10) 0.31950(3) 1.09739(6)
F3 F 0.6692(7) 0.42324(19) 0.6390(5)
F4 F 1.3057(7) 0.4580(2) 0.6345(6)
O2 O 1.0003(10) 0.48031(17) 0.8138(4)
N3 N 0.9873(7) 0.40262(16) 0.8255(4)
N4 N 0.9923(7) 0.36189(17) 0.7664(4)
C13 C 0.9966(9) 0.3303(2) 0.8459(6)
C14 C 0.9948(9) 0.3504(2) 0.9562(5)
C15 C 0.9901(9) 0.3960(2) 0.9434(5)
C16 C 1.0047(12) 0.2810(2) 0.8158(7)
H10 H 1.0217 0.2777 0.7332
H11 H 0.8872 0.2661 0.8369
H12 H 1.1105 0.2666 0.8575
C17 C 0.9875(11) 0.4331(3) 1.0304(6)
H13 H 0.9903 0.4197 1.1074
H14 H 0.8729 0.4512 1.0195
H15 H 1.0977 0.4527 1.0217
C18 C 0.9919(10) 0.4439(2) 0.7649(6)
C19 C 0.9876(10) 0.4396(2) 0.6374(6)
C20 C 0.8243(12) 0.4300(3) 0.5776(7)
C21 C 0.8162(19) 0.4272(3) 0.4604(8)
H16 H 0.7018 0.4200 0.4206
C22 C 0.975(2) 0.4350(3) 0.4030(8)
H17 H 0.9711 0.4331 0.3217
C23 C 1.141(2) 0.4456(4) 0.4571(10)
H18 H 1.2508 0.4512 0.4148
C24 C 1.1454(13) 0.4478(3) 0.5754(7)
loop_
_geom_bond_atom_site_label_1
_geom_bond_atom_site_label_2
_geom_bond_site_symmetry_1
_geom_bond_site_symmetry_2
Br1 C2 1_555 1_555
Br2 C14 1_555 1_555
F1 C8 1_555 1_555
F2 C12 1_555 1_555
F3 C20 1_555 1_555
F4 C24 1_555 1_555
O1 C6 1_555 1_555
O2 C18 1_555 1_555
N1 N2 1_555 1_555
N2 C1 1_555 1_555
N3 N4 1_555 1_555
N4 C13 1_555 1_555
C1 C2 1_555 1_555
C2 C3 1_555 1_555
C3 N1 1_555 1_555
C4 C1 1_555 1_555
H1 C4 1_555 1_555
H2 C4 1_555 1_555
H3 C4 1_555 1_555
C5 C3 1_555 1_555
H4 C5 1_555 1_555
H5 C5 1_555 1_555
H6 C5 1_555 1_555
C6 N1 1_555 1_555
C7 C6 1_555 1_555
C8 C7 1_555 1_555
C9 C8 1_555 1_555
H7 C9 1_555 1_555
C10 C9 1_555 1_555
H8 C10 1_555 1_555
C11 C10 1_555 1_555
H9 C11 1_555 1_555
C12 C7 1_555 1_555
C13 C14 1_555 1_555
C14 C15 1_555 1_555
C15 N3 1_555 1_555
C16 C13 1_555 1_555
H10 C16 1_555 1_555
H11 C16 1_555 1_555
H12 C16 1_555 1_555
C17 C15 1_555 1_555
H13 C17 1_555 1_555
H14 C17 1_555 1_555
H15 C17 1_555 1_555
C18 N3 1_555 1_555
C19 C18 1_555 1_555
C20 C19 1_555 1_555
C21 C20 1_555 1_555
H16 C21 1_555 1_555
C22 C21 1_555 1_555
H17 C22 1_555 1_555
C23 C22 1_555 1_555
H18 C23 1_555 1_555
C24 C19 1_555 1_555
C11 C12 1_555 1_555
C23 C24 1_555 1_555

#END
