
#######################################################################
#
#                 Cambridge Crystallographic Data Centre
#                                CCDC 
#
#######################################################################
#
# If this CIF has been generated from an entry in the Cambridge 
# Structural Database, then it will include bibliographic, chemical, 
# crystal, experimental, refinement or atomic coordinate data resulting 
# from the CCDC's data processing and validation procedures.
#
#######################################################################

data_HUFREG
_chemical_formula_moiety         'C26 H24 O3'
_chemical_name_systematic        
12-(2-Methoxyphenyl)-9,9-dimethyl-8,9-dihydro-12H-benzo[a]xanthen-11(10H)-one
_symmetry_cell_setting           monoclinic
_symmetry_space_group_name_H-M   'P 21/n'
_symmetry_Int_Tables_number      14
_space_group_name_Hall           '-P 2yn'
loop_
_symmetry_equiv_pos_site_id
_symmetry_equiv_pos_as_xyz
1 x,y,z
2 1/2-x,1/2+y,1/2-z
3 -x,-y,-z
4 1/2+x,1/2-y,1/2+z
_cell_length_a                   7.8454(11)
_cell_length_b                   22.670(3)
_cell_length_c                   11.3100(13)
_cell_angle_alpha                90
_cell_angle_beta                 98.893(4)
_cell_angle_gamma                90
_cell_volume                     1987.36
_exptl_crystal_colour            colorless
_exptl_crystal_description       block
_cell_formula_units_Z            4
_exptl_crystal_recrystallization_method ethanol
loop_
_atom_site_label
_atom_site_type_symbol
_atom_site_fract_x
_atom_site_fract_y
_atom_site_fract_z
O1 O 0.32998(13) 0.05276(4) 0.89201(9)
O2 O -0.07739(15) 0.20650(5) 0.81569(13)
O3 O 0.19539(13) 0.05495(5) 0.63209(9)
C1 C 0.2801(2) 0.11049(7) 0.87702(13)
C2 C 0.11615(19) 0.12678(7) 0.84090(13)
C3 C -0.0248(2) 0.08279(6) 0.79729(13)
H1 H -0.1274 0.0930 0.8358
C4 C 0.03259(19) 0.02110(7) 0.83795(12)
C5 C 0.20193(19) 0.00984(7) 0.88233(12)
C6 C 0.2635(2) -0.04641(7) 0.92099(13)
H2 H 0.3813 -0.0518 0.9543
C7 C 0.1525(2) -0.09314(7) 0.91012(13)
H3 H 0.1936 -0.1312 0.9357
C8 C -0.0236(2) -0.08537(7) 0.86104(13)
C9 C -0.08557(19) -0.02749(7) 0.82836(12)
C10 C -0.2640(2) -0.02089(7) 0.78388(13)
H4 H -0.3097 0.0174 0.7653
C11 C -0.3711(2) -0.06874(8) 0.76733(14)
H5 H -0.4899 -0.0632 0.7372
C12 C -0.3080(2) -0.12620(8) 0.79428(15)
H6 H -0.3825 -0.1593 0.7792
C13 C -0.1390(2) -0.13381(7) 0.84225(14)
H7 H -0.0978 -0.1724 0.8635
C14 C 0.0722(2) 0.18961(7) 0.84212(15)
C15 C 0.2164(2) 0.23259(7) 0.88335(17)
H8 H 0.2239 0.2383 0.9708
H9 H 0.1868 0.2711 0.8444
C16 C 0.3943(2) 0.21341(7) 0.85643(16)
C17 C 0.4295(2) 0.15108(7) 0.90742(14)
H10 H 0.5303 0.1344 0.8761
H11 H 0.4594 0.1537 0.9956
C18 C 0.3939(2) 0.21340(8) 0.72089(17)
H12 H 0.3564 0.2521 0.6880
H13 H 0.3146 0.1830 0.6836
H14 H 0.5106 0.2051 0.7044
C19 C 0.5342(2) 0.25523(8) 0.9164(2)
H15 H 0.6479 0.2401 0.9058
H16 H 0.5274 0.2581 1.0020
H17 H 0.5173 0.2944 0.8798
C20 C -0.07830(19) 0.08847(6) 0.66195(13)
C21 C 0.03606(19) 0.07426(6) 0.58126(13)
C22 C -0.0157(2) 0.08026(7) 0.45887(13)
H18 H 0.0609 0.0697 0.4050
C23 C -0.1784(2) 0.10161(7) 0.41493(14)
H19 H -0.2132 0.1054 0.3310
C24 C -0.2910(2) 0.11751(7) 0.49250(14)
H20 H -0.4017 0.1330 0.4625
C25 C -0.2392(2) 0.11041(6) 0.61498(14)
H21 H -0.3169 0.1210 0.6681
C26 C 0.3182(2) 0.04429(7) 0.55369(15)
H22 H 0.2763 0.0126 0.4978
H23 H 0.4286 0.0327 0.6007
H24 H 0.3341 0.0803 0.5087
loop_
_geom_bond_atom_site_label_1
_geom_bond_atom_site_label_2
_geom_bond_site_symmetry_1
_geom_bond_site_symmetry_2
O1 C1 1_555 1_555
O2 C14 1_555 1_555
O3 C21 1_555 1_555
C1 C2 1_555 1_555
C2 C3 1_555 1_555
C3 H1 1_555 1_555
C4 C3 1_555 1_555
C5 O1 1_555 1_555
C6 C5 1_555 1_555
H2 C6 1_555 1_555
C7 C6 1_555 1_555
H3 C7 1_555 1_555
C8 C7 1_555 1_555
C9 C4 1_555 1_555
C10 C9 1_555 1_555
H4 C10 1_555 1_555
C11 C10 1_555 1_555
H5 C11 1_555 1_555
C12 C11 1_555 1_555
H6 C12 1_555 1_555
C13 C8 1_555 1_555
H7 C13 1_555 1_555
C14 C2 1_555 1_555
C15 C14 1_555 1_555
H8 C15 1_555 1_555
H9 C15 1_555 1_555
C16 C15 1_555 1_555
C17 C1 1_555 1_555
H10 C17 1_555 1_555
H11 C17 1_555 1_555
C18 C16 1_555 1_555
H12 C18 1_555 1_555
H13 C18 1_555 1_555
H14 C18 1_555 1_555
C19 C16 1_555 1_555
H15 C19 1_555 1_555
H16 C19 1_555 1_555
H17 C19 1_555 1_555
C20 C3 1_555 1_555
C21 C20 1_555 1_555
C22 C21 1_555 1_555
H18 C22 1_555 1_555
C23 C22 1_555 1_555
H19 C23 1_555 1_555
C24 C23 1_555 1_555
H20 C24 1_555 1_555
C25 C20 1_555 1_555
H21 C25 1_555 1_555
C26 O3 1_555 1_555
H22 C26 1_555 1_555
H23 C26 1_555 1_555
H24 C26 1_555 1_555
C4 C5 1_555 1_555
C8 C9 1_555 1_555
C12 C13 1_555 1_555
C16 C17 1_555 1_555
C24 C25 1_555 1_555

#END
