
#######################################################################
#
#                 Cambridge Crystallographic Data Centre
#                                CCDC 
#
#######################################################################
#
# If this CIF has been generated from an entry in the Cambridge 
# Structural Database, then it will include bibliographic, chemical, 
# crystal, experimental, refinement or atomic coordinate data resulting 
# from the CCDC's data processing and validation procedures.
#
#######################################################################

data_HUFTIM
_chemical_formula_moiety         'C24 H22 N2 O2'
_chemical_name_systematic        2,3-bis(4-Ethoxyphenyl)quinoxaline
_symmetry_cell_setting           monoclinic
_symmetry_space_group_name_H-M   'C 2/c'
_symmetry_Int_Tables_number      15
_space_group_name_Hall           '-C 2yn'
loop_
_symmetry_equiv_pos_site_id
_symmetry_equiv_pos_as_xyz
1 x,y,z
2 -x,y,1/2-z
3 1/2+x,1/2+y,z
4 1/2-x,1/2+y,1/2-z
5 -x,-y,-z
6 x,-y,1/2+z
7 1/2-x,1/2-y,-z
8 1/2+x,1/2-y,1/2+z
_cell_length_a                   19.4837(18)
_cell_length_b                   11.2682(11)
_cell_length_c                   9.2629(9)
_cell_angle_alpha                90
_cell_angle_beta                 100.1960(10)
_cell_angle_gamma                90
_cell_volume                     2001.52
_exptl_crystal_colour            yellow
_exptl_crystal_description       prism
_cell_formula_units_Z            4
_exptl_crystal_recrystallization_method dichloromethane/methanol
loop_
_atom_site_label
_atom_site_type_symbol
_atom_site_fract_x
_atom_site_fract_y
_atom_site_fract_z
C1 C 0.46773(6) -0.00154(10) 0.19704(12)
N1 N 0.43983(5) -0.10164(8) 0.14060(11)
C2 C 0.47078(6) -0.20565(10) 0.19257(13)
C3 C 0.44262(8) -0.31482(11) 0.13548(16)
H1 H 0.4044 -0.3157 0.0594
C4 C 0.47143(9) -0.41910(12) 0.19182(17)
H2 H 0.4531 -0.4908 0.1529
O1 O 0.31520(5) 0.41927(8) 0.03771(11)
C5 C 0.35080(6) 0.31489(10) 0.06662(14)
C6 C 0.41928(6) 0.19601(11) 0.25439(13)
H3 H 0.4395 0.1856 0.3523
C7 C 0.39626(6) 0.12701(10) 0.00690(13)
H4 H 0.4003 0.0690 -0.0625
C8 C 0.42812(6) 0.10907(10) 0.15155(12)
C9 C 0.38108(7) 0.29661(11) 0.21256(14)
H5 H 0.3754 0.3532 0.2826
C10 C 0.35851(6) 0.22927(11) -0.03675(14)
H6 H 0.3385 0.2403 -0.1347
C11 C 0.28097(7) 0.44243(12) -0.10928(17)
H7 H 0.2476 0.3801 -0.1428
H8 H 0.3148 0.4455 -0.1745
C12 C 0.24435(8) 0.55950(14) -0.1089(2)
H9 H 0.2209 0.5777 -0.2065
H10 H 0.2778 0.6204 -0.0755
H11 H 0.2109 0.5552 -0.0445
C1A C 0.53227(6) -0.00154(10) 0.30296(12)
N1A N 0.56017(5) -0.10164(8) 0.35940(11)
C2A C 0.52922(6) -0.20565(10) 0.30743(13)
C3A C 0.55738(8) -0.31482(11) 0.36452(16)
H1A H 0.5956 -0.3157 0.4406
C4A C 0.52857(9) -0.41910(12) 0.30818(17)
H2A H 0.5469 -0.4908 0.3471
O1A O 0.68480(5) 0.41927(8) 0.46229(11)
C5A C 0.64920(6) 0.31489(10) 0.43338(14)
C6A C 0.58072(6) 0.19601(11) 0.24561(13)
H3A H 0.5605 0.1856 0.1477
C7A C 0.60374(6) 0.12701(10) 0.49310(13)
H4A H 0.5997 0.0690 0.5625
C8A C 0.57188(6) 0.10907(10) 0.34845(12)
C9A C 0.61892(7) 0.29661(11) 0.28744(14)
H5A H 0.6246 0.3532 0.2174
C10A C 0.64149(6) 0.22927(11) 0.53675(14)
H6A H 0.6615 0.2403 0.6347
C11A C 0.71903(7) 0.44243(12) 0.60928(17)
H7A H 0.7524 0.3801 0.6428
H8A H 0.6852 0.4455 0.6745
C12A C 0.75565(8) 0.55950(14) 0.6089(2)
H9A H 0.7791 0.5777 0.7065
H10A H 0.7222 0.6204 0.5755
H11A H 0.7891 0.5552 0.5445
loop_
_geom_bond_atom_site_label_1
_geom_bond_atom_site_label_2
_geom_bond_site_symmetry_1
_geom_bond_site_symmetry_2
C1 N1 1_555 1_555
N1 C2 1_555 1_555
C2 C3 1_555 1_555
C3 H1 1_555 1_555
C4 C3 1_555 1_555
H2 C4 1_555 1_555
O1 C5 1_555 1_555
C5 C9 1_555 1_555
C6 H3 1_555 1_555
C7 H4 1_555 1_555
C8 C1 1_555 1_555
C9 C6 1_555 1_555
H5 C9 1_555 1_555
C10 C5 1_555 1_555
H6 C10 1_555 1_555
C11 O1 1_555 1_555
H7 C11 1_555 1_555
H8 C11 1_555 1_555
C12 C11 1_555 1_555
H9 C12 1_555 1_555
H10 C12 1_555 1_555
H11 C12 1_555 1_555
C1A C1 1_555 1_555
N1A C1A 1_555 1_555
C2A C2 1_555 1_555
C3A C2A 1_555 1_555
H1A C3A 1_555 1_555
C4A C4 1_555 1_555
H2A C4A 1_555 1_555
O1A C5A 1_555 1_555
C5A C9A 1_555 1_555
C6A H3A 1_555 1_555
C7A H4A 1_555 1_555
C8A C1A 1_555 1_555
C9A C6A 1_555 1_555
H5A C9A 1_555 1_555
C10A C5A 1_555 1_555
H6A C10A 1_555 1_555
C11A O1A 1_555 1_555
H7A C11A 1_555 1_555
H8A C11A 1_555 1_555
C12A C11A 1_555 1_555
H9A C12A 1_555 1_555
H10A C12A 1_555 1_555
H11A C12A 1_555 1_555
C6 C8 1_555 1_555
C7 C8 1_555 1_555
C7 C10 1_555 1_555
N1A C2A 1_555 1_555
C3A C4A 1_555 1_555
C6A C8A 1_555 1_555
C7A C8A 1_555 1_555
C7A C10A 1_555 1_555

#END
