
#######################################################################
#
#                 Cambridge Crystallographic Data Centre
#                                CCDC 
#
#######################################################################
#
# If this CIF has been generated from an entry in the Cambridge 
# Structural Database, then it will include bibliographic, chemical, 
# crystal, experimental, refinement or atomic coordinate data resulting 
# from the CCDC's data processing and validation procedures.
#
#######################################################################

data_HUFWOW
_chemical_formula_moiety         'C24 H21 F1 O3 S1'
_chemical_name_systematic        
1-(4-fluorophenyl)-2-((4-methylphenyl)sulfonyl)-4-phenylpent-3-en-1-one
_symmetry_cell_setting           monoclinic
_symmetry_space_group_name_H-M   'P 21/n'
_symmetry_Int_Tables_number      14
_space_group_name_Hall           '-P 2yn'
loop_
_symmetry_equiv_pos_site_id
_symmetry_equiv_pos_as_xyz
1 x,y,z
2 1/2-x,1/2+y,1/2-z
3 -x,-y,-z
4 1/2+x,1/2-y,1/2+z
_cell_length_a                   15.3544(7)
_cell_length_b                   5.9154(3)
_cell_length_c                   21.8657(11)
_cell_angle_alpha                90
_cell_angle_beta                 90.554(2)
_cell_angle_gamma                90
_cell_volume                     1985.91
_exptl_crystal_colour            colorless
_exptl_crystal_description       Columnar
_cell_formula_units_Z            4
loop_
_atom_site_label
_atom_site_type_symbol
_atom_site_fract_x
_atom_site_fract_y
_atom_site_fract_z
S1 S 0.86217(3) 0.29171(8) 0.97374(2)
F1 F 0.95501(10) -0.4370(2) 1.23529(6)
O1 O 0.94104(9) 0.2524(2) 1.00831(6)
O2 O 0.74751(9) 0.3242(2) 1.09661(6)
O3 O 0.82950(9) 0.5191(2) 0.96861(6)
C1 C 0.38622(13) 0.2473(3) 0.88405(9)
H1 H 0.3286 0.2889 0.8724
C2 C 0.43969(12) 0.3977(3) 0.91508(8)
H2 H 0.4185 0.5442 0.9247
C3 C 0.52356(12) 0.3383(3) 0.93234(8)
H3 H 0.5589 0.4444 0.9537
C4 C 0.55711(12) 0.1242(3) 0.91877(8)
C5 C 0.64739(12) 0.0554(3) 0.93718(8)
C6 C 0.68996(12) 0.1677(3) 0.98115(8)
H4 H 0.6614 0.2957 0.9978
C7 C 0.77834(12) 0.1126(3) 1.00696(8)
H5 H 0.7922 -0.0496 0.9986
C8 C 0.87327(12) 0.1796(3) 0.89958(8)
C9 C 0.83457(13) 0.2888(3) 0.85032(9)
H6 H 0.8035 0.4260 0.8560
C10 C 0.84203(14) 0.1936(4) 0.79243(9)
H7 H 0.8158 0.2672 0.7583
C11 C 0.88726(13) -0.0072(3) 0.78362(9)
C12 C 0.89749(15) -0.1085(4) 0.72101(9)
H8 H 0.8563 -0.0367 0.6925
H9 H 0.8858 -0.2711 0.7228
H10 H 0.9571 -0.0835 0.7069
C13 C 0.78326(12) 0.1566(3) 1.07635(8)
C14 C 0.83055(12) -0.0036(3) 1.11693(8)
C15 C 0.83200(13) 0.0407(4) 1.17979(9)
H11 H 0.8041 0.1722 1.1951
C16 C 0.87366(15) -0.1052(4) 1.21975(9)
H12 H 0.8746 -0.0760 1.2625
C17 C 0.91379(14) -0.2941(4) 1.19632(10)
C18 C 0.91383(13) -0.3443(3) 1.13505(9)
H13 H 0.9416 -0.4768 1.1204
C19 C 0.87232(13) -0.1968(3) 1.09513(9)
H14 H 0.8723 -0.2274 1.0525
C20 C 0.41852(13) 0.0348(4) 0.87027(9)
H15 H 0.3824 -0.0714 0.8495
C21 C 0.50295(13) -0.0244(3) 0.88646(9)
H16 H 0.5245 -0.1691 0.8754
C22 C 0.68511(13) -0.1448(3) 0.90406(9)
H17 H 0.7461 -0.1648 0.9164
H18 H 0.6817 -0.1187 0.8598
H19 H 0.6520 -0.2810 0.9144
C23 C 0.91875(12) -0.0222(3) 0.89239(9)
H20 H 0.9449 -0.0955 0.9266
C24 C 0.92495(13) -0.1133(3) 0.83447(9)
H21 H 0.9555 -0.2513 0.8291
loop_
_geom_bond_atom_site_label_1
_geom_bond_atom_site_label_2
_geom_bond_site_symmetry_1
_geom_bond_site_symmetry_2
S1 O1 1_555 1_555
F1 C17 1_555 1_555
O2 C13 1_555 1_555
O3 S1 1_555 1_555
C1 H1 1_555 1_555
C2 C1 1_555 1_555
H2 C2 1_555 1_555
C3 C2 1_555 1_555
H3 C3 1_555 1_555
C4 C3 1_555 1_555
C5 C4 1_555 1_555
C6 C5 1_555 1_555
H4 C6 1_555 1_555
C7 S1 1_555 1_555
H5 C7 1_555 1_555
C8 S1 1_555 1_555
C9 C8 1_555 1_555
H6 C9 1_555 1_555
C10 C9 1_555 1_555
H7 C10 1_555 1_555
C11 C10 1_555 1_555
C12 C11 1_555 1_555
H8 C12 1_555 1_555
H9 C12 1_555 1_555
H10 C12 1_555 1_555
C13 C7 1_555 1_555
C14 C13 1_555 1_555
C15 C14 1_555 1_555
H11 C15 1_555 1_555
C16 C15 1_555 1_555
H12 C16 1_555 1_555
C17 C16 1_555 1_555
C18 C17 1_555 1_555
H13 C18 1_555 1_555
C19 C14 1_555 1_555
H14 C19 1_555 1_555
C20 C1 1_555 1_555
H15 C20 1_555 1_555
C21 C4 1_555 1_555
H16 C21 1_555 1_555
C22 C5 1_555 1_555
H17 C22 1_555 1_555
H18 C22 1_555 1_555
H19 C22 1_555 1_555
C23 C8 1_555 1_555
H20 C23 1_555 1_555
C24 C11 1_555 1_555
H21 C24 1_555 1_555
C6 C7 1_555 1_555
C18 C19 1_555 1_555
C20 C21 1_555 1_555
C23 C24 1_555 1_555

#END
