
#######################################################################
#
#                 Cambridge Crystallographic Data Centre
#                                CCDC 
#
#######################################################################
#
# If this CIF has been generated from an entry in the Cambridge 
# Structural Database, then it will include bibliographic, chemical, 
# crystal, experimental, refinement or atomic coordinate data resulting 
# from the CCDC's data processing and validation procedures.
#
#######################################################################

data_HUFWIO
_chemical_formula_moiety         'C31 H28 N2 O2'
_chemical_name_systematic        
(E)-1-Benzyl-2-(p-methoxystyryl)-3-(p-tolyl)-1,2,3,4-tetrahydroquinazolin-4-one
_chemical_properties_biological  
'substituted quinazolines display therapeutic and specific enzyme inhibitory activity'
_symmetry_cell_setting           monoclinic
_symmetry_space_group_name_H-M   'P 21/c'
_symmetry_Int_Tables_number      14
_space_group_name_Hall           '-P 2ybc'
loop_
_symmetry_equiv_pos_site_id
_symmetry_equiv_pos_as_xyz
1 x,y,z
2 x,1/2-y,1/2+z
3 -x,-y,-z
4 -x,1/2+y,1/2-z
_cell_length_a                   13.281(3)
_cell_length_b                   11.161(2)
_cell_length_c                   17.756(3)
_cell_angle_alpha                90
_cell_angle_beta                 107.490(10)
_cell_angle_gamma                90
_cell_volume                     2510.28
_exptl_crystal_colour            colorless
_exptl_crystal_description       prismatic
_chemical_melting_point          458K
_cell_formula_units_Z            4
_exptl_crystal_recrystallization_method 'light petroleum/chloroform'
loop_
_atom_site_label
_atom_site_type_symbol
_atom_site_fract_x
_atom_site_fract_y
_atom_site_fract_z
O1 O 0.12109(13) 0.26532(14) 0.50919(10)
O2 O 0.82452(12) 0.16910(15) 0.91234(9)
N1 N 0.29782(12) -0.03000(13) 0.50837(9)
N2 N 0.19022(12) 0.08853(14) 0.56555(10)
C1 C 0.25243(15) 0.17204(16) 0.46290(11)
C2 C 0.25862(18) 0.26728(18) 0.41360(13)
H1 H 0.2263 0.3397 0.4180
C3 C 0.31168(19) 0.2556(2) 0.35874(14)
H2 H 0.3172 0.3204 0.3273
C4 C 0.35685(18) 0.1473(2) 0.35048(13)
H3 H 0.3904 0.1387 0.3117
C5 C 0.35337(16) 0.05100(18) 0.39870(12)
H4 H 0.3843 -0.0215 0.3923
C6 C 0.30320(14) 0.06310(15) 0.45713(11)
C7 C 0.36713(16) -0.13447(17) 0.51518(12)
H5 H 0.3781 -0.1705 0.5668
H6 H 0.4352 -0.1073 0.5123
C8 C 0.32573(15) -0.22976(16) 0.45266(11)
C9 C 0.22618(17) -0.22583(18) 0.39858(13)
H7 H 0.1818 -0.1615 0.3989
C10 C 0.1919(2) -0.31680(19) 0.34394(14)
H8 H 0.1250 -0.3126 0.3074
C11 C 0.2558(2) -0.41318(19) 0.34320(15)
H9 H 0.2325 -0.4744 0.3066
C12 C 0.3543(2) -0.41813(18) 0.39692(16)
H10 H 0.3978 -0.4836 0.3971
C13 C 0.38974(18) -0.32694(18) 0.45081(14)
H11 H 0.4573 -0.3308 0.4863
C14 C 0.18352(16) 0.18271(17) 0.51486(12)
C15 C 0.28152(15) 0.00677(17) 0.58257(11)
H12 H 0.2647 -0.0648 0.6084
C16 C 0.37966(15) 0.06381(17) 0.63793(11)
H13 H 0.4042 0.1348 0.6222
C17 C 0.43255(16) 0.01784(18) 0.70769(12)
H14 H 0.4025 -0.0489 0.7238
C18 C 0.53258(15) 0.05978(17) 0.76225(11)
C19 C 0.58301(17) -0.0079(2) 0.82877(12)
H15 H 0.5502 -0.0769 0.8391
C20 C 0.68051(16) 0.0240(2) 0.88023(12)
H16 H 0.7125 -0.0236 0.9239
C21 C 0.72952(15) 0.12667(18) 0.86599(12)
C22 C 0.88368(19) 0.0943(3) 0.97552(16)
H17 H 0.9481 0.1340 1.0037
H18 H 0.8997 0.0200 0.9545
H19 H 0.8429 0.0788 1.0109
C23 C 0.68120(17) 0.19522(18) 0.79974(13)
H20 H 0.7143 0.2642 0.7897
C24 C 0.58526(18) 0.16254(17) 0.74882(12)
H21 H 0.5546 0.2095 0.7046
C25 C 0.12296(15) 0.07730(18) 0.61525(11)
C26 C 0.06239(16) -0.0250(2) 0.60991(12)
H22 H 0.0631 -0.0834 0.5728
C27 C 0.00093(18) -0.0405(2) 0.65954(14)
H23 H -0.0395 -0.1097 0.6551
C28 C -0.00192(18) 0.0443(2) 0.71584(15)
C29 C -0.0680(3) 0.0265(3) 0.7711(2)
H24 H -0.0599 0.0944 0.8056
H25 H -0.0452 -0.0446 0.8020
H26 H -0.1409 0.0183 0.7409
C30 C 0.0585(2) 0.1466(2) 0.71953(15)
H27 H 0.0574 0.2053 0.7564
C31 C 0.12039(18) 0.1644(2) 0.67012(13)
H28 H 0.1598 0.2342 0.6738
loop_
_geom_bond_atom_site_label_1
_geom_bond_atom_site_label_2
_geom_bond_site_symmetry_1
_geom_bond_site_symmetry_2
O1 C14 1_555 1_555
O2 C21 1_555 1_555
N1 C6 1_555 1_555
N2 C14 1_555 1_555
C1 C2 1_555 1_555
C2 H1 1_555 1_555
C3 C2 1_555 1_555
H2 C3 1_555 1_555
C4 C3 1_555 1_555
H3 C4 1_555 1_555
C5 C4 1_555 1_555
H4 C5 1_555 1_555
C6 C1 1_555 1_555
C7 N1 1_555 1_555
H5 C7 1_555 1_555
H6 C7 1_555 1_555
C8 C7 1_555 1_555
C9 C8 1_555 1_555
H7 C9 1_555 1_555
C10 C9 1_555 1_555
H8 C10 1_555 1_555
C11 C10 1_555 1_555
H9 C11 1_555 1_555
C12 C11 1_555 1_555
H10 C12 1_555 1_555
C13 C8 1_555 1_555
H11 C13 1_555 1_555
C14 C1 1_555 1_555
C15 N1 1_555 1_555
H12 C15 1_555 1_555
C16 C15 1_555 1_555
H13 C16 1_555 1_555
C17 C16 1_555 1_555
H14 C17 1_555 1_555
C18 C17 1_555 1_555
C19 C18 1_555 1_555
H15 C19 1_555 1_555
C20 C19 1_555 1_555
H16 C20 1_555 1_555
C21 C20 1_555 1_555
C22 O2 1_555 1_555
H17 C22 1_555 1_555
H18 C22 1_555 1_555
H19 C22 1_555 1_555
C23 C21 1_555 1_555
H20 C23 1_555 1_555
C24 C18 1_555 1_555
H21 C24 1_555 1_555
C25 N2 1_555 1_555
C26 C25 1_555 1_555
H22 C26 1_555 1_555
C27 C26 1_555 1_555
H23 C27 1_555 1_555
C28 C27 1_555 1_555
C29 C28 1_555 1_555
H24 C29 1_555 1_555
H25 C29 1_555 1_555
H26 C29 1_555 1_555
C30 C28 1_555 1_555
H27 C30 1_555 1_555
C31 C25 1_555 1_555
H28 C31 1_555 1_555
N2 C15 1_555 1_555
C5 C6 1_555 1_555
C12 C13 1_555 1_555
C23 C24 1_555 1_555
C30 C31 1_555 1_555

#END
