
#######################################################################
#
#                 Cambridge Crystallographic Data Centre
#                                CCDC 
#
#######################################################################
#
# If this CIF has been generated from an entry in the Cambridge 
# Structural Database, then it will include bibliographic, chemical, 
# crystal, experimental, refinement or atomic coordinate data resulting 
# from the CCDC's data processing and validation procedures.
#
#######################################################################

data_HUFWUC
_chemical_formula_moiety         'C30 H26 O3 S1'
_chemical_name_systematic        
1-(biphenyl-4-yl)-2-((4-methylphenyl)sulfonyl)-4-phenylpent-3-en-1-one
_symmetry_cell_setting           monoclinic
_symmetry_space_group_name_H-M   'P n'
_symmetry_Int_Tables_number      7
_space_group_name_Hall           'P -2yac'
loop_
_symmetry_equiv_pos_site_id
_symmetry_equiv_pos_as_xyz
1 x,y,z
2 1/2+x,-y,1/2+z
_cell_length_a                   14.1880(6)
_cell_length_b                   5.8892(3)
_cell_length_c                   15.3276(6)
_cell_angle_alpha                90
_cell_angle_beta                 103.795(2)
_cell_angle_gamma                90
_cell_volume                     1243.77
_exptl_crystal_colour            colorless
_cell_formula_units_Z            2
loop_
_atom_site_label
_atom_site_type_symbol
_atom_site_fract_x
_atom_site_fract_y
_atom_site_fract_z
S1 S 0.65031(7) 0.99521(17) 0.62749(7)
O1 O 0.6366(2) 1.2342(5) 0.6382(2)
O2 O 0.7115(2) 0.9230(7) 0.5708(2)
O3 O 0.4598(3) 1.1542(5) 0.48269(19)
C1 C 0.6899(3) 0.8702(7) 0.7344(3)
C2 C 0.6668(4) 0.9687(8) 0.8087(3)
H1 H 0.6342 1.1068 0.8038
C3 C 0.6931(4) 0.8583(9) 0.8899(3)
H2 H 0.6776 0.9237 0.9399
C4 C 0.7417(3) 0.6544(8) 0.8996(3)
C5 C 0.7653(3) 0.5616(9) 0.8247(3)
H3 H 0.7995 0.4256 0.8300
C6 C 0.7390(3) 0.6673(8) 0.7426(3)
H4 H 0.7544 0.6017 0.6926
C7 C 0.7692(5) 0.5335(11) 0.9886(4)
H5 H 0.7234 0.5707 1.0235
H6 H 0.8329 0.5802 1.0204
H7 H 0.7687 0.3725 0.9787
C8 C 0.5319(2) 0.8633(6) 0.5837(2)
H8 H 0.5391 0.6983 0.5801
C9 C 0.4640(2) 0.9194(6) 0.6422(2)
H9 H 0.4393 1.0663 0.6377
C10 C 0.4354(2) 0.7823(6) 0.6996(2)
C11 C 0.3642(2) 0.8665(6) 0.7500(2)
C12 C 0.2992(3) 1.0372(8) 0.7158(4)
H10 H 0.2977 1.0965 0.6593
C13 C 0.2358(4) 1.1220(10) 0.7646(4)
H11 H 0.1938 1.2400 0.7412
C14 C 0.2353(4) 1.0325(10) 0.8465(4)
H12 H 0.1926 1.0882 0.8788
C15 C 0.2964(4) 0.8644(11) 0.8801(3)
H13 H 0.2955 0.8030 0.9358
C16 C 0.3615(3) 0.7794(9) 0.8329(3)
H14 H 0.4036 0.6627 0.8577
C17 C 0.4731(4) 0.5461(7) 0.7202(3)
H15 H 0.5020 0.4940 0.6733
H16 H 0.4205 0.4473 0.7244
H17 H 0.5209 0.5456 0.7763
C18 C 0.4932(3) 0.9627(6) 0.4893(3)
C19 C 0.4961(2) 0.8279(6) 0.4083(2)
C20 C 0.5413(3) 0.6178(6) 0.4105(2)
H18 H 0.5716 0.5536 0.4655
C21 C 0.5418(3) 0.5033(7) 0.3318(3)
H19 H 0.5726 0.3633 0.3345
C22 C 0.4965(3) 0.5951(7) 0.2484(2)
C23 C 0.4514(3) 0.8058(8) 0.2462(3)
H20 H 0.4212 0.8706 0.1913
C24 C 0.4511(3) 0.9189(7) 0.3249(3)
H21 H 0.4203 1.0589 0.3222
C25 C 0.4960(3) 0.4681(8) 0.1649(3)
C26 C 0.5728(4) 0.3310(10) 0.1568(3)
H22 H 0.6274 0.3223 0.2043
C27 C 0.5702(5) 0.2071(12) 0.0800(4)
H23 H 0.6218 0.1127 0.0767
C28 C 0.4932(6) 0.2228(13) 0.0100(4)
H24 H 0.4934 0.1464 -0.0431
C29 C 0.4144(5) 0.3497(13) 0.0157(3)
H25 H 0.3597 0.3511 -0.0319
C30 C 0.4155(4) 0.4773(10) 0.0925(3)
H26 H 0.3627 0.5682 0.0953
loop_
_geom_bond_atom_site_label_1
_geom_bond_atom_site_label_2
_geom_bond_site_symmetry_1
_geom_bond_site_symmetry_2
S1 O1 1_555 1_555
O2 S1 1_555 1_555
O3 C18 1_555 1_555
C1 S1 1_555 1_555
C2 C1 1_555 1_555
H1 C2 1_555 1_555
C3 C2 1_555 1_555
H2 C3 1_555 1_555
C4 C3 1_555 1_555
C5 C4 1_555 1_555
H3 C5 1_555 1_555
C6 C1 1_555 1_555
H4 C6 1_555 1_555
C7 C4 1_555 1_555
H5 C7 1_555 1_555
H6 C7 1_555 1_555
H7 C7 1_555 1_555
C8 S1 1_555 1_555
H8 C8 1_555 1_555
C9 C8 1_555 1_555
H9 C9 1_555 1_555
C10 C9 1_555 1_555
C11 C10 1_555 1_555
C12 C11 1_555 1_555
H10 C12 1_555 1_555
C13 C12 1_555 1_555
H11 C13 1_555 1_555
C14 C13 1_555 1_555
H12 C14 1_555 1_555
C15 C14 1_555 1_555
H13 C15 1_555 1_555
C16 C11 1_555 1_555
H14 C16 1_555 1_555
C17 C10 1_555 1_555
H15 C17 1_555 1_555
H16 C17 1_555 1_555
H17 C17 1_555 1_555
C18 C8 1_555 1_555
C19 C18 1_555 1_555
C20 C19 1_555 1_555
H18 C20 1_555 1_555
C21 C20 1_555 1_555
H19 C21 1_555 1_555
C22 C21 1_555 1_555
C23 C22 1_555 1_555
H20 C23 1_555 1_555
C24 C19 1_555 1_555
H21 C24 1_555 1_555
C25 C22 1_555 1_555
C26 C25 1_555 1_555
H22 C26 1_555 1_555
C27 C26 1_555 1_555
H23 C27 1_555 1_555
C28 C27 1_555 1_555
H24 C28 1_555 1_555
C29 C28 1_555 1_555
H25 C29 1_555 1_555
C30 C25 1_555 1_555
H26 C30 1_555 1_555
C5 C6 1_555 1_555
C15 C16 1_555 1_555
C23 C24 1_555 1_555
C29 C30 1_555 1_555

#END
