
#######################################################################
#
#                 Cambridge Crystallographic Data Centre
#                                CCDC 
#
#######################################################################
#
# If this CIF has been generated from an entry in the Cambridge 
# Structural Database, then it will include bibliographic, chemical, 
# crystal, experimental, refinement or atomic coordinate data resulting 
# from the CCDC's data processing and validation procedures.
#
#######################################################################

data_HUFXOV
_chemical_formula_moiety         'C10 H16 O4 S2'
_chemical_name_systematic        
1,8-Dioxa-4,11-dithiacyclotetradecane-2,9-dione
_symmetry_cell_setting           triclinic
_symmetry_space_group_name_H-M   'P -1'
_symmetry_Int_Tables_number      2
_space_group_name_Hall           '-P 1'
loop_
_symmetry_equiv_pos_site_id
_symmetry_equiv_pos_as_xyz
1 x,y,z
2 -x,-y,-z
_cell_length_a                   5.3920(18)
_cell_length_b                   6.858(3)
_cell_length_c                   8.960(6)
_cell_angle_alpha                71.88(4)
_cell_angle_beta                 74.04(3)
_cell_angle_gamma                85.41(4)
_cell_volume                     302.751
_exptl_crystal_colour            colorless
_exptl_crystal_description       plate
_chemical_melting_point          403.5-404.0K
_cell_formula_units_Z            1
_exptl_crystal_recrystallization_method acetonitrile
loop_
_atom_site_label
_atom_site_type_symbol
_atom_site_fract_x
_atom_site_fract_y
_atom_site_fract_z
S1 S 0.23774(10) 0.32376(8) 0.93150(7)
C1 C 0.3355(4) 0.1144(3) 0.8452(3)
H1 H 0.278(5) -0.008(4) 0.936(4)
H2 H 0.522(6) 0.113(4) 0.805(4)
C2 C 0.2011(4) 0.1243(3) 0.7160(3)
O1 O 0.3425(3) 0.2284(3) 0.5675(2)
C3 C 0.2336(5) 0.2514(4) 0.4309(3)
H3 H 0.049(6) 0.254(4) 0.467(4)
H4 H 0.287(6) 0.132(5) 0.393(4)
C4 C 0.3355(4) 0.4494(4) 0.3022(3)
H5 H 0.279(5) 0.561(4) 0.350(4)
H6 H 0.252(6) 0.466(5) 0.215(5)
C5 C 0.3693(4) 0.5471(3) 0.7625(3)
H7 H 0.310(6) 0.662(5) 0.807(4)
H8 H 0.292(6) 0.567(4) 0.675(4)
O2 O -0.0088(3) 0.0500(3) 0.7408(2)
C5A C 0.6307(4) 0.4529(3) 0.2375(3)
S1A S 0.76226(10) 0.67624(8) 0.06850(7)
C1A C 0.6645(4) 0.8856(3) 0.1548(3)
H1A H 0.722(5) 1.008(4) 0.064(4)
H2A H 0.478(6) 0.887(4) 0.195(4)
C2A C 0.7989(4) 0.8757(3) 0.2840(3)
O1A O 0.6575(3) 0.7716(3) 0.4325(2)
C3A C 0.7664(5) 0.7486(4) 0.5691(3)
H3A H 0.951(6) 0.746(4) 0.533(4)
H4A H 0.713(6) 0.868(5) 0.607(4)
C4A C 0.6645(4) 0.5506(4) 0.6978(3)
H5A H 0.721(5) 0.439(4) 0.650(4)
H6A H 0.748(6) 0.534(5) 0.785(5)
O2A O 1.0088(3) 0.9500(3) 0.2592(2)
H7A H 0.690(6) 0.338(5) 0.193(4)
H8A H 0.708(6) 0.433(4) 0.325(4)
loop_
_geom_bond_atom_site_label_1
_geom_bond_atom_site_label_2
_geom_bond_site_symmetry_1
_geom_bond_site_symmetry_2
S1 C1 1_555 1_555
C1 H1 1_555 1_555
H2 C1 1_555 1_555
C2 C1 1_555 1_555
O1 C2 1_555 1_555
C3 O1 1_555 1_555
H3 C3 1_555 1_555
H4 C3 1_555 1_555
C4 C3 1_555 1_555
H5 C4 1_555 1_555
H6 C4 1_555 1_555
C5 S1 1_555 1_555
H7 C5 1_555 1_555
H8 C5 1_555 1_555
O2 C2 1_555 1_555
C5A C4 1_555 1_555
S1A C5A 1_555 1_555
C1A S1A 1_555 1_555
H1A C1A 1_555 1_555
H2A C1A 1_555 1_555
C2A C1A 1_555 1_555
O1A C2A 1_555 1_555
C3A O1A 1_555 1_555
H3A C3A 1_555 1_555
H4A C3A 1_555 1_555
C4A C5 1_555 1_555
H5A C4A 1_555 1_555
H6A C4A 1_555 1_555
O2A C2A 1_555 1_555
H7A C5A 1_555 1_555
H8A C5A 1_555 1_555
C3A C4A 1_555 1_555

#END
