
#######################################################################
#
#                 Cambridge Crystallographic Data Centre
#                                CCDC 
#
#######################################################################
#
# If this CIF has been generated from an entry in the Cambridge 
# Structural Database, then it will include bibliographic, chemical, 
# crystal, experimental, refinement or atomic coordinate data resulting 
# from the CCDC's data processing and validation procedures.
#
#######################################################################

data_HUFYOX
_chemical_name_common            'Methyl (5-fluoro-1H-indol-3-yl)(oxo)acetate'
_chemical_formula_moiety         'C11 H8 F1 N1 O3'
_chemical_name_systematic        
'Methyl 2-(5-fluoro-1H-indol-3-yl)-2-oxoacetate'
_symmetry_cell_setting           monoclinic
_symmetry_space_group_name_H-M   'P 21/c'
_symmetry_Int_Tables_number      14
_space_group_name_Hall           '-P 2ybc'
loop_
_symmetry_equiv_pos_site_id
_symmetry_equiv_pos_as_xyz
1 x,y,z
2 -x,1/2+y,1/2-z
3 -x,-y,-z
4 x,1/2-y,1/2+z
_cell_length_a                   7.0584(14)
_cell_length_b                   20.586(4)
_cell_length_c                   7.3286(15)
_cell_angle_alpha                90
_cell_angle_beta                 112.01(3)
_cell_angle_gamma                90
_cell_volume                     987.267
_exptl_crystal_colour            colorless
_exptl_crystal_description       block
_cell_formula_units_Z            4
_exptl_crystal_recrystallization_method methanol/water
loop_
_atom_site_label
_atom_site_type_symbol
_atom_site_fract_x
_atom_site_fract_y
_atom_site_fract_z
F1 F 0.12543(14) 0.29293(3) 0.65340(12)
O1 O 0.26544(13) 0.51327(4) 0.99608(11)
O2 O 0.38836(16) 0.66111(4) 0.83866(13)
N1 N 0.26610(14) 0.52509(5) 0.37504(13)
O3 O 0.28315(14) 0.63607(4) 1.08373(12)
C1 C 0.23060(16) 0.46201(5) 0.42115(15)
C2 C 0.19687(18) 0.40616(6) 0.30676(16)
H1 H 0.1971 0.4072 0.1772
C3 C 0.16302(19) 0.34900(6) 0.38896(18)
H2 H 0.1396 0.3095 0.3167
C4 C 0.16368(19) 0.35010(5) 0.57927(18)
C5 C 0.20002(17) 0.40431(5) 0.69689(16)
H3 H 0.2012 0.4025 0.8269
C6 C 0.23508(16) 0.46224(5) 0.61507(15)
C7 C 0.27633(15) 0.52844(5) 0.68412(15)
C8 C 0.29297(16) 0.56415(5) 0.52914(15)
H4 H 0.3194 0.6095 0.5323
C9 C 0.28704(16) 0.55005(5) 0.87314(15)
C10 C 0.32621(17) 0.62255(5) 0.92560(15)
C11 C 0.3146(2) 0.70317(6) 1.14936(19)
H5 H 0.4534 0.7166 1.1666
H6 H 0.2962 0.7072 1.2749
H7 H 0.2154 0.7310 1.0508
H8 H 0.271(2) 0.5363(8) 0.253(2)
loop_
_geom_bond_atom_site_label_1
_geom_bond_atom_site_label_2
_geom_bond_site_symmetry_1
_geom_bond_site_symmetry_2
F1 C4 1_555 1_555
O1 C9 1_555 1_555
O2 C10 1_555 1_555
N1 C1 1_555 1_555
O3 C10 1_555 1_555
C1 C2 1_555 1_555
C2 H1 1_555 1_555
C3 C2 1_555 1_555
H2 C3 1_555 1_555
C4 C3 1_555 1_555
C5 C4 1_555 1_555
H3 C5 1_555 1_555
C6 C1 1_555 1_555
C7 C6 1_555 1_555
C8 N1 1_555 1_555
H4 C8 1_555 1_555
C9 C7 1_555 1_555
C10 C9 1_555 1_555
C11 O3 1_555 1_555
H5 C11 1_555 1_555
H6 C11 1_555 1_555
H7 C11 1_555 1_555
H8 N1 1_555 1_555
C5 C6 1_555 1_555
C7 C8 1_555 1_555

#END
