
#######################################################################
#
#                 Cambridge Crystallographic Data Centre
#                                CCDC 
#
#######################################################################
#
# If this CIF has been generated from an entry in the Cambridge 
# Structural Database, then it will include bibliographic, chemical, 
# crystal, experimental, refinement or atomic coordinate data resulting 
# from the CCDC's data processing and validation procedures.
#
#######################################################################

data_HUGCES
_chemical_formula_moiety         'C24 H14 Br1 Cl1 O1 S1'
_chemical_name_systematic        
7-Bromo-1-((4-chlorophenyl)sulfanyl)-2-phenylnaphtho[2,1-b]furan
_symmetry_cell_setting           triclinic
_symmetry_space_group_name_H-M   'P -1'
_symmetry_Int_Tables_number      2
_space_group_name_Hall           '-P 1'
loop_
_symmetry_equiv_pos_site_id
_symmetry_equiv_pos_as_xyz
1 x,y,z
2 -x,-y,-z
_cell_length_a                   8.2479(3)
_cell_length_b                   8.3136(4)
_cell_length_c                   13.9805(6)
_cell_angle_alpha                93.530(2)
_cell_angle_beta                 99.317(2)
_cell_angle_gamma                90.342(2)
_cell_volume                     944.074
_exptl_crystal_colour            colorless
_exptl_crystal_description       block
_chemical_melting_point          '481-482 K'
_cell_formula_units_Z            2
_exptl_crystal_recrystallization_method tetrahydrofuran
loop_
_atom_site_label
_atom_site_type_symbol
_atom_site_fract_x
_atom_site_fract_y
_atom_site_fract_z
Br1 Br 0.16900(2) -0.00651(2) 0.696104(13)
S1 S 0.32781(5) 0.41585(5) 0.26003(3)
Cl1 Cl 0.23890(5) -0.23943(5) 0.00792(3)
O1 O 0.79044(13) 0.43650(13) 0.39137(8)
C1 C 0.52090(18) 0.40291(18) 0.33320(11)
C2 C 0.55319(19) 0.33416(17) 0.42666(11)
C3 C 0.45931(19) 0.25242(17) 0.48592(11)
C4 C 0.2890(2) 0.21797(19) 0.46150(12)
H1 H 0.2308 0.2497 0.4015
C5 C 0.2914(2) 0.09476(19) 0.61175(12)
C6 C 0.4563(2) 0.12282(19) 0.63870(12)
H2 H 0.5114 0.0886 0.6989
C7 C 0.5445(2) 0.20304(18) 0.57655(11)
C8 C 0.7169(2) 0.2345(2) 0.60430(11)
H3 H 0.7712 0.1995 0.6645
C9 C 0.8055(2) 0.3132(2) 0.54683(11)
H4 H 0.9197 0.3355 0.5659
C10 C 0.2067(2) 0.1400(2) 0.52255(13)
H5 H 0.0926 0.1165 0.5047
C11 C 0.71960(19) 0.35948(18) 0.45816(11)
C12 C 0.66752(19) 0.46116(18) 0.31452(11)
C13 C 0.72391(19) 0.52879(18) 0.23142(11)
C14 C 0.6152(2) 0.5820(2) 0.15241(12)
H6 H 0.5004 0.5809 0.1537
C15 C 0.6734(2) 0.6363(2) 0.07257(12)
H7 H 0.5982 0.6708 0.0192
C16 C 0.8403(2) 0.6409(2) 0.06961(12)
H8 H 0.8797 0.6781 0.0146
C17 C 0.9493(2) 0.5907(2) 0.14774(13)
H9 H 1.0641 0.5944 0.1464
C18 C 0.8923(2) 0.5350(2) 0.22773(12)
H10 H 0.9685 0.5007 0.2807
C19 C 0.30880(19) 0.22538(18) 0.19376(11)
C20 C 0.1534(2) 0.1543(2) 0.16982(12)
H11 H 0.0622 0.2044 0.1923
C21 C 0.1313(2) 0.0107(2) 0.11338(12)
H12 H 0.0251 -0.0377 0.0965
C22 C 0.2658(2) -0.06179(19) 0.08176(11)
C23 C 0.4219(2) 0.0055(2) 0.10721(11)
H13 H 0.5135 -0.0471 0.0868
C24 C 0.44322(19) 0.15046(19) 0.16274(11)
H14 H 0.5496 0.1986 0.1796
loop_
_geom_bond_atom_site_label_1
_geom_bond_atom_site_label_2
_geom_bond_site_symmetry_1
_geom_bond_site_symmetry_2
Br1 C5 1_555 1_555
S1 C1 1_555 1_555
Cl1 C22 1_555 1_555
O1 C11 1_555 1_555
C1 C2 1_555 1_555
C2 C3 1_555 1_555
C3 C4 1_555 1_555
C4 H1 1_555 1_555
C5 C6 1_555 1_555
C6 H2 1_555 1_555
C7 C3 1_555 1_555
C8 C7 1_555 1_555
H3 C8 1_555 1_555
C9 C8 1_555 1_555
H4 C9 1_555 1_555
C10 C4 1_555 1_555
H5 C10 1_555 1_555
C11 C2 1_555 1_555
C12 O1 1_555 1_555
C13 C12 1_555 1_555
C14 C13 1_555 1_555
H6 C14 1_555 1_555
C15 C14 1_555 1_555
H7 C15 1_555 1_555
C16 C15 1_555 1_555
H8 C16 1_555 1_555
C17 C16 1_555 1_555
H9 C17 1_555 1_555
C18 C13 1_555 1_555
H10 C18 1_555 1_555
C19 S1 1_555 1_555
C20 C19 1_555 1_555
H11 C20 1_555 1_555
C21 C20 1_555 1_555
H12 C21 1_555 1_555
C22 C21 1_555 1_555
C23 C22 1_555 1_555
H13 C23 1_555 1_555
C24 C19 1_555 1_555
H14 C24 1_555 1_555
C1 C12 1_555 1_555
C5 C10 1_555 1_555
C6 C7 1_555 1_555
C9 C11 1_555 1_555
C17 C18 1_555 1_555
C23 C24 1_555 1_555

#END
