
#######################################################################
#
#                 Cambridge Crystallographic Data Centre
#                                CCDC 
#
#######################################################################
#
# If this CIF has been generated from an entry in the Cambridge 
# Structural Database, then it will include bibliographic, chemical, 
# crystal, experimental, refinement or atomic coordinate data resulting 
# from the CCDC's data processing and validation procedures.
#
#######################################################################

data_HUGCUI
_chemical_formula_moiety         'C12 H10 Br1 N1 O1 S1'
_chemical_name_systematic        N-(4-Bromophenyl)-2-(2-thienyl)acetamide
_symmetry_cell_setting           triclinic
_symmetry_space_group_name_H-M   'P -1'
_symmetry_Int_Tables_number      2
_space_group_name_Hall           '-P 1'
loop_
_symmetry_equiv_pos_site_id
_symmetry_equiv_pos_as_xyz
1 x,y,z
2 -x,-y,-z
_cell_length_a                   4.7517(2)
_cell_length_b                   10.7283(3)
_cell_length_c                   11.7964(3)
_cell_angle_alpha                76.419(2)
_cell_angle_beta                 88.437(2)
_cell_angle_gamma                84.479(2)
_cell_volume                     581.82
_exptl_crystal_colour            pale-brown
_exptl_crystal_description       block
_chemical_melting_point          '411-412 K'
_cell_formula_units_Z            2
_exptl_crystal_recrystallization_method ethanol
loop_
_atom_site_label
_atom_site_type_symbol
_atom_site_fract_x
_atom_site_fract_y
_atom_site_fract_z
Br1 Br 0.27885(7) -0.23040(3) 0.97460(3)
O1 O 0.0821(5) 0.2338(2) 0.4702(2)
N1 N 0.5204(5) 0.1924(3) 0.5506(2)
H1 H 0.696(3) 0.211(3) 0.540(3)
S1 S 0.0537(8) 0.5801(3) 0.3373(3)
C1 C 0.2232(6) 0.4487(3) 0.3020(3)
C2 C -0.1461(8) 0.6162(4) 0.2202(3)
H2 H -0.2806 0.6894 0.2040
C3 C -0.1056(7) 0.5346(4) 0.1488(3)
H3 H -0.2006 0.5420 0.0774
C4 C 0.108(4) 0.4342(19) 0.2003(15)
H4 H 0.1644 0.3633 0.1668
C5 C 0.4454(7) 0.3645(4) 0.3784(3)
H5 H 0.5485 0.4183 0.4176
H6 H 0.5828 0.3256 0.3290
C6 C 0.3296(6) 0.2578(3) 0.4702(3)
C7 C 0.4675(6) 0.0909(3) 0.6462(3)
C8 C 0.2767(7) 0.0013(3) 0.6398(3)
H7 H 0.1806 0.0071 0.5689
C9 C 0.2278(7) -0.0953(3) 0.7360(3)
H8 H 0.0995 -0.1566 0.7315
C10 C 0.3667(7) -0.1026(3) 0.8397(3)
C11 C 0.5612(7) -0.0172(3) 0.8476(3)
H9 H 0.6607 -0.0254 0.9181
C12 C 0.6090(7) 0.0808(3) 0.7505(3)
H10 H 0.7389 0.1414 0.7553
C13? C 0.2232(6) 0.4487(3) 0.3020(3)
C14? C -0.1461(8) 0.6162(4) 0.2202(3)
C15? C -0.1056(7) 0.5346(4) 0.1488(3)
C16? C 0.072(7) 0.561(3) 0.323(3)
H11? H -0.2772 0.6904 0.2108
H12? H -0.2134 0.5474 0.0797
H13? H 0.0977 0.5980 0.3879
S2? S 0.1360(17) 0.4123(9) 0.1850(6)
loop_
_geom_bond_atom_site_label_1
_geom_bond_atom_site_label_2
_geom_bond_site_symmetry_1
_geom_bond_site_symmetry_2
Br1 C10 1_555 1_555
O1 C6 1_555 1_555
N1 H1 1_555 1_555
S1 C1 1_555 1_555
C1 C4 1_555 1_555
C2 S1 1_555 1_555
H2 C2 1_555 1_555
C3 C2 1_555 1_555
H3 C3 1_555 1_555
C4 C3 1_555 1_555
H4 C4 1_555 1_555
C5 C1 1_555 1_555
H5 C5 1_555 1_555
H6 C5 1_555 1_555
C6 N1 1_555 1_555
C7 N1 1_555 1_555
C8 C7 1_555 1_555
H7 C8 1_555 1_555
C9 C8 1_555 1_555
H8 C9 1_555 1_555
C10 C9 1_555 1_555
C11 C10 1_555 1_555
H9 C11 1_555 1_555
C12 C7 1_555 1_555
H10 C12 1_555 1_555
C5 C6 1_555 1_555
C11 C12 1_555 1_555

#END
