
#######################################################################
#
#                 Cambridge Crystallographic Data Centre
#                                CCDC 
#
#######################################################################
#
# If this CIF has been generated from an entry in the Cambridge 
# Structural Database, then it will include bibliographic, chemical, 
# crystal, experimental, refinement or atomic coordinate data resulting 
# from the CCDC's data processing and validation procedures.
#
#######################################################################

data_HUGCIW
_chemical_formula_moiety         'C18 H19 N1 O1'
_chemical_name_systematic        
(E)-3-[4-(Dimethylamino)phenyl]-1-(4-methylphenyl)prop-2-en-1-one
_symmetry_cell_setting           orthorhombic
_symmetry_space_group_name_H-M   'P 21 21 21'
_symmetry_Int_Tables_number      19
_space_group_name_Hall           'P 2ac 2ab'
loop_
_symmetry_equiv_pos_site_id
_symmetry_equiv_pos_as_xyz
1 x,y,z
2 1/2+x,1/2-y,-z
3 -x,1/2+y,1/2-z
4 1/2-x,-y,1/2+z
_cell_length_a                   7.276(2)
_cell_length_b                   11.567(3)
_cell_length_c                   17.642(5)
_cell_angle_alpha                90
_cell_angle_beta                 90
_cell_angle_gamma                90
_cell_volume                     1484.78
_exptl_crystal_colour            yellow
_exptl_crystal_description       block
_cell_formula_units_Z            4
_exptl_crystal_recrystallization_method acetone
loop_
_atom_site_label
_atom_site_type_symbol
_atom_site_fract_x
_atom_site_fract_y
_atom_site_fract_z
O1 O 0.9451(4) 0.62914(17) 0.28002(11)
N1 N 1.0052(4) 0.9449(2) -0.14961(12)
C1 C 0.9388(4) 0.8121(2) 0.07087(15)
C2 C 1.0071(4) 0.9237(2) 0.05857(14)
H1 H 1.0393 0.9701 0.1010
C3 C 1.0288(4) 0.9681(2) -0.01345(15)
H2 H 1.0754 1.0442 -0.0195
C4 C 0.9833(4) 0.9029(2) -0.07801(15)
C5 C 0.9100(4) 0.7916(2) -0.06585(15)
H3 H 0.8734 0.7458 -0.1079
C6 C 0.8909(4) 0.7489(3) 0.00638(17)
H4 H 0.8431 0.6732 0.0127
C7 C 0.9790(4) 0.7943(2) 0.35669(14)
C8 C 1.0590(4) 0.7345(2) 0.41698(16)
H5 H 1.1025 0.6580 0.4094
C9 C 1.0757(4) 0.7849(2) 0.48706(16)
H6 H 1.1343 0.7435 0.5268
C10 C 1.0082(4) 0.8956(3) 0.50109(15)
C11 C 0.9305(4) 0.9556(3) 0.44122(15)
H7 H 0.8854 1.0317 0.4493
C12 C 0.9174(4) 0.9066(2) 0.36960(15)
H8 H 0.8659 0.9499 0.3291
C13 C 0.9252(4) 0.7595(2) 0.14493(15)
H9 H 0.8853 0.6813 0.1455
C14 C 0.9611(4) 0.8060(2) 0.21291(14)
H10 H 0.9896 0.8860 0.2163
C15 C 0.9573(4) 0.7358(2) 0.28210(15)
C16 C 1.0849(5) 1.0576(3) -0.16376(19)
H11 H 1.2040 1.0631 -0.1381
H12 H 1.0025 1.1177 -0.1444
H13 H 1.1022 1.0681 -0.2184
C17 C 0.9558(6) 0.8769(3) -0.21540(16)
H14 H 0.8250 0.8568 -0.2129
H15 H 1.0294 0.8059 -0.2164
H16 H 0.9794 0.9218 -0.2615
C18 C 1.0179(5) 0.9481(3) 0.57936(17)
H17 H 0.9012 0.9352 0.6058
H18 H 1.0408 1.0314 0.5751
H19 H 1.1179 0.9119 0.6080
loop_
_geom_bond_atom_site_label_1
_geom_bond_atom_site_label_2
_geom_bond_site_symmetry_1
_geom_bond_site_symmetry_2
O1 C15 1_555 1_555
N1 C4 1_555 1_555
C1 C2 1_555 1_555
C2 H1 1_555 1_555
C3 C2 1_555 1_555
H2 C3 1_555 1_555
C4 C3 1_555 1_555
C5 C4 1_555 1_555
H3 C5 1_555 1_555
C6 C1 1_555 1_555
H4 C6 1_555 1_555
C7 C8 1_555 1_555
C8 H5 1_555 1_555
C9 C8 1_555 1_555
H6 C9 1_555 1_555
C10 C9 1_555 1_555
C11 C10 1_555 1_555
H7 C11 1_555 1_555
C12 C7 1_555 1_555
H8 C12 1_555 1_555
C13 C1 1_555 1_555
H9 C13 1_555 1_555
C14 C13 1_555 1_555
H10 C14 1_555 1_555
C15 C7 1_555 1_555
C16 N1 1_555 1_555
H11 C16 1_555 1_555
H12 C16 1_555 1_555
H13 C16 1_555 1_555
C17 N1 1_555 1_555
H14 C17 1_555 1_555
H15 C17 1_555 1_555
H16 C17 1_555 1_555
C18 C10 1_555 1_555
H17 C18 1_555 1_555
H18 C18 1_555 1_555
H19 C18 1_555 1_555
C5 C6 1_555 1_555
C11 C12 1_555 1_555
C14 C15 1_555 1_555

#END
