
#######################################################################
#
#                 Cambridge Crystallographic Data Centre
#                                CCDC 
#
#######################################################################
#
# If this CIF has been generated from an entry in the Cambridge 
# Structural Database, then it will include bibliographic, chemical, 
# crystal, experimental, refinement or atomic coordinate data resulting 
# from the CCDC's data processing and validation procedures.
#
#######################################################################

data_HUGGUM
_chemical_formula_moiety         'C10 H8 N4'
_chemical_name_systematic        ((4-Methylphenyl)hydrazono)malononitrile
_symmetry_cell_setting           monoclinic
_symmetry_space_group_name_H-M   'P 21/n'
_symmetry_Int_Tables_number      14
_space_group_name_Hall           '-P 2yn'
loop_
_symmetry_equiv_pos_site_id
_symmetry_equiv_pos_as_xyz
1 x,y,z
2 1/2-x,1/2+y,1/2-z
3 -x,-y,-z
4 1/2+x,1/2-y,1/2+z
_cell_length_a                   11.961(2)
_cell_length_b                   5.8310(12)
_cell_length_c                   14.569(3)
_cell_angle_alpha                90
_cell_angle_beta                 110.98(3)
_cell_angle_gamma                90
_cell_volume                     948.746
_exptl_crystal_colour            yellow
_exptl_crystal_description       block
_chemical_melting_point          '409 K'
_cell_formula_units_Z            4
_exptl_crystal_recrystallization_method 'ethyl acetate'
loop_
_atom_site_label
_atom_site_type_symbol
_atom_site_fract_x
_atom_site_fract_y
_atom_site_fract_z
C1 C 0.2746(2) -0.1077(5) 0.8662(2)
N1 N 0.2481(2) -0.2797(4) 0.8277(2)
N2 N 0.5027(2) 0.3075(4) 0.92534(19)
C2 C 0.4155(2) 0.2173(4) 0.91795(18)
N3 N 0.24161(17) 0.1817(3) 0.96436(14)
C3 C 0.3086(2) 0.1060(4) 0.91713(17)
N4 N 0.26745(16) 0.3729(3) 1.01369(14)
H1 H 0.3268 0.4542 1.0123
C4 C 0.19927(19) 0.4484(4) 1.06931(16)
C5 C 0.1092(2) 0.3138(4) 1.08016(17)
H2 H 0.0907 0.1720 1.0492
C6 C 0.0477(2) 0.3931(4) 1.13736(18)
H3 H -0.0128 0.3027 1.1445
C7 C 0.0728(2) 0.6037(4) 1.18486(17)
C8 C 0.1624(2) 0.7356(4) 1.17157(18)
H4 H 0.1806 0.8781 1.2019
C9 C 0.2249(2) 0.6599(4) 1.11451(18)
H5 H 0.2845 0.7512 1.1064
C10 C 0.0070(2) 0.6860(5) 1.2494(2)
H6 H -0.0512 0.5734 1.2502
H7 H -0.0327 0.8281 1.2241
H8 H 0.0629 0.7091 1.3150
loop_
_geom_bond_atom_site_label_1
_geom_bond_atom_site_label_2
_geom_bond_site_symmetry_1
_geom_bond_site_symmetry_2
C1 N1 1_555 1_555
N2 C2 1_555 1_555
C2 C3 1_555 1_555
N3 C3 1_555 1_555
C3 C1 1_555 1_555
N4 N3 1_555 1_555
H1 N4 1_555 1_555
C4 N4 1_555 1_555
C5 C4 1_555 1_555
H2 C5 1_555 1_555
C6 C5 1_555 1_555
H3 C6 1_555 1_555
C7 C6 1_555 1_555
C8 C7 1_555 1_555
H4 C8 1_555 1_555
C9 C4 1_555 1_555
H5 C9 1_555 1_555
C10 C7 1_555 1_555
H6 C10 1_555 1_555
H7 C10 1_555 1_555
H8 C10 1_555 1_555
C8 C9 1_555 1_555

#END
