
#######################################################################
#
#                 Cambridge Crystallographic Data Centre
#                                CCDC 
#
#######################################################################
#
# If this CIF has been generated from an entry in the Cambridge 
# Structural Database, then it will include bibliographic, chemical, 
# crystal, experimental, refinement or atomic coordinate data resulting 
# from the CCDC's data processing and validation procedures.
#
#######################################################################

data_HUGHEX
_chemical_formula_moiety         'C14 H14 N3 1+,I1 1-'
_chemical_name_systematic        
'1-Methyl-4-(1-methyl-1H-benzimidazol-2-yl)pyridinium iodide'
_symmetry_cell_setting           triclinic
_symmetry_space_group_name_H-M   'P -1'
_symmetry_Int_Tables_number      2
_space_group_name_Hall           '-P 1'
loop_
_symmetry_equiv_pos_site_id
_symmetry_equiv_pos_as_xyz
1 x,y,z
2 -x,-y,-z
_cell_length_a                   7.7048(15)
_cell_length_b                   9.9264(18)
_cell_length_c                   10.1772(19)
_cell_angle_alpha                64.888(3)
_cell_angle_beta                 72.933(3)
_cell_angle_gamma                76.394(4)
_cell_volume                     668.222
_exptl_crystal_colour            colorless
_cell_formula_units_Z            2
_exptl_crystal_recrystallization_method water
loop_
_atom_site_label
_atom_site_type_symbol
_atom_site_fract_x
_atom_site_fract_y
_atom_site_fract_z
C1 C 0.7976(9) 0.1720(7) 0.3724(7)
H1 H 0.7850 0.1418 0.4774
H2 H 0.9149 0.1293 0.3311
H3 H 0.7027 0.1374 0.3557
C2 C 0.7960(8) 0.4044(7) 0.1519(7)
H4 H 0.8121 0.3452 0.0977
C3 C 0.7870(8) 0.5551(6) 0.0807(7)
H5 H 0.7948 0.5992 -0.0214
C4 C 0.7660(8) 0.6442(6) 0.1610(6)
C5 C 0.7505(8) 0.5736(6) 0.3135(6)
H6 H 0.7337 0.6297 0.3707
C6 C 0.7598(8) 0.4226(7) 0.3784(7)
H7 H 0.7506 0.3759 0.4806
C7 C 0.7700(8) 0.8070(6) 0.0779(6)
C8 C 0.8426(8) 1.0150(6) -0.0938(6)
C9 C 0.9152(8) 1.1306(7) -0.2232(7)
H8 H 1.0063 1.1104 -0.2983
C10 C 0.8473(9) 1.2748(7) -0.2354(7)
H9 H 0.8941 1.3536 -0.3202
C11 C 0.7082(9) 1.3076(7) -0.1230(7)
H10 H 0.6644 1.4071 -0.1361
C12 C 0.6369(8) 1.1955(6) 0.0047(7)
H11 H 0.5454 1.2161 0.0793
C13 C 0.7076(7) 1.0494(6) 0.0175(6)
C14 C 0.5260(8) 0.8957(7) 0.2645(7)
H12 H 0.5225 0.7909 0.3245
H13 H 0.4090 0.9405 0.2400
H14 H 0.5541 0.9438 0.3187
N1 N 0.7821(6) 0.3387(5) 0.2996(6)
N2 N 0.8779(7) 0.8606(5) -0.0548(5)
N3 N 0.6668(6) 0.9141(5) 0.1277(5)
I1 I 0.26309(6) 0.26836(5) 0.37099(4)
loop_
_geom_bond_atom_site_label_1
_geom_bond_atom_site_label_2
_geom_bond_site_symmetry_1
_geom_bond_site_symmetry_2
C1 H1 1_555 1_555
H2 C1 1_555 1_555
H3 C1 1_555 1_555
C2 H4 1_555 1_555
C3 C2 1_555 1_555
H5 C3 1_555 1_555
C4 C3 1_555 1_555
C5 C4 1_555 1_555
H6 C5 1_555 1_555
C6 C5 1_555 1_555
H7 C6 1_555 1_555
C7 C4 1_555 1_555
C8 C9 1_555 1_555
C9 H8 1_555 1_555
C10 C9 1_555 1_555
H9 C10 1_555 1_555
C11 C10 1_555 1_555
H10 C11 1_555 1_555
C12 C11 1_555 1_555
H11 C12 1_555 1_555
C13 C8 1_555 1_555
C14 H12 1_555 1_555
H13 C14 1_555 1_555
H14 C14 1_555 1_555
N1 C1 1_555 1_555
N2 C7 1_555 1_555
N3 C7 1_555 1_555
C2 N1 1_555 1_555
C6 N1 1_555 1_555
C8 N2 1_555 1_555
C12 C13 1_555 1_555
C13 N3 1_555 1_555
C14 N3 1_555 1_555

#END
