
#######################################################################
#
#                 Cambridge Crystallographic Data Centre
#                                CCDC 
#
#######################################################################
#
# If this CIF has been generated from an entry in the Cambridge 
# Structural Database, then it will include bibliographic, chemical, 
# crystal, experimental, refinement or atomic coordinate data resulting 
# from the CCDC's data processing and validation procedures.
#
#######################################################################

data_HUGHUN
_chemical_name_common            (2-Chloro-6-methoxyquinolin-3-yl)methanol
_chemical_formula_moiety         'C11 H10 Cl1 N1 O2'
_chemical_name_systematic        2-Chloro-3-hydroxymethyl-6-methoxyquinoline
_symmetry_cell_setting           monoclinic
_symmetry_space_group_name_H-M   'P 21/n'
_symmetry_Int_Tables_number      14
_space_group_name_Hall           '-P 2yn'
loop_
_symmetry_equiv_pos_site_id
_symmetry_equiv_pos_as_xyz
1 x,y,z
2 1/2-x,1/2+y,1/2-z
3 -x,-y,-z
4 1/2+x,1/2-y,1/2+z
_cell_length_a                   6.9738(3)
_cell_length_b                   21.4668(9)
_cell_length_c                   7.3479(4)
_cell_angle_alpha                90
_cell_angle_beta                 108.220(5)
_cell_angle_gamma                90
_cell_volume                     1044.87
_exptl_crystal_colour            colorless
_exptl_crystal_description       block
_cell_formula_units_Z            4
_exptl_crystal_recrystallization_method chloroform
loop_
_atom_site_label
_atom_site_type_symbol
_atom_site_fract_x
_atom_site_fract_y
_atom_site_fract_z
Cl1 Cl 0.33210(8) 0.65210(2) 0.10064(7)
O1 O 0.97027(18) 0.59162(7) 0.33602(19)
H1 H 1.0200 0.5790 0.2554
O2 O 0.4314(2) 0.29302(7) 0.3876(2)
N1 N 0.2607(2) 0.53770(7) 0.16969(18)
C1 C 0.4061(3) 0.57605(8) 0.1763(2)
C2 C 0.6156(2) 0.56246(8) 0.2401(2)
C3 C 0.6650(2) 0.50291(8) 0.2994(2)
H2 H 0.8004 0.4916 0.3461
C4 C 0.5149(2) 0.45775(8) 0.2917(2)
C5 C 0.5600(3) 0.39542(9) 0.3483(2)
H3 H 0.6935 0.3821 0.3926
C6 C 0.4070(3) 0.35449(9) 0.3379(2)
C7 C 0.2053(3) 0.37443(9) 0.2741(2)
H4 H 0.1027 0.3463 0.2698
C8 C 0.1583(3) 0.43397(9) 0.2189(2)
H5 H 0.0238 0.4463 0.1758
C9 C 0.3120(2) 0.47761(8) 0.2261(2)
C10 C 0.7702(3) 0.61178(9) 0.2442(3)
H6 H 0.7575 0.6240 0.1138
H7 H 0.7430 0.6482 0.3103
C11 C 0.6296(4) 0.26820(11) 0.4324(4)
H8 H 0.6799 0.2747 0.3263
H9 H 0.6264 0.2244 0.4573
H10 H 0.7163 0.2887 0.5439
loop_
_geom_bond_atom_site_label_1
_geom_bond_atom_site_label_2
_geom_bond_site_symmetry_1
_geom_bond_site_symmetry_2
Cl1 C1 1_555 1_555
O1 H1 1_555 1_555
O2 C6 1_555 1_555
N1 C1 1_555 1_555
C1 C2 1_555 1_555
C2 C3 1_555 1_555
C3 H2 1_555 1_555
C4 C3 1_555 1_555
C5 C4 1_555 1_555
H3 C5 1_555 1_555
C6 C5 1_555 1_555
C7 C6 1_555 1_555
H4 C7 1_555 1_555
C8 C7 1_555 1_555
H5 C8 1_555 1_555
C9 N1 1_555 1_555
C10 O1 1_555 1_555
H6 C10 1_555 1_555
H7 C10 1_555 1_555
C11 O2 1_555 1_555
H8 C11 1_555 1_555
H9 C11 1_555 1_555
H10 C11 1_555 1_555
C2 C10 1_555 1_555
C4 C9 1_555 1_555
C8 C9 1_555 1_555

#END
