
#######################################################################
#
#                 Cambridge Crystallographic Data Centre
#                                CCDC 
#
#######################################################################
#
# If this CIF has been generated from an entry in the Cambridge 
# Structural Database, then it will include bibliographic, chemical, 
# crystal, experimental, refinement or atomic coordinate data resulting 
# from the CCDC's data processing and validation procedures.
#
#######################################################################

data_HUGHAT
_chemical_formula_moiety         'C17 H15 N3 O4'
_chemical_name_systematic        
"Ethyl 6'-amino-5'-cyano-2'-methyl-2-oxo-1,2-dihydrospiro[indole-3,4'-pyran]-3'-carboxylate"
_symmetry_cell_setting           monoclinic
_symmetry_space_group_name_H-M   'P 21/c'
_symmetry_Int_Tables_number      14
_space_group_name_Hall           '-P 2ybc'
loop_
_symmetry_equiv_pos_site_id
_symmetry_equiv_pos_as_xyz
1 x,y,z
2 -x,1/2+y,1/2-z
3 -x,-y,-z
4 x,1/2-y,1/2+z
_cell_length_a                   7.7812(16)
_cell_length_b                   19.998(4)
_cell_length_c                   10.044(2)
_cell_angle_alpha                90
_cell_angle_beta                 103.435(4)
_cell_angle_gamma                90
_cell_volume                     1520.16
_exptl_crystal_colour            colorless
_exptl_crystal_description       prism
_chemical_melting_point          '510-511 K'
_cell_formula_units_Z            4
_exptl_crystal_recrystallization_method ethanol
loop_
_atom_site_label
_atom_site_type_symbol
_atom_site_fract_x
_atom_site_fract_y
_atom_site_fract_z
O1 O -0.02630(14) 0.40611(6) 0.47320(10)
O2 O -0.29838(16) 0.31533(6) 0.74767(13)
O3 O -0.15237(13) 0.38754(5) 0.90531(10)
O4 O 0.02295(14) 0.52209(5) 0.82365(11)
N1 N 0.21452(16) 0.45913(6) 0.98355(12)
H1 H 0.2470 0.4898 1.0472
N2 N 0.52683(18) 0.47764(7) 0.73427(15)
N3 N 0.2201(2) 0.44309(8) 0.42427(14)
H2 H 0.322(3) 0.4642(10) 0.446(2)
H3 H 0.144(3) 0.4529(10) 0.343(2)
C1 C -0.1291(2) 0.38438(8) 0.56013(15)
C2 C -0.07153(19) 0.38461(7) 0.69607(15)
C3 C 0.11176(19) 0.40821(7) 0.76868(15)
C4 C 0.21368(19) 0.42787(7) 0.66251(15)
C5 C 0.1420(2) 0.42671(7) 0.52598(15)
C6 C -0.3046(2) 0.36409(10) 0.47479(18)
H4 H -0.2958 0.3193 0.4374
H5 H -0.3417 0.3960 0.3995
H6 H -0.3916 0.3637 0.5313
C7 C -0.18809(19) 0.35822(8) 0.78223(16)
C8 C -0.2410(2) 0.35970(8) 1.00633(16)
H7 H -0.3478 0.3347 0.9593
H8 H -0.2782 0.3963 1.0598
C9 C -0.1167(3) 0.31383(10) 1.1002(2)
H9 H -0.0801 0.2778 1.0467
H10 H -0.1762 0.2947 1.1673
H11 H -0.0125 0.3390 1.1479
C10 C 0.10541(19) 0.47069(7) 0.86000(15)
C11 C 0.26981(19) 0.39209(8) 0.99810(15)
C12 C 0.3617(2) 0.35940(9) 1.11389(17)
H12 H 0.4029 0.3825 1.1979
C13 C 0.3917(2) 0.29121(9) 1.10268(18)
H13 H 0.4564 0.2675 1.1802
C14 C 0.3292(2) 0.25720(9) 0.98083(19)
H14 H 0.3489 0.2105 0.9765
C15 C 0.2374(2) 0.29119(8) 0.86432(17)
H15 H 0.1948 0.2681 0.7805
C16 C 0.21024(19) 0.35887(7) 0.87391(15)
C17 C 0.3870(2) 0.45422(8) 0.70497(15)
loop_
_geom_bond_atom_site_label_1
_geom_bond_atom_site_label_2
_geom_bond_site_symmetry_1
_geom_bond_site_symmetry_2
O1 C1 1_555 1_555
O2 C7 1_555 1_555
O3 C7 1_555 1_555
O4 C10 1_555 1_555
N1 H1 1_555 1_555
N2 C17 1_555 1_555
N3 H2 1_555 1_555
H3 N3 1_555 1_555
C1 C2 1_555 1_555
C2 C3 1_555 1_555
C3 C4 1_555 1_555
C4 C5 1_555 1_555
C5 O1 1_555 1_555
C6 C1 1_555 1_555
H4 C6 1_555 1_555
H5 C6 1_555 1_555
H6 C6 1_555 1_555
C7 C2 1_555 1_555
C8 O3 1_555 1_555
H7 C8 1_555 1_555
H8 C8 1_555 1_555
C9 C8 1_555 1_555
H9 C9 1_555 1_555
H10 C9 1_555 1_555
H11 C9 1_555 1_555
C10 N1 1_555 1_555
C11 N1 1_555 1_555
C12 C11 1_555 1_555
H12 C12 1_555 1_555
C13 C12 1_555 1_555
H13 C13 1_555 1_555
C14 C13 1_555 1_555
H14 C14 1_555 1_555
C15 C14 1_555 1_555
H15 C15 1_555 1_555
C16 C3 1_555 1_555
C17 C4 1_555 1_555
N3 C5 1_555 1_555
C3 C10 1_555 1_555
C11 C16 1_555 1_555
C15 C16 1_555 1_555

#END
