
#######################################################################
#
#                 Cambridge Crystallographic Data Centre
#                                CCDC 
#
#######################################################################
#
# If this CIF has been generated from an entry in the Cambridge 
# Structural Database, then it will include bibliographic, chemical, 
# crystal, experimental, refinement or atomic coordinate data resulting 
# from the CCDC's data processing and validation procedures.
#
#######################################################################

data_HUGJAV
_chemical_name_common            
(S)-5-(l-Menthyloxy)-5-[(2R,3R)-2-(l-menthyloxy)-5-oxotetrahydrofuran-3-yl]furan-2(5H)-one
_chemical_formula_moiety         'C28 H44 O6'
_chemical_name_systematic        
2,2'-Bis((2-isopropyl-5-methylcyclohexyl)oxy)-3',4'-dihydro-2,3'-bifuran-5,5'(2H,2'H)-dione
_symmetry_cell_setting           monoclinic
_symmetry_space_group_name_H-M   'P 21'
_symmetry_Int_Tables_number      4
_space_group_name_Hall           'P 2yb'
loop_
_symmetry_equiv_pos_site_id
_symmetry_equiv_pos_as_xyz
1 x,y,z
2 -x,1/2+y,-z
_cell_length_a                   12.3443(15)
_cell_length_b                   9.3455(11)
_cell_length_c                   12.5044(15)
_cell_angle_alpha                90
_cell_angle_beta                 92.990(2)
_cell_angle_gamma                90
_cell_volume                     1440.59
_exptl_crystal_colour            colorless
_exptl_crystal_description       block
_chemical_melting_point          '416 K'
_cell_formula_units_Z            2
loop_
_atom_site_label
_atom_site_type_symbol
_atom_site_fract_x
_atom_site_fract_y
_atom_site_fract_z
C1 C 0.2722(3) -0.1115(4) 0.7313(3)
C2 C 0.1833(3) -0.1464(4) 0.6548(3)
H1 H 0.1539 -0.2371 0.6435
C3 C 0.1512(3) -0.0294(3) 0.6040(2)
H2 H 0.0966 -0.0252 0.5499
C4 C 0.2157(2) 0.0963(3) 0.6464(2)
C5 C 0.0993(3) 0.4327(4) 0.6196(3)
C6 C 0.0638(3) 0.2810(4) 0.6295(3)
H3 H 0.0590 0.2349 0.5599
H4 H -0.0066 0.2761 0.6603
C7 C 0.1496(2) 0.2092(3) 0.7026(2)
H5 H 0.1145 0.1645 0.7627
C8 C 0.2212(3) 0.3329(3) 0.7451(2)
H6 H 0.2980 0.3106 0.7377
C9 C 0.3545(2) 0.0949(3) 0.5128(2)
H7 H 0.3389 -0.0079 0.5119
C10 C 0.3496(3) 0.1518(4) 0.3983(2)
H8 H 0.3613 0.2553 0.4040
C11 C 0.4467(3) 0.0921(5) 0.3399(3)
H9 H 0.4386 -0.0107 0.3321
H10 H 0.4466 0.1334 0.2687
C12 C 0.5536(3) 0.1242(5) 0.3987(3)
H11 H 0.6118 0.0834 0.3593
H12 H 0.5641 0.2270 0.4016
C13 C 0.5596(3) 0.0655(4) 0.5105(3)
H13 H 0.5532 -0.0389 0.5056
C14 C 0.4636(3) 0.1210(4) 0.5701(3)
H14 H 0.4642 0.0756 0.6399
H15 H 0.4726 0.2231 0.5816
C15 C 0.2398(3) 0.1322(4) 0.3384(3)
H16 H 0.1842 0.1611 0.3872
C16 C 0.2143(4) -0.0210(5) 0.3039(3)
H17 H 0.1450 -0.0238 0.2653
H18 H 0.2125 -0.0811 0.3660
H19 H 0.2693 -0.0547 0.2585
C17 C 0.2291(5) 0.2304(7) 0.2419(4)
H20 H 0.2808 0.2030 0.1910
H21 H 0.2425 0.3273 0.2642
H22 H 0.1571 0.2229 0.2094
C18 C 0.6660(3) 0.0997(6) 0.5710(4)
H23 H 0.7251 0.0630 0.5322
H24 H 0.6670 0.0563 0.6406
H25 H 0.6734 0.2015 0.5785
C19 C 0.2668(3) 0.4725(3) 0.9018(2)
H26 H 0.2633 0.5571 0.8555
C20 C 0.2145(3) 0.5078(4) 1.0059(2)
H27 H 0.2177 0.4204 1.0492
C21 C 0.2846(4) 0.6188(4) 1.0667(3)
H28 H 0.2800 0.7087 1.0279
H29 H 0.2555 0.6344 1.1363
C22 C 0.4031(4) 0.5765(5) 1.0825(3)
H30 H 0.4432 0.6540 1.1177
H31 H 0.4092 0.4931 1.1285
C23 C 0.4521(3) 0.5434(4) 0.9774(3)
H32 H 0.4483 0.6301 0.9332
C24 C 0.3841(3) 0.4271(4) 0.9195(3)
H33 H 0.4140 0.4070 0.8509
H34 H 0.3877 0.3399 0.9616
C25 C 0.0957(3) 0.5478(5) 0.9905(3)
H35 H 0.0598 0.4668 0.9538
C26 C 0.0741(4) 0.6783(6) 0.9189(4)
H36 H 0.1058 0.7616 0.9528
H37 H -0.0028 0.6920 0.9077
H38 H 0.1056 0.6632 0.8512
C27 C 0.0408(4) 0.5658(7) 1.0960(4)
H39 H 0.0563 0.4842 1.1409
H40 H -0.0362 0.5739 1.0822
H41 H 0.0676 0.6508 1.1315
C28 C 0.5722(3) 0.4972(5) 0.9912(4)
H42 H 0.5779 0.4139 1.0361
H43 H 0.6142 0.5736 1.0237
H44 H 0.5990 0.4754 0.9224
O1 O 0.29140(17) 0.0331(2) 0.72584(15)
O2 O 0.3238(3) -0.1869(3) 0.7920(2)
O3 O 0.27166(15) 0.16972(19) 0.56934(14)
O4 O 0.18960(19) 0.4565(2) 0.68011(17)
O5 O 0.0572(2) 0.5251(3) 0.5659(2)
O6 O 0.20131(17) 0.3581(2) 0.85066(15)
loop_
_geom_bond_atom_site_label_1
_geom_bond_atom_site_label_2
_geom_bond_site_symmetry_1
_geom_bond_site_symmetry_2
C1 C2 1_555 1_555
C2 H1 1_555 1_555
C3 C2 1_555 1_555
H2 C3 1_555 1_555
C4 C3 1_555 1_555
C5 C6 1_555 1_555
C6 H3 1_555 1_555
H4 C6 1_555 1_555
C7 C4 1_555 1_555
H5 C7 1_555 1_555
C8 C7 1_555 1_555
H6 C8 1_555 1_555
C9 H7 1_555 1_555
C10 C9 1_555 1_555
H8 C10 1_555 1_555
C11 C10 1_555 1_555
H9 C11 1_555 1_555
H10 C11 1_555 1_555
C12 C11 1_555 1_555
H11 C12 1_555 1_555
H12 C12 1_555 1_555
C13 C12 1_555 1_555
H13 C13 1_555 1_555
C14 C9 1_555 1_555
H14 C14 1_555 1_555
H15 C14 1_555 1_555
C15 C10 1_555 1_555
H16 C15 1_555 1_555
C16 C15 1_555 1_555
H17 C16 1_555 1_555
H18 C16 1_555 1_555
H19 C16 1_555 1_555
C17 C15 1_555 1_555
H20 C17 1_555 1_555
H21 C17 1_555 1_555
H22 C17 1_555 1_555
C18 C13 1_555 1_555
H23 C18 1_555 1_555
H24 C18 1_555 1_555
H25 C18 1_555 1_555
C19 H26 1_555 1_555
C20 C19 1_555 1_555
H27 C20 1_555 1_555
C21 C20 1_555 1_555
H28 C21 1_555 1_555
H29 C21 1_555 1_555
C22 C21 1_555 1_555
H30 C22 1_555 1_555
H31 C22 1_555 1_555
C23 C22 1_555 1_555
H32 C23 1_555 1_555
C24 C19 1_555 1_555
H33 C24 1_555 1_555
H34 C24 1_555 1_555
C25 C20 1_555 1_555
H35 C25 1_555 1_555
C26 C25 1_555 1_555
H36 C26 1_555 1_555
H37 C26 1_555 1_555
H38 C26 1_555 1_555
C27 C25 1_555 1_555
H39 C27 1_555 1_555
H40 C27 1_555 1_555
H41 C27 1_555 1_555
C28 C23 1_555 1_555
H42 C28 1_555 1_555
H43 C28 1_555 1_555
H44 C28 1_555 1_555
O1 C1 1_555 1_555
O2 C1 1_555 1_555
O3 C4 1_555 1_555
O4 C5 1_555 1_555
O5 C5 1_555 1_555
O6 C8 1_555 1_555
C4 O1 1_555 1_555
C6 C7 1_555 1_555
C8 O4 1_555 1_555
C9 O3 1_555 1_555
C13 C14 1_555 1_555
C19 O6 1_555 1_555
C23 C24 1_555 1_555

#END
