
#######################################################################
#
#                 Cambridge Crystallographic Data Centre
#                                CCDC 
#
#######################################################################
#
# If this CIF has been generated from an entry in the Cambridge 
# Structural Database, then it will include bibliographic, chemical, 
# crystal, experimental, refinement or atomic coordinate data resulting 
# from the CCDC's data processing and validation procedures.
#
#######################################################################

data_HUGJUQ
_chemical_formula_moiety         'C20 H23 N1 O5'
_chemical_name_systematic        
(3-(Benzyloxy)azetidin-1-yl)(3,4,5-trimethoxyphenyl)methanone
_symmetry_cell_setting           triclinic
_symmetry_space_group_name_H-M   'P -1'
_symmetry_Int_Tables_number      2
_space_group_name_Hall           '-P 1'
loop_
_symmetry_equiv_pos_site_id
_symmetry_equiv_pos_as_xyz
1 x,y,z
2 -x,-y,-z
_cell_length_a                   8.5810(3)
_cell_length_b                   9.1263(4)
_cell_length_c                   24.3122(11)
_cell_angle_alpha                92.037(3)
_cell_angle_beta                 91.652(3)
_cell_angle_gamma                110.704(4)
_cell_volume                     1778.13
_exptl_crystal_colour            colorless
_exptl_crystal_description       prism
_cell_formula_units_Z            4
loop_
_atom_site_label
_atom_site_type_symbol
_atom_site_fract_x
_atom_site_fract_y
_atom_site_fract_z
O1 O 0.40269(12) 0.28204(12) 0.58737(4)
O2 O 0.34379(12) 0.05171(11) 0.38739(4)
O3 O 1.03132(12) 0.75350(11) 0.50730(4)
O4 O 1.12372(12) 0.80115(11) 0.61362(4)
O5 O 0.93368(14) 0.62695(13) 0.69046(4)
N1 N 0.47081(14) 0.25543(13) 0.50063(5)
C1 C 0.32321(16) 0.11577(15) 0.48471(6)
H1 H 0.2266 0.1404 0.4704
H2 H 0.2900 0.0381 0.5136
C2 C 0.42462(16) 0.07453(16) 0.43956(6)
H3 H 0.4588 -0.0158 0.4491
C3 C 0.56640(17) 0.23521(16) 0.45327(6)
H4 H 0.6752 0.2269 0.4637
H5 H 0.5784 0.3130 0.4248
C4 C 0.44194(18) 0.01395(17) 0.34661(6)
H6 H 0.4513 -0.0889 0.3536
H7 H 0.5556 0.0943 0.3484
C5 C 0.36027(18) 0.00805(18) 0.29051(6)
C6 C 0.3704(2) -0.0979(2) 0.24945(7)
H8 H 0.4215 -0.1721 0.2573
C7 C 0.3044(2) -0.0939(3) 0.19626(8)
H9 H 0.3120 -0.1654 0.1680
C8 C 0.2289(3) 0.0124(3) 0.18455(8)
H10 H 0.1861 0.0150 0.1483
C9 C 0.2154(2) 0.1144(2) 0.22521(7)
H11 H 0.1607 0.1859 0.2174
C10 C 0.28169(19) 0.11334(19) 0.27790(7)
H12 H 0.2733 0.1855 0.3058
C11 C 0.50742(16) 0.32205(16) 0.55175(6)
C12 C 0.67579(17) 0.44622(15) 0.56489(6)
C13 C 0.77607(17) 0.53577(15) 0.52528(6)
H13 H 0.7430 0.5160 0.4873
C14 C 0.92579(17) 0.65498(15) 0.54214(6)
C15 C 0.97545(17) 0.68369(16) 0.59783(6)
C16 C 0.87472(18) 0.59053(17) 0.63719(6)
C17 C 0.72447(18) 0.47291(16) 0.62059(6)
H14 H 0.6553 0.4109 0.6472
C18 C 0.99198(17) 0.72433(17) 0.44953(6)
H15 H 1.0780 0.8012 0.4292
H16 H 0.8835 0.7333 0.4410
H17 H 0.9875 0.6184 0.4387
C19 C 1.10212(18) 0.94472(17) 0.63033(7)
H18 H 1.0395 0.9746 0.6012
H19 H 1.2116 1.0276 0.6369
H20 H 1.0405 0.9301 0.6643
C20 C 0.8462(2) 0.5217(2) 0.73077(7)
H21 H 0.8386 0.4148 0.7199
H22 H 0.7338 0.5250 0.7334
H23 H 0.9064 0.5530 0.7666
O6 O 0.60028(12) 0.21092(12) -0.07638(4)
O7 O 0.64485(16) 0.45858(17) 0.11873(6)
O8 O -0.04280(12) -0.24992(11) 0.00168(4)
O9 O -0.10607(11) -0.32958(11) -0.10571(4)
O10 O 0.11470(13) -0.19569(13) -0.18016(4)
N2 N 0.51786(14) 0.24962(13) 0.00689(5)
C21 C 0.66416(18) 0.38920(17) 0.02277(6)
H24 H 0.6980 0.4666 -0.0062
H25 H 0.7606 0.3656 0.0378
C22 C 0.5596(3) 0.4283(3) 0.06656(11)
H26 H 0.5164 0.5123 0.0560
C23 C 0.42808(19) 0.25929(18) 0.05670(7)
H27 H 0.4328 0.1855 0.0850
H28 H 0.3126 0.2556 0.0494
C24 C 0.5511(3) 0.4989(4) 0.16043(12)
H29 H 0.4534 0.4055 0.1682
H30 H 0.5100 0.5808 0.1474
C25 C 0.6587(4) 0.5580(4) 0.21178(15)
C26 C 0.7854(2) 0.7013(2) 0.21129(7)
H31 H 0.8020 0.7636 0.1800
C27 C 0.8876(2) 0.7504(2) 0.25831(8)
H32 H 0.9818 0.8445 0.2577
C28 C 0.8599(7) 0.6697(5) 0.30626(15)
H33 H 0.9275 0.7121 0.3387
C29 C 0.7335(6) 0.5280(5) 0.30592(15)
H34 H 0.7146 0.4681 0.3378
C30 C 0.6326(8) 0.4720(6) 0.2585(2)
H35 H 0.5444 0.3732 0.2582
C31 C 0.49164(17) 0.17120(16) -0.04196(6)
C32 C 0.33001(17) 0.03732(15) -0.05537(6)
C33 C 0.21782(16) -0.03838(15) -0.01609(6)
H36 H 0.2399 -0.0055 0.0218
C34 C 0.07241(16) -0.16323(15) -0.03303(6)
C35 C 0.03898(16) -0.20966(16) -0.08878(6)
C36 C 0.15519(17) -0.13567(17) -0.12741(6)
C37 C 0.30027(17) -0.01146(17) -0.11067(6)
H37 H 0.3786 0.0397 -0.1370
C38 C -0.01143(17) -0.20978(16) 0.05941(6)
H38 H -0.0117 -0.1037 0.0670
H39 H 0.0975 -0.2137 0.0708
H40 H -0.0986 -0.2845 0.0800
C39 C -0.08461(18) -0.47927(16) -0.10732(7)
H41 H 0.0024 -0.4773 -0.1328
H42 H -0.1897 -0.5616 -0.1199
H43 H -0.0519 -0.5007 -0.0704
C40 C 0.2387(2) -0.1357(2) -0.21981(7)
H44 H 0.2014 -0.1956 -0.2550
H45 H 0.3436 -0.1454 -0.2067
H46 H 0.2562 -0.0251 -0.2249
O11? O 0.5804(5) 0.5287(5) 0.09692(18)
H47? H 0.6678 0.4832 0.0029
H48? H 0.7711 0.3714 0.0204
C41? C 0.6020(9) 0.3898(9) 0.0857(4)
H49? H 0.6619 0.3520 0.1146
H50? H 0.3869 0.1599 0.0760
H51? H 0.3379 0.3016 0.0505
C42? C 0.5151(9) 0.5325(9) 0.1497(3)
H52? H 0.4236 0.4312 0.1539
H53? H 0.4655 0.6154 0.1509
C43? C 0.6325(13) 0.5607(13) 0.1971(4)
H54? H 0.8189 0.7706 0.1821
H55? H 0.9669 0.8523 0.2669
C44? C 0.850(2) 0.6191(12) 0.2910(5)
H56? H 0.9273 0.6249 0.3207
C45? C 0.714(2) 0.4835(16) 0.2841(5)
H57? H 0.6905 0.4086 0.3117
C46? C 0.610(3) 0.455(2) 0.2373(5)
H58? H 0.5200 0.3573 0.2328
loop_
_geom_bond_atom_site_label_1
_geom_bond_atom_site_label_2
_geom_bond_site_symmetry_1
_geom_bond_site_symmetry_2
O1 C11 1_555 1_555
O2 C2 1_555 1_555
O3 C14 1_555 1_555
O4 C15 1_555 1_555
O5 C16 1_555 1_555
N1 C1 1_555 1_555
C1 H1 1_555 1_555
H2 C1 1_555 1_555
C2 C1 1_555 1_555
H3 C2 1_555 1_555
C3 N1 1_555 1_555
H4 C3 1_555 1_555
H5 C3 1_555 1_555
C4 O2 1_555 1_555
H6 C4 1_555 1_555
H7 C4 1_555 1_555
C5 C4 1_555 1_555
C6 C5 1_555 1_555
H8 C6 1_555 1_555
C7 C6 1_555 1_555
H9 C7 1_555 1_555
C8 C7 1_555 1_555
H10 C8 1_555 1_555
C9 C8 1_555 1_555
H11 C9 1_555 1_555
C10 C5 1_555 1_555
H12 C10 1_555 1_555
C11 N1 1_555 1_555
C12 C11 1_555 1_555
C13 C12 1_555 1_555
H13 C13 1_555 1_555
C14 C13 1_555 1_555
C15 C14 1_555 1_555
C16 C15 1_555 1_555
C17 C12 1_555 1_555
H14 C17 1_555 1_555
C18 O3 1_555 1_555
H15 C18 1_555 1_555
H16 C18 1_555 1_555
H17 C18 1_555 1_555
C19 O4 1_555 1_555
H18 C19 1_555 1_555
H19 C19 1_555 1_555
H20 C19 1_555 1_555
C20 O5 1_555 1_555
H21 C20 1_555 1_555
H22 C20 1_555 1_555
H23 C20 1_555 1_555
O6 C31 1_555 1_555
O7 C22 1_555 1_555
O8 C34 1_555 1_555
O9 C35 1_555 1_555
O10 C36 1_555 1_555
N2 C21 1_555 1_555
C21 H24 1_555 1_555
H25 C21 1_555 1_555
C22 C21 1_555 1_555
H26 C22 1_555 1_555
C23 N2 1_555 1_555
H27 C23 1_555 1_555
H28 C23 1_555 1_555
C24 O7 1_555 1_555
H29 C24 1_555 1_555
H30 C24 1_555 1_555
C25 C24 1_555 1_555
C26 C25 1_555 1_555
H31 C26 1_555 1_555
C27 C26 1_555 1_555
H32 C27 1_555 1_555
C28 C27 1_555 1_555
H33 C28 1_555 1_555
C29 C28 1_555 1_555
H34 C29 1_555 1_555
C30 C25 1_555 1_555
H35 C30 1_555 1_555
C31 N2 1_555 1_555
C32 C31 1_555 1_555
C33 C32 1_555 1_555
H36 C33 1_555 1_555
C34 C33 1_555 1_555
C35 C34 1_555 1_555
C36 C35 1_555 1_555
C37 C32 1_555 1_555
H37 C37 1_555 1_555
C38 O8 1_555 1_555
H38 C38 1_555 1_555
H39 C38 1_555 1_555
H40 C38 1_555 1_555
C39 O9 1_555 1_555
H41 C39 1_555 1_555
H42 C39 1_555 1_555
H43 C39 1_555 1_555
C40 O10 1_555 1_555
H44 C40 1_555 1_555
H45 C40 1_555 1_555
H46 C40 1_555 1_555
C2 C3 1_555 1_555
C9 C10 1_555 1_555
C16 C17 1_555 1_555
C22 C23 1_555 1_555
C29 C30 1_555 1_555
C36 C37 1_555 1_555

#END
