
#######################################################################
#
#                 Cambridge Crystallographic Data Centre
#                                CCDC 
#
#######################################################################
#
# If this CIF has been generated from an entry in the Cambridge 
# Structural Database, then it will include bibliographic, chemical, 
# crystal, experimental, refinement or atomic coordinate data resulting 
# from the CCDC's data processing and validation procedures.
#
#######################################################################

data_HUGLOL02
_chemical_formula_moiety         'C21 H17 Cl1 O6'
_chemical_name_systematic        
'Ethyl 4-(4-chlorophenyl)-2-hydroxy-5-oxo-3,4-dihydro-2H,5H-pyrano[3,2-c]chromene-2-carboxylate'
_symmetry_cell_setting           monoclinic
_symmetry_space_group_name_H-M   'P 21'
_symmetry_Int_Tables_number      4
_space_group_name_Hall           'P 2yb'
loop_
_symmetry_equiv_pos_site_id
_symmetry_equiv_pos_as_xyz
1 x,y,z
2 -x,1/2+y,-z
_cell_length_a                   5.4248(10)
_cell_length_b                   14.753(3)
_cell_length_c                   11.163(2)
_cell_angle_alpha                90
_cell_angle_beta                 94.871(4)
_cell_angle_gamma                90
_cell_volume                     890.171
_exptl_crystal_colour            colorless
_exptl_crystal_description       plate
_cell_formula_units_Z            2
loop_
_atom_site_label
_atom_site_type_symbol
_atom_site_fract_x
_atom_site_fract_y
_atom_site_fract_z
Cl1 Cl 0.20640(9) 0.80079(4) 1.02253(4)
O1 O 0.3373(3) 0.52247(9) 0.39067(13)
O2 O 0.0504(3) 0.54227(10) 0.51699(14)
O3 O 0.3548(2) 0.79625(10) 0.31372(12)
O4 O 0.3931(2) 0.87462(9) 0.49459(12)
H1 H 0.4740 0.9227 0.4881
O5 O 0.0389(3) 0.94665(9) 0.23166(12)
O6 O 0.3842(3) 1.00601(10) 0.32865(13)
C1 C 0.4901(4) 0.55581(13) 0.30825(17)
C2 C 0.6394(4) 0.49385(14) 0.25429(19)
H2 H 0.6348 0.4313 0.2740
C3 C 0.7943(4) 0.52512(15) 0.17155(18)
H3 H 0.8967 0.4835 0.1338
C4 C 0.8025(4) 0.61711(14) 0.14245(19)
H4 H 0.9101 0.6375 0.0852
C5 C 0.6550(4) 0.67868(14) 0.19648(17)
H5 H 0.6614 0.7412 0.1767
C6 C 0.4954(3) 0.64820(13) 0.28094(17)
C7 C 0.3380(4) 0.70798(13) 0.34462(17)
C8 C 0.1894(3) 0.67551(13) 0.42711(17)
C9 C 0.1812(4) 0.57852(13) 0.44998(18)
C10 C 0.2389(3) 0.86117(12) 0.39123(17)
C11 C -0.0123(3) 0.82568(12) 0.42101(18)
H6 H -0.1202 0.8177 0.3457
H7 H -0.0911 0.8707 0.4714
C12 C 0.0120(3) 0.73466(12) 0.48826(17)
H8 H -0.1535 0.7046 0.4767
C13 C 0.0694(3) 0.74668(12) 0.62336(17)
C14 C -0.1053(3) 0.79206(13) 0.68596(17)
H9 H -0.2541 0.8127 0.6436
C15 C -0.0666(3) 0.80778(14) 0.80858(17)
H10 H -0.1871 0.8385 0.8504
C16 C 0.1527(4) 0.77758(12) 0.86872(18)
C17 C 0.3282(4) 0.73055(14) 0.81020(18)
H11 H 0.4755 0.7093 0.8532
C18 C 0.2847(4) 0.71500(13) 0.68688(18)
H12 H 0.4030 0.6825 0.6458
C19 C 0.2285(3) 0.94792(13) 0.31416(17)
C20 C 0.0119(4) 1.02499(14) 0.15244(19)
H13 H 0.1497 1.0275 0.0998
H14 H 0.0122 1.0816 0.2000
C21 C -0.2315(4) 1.01386(16) 0.07827(19)
H15 H -0.2323 0.9561 0.0349
H16 H -0.2537 1.0638 0.0205
H17 H -0.3666 1.0145 0.1312
loop_
_geom_bond_atom_site_label_1
_geom_bond_atom_site_label_2
_geom_bond_site_symmetry_1
_geom_bond_site_symmetry_2
Cl1 C16 1_555 1_555
O1 C1 1_555 1_555
O2 C9 1_555 1_555
O3 C7 1_555 1_555
O4 H1 1_555 1_555
O5 C19 1_555 1_555
O6 C19 1_555 1_555
C1 C2 1_555 1_555
C2 H2 1_555 1_555
C3 C2 1_555 1_555
H3 C3 1_555 1_555
C4 C3 1_555 1_555
H4 C4 1_555 1_555
C5 C4 1_555 1_555
H5 C5 1_555 1_555
C6 C1 1_555 1_555
C7 C6 1_555 1_555
C8 C7 1_555 1_555
C9 O1 1_555 1_555
C10 O3 1_555 1_555
C11 C10 1_555 1_555
H6 C11 1_555 1_555
H7 C11 1_555 1_555
C12 C8 1_555 1_555
H8 C12 1_555 1_555
C13 C12 1_555 1_555
C14 C13 1_555 1_555
H9 C14 1_555 1_555
C15 C14 1_555 1_555
H10 C15 1_555 1_555
C16 C15 1_555 1_555
C17 C16 1_555 1_555
H11 C17 1_555 1_555
C18 C13 1_555 1_555
H12 C18 1_555 1_555
C19 C10 1_555 1_555
C20 O5 1_555 1_555
H13 C20 1_555 1_555
H14 C20 1_555 1_555
C21 C20 1_555 1_555
H15 C21 1_555 1_555
H16 C21 1_555 1_555
H17 C21 1_555 1_555
O4 C10 1_555 1_555
C5 C6 1_555 1_555
C8 C9 1_555 1_555
C11 C12 1_555 1_555
C17 C18 1_555 1_555

#END
