
#######################################################################
#
#                 Cambridge Crystallographic Data Centre
#                                CCDC 
#
#######################################################################
#
# If this CIF has been generated from an entry in the Cambridge 
# Structural Database, then it will include bibliographic, chemical, 
# crystal, experimental, refinement or atomic coordinate data resulting 
# from the CCDC's data processing and validation procedures.
#
#######################################################################

data_HUGQAC
_chemical_formula_moiety         '2(C3 H7 N6 1+),H1 O4 P1 2-,3(H2 O1)'
_chemical_name_systematic        
'Bis(2,4,6-triamino-1,3,5-triazin-1-ium) hydrogen phosphate trihydrate'
_symmetry_cell_setting           triclinic
_symmetry_space_group_name_H-M   'P -1'
_symmetry_Int_Tables_number      2
_space_group_name_Hall           '-P 1'
loop_
_symmetry_equiv_pos_site_id
_symmetry_equiv_pos_as_xyz
1 x,y,z
2 -x,-y,-z
_cell_length_a                   6.767(4)
_cell_length_b                   10.548(7)
_cell_length_c                   12.497(8)
_cell_angle_alpha                91.865(11)
_cell_angle_beta                 105.609(10)
_cell_angle_gamma                108.020(9)
_cell_volume                     810.422
_exptl_crystal_colour            colorless
_exptl_crystal_description       block
_cell_formula_units_Z            2
loop_
_atom_site_label
_atom_site_type_symbol
_atom_site_fract_x
_atom_site_fract_y
_atom_site_fract_z
C1 C 0.5323(6) 0.7920(4) -0.0156(3)
C2 C 0.6740(6) 0.8584(4) 0.1714(3)
C3 C 0.4373(6) 0.6393(4) 0.1008(3)
N1 N 0.4191(5) 0.6664(3) -0.0031(2)
N2 N 0.6575(5) 0.8903(3) 0.0688(2)
N3 N 0.5651(5) 0.7323(3) 0.1889(3)
H1 H 0.577(6) 0.712(4) 0.248(3)
N4 N 0.5233(5) 0.8212(3) -0.1176(3)
H2 H 0.5955 0.9002 -0.1280
H3 H 0.4453 0.7613 -0.1741
N5 N 0.7957(5) 0.9458(3) 0.2586(3)
H4 H 0.8672 1.0258 0.2499
H5 H 0.8047 0.9235 0.3249
N6 N 0.3325(5) 0.5192(3) 0.1207(3)
H6 H 0.2515 0.4577 0.0659
H7 H 0.3450 0.5021 0.1886
C4 C 0.0847(5) 0.8128(3) 0.0751(3)
C5 C 0.2296(6) 0.8597(4) 0.2627(3)
C6 C -0.0212(5) 0.6489(4) 0.1803(3)
N7 N 0.2203(5) 0.9023(3) 0.1634(2)
N8 N 0.1115(5) 0.7333(3) 0.2726(3)
H8 H 0.126(5) 0.703(3) 0.334(3)
N9 N -0.0400(4) 0.6864(3) 0.0791(2)
N10 N 0.3541(5) 0.9350(4) 0.3562(3)
H9 H 0.4343 1.0157 0.3550
H10 H 0.3558 0.9039 0.4191
N11 N -0.1322(5) 0.5270(3) 0.1931(3)
H11 H -0.2178 0.4709 0.1354
H12 H -0.1193 0.5031 0.2591
N12 N 0.0741(5) 0.8512(3) -0.0246(2)
H13 H 0.1520 0.9305 -0.0310
H14 H -0.0107 0.7969 -0.0834
P1 P 0.24796(15) 0.68587(9) 0.57240(7)
O1 O 0.0294(5) 0.6330(3) 0.6053(3)
H15 H -0.0482 0.5614 0.5669
O2 O 0.2963(6) 0.8336(3) 0.5671(3)
O3 O 0.2088(7) 0.6098(4) 0.4601(4)
O4 O 0.4058(6) 0.6486(5) 0.6643(3)
O5 O 0.4731(5) 0.4107(3) 0.6295(3)
H16 H 0.4405 0.4792 0.6078
H17 H 0.5757 0.4063 0.6041
O6 O 0.8660(5) 0.7583(4) 0.7442(3)
H18 H 0.7299 0.7431 0.7189
H19 H 0.8984 0.7038 0.7061
O7 O 0.8612(6) 0.8583(4) 0.4724(3)
H20 H 0.7320 0.8059 0.4420
H21 H 0.9418 0.8093 0.4809
O8? O 0.176(2) 0.7686(13) 0.4856(10)
O9? O 0.279(2) 0.5614(14) 0.5130(13)
O10? O 0.4481(19) 0.7567(17) 0.6642(10)
loop_
_geom_bond_atom_site_label_1
_geom_bond_atom_site_label_2
_geom_bond_site_symmetry_1
_geom_bond_site_symmetry_2
C1 N1 1_555 1_555
C2 N2 1_555 1_555
C3 N1 1_555 1_555
C4 N7 1_555 1_555
C5 N7 1_555 1_555
C6 N8 1_555 1_555
N2 C1 1_555 1_555
N3 C2 1_555 1_555
H1 N3 1_555 1_555
N4 C1 1_555 1_555
H2 N4 1_555 1_555
H3 N4 1_555 1_555
N5 C2 1_555 1_555
H4 N5 1_555 1_555
H5 N5 1_555 1_555
N6 C3 1_555 1_555
H6 N6 1_555 1_555
H7 N6 1_555 1_555
N8 C5 1_555 1_555
H8 N8 1_555 1_555
N9 C4 1_555 1_555
N10 C5 1_555 1_555
H9 N10 1_555 1_555
H10 N10 1_555 1_555
N11 C6 1_555 1_555
H11 N11 1_555 1_555
H12 N11 1_555 1_555
N12 C4 1_555 1_555
H13 N12 1_555 1_555
H14 N12 1_555 1_555
P1 O1 1_555 1_555
O1 H15 1_555 1_555
O2 P1 1_555 1_555
O3 P1 1_555 1_555
O4 P1 1_555 1_555
O5 H16 1_555 1_555
H17 O5 1_555 1_555
O6 H18 1_555 1_555
H19 O6 1_555 1_555
O7 H20 1_555 1_555
H21 O7 1_555 1_555
C3 N3 1_555 1_555
C6 N9 1_555 1_555

#END
