
#######################################################################
#
#                 Cambridge Crystallographic Data Centre
#                                CCDC 
#
#######################################################################
#
# If this CIF has been generated from an entry in the Cambridge 
# Structural Database, then it will include bibliographic, chemical, 
# crystal, experimental, refinement or atomic coordinate data resulting 
# from the CCDC's data processing and validation procedures.
#
#######################################################################

data_HUGQAC01
_chemical_formula_moiety         '2(C3 H7 N6 1+),H1 O4 P1 2-,3(H2 O1)'
_chemical_name_systematic        
'bis(2,4,6-triamino-1,3,5-triazin-1-ium) hydrogen phosphate trihydrate'
_symmetry_cell_setting           triclinic
_symmetry_space_group_name_H-M   'P -1'
_symmetry_Int_Tables_number      2
_space_group_name_Hall           '-P 1'
loop_
_symmetry_equiv_pos_site_id
_symmetry_equiv_pos_as_xyz
1 x,y,z
2 -x,-y,-z
_cell_length_a                   6.830(5)
_cell_length_b                   10.633(8)
_cell_length_c                   12.576(10)
_cell_angle_alpha                78.645(9)
_cell_angle_beta                 74.258(9)
_cell_angle_gamma                71.914(9)
_cell_volume                     829.264
_exptl_crystal_colour            colorless
_exptl_crystal_description       block
_cell_formula_units_Z            2
loop_
_atom_site_label
_atom_site_type_symbol
_atom_site_fract_x
_atom_site_fract_y
_atom_site_fract_z
P1 P 0.32451(11) 0.18563(7) 0.92782(6)
O1 O 0.2695(5) 0.3340(3) 0.9330(3)
O3 O 0.2591(5) 0.1493(4) 0.8352(2)
O5 O 0.573(2) 0.1282(15) 0.8879(9)
H19 H 0.620(7) 0.060(3) 0.930(3)
O7 O 0.2516(4) 0.1096(3) 1.0403(2)
C1 C 0.9659(5) -0.3601(3) 0.7633(2)
C2 C 1.0099(4) -0.3131(3) 0.5747(2)
C3 C 0.7985(4) -0.1490(3) 0.6804(2)
N1 N 1.0566(4) -0.4029(2) 0.66409(19)
N2 N 0.8800(3) -0.1864(2) 0.57908(17)
N3 N 0.8376(4) -0.2332(3) 0.77358(19)
H1 H 0.785(5) -0.201(4) 0.8379(17)
N4 N 0.9979(5) -0.4352(4) 0.8566(2)
H2 H 0.920(6) -0.404(4) 0.922(3)
H3 H 1.078(6) -0.517(4) 0.856(3)
N5 N 1.0981(4) -0.3517(3) 0.4755(2)
H4 H 1.079(5) -0.296(3) 0.417(3)
H5 H 1.188(5) -0.425(3) 0.467(2)
N6 N 0.6735(4) -0.0277(3) 0.6941(3)
H6 H 0.649(4) 0.023(3) 0.643(3)
H7 H 0.615(6) 0.001(4) 0.765(3)
C4 C 0.4515(4) 0.2916(3) 0.5153(2)
C5 C 0.6628(4) 0.1393(3) 0.3990(2)
C6 C 0.4979(4) 0.3588(3) 0.3282(2)
N7 N 0.5783(4) 0.1657(2) 0.50286(19)
N8 N 0.6242(4) 0.2325(2) 0.3100(2)
H8 H 0.675(5) 0.212(3) 0.2417(13)
N9 N 0.4113(4) 0.3903(2) 0.4313(2)
N10 N 0.3602(5) 0.3212(3) 0.6177(2)
H9 H 0.366(5) 0.259(3) 0.675(3)
H10 H 0.276(5) 0.399(3) 0.630(3)
N11 N 0.7887(4) 0.0194(3) 0.3788(3)
H11 H 0.852(5) 0.001(3) 0.306(3)
H12 H 0.812(5) -0.044(3) 0.433(3)
N12 N 0.4626(4) 0.4458(3) 0.2409(2)
H13 H 0.3821 0.5250 0.2497
H14 H 0.5200 0.4235 0.1751
O2 O -0.1557(4) 0.0890(3) 1.1300(2)
H15 H -0.030(3) 0.084(3) 1.094(3)
H16 H -0.185(5) 0.020(3) 1.121(4)
O4 O 0.8797(5) 0.2569(3) 0.7556(2)
H17 H 0.786(5) 0.224(5) 0.801(3)
H18 H 0.980(4) 0.242(4) 0.788(3)
O6 O 0.6128(6) 0.3575(4) 0.0291(3)
H20 H 0.520(8) 0.361(6) -0.004(6)
H21 H 0.691(8) 0.279(2) 0.034(5)
O8? O 0.3070(15) 0.2694(10) 1.0144(8)
O9? O 0.2155(14) 0.2566(12) 0.8375(7)
O10? O 0.578(6) 0.146(4) 0.916(3)
O11? O 0.2343(13) 0.0610(9) 0.9885(8)
loop_
_geom_bond_atom_site_label_1
_geom_bond_atom_site_label_2
_geom_bond_site_symmetry_1
_geom_bond_site_symmetry_2
P1 O1 1_555 1_555
C1 N1 1_555 1_555
C2 N1 1_555 1_555
C3 N2 1_555 1_555
C4 N7 1_555 1_555
C5 N7 1_555 1_555
C6 N8 1_555 1_555
N2 C2 1_555 1_555
N3 C1 1_555 1_555
H1 N3 1_555 1_555
N4 C1 1_555 1_555
H2 N4 1_555 1_555
H3 N4 1_555 1_555
N5 C2 1_555 1_555
H4 N5 1_555 1_555
H5 N5 1_555 1_555
N6 C3 1_555 1_555
H6 N6 1_555 1_555
H7 N6 1_555 1_555
N8 C5 1_555 1_555
H8 N8 1_555 1_555
N9 C4 1_555 1_555
N10 C4 1_555 1_555
H9 N10 1_555 1_555
H10 N10 1_555 1_555
N11 C5 1_555 1_555
H11 N11 1_555 1_555
H12 N11 1_555 1_555
N12 C6 1_555 1_555
H13 N12 1_555 1_555
H14 N12 1_555 1_555
O2 H15 1_555 1_555
H16 O2 1_555 1_555
O3 P1 1_555 1_555
O4 H17 1_555 1_555
H18 O4 1_555 1_555
O5 P1 1_555 1_555
H19 O5 1_555 1_555
O6 H20 1_555 1_555
H21 O6 1_555 1_555
O7 P1 1_555 1_555
C3 N3 1_555 1_555
C6 N9 1_555 1_555

#END
