
#######################################################################
#
#                 Cambridge Crystallographic Data Centre
#                                CCDC 
#
#######################################################################
#
# If this CIF has been generated from an entry in the Cambridge 
# Structural Database, then it will include bibliographic, chemical, 
# crystal, experimental, refinement or atomic coordinate data resulting 
# from the CCDC's data processing and validation procedures.
#
#######################################################################

data_HUGSIN
_chemical_formula_moiety         'C31 H30 N2 O2'
_chemical_name_systematic        
't-butyl 3-benzyl-2-(2-phenylethyl)-9H-pyrido[2,3-b]indole-9-carboxylate'
_symmetry_cell_setting           monoclinic
_symmetry_space_group_name_H-M   'C 2/c'
_symmetry_Int_Tables_number      15
_space_group_name_Hall           '-C 2yn'
loop_
_symmetry_equiv_pos_site_id
_symmetry_equiv_pos_as_xyz
1 x,y,z
2 -x,y,1/2-z
3 1/2+x,1/2+y,z
4 1/2-x,1/2+y,1/2-z
5 -x,-y,-z
6 x,-y,1/2+z
7 1/2-x,1/2-y,-z
8 1/2+x,1/2-y,1/2+z
_cell_length_a                   24.847(3)
_cell_length_b                   8.6971(10)
_cell_length_c                   25.520(3)
_cell_angle_alpha                90
_cell_angle_beta                 111.133(2)
_cell_angle_gamma                90
_cell_volume                     5143.9
_exptl_crystal_colour            yellow
_exptl_crystal_description       block
_cell_formula_units_Z            8
loop_
_atom_site_label
_atom_site_type_symbol
_atom_site_fract_x
_atom_site_fract_y
_atom_site_fract_z
C1 C 0.21360(7) 0.26071(18) 0.08064(6)
C2 C 0.19297(7) 0.37915(18) 0.04087(6)
C3 C 0.23186(7) 0.45903(18) 0.02378(6)
H1 H 0.2192 0.5380 -0.0024
C4 C 0.28961(7) 0.42089(17) 0.04570(6)
C5 C 0.30458(7) 0.29712(17) 0.08320(6)
C6 C 0.34208(7) 0.47774(17) 0.04072(6)
C7 C 0.35436(8) 0.59453(19) 0.00951(7)
H2 H 0.3249 0.6560 -0.0140
C8 C 0.41035(9) 0.6182(2) 0.01368(8)
H3 H 0.4187 0.6955 -0.0074
C9 C 0.45431(9) 0.5286(2) 0.04882(8)
H4 H 0.4920 0.5472 0.0512
C10 C 0.44387(8) 0.4121(2) 0.08054(7)
H5 H 0.4737 0.3518 0.1041
C11 C 0.38748(7) 0.38822(17) 0.07607(6)
C12 C 0.13020(7) 0.4233(2) 0.01831(6)
H6 H 0.1073 0.3320 0.0038
H7 H 0.1235 0.4940 -0.0128
C13 C 0.10985(7) 0.49743(18) 0.06139(6)
C14 C 0.14320(9) 0.6035(2) 0.09928(7)
H8 H 0.1795 0.6290 0.0990
C15 C 0.12329(11) 0.6725(2) 0.13781(8)
H9 H 0.1461 0.7445 0.1631
C16 C 0.07039(12) 0.6350(3) 0.13863(9)
H10 H 0.0571 0.6809 0.1646
C17 C 0.03713(10) 0.5309(3) 0.10174(10)
H11 H 0.0010 0.5057 0.1023
C18 C 0.05662(8) 0.4617(2) 0.06319(8)
H12 H 0.0334 0.3900 0.0381
C19 C 0.17645(7) 0.17132(19) 0.10498(6)
H13 H 0.1835 0.0623 0.1026
H14 H 0.1362 0.1909 0.0829
C20 C 0.18831(8) 0.2141(2) 0.16609(6)
H15 H 0.2294 0.2056 0.1870
H16 H 0.1775 0.3208 0.1676
C21 C 0.15680(7) 0.11664(18) 0.19445(6)
C22 C 0.18568(8) 0.0191(2) 0.23796(7)
H17 H 0.2256 0.0109 0.2495
C23 C 0.15663(10) -0.0670(2) 0.26485(8)
H18 H 0.1771 -0.1320 0.2942
C24 C 0.09836(10) -0.0570(2) 0.24847(8)
H19 H 0.0788 -0.1145 0.2667
C25 C 0.06866(8) 0.0378(2) 0.20522(8)
H20 H 0.0287 0.0445 0.1937
C26 C 0.09773(8) 0.1236(2) 0.17851(7)
H21 H 0.0769 0.1878 0.1490
C27 C 0.39617(8) 0.1534(2) 0.13414(6)
C28 C 0.37752(9) -0.0972(2) 0.16762(7)
C29 C 0.38740(13) -0.0324(3) 0.22489(9)
H22 H 0.4223 0.0270 0.2373
H23 H 0.3907 -0.1150 0.2508
H24 H 0.3555 0.0323 0.2232
C30 C 0.32329(11) -0.1922(3) 0.14585(12)
H25 H 0.2908 -0.1302 0.1444
H26 H 0.3265 -0.2781 0.1704
H27 H 0.3180 -0.2290 0.1088
C31 C 0.42821(10) -0.1852(3) 0.16471(10)
H28 H 0.4211 -0.2137 0.1265
H29 H 0.4338 -0.2761 0.1874
H30 H 0.4621 -0.1221 0.1784
N1 N 0.36450(5) 0.27440(14) 0.10123(5)
N2 N 0.26944(6) 0.21962(14) 0.10171(5)
O1 O 0.44613(6) 0.16552(15) 0.16244(5)
O2 O 0.36324(5) 0.03099(13) 0.12677(5)
loop_
_geom_bond_atom_site_label_1
_geom_bond_atom_site_label_2
_geom_bond_site_symmetry_1
_geom_bond_site_symmetry_2
C1 C2 1_555 1_555
C2 C3 1_555 1_555
C3 H1 1_555 1_555
C4 C3 1_555 1_555
C5 C4 1_555 1_555
C6 C4 1_555 1_555
C7 C6 1_555 1_555
H2 C7 1_555 1_555
C8 C7 1_555 1_555
H3 C8 1_555 1_555
C9 C8 1_555 1_555
H4 C9 1_555 1_555
C10 C9 1_555 1_555
H5 C10 1_555 1_555
C11 C6 1_555 1_555
C12 C2 1_555 1_555
H6 C12 1_555 1_555
H7 C12 1_555 1_555
C13 C12 1_555 1_555
C14 C13 1_555 1_555
H8 C14 1_555 1_555
C15 C14 1_555 1_555
H9 C15 1_555 1_555
C16 C15 1_555 1_555
H10 C16 1_555 1_555
C17 C16 1_555 1_555
H11 C17 1_555 1_555
C18 C13 1_555 1_555
H12 C18 1_555 1_555
C19 C1 1_555 1_555
H13 C19 1_555 1_555
H14 C19 1_555 1_555
C20 C19 1_555 1_555
H15 C20 1_555 1_555
H16 C20 1_555 1_555
C21 C20 1_555 1_555
C22 C21 1_555 1_555
H17 C22 1_555 1_555
C23 C22 1_555 1_555
H18 C23 1_555 1_555
C24 C23 1_555 1_555
H19 C24 1_555 1_555
C25 C24 1_555 1_555
H20 C25 1_555 1_555
C26 C21 1_555 1_555
H21 C26 1_555 1_555
C27 N1 1_555 1_555
C28 C29 1_555 1_555
C29 H22 1_555 1_555
H23 C29 1_555 1_555
H24 C29 1_555 1_555
C30 C28 1_555 1_555
H25 C30 1_555 1_555
H26 C30 1_555 1_555
H27 C30 1_555 1_555
C31 C28 1_555 1_555
H28 C31 1_555 1_555
H29 C31 1_555 1_555
H30 C31 1_555 1_555
N1 C5 1_555 1_555
N2 C1 1_555 1_555
O1 C27 1_555 1_555
O2 C27 1_555 1_555
C5 N2 1_555 1_555
C10 C11 1_555 1_555
C11 N1 1_555 1_555
C17 C18 1_555 1_555
C25 C26 1_555 1_555
C28 O2 1_555 1_555

#END
