
#######################################################################
#
#                 Cambridge Crystallographic Data Centre
#                                CCDC 
#
#######################################################################
#
# If this CIF has been generated from an entry in the Cambridge 
# Structural Database, then it will include bibliographic, chemical, 
# crystal, experimental, refinement or atomic coordinate data resulting 
# from the CCDC's data processing and validation procedures.
#
#######################################################################

data_HUGSAE
_chemical_formula_moiety         'C6 H5 Br1 Cl1 N1'
_chemical_name_systematic        4-Bromo-2-chloroaniline
_symmetry_cell_setting           orthorhombic
_symmetry_space_group_name_H-M   'P 21 21 21'
_symmetry_Int_Tables_number      19
_space_group_name_Hall           'P 2ac 2ab'
loop_
_symmetry_equiv_pos_site_id
_symmetry_equiv_pos_as_xyz
1 x,y,z
2 1/2-x,-y,1/2+z
3 1/2+x,1/2-y,-z
4 -x,1/2+y,1/2-z
_cell_length_a                   10.965(4)
_cell_length_b                   15.814(6)
_cell_length_c                   4.0232(15)
_cell_angle_alpha                90
_cell_angle_beta                 90
_cell_angle_gamma                90
_cell_volume                     697.625
_exptl_crystal_colour            colorless
_exptl_crystal_description       needle
_cell_formula_units_Z            4
_exptl_crystal_recrystallization_method 'petroleum ether'
loop_
_atom_site_label
_atom_site_type_symbol
_atom_site_fract_x
_atom_site_fract_y
_atom_site_fract_z
Br1 Br 0.28337(3) 0.74386(2) 0.51936(10)
Cl1 Cl 0.42519(8) 0.41363(5) 0.4648(3)
C1 C 0.3957(3) 0.65802(18) 0.6258(8)
C2 C 0.4999(3) 0.6770(2) 0.7973(9)
H1 H 0.5151 0.7322 0.8656
C3 C 0.5812(3) 0.6145(2) 0.8673(9)
H2 H 0.6518 0.6276 0.9846
C4 C 0.5613(3) 0.5320(2) 0.7681(8)
C5 C 0.4548(3) 0.51544(19) 0.5957(8)
C6 C 0.3728(2) 0.57746(17) 0.5249(7)
H3 H 0.3018 0.5649 0.4087
N1 N 0.6464(2) 0.47087(18) 0.8346(8)
H4 H 0.7124 0.4838 0.9383
H5 H 0.6338 0.4196 0.7726
loop_
_geom_bond_atom_site_label_1
_geom_bond_atom_site_label_2
_geom_bond_site_symmetry_1
_geom_bond_site_symmetry_2
Br1 C1 1_555 1_555
Cl1 C5 1_555 1_555
C1 C2 1_555 1_555
C2 H1 1_555 1_555
C3 C2 1_555 1_555
H2 C3 1_555 1_555
C4 C3 1_555 1_555
C5 C4 1_555 1_555
C6 C1 1_555 1_555
H3 C6 1_555 1_555
N1 C4 1_555 1_555
H4 N1 1_555 1_555
H5 N1 1_555 1_555
C5 C6 1_555 1_555

#END
