
#######################################################################
#
#                 Cambridge Crystallographic Data Centre
#                                CCDC 
#
#######################################################################
#
# If this CIF has been generated from an entry in the Cambridge 
# Structural Database, then it will include bibliographic, chemical, 
# crystal, experimental, refinement or atomic coordinate data resulting 
# from the CCDC's data processing and validation procedures.
#
#######################################################################

data_HUGXOY
_chemical_formula_moiety         'C14 H9 O4 1-,C6 H16 N1 1+'
_chemical_name_systematic        
"N-isopropylpropan-2-aminium 2'-carboxybiphenyl-2-carboxylate"
_symmetry_cell_setting           monoclinic
_symmetry_space_group_name_H-M   'P 21/c'
_symmetry_Int_Tables_number      14
_space_group_name_Hall           '-P 2ybc'
loop_
_symmetry_equiv_pos_site_id
_symmetry_equiv_pos_as_xyz
1 x,y,z
2 -x,1/2+y,1/2-z
3 -x,-y,-z
4 x,1/2-y,1/2+z
_cell_length_a                   15.0679(3)
_cell_length_b                   7.6188(2)
_cell_length_c                   21.9556(4)
_cell_angle_alpha                90
_cell_angle_beta                 131.6060(10)
_cell_angle_gamma                90
_cell_volume                     1884.64
_exptl_crystal_colour            colorless
_exptl_crystal_description       BLOCK
_cell_formula_units_Z            4
loop_
_atom_site_label
_atom_site_type_symbol
_atom_site_fract_x
_atom_site_fract_y
_atom_site_fract_z
O1 O 0.85824(8) 0.26287(13) 0.51556(6)
C1 C 0.79066(11) 0.26718(17) 0.43846(8)
O2 O 0.81384(10) 0.34125(16) 0.40036(7)
C2 C 0.67471(10) 0.17129(16) 0.39149(7)
O3 O 0.79110(9) 0.06646(13) 0.57702(6)
H1 H 0.8086 0.1342 0.5574
C3 C 0.64548(13) 0.04403(18) 0.33557(8)
H2 H 0.6949 0.0256 0.3247
O4 O 0.69221(11) 0.07854(16) 0.61810(7)
C4 C 0.54377(13) -0.0557(2) 0.29573(9)
H3 H 0.5258 -0.1425 0.2592
C5 C 0.46941(13) -0.0258(2) 0.31033(9)
H4 H 0.4007 -0.0924 0.2835
C6 C 0.49639(11) 0.10308(19) 0.36493(8)
H5 H 0.4451 0.1228 0.3741
C7 C 0.59900(10) 0.20346(16) 0.40629(7)
C8 C 0.62214(10) 0.34984(16) 0.46098(7)
C9 C 0.58917(13) 0.51949(19) 0.43075(9)
H6 H 0.5554 0.5412 0.3775
C10 C 0.60555(15) 0.6572(2) 0.47842(11)
H7 H 0.5847 0.7705 0.4574
C11 C 0.65231(15) 0.6278(2) 0.55635(10)
H8 H 0.6627 0.7205 0.5881
C12 C 0.68379(13) 0.4599(2) 0.58738(9)
H9 H 0.7136 0.4392 0.6398
C13 C 0.67150(11) 0.32098(17) 0.54119(7)
C14 C 0.71693(12) 0.14492(18) 0.58117(8)
N1 N 0.96732(9) 0.01517(14) 0.88741(6)
H10 H 1.0210 -0.0650 0.9240
H11 H 0.9261 0.0478 0.9018
C15 C 0.88268(12) -0.0742(2) 0.80601(8)
H12 H 0.8211 0.0101 0.7662
C16 C 0.94604(16) -0.1354(3) 0.77781(10)
H13 H 0.9813 -0.0364 0.7738
H14 H 0.8901 -0.1905 0.7254
H15 H 1.0068 -0.2180 0.8163
C17 C 0.82441(15) -0.2232(2) 0.81399(10)
H16 H 0.7858 -0.1777 0.8320
H17 H 0.8837 -0.3070 0.8529
H18 H 0.7668 -0.2794 0.7621
C18 C 1.03413(13) 0.17320(19) 0.89523(9)
H19 H 1.0877 0.1363 0.8869
C19 C 1.10774(16) 0.2426(2) 0.98121(11)
H20 H 1.1600 0.1520 1.0193
H21 H 1.0562 0.2784 0.9902
H22 H 1.1537 0.3413 0.9886
C20 C 0.94924(17) 0.3092(2) 0.83159(12)
H23 H 0.9046 0.2594 0.7783
H24 H 0.9933 0.4086 0.8372
H25 H 0.8959 0.3459 0.8389
loop_
_geom_bond_atom_site_label_1
_geom_bond_atom_site_label_2
_geom_bond_site_symmetry_1
_geom_bond_site_symmetry_2
O1 C1 1_555 1_555
C1 O2 1_555 1_555
C2 C1 1_555 1_555
O3 H1 1_555 1_555
C3 C2 1_555 1_555
H2 C3 1_555 1_555
O4 C14 1_555 1_555
C4 C3 1_555 1_555
H3 C4 1_555 1_555
C5 C4 1_555 1_555
H4 C5 1_555 1_555
C6 C5 1_555 1_555
H5 C6 1_555 1_555
C7 C2 1_555 1_555
C8 C7 1_555 1_555
C9 C8 1_555 1_555
H6 C9 1_555 1_555
C10 C9 1_555 1_555
H7 C10 1_555 1_555
C11 C10 1_555 1_555
H8 C11 1_555 1_555
C12 C11 1_555 1_555
H9 C12 1_555 1_555
C13 C8 1_555 1_555
C14 O3 1_555 1_555
N1 H10 1_555 1_555
H11 N1 1_555 1_555
C15 N1 1_555 1_555
H12 C15 1_555 1_555
C16 C15 1_555 1_555
H13 C16 1_555 1_555
H14 C16 1_555 1_555
H15 C16 1_555 1_555
C17 C15 1_555 1_555
H16 C17 1_555 1_555
H17 C17 1_555 1_555
H18 C17 1_555 1_555
C18 N1 1_555 1_555
H19 C18 1_555 1_555
C19 C18 1_555 1_555
H20 C19 1_555 1_555
H21 C19 1_555 1_555
H22 C19 1_555 1_555
C20 C18 1_555 1_555
H23 C20 1_555 1_555
H24 C20 1_555 1_555
H25 C20 1_555 1_555
C6 C7 1_555 1_555
C12 C13 1_555 1_555
C13 C14 1_555 1_555

#END
