
#######################################################################
#
#                 Cambridge Crystallographic Data Centre
#                                CCDC 
#
#######################################################################
#
# If this CIF has been generated from an entry in the Cambridge 
# Structural Database, then it will include bibliographic, chemical, 
# crystal, experimental, refinement or atomic coordinate data resulting 
# from the CCDC's data processing and validation procedures.
#
#######################################################################

data_HUGXUE
_chemical_formula_moiety         'C14 H9 O4 1-,C2 H8 N1 1+'
_chemical_name_systematic        
"N-methylmethanaminium 2'-carboxybiphenyl-2-carboxylate"
_symmetry_cell_setting           monoclinic
_symmetry_space_group_name_H-M   'C 2/c'
_symmetry_Int_Tables_number      15
_space_group_name_Hall           '-C 2yn'
loop_
_symmetry_equiv_pos_site_id
_symmetry_equiv_pos_as_xyz
1 x,y,z
2 -x,y,1/2-z
3 1/2+x,1/2+y,z
4 1/2-x,1/2+y,1/2-z
5 -x,-y,-z
6 x,-y,1/2+z
7 1/2-x,1/2-y,-z
8 1/2+x,1/2-y,1/2+z
_cell_length_a                   17.5220(7)
_cell_length_b                   7.5080(2)
_cell_length_c                   22.2773(7)
_cell_angle_alpha                90
_cell_angle_beta                 94.726(2)
_cell_angle_gamma                90
_cell_volume                     2920.73
_exptl_crystal_colour            colorless
_exptl_crystal_description       block
_cell_formula_units_Z            8
loop_
_atom_site_label
_atom_site_type_symbol
_atom_site_fract_x
_atom_site_fract_y
_atom_site_fract_z
N1 N 0.17201(9) 0.3887(2) 0.01718(7)
H1 H 0.1711 0.2702 0.0232
H2 H 0.1902 0.4081 -0.0189
C1 C 0.09322(14) 0.4580(4) 0.01567(12)
H3 H 0.0621 0.4007 -0.0162
H4 H 0.0936 0.5841 0.0087
H5 H 0.0727 0.4342 0.0535
C2 C 0.22427(16) 0.4701(4) 0.06426(12)
H6 H 0.2745 0.4198 0.0629
H7 H 0.2060 0.4474 0.1030
H8 H 0.2266 0.5963 0.0577
C3 C 0.20489(11) -0.0010(3) 0.09633(9)
C4 C 0.18335(11) -0.0794(3) 0.15464(9)
C5 C 0.23107(12) -0.2094(3) 0.18149(10)
H9 H 0.2738 -0.2457 0.1626
C6 C 0.21638(14) -0.2857(3) 0.23551(11)
H10 H 0.2476 -0.3765 0.2519
C7 C 0.15551(14) -0.2272(4) 0.26518(12)
H11 H 0.1460 -0.2763 0.3022
C8 C 0.10822(12) -0.0945(4) 0.23966(10)
H12 H 0.0680 -0.0529 0.2605
C9 C 0.11960(11) -0.0220(3) 0.18340(9)
C10 C 0.06624(11) 0.1261(3) 0.16244(9)
C11 C 0.07908(14) 0.2946(4) 0.18690(10)
H13 H 0.1237 0.3158 0.2114
C12 C 0.02695(16) 0.4321(4) 0.17567(12)
H14 H 0.0374 0.5447 0.1917
C13 C -0.04056(15) 0.4014(4) 0.14070(12)
H15 H -0.0762 0.4923 0.1337
C14 C -0.05449(13) 0.2363(4) 0.11645(11)
H16 H -0.1004 0.2158 0.0935
C15 C -0.00192(11) 0.0983(3) 0.12512(9)
C16 C -0.02163(13) -0.0740(4) 0.09466(11)
O1 O 0.15193(8) 0.0415(2) 0.05681(6)
O2 O 0.27394(8) 0.0181(3) 0.08987(7)
O3 O 0.03082(10) -0.1459(2) 0.06302(8)
H17 H 0.0678 -0.0789 0.0630
O4 O -0.08362(10) -0.1442(3) 0.09614(10)
loop_
_geom_bond_atom_site_label_1
_geom_bond_atom_site_label_2
_geom_bond_site_symmetry_1
_geom_bond_site_symmetry_2
N1 H1 1_555 1_555
H2 N1 1_555 1_555
C1 N1 1_555 1_555
H3 C1 1_555 1_555
H4 C1 1_555 1_555
H5 C1 1_555 1_555
C2 N1 1_555 1_555
H6 C2 1_555 1_555
H7 C2 1_555 1_555
H8 C2 1_555 1_555
C3 C4 1_555 1_555
C4 C5 1_555 1_555
C5 H9 1_555 1_555
C6 C5 1_555 1_555
H10 C6 1_555 1_555
C7 C6 1_555 1_555
H11 C7 1_555 1_555
C8 C7 1_555 1_555
H12 C8 1_555 1_555
C9 C4 1_555 1_555
C10 C9 1_555 1_555
C11 C10 1_555 1_555
H13 C11 1_555 1_555
C12 C11 1_555 1_555
H14 C12 1_555 1_555
C13 C12 1_555 1_555
H15 C13 1_555 1_555
C14 C13 1_555 1_555
H16 C14 1_555 1_555
C15 C10 1_555 1_555
C16 C15 1_555 1_555
O1 C3 1_555 1_555
O2 C3 1_555 1_555
O3 C16 1_555 1_555
H17 O3 1_555 1_555
O4 C16 1_555 1_555
C8 C9 1_555 1_555
C14 C15 1_555 1_555

#END
