
#######################################################################
#
#                 Cambridge Crystallographic Data Centre
#                                CCDC 
#
#######################################################################
#
# If this CIF has been generated from an entry in the Cambridge 
# Structural Database, then it will include bibliographic, chemical, 
# crystal, experimental, refinement or atomic coordinate data resulting 
# from the CCDC's data processing and validation procedures.
#
#######################################################################

data_HUGXAI
_chemical_formula_moiety         'C15 H19 N1 O4'
_chemical_name_systematic        
(2R,4S,5R,6R)-5-(benzyloxy)-2,4-dimethyl-3,9-dioxa-1-azabicyclo[4.3.0]nonan-8-one
_symmetry_cell_setting           monoclinic
_symmetry_space_group_name_H-M   'P 21'
_symmetry_Int_Tables_number      4
_space_group_name_Hall           'P 2yb'
loop_
_symmetry_equiv_pos_site_id
_symmetry_equiv_pos_as_xyz
1 x,y,z
2 -x,1/2+y,-z
_cell_length_a                   10.0661(7)
_cell_length_b                   12.3623(8)
_cell_length_c                   12.0728(8)
_cell_angle_alpha                90
_cell_angle_beta                 101.165(6)
_cell_angle_gamma                90
_cell_volume                     1473.91
_exptl_crystal_description       plate
_chemical_melting_point          '92-94 deg.C'
_cell_formula_units_Z            4
loop_
_atom_site_label
_atom_site_type_symbol
_atom_site_fract_x
_atom_site_fract_y
_atom_site_fract_z
N1 N -0.4421(3) 0.6376(3) 0.5136(2)
C1 C -0.5026(3) 0.7384(3) 0.4685(3)
H1 H -0.4354 0.7765 0.4342
O1 O -0.5402(2) 0.8087(2) 0.54990(19)
C2 C -0.4246(3) 0.8395(3) 0.6350(3)
H2 H -0.3542 0.8701 0.5985
C3 C -0.3717(3) 0.7370(3) 0.6982(3)
H3 H -0.4403 0.7090 0.7383
C4 C -0.3383(3) 0.6508(3) 0.6179(3)
H4 H -0.2501 0.6661 0.5984
C5 C -0.3389(4) 0.5374(4) 0.6655(4)
H5 H -0.2854 0.4883 0.6294
H6 H -0.3052 0.5367 0.7464
C6 C -0.4863(4) 0.5095(3) 0.6374(3)
O2 O -0.5495(2) 0.5735(2) 0.5532(2)
O3 O -0.5492(3) 0.4430(3) 0.6792(3)
C7 C -0.6268(4) 0.7209(4) 0.3768(3)
H7 H -0.6577 0.7892 0.3436
H8 H -0.6972 0.6883 0.4089
H9 H -0.6042 0.6741 0.3197
C8 C -0.4730(4) 0.9249(4) 0.7074(3)
H10 H -0.5365 0.8934 0.7480
H11 H -0.5161 0.9824 0.6602
H12 H -0.3971 0.9533 0.7600
O4 O -0.2489(2) 0.7565(2) 0.77738(17)
C9 C -0.2607(4) 0.7631(6) 0.8925(3)
H13 H -0.3226 0.7080 0.9092
H14 H -0.2962 0.8334 0.9078
C10 C -0.1221(4) 0.7467(4) 0.9655(3)
C11 C 0.1245(5) 0.7136(6) 1.1048(4)
H15 H 0.2084 0.7010 1.1509
C12 C 0.0788(6) 0.6456(5) 1.0181(4)
H16 H 0.1309 0.5863 1.0059
C13 C -0.0425(5) 0.6632(4) 0.9486(4)
H17 H -0.0711 0.6166 0.8882
C14 C 0.0497(5) 0.7999(5) 1.1257(3)
H18 H 0.0814 0.8462 1.1857
C15 C -0.0766(5) 0.8180(5) 1.0549(4)
H19 H -0.1295 0.8768 1.0674
N2 N 0.0628(2) 0.7221(2) 0.5238(2)
O5 O -0.0970(2) 0.8617(2) 0.53787(19)
C16 C 0.0871(3) 0.8446(3) 0.6956(3)
H20 H 0.0349 0.8068 0.7443
C17 C -0.0304(3) 0.8023(3) 0.4654(3)
H21 H 0.0228 0.8538 0.4302
C18 C -0.0032(3) 0.9239(3) 0.6184(3)
H22 H 0.0529 0.9683 0.5783
C19 C 0.1522(3) 0.7633(3) 0.6271(3)
H23 H 0.2336 0.7952 0.6073
C20 C 0.1886(4) 0.6586(4) 0.6900(3)
H24 H 0.2617 0.6217 0.6636
H25 H 0.2146 0.6709 0.7707
C21 C 0.0596(4) 0.5963(3) 0.6618(3)
O6 O -0.0186(2) 0.6381(2) 0.5690(2)
O7 O 0.0207(4) 0.5198(3) 0.7091(3)
C22 C -0.1359(4) 0.7543(5) 0.3726(3)
H26 H -0.1924 0.8110 0.3349
H27 H -0.1903 0.7037 0.4045
H28 H -0.0920 0.7177 0.3195
C23 C -0.0862(4) 0.9965(3) 0.6784(4)
H29 H -0.1355 0.9533 0.7229
H30 H -0.1487 1.0371 0.6239
H31 H -0.0274 1.0453 0.7268
O8 O 0.1981(2) 0.9004(3) 0.76176(19)
C24 C 0.1923(4) 0.9215(4) 0.8769(3)
H32 H 0.1939 0.8543 0.9186
H33 H 0.1102 0.9605 0.8821
C25 C 0.3161(4) 0.9893(3) 0.9237(3)
C26 C 0.4103(5) 0.9600(5) 1.0146(4)
H34 H 0.3992 0.8961 1.0524
C27 C 0.5248(5) 1.0247(7) 1.0528(4)
H35 H 0.5884 1.0034 1.1154
C28 C 0.5429(6) 1.1181(7) 0.9985(5)
H36 H 0.6189 1.1608 1.0232
C29 C 0.4478(6) 1.1486(5) 0.9071(4)
H37 H 0.4587 1.2126 0.8695
C30 C 0.3369(4) 1.0853(4) 0.8710(3)
H38 H 0.2732 1.1075 0.8088
loop_
_geom_bond_atom_site_label_1
_geom_bond_atom_site_label_2
_geom_bond_site_symmetry_1
_geom_bond_site_symmetry_2
N1 C1 1_555 1_555
C1 H1 1_555 1_555
O1 C1 1_555 1_555
C2 O1 1_555 1_555
H2 C2 1_555 1_555
C3 C2 1_555 1_555
H3 C3 1_555 1_555
C4 N1 1_555 1_555
H4 C4 1_555 1_555
C5 C4 1_555 1_555
H5 C5 1_555 1_555
H6 C5 1_555 1_555
C6 C5 1_555 1_555
O2 N1 1_555 1_555
O3 C6 1_555 1_555
C7 C1 1_555 1_555
H7 C7 1_555 1_555
H8 C7 1_555 1_555
H9 C7 1_555 1_555
C8 C2 1_555 1_555
H10 C8 1_555 1_555
H11 C8 1_555 1_555
H12 C8 1_555 1_555
O4 C3 1_555 1_555
C9 O4 1_555 1_555
H13 C9 1_555 1_555
H14 C9 1_555 1_555
C10 C9 1_555 1_555
C11 H15 1_555 1_555
C12 C11 1_555 1_555
H16 C12 1_555 1_555
C13 C10 1_555 1_555
H17 C13 1_555 1_555
C14 C11 1_555 1_555
H18 C14 1_555 1_555
C15 C10 1_555 1_555
H19 C15 1_555 1_555
N2 C17 1_555 1_555
O5 C17 1_555 1_555
C16 H20 1_555 1_555
C17 H21 1_555 1_555
C18 O5 1_555 1_555
H22 C18 1_555 1_555
C19 N2 1_555 1_555
H23 C19 1_555 1_555
C20 C19 1_555 1_555
H24 C20 1_555 1_555
H25 C20 1_555 1_555
C21 C20 1_555 1_555
O6 N2 1_555 1_555
O7 C21 1_555 1_555
C22 C17 1_555 1_555
H26 C22 1_555 1_555
H27 C22 1_555 1_555
H28 C22 1_555 1_555
C23 C18 1_555 1_555
H29 C23 1_555 1_555
H30 C23 1_555 1_555
H31 C23 1_555 1_555
O8 C16 1_555 1_555
C24 O8 1_555 1_555
H32 C24 1_555 1_555
H33 C24 1_555 1_555
C25 C24 1_555 1_555
C26 C25 1_555 1_555
H34 C26 1_555 1_555
C27 C26 1_555 1_555
H35 C27 1_555 1_555
C28 C27 1_555 1_555
H36 C28 1_555 1_555
C29 C28 1_555 1_555
H37 C29 1_555 1_555
C30 C25 1_555 1_555
H38 C30 1_555 1_555
C3 C4 1_555 1_555
C6 O2 1_555 1_555
C12 C13 1_555 1_555
C14 C15 1_555 1_555
C16 C18 1_555 1_555
C16 C19 1_555 1_555
C21 O6 1_555 1_555
C29 C30 1_555 1_555

#END
