
#######################################################################
#
#                 Cambridge Crystallographic Data Centre
#                                CCDC 
#
#######################################################################
#
# If this CIF has been generated from an entry in the Cambridge 
# Structural Database, then it will include bibliographic, chemical, 
# crystal, experimental, refinement or atomic coordinate data resulting 
# from the CCDC's data processing and validation procedures.
#
#######################################################################

data_HUGZUE
_chemical_formula_moiety         'C22 H20 N4,C1 H4 O1,0.5(H2 O1)'
_chemical_name_systematic        
'1,2-bis(benzimidazol-1-ylmethyl)benzene methanol solvate hemihydrate'
_symmetry_cell_setting           triclinic
_symmetry_space_group_name_H-M   'P -1'
_symmetry_Int_Tables_number      2
_space_group_name_Hall           '-P 1'
loop_
_symmetry_equiv_pos_site_id
_symmetry_equiv_pos_as_xyz
1 x,y,z
2 -x,-y,-z
_cell_length_a                   9.7429(16)
_cell_length_b                   9.7821(15)
_cell_length_c                   10.9831(18)
_cell_angle_alpha                93.313(3)
_cell_angle_beta                 94.444(3)
_cell_angle_gamma                105.831(4)
_cell_volume                     1000.62
_exptl_crystal_colour            colorless
_exptl_crystal_description       block
_chemical_melting_point          165-167deg.C
_cell_formula_units_Z            2
loop_
_atom_site_label
_atom_site_type_symbol
_atom_site_fract_x
_atom_site_fract_y
_atom_site_fract_z
O2 O 0.1991(5) 0.0930(4) -0.6484(3)
H25 H 0.114(3) 0.091(4) -0.633(8)
H26 H 0.247(2) 0.1815(14) -0.652(2)
C1 C -0.2026(3) 0.0393(3) 0.0090(2)
C2 C -0.3312(3) -0.0368(3) -0.0539(3)
H1 H -0.371(4) -0.024(3) -0.134(3)
C3 C -0.4165(4) -0.1435(3) 0.0057(4)
H2 H -0.5045 -0.1971 -0.0333
C4 C -0.3745(4) -0.1727(4) 0.1219(4)
H3 H -0.4350 -0.2461 0.1586
C5 C -0.2478(4) -0.0980(4) 0.1847(3)
H4 H -0.2212 -0.1183 0.2633
C6 C -0.1584(3) 0.0118(3) 0.1253(2)
C7 C 0.0094(3) 0.1803(3) 0.0710(3)
H5 H 0.0958 0.2506 0.0715
C8 C -0.0894(3) 0.2210(3) -0.1361(2)
H6 H -0.1301 0.1506 -0.2045
H7 H 0.0096 0.2661 -0.1490
C9 C -0.1708(3) 0.3330(2) -0.1352(2)
C10 C -0.2098(3) 0.3833(3) -0.0262(2)
H8 H -0.1836 0.3493 0.0469
C11 C -0.2866(3) 0.4826(3) -0.0240(3)
H9 H -0.3128 0.5146 0.0497
C12 C -0.3241(3) 0.5341(3) -0.1325(3)
H10 H -0.3770 0.6001 -0.1323
C13 C -0.2835(3) 0.4882(3) -0.2397(3)
H11 H -0.3075 0.5255 -0.3117
C14 C -0.2073(3) 0.3874(3) -0.2445(2)
C15 C -0.1772(3) 0.3343(4) -0.3690(2)
H12 H -0.2344 0.2361 -0.3867
H13 H -0.2086 0.3898 -0.4301
C16 C 0.0177(4) 0.2334(4) -0.4311(3)
H14 H -0.0438 0.1439 -0.4570
C17 C 0.2061(3) 0.4056(4) -0.3925(2)
C18 C 0.3450(4) 0.4937(5) -0.3775(3)
H15 H 0.4216 0.4607 -0.3985
C19 C 0.3654(4) 0.6312(4) -0.3306(3)
H16 H 0.4578 0.6924 -0.3196
C20 C 0.2520(4) 0.6816(3) -0.2992(3)
H17 H 0.2701 0.7763 -0.2690
C21 C 0.1141(3) 0.5957(3) -0.3113(2)
H18 H 0.0382 0.6297 -0.2898
C22 C 0.0927(3) 0.4555(3) -0.3574(2)
N1 N -0.0246(3) 0.1022(3) 0.1616(2)
H19 H 0.0261 0.1062 0.2301
N2 N -0.0928(2) 0.1491(2) -0.02343(18)
N3 N 0.1542(3) 0.2667(3) -0.4393(2)
H20 H 0.2025 0.2127 -0.4681
N4 N -0.0272(2) 0.3411(3) -0.38146(18)
C23? C -0.5266(7) 0.0298(9) -0.4437(6)
H21? H -0.506(2) 0.006(4) -0.5266(7)
H22? H -0.531(2) 0.1262(15) -0.446(2)
H23? H -0.6158(11) -0.030(2) -0.429(2)
O1? O -0.4130(11) 0.0206(9) -0.3570(6)
H24? H -0.346(5) 0.006(12) -0.398(2)
loop_
_geom_bond_atom_site_label_1
_geom_bond_atom_site_label_2
_geom_bond_site_symmetry_1
_geom_bond_site_symmetry_2
C1 C2 1_555 1_555
C2 H1 1_555 1_555
C3 C2 1_555 1_555
H2 C3 1_555 1_555
C4 C3 1_555 1_555
H3 C4 1_555 1_555
C5 C4 1_555 1_555
H4 C5 1_555 1_555
C6 C1 1_555 1_555
C7 H5 1_555 1_555
C8 H6 1_555 1_555
H7 C8 1_555 1_555
C9 C8 1_555 1_555
C10 C9 1_555 1_555
H8 C10 1_555 1_555
C11 C10 1_555 1_555
H9 C11 1_555 1_555
C12 C11 1_555 1_555
H10 C12 1_555 1_555
C13 C12 1_555 1_555
H11 C13 1_555 1_555
C14 C9 1_555 1_555
C15 C14 1_555 1_555
H12 C15 1_555 1_555
H13 C15 1_555 1_555
C16 H14 1_555 1_555
C17 C18 1_555 1_555
C18 H15 1_555 1_555
C19 C18 1_555 1_555
H16 C19 1_555 1_555
C20 C19 1_555 1_555
H17 C20 1_555 1_555
C21 C20 1_555 1_555
H18 C21 1_555 1_555
C22 C17 1_555 1_555
N1 C6 1_555 1_555
H19 N1 1_555 1_555
N2 C1 1_555 1_555
N3 C16 1_555 1_555
H20 N3 1_555 1_555
N4 C15 1_555 1_555
O2 H25 1_555 1_555
H26 O2 1_555 1_555
C5 C6 1_555 1_555
C7 N2 1_555 1_555
C7 N1 1_555 1_555
C8 N2 1_555 1_555
C13 C14 1_555 1_555
C16 N4 1_555 1_555
C17 N3 1_555 1_555
C21 C22 1_555 1_555
C22 N4 1_555 1_555

#END
