
#######################################################################
#
#                 Cambridge Crystallographic Data Centre
#                                CCDC 
#
#######################################################################
#
# If this CIF has been generated from an entry in the Cambridge 
# Structural Database, then it will include bibliographic, chemical, 
# crystal, experimental, refinement or atomic coordinate data resulting 
# from the CCDC's data processing and validation procedures.
#
#######################################################################

data_HUHCUJ
_chemical_name_common            
'23$5!-t-Butyl-7$3!,7$5!,10$5!,13$2!,13$6!,20$3!,20$5!,26$2!,26$6!-nonamethyl-8,12,21,25-tetraaza-10(3,5)-pyridina-7,13,20,26(1,4),23(1,3)-pentabenzena-dispiro[5.7.5$14!.7$6!]hexacosaphane-9,11,22,24-tetrone-10$1!-ium iodide unknown solvate'
_chemical_formula_moiety         'C64 H74 N5 O4 1+,I1 1-'
_chemical_name_systematic        
"29'-t-Butyl-5',11',17',23',35',38',40',43',45'-nonamethyl-7',15',25',33'-tetraaza-11'-azoniadispiro[cyclohexane-1,2'-heptacyclo[32.2.2.2^3,6^.2^16,19^.2^21,24^.1^9,13^.1^27,31^]hexatetracontane-20',1''-cyclohexane]-1'(36'),3',5',9'(44'),10',12',16',18',21',23',27'(39'),28',30',34',37',40',42',45'-octadecaene-8',14',26',32'-tetrone iodide unknown solvate"
_symmetry_cell_setting           monoclinic
_symmetry_space_group_name_H-M   'C 2/c'
_symmetry_Int_Tables_number      15
_space_group_name_Hall           '-C 2yn'
loop_
_symmetry_equiv_pos_site_id
_symmetry_equiv_pos_as_xyz
1 x,y,z
2 -x,y,1/2-z
3 1/2+x,1/2+y,z
4 1/2-x,1/2+y,1/2-z
5 -x,-y,-z
6 x,-y,1/2+z
7 1/2-x,1/2-y,-z
8 1/2+x,1/2-y,1/2+z
_cell_length_a                   27.9903(5)
_cell_length_b                   17.1774(3)
_cell_length_c                   30.9747(6)
_cell_angle_alpha                90
_cell_angle_beta                 107.148(1)
_cell_angle_gamma                90
_cell_volume                     14230.6
_exptl_crystal_colour            yellow
_exptl_crystal_description       cuboid
_chemical_melting_point          'above 300 deg.C'
_cell_formula_units_Z            8
_exptl_crystal_recrystallization_method deuterochloroform
loop_
_atom_site_label
_atom_site_type_symbol
_atom_site_fract_x
_atom_site_fract_y
_atom_site_fract_z
I1 I 0.00000 0.767146(16) 0.25000
N1 N 0.07804(7) 1.03547(12) 0.33002(8)
N2 N -0.08090(7) 0.92820(12) 0.32011(7)
H1 H -0.0632 0.8987 0.3423
N3 N -0.23272(7) 0.56758(12) 0.33315(7)
H2 H -0.2048 0.5607 0.3261
N4 N -0.03747(7) 0.35848(13) 0.42506(8)
H3 H -0.0466 0.3102 0.4279
N5 N 0.08878(7) 0.76801(12) 0.36808(7)
H4 H 0.0621 0.7642 0.3445
O1 O -0.07531(6) 1.02011(12) 0.26881(8)
O2 O -0.28870(6) 0.50958(11) 0.36277(6)
O3 O -0.05981(6) 0.48167(11) 0.40641(7)
O4 O 0.14795(6) 0.85174(10) 0.41005(6)
C1 C 0.10584(10) 1.10535(17) 0.32339(10)
H5 H 0.1065 1.1074 0.292
H6 H 0.1401 1.1029 0.3436
H7 H 0.0893 1.152 0.3302
C2 C 0.10259(9) 0.97363(15) 0.35188(9)
H8 H 0.1378 0.9763 0.3649
C3 C 0.07772(8) 0.90609(15) 0.35582(8)
C4 C 0.02604(8) 0.90485(15) 0.33934(8)
H9 H 0.0081 0.8592 0.3422
C5 C 0.00068(8) 0.97044(15) 0.31867(9)
C6 C 0.02760(8) 1.03491(16) 0.31321(9)
H10 H 0.0107 1.0792 0.2976
C7 C -0.05603(9) 0.97550(17) 0.29990(10)
C8 C -0.13444(8) 0.92221(15) 0.30808(9)
C9 C -0.16127(9) 0.89181(14) 0.26600(9)
C10 C -0.21279(8) 0.88221(14) 0.25780(9)
H11 H -0.2317 0.862 0.2294
C11 C -0.23756(8) 0.90070(14) 0.28900(8)
C12 C -0.20971(8) 0.93170(14) 0.32991(9)
H12 H -0.2262 0.9462 0.3515
C13 C -0.15800(8) 0.94236(15) 0.34048(9)
C14 C -0.13716(9) 0.86987(16) 0.23097(9)
H13 H -0.1312 0.9168 0.2153
H14 H -0.1591 0.8344 0.2092
H15 H -0.1052 0.844 0.2453
C15 C -0.12882(9) 0.97539(17) 0.38640(9)
H16 H -0.1521 0.9893 0.4034
H17 H -0.1105 1.0219 0.3821
H18 H -0.1052 0.9362 0.4033
C16 C -0.29352(8) 0.87714(14) 0.28039(8)
C17 C -0.32270(8) 0.89350(15) 0.23029(8)
H19 H -0.318 0.9487 0.2234
H20 H -0.3086 0.861 0.2106
C18 C -0.37912(8) 0.87665(16) 0.21931(9)
H21 H -0.3959 0.8895 0.1873
H22 H -0.3842 0.8205 0.2237
C19 C -0.40232(8) 0.92419(16) 0.24943(9)
H23 H -0.4378 0.9092 0.2436
H24 H -0.4011 0.9802 0.2423
C20 C -0.37427(8) 0.91036(15) 0.29915(9)
H25 H -0.3786 0.8555 0.307
H26 H -0.3885 0.944 0.3182
C21 C -0.31849(8) 0.92816(15) 0.30890(8)
H27 H -0.3014 0.9192 0.3414
H28 H -0.3143 0.9837 0.3024
C22 C -0.29032(8) 0.79187(14) 0.29334(8)
C23 C -0.29245(8) 0.73319(16) 0.26189(9)
H29 H -0.3047 0.7457 0.2307
C24 C -0.27738(9) 0.65674(15) 0.27412(9)
C25 C -0.25848(8) 0.63963(15) 0.32001(9)
C26 C -0.25990(9) 0.69443(16) 0.35300(9)
C27 C -0.27614(9) 0.76886(16) 0.33892(9)
H30 H -0.2778 0.8062 0.3611
C28 C -0.27820(11) 0.59593(16) 0.23911(10)
H31 H -0.244 0.5855 0.2386
H32 H -0.2981 0.6147 0.2094
H33 H -0.293 0.548 0.2465
C29 C -0.24148(13) 0.67498(18) 0.40285(10)
H34 H -0.2621 0.6333 0.4096
H35 H -0.2438 0.7213 0.4206
H36 H -0.2066 0.6577 0.4107
C30 C -0.24755(9) 0.50882(15) 0.35551(9)
C31 C -0.21128(8) 0.44414(14) 0.37228(8)
C32 C -0.22883(8) 0.37218(14) 0.38087(8)
H37 H -0.2637 0.3653 0.3757
C33 C -0.19646(8) 0.30879(14) 0.39708(8)
C34 C -0.14525(8) 0.32135(15) 0.40586(8)
H38 H -0.1225 0.2796 0.4164
C35 C -0.12694(8) 0.39503(15) 0.39928(8)
C36 C -0.15959(8) 0.45566(15) 0.38187(8)
H39 H -0.147 0.5049 0.3764
C37 C -0.21803(8) 0.23029(15) 0.40487(9)
C38 C -0.17827(9) 0.16632(15) 0.41524(10)
H40 H -0.1934 0.117 0.4203
H41 H -0.1513 0.1803 0.4424
H42 H -0.1647 0.1607 0.3897
C39 C -0.24020(9) 0.23752(16) 0.44501(9)
H43 H -0.2667 0.2769 0.438
H44 H -0.2138 0.253 0.4722
H45 H -0.2541 0.1872 0.4502
C40 C -0.25943(9) 0.20634(16) 0.36201(10)
H46 H -0.2866 0.2445 0.3558
H47 H -0.2724 0.1549 0.3665
H48 H -0.2457 0.2043 0.3364
C41 C -0.07235(8) 0.41491(16) 0.41035(9)
C42 C 0.01456(8) 0.37847(15) 0.43591(10)
C43 C 0.04016(9) 0.39785(16) 0.48056(10)
C44 C 0.08855(9) 0.42821(15) 0.48955(9)
H49 H 0.1064 0.4422 0.5197
C45 C 0.11135(8) 0.43858(14) 0.45550(9)
C46 C 0.08508(9) 0.41440(16) 0.41273(9)
H50 H 0.1007 0.4189 0.3894
C47 C 0.03660(9) 0.38358(17) 0.40159(9)
C48 C 0.01567(11) 0.3882(2) 0.51808(11)
H51 H -0.0115 0.4261 0.5139
H52 H 0.0406 0.397 0.5474
H53 H 0.0022 0.3354 0.5171
C49 C 0.00978(11) 0.3608(2) 0.35370(11)
H54 H -0.0018 0.3068 0.353
H55 H 0.0327 0.3654 0.3352
H56 H -0.019 0.3952 0.3417
C50 C 0.16149(8) 0.48128(15) 0.46220(8)
C51 C 0.19537(8) 0.43089(15) 0.44144(9)
H57 H 0.1996 0.3788 0.4557
H58 H 0.1785 0.4239 0.4088
C52 C 0.24714(8) 0.46723(16) 0.44773(9)
H59 H 0.2675 0.4317 0.4351
H60 H 0.2432 0.5168 0.4308
C53 C 0.27412(9) 0.48254(16) 0.49677(9)
H61 H 0.3057 0.5107 0.4993
H62 H 0.2826 0.4324 0.513
C54 C 0.24132(8) 0.53124(16) 0.51842(9)
H63 H 0.2587 0.5378 0.551
H64 H 0.2362 0.5836 0.5044
C55 C 0.19036(8) 0.49270(15) 0.51246(8)
H65 H 0.1703 0.5255 0.5269
H66 H 0.1954 0.4415 0.5278
C56 C 0.14652(8) 0.55977(14) 0.43742(8)
C57 C 0.12961(8) 0.62046(15) 0.45910(9)
H67 H 0.1308 0.6143 0.4899
C58 C 0.11104(8) 0.68979(15) 0.43710(9)
C59 C 0.10933(8) 0.69800(14) 0.39161(8)
C60 C 0.12480(8) 0.63837(15) 0.36849(8)
C61 C 0.14410(8) 0.57079(14) 0.39266(9)
H68 H 0.1561 0.5306 0.3775
C62 C 0.09238(9) 0.75228(15) 0.46220(9)
H69 H 0.0869 0.73 0.4895
H70 H 0.0608 0.7734 0.4428
H71 H 0.1172 0.7941 0.4707
C63 C 0.11995(9) 0.64462(15) 0.31910(9)
H72 H 0.0849 0.637 0.3015
H73 H 0.1407 0.6046 0.3108
H74 H 0.1311 0.6963 0.3127
C64 C 0.10826(9) 0.83961(15) 0.38032(9)
loop_
_geom_bond_atom_site_label_1
_geom_bond_atom_site_label_2
_geom_bond_site_symmetry_1
_geom_bond_site_symmetry_2
N1 C1 1_555 1_555
N2 H1 1_555 1_555
N3 H2 1_555 1_555
N4 H3 1_555 1_555
N5 H4 1_555 1_555
O1 C7 1_555 1_555
O2 C30 1_555 1_555
O3 C41 1_555 1_555
O4 C64 1_555 1_555
C1 H5 1_555 1_555
H6 C1 1_555 1_555
H7 C1 1_555 1_555
C2 N1 1_555 1_555
H8 C2 1_555 1_555
C3 C2 1_555 1_555
C4 C3 1_555 1_555
H9 C4 1_555 1_555
C5 C4 1_555 1_555
C6 N1 1_555 1_555
H10 C6 1_555 1_555
C7 N2 1_555 1_555
C8 N2 1_555 1_555
C9 C8 1_555 1_555
C10 C9 1_555 1_555
H11 C10 1_555 1_555
C11 C10 1_555 1_555
C12 C11 1_555 1_555
H12 C12 1_555 1_555
C13 C8 1_555 1_555
C14 C9 1_555 1_555
H13 C14 1_555 1_555
H14 C14 1_555 1_555
H15 C14 1_555 1_555
C15 C13 1_555 1_555
H16 C15 1_555 1_555
H17 C15 1_555 1_555
H18 C15 1_555 1_555
C16 C11 1_555 1_555
C17 C16 1_555 1_555
H19 C17 1_555 1_555
H20 C17 1_555 1_555
C18 C17 1_555 1_555
H21 C18 1_555 1_555
H22 C18 1_555 1_555
C19 C18 1_555 1_555
H23 C19 1_555 1_555
H24 C19 1_555 1_555
C20 C19 1_555 1_555
H25 C20 1_555 1_555
H26 C20 1_555 1_555
C21 C16 1_555 1_555
H27 C21 1_555 1_555
H28 C21 1_555 1_555
C22 C16 1_555 1_555
C23 C22 1_555 1_555
H29 C23 1_555 1_555
C24 C23 1_555 1_555
C25 N3 1_555 1_555
C26 C25 1_555 1_555
C27 C22 1_555 1_555
H30 C27 1_555 1_555
C28 C24 1_555 1_555
H31 C28 1_555 1_555
H32 C28 1_555 1_555
H33 C28 1_555 1_555
C29 C26 1_555 1_555
H34 C29 1_555 1_555
H35 C29 1_555 1_555
H36 C29 1_555 1_555
C30 N3 1_555 1_555
C31 C30 1_555 1_555
C32 C31 1_555 1_555
H37 C32 1_555 1_555
C33 C32 1_555 1_555
C34 C33 1_555 1_555
H38 C34 1_555 1_555
C35 C34 1_555 1_555
C36 C31 1_555 1_555
H39 C36 1_555 1_555
C37 C33 1_555 1_555
C38 C37 1_555 1_555
H40 C38 1_555 1_555
H41 C38 1_555 1_555
H42 C38 1_555 1_555
C39 C37 1_555 1_555
H43 C39 1_555 1_555
H44 C39 1_555 1_555
H45 C39 1_555 1_555
C40 C37 1_555 1_555
H46 C40 1_555 1_555
H47 C40 1_555 1_555
H48 C40 1_555 1_555
C41 N4 1_555 1_555
C42 N4 1_555 1_555
C43 C42 1_555 1_555
C44 C43 1_555 1_555
H49 C44 1_555 1_555
C45 C44 1_555 1_555
C46 C45 1_555 1_555
H50 C46 1_555 1_555
C47 C42 1_555 1_555
C48 C43 1_555 1_555
H51 C48 1_555 1_555
H52 C48 1_555 1_555
H53 C48 1_555 1_555
C49 C47 1_555 1_555
H54 C49 1_555 1_555
H55 C49 1_555 1_555
H56 C49 1_555 1_555
C50 C45 1_555 1_555
C51 C50 1_555 1_555
H57 C51 1_555 1_555
H58 C51 1_555 1_555
C52 C51 1_555 1_555
H59 C52 1_555 1_555
H60 C52 1_555 1_555
C53 C52 1_555 1_555
H61 C53 1_555 1_555
H62 C53 1_555 1_555
C54 C53 1_555 1_555
H63 C54 1_555 1_555
H64 C54 1_555 1_555
C55 C50 1_555 1_555
H65 C55 1_555 1_555
H66 C55 1_555 1_555
C56 C50 1_555 1_555
C57 C56 1_555 1_555
H67 C57 1_555 1_555
C58 C57 1_555 1_555
C59 N5 1_555 1_555
C60 C59 1_555 1_555
C61 C56 1_555 1_555
H68 C61 1_555 1_555
C62 C58 1_555 1_555
H69 C62 1_555 1_555
H70 C62 1_555 1_555
H71 C62 1_555 1_555
C63 C60 1_555 1_555
H72 C63 1_555 1_555
H73 C63 1_555 1_555
H74 C63 1_555 1_555
C64 N5 1_555 1_555
C3 C64 1_555 1_555
C5 C6 1_555 1_555
C5 C7 1_555 1_555
C12 C13 1_555 1_555
C20 C21 1_555 1_555
C24 C25 1_555 1_555
C26 C27 1_555 1_555
C35 C36 1_555 1_555
C35 C41 1_555 1_555
C46 C47 1_555 1_555
C54 C55 1_555 1_555
C58 C59 1_555 1_555
C60 C61 1_555 1_555

#END
