
#######################################################################
#
#                 Cambridge Crystallographic Data Centre
#                                CCDC 
#
#######################################################################
#
# If this CIF has been generated from an entry in the Cambridge 
# Structural Database, then it will include bibliographic, chemical, 
# crystal, experimental, refinement or atomic coordinate data resulting 
# from the CCDC's data processing and validation procedures.
#
#######################################################################

data_HUHDEV
_chemical_formula_moiety         'C9 H15 N1 O2'
_chemical_name_systematic        9-hydroxyoctahydro-4H-quinolizin-4-one
_symmetry_cell_setting           monoclinic
_symmetry_space_group_name_H-M   'P 21'
_symmetry_Int_Tables_number      4
_space_group_name_Hall           'P 2yb'
loop_
_symmetry_equiv_pos_site_id
_symmetry_equiv_pos_as_xyz
1 x,y,z
2 -x,1/2+y,-z
_cell_length_a                   5.5907(17)
_cell_length_b                   13.518(4)
_cell_length_c                   5.7882(17)
_cell_angle_alpha                90
_cell_angle_beta                 92.261(7)
_cell_angle_gamma                90
_cell_volume                     437.103
_exptl_crystal_colour            colorless
_exptl_crystal_description       prismatic
_cell_formula_units_Z            2
loop_
_atom_site_label
_atom_site_type_symbol
_atom_site_fract_x
_atom_site_fract_y
_atom_site_fract_z
N1 N 0.6610(9) 0.8729(3) 0.3032(7)
O1 O 0.4286(7) 0.8882(2) 0.6074(5)
O2 O 1.0677(9) 0.7995(3) -0.1465(7)
H1 H 1.1813 0.8265 -0.2058
C1 C 0.5337(11) 0.8353(4) 0.4710(8)
C2 C 0.5168(13) 0.7247(4) 0.4935(10)
H2 H 0.6331 0.7031 0.6117
H3 H 0.3592 0.7082 0.5463
C3 C 0.5578(14) 0.6674(4) 0.2759(11)
H4 H 0.5787 0.5978 0.3121
H5 H 0.4202 0.6742 0.1697
C4 C 0.7732(14) 0.7057(4) 0.1680(10)
H6 H 0.7989 0.6687 0.0276
H7 H 0.9108 0.6950 0.2724
C5 C 0.7565(11) 0.8153(4) 0.1092(9)
H8 H 0.6467 0.8231 -0.0257
C6 C 0.9990(11) 0.8553(4) 0.0479(9)
H9 H 1.1136 0.8430 0.1772
C7 C 0.9897(13) 0.9646(4) 0.0001(10)
H10 H 0.8849 0.9776 -0.1341
H11 H 1.1484 0.9887 -0.0321
C8 C 0.8965(13) 1.0176(4) 0.2105(10)
H12 H 1.0080 1.0082 0.3413
H13 H 0.8854 1.0880 0.1790
C9 C 0.6594(13) 0.9797(4) 0.2685(11)
H14 H 0.6089 1.0118 0.4082
H15 H 0.5443 0.9961 0.1446
loop_
_geom_bond_atom_site_label_1
_geom_bond_atom_site_label_2
_geom_bond_site_symmetry_1
_geom_bond_site_symmetry_2
N1 C1 1_555 1_555
O1 C1 1_555 1_555
O2 H1 1_555 1_555
C1 C2 1_555 1_555
C2 H2 1_555 1_555
H3 C2 1_555 1_555
C3 C2 1_555 1_555
H4 C3 1_555 1_555
H5 C3 1_555 1_555
C4 C3 1_555 1_555
H6 C4 1_555 1_555
H7 C4 1_555 1_555
C5 N1 1_555 1_555
H8 C5 1_555 1_555
C6 O2 1_555 1_555
H9 C6 1_555 1_555
C7 C6 1_555 1_555
H10 C7 1_555 1_555
H11 C7 1_555 1_555
C8 C7 1_555 1_555
H12 C8 1_555 1_555
H13 C8 1_555 1_555
C9 N1 1_555 1_555
H14 C9 1_555 1_555
H15 C9 1_555 1_555
C4 C5 1_555 1_555
C5 C6 1_555 1_555
C8 C9 1_555 1_555

#END
