
#######################################################################
#
#                 Cambridge Crystallographic Data Centre
#                                CCDC 
#
#######################################################################
#
# If this CIF has been generated from an entry in the Cambridge 
# Structural Database, then it will include bibliographic, chemical, 
# crystal, experimental, refinement or atomic coordinate data resulting 
# from the CCDC's data processing and validation procedures.
#
#######################################################################

data_HUHKOM
_chemical_formula_moiety         'C16 H13 N1 O4'
_chemical_name_systematic        
3-hydroxy-2-methoxy-3-phenyl-2,3-dihydroisoquinoline-1,4-dione
_symmetry_cell_setting           orthorhombic
_symmetry_space_group_name_H-M   'P 21 21 21'
_symmetry_Int_Tables_number      19
_space_group_name_Hall           'P 2ac 2ab'
loop_
_symmetry_equiv_pos_site_id
_symmetry_equiv_pos_as_xyz
1 x,y,z
2 1/2-x,-y,1/2+z
3 -x,1/2+y,1/2-z
4 1/2+x,1/2-y,-z
_cell_length_a                   5.8370(12)
_cell_length_b                   14.149(3)
_cell_length_c                   17.650(4)
_cell_angle_alpha                90
_cell_angle_beta                 90
_cell_angle_gamma                90
_cell_volume                     1457.67
_exptl_crystal_colour            colorless
_exptl_crystal_description       plate
_cell_formula_units_Z            4
loop_
_atom_site_label
_atom_site_type_symbol
_atom_site_fract_x
_atom_site_fract_y
_atom_site_fract_z
O1 O 0.9132(3) 0.60882(11) 0.81140(9)
O2 O 0.6791(3) 0.59361(10) 0.68517(8)
O3 O 0.2197(3) 0.54314(11) 0.70352(8)
H1 H 0.1370 0.5694 0.7346
O4 O 0.1313(3) 0.41054(11) 0.81730(9)
N1 N 0.5864(3) 0.56160(12) 0.75391(9)
C1 C 0.7288(4) 0.56714(14) 0.81426(12)
C2 C 0.6439(4) 0.52320(14) 0.88529(12)
C3 C 0.7684(5) 0.53693(17) 0.95136(14)
H2 H 0.9029 0.5721 0.9503
C4 C 0.6925(6) 0.4983(2) 1.01865(16)
H3 H 0.7760 0.5077 1.0629
C5 C 0.4937(6) 0.4459(2) 1.02058(13)
H4 H 0.4432 0.4205 1.0662
C6 C 0.3691(5) 0.43101(18) 0.95534(13)
H5 H 0.2356 0.3952 0.9569
C7 C 0.4436(4) 0.46970(15) 0.88715(11)
C8 C 0.3079(3) 0.45538(14) 0.81771(11)
C9 C 0.3951(4) 0.49569(13) 0.74101(11)
C10 C 0.4734(3) 0.41258(14) 0.69272(11)
C11 C 0.3285(4) 0.37468(16) 0.63833(12)
H6 H 0.1861 0.4020 0.6294
C12 C 0.3965(5) 0.29611(19) 0.59735(13)
H7 H 0.2996 0.2712 0.5606
C13 C 0.6054(6) 0.25465(17) 0.61036(16)
H8 H 0.6492 0.2018 0.5826
C14 C 0.7493(5) 0.29112(16) 0.66421(15)
H9 H 0.8909 0.2631 0.6732
C15 C 0.6829(4) 0.37037(15) 0.70542(13)
H10 H 0.7808 0.3951 0.7419
C16 C 0.6281(7) 0.69291(16) 0.67541(17)
H11 H 0.4653 0.7023 0.6772
H12 H 0.6858 0.7139 0.6273
H13 H 0.6995 0.7285 0.7152
loop_
_geom_bond_atom_site_label_1
_geom_bond_atom_site_label_2
_geom_bond_site_symmetry_1
_geom_bond_site_symmetry_2
O1 C1 1_555 1_555
O2 N1 1_555 1_555
O3 H1 1_555 1_555
O4 C8 1_555 1_555
N1 C1 1_555 1_555
C1 C2 1_555 1_555
C2 C3 1_555 1_555
C3 H2 1_555 1_555
C4 C3 1_555 1_555
H3 C4 1_555 1_555
C5 C4 1_555 1_555
H4 C5 1_555 1_555
C6 C5 1_555 1_555
H5 C6 1_555 1_555
C7 C2 1_555 1_555
C8 C7 1_555 1_555
C9 O3 1_555 1_555
C10 C9 1_555 1_555
C11 C10 1_555 1_555
H6 C11 1_555 1_555
C12 C11 1_555 1_555
H7 C12 1_555 1_555
C13 C12 1_555 1_555
H8 C13 1_555 1_555
C14 C13 1_555 1_555
H9 C14 1_555 1_555
C15 C10 1_555 1_555
H10 C15 1_555 1_555
C16 O2 1_555 1_555
H11 C16 1_555 1_555
H12 C16 1_555 1_555
H13 C16 1_555 1_555
N1 C9 1_555 1_555
C6 C7 1_555 1_555
C8 C9 1_555 1_555
C14 C15 1_555 1_555

#END
