
#######################################################################
#
#                 Cambridge Crystallographic Data Centre
#                                CCDC 
#
#######################################################################
#
# If this CIF has been generated from an entry in the Cambridge 
# Structural Database, then it will include bibliographic, chemical, 
# crystal, experimental, refinement or atomic coordinate data resulting 
# from the CCDC's data processing and validation procedures.
#
#######################################################################

data_HUHXEO
_chemical_formula_moiety         'C17 H11 F2 N3 O2 S1'
_chemical_name_systematic        
4-benzenesulfonyl-2,3-difluoro-6-methyl-dipyrido[1,2-a;3',2'-d]imidazole
_symmetry_cell_setting           monoclinic
_symmetry_space_group_name_H-M   'P 21/c'
_symmetry_Int_Tables_number      14
_space_group_name_Hall           '-P 2ybc'
loop_
_symmetry_equiv_pos_site_id
_symmetry_equiv_pos_as_xyz
1 x,y,z
2 -x,1/2+y,1/2-z
3 -x,-y,-z
4 x,1/2-y,1/2+z
_cell_length_a                   14.3633(6)
_cell_length_b                   10.1474(4)
_cell_length_c                   10.2507(4)
_cell_angle_alpha                90
_cell_angle_beta                 93.70(1)
_cell_angle_gamma                90
_cell_volume                     1490.93
_exptl_crystal_colour            'yellow green'
_exptl_crystal_description       wedge
_chemical_melting_point          '242-244 deg.C'
_cell_formula_units_Z            4
_exptl_crystal_recrystallization_method chloroform
loop_
_atom_site_label
_atom_site_type_symbol
_atom_site_fract_x
_atom_site_fract_y
_atom_site_fract_z
S1 S 0.21670(2) 0.22523(4) 0.71980(3)
F1 F 0.46852(7) 0.37319(9) 1.06727(9)
F2 F 0.35515(6) 0.42328(8) 0.86332(9)
N1 N 0.43063(8) 0.15762(12) 1.07207(12)
N2 N 0.37267(8) -0.06711(12) 1.05427(12)
N3 N 0.27053(9) -0.04332(12) 0.87652(12)
O1 O 0.21672(8) 0.36143(10) 0.68315(11)
O2 O 0.23005(8) 0.12651(10) 0.62250(10)
C1 C 0.41892(10) 0.27189(15) 1.01522(15)
C2 C 0.35805(10) 0.29870(14) 0.90582(15)
C3 C 0.30345(10) 0.19989(13) 0.84895(14)
C4 C 0.31435(10) 0.07390(13) 0.90577(14)
C5 C 0.37813(10) 0.06276(14) 1.01499(14)
C6 C 0.30695(10) -0.12640(14) 0.96694(14)
C7 C 0.28673(10) -0.26262(14) 0.98377(15)
C8 C 0.33276(11) -0.32628(15) 1.08617(16)
C9 C 0.39948(11) -0.26167(16) 1.17265(15)
C10 C 0.41925(10) -0.13242(15) 1.15684(15)
C11 C 0.21723(11) -0.32708(16) 0.88940(18)
C12 C 0.11288(10) 0.19092(14) 0.79588(14)
C13 C 0.06587(11) 0.07349(16) 0.76983(16)
C14 C -0.01749(12) 0.05218(17) 0.82764(17)
C15 C -0.05179(12) 0.14479(18) 0.91066(17)
C16 C -0.00290(12) 0.26032(18) 0.93841(17)
C17 C 0.08011(11) 0.28440(16) 0.88098(16)
H1 H 0.3192(13) -0.4148(19) 1.1022(19)
H2 H 0.4308(14) -0.3078(18) 1.244(2)
H3 H 0.4625(12) -0.0820(16) 1.2098(16)
H4 H 0.1619(14) -0.2700(18) 0.8661(18)
H5 H 0.2444(16) -0.345(2) 0.805(2)
H6 H 0.1962(15) -0.408(2) 0.925(2)
H7 H 0.0903(15) 0.0113(19) 0.710(2)
H8 H -0.0533(15) -0.026(2) 0.808(2)
H9 H -0.1108(15) 0.1257(19) 0.953(2)
H10 H -0.0234(15) 0.322(2) 1.001(2)
H11 H 0.1155(14) 0.3629(18) 0.9033(19)
loop_
_geom_bond_atom_site_label_1
_geom_bond_atom_site_label_2
_geom_bond_site_symmetry_1
_geom_bond_site_symmetry_2
S1 O1 1_555 1_555
F1 C1 1_555 1_555
F2 C2 1_555 1_555
N1 C1 1_555 1_555
N2 C5 1_555 1_555
N3 C4 1_555 1_555
O2 S1 1_555 1_555
C1 C2 1_555 1_555
C2 C3 1_555 1_555
C3 S1 1_555 1_555
C4 C3 1_555 1_555
C5 N1 1_555 1_555
C6 N2 1_555 1_555
C7 C6 1_555 1_555
C8 C7 1_555 1_555
C9 C8 1_555 1_555
C10 N2 1_555 1_555
C11 C7 1_555 1_555
C12 S1 1_555 1_555
C13 C12 1_555 1_555
C14 C13 1_555 1_555
C15 C14 1_555 1_555
C16 C15 1_555 1_555
C17 C12 1_555 1_555
H1 C8 1_555 1_555
H2 C9 1_555 1_555
H3 C10 1_555 1_555
H4 C11 1_555 1_555
H5 C11 1_555 1_555
H6 C11 1_555 1_555
H7 C13 1_555 1_555
H8 C14 1_555 1_555
H9 C15 1_555 1_555
H10 C16 1_555 1_555
H11 C17 1_555 1_555
N3 C6 1_555 1_555
C4 C5 1_555 1_555
C9 C10 1_555 1_555
C16 C17 1_555 1_555

#END
