
#######################################################################
#
#                 Cambridge Crystallographic Data Centre
#                                CCDC 
#
#######################################################################
#
# If this CIF has been generated from an entry in the Cambridge 
# Structural Database, then it will include bibliographic, chemical, 
# crystal, experimental, refinement or atomic coordinate data resulting 
# from the CCDC's data processing and validation procedures.
#
#######################################################################

data_HUHXOX
_chemical_formula_moiety         'C8 H13 N1 O3'
_chemical_name_systematic        'Ethyl (E)-3-acetamido-2-butenoate'
_symmetry_cell_setting           monoclinic
_symmetry_space_group_name_H-M   'C 2/c'
_symmetry_Int_Tables_number      15
_space_group_name_Hall           '-C 2yn'
loop_
_symmetry_equiv_pos_site_id
_symmetry_equiv_pos_as_xyz
1 x,y,z
2 1/2+x,1/2+y,z
3 x,-y,1/2+z
4 1/2+x,1/2-y,1/2+z
5 -x,-y,-z
6 1/2-x,1/2-y,-z
7 -x,y,1/2-z
8 1/2-x,1/2+y,1/2-z
_cell_length_a                   20.006(4)
_cell_length_b                   9.545(2)
_cell_length_c                   11.922(2)
_cell_angle_alpha                90
_cell_angle_beta                 124.479(4)
_cell_angle_gamma                90
_cell_volume                     1876.67
_exptl_crystal_colour            colorless
_exptl_crystal_description       plate
_cell_formula_units_Z            8
_exptl_crystal_recrystallization_method 'ethyl acetate/hexane'
loop_
_atom_site_label
_atom_site_type_symbol
_atom_site_fract_x
_atom_site_fract_y
_atom_site_fract_z
O1 O 0.24031(10) 0.98771(15) 0.21996(17)
O2 O 0.43183(11) 0.88023(17) 0.06239(18)
O3 O 0.40086(9) 1.09940(14) 0.08209(14)
N1 N 0.27942(10) 0.77021(15) 0.20365(16)
H1 H 0.2724 0.6830 0.2123
C1 C 0.19104(15) 0.7954(2) 0.2785(3)
H2 H 0.1506 0.8600 0.2661
H3 H 0.2267 0.7718 0.3732
H4 H 0.1652 0.7120 0.2267
C2 C 0.23847(12) 0.8610(2) 0.2317(2)
C3 C 0.33135(12) 0.79732(19) 0.16286(19)
C4 C 0.34191(12) 0.9254(2) 0.1309(2)
H5 H 0.3128 0.9984 0.1356
C5 C 0.39601(13) 0.9594(2) 0.0889(2)
C6 C 0.45348(14) 1.1505(2) 0.0444(2)
H6 H 0.4350 1.1172 -0.0457
H7 H 0.5084 1.1174 0.1085
C7 C 0.45111(17) 1.3072(3) 0.0457(3)
H8 H 0.3961 1.3385 -0.0140
H9 H 0.4830 1.3443 0.0155
H10 H 0.4728 1.3392 0.1365
C8 C 0.37290(14) 0.6677(2) 0.1617(2)
H11 H 0.4154 0.6928 0.1509
H12 H 0.3344 0.6087 0.0874
H13 H 0.3956 0.6182 0.2459
loop_
_geom_bond_atom_site_label_1
_geom_bond_atom_site_label_2
_geom_bond_site_symmetry_1
_geom_bond_site_symmetry_2
O1 C2 1_555 1_555
O2 C5 1_555 1_555
O3 C5 1_555 1_555
N1 H1 1_555 1_555
C1 H2 1_555 1_555
H3 C1 1_555 1_555
H4 C1 1_555 1_555
C2 N1 1_555 1_555
C3 N1 1_555 1_555
C4 C3 1_555 1_555
H5 C4 1_555 1_555
C5 C4 1_555 1_555
C6 O3 1_555 1_555
H6 C6 1_555 1_555
H7 C6 1_555 1_555
C7 C6 1_555 1_555
H8 C7 1_555 1_555
H9 C7 1_555 1_555
H10 C7 1_555 1_555
C8 C3 1_555 1_555
H11 C8 1_555 1_555
H12 C8 1_555 1_555
H13 C8 1_555 1_555
C1 C2 1_555 1_555

#END
