
#######################################################################
#
#                 Cambridge Crystallographic Data Centre
#                                CCDC 
#
#######################################################################
#
# If this CIF has been generated from an entry in the Cambridge 
# Structural Database, then it will include bibliographic, chemical, 
# crystal, experimental, refinement or atomic coordinate data resulting 
# from the CCDC's data processing and validation procedures.
#
#######################################################################

data_HUHXUE
_chemical_formula_moiety         'C17 H11 Cl1 F1 N3 S1'
_chemical_name_systematic        
4-chloro-3-fluoro-9-methyl-1-phenylsulfanyl-dipyrido[1,2-a;3',4'-d]imidazole
_symmetry_cell_setting           monoclinic
_symmetry_space_group_name_H-M   'P 21/c'
_symmetry_Int_Tables_number      14
_space_group_name_Hall           '-P 2ybc'
loop_
_symmetry_equiv_pos_site_id
_symmetry_equiv_pos_as_xyz
1 x,y,z
2 -x,1/2+y,1/2-z
3 -x,-y,-z
4 x,1/2-y,1/2+z
_cell_length_a                   12.0775(4)
_cell_length_b                   17.1203(5)
_cell_length_c                   7.0518(2)
_cell_angle_alpha                90
_cell_angle_beta                 93.06(2)
_cell_angle_gamma                90
_cell_volume                     1456.02
_exptl_crystal_colour            yellow
_exptl_crystal_description       needle
_chemical_melting_point          '149-150 deg.C'
_cell_formula_units_Z            4
_exptl_crystal_recrystallization_method acetonitrile
loop_
_atom_site_label
_atom_site_type_symbol
_atom_site_fract_x
_atom_site_fract_y
_atom_site_fract_z
S1 S 0.66717(3) 0.14412(2) 0.37022(6)
Cl1 Cl 0.50947(3) -0.20065(2) 0.23502(7)
F1 F 0.71886(8) -0.14367(5) 0.40628(15)
N1 N 0.68959(11) -0.01451(8) 0.38616(19)
N2 N 0.43804(11) 0.09119(8) 0.21545(19)
N3 N 0.36907(11) -0.03112(8) 0.16407(19)
C1 C 0.62596(13) 0.04661(9) 0.3394(2)
C2 C 0.51709(12) 0.03580(9) 0.2625(2)
C3 C 0.47798(12) -0.04059(9) 0.2321(2)
C4 C 0.54589(13) -0.10491(9) 0.2748(2)
C5 C 0.64902(13) -0.08520(9) 0.3543(2)
C6 C 0.34974(13) 0.05010(9) 0.1582(2)
C7 C 0.24177(13) 0.07754(10) 0.0985(2)
C8 C 0.16292(14) 0.02318(11) 0.0520(3)
C9 C 0.18499(14) -0.05840(11) 0.0629(3)
C10 C 0.28658(14) -0.08489(11) 0.1164(2)
C11 C 0.80585(12) 0.14539(9) 0.4650(2)
C12 C 0.83147(13) 0.20939(10) 0.5812(2)
C13 C 0.93919(14) 0.22127(10) 0.6536(3)
C14 C 1.02179(14) 0.16899(10) 0.6115(3)
C15 C 0.99641(14) 0.10527(10) 0.4955(3)
C16 C 0.88918(13) 0.09311(9) 0.4205(2)
C17 C 0.22348(16) 0.16367(11) 0.0935(3)
H1 H 0.0901(16) 0.0413(11) 0.012(3)
H2 H 0.1276(17) -0.0938(12) 0.033(3)
H3 H 0.3070(13) -0.1367(10) 0.124(2)
H4 H 0.7751(14) 0.2441(11) 0.616(2)
H5 H 0.9553(15) 0.2659(11) 0.733(3)
H6 H 1.0956(15) 0.1755(10) 0.660(3)
H7 H 1.0554(15) 0.0701(10) 0.463(3)
H8 H 0.8758(14) 0.0497(10) 0.336(2)
H9 H 0.1478(18) 0.1759(12) 0.044(3)
H10 H 0.2344(17) 0.1853(12) 0.222(3)
H11 H 0.2751(19) 0.1879(13) 0.019(3)
loop_
_geom_bond_atom_site_label_1
_geom_bond_atom_site_label_2
_geom_bond_site_symmetry_1
_geom_bond_site_symmetry_2
S1 C1 1_555 1_555
Cl1 C4 1_555 1_555
F1 C5 1_555 1_555
N1 C1 1_555 1_555
N2 C2 1_555 1_555
N3 C3 1_555 1_555
C1 C2 1_555 1_555
C2 C3 1_555 1_555
C3 C4 1_555 1_555
C4 C5 1_555 1_555
C5 N1 1_555 1_555
C6 N2 1_555 1_555
C7 C6 1_555 1_555
C8 C7 1_555 1_555
C9 C8 1_555 1_555
C10 N3 1_555 1_555
C11 S1 1_555 1_555
C12 C11 1_555 1_555
C13 C12 1_555 1_555
C14 C13 1_555 1_555
C15 C14 1_555 1_555
C16 C11 1_555 1_555
C17 C7 1_555 1_555
H1 C8 1_555 1_555
H2 C9 1_555 1_555
H3 C10 1_555 1_555
H4 C12 1_555 1_555
H5 C13 1_555 1_555
H6 C14 1_555 1_555
H7 C15 1_555 1_555
H8 C16 1_555 1_555
H9 C17 1_555 1_555
H10 C17 1_555 1_555
H11 C17 1_555 1_555
N3 C6 1_555 1_555
C9 C10 1_555 1_555
C15 C16 1_555 1_555

#END
