
#######################################################################
#
#                 Cambridge Crystallographic Data Centre
#                                CCDC 
#
#######################################################################
#
# If this CIF has been generated from an entry in the Cambridge 
# Structural Database, then it will include bibliographic, chemical, 
# crystal, experimental, refinement or atomic coordinate data resulting 
# from the CCDC's data processing and validation procedures.
#
#######################################################################

data_HUJBOE
_chemical_compound_source        'Leaves and twigs of Litsea pedunculata'
_chemical_name_common            
(7'R,8S,8'R)-8-Hydroxy-3',4',4,5-bis(methylenedioxy)-2,7'-cyclolignan-7-one
_chemical_formula_moiety         'C20 H18 O6'
_chemical_name_systematic        
8-(1,3-Benzodioxol-5-yl)-6-hydroxy-6,7-dimethyl-7,8-dihydronaphtho[2,3-d][1,3]dioxol-5(6H)-one
_chemical_properties_biological  
'moderate cytotoxic activity against some human tumour cell lines'
_symmetry_cell_setting           monoclinic
_symmetry_space_group_name_H-M   'C 2'
_symmetry_Int_Tables_number      5
_space_group_name_Hall           'C 2y'
loop_
_symmetry_equiv_pos_site_id
_symmetry_equiv_pos_as_xyz
1 x,y,z
2 -x,y,-z
3 1/2+x,1/2+y,z
4 1/2-x,1/2+y,-z
_cell_length_a                   20.464(5)
_cell_length_b                   7.0021(16)
_cell_length_c                   13.888(3)
_cell_angle_alpha                90
_cell_angle_beta                 124.378(3)
_cell_angle_gamma                90
_cell_volume                     1642.43
_exptl_crystal_colour            colorless
_exptl_crystal_description       irregular
_chemical_melting_point          '168-170 deg.C'
_cell_formula_units_Z            4
loop_
_atom_site_label
_atom_site_type_symbol
_atom_site_fract_x
_atom_site_fract_y
_atom_site_fract_z
C1 C 0.4265(3) 0.7495(7) 0.0495(4)
H1 H 0.4570 0.6431 0.0498
H2 H 0.4357 0.8597 0.0163
C2 C 0.3182(3) 0.7412(6) 0.0529(3)
C3 C 0.2444(3) 0.7292(6) 0.0277(3)
H3 H 0.2021 0.6907 -0.0458
C4 C 0.2330(2) 0.7767(6) 0.1161(3)
C5 C 0.2969(2) 0.8358(5) 0.2255(3)
C6 C 0.3730(2) 0.8445(5) 0.2498(3)
H4 H 0.4162 0.8824 0.3225
C7 C 0.3812(3) 0.7944(5) 0.1611(3)
C8 C 0.1526(3) 0.7638(6) 0.0894(4)
C9 C 0.1406(2) 0.7978(6) 0.1866(3)
C10 C 0.1989(2) 0.9500(6) 0.2707(3)
H5 H 0.1877 1.0670 0.2252
C11 C 0.2849(2) 0.8954(5) 0.3208(3)
H6 H 0.2975 0.7841 0.3712
C12 C 0.1491(3) 0.6031(6) 0.2449(4)
H7 H 0.1460 0.6212 0.3107
H8 H 0.1994 0.5476 0.2706
H9 H 0.1074 0.5194 0.1896
C13 C 0.1868(3) 0.9974(8) 0.3685(3)
H10 H 0.1320 1.0251 0.3345
H11 H 0.2183 1.1065 0.4115
H12 H 0.2026 0.8900 0.4201
C14 C 0.3411(2) 1.0548(5) 0.3972(3)
C15 C 0.3347(2) 1.2337(6) 0.3516(3)
H13 H 0.2981 1.2524 0.2720
C16 C 0.3806(2) 1.3878(6) 0.4194(3)
H14 H 0.3751 1.5081 0.3873
C17 C 0.4337(2) 1.3536(6) 0.5344(4)
C18 C 0.4431(2) 1.1756(6) 0.5818(3)
C19 C 0.3977(2) 1.0221(6) 0.5165(3)
H15 H 0.4042 0.9023 0.5497
C20 C 0.5284(3) 1.3710(7) 0.7262(3)
H16 H 0.5847 1.3748 0.7595
H17 H 0.5197 1.4240 0.7827
O1 O 0.45013(17) 0.7907(4) 0.1661(2)
O2 O 0.34370(19) 0.7025(4) -0.0185(2)
O3 O 0.09510(16) 0.7195(4) -0.0092(2)
O4 O 0.06338(17) 0.8704(5) 0.1386(3)
H18 H 0.0572 0.9685 0.1021
O5 O 0.48588(17) 1.4812(4) 0.6200(2)
O6 O 0.50086(18) 1.1802(5) 0.7000(2)
loop_
_geom_bond_atom_site_label_1
_geom_bond_atom_site_label_2
_geom_bond_site_symmetry_1
_geom_bond_site_symmetry_2
C1 H1 1_555 1_555
H2 C1 1_555 1_555
C2 C3 1_555 1_555
C3 H3 1_555 1_555
C4 C3 1_555 1_555
C5 C4 1_555 1_555
C6 C5 1_555 1_555
H4 C6 1_555 1_555
C7 C2 1_555 1_555
C8 C4 1_555 1_555
C9 C8 1_555 1_555
C10 C9 1_555 1_555
H5 C10 1_555 1_555
C11 C5 1_555 1_555
H6 C11 1_555 1_555
C12 C9 1_555 1_555
H7 C12 1_555 1_555
H8 C12 1_555 1_555
H9 C12 1_555 1_555
C13 C10 1_555 1_555
H10 C13 1_555 1_555
H11 C13 1_555 1_555
H12 C13 1_555 1_555
C14 C11 1_555 1_555
C15 C14 1_555 1_555
H13 C15 1_555 1_555
C16 C15 1_555 1_555
H14 C16 1_555 1_555
C17 C16 1_555 1_555
C18 C17 1_555 1_555
C19 C14 1_555 1_555
H15 C19 1_555 1_555
C20 H16 1_555 1_555
H17 C20 1_555 1_555
O1 C1 1_555 1_555
O2 C1 1_555 1_555
O3 C8 1_555 1_555
O4 C9 1_555 1_555
H18 O4 1_555 1_555
O5 C17 1_555 1_555
O6 C18 1_555 1_555
C2 O2 1_555 1_555
C6 C7 1_555 1_555
C7 O1 1_555 1_555
C10 C11 1_555 1_555
C18 C19 1_555 1_555
C20 O5 1_555 1_555
C20 O6 1_555 1_555

#END
