
#######################################################################
#
#                 Cambridge Crystallographic Data Centre
#                                CCDC 
#
#######################################################################
#
# If this CIF has been generated from an entry in the Cambridge 
# Structural Database, then it will include bibliographic, chemical, 
# crystal, experimental, refinement or atomic coordinate data resulting 
# from the CCDC's data processing and validation procedures.
#
#######################################################################

data_HUJBIZ
_chemical_formula_moiety         'C18 H17 N1 O1 S1'
_chemical_name_systematic        
2,2-Dimethyl-1-(2-phenyl-1,3-benzothiazol-4-yl)propan-1-one
_symmetry_cell_setting           monoclinic
_symmetry_space_group_name_H-M   'P 21/c'
_symmetry_Int_Tables_number      14
_space_group_name_Hall           '-P 2ybc'
loop_
_symmetry_equiv_pos_site_id
_symmetry_equiv_pos_as_xyz
1 x,y,z
2 -x,1/2+y,1/2-z
3 -x,-y,-z
4 x,1/2-y,1/2+z
_cell_length_a                   11.8924(2)
_cell_length_b                   7.36400(10)
_cell_length_c                   35.0669(6)
_cell_angle_alpha                90
_cell_angle_beta                 98.350(2)
_cell_angle_gamma                90
_cell_volume                     3038.45
_exptl_crystal_colour            colorless
_exptl_crystal_description       block
_cell_formula_units_Z            8
loop_
_atom_site_label
_atom_site_type_symbol
_atom_site_fract_x
_atom_site_fract_y
_atom_site_fract_z
S1 S 0.31659(3) 0.27575(5) 0.132391(10)
N1 N 0.39415(10) 0.22534(16) 0.06759(3)
C1 C 0.27655(12) 0.21049(19) 0.05988(4)
C2 C 0.21885(13) 0.23375(19) 0.09183(4)
C3 C 0.32465(13) 0.2813(2) -0.03222(4)
O1 O 0.26219(12) -0.02321(16) -0.02424(4)
C4 C 0.21428(12) 0.17093(19) 0.02367(4)
C5 C 0.54586(13) 0.28335(19) 0.12158(4)
C6 C 0.04091(13) 0.1869(2) 0.05272(5)
H1 H -0.0380 0.1804 0.0497
C7 C 0.09723(13) 0.1604(2) 0.02078(4)
H2 H 0.0548 0.1351 -0.0030
C8 C 0.42620(13) 0.26037(19) 0.10401(4)
C9 C 0.26883(12) 0.1308(2) -0.01159(4)
C10 C 0.10086(13) 0.2223(2) 0.08860(5)
H3 H 0.0638 0.2381 0.1100
C11 C 0.57414(14) 0.3594(2) 0.15825(4)
H4 H 0.5169 0.3958 0.1721
C12 C 0.74527(14) 0.2479(2) 0.11773(5)
H5 H 0.8029 0.2094 0.1043
C13 C 0.27683(14) 0.2702(2) -0.07517(4)
H6 H 0.1967 0.2944 -0.0786
H7 H 0.2898 0.1508 -0.0846
H8 H 0.3141 0.3583 -0.0892
C14 C 0.30072(18) 0.4690(2) -0.01661(5)
H9 H 0.2203 0.4906 -0.0204
H10 H 0.3376 0.5599 -0.0300
H11 H 0.3293 0.4744 0.0104
C15 C 0.63256(13) 0.2279(2) 0.10139(4)
H12 H 0.6148 0.1775 0.0769
C16 C 0.68707(15) 0.3808(2) 0.17414(5)
H13 H 0.7053 0.4328 0.1984
C17 C 0.45299(14) 0.2444(3) -0.02674(5)
H14 H 0.4830 0.2523 0.0001
H15 H 0.4897 0.3327 -0.0409
H16 H 0.4666 0.1250 -0.0361
C18 C 0.77260(14) 0.3250(2) 0.15400(5)
H17 H 0.8483 0.3392 0.1647
S2 S 0.45918(3) 0.80559(5) 0.120765(10)
N2 N 0.32879(10) 0.73321(16) 0.17225(3)
O2 O 0.07093(10) 0.47841(15) 0.17176(3)
C19 C 0.26106(12) 0.72711(19) 0.13643(4)
C20 C 0.14505(12) 0.68392(19) 0.13063(4)
C21 C 0.52624(11) 0.78894(19) 0.20041(4)
C22 C 0.51969(13) 0.6939(2) 0.23452(4)
H18 H 0.4559 0.6239 0.2368
C23 C 0.14695(14) 0.7086(2) 0.06166(4)
H19 H 0.1076 0.7005 0.0368
C24 C 0.43262(12) 0.77385(19) 0.16822(4)
C25 C 0.60817(13) 0.7038(2) 0.26495(4)
H20 H 0.6043 0.6380 0.2874
C26 C 0.70218(13) 0.8112(2) 0.26210(4)
H21 H 0.7609 0.8188 0.2827
C27 C 0.03493(12) 0.7901(2) 0.18620(4)
C28 C 0.26048(13) 0.7541(2) 0.06686(4)
H22 H 0.2981 0.7786 0.0460
C29 C 0.31708(12) 0.76228(19) 0.10456(4)
C30 C 0.62184(12) 0.8945(2) 0.19752(4)
H23 H 0.6276 0.9565 0.1748
C31 C 0.08448(12) 0.6372(2) 0.16434(4)
C32 C 0.70845(12) 0.9070(2) 0.22850(5)
H24 H 0.7711 0.9804 0.2267
C33 C 0.00401(15) 0.7180(3) 0.22411(5)
H25 H -0.0476 0.6178 0.2190
H26 H -0.0314 0.8127 0.2369
H27 H 0.0716 0.6781 0.2403
C34 C 0.08976(13) 0.6742(2) 0.09297(4)
H28 H 0.0130 0.6442 0.0885
C35 C 0.11622(15) 0.9510(2) 0.19374(6)
H29 H 0.1837 0.9134 0.2103
H30 H 0.0799 1.0469 0.2059
H31 H 0.1361 0.9938 0.1697
C36 C -0.07337(14) 0.8527(3) 0.16000(5)
H32 H -0.1251 0.7525 0.1552
H33 H -0.0537 0.8960 0.1360
H34 H -0.1088 0.9488 0.1725
loop_
_geom_bond_atom_site_label_1
_geom_bond_atom_site_label_2
_geom_bond_site_symmetry_1
_geom_bond_site_symmetry_2
S1 C2 1_555 1_555
N1 C1 1_555 1_555
C1 C2 1_555 1_555
C2 C10 1_555 1_555
C3 C9 1_555 1_555
O1 C9 1_555 1_555
C4 C1 1_555 1_555
C5 C8 1_555 1_555
C6 H1 1_555 1_555
C7 C4 1_555 1_555
H2 C7 1_555 1_555
C8 S1 1_555 1_555
C9 C4 1_555 1_555
C10 C6 1_555 1_555
H3 C10 1_555 1_555
C11 C5 1_555 1_555
H4 C11 1_555 1_555
C12 H5 1_555 1_555
C13 C3 1_555 1_555
H6 C13 1_555 1_555
H7 C13 1_555 1_555
H8 C13 1_555 1_555
C14 C3 1_555 1_555
H9 C14 1_555 1_555
H10 C14 1_555 1_555
H11 C14 1_555 1_555
C15 C5 1_555 1_555
H12 C15 1_555 1_555
C16 C11 1_555 1_555
H13 C16 1_555 1_555
C17 C3 1_555 1_555
H14 C17 1_555 1_555
H15 C17 1_555 1_555
H16 C17 1_555 1_555
C18 C12 1_555 1_555
H17 C18 1_555 1_555
S2 C24 1_555 1_555
N2 C19 1_555 1_555
O2 C31 1_555 1_555
C19 C20 1_555 1_555
C20 C31 1_555 1_555
C21 C22 1_555 1_555
C22 H18 1_555 1_555
C23 H19 1_555 1_555
C24 N2 1_555 1_555
C25 C22 1_555 1_555
H20 C25 1_555 1_555
C26 C25 1_555 1_555
H21 C26 1_555 1_555
C27 C31 1_555 1_555
C28 C23 1_555 1_555
H22 C28 1_555 1_555
C29 S2 1_555 1_555
C30 C21 1_555 1_555
H23 C30 1_555 1_555
C32 C26 1_555 1_555
H24 C32 1_555 1_555
C33 C27 1_555 1_555
H25 C33 1_555 1_555
H26 C33 1_555 1_555
H27 C33 1_555 1_555
C34 C20 1_555 1_555
H28 C34 1_555 1_555
C35 C27 1_555 1_555
H29 C35 1_555 1_555
H30 C35 1_555 1_555
H31 C35 1_555 1_555
C36 C27 1_555 1_555
H32 C36 1_555 1_555
H33 C36 1_555 1_555
H34 C36 1_555 1_555
N1 C8 1_555 1_555
C6 C7 1_555 1_555
C12 C15 1_555 1_555
C16 C18 1_555 1_555
C19 C29 1_555 1_555
C21 C24 1_555 1_555
C23 C34 1_555 1_555
C28 C29 1_555 1_555
C30 C32 1_555 1_555

#END
