
#######################################################################
#
#                 Cambridge Crystallographic Data Centre
#                                CCDC 
#
#######################################################################
#
# If this CIF has been generated from an entry in the Cambridge 
# Structural Database, then it will include bibliographic, chemical, 
# crystal, experimental, refinement or atomic coordinate data resulting 
# from the CCDC's data processing and validation procedures.
#
#######################################################################

data_HUJCEU
_chemical_formula_moiety         'C25 H18 B1 F1 N2'
_chemical_name_systematic        
(2-(2'-Pyridyl)-5-fluoroindole-N,N')-diphenylborane
_symmetry_cell_setting           monoclinic
_symmetry_space_group_name_H-M   'C 2/c'
_symmetry_Int_Tables_number      15
_space_group_name_Hall           '-C 2yn'
loop_
_symmetry_equiv_pos_site_id
_symmetry_equiv_pos_as_xyz
1 x,y,z
2 1/2+x,1/2+y,z
3 x,-y,1/2+z
4 1/2+x,1/2-y,1/2+z
5 -x,-y,-z
6 1/2-x,1/2-y,-z
7 -x,y,1/2-z
8 1/2-x,1/2+y,1/2-z
_cell_length_a                   18.486(3)
_cell_length_b                   11.5197(18)
_cell_length_c                   18.403(3)
_cell_angle_alpha                90
_cell_angle_beta                 95.083(3)
_cell_angle_gamma                90
_cell_volume                     3903.57
_exptl_crystal_colour            'yellowish green'
_exptl_crystal_description       block
_chemical_melting_point          '290-292 deg.C'
_cell_formula_units_Z            8
_exptl_crystal_recrystallization_method 'THF/toluene 1:3'
_exptl_crystal_preparation       'bright green/blue luminescent'
loop_
_atom_site_label
_atom_site_type_symbol
_atom_site_fract_x
_atom_site_fract_y
_atom_site_fract_z
B1 B 0.30558(7) 0.60067(10) 0.19386(7)
N1 N 0.21745(5) 0.60977(8) 0.19386(5)
N2 N 0.30379(5) 0.47971(8) 0.15639(5)
C1 C 0.33366(6) 0.70197(10) 0.14329(6)
C2 C 0.35131(8) 0.81290(11) 0.16904(8)
C3 C 0.37454(10) 0.89943(13) 0.12428(10)
C4 C 0.38028(10) 0.87750(14) 0.05177(10)
C5 C 0.36240(10) 0.77035(14) 0.02423(9)
C6 C 0.33958(8) 0.68418(12) 0.06930(7)
C7 C 0.34057(7) 0.59340(9) 0.27741(6)
C8 C 0.40700(7) 0.64161(13) 0.30209(8)
C9 C 0.43504(10) 0.62709(18) 0.37556(10)
C10 C 0.39757(13) 0.56407(18) 0.42294(10)
C11 C 0.33262(13) 0.51520(16) 0.39939(9)
C12 C 0.30505(9) 0.52961(13) 0.32820(7)
C13 C 0.17989(7) 0.69732(12) 0.22031(7)
C14 C 0.10551(8) 0.69407(15) 0.21685(8)
C15 C 0.06927(8) 0.59916(14) 0.18515(8)
C16 C 0.10719(7) 0.50864(13) 0.15827(7)
C17 C 0.18253(6) 0.51494(10) 0.16344(6)
C18 C 0.23526(6) 0.43423(10) 0.14095(6)
C19 C 0.23752(7) 0.32730(10) 0.10765(6)
C20 C 0.31197(7) 0.30536(10) 0.10066(6)
C21 C 0.35188(6) 0.40177(9) 0.13166(6)
C22 C 0.42719(7) 0.40873(10) 0.13262(6)
C23 C 0.46275(8) 0.31981(11) 0.10087(7)
C24 C 0.42292(8) 0.22609(10) 0.07028(7)
C25 C 0.34995(8) 0.21468(11) 0.06969(7)
F1 F 0.46120(5) 0.14121(7) 0.03848(5)
H1 H 0.3500(7) 0.8280(12) 0.2211(8)
H2 H 0.3863(9) 0.9747(16) 0.1455(9)
H3 H 0.3969(8) 0.9366(15) 0.0194(9)
H4 H 0.3702(9) 0.7531(15) -0.0273(10)
H5 H 0.3271(7) 0.6065(12) 0.0466(7)
H6 H 0.4330(7) 0.6892(11) 0.2688(7)
H7 H 0.4803(10) 0.6656(15) 0.3850(9)
H8 H 0.4150(10) 0.5498(16) 0.4740(12)
H9 H 0.3057(10) 0.4688(16) 0.4351(11)
H10 H 0.2545(9) 0.4959(14) 0.3140(8)
H11 H 0.2092(7) 0.7646(12) 0.2408(7)
H12 H 0.0800(9) 0.7588(13) 0.2366(8)
H13 H 0.0164(10) 0.5960(13) 0.1826(8)
H14 H 0.0852(7) 0.4383(13) 0.1356(7)
H15 H 0.1952(7) 0.2791(11) 0.0922(6)
H16 H 0.4549(6) 0.4737(11) 0.1546(6)
H17 H 0.5145(8) 0.3194(12) 0.0979(7)
H18 H 0.3243(7) 0.1504(12) 0.0474(7)
loop_
_geom_bond_atom_site_label_1
_geom_bond_atom_site_label_2
_geom_bond_site_symmetry_1
_geom_bond_site_symmetry_2
B1 N1 1_555 1_555
N1 C13 1_555 1_555
N2 B1 1_555 1_555
C1 B1 1_555 1_555
C2 C1 1_555 1_555
C3 C2 1_555 1_555
C4 C3 1_555 1_555
C5 C4 1_555 1_555
C6 C1 1_555 1_555
C7 B1 1_555 1_555
C8 C7 1_555 1_555
C9 C8 1_555 1_555
C10 C9 1_555 1_555
C11 C10 1_555 1_555
C12 C7 1_555 1_555
C13 C14 1_555 1_555
C14 C15 1_555 1_555
C15 C16 1_555 1_555
C16 C17 1_555 1_555
C17 N1 1_555 1_555
C18 N2 1_555 1_555
C19 C18 1_555 1_555
C20 C19 1_555 1_555
C21 N2 1_555 1_555
C22 C21 1_555 1_555
C23 C22 1_555 1_555
C24 C23 1_555 1_555
C25 C20 1_555 1_555
F1 C24 1_555 1_555
H1 C2 1_555 1_555
H2 C3 1_555 1_555
H3 C4 1_555 1_555
H4 C5 1_555 1_555
H5 C6 1_555 1_555
H6 C8 1_555 1_555
H7 C9 1_555 1_555
H8 C10 1_555 1_555
H9 C11 1_555 1_555
H10 C12 1_555 1_555
H11 C13 1_555 1_555
H12 C14 1_555 1_555
H13 C15 1_555 1_555
H14 C16 1_555 1_555
H15 C19 1_555 1_555
H16 C22 1_555 1_555
H17 C23 1_555 1_555
H18 C25 1_555 1_555
C5 C6 1_555 1_555
C11 C12 1_555 1_555
C17 C18 1_555 1_555
C20 C21 1_555 1_555
C24 C25 1_555 1_555

#END
