
#######################################################################
#
#                 Cambridge Crystallographic Data Centre
#                                CCDC 
#
#######################################################################
#
# If this CIF has been generated from an entry in the Cambridge 
# Structural Database, then it will include bibliographic, chemical, 
# crystal, experimental, refinement or atomic coordinate data resulting 
# from the CCDC's data processing and validation procedures.
#
#######################################################################

data_HUJCOE
_chemical_formula_moiety         'C26 H21 B1 N2 O1'
_chemical_name_systematic        
(2-(2'-Pyridyl)-5-methoxyindole-N,N')-diphenylborane
_symmetry_cell_setting           triclinic
_symmetry_space_group_name_H-M   'P -1'
_symmetry_Int_Tables_number      2
_space_group_name_Hall           '-P 1'
loop_
_symmetry_equiv_pos_site_id
_symmetry_equiv_pos_as_xyz
1 x,y,z
2 -x,-y,-z
_cell_length_a                   7.2396(14)
_cell_length_b                   11.480(2)
_cell_length_c                   12.598(3)
_cell_angle_alpha                84.200(4)
_cell_angle_beta                 76.205(4)
_cell_angle_gamma                78.795(4)
_cell_volume                     995.797
_exptl_crystal_colour            yellow
_exptl_crystal_description       needle
_chemical_melting_point          '251-253 deg.C'
_cell_formula_units_Z            2
_exptl_crystal_recrystallization_method THF/toluene
_exptl_crystal_preparation       'bright green/blue luminescent'
loop_
_atom_site_label
_atom_site_type_symbol
_atom_site_fract_x
_atom_site_fract_y
_atom_site_fract_z
B1 B 0.6441(3) 0.7269(2) 0.18214(18)
N1 N 0.7862(2) 0.82148(13) 0.18359(12)
N2 N 0.4826(2) 0.78144(13) 0.27982(11)
C1 C 0.5766(2) 0.74264(18) 0.06855(15)
C2 C 0.6029(3) 0.8383(2) -0.00882(19)
C3 C 0.5364(4) 0.8490(3) -0.1039(2)
C4 C 0.4378(4) 0.7662(3) -0.1248(2)
C5 C 0.4074(3) 0.6713(3) -0.0508(2)
C6 C 0.4775(3) 0.6604(2) 0.04326(19)
C7 C 0.7504(2) 0.59459(17) 0.21177(15)
C8 C 0.9146(3) 0.5387(2) 0.14120(17)
C9 C 1.0149(3) 0.4280(2) 0.1668(2)
C10 C 0.9488(3) 0.3674(2) 0.2635(2)
C11 C 0.7849(3) 0.4179(2) 0.33442(19)
C12 C 0.6878(3) 0.5295(2) 0.30847(17)
C13 C 0.9614(3) 0.8269(2) 0.11709(18)
C14 C 1.0657(3) 0.9099(2) 0.1288(2)
C15 C 0.9911(3) 0.9893(2) 0.2100(2)
C16 C 0.8130(3) 0.9854(2) 0.27749(18)
C17 C 0.7114(2) 0.90076(17) 0.26313(15)
C18 C 0.5246(3) 0.87700(17) 0.32117(15)
C19 C 0.3794(3) 0.92161(19) 0.40605(16)
C20 C 0.2373(2) 0.84894(16) 0.42048(14)
C21 C 0.3036(2) 0.76254(16) 0.34058(15)
C22 C 0.1930(3) 0.67934(18) 0.33294(17)
C23 C 0.0162(3) 0.68091(19) 0.40528(17)
C24 C -0.0486(3) 0.76505(18) 0.48489(15)
C25 C 0.0582(3) 0.84748(19) 0.49439(17)
C26 C -0.3289(3) 0.6775(2) 0.56691(17)
H1 H -0.2525 0.6036 0.5857
H2 H -0.3594 0.6729 0.4975
H3 H -0.4462 0.6929 0.6221
O1 O -0.22394(18) 0.77027(12) 0.56012(10)
H4 H 0.670(2) 0.8994(16) 0.0075(14)
H5 H 0.558(3) 0.9147(18) -0.1541(16)
H6 H 0.386(3) 0.7717(17) -0.1893(16)
H7 H 0.337(3) 0.6135(17) -0.0616(15)
H8 H 0.457(2) 0.5909(15) 0.0945(13)
H9 H 0.963(2) 0.5794(15) 0.0720(13)
H10 H 1.127(2) 0.3981(15) 0.1183(13)
H11 H 1.020(2) 0.2909(16) 0.2832(14)
H12 H 0.737(2) 0.3779(15) 0.4028(14)
H13 H 0.572(2) 0.5617(14) 0.3611(13)
H14 H 1.008(2) 0.7653(16) 0.0593(14)
H15 H 1.193(2) 0.9117(14) 0.0809(13)
H16 H 1.061(2) 1.0478(16) 0.2176(14)
H17 H 0.760(2) 1.0419(15) 0.3347(13)
H18 H 0.3776(19) 0.9880(13) 0.4436(11)
H19 H 0.235(2) 0.6209(15) 0.2764(13)
H20 H -0.060(2) 0.6219(15) 0.3974(13)
H21 H 0.009(2) 0.9037(14) 0.5481(12)
loop_
_geom_bond_atom_site_label_1
_geom_bond_atom_site_label_2
_geom_bond_site_symmetry_1
_geom_bond_site_symmetry_2
B1 N1 1_555 1_555
N1 C13 1_555 1_555
N2 B1 1_555 1_555
C1 B1 1_555 1_555
C2 C1 1_555 1_555
C3 C2 1_555 1_555
C4 C3 1_555 1_555
C5 C4 1_555 1_555
C6 C1 1_555 1_555
C7 B1 1_555 1_555
C8 C7 1_555 1_555
C9 C8 1_555 1_555
C10 C9 1_555 1_555
C11 C10 1_555 1_555
C12 C7 1_555 1_555
C13 C14 1_555 1_555
C14 C15 1_555 1_555
C15 C16 1_555 1_555
C16 C17 1_555 1_555
C17 N1 1_555 1_555
C18 N2 1_555 1_555
C19 C18 1_555 1_555
C20 C19 1_555 1_555
C21 N2 1_555 1_555
C22 C21 1_555 1_555
C23 C22 1_555 1_555
C24 C23 1_555 1_555
C25 C20 1_555 1_555
C26 H1 1_555 1_555
H2 C26 1_555 1_555
H3 C26 1_555 1_555
O1 C24 1_555 1_555
H4 C2 1_555 1_555
H5 C3 1_555 1_555
H6 C4 1_555 1_555
H7 C5 1_555 1_555
H8 C6 1_555 1_555
H9 C8 1_555 1_555
H10 C9 1_555 1_555
H11 C10 1_555 1_555
H12 C11 1_555 1_555
H13 C12 1_555 1_555
H14 C13 1_555 1_555
H15 C14 1_555 1_555
H16 C15 1_555 1_555
H17 C16 1_555 1_555
H18 C19 1_555 1_555
H19 C22 1_555 1_555
H20 C23 1_555 1_555
H21 C25 1_555 1_555
C5 C6 1_555 1_555
C11 C12 1_555 1_555
C17 C18 1_555 1_555
C20 C21 1_555 1_555
C24 C25 1_555 1_555
C26 O1 1_555 1_555

#END
