
#######################################################################
#
#                 Cambridge Crystallographic Data Centre
#                                CCDC 
#
#######################################################################
#
# If this CIF has been generated from an entry in the Cambridge 
# Structural Database, then it will include bibliographic, chemical, 
# crystal, experimental, refinement or atomic coordinate data resulting 
# from the CCDC's data processing and validation procedures.
#
#######################################################################

data_HUJMIK
_chemical_formula_moiety         'C20 H20 O1'
_chemical_name_systematic        
5-benzyl-3-phenyl-8-oxabicyclo[3.2.1]oct-2-ene
_symmetry_cell_setting           monoclinic
_symmetry_space_group_name_H-M   'P 21/n'
_symmetry_Int_Tables_number      14
_space_group_name_Hall           '-P 2yn'
loop_
_symmetry_equiv_pos_site_id
_symmetry_equiv_pos_as_xyz
1 x,y,z
2 1/2-x,1/2+y,1/2-z
3 -x,-y,-z
4 1/2+x,1/2-y,1/2+z
_cell_length_a                   6.2076(8)
_cell_length_b                   15.3283(17)
_cell_length_c                   16.201(2)
_cell_angle_alpha                90
_cell_angle_beta                 95.237(13)
_cell_angle_gamma                90
_cell_volume                     1535.12
_exptl_crystal_colour            colorless
_exptl_crystal_description       parallelepiped
_cell_formula_units_Z            4
loop_
_atom_site_label
_atom_site_type_symbol
_atom_site_fract_x
_atom_site_fract_y
_atom_site_fract_z
O1 O 0.0856(4) 0.14690(13) 0.39015(14)
C1 C 0.0446(5) 0.22996(19) 0.34716(19)
C2 C 0.1372(5) 0.3016(2) 0.40487(19)
H1 H 0.2940 0.2992 0.4084
H2 H 0.0925 0.3580 0.3820
C3 C 0.0640(5) 0.2930(2) 0.4900(2)
C4 C -0.0334(6) 0.2172(2) 0.5106(2)
H3 H -0.0731 0.2098 0.5641
C5 C -0.0780(6) 0.1444(2) 0.4471(2)
H4 H -0.0861 0.0872 0.4736
C6 C -0.2826(6) 0.1658(3) 0.3932(2)
H5 H -0.3932 0.1889 0.4258
H6 H -0.3390 0.1150 0.3628
C7 C -0.2033(5) 0.2353(2) 0.3346(2)
H7 H -0.2549 0.2228 0.2775
H8 H -0.2532 0.2929 0.3490
C8 C 0.1540(5) 0.2231(2) 0.2663(2)
H9 H 0.0878 0.1753 0.2338
H10 H 0.3050 0.2084 0.2798
C9 C 0.1420(5) 0.3043(2) 0.21308(19)
C10 C -0.0297(6) 0.3189(3) 0.1540(2)
H11 H -0.1409 0.2782 0.1468
C11 C -0.0383(7) 0.3933(3) 0.1055(2)
H12 H -0.1553 0.4020 0.0663
C12 C 0.1240(7) 0.4548(2) 0.1145(2)
H13 H 0.1161 0.5051 0.0822
C13 C 0.2971(6) 0.4409(2) 0.1717(2)
H14 H 0.4084 0.4816 0.1780
C14 C 0.3069(6) 0.3665(2) 0.2201(2)
H15 H 0.4262 0.3577 0.2582
C15 C 0.1111(6) 0.3643(2) 0.5514(2)
C16 C 0.2993(7) 0.4135(3) 0.5537(2)
H16 H 0.3952 0.4043 0.5137
C17 C 0.3469(7) 0.4759(3) 0.6141(3)
H17 H 0.4770 0.5062 0.6155
C18 C 0.2052(7) 0.4936(3) 0.6718(2)
H18 H 0.2355 0.5371 0.7111
C19 C 0.0167(7) 0.4459(2) 0.6707(2)
H19 H -0.0793 0.4563 0.7104
C20 C -0.0300(6) 0.3831(3) 0.6111(2)
H20 H -0.1593 0.3524 0.6106
loop_
_geom_bond_atom_site_label_1
_geom_bond_atom_site_label_2
_geom_bond_site_symmetry_1
_geom_bond_site_symmetry_2
O1 C1 1_555 1_555
C1 C2 1_555 1_555
C2 H1 1_555 1_555
H2 C2 1_555 1_555
C3 C2 1_555 1_555
C4 C3 1_555 1_555
H3 C4 1_555 1_555
C5 O1 1_555 1_555
H4 C5 1_555 1_555
C6 C5 1_555 1_555
H5 C6 1_555 1_555
H6 C6 1_555 1_555
C7 C1 1_555 1_555
H7 C7 1_555 1_555
H8 C7 1_555 1_555
C8 C1 1_555 1_555
H9 C8 1_555 1_555
H10 C8 1_555 1_555
C9 C8 1_555 1_555
C10 C9 1_555 1_555
H11 C10 1_555 1_555
C11 C10 1_555 1_555
H12 C11 1_555 1_555
C12 C11 1_555 1_555
H13 C12 1_555 1_555
C13 C12 1_555 1_555
H14 C13 1_555 1_555
C14 C9 1_555 1_555
H15 C14 1_555 1_555
C15 C3 1_555 1_555
C16 C15 1_555 1_555
H16 C16 1_555 1_555
C17 C16 1_555 1_555
H17 C17 1_555 1_555
C18 C17 1_555 1_555
H18 C18 1_555 1_555
C19 C18 1_555 1_555
H19 C19 1_555 1_555
C20 C15 1_555 1_555
H20 C20 1_555 1_555
C4 C5 1_555 1_555
C6 C7 1_555 1_555
C13 C14 1_555 1_555
C19 C20 1_555 1_555

#END
