
#######################################################################
#
#                 Cambridge Crystallographic Data Centre
#                                CCDC 
#
#######################################################################
#
# If this CIF has been generated from an entry in the Cambridge 
# Structural Database, then it will include bibliographic, chemical, 
# crystal, experimental, refinement or atomic coordinate data resulting 
# from the CCDC's data processing and validation procedures.
#
#######################################################################

data_HUJMAC
_chemical_formula_moiety         'C22 H22 O1'
_chemical_name_systematic        
9-cyclopropyl-11-(4-methylphenyl)-13-oxatricyclo[7.3.1.0^2,7^]trideca-2,4,6,10-tetraene
_symmetry_cell_setting           monoclinic
_symmetry_space_group_name_H-M   'P 21/c'
_symmetry_Int_Tables_number      14
_space_group_name_Hall           '-P 2ybc'
loop_
_symmetry_equiv_pos_site_id
_symmetry_equiv_pos_as_xyz
1 x,y,z
2 -x,1/2+y,1/2-z
3 -x,-y,-z
4 x,1/2-y,1/2+z
_cell_length_a                   18.8889(10)
_cell_length_b                   5.8024(3)
_cell_length_c                   15.1560(8)
_cell_angle_alpha                90
_cell_angle_beta                 95.856(5)
_cell_angle_gamma                90
_cell_volume                     1652.44
_exptl_crystal_colour            colorless
_exptl_crystal_description       parallelepiped
_cell_formula_units_Z            4
loop_
_atom_site_label
_atom_site_type_symbol
_atom_site_fract_x
_atom_site_fract_y
_atom_site_fract_z
O1 O 0.30987(6) 0.43295(19) 0.16865(7)
C1 C 0.25067(9) 0.4488(3) 0.30230(11)
H1 H 0.2594 0.4730 0.3658
H2 H 0.2238 0.3070 0.2925
C2 C 0.32154(8) 0.4249(3) 0.26340(11)
H3 H 0.3409 0.2725 0.2800
C3 C 0.37612(8) 0.6021(3) 0.29801(11)
C4 C 0.41226(9) 0.5756(3) 0.38217(12)
H4 H 0.4019 0.4505 0.4170
C5 C 0.46332(10) 0.7329(4) 0.41450(13)
H5 H 0.4869 0.7146 0.4710
C6 C 0.47925(10) 0.9173(4) 0.36260(14)
H6 H 0.5141 1.0224 0.3839
C7 C 0.44368(9) 0.9464(3) 0.27917(13)
H7 H 0.4547 1.0714 0.2447
C8 C 0.39137(8) 0.7906(3) 0.24598(11)
C9 C 0.35286(9) 0.8198(3) 0.15451(11)
H8 H 0.3855 0.7874 0.1106
H9 H 0.3373 0.9785 0.1468
C10 C 0.28826(9) 0.6602(3) 0.13891(11)
C11 C 0.22721(9) 0.7429(3) 0.18745(11)
H10 H 0.2015 0.8697 0.1645
C12 C 0.20754(8) 0.6463(3) 0.26120(10)
C13 C 0.14246(8) 0.7157(3) 0.30222(10)
C14 C 0.10623(9) 0.9208(3) 0.28084(12)
H11 H 0.1246 1.0232 0.2418
C15 C 0.04382(10) 0.9760(4) 0.31609(13)
H12 H 0.0217 1.1158 0.3010
C16 C 0.01342(10) 0.8292(4) 0.37309(12)
C17 C 0.04964(11) 0.6269(4) 0.39587(13)
H13 H 0.0311 0.5255 0.4351
C18 C 0.11287(10) 0.5716(4) 0.36177(12)
H14 H 0.1360 0.4350 0.3792
C19 C -0.05709(11) 0.8841(5) 0.40706(15)
H15 H -0.0737 1.0310 0.3844
H16 H -0.0512 0.8889 0.4707
H17 H -0.0911 0.7671 0.3877
C20 C 0.26365(10) 0.6410(4) 0.04052(12)
H18 H 0.2482 0.7869 0.0123
C21 C 0.29857(12) 0.4792(4) -0.01820(14)
H19 H 0.3360 0.3803 0.0090
H20 H 0.3052 0.5309 -0.0777
C22 C 0.22426(11) 0.4342(4) 0.00294(13)
H21 H 0.1859 0.4588 -0.0437
H22 H 0.2168 0.3082 0.0430
loop_
_geom_bond_atom_site_label_1
_geom_bond_atom_site_label_2
_geom_bond_site_symmetry_1
_geom_bond_site_symmetry_2
O1 C2 1_555 1_555
C1 H1 1_555 1_555
H2 C1 1_555 1_555
C2 C1 1_555 1_555
H3 C2 1_555 1_555
C3 C2 1_555 1_555
C4 C3 1_555 1_555
H4 C4 1_555 1_555
C5 C4 1_555 1_555
H5 C5 1_555 1_555
C6 C5 1_555 1_555
H6 C6 1_555 1_555
C7 C6 1_555 1_555
H7 C7 1_555 1_555
C8 C3 1_555 1_555
C9 C8 1_555 1_555
H8 C9 1_555 1_555
H9 C9 1_555 1_555
C10 O1 1_555 1_555
C11 C10 1_555 1_555
H10 C11 1_555 1_555
C12 C1 1_555 1_555
C13 C12 1_555 1_555
C14 C13 1_555 1_555
H11 C14 1_555 1_555
C15 C14 1_555 1_555
H12 C15 1_555 1_555
C16 C15 1_555 1_555
C17 C16 1_555 1_555
H13 C17 1_555 1_555
C18 C13 1_555 1_555
H14 C18 1_555 1_555
C19 C16 1_555 1_555
H15 C19 1_555 1_555
H16 C19 1_555 1_555
H17 C19 1_555 1_555
C20 C10 1_555 1_555
H18 C20 1_555 1_555
C21 C20 1_555 1_555
H19 C21 1_555 1_555
H20 C21 1_555 1_555
C22 C20 1_555 1_555
H21 C22 1_555 1_555
H22 C22 1_555 1_555
C7 C8 1_555 1_555
C9 C10 1_555 1_555
C11 C12 1_555 1_555
C17 C18 1_555 1_555
C21 C22 1_555 1_555

#END
