
#######################################################################
#
#                 Cambridge Crystallographic Data Centre
#                                CCDC 
#
#######################################################################
#
# If this CIF has been generated from an entry in the Cambridge 
# Structural Database, then it will include bibliographic, chemical, 
# crystal, experimental, refinement or atomic coordinate data resulting 
# from the CCDC's data processing and validation procedures.
#
#######################################################################

data_HUJTEM
_chemical_formula_moiety         'C29 H28 N2 S1'
_chemical_name_systematic        
2,4-Di-isopropyl-3,7-diphenyl-6-(2-thienyl)-1H-pyrrolo[3,2-c]pyridine
_symmetry_cell_setting           monoclinic
_symmetry_space_group_name_H-M   'P 21/n'
_symmetry_Int_Tables_number      14
_space_group_name_Hall           '-P 2yn'
loop_
_symmetry_equiv_pos_site_id
_symmetry_equiv_pos_as_xyz
1 x,y,z
2 1/2-x,1/2+y,1/2-z
3 -x,-y,-z
4 1/2+x,1/2-y,1/2+z
_cell_length_a                   18.706(4)
_cell_length_b                   10.525(2)
_cell_length_c                   26.112(5)
_cell_angle_alpha                90
_cell_angle_beta                 110.25(3)
_cell_angle_gamma                90
_cell_volume                     4823.19
_exptl_crystal_colour            colorless
_exptl_crystal_description       block
_chemical_melting_point          208-209deg.C
_cell_formula_units_Z            8
_exptl_crystal_recrystallization_method 'hexane/diethyl ether'
loop_
_atom_site_label
_atom_site_type_symbol
_atom_site_fract_x
_atom_site_fract_y
_atom_site_fract_z
S1 S 0.46816(8) 0.76914(14) 0.16118(5)
N1 N 0.4470(2) 0.7441(4) 0.04945(14)
N2 N 0.5835(2) 0.8013(3) -0.04192(14)
H1 H 0.6282 0.8336 -0.0344
C1 C 0.5158(3) 0.8023(4) 0.07403(18)
C2 C 0.5684(3) 0.8274(4) 0.04879(18)
C3 C 0.5442(3) 0.7927(4) -0.00635(19)
C4 C 0.4737(3) 0.7357(4) -0.03345(18)
C5 C 0.4262(2) 0.7105(4) -0.00252(18)
C6 C 0.4720(3) 0.7101(4) -0.08831(16)
C7 C 0.5404(3) 0.7505(5) -0.09132(17)
C8 C 0.6459(3) 0.8787(5) 0.07557(18)
C9 C 0.6666(3) 0.9999(5) 0.06730(18)
H3 H 0.6304 1.0523 0.0431
C10 C 0.7388(3) 1.0473(5) 0.0933(2)
H4 H 0.7514 1.1293 0.0862
C11 C 0.7912(3) 0.9717(6) 0.1297(2)
H5 H 0.8396 1.0033 0.1487
C12 C 0.7733(3) 0.8495(5) 0.13848(18)
H6 H 0.8105 0.7976 0.1620
C13 C 0.7015(3) 0.8026(5) 0.11320(18)
H7 H 0.6894 0.7207 0.1208
C14 C 0.5282(2) 0.8374(4) 0.13178(17)
C15 C 0.5799(2) 0.9226(4) 0.16757(16)
H8 H 0.6156 0.9717 0.1591
C16 C 0.5686(3) 0.9214(5) 0.21889(19)
H9 H 0.5976 0.9693 0.2488
C17 C 0.5106(3) 0.8422(6) 0.21963(17)
H10 H 0.4966 0.8310 0.2502
C18 C 0.4110(3) 0.6480(5) -0.13456(17)
C19 C 0.3457(3) 0.7154(5) -0.16525(18)
H11 H 0.3378 0.7976 -0.1553
C20 C 0.2930(3) 0.6592(6) -0.2103(2)
H12 H 0.2516 0.7055 -0.2326
C21 C 0.3023(3) 0.5340(6) -0.22203(19)
H13 H 0.2651 0.4955 -0.2513
C22 C 0.3637(3) 0.4655(5) -0.1922(2)
H14 H 0.3692 0.3815 -0.2013
C23 C 0.4173(3) 0.5215(5) -0.14872(19)
H15 H 0.4593 0.4742 -0.1279
C24 C 0.3529(2) 0.6350(4) -0.02428(16)
H16 H 0.3287 0.6571 -0.0629
C25 C 0.3712(3) 0.4940(4) -0.02142(17)
H17 H 0.4064 0.4776 -0.0401
H18 H 0.3252 0.4467 -0.0385
H19 H 0.3936 0.4686 0.0161
C26 C 0.2970(2) 0.6652(4) 0.00379(16)
H20 H 0.3186 0.6425 0.0417
H21 H 0.2509 0.6180 -0.0130
H22 H 0.2859 0.7545 0.0007
C27 C 0.5693(3) 0.7417(5) -0.13681(17)
H23 H 0.5252 0.7257 -0.1698
C28 C 0.6234(3) 0.6314(5) -0.13109(19)
H24 H 0.6692 0.6460 -0.1005
H25 H 0.6357 0.6239 -0.1637
H26 H 0.5997 0.5544 -0.1254
C29 C 0.6059(3) 0.8648(5) -0.14669(18)
H27 H 0.5795 0.9361 -0.1387
H28 H 0.6027 0.8685 -0.1841
H29 H 0.6584 0.8670 -0.1234
S2 S 0.80957(9) 0.72187(15) -0.15941(6)
N3 N 0.89878(19) 0.7539(4) -0.04935(15)
N4 N 1.1232(2) 0.6987(3) 0.03978(14)
H2 H 1.1605 0.6667 0.0320
C30 C 0.9429(3) 0.6945(4) -0.07457(17)
C31 C 1.0185(3) 0.6710(4) -0.04975(18)
C32 C 1.0506(3) 0.7068(4) 0.00582(18)
C33 C 1.0059(3) 0.7654(4) 0.03311(18)
C34 C 0.9293(3) 0.7885(4) 0.00253(19)
C35 C 1.0570(3) 0.7918(4) 0.08731(17)
C36 C 1.1275(3) 0.7507(4) 0.08932(18)
C37 C 1.0718(3) 0.6212(5) -0.07733(17)
C38 C 1.0925(3) 0.6970(4) -0.11385(17)
H30 H 1.0729 0.7788 -0.1217
C39 C 1.1416(3) 0.6510(5) -0.13813(18)
H31 H 1.1559 0.7029 -0.1617
C40 C 1.1699(3) 0.5295(6) -0.1282(2)
H32 H 1.2025 0.4987 -0.1453
C41 C 1.1496(3) 0.4546(5) -0.0928(2)
H33 H 1.1682 0.3720 -0.0859
C42 C 1.1018(3) 0.5002(5) -0.06724(17)
H34 H 1.0894 0.4485 -0.0426
C43 C 0.8993(2) 0.6581(5) -0.13219(18)
C44 C 0.9160(2) 0.5730(4) -0.16845(16)
H35 H 0.9606 0.5263 -0.1612
C45 C 0.8535(4) 0.5718(6) -0.2172(2)
H36 H 0.8530 0.5238 -0.2472
C46 C 0.7944(3) 0.6443(7) -0.21781(18)
H37 H 0.7496 0.6506 -0.2477
C47 C 1.0417(3) 0.8522(5) 0.13366(17)
C48 C 1.0030(3) 0.7889(5) 0.16223(17)
H38 H 0.9837 0.7080 0.1513
C49 C 0.9926(3) 0.8456(7) 0.2075(2)
H39 H 0.9691 0.8006 0.2279
C50 C 1.0167(4) 0.9659(7) 0.2215(2)
H40 H 1.0079 1.0036 0.2510
C51 C 1.0540(3) 1.0343(5) 0.1933(2)
H41 H 1.0712 1.1165 0.2036
C52 C 1.0650(3) 0.9759(5) 0.14861(19)
H42 H 1.0887 1.0212 0.1283
C53 C 0.8772(3) 0.8630(4) 0.02513(17)
H43 H 0.8905 0.8406 0.0637
C54 C 0.8914(3) 1.0046(4) 0.02192(17)
H44 H 0.9425 1.0244 0.0450
H45 H 0.8561 1.0517 0.0338
H46 H 0.8847 1.0272 -0.0151
C55 C 0.7924(2) 0.8324(5) -0.00374(17)
H47 H 0.7771 0.8584 -0.0412
H48 H 0.7626 0.8770 0.0139
H49 H 0.7845 0.7426 -0.0020
C56 C 1.2035(3) 0.7594(5) 0.13473(17)
H50 H 1.1934 0.7769 0.1685
C57 C 1.2484(3) 0.6355(5) 0.14322(19)
H51 H 1.2171 0.5668 0.1473
H52 H 1.2929 0.6421 0.1755
H53 H 1.2635 0.6197 0.1122
C58 C 1.2517(3) 0.8698(5) 0.12602(18)
H54 H 1.2614 0.8569 0.0926
H55 H 1.2991 0.8733 0.1560
H56 H 1.2246 0.9482 0.1240
loop_
_geom_bond_atom_site_label_1
_geom_bond_atom_site_label_2
_geom_bond_site_symmetry_1
_geom_bond_site_symmetry_2
S1 C14 1_555 1_555
S2 C43 1_555 1_555
N1 C1 1_555 1_555
N2 H1 1_555 1_555
N3 C30 1_555 1_555
N4 H2 1_555 1_555
C1 C2 1_555 1_555
C2 C3 1_555 1_555
C3 N2 1_555 1_555
C4 C3 1_555 1_555
C5 N1 1_555 1_555
C6 C4 1_555 1_555
C7 N2 1_555 1_555
C8 C2 1_555 1_555
C9 C8 1_555 1_555
H3 C9 1_555 1_555
C10 C9 1_555 1_555
H4 C10 1_555 1_555
C11 C10 1_555 1_555
H5 C11 1_555 1_555
C12 C11 1_555 1_555
H6 C12 1_555 1_555
C13 C8 1_555 1_555
H7 C13 1_555 1_555
C14 C1 1_555 1_555
C15 C14 1_555 1_555
H8 C15 1_555 1_555
C16 C15 1_555 1_555
H9 C16 1_555 1_555
C17 S1 1_555 1_555
H10 C17 1_555 1_555
C18 C6 1_555 1_555
C19 C18 1_555 1_555
H11 C19 1_555 1_555
C20 C19 1_555 1_555
H12 C20 1_555 1_555
C21 C20 1_555 1_555
H13 C21 1_555 1_555
C22 C21 1_555 1_555
H14 C22 1_555 1_555
C23 C18 1_555 1_555
H15 C23 1_555 1_555
C24 C5 1_555 1_555
H16 C24 1_555 1_555
C25 C24 1_555 1_555
H17 C25 1_555 1_555
H18 C25 1_555 1_555
H19 C25 1_555 1_555
C26 C24 1_555 1_555
H20 C26 1_555 1_555
H21 C26 1_555 1_555
H22 C26 1_555 1_555
C27 C7 1_555 1_555
H23 C27 1_555 1_555
C28 C27 1_555 1_555
H24 C28 1_555 1_555
H25 C28 1_555 1_555
H26 C28 1_555 1_555
C29 C27 1_555 1_555
H27 C29 1_555 1_555
H28 C29 1_555 1_555
H29 C29 1_555 1_555
C30 C31 1_555 1_555
C31 C32 1_555 1_555
C32 N4 1_555 1_555
C33 C32 1_555 1_555
C34 N3 1_555 1_555
C35 C33 1_555 1_555
C36 N4 1_555 1_555
C37 C31 1_555 1_555
C38 C37 1_555 1_555
H30 C38 1_555 1_555
C39 C38 1_555 1_555
H31 C39 1_555 1_555
C40 C39 1_555 1_555
H32 C40 1_555 1_555
C41 C40 1_555 1_555
H33 C41 1_555 1_555
C42 C37 1_555 1_555
H34 C42 1_555 1_555
C43 C30 1_555 1_555
C44 C43 1_555 1_555
H35 C44 1_555 1_555
C45 C44 1_555 1_555
H36 C45 1_555 1_555
C46 S2 1_555 1_555
H37 C46 1_555 1_555
C47 C35 1_555 1_555
C48 C47 1_555 1_555
H38 C48 1_555 1_555
C49 C48 1_555 1_555
H39 C49 1_555 1_555
C50 C49 1_555 1_555
H40 C50 1_555 1_555
C51 C50 1_555 1_555
H41 C51 1_555 1_555
C52 C47 1_555 1_555
H42 C52 1_555 1_555
C53 C34 1_555 1_555
H43 C53 1_555 1_555
C54 C53 1_555 1_555
H44 C54 1_555 1_555
H45 C54 1_555 1_555
H46 C54 1_555 1_555
C55 C53 1_555 1_555
H47 C55 1_555 1_555
H48 C55 1_555 1_555
H49 C55 1_555 1_555
C56 C36 1_555 1_555
H50 C56 1_555 1_555
C57 C56 1_555 1_555
H51 C57 1_555 1_555
H52 C57 1_555 1_555
H53 C57 1_555 1_555
C58 C56 1_555 1_555
H54 C58 1_555 1_555
H55 C58 1_555 1_555
H56 C58 1_555 1_555
C4 C5 1_555 1_555
C6 C7 1_555 1_555
C12 C13 1_555 1_555
C16 C17 1_555 1_555
C22 C23 1_555 1_555
C33 C34 1_555 1_555
C35 C36 1_555 1_555
C41 C42 1_555 1_555
C45 C46 1_555 1_555
C51 C52 1_555 1_555

#END
