
#######################################################################
#
#                 Cambridge Crystallographic Data Centre
#                                CCDC 
#
#######################################################################
#
# If this CIF has been generated from an entry in the Cambridge 
# Structural Database, then it will include bibliographic, chemical, 
# crystal, experimental, refinement or atomic coordinate data resulting 
# from the CCDC's data processing and validation procedures.
#
#######################################################################

data_HUJTIR
_chemical_formula_moiety         'C22 H17 F2 N1'
_chemical_name_systematic        
1,1-bis(4-fluorophenyl)-N-(2-(4-methylphenyl)vinyl)methanimine
_symmetry_cell_setting           triclinic
_symmetry_space_group_name_H-M   'P -1'
_symmetry_Int_Tables_number      2
_space_group_name_Hall           '-P 1'
loop_
_symmetry_equiv_pos_site_id
_symmetry_equiv_pos_as_xyz
1 x,y,z
2 -x,-y,-z
_cell_length_a                   8.7580(7)
_cell_length_b                   9.0189(7)
_cell_length_c                   12.1251(9)
_cell_angle_alpha                77.130(4)
_cell_angle_beta                 80.995(4)
_cell_angle_gamma                74.079(5)
_cell_volume                     893.194
_exptl_crystal_colour            yellow
_exptl_crystal_description       block
_cell_formula_units_Z            2
loop_
_atom_site_label
_atom_site_type_symbol
_atom_site_fract_x
_atom_site_fract_y
_atom_site_fract_z
C1 C 0.3744(3) 0.7151(3) 0.79895(19)
C2 C 0.2345(3) 0.8528(2) 0.80893(18)
C3 C 0.0893(3) 0.8573(3) 0.77508(19)
H1 H 0.0789 0.7736 0.7463
C4 C -0.0403(3) 0.9836(3) 0.7833(2)
H2 H -0.1374 0.9867 0.7598
C5 C -0.0218(3) 1.1032(3) 0.8267(2)
C6 C 0.1174(3) 1.1033(3) 0.8618(2)
H3 H 0.1257 1.1869 0.8918
C7 C 0.2461(3) 0.9779(3) 0.8523(2)
H4 H 0.3427 0.9771 0.8755
C8 C 0.3632(3) 0.5603(2) 0.86806(18)
C9 C 0.4780(3) 0.4248(3) 0.8497(2)
H5 H 0.5604 0.4321 0.7918
C10 C 0.4727(3) 0.2794(3) 0.9153(2)
H6 H 0.5499 0.1895 0.9018
C11 C 0.3527(3) 0.2714(3) 0.9995(2)
C12 C 0.2367(3) 0.3995(3) 1.0220(2)
H7 H 0.1557 0.3899 1.0806
C13 C 0.2422(3) 0.5448(3) 0.9555(2)
H8 H 0.1635 0.6334 0.9696
C14 C 0.5226(3) 0.8612(3) 0.6625(2)
H9 H 0.4338 0.9463 0.656
C15 C 0.6599(3) 0.8793(3) 0.6022(2)
H10 H 0.6536 0.9774 0.5556
C16 C 0.8176(3) 0.7716(3) 0.59700(19)
C17 C 0.8620(3) 0.6252(3) 0.6665(2)
H11 H 0.7868 0.5897 0.7215
C18 C 1.0147(3) 0.5314(3) 0.6557(2)
H12 H 1.0404 0.4344 0.7041
C19 C 1.1307(3) 0.5778(4) 0.5747(3)
C20 C 1.2981(4) 0.4744(5) 0.5654(3)
H13 H 1.3286 0.4586 0.4885
H14 H 1.3018 0.3749 0.6154
H15 H 1.3703 0.524 0.5865
C21 C 1.0862(4) 0.7223(4) 0.5046(3)
H16 H 1.1612 0.7565 0.4487
C22 C 0.9346(4) 0.8171(4) 0.5151(2)
H17 H 0.9095 0.9138 0.4663
F1 F -0.14853(18) 1.22797(17) 0.83475(14)
F2 F 0.34860(18) 0.12831(16) 1.06535(13)
N1 N 0.5054(2) 0.7223(2) 0.73424(16)
loop_
_geom_bond_atom_site_label_1
_geom_bond_atom_site_label_2
_geom_bond_site_symmetry_1
_geom_bond_site_symmetry_2
C1 C2 1_555 1_555
C2 C3 1_555 1_555
C3 H1 1_555 1_555
C4 C3 1_555 1_555
H2 C4 1_555 1_555
C5 C4 1_555 1_555
C6 C5 1_555 1_555
H3 C6 1_555 1_555
C7 C2 1_555 1_555
H4 C7 1_555 1_555
C8 C1 1_555 1_555
C9 C8 1_555 1_555
H5 C9 1_555 1_555
C10 C9 1_555 1_555
H6 C10 1_555 1_555
C11 C10 1_555 1_555
C12 C11 1_555 1_555
H7 C12 1_555 1_555
C13 C8 1_555 1_555
H8 C13 1_555 1_555
C14 H9 1_555 1_555
C15 C14 1_555 1_555
H10 C15 1_555 1_555
C16 C15 1_555 1_555
C17 C16 1_555 1_555
H11 C17 1_555 1_555
C18 C17 1_555 1_555
H12 C18 1_555 1_555
C19 C18 1_555 1_555
C20 C19 1_555 1_555
H13 C20 1_555 1_555
H14 C20 1_555 1_555
H15 C20 1_555 1_555
C21 C19 1_555 1_555
H16 C21 1_555 1_555
C22 C16 1_555 1_555
H17 C22 1_555 1_555
F1 C5 1_555 1_555
F2 C11 1_555 1_555
N1 C1 1_555 1_555
C6 C7 1_555 1_555
C12 C13 1_555 1_555
C14 N1 1_555 1_555
C21 C22 1_555 1_555

#END
