
#######################################################################
#
#                 Cambridge Crystallographic Data Centre
#                                CCDC 
#
#######################################################################
#
# If this CIF has been generated from an entry in the Cambridge 
# Structural Database, then it will include bibliographic, chemical, 
# crystal, experimental, refinement or atomic coordinate data resulting 
# from the CCDC's data processing and validation procedures.
#
#######################################################################

data_HUJVAL
_chemical_formula_moiety         'C27 H22 F3 N1 O2'
_chemical_name_systematic        
2,4-bis(4-methoxyphenyl)-6-(4-(trifluoromethyl)benzyl)pyridine
_symmetry_cell_setting           monoclinic
_symmetry_space_group_name_H-M   'P 21/n'
_symmetry_Int_Tables_number      14
_space_group_name_Hall           '-P 2yn'
loop_
_symmetry_equiv_pos_site_id
_symmetry_equiv_pos_as_xyz
1 x,y,z
2 1/2-x,1/2+y,1/2-z
3 -x,-y,-z
4 1/2+x,1/2-y,1/2+z
_cell_length_a                   17.8858(12)
_cell_length_b                   5.3984(4)
_cell_length_c                   24.0688(17)
_cell_angle_alpha                90
_cell_angle_beta                 107.814(2)
_cell_angle_gamma                90
_cell_volume                     2212.53
_exptl_crystal_colour            colorless
_exptl_crystal_description       plate
_cell_formula_units_Z            4
loop_
_atom_site_label
_atom_site_type_symbol
_atom_site_fract_x
_atom_site_fract_y
_atom_site_fract_z
C1 C 0.91553(14) 0.6128(5) 0.17372(11)
H1 H 0.9696 0.6159 0.1999
H2 H 0.9159 0.6298 0.1333
H3 H 0.8908 0.4554 0.1783
C2 C 0.86645(12) 0.8211(4) 0.24334(9)
C3 C 0.89693(12) 0.6453(4) 0.28605(10)
H4 H 0.924 0.505 0.278
C4 C 0.88763(12) 0.6757(4) 0.34081(9)
H5 H 0.9077 0.5527 0.3697
C5 C 0.84977(12) 0.8812(4) 0.35462(9)
C6 C 0.81935(12) 1.0548(4) 0.31052(9)
H6 H 0.7929 1.1964 0.3186
C7 C 0.82671(12) 1.0261(4) 0.25561(9)
H7 H 0.8048 1.1456 0.2262
C8 C 0.84245(12) 0.9155(4) 0.41414(9)
C9 C 0.78805(12) 1.0800(4) 0.42417(9)
H8 H 0.7546 1.1721 0.3926
C10 C 0.78239(12) 1.1101(4) 0.47994(9)
C11 C 0.83162(12) 0.9758(4) 0.52479(9)
H9 H 0.8298 0.9961 0.5635
C12 C 0.88326(13) 0.8128(5) 0.51323(10)
C13 C 0.93826(15) 0.6602(6) 0.56124(11)
H10 H 0.9332 0.4841 0.5492
H11 H 0.9929 0.7119 0.5657
C14 C 0.92415(14) 0.6810(5) 0.61971(10)
C15 C 0.87345(18) 0.5205(6) 0.63496(12)
H12 H 0.8491 0.3911 0.609
C16 C 0.85764(18) 0.5451(6) 0.68735(12)
H13 H 0.8228 0.4327 0.6971
C17 C 0.89224(15) 0.7320(5) 0.72543(10)
C18 C 0.87635(18) 0.7674(6) 0.78170(12)
C19 C 0.94483(14) 0.8872(5) 0.71165(12)
H14 H 0.9706 1.0126 0.7384
C20 C 0.96039(14) 0.8621(5) 0.65926(12)
H15 H 0.9967 0.9712 0.6502
C21 C 0.72446(13) 1.2835(4) 0.49128(9)
C22 C 0.69818(13) 1.4897(4) 0.45588(9)
H16 H 0.7179 1.52 0.4241
C23 C 0.64410(13) 1.6504(4) 0.46620(10)
H17 H 0.6264 1.7888 0.4413
C24 C 0.61534(13) 1.6108(4) 0.51294(10)
C25 C 0.53915(15) 1.7712(5) 0.57076(10)
H18 H 0.5116 1.6153 0.5721
H19 H 0.5043 1.9108 0.5711
H20 H 0.5861 1.7818 0.6049
C26 C 0.64080(14) 1.4078(4) 0.54882(10)
H21 H 0.6215 1.3794 0.5809
C27 C 0.69441(14) 1.2469(4) 0.53760(10)
H22 H 0.7113 1.107 0.5622
F1 F 0.8532(9) 1.0073(16) 0.7875(6)
F2 F 0.8196(8) 0.628(3) 0.7909(6)
F3 F 0.9388(5) 0.739(3) 0.8289(4)
N1 N 0.89035(11) 0.7807(4) 0.45876(9)
O1 O 0.87225(8) 0.8134(3) 0.18784(6)
O2 O 0.56161(9) 1.7794(3) 0.51875(7)
F4? F 0.9423(6) 0.800(4) 0.8256(6)
F5? F 0.8286(11) 0.950(3) 0.7823(8)
F6? F 0.8429(12) 0.560(3) 0.7957(6)
loop_
_geom_bond_atom_site_label_1
_geom_bond_atom_site_label_2
_geom_bond_site_symmetry_1
_geom_bond_site_symmetry_2
C1 H1 1_555 1_555
H2 C1 1_555 1_555
H3 C1 1_555 1_555
C2 C3 1_555 1_555
C3 H4 1_555 1_555
C4 C3 1_555 1_555
H5 C4 1_555 1_555
C5 C4 1_555 1_555
C6 C5 1_555 1_555
H6 C6 1_555 1_555
C7 C2 1_555 1_555
H7 C7 1_555 1_555
C8 C5 1_555 1_555
C9 C8 1_555 1_555
H8 C9 1_555 1_555
C10 C9 1_555 1_555
C11 C10 1_555 1_555
H9 C11 1_555 1_555
C12 C11 1_555 1_555
C13 C12 1_555 1_555
H10 C13 1_555 1_555
H11 C13 1_555 1_555
C14 C13 1_555 1_555
C15 C14 1_555 1_555
H12 C15 1_555 1_555
C16 C15 1_555 1_555
H13 C16 1_555 1_555
C17 C16 1_555 1_555
C18 C17 1_555 1_555
C19 C17 1_555 1_555
H14 C19 1_555 1_555
C20 C14 1_555 1_555
H15 C20 1_555 1_555
C21 C10 1_555 1_555
C22 C21 1_555 1_555
H16 C22 1_555 1_555
C23 C22 1_555 1_555
H17 C23 1_555 1_555
C24 C23 1_555 1_555
C25 H18 1_555 1_555
H19 C25 1_555 1_555
H20 C25 1_555 1_555
C26 C24 1_555 1_555
H21 C26 1_555 1_555
C27 C21 1_555 1_555
H22 C27 1_555 1_555
F1 C18 1_555 1_555
F2 C18 1_555 1_555
F3 C18 1_555 1_555
N1 C8 1_555 1_555
O1 C1 1_555 1_555
O2 C24 1_555 1_555
C2 O1 1_555 1_555
C6 C7 1_555 1_555
C12 N1 1_555 1_555
C19 C20 1_555 1_555
C25 O2 1_555 1_555
C26 C27 1_555 1_555

#END
