
#######################################################################
#
#                 Cambridge Crystallographic Data Centre
#                                CCDC 
#
#######################################################################
#
# If this CIF has been generated from an entry in the Cambridge 
# Structural Database, then it will include bibliographic, chemical, 
# crystal, experimental, refinement or atomic coordinate data resulting 
# from the CCDC's data processing and validation procedures.
#
#######################################################################

data_HUKHUR01
_chemical_name_common            'phenylmethanaminium 2-nitrobenzoate'
_chemical_formula_moiety         'C7 H10 N1 1+,C7 H4 N1 O4 1-'
_chemical_name_systematic        'Benzylammonium 2-nitrobenzoate'
_symmetry_cell_setting           monoclinic
_symmetry_space_group_name_H-M   'P 21/c'
_symmetry_Int_Tables_number      14
_space_group_name_Hall           '-P 2ybc'
loop_
_symmetry_equiv_pos_site_id
_symmetry_equiv_pos_as_xyz
1 x,y,z
2 -x,1/2+y,1/2-z
3 -x,-y,-z
4 x,1/2-y,1/2+z
_cell_length_a                   16.9163(16)
_cell_length_b                   18.7587(17)
_cell_length_c                   13.0003(12)
_cell_angle_alpha                90
_cell_angle_beta                 95.1840(10)
_cell_angle_gamma                90
_cell_volume                     4108.48
_exptl_crystal_colour            colorless
_exptl_crystal_description       block
_cell_formula_units_Z            12
loop_
_atom_site_label
_atom_site_type_symbol
_atom_site_fract_x
_atom_site_fract_y
_atom_site_fract_z
N1 N 0.96011(14) 0.53173(13) 0.31693(17)
H1 H 0.9091 0.5225 0.2989
H2 H 0.9642 0.5704 0.3567
H3 H 0.9822 0.4948 0.3516
C1 C 1.0016(2) 0.54419(18) 0.2228(2)
H4 H 1.0557 0.5591 0.2425
H5 H 0.9751 0.5822 0.1824
C2 C 1.0022(2) 0.47781(17) 0.1583(2)
C3 C 0.9362(2) 0.4565(2) 0.0971(3)
H6 H 0.8904 0.4842 0.0941
C4 C 0.9369(3) 0.3950(3) 0.0403(3)
H7 H 0.8913 0.3808 0.0002
C5 C 1.0026(3) 0.3551(2) 0.0421(3)
H8 H 1.0027 0.3138 0.0026
C6 C 1.0693(3) 0.3750(2) 0.1015(3)
H9 H 1.1148 0.3470 0.1031
C7 C 1.0693(2) 0.4367(2) 0.1597(3)
H10 H 1.1150 0.4504 0.2000
N2 N 0.59907(15) 0.44144(15) 0.45615(19)
H11 H 0.6397 0.4361 0.4179
H12 H 0.6121 0.4724 0.5067
H13 H 0.5571 0.4576 0.4168
C8 C 0.5796(2) 0.3719(2) 0.5012(3)
H14 H 0.5385 0.3786 0.5476
H15 H 0.6263 0.3534 0.5413
C9 C 0.5518(2) 0.31838(18) 0.4200(3)
C10 C 0.4782(2) 0.2878(2) 0.4184(3)
H16 H 0.4438 0.3010 0.4669
C11 C 0.4551(3) 0.2370(3) 0.3439(4)
H17 H 0.4053 0.2158 0.3427
C12 C 0.5054(4) 0.2184(2) 0.2729(4)
H18 H 0.4903 0.1834 0.2243
C13 C 0.5769(3) 0.2499(3) 0.2719(4)
H19 H 0.6101 0.2380 0.2213
C14 C 0.6001(2) 0.2989(2) 0.3452(3)
H20 H 0.6499 0.3199 0.3448
N3 N 0.20526(14) 0.44884(14) 0.47642(18)
H21 H 0.2313 0.4628 0.4234
H22 H 0.2123 0.4807 0.5272
H23 H 0.1537 0.4452 0.4562
C15 C 0.2359(2) 0.37876(18) 0.5137(2)
H24 H 0.2108 0.3659 0.5753
H25 H 0.2925 0.3825 0.5325
C16 C 0.22094(18) 0.32077(17) 0.4344(2)
C17 C 0.1800(2) 0.26122(19) 0.4566(3)
H26 H 0.1594 0.2575 0.5203
C18 C 0.1686(2) 0.2061(2) 0.3867(3)
H27 H 0.1410 0.1656 0.4040
C19 C 0.1970(2) 0.2107(2) 0.2937(3)
H28 H 0.1900 0.1731 0.2471
C20 C 0.2357(3) 0.2699(3) 0.2684(3)
H29 H 0.2537 0.2740 0.2031
C21 C 0.2488(3) 0.3245(2) 0.3387(3)
H30 H 0.2770 0.3646 0.3210
N4 N 0.84481(17) 0.34865(18) 0.5066(2)
O1 O 1.04320(11) 0.42651(11) 0.43247(16)
O2 O 1.03259(12) 0.34841(11) 0.55934(16)
O3 O 0.87444(14) 0.40461(15) 0.53926(18)
O4 O 0.78640(16) 0.32288(17) 0.5410(2)
C22 C 1.01420(17) 0.37188(16) 0.4706(2)
C23 C 0.95628(18) 0.32809(15) 0.4016(2)
C24 C 0.88008(18) 0.31264(16) 0.4226(2)
C25 C 0.8335(2) 0.26454(19) 0.3638(3)
H31 H 0.7823 0.2543 0.3803
C26 C 0.8630(3) 0.23217(19) 0.2815(3)
H32 H 0.8325 0.1988 0.2427
C27 C 0.9373(3) 0.24869(19) 0.2561(3)
H33 H 0.9568 0.2279 0.1985
C28 C 0.9835(2) 0.29627(17) 0.3159(2)
H34 H 1.0341 0.3071 0.2980
N5 N 0.59307(17) 0.53009(16) 0.1922(2)
O5 O 0.79966(13) 0.52262(13) 0.25414(17)
O6 O 0.74522(12) 0.45524(12) 0.36972(16)
O7 O 0.62389(14) 0.55609(14) 0.2720(2)
O8 O 0.53530(16) 0.55543(15) 0.1430(2)
C29 C 0.75186(18) 0.47721(17) 0.2800(2)
C30 C 0.70079(17) 0.44123(16) 0.1949(2)
C31 C 0.62684(18) 0.46468(17) 0.1536(2)
C32 C 0.5842(2) 0.4295(2) 0.0738(3)
H35 H 0.5348 0.4467 0.0477
C33 C 0.6142(3) 0.3700(2) 0.0334(3)
H36 H 0.5854 0.3460 -0.0203
C34 C 0.6872(3) 0.3452(2) 0.0716(3)
H37 H 0.7080 0.3043 0.0437
C35 C 0.7298(2) 0.38045(18) 0.1514(2)
H38 H 0.7792 0.3630 0.1766
N6 N 0.2794(2) 0.5593(2) 0.1865(3)
O9 O 0.46648(16) 0.48388(17) 0.3402(2)
O10 O 0.34202(15) 0.48171(15) 0.37723(18)
O11 O 0.3239(2) 0.59986(17) 0.2321(3)
O12 O 0.2097(3) 0.5719(3) 0.1661(4)
C36 C 0.3950(2) 0.47618(18) 0.3170(3)
C37 C 0.36758(18) 0.45673(18) 0.2076(2)
C38 C 0.30948(19) 0.49257(19) 0.1492(3)
C39 C 0.2799(2) 0.4697(3) 0.0526(3)
H39 H 0.2401 0.4951 0.0145
C40 C 0.3104(4) 0.4091(4) 0.0144(4)
H40 H 0.2914 0.3927 -0.0507
C41 C 0.3677(4) 0.3729(3) 0.0702(4)
H41 H 0.3879 0.3314 0.0435
C42 C 0.3969(2) 0.3964(2) 0.1663(3)
H42 H 0.4370 0.3710 0.2036
loop_
_geom_bond_atom_site_label_1
_geom_bond_atom_site_label_2
_geom_bond_site_symmetry_1
_geom_bond_site_symmetry_2
N1 H1 1_555 1_555
H2 N1 1_555 1_555
H3 N1 1_555 1_555
C1 N1 1_555 1_555
H4 C1 1_555 1_555
H5 C1 1_555 1_555
C2 C1 1_555 1_555
C3 C2 1_555 1_555
H6 C3 1_555 1_555
C4 C3 1_555 1_555
H7 C4 1_555 1_555
C5 C4 1_555 1_555
H8 C5 1_555 1_555
C6 C5 1_555 1_555
H9 C6 1_555 1_555
C7 C2 1_555 1_555
H10 C7 1_555 1_555
N2 H11 1_555 1_555
H12 N2 1_555 1_555
H13 N2 1_555 1_555
C8 N2 1_555 1_555
H14 C8 1_555 1_555
H15 C8 1_555 1_555
C9 C8 1_555 1_555
C10 C9 1_555 1_555
H16 C10 1_555 1_555
C11 C10 1_555 1_555
H17 C11 1_555 1_555
C12 C11 1_555 1_555
H18 C12 1_555 1_555
C13 C12 1_555 1_555
H19 C13 1_555 1_555
C14 C9 1_555 1_555
H20 C14 1_555 1_555
N3 H21 1_555 1_555
H22 N3 1_555 1_555
H23 N3 1_555 1_555
C15 N3 1_555 1_555
H24 C15 1_555 1_555
H25 C15 1_555 1_555
C16 C15 1_555 1_555
C17 C16 1_555 1_555
H26 C17 1_555 1_555
C18 C17 1_555 1_555
H27 C18 1_555 1_555
C19 C18 1_555 1_555
H28 C19 1_555 1_555
C20 C19 1_555 1_555
H29 C20 1_555 1_555
C21 C16 1_555 1_555
H30 C21 1_555 1_555
N4 O3 1_555 1_555
O1 C22 1_555 1_555
O2 C22 1_555 1_555
O4 N4 1_555 1_555
C22 C23 1_555 1_555
C23 C24 1_555 1_555
C24 N4 1_555 1_555
C25 C24 1_555 1_555
H31 C25 1_555 1_555
C26 C25 1_555 1_555
H32 C26 1_555 1_555
C27 C26 1_555 1_555
H33 C27 1_555 1_555
C28 C23 1_555 1_555
H34 C28 1_555 1_555
N5 O7 1_555 1_555
O5 C29 1_555 1_555
O6 C29 1_555 1_555
O8 N5 1_555 1_555
C29 C30 1_555 1_555
C30 C31 1_555 1_555
C31 N5 1_555 1_555
C32 C31 1_555 1_555
H35 C32 1_555 1_555
C33 C32 1_555 1_555
H36 C33 1_555 1_555
C34 C33 1_555 1_555
H37 C34 1_555 1_555
C35 C30 1_555 1_555
H38 C35 1_555 1_555
N6 O11 1_555 1_555
O9 C36 1_555 1_555
O10 C36 1_555 1_555
O12 N6 1_555 1_555
C36 C37 1_555 1_555
C37 C38 1_555 1_555
C38 N6 1_555 1_555
C39 C38 1_555 1_555
H39 C39 1_555 1_555
C40 C39 1_555 1_555
H40 C40 1_555 1_555
C41 C40 1_555 1_555
H41 C41 1_555 1_555
C42 C37 1_555 1_555
H42 C42 1_555 1_555
C6 C7 1_555 1_555
C13 C14 1_555 1_555
C20 C21 1_555 1_555
C27 C28 1_555 1_555
C34 C35 1_555 1_555
C41 C42 1_555 1_555

#END
