
#######################################################################
#
#                 Cambridge Crystallographic Data Centre
#                                CCDC 
#
#######################################################################
#
# If this CIF has been generated from an entry in the Cambridge 
# Structural Database, then it will include bibliographic, chemical, 
# crystal, experimental, refinement or atomic coordinate data resulting 
# from the CCDC's data processing and validation procedures.
#
#######################################################################

data_HUKPAF
_chemical_formula_moiety         'C16 H14 Br1 N1 O3'
_chemical_name_systematic        3-(4-Bromophenyl)-4-nitro-1-phenylbutan-1-one
_symmetry_cell_setting           orthorhombic
_symmetry_space_group_name_H-M   'P 21 21 21'
_symmetry_Int_Tables_number      19
_space_group_name_Hall           'P 2ac 2ab'
loop_
_symmetry_equiv_pos_site_id
_symmetry_equiv_pos_as_xyz
1 x,y,z
2 1/2+x,1/2-y,-z
3 -x,1/2+y,1/2-z
4 1/2-x,-y,1/2+z
_cell_length_a                   5.6094(3)
_cell_length_b                   16.6026(10)
_cell_length_c                   18.3348(12)
_cell_angle_alpha                90
_cell_angle_beta                 90
_cell_angle_gamma                90
_cell_volume                     1707.53
_exptl_crystal_colour            colorless
_exptl_crystal_description       platelet
_cell_formula_units_Z            4
loop_
_atom_site_label
_atom_site_type_symbol
_atom_site_fract_x
_atom_site_fract_y
_atom_site_fract_z
Br1 Br 0.53302(19) 0.37563(5) 0.78564(5)
O1 O 0.7928(9) 0.5021(3) 0.4649(3)
O2 O -0.0155(13) 0.7338(3) 0.5910(3)
O3 O 0.3628(13) 0.7330(4) 0.5962(4)
N1 N 0.1779(14) 0.7090(4) 0.5720(4)
C1 C 0.4004(13) 0.5939(4) 0.5132(3)
C2 C 0.4238(12) 0.5421(3) 0.5824(3)
C3 C 0.6075(13) 0.5541(5) 0.6308(3)
C4 C 0.6383(14) 0.5059(5) 0.6916(4)
C5 C 0.4826(15) 0.4453(4) 0.7055(4)
C6 C 0.2858(16) 0.4343(5) 0.6595(5)
C7 C 0.2589(15) 0.4829(4) 0.5989(4)
C8 C 0.3876(13) 0.5421(4) 0.4435(4)
C9 C 0.6052(13) 0.4909(4) 0.4297(4)
C10 C 0.5929(13) 0.4267(4) 0.3748(4)
C11 C 0.7777(15) 0.3713(5) 0.3697(4)
C12 C 0.7711(18) 0.3084(5) 0.3177(6)
C13 C 0.5835(19) 0.3035(5) 0.2708(5)
C14 C 0.3980(16) 0.3594(5) 0.2742(5)
C15 C 0.3994(14) 0.4210(5) 0.3269(4)
C16 C 0.1802(14) 0.6453(4) 0.5128(4)
H1 H 0.5400 0.6292 0.5099
H2 H 0.7144 0.5959 0.6223
H3 H 0.7657 0.5150 0.7230
H4 H 0.1740 0.3945 0.6696
H5 H 0.1274 0.4757 0.5687
H6 H 0.9077 0.3757 0.4009
H7 H 0.8938 0.2708 0.3156
H8 H 0.5789 0.2625 0.2363
H9 H 0.2722 0.3558 0.2413
H10 H 0.2737 0.4573 0.3298
H11 H 0.2507 0.5067 0.4475
H12 H 0.3666 0.5778 0.4022
H13 H 0.1692 0.6720 0.4659
H14 H 0.0427 0.6107 0.5196
loop_
_geom_bond_atom_site_label_1
_geom_bond_atom_site_label_2
_geom_bond_site_symmetry_1
_geom_bond_site_symmetry_2
Br1 C5 1_555 1_555
O1 C9 1_555 1_555
O2 N1 1_555 1_555
O3 N1 1_555 1_555
N1 C16 1_555 1_555
C1 C2 1_555 1_555
C2 C3 1_555 1_555
C3 C4 1_555 1_555
C4 C5 1_555 1_555
C5 C6 1_555 1_555
C6 C7 1_555 1_555
C7 C2 1_555 1_555
C8 C1 1_555 1_555
C9 C8 1_555 1_555
C10 C9 1_555 1_555
C11 C10 1_555 1_555
C12 C11 1_555 1_555
C13 C12 1_555 1_555
C14 C13 1_555 1_555
C15 C10 1_555 1_555
C16 C1 1_555 1_555
H1 C1 1_555 1_555
H2 C3 1_555 1_555
H3 C4 1_555 1_555
H4 C6 1_555 1_555
H5 C7 1_555 1_555
H6 C11 1_555 1_555
H7 C12 1_555 1_555
H8 C13 1_555 1_555
H9 C14 1_555 1_555
H10 C15 1_555 1_555
H11 C8 1_555 1_555
H12 C8 1_555 1_555
H13 C16 1_555 1_555
H14 C16 1_555 1_555
C14 C15 1_555 1_555

#END
