
#######################################################################
#
#                 Cambridge Crystallographic Data Centre
#                                CCDC 
#
#######################################################################
#
# If this CIF has been generated from an entry in the Cambridge 
# Structural Database, then it will include bibliographic, chemical, 
# crystal, experimental, refinement or atomic coordinate data resulting 
# from the CCDC's data processing and validation procedures.
#
#######################################################################

data_HUKROU01
_chemical_formula_moiety         'C3 H4 N8'
_chemical_name_systematic        5-(1H-tetrazol-5-ylmethyl)-1H-tetrazole
_symmetry_cell_setting           orthorhombic
_symmetry_space_group_name_H-M   'P b c 21'
_symmetry_Int_Tables_number      29
_space_group_name_Hall           'P 2c -2b'
loop_
_symmetry_equiv_pos_site_id
_symmetry_equiv_pos_as_xyz
1 x,y,z
2 -x,-y,1/2+z
3 -x,1/2+y,z
4 x,1/2-y,1/2+z
_cell_length_a                   6.870(2)
_cell_length_b                   9.755(3)
_cell_length_c                   18.008(6)
_cell_angle_alpha                90
_cell_angle_beta                 90
_cell_angle_gamma                90
_cell_volume                     1206.84
_exptl_crystal_colour            colorless
_exptl_crystal_description       Prism
_cell_formula_units_Z            8
loop_
_atom_site_label
_atom_site_type_symbol
_atom_site_fract_x
_atom_site_fract_y
_atom_site_fract_z
N1 N 0.5205(4) 0.4919(2) 0.07154(13)
N2 N 0.4557(4) 0.3827(2) 0.10912(15)
N3 N 0.5378(4) 0.2769(2) 0.07901(15)
N4 N 0.6539(4) 0.3136(2) 0.02166(14)
N5 N 1.0210(4) 0.3773(2) -0.05612(15)
N6 N 1.2133(4) 0.3941(2) -0.07043(15)
N7 N 1.2565(3) 0.5233(2) -0.07352(15)
N8 N 1.0902(3) 0.5917(2) -0.06210(13)
C1 C 0.6415(4) 0.4494(2) 0.01817(14)
C2 C 0.7387(4) 0.5403(3) -0.03738(17)
H1 H 0.7332 0.6362 -0.0195
H2 H 0.6664 0.5356 -0.0849
C3 C 0.9477(4) 0.5017(2) -0.05103(15)
H3 H 0.489(7) 0.583(5) 0.082(3)
H4 H 1.074(5) 0.680(4) -0.061(2)
N9 N 0.0344(4) 0.2072(2) 0.14914(13)
N10 N -0.0380(4) 0.0981(2) 0.11286(15)
N11 N 0.0321(4) -0.0091(2) 0.14705(14)
N12 N 0.1470(3) 0.0283(2) 0.20555(13)
N13 N 0.5223(4) 0.0906(2) 0.27881(14)
N14 N 0.7180(4) 0.1068(2) 0.29133(15)
N15 N 0.7635(3) 0.2360(2) 0.29311(15)
N16 N 0.5973(3) 0.3056(2) 0.28081(13)
C4 C 0.1458(4) 0.1637(2) 0.20562(13)
C5 C 0.2436(4) 0.2555(3) 0.26053(16)
H5 H 0.1728 0.2510 0.3084
H6 H 0.2374 0.3512 0.2424
C6 C 0.4513(4) 0.2166(2) 0.27281(13)
H7 H 0.011(7) 0.306(5) 0.139(3)
H8 H 0.603(6) 0.406(4) 0.286(2)
loop_
_geom_bond_atom_site_label_1
_geom_bond_atom_site_label_2
_geom_bond_site_symmetry_1
_geom_bond_site_symmetry_2
N1 N2 1_555 1_555
N2 N3 1_555 1_555
N3 N4 1_555 1_555
N4 C1 1_555 1_555
N5 N6 1_555 1_555
N6 N7 1_555 1_555
N7 N8 1_555 1_555
N8 C3 1_555 1_555
C1 N1 1_555 1_555
C2 C1 1_555 1_555
H1 C2 1_555 1_555
H2 C2 1_555 1_555
C3 N5 1_555 1_555
H3 N1 1_555 1_555
H4 N8 1_555 1_555
N9 N10 1_555 1_555
N10 N11 1_555 1_555
N11 N12 1_555 1_555
N12 C4 1_555 1_555
N13 N14 1_555 1_555
N14 N15 1_555 1_555
N15 N16 1_555 1_555
N16 C6 1_555 1_555
C4 N9 1_555 1_555
C5 C4 1_555 1_555
H5 C5 1_555 1_555
H6 C5 1_555 1_555
C6 N13 1_555 1_555
H7 N9 1_555 1_555
H8 N16 1_555 1_555
C2 C3 1_555 1_555
C5 C6 1_555 1_555

#END
