
#######################################################################
#
#                 Cambridge Crystallographic Data Centre
#                                CCDC 
#
#######################################################################
#
# If this CIF has been generated from an entry in the Cambridge 
# Structural Database, then it will include bibliographic, chemical, 
# crystal, experimental, refinement or atomic coordinate data resulting 
# from the CCDC's data processing and validation procedures.
#
#######################################################################

data_HUKROV
_chemical_compound_source        'roots of Cacalia roborowskii'
_chemical_formula_moiety         'C16 H24 O5'
_chemical_name_systematic        
8,8a-Dihydroxy-9a-methoxy-3,4a,5-trimethyl-4a,5,6,7,8,8a,9,9a-octahydronaphtho[2,3-b]furan-2(4H)-one
_symmetry_cell_setting           monoclinic
_symmetry_space_group_name_H-M   'P 21'
_symmetry_Int_Tables_number      4
_space_group_name_Hall           'P 2yb'
loop_
_symmetry_equiv_pos_site_id
_symmetry_equiv_pos_as_xyz
1 x,y,z
2 -x,1/2+y,-z
_cell_length_a                   14.338(2)
_cell_length_b                   6.9212(12)
_cell_length_c                   15.891(3)
_cell_angle_alpha                90
_cell_angle_beta                 98.294(3)
_cell_angle_gamma                90
_cell_volume                     1560.47
_chemical_melting_point          157-160deg.C
_cell_formula_units_Z            4
loop_
_atom_site_label
_atom_site_type_symbol
_atom_site_fract_x
_atom_site_fract_y
_atom_site_fract_z
C1 C 0.8844(3) 0.2851(7) 0.6012(3)
C2 C 0.8075(3) 0.3989(7) 0.5529(2)
C3 C 0.8038(3) 0.5669(6) 0.5903(2)
C4 C 0.8771(3) 0.5751(6) 0.6680(2)
C5 C 0.8316(2) 0.6143(6) 0.7473(2)
H1 H 0.7982 0.4996 0.7614
H2 H 0.8805 0.6419 0.7947
C6 C 0.7631(2) 0.7839(6) 0.7349(2)
C7 C 0.7214(3) 0.8258(6) 0.8168(2)
H3 H 0.7732 0.8570 0.8619
C8 C 0.6546(3) 0.9977(7) 0.8052(2)
H4 H 0.6911 1.1147 0.8018
H5 H 0.6225 1.0082 0.8547
C9 C 0.5812(3) 0.9833(7) 0.7261(2)
H6 H 0.5461 1.1034 0.7189
H7 H 0.5372 0.8808 0.7340
C10 C 0.6247(3) 0.9428(6) 0.6453(2)
H8 H 0.6671 1.0507 0.6382
C11 C 0.6855(2) 0.7578(6) 0.6548(2)
C12 C 0.7374(3) 0.7326(6) 0.5759(2)
H9 H 0.6918 0.7092 0.5256
H10 H 0.7718 0.8496 0.5668
C13 C 0.6245(3) 0.5771(7) 0.6611(2)
H11 H 0.5886 0.5924 0.7072
H12 H 0.6644 0.4657 0.6712
H13 H 0.5824 0.5604 0.6089
C14 C 0.5469(3) 0.9446(9) 0.5681(3)
H14 H 0.5745 0.9250 0.5172
H15 H 0.5150 1.0669 0.5651
H16 H 0.5027 0.8430 0.5738
C15 C 0.7484(4) 0.3157(9) 0.4763(3)
H17 H 0.7020 0.4088 0.4532
H18 H 0.7173 0.2013 0.4923
H19 H 0.7877 0.2835 0.4344
C16 C 0.9929(3) 0.7155(8) 0.5905(3)
H20 H 1.0210 0.5911 0.5849
H21 H 1.0410 0.8131 0.5956
H22 H 0.9476 0.7410 0.5411
O2 O 0.9135(3) 0.1281(5) 0.5866(2)
O4 O 0.92218(19) 0.3881(4) 0.67068(17)
O5 O 0.94673(17) 0.7174(4) 0.66497(16)
O7 O 0.81457(17) 0.9594(4) 0.72501(16)
H45 H 0.8615 0.9345 0.7030
O8 O 0.67247(17) 0.6595(4) 0.84293(14)
H46 H 0.6989 0.6215 0.8892
C17 C 0.4414(3) 0.5491(7) 0.9069(3)
H23 H 0.4736 0.5269 0.9648
C18 C 0.4518(3) 0.3680(8) 0.8548(3)
H24 H 0.5171 0.3554 0.8460
H25 H 0.4362 0.2560 0.8867
C19 C 0.3897(3) 0.3693(8) 0.7690(3)
H26 H 0.3944 0.2447 0.7419
H27 H 0.4129 0.4664 0.7332
C20 C 0.2860(3) 0.4108(7) 0.7749(2)
H28 H 0.2642 0.3090 0.8102
C21 C 0.2757(2) 0.6061(6) 0.8213(2)
C22 C 0.1718(2) 0.6357(6) 0.8352(2)
H29 H 0.1322 0.6520 0.7808
H30 H 0.1499 0.5230 0.8629
C23 C 0.1647(2) 0.8098(6) 0.8889(2)
C24 C 0.1229(2) 0.9799(6) 0.8754(2)
C25 C 0.1483(2) 1.0983(6) 0.9521(2)
C26 C 0.2253(3) 0.8069(6) 0.9750(2)
C27 C 0.3267(2) 0.7696(6) 0.9661(2)
H31 H 0.3628 0.7521 1.0220
H32 H 0.3520 0.8809 0.9399
C28 C 0.3024(3) 0.7778(7) 0.7688(2)
H33 H 0.3637 0.7565 0.7531
H34 H 0.3031 0.8938 0.8019
H35 H 0.2570 0.7906 0.7184
C29 C 0.2277(4) 0.3939(8) 0.6865(3)
H36 H 0.2529 0.4796 0.6479
H37 H 0.1634 0.4281 0.6897
H38 H 0.2303 0.2634 0.6665
C30 C 0.0617(3) 1.0556(7) 0.7994(2)
H39 H 0.0782 0.9951 0.7493
H40 H 0.0702 1.1928 0.7958
H41 H -0.0030 1.0281 0.8040
C31 C 0.1014(3) 0.6767(8) 1.0461(3)
H42 H 0.0861 0.8041 1.0637
H43 H 0.0921 0.5853 1.0895
H44 H 0.0614 0.6440 0.9943
C32 C 0.3372(2) 0.5890(6) 0.9117(2)
O1 O 0.12123(19) 1.2563(4) 0.96927(18)
O3 O 0.21116(17) 0.9989(4) 1.00899(16)
O6 O 0.19843(17) 0.6717(4) 1.03208(15)
O9 O 0.30942(18) 0.4210(4) 0.95396(16)
H47 H 0.2647 0.4476 0.9787
O10 O 0.4817(2) 0.7155(5) 0.8739(2)
H48 H 0.5359 0.6915 0.8665
loop_
_geom_bond_atom_site_label_1
_geom_bond_atom_site_label_2
_geom_bond_site_symmetry_1
_geom_bond_site_symmetry_2
C1 C2 1_555 1_555
C2 C3 1_555 1_555
C3 C4 1_555 1_555
C4 C5 1_555 1_555
C5 H1 1_555 1_555
H2 C5 1_555 1_555
C6 C5 1_555 1_555
C7 C6 1_555 1_555
H3 C7 1_555 1_555
C8 C7 1_555 1_555
H4 C8 1_555 1_555
H5 C8 1_555 1_555
C9 C8 1_555 1_555
H6 C9 1_555 1_555
H7 C9 1_555 1_555
C10 C9 1_555 1_555
H8 C10 1_555 1_555
C11 C6 1_555 1_555
C12 C3 1_555 1_555
H9 C12 1_555 1_555
H10 C12 1_555 1_555
C13 C11 1_555 1_555
H11 C13 1_555 1_555
H12 C13 1_555 1_555
H13 C13 1_555 1_555
C14 C10 1_555 1_555
H14 C14 1_555 1_555
H15 C14 1_555 1_555
H16 C14 1_555 1_555
C15 C2 1_555 1_555
H17 C15 1_555 1_555
H18 C15 1_555 1_555
H19 C15 1_555 1_555
C16 H20 1_555 1_555
H21 C16 1_555 1_555
H22 C16 1_555 1_555
C17 H23 1_555 1_555
C18 C17 1_555 1_555
H24 C18 1_555 1_555
H25 C18 1_555 1_555
C19 C18 1_555 1_555
H26 C19 1_555 1_555
H27 C19 1_555 1_555
C20 C19 1_555 1_555
H28 C20 1_555 1_555
C21 C20 1_555 1_555
C22 C21 1_555 1_555
H29 C22 1_555 1_555
H30 C22 1_555 1_555
C23 C22 1_555 1_555
C24 C23 1_555 1_555
C25 C24 1_555 1_555
C26 C23 1_555 1_555
C27 C26 1_555 1_555
H31 C27 1_555 1_555
H32 C27 1_555 1_555
C28 C21 1_555 1_555
H33 C28 1_555 1_555
H34 C28 1_555 1_555
H35 C28 1_555 1_555
C29 C20 1_555 1_555
H36 C29 1_555 1_555
H37 C29 1_555 1_555
H38 C29 1_555 1_555
C30 C24 1_555 1_555
H39 C30 1_555 1_555
H40 C30 1_555 1_555
H41 C30 1_555 1_555
C31 H42 1_555 1_555
H43 C31 1_555 1_555
H44 C31 1_555 1_555
C32 C17 1_555 1_555
O1 C25 1_555 1_555
O2 C1 1_555 1_555
O3 C25 1_555 1_555
O4 C1 1_555 1_555
O5 C4 1_555 1_555
O6 C26 1_555 1_555
O7 C6 1_555 1_555
H45 O7 1_555 1_555
O8 C7 1_555 1_555
H46 O8 1_555 1_555
O9 C32 1_555 1_555
H47 O9 1_555 1_555
O10 C17 1_555 1_555
H48 O10 1_555 1_555
C4 O4 1_555 1_555
C10 C11 1_555 1_555
C11 C12 1_555 1_555
C16 O5 1_555 1_555
C21 C32 1_555 1_555
C26 O3 1_555 1_555
C27 C32 1_555 1_555
C31 O6 1_555 1_555

#END
