
#######################################################################
#
#                 Cambridge Crystallographic Data Centre
#                                CCDC 
#
#######################################################################
#
# If this CIF has been generated from an entry in the Cambridge 
# Structural Database, then it will include bibliographic, chemical, 
# crystal, experimental, refinement or atomic coordinate data resulting 
# from the CCDC's data processing and validation procedures.
#
#######################################################################

data_HUKTOY
_chemical_formula_moiety         'C18 H12 F3 N1 O1'
_chemical_name_systematic        
2-(2-(4-(trifluoromethyl)phenyl)vinyl)quinolin-8-ol
_symmetry_cell_setting           monoclinic
_symmetry_space_group_name_H-M   'P 21/c'
_symmetry_Int_Tables_number      14
_space_group_name_Hall           '-P 2ybc'
loop_
_symmetry_equiv_pos_site_id
_symmetry_equiv_pos_as_xyz
1 x,y,z
2 -x,1/2+y,1/2-z
3 -x,-y,-z
4 x,1/2-y,1/2+z
_cell_length_a                   32.6588(15)
_cell_length_b                   11.7009(4)
_cell_length_c                   7.6578(3)
_cell_angle_alpha                90
_cell_angle_beta                 90.223(4)
_cell_angle_gamma                90
_cell_volume                     2926.31
_cell_formula_units_Z            8
loop_
_atom_site_label
_atom_site_type_symbol
_atom_site_fract_x
_atom_site_fract_y
_atom_site_fract_z
F1 F 0.52239(6) 0.6193(3) -0.4110(3)
O1 O 0.19147(5) 0.54253(16) 0.2102(2)
N1 N 0.23495(6) 0.59214(16) -0.0920(2)
C1 C 0.17153(7) 0.5764(2) 0.0629(3)
F2 F 0.51660(6) 0.6501(3) -0.1362(3)
C2 C 0.12982(7) 0.5909(2) 0.0670(3)
H1 H 0.1154 0.5777 0.1727
F3 F 0.51460(6) 0.4854(3) -0.2332(4)
C3 C 0.10805(8) 0.6250(2) -0.0831(4)
H2 H 0.0793 0.6360 -0.0770
C4 C 0.12785(8) 0.6426(2) -0.2375(3)
H3 H 0.1127 0.6632 -0.3388
C5 C 0.17074(7) 0.6302(2) -0.2475(3)
C6 C 0.19314(7) 0.59869(19) -0.0947(3)
C7 C 0.19361(8) 0.6471(2) -0.4014(3)
H4 H 0.1799 0.6647 -0.5077
C8 C 0.23510(8) 0.6382(2) -0.3983(3)
H5 H 0.2504 0.6497 -0.5020
C9 C 0.25546(7) 0.61165(19) -0.2390(3)
C10 C 0.29994(7) 0.6014(2) -0.2256(3)
H6 H 0.3104 0.5631 -0.1254
C11 C 0.32735(7) 0.6401(2) -0.3390(3)
H7 H 0.3175 0.6800 -0.4387
C12 C 0.37197(7) 0.6256(2) -0.3210(3)
C13 C 0.38916(8) 0.5411(2) -0.2144(3)
H8 H 0.3717 0.4908 -0.1519
C14 C 0.43089(8) 0.5296(3) -0.1983(3)
H9 H 0.4420 0.4718 -0.1248
C15 C 0.45679(8) 0.6021(3) -0.2890(3)
C16 C 0.44030(8) 0.6864(3) -0.3962(4)
H10 H 0.4578 0.7367 -0.4581
C17 C 0.39838(8) 0.6967(2) -0.4122(3)
H11 H 0.3873 0.7537 -0.4871
C18 C 0.50212(10) 0.5925(4) -0.2691(4)
H12 H 0.2127(11) 0.500(3) 0.178(4)
O2 O 0.28442(5) 0.59560(15) 0.2060(2)
N2 N 0.25138(6) 0.38113(16) 0.1370(2)
F4 F -0.01479(6) 0.2828(2) -0.2439(3)
F5 F -0.00219(6) 0.1247(3) -0.3671(3)
F6 F -0.02259(5) 0.1293(2) -0.1039(3)
C19 C 0.30848(7) 0.5010(2) 0.2107(3)
C20 C 0.34913(8) 0.5120(2) 0.2549(3)
H13 H 0.3598 0.5854 0.2827
C21 C 0.37500(8) 0.4170(3) 0.2595(4)
H14 H 0.4028 0.4264 0.2932
C22 C 0.36087(8) 0.3105(3) 0.2162(4)
H15 H 0.3790 0.2470 0.2162
C23 C 0.31907(7) 0.2953(2) 0.1715(3)
C24 C 0.29241(7) 0.3908(2) 0.1721(3)
C25 C 0.30189(8) 0.1887(2) 0.1267(3)
H16 H 0.3187 0.1225 0.1233
C26 C 0.26141(8) 0.1802(2) 0.0884(3)
H17 H 0.2500 0.1083 0.0578
C27 C 0.23616(7) 0.2791(2) 0.0940(3)
C28 C 0.19252(7) 0.2766(2) 0.0497(3)
H18 H 0.1782 0.3471 0.0578
C29 C 0.17071(7) 0.1863(2) -0.0008(3)
H19 H 0.1841 0.1143 -0.0029
C30 C 0.12759(7) 0.1896(2) -0.0534(3)
C31 C 0.10573(8) 0.0871(2) -0.0621(3)
H20 H 0.1191 0.0175 -0.0327
C32 C 0.06526(9) 0.0850(3) -0.1125(4)
H21 H 0.0509 0.0144 -0.1169
C33 C 0.04535(8) 0.1860(3) -0.1568(3)
C34 C 0.06662(8) 0.2885(3) -0.1487(3)
H22 H 0.0532 0.3580 -0.1778
C35 C 0.10721(8) 0.2897(2) -0.0986(3)
H23 H 0.1215 0.3603 -0.0949
C36 C 0.00219(9) 0.1807(4) -0.2166(4)
H24 H 0.2663(10) 0.591(3) 0.128(5)
loop_
_geom_bond_atom_site_label_1
_geom_bond_atom_site_label_2
_geom_bond_site_symmetry_1
_geom_bond_site_symmetry_2
F1 C18 1_555 1_555
O1 C1 1_555 1_555
N1 C6 1_555 1_555
C1 C2 1_555 1_555
F2 C18 1_555 1_555
C2 H1 1_555 1_555
F3 C18 1_555 1_555
C3 C2 1_555 1_555
H2 C3 1_555 1_555
C4 C3 1_555 1_555
H3 C4 1_555 1_555
C5 C4 1_555 1_555
C6 C1 1_555 1_555
C7 C5 1_555 1_555
H4 C7 1_555 1_555
C8 C7 1_555 1_555
H5 C8 1_555 1_555
C9 N1 1_555 1_555
C10 C9 1_555 1_555
H6 C10 1_555 1_555
C11 C10 1_555 1_555
H7 C11 1_555 1_555
C12 C11 1_555 1_555
C13 C12 1_555 1_555
H8 C13 1_555 1_555
C14 C13 1_555 1_555
H9 C14 1_555 1_555
C15 C14 1_555 1_555
C16 C15 1_555 1_555
H10 C16 1_555 1_555
C17 C12 1_555 1_555
H11 C17 1_555 1_555
C18 C15 1_555 1_555
H12 O1 1_555 1_555
O2 C19 1_555 1_555
N2 C24 1_555 1_555
F4 C36 1_555 1_555
F5 C36 1_555 1_555
F6 C36 1_555 1_555
C19 C20 1_555 1_555
C20 H13 1_555 1_555
C21 C20 1_555 1_555
H14 C21 1_555 1_555
C22 C21 1_555 1_555
H15 C22 1_555 1_555
C23 C22 1_555 1_555
C24 C19 1_555 1_555
C25 C23 1_555 1_555
H16 C25 1_555 1_555
C26 C25 1_555 1_555
H17 C26 1_555 1_555
C27 N2 1_555 1_555
C28 C27 1_555 1_555
H18 C28 1_555 1_555
C29 C28 1_555 1_555
H19 C29 1_555 1_555
C30 C29 1_555 1_555
C31 C30 1_555 1_555
H20 C31 1_555 1_555
C32 C31 1_555 1_555
H21 C32 1_555 1_555
C33 C32 1_555 1_555
C34 C33 1_555 1_555
H22 C34 1_555 1_555
C35 C30 1_555 1_555
H23 C35 1_555 1_555
C36 C33 1_555 1_555
H24 O2 1_555 1_555
C5 C6 1_555 1_555
C8 C9 1_555 1_555
C16 C17 1_555 1_555
C23 C24 1_555 1_555
C26 C27 1_555 1_555
C34 C35 1_555 1_555

#END
