
#######################################################################
#
#                 Cambridge Crystallographic Data Centre
#                                CCDC 
#
#######################################################################
#
# If this CIF has been generated from an entry in the Cambridge 
# Structural Database, then it will include bibliographic, chemical, 
# crystal, experimental, refinement or atomic coordinate data resulting 
# from the CCDC's data processing and validation procedures.
#
#######################################################################

data_HUKZUJ
_chemical_formula_moiety         'C36 H28 F4 N4 4+,4(F6 P1 1-),H2 O1'
_chemical_name_systematic        
'8,9,37,38-Tetrafluoro-5,12,19,26-tetra-azoniaheptacyclo-[24.2.2.2^2,5^.2^7,10^.2^12,15^.2^16,19^.2^21,24^]tetraconta-1,3,7,9,13,15,17,21,23,27,29,31,33,35,37,39-hexadecaene tetrakis(hexafluorophosphate) monohydrate'
_symmetry_cell_setting           orthorhombic
_symmetry_space_group_name_H-M   'P b c a'
_symmetry_Int_Tables_number      61
_space_group_name_Hall           '-P 2ac 2ab'
loop_
_symmetry_equiv_pos_site_id
_symmetry_equiv_pos_as_xyz
1 x,y,z
2 1/2-x,-y,1/2+z
3 -x,1/2+y,1/2-z
4 1/2+x,1/2-y,-z
5 -x,-y,-z
6 1/2+x,y,1/2-z
7 x,1/2-y,1/2+z
8 1/2-x,1/2+y,z
_cell_length_a                   15.2166(15)
_cell_length_b                   23.228(2)
_cell_length_c                   26.753(3)
_cell_angle_alpha                90
_cell_angle_beta                 90
_cell_angle_gamma                90
_cell_volume                     9455.88
_cell_formula_units_Z            8
loop_
_atom_site_label
_atom_site_type_symbol
_atom_site_fract_x
_atom_site_fract_y
_atom_site_fract_z
C1 C 0.17241(16) 0.12974(10) -0.10584(8)
C2 C 0.23322(17) 0.17065(11) -0.09226(11)
C3 C 0.21368(16) 0.22779(11) -0.09332(10)
C4 C 0.13278(17) 0.24841(10) -0.10973(9)
C5 C 0.07349(16) 0.20682(10) -0.12408(8)
C6 C 0.09109(16) 0.14942(10) -0.12197(8)
C7 C 0.19456(18) 0.06558(10) -0.10156(9)
H1 H 0.1531 0.0429 -0.1208
H2 H 0.2532 0.0583 -0.1142
C8 C 0.11434(17) 0.05736(11) -0.02129(10)
H3 H 0.0641 0.0692 -0.0382
C9 C 0.10943(16) 0.04815(10) 0.02884(10)
H4 H 0.0572 0.0545 0.0460
C10 C 0.18489(17) 0.02877(9) 0.05411(9)
C11 C 0.26042(17) 0.01895(12) 0.02558(10)
H5 H 0.3109 0.0047 0.0408
C12 C 0.26041(17) 0.03012(10) -0.02444(9)
H6 H 0.3113 0.0237 -0.0429
C13 C 0.18317(17) 0.02602(10) 0.10923(9)
C14 C 0.10722(17) 0.00815(10) 0.13483(9)
H7 H 0.0601 -0.0081 0.1178
C15 C 0.10450(17) 0.01542(10) 0.18575(9)
H8 H 0.0545 0.0039 0.2031
C16 C 0.24831(19) 0.05081(11) 0.18744(10)
H9 H 0.2963 0.0631 0.2062
C17 C 0.25653(18) 0.04565(10) 0.13730(9)
H10 H 0.3092 0.0548 0.1215
C18 C 0.15819(18) 0.05468(11) 0.26484(9)
H11 H 0.2142 0.0555 0.2821
H12 H 0.1204 0.0269 0.2813
C19 C 0.11565(17) 0.11442(11) 0.26565(10)
C20 C 0.02611(16) 0.11975(10) 0.27033(9)
H13 H -0.0082 0.0872 0.2758
C21 C -0.01434(18) 0.17493(11) 0.26679(9)
H14 H -0.0748 0.1789 0.2704
C22 C 0.03767(15) 0.22218(10) 0.25796(8)
C23 C 0.12988(17) 0.21753(10) 0.25300(9)
H15 H 0.1641 0.2498 0.2464
C24 C 0.16859(16) 0.16271(11) 0.25824(10)
H16 H 0.2293 0.1587 0.2568
C25 C -0.00718(16) 0.28029(11) 0.24988(9)
H17 H -0.0688 0.2777 0.2589
H18 H 0.0203 0.3094 0.2707
C26 C -0.03092(16) 0.26063(10) 0.16128(9)
H19 H -0.0603 0.2277 0.1719
C27 C -0.02266(16) 0.27053(11) 0.11109(9)
H20 H -0.0449 0.2449 0.0875
C28 C 0.02147(17) 0.32160(10) 0.09670(9)
C29 C 0.05101(15) 0.35932(10) 0.13230(8)
H21 H 0.0783 0.3936 0.1233
C30 C 0.03916(17) 0.34508(10) 0.18181(9)
H22 H 0.0582 0.3705 0.2064
C31 C 0.03690(16) 0.33033(10) 0.04205(9)
C32 C -0.02562(17) 0.31333(10) 0.00716(9)
H23 H -0.0826 0.3036 0.0165
C33 C 0.00161(16) 0.31161(10) -0.04281(9)
H24 H -0.0386 0.3003 -0.0671
C34 C 0.14062(16) 0.34779(10) -0.02488(9)
H25 H 0.1949 0.3611 -0.0359
C35 C 0.11798(17) 0.35087(10) 0.02588(9)
H26 H 0.1572 0.3666 0.0488
C36 C 0.11053(18) 0.31232(10) -0.10916(9)
H27 H 0.1614 0.3351 -0.1185
H28 H 0.0631 0.3206 -0.1323
F1 F -0.00722(11) 0.22218(7) -0.13902(6)
F2 F 0.03059(11) 0.11060(7) -0.13799(6)
F3 F 0.31138(10) 0.15236(7) -0.07502(6)
F4 F 0.27492(11) 0.26488(7) -0.07766(6)
N1 N 0.18914(15) 0.05000(9) -0.04742(8)
N2 N 0.17124(15) 0.03849(9) 0.21119(8)
N3 N 0.00166(16) 0.29643(9) 0.19540(8)
N4 N 0.08330(16) 0.32559(9) -0.05692(8)
F5 F 0.19763(11) 0.25585(8) 0.10470(7)
F6 F 0.16555(12) 0.21755(8) 0.03310(7)
F7 F 0.27591(11) 0.15467(7) 0.04249(6)
F8 F 0.17432(11) 0.16104(7) 0.09895(7)
F9 F 0.30881(12) 0.19153(8) 0.11243(7)
F10 F 0.30046(11) 0.24675(8) 0.04845(7)
P1 P 0.23680(6) 0.20416(4) 0.07419(3)
F11 F 0.43824(12) -0.01739(7) 0.08253(7)
F12 F 0.55196(11) 0.03453(7) 0.04865(6)
F13 F 0.59543(11) 0.05365(8) 0.12439(7)
F14 F 0.48587(12) 0.00077(7) 0.15680(7)
F15 F 0.46295(12) 0.07376(7) 0.10493(7)
F16 F 0.57526(12) -0.03798(7) 0.10117(6)
P2 P 0.51807(5) 0.01827(3) 0.10194(3)
F17 F 0.78458(12) 0.07625(8) 0.10752(7)
F18 F 0.88125(12) 0.13950(8) 0.07853(6)
F19 F 0.91920(11) 0.04783(7) 0.09107(6)
F20 F 0.96972(12) 0.11797(8) 0.14017(7)
F21 F 0.87282(11) 0.05698(6) 0.16857(6)
F22 F 0.83252(11) 0.14811(6) 0.15565(6)
P3 P 0.87606(5) 0.09755(3) 0.12392(3)
F23 F 0.67848(11) 0.36353(7) 0.22696(6)
F24 F 0.76757(12) 0.43582(7) 0.21009(7)
F25 F 0.81233(11) 0.34494(7) 0.19917(6)
F26 F 0.87160(11) 0.39820(7) 0.26008(7)
F27 F 0.73695(11) 0.41747(7) 0.28906(6)
F28 F 0.78147(11) 0.32629(7) 0.27879(6)
P4 P 0.77591(5) 0.38070(3) 0.24391(3)
O1 O 0.2964(2) 0.36716(15) 0.10637(13)
H29 H 0.2989 0.4030 0.0999
H30 H 0.2559 0.3610 0.1276
O2 O 0.9210(2) 0.10209(14) 0.96566(13)
H31 H 0.9003 0.1109 0.9372
H32 H 0.8883 0.0770 0.9794
loop_
_geom_bond_atom_site_label_1
_geom_bond_atom_site_label_2
_geom_bond_site_symmetry_1
_geom_bond_site_symmetry_2
C1 C2 1_555 1_555
C2 C3 1_555 1_555
C3 C4 1_555 1_555
C4 C5 1_555 1_555
C5 C6 1_555 1_555
C6 C1 1_555 1_555
C7 C1 1_555 1_555
H1 C7 1_555 1_555
H2 C7 1_555 1_555
C8 H3 1_555 1_555
C9 C8 1_555 1_555
H4 C9 1_555 1_555
C10 C9 1_555 1_555
C11 C10 1_555 1_555
H5 C11 1_555 1_555
C12 C11 1_555 1_555
H6 C12 1_555 1_555
C13 C10 1_555 1_555
C14 C13 1_555 1_555
H7 C14 1_555 1_555
C15 C14 1_555 1_555
H8 C15 1_555 1_555
C16 H9 1_555 1_555
C17 C13 1_555 1_555
H10 C17 1_555 1_555
C18 H11 1_555 1_555
H12 C18 1_555 1_555
C19 C18 1_555 1_555
C20 C19 1_555 1_555
H13 C20 1_555 1_555
C21 C20 1_555 1_555
H14 C21 1_555 1_555
C22 C21 1_555 1_555
C23 C22 1_555 1_555
H15 C23 1_555 1_555
C24 C19 1_555 1_555
H16 C24 1_555 1_555
C25 C22 1_555 1_555
H17 C25 1_555 1_555
H18 C25 1_555 1_555
C26 H19 1_555 1_555
C27 C26 1_555 1_555
H20 C27 1_555 1_555
C28 C27 1_555 1_555
C29 C28 1_555 1_555
H21 C29 1_555 1_555
C30 C29 1_555 1_555
H22 C30 1_555 1_555
C31 C28 1_555 1_555
C32 C31 1_555 1_555
H23 C32 1_555 1_555
C33 C32 1_555 1_555
H24 C33 1_555 1_555
C34 H25 1_555 1_555
C35 C31 1_555 1_555
H26 C35 1_555 1_555
C36 C4 1_555 1_555
H27 C36 1_555 1_555
H28 C36 1_555 1_555
F1 C5 1_555 1_555
F2 C6 1_555 1_555
F3 C2 1_555 1_555
F4 C3 1_555 1_555
F5 P1 1_555 1_555
F6 P1 1_555 1_555
F7 P1 1_555 1_555
F8 P1 1_555 1_555
F9 P1 1_555 1_555
F10 P1 1_555 1_555
F11 P2 1_555 1_555
F12 P2 1_555 1_555
F13 P2 1_555 1_555
F14 P2 1_555 1_555
F15 P2 1_555 1_555
F16 P2 1_555 1_555
F17 P3 1_555 1_555
F18 P3 1_555 1_555
F19 P3 1_555 1_555
F20 P3 1_555 1_555
F21 P3 1_555 1_555
F22 P3 1_555 1_555
F23 P4 1_555 1_555
F24 P4 1_555 1_555
F25 P4 1_555 1_555
F26 P4 1_555 1_555
F27 P4 1_555 1_555
F28 P4 1_555 1_555
N1 C7 1_555 1_555
N2 C15 1_555 1_555
N3 C25 1_555 1_555
N4 C33 1_555 1_555
O1 H29 1_555 1_555
H30 O1 1_555 1_555
O2 H31 1_555 1_555
H32 O2 1_555 1_555
C8 N1 1_555 1_555
C12 N1 1_555 1_555
C16 C17 1_555 1_555
C16 N2 1_555 1_555
C18 N2 1_555 1_555
C23 C24 1_555 1_555
C26 N3 1_555 1_555
C30 N3 1_555 1_555
C34 C35 1_555 1_555
C34 N4 1_555 1_555
C36 N4 1_555 1_555

#END
