
#######################################################################
#
#                 Cambridge Crystallographic Data Centre
#                                CCDC 
#
#######################################################################
#
# If this CIF has been generated from an entry in the Cambridge 
# Structural Database, then it will include bibliographic, chemical, 
# crystal, experimental, refinement or atomic coordinate data resulting 
# from the CCDC's data processing and validation procedures.
#
#######################################################################

data_HUKZOD
_chemical_formula_moiety         'C17 H17 N3 O4 S1'
_chemical_name_systematic        
N-((1-Hydroxy-3-phenylpropan-2-yl)carbamothioyl)-3-nitrobenzamide
_symmetry_cell_setting           triclinic
_symmetry_space_group_name_H-M   'P -1'
_symmetry_Int_Tables_number      2
_space_group_name_Hall           '-P 1'
loop_
_symmetry_equiv_pos_site_id
_symmetry_equiv_pos_as_xyz
1 x,y,z
2 -x,-y,-z
_cell_length_a                   7.226(2)
_cell_length_b                   7.408(2)
_cell_length_c                   16.557(5)
_cell_angle_alpha                84.990(4)
_cell_angle_beta                 83.809(3)
_cell_angle_gamma                89.478(4)
_cell_volume                     877.764
_cell_formula_units_Z            2
_exptl_crystal_recrystallization_method ethanol
loop_
_atom_site_label
_atom_site_type_symbol
_atom_site_fract_x
_atom_site_fract_y
_atom_site_fract_z
C1 C 0.7987(5) 0.5343(5) 0.2699(2)
C2 C 0.8155(6) 0.7219(5) 0.2614(2)
H1 H 0.8209 0.7853 0.3071
C3 C 0.8242(6) 0.8149(6) 0.1844(2)
H2 H 0.8354 0.9404 0.1787
C4 C 0.8161(5) 0.7202(5) 0.1160(2)
H3 H 0.8219 0.7824 0.0645
C5 C 0.7993(5) 0.5326(5) 0.1245(2)
C6 C 0.7906(6) 0.4396(5) 0.2015(2)
H4 H 0.7794 0.3141 0.2072
C7 C 0.7830(6) 0.4232(5) 0.3505(2)
C8 C 0.7551(6) 0.4405(5) 0.4993(2)
C9 C 0.6563(6) 0.1868(6) 0.5946(2)
H5 H 0.6068 0.2838 0.6274
C10 C 0.8124(6) 0.0947(5) 0.6350(2)
H6 H 0.8408 -0.0199 0.6122
H7 H 0.9231 0.1699 0.6249
C11 C 0.7596(6) 0.0627(5) 0.7234(2)
C12 C 0.7489(6) -0.1154(6) 0.7578(2)
H8 H 0.7749 -0.2103 0.7251
C13 C 0.6995(6) -0.1516(6) 0.8411(2)
H9 H 0.6923 -0.2707 0.8641
C14 C 0.6606(6) -0.0097(5) 0.8900(2)
H10 H 0.6275 -0.0339 0.9457
C15 C 0.6713(5) 0.1684(5) 0.8555(2)
H11 H 0.6453 0.2633 0.8882
C16 C 0.7207(6) 0.2045(5) 0.7722(2)
H12 H 0.7279 0.3237 0.7492
C17 C 0.5019(5) 0.0480(5) 0.5923(2)
H13 H 0.5503 -0.0440 0.5575
H14 H 0.4739 -0.0109 0.6469
N1 N 0.7897(5) 0.4304(4) 0.05557(19)
N2 N 0.7703(4) 0.5164(4) 0.41928(18)
H15 H 0.675(6) 0.588(5) 0.416(2)
N3 N 0.7343(5) 0.2683(4) 0.51414(19)
H16 H 0.841(6) 0.220(5) 0.504(2)
O1 O 0.7766(4) 0.2579(4) 0.35273(15)
O2 O 0.8146(4) 0.2659(4) 0.06467(16)
O3 O 0.3343(4) 0.1128(4) 0.56508(17)
H17 H 0.253(6) 0.032(6) 0.582(3)
O4 O 0.7862(4) 0.5009(4) -0.00983(16)
S1 S 0.73890(15) 0.58636(14) 0.57343(6)
loop_
_geom_bond_atom_site_label_1
_geom_bond_atom_site_label_2
_geom_bond_site_symmetry_1
_geom_bond_site_symmetry_2
C1 C2 1_555 1_555
C2 H1 1_555 1_555
C3 C2 1_555 1_555
H2 C3 1_555 1_555
C4 C3 1_555 1_555
H3 C4 1_555 1_555
C5 C4 1_555 1_555
C6 C1 1_555 1_555
H4 C6 1_555 1_555
C7 C1 1_555 1_555
C8 N2 1_555 1_555
C9 H5 1_555 1_555
C10 C9 1_555 1_555
H6 C10 1_555 1_555
H7 C10 1_555 1_555
C11 C10 1_555 1_555
C12 C11 1_555 1_555
H8 C12 1_555 1_555
C13 C12 1_555 1_555
H9 C13 1_555 1_555
C14 C13 1_555 1_555
H10 C14 1_555 1_555
C15 C14 1_555 1_555
H11 C15 1_555 1_555
C16 C11 1_555 1_555
H12 C16 1_555 1_555
C17 C9 1_555 1_555
H13 C17 1_555 1_555
H14 C17 1_555 1_555
N1 C5 1_555 1_555
N2 C7 1_555 1_555
H15 N2 1_555 1_555
N3 C8 1_555 1_555
H16 N3 1_555 1_555
O1 C7 1_555 1_555
O2 N1 1_555 1_555
O3 C17 1_555 1_555
H17 O3 1_555 1_555
O4 N1 1_555 1_555
S1 C8 1_555 1_555
C5 C6 1_555 1_555
C9 N3 1_555 1_555
C15 C16 1_555 1_555

#END
