
#######################################################################
#
#                 Cambridge Crystallographic Data Centre
#                                CCDC 
#
#######################################################################
#
# If this CIF has been generated from an entry in the Cambridge 
# Structural Database, then it will include bibliographic, chemical, 
# crystal, experimental, refinement or atomic coordinate data resulting 
# from the CCDC's data processing and validation procedures.
#
#######################################################################

data_HULBIA
_chemical_formula_moiety         'C21 H27 Br1 N2 O7 S1'
_chemical_name_systematic        
6-(4-Bromo-1-((4-methylphenyl)sulfonyl)-1H-pyrrol-2-yl)-1,1-dimethoxy-4,4-dimethyl-5-nitrohexan-2-one
_symmetry_cell_setting           monoclinic
_symmetry_space_group_name_H-M   'P 21/n'
_symmetry_Int_Tables_number      14
_space_group_name_Hall           '-P 2yn'
loop_
_symmetry_equiv_pos_site_id
_symmetry_equiv_pos_as_xyz
1 x,y,z
2 1/2-x,1/2+y,1/2-z
3 -x,-y,-z
4 1/2+x,1/2-y,1/2+z
_cell_length_a                   10.1492(12)
_cell_length_b                   14.4713(17)
_cell_length_c                   15.894(2)
_cell_angle_alpha                90
_cell_angle_beta                 92.846(5)
_cell_angle_gamma                90
_cell_volume                     2331.51
_exptl_crystal_colour            brown
_exptl_crystal_description       prism
_chemical_melting_point          122-124deg.C
_cell_formula_units_Z            4
loop_
_atom_site_label
_atom_site_type_symbol
_atom_site_fract_x
_atom_site_fract_y
_atom_site_fract_z
Br1 Br 0.16771(3) 0.20757(2) 0.65900(2)
S1 S -0.19660(8) 0.44052(5) 0.50113(5)
O1 O 0.1007(2) 0.61718(16) 0.75663(14)
O2 O 0.0055(2) 0.51793(16) 0.83490(14)
O3 O -0.0669(2) 0.75752(16) 0.61716(14)
O4 O 0.1320(2) 0.88117(16) 0.64259(14)
O5 O 0.0194(2) 0.91899(14) 0.76273(13)
O6 O -0.2518(2) 0.52477(14) 0.52956(13)
O7 O -0.1212(2) 0.43802(14) 0.42790(13)
N1 N -0.0940(2) 0.40199(17) 0.57923(15)
N2 N 0.0064(3) 0.56935(18) 0.77367(17)
C1 C -0.0041(3) 0.3321(2) 0.5644(2)
H1 H 0.0185 0.3095 0.5109
C2 C 0.0453(3) 0.3022(2) 0.6399(2)
C3 C -0.0134(3) 0.3542(2) 0.70407(19)
H2 H 0.0060 0.3483 0.7629
C4 C -0.1014(3) 0.4136(2) 0.66726(18)
C5 C -0.1838(3) 0.4842(2) 0.70880(19)
H3 H -0.2034 0.4621 0.7658
H4 H -0.2687 0.4910 0.6759
C6 C -0.1170(3) 0.5783(2) 0.71638(18)
H5 H -0.0893 0.5963 0.6592
C7 C -0.2033(3) 0.6574(2) 0.74960(19)
C8 C -0.2594(3) 0.6332(2) 0.8352(2)
H6 H -0.3125 0.6850 0.8544
H7 H -0.1866 0.6214 0.8766
H8 H -0.3148 0.5779 0.8291
C9 C -0.3169(3) 0.6725(2) 0.6842(2)
H9 H -0.3793 0.6210 0.6865
H10 H -0.2820 0.6757 0.6279
H11 H -0.3622 0.7304 0.6964
C10 C -0.1222(3) 0.7473(2) 0.76222(19)
H12 H -0.1835 0.7969 0.7780
H13 H -0.0589 0.7378 0.8108
C11 C -0.0457(3) 0.7824(2) 0.6896(2)
C12 C 0.0676(3) 0.8482(2) 0.7124(2)
H14 H 0.1341 0.8128 0.7481
C13 C 0.0575(4) 0.9430(2) 0.5889(2)
H15 H -0.0247 0.9129 0.5688
H16 H 0.1091 0.9596 0.5406
H17 H 0.0369 0.9990 0.6203
C14 C 0.1241(3) 0.9734(2) 0.8016(2)
H18 H 0.1808 0.9339 0.8380
H19 H 0.0865 1.0225 0.8354
H20 H 0.1764 1.0010 0.7579
C15 C -0.3198(3) 0.3553(2) 0.49259(18)
C16 C -0.4404(3) 0.3697(2) 0.52755(19)
H21 H -0.4581 0.4260 0.5556
C17 C -0.5343(3) 0.3011(2) 0.52089(19)
H22 H -0.6178 0.3113 0.5438
C18 C -0.5104(3) 0.2167(2) 0.48150(19)
C19 C -0.3887(3) 0.2052(2) 0.44619(19)
H23 H -0.3709 0.1491 0.4180
C20 C -0.2934(3) 0.2731(2) 0.45102(19)
H24 H -0.2110 0.2640 0.4264
C21 C -0.6129(3) 0.1426(2) 0.4767(2)
H25 H -0.5993 0.1032 0.4277
H26 H -0.7007 0.1708 0.4710
H27 H -0.6060 0.1051 0.5281
loop_
_geom_bond_atom_site_label_1
_geom_bond_atom_site_label_2
_geom_bond_site_symmetry_1
_geom_bond_site_symmetry_2
Br1 C2 1_555 1_555
S1 O6 1_555 1_555
O1 N2 1_555 1_555
O2 N2 1_555 1_555
O3 C11 1_555 1_555
O4 C12 1_555 1_555
O5 C12 1_555 1_555
O7 S1 1_555 1_555
N1 S1 1_555 1_555
N2 C6 1_555 1_555
C1 N1 1_555 1_555
H1 C1 1_555 1_555
C2 C1 1_555 1_555
C3 C2 1_555 1_555
H2 C3 1_555 1_555
C4 N1 1_555 1_555
C5 C4 1_555 1_555
H3 C5 1_555 1_555
H4 C5 1_555 1_555
C6 C5 1_555 1_555
H5 C6 1_555 1_555
C7 C6 1_555 1_555
C8 C7 1_555 1_555
H6 C8 1_555 1_555
H7 C8 1_555 1_555
H8 C8 1_555 1_555
C9 C7 1_555 1_555
H9 C9 1_555 1_555
H10 C9 1_555 1_555
H11 C9 1_555 1_555
C10 C7 1_555 1_555
H12 C10 1_555 1_555
H13 C10 1_555 1_555
C11 C10 1_555 1_555
C12 C11 1_555 1_555
H14 C12 1_555 1_555
C13 O4 1_555 1_555
H15 C13 1_555 1_555
H16 C13 1_555 1_555
H17 C13 1_555 1_555
C14 O5 1_555 1_555
H18 C14 1_555 1_555
H19 C14 1_555 1_555
H20 C14 1_555 1_555
C15 S1 1_555 1_555
C16 C15 1_555 1_555
H21 C16 1_555 1_555
C17 C16 1_555 1_555
H22 C17 1_555 1_555
C18 C17 1_555 1_555
C19 C18 1_555 1_555
H23 C19 1_555 1_555
C20 C15 1_555 1_555
H24 C20 1_555 1_555
C21 C18 1_555 1_555
H25 C21 1_555 1_555
H26 C21 1_555 1_555
H27 C21 1_555 1_555
C3 C4 1_555 1_555
C19 C20 1_555 1_555

#END
