
#######################################################################
#
#                 Cambridge Crystallographic Data Centre
#                                CCDC 
#
#######################################################################
#
# If this CIF has been generated from an entry in the Cambridge 
# Structural Database, then it will include bibliographic, chemical, 
# crystal, experimental, refinement or atomic coordinate data resulting 
# from the CCDC's data processing and validation procedures.
#
#######################################################################

data_HULFUP
_chemical_formula_moiety         'C19 H16 F3 N3 O2 S1'
_chemical_name_systematic        
1,5-Dimethyl-4-(((E)-3-oxo-1-(2-thienyl)-3-(trifluoromethyl)-1-propenyl)amino)-2-phenyl-1,2-dihydro-3H-pyrazol-3-one
_symmetry_cell_setting           triclinic
_symmetry_space_group_name_H-M   'P -1'
_symmetry_Int_Tables_number      2
_space_group_name_Hall           '-P 1'
loop_
_symmetry_equiv_pos_site_id
_symmetry_equiv_pos_as_xyz
1 x,y,z
2 -x,-y,-z
_cell_length_a                   5.8063(10)
_cell_length_b                   10.9254(17)
_cell_length_c                   15.288(2)
_cell_angle_alpha                74.790(3)
_cell_angle_beta                 97.463(3)
_cell_angle_gamma                94.731(4)
_cell_volume                     926.724
_exptl_crystal_colour            yellow
_exptl_crystal_description       prism
_chemical_melting_point          434K
_cell_formula_units_Z            2
_exptl_crystal_recrystallization_method ethanol
loop_
_atom_site_label
_atom_site_type_symbol
_atom_site_fract_x
_atom_site_fract_y
_atom_site_fract_z
S1 S -0.23537(16) 0.10275(9) 0.21827(6)
O1 O 0.5666(4) -0.0983(2) 0.44029(16)
O2 O 0.3820(4) 0.2882(2) 0.18883(17)
C1 C 0.1737(5) -0.0213(3) 0.2999(2)
N1 N -0.0231(5) 0.3609(2) 0.31225(18)
N2 N 0.1358(5) 0.3970(2) 0.24688(18)
N3 N 0.2464(5) 0.0669(2) 0.34539(19)
H1 H 0.347(6) 0.046(3) 0.387(2)
C2 C 0.4698(6) -0.1652(3) 0.3911(2)
C3 C 0.5668(7) -0.2959(3) 0.4084(3)
F1 F 0.4504(6) -0.3742(3) 0.3645(3)
F2 F 0.7836(5) -0.2878(3) 0.3908(3)
F3 F 0.5826(9) -0.3552(3) 0.4969(2)
C4 C 0.2518(5) 0.2906(3) 0.2455(2)
C5 C 0.1757(5) 0.1935(3) 0.3212(2)
C6 C 0.0161(6) 0.2407(3) 0.3591(2)
C7 C -0.1157(7) 0.1759(3) 0.4377(2)
H2 H -0.0422 0.1993 0.4929
H3 H -0.1147 0.0837 0.4471
H4 H -0.2765 0.2022 0.4246
C8 C -0.1055(8) 0.4595(3) 0.3469(3)
H5 H -0.2471 0.4277 0.3759
H6 H -0.1397 0.5342 0.2962
H7 H 0.0147 0.4828 0.3917
C9 C 0.2821(6) -0.1372(3) 0.3234(2)
H8 H 0.2253 -0.1996 0.2918
C10 C -0.0193(6) -0.0004(3) 0.2273(2)
C11 C -0.0580(7) -0.0707(4) 0.1581(3)
H9 H 0.0423 -0.1294 0.1487
C12 C -0.2800(8) -0.0340(4) 0.1060(3)
H10 H -0.3451 -0.0695 0.0572
C13 C -0.3875(6) 0.0537(4) 0.1312(2)
H11 H -0.5341 0.0847 0.1028
C14 C 0.0796(6) 0.4990(3) 0.1676(2)
C15 C -0.1366(6) 0.5035(3) 0.1193(3)
H12 H -0.2541 0.4400 0.1388
C16 C -0.1829(7) 0.6016(4) 0.0415(3)
H13 H -0.3323 0.6056 0.0074
C17 C -0.0117(8) 0.6924(4) 0.0143(3)
H14 H -0.0433 0.7598 -0.0387
C18 C 0.2025(8) 0.6872(4) 0.0622(3)
H15 H 0.3199 0.7504 0.0420
C19 C 0.2522(7) 0.5907(3) 0.1405(3)
H16 H 0.4015 0.5878 0.1746
F4? F 0.626(2) -0.3133(15) 0.3328(10)
F5? F 0.750(2) -0.3093(18) 0.4663(9)
F6? F 0.418(3) -0.3858(14) 0.4452(9)
loop_
_geom_bond_atom_site_label_1
_geom_bond_atom_site_label_2
_geom_bond_site_symmetry_1
_geom_bond_site_symmetry_2
S1 C10 1_555 1_555
O1 C2 1_555 1_555
O2 C4 1_555 1_555
C1 N3 1_555 1_555
N1 N2 1_555 1_555
N2 C4 1_555 1_555
N3 H1 1_555 1_555
C2 C3 1_555 1_555
C3 F1 1_555 1_555
F2 C3 1_555 1_555
F3 C3 1_555 1_555
C4 C5 1_555 1_555
C5 N3 1_555 1_555
C6 N1 1_555 1_555
C7 C6 1_555 1_555
H2 C7 1_555 1_555
H3 C7 1_555 1_555
H4 C7 1_555 1_555
C8 N1 1_555 1_555
H5 C8 1_555 1_555
H6 C8 1_555 1_555
H7 C8 1_555 1_555
C9 C1 1_555 1_555
H8 C9 1_555 1_555
C10 C1 1_555 1_555
C11 C10 1_555 1_555
H9 C11 1_555 1_555
C12 C11 1_555 1_555
H10 C12 1_555 1_555
C13 S1 1_555 1_555
H11 C13 1_555 1_555
C14 N2 1_555 1_555
C15 C14 1_555 1_555
H12 C15 1_555 1_555
C16 C15 1_555 1_555
H13 C16 1_555 1_555
C17 C16 1_555 1_555
H14 C17 1_555 1_555
C18 C17 1_555 1_555
H15 C18 1_555 1_555
C19 C14 1_555 1_555
H16 C19 1_555 1_555
C2 C9 1_555 1_555
C5 C6 1_555 1_555
C12 C13 1_555 1_555
C18 C19 1_555 1_555

#END
