
#######################################################################
#
#                 Cambridge Crystallographic Data Centre
#                                CCDC 
#
#######################################################################
#
# If this CIF has been generated from an entry in the Cambridge 
# Structural Database, then it will include bibliographic, chemical, 
# crystal, experimental, refinement or atomic coordinate data resulting 
# from the CCDC's data processing and validation procedures.
#
#######################################################################

data_HULGOL
_chemical_formula_moiety         'C28 H40 F4 N4 2+,2(B1 F4 1-),2(C2 H3 N1)'
_chemical_name_systematic        
"2,2'-(2,3,5,6-Tetrafluoro-1,4-phenylene)bis(1,3-di-isopropyl-4,5-dimethyl-1H-imidazol-3-ium) tetrafluoroborate acetonitrile solvate"
_symmetry_cell_setting           monoclinic
_symmetry_space_group_name_H-M   'P 21/c'
_symmetry_Int_Tables_number      14
_space_group_name_Hall           '-P 2ybc'
loop_
_symmetry_equiv_pos_site_id
_symmetry_equiv_pos_as_xyz
1 x,y,z
2 -x,1/2+y,1/2-z
3 -x,-y,-z
4 x,1/2-y,1/2+z
_cell_length_a                   14.1848(16)
_cell_length_b                   7.1539(11)
_cell_length_c                   23.128(3)
_cell_angle_alpha                90
_cell_angle_beta                 125.429(10)
_cell_angle_gamma                90
_cell_volume                     1912.38
_exptl_crystal_colour            colorless
_exptl_crystal_description       cube
_cell_formula_units_Z            2
_exptl_crystal_recrystallization_method 'acetonitrile/diethyl ether'
loop_
_atom_site_label
_atom_site_type_symbol
_atom_site_fract_x
_atom_site_fract_y
_atom_site_fract_z
C1 C 0.57139(14) 0.3648(2) 0.49776(9)
C2 C 0.60287(14) 0.5505(2) 0.51262(9)
F1 F 0.70313(10) 0.60611(15) 0.52530(7)
C3 C 0.46568(15) 0.3185(2) 0.48488(10)
F2 F 0.42754(10) 0.14220(14) 0.46858(7)
C4 C 0.64582(14) 0.2251(2) 0.49550(9)
N1 N 0.62075(13) 0.1385(2) 0.43679(8)
C5 C 0.71195(17) 0.0204(3) 0.45537(11)
C6 C 0.79120(16) 0.0375(3) 0.52645(11)
N2 N 0.74895(12) 0.1661(2) 0.55067(8)
C7 C 0.51359(17) 0.1713(3) 0.36444(10)
H1 H 0.4634(16) 0.251(3) 0.3718(10)
C8 C 0.4460(3) -0.0060(5) 0.33177(18)
H2 H 0.479(3) -0.077(5) 0.3174(18)
H3 H 0.436(3) -0.079(6) 0.362(2)
H4 H 0.367(3) 0.016(4) 0.2911(17)
C9 C 0.5419(3) 0.2718(6) 0.31861(16)
H5 H 0.582(2) 0.390(4) 0.3405(15)
H6 H 0.590(3) 0.196(4) 0.3088(16)
H7 H 0.469(3) 0.314(4) 0.2751(18)
C10 C 0.7189(3) -0.0987(5) 0.40523(17)
H8 H 0.701(3) -0.033(6) 0.364(2)
H9 H 0.796(4) -0.154(6) 0.431(2)
H10 H 0.684(5) -0.233(9) 0.406(3)
C11 C 0.9052(2) -0.0601(5) 0.57064(17)
H11 H 0.966(3) 0.031(5) 0.5923(18)
H12 H 0.937(5) -0.067(8) 0.619(3)
H13 H 0.928(3) -0.135(5) 0.5495(19)
C12 C 0.80458(17) 0.2287(3) 0.62550(10)
H14 H 0.7461(16) 0.310(3) 0.6234(10)
C13 C 0.8266(3) 0.0666(4) 0.67383(14)
H15 H 0.847(3) 0.119(4) 0.717(2)
H16 H 0.770(3) -0.017(4) 0.6594(15)
H17 H 0.887(3) -0.014(4) 0.6803(16)
C14 C 0.9123(2) 0.3435(4) 0.65104(16)
H18 H 0.901(4) 0.433(6) 0.619(2)
H19 H 0.983(2) 0.271(3) 0.6660(12)
H20 H 0.929(2) 0.410(3) 0.6898(15)
C1B C 0.42861(14) 0.6352(2) 0.50224(9)
C2B C 0.39713(14) 0.4495(2) 0.48738(9)
F1B F 0.29687(10) 0.39389(15) 0.47470(7)
C3B C 0.53432(15) 0.6815(2) 0.51512(10)
F2B F 0.57246(10) 0.85780(14) 0.53142(7)
C4B C 0.35418(14) 0.7749(2) 0.50450(9)
N1B N 0.37925(13) 0.8615(2) 0.56321(8)
C5B C 0.28805(17) 0.9796(3) 0.54463(11)
C6B C 0.20880(16) 0.9625(3) 0.47355(11)
N2B N 0.25105(12) 0.8339(2) 0.44933(8)
C7B C 0.48641(17) 0.8287(3) 0.63556(10)
H1B H 0.5366(16) 0.749(3) 0.6282(10)
C8B C 0.5540(3) 1.0060(5) 0.66823(18)
H2B H 0.521(3) 1.077(5) 0.6826(18)
H3B H 0.564(3) 1.079(6) 0.638(2)
H4B H 0.633(3) 0.984(4) 0.7089(17)
C9B C 0.4581(3) 0.7282(6) 0.68139(16)
H5B H 0.418(2) 0.610(4) 0.6595(15)
H6B H 0.410(3) 0.804(4) 0.6912(16)
H7B H 0.531(3) 0.686(4) 0.7249(18)
C10B C 0.2811(3) 1.0987(5) 0.59477(17)
H8B H 0.299(3) 1.033(6) 0.636(2)
H9B H 0.204(4) 1.154(6) 0.569(2)
H10B H 0.316(5) 1.233(9) 0.594(3)
C11B C 0.0948(2) 1.0601(5) 0.42936(17)
H11B H 0.034(3) 0.969(5) 0.4077(18)
H12B H 0.063(5) 1.067(8) 0.381(3)
H13B H 0.072(3) 1.135(5) 0.4505(19)
C12B C 0.19542(17) 0.7713(3) 0.37450(10)
H14B H 0.2539(16) 0.690(3) 0.3766(10)
C13B C 0.1734(3) 0.9334(4) 0.32617(14)
H15B H 0.153(3) 0.881(4) 0.283(2)
H16B H 0.230(3) 1.017(4) 0.3406(15)
H17B H 0.113(3) 1.014(4) 0.3197(16)
C14B C 0.0877(2) 0.6565(4) 0.34896(16)
H18B H 0.099(4) 0.567(6) 0.381(2)
H19B H 0.017(2) 0.729(3) 0.3340(12)
H20B H 0.071(2) 0.590(3) 0.3102(15)
B1 B 0.2476(2) 0.4670(4) 0.26144(14)
F3 F 0.14330(14) 0.5569(3) 0.23007(9)
F4 F 0.2448(2) 0.3177(3) 0.22509(11)
F5 F 0.3213(3) 0.5874(4) 0.2630(3)
F6 F 0.2920(2) 0.4229(4) 0.32760(10)
C15 C 0.1389(3) 0.9369(6) 0.13227(19)
H21 H 0.183(4) 1.038(7) 0.161(2)
H22 H 0.057(4) 0.934(6) 0.120(2)
H23 H 0.157(4) 0.820(7) 0.157(3)
C16 C 0.1403(2) 0.9208(4) 0.07182(17)
N3 N 0.1435(3) 0.9105(5) 0.0242(2)
loop_
_geom_bond_atom_site_label_1
_geom_bond_atom_site_label_2
_geom_bond_site_symmetry_1
_geom_bond_site_symmetry_2
C1 C2 1_555 1_555
C2 F1 1_555 1_555
C3 C1 1_555 1_555
F2 C3 1_555 1_555
C4 C1 1_555 1_555
N1 C4 1_555 1_555
C5 N1 1_555 1_555
C6 C5 1_555 1_555
N2 C4 1_555 1_555
C7 N1 1_555 1_555
H1 C7 1_555 1_555
C8 C7 1_555 1_555
H2 C8 1_555 1_555
H3 C8 1_555 1_555
H4 C8 1_555 1_555
C9 C7 1_555 1_555
H5 C9 1_555 1_555
H6 C9 1_555 1_555
H7 C9 1_555 1_555
C10 C5 1_555 1_555
H8 C10 1_555 1_555
H9 C10 1_555 1_555
H10 C10 1_555 1_555
C11 C6 1_555 1_555
H11 C11 1_555 1_555
H12 C11 1_555 1_555
H13 C11 1_555 1_555
C12 N2 1_555 1_555
H14 C12 1_555 1_555
C13 C12 1_555 1_555
H15 C13 1_555 1_555
H16 C13 1_555 1_555
H17 C13 1_555 1_555
C14 C12 1_555 1_555
H18 C14 1_555 1_555
H19 C14 1_555 1_555
H20 C14 1_555 1_555
B1 F3 1_555 1_555
F4 B1 1_555 1_555
F5 B1 1_555 1_555
F6 B1 1_555 1_555
C15 H21 1_555 1_555
H22 C15 1_555 1_555
H23 C15 1_555 1_555
C16 C15 1_555 1_555
N3 C16 1_555 1_555
C1B C2B 1_555 1_555
C2B C3 1_555 1_555
F1B C2B 1_555 1_555
C3B C2 1_555 1_555
F2B C3B 1_555 1_555
C4B C1B 1_555 1_555
N1B C4B 1_555 1_555
C5B N1B 1_555 1_555
C6B C5B 1_555 1_555
N2B C4B 1_555 1_555
C7B N1B 1_555 1_555
H1B C7B 1_555 1_555
C8B C7B 1_555 1_555
H2B C8B 1_555 1_555
H3B C8B 1_555 1_555
H4B C8B 1_555 1_555
C9B C7B 1_555 1_555
H5B C9B 1_555 1_555
H6B C9B 1_555 1_555
H7B C9B 1_555 1_555
C10B C5B 1_555 1_555
H8B C10B 1_555 1_555
H9B C10B 1_555 1_555
H10B C10B 1_555 1_555
C11B C6B 1_555 1_555
H11B C11B 1_555 1_555
H12B C11B 1_555 1_555
H13B C11B 1_555 1_555
C12B N2B 1_555 1_555
H14B C12B 1_555 1_555
C13B C12B 1_555 1_555
H15B C13B 1_555 1_555
H16B C13B 1_555 1_555
H17B C13B 1_555 1_555
C14B C12B 1_555 1_555
H18B C14B 1_555 1_555
H19B C14B 1_555 1_555
H20B C14B 1_555 1_555
C6 N2 1_555 1_555
C1B C3B 1_555 1_555
C6B N2B 1_555 1_555

#END
