
#######################################################################
#
#                 Cambridge Crystallographic Data Centre
#                                CCDC 
#
#######################################################################
#
# If this CIF has been generated from an entry in the Cambridge 
# Structural Database, then it will include bibliographic, chemical, 
# crystal, experimental, refinement or atomic coordinate data resulting 
# from the CCDC's data processing and validation procedures.
#
#######################################################################

data_HULGIE
_chemical_formula_moiety         'C19 H15 N7'
_chemical_name_systematic        
syn-anti-2,6-bis(N,N'-Benzotriazol-1-ylmethyl)pyridine
_symmetry_cell_setting           monoclinic
_symmetry_space_group_name_H-M   'P 21/n'
_symmetry_Int_Tables_number      14
_space_group_name_Hall           '-P 2yn'
loop_
_symmetry_equiv_pos_site_id
_symmetry_equiv_pos_as_xyz
1 x,y,z
2 1/2-x,1/2+y,1/2-z
3 -x,-y,-z
4 1/2+x,1/2-y,1/2+z
_cell_length_a                   14.5526(12)
_cell_length_b                   7.9438(9)
_cell_length_c                   14.2666(8)
_cell_angle_alpha                90
_cell_angle_beta                 93.480(6)
_cell_angle_gamma                90
_cell_volume                     1646.22
_exptl_crystal_colour            colorless
_exptl_crystal_description       block
_chemical_melting_point          392-394K
_cell_formula_units_Z            4
_exptl_crystal_recrystallization_method 'ethyl acetate/hexane'
loop_
_atom_site_label
_atom_site_type_symbol
_atom_site_fract_x
_atom_site_fract_y
_atom_site_fract_z
N1 N 0.31396(8) 0.18574(16) 0.34202(8)
N2 N 0.59335(11) 0.4266(2) 0.29172(12)
N3 N 0.53300(10) 0.4351(2) 0.35576(11)
N4 N 0.50281(8) 0.27785(18) 0.37372(9)
N5 N 0.15538(10) 0.3414(2) 0.01910(10)
N6 N 0.13086(9) 0.26556(19) 0.09427(10)
N7 N 0.20714(8) 0.21196(16) 0.14464(9)
C1 C 0.22398(10) 0.18759(19) 0.31806(10)
C2 C 0.16004(11) 0.2606(2) 0.37278(11)
H1 H 0.0977 0.2583 0.3542
C3 C 0.19040(11) 0.3371(2) 0.45555(12)
H2 H 0.1489 0.3879 0.4937
C4 C 0.28293(11) 0.3371(2) 0.48092(11)
H3 H 0.3050 0.3881 0.5365
C5 C 0.34269(10) 0.26032(19) 0.42261(10)
C6 C 0.44344(11) 0.2494(2) 0.45017(11)
H4 H 0.4582 0.3317 0.4990
H5 H 0.4565 0.1388 0.4765
C7 C 0.60389(11) 0.2602(2) 0.26876(11)
C8 C 0.54604(10) 0.1638(2) 0.32077(10)
C9 C 0.54173(11) -0.0105(2) 0.31385(11)
H6 H 0.5018 -0.0738 0.3482
C10 C 0.59956(13) -0.0836(2) 0.25369(12)
H7 H 0.5990 -0.2000 0.2469
C11 C 0.65981(12) 0.0124(3) 0.20173(12)
H8 H 0.6986 -0.0422 0.1621
C12 C 0.66269(12) 0.1827(3) 0.20804(12)
H9 H 0.7024 0.2457 0.1732
C13 C 0.19628(12) 0.1042(2) 0.22585(11)
H10 H 0.2332 0.0036 0.2196
H11 H 0.1324 0.0696 0.2264
C14 C 0.24949(12) 0.3355(2) 0.01881(11)
C15 C 0.28371(10) 0.25378(19) 0.09966(10)
C16 C 0.37750(12) 0.2283(2) 0.11894(14)
H12 H 0.4004 0.1755 0.1736
C17 C 0.43400(14) 0.2854(3) 0.05292(16)
H13 H 0.4972 0.2708 0.0631
C18 C 0.39997(16) 0.3654(3) -0.02983(15)
H14 H 0.4411 0.4011 -0.0731
C19 C 0.30849(15) 0.3917(2) -0.04813(13)
H15 H 0.2861 0.4449 -0.1029
loop_
_geom_bond_atom_site_label_1
_geom_bond_atom_site_label_2
_geom_bond_site_symmetry_1
_geom_bond_site_symmetry_2
N1 C1 1_555 1_555
N2 N3 1_555 1_555
N3 N4 1_555 1_555
N4 C6 1_555 1_555
N5 N6 1_555 1_555
N6 N7 1_555 1_555
N7 C13 1_555 1_555
C1 C2 1_555 1_555
C2 H1 1_555 1_555
C3 C2 1_555 1_555
H2 C3 1_555 1_555
C4 C3 1_555 1_555
H3 C4 1_555 1_555
C5 N1 1_555 1_555
C6 C5 1_555 1_555
H4 C6 1_555 1_555
H5 C6 1_555 1_555
C7 N2 1_555 1_555
C8 N4 1_555 1_555
C9 C8 1_555 1_555
H6 C9 1_555 1_555
C10 C9 1_555 1_555
H7 C10 1_555 1_555
C11 C10 1_555 1_555
H8 C11 1_555 1_555
C12 C7 1_555 1_555
H9 C12 1_555 1_555
C13 C1 1_555 1_555
H10 C13 1_555 1_555
H11 C13 1_555 1_555
C14 N5 1_555 1_555
C15 N7 1_555 1_555
C16 C15 1_555 1_555
H12 C16 1_555 1_555
C17 C16 1_555 1_555
H13 C17 1_555 1_555
C18 C17 1_555 1_555
H14 C18 1_555 1_555
C19 C14 1_555 1_555
H15 C19 1_555 1_555
C4 C5 1_555 1_555
C7 C8 1_555 1_555
C11 C12 1_555 1_555
C14 C15 1_555 1_555
C18 C19 1_555 1_555

#END
