
#######################################################################
#
#                 Cambridge Crystallographic Data Centre
#                                CCDC 
#
#######################################################################
#
# If this CIF has been generated from an entry in the Cambridge 
# Structural Database, then it will include bibliographic, chemical, 
# crystal, experimental, refinement or atomic coordinate data resulting 
# from the CCDC's data processing and validation procedures.
#
#######################################################################

data_HULJOP
_chemical_formula_moiety         'C34 H32 N2 O4,C1 H2 Cl2'
_chemical_name_systematic        
'2-ethoxy-N-(4-methoxyphenyl)-N-(1-(4-methoxyphenyl)-2,5-diphenyl-1H-pyrrol-3-yl)acetamide dichloromethane solvate'
_symmetry_cell_setting           monoclinic
_symmetry_space_group_name_H-M   'C c'
_symmetry_Int_Tables_number      9
_space_group_name_Hall           'C -2yc'
loop_
_symmetry_equiv_pos_site_id
_symmetry_equiv_pos_as_xyz
1 x,y,z
2 x,-y,1/2+z
3 1/2+x,1/2+y,z
4 1/2+x,1/2-y,1/2+z
_cell_length_a                   26.271(4)
_cell_length_b                   5.9202(8)
_cell_length_c                   21.057(3)
_cell_angle_alpha                90
_cell_angle_beta                 108.458(2)
_cell_angle_gamma                90
_cell_volume                     3106.51
_exptl_crystal_colour            colorless
_exptl_crystal_description       Prism
_cell_formula_units_Z            4
loop_
_atom_site_label
_atom_site_type_symbol
_atom_site_fract_x
_atom_site_fract_y
_atom_site_fract_z
O1 O 0.56997(4) 0.5877(2) 0.21285(6)
O2 O 0.21545(5) 0.36964(19) -0.27770(6)
N1 N 0.34794(4) 0.62904(19) 0.09987(5)
N2 N 0.22590(4) 0.7599(2) -0.03261(6)
C1 C 0.30406(6) 0.1192(2) 0.16802(7)
H1 H 0.2780 0.0791 0.1268
C2 C 0.31739(6) -0.0337(2) 0.22060(8)
H2 H 0.3005 -0.1774 0.2152
C3 C 0.35546(6) 0.0228(3) 0.28118(8)
H3 H 0.3649 -0.0823 0.3171
C4 C 0.37960(6) 0.2346(3) 0.28878(8)
H4 H 0.4054 0.2744 0.3303
C5 C 0.36638(6) 0.3882(2) 0.23641(7)
H5 H 0.3831 0.5324 0.2423
C6 C 0.32857(5) 0.3324(2) 0.17486(7)
C7 C 0.31222(5) 0.4886(2) 0.11742(7)
C8 C 0.26215(5) 0.5245(2) 0.07250(7)
H6 H 0.2299 0.4513 0.0722
C9 C 0.26741(5) 0.6908(2) 0.02666(7)
C10 C 0.32073(5) 0.7549(2) 0.04394(7)
C11 C 0.34653(5) 0.9197(2) 0.01151(6)
C12 C 0.39534(5) 0.8753(2) -0.00006(7)
H7 H 0.4130 0.7351 0.0136
C13 C 0.41792(6) 1.0347(3) -0.03130(7)
H8 H 0.4513 1.0044 -0.0381
C14 C 0.39190(6) 1.2388(3) -0.05278(7)
H9 H 0.4075 1.3475 -0.0742
C15 C 0.34319(6) 1.2828(2) -0.04281(7)
H10 H 0.3249 1.4206 -0.0583
C16 C 0.32102(5) 1.1264(2) -0.01026(7)
H11 H 0.2881 1.1598 -0.0026
C17 C 0.40504(5) 0.6235(2) 0.13036(7)
C18 C 0.43168(5) 0.8089(2) 0.16554(7)
H12 H 0.4121 0.9394 0.1701
C19 C 0.48743(6) 0.8034(2) 0.19427(7)
H13 H 0.5060 0.9302 0.2183
C20 C 0.51543(6) 0.6110(3) 0.18736(7)
C21 C 0.48811(6) 0.4231(2) 0.15239(8)
H14 H 0.5074 0.2912 0.1483
C22 C 0.43302(5) 0.4304(2) 0.12388(7)
H15 H 0.4143 0.3036 0.0999
C23 C 0.59957(6) 0.7790(3) 0.24675(9)
H16 H 0.5940 0.9064 0.2156
H17 H 0.6378 0.7414 0.2635
H18 H 0.5871 0.8203 0.2844
C24 C 0.22437(5) 0.6510(2) -0.09461(7)
C25 C 0.25048(5) 0.7485(2) -0.13632(7)
H19 H 0.2700 0.8853 -0.1236
C26 C 0.24784(6) 0.6453(3) -0.19597(8)
H20 H 0.2661 0.7099 -0.2240
C27 C 0.21841(6) 0.4461(2) -0.21549(8)
C28 C 0.19379(6) 0.3453(2) -0.17332(8)
H21 H 0.1749 0.2069 -0.1857
C29 C 0.19692(6) 0.4485(2) -0.11283(8)
H22 H 0.1802 0.3800 -0.0838
C30 C 0.18405(7) 0.1725(3) -0.30194(10)
H23 H 0.1852 0.1363 -0.3469
H24 H 0.1468 0.2003 -0.3038
H25 H 0.1986 0.0455 -0.2718
C31 C 0.18460(6) 0.8956(3) -0.03025(12)
O3 O 0.18140(17) 0.9719(7) 0.0264(2)
O4 O 0.11049(7) 1.1257(3) -0.07583(9)
C32 C 0.1374(2) 0.9282(12) -0.0840(3)
H26 H 0.1135 0.7965 -0.0876
H27 H 0.1465 0.9387 -0.1262
C33 C 0.06463(13) 1.1619(6) -0.13340(15)
H28 H 0.0383 1.0383 -0.1378
H29 H 0.0755 1.1649 -0.1743
C34 C 0.0400(2) 1.3841(10) -0.1247(3)
H30 H 0.0085 1.4134 -0.1638
H31 H 0.0664 1.5051 -0.1203
H32 H 0.0291 1.3788 -0.0843
Cl1 Cl 0.02640(4) 1.03546(18) 0.01617(6)
Cl2 Cl 0.07153(5) 1.4802(2) 0.06466(6)
C38 C 0.08482(16) 1.1870(7) 0.06218(18)
H40 H 0.0981 1.1273 0.1084
H41 H 0.1133 1.1639 0.0412
O5? O 0.14881(17) 0.9326(9) -0.0954(2)
O6? O 0.14514(9) 1.1697(4) 0.01029(11)
C35? C 0.1920(3) 1.0156(14) 0.0350(5)
H33? H 0.1887 0.9124 0.0705
H34? H 0.2265 1.0984 0.0508
C36? C 0.12838(14) 1.2322(6) 0.06630(16)
H35? H 0.1599 1.2439 0.1072
H36? H 0.1038 1.1165 0.0740
C37? C 0.10001(18) 1.4583(7) 0.05091(19)
H37? H 0.0885 1.5052 0.0889
H38? H 0.0686 1.4445 0.0108
H39? H 0.1246 1.5715 0.0431
Cl3? Cl 0.02257(6) 1.4342(3) -0.13783(8)
Cl4? Cl 0.00809(5) 1.0112(2) -0.07441(8)
C39? C 0.0355(2) 1.1402(8) -0.1332(2)
H42? H 0.0747 1.1136 -0.1193
H43? H 0.0193 1.0712 -0.1779
loop_
_geom_bond_atom_site_label_1
_geom_bond_atom_site_label_2
_geom_bond_site_symmetry_1
_geom_bond_site_symmetry_2
O1 C20 1_555 1_555
O2 C27 1_555 1_555
N1 C7 1_555 1_555
N2 C9 1_555 1_555
C1 H1 1_555 1_555
C2 C1 1_555 1_555
H2 C2 1_555 1_555
C3 C2 1_555 1_555
H3 C3 1_555 1_555
C4 C3 1_555 1_555
H4 C4 1_555 1_555
C5 C4 1_555 1_555
H5 C5 1_555 1_555
C6 C1 1_555 1_555
C7 C6 1_555 1_555
C8 C7 1_555 1_555
H6 C8 1_555 1_555
C9 C8 1_555 1_555
C10 N1 1_555 1_555
C11 C10 1_555 1_555
C12 C11 1_555 1_555
H7 C12 1_555 1_555
C13 C12 1_555 1_555
H8 C13 1_555 1_555
C14 C13 1_555 1_555
H9 C14 1_555 1_555
C15 C14 1_555 1_555
H10 C15 1_555 1_555
C16 C11 1_555 1_555
H11 C16 1_555 1_555
C17 N1 1_555 1_555
C18 C17 1_555 1_555
H12 C18 1_555 1_555
C19 C18 1_555 1_555
H13 C19 1_555 1_555
C20 C19 1_555 1_555
C21 C20 1_555 1_555
H14 C21 1_555 1_555
C22 C17 1_555 1_555
H15 C22 1_555 1_555
C23 O1 1_555 1_555
H16 C23 1_555 1_555
H17 C23 1_555 1_555
H18 C23 1_555 1_555
C24 N2 1_555 1_555
C25 C24 1_555 1_555
H19 C25 1_555 1_555
C26 C25 1_555 1_555
H20 C26 1_555 1_555
C27 C26 1_555 1_555
C28 C27 1_555 1_555
H21 C28 1_555 1_555
C29 C24 1_555 1_555
H22 C29 1_555 1_555
C30 O2 1_555 1_555
H23 C30 1_555 1_555
H24 C30 1_555 1_555
H25 C30 1_555 1_555
C31 N2 1_555 1_555
O3 C31 1_555 1_555
O4 C32 1_555 1_555
C32 C31 1_555 1_555
H26 C32 1_555 1_555
H27 C32 1_555 1_555
C33 O4 1_555 1_555
H28 C33 1_555 1_555
H29 C33 1_555 1_555
C34 C33 1_555 1_555
H30 C34 1_555 1_555
H31 C34 1_555 1_555
H32 C34 1_555 1_555
Cl1 C38 1_555 1_555
Cl2 C38 1_555 1_555
C38 H40 1_555 1_555
H41 C38 1_555 1_555
C5 C6 1_555 1_555
C9 C10 1_555 1_555
C15 C16 1_555 1_555
C21 C22 1_555 1_555
C28 C29 1_555 1_555

#END
