
#######################################################################
#
#                 Cambridge Crystallographic Data Centre
#                                CCDC 
#
#######################################################################
#
# If this CIF has been generated from an entry in the Cambridge 
# Structural Database, then it will include bibliographic, chemical, 
# crystal, experimental, refinement or atomic coordinate data resulting 
# from the CCDC's data processing and validation procedures.
#
#######################################################################

data_HULNOT
_chemical_formula_moiety         'C23 H32 O4'
_chemical_name_systematic        
'17-acetyl-6-methyl-3-oxoestr-4-en-17-yl acetate'
_symmetry_cell_setting           monoclinic
_symmetry_space_group_name_H-M   'P 21'
_symmetry_Int_Tables_number      4
_space_group_name_Hall           'P 2yb'
loop_
_symmetry_equiv_pos_site_id
_symmetry_equiv_pos_as_xyz
1 x,y,z
2 -x,1/2+y,-z
_cell_length_a                   9.4981(12)
_cell_length_b                   9.9443(14)
_cell_length_c                   11.1554(15)
_cell_angle_alpha                90
_cell_angle_beta                 102.956(2)
_cell_angle_gamma                90
_cell_volume                     1026.83
_exptl_crystal_colour            colorless
_exptl_crystal_description       Prism
_cell_formula_units_Z            2
loop_
_atom_site_label
_atom_site_type_symbol
_atom_site_fract_x
_atom_site_fract_y
_atom_site_fract_z
O1 O 0.4923(2) 0.5136(3) 0.21391(15)
O2 O 0.13711(18) 0.31682(17) 1.08611(12)
O3 O 0.19628(13) 0.16307(12) 0.81996(10)
O4 O 0.18394(18) 0.02476(16) 0.97532(14)
C1 C 0.5558(3) 0.5811(3) 0.41903(18)
H1 H 0.6539 0.5769 0.4200
C2 C 0.4520(3) 0.5424(3) 0.30540(18)
C3 C 0.2954(2) 0.5395(2) 0.31144(17)
H2 H 0.2721 0.4517 0.3394
H3 H 0.2357 0.5541 0.2298
C4 C 0.2619(2) 0.6462(2) 0.39776(17)
H4 H 0.1616 0.6382 0.4029
H5 H 0.2750 0.7344 0.3648
C5 C 0.35878(18) 0.63355(17) 0.52682(15)
H6 H 0.3488 0.7171 0.5708
C6 C 0.51651(19) 0.62168(18) 0.52050(15)
C7 C 0.62057(18) 0.63070(19) 0.64447(15)
H7 H 0.6006 0.7149 0.6833
C8 C 0.58386(18) 0.5138(2) 0.72276(15)
H8 H 0.6045 0.4293 0.6866
H9 H 0.6455 0.5193 0.8047
C9 C 0.42647(17) 0.51427(17) 0.73274(14)
H10 H 0.4102 0.5963 0.7765
C10 C 0.32164(16) 0.51644(16) 0.60510(14)
H11 H 0.3357 0.4326 0.5632
C11 C 0.16404(18) 0.5196(2) 0.61727(16)
H12 H 0.1453 0.6051 0.6525
H13 H 0.1011 0.5133 0.5360
C12 C 0.12710(18) 0.4056(2) 0.69751(15)
H14 H 0.1314 0.3202 0.6565
H15 H 0.0293 0.4176 0.7083
C13 C 0.23229(18) 0.40333(17) 0.82382(14)
C14 C 0.38733(17) 0.39463(16) 0.80396(13)
H16 H 0.3907 0.3150 0.7530
C15 C 0.4787(2) 0.36212(19) 0.93199(15)
H17 H 0.4999 0.4429 0.9816
H18 H 0.5688 0.3192 0.9266
C16 C 0.3827(2) 0.2657(2) 0.98585(16)
H19 H 0.3836 0.2905 1.0701
H20 H 0.4183 0.1744 0.9853
C17 C 0.22801(18) 0.27576(19) 0.90585(14)
C18 C 0.1081(2) 0.2844(2) 0.97857(15)
C19 C -0.0442(2) 0.2610(2) 0.91154(18)
H21 H -0.0654 0.1666 0.9114
H22 H -0.0571 0.2922 0.8284
H23 H -0.1083 0.3091 0.9517
C20 C 0.1800(2) 0.04190(19) 0.86742(19)
C21 C 0.1516(3) -0.0648(2) 0.7715(2)
H24 H 0.2411 -0.0923 0.7528
H25 H 0.0883 -0.0304 0.6986
H26 H 0.1070 -0.1406 0.8014
C22 C 0.7799(2) 0.6311(3) 0.64015(19)
H27 H 0.8038 0.5474 0.6066
H28 H 0.8380 0.6421 0.7219
H29 H 0.7983 0.7039 0.5893
C23 C 0.2090(2) 0.5272(2) 0.89988(18)
H30 H 0.2290 0.6074 0.8588
H31 H 0.2729 0.5224 0.9798
H32 H 0.1108 0.5289 0.9086
loop_
_geom_bond_atom_site_label_1
_geom_bond_atom_site_label_2
_geom_bond_site_symmetry_1
_geom_bond_site_symmetry_2
O1 C2 1_555 1_555
O2 C18 1_555 1_555
O3 C17 1_555 1_555
O4 C20 1_555 1_555
C1 H1 1_555 1_555
C2 C1 1_555 1_555
C3 C2 1_555 1_555
H2 C3 1_555 1_555
H3 C3 1_555 1_555
C4 C3 1_555 1_555
H4 C4 1_555 1_555
H5 C4 1_555 1_555
C5 C4 1_555 1_555
H6 C5 1_555 1_555
C6 C1 1_555 1_555
C7 C6 1_555 1_555
H7 C7 1_555 1_555
C8 C7 1_555 1_555
H8 C8 1_555 1_555
H9 C8 1_555 1_555
C9 C8 1_555 1_555
H10 C9 1_555 1_555
C10 C5 1_555 1_555
H11 C10 1_555 1_555
C11 C10 1_555 1_555
H12 C11 1_555 1_555
H13 C11 1_555 1_555
C12 C11 1_555 1_555
H14 C12 1_555 1_555
H15 C12 1_555 1_555
C13 C12 1_555 1_555
C14 C9 1_555 1_555
H16 C14 1_555 1_555
C15 C14 1_555 1_555
H17 C15 1_555 1_555
H18 C15 1_555 1_555
C16 C15 1_555 1_555
H19 C16 1_555 1_555
H20 C16 1_555 1_555
C17 C13 1_555 1_555
C18 C17 1_555 1_555
C19 C18 1_555 1_555
H21 C19 1_555 1_555
H22 C19 1_555 1_555
H23 C19 1_555 1_555
C20 O3 1_555 1_555
C21 C20 1_555 1_555
H24 C21 1_555 1_555
H25 C21 1_555 1_555
H26 C21 1_555 1_555
C22 C7 1_555 1_555
H27 C22 1_555 1_555
H28 C22 1_555 1_555
H29 C22 1_555 1_555
C23 C13 1_555 1_555
H30 C23 1_555 1_555
H31 C23 1_555 1_555
H32 C23 1_555 1_555
C5 C6 1_555 1_555
C9 C10 1_555 1_555
C13 C14 1_555 1_555
C16 C17 1_555 1_555

#END
