
#######################################################################
#
#                 Cambridge Crystallographic Data Centre
#                                CCDC 
#
#######################################################################
#
# If this CIF has been generated from an entry in the Cambridge 
# Structural Database, then it will include bibliographic, chemical, 
# crystal, experimental, refinement or atomic coordinate data resulting 
# from the CCDC's data processing and validation procedures.
#
#######################################################################

data_HULNUX
_chemical_formula_moiety         'C20 H30 Cl4 Si2'
_chemical_name_systematic        
9,10-bis(2-(Dichloromethylsilyl)ethyl)-1,2,3,4,5,6,7,8-octahydroanthracene
_symmetry_cell_setting           triclinic
_symmetry_space_group_name_H-M   'P -1'
_symmetry_Int_Tables_number      2
_space_group_name_Hall           '-P 1'
loop_
_symmetry_equiv_pos_site_id
_symmetry_equiv_pos_as_xyz
1 x,y,z
2 -x,-y,-z
_cell_length_a                   6.6325(11)
_cell_length_b                   9.501(2)
_cell_length_c                   9.948(4)
_cell_angle_alpha                69.88(2)
_cell_angle_beta                 77.37(2)
_cell_angle_gamma                86.35(2)
_cell_volume                     574.332
_chemical_melting_point          230deg.C(dec.)
_cell_formula_units_Z            1
_exptl_crystal_recrystallization_method toluene
loop_
_atom_site_label
_atom_site_type_symbol
_atom_site_fract_x
_atom_site_fract_y
_atom_site_fract_z
Si1 Si 0.13823(14) 0.91868(10) 0.74612(10)
Cl1 Cl 0.10716(18) 1.13817(11) 0.62354(13)
Cl2 Cl 0.2569(3) 0.91768(19) 0.9171(2)
C1 C 0.3244(4) 0.8232(3) 0.6190(3)
H1 H 0.4566 0.8731 0.5850
H2 H 0.2660 0.8306 0.5367
H3 H 0.3409 0.7195 0.6737
C2 C -0.1177(5) 0.8264(4) 0.8122(4)
H4 H -0.2099 0.8804 0.8670
H5 H -0.1743 0.8306 0.7288
C3 C -0.1075(5) 0.6609(4) 0.9108(4)
H6 H -0.0055 0.6099 0.8586
H7 H -0.0614 0.6580 0.9978
C4 C -0.3120(5) 0.5768(3) 0.9572(3)
C5 C -0.4487(5) 0.5764(3) 1.0864(3)
C6 C -0.3913(5) 0.6596(4) 1.1789(4)
H8 H -0.2894 0.6018 1.2314
H9 H -0.3274 0.7548 1.1143
C7 C -0.5712(6) 0.6887(4) 1.2880(4)
H10 H -0.6581 0.7655 1.2370
H11 H -0.5206 0.7245 1.3550
C8 C -0.6964(6) 0.5458(5) 1.3730(4)
H12 H -0.6084 0.4679 1.4211
H13 H -0.8061 0.5630 1.4477
C9 C -0.7886(5) 0.4957(4) 1.2695(4)
H14 H -0.9033 0.5603 1.2433
H15 H -0.8435 0.3946 1.3209
C10 C -0.3623(5) 0.5022(3) 0.8699(3)
C10A C -0.6377(5) 0.4978(3) 1.1301(3)
C4A C -0.6880(5) 0.4232(3) 1.0428(3)
C3A C -0.8925(5) 0.3391(4) 1.0892(4)
C2A C -0.8823(5) 0.1736(4) 1.1878(4)
Si1A Si -1.13823(14) 0.08132(10) 1.25388(10)
Cl1A Cl -1.10716(18) -0.13817(11) 1.37646(13)
Cl2A Cl -1.2569(3) 0.08232(19) 1.0829(2)
C1A C -1.3244(4) 0.1768(3) 1.3810(3)
H1A H -1.4566 0.1269 1.4150
H2A H -1.2660 0.1694 1.4633
H3A H -1.3409 0.2805 1.3263
H4A H -0.7901 0.1196 1.1330
H5A H -0.8257 0.1694 1.2712
H6A H -0.9945 0.3901 1.1414
H7A H -0.9386 0.3420 1.0022
C5A C -0.5513(5) 0.4236(3) 0.9136(3)
C6A C -0.6087(5) 0.3404(4) 0.8211(4)
H8A H -0.7106 0.3982 0.7686
H9A H -0.6726 0.2452 0.8857
C7A C -0.4288(6) 0.3113(4) 0.7120(4)
H10A H -0.3419 0.2345 0.7630
H11A H -0.4794 0.2755 0.6450
C8A C -0.3036(6) 0.4542(5) 0.6270(4)
H12A H -0.3916 0.5321 0.5789
H13A H -0.1939 0.4370 0.5523
C9A C -0.2114(5) 0.5043(4) 0.7305(4)
H14A H -0.0967 0.4397 0.7567
H15A H -0.1565 0.6054 0.6791
Cl3? Cl 0.3244(4) 0.8232(3) 0.6190(3)
C11? C 0.2569(3) 0.91768(19) 0.9171(2)
H16? H 0.3902 0.9661 0.8814
H17? H 0.2706 0.8161 0.9787
H18? H 0.1663 0.9704 0.9725
loop_
_geom_bond_atom_site_label_1
_geom_bond_atom_site_label_2
_geom_bond_site_symmetry_1
_geom_bond_site_symmetry_2
Si1 Cl1 1_555 1_555
Cl2 Si1 1_555 1_555
C1 Si1 1_555 1_555
H1 C1 1_555 1_555
H2 C1 1_555 1_555
H3 C1 1_555 1_555
C2 Si1 1_555 1_555
H4 C2 1_555 1_555
H5 C2 1_555 1_555
C3 C2 1_555 1_555
H6 C3 1_555 1_555
H7 C3 1_555 1_555
C4 C3 1_555 1_555
C5 C4 1_555 1_555
C6 C5 1_555 1_555
H8 C6 1_555 1_555
H9 C6 1_555 1_555
C7 C6 1_555 1_555
H10 C7 1_555 1_555
H11 C7 1_555 1_555
C8 C7 1_555 1_555
H12 C8 1_555 1_555
H13 C8 1_555 1_555
C9 C8 1_555 1_555
H14 C9 1_555 1_555
H15 C9 1_555 1_555
C10 C4 1_555 1_555
C10A C5 1_555 1_555
C4A C10A 1_555 1_555
C3A C4A 1_555 1_555
C2A C3A 1_555 1_555
Si1A C2A 1_555 1_555
Cl1A Si1A 1_555 1_555
Cl2A Si1A 1_555 1_555
C1A Si1A 1_555 1_555
H1A C1A 1_555 1_555
H2A C1A 1_555 1_555
H3A C1A 1_555 1_555
H4A C2A 1_555 1_555
H5A C2A 1_555 1_555
H6A C3A 1_555 1_555
H7A C3A 1_555 1_555
C5A C10 1_555 1_555
C6A C5A 1_555 1_555
H8A C6A 1_555 1_555
H9A C6A 1_555 1_555
C7A C6A 1_555 1_555
H10A C7A 1_555 1_555
H11A C7A 1_555 1_555
C8A C7A 1_555 1_555
H12A C8A 1_555 1_555
H13A C8A 1_555 1_555
C9A C10 1_555 1_555
H14A C9A 1_555 1_555
H15A C9A 1_555 1_555
C9 C10A 1_555 1_555
C4A C5A 1_555 1_555
C8A C9A 1_555 1_555

#END
