
#######################################################################
#
#                 Cambridge Crystallographic Data Centre
#                                CCDC 
#
#######################################################################
#
# If this CIF has been generated from an entry in the Cambridge 
# Structural Database, then it will include bibliographic, chemical, 
# crystal, experimental, refinement or atomic coordinate data resulting 
# from the CCDC's data processing and validation procedures.
#
#######################################################################

data_HULROV
_chemical_formula_moiety         'C17 H28 N1 O6 1+,F6 P1 1-,0.5(C1 H4 O1)'
_chemical_name_systematic        
"4'-(Ammoniomethyl)benzo-18-crown-6 hexafluorophosphate methanol solvate"
_symmetry_cell_setting           monoclinic
_symmetry_space_group_name_H-M   'C 2/c'
_symmetry_Int_Tables_number      15
_space_group_name_Hall           '-C 2yn'
loop_
_symmetry_equiv_pos_site_id
_symmetry_equiv_pos_as_xyz
1 x,y,z
2 1/2+x,1/2+y,z
3 x,-y,1/2+z
4 1/2+x,1/2-y,1/2+z
5 -x,-y,-z
6 1/2-x,1/2-y,-z
7 -x,y,1/2-z
8 1/2-x,1/2+y,1/2-z
_cell_length_a                   24.348(6)
_cell_length_b                   7.9883(18)
_cell_length_c                   24.881(6)
_cell_angle_alpha                90
_cell_angle_beta                 110.589(5)
_cell_angle_gamma                90
_cell_volume                     4530.23
_exptl_crystal_colour            red
_cell_formula_units_Z            8
_exptl_crystal_recrystallization_method 'methanol/acetonitrile/ethyl acetate'
loop_
_atom_site_label
_atom_site_type_symbol
_atom_site_fract_x
_atom_site_fract_y
_atom_site_fract_z
P1 P 0.63220(7) 0.1056(3) 0.13249(8)
F1 F 0.5832(2) 0.1155(8) 0.0719(2)
F2 F 0.6282(2) -0.0945(6) 0.1300(2)
F3 F 0.6802(2) 0.0943(8) 0.1033(2)
F4 F 0.58458(19) 0.1130(6) 0.1626(2)
F5 F 0.68117(19) 0.0852(6) 0.19386(17)
F6 F 0.6360(3) 0.2979(7) 0.1358(2)
C18 C 1.0000 0.851(3) 0.2500
H29 H 1.0069 0.7369 0.2630
H30 H 0.9820 0.9261 0.2689
H31 H 1.0320 0.9150 0.2467
O7 O 0.9705(12) 0.884(3) 0.2053(11)
H32 H 0.9372 0.8506 0.2002
H29F H 0.9931 0.7369 0.2370
H31F H 0.9680 0.9150 0.2533
H30F H 1.0180 0.9261 0.2311
O7F O 1.0295(12) 0.884(3) 0.2947(11)
H32F H 1.0628 0.8506 0.2998
O1 O 0.86257(19) 0.6930(5) 0.06564(16)
O2 O 0.94354(19) 0.9378(7) 0.0539(2)
O3 O 0.9439(2) 1.2769(8) 0.1022(2)
O4 O 0.9061(2) 1.2591(6) 0.19829(19)
O5 O 0.82213(19) 1.0252(6) 0.2002(2)
O6 O 0.80929(16) 0.7284(5) 0.13723(16)
N1 N 0.64289(19) 0.4657(5) -0.10260(19)
H1 H 0.6169 0.4792 -0.0852
H2 H 0.6260 0.4121 -0.1357
H3 H 0.6555 0.5654 -0.1093
C1 C 0.7801(3) 0.6341(8) 0.0911(3)
C2 C 0.7262(3) 0.5535(8) 0.0814(3)
H4 H 0.7084 0.5597 0.1089
C3 C 0.7000(3) 0.4662(8) 0.0320(3)
H5 H 0.6647 0.4117 0.0265
C4 C 0.7246(2) 0.4569(6) -0.0096(2)
C5 C 0.6937(3) 0.3654(8) -0.0649(3)
H6 H 0.7210 0.3452 -0.0847
H7 H 0.6799 0.2580 -0.0566
C6 C 0.7790(3) 0.5283(8) 0.0000(3)
H8 H 0.7971 0.5179 -0.0271
C7 C 0.8070(2) 0.6188(7) 0.0523(2)
C8 C 0.8940(3) 0.6734(9) 0.0281(3)
H9 H 0.8720 0.7216 -0.0090
H10 H 0.9000 0.5554 0.0228
C9 C 0.9504(3) 0.7579(10) 0.0531(3)
H11 H 0.9699 0.7182 0.0921
H12 H 0.9750 0.7303 0.0311
C10 C 0.9959(4) 1.0325(15) 0.0785(4)
H13 H 1.0235 1.0043 0.0598
H14 H 1.0138 1.0056 0.1190
C11 C 0.9821(4) 1.2151(15) 0.0716(4)
H15 H 1.0186 1.2771 0.0851
H16 H 0.9632 1.2390 0.0310
C12 C 0.9727(4) 1.3519(10) 0.1551(4)
H17 H 0.9941 1.4494 0.1501
H18 H 1.0005 1.2739 0.1802
C13 C 0.9299(4) 1.4016(9) 0.1806(3)
H19 H 0.9486 1.4733 0.2135
H20 H 0.8987 1.4648 0.1529
C14 C 0.8595(4) 1.2991(12) 0.2192(4)
H21 H 0.8252 1.3373 0.1879
H22 H 0.8718 1.3869 0.2479
C15 C 0.8462(4) 1.1464(12) 0.2443(4)
H23 H 0.8817 1.1028 0.2728
H24 H 0.8184 1.1707 0.2631
C16 C 0.8148(3) 0.8682(9) 0.2234(3)
H25 H 0.7960 0.8832 0.2516
H26 H 0.8526 0.8154 0.2421
C17 C 0.7782(3) 0.7637(9) 0.1761(3)
H27 H 0.7689 0.6597 0.1911
H28 H 0.7418 0.8213 0.1556
loop_
_geom_bond_atom_site_label_1
_geom_bond_atom_site_label_2
_geom_bond_site_symmetry_1
_geom_bond_site_symmetry_2
O1 C7 1_555 1_555
O2 C9 1_555 1_555
O3 C11 1_555 1_555
O4 C13 1_555 1_555
O5 C15 1_555 1_555
O6 C1 1_555 1_555
N1 H1 1_555 1_555
H2 N1 1_555 1_555
H3 N1 1_555 1_555
C1 C2 1_555 1_555
C2 H4 1_555 1_555
C3 C2 1_555 1_555
H5 C3 1_555 1_555
C4 C3 1_555 1_555
C5 N1 1_555 1_555
H6 C5 1_555 1_555
H7 C5 1_555 1_555
C6 C4 1_555 1_555
H8 C6 1_555 1_555
C7 C1 1_555 1_555
C8 O1 1_555 1_555
H9 C8 1_555 1_555
H10 C8 1_555 1_555
C9 C8 1_555 1_555
H11 C9 1_555 1_555
H12 C9 1_555 1_555
C10 O2 1_555 1_555
H13 C10 1_555 1_555
H14 C10 1_555 1_555
C11 C10 1_555 1_555
H15 C11 1_555 1_555
H16 C11 1_555 1_555
C12 O3 1_555 1_555
H17 C12 1_555 1_555
H18 C12 1_555 1_555
C13 C12 1_555 1_555
H19 C13 1_555 1_555
H20 C13 1_555 1_555
C14 O4 1_555 1_555
H21 C14 1_555 1_555
H22 C14 1_555 1_555
C15 C14 1_555 1_555
H23 C15 1_555 1_555
H24 C15 1_555 1_555
C16 O5 1_555 1_555
H25 C16 1_555 1_555
H26 C16 1_555 1_555
C17 O6 1_555 1_555
H27 C17 1_555 1_555
H28 C17 1_555 1_555
P1 F1 1_555 1_555
F2 P1 1_555 1_555
F3 P1 1_555 1_555
F4 P1 1_555 1_555
F5 P1 1_555 1_555
F6 P1 1_555 1_555
C18 H29 1_555 1_555
H29 H29F 1_555 1_555
H30 C18 1_555 1_555
H31 C18 1_555 1_555
O7 C18 1_555 1_555
H32 O7 1_555 1_555
H29F C18 1_555 1_555
H31F C18 1_555 1_555
H30F C18 1_555 1_555
O7F C18 1_555 1_555
H32F O7F 1_555 1_555
C4 C5 1_555 1_555
C6 C7 1_555 1_555
C16 C17 1_555 1_555
H30 H31F 1_555 1_555
H30 O7F 1_555 1_555
H31 H30F 1_555 1_555
H31 O7F 1_555 1_555
O7 H30F 1_555 1_555
O7 H31F 1_555 1_555

#END
