
#######################################################################
#
#                 Cambridge Crystallographic Data Centre
#                                CCDC 
#
#######################################################################
#
# If this CIF has been generated from an entry in the Cambridge 
# Structural Database, then it will include bibliographic, chemical, 
# crystal, experimental, refinement or atomic coordinate data resulting 
# from the CCDC's data processing and validation procedures.
#
#######################################################################

data_HUMHOM
_chemical_name_common            
'1,1,6,6-Tetraphenylhexa-2,4-diyne-1,6-diol bis(anisaldehyde) clathrate'
_chemical_formula_moiety         'C30 H22 O2,2(C8 H8 O2)'
_chemical_name_systematic        
'1,1,6,6-Tetraphenylhexa-2,4-diyne-1,6-diol bis(4-methoxybenzaldehyde) clathrate'
_symmetry_cell_setting           monoclinic
_symmetry_space_group_name_H-M   'P 21/c'
_symmetry_Int_Tables_number      14
_space_group_name_Hall           '-P 2ybc'
loop_
_symmetry_equiv_pos_site_id
_symmetry_equiv_pos_as_xyz
1 x,y,z
2 x,1/2-y,1/2+z
3 -x,-y,-z
4 -x,1/2+y,1/2-z
_cell_length_a                   8.5930(10)
_cell_length_b                   18.1810(10)
_cell_length_c                   12.6490(10)
_cell_angle_alpha                90
_cell_angle_beta                 111.380(10)
_cell_angle_gamma                90
_cell_volume                     1840.15
_exptl_crystal_colour            'pale yellow'
_exptl_crystal_description       block
_cell_formula_units_Z            2
_exptl_crystal_recrystallization_method 'diethyl ether/petroleum ether'
loop_
_atom_site_label
_atom_site_type_symbol
_atom_site_fract_x
_atom_site_fract_y
_atom_site_fract_z
O1 O 0.7685(2) 0.17360(10) 0.16520(10)
C1 C 0.9789(3) 0.07710(10) 0.2107(2)
C2 C 1.0160(3) 0.02060(10) 0.1511(2)
C3 C 1.1818(4) 0.0069(2) 0.1631(3)
C4 C 1.3084(4) 0.0496(2) 0.2351(3)
C5 C 1.2721(4) 0.1055(2) 0.2960(3)
C6 C 1.1088(3) 0.11960(10) 0.2842(2)
C7 C 0.7995(3) 0.09780(10) 0.1979(2)
C8 C 0.7758(3) 0.08740(10) 0.3114(2)
C9 C 0.7848(4) 0.01690(10) 0.3552(3)
C10 C 0.7641(4) 0.0054(2) 0.4572(3)
C11 C 0.7351(4) 0.0639(2) 0.5165(3)
C12 C 0.7264(4) 0.1340(2) 0.4738(3)
C13 C 0.7481(4) 0.1461(2) 0.3712(2)
C14 C 0.6725(3) 0.0523(2) 0.1101(2)
C15 C 0.5635(3) 0.01930(10) 0.0406(2)
H1 H 0.798 0.182 0.110
H2 H 0.925 -0.011 0.102
H3 H 1.207 -0.033 0.119
H4 H 1.424 0.040 0.243
H5 H 1.363 0.136 0.348
H6 H 1.083 0.159 0.328
H7 H 0.807 -0.025 0.313
H8 H 0.770 -0.045 0.488
H9 H 0.722 0.057 0.589
H10 H 0.704 0.175 0.516
H11 H 0.744 0.197 0.341
C15B C 0.4365(3) -0.01930(10) -0.0406(2)
C14B C 0.3275(3) -0.0523(2) -0.1101(2)
C7B C 0.2005(3) -0.09780(10) -0.1979(2)
O1B O 0.2315(2) -0.17360(10) -0.16520(10)
H1B H 0.202 -0.182 -0.110
C1B C 0.0211(3) -0.07710(10) -0.2107(2)
C2B C -0.0160(3) -0.02060(10) -0.1511(2)
C3B C -0.1818(4) -0.0069(2) -0.1631(3)
C4B C -0.3084(4) -0.0496(2) -0.2351(3)
C5B C -0.2721(4) -0.1055(2) -0.2960(3)
C6B C -0.1088(3) -0.11960(10) -0.2842(2)
H6B H -0.083 -0.159 -0.328
H5B H -0.363 -0.136 -0.348
H4B H -0.424 -0.040 -0.243
H3B H -0.207 0.033 -0.119
H2B H 0.075 0.011 -0.102
C8B C 0.2242(3) -0.08740(10) -0.3114(2)
C9B C 0.2152(4) -0.01690(10) -0.3552(3)
C10B C 0.2359(4) -0.0054(2) -0.4572(3)
C11B C 0.2649(4) -0.0639(2) -0.5165(3)
C12B C 0.2736(4) -0.1340(2) -0.4738(3)
C13B C 0.2519(4) -0.1461(2) -0.3712(2)
H11B H 0.256 -0.197 -0.341
H10B H 0.296 -0.175 -0.516
H9B H 0.278 -0.057 -0.589
H8B H 0.230 0.045 -0.488
H7B H 0.193 0.025 -0.313
O2 O 0.3304(3) 0.17370(10) 0.6777(2)
O3 O -0.1216(3) 0.18440(10) 0.9791(2)
C16 C 0.2685(4) 0.1764(2) 0.7627(3)
C17 C 0.0950(4) 0.1753(2) 0.7255(3)
C18 C 0.0170(4) 0.17810(10) 0.8024(3)
C19 C 0.1100(4) 0.18170(10) 0.9185(3)
C20 C 0.2831(5) 0.1821(2) 0.9535(3)
C21 C 0.3631(4) 0.1796(2) 0.8769(3)
C22 C 0.5064(5) 0.1680(3) 0.7063(4)
C23 C 0.0290(5) 0.1844(2) 1.0012(3)
H12 H 0.029 0.172 0.643
H13 H -0.106 0.178 0.776
H14 H 0.349 0.184 1.035
H15 H 0.486 0.180 0.904
H16 H 0.558 0.215 0.731
H17 H 0.530 0.151 0.642
H18 H 0.540 0.133 0.766
H19 H 0.103 0.186 1.082
loop_
_geom_bond_atom_site_label_1
_geom_bond_atom_site_label_2
_geom_bond_site_symmetry_1
_geom_bond_site_symmetry_2
O1 C7 1_555 1_555
C1 C2 1_555 1_555
C2 C3 1_555 1_555
C3 C4 1_555 1_555
C4 C5 1_555 1_555
C5 C6 1_555 1_555
C6 C1 1_555 1_555
C7 C1 1_555 1_555
C8 C7 1_555 1_555
C9 C8 1_555 1_555
C10 C9 1_555 1_555
C11 C10 1_555 1_555
C12 C11 1_555 1_555
C13 C8 1_555 1_555
C14 C7 1_555 1_555
C15 C14 1_555 1_555
O2 C16 1_555 1_555
O3 C23 1_555 1_555
C16 C17 1_555 1_555
C17 C18 1_555 1_555
C18 C19 1_555 1_555
C19 C20 1_555 1_555
C20 C21 1_555 1_555
C21 C16 1_555 1_555
C22 O2 1_555 1_555
C23 C19 1_555 1_555
H1 O1 1_555 1_555
H2 C2 1_555 1_555
H3 C3 1_555 1_555
H4 C4 1_555 1_555
H5 C5 1_555 1_555
H6 C6 1_555 1_555
H7 C9 1_555 1_555
H8 C10 1_555 1_555
H9 C11 1_555 1_555
H10 C12 1_555 1_555
H11 C13 1_555 1_555
H12 C17 1_555 1_555
H13 C18 1_555 1_555
H14 C20 1_555 1_555
H15 C21 1_555 1_555
H16 C22 1_555 1_555
H17 C22 1_555 1_555
H18 C22 1_555 1_555
H19 C23 1_555 1_555
C15B C15 1_555 1_555
C14B C15B 1_555 1_555
C7B C14B 1_555 1_555
O1B C7B 1_555 1_555
H1B O1B 1_555 1_555
C1B C7B 1_555 1_555
C2B C1B 1_555 1_555
C3B C2B 1_555 1_555
C4B C3B 1_555 1_555
C5B C4B 1_555 1_555
C6B C1B 1_555 1_555
H6B C6B 1_555 1_555
H5B C5B 1_555 1_555
H4B C4B 1_555 1_555
H3B C3B 1_555 1_555
H2B C2B 1_555 1_555
C8B C7B 1_555 1_555
C9B C8B 1_555 1_555
C10B C9B 1_555 1_555
C11B C10B 1_555 1_555
C12B C11B 1_555 1_555
C13B C8B 1_555 1_555
H11B C13B 1_555 1_555
H10B C12B 1_555 1_555
H9B C11B 1_555 1_555
H8B C10B 1_555 1_555
H7B C9B 1_555 1_555
C12 C13 1_555 1_555
C5B C6B 1_555 1_555
C12B C13B 1_555 1_555

#END
