
#######################################################################
#
#                 Cambridge Crystallographic Data Centre
#                                CCDC 
#
#######################################################################
#
# If this CIF has been generated from an entry in the Cambridge 
# Structural Database, then it will include bibliographic, chemical, 
# crystal, experimental, refinement or atomic coordinate data resulting 
# from the CCDC's data processing and validation procedures.
#
#######################################################################

data_HUMHUT
_chemical_name_common            
2',6,6'-Trimethyl-1',4'-dihydro-2,4'-bipyridine-3',5'-dicarbonitrile
_chemical_formula_moiety         'C15 H14 N4'
_chemical_name_systematic        
2,6-Dimethyl-3,5-dicyano-4-(6-methyl-2-pyridyl)-1,4-dihydropyridine
_symmetry_cell_setting           monoclinic
_symmetry_space_group_name_H-M   'P 21/n'
_symmetry_Int_Tables_number      14
_space_group_name_Hall           '-P 2yn'
loop_
_symmetry_equiv_pos_site_id
_symmetry_equiv_pos_as_xyz
1 x,y,z
2 1/2-x,1/2+y,1/2-z
3 -x,-y,-z
4 1/2+x,1/2-y,1/2+z
_cell_length_a                   11.3722(19)
_cell_length_b                   15.558(4)
_cell_length_c                   15.257(3)
_cell_angle_alpha                90
_cell_angle_beta                 94.475(10)
_cell_angle_gamma                90
_cell_volume                     2691.17
_exptl_crystal_colour            colorless
_exptl_crystal_description       block
_cell_formula_units_Z            8
loop_
_atom_site_label
_atom_site_type_symbol
_atom_site_fract_x
_atom_site_fract_y
_atom_site_fract_z
N1 N -0.2252(3) 0.4583(2) 1.2566(2)
N2 N -0.5589(3) 0.3949(2) 1.1669(2)
H1 H -0.6250 0.3853 1.1890
N3 N -0.2333(3) 0.2157(3) 1.1136(3)
N4 N -0.3813(3) 0.6443(3) 1.0538(3)
C1 C -0.1401(4) 0.4861(4) 1.4042(3)
H2 H -0.1505 0.4282 1.4238
H3 H -0.2067 0.5202 1.4177
H4 H -0.0696 0.5097 1.4334
C2 C -0.1302(4) 0.4865(3) 1.3079(3)
C3 C -0.0296(4) 0.5152(3) 1.2729(4)
H5 H 0.0343 0.5342 1.3096
C4 C -0.0244(4) 0.5155(3) 1.1841(4)
H6 H 0.0428 0.5353 1.1595
C5 C -0.1198(4) 0.4862(3) 1.1309(3)
H7 H -0.1173 0.4851 1.0701
C6 C -0.2184(3) 0.4587(2) 1.1695(3)
C7 C -0.3264(3) 0.4307(2) 1.1118(2)
H8 H -0.3034 0.4285 1.0513
C8 C -0.3730(3) 0.3419(2) 1.1335(2)
C9 C -0.4821(3) 0.3275(2) 1.1580(2)
C10 C -0.4274(3) 0.4949(2) 1.1133(2)
C11 C -0.5332(3) 0.4766(3) 1.1416(2)
C12 C -0.2968(4) 0.2722(3) 1.1227(3)
C13 C -0.5307(3) 0.2395(3) 1.1724(3)
H9 H -0.4669 0.1994 1.1819
H10 H -0.5803 0.2226 1.1215
H11 H -0.5761 0.2403 1.2228
C14 C -0.6337(4) 0.5388(3) 1.1451(3)
H12 H -0.6057 0.5962 1.1368
H13 H -0.6658 0.5348 1.2014
H14 H -0.6939 0.5253 1.0996
C15 C -0.4048(4) 0.5787(3) 1.0816(3)
N5 N -0.2717(3) 0.1495(2) 0.7596(2)
N6 N 0.0636(3) 0.0860(2) 0.8614(2)
H15 H 0.1327 0.0741 0.8455
N7 N -0.1238(3) 0.3456(2) 0.9415(3)
N8 N -0.2700(3) -0.0878(3) 0.9024(3)
C16 C -0.3528(4) 0.1735(4) 0.6093(3)
H16 H -0.3247 0.1179 0.5933
H17 H -0.2980 0.2168 0.5935
H18 H -0.4284 0.1840 0.5787
C17 C -0.3639(4) 0.1763(3) 0.7060(3)
C18 C -0.4656(4) 0.2060(3) 0.7393(4)
H19 H -0.5282 0.2246 0.7011
C19 C -0.4749(4) 0.2083(3) 0.8274(4)
H20 H -0.5441 0.2270 0.8499
C20 C -0.3799(3) 0.1823(3) 0.8829(3)
H21 H -0.3833 0.1845 0.9436
C21 C -0.2798(3) 0.1529(2) 0.8467(3)
C22 C -0.1721(3) 0.1265(2) 0.9068(2)
H22 H -0.1957 0.1262 0.9672
C23 C -0.0712(3) 0.1906(2) 0.9032(3)
C24 C 0.0370(3) 0.1699(3) 0.8806(3)
C25 C -0.0164(3) 0.0211(3) 0.8668(2)
C26 C -0.1267(3) 0.0380(2) 0.8879(2)
C27 C -0.0977(3) 0.2772(3) 0.9241(3)
C28 C 0.1383(3) 0.2315(3) 0.8778(3)
H23 H 0.1096 0.2894 0.8806
H24 H 0.1757 0.2236 0.8241
H25 H 0.1944 0.2210 0.9270
C29 C 0.0306(3) -0.0674(3) 0.8515(3)
H26 H -0.0340 -0.1062 0.8383
H27 H 0.0763 -0.0866 0.9034
H28 H 0.0796 -0.0659 0.8031
C30 C -0.2059(4) -0.0323(3) 0.8955(3)
loop_
_geom_bond_atom_site_label_1
_geom_bond_atom_site_label_2
_geom_bond_site_symmetry_1
_geom_bond_site_symmetry_2
N1 C2 1_555 1_555
N2 H1 1_555 1_555
N3 C12 1_555 1_555
N4 C15 1_555 1_555
C1 H2 1_555 1_555
H3 C1 1_555 1_555
H4 C1 1_555 1_555
C2 C1 1_555 1_555
C3 C2 1_555 1_555
H5 C3 1_555 1_555
C4 C3 1_555 1_555
H6 C4 1_555 1_555
C5 C4 1_555 1_555
H7 C5 1_555 1_555
C6 N1 1_555 1_555
C7 C6 1_555 1_555
H8 C7 1_555 1_555
C8 C7 1_555 1_555
C9 N2 1_555 1_555
C10 C7 1_555 1_555
C11 N2 1_555 1_555
C12 C8 1_555 1_555
C13 C9 1_555 1_555
H9 C13 1_555 1_555
H10 C13 1_555 1_555
H11 C13 1_555 1_555
C14 C11 1_555 1_555
H12 C14 1_555 1_555
H13 C14 1_555 1_555
H14 C14 1_555 1_555
C15 C10 1_555 1_555
N5 C17 1_555 1_555
N6 H15 1_555 1_555
N7 C27 1_555 1_555
N8 C30 1_555 1_555
C16 H16 1_555 1_555
H17 C16 1_555 1_555
H18 C16 1_555 1_555
C17 C16 1_555 1_555
C18 C17 1_555 1_555
H19 C18 1_555 1_555
C19 C18 1_555 1_555
H20 C19 1_555 1_555
C20 C19 1_555 1_555
H21 C20 1_555 1_555
C21 N5 1_555 1_555
C22 C21 1_555 1_555
H22 C22 1_555 1_555
C23 C22 1_555 1_555
C24 N6 1_555 1_555
C25 N6 1_555 1_555
C26 C22 1_555 1_555
C27 C23 1_555 1_555
C28 C24 1_555 1_555
H23 C28 1_555 1_555
H24 C28 1_555 1_555
H25 C28 1_555 1_555
C29 C25 1_555 1_555
H26 C29 1_555 1_555
H27 C29 1_555 1_555
H28 C29 1_555 1_555
C30 C26 1_555 1_555
C5 C6 1_555 1_555
C8 C9 1_555 1_555
C10 C11 1_555 1_555
C20 C21 1_555 1_555
C23 C24 1_555 1_555
C25 C26 1_555 1_555

#END
