
#######################################################################
#
#                 Cambridge Crystallographic Data Centre
#                                CCDC 
#
#######################################################################
#
# If this CIF has been generated from an entry in the Cambridge 
# Structural Database, then it will include bibliographic, chemical, 
# crystal, experimental, refinement or atomic coordinate data resulting 
# from the CCDC's data processing and validation procedures.
#
#######################################################################

data_HUMJUW02
_chemical_formula_moiety         'C15 H18 N2 O2 S1,C2 H4 O2'
_chemical_name_systematic        
'2,4,6-Trimethyl-N-(6-methylpyridin-2-yl)benzenesulfonamide acetic acid'
_symmetry_cell_setting           triclinic
_symmetry_space_group_name_H-M   'P -1'
_symmetry_Int_Tables_number      2
_space_group_name_Hall           '-P 1'
loop_
_symmetry_equiv_pos_site_id
_symmetry_equiv_pos_as_xyz
1 x,y,z
2 -x,-y,-z
_cell_length_a                   8.0257(9)
_cell_length_b                   8.9366(11)
_cell_length_c                   14.1268(17)
_cell_angle_alpha                101.0232(19)
_cell_angle_beta                 91.2751(19)
_cell_angle_gamma                114.5422(17)
_cell_volume                     898.782
_exptl_crystal_colour            colorless
_exptl_crystal_description       block
_cell_formula_units_Z            2
loop_
_atom_site_label
_atom_site_type_symbol
_atom_site_fract_x
_atom_site_fract_y
_atom_site_fract_z
S1 S 0.53004(7) 0.16592(6) 0.22365(4)
O1 O 0.5227(2) 0.01775(18) 0.25145(11)
O2 O 0.3601(2) 0.1677(2) 0.19352(12)
N1 N 0.7013(2) 0.5702(2) 0.42210(12)
N2 N 0.6330(3) 0.3171(2) 0.31901(13)
H1 H 0.660(5) 0.280(4) 0.364(3)
C1 C 0.6434(3) 0.4783(2) 0.33131(14)
C2 C 0.7195(3) 0.7303(3) 0.44506(16)
C3 C 0.6794(4) 0.8032(3) 0.37584(18)
H2 H 0.6907 0.9132 0.3919
C4 C 0.6220(4) 0.7093(3) 0.28211(18)
H3 H 0.5950 0.7569 0.2342
C5 C 0.6040(4) 0.5472(3) 0.25831(16)
H4 H 0.5664 0.4846 0.1948
C6 C 0.7858(4) 0.8224(3) 0.54898(19)
H5 H 0.7212 0.7499 0.5910
H6 H 0.7628 0.9212 0.5613
H7 H 0.9156 0.8549 0.5611
C7 C 0.6787(3) 0.2086(2) 0.13086(14)
C8 C 0.6195(3) 0.2260(3) 0.04025(15)
C9 C 0.7410(3) 0.2493(3) -0.02973(16)
H8 H 0.7036 0.2609 -0.0896
C10 C 0.9144(3) 0.2561(3) -0.01488(17)
C11 C 0.9688(3) 0.2394(3) 0.07514(16)
H9 H 1.0858 0.2444 0.0864
C12 C 0.8555(3) 0.2154(3) 0.14859(14)
C13 C 0.4332(3) 0.2173(3) 0.01027(17)
H10 H 0.4243 0.2216 -0.0570
H11 H 0.4188 0.3109 0.0491
H12 H 0.3380 0.1137 0.0196
C14 C 1.0392(4) 0.2784(5) -0.0947(2)
H13 H 1.0281 0.1702 -0.1285
H14 H 1.1646 0.3476 -0.0670
H15 H 1.0042 0.3317 -0.1394
C15 C 0.9316(3) 0.1949(3) 0.24165(17)
H16 H 1.0525 0.1999 0.2351
H17 H 0.8519 0.0880 0.2547
H18 H 0.9388 0.2839 0.2943
O3 O 0.7815(3) 0.4637(2) 0.57454(14)
H20 H 0.746(7) 0.484(7) 0.527(4)
O4 O 0.7475(3) 0.2230(2) 0.48187(13)
C16 C 0.7856(3) 0.3199(3) 0.56177(17)
C17 C 0.8338(4) 0.2749(3) 0.65165(19)
H21 H 0.7245 0.1937 0.6704
H22 H 0.8870 0.3743 0.7029
H23 H 0.9211 0.2276 0.6394
H19? H 0.735(8) 0.529(7) 0.468(3)
loop_
_geom_bond_atom_site_label_1
_geom_bond_atom_site_label_2
_geom_bond_site_symmetry_1
_geom_bond_site_symmetry_2
S1 O1 1_555 1_555
O2 S1 1_555 1_555
N1 C1 1_555 1_555
N2 S1 1_555 1_555
H1 N2 1_555 1_555
C1 N2 1_555 1_555
C2 N1 1_555 1_555
C3 C2 1_555 1_555
H2 C3 1_555 1_555
C4 C3 1_555 1_555
H3 C4 1_555 1_555
C5 C1 1_555 1_555
H4 C5 1_555 1_555
C6 C2 1_555 1_555
H5 C6 1_555 1_555
H6 C6 1_555 1_555
H7 C6 1_555 1_555
C7 S1 1_555 1_555
C8 C7 1_555 1_555
C9 C8 1_555 1_555
H8 C9 1_555 1_555
C10 C9 1_555 1_555
C11 C10 1_555 1_555
H9 C11 1_555 1_555
C12 C7 1_555 1_555
C13 C8 1_555 1_555
H10 C13 1_555 1_555
H11 C13 1_555 1_555
H12 C13 1_555 1_555
C14 C10 1_555 1_555
H13 C14 1_555 1_555
H14 C14 1_555 1_555
H15 C14 1_555 1_555
C15 C12 1_555 1_555
H16 C15 1_555 1_555
H17 C15 1_555 1_555
H18 C15 1_555 1_555
O3 H20 1_555 1_555
O4 C16 1_555 1_555
C16 O3 1_555 1_555
C17 C16 1_555 1_555
H21 C17 1_555 1_555
H22 C17 1_555 1_555
H23 C17 1_555 1_555
C4 C5 1_555 1_555
C11 C12 1_555 1_555

#END
