
#######################################################################
#
#                 Cambridge Crystallographic Data Centre
#                                CCDC 
#
#######################################################################
#
# If this CIF has been generated from an entry in the Cambridge 
# Structural Database, then it will include bibliographic, chemical, 
# crystal, experimental, refinement or atomic coordinate data resulting 
# from the CCDC's data processing and validation procedures.
#
#######################################################################

data_HUMJOQ
_chemical_formula_moiety         'C13 H13 Cl2 N3 O3'
_chemical_name_systematic        
(4S)-N'-((E)-2,6-Dichlorobenzylidene)-N,3-dimethyl-2-oxo-1,3-oxazolidine-4-carbohydrazide
_symmetry_cell_setting           orthorhombic
_symmetry_space_group_name_H-M   'P 21 21 2'
_symmetry_Int_Tables_number      18
_space_group_name_Hall           'P 2 2ab'
loop_
_symmetry_equiv_pos_site_id
_symmetry_equiv_pos_as_xyz
1 x,y,z
2 -x,-y,z
3 1/2+x,1/2-y,-z
4 1/2-x,1/2+y,-z
_cell_length_a                   19.7273(13)
_cell_length_b                   7.6749(3)
_cell_length_c                   9.3882(3)
_cell_angle_alpha                90
_cell_angle_beta                 90
_cell_angle_gamma                90
_cell_volume                     1421.42
_exptl_crystal_colour            colorless
_exptl_crystal_description       block
_cell_formula_units_Z            4
loop_
_atom_site_label
_atom_site_type_symbol
_atom_site_fract_x
_atom_site_fract_y
_atom_site_fract_z
C1 C 0.56269(6) 0.28819(15) 0.65767(12)
C2 C 0.62682(6) 0.35432(16) 0.68474(14)
H1 H 0.6581 0.3698 0.6088
C3 C 0.64534(6) 0.39789(17) 0.82297(15)
H2 H 0.6886 0.4479 0.8410
C4 C 0.60086(6) 0.36852(16) 0.93442(14)
H3 H 0.6134 0.3971 1.0293
C5 C 0.53767(6) 0.29675(15) 0.90573(12)
C6 C 0.51481(5) 0.25771(17) 0.76648(11)
C7 C 0.44566(6) 0.19006(16) 0.74812(12)
H4 H 0.4210 0.1544 0.8300
C8 C 0.31324(7) 0.07201(19) 0.74848(13)
H5 H 0.3106 0.1753 0.8096
H6 H 0.3355 -0.0229 0.8004
H7 H 0.2674 0.0359 0.7210
C9 C 0.32512(6) 0.09370(16) 0.48747(13)
C10 C 0.36982(7) 0.15833(17) 0.36505(13)
H8 H 0.4157 0.1032 0.3692
C11 C 0.37560(8) 0.35994(17) 0.36365(14)
H9 H 0.3526 0.4108 0.4476
H10 H 0.4237 0.3965 0.3644
C12 C 0.32291(6) 0.27228(17) 0.15739(12)
C13 C 0.33253(7) -0.04779(18) 0.16878(15)
H11 H 0.3092 -0.1246 0.2363
H12 H 0.3780 -0.0935 0.1496
H13 H 0.3068 -0.0425 0.0796
N1 N 0.41737(5) 0.17742(14) 0.62559(11)
N2 N 0.35225(5) 0.11327(14) 0.62124(11)
N3 N 0.33788(6) 0.12566(15) 0.22913(11)
O1 O 0.26869(5) 0.03326(14) 0.46844(10)
O2 O 0.34298(5) 0.41440(12) 0.23429(10)
O3 O 0.29591(5) 0.28803(14) 0.04279(9)
Cl1 Cl 0.545810(13) 0.23992(4) 0.47978(3)
Cl2 Cl 0.485825(14) 0.25546(5) 1.05296(3)
loop_
_geom_bond_atom_site_label_1
_geom_bond_atom_site_label_2
_geom_bond_site_symmetry_1
_geom_bond_site_symmetry_2
C1 C2 1_555 1_555
C2 H1 1_555 1_555
C3 C2 1_555 1_555
H2 C3 1_555 1_555
C4 C3 1_555 1_555
H3 C4 1_555 1_555
C5 C4 1_555 1_555
C6 C1 1_555 1_555
C7 C6 1_555 1_555
H4 C7 1_555 1_555
C8 H5 1_555 1_555
H6 C8 1_555 1_555
H7 C8 1_555 1_555
C9 C10 1_555 1_555
C10 H8 1_555 1_555
C11 C10 1_555 1_555
H9 C11 1_555 1_555
H10 C11 1_555 1_555
C12 N3 1_555 1_555
C13 H11 1_555 1_555
H12 C13 1_555 1_555
H13 C13 1_555 1_555
N1 C7 1_555 1_555
N2 C8 1_555 1_555
N3 C10 1_555 1_555
O1 C9 1_555 1_555
O2 C11 1_555 1_555
O3 C12 1_555 1_555
Cl1 C1 1_555 1_555
Cl2 C5 1_555 1_555
C5 C6 1_555 1_555
C9 N2 1_555 1_555
C12 O2 1_555 1_555
C13 N3 1_555 1_555
N1 N2 1_555 1_555

#END
