
#######################################################################
#
#                 Cambridge Crystallographic Data Centre
#                                CCDC 
#
#######################################################################
#
# If this CIF has been generated from an entry in the Cambridge 
# Structural Database, then it will include bibliographic, chemical, 
# crystal, experimental, refinement or atomic coordinate data resulting 
# from the CCDC's data processing and validation procedures.
#
#######################################################################

data_HUMJIK
_chemical_formula_moiety         'C12 H12 Cl1 N3 O3'
_chemical_name_systematic        
(4S)-N'-((E)-4-Chlorobenzylidene)-N-methyl-2-oxo-1,3-oxazolidine-4-carbohydrazide
_symmetry_cell_setting           monoclinic
_symmetry_space_group_name_H-M   'P 21'
_symmetry_Int_Tables_number      4
_space_group_name_Hall           'P 2yb'
loop_
_symmetry_equiv_pos_site_id
_symmetry_equiv_pos_as_xyz
1 x,y,z
2 -x,1/2+y,-z
_cell_length_a                   9.274(4)
_cell_length_b                   4.1096(18)
_cell_length_c                   16.104(7)
_cell_angle_alpha                90
_cell_angle_beta                 97.813(9)
_cell_angle_gamma                90
_cell_volume                     608.065
_exptl_crystal_colour            colorless
_exptl_crystal_description       needle
_cell_formula_units_Z            2
loop_
_atom_site_label
_atom_site_type_symbol
_atom_site_fract_x
_atom_site_fract_y
_atom_site_fract_z
C1 C 0.6652(3) 0.2819(8) 0.12635(14)
H1 H 0.5858 0.3991 0.1432
C2 C 0.6531(3) 0.1512(8) 0.04637(15)
H2 H 0.5662 0.1787 0.0083
C3 C 0.7699(3) -0.0206(7) 0.02274(15)
C4 C 0.8974(3) -0.0623(7) 0.07731(15)
H3 H 0.9764 -0.1810 0.0604
C5 C 0.9081(3) 0.0713(8) 0.15672(15)
H4 H 0.9956 0.0452 0.1943
C6 C 0.7925(3) 0.2437(7) 0.18239(14)
C7 C 0.8117(3) 0.3926(7) 0.26580(15)
H5 H 0.9054 0.3963 0.2981
C8 C 0.8710(3) 0.6957(8) 0.42061(16)
H6 H 0.9121 0.4766 0.4290
H7 H 0.8629 0.7948 0.4751
H8 H 0.9347 0.8291 0.3907
C9 C 0.6101(2) 0.8259(9) 0.39733(13)
C10 C 0.4620(2) 0.7264(7) 0.35087(14)
H9 H 0.4539 0.4838 0.3490
C11 C 0.4249(2) 0.8679(9) 0.26145(14)
H10 H 0.5046 1.0099 0.2477
H11 H 0.4097 0.6908 0.2195
C12 C 0.2491(3) 1.0320(8) 0.34004(14)
N1 N 0.7026(2) 0.5182(6) 0.29560(12)
N2 N 0.7272(2) 0.6757(6) 0.37152(11)
N3 N 0.3457(2) 0.8615(7) 0.39094(13)
H12 H 0.335(3) 0.791(9) 0.4426(17)
O1 O 0.62190(19) 1.0110(5) 0.45697(11)
O2 O 0.29284(18) 1.0528(6) 0.26243(10)
O3 O 0.13829(18) 1.1634(6) 0.35500(11)
Cl1 Cl 0.75467(6) -0.17898(18) -0.07843(3)
loop_
_geom_bond_atom_site_label_1
_geom_bond_atom_site_label_2
_geom_bond_site_symmetry_1
_geom_bond_site_symmetry_2
C1 H1 1_555 1_555
C2 C1 1_555 1_555
H2 C2 1_555 1_555
C3 C2 1_555 1_555
C4 C3 1_555 1_555
H3 C4 1_555 1_555
C5 C4 1_555 1_555
H4 C5 1_555 1_555
C6 C1 1_555 1_555
C7 C6 1_555 1_555
H5 C7 1_555 1_555
C8 H6 1_555 1_555
H7 C8 1_555 1_555
H8 C8 1_555 1_555
C9 C10 1_555 1_555
C10 H9 1_555 1_555
C11 C10 1_555 1_555
H10 C11 1_555 1_555
H11 C11 1_555 1_555
C12 N3 1_555 1_555
N1 C7 1_555 1_555
N2 C8 1_555 1_555
N3 C10 1_555 1_555
H12 N3 1_555 1_555
O1 C9 1_555 1_555
O2 C11 1_555 1_555
O3 C12 1_555 1_555
Cl1 C3 1_555 1_555
C5 C6 1_555 1_555
C9 N2 1_555 1_555
C12 O2 1_555 1_555
N1 N2 1_555 1_555

#END
