
#######################################################################
#
#                 Cambridge Crystallographic Data Centre
#                                CCDC 
#
#######################################################################
#
# If this CIF has been generated from an entry in the Cambridge 
# Structural Database, then it will include bibliographic, chemical, 
# crystal, experimental, refinement or atomic coordinate data resulting 
# from the CCDC's data processing and validation procedures.
#
#######################################################################

data_HUMJAC
_chemical_formula_moiety         'C12 H13 N3 O3'
_chemical_name_systematic        
N'-((E)-Benzylidene)-N-methyl-2-oxo-1,3-oxazolidine-4-carbohydrazide
_symmetry_cell_setting           monoclinic
_symmetry_space_group_name_H-M   'P 21/n'
_symmetry_Int_Tables_number      14
_space_group_name_Hall           '-P 2yn'
loop_
_symmetry_equiv_pos_site_id
_symmetry_equiv_pos_as_xyz
1 x,y,z
2 1/2-x,1/2+y,1/2-z
3 -x,-y,-z
4 1/2+x,1/2-y,1/2+z
_cell_length_a                   7.8881(9)
_cell_length_b                   14.0296(17)
_cell_length_c                   20.810(3)
_cell_angle_alpha                90
_cell_angle_beta                 91.749(7)
_cell_angle_gamma                90
_cell_volume                     2301.91
_exptl_crystal_colour            colorless
_cell_formula_units_Z            8
loop_
_atom_site_label
_atom_site_type_symbol
_atom_site_fract_x
_atom_site_fract_y
_atom_site_fract_z
C1 C 0.9028(4) 0.6339(2) 0.42060(16)
H1 H 0.9550 0.6078 0.3840
C2 C 0.8429(4) 0.5745(2) 0.46741(16)
H2 H 0.8546 0.5075 0.4629
C3 C 0.7665(4) 0.6107(2) 0.52070(16)
H3 H 0.7248 0.5689 0.5525
C4 C 0.7506(4) 0.7085(2) 0.52782(16)
H4 H 0.6988 0.7341 0.5647
C5 C 0.8106(4) 0.7688(2) 0.48105(15)
H5 H 0.7996 0.8358 0.4860
C6 C 0.8867(4) 0.7324(2) 0.42700(15)
C7 C 0.9506(4) 0.7979(2) 0.37904(15)
H6 H 0.9418 0.8647 0.3857
C8 C 1.0827(5) 0.93197(19) 0.29462(16)
H7 H 0.9654 0.9547 0.2961
H8 H 1.1397 0.9633 0.2591
H9 H 1.1426 0.9471 0.3353
C9 C 1.1566(4) 0.7896(2) 0.23345(15)
C10 C 1.1489(4) 0.6811(2) 0.23093(15)
H10 H 1.1988 0.6531 0.2715
C11 C 0.9681(4) 0.6431(2) 0.21806(15)
H11 H 0.9379 0.5959 0.2512
H12 H 0.8847 0.6958 0.2184
C12 C 1.1301(5) 0.5990(2) 0.13464(16)
N1 N 1.0180(3) 0.76675(16) 0.32839(12)
N2 N 1.0833(3) 0.82943(16) 0.28472(12)
N3 N 1.2335(4) 0.64422(18) 0.17600(13)
H13 H 1.344(5) 0.654(2) 0.1622(16)
O1 O 1.2231(3) 0.83676(14) 0.19142(10)
O2 O 0.9705(3) 0.59923(15) 0.15560(10)
O3 O 1.1654(3) 0.56158(15) 0.08375(11)
C13 C 0.8928(4) 0.8429(2) -0.09588(15)
H14 H 0.8325 0.8698 -0.0615
C14 C 0.9609(4) 0.9015(2) -0.14116(15)
H15 H 0.9493 0.9687 -0.1374
C15 C 1.0457(4) 0.8637(2) -0.19184(16)
H16 H 1.0940 0.9047 -0.2227
C16 C 1.0608(4) 0.7661(2) -0.19794(16)
H17 H 1.1170 0.7399 -0.2336
C17 C 0.9946(4) 0.7066(2) -0.15245(14)
H18 H 1.0058 0.6395 -0.1568
C18 C 0.9110(4) 0.7443(2) -0.09986(14)
C19 C 0.8448(4) 0.6804(2) -0.05104(14)
H19 H 0.8516 0.6132 -0.0560
C20 C 0.7170(5) 0.5545(2) 0.03913(16)
H20 H 0.8351 0.5333 0.0369
H21 H 0.6537 0.5341 0.0003
H22 H 0.6656 0.5265 0.0770
C21 C 0.6424(4) 0.7036(2) 0.09435(15)
C22 C 0.6542(4) 0.8120(2) 0.09171(15)
H23 H 0.6048 0.8363 0.0500
C23 C 0.8370(4) 0.8482(2) 0.10210(15)
H24 H 0.9183 0.7944 0.1024
H25 H 0.8670 0.8933 0.0676
C24 C 0.6797(5) 0.9008(2) 0.18577(17)
N4 N 0.7782(3) 0.71670(17) -0.00197(12)
N5 N 0.7120(3) 0.65802(16) 0.04380(12)
N6 N 0.5719(4) 0.85637(18) 0.14523(14)
H26 H 0.466(5) 0.857(2) 0.1542(16)
O4 O 0.5786(3) 0.66074(14) 0.13891(11)
O5 O 0.8399(3) 0.89520(14) 0.16334(10)
O6 O 0.6516(3) 0.94059(15) 0.23570(11)
loop_
_geom_bond_atom_site_label_1
_geom_bond_atom_site_label_2
_geom_bond_site_symmetry_1
_geom_bond_site_symmetry_2
C1 H1 1_555 1_555
C2 C1 1_555 1_555
H2 C2 1_555 1_555
C3 C2 1_555 1_555
H3 C3 1_555 1_555
C4 C3 1_555 1_555
H4 C4 1_555 1_555
C5 C4 1_555 1_555
H5 C5 1_555 1_555
C6 C1 1_555 1_555
C7 C6 1_555 1_555
H6 C7 1_555 1_555
C8 H7 1_555 1_555
H8 C8 1_555 1_555
H9 C8 1_555 1_555
C9 C10 1_555 1_555
C10 H10 1_555 1_555
C11 C10 1_555 1_555
H11 C11 1_555 1_555
H12 C11 1_555 1_555
C12 N3 1_555 1_555
N1 C7 1_555 1_555
N2 C8 1_555 1_555
N3 C10 1_555 1_555
H13 N3 1_555 1_555
O1 C9 1_555 1_555
O2 C11 1_555 1_555
O3 C12 1_555 1_555
C13 H14 1_555 1_555
C14 C13 1_555 1_555
H15 C14 1_555 1_555
C15 C14 1_555 1_555
H16 C15 1_555 1_555
C16 C15 1_555 1_555
H17 C16 1_555 1_555
C17 C16 1_555 1_555
H18 C17 1_555 1_555
C18 C13 1_555 1_555
C19 C18 1_555 1_555
H19 C19 1_555 1_555
C20 H20 1_555 1_555
H21 C20 1_555 1_555
H22 C20 1_555 1_555
C21 C22 1_555 1_555
C22 H23 1_555 1_555
C23 C22 1_555 1_555
H24 C23 1_555 1_555
H25 C23 1_555 1_555
C24 N6 1_555 1_555
N4 C19 1_555 1_555
N5 C20 1_555 1_555
N6 C22 1_555 1_555
H26 N6 1_555 1_555
O4 C21 1_555 1_555
O5 C23 1_555 1_555
O6 C24 1_555 1_555
C5 C6 1_555 1_555
C9 N2 1_555 1_555
C12 O2 1_555 1_555
N1 N2 1_555 1_555
C17 C18 1_555 1_555
C21 N5 1_555 1_555
C24 O5 1_555 1_555
N4 N5 1_555 1_555

#END
