
#######################################################################
#
#                 Cambridge Crystallographic Data Centre
#                                CCDC 
#
#######################################################################
#
# If this CIF has been generated from an entry in the Cambridge 
# Structural Database, then it will include bibliographic, chemical, 
# crystal, experimental, refinement or atomic coordinate data resulting 
# from the CCDC's data processing and validation procedures.
#
#######################################################################

data_HUMKUV
_chemical_formula_moiety         'C23 H19 N3 O2'
_chemical_name_systematic        
4-((2-Hydroxyphenylamino)phenylmethylene)-5-methyl-2-phenyl-2H-pyrazol-3(4H)-one
_symmetry_cell_setting           triclinic
_symmetry_space_group_name_H-M   'P -1'
_symmetry_Int_Tables_number      2
_space_group_name_Hall           '-P 1'
loop_
_symmetry_equiv_pos_site_id
_symmetry_equiv_pos_as_xyz
1 x,y,z
2 -x,-y,-z
_cell_length_a                   7.267(4)
_cell_length_b                   11.150(6)
_cell_length_c                   13.822(8)
_cell_angle_alpha                111.794(9)
_cell_angle_beta                 92.210(11)
_cell_angle_gamma                105.987(10)
_cell_volume                     987.169
_exptl_crystal_colour            yellow
_exptl_crystal_description       prism
_chemical_melting_point          239-240deg.C
_cell_formula_units_Z            2
_exptl_crystal_recrystallization_method ethanol
loop_
_atom_site_label
_atom_site_type_symbol
_atom_site_fract_x
_atom_site_fract_y
_atom_site_fract_z
O1 O 0.0194(3) 0.6134(2) 0.72338(15)
O2 O 0.0988(3) 0.3694(2) 0.45905(16)
H1 H 0.0857 0.3606 0.3974
N1 N -0.2391(4) 0.4939(3) 0.89890(19)
N2 N -0.1741(4) 0.5886(3) 0.85161(18)
N3 N 0.1779(4) 0.4046(3) 0.65675(19)
H2 H 0.1469 0.4714 0.6518
C1 C -0.0494(4) 0.5515(3) 0.7818(2)
C2 C -0.0200(4) 0.4326(3) 0.7901(2)
C3 C -0.1449(4) 0.4038(3) 0.8632(2)
C4 C -0.1862(5) 0.2880(4) 0.8989(3)
H3 H -0.0810 0.3045 0.9512
H4 H -0.2000 0.2047 0.8396
H5 H -0.3040 0.2810 0.9286
C5 C 0.0970(4) 0.3621(3) 0.7285(2)
C6 C -0.2587(5) 0.6946(3) 0.8672(2)
C7 C -0.1411(5) 0.8204(4) 0.8751(3)
H6 H -0.0089 0.8360 0.8740
C8 C -0.2220(6) 0.9233(4) 0.8844(3)
H7 H -0.1433 1.0074 0.8893
C9 C -0.4176(6) 0.9016(4) 0.8865(3)
H8 H -0.4714 0.9698 0.8911
C10 C -0.5333(5) 0.7775(4) 0.8818(3)
H9 H -0.6647 0.7633 0.8852
C11 C -0.4541(5) 0.6723(3) 0.8719(2)
H10 H -0.5324 0.5889 0.8684
C12 C 0.1298(4) 0.2383(3) 0.7368(2)
C13 C 0.2330(5) 0.2475(3) 0.8276(2)
H11 H 0.2823 0.3308 0.8847
C14 C 0.2623(5) 0.1306(4) 0.8324(3)
H12 H 0.3301 0.1362 0.8932
C15 C 0.1905(6) 0.0069(4) 0.7469(3)
H13 H 0.2132 -0.0699 0.7499
C16 C 0.0863(7) -0.0033(4) 0.6578(3)
H14 H 0.0359 -0.0872 0.6013
C17 C 0.0556(6) 0.1127(4) 0.6519(2)
H15 H -0.0143 0.1059 0.5913
C18 C 0.3075(4) 0.3579(3) 0.5865(2)
C19 C 0.2665(4) 0.3454(3) 0.4826(2)
C20 C 0.3932(5) 0.3112(3) 0.4130(2)
H16 H 0.3679 0.3041 0.3442
C21 C 0.5586(5) 0.2874(4) 0.4453(3)
H17 H 0.6425 0.2633 0.3977
C22 C 0.5990(5) 0.2992(4) 0.5476(3)
H18 H 0.7100 0.2836 0.5689
C23 C 0.4734(5) 0.3344(4) 0.6184(2)
H19 H 0.5002 0.3422 0.6872
loop_
_geom_bond_atom_site_label_1
_geom_bond_atom_site_label_2
_geom_bond_site_symmetry_1
_geom_bond_site_symmetry_2
O1 C1 1_555 1_555
O2 H1 1_555 1_555
N1 N2 1_555 1_555
N2 C1 1_555 1_555
N3 H2 1_555 1_555
C1 C2 1_555 1_555
C2 C3 1_555 1_555
C3 N1 1_555 1_555
C4 C3 1_555 1_555
H3 C4 1_555 1_555
H4 C4 1_555 1_555
H5 C4 1_555 1_555
C5 N3 1_555 1_555
C6 N2 1_555 1_555
C7 C6 1_555 1_555
H6 C7 1_555 1_555
C8 C7 1_555 1_555
H7 C8 1_555 1_555
C9 C8 1_555 1_555
H8 C9 1_555 1_555
C10 C9 1_555 1_555
H9 C10 1_555 1_555
C11 C6 1_555 1_555
H10 C11 1_555 1_555
C12 C5 1_555 1_555
C13 C12 1_555 1_555
H11 C13 1_555 1_555
C14 C13 1_555 1_555
H12 C14 1_555 1_555
C15 C14 1_555 1_555
H13 C15 1_555 1_555
C16 C15 1_555 1_555
H14 C16 1_555 1_555
C17 C12 1_555 1_555
H15 C17 1_555 1_555
C18 N3 1_555 1_555
C19 O2 1_555 1_555
C20 C19 1_555 1_555
H16 C20 1_555 1_555
C21 C20 1_555 1_555
H17 C21 1_555 1_555
C22 C21 1_555 1_555
H18 C22 1_555 1_555
C23 C18 1_555 1_555
H19 C23 1_555 1_555
C2 C5 1_555 1_555
C10 C11 1_555 1_555
C16 C17 1_555 1_555
C18 C19 1_555 1_555
C22 C23 1_555 1_555

#END
