
#######################################################################
#
#                 Cambridge Crystallographic Data Centre
#                                CCDC 
#
#######################################################################
#
# If this CIF has been generated from an entry in the Cambridge 
# Structural Database, then it will include bibliographic, chemical, 
# crystal, experimental, refinement or atomic coordinate data resulting 
# from the CCDC's data processing and validation procedures.
#
#######################################################################

data_HUMMAD01
_chemical_formula_moiety         'C10 H10 I1 N2 1+,B1 F4 1-'
_chemical_name_systematic        'bis(Pyridine)iodonium tetrafluoroborate'
_symmetry_cell_setting           monoclinic
_symmetry_space_group_name_H-M   'P 21/n'
_symmetry_Int_Tables_number      14
_space_group_name_Hall           '-P 2yn'
loop_
_symmetry_equiv_pos_site_id
_symmetry_equiv_pos_as_xyz
1 x,y,z
2 1/2-x,1/2+y,1/2-z
3 -x,-y,-z
4 1/2+x,1/2-y,1/2+z
_cell_length_a                   12.2330(3)
_cell_length_b                   15.8291(4)
_cell_length_c                   14.6524(3)
_cell_angle_alpha                90
_cell_angle_beta                 113.3423(13)
_cell_angle_gamma                90
_cell_volume                     2605.03
_exptl_crystal_colour            colorless
_exptl_crystal_description       plate
_cell_formula_units_Z            8
loop_
_atom_site_label
_atom_site_type_symbol
_atom_site_fract_x
_atom_site_fract_y
_atom_site_fract_z
I1 I 0.0000 0.0000 0.0000
N1 N -0.0697(6) 0.1145(4) 0.0500(5)
C1 C -0.0956(7) 0.1846(5) -0.0067(6)
C2 C -0.1383(8) 0.2561(5) 0.0224(7)
C3 C -0.1536(8) 0.2565(6) 0.1099(7)
C4 C -0.1288(8) 0.1837(6) 0.1664(7)
C5 C -0.0856(8) 0.1135(6) 0.1363(6)
H1 H -0.1559 0.3047 -0.0175
H2 H -0.1801 0.3053 0.1313
H3 H -0.1421 0.1812 0.2250
H4 H -0.0671 0.0643 0.1748
H5 H -0.0847 0.1840 -0.0665
N1B N 0.0697(6) -0.1145(4) -0.0500(5)
C1B C 0.0956(7) -0.1846(5) 0.0067(6)
C2B C 0.1383(8) -0.2561(5) -0.0224(7)
C3B C 0.1536(8) -0.2565(6) -0.1099(7)
C4B C 0.1288(8) -0.1837(6) -0.1664(7)
C5B C 0.0856(8) -0.1135(6) -0.1363(6)
H1B H 0.1559 -0.3047 0.0175
H2B H 0.1801 -0.3053 -0.1313
H3B H 0.1421 -0.1812 -0.2250
H4B H 0.0671 -0.0643 -0.1748
H5B H 0.0847 -0.1840 0.0665
I2 I 0.5000 0.0000 0.5000
N2 N 0.5732(6) 0.0978(4) 0.4273(5)
C6 C 0.6129(7) 0.1733(5) 0.4718(6)
C7 C 0.6541(7) 0.2349(5) 0.4268(6)
C8 C 0.6543(7) 0.2188(5) 0.3341(6)
C9 C 0.6146(8) 0.1418(6) 0.2893(6)
C10 C 0.5755(8) 0.0829(5) 0.3385(6)
H6 H 0.6120 0.1833 0.5346
H7 H 0.6816 0.2864 0.4584
H8 H 0.6816 0.2601 0.3022
H9 H 0.6151 0.1293 0.2271
H10 H 0.5490 0.0302 0.3094
N2B N 0.4268(6) -0.0978(4) 0.5727(5)
C6B C 0.3871(7) -0.1733(5) 0.5282(6)
C7B C 0.3459(7) -0.2349(5) 0.5732(6)
C8B C 0.3457(7) -0.2188(5) 0.6659(6)
C9B C 0.3854(8) -0.1418(6) 0.7107(6)
C10B C 0.4245(8) -0.0829(5) 0.6615(6)
H6B H 0.3880 -0.1833 0.4654
H7B H 0.3184 -0.2864 0.5416
H8B H 0.3184 -0.2601 0.6978
H9B H 0.3849 -0.1293 0.7729
H10B H 0.4510 -0.0302 0.6906
I3 I 1.00218(4) 0.24604(3) 0.49245(3)
N3 N 1.0785(6) 0.3514(4) 0.4307(5)
C11 C 1.1058(8) 0.4255(5) 0.4763(6)
C12 C 1.1512(9) 0.4903(6) 0.4402(8)
C13 C 1.1649(8) 0.4785(6) 0.3515(7)
C14 C 1.1380(8) 0.4005(6) 0.3043(7)
C15 C 1.0945(8) 0.3372(5) 0.3460(6)
N4 N 0.9283(6) 0.1374(4) 0.5507(5)
C16 C 0.8899(8) 0.0686(5) 0.4939(6)
C17 C 0.8485(9) -0.0004(6) 0.5274(8)
C18 C 0.8466(8) 0.0015(6) 0.6207(8)
C19 C 0.8868(8) 0.0715(7) 0.6770(7)
C20 C 0.9270(8) 0.1402(6) 0.6410(6)
H11 H 1.0933 0.4331 0.5348
H12 H 1.1713 0.5420 0.4734
H13 H 1.1940 0.5222 0.3244
H14 H 1.1484 0.3907 0.2454
H15 H 1.0761 0.2840 0.3159
H16 H 0.8927 0.0683 0.4307
H17 H 0.8220 -0.0484 0.4876
H18 H 0.8183 -0.0447 0.6445
H19 H 0.8868 0.0740 0.7402
H20 H 0.9532 0.1888 0.6795
B1 B 0.7640(10) 0.3001(6) 0.7215(7)
F1 F 0.8447(6) 0.2433(5) 0.7818(4)
F2 F 0.7962(6) 0.3229(3) 0.6441(4)
F3 F 0.7625(9) 0.3695(5) 0.7758(6)
F4 F 0.6537(6) 0.2614(4) 0.6832(5)
B2 B 0.7365(10) 0.4449(6) 0.2730(8)
F5 F 0.6949(6) 0.4194(3) 0.3439(4)
F6 F 0.6718(6) 0.5155(4) 0.2245(5)
F7 F 0.8539(6) 0.4693(5) 0.3180(5)
F8 F 0.7195(7) 0.3834(4) 0.2047(6)
loop_
_geom_bond_atom_site_label_1
_geom_bond_atom_site_label_2
_geom_bond_site_symmetry_1
_geom_bond_site_symmetry_2
I1 N1 1_555 1_555
N1 C1 1_555 1_555
C1 C2 1_555 1_555
C2 C3 1_555 1_555
C3 C4 1_555 1_555
C4 C5 1_555 1_555
C5 N1 1_555 1_555
H1 C2 1_555 1_555
H2 C3 1_555 1_555
H3 C4 1_555 1_555
H4 C5 1_555 1_555
H5 C1 1_555 1_555
I2 N2 1_555 1_555
N2 C6 1_555 1_555
C6 C7 1_555 1_555
C7 C8 1_555 1_555
C8 C9 1_555 1_555
C9 C10 1_555 1_555
C10 N2 1_555 1_555
H6 C6 1_555 1_555
H7 C7 1_555 1_555
H8 C8 1_555 1_555
H9 C9 1_555 1_555
H10 C10 1_555 1_555
I3 N3 1_555 1_555
N3 C11 1_555 1_555
C11 C12 1_555 1_555
C12 C13 1_555 1_555
C13 C14 1_555 1_555
C14 C15 1_555 1_555
C15 N3 1_555 1_555
N4 I3 1_555 1_555
C16 N4 1_555 1_555
C17 C16 1_555 1_555
C18 C17 1_555 1_555
C19 C18 1_555 1_555
C20 N4 1_555 1_555
H11 C11 1_555 1_555
H12 C12 1_555 1_555
H13 C13 1_555 1_555
H14 C14 1_555 1_555
H15 C15 1_555 1_555
H16 C16 1_555 1_555
H17 C17 1_555 1_555
H18 C18 1_555 1_555
H19 C19 1_555 1_555
H20 C20 1_555 1_555
B1 F1 1_555 1_555
F2 B1 1_555 1_555
F3 B1 1_555 1_555
F4 B1 1_555 1_555
B2 F5 1_555 1_555
F6 B2 1_555 1_555
F7 B2 1_555 1_555
F8 B2 1_555 1_555
N1B I1 1_555 1_555
C1B N1B 1_555 1_555
C2B C1B 1_555 1_555
C3B C2B 1_555 1_555
C4B C3B 1_555 1_555
C5B N1B 1_555 1_555
H1B C2B 1_555 1_555
H2B C3B 1_555 1_555
H3B C4B 1_555 1_555
H4B C5B 1_555 1_555
H5B C1B 1_555 1_555
N2B I2 1_555 1_555
C6B N2B 1_555 1_555
C7B C6B 1_555 1_555
C8B C7B 1_555 1_555
C9B C8B 1_555 1_555
C10B N2B 1_555 1_555
H6B C6B 1_555 1_555
H7B C7B 1_555 1_555
H8B C8B 1_555 1_555
H9B C9B 1_555 1_555
H10B C10B 1_555 1_555
C19 C20 1_555 1_555
C4B C5B 1_555 1_555
C9B C10B 1_555 1_555

#END
