
#######################################################################
#
#                 Cambridge Crystallographic Data Centre
#                                CCDC 
#
#######################################################################
#
# If this CIF has been generated from an entry in the Cambridge 
# Structural Database, then it will include bibliographic, chemical, 
# crystal, experimental, refinement or atomic coordinate data resulting 
# from the CCDC's data processing and validation procedures.
#
#######################################################################

data_HUMMAE
_chemical_formula_moiety         'C16 H8 N4 O12'
_chemical_name_systematic        
7-Hydroxy-3-(4-methoxy-3,5-dinitrophenyl)-6,8-dinitro-4H-chromen-4-one
_symmetry_cell_setting           monoclinic
_symmetry_space_group_name_H-M   'P 21/c'
_symmetry_Int_Tables_number      14
_space_group_name_Hall           '-P 2ybc'
loop_
_symmetry_equiv_pos_site_id
_symmetry_equiv_pos_as_xyz
1 x,y,z
2 -x,1/2+y,1/2-z
3 -x,-y,-z
4 x,1/2-y,1/2+z
_cell_length_a                   4.9136(11)
_cell_length_b                   22.333(5)
_cell_length_c                   16.124(4)
_cell_angle_alpha                90
_cell_angle_beta                 95.576(4)
_cell_angle_gamma                90
_cell_volume                     1761
_exptl_crystal_colour            yellow
_exptl_crystal_description       needle
_chemical_melting_point          '531.15 K'
_cell_formula_units_Z            4
loop_
_atom_site_label
_atom_site_type_symbol
_atom_site_fract_x
_atom_site_fract_y
_atom_site_fract_z
C1 C -0.1889(5) 0.48222(12) 0.73448(15)
C2 C -0.2632(5) 0.53358(13) 0.77401(18)
C3 C -0.1212(5) 0.54659(12) 0.85186(17)
C4 C 0.0853(5) 0.51039(11) 0.88604(16)
H1 H 0.1811 0.5212 0.9364
C5 C 0.1540(5) 0.45783(11) 0.84675(15)
C6 C 0.0106(5) 0.44404(11) 0.77063(15)
C7 C 0.2446(5) 0.35368(11) 0.76394(16)
H2 H 0.2701 0.3184 0.7350
C8 C 0.3968(5) 0.36112(11) 0.83720(15)
C9 C 0.3694(5) 0.41729(11) 0.88299(17)
C10 C 0.5809(5) 0.31227(11) 0.86982(16)
C11 C 0.7178(5) 0.27704(12) 0.81682(16)
H3 H 0.7073 0.2860 0.7603
C12 C 0.8692(5) 0.22887(11) 0.84776(17)
C13 C 0.8981(6) 0.21325(13) 0.93117(18)
C14 C 0.7590(7) 0.24974(13) 0.98274(16)
C15 C 0.6046(6) 0.29789(11) 0.95379(16)
H4 H 0.5154 0.3210 0.9907
C16 C 0.9510(10) 0.11334(16) 0.9742(3)
H5 H 0.8064 0.1191 1.0094
H6 H 1.0890 0.0880 1.0020
H7 H 0.8788 0.0949 0.9230
N1 N -0.3229(6) 0.46839(12) 0.65106(16)
N2 N -0.1908(6) 0.59951(11) 0.89796(17)
N3 N 1.0080(6) 0.19086(12) 0.79015(17)
N4 N 0.7780(14) 0.2372(2) 1.0734(2)
O1 O -0.5065(6) 0.43438(15) 0.64510(15)
O2 O -0.2384(6) 0.49120(12) 0.59358(14)
O3 O -0.4650(4) 0.56622(9) 0.73523(12)
H8 H -0.4968 0.5950 0.7644
O4 O -0.4038(5) 0.62664(9) 0.87278(12)
O5 O -0.0468(4) 0.61377(9) 0.96003(14)
O6 O 0.5179(4) 0.43038(8) 0.94579(11)
O7 O 0.0567(3) 0.39309(8) 0.72834(10)
O8 O 1.0629(5) 0.16738(11) 0.95755(14)
O9 O 1.0248(18) 0.2326(4) 1.1061(4)
O10 O 0.5570(15) 0.2355(3) 1.1037(4)
O11 O 0.868(3) 0.1614(5) 0.7421(6)
O12 O 1.214(3) 0.2063(5) 0.7637(10)
O13? O 0.774(4) 0.1905(3) 1.1022(5)
O14? O 0.790(3) 0.2770(4) 1.1214(5)
O15? O 0.919(3) 0.1412(5) 0.7739(7)
O16? O 1.242(3) 0.1958(6) 0.7938(11)
loop_
_geom_bond_atom_site_label_1
_geom_bond_atom_site_label_2
_geom_bond_site_symmetry_1
_geom_bond_site_symmetry_2
C1 C2 1_555 1_555
C2 C3 1_555 1_555
C3 C4 1_555 1_555
C4 H1 1_555 1_555
C5 C4 1_555 1_555
C6 C1 1_555 1_555
C7 H2 1_555 1_555
C8 C7 1_555 1_555
C9 C5 1_555 1_555
C10 C8 1_555 1_555
C11 C10 1_555 1_555
H3 C11 1_555 1_555
C12 C11 1_555 1_555
C13 C12 1_555 1_555
C14 C13 1_555 1_555
C15 C10 1_555 1_555
H4 C15 1_555 1_555
C16 H5 1_555 1_555
H6 C16 1_555 1_555
H7 C16 1_555 1_555
N1 C1 1_555 1_555
N2 C3 1_555 1_555
N3 C12 1_555 1_555
N4 C14 1_555 1_555
O1 N1 1_555 1_555
O2 N1 1_555 1_555
O3 C2 1_555 1_555
H8 O3 1_555 1_555
O4 N2 1_555 1_555
O5 N2 1_555 1_555
O6 C9 1_555 1_555
O7 C6 1_555 1_555
O8 C13 1_555 1_555
O9 N4 1_555 1_555
O10 N4 1_555 1_555
O11 N3 1_555 1_555
O12 N3 1_555 1_555
C5 C6 1_555 1_555
C7 O7 1_555 1_555
C8 C9 1_555 1_555
C14 C15 1_555 1_555
C16 O8 1_555 1_555

#END
