
#######################################################################
#
#                 Cambridge Crystallographic Data Centre
#                                CCDC 
#
#######################################################################
#
# If this CIF has been generated from an entry in the Cambridge 
# Structural Database, then it will include bibliographic, chemical, 
# crystal, experimental, refinement or atomic coordinate data resulting 
# from the CCDC's data processing and validation procedures.
#
#######################################################################

data_HUMMEI
_chemical_formula_moiety         'C30 H29 N1 O1'
_chemical_name_systematic        
2-(Biphenyl-4-yl)-4-(4-methoxyphenyl)-5,6,7,8,9,10-hexahydrocyclo-octa[b]pyridine
_symmetry_cell_setting           triclinic
_symmetry_space_group_name_H-M   'P -1'
_symmetry_Int_Tables_number      2
_space_group_name_Hall           '-P 1'
loop_
_symmetry_equiv_pos_site_id
_symmetry_equiv_pos_as_xyz
1 x,y,z
2 -x,-y,-z
_cell_length_a                   8.8399(17)
_cell_length_b                   10.872(2)
_cell_length_c                   12.091(2)
_cell_angle_alpha                74.563(2)
_cell_angle_beta                 86.091(3)
_cell_angle_gamma                86.550(2)
_cell_volume                     1116.44
_exptl_crystal_description       block
_chemical_melting_point          '151 deg.C'
_cell_formula_units_Z            2
_exptl_crystal_recrystallization_method chloroform/ethanol
loop_
_atom_site_label
_atom_site_type_symbol
_atom_site_fract_x
_atom_site_fract_y
_atom_site_fract_z
C1 C 0.80740(15) 0.44926(15) 0.20960(13)
C2 C 0.75843(17) 0.53114(15) 0.27618(13)
H1 H 0.7599 0.6191 0.2454
C3 C 0.70702(17) 0.48050(15) 0.38949(14)
H2 H 0.6744 0.5359 0.4339
C4 C 0.70284(16) 0.35010(14) 0.43831(13)
C5 C 0.75242(18) 0.26898(15) 0.36978(14)
H3 H 0.7501 0.1810 0.4002
C6 C 0.80507(18) 0.31801(15) 0.25700(14)
H4 H 0.8391 0.2628 0.2127
C7 C 0.63301(16) 0.26046(13) 0.76376(13)
C8 C 0.69451(17) 0.26959(15) 0.87447(14)
H5 H 0.8035 0.2778 0.8639
H6 H 0.6750 0.1916 0.9338
C9 C 0.62277(19) 0.38333(17) 0.91356(15)
H7 H 0.5170 0.3669 0.9366
H8 H 0.6727 0.3892 0.9809
C10 C 0.63043(18) 0.51176(16) 0.82426(15)
H9 H 0.5892 0.5777 0.8597
H10 H 0.5659 0.5109 0.7627
C11 C 0.79024(17) 0.54793(15) 0.77160(14)
H11 H 0.8015 0.6376 0.7661
H12 H 0.8639 0.4994 0.8240
C12 C 0.82890(18) 0.52593(15) 0.65348(14)
H13 H 0.9219 0.5687 0.6230
H14 H 0.7492 0.5678 0.6035
C13 C 0.84967(16) 0.38695(14) 0.64479(14)
H15 H 0.9013 0.3875 0.5713
H16 H 0.9156 0.3403 0.7042
C14 C 0.70540(15) 0.31484(13) 0.65595(13)
C15 C 0.63881(16) 0.29846(14) 0.55855(13)
C16 C 0.50523(16) 0.23260(14) 0.57438(13)
H17 H 0.4617 0.2180 0.5114
C17 C 0.43677(16) 0.18871(13) 0.68316(13)
C18 C 0.28678(16) 0.12854(13) 0.70273(13)
C19 C 0.18433(17) 0.14932(15) 0.61602(14)
H18 H 0.2111 0.2000 0.5431
C20 C 0.04317(17) 0.09563(15) 0.63667(14)
H19 H -0.0230 0.1116 0.5774
C21 C -0.00144(16) 0.01839(14) 0.74428(13)
C22 C 0.10206(17) -0.00331(14) 0.83054(14)
H20 H 0.0762 -0.0555 0.9029
C23 C 0.24260(17) 0.05143(15) 0.81043(13)
H21 H 0.3084 0.0364 0.8699
C24 C -0.15380(16) -0.03755(14) 0.76743(14)
C25 C -0.23210(19) -0.06246(17) 0.68029(16)
H22 H -0.1886 -0.0446 0.6058
C26 C -0.3749(2) -0.11381(18) 0.70357(18)
H23 H -0.4261 -0.1294 0.6443
C27 C -0.44098(18) -0.14178(15) 0.81287(17)
H24 H -0.5355 -0.1778 0.8280
C28 C -0.36640(18) -0.11614(15) 0.89990(16)
H25 H -0.4114 -0.1334 0.9739
C29 C -0.22405(17) -0.06456(15) 0.87743(14)
H26 H -0.1746 -0.0477 0.9370
N1 N 0.50130(13) 0.20087(11) 0.77724(11)
O1 O 0.85979(12) 0.48902(11) 0.09749(9)
C30 C 0.8596(2) 0.62335(16) 0.04649(15)
H27 H 0.8972 0.6393 -0.0322
H28 H 0.9236 0.6620 0.0876
H29 H 0.7580 0.6592 0.0497
loop_
_geom_bond_atom_site_label_1
_geom_bond_atom_site_label_2
_geom_bond_site_symmetry_1
_geom_bond_site_symmetry_2
C1 C2 1_555 1_555
C2 H1 1_555 1_555
C3 C2 1_555 1_555
H2 C3 1_555 1_555
C4 C3 1_555 1_555
C5 C4 1_555 1_555
H3 C5 1_555 1_555
C6 C1 1_555 1_555
H4 C6 1_555 1_555
C7 C8 1_555 1_555
C8 H5 1_555 1_555
H6 C8 1_555 1_555
C9 C8 1_555 1_555
H7 C9 1_555 1_555
H8 C9 1_555 1_555
C10 C9 1_555 1_555
H9 C10 1_555 1_555
H10 C10 1_555 1_555
C11 C10 1_555 1_555
H11 C11 1_555 1_555
H12 C11 1_555 1_555
C12 C11 1_555 1_555
H13 C12 1_555 1_555
H14 C12 1_555 1_555
C13 C12 1_555 1_555
H15 C13 1_555 1_555
H16 C13 1_555 1_555
C14 C7 1_555 1_555
C15 C4 1_555 1_555
C16 C15 1_555 1_555
H17 C16 1_555 1_555
C17 C16 1_555 1_555
C18 C17 1_555 1_555
C19 C18 1_555 1_555
H18 C19 1_555 1_555
C20 C19 1_555 1_555
H19 C20 1_555 1_555
C21 C20 1_555 1_555
C22 C21 1_555 1_555
H20 C22 1_555 1_555
C23 C18 1_555 1_555
H21 C23 1_555 1_555
C24 C21 1_555 1_555
C25 C24 1_555 1_555
H22 C25 1_555 1_555
C26 C25 1_555 1_555
H23 C26 1_555 1_555
C27 C26 1_555 1_555
H24 C27 1_555 1_555
C28 C27 1_555 1_555
H25 C28 1_555 1_555
C29 C24 1_555 1_555
H26 C29 1_555 1_555
N1 C7 1_555 1_555
O1 C1 1_555 1_555
C30 O1 1_555 1_555
H27 C30 1_555 1_555
H28 C30 1_555 1_555
H29 C30 1_555 1_555
C5 C6 1_555 1_555
C13 C14 1_555 1_555
C14 C15 1_555 1_555
C17 N1 1_555 1_555
C22 C23 1_555 1_555
C28 C29 1_555 1_555

#END
