
#######################################################################
#
#                 Cambridge Crystallographic Data Centre
#                                CCDC 
#
#######################################################################
#
# If this CIF has been generated from an entry in the Cambridge 
# Structural Database, then it will include bibliographic, chemical, 
# crystal, experimental, refinement or atomic coordinate data resulting 
# from the CCDC's data processing and validation procedures.
#
#######################################################################

data_HUMNOS
_chemical_formula_moiety         'C24 H19 Cl2 N1 O4 S1'
_chemical_name_systematic        
'Methyl (1SR,8RS,10SR)-3,5-dichloro-1-(4-methoxyphenyl)-8-(phenylthio)-11-oxa-4-azatricyclo(6.2.1.0^2,7^)undeca-2,4,6-triene-10-carboxylate'
_symmetry_cell_setting           orthorhombic
_symmetry_space_group_name_H-M   'P 21 21 21'
_symmetry_Int_Tables_number      19
_space_group_name_Hall           'P 2ac 2ab'
loop_
_symmetry_equiv_pos_site_id
_symmetry_equiv_pos_as_xyz
1 x,y,z
2 1/2-x,-y,1/2+z
3 -x,1/2+y,1/2-z
4 1/2+x,1/2-y,-z
_cell_length_a                   9.0330(4)
_cell_length_b                   10.2107(5)
_cell_length_c                   24.5414(12)
_cell_angle_alpha                90
_cell_angle_beta                 90
_cell_angle_gamma                90
_cell_volume                     2263.53
_exptl_crystal_colour            colorless
_exptl_crystal_description       block
_chemical_melting_point          391K
_cell_formula_units_Z            4
_exptl_crystal_recrystallization_method 'ethyl acetate/petroleum ether'
loop_
_atom_site_label
_atom_site_type_symbol
_atom_site_fract_x
_atom_site_fract_y
_atom_site_fract_z
Cl1 Cl 0.56367(6) 1.20472(5) 0.23745(2)
Cl2 Cl 0.40714(5) 0.86087(5) 0.09270(2)
S1 S 1.08814(4) 0.85032(5) 0.197703(18)
O1 O 0.87533(12) 0.71753(12) 0.14305(4)
O2 O 0.74361(17) 1.02534(13) 0.03342(6)
O3 O 0.73125(15) 0.85444(12) -0.02341(5)
O4 O 0.43275(18) 0.28787(14) 0.07125(7)
N1 N 0.50890(15) 1.02107(15) 0.16700(6)
C1 C 0.61473(19) 1.07107(16) 0.19714(7)
C2 C 0.76129(19) 1.02881(17) 0.19935(7)
H1 H 0.8328 1.0703 0.2204
C3 C 0.79138(17) 0.92120(16) 0.16792(7)
C4 C 0.68269(16) 0.86277(16) 0.13577(6)
C5 C 0.54480(17) 0.91943(17) 0.13572(7)
C6 C 0.93223(16) 0.84800(16) 0.15330(6)
C7 C 0.97466(18) 0.89269(17) 0.09475(7)
H2 H 0.9672 0.9870 0.0909
H3 H 1.0742 0.8652 0.0853
C8 C 0.85776(17) 0.82165(16) 0.05931(6)
H4 H 0.9066 0.7547 0.0370
C9 C 0.75956(16) 0.75301(15) 0.10425(6)
C10 C 0.67251(17) 0.63143(15) 0.09112(6)
C11 C 0.5911(2) 0.57482(19) 0.13310(7)
H5 H 0.5893 0.6149 0.1671
C12 C 0.5135(2) 0.4610(2) 0.12523(8)
H6 H 0.4597 0.4247 0.1538
C13 C 0.5148(2) 0.39961(17) 0.07473(8)
C14 C 0.5951(2) 0.45447(17) 0.03272(7)
H7 H 0.5972 0.4141 -0.0012
C15 C 0.67281(19) 0.57019(17) 0.04120(7)
H8 H 0.7260 0.6069 0.0126
C16 C 0.4390(3) 0.2152(2) 0.02227(11)
H9 H 0.3830 0.1359 0.0263
H10 H 0.5401 0.1940 0.0141
H11 H 0.3981 0.2664 -0.0069
C17 C 0.77146(17) 0.91378(16) 0.02265(7)
C18 C 0.6537(3) 0.9364(2) -0.06226(9)
H12 H 0.6383 0.8885 -0.0954
H13 H 0.7117 1.0132 -0.0697
H14 H 0.5598 0.9619 -0.0474
C19 C 1.01318(18) 0.81905(16) 0.26325(7)
C20 C 1.0917(2) 0.8708(2) 0.30682(8)
H15 H 1.1732 0.9245 0.3005
C21 C 1.0488(3) 0.8426(2) 0.35956(8)
H16 H 1.1033 0.8750 0.3887
C22 C 0.9255(3) 0.7665(2) 0.36913(8)
H17 H 0.8962 0.7488 0.4047
C23 C 0.8459(2) 0.7168(2) 0.32625(9)
H18 H 0.7613 0.6674 0.3328
C24 C 0.8913(2) 0.74007(19) 0.27318(8)
H19 H 0.8401 0.7027 0.2442
loop_
_geom_bond_atom_site_label_1
_geom_bond_atom_site_label_2
_geom_bond_site_symmetry_1
_geom_bond_site_symmetry_2
Cl1 C1 1_555 1_555
Cl2 C5 1_555 1_555
S1 C6 1_555 1_555
O1 C6 1_555 1_555
O2 C17 1_555 1_555
O3 C17 1_555 1_555
O4 C13 1_555 1_555
N1 C1 1_555 1_555
C1 C2 1_555 1_555
C2 H1 1_555 1_555
C3 C2 1_555 1_555
C4 C3 1_555 1_555
C5 N1 1_555 1_555
C6 C3 1_555 1_555
C7 C6 1_555 1_555
H2 C7 1_555 1_555
H3 C7 1_555 1_555
C8 C7 1_555 1_555
H4 C8 1_555 1_555
C9 O1 1_555 1_555
C10 C9 1_555 1_555
C11 C10 1_555 1_555
H5 C11 1_555 1_555
C12 C11 1_555 1_555
H6 C12 1_555 1_555
C13 C12 1_555 1_555
C14 C13 1_555 1_555
H7 C14 1_555 1_555
C15 C10 1_555 1_555
H8 C15 1_555 1_555
C16 O4 1_555 1_555
H9 C16 1_555 1_555
H10 C16 1_555 1_555
H11 C16 1_555 1_555
C17 C8 1_555 1_555
C18 O3 1_555 1_555
H12 C18 1_555 1_555
H13 C18 1_555 1_555
H14 C18 1_555 1_555
C19 S1 1_555 1_555
C20 C19 1_555 1_555
H15 C20 1_555 1_555
C21 C20 1_555 1_555
H16 C21 1_555 1_555
C22 C21 1_555 1_555
H17 C22 1_555 1_555
C23 C22 1_555 1_555
H18 C23 1_555 1_555
C24 C19 1_555 1_555
H19 C24 1_555 1_555
C4 C5 1_555 1_555
C4 C9 1_555 1_555
C8 C9 1_555 1_555
C14 C15 1_555 1_555
C23 C24 1_555 1_555

#END
