
#######################################################################
#
#                 Cambridge Crystallographic Data Centre
#                                CCDC 
#
#######################################################################
#
# If this CIF has been generated from an entry in the Cambridge 
# Structural Database, then it will include bibliographic, chemical, 
# crystal, experimental, refinement or atomic coordinate data resulting 
# from the CCDC's data processing and validation procedures.
#
#######################################################################

data_HUMRIR
_chemical_formula_moiety         'C60 H50 O4'
_chemical_name_systematic        
2,7-Di-t-butyl-4,5,9,10-tetrakis((4-methoxyphenyl)ethynyl)pyrene
_symmetry_cell_setting           monoclinic
_symmetry_space_group_name_H-M   'P 21/c'
_symmetry_Int_Tables_number      14
_space_group_name_Hall           '-P 2ybc'
loop_
_symmetry_equiv_pos_site_id
_symmetry_equiv_pos_as_xyz
1 x,y,z
2 -x,1/2+y,1/2-z
3 -x,-y,-z
4 x,1/2-y,1/2+z
_cell_length_a                   12.865(3)
_cell_length_b                   5.9903(13)
_cell_length_c                   28.642(6)
_cell_angle_alpha                90
_cell_angle_beta                 90.033(4)
_cell_angle_gamma                90
_cell_volume                     2207.3
_exptl_crystal_colour            yellow
_exptl_crystal_description       lath
_cell_formula_units_Z            2
_exptl_crystal_recrystallization_method chloroform/dichloromethane
loop_
_atom_site_label
_atom_site_type_symbol
_atom_site_fract_x
_atom_site_fract_y
_atom_site_fract_z
C1 C 0.4426(2) 0.1354(4) 0.61754(8)
C2 C 0.50665(19) -0.0446(4) 0.60717(8)
H1 H 0.5348 -0.1310 0.6320
C3 C 0.53087(19) -0.1021(4) 0.56061(8)
C4 C 0.48860(19) 0.0275(4) 0.52363(8)
C5 C 0.42460(19) 0.2114(4) 0.53442(8)
C6 C 0.40213(19) 0.2610(5) 0.58096(8)
H2 H 0.3580 0.3839 0.5878
C7 C 0.38246(18) 0.3458(4) 0.49642(8)
C8 C 0.40388(19) 0.2913(4) 0.45033(8)
C9 C 0.4110(2) 0.1950(4) 0.66845(8)
C10 C 0.4770(2) 0.0690(5) 0.70435(9)
H3 H 0.4560 0.1131 0.7359
H4 H 0.5505 0.1054 0.6997
H5 H 0.4667 -0.0920 0.7004
C11 C 0.2971(2) 0.1296(5) 0.67496(9)
H6 H 0.2894 -0.0315 0.6703
H7 H 0.2542 0.2097 0.6522
H8 H 0.2748 0.1688 0.7066
C12 C 0.4222(2) 0.4447(5) 0.67695(9)
H9 H 0.3981 0.4806 0.7085
H10 H 0.3803 0.5267 0.6541
H11 H 0.4954 0.4876 0.6737
C13 C 0.3160(2) 0.5316(5) 0.50810(8)
C14 C 0.2614(2) 0.6753(5) 0.52209(9)
C15 C 0.1927(2) 0.8416(5) 0.54110(9)
C16 C 0.1555(2) 0.8183(5) 0.58696(10)
H12 H 0.1770 0.6940 0.6052
C17 C 0.0887(2) 0.9728(5) 0.60583(10)
H13 H 0.0640 0.9537 0.6368
C18 C 0.0571(2) 1.1552(5) 0.58010(10)
C19 C 0.0920(2) 1.1814(5) 0.53497(10)
H14 H 0.0701 1.3065 0.5171
C20 C 0.1585(2) 1.0263(5) 0.51568(10)
H15 H 0.1816 1.0457 0.4844
O1 O -0.00760(16) 1.3019(4) 0.60229(7)
C21 C -0.0609(2) 1.4645(5) 0.57419(11)
H16 H -0.0102 1.5673 0.5604
H17 H -0.1096 1.5485 0.5937
H18 H -0.0992 1.3886 0.5492
C22 C 0.35845(19) 0.4256(4) 0.41334(8)
C23 C 0.3205(2) 0.5347(5) 0.38389(9)
C24 C 0.2689(2) 0.6765(5) 0.35005(8)
C25 C 0.2359(2) 0.8898(5) 0.36212(9)
H19 H 0.2496 0.9452 0.3926
C26 C 0.1834(2) 1.0228(5) 0.33034(9)
H20 H 0.1619 1.1688 0.3390
C27 C 0.1622(2) 0.9430(5) 0.28590(9)
C28 C 0.1955(2) 0.7320(5) 0.27286(9)
H21 H 0.1818 0.6772 0.2423
C29 C 0.2488(2) 0.6022(5) 0.30482(9)
H22 H 0.2723 0.4584 0.2957
O2 O 0.10733(15) 1.0851(3) 0.25759(6)
C30 C 0.0790(2) 1.0060(5) 0.21196(9)
H23 H 0.1419 0.9655 0.1946
H24 H 0.0417 1.1238 0.1951
H25 H 0.0341 0.8746 0.2150
C1B C 0.5574(2) -0.1354(4) 0.38246(8)
C2B C 0.49335(19) 0.0446(4) 0.39283(8)
H1B H 0.4652 0.1310 0.3680
C3B C 0.46913(19) 0.1021(4) 0.43939(8)
C4B C 0.51140(19) -0.0275(4) 0.47637(8)
C5B C 0.57540(19) -0.2114(4) 0.46558(8)
C6B C 0.59787(19) -0.2610(5) 0.41904(8)
H2B H 0.6420 -0.3839 0.4122
C7B C 0.61754(18) -0.3458(4) 0.50358(8)
C8B C 0.59612(19) -0.2913(4) 0.54967(8)
C9B C 0.5890(2) -0.1950(4) 0.33155(8)
C10B C 0.5230(2) -0.0690(5) 0.29565(9)
H3B H 0.5440 -0.1131 0.2641
H4B H 0.4495 -0.1054 0.3003
H5B H 0.5333 0.0920 0.2996
C11B C 0.7029(2) -0.1296(5) 0.32504(9)
H6B H 0.7106 0.0315 0.3297
H7B H 0.7458 -0.2097 0.3478
H8B H 0.7252 -0.1688 0.2934
C12B C 0.5778(2) -0.4447(5) 0.32305(9)
H9B H 0.6019 -0.4806 0.2915
H10B H 0.6197 -0.5267 0.3459
H11B H 0.5046 -0.4876 0.3263
C13B C 0.6840(2) -0.5316(5) 0.49190(8)
C14B C 0.7386(2) -0.6753(5) 0.47791(9)
C15B C 0.8073(2) -0.8416(5) 0.45890(9)
C16B C 0.8445(2) -0.8183(5) 0.41304(10)
H12B H 0.8230 -0.6940 0.3948
C17B C 0.9113(2) -0.9728(5) 0.39417(10)
H13B H 0.9360 -0.9537 0.3632
C18B C 0.9429(2) -1.1552(5) 0.41990(10)
C19B C 0.9080(2) -1.1814(5) 0.46503(10)
H14B H 0.9299 -1.3065 0.4829
C20B C 0.8415(2) -1.0263(5) 0.48432(10)
H15B H 0.8184 -1.0457 0.5156
O1B O 1.00760(16) -1.3019(4) 0.39771(7)
C21B C 1.0609(2) -1.4645(5) 0.42581(11)
H16B H 1.0102 -1.5673 0.4396
H17B H 1.1096 -1.5485 0.4063
H18B H 1.0992 -1.3886 0.4508
C22B C 0.64155(19) -0.4256(4) 0.58666(8)
C23B C 0.6795(2) -0.5347(5) 0.61611(9)
C24B C 0.7311(2) -0.6765(5) 0.64995(8)
C25B C 0.7641(2) -0.8898(5) 0.63788(9)
H19B H 0.7504 -0.9452 0.6074
C26B C 0.8166(2) -1.0228(5) 0.66966(9)
H20B H 0.8381 -1.1688 0.6610
C27B C 0.8378(2) -0.9430(5) 0.71410(9)
C28B C 0.8045(2) -0.7320(5) 0.72714(9)
H21B H 0.8182 -0.6772 0.7577
C29B C 0.7512(2) -0.6022(5) 0.69518(9)
H22B H 0.7277 -0.4584 0.7043
O2B O 0.89267(15) -1.0851(3) 0.74241(6)
C30B C 0.9210(2) -1.0060(5) 0.78804(9)
H23B H 0.8581 -0.9655 0.8054
H24B H 0.9583 -1.1238 0.8049
H25B H 0.9659 -0.8746 0.7850
loop_
_geom_bond_atom_site_label_1
_geom_bond_atom_site_label_2
_geom_bond_site_symmetry_1
_geom_bond_site_symmetry_2
C1 C2 1_555 1_555
C2 H1 1_555 1_555
C3 C2 1_555 1_555
C4 C3 1_555 1_555
C5 C4 1_555 1_555
C6 C1 1_555 1_555
H2 C6 1_555 1_555
C7 C5 1_555 1_555
C8 C7 1_555 1_555
C9 C1 1_555 1_555
C10 C9 1_555 1_555
H3 C10 1_555 1_555
H4 C10 1_555 1_555
H5 C10 1_555 1_555
C11 C9 1_555 1_555
H6 C11 1_555 1_555
H7 C11 1_555 1_555
H8 C11 1_555 1_555
C12 C9 1_555 1_555
H9 C12 1_555 1_555
H10 C12 1_555 1_555
H11 C12 1_555 1_555
C13 C7 1_555 1_555
C14 C13 1_555 1_555
C15 C14 1_555 1_555
C16 C15 1_555 1_555
H12 C16 1_555 1_555
C17 C16 1_555 1_555
H13 C17 1_555 1_555
C18 C17 1_555 1_555
C19 C18 1_555 1_555
H14 C19 1_555 1_555
C20 C15 1_555 1_555
H15 C20 1_555 1_555
O1 C18 1_555 1_555
C21 O1 1_555 1_555
H16 C21 1_555 1_555
H17 C21 1_555 1_555
H18 C21 1_555 1_555
C22 C8 1_555 1_555
C23 C22 1_555 1_555
C24 C23 1_555 1_555
C25 C24 1_555 1_555
H19 C25 1_555 1_555
C26 C25 1_555 1_555
H20 C26 1_555 1_555
C27 C26 1_555 1_555
C28 C27 1_555 1_555
H21 C28 1_555 1_555
C29 C24 1_555 1_555
H22 C29 1_555 1_555
O2 C27 1_555 1_555
C30 O2 1_555 1_555
H23 C30 1_555 1_555
H24 C30 1_555 1_555
H25 C30 1_555 1_555
C1B C2B 1_555 1_555
C2B H1B 1_555 1_555
C3B C8 1_555 1_555
C4B C4 1_555 1_555
C5B C4B 1_555 1_555
C6B C1B 1_555 1_555
H2B C6B 1_555 1_555
C7B C5B 1_555 1_555
C8B C3 1_555 1_555
C9B C1B 1_555 1_555
C10B C9B 1_555 1_555
H3B C10B 1_555 1_555
H4B C10B 1_555 1_555
H5B C10B 1_555 1_555
C11B C9B 1_555 1_555
H6B C11B 1_555 1_555
H7B C11B 1_555 1_555
H8B C11B 1_555 1_555
C12B C9B 1_555 1_555
H9B C12B 1_555 1_555
H10B C12B 1_555 1_555
H11B C12B 1_555 1_555
C13B C7B 1_555 1_555
C14B C13B 1_555 1_555
C15B C14B 1_555 1_555
C16B C15B 1_555 1_555
H12B C16B 1_555 1_555
C17B C16B 1_555 1_555
H13B C17B 1_555 1_555
C18B C17B 1_555 1_555
C19B C18B 1_555 1_555
H14B C19B 1_555 1_555
C20B C15B 1_555 1_555
H15B C20B 1_555 1_555
O1B C18B 1_555 1_555
C21B O1B 1_555 1_555
H16B C21B 1_555 1_555
H17B C21B 1_555 1_555
H18B C21B 1_555 1_555
C22B C8B 1_555 1_555
C23B C22B 1_555 1_555
C24B C23B 1_555 1_555
C25B C24B 1_555 1_555
H19B C25B 1_555 1_555
C26B C25B 1_555 1_555
H20B C26B 1_555 1_555
C27B C26B 1_555 1_555
C28B C27B 1_555 1_555
H21B C28B 1_555 1_555
C29B C24B 1_555 1_555
H22B C29B 1_555 1_555
O2B C27B 1_555 1_555
C30B O2B 1_555 1_555
H23B C30B 1_555 1_555
H24B C30B 1_555 1_555
H25B C30B 1_555 1_555
C5 C6 1_555 1_555
C19 C20 1_555 1_555
C28 C29 1_555 1_555
C2B C3B 1_555 1_555
C3B C4B 1_555 1_555
C5B C6B 1_555 1_555
C7B C8B 1_555 1_555
C19B C20B 1_555 1_555
C28B C29B 1_555 1_555

#END
