
#######################################################################
#
#                 Cambridge Crystallographic Data Centre
#                                CCDC 
#
#######################################################################
#
# If this CIF has been generated from an entry in the Cambridge 
# Structural Database, then it will include bibliographic, chemical, 
# crystal, experimental, refinement or atomic coordinate data resulting 
# from the CCDC's data processing and validation procedures.
#
#######################################################################

data_HUMZUK
_chemical_formula_moiety         'C32 H28 S5'
_chemical_name_systematic        
5,5''-bis((5-n-Butylthien-2-yl)ethynyl)-2,2':5',2''-terthiophene
_symmetry_cell_setting           monoclinic
_symmetry_space_group_name_H-M   'P 21/c'
_symmetry_Int_Tables_number      14
_space_group_name_Hall           '-P 2ybc'
loop_
_symmetry_equiv_pos_site_id
_symmetry_equiv_pos_as_xyz
1 x,y,z
2 -x,1/2+y,1/2-z
3 -x,-y,-z
4 x,1/2-y,1/2+z
_cell_length_a                   24.803(6)
_cell_length_b                   5.717(1)
_cell_length_c                   22.348(4)
_cell_angle_alpha                90
_cell_angle_beta                 110.08
_cell_angle_gamma                90
_cell_volume                     2976.29
_cell_formula_units_Z            4
loop_
_atom_site_label
_atom_site_type_symbol
_atom_site_fract_x
_atom_site_fract_y
_atom_site_fract_z
S1 S 0.28151(17) 0.31344(63) -0.25643(19)
S2 S 0.46097(15) 0.25068(64) 0.02709(18)
S3 S 0.53866(15) 0.57158(55) 0.21424(18)
S4 S 0.67638(15) 0.25209(67) 0.36984(18)
S5 S 0.86782(19) 0.31451(82) 0.64655(21)
C1 C 0.2332(6) 0.1027(24) -0.3004(9)
C2 C 0.2314(7) -0.0778(31) -0.2608(8)
C3 C 0.2677(7) -0.0467(25) -0.1969(9)
C4 C 0.297(6) 0.1551(26) -0.1867(7)
C5 C 0.3383(7) 0.2611(33) -0.1302(9)
C6 C 0.3711(7) 0.346(29) -0.0786(9)
C7 C 0.407(6) 0.4356(27) -0.0185(7)
C8 C 0.4043(6) 0.6391(23) 0.0115(8)
C9 C 0.446(6) 0.6496(24) 0.0736(7)
C10 C 0.4781(5) 0.4517(22) 0.0874(7)
C11 C 0.5239(6) 0.3936(19) 0.1464(7)
C12 C 0.561(6) 0.1992(25) 0.1607(8)
C13 C 0.6002(6) 0.1966(23) 0.2249(7)
C14 C 0.5928(5) 0.3898(22) 0.2593(7)
C15 C 0.6242(5) 0.4486(23) 0.325(7)
C16 C 0.6211(6) 0.6462(24) 0.3576(7)
C17 C 0.6611(7) 0.6395(23) 0.4218(8)
C18 C 0.6933(7) 0.4403(28) 0.4354(7)
C19 C 0.7347(8) 0.3586(30) 0.4925(9)
C20 C 0.7697(8) 0.277(35) 0.5428(10)
C21 C 0.8067(6) 0.1622(31) 0.6001(9)
C22 C 0.8(8) -0.0353(30) 0.6281(10)
C23 C 0.8483(9) -0.0673(33) 0.6895(9)
C24 C 0.8928(11) 0.0998(29) 0.7125(12)
C25 C 0.2018(7) 0.1167(31) -0.3702(8)
C26 C 0.1656(7) 0.3286(31) -0.3878(8)
C27 C 0.1357(8) 0.3246(33) -0.4617(9)
C28 C 0.0999(9) 0.535(42) -0.4802(9)
C29 C 0.9419(8) 0.1167(46) 0.7689(10)
C30 C 0.943(9) 0.327(38) 0.8085(10)
C31 C 0.9974(8) 0.3261(43) 0.8665(9)
C32 C 0.9972(10) 0.5242(43) 0.905(10)
loop_
_geom_bond_atom_site_label_1
_geom_bond_atom_site_label_2
_geom_bond_site_symmetry_1
_geom_bond_site_symmetry_2
S1 C1 1_555 1_555
S2 C7 1_555 1_555
S3 C11 1_555 1_555
S4 C15 1_555 1_555
S5 C21 1_555 1_555
C1 C2 1_555 1_555
C2 C3 1_555 1_555
C3 C4 1_555 1_555
C4 S1 1_555 1_555
C5 C4 1_555 1_555
C6 C5 1_555 1_555
C7 C6 1_555 1_555
C8 C7 1_555 1_555
C9 C8 1_555 1_555
C10 S2 1_555 1_555
C11 C10 1_555 1_555
C12 C11 1_555 1_555
C13 C12 1_555 1_555
C14 S3 1_555 1_555
C15 C14 1_555 1_555
C16 C15 1_555 1_555
C17 C16 1_555 1_555
C18 S4 1_555 1_555
C19 C18 1_555 1_555
C20 C19 1_555 1_555
C21 C20 1_555 1_555
C22 C21 1_555 1_555
C23 C22 1_555 1_555
C24 S5 1_555 1_555
C25 C1 1_555 1_555
C26 C25 1_555 1_555
C27 C26 1_555 1_555
C28 C27 1_555 1_555
C29 C24 1_555 1_555
C30 C29 1_555 1_555
C31 C30 1_555 1_555
C32 C31 1_555 1_555
C9 C10 1_555 1_555
C13 C14 1_555 1_555
C17 C18 1_555 1_555
C23 C24 1_555 1_555

#END
