
#######################################################################
#
#                 Cambridge Crystallographic Data Centre
#                                CCDC 
#
#######################################################################
#
# If this CIF has been generated from an entry in the Cambridge 
# Structural Database, then it will include bibliographic, chemical, 
# crystal, experimental, refinement or atomic coordinate data resulting 
# from the CCDC's data processing and validation procedures.
#
#######################################################################

data_HUNFUT
_chemical_compound_source        'Curcuma phaeocaulis Valeton'
_chemical_name_common            phasalvione
_chemical_formula_moiety         'C15 H22 O3'
_chemical_name_systematic        
8-hydroxy-3-isopropylidene-5,8a-dimethyloctahydroazulene-2,4-dione
_symmetry_cell_setting           orthorhombic
_symmetry_space_group_name_H-M   'P 21 21 21'
_symmetry_Int_Tables_number      19
_space_group_name_Hall           'P 2ac 2ab'
loop_
_symmetry_equiv_pos_site_id
_symmetry_equiv_pos_as_xyz
1 x,y,z
2 1/2-x,-y,1/2+z
3 1/2+x,1/2-y,-z
4 -x,1/2+y,1/2-z
_cell_length_a                   7.73264(17)
_cell_length_b                   8.92045(17)
_cell_length_c                   20.1079(4)
_cell_angle_alpha                90
_cell_angle_beta                 90
_cell_angle_gamma                90
_cell_volume                     1387.02
_exptl_crystal_colour            colorless
_exptl_crystal_description       flaky
_chemical_melting_point          '459-460 K'
_cell_formula_units_Z            4
_chemical_properties_physical    'Heat-sensitive, Light-sensitive'
loop_
_atom_site_label
_atom_site_type_symbol
_atom_site_fract_x
_atom_site_fract_y
_atom_site_fract_z
O1 O -0.96264(12) -0.35643(11) -0.13176(5)
O2 O -0.27835(13) -0.28201(14) -0.07700(6)
H1 H -0.1867 -0.3109 -0.0930
C1 C -0.72213(17) -0.40582(14) -0.23507(6)
C2 C -0.83135(16) -0.42196(13) -0.11542(6)
C3 C -0.53404(16) -0.32268(15) -0.14307(7)
C4 C -0.68080(15) -0.43708(14) -0.16276(6)
H2 H -0.6344 -0.5390 -0.1592
O3 O -0.57808(18) -0.24565(14) -0.31591(6)
C5 C -0.6097(2) -0.17189(15) -0.12052(8)
H3 H -0.6908 -0.1367 -0.1531
H4 H -0.5181 -0.1001 -0.1157
H5 H -0.6675 -0.1846 -0.0787
C6 C -0.81580(18) -0.48765(15) -0.04607(6)
H6 H -0.8429 -0.4071 -0.0146
C7 C -0.84874(18) -0.47161(15) -0.27044(6)
C8 C -0.96410(19) -0.58913(17) -0.24143(7)
H7 H -0.9114 -0.6300 -0.2022
H8 H -0.9815 -0.6676 -0.2734
H9 H -1.0736 -0.5453 -0.2300
C9 C -0.44338(19) -0.29894(18) -0.21017(7)
H10 H -0.3870 -0.2018 -0.2115
H11 H -0.3572 -0.3762 -0.2177
C10 C -0.41118(17) -0.38908(16) -0.09105(7)
H12 H -0.3569 -0.4785 -0.1101
C11 C -0.6376(2) -0.54738(16) -0.02762(7)
H13 H -0.6458 -0.5954 0.0155
H14 H -0.6059 -0.6240 -0.0596
C12 C -0.49223(19) -0.43228(18) -0.02484(7)
H15 H -0.5369 -0.3420 -0.0041
H16 H -0.4018 -0.4712 0.0038
C13 C -0.5843(2) -0.30773(16) -0.26188(7)
C14 C -0.8826(2) -0.43916(19) -0.34256(7)
H17 H -0.8183 -0.3521 -0.3558
H18 H -1.0038 -0.4212 -0.3490
H19 H -0.8472 -0.5234 -0.3690
C15 C -0.9545(2) -0.6085(2) -0.03735(9)
H20 H -1.0654 -0.5682 -0.0492
H21 H -0.9567 -0.6409 0.0082
H22 H -0.9284 -0.6923 -0.0656
loop_
_geom_bond_atom_site_label_1
_geom_bond_atom_site_label_2
_geom_bond_site_symmetry_1
_geom_bond_site_symmetry_2
O1 C2 1_555 1_555
O2 H1 1_555 1_555
C1 C4 1_555 1_555
C2 C4 1_555 1_555
C3 C4 1_555 1_555
C4 H2 1_555 1_555
O3 C13 1_555 1_555
C5 C3 1_555 1_555
H3 C5 1_555 1_555
H4 C5 1_555 1_555
H5 C5 1_555 1_555
C6 C2 1_555 1_555
H6 C6 1_555 1_555
C7 C1 1_555 1_555
C8 C7 1_555 1_555
H7 C8 1_555 1_555
H8 C8 1_555 1_555
H9 C8 1_555 1_555
C9 C3 1_555 1_555
H10 C9 1_555 1_555
H11 C9 1_555 1_555
C10 O2 1_555 1_555
H12 C10 1_555 1_555
C11 C6 1_555 1_555
H13 C11 1_555 1_555
H14 C11 1_555 1_555
C12 C10 1_555 1_555
H15 C12 1_555 1_555
H16 C12 1_555 1_555
C13 C1 1_555 1_555
C14 C7 1_555 1_555
H17 C14 1_555 1_555
H18 C14 1_555 1_555
H19 C14 1_555 1_555
C15 C6 1_555 1_555
H20 C15 1_555 1_555
H21 C15 1_555 1_555
H22 C15 1_555 1_555
C3 C10 1_555 1_555
C9 C13 1_555 1_555
C11 C12 1_555 1_555

#END
