
#######################################################################
#
#                 Cambridge Crystallographic Data Centre
#                                CCDC 
#
#######################################################################
#
# If this CIF has been generated from an entry in the Cambridge 
# Structural Database, then it will include bibliographic, chemical, 
# crystal, experimental, refinement or atomic coordinate data resulting 
# from the CCDC's data processing and validation procedures.
#
#######################################################################

data_HUNJEH
_chemical_name_common            
'3,7-dimethyl-1-(5-oxohexyl)purine-2,6-dione, 2-acetoxybenzoic acid'
_chemical_formula_moiety         'C13 H18 N4 O3,C9 H8 O4'
_chemical_name_systematic        
'2-acetoxybenzoic acid 3,7-dimethyl-1-(5-oxohexyl)-3,7-dihydro-1H-purine-2,6-dione'
_symmetry_cell_setting           triclinic
_symmetry_space_group_name_H-M   'P -1'
_symmetry_Int_Tables_number      2
_space_group_name_Hall           '-P 1'
loop_
_symmetry_equiv_pos_site_id
_symmetry_equiv_pos_as_xyz
1 x,y,z
2 -x,-y,-z
_cell_length_a                   9.4429(5)
_cell_length_b                   10.5278(5)
_cell_length_c                   13.1342(10)
_cell_angle_alpha                76.258(2)
_cell_angle_beta                 77.904(2)
_cell_angle_gamma                64.958(3)
_cell_volume                     1140.26
_exptl_crystal_colour            colorless
_exptl_crystal_description       plate
_cell_formula_units_Z            2
loop_
_atom_site_label
_atom_site_type_symbol
_atom_site_fract_x
_atom_site_fract_y
_atom_site_fract_z
N1 N 0.7419(3) 0.1071(2) 0.89477(16)
C1 C 0.7006(4) 0.2034(3) 0.9577(2)
H1 H 0.7726 0.2285 0.9780
N2 N 0.5465(3) 0.2598(2) 0.98816(16)
C2 C 0.4873(3) 0.1942(2) 0.94076(19)
N3 N 0.3316(3) 0.2170(2) 0.94765(16)
C3 C 0.2910(4) 0.1404(3) 0.8951(2)
N4 N 0.4123(3) 0.0440(2) 0.83720(16)
C4 C 0.5731(3) 0.0181(3) 0.8250(2)
C5 C 0.6032(3) 0.1004(3) 0.88272(19)
C6 C 0.3692(3) -0.0375(3) 0.7810(2)
H2 H 0.2810 -0.0576 0.8225
H3 H 0.4573 -0.1277 0.7744
C7 C 0.3253(3) 0.0401(2) 0.67211(19)
H4 H 0.4057 0.0743 0.6342
H5 H 0.2265 0.1219 0.6788
C8 C 0.3090(3) -0.0562(3) 0.6099(2)
H6 H 0.2344 -0.0958 0.6506
H7 H 0.4100 -0.1346 0.5995
C9 C 0.2538(3) 0.0207(3) 0.5026(2)
H8 H 0.3138 0.0781 0.4688
H9 H 0.2764 -0.0495 0.4587
C10 C 0.0829(3) 0.1140(3) 0.5076(2)
C11 C 0.0288(4) 0.2101(3) 0.4074(2)
H10 H -0.0841 0.2478 0.4136
H11 H 0.0724 0.1576 0.3499
H12 H 0.0633 0.2869 0.3943
C12 C 0.9001(4) 0.0285(3) 0.8476(2)
H13 H 0.9732 0.0566 0.8678
H14 H 0.9040 0.0485 0.7720
H15 H 0.9276 -0.0716 0.8716
C13 C 0.2092(3) 0.3216(3) 1.0096(2)
H16 H 0.2307 0.2967 1.0816
H17 H 0.1082 0.3220 1.0070
H18 H 0.2089 0.4145 0.9806
O1 O 0.1542(2) 0.15523(18) 0.90039(14)
O2 O 0.6710(2) -0.0688(2) 0.77142(15)
O3 O -0.0084(2) 0.1110(2) 0.58688(16)
O4 O 0.2797(2) 0.6295(2) 0.88054(16)
O5 O 0.5364(2) 0.57951(17) 0.85945(14)
H19 H 0.5104 0.6255 0.9075
C14 C 0.4113(3) 0.5735(2) 0.8355(2)
C15 C 0.4409(3) 0.4930(2) 0.74892(19)
C16 C 0.3108(3) 0.5004(3) 0.7109(2)
H20 H 0.2106 0.5534 0.7411
C17 C 0.3253(3) 0.4318(3) 0.6300(2)
H21 H 0.2358 0.4400 0.6053
C18 C 0.4731(3) 0.3508(3) 0.5854(2)
H22 H 0.4838 0.3043 0.5305
C19 C 0.6037(3) 0.3392(3) 0.6224(2)
H23 H 0.7035 0.2835 0.5934
C20 C 0.5875(3) 0.4099(2) 0.7027(2)
O6 O 0.7251(2) 0.38779(17) 0.74081(14)
C21 C 0.7894(4) 0.4860(3) 0.7029(3)
C22 C 0.9191(4) 0.4555(4) 0.7644(3)
H24 H 1.0062 0.3701 0.7483
H25 H 0.8824 0.4434 0.8385
H26 H 0.9524 0.5334 0.7460
O7 O 0.7413(3) 0.5818(3) 0.63242(19)
loop_
_geom_bond_atom_site_label_1
_geom_bond_atom_site_label_2
_geom_bond_site_symmetry_1
_geom_bond_site_symmetry_2
N1 C1 1_555 1_555
C1 H1 1_555 1_555
N2 C1 1_555 1_555
C2 N2 1_555 1_555
N3 C2 1_555 1_555
C3 N3 1_555 1_555
N4 C3 1_555 1_555
C4 N4 1_555 1_555
C5 N1 1_555 1_555
C6 N4 1_555 1_555
H2 C6 1_555 1_555
H3 C6 1_555 1_555
C7 C6 1_555 1_555
H4 C7 1_555 1_555
H5 C7 1_555 1_555
C8 C7 1_555 1_555
H6 C8 1_555 1_555
H7 C8 1_555 1_555
C9 C8 1_555 1_555
H8 C9 1_555 1_555
H9 C9 1_555 1_555
C10 C9 1_555 1_555
C11 C10 1_555 1_555
H10 C11 1_555 1_555
H11 C11 1_555 1_555
H12 C11 1_555 1_555
C12 N1 1_555 1_555
H13 C12 1_555 1_555
H14 C12 1_555 1_555
H15 C12 1_555 1_555
C13 N3 1_555 1_555
H16 C13 1_555 1_555
H17 C13 1_555 1_555
H18 C13 1_555 1_555
O1 C3 1_555 1_555
O2 C4 1_555 1_555
O3 C10 1_555 1_555
O4 C14 1_555 1_555
O5 H19 1_555 1_555
C14 O5 1_555 1_555
C15 C14 1_555 1_555
C16 C15 1_555 1_555
H20 C16 1_555 1_555
C17 C16 1_555 1_555
H21 C17 1_555 1_555
C18 C17 1_555 1_555
H22 C18 1_555 1_555
C19 C18 1_555 1_555
H23 C19 1_555 1_555
C20 C15 1_555 1_555
O6 C20 1_555 1_555
C21 O6 1_555 1_555
C22 C21 1_555 1_555
H24 C22 1_555 1_555
H25 C22 1_555 1_555
H26 C22 1_555 1_555
O7 C21 1_555 1_555
C2 C5 1_555 1_555
C4 C5 1_555 1_555
C19 C20 1_555 1_555

#END
