
#######################################################################
#
#                 Cambridge Crystallographic Data Centre
#                                CCDC 
#
#######################################################################
#
# If this CIF has been generated from an entry in the Cambridge 
# Structural Database, then it will include bibliographic, chemical, 
# crystal, experimental, refinement or atomic coordinate data resulting 
# from the CCDC's data processing and validation procedures.
#
#######################################################################

data_HUNJOR
_chemical_name_common            
'3,7-dimethyl-1-(5-oxohexyl)-3,7-dihydro-1H-purine-2,6-dione benzoate'
_chemical_formula_moiety         'C13 H18 N4 O3,C7 H6 O2'
_chemical_name_systematic        
'3,7-dimethyl-1-(5-oxohexyl)-3,7-dihydro-1H-purine-2,6-dione, Benzoic acid'
_symmetry_cell_setting           triclinic
_symmetry_space_group_name_H-M   'P -1'
_symmetry_Int_Tables_number      2
_space_group_name_Hall           '-P 1'
loop_
_symmetry_equiv_pos_site_id
_symmetry_equiv_pos_as_xyz
1 x,y,z
2 -x,-y,-z
_cell_length_a                   13.3663(3)
_cell_length_b                   13.4558(3)
_cell_length_c                   14.1787(5)
_cell_angle_alpha                64.7180(10)
_cell_angle_beta                 81.0520(10)
_cell_angle_gamma                60.983(2)
_cell_volume                     2012.1
_exptl_crystal_colour            colorless
_exptl_crystal_description       plate
_cell_formula_units_Z            4
loop_
_atom_site_label
_atom_site_type_symbol
_atom_site_fract_x
_atom_site_fract_y
_atom_site_fract_z
N1 N 0.8235(2) -0.4136(3) 0.6371(2)
C1 C 0.7125(3) -0.3292(4) 0.6413(3)
H1 H 0.6484 -0.3366 0.6353
N2 N 0.7083(2) -0.2348(3) 0.6553(2)
C2 C 0.8188(3) -0.2609(3) 0.6599(3)
N3 N 0.8553(3) -0.1875(3) 0.6724(2)
C3 C 0.9746(3) -0.2263(4) 0.6726(3)
N4 N 1.0472(2) -0.3376(3) 0.6625(2)
C4 C 1.0123(3) -0.4139(3) 0.6476(3)
C5 C 0.8935(3) -0.3682(3) 0.6491(2)
C6 C 1.1702(3) -0.3784(4) 0.6698(3)
H2 H 1.2112 -0.4684 0.6962
H3 H 1.1849 -0.3550 0.7201
C7 C 1.2176(3) -0.3246(3) 0.5668(3)
H4 H 1.1753 -0.2344 0.5384
H5 H 1.2073 -0.3514 0.5171
C8 C 1.3442(3) -0.3662(3) 0.5815(3)
H6 H 1.3860 -0.4563 0.6100
H7 H 1.3541 -0.3398 0.6317
C9 C 1.3950(3) -0.3137(3) 0.4798(3)
H8 H 1.3794 -0.3349 0.4283
H9 H 1.3560 -0.2237 0.4541
C10 C 1.5213(3) -0.3589(4) 0.4886(3)
C11 C 1.5708(4) -0.2915(4) 0.3977(3)
H10 H 1.5448 -0.2836 0.3342
H11 H 1.6529 -0.3374 0.4058
H12 H 1.5463 -0.2103 0.3947
C12 C 0.8599(3) -0.5280(4) 0.6245(3)
H13 H 0.7938 -0.5353 0.6176
H14 H 0.9078 -0.5979 0.6846
H15 H 0.9022 -0.5261 0.5630
C13 C 0.7759(3) -0.0720(4) 0.6829(4)
H16 H 0.7190 -0.0197 0.6255
H17 H 0.8171 -0.0301 0.6828
H18 H 0.7393 -0.0900 0.7474
O1 O 1.0122(2) -0.1633(3) 0.6806(2)
O2 O 1.0848(2) -0.5076(2) 0.63466(19)
O3 O 1.5812(2) -0.4460(3) 0.5655(2)
O4 O 0.5573(2) 0.1677(3) 0.4074(3)
O5 O 0.5184(2) 0.0419(2) 0.3750(2)
H19 H 0.4523 0.0941 0.3750
C14 C 0.5899(3) 0.0738(4) 0.3931(3)
C15 C 0.7126(3) -0.0137(3) 0.3940(2)
C16 C 0.7953(3) 0.0170(3) 0.3996(3)
H20 H 0.7735 0.0918 0.4040
C17 C 0.9092(3) -0.0610(4) 0.3989(3)
H21 H 0.9641 -0.0387 0.4020
C18 C 0.9426(3) -0.1733(4) 0.3934(3)
H22 H 1.0200 -0.2268 0.3934
C19 C 0.8612(3) -0.2054(3) 0.3882(3)
H23 H 0.8834 -0.2807 0.3846
C20 C 0.7464(3) -0.1262(3) 0.3882(3)
H24 H 0.6915 -0.1481 0.3843
N5 N 0.6597(2) 0.2466(2) 0.1292(2)
C21 C 0.7636(3) 0.2362(3) 0.1288(3)
H25 H 0.7771 0.2969 0.1308
N6 N 0.8473(2) 0.1300(2) 0.1253(2)
C22 C 0.7940(2) 0.0643(3) 0.1250(2)
C23 C 0.8395(3) -0.0569(3) 0.1276(2)
N7 N 0.7520(2) -0.0889(2) 0.1333(2)
C24 C 0.6339(3) -0.0129(3) 0.1331(3)
N8 N 0.5995(2) 0.1030(2) 0.1281(2)
C25 C 0.6801(3) 0.1385(3) 0.1275(2)
C26 C 0.7888(3) -0.2174(3) 0.1479(3)
H26 H 0.7376 -0.2461 0.1936
H27 H 0.8651 -0.2707 0.1823
C27 C 0.7900(3) -0.2305(3) 0.0462(3)
H28 H 0.7144 -0.1764 0.0101
H29 H 0.8438 -0.2061 0.0011
C28 C 0.8246(3) -0.3643(3) 0.0697(3)
H30 H 0.9004 -0.4169 0.1053
H31 H 0.7719 -0.3882 0.1172
C29 C 0.8262(3) -0.3884(3) -0.0254(3)
H32 H 0.7493 -0.3397 -0.0586
H33 H 0.8753 -0.3598 -0.0748
C30 C 0.8672(3) -0.5218(3) -0.0025(3)
C31 C 0.8390(4) -0.5469(4) -0.0858(3)
H34 H 0.8906 -0.6312 -0.0764
H35 H 0.8469 -0.4911 -0.1533
H36 H 0.7616 -0.5343 -0.0809
C32 C 0.9696(3) 0.0909(3) 0.1247(3)
H37 H 0.9974 0.0833 0.0602
H38 H 1.0091 0.0120 0.1822
H39 H 0.9830 0.1516 0.1314
C33 C 0.4773(3) 0.1879(4) 0.1219(3)
H40 H 0.4529 0.2489 0.0514
H41 H 0.4635 0.2288 0.1674
H42 H 0.4351 0.1418 0.1429
O6 O 0.5653(2) -0.0497(3) 0.1373(2)
O7 O 0.94028(19) -0.1290(2) 0.12537(19)
O8 O 0.9196(2) -0.6060(2) 0.0782(2)
O9 O 0.3789(2) 0.4887(2) -0.1212(2)
O10 O 0.51517(19) 0.5461(2) -0.1501(2)
H43 H 0.4642 0.6054 -0.1389
C34 C 0.5666(3) 0.3519(3) -0.1481(2)
C35 C 0.4770(3) 0.4674(3) -0.1379(3)
C36 C 0.5360(3) 0.2642(3) -0.1410(3)
H44 H 0.4596 0.2813 -0.1340
C37 C 0.6158(3) 0.1533(3) -0.1442(3)
H45 H 0.5942 0.0952 -0.1394
C38 C 0.7290(3) 0.1285(3) -0.1546(3)
H46 H 0.7840 0.0527 -0.1560
C39 C 0.7618(3) 0.2148(4) -0.1631(3)
H47 H 0.8380 0.1983 -0.1713
C40 C 0.6793(3) 0.3259(3) -0.1591(3)
H48 H 0.7006 0.3841 -0.1640
loop_
_geom_bond_atom_site_label_1
_geom_bond_atom_site_label_2
_geom_bond_site_symmetry_1
_geom_bond_site_symmetry_2
N1 C1 1_555 1_555
C1 H1 1_555 1_555
N2 C1 1_555 1_555
C2 N2 1_555 1_555
N3 C2 1_555 1_555
C3 N3 1_555 1_555
N4 C3 1_555 1_555
C4 N4 1_555 1_555
C5 N1 1_555 1_555
C6 N4 1_555 1_555
H2 C6 1_555 1_555
H3 C6 1_555 1_555
C7 C6 1_555 1_555
H4 C7 1_555 1_555
H5 C7 1_555 1_555
C8 C7 1_555 1_555
H6 C8 1_555 1_555
H7 C8 1_555 1_555
C9 C8 1_555 1_555
H8 C9 1_555 1_555
H9 C9 1_555 1_555
C10 C9 1_555 1_555
C11 C10 1_555 1_555
H10 C11 1_555 1_555
H11 C11 1_555 1_555
H12 C11 1_555 1_555
C12 N1 1_555 1_555
H13 C12 1_555 1_555
H14 C12 1_555 1_555
H15 C12 1_555 1_555
C13 N3 1_555 1_555
H16 C13 1_555 1_555
H17 C13 1_555 1_555
H18 C13 1_555 1_555
O1 C3 1_555 1_555
O2 C4 1_555 1_555
O3 C10 1_555 1_555
O4 C14 1_555 1_555
O5 H19 1_555 1_555
C14 O5 1_555 1_555
C15 C14 1_555 1_555
C16 C15 1_555 1_555
H20 C16 1_555 1_555
C17 C16 1_555 1_555
H21 C17 1_555 1_555
C18 C17 1_555 1_555
H22 C18 1_555 1_555
C19 C18 1_555 1_555
H23 C19 1_555 1_555
C20 C15 1_555 1_555
H24 C20 1_555 1_555
N5 C21 1_555 1_555
C21 H25 1_555 1_555
N6 C21 1_555 1_555
C22 N6 1_555 1_555
C23 C22 1_555 1_555
N7 C23 1_555 1_555
C24 N7 1_555 1_555
N8 C24 1_555 1_555
C25 N5 1_555 1_555
C26 N7 1_555 1_555
H26 C26 1_555 1_555
H27 C26 1_555 1_555
C27 C26 1_555 1_555
H28 C27 1_555 1_555
H29 C27 1_555 1_555
C28 C27 1_555 1_555
H30 C28 1_555 1_555
H31 C28 1_555 1_555
C29 C28 1_555 1_555
H32 C29 1_555 1_555
H33 C29 1_555 1_555
C30 C29 1_555 1_555
C31 C30 1_555 1_555
H34 C31 1_555 1_555
H35 C31 1_555 1_555
H36 C31 1_555 1_555
C32 N6 1_555 1_555
H37 C32 1_555 1_555
H38 C32 1_555 1_555
H39 C32 1_555 1_555
C33 N8 1_555 1_555
H40 C33 1_555 1_555
H41 C33 1_555 1_555
H42 C33 1_555 1_555
O6 C24 1_555 1_555
O7 C23 1_555 1_555
O8 C30 1_555 1_555
O9 C35 1_555 1_555
O10 H43 1_555 1_555
C34 C35 1_555 1_555
C35 O10 1_555 1_555
C36 C34 1_555 1_555
H44 C36 1_555 1_555
C37 C36 1_555 1_555
H45 C37 1_555 1_555
C38 C37 1_555 1_555
H46 C38 1_555 1_555
C39 C38 1_555 1_555
H47 C39 1_555 1_555
C40 C34 1_555 1_555
H48 C40 1_555 1_555
C2 C5 1_555 1_555
C4 C5 1_555 1_555
C19 C20 1_555 1_555
C22 C25 1_555 1_555
N8 C25 1_555 1_555
C39 C40 1_555 1_555

#END
