
#######################################################################
#
#                 Cambridge Crystallographic Data Centre
#                                CCDC 
#
#######################################################################
#
# If this CIF has been generated from an entry in the Cambridge 
# Structural Database, then it will include bibliographic, chemical, 
# crystal, experimental, refinement or atomic coordinate data resulting 
# from the CCDC's data processing and validation procedures.
#
#######################################################################

data_HUNJIL
_chemical_name_common            
'3,7-dimethyl-1-(5-oxohexyl)purine-2,6-dione, 2-Hydroxybenzoic acid'
_chemical_formula_moiety         'C13 H18 N4 O3,C7 H6 O3'
_chemical_name_systematic        
'2-hydroxybenzoic acid 3,7-dimethyl-1-(5-oxohexyl)-3,7-dihydro-1H-purine-2,6-dione'
_symmetry_cell_setting           triclinic
_symmetry_space_group_name_H-M   'P -1'
_symmetry_Int_Tables_number      2
_space_group_name_Hall           '-P 1'
loop_
_symmetry_equiv_pos_site_id
_symmetry_equiv_pos_as_xyz
1 x,y,z
2 -x,-y,-z
_cell_length_a                   6.7116(3)
_cell_length_b                   8.4599(4)
_cell_length_c                   19.3789(10)
_cell_angle_alpha                83.936(2)
_cell_angle_beta                 82.982(2)
_cell_angle_gamma                70.404(4)
_cell_volume                     1026.36
_exptl_crystal_colour            colorless
_exptl_crystal_description       needle
_cell_formula_units_Z            2
loop_
_atom_site_label
_atom_site_type_symbol
_atom_site_fract_x
_atom_site_fract_y
_atom_site_fract_z
N1 N -0.2553(3) 0.6266(3) 0.80300(12)
C1 C -0.2698(4) 0.6223(4) 0.87295(15)
H1 H -0.3166 0.7180 0.8980
N2 N -0.2098(3) 0.4660(3) 0.90244(12)
C2 C -0.1556(4) 0.3670(4) 0.84747(13)
N3 N -0.0834(3) 0.1948(3) 0.85082(11)
C3 C -0.0434(4) 0.1136(4) 0.79013(14)
N4 N -0.0719(3) 0.2141(3) 0.72732(11)
C4 C -0.1358(4) 0.3901(4) 0.71983(14)
C5 C -0.1815(4) 0.4616(4) 0.78521(13)
C6 C -0.0368(4) 0.1223(4) 0.66371(14)
H2 H -0.1023 0.2003 0.6261
H3 H -0.1057 0.0371 0.6721
C7 C 0.1973(4) 0.0388(4) 0.64139(14)
H4 H 0.2636 0.1249 0.6290
H5 H 0.2654 -0.0316 0.6804
C8 C 0.2326(4) -0.0677(4) 0.57987(15)
H6 H 0.1862 0.0049 0.5387
H7 H 0.1477 -0.1418 0.5892
C9 C 0.4658(4) -0.1726(4) 0.56613(15)
H8 H 0.5505 -0.0990 0.5647
H9 H 0.5045 -0.2548 0.6052
C10 C 0.5240(5) -0.2636(4) 0.50046(15)
C11 C 0.7437(5) -0.3900(5) 0.49336(17)
H10 H 0.7506 -0.4853 0.5258
H11 H 0.8449 -0.3395 0.5030
H12 H 0.7761 -0.4260 0.4467
C12 C -0.3141(5) 0.7758(4) 0.75552(16)
H13 H -0.4367 0.7802 0.7335
H14 H -0.1982 0.7718 0.7206
H15 H -0.3463 0.8740 0.7810
C13 C -0.0577(5) 0.0961(4) 0.91783(14)
H16 H 0.0230 0.1358 0.9453
H17 H 0.0156 -0.0202 0.9100
H18 H -0.1949 0.1078 0.9421
O1 O 0.0135(3) -0.0399(3) 0.79062(10)
O2 O -0.1491(3) 0.4669(3) 0.66207(10)
O3 O 0.4048(3) -0.2368(3) 0.45589(11)
O4 O 0.3458(3) 0.2851(3) 0.97147(10)
O5 O 0.2276(3) 0.5661(3) 0.95891(10)
H19 H 0.2199 0.5555 1.0016
C14 C 0.2979(4) 0.4168(4) 0.93391(15)
C15 C 0.3180(4) 0.4182(4) 0.85728(14)
C16 C 0.2611(4) 0.5692(4) 0.81561(14)
H20 H 0.2089 0.6711 0.8364
C17 C 0.2818(4) 0.5683(4) 0.74390(15)
H21 H 0.2427 0.6689 0.7165
C18 C 0.3613(4) 0.4162(4) 0.71308(16)
H22 H 0.3767 0.4155 0.6648
C19 C 0.4177(4) 0.2668(4) 0.75294(15)
H23 H 0.4712 0.1658 0.7315
C20 C 0.3955(4) 0.2654(4) 0.82535(14)
O6 O 0.4530(3) 0.1149(3) 0.86255(11)
H24 H 0.4431 0.1301 0.9041
loop_
_geom_bond_atom_site_label_1
_geom_bond_atom_site_label_2
_geom_bond_site_symmetry_1
_geom_bond_site_symmetry_2
N1 C1 1_555 1_555
C1 H1 1_555 1_555
N2 C1 1_555 1_555
C2 N2 1_555 1_555
N3 C2 1_555 1_555
C3 N3 1_555 1_555
N4 C3 1_555 1_555
C4 N4 1_555 1_555
C5 N1 1_555 1_555
C6 N4 1_555 1_555
H2 C6 1_555 1_555
H3 C6 1_555 1_555
C7 C6 1_555 1_555
H4 C7 1_555 1_555
H5 C7 1_555 1_555
C8 C7 1_555 1_555
H6 C8 1_555 1_555
H7 C8 1_555 1_555
C9 C8 1_555 1_555
H8 C9 1_555 1_555
H9 C9 1_555 1_555
C10 C9 1_555 1_555
C11 C10 1_555 1_555
H10 C11 1_555 1_555
H11 C11 1_555 1_555
H12 C11 1_555 1_555
C12 N1 1_555 1_555
H13 C12 1_555 1_555
H14 C12 1_555 1_555
H15 C12 1_555 1_555
C13 N3 1_555 1_555
H16 C13 1_555 1_555
H17 C13 1_555 1_555
H18 C13 1_555 1_555
O1 C3 1_555 1_555
O2 C4 1_555 1_555
O3 C10 1_555 1_555
O4 C14 1_555 1_555
O5 H19 1_555 1_555
C14 O5 1_555 1_555
C15 C14 1_555 1_555
C16 C15 1_555 1_555
H20 C16 1_555 1_555
C17 C16 1_555 1_555
H21 C17 1_555 1_555
C18 C17 1_555 1_555
H22 C18 1_555 1_555
C19 C18 1_555 1_555
H23 C19 1_555 1_555
C20 C15 1_555 1_555
O6 C20 1_555 1_555
H24 O6 1_555 1_555
C2 C5 1_555 1_555
C4 C5 1_555 1_555
C19 C20 1_555 1_555

#END
