
#######################################################################
#
#                 Cambridge Crystallographic Data Centre
#                                CCDC 
#
#######################################################################
#
# If this CIF has been generated from an entry in the Cambridge 
# Structural Database, then it will include bibliographic, chemical, 
# crystal, experimental, refinement or atomic coordinate data resulting 
# from the CCDC's data processing and validation procedures.
#
#######################################################################

data_HUNMIN
_chemical_formula_moiety         'C29 H22 O2'
_chemical_name_systematic        
5,7-Dimethyl-1,1,3-triphenyl-1H-indene-2,6-dione
_symmetry_cell_setting           monoclinic
_symmetry_space_group_name_H-M   'C 2/c'
_symmetry_Int_Tables_number      15
_space_group_name_Hall           '-C 2yn'
loop_
_symmetry_equiv_pos_site_id
_symmetry_equiv_pos_as_xyz
1 x,y,z
2 -x,y,1/2-z
3 1/2+x,1/2+y,z
4 1/2-x,1/2+y,1/2-z
5 -x,-y,-z
6 x,-y,1/2+z
7 1/2-x,1/2-y,-z
8 1/2+x,1/2-y,1/2+z
_cell_length_a                   25.5017(11)
_cell_length_b                   10.0101(4)
_cell_length_c                   18.5411(9)
_cell_angle_alpha                90
_cell_angle_beta                 118.749(3)
_cell_angle_gamma                90
_cell_volume                     4149.65
_exptl_crystal_colour            brown
_exptl_crystal_description       block
_chemical_melting_point          231-232deg.C
_cell_formula_units_Z            8
loop_
_atom_site_label
_atom_site_type_symbol
_atom_site_fract_x
_atom_site_fract_y
_atom_site_fract_z
C1 C 0.07487(7) 0.82238(16) 0.47216(10)
H1 H 0.0575 0.8595 0.5049
H2 H 0.0575 0.7342 0.4513
H3 H 0.0662 0.8819 0.4258
C2 C 0.14130(6) 0.80946(14) 0.52503(8)
C3 C 0.16964(6) 0.69071(14) 0.51010(8)
C4 C 0.23365(6) 0.66301(14) 0.56562(9)
C5 C 0.25824(7) 0.53333(15) 0.55422(10)
H4 H 0.3012 0.5287 0.5930
H5 H 0.2518 0.5278 0.4978
H6 H 0.2378 0.4588 0.5645
C6 C 0.26689(6) 0.75112(14) 0.62449(8)
H7 H 0.3082 0.7339 0.6596
C7 C 0.24047(6) 0.87160(13) 0.63486(8)
C8 C 0.17648(6) 0.89575(13) 0.58496(8)
C9 C 0.16022(6) 1.02387(13) 0.61432(8)
C10 C 0.12998(6) 1.12494(13) 0.54416(8)
C11 C 0.06842(7) 1.14543(15) 0.50332(10)
H8 H 0.0441 1.0997 0.5212
C12 C 0.04201(7) 1.23208(16) 0.43658(10)
H9 H -0.0001 1.2444 0.4092
C13 C 0.07650(8) 1.30014(16) 0.40994(10)
H10 H 0.0583 1.3595 0.3645
C14 C 0.13756(8) 1.28125(16) 0.44983(10)
H11 H 0.1616 1.3278 0.4317
C15 C 0.16427(7) 1.19452(15) 0.51634(9)
H12 H 0.2064 1.1824 0.5432
C16 C 0.12782(6) 0.99781(14) 0.66434(9)
C17 C 0.10304(7) 1.10454(15) 0.68652(10)
H13 H 0.1035 1.1918 0.6666
C18 C 0.07791(7) 1.08389(18) 0.73724(10)
H14 H 0.0606 1.1568 0.7511
C19 C 0.07781(7) 0.95777(17) 0.76797(10)
H15 H 0.0605 0.9439 0.8028
C20 C 0.10303(8) 0.85264(17) 0.74752(10)
H16 H 0.1033 0.7661 0.7687
C21 C 0.12799(7) 0.87200(15) 0.69632(9)
H17 H 0.1454 0.7986 0.6830
C22 C 0.22338(6) 1.07453(14) 0.67964(8)
C23 C 0.26809(6) 0.97090(13) 0.69078(8)
C24 C 0.33117(6) 0.97784(13) 0.75437(8)
C25 C 0.34491(7) 0.99659(15) 0.83621(9)
H18 H 0.3136 1.0114 0.8492
C26 C 0.40362(7) 0.99377(17) 0.89852(10)
H19 H 0.4125 1.0043 0.9542
C27 C 0.44938(7) 0.97552(16) 0.87928(10)
H20 H 0.4898 0.9739 0.9219
C28 C 0.43640(7) 0.95972(16) 0.79837(10)
H21 H 0.4680 0.9486 0.7856
C29 C 0.37741(6) 0.95991(14) 0.73544(9)
H22 H 0.3687 0.9479 0.6799
O1 O 0.13960(5) 0.61401(11) 0.45285(7)
O2 O 0.23345(5) 1.18110(10) 0.71475(7)
loop_
_geom_bond_atom_site_label_1
_geom_bond_atom_site_label_2
_geom_bond_site_symmetry_1
_geom_bond_site_symmetry_2
C1 H1 1_555 1_555
H2 C1 1_555 1_555
H3 C1 1_555 1_555
C2 C1 1_555 1_555
C3 C2 1_555 1_555
C4 C3 1_555 1_555
C5 C4 1_555 1_555
H4 C5 1_555 1_555
H5 C5 1_555 1_555
H6 C5 1_555 1_555
C6 C4 1_555 1_555
H7 C6 1_555 1_555
C7 C6 1_555 1_555
C8 C2 1_555 1_555
C9 C8 1_555 1_555
C10 C9 1_555 1_555
C11 C10 1_555 1_555
H8 C11 1_555 1_555
C12 C11 1_555 1_555
H9 C12 1_555 1_555
C13 C12 1_555 1_555
H10 C13 1_555 1_555
C14 C13 1_555 1_555
H11 C14 1_555 1_555
C15 C10 1_555 1_555
H12 C15 1_555 1_555
C16 C9 1_555 1_555
C17 C16 1_555 1_555
H13 C17 1_555 1_555
C18 C17 1_555 1_555
H14 C18 1_555 1_555
C19 C18 1_555 1_555
H15 C19 1_555 1_555
C20 C19 1_555 1_555
H16 C20 1_555 1_555
C21 C16 1_555 1_555
H17 C21 1_555 1_555
C22 C9 1_555 1_555
C23 C7 1_555 1_555
C24 C23 1_555 1_555
C25 C24 1_555 1_555
H18 C25 1_555 1_555
C26 C25 1_555 1_555
H19 C26 1_555 1_555
C27 C26 1_555 1_555
H20 C27 1_555 1_555
C28 C27 1_555 1_555
H21 C28 1_555 1_555
C29 C24 1_555 1_555
H22 C29 1_555 1_555
O1 C3 1_555 1_555
O2 C22 1_555 1_555
C7 C8 1_555 1_555
C14 C15 1_555 1_555
C20 C21 1_555 1_555
C22 C23 1_555 1_555
C28 C29 1_555 1_555

#END
