
#######################################################################
#
#                 Cambridge Crystallographic Data Centre
#                                CCDC 
#
#######################################################################
#
# If this CIF has been generated from an entry in the Cambridge 
# Structural Database, then it will include bibliographic, chemical, 
# crystal, experimental, refinement or atomic coordinate data resulting 
# from the CCDC's data processing and validation procedures.
#
#######################################################################

data_HUNNOU03
_chemical_name_common            (-)-jiadifenolide
_chemical_formula_moiety         'C15 H18 O7'
_chemical_name_systematic        
6,9-dihydroxy-2,11-dimethyl-4,8,14-trioxapentacyclo[7.4.2.1^7,10^.0^1,10^.0^2,6^]hexadecane-5,15-dione
_symmetry_cell_setting           monoclinic
_symmetry_space_group_name_H-M   'P 21'
_symmetry_Int_Tables_number      4
_space_group_name_Hall           'P 2yb'
loop_
_symmetry_equiv_pos_site_id
_symmetry_equiv_pos_as_xyz
1 x,y,z
2 -x,1/2+y,-z
_cell_length_a                   7.1870(4)
_cell_length_b                   8.7702(4)
_cell_length_c                   11.0150(6)
_cell_angle_alpha                90
_cell_angle_beta                 98.176(5)
_cell_angle_gamma                90
_cell_volume                     687.234
_exptl_crystal_colour            colorless
_exptl_crystal_description       block
_cell_formula_units_Z            2
loop_
_atom_site_label
_atom_site_type_symbol
_atom_site_fract_x
_atom_site_fract_y
_atom_site_fract_z
O1 O 1.8303(2) 1.23615(19) 1.55436(14)
H1 H 1.8922 1.2297 1.4975
O2 O 2.2228(2) 1.3679(2) 1.59119(14)
O3 O 1.9362(2) 1.5733(2) 1.87587(13)
O4 O 1.9577(2) 1.63301(18) 1.62144(13)
O5 O 1.8434(2) 1.8698(2) 1.66547(15)
H2 H 1.8089 1.8740 1.5913
C1 C 1.8396(3) 1.5107(3) 1.56411(19)
H3 H 1.8507 1.5027 1.4767
O6 O 2.1623(2) 1.3157(2) 1.77874(14)
O7 O 2.0875(2) 1.7947(2) 1.87737(16)
C2 C 1.5102(3) 1.6908(3) 1.76299(19)
H4 H 1.3998 1.6309 1.7291
C3 C 1.8961(3) 1.3610(3) 1.63052(18)
C4 C 1.6813(3) 1.6214(2) 1.71083(18)
C5 C 1.7656(3) 1.4998(3) 1.80881(18)
C6 C 1.6421(3) 1.5548(3) 1.58185(18)
H5 H 1.5596 1.4669 1.5783
H6 H 1.5892 1.6301 1.5223
C7 C 1.9738(3) 1.7071(3) 1.8272(2)
C8 C 1.6284(3) 1.4939(3) 1.90332(19)
H7 H 1.5300 1.4193 1.8803
H8 H 1.6933 1.4693 1.9843
C9 C 1.6640(4) 1.2275(3) 1.7529(2)
H9 H 1.6975 1.1364 1.7127
H10 H 1.5516 1.2699 1.7082
H11 H 1.6428 1.2032 1.8348
C10 C 2.1105(3) 1.3505(3) 1.66179(19)
C11 C 1.4626(3) 1.8572(3) 1.7341(2)
H12 H 1.4563 1.8741 1.6475
H13 H 1.5581 1.9212 1.7774
H14 H 1.3434 1.8812 1.7591
C12 C 1.8556(3) 1.7206(3) 1.70211(19)
C13 C 1.8241(3) 1.3436(3) 1.75782(19)
C14 C 1.5480(3) 1.6554(3) 1.89993(19)
H15 H 1.4329 1.6589 1.9364
H16 H 1.6379 1.7266 1.9426
C15 C 1.9983(4) 1.2764(3) 1.8369(2)
H17 H 2.0111 1.3184 1.9191
H18 H 1.9865 1.1665 1.8424
loop_
_geom_bond_atom_site_label_1
_geom_bond_atom_site_label_2
_geom_bond_site_symmetry_1
_geom_bond_site_symmetry_2
O1 H1 1_555 1_555
O2 C10 1_555 1_555
O3 C5 1_555 1_555
O4 C1 1_555 1_555
O5 H2 1_555 1_555
C1 H3 1_555 1_555
O6 C10 1_555 1_555
O7 C7 1_555 1_555
C2 H4 1_555 1_555
C3 O1 1_555 1_555
C4 C2 1_555 1_555
C5 C4 1_555 1_555
C6 C1 1_555 1_555
H5 C6 1_555 1_555
H6 C6 1_555 1_555
C7 O3 1_555 1_555
C8 C5 1_555 1_555
H7 C8 1_555 1_555
H8 C8 1_555 1_555
C9 H9 1_555 1_555
H10 C9 1_555 1_555
H11 C9 1_555 1_555
C10 C3 1_555 1_555
C11 C2 1_555 1_555
H12 C11 1_555 1_555
H13 C11 1_555 1_555
H14 C11 1_555 1_555
C12 O4 1_555 1_555
C13 C3 1_555 1_555
C14 C2 1_555 1_555
H15 C14 1_555 1_555
H16 C14 1_555 1_555
C15 O6 1_555 1_555
H17 C15 1_555 1_555
H18 C15 1_555 1_555
O5 C12 1_555 1_555
C1 C3 1_555 1_555
C4 C6 1_555 1_555
C4 C12 1_555 1_555
C5 C13 1_555 1_555
C7 C12 1_555 1_555
C8 C14 1_555 1_555
C9 C13 1_555 1_555
C13 C15 1_555 1_555

#END
