
#######################################################################
#
#                 Cambridge Crystallographic Data Centre
#                                CCDC 
#
#######################################################################
#
# If this CIF has been generated from an entry in the Cambridge 
# Structural Database, then it will include bibliographic, chemical, 
# crystal, experimental, refinement or atomic coordinate data resulting 
# from the CCDC's data processing and validation procedures.
#
#######################################################################

data_HUNQAJ
_chemical_formula_moiety         'C15 H11 N3 O2'
_chemical_name_systematic        
3-Methoxy-2,5,11c-triazadibenzo[cd,f]azulen-7(6H)-one
_symmetry_cell_setting           monoclinic
_symmetry_space_group_name_H-M   'P 21/c'
_symmetry_Int_Tables_number      14
_space_group_name_Hall           '-P 2ybc'
loop_
_symmetry_equiv_pos_site_id
_symmetry_equiv_pos_as_xyz
1 x,y,z
2 -x,1/2+y,1/2-z
3 -x,-y,-z
4 x,1/2-y,1/2+z
_cell_length_a                   19.1116(4)
_cell_length_b                   4.16500(10)
_cell_length_c                   16.2443(5)
_cell_angle_alpha                90
_cell_angle_beta                 111.391(2)
_cell_angle_gamma                90
_cell_volume                     1203.97
_exptl_crystal_colour            'light yellow'
_exptl_crystal_description       prism
_chemical_melting_point          219-221deg.C
_cell_formula_units_Z            4
_exptl_crystal_recrystallization_method 'ethyl acetate'
loop_
_atom_site_label
_atom_site_type_symbol
_atom_site_fract_x
_atom_site_fract_y
_atom_site_fract_z
O1 O 0.57415(5) 0.3069(2) 0.05672(6)
O2 O 0.83733(6) 0.7636(3) 0.49011(7)
N1 N 0.61159(6) 0.6956(3) 0.31410(7)
N2 N 0.69097(6) 0.7692(3) 0.24393(7)
N3 N 0.68448(6) 0.5740(3) 0.07701(7)
C1 C 0.63183(7) 0.4893(3) 0.10530(8)
C2 C 0.63100(7) 0.5813(3) 0.18930(8)
C3 C 0.58368(7) 0.5422(3) 0.23488(9)
H1 H 0.5379 0.4248 0.2141
C4 C 0.67573(7) 0.8315(3) 0.31828(8)
C5 C 0.72540(7) 1.0202(3) 0.39474(8)
H2 H 0.7085 0.9940 0.4451
H3 H 0.7217 1.2507 0.3788
C6 C 0.80646(7) 0.9127(3) 0.42214(9)
C7 C 0.84793(7) 1.0245(3) 0.36557(9)
C8 C 0.91911(8) 1.1533(4) 0.41144(10)
H4 H 0.9392 1.1416 0.4742
C9 C 0.96086(8) 1.2968(4) 0.36812(11)
H5 H 1.0096 1.3792 0.4003
C10 C 0.93043(8) 1.3186(4) 0.27687(11)
H6 H 0.9578 1.4241 0.2463
C11 C 0.86081(8) 1.1889(3) 0.22979(10)
H7 H 0.8414 1.2054 0.1671
C12 C 0.81770(7) 1.0326(3) 0.27214(9)
C13 C 0.74965(7) 0.8615(3) 0.21526(8)
C14 C 0.74204(7) 0.7566(3) 0.13327(9)
H8 H 0.7807 0.8159 0.1125
C15 C 0.57260(8) 0.2195(4) -0.03055(9)
H9 H 0.5275 0.0918 -0.0612
H10 H 0.6174 0.0932 -0.0247
H11 H 0.5718 0.4147 -0.0646
loop_
_geom_bond_atom_site_label_1
_geom_bond_atom_site_label_2
_geom_bond_site_symmetry_1
_geom_bond_site_symmetry_2
O1 C1 1_555 1_555
O2 C6 1_555 1_555
N1 C3 1_555 1_555
N2 C2 1_555 1_555
N3 C1 1_555 1_555
C1 C2 1_555 1_555
C2 C3 1_555 1_555
C3 H1 1_555 1_555
C4 N1 1_555 1_555
C5 C4 1_555 1_555
H2 C5 1_555 1_555
H3 C5 1_555 1_555
C6 C5 1_555 1_555
C7 C6 1_555 1_555
C8 C7 1_555 1_555
H4 C8 1_555 1_555
C9 C8 1_555 1_555
H5 C9 1_555 1_555
C10 C9 1_555 1_555
H6 C10 1_555 1_555
C11 C10 1_555 1_555
H7 C11 1_555 1_555
C12 C7 1_555 1_555
C13 N2 1_555 1_555
C14 N3 1_555 1_555
H8 C14 1_555 1_555
C15 O1 1_555 1_555
H9 C15 1_555 1_555
H10 C15 1_555 1_555
H11 C15 1_555 1_555
N2 C4 1_555 1_555
C11 C12 1_555 1_555
C12 C13 1_555 1_555
C13 C14 1_555 1_555

#END
