
#######################################################################
#
#                 Cambridge Crystallographic Data Centre
#                                CCDC 
#
#######################################################################
#
# If this CIF has been generated from an entry in the Cambridge 
# Structural Database, then it will include bibliographic, chemical, 
# crystal, experimental, refinement or atomic coordinate data resulting 
# from the CCDC's data processing and validation procedures.
#
#######################################################################

data_HUPBUR
_chemical_formula_moiety         'C14 H13 N1 O7 S1'
_chemical_name_systematic        
3-hydroxy-2-(4-(methylsulfonyl)-2-nitrobenzoyl)cyclohex-2-en-1-one
_symmetry_cell_setting           monoclinic
_symmetry_space_group_name_H-M   'P 21/c'
_symmetry_Int_Tables_number      14
_space_group_name_Hall           '-P 2ybc'
loop_
_symmetry_equiv_pos_site_id
_symmetry_equiv_pos_as_xyz
1 x,y,z
2 -x,1/2+y,1/2-z
3 -x,-y,-z
4 x,1/2-y,1/2+z
_cell_length_a                   10.4208(2)
_cell_length_b                   11.2525(3)
_cell_length_c                   12.3550(3)
_cell_angle_alpha                90
_cell_angle_beta                 95.3700(10)
_cell_angle_gamma                90
_cell_volume                     1442.39
_exptl_crystal_colour            colorless
_exptl_crystal_description       block
_cell_formula_units_Z            4
loop_
_atom_site_label
_atom_site_type_symbol
_atom_site_fract_x
_atom_site_fract_y
_atom_site_fract_z
S1 S 0.31056(3) 0.24106(4) 1.11672(3)
O1 O 0.24559(11) 0.12877(11) 1.11593(11)
O2 O 0.24978(11) 0.33729(12) 1.05544(10)
O3 O 0.78663(13) 0.37212(12) 0.87472(13)
O4 O 0.59220(13) 0.44028(12) 0.84539(11)
O5 O 0.92622(11) 0.18323(14) 1.03272(11)
O6 O 1.08825(11) 0.11994(14) 0.90444(11)
H1 H 1.057(3) 0.151(2) 0.965(2)
O7 O 0.64741(11) 0.12478(13) 0.77772(11)
N1 N 0.67227(14) 0.37175(13) 0.88940(12)
C1 C 0.34825(16) 0.28528(17) 1.25212(13)
H2 H 0.2685 0.2995 1.2863
H3 H 0.3993 0.3585 1.2540
H4 H 0.3981 0.2225 1.2918
C2 C 0.46359(14) 0.21719(14) 1.06875(12)
C3 C 0.51015(14) 0.30302(14) 1.00287(12)
H5 H 0.4624 0.3733 0.9847
C4 C 0.62836(15) 0.28346(14) 0.96419(12)
C5 C 0.70348(14) 0.18398(15) 0.99181(13)
C6 C 0.65419(15) 0.09958(15) 1.05868(13)
H6 H 0.7035 0.0309 1.0792
C7 C 0.53315(15) 0.11459(14) 1.09596(13)
H7 H 0.4986 0.0552 1.1396
C8 C 0.83866(15) 0.16470(15) 0.95976(14)
C9 C 0.86333(14) 0.11938(14) 0.85403(13)
C10 C 0.98924(15) 0.09727(16) 0.83365(14)
C11 C 1.02509(16) 0.0464(2) 0.72964(16)
H8 H 1.1048 -0.0012 0.7437
H9 H 1.0428 0.1117 0.6795
C12 C 0.91933(17) -0.03099(19) 0.67708(16)
H10 H 0.9099 -0.1027 0.7220
H11 H 0.9416 -0.0569 0.6046
C13 C 0.79406(16) 0.03715(17) 0.66546(14)
H12 H 0.7239 -0.0180 0.6393
H13 H 0.7995 0.0992 0.6093
C14 C 0.75890(15) 0.09568(15) 0.76871(13)
loop_
_geom_bond_atom_site_label_1
_geom_bond_atom_site_label_2
_geom_bond_site_symmetry_1
_geom_bond_site_symmetry_2
S1 O1 1_555 1_555
O2 S1 1_555 1_555
O3 N1 1_555 1_555
O4 N1 1_555 1_555
O5 C8 1_555 1_555
O6 H1 1_555 1_555
O7 C14 1_555 1_555
N1 C4 1_555 1_555
C1 S1 1_555 1_555
H2 C1 1_555 1_555
H3 C1 1_555 1_555
H4 C1 1_555 1_555
C2 S1 1_555 1_555
C3 C2 1_555 1_555
H5 C3 1_555 1_555
C4 C3 1_555 1_555
C5 C4 1_555 1_555
C6 C5 1_555 1_555
H6 C6 1_555 1_555
C7 C2 1_555 1_555
H7 C7 1_555 1_555
C8 C5 1_555 1_555
C9 C8 1_555 1_555
C10 O6 1_555 1_555
C11 C10 1_555 1_555
H8 C11 1_555 1_555
H9 C11 1_555 1_555
C12 C11 1_555 1_555
H10 C12 1_555 1_555
H11 C12 1_555 1_555
C13 C12 1_555 1_555
H12 C13 1_555 1_555
H13 C13 1_555 1_555
C14 C9 1_555 1_555
C6 C7 1_555 1_555
C9 C10 1_555 1_555
C13 C14 1_555 1_555

#END
