
#######################################################################
#
#                 Cambridge Crystallographic Data Centre
#                                CCDC 
#
#######################################################################
#
# If this CIF has been generated from an entry in the Cambridge 
# Structural Database, then it will include bibliographic, chemical, 
# crystal, experimental, refinement or atomic coordinate data resulting 
# from the CCDC's data processing and validation procedures.
#
#######################################################################

data_HUPCAY
_chemical_formula_moiety         'C7 H11 N2 1+,C7 H5 O3 1-,C7 H5 Cl1 O2'
_chemical_name_systematic        
'4-(dimethylamino)pyridinium 4-chlorobenzoic acid 4-hydroxybenzoate'
_symmetry_cell_setting           monoclinic
_symmetry_space_group_name_H-M   'P 21/n'
_symmetry_Int_Tables_number      14
_space_group_name_Hall           '-P 2yn'
loop_
_symmetry_equiv_pos_site_id
_symmetry_equiv_pos_as_xyz
1 x,y,z
2 1/2-x,1/2+y,1/2-z
3 -x,-y,-z
4 1/2+x,1/2-y,1/2+z
_cell_length_a                   9.8164(4)
_cell_length_b                   12.8661(6)
_cell_length_c                   15.9666(7)
_cell_angle_alpha                90
_cell_angle_beta                 92.073(3)
_cell_angle_gamma                90
_cell_volume                     2015.24
_exptl_crystal_colour            colorless
_exptl_crystal_description       block
_cell_formula_units_Z            4
loop_
_atom_site_label
_atom_site_type_symbol
_atom_site_fract_x
_atom_site_fract_y
_atom_site_fract_z
O1 O 0.0988(3) -0.1662(3) 0.11999(19)
O2 O -0.0843(3) -0.1039(2) 0.1819(2)
O3 O -0.2033(17) -0.5812(12) 0.2174(11)
C1 C -0.0109(4) -0.1774(3) 0.1570(3)
C2 C -0.0588(4) -0.2870(3) 0.1711(2)
C3 C 0.0245(5) -0.3711(4) 0.1540(3)
H1 H 0.1131 -0.3597 0.1339
C4 C -0.0223(6) -0.4732(4) 0.1663(3)
H2 H 0.0344 -0.5307 0.1542
C5 C -0.1880(4) -0.3062(3) 0.1998(2)
H3 H -0.2464 -0.2496 0.2117
C6 C -0.2325(5) -0.4067(3) 0.2111(3)
H4 H -0.3220 -0.4187 0.2297
C7 C -0.1493(5) -0.4893(3) 0.1958(3)
H5 H -0.2803 -0.5870 0.2444
O4 O -0.0143(4) 0.0758(3) 0.1337(2)
O5 O 0.0879(4) 0.0988(3) 0.2588(2)
C8 C 0.0652(4) 0.1230(4) 0.1884(3)
C9 C 0.1287(4) 0.2236(3) 0.1488(3)
C10 C 0.1040(5) 0.2554(4) 0.0687(3)
H6 H 0.0382 0.2202 0.0342
C11 C 0.1742(6) 0.3388(5) 0.0373(3)
H7 H 0.1570 0.3614 -0.0188
C12 C 0.2214(4) 0.2751(3) 0.2002(3)
H8 H 0.2362 0.2523 0.2564
C13 C 0.2934(4) 0.3594(3) 0.1717(3)
H9 H 0.3566 0.3955 0.2075
C14 C 0.2703(6) 0.3895(4) 0.0887(4)
Cl1 Cl 0.3579(3) 0.48475(17) 0.03721(13)
H10 H -0.0367 0.0076 0.1294
N1 N 0.2650(4) -0.0127(3) 0.0769(2)
H11 H 0.2077 -0.0611 0.0923
N2 N 0.5391(3) 0.2093(3) 0.0039(2)
C15 C 0.2555(4) 0.0265(3) -0.0008(3)
H12 H 0.1857 0.0018 -0.0385
C16 C 0.3435(4) 0.1011(3) -0.0275(3)
H13 H 0.3339 0.1279 -0.0828
C17 C 0.3617(4) 0.0217(3) 0.1314(3)
H14 H 0.3673 -0.0065 0.1864
C18 C 0.4517(4) 0.0960(3) 0.1096(2)
H15 H 0.5178 0.1203 0.1499
C19 C 0.4486(4) 0.1380(3) 0.0274(2)
C20 C 0.6414(5) 0.2510(4) 0.0632(3)
H16 H 0.5961 0.2875 0.1083
H17 H 0.7005 0.2995 0.0342
H18 H 0.6965 0.1939 0.0869
C21 C 0.5336(5) 0.2533(4) -0.0810(3)
H19 H 0.5231 0.1971 -0.1221
H20 H 0.6182 0.2913 -0.0906
H21 H 0.4559 0.3009 -0.0870
Cl2? Cl -0.1730(5) -0.6059(3) 0.2013(3)
O6? O 0.3522(3) 0.49341(17) 0.08689(13)
H22? H 0.3812 0.5410 0.1230
loop_
_geom_bond_atom_site_label_1
_geom_bond_atom_site_label_2
_geom_bond_site_symmetry_1
_geom_bond_site_symmetry_2
O1 C1 1_555 1_555
O2 C1 1_555 1_555
O3 C7 1_555 1_555
C1 C2 1_555 1_555
C2 C3 1_555 1_555
C3 H1 1_555 1_555
C4 C3 1_555 1_555
H2 C4 1_555 1_555
C5 C2 1_555 1_555
H3 C5 1_555 1_555
C6 C5 1_555 1_555
H4 C6 1_555 1_555
C7 C4 1_555 1_555
H5 O3 1_555 1_555
O4 C8 1_555 1_555
O5 C8 1_555 1_555
C8 C9 1_555 1_555
C9 C10 1_555 1_555
C10 H6 1_555 1_555
C11 C10 1_555 1_555
H7 C11 1_555 1_555
C12 C9 1_555 1_555
H8 C12 1_555 1_555
C13 C12 1_555 1_555
H9 C13 1_555 1_555
C14 C11 1_555 1_555
Cl1 C14 1_555 1_555
H10 O4 1_555 1_555
N1 H11 1_555 1_555
N2 C19 1_555 1_555
C15 N1 1_555 1_555
H12 C15 1_555 1_555
C16 C15 1_555 1_555
H13 C16 1_555 1_555
C17 N1 1_555 1_555
H14 C17 1_555 1_555
C18 C17 1_555 1_555
H15 C18 1_555 1_555
C19 C16 1_555 1_555
C20 N2 1_555 1_555
H16 C20 1_555 1_555
H17 C20 1_555 1_555
H18 C20 1_555 1_555
C21 N2 1_555 1_555
H19 C21 1_555 1_555
H20 C21 1_555 1_555
H21 C21 1_555 1_555
C6 C7 1_555 1_555
C13 C14 1_555 1_555
C18 C19 1_555 1_555

#END
