
#######################################################################
#
#                 Cambridge Crystallographic Data Centre
#                                CCDC 
#
#######################################################################
#
# If this CIF has been generated from an entry in the Cambridge 
# Structural Database, then it will include bibliographic, chemical, 
# crystal, experimental, refinement or atomic coordinate data resulting 
# from the CCDC's data processing and validation procedures.
#
#######################################################################

data_HUPCUR
_chemical_formula_moiety         'C21 H22 O4 Si1'
_chemical_name_systematic        
2-Phenyl-2-(trimethylsilyloxy)-3,4-dihydro-2H,5H-pyrano[3,2-c]chromen-5-one
_symmetry_cell_setting           monoclinic
_symmetry_space_group_name_H-M   'P 21/c'
_symmetry_Int_Tables_number      14
_space_group_name_Hall           '-P 2ybc'
loop_
_symmetry_equiv_pos_site_id
_symmetry_equiv_pos_as_xyz
1 x,y,z
2 -x,1/2+y,1/2-z
3 -x,-y,-z
4 x,1/2-y,1/2+z
_cell_length_a                   13.178(3)
_cell_length_b                   9.971(2)
_cell_length_c                   18.206(6)
_cell_angle_alpha                90
_cell_angle_beta                 127.22(2)
_cell_angle_gamma                90
_cell_volume                     1904.98
_exptl_crystal_colour            colorless
_exptl_crystal_description       block
_chemical_melting_point          '123-124 deg.C'
_cell_formula_units_Z            4
loop_
_atom_site_label
_atom_site_type_symbol
_atom_site_fract_x
_atom_site_fract_y
_atom_site_fract_z
Si1 Si 0.54895(11) 0.96423(12) 0.68979(8)
O1 O 0.6928(2) 0.8924(3) 0.75445(19)
O2 O 0.7947(3) 0.9657(3) 0.9046(2)
O3 O 0.7810(3) 0.6570(3) 1.0478(2)
O4 O 0.8427(4) 0.5096(3) 0.9916(3)
C1 C 0.5507(7) 1.1210(10) 0.6398(7)
H1 H 0.6048 1.1843 0.6882
H2 H 0.4657 1.1563 0.5998
H3 H 0.5825 1.1054 0.6051
C2 C 0.4509(5) 0.8479(8) 0.5976(5)
H4 H 0.4380 0.7690 0.6212
H5 H 0.4921 0.8237 0.5704
H6 H 0.3700 0.8887 0.5517
C3 C 0.4889(8) 0.9877(14) 0.7562(6)
H7 H 0.4932 0.9043 0.7842
H8 H 0.4021 1.0177 0.7161
H9 H 0.5398 1.0536 0.8033
C4 C 0.8098(4) 0.9392(4) 0.8334(3)
C5 C 0.8462(4) 1.0718(4) 0.8141(3)
C6 C 0.8561(5) 1.1890(5) 0.8579(4)
H10 H 0.8418 1.1886 0.9021
C7 C 0.8872(6) 1.3067(5) 0.8365(5)
H11 H 0.8924 1.3860 0.8656
C8 C 0.9110(6) 1.3085(7) 0.7720(6)
H12 H 0.9330 1.3881 0.7582
C9 C 0.9017(6) 1.1919(8) 0.7287(5)
H13 H 0.9166 1.1927 0.6849
C10 C 0.8705(5) 1.0734(6) 0.7495(4)
H14 H 0.8656 0.9943 0.7204
C11 C 0.9085(4) 0.8312(4) 0.8655(3)
H15 H 0.9897 0.8616 0.9203
H16 H 0.9188 0.8143 0.8179
C12 C 0.8702(5) 0.7012(4) 0.8873(4)
H17 H 0.8030 0.6571 0.8304
H18 H 0.9427 0.6411 0.9215
C13 C 0.8245(4) 0.7331(4) 0.9432(3)
C14 C 0.8192(4) 0.6258(5) 0.9935(3)
C15 C 0.7506(4) 0.7848(5) 1.0550(3)
C16 C 0.7151(5) 0.8056(7) 1.1117(4)
H19 H 0.7153 0.7353 1.1453
C17 C 0.6796(6) 0.9322(8) 1.1174(4)
H20 H 0.6532 0.9463 1.1540
C18 C 0.6818(5) 1.0385(7) 1.0709(3)
H21 H 0.6581 1.1235 1.0765
C19 C 0.7197(5) 1.0185(5) 1.0151(3)
H22 H 0.7218 1.0904 0.9835
C20 C 0.7545(4) 0.8910(5) 1.0065(3)
C21 C 0.7926(4) 0.8590(4) 0.9490(3)
loop_
_geom_bond_atom_site_label_1
_geom_bond_atom_site_label_2
_geom_bond_site_symmetry_1
_geom_bond_site_symmetry_2
Si1 O1 1_555 1_555
O1 C4 1_555 1_555
O2 C4 1_555 1_555
O3 C14 1_555 1_555
O4 C14 1_555 1_555
C1 Si1 1_555 1_555
H1 C1 1_555 1_555
H2 C1 1_555 1_555
H3 C1 1_555 1_555
C2 Si1 1_555 1_555
H4 C2 1_555 1_555
H5 C2 1_555 1_555
H6 C2 1_555 1_555
C3 Si1 1_555 1_555
H7 C3 1_555 1_555
H8 C3 1_555 1_555
H9 C3 1_555 1_555
C4 C5 1_555 1_555
C5 C6 1_555 1_555
C6 H10 1_555 1_555
C7 C6 1_555 1_555
H11 C7 1_555 1_555
C8 C7 1_555 1_555
H12 C8 1_555 1_555
C9 C8 1_555 1_555
H13 C9 1_555 1_555
C10 C5 1_555 1_555
H14 C10 1_555 1_555
C11 C4 1_555 1_555
H15 C11 1_555 1_555
H16 C11 1_555 1_555
C12 C11 1_555 1_555
H17 C12 1_555 1_555
H18 C12 1_555 1_555
C13 C12 1_555 1_555
C14 C13 1_555 1_555
C15 O3 1_555 1_555
C16 C15 1_555 1_555
H19 C16 1_555 1_555
C17 C16 1_555 1_555
H20 C17 1_555 1_555
C18 C17 1_555 1_555
H21 C18 1_555 1_555
C19 C18 1_555 1_555
H22 C19 1_555 1_555
C20 C15 1_555 1_555
C21 O2 1_555 1_555
C9 C10 1_555 1_555
C13 C21 1_555 1_555
C19 C20 1_555 1_555
C20 C21 1_555 1_555

#END
