
#######################################################################
#
#                 Cambridge Crystallographic Data Centre
#                                CCDC 
#
#######################################################################
#
# If this CIF has been generated from an entry in the Cambridge 
# Structural Database, then it will include bibliographic, chemical, 
# crystal, experimental, refinement or atomic coordinate data resulting 
# from the CCDC's data processing and validation procedures.
#
#######################################################################

data_HUPWIA
_chemical_formula_moiety         'C20 H20 N4'
_chemical_name_systematic        
'2,3-bis(3,5-Dimethyl-1H-pyrrol-2-yl)quinoxaline unknown solvate'
_symmetry_cell_setting           monoclinic
_symmetry_space_group_name_H-M   'P 2/c'
_symmetry_Int_Tables_number      13
_space_group_name_Hall           '-P 2yc'
loop_
_symmetry_equiv_pos_site_id
_symmetry_equiv_pos_as_xyz
1 x,y,z
2 -x,y,1/2-z
3 -x,-y,-z
4 x,-y,1/2+z
_cell_length_a                   30.722(5)
_cell_length_b                   10.9071(18)
_cell_length_c                   15.974(3)
_cell_angle_alpha                90
_cell_angle_beta                 100.161(2)
_cell_angle_gamma                90
_cell_volume                     5268.74
_exptl_crystal_colour            colorless
_exptl_crystal_description       block
_cell_formula_units_Z            10
loop_
_atom_site_label
_atom_site_type_symbol
_atom_site_fract_x
_atom_site_fract_y
_atom_site_fract_z
C1 C 0.43140(10) 0.2920(3) 0.3435(2)
C2 C 0.45971(13) 0.3224(4) 0.4190(2)
H1 H 0.4892 0.2983 0.4265
C3 C 0.44543(15) 0.3856(4) 0.4813(3)
H2 H 0.4651 0.4086 0.5298
C4 C 0.40052(16) 0.4165(4) 0.4722(3)
H3 H 0.3902 0.4535 0.5173
C5 C 0.37209(13) 0.3938(4) 0.3997(3)
H4 H 0.3429 0.4199 0.3941
C6 C 0.38614(11) 0.3307(3) 0.3317(2)
C7 C 0.37475(9) 0.2560(3) 0.1941(2)
C8 C 0.41696(10) 0.1926(3) 0.2137(2)
C9 C 0.42932(10) 0.0923(3) 0.1608(2)
C10 C 0.40456(11) -0.0026(3) 0.1202(2)
C11 C 0.43547(12) -0.0813(4) 0.0927(3)
H5 H 0.4287 -0.1543 0.0631
C12 C 0.47668(12) -0.0341(4) 0.1161(3)
C13 C 0.35462(12) -0.0284(4) 0.1116(3)
H6 H 0.3452 -0.0107 0.1645
H7 H 0.3489 -0.1130 0.0972
H8 H 0.3386 0.0225 0.0676
C14 C 0.52210(14) -0.0771(5) 0.1060(4)
H9 H 0.5344 -0.0206 0.0704
H10 H 0.5200 -0.1569 0.0803
H11 H 0.5408 -0.0810 0.1608
C15 C 0.34863(10) 0.2637(3) 0.1083(2)
C16 C 0.36036(10) 0.2722(3) 0.0289(2)
C17 C 0.32208(11) 0.2917(4) -0.0290(2)
H12 H 0.3201 0.3025 -0.0873
C18 C 0.28761(10) 0.2925(3) 0.0143(2)
C19 C 0.23827(11) 0.3007(4) -0.0148(3)
H13 H 0.2238 0.2423 0.0160
H14 H 0.2312 0.2833 -0.0745
H15 H 0.2284 0.3818 -0.0042
C20 C 0.40678(12) 0.2663(4) 0.0062(3)
H16 H 0.4281 0.2938 0.0538
H17 H 0.4080 0.3180 -0.0419
H18 H 0.4133 0.1833 -0.0074
N1 N 0.44514(8) 0.2193(3) 0.28432(17)
N2 N 0.35955(8) 0.3158(3) 0.25468(18)
N3 N 0.47254(8) 0.0720(3) 0.15686(17)
H19 H 0.4940 0.1198 0.1774
N4 N 0.30443(8) 0.2774(2) 0.09759(17)
H20 H 0.2892 0.2767 0.1379
C21 C 0.17689(10) 0.0937(3) 0.2137(2)
C22 C 0.15376(13) -0.0140(3) 0.1810(3)
H21 H 0.1267 -0.0315 0.1967
C23 C 0.16951(13) -0.0901(4) 0.1289(3)
H22 H 0.1537 -0.1596 0.1081
C24 C 0.21045(14) -0.0640(4) 0.1058(3)
H23 H 0.2223 -0.1192 0.0715
C25 C 0.23337(12) 0.0399(3) 0.1320(3)
H24 H 0.2600 0.0567 0.1143
C26 C 0.21641(10) 0.1210(3) 0.1855(2)
C27 C 0.21933(10) 0.3059(3) 0.2585(2)
C28 C 0.18512(10) 0.2633(3) 0.3019(2)
C29 C 0.17645(10) 0.3169(3) 0.3791(2)
C30 C 0.20457(11) 0.3618(3) 0.4509(2)
C31 C 0.17824(12) 0.3828(3) 0.5137(2)
H25 H 0.1882 0.4123 0.5684
C32 C 0.13451(11) 0.3513(3) 0.4793(2)
C33 C 0.25420(11) 0.3701(4) 0.4639(3)
H26 H 0.2656 0.3010 0.4374
H27 H 0.2660 0.3701 0.5236
H28 H 0.2626 0.4445 0.4388
C34 C 0.09374(14) 0.3537(5) 0.5168(3)
H29 H 0.0734 0.4123 0.4869
H30 H 0.1010 0.3766 0.5757
H31 H 0.0804 0.2739 0.5123
C35 C 0.23456(10) 0.4318(3) 0.2621(2)
C36 C 0.21117(11) 0.5432(3) 0.2659(2)
C37 C 0.24127(12) 0.6366(3) 0.2514(2)
H32 H 0.2354 0.7203 0.2499
C38 C 0.28057(12) 0.5830(3) 0.2398(2)
C39 C 0.16542(11) 0.5635(3) 0.2758(3)
H33 H 0.1473 0.4979 0.2491
H34 H 0.1552 0.6399 0.2496
H35 H 0.1637 0.5662 0.3352
C40 C 0.32234(13) 0.6400(4) 0.2228(3)
H36 H 0.3451 0.6312 0.2720
H37 H 0.3174 0.7255 0.2102
H38 H 0.3314 0.5999 0.1752
N5 N 0.23661(8) 0.2324(2) 0.20665(18)
N6 N 0.16170(8) 0.1649(2) 0.27366(19)
N7 N 0.27554(9) 0.4620(2) 0.24435(18)
H39 H 0.2954 0.4093 0.2371
N8 N 0.13454(8) 0.3114(3) 0.40065(19)
H40 H 0.1114 0.2854 0.3671
C41 C 0.02140(15) 0.5963(4) 0.2675(4)
H41 H 0.0360 0.6710 0.2778
C42 C 0.04467(13) 0.4896(3) 0.2890(3)
H42 H 0.0743 0.4916 0.3148
C43 C 0.02203(11) 0.3760(3) 0.2705(3)
C44 C 0.02140(10) 0.1671(3) 0.2774(2)
C45 C 0.04109(10) 0.0560(3) 0.3186(2)
C46 C 0.02138(12) -0.0419(3) 0.3549(3)
C47 C 0.05833(13) -0.1145(4) 0.3927(3)
H43 H 0.0561 -0.1869 0.4225
C48 C 0.09783(12) -0.0641(4) 0.3797(3)
C49 C -0.02414(15) -0.0666(5) 0.3649(4)
H44 H -0.0401 0.0093 0.3635
H45 H -0.0242 -0.1068 0.4183
H46 H -0.0381 -0.1185 0.3194
C50 C 0.14394(14) -0.0995(5) 0.4069(4)
H47 H 0.1551 -0.1341 0.3597
H48 H 0.1460 -0.1591 0.4516
H49 H 0.1611 -0.0286 0.4273
N9 N 0.04297(8) 0.2706(3) 0.29498(19)
N10 N 0.08629(9) 0.0425(3) 0.3345(2)
H50 H 0.1047 0.0931 0.3186
C41A C -0.02140(15) 0.5963(4) 0.2325(4)
H41A H -0.0360 0.6710 0.2222
C42A C -0.04467(13) 0.4896(3) 0.2110(3)
H42A H -0.0743 0.4916 0.1852
C43A C -0.02203(11) 0.3760(3) 0.2295(3)
C44A C -0.02140(10) 0.1671(3) 0.2226(2)
C45A C -0.04109(10) 0.0560(3) 0.1814(2)
C46A C -0.02138(12) -0.0419(3) 0.1451(3)
C47A C -0.05833(13) -0.1145(4) 0.1073(3)
H43A H -0.0561 -0.1869 0.0775
C48A C -0.09783(12) -0.0641(4) 0.1203(3)
C49A C 0.02414(15) -0.0666(5) 0.1351(4)
H44A H 0.0401 0.0093 0.1365
H45A H 0.0242 -0.1068 0.0817
H46A H 0.0381 -0.1185 0.1806
C50A C -0.14394(14) -0.0995(5) 0.0931(4)
H47A H -0.1551 -0.1341 0.1403
H48A H -0.1460 -0.1591 0.0484
H49A H -0.1611 -0.0286 0.0727
N9A N -0.04297(8) 0.2706(3) 0.20502(19)
N10A N -0.08629(9) 0.0425(3) 0.1655(2)
H50A H -0.1047 0.0931 0.1814
loop_
_geom_bond_atom_site_label_1
_geom_bond_atom_site_label_2
_geom_bond_site_symmetry_1
_geom_bond_site_symmetry_2
C1 C2 1_555 1_555
C2 H1 1_555 1_555
C3 C2 1_555 1_555
H2 C3 1_555 1_555
C4 C3 1_555 1_555
H3 C4 1_555 1_555
C5 C4 1_555 1_555
H4 C5 1_555 1_555
C6 C1 1_555 1_555
C7 C8 1_555 1_555
C8 C9 1_555 1_555
C9 C10 1_555 1_555
C10 C11 1_555 1_555
C11 H5 1_555 1_555
C12 C11 1_555 1_555
C13 C10 1_555 1_555
H6 C13 1_555 1_555
H7 C13 1_555 1_555
H8 C13 1_555 1_555
C14 C12 1_555 1_555
H9 C14 1_555 1_555
H10 C14 1_555 1_555
H11 C14 1_555 1_555
C15 C7 1_555 1_555
C16 C15 1_555 1_555
C17 C16 1_555 1_555
H12 C17 1_555 1_555
C18 C17 1_555 1_555
C19 C18 1_555 1_555
H13 C19 1_555 1_555
H14 C19 1_555 1_555
H15 C19 1_555 1_555
C20 C16 1_555 1_555
H16 C20 1_555 1_555
H17 C20 1_555 1_555
H18 C20 1_555 1_555
N1 C1 1_555 1_555
N2 C6 1_555 1_555
N3 C9 1_555 1_555
H19 N3 1_555 1_555
N4 C15 1_555 1_555
H20 N4 1_555 1_555
C21 C22 1_555 1_555
C22 H21 1_555 1_555
C23 C22 1_555 1_555
H22 C23 1_555 1_555
C24 C23 1_555 1_555
H23 C24 1_555 1_555
C25 C24 1_555 1_555
H24 C25 1_555 1_555
C26 C21 1_555 1_555
C27 C28 1_555 1_555
C28 C29 1_555 1_555
C29 C30 1_555 1_555
C30 C31 1_555 1_555
C31 H25 1_555 1_555
C32 C31 1_555 1_555
C33 C30 1_555 1_555
H26 C33 1_555 1_555
H27 C33 1_555 1_555
H28 C33 1_555 1_555
C34 C32 1_555 1_555
H29 C34 1_555 1_555
H30 C34 1_555 1_555
H31 C34 1_555 1_555
C35 C27 1_555 1_555
C36 C35 1_555 1_555
C37 C36 1_555 1_555
H32 C37 1_555 1_555
C38 C37 1_555 1_555
C39 C36 1_555 1_555
H33 C39 1_555 1_555
H34 C39 1_555 1_555
H35 C39 1_555 1_555
C40 C38 1_555 1_555
H36 C40 1_555 1_555
H37 C40 1_555 1_555
H38 C40 1_555 1_555
N5 C26 1_555 1_555
N6 C21 1_555 1_555
N7 C35 1_555 1_555
H39 N7 1_555 1_555
N8 C29 1_555 1_555
H40 N8 1_555 1_555
C41 H41 1_555 1_555
C42 C41 1_555 1_555
H42 C42 1_555 1_555
C43 C42 1_555 1_555
C44 C45 1_555 1_555
C45 C46 1_555 1_555
C46 C47 1_555 1_555
C47 H43 1_555 1_555
C48 C47 1_555 1_555
C49 C46 1_555 1_555
H44 C49 1_555 1_555
H45 C49 1_555 1_555
H46 C49 1_555 1_555
C50 C48 1_555 1_555
H47 C50 1_555 1_555
H48 C50 1_555 1_555
H49 C50 1_555 1_555
N9 C43 1_555 1_555
N10 C45 1_555 1_555
H50 N10 1_555 1_555
C41A C41 1_555 1_555
H41A C41A 1_555 1_555
C42A C41A 1_555 1_555
H42A C42A 1_555 1_555
C43A C43 1_555 1_555
C44A C44 1_555 1_555
C45A C44A 1_555 1_555
C46A C45A 1_555 1_555
C47A C46A 1_555 1_555
H43A C47A 1_555 1_555
C48A C47A 1_555 1_555
C49A C46A 1_555 1_555
H44A C49A 1_555 1_555
H45A C49A 1_555 1_555
H46A C49A 1_555 1_555
C50A C48A 1_555 1_555
H47A C50A 1_555 1_555
H48A C50A 1_555 1_555
H49A C50A 1_555 1_555
N9A C43A 1_555 1_555
N10A C45A 1_555 1_555
H50A N10A 1_555 1_555
C5 C6 1_555 1_555
C7 N2 1_555 1_555
C8 N1 1_555 1_555
C12 N3 1_555 1_555
C18 N4 1_555 1_555
C25 C26 1_555 1_555
C27 N5 1_555 1_555
C28 N6 1_555 1_555
C32 N8 1_555 1_555
C38 N7 1_555 1_555
C44 N9 1_555 1_555
C48 N10 1_555 1_555
C42A C43A 1_555 1_555
C44A N9A 1_555 1_555
C48A N10A 1_555 1_555

#END
