
#######################################################################
#
#                 Cambridge Crystallographic Data Centre
#                                CCDC 
#
#######################################################################
#
# If this CIF has been generated from an entry in the Cambridge 
# Structural Database, then it will include bibliographic, chemical, 
# crystal, experimental, refinement or atomic coordinate data resulting 
# from the CCDC's data processing and validation procedures.
#
#######################################################################

data_HUQFIK
_chemical_formula_moiety         'C27 H32 B1 Br1 O3'
_chemical_name_systematic        
(3-bromo-6-methoxy-2,4-dimethylphenyl)-bis(4-methoxy-2,6-dimethylphenyl)borane
_symmetry_cell_setting           triclinic
_symmetry_space_group_name_H-M   'P -1'
_symmetry_Int_Tables_number      2
_space_group_name_Hall           '-P 1'
loop_
_symmetry_equiv_pos_site_id
_symmetry_equiv_pos_as_xyz
1 x,y,z
2 -x,-y,-z
_cell_length_a                   7.7415(3)
_cell_length_b                   11.4975(4)
_cell_length_c                   15.0804(5)
_cell_angle_alpha                78.964(2)
_cell_angle_beta                 82.746(2)
_cell_angle_gamma                75.118(2)
_cell_volume                     1269.05
_exptl_crystal_description       block
_cell_formula_units_Z            2
loop_
_atom_site_label
_atom_site_type_symbol
_atom_site_fract_x
_atom_site_fract_y
_atom_site_fract_z
Br1 Br 0.63556(9) 0.25894(6) 0.56371(4)
O1 O 0.0819(4) 0.2107(3) 0.3366(2)
O2 O 0.3482(6) 0.1424(3) -0.0563(2)
O3 O 0.1019(5) 0.9019(3) 0.2384(3)
C1 C 0.3121(6) 0.3023(4) 0.3526(3)
C2 C 0.4393(6) 0.3152(4) 0.4058(3)
C3 C 0.4611(6) 0.2413(5) 0.4916(3)
C4 C 0.3603(7) 0.1574(4) 0.5262(3)
C5 C 0.2335(7) 0.1462(4) 0.4750(3)
H1 H 0.1626 0.0913 0.4978
C6 C 0.2088(6) 0.2156(4) 0.3890(3)
C7 C 0.5552(8) 0.4039(5) 0.3706(4)
H2 H 0.5309 0.4404 0.3093
H3 H 0.6792 0.3614 0.3724
H4 H 0.5294 0.4664 0.4077
C8 C 0.3841(9) 0.0796(6) 0.6192(4)
H5 H 0.4923 0.0163 0.6169
H6 H 0.2835 0.0435 0.6374
H7 H 0.3912 0.1297 0.6621
C9 C -0.0218(8) 0.1217(5) 0.3666(4)
H8 H 0.0572 0.0418 0.3766
H9 H -0.1005 0.1253 0.3212
H10 H -0.0914 0.1381 0.4221
C10 C 0.2885(5) 0.3139(3) 0.1710(3)
C11 C 0.4498(6) 0.2289(4) 0.1475(3)
C12 C 0.4600(6) 0.1756(4) 0.0703(3)
H11 H 0.5657 0.1211 0.0544
C13 C 0.3184(7) 0.2015(4) 0.0177(3)
C14 C 0.1621(6) 0.2815(4) 0.0404(3)
H12 H 0.0660 0.2984 0.0049
C15 C 0.1447(6) 0.3383(4) 0.1168(3)
C16 C 0.6110(7) 0.1986(5) 0.1989(4)
H13 H 0.6464 0.2719 0.2013
H14 H 0.7069 0.1446 0.1693
H15 H 0.5841 0.1593 0.2594
C17 C -0.0326(7) 0.4230(5) 0.1387(4)
H16 H -0.0801 0.3944 0.1986
H17 H -0.1151 0.4252 0.0956
H18 H -0.0158 0.5034 0.1361
C18 C 0.2153(12) 0.1706(8) -0.1156(5)
H19 H 0.1056 0.1570 -0.0829
H20 H 0.2503 0.1197 -0.1616
H21 H 0.1978 0.2547 -0.1435
C19 C 0.2193(6) 0.5243(4) 0.2459(3)
C20 C 0.3087(6) 0.5964(4) 0.1797(3)
C21 C 0.2747(6) 0.7229(4) 0.1770(3)
H22 H 0.3388 0.7691 0.1343
C22 C 0.1472(6) 0.7783(4) 0.2368(3)
C23 C 0.0543(6) 0.7095(4) 0.3013(3)
H23 H -0.0317 0.7477 0.3421
C24 C 0.0874(6) 0.5850(4) 0.3060(3)
C25 C 0.4504(9) 0.5440(5) 0.1110(4)
H24 H 0.5441 0.4840 0.1417
H25 H 0.4993 0.6081 0.0747
H26 H 0.3989 0.5064 0.0727
C26 C -0.0272(8) 0.5175(5) 0.3754(4)
H27 H 0.0415 0.4741 0.4254
H28 H -0.0657 0.4607 0.3479
H29 H -0.1301 0.5749 0.3968
C27 C 0.2036(13) 0.9734(5) 0.1784(6)
H30 H 0.3290 0.9373 0.1836
H31 H 0.1748 1.0543 0.1929
H32 H 0.1757 0.9773 0.1175
B1 B 0.2729(6) 0.3803(4) 0.2550(3)
loop_
_geom_bond_atom_site_label_1
_geom_bond_atom_site_label_2
_geom_bond_site_symmetry_1
_geom_bond_site_symmetry_2
Br1 C3 1_555 1_555
O1 C6 1_555 1_555
O2 C13 1_555 1_555
O3 C22 1_555 1_555
C1 C2 1_555 1_555
C2 C3 1_555 1_555
C3 C4 1_555 1_555
C4 C5 1_555 1_555
C5 H1 1_555 1_555
C6 C1 1_555 1_555
C7 C2 1_555 1_555
H2 C7 1_555 1_555
H3 C7 1_555 1_555
H4 C7 1_555 1_555
C8 C4 1_555 1_555
H5 C8 1_555 1_555
H6 C8 1_555 1_555
H7 C8 1_555 1_555
C9 O1 1_555 1_555
H8 C9 1_555 1_555
H9 C9 1_555 1_555
H10 C9 1_555 1_555
C10 C11 1_555 1_555
C11 C12 1_555 1_555
C12 H11 1_555 1_555
C13 C12 1_555 1_555
C14 C13 1_555 1_555
H12 C14 1_555 1_555
C15 C10 1_555 1_555
C16 C11 1_555 1_555
H13 C16 1_555 1_555
H14 C16 1_555 1_555
H15 C16 1_555 1_555
C17 C15 1_555 1_555
H16 C17 1_555 1_555
H17 C17 1_555 1_555
H18 C17 1_555 1_555
C18 O2 1_555 1_555
H19 C18 1_555 1_555
H20 C18 1_555 1_555
H21 C18 1_555 1_555
C19 C20 1_555 1_555
C20 C21 1_555 1_555
C21 H22 1_555 1_555
C22 C21 1_555 1_555
C23 C22 1_555 1_555
H23 C23 1_555 1_555
C24 C19 1_555 1_555
C25 C20 1_555 1_555
H24 C25 1_555 1_555
H25 C25 1_555 1_555
H26 C25 1_555 1_555
C26 C24 1_555 1_555
H27 C26 1_555 1_555
H28 C26 1_555 1_555
H29 C26 1_555 1_555
C27 O3 1_555 1_555
H30 C27 1_555 1_555
H31 C27 1_555 1_555
H32 C27 1_555 1_555
B1 C1 1_555 1_555
C5 C6 1_555 1_555
C10 B1 1_555 1_555
C14 C15 1_555 1_555
C19 B1 1_555 1_555
C23 C24 1_555 1_555

#END
