
#######################################################################
#
#                 Cambridge Crystallographic Data Centre
#                                CCDC 
#
#######################################################################
#
# If this CIF has been generated from an entry in the Cambridge 
# Structural Database, then it will include bibliographic, chemical, 
# crystal, experimental, refinement or atomic coordinate data resulting 
# from the CCDC's data processing and validation procedures.
#
#######################################################################

data_HUQLEM
_chemical_compound_source        'roots of Angelica sinensis'
_chemical_name_common            'angesinenolide A'
_chemical_formula_moiety         'C36 H42 O6'
_chemical_name_systematic        
8''-butylidene-3',4'-dipropyl-4'',5a'',5b'',6,6'',7,7'',8'',10b'',10c''-decahydro-1''H,3H-dispiro[2-benzofuran-1,1'-cyclobutane-2',3''-furo[3',4':7,8]biphenyleno[1,2-c]furan]-1'',3,10''(5''H)-trione
_chemical_properties_biological  'anticoagulant activity'
_symmetry_cell_setting           monoclinic
_symmetry_space_group_name_H-M   'P 21/c'
_symmetry_Int_Tables_number      14
_space_group_name_Hall           '-P 2ybc'
loop_
_symmetry_equiv_pos_site_id
_symmetry_equiv_pos_as_xyz
1 x,y,z
2 -x,1/2+y,1/2-z
3 -x,-y,-z
4 x,1/2-y,1/2+z
_cell_length_a                   12.9007(4)
_cell_length_b                   22.9463(7)
_cell_length_c                   11.5098(3)
_cell_angle_alpha                90
_cell_angle_beta                 114.2340(10)
_cell_angle_gamma                90
_cell_volume                     3106.92
_exptl_crystal_colour            colorless
_exptl_crystal_description       block
_chemical_melting_point          '154-155 deg.C'
_cell_formula_units_Z            4
loop_
_atom_site_label
_atom_site_type_symbol
_atom_site_fract_x
_atom_site_fract_y
_atom_site_fract_z
O1 O 0.17273(8) 0.69878(4) 0.75301(9)
O2 O 0.16483(10) 0.77123(5) 0.61863(11)
O3 O -0.25119(9) 0.68964(5) 0.40044(11)
O4 O -0.10715(11) 0.75361(5) 0.47533(12)
O5 O 0.32986(9) 0.56197(4) 0.82591(10)
O6 O 0.48474(13) 0.52623(7) 0.81002(16)
C1 C 0.61860(19) 0.69842(13) 0.9808(3)
H1 H 0.6881 0.7161 0.9974
C2 C 0.5406(2) 0.72522(10) 1.0314(3)
H2 H 0.5544 0.7669 1.0398
H3 H 0.5586 0.7098 1.1159
C3 C 0.41539(17) 0.71497(8) 0.9498(2)
H4 H 0.3718 0.7214 1.0001
H5 H 0.3890 0.7422 0.8791
C4 C 0.39812(13) 0.65427(7) 0.90052(15)
C5 C 0.29559(12) 0.61683(6) 0.86170(13)
C6 C 0.17950(11) 0.63612(6) 0.75144(13)
C7 C 0.15385(11) 0.62140(6) 0.61624(13)
C8 C 0.13596(11) 0.67026(6) 0.54809(13)
C9 C 0.11135(12) 0.67193(6) 0.41033(14)
H6 H 0.1699 0.6950 0.3977
C10 C -0.00860(13) 0.68724(6) 0.30286(13)
H7 H -0.0102 0.7255 0.2641
C11 C -0.11043(13) 0.67637(6) 0.32884(13)
C12 C -0.18734(13) 0.63384(7) 0.27778(14)
C13 C -0.27680(14) 0.64052(7) 0.32204(16)
C14 C -0.37060(16) 0.61014(9) 0.29821(19)
H8 H -0.3840 0.5778 0.2453
C15 C -0.45703(18) 0.62409(11) 0.3505(2)
H9 H -0.4374 0.6611 0.3951
H10 H -0.5308 0.6286 0.2801
C16 C 0.2282(2) 0.49472(10) 1.1972(2)
H11 H 0.2222 0.4602 1.1478
H12 H 0.1780 0.4917 1.2396
H13 H 0.3050 0.4989 1.2595
C17 C 0.1960(2) 0.54726(9) 1.1104(2)
H14 H 0.1165 0.5441 1.0523
H15 H 0.2045 0.5820 1.1615
C18 C 0.26516(14) 0.55407(7) 1.03467(15)
H16 H 0.2569 0.5193 0.9837
H17 H 0.3446 0.5575 1.0926
C19 C 0.23179(12) 0.60664(6) 0.94750(13)
H18 H 0.2363 0.6418 0.9977
C20 C 0.11770(12) 0.60643(6) 0.82700(13)
H19 H 0.0991 0.5662 0.7970
C21 C 0.15666(12) 0.72009(6) 0.63529(14)
C22 C 0.14765(14) 0.56172(6) 0.56092(14)
H20 H 0.1188 0.5342 0.6045
H21 H 0.2229 0.5491 0.5720
C23 C 0.06886(14) 0.56340(6) 0.41929(14)
H22 H -0.0084 0.5703 0.4096
H23 H 0.0707 0.5259 0.3814
C24 C 0.10315(13) 0.61092(7) 0.34900(14)
H24 H 0.1726 0.6008 0.3386
C25 C 0.01007(13) 0.63637(7) 0.22445(14)
H25 H 0.0479 0.6521 0.1728
C26 C -0.14870(13) 0.71229(7) 0.40943(15)
C27 C -0.18117(14) 0.58726(7) 0.19069(15)
H26 H -0.2553 0.5824 0.1211
H27 H -0.1604 0.5507 0.2368
C28 C -0.09374(15) 0.60226(8) 0.13682(15)
H28 H -0.0679 0.5662 0.1136
H29 H -0.1317 0.6246 0.0593
C29 C 0.43932(14) 0.56645(8) 0.83688(17)
C30 C 0.48071(14) 0.62473(8) 0.88429(17)
C31 C 0.59135(17) 0.65020(12) 0.9130(3)
H30 H 0.6417 0.6329 0.8843
C32 C 0.01300(12) 0.63497(7) 0.82981(15)
H31 H 0.0309 0.6751 0.8575
H32 H -0.0072 0.6150 0.8919
C33 C -0.08847(13) 0.63425(8) 0.70193(16)
H33 H -0.0690 0.6554 0.6407
H34 H -0.1044 0.5942 0.6728
C34 C -0.19421(14) 0.66062(9) 0.70471(19)
H35 H -0.2090 0.6432 0.7723
H36 H -0.2574 0.6536 0.6248
H37 H -0.1837 0.7018 0.7188
C35 C -0.4656(3) 0.57884(13) 0.4393(3)
H38 H -0.3910 0.5725 0.5071
H39 H -0.4906 0.5424 0.3934
C36 C -0.5477(3) 0.59598(17) 0.4973(4)
H40 H -0.5148 0.6266 0.5584
H41 H -0.5627 0.5628 0.5389
H42 H -0.6175 0.6094 0.4314
loop_
_geom_bond_atom_site_label_1
_geom_bond_atom_site_label_2
_geom_bond_site_symmetry_1
_geom_bond_site_symmetry_2
O1 C6 1_555 1_555
O2 C21 1_555 1_555
O3 C13 1_555 1_555
O4 C26 1_555 1_555
O5 C5 1_555 1_555
O6 C29 1_555 1_555
C1 H1 1_555 1_555
C2 C1 1_555 1_555
H2 C2 1_555 1_555
H3 C2 1_555 1_555
C3 C2 1_555 1_555
H4 C3 1_555 1_555
H5 C3 1_555 1_555
C4 C3 1_555 1_555
C5 C4 1_555 1_555
C6 C5 1_555 1_555
C7 C6 1_555 1_555
C8 C7 1_555 1_555
C9 C8 1_555 1_555
H6 C9 1_555 1_555
C10 C9 1_555 1_555
H7 C10 1_555 1_555
C11 C10 1_555 1_555
C12 C11 1_555 1_555
C13 C12 1_555 1_555
C14 C13 1_555 1_555
H8 C14 1_555 1_555
C15 C14 1_555 1_555
H9 C15 1_555 1_555
H10 C15 1_555 1_555
C16 H11 1_555 1_555
H12 C16 1_555 1_555
H13 C16 1_555 1_555
C17 C16 1_555 1_555
H14 C17 1_555 1_555
H15 C17 1_555 1_555
C18 C17 1_555 1_555
H16 C18 1_555 1_555
H17 C18 1_555 1_555
C19 C5 1_555 1_555
H18 C19 1_555 1_555
C20 C6 1_555 1_555
H19 C20 1_555 1_555
C21 O1 1_555 1_555
C22 C7 1_555 1_555
H20 C22 1_555 1_555
H21 C22 1_555 1_555
C23 C22 1_555 1_555
H22 C23 1_555 1_555
H23 C23 1_555 1_555
C24 C9 1_555 1_555
H24 C24 1_555 1_555
C25 C10 1_555 1_555
H25 C25 1_555 1_555
C26 O3 1_555 1_555
C27 C12 1_555 1_555
H26 C27 1_555 1_555
H27 C27 1_555 1_555
C28 C25 1_555 1_555
H28 C28 1_555 1_555
H29 C28 1_555 1_555
C29 O5 1_555 1_555
C30 C4 1_555 1_555
C31 C1 1_555 1_555
H30 C31 1_555 1_555
C32 C20 1_555 1_555
H31 C32 1_555 1_555
H32 C32 1_555 1_555
C33 C32 1_555 1_555
H33 C33 1_555 1_555
H34 C33 1_555 1_555
C34 C33 1_555 1_555
H35 C34 1_555 1_555
H36 C34 1_555 1_555
H37 C34 1_555 1_555
C35 C15 1_555 1_555
H38 C35 1_555 1_555
H39 C35 1_555 1_555
C36 C35 1_555 1_555
H40 C36 1_555 1_555
H41 C36 1_555 1_555
H42 C36 1_555 1_555
C8 C21 1_555 1_555
C11 C26 1_555 1_555
C18 C19 1_555 1_555
C19 C20 1_555 1_555
C23 C24 1_555 1_555
C24 C25 1_555 1_555
C27 C28 1_555 1_555
C29 C30 1_555 1_555
C30 C31 1_555 1_555

#END
