
#######################################################################
#
#                 Cambridge Crystallographic Data Centre
#                                CCDC 
#
#######################################################################
#
# If this CIF has been generated from an entry in the Cambridge 
# Structural Database, then it will include bibliographic, chemical, 
# crystal, experimental, refinement or atomic coordinate data resulting 
# from the CCDC's data processing and validation procedures.
#
#######################################################################

data_HURCIG
_chemical_name_common            'Cupressuflavone pyridine solvate dihydrate'
_chemical_formula_moiety         'C30 H18 O10,4.5(C5 H5 N1),2(H2 O1)'
_chemical_name_systematic        
"8,8''-Bi(4',5,7-trihydroxyflavone) pyridine solvate dihydrate"
_symmetry_cell_setting           monoclinic
_symmetry_space_group_name_H-M   'P 21/n'
_symmetry_Int_Tables_number      14
_space_group_name_Hall           '-P 2yn'
loop_
_symmetry_equiv_pos_site_id
_symmetry_equiv_pos_as_xyz
1 x,y,z
2 1/2+x,1/2-y,1/2+z
3 -x,-y,-z
4 1/2-x,1/2+y,1/2-z
_cell_length_a                   13.704(3)
_cell_length_b                   25.227(5)
_cell_length_c                   14.014(3)
_cell_angle_alpha                90
_cell_angle_beta                 91.085(5)
_cell_angle_gamma                90
_cell_volume                     4843.92
_exptl_crystal_colour            yellow
_exptl_crystal_description       block
_cell_formula_units_Z            4
_exptl_crystal_recrystallization_method pyridine/methanol
loop_
_atom_site_label
_atom_site_type_symbol
_atom_site_fract_x
_atom_site_fract_y
_atom_site_fract_z
O1 O 0.4838(3) 0.32390(18) 0.2926(3)
H1 H 0.5392 0.3198 0.2729
H2 H 0.4680 0.2845 0.2945
O2 O 0.1371(4) 0.1116(2) 0.8265(5)
H3 H 0.1888 0.0984 0.8450
H4 H 0.1489 0.0955 0.7622
O3 O 0.5549(3) 0.24930(16) 0.6823(2)
O4 O 0.3951(3) 0.26891(18) 0.4373(3)
O5 O 0.2640(3) 0.20643(18) 0.5058(3)
H5 H 0.2909 0.2259 0.4675
O6 O 0.3170(3) 0.14160(19) 0.8199(3)
H6 H 0.3589 0.1422 0.8625
O7 O 0.9428(4) 0.3783(2) 0.7136(3)
H7 H 0.9552 0.3737 0.7705
C1 C 0.5883(5) 0.2804(2) 0.6098(4)
C2 C 0.5363(5) 0.2861(2) 0.5282(4)
H8 H 0.5622 0.3063 0.4793
C3 C 0.4434(5) 0.2623(3) 0.5139(4)
C4 C 0.3192(5) 0.2028(3) 0.5859(5)
C5 C 0.2881(5) 0.1753(3) 0.6633(5)
H9 H 0.2265 0.1598 0.6615
C6 C 0.3473(5) 0.1698(3) 0.7456(5)
C7 C 0.4398(5) 0.1939(3) 0.7509(4)
C8 C 0.4658(4) 0.2239(3) 0.6738(4)
C9 C 0.4105(5) 0.2297(3) 0.5887(4)
C10 C 0.6830(5) 0.3035(3) 0.6364(4)
C11 C 0.7292(5) 0.2934(3) 0.7250(4)
H10 H 0.7006 0.2701 0.7677
C12 C 0.8165(5) 0.3176(3) 0.7495(4)
H11 H 0.8471 0.3100 0.8077
C13 C 0.8574(6) 0.3522(3) 0.6891(5)
C14 C 0.8174(6) 0.3620(3) 0.6007(5)
H12 H 0.8485 0.3844 0.5581
C15 C 0.7297(5) 0.3379(3) 0.5758(5)
H13 H 0.7014 0.3452 0.5164
O8 O 0.3890(3) 0.24451(16) 0.9163(2)
O9 O 0.5536(3) 0.25111(17) 1.1610(3)
O10 O 0.6799(3) 0.18835(17) 1.0830(3)
H14 H 0.6558 0.2064 1.1252
O11 O 0.6145(3) 0.1385(2) 0.7616(3)
H15 H 0.6733 0.1324 0.7631
O12 O -0.0068(3) 0.3650(2) 0.9073(3)
H16 H -0.0153 0.3920 0.9387
C16 C 0.3572(4) 0.2728(2) 0.9924(4)
C17 C 0.4098(5) 0.2751(2) 1.0742(4)
H17 H 0.3856 0.2944 1.1252
C18 C 0.5008(5) 0.2492(2) 1.0852(4)
C19 C 0.6211(5) 0.1902(3) 1.0030(4)
C20 C 0.6501(5) 0.1635(3) 0.9244(4)
H18 H 0.7084 0.1447 0.9249
C21 C 0.5895(5) 0.1651(3) 0.8417(4)
C22 C 0.5023(5) 0.1915(2) 0.8388(4)
C23 C 0.4742(5) 0.2185(2) 0.9205(4)
C24 C 0.5335(5) 0.2187(2) 1.0057(4)
C25 C 0.2616(5) 0.2964(2) 0.9705(4)
C26 C 0.2165(5) 0.2908(3) 0.8824(4)
H19 H 0.2479 0.2715 0.8356
C27 C 0.1278(5) 0.3123(3) 0.8615(4)
H20 H 0.0976 0.3059 0.8027
C28 C 0.0823(5) 0.3442(3) 0.9293(5)
C29 C 0.1264(5) 0.3498(2) 1.0194(4)
H21 H 0.0953 0.3690 1.0667
C30 C 0.2154(5) 0.3270(3) 1.0384(4)
H22 H 0.2453 0.3320 1.0978
N1 N -0.0823(17) 0.0788(14) 0.420(3)
C31 C -0.067(3) 0.1134(15) 0.360(2)
H23 H -0.1138 0.1180 0.3122
C32 C 0.007(4) 0.1432(7) 0.359(3)
H24 H 0.0182 0.1682 0.3115
C33 C 0.0679(16) 0.1346(14) 0.433(3)
H25 H 0.1170 0.1596 0.4421
C34 C 0.067(4) 0.1009(19) 0.486(2)
H26 H 0.1195 0.0930 0.5272
C35 C -0.016(3) 0.0736(13) 0.485(3)
H27 H -0.0270 0.0494 0.5334
N2 N 0.1335(10) 0.0063(5) 0.8823(11)
C36 C 0.064(3) -0.0150(12) 0.910(3)
H28 H 0.0058 0.0044 0.9101
C37 C 0.059(2) -0.0738(13) 0.9484(18)
H29 H 0.0102 -0.0891 0.9844
C38 C 0.1430(13) -0.0979(6) 0.9172(17)
H30 H 0.1467 -0.1344 0.9083
C39 C 0.2071(19) -0.0709(9) 0.903(3)
H31 H 0.2684 -0.0857 0.9142
C40 C 0.2069(15) -0.0166(9) 0.8703(18)
H32 H 0.2606 -0.0011 0.8419
N3 N 0.7485(9) 0.5646(4) 0.7305(6)
C41 C 0.6601(13) 0.5702(5) 0.7561(9)
H33 H 0.6373 0.6044 0.7659
C42 C 0.5971(13) 0.5292(11) 0.7700(13)
H34 H 0.5314 0.5334 0.7836
C43 C 0.643(3) 0.4813(10) 0.761(2)
H35 H 0.6107 0.4527 0.7884
C44 C 0.714(2) 0.4717(12) 0.726(3)
H36 H 0.7306 0.4380 0.7049
C45 C 0.7773(11) 0.5179(10) 0.7165(11)
H37 H 0.8418 0.5126 0.6993
N4 N -0.0836(6) 0.4334(3) 1.0274(6)
C46 C -0.0623(8) 0.4481(5) 1.1126(10)
H38 H -0.0160 0.4283 1.1463
C47 C -0.1021(13) 0.4909(8) 1.1585(11)
H39 H -0.0795 0.5011 1.2187
C48 C -0.1725(16) 0.5166(7) 1.1152(16)
H40 H -0.2047 0.5444 1.1447
C49 C -0.1960(13) 0.5016(8) 1.0280(16)
H41 H -0.2433 0.5208 0.9942
C50 C -0.1533(11) 0.4584(6) 0.9845(10)
H42 H -0.1750 0.4475 0.9243
N5? N 0.960(2) 0.482(2) 0.425(2)
C51? C 0.994(2) 0.4517(8) 0.483(4)
C52? C 1.045(2) 0.466(2) 0.544(3)
loop_
_geom_bond_atom_site_label_1
_geom_bond_atom_site_label_2
_geom_bond_site_symmetry_1
_geom_bond_site_symmetry_2
O1 H1 1_555 1_555
H2 O1 1_555 1_555
O2 H3 1_555 1_555
H4 O2 1_555 1_555
O3 C1 1_555 1_555
O4 C3 1_555 1_555
O5 H5 1_555 1_555
O6 H6 1_555 1_555
O7 H7 1_555 1_555
C1 C2 1_555 1_555
C2 H8 1_555 1_555
C3 C2 1_555 1_555
C4 O5 1_555 1_555
C5 C4 1_555 1_555
H9 C5 1_555 1_555
C6 O6 1_555 1_555
C7 C6 1_555 1_555
C8 O3 1_555 1_555
C9 C3 1_555 1_555
C10 C1 1_555 1_555
C11 C10 1_555 1_555
H10 C11 1_555 1_555
C12 C11 1_555 1_555
H11 C12 1_555 1_555
C13 O7 1_555 1_555
C14 C13 1_555 1_555
H12 C14 1_555 1_555
C15 C10 1_555 1_555
H13 C15 1_555 1_555
O8 C16 1_555 1_555
O9 C18 1_555 1_555
O10 H14 1_555 1_555
O11 H15 1_555 1_555
O12 H16 1_555 1_555
C16 C17 1_555 1_555
C17 H17 1_555 1_555
C18 C17 1_555 1_555
C19 O10 1_555 1_555
C20 C19 1_555 1_555
H18 C20 1_555 1_555
C21 O11 1_555 1_555
C22 C7 1_555 1_555
C23 O8 1_555 1_555
C24 C18 1_555 1_555
C25 C16 1_555 1_555
C26 C25 1_555 1_555
H19 C26 1_555 1_555
C27 C26 1_555 1_555
H20 C27 1_555 1_555
C28 O12 1_555 1_555
C29 C28 1_555 1_555
H21 C29 1_555 1_555
C30 C25 1_555 1_555
H22 C30 1_555 1_555
N1 C31 1_555 1_555
C31 H23 1_555 1_555
C32 C31 1_555 1_555
H24 C32 1_555 1_555
C33 C32 1_555 1_555
H25 C33 1_555 1_555
C34 C33 1_555 1_555
H26 C34 1_555 1_555
C35 N1 1_555 1_555
H27 C35 1_555 1_555
N2 C36 1_555 1_555
C36 H28 1_555 1_555
C37 C36 1_555 1_555
H29 C37 1_555 1_555
C38 C37 1_555 1_555
H30 C38 1_555 1_555
C39 C38 1_555 1_555
H31 C39 1_555 1_555
C40 N2 1_555 1_555
H32 C40 1_555 1_555
N3 C41 1_555 1_555
C41 H33 1_555 1_555
C42 C41 1_555 1_555
H34 C42 1_555 1_555
C43 C42 1_555 1_555
H35 C43 1_555 1_555
C44 C43 1_555 1_555
H36 C44 1_555 1_555
C45 N3 1_555 1_555
H37 C45 1_555 1_555
N4 C46 1_555 1_555
C46 H38 1_555 1_555
C47 C46 1_555 1_555
H39 C47 1_555 1_555
C48 C47 1_555 1_555
H40 C48 1_555 1_555
C49 C48 1_555 1_555
H41 C49 1_555 1_555
C50 N4 1_555 1_555
H42 C50 1_555 1_555
C4 C9 1_555 1_555
C5 C6 1_555 1_555
C7 C8 1_555 1_555
C8 C9 1_555 1_555
C12 C13 1_555 1_555
C14 C15 1_555 1_555
C19 C24 1_555 1_555
C20 C21 1_555 1_555
C21 C22 1_555 1_555
C22 C23 1_555 1_555
C23 C24 1_555 1_555
C27 C28 1_555 1_555
C29 C30 1_555 1_555
C34 C35 1_555 1_555
C39 C40 1_555 1_555
C44 C45 1_555 1_555
C49 C50 1_555 1_555

#END
