
#######################################################################
#
#                 Cambridge Crystallographic Data Centre
#                                CCDC 
#
#######################################################################
#
# If this CIF has been generated from an entry in the Cambridge 
# Structural Database, then it will include bibliographic, chemical, 
# crystal, experimental, refinement or atomic coordinate data resulting 
# from the CCDC's data processing and validation procedures.
#
#######################################################################

data_HURCAA
_chemical_compound_source        
'Isolated from marine fungus Pseudallescheria ellipsoidea F42-3'
_chemical_name_common            'Pseudellone A'
_chemical_formula_moiety         'C14 H13 N3 O3 S1'
_chemical_name_systematic        
4',5'-dimethyl-6'H,8'H-spiro[indole-3,2'-[3]thia[5,7]diazabicyclo[2.2.2]octane]-2,6',8'(1H)-trione
_symmetry_cell_setting           orthorhombic
_symmetry_space_group_name_H-M   'P n a 21'
_symmetry_Int_Tables_number      33
_space_group_name_Hall           'P 2c -2n'
loop_
_symmetry_equiv_pos_site_id
_symmetry_equiv_pos_as_xyz
1 x,y,z
2 -x,-y,1/2+z
3 1/2-x,1/2+y,1/2+z
4 1/2+x,1/2-y,z
_cell_length_a                   8.96850(10)
_cell_length_b                   11.83740(10)
_cell_length_c                   12.37250(10)
_cell_angle_alpha                90
_cell_angle_beta                 90
_cell_angle_gamma                90
_cell_volume                     1313.51
_exptl_crystal_colour            colorless
_exptl_crystal_description       prism
_cell_formula_units_Z            4
_exptl_crystal_recrystallization_method methanol
loop_
_atom_site_label
_atom_site_type_symbol
_atom_site_fract_x
_atom_site_fract_y
_atom_site_fract_z
S1 S -0.45580(5) -0.46981(4) -0.82739(4)
N1 N -0.4709(2) -0.56477(15) -1.02872(15)
O1 O -0.32856(16) -0.29070(12) -1.03898(13)
O2 O -0.71029(17) -0.61728(13) -1.07041(13)
O3 O -0.63380(15) -0.23726(11) -0.82257(14)
C1 C -0.7651(2) -0.52104(17) -0.81293(18)
C2 C -0.4230(2) -0.36210(18) -1.01781(16)
N2 N -0.84324(19) -0.34059(14) -0.77928(15)
H1 H -0.9016 -0.2862 -0.7610
C3 C -0.6211(2) -0.54921(18) -1.03457(18)
C4 C -0.3869(2) -0.47840(17) -0.97042(17)
C5 C -0.6501(2) -0.44199(18) -0.85999(16)
C6 C -0.6661(2) -0.43573(17) -0.98755(17)
H2 H -0.7701 -0.4197 -1.0065
C7 C -0.2200(2) -0.4993(2) -0.96720(19)
H3 H -0.1721 -0.4388 -0.9288
H4 H -0.1819 -0.5026 -1.0396
H5 H -0.2005 -0.5695 -0.9311
N3 N -0.57091(19) -0.34804(14) -1.03110(14)
H6 H -0.6069 -0.2900 -1.0638
C8 C -0.7724(2) -0.63765(18) -0.80903(17)
H7 H -0.6951 -0.6819 -0.8356
C9 C -0.4104(3) -0.67833(17) -1.04590(19)
H8 H -0.3910 -0.7132 -0.9773
H9 H -0.3194 -0.6733 -1.0864
H10 H -0.4814 -0.7229 -1.0853
C10 C -1.0087(2) -0.5025(2) -0.72713(19)
H11 H -1.0855 -0.4580 -0.7000
C11 C -1.0153(3) -0.6204(2) -0.72434(19)
H12 H -1.0992 -0.6553 -0.6953
C12 C -0.8815(2) -0.45522(17) -0.77243(18)
C13 C -0.7034(2) -0.32571(16) -0.81817(18)
C14 C -0.8999(3) -0.68705(19) -0.76381(18)
H13 H -0.9074 -0.7653 -0.7602
loop_
_geom_bond_atom_site_label_1
_geom_bond_atom_site_label_2
_geom_bond_site_symmetry_1
_geom_bond_site_symmetry_2
S1 C4 1_555 1_555
N1 C3 1_555 1_555
O1 C2 1_555 1_555
O2 C3 1_555 1_555
O3 C13 1_555 1_555
C1 C5 1_555 1_555
C2 C4 1_555 1_555
N2 H1 1_555 1_555
C3 C6 1_555 1_555
C4 N1 1_555 1_555
C5 S1 1_555 1_555
C6 C5 1_555 1_555
H2 C6 1_555 1_555
C7 C4 1_555 1_555
H3 C7 1_555 1_555
H4 C7 1_555 1_555
H5 C7 1_555 1_555
N3 C2 1_555 1_555
H6 N3 1_555 1_555
C8 C1 1_555 1_555
H7 C8 1_555 1_555
C9 N1 1_555 1_555
H8 C9 1_555 1_555
H9 C9 1_555 1_555
H10 C9 1_555 1_555
C10 H11 1_555 1_555
C11 C10 1_555 1_555
H12 C11 1_555 1_555
C12 C1 1_555 1_555
C13 N2 1_555 1_555
C14 C8 1_555 1_555
H13 C14 1_555 1_555
N2 C12 1_555 1_555
C5 C13 1_555 1_555
C6 N3 1_555 1_555
C10 C12 1_555 1_555
C11 C14 1_555 1_555

#END
