
#######################################################################
#
#                 Cambridge Crystallographic Data Centre
#                                CCDC 
#
#######################################################################
#
# If this CIF has been generated from an entry in the Cambridge 
# Structural Database, then it will include bibliographic, chemical, 
# crystal, experimental, refinement or atomic coordinate data resulting 
# from the CCDC's data processing and validation procedures.
#
#######################################################################

data_HURJIP
_chemical_formula_moiety         'C12 H10 N2 O2 S1'
_chemical_name_systematic        
'ethyl imidazo[2,1-b][1,3]benzothiazole-2-carboxylate'
_symmetry_cell_setting           monoclinic
_symmetry_space_group_name_H-M   'P 21/c'
_symmetry_Int_Tables_number      14
_space_group_name_Hall           '-P 2ybc'
loop_
_symmetry_equiv_pos_site_id
_symmetry_equiv_pos_as_xyz
1 x,y,z
2 -x,1/2+y,1/2-z
3 -x,-y,-z
4 x,1/2-y,1/2+z
_cell_length_a                   7.5451(4)
_cell_length_b                   19.9007(10)
_cell_length_c                   7.5647(4)
_cell_angle_alpha                90
_cell_angle_beta                 91.208(6)
_cell_angle_gamma                90
_cell_volume                     1135.61
_cell_formula_units_Z            4
loop_
_atom_site_label
_atom_site_type_symbol
_atom_site_fract_x
_atom_site_fract_y
_atom_site_fract_z
S1 S 0.2883(2) 0.28155(6) 0.37419(19)
C1 C 0.5690(8) 0.2140(2) 0.4879(7)
O1 O 0.0164(5) 0.02486(18) 0.2536(5)
N1 N 0.1698(6) 0.1489(2) 0.3185(5)
N2 N 0.4411(6) 0.1676(2) 0.4338(5)
O2 O 0.2595(6) -0.0295(2) 0.3466(6)
C2 C 0.4246(7) 0.0986(2) 0.4255(7)
H1 H 0.5070 0.0663 0.4613
C3 C 0.5044(8) 0.2798(2) 0.4658(7)
C4 C 0.2588(7) 0.0886(2) 0.3523(7)
C5 C 0.1803(8) 0.0221(2) 0.3192(7)
C6 C 0.7384(8) 0.2026(3) 0.5573(8)
H2 H 0.7809 0.1591 0.5725
C7 C 0.2865(7) 0.1934(3) 0.3678(6)
C8 C -0.2556(9) -0.0242(3) 0.1570(9)
H3 H -0.2553 -0.0017 0.0449
H4 H -0.3109 0.0039 0.2428
H5 H -0.3204 -0.0656 0.1458
C9 C 0.6105(8) 0.3337(3) 0.5105(8)
H6 H 0.5698 0.3774 0.4941
C10 C -0.0682(8) -0.0389(3) 0.2159(8)
H7 H -0.0670 -0.0669 0.3209
H8 H -0.0060 -0.0624 0.1234
C11 C 0.8408(9) 0.2565(3) 0.6026(8)
H9 H 0.9543 0.2494 0.6492
C12 C 0.7795(8) 0.3219(3) 0.5806(7)
H10 H 0.8518 0.3579 0.6129
loop_
_geom_bond_atom_site_label_1
_geom_bond_atom_site_label_2
_geom_bond_site_symmetry_1
_geom_bond_site_symmetry_2
S1 C3 1_555 1_555
C1 N2 1_555 1_555
O1 C5 1_555 1_555
N1 C4 1_555 1_555
N2 C2 1_555 1_555
O2 C5 1_555 1_555
C2 H1 1_555 1_555
C3 C1 1_555 1_555
C4 C2 1_555 1_555
C5 C4 1_555 1_555
C6 C1 1_555 1_555
H2 C6 1_555 1_555
C7 S1 1_555 1_555
C8 H3 1_555 1_555
H4 C8 1_555 1_555
H5 C8 1_555 1_555
C9 C3 1_555 1_555
H6 C9 1_555 1_555
C10 O1 1_555 1_555
H7 C10 1_555 1_555
H8 C10 1_555 1_555
C11 C6 1_555 1_555
H9 C11 1_555 1_555
C12 C9 1_555 1_555
H10 C12 1_555 1_555
N1 C7 1_555 1_555
N2 C7 1_555 1_555
C8 C10 1_555 1_555
C11 C12 1_555 1_555

#END
