
#######################################################################
#
#                 Cambridge Crystallographic Data Centre
#                                CCDC 
#
#######################################################################
#
# If this CIF has been generated from an entry in the Cambridge 
# Structural Database, then it will include bibliographic, chemical, 
# crystal, experimental, refinement or atomic coordinate data resulting 
# from the CCDC's data processing and validation procedures.
#
#######################################################################

data_HURKIP
_chemical_formula_moiety         'C26 H18 Br1 F5 N2 O4'
_chemical_name_systematic        
3-(3-Bromophenyl)-1-(morpholin-4-yl)-3-(((pentafluorobenzoyl)oxy)imino)-2-phenylpropan-1-one
_symmetry_cell_setting           orthorhombic
_symmetry_space_group_name_H-M   'P n a 21'
_symmetry_Int_Tables_number      33
_space_group_name_Hall           'P 2c -2n'
loop_
_symmetry_equiv_pos_site_id
_symmetry_equiv_pos_as_xyz
1 x,y,z
2 -x,-y,1/2+z
3 1/2+x,1/2-y,z
4 1/2-x,1/2+y,1/2+z
_cell_length_a                   21.4530(7)
_cell_length_b                   6.1628(2)
_cell_length_c                   18.1764(6)
_cell_angle_alpha                90
_cell_angle_beta                 90
_cell_angle_gamma                90
_cell_volume                     2403.11
_exptl_crystal_colour            colorless
_exptl_crystal_description       block
_cell_formula_units_Z            4
loop_
_atom_site_label
_atom_site_type_symbol
_atom_site_fract_x
_atom_site_fract_y
_atom_site_fract_z
Br1 Br -0.09207(2) 0.88806(8) 0.51003(4)
C1 C -0.0577(2) 1.0296(9) 0.1238(3)
H1 H -0.0351 1.1200 0.0875
H2 H -0.0658 1.1189 0.1680
C2 C -0.1190(3) 0.9510(11) 0.0912(4)
H3 H -0.1428 0.8725 0.1295
H4 H -0.1440 1.0780 0.0756
C3 C -0.0775(3) 0.6233(10) 0.0532(3)
H5 H -0.0724 0.5236 0.0109
H6 H -0.1025 0.5476 0.0911
C4 C -0.0137(2) 0.6774(9) 0.0847(3)
H7 H 0.0058 0.5442 0.1046
H8 H 0.0135 0.7348 0.0453
C5 C 0.0190(2) 0.8600(9) 0.2018(3)
C6 C 0.0652(2) 0.6772(9) 0.2192(3)
H9 H 0.0459 0.5358 0.2046
C7 C 0.1241(2) 0.7104(9) 0.1742(3)
C8 C 0.1485(2) 0.5392(10) 0.1335(3)
H10 H 0.1290 0.4010 0.1355
C9 C 0.2009(3) 0.5677(10) 0.0902(4)
H11 H 0.2174 0.4495 0.0628
C10 C 0.2298(2) 0.7721(10) 0.0867(3)
H12 H 0.2658 0.7917 0.0570
C11 C 0.2063(3) 0.9438(11) 0.1261(3)
H13 H 0.2255 1.0824 0.1232
C12 C 0.1535(2) 0.9129(9) 0.1709(3)
H14 H 0.1378 1.0304 0.1991
C13 C 0.0749(2) 0.6769(9) 0.3024(3)
C14 C 0.0202(2) 0.6167(8) 0.3493(3)
C15 C -0.0045(2) 0.7581(8) 0.4006(3)
H15 H 0.0135 0.8972 0.4079
C16 C -0.0562(2) 0.6935(10) 0.4414(3)
C17 C -0.0826(2) 0.4927(9) 0.4317(3)
H16 H -0.1178 0.4514 0.4602
C18 C -0.0577(3) 0.3489(9) 0.3800(3)
H17 H -0.0750 0.2084 0.3734
C19 C -0.0071(3) 0.4166(8) 0.3387(3)
H18 H 0.0093 0.3226 0.3021
C20 C 0.1922(2) 0.7422(9) 0.4276(3)
C21 C 0.2387(2) 0.8222(9) 0.3709(3)
C22 C 0.2337(3) 1.0235(10) 0.3369(3)
C23 C 0.2784(3) 1.0938(10) 0.2853(4)
C24 C 0.3268(3) 0.9594(13) 0.2695(4)
C25 C 0.3333(3) 0.7579(10) 0.3032(3)
C26 C 0.2893(2) 0.6969(10) 0.3532(3)
F1 F 0.1852(2) 1.1505(6) 0.3522(2)
F2 F 0.2720(2) 1.2776(6) 0.2523(2)
F3 F 0.3692(2) 1.0285(9) 0.2203(2)
F4 F 0.38108(17) 0.6319(8) 0.2855(2)
F5 F 0.29596(18) 0.4993(7) 0.3848(2)
N1 N -0.0197(2) 0.8397(7) 0.1436(2)
N2 N 0.12970(19) 0.7217(7) 0.3236(2)
O1 O -0.1097(2) 0.8116(9) 0.0298(3)
O2 O 0.01954(18) 1.0209(7) 0.2408(2)
O3 O 0.13354(16) 0.7091(7) 0.40253(19)
O4 O 0.20508(18) 0.7101(7) 0.49005(19)
loop_
_geom_bond_atom_site_label_1
_geom_bond_atom_site_label_2
_geom_bond_site_symmetry_1
_geom_bond_site_symmetry_2
Br1 C16 1_555 1_555
C1 H1 1_555 1_555
H2 C1 1_555 1_555
C2 C1 1_555 1_555
H3 C2 1_555 1_555
H4 C2 1_555 1_555
C3 H5 1_555 1_555
H6 C3 1_555 1_555
C4 C3 1_555 1_555
H7 C4 1_555 1_555
H8 C4 1_555 1_555
C5 C6 1_555 1_555
C6 H9 1_555 1_555
C7 C6 1_555 1_555
C8 C7 1_555 1_555
H10 C8 1_555 1_555
C9 C8 1_555 1_555
H11 C9 1_555 1_555
C10 C9 1_555 1_555
H12 C10 1_555 1_555
C11 C10 1_555 1_555
H13 C11 1_555 1_555
C12 C7 1_555 1_555
H14 C12 1_555 1_555
C13 C6 1_555 1_555
C14 C13 1_555 1_555
C15 C14 1_555 1_555
H15 C15 1_555 1_555
C16 C15 1_555 1_555
C17 C16 1_555 1_555
H16 C17 1_555 1_555
C18 C17 1_555 1_555
H17 C18 1_555 1_555
C19 C14 1_555 1_555
H18 C19 1_555 1_555
C20 C21 1_555 1_555
C21 C22 1_555 1_555
C22 C23 1_555 1_555
C23 C24 1_555 1_555
C24 C25 1_555 1_555
C25 C26 1_555 1_555
C26 C21 1_555 1_555
F1 C22 1_555 1_555
F2 C23 1_555 1_555
F3 C24 1_555 1_555
F4 C25 1_555 1_555
F5 C26 1_555 1_555
N1 C1 1_555 1_555
N2 C13 1_555 1_555
O1 C2 1_555 1_555
O2 C5 1_555 1_555
O3 C20 1_555 1_555
O4 C20 1_555 1_555
C3 O1 1_555 1_555
C4 N1 1_555 1_555
C5 N1 1_555 1_555
C11 C12 1_555 1_555
C18 C19 1_555 1_555
N2 O3 1_555 1_555

#END
