
#######################################################################
#
#                 Cambridge Crystallographic Data Centre
#                                CCDC 
#
#######################################################################
#
# If this CIF has been generated from an entry in the Cambridge 
# Structural Database, then it will include bibliographic, chemical, 
# crystal, experimental, refinement or atomic coordinate data resulting 
# from the CCDC's data processing and validation procedures.
#
#######################################################################

data_HURKEL
_chemical_formula_moiety         'C21 H17 F5 N2 O4'
_chemical_name_systematic        
1-(Morpholin-4-yl)-3-(((pentafluorobenzoyl)oxy)imino)-2-phenylbutan-1-one
_symmetry_cell_setting           orthorhombic
_symmetry_space_group_name_H-M   'P b c a'
_symmetry_Int_Tables_number      61
_space_group_name_Hall           '-P 2ac 2ab'
loop_
_symmetry_equiv_pos_site_id
_symmetry_equiv_pos_as_xyz
1 x,y,z
2 1/2-x,-y,1/2+z
3 -x,1/2+y,1/2-z
4 1/2+x,1/2-y,-z
5 -x,-y,-z
6 1/2+x,y,1/2-z
7 x,1/2-y,1/2+z
8 1/2-x,1/2+y,z
_cell_length_a                   12.2486(5)
_cell_length_b                   11.6028(4)
_cell_length_c                   28.5936(12)
_cell_angle_alpha                90
_cell_angle_beta                 90
_cell_angle_gamma                90
_cell_volume                     4063.67
_exptl_crystal_colour            colorless
_exptl_crystal_description       plate
_cell_formula_units_Z            8
loop_
_atom_site_label
_atom_site_type_symbol
_atom_site_fract_x
_atom_site_fract_y
_atom_site_fract_z
C1 C 0.30141(16) 0.25123(19) 0.29613(8)
H1 H 0.2534 0.2690 0.2692
H2 H 0.2555 0.2461 0.3246
C2 C 0.35888(18) 0.13774(19) 0.28800(8)
H3 H 0.4024 0.1176 0.3160
H4 H 0.3039 0.0763 0.2831
C3 C 0.50965(16) 0.23214(19) 0.25442(7)
H5 H 0.5568 0.2355 0.2263
H6 H 0.5563 0.2126 0.2816
C4 C 0.45828(16) 0.34800(18) 0.26224(7)
H7 H 0.5158 0.4058 0.2686
H8 H 0.4184 0.3720 0.2337
C5 C 0.38782(14) 0.40495(17) 0.34151(7)
C6 C 0.47890(14) 0.49523(16) 0.34461(6)
H9 H 0.4796 0.5388 0.3144
C7 C 0.59153(14) 0.44004(16) 0.35077(6)
C8 C 0.60368(15) 0.33142(16) 0.37018(6)
H10 H 0.5415 0.2912 0.3815
C9 C 0.70632(15) 0.28092(17) 0.37324(7)
H11 H 0.7140 0.2060 0.3863
C10 C 0.79727(15) 0.33973(18) 0.35734(7)
H12 H 0.8673 0.3047 0.3588
C11 C 0.78591(15) 0.44956(18) 0.33929(7)
H13 H 0.8487 0.4909 0.3293
C12 C 0.68341(14) 0.49996(17) 0.33570(6)
H14 H 0.6760 0.5752 0.3230
C13 C 0.45525(14) 0.58059(16) 0.38338(6)
C14 C 0.46375(16) 0.54856(17) 0.43388(6)
H15 H 0.5286 0.5849 0.4475
H16 H 0.4698 0.4646 0.4368
H17 H 0.3985 0.5751 0.4505
C15 C 0.41084(14) 0.86995(16) 0.38986(7)
C16 C 0.39050(14) 0.94924(16) 0.43058(6)
C17 C 0.44733(15) 1.05258(16) 0.43299(6)
C18 C 0.43281(16) 1.12971(16) 0.46900(7)
C19 C 0.35943(16) 1.10483(17) 0.50378(6)
C20 C 0.30168(15) 1.00296(18) 0.50274(7)
C21 C 0.31796(15) 0.92609(17) 0.46656(7)
F1 F 0.52289(10) 1.07822(10) 0.40072(4)
F2 F 0.49171(10) 1.22724(10) 0.47090(4)
F3 F 0.34629(10) 1.17945(11) 0.53896(4)
F4 F 0.23051(10) 0.97922(12) 0.53679(4)
F5 F 0.25969(9) 0.82843(10) 0.46734(4)
N1 N 0.38269(12) 0.34267(14) 0.30179(6)
N2 N 0.43207(12) 0.68043(13) 0.36698(5)
O1 O 0.42891(11) 0.14376(12) 0.24827(5)
O2 O 0.32350(11) 0.39203(13) 0.37400(5)
O3 O 0.41257(10) 0.75971(10) 0.40537(4)
O4 O 0.42852(11) 0.90180(11) 0.35092(5)
loop_
_geom_bond_atom_site_label_1
_geom_bond_atom_site_label_2
_geom_bond_site_symmetry_1
_geom_bond_site_symmetry_2
C1 H1 1_555 1_555
H2 C1 1_555 1_555
C2 C1 1_555 1_555
H3 C2 1_555 1_555
H4 C2 1_555 1_555
C3 H5 1_555 1_555
H6 C3 1_555 1_555
C4 C3 1_555 1_555
H7 C4 1_555 1_555
H8 C4 1_555 1_555
C5 C6 1_555 1_555
C6 H9 1_555 1_555
C7 C6 1_555 1_555
C8 C7 1_555 1_555
H10 C8 1_555 1_555
C9 C8 1_555 1_555
H11 C9 1_555 1_555
C10 C9 1_555 1_555
H12 C10 1_555 1_555
C11 C10 1_555 1_555
H13 C11 1_555 1_555
C12 C7 1_555 1_555
H14 C12 1_555 1_555
C13 C6 1_555 1_555
C14 C13 1_555 1_555
H15 C14 1_555 1_555
H16 C14 1_555 1_555
H17 C14 1_555 1_555
C15 C16 1_555 1_555
C16 C17 1_555 1_555
C17 C18 1_555 1_555
C18 C19 1_555 1_555
C19 C20 1_555 1_555
C20 C21 1_555 1_555
C21 C16 1_555 1_555
F1 C17 1_555 1_555
F2 C18 1_555 1_555
F3 C19 1_555 1_555
F4 C20 1_555 1_555
F5 C21 1_555 1_555
N1 C1 1_555 1_555
N2 C13 1_555 1_555
O1 C2 1_555 1_555
O2 C5 1_555 1_555
O3 C15 1_555 1_555
O4 C15 1_555 1_555
C3 O1 1_555 1_555
C4 N1 1_555 1_555
C5 N1 1_555 1_555
C11 C12 1_555 1_555
N2 O3 1_555 1_555

#END
