
#######################################################################
#
#                 Cambridge Crystallographic Data Centre
#                                CCDC 
#
#######################################################################
#
# If this CIF has been generated from an entry in the Cambridge 
# Structural Database, then it will include bibliographic, chemical, 
# crystal, experimental, refinement or atomic coordinate data resulting 
# from the CCDC's data processing and validation procedures.
#
#######################################################################

data_HURWEY
_chemical_formula_moiety         'C20 H15 Cl1 N2 O3'
_chemical_name_systematic        
'benzyl 4-chloro-2-((pyridin-2-ylcarbonyl)amino)benzoate'
_symmetry_cell_setting           monoclinic
_symmetry_space_group_name_H-M   'P 21/n'
_symmetry_Int_Tables_number      14
_space_group_name_Hall           '-P 2yn'
loop_
_symmetry_equiv_pos_site_id
_symmetry_equiv_pos_as_xyz
1 x,y,z
2 1/2-x,1/2+y,1/2-z
3 -x,-y,-z
4 1/2+x,1/2-y,1/2+z
_cell_length_a                   16.5710(18)
_cell_length_b                   5.5448(5)
_cell_length_c                   20.450(2)
_cell_angle_alpha                90
_cell_angle_beta                 111.604(13)
_cell_angle_gamma                90
_cell_volume                     1747.01
_exptl_crystal_colour            colorless
_exptl_crystal_description       block
_cell_formula_units_Z            4
loop_
_atom_site_label
_atom_site_type_symbol
_atom_site_fract_x
_atom_site_fract_y
_atom_site_fract_z
Cl1 Cl 0.83482(4) -0.02736(13) 1.02647(4)
O1 O 0.53417(11) -0.2573(3) 0.96084(10)
O2 O 0.46036(10) 0.4246(3) 0.79291(9)
O3 O 0.56359(9) 0.6554(3) 0.78134(8)
N1 N 0.33912(12) -0.0209(3) 0.83957(10)
N2 N 0.50971(11) 0.0708(3) 0.88949(9)
H1 H 0.4688 0.1528 0.8593
C1 C 0.25404(16) -0.0665(4) 0.81376(13)
H2 H 0.2179 0.0388 0.7804
C2 C 0.21720(16) -0.2597(4) 0.83373(13)
H3 H 0.1575 -0.2840 0.8144
C3 C 0.26967(17) -0.4164(4) 0.88257(13)
H4 H 0.2463 -0.5498 0.8968
C4 C 0.35761(16) -0.3738(4) 0.91041(12)
H5 H 0.3948 -0.4774 0.9437
C5 C 0.38907(14) -0.1740(4) 0.88769(11)
C6 C 0.48461(15) -0.1252(4) 0.91671(12)
C7 C 0.59364(13) 0.1560(4) 0.90431(10)
C8 C 0.66542(14) 0.0396(4) 0.95342(11)
H6 H 0.6576 -0.0960 0.9772
C9 C 0.74699(14) 0.1263(4) 0.96624(11)
C10 C 0.76276(15) 0.3286(4) 0.93402(13)
H7 H 0.8189 0.3863 0.9447
C11 C 0.69233(15) 0.4429(4) 0.88528(13)
H8 H 0.7015 0.5797 0.8626
C12 C 0.60804(13) 0.3601(4) 0.86894(11)
C13 C 0.53596(15) 0.4783(4) 0.81195(12)
C14 C 0.49884(15) 0.7690(4) 0.72157(13)
H9 H 0.4555 0.8469 0.7358
H10 H 0.4701 0.6492 0.6860
C15 C 0.54301(15) 0.9515(4) 0.69250(13)
C16 C 0.62121(17) 1.0525(4) 0.73270(14)
H11 H 0.6495 1.0014 0.7788
C17 C 0.6581(2) 1.2291(5) 0.70529(17)
H12 H 0.7109 1.2974 0.7332
C18 C 0.6177(2) 1.3042(5) 0.63750(19)
H13 H 0.6427 1.4239 0.6193
C19 C 0.5408(2) 1.2039(6) 0.59659(18)
H14 H 0.5135 1.2533 0.5502
C20 C 0.50325(18) 1.0282(5) 0.62417(16)
H15 H 0.4504 0.9610 0.5961
loop_
_geom_bond_atom_site_label_1
_geom_bond_atom_site_label_2
_geom_bond_site_symmetry_1
_geom_bond_site_symmetry_2
Cl1 C9 1_555 1_555
O1 C6 1_555 1_555
O2 C13 1_555 1_555
O3 C13 1_555 1_555
N1 C1 1_555 1_555
N2 H1 1_555 1_555
C1 H2 1_555 1_555
C2 C1 1_555 1_555
H3 C2 1_555 1_555
C3 C2 1_555 1_555
H4 C3 1_555 1_555
C4 C3 1_555 1_555
H5 C4 1_555 1_555
C5 N1 1_555 1_555
C6 N2 1_555 1_555
C7 N2 1_555 1_555
C8 C7 1_555 1_555
H6 C8 1_555 1_555
C9 C8 1_555 1_555
C10 C9 1_555 1_555
H7 C10 1_555 1_555
C11 C10 1_555 1_555
H8 C11 1_555 1_555
C12 C7 1_555 1_555
C13 C12 1_555 1_555
C14 O3 1_555 1_555
H9 C14 1_555 1_555
H10 C14 1_555 1_555
C15 C14 1_555 1_555
C16 C15 1_555 1_555
H11 C16 1_555 1_555
C17 C16 1_555 1_555
H12 C17 1_555 1_555
C18 C17 1_555 1_555
H13 C18 1_555 1_555
C19 C18 1_555 1_555
H14 C19 1_555 1_555
C20 C15 1_555 1_555
H15 C20 1_555 1_555
C4 C5 1_555 1_555
C5 C6 1_555 1_555
C11 C12 1_555 1_555
C19 C20 1_555 1_555

#END
