
#######################################################################
#
#                 Cambridge Crystallographic Data Centre
#                                CCDC 
#
#######################################################################
#
# If this CIF has been generated from an entry in the Cambridge 
# Structural Database, then it will include bibliographic, chemical, 
# crystal, experimental, refinement or atomic coordinate data resulting 
# from the CCDC's data processing and validation procedures.
#
#######################################################################

data_HURWIC
_chemical_formula_moiety         'C15 H12 Cl2 O1 S2'
_chemical_name_systematic        2,2-bis((4-chlorophenyl)sulfanyl)propanal
_symmetry_cell_setting           orthorhombic
_symmetry_space_group_name_H-M   'P n m a'
_symmetry_Int_Tables_number      62
_space_group_name_Hall           '-P 2ac 2n'
loop_
_symmetry_equiv_pos_site_id
_symmetry_equiv_pos_as_xyz
1 x,y,z
2 1/2-x,-y,1/2+z
3 1/2+x,1/2-y,1/2-z
4 -x,1/2+y,-z
5 -x,-y,-z
6 1/2+x,y,1/2-z
7 1/2-x,1/2+y,1/2+z
8 x,1/2-y,z
_cell_length_a                   6.9371(4)
_cell_length_b                   9.8082(6)
_cell_length_c                   22.3442(12)
_cell_angle_alpha                90
_cell_angle_beta                 90
_cell_angle_gamma                90
_cell_volume                     1520.31
_exptl_crystal_colour            colorless
_exptl_crystal_description       block
_cell_formula_units_Z            4
loop_
_atom_site_label
_atom_site_type_symbol
_atom_site_fract_x
_atom_site_fract_y
_atom_site_fract_z
Cl1 Cl 0.48929(8) 0.2500 0.81848(3)
Cl2 Cl 1.40077(9) 0.2500 0.29004(3)
S1 S 0.42775(9) 0.2500 0.53871(3)
S2 S 0.61425(9) 0.2500 0.42786(3)
O1 O 0.9305(4) 0.1304(3) 0.54897(14)
C1 C 0.4867(3) 0.2500 0.74080(11)
C2 C 0.4833(2) 0.12715(18) 0.71035(8)
H1 H 0.4870 0.0434 0.7317
C3 C 0.4747(2) 0.12766(19) 0.64863(8)
H2 H 0.4734 0.0438 0.6274
C4 C 0.4677(3) 0.2500 0.61731(11)
C5 C 0.6733(3) 0.2500 0.50808(10)
C6 C 0.8465(3) 0.2500 0.39384(10)
C7 C 0.9340(2) 0.12766(18) 0.37861(8)
H3 H 0.8750 0.0438 0.3894
C8 C 1.1071(2) 0.12730(19) 0.34775(8)
H4 H 1.1677 0.0437 0.3374
C9 C 1.1900(3) 0.2500 0.33234(10)
C10 C 0.774(2) 0.1285(14) 0.5290(7)
H5 H 0.7385 0.0277 0.5097
O1G O 0.9305(4) 0.3696(3) 0.54897(14)
C2G C 0.4833(2) 0.37285(18) 0.71035(8)
H1G H 0.4870 0.4566 0.7317
C3G C 0.4747(2) 0.37234(19) 0.64863(8)
H2G H 0.4734 0.4562 0.6274
C7G C 0.9340(2) 0.37234(18) 0.37861(8)
H3G H 0.8750 0.4562 0.3894
C8G C 1.1071(2) 0.37270(19) 0.34775(8)
H4G H 1.1677 0.4563 0.3374
C10G C 0.774(2) 0.3715(14) 0.5290(7)
H5G H 0.7385 0.4723 0.5097
C11? C 0.7839(19) 0.1147(15) 0.5218(6)
H6? H 0.6953 0.0477 0.5209
H7? H 0.8977 0.1202 0.5080
H8? H 0.7976 0.1359 0.5721
loop_
_geom_bond_atom_site_label_1
_geom_bond_atom_site_label_2
_geom_bond_site_symmetry_1
_geom_bond_site_symmetry_2
Cl1 C1 1_555 1_555
Cl2 C9 1_555 1_555
S1 C4 1_555 1_555
S2 C5 1_555 1_555
O1 C10 1_555 1_555
C1 C2 1_555 1_555
C2 H1 1_555 1_555
C3 C2 1_555 1_555
H2 C3 1_555 1_555
C4 C3 1_555 1_555
C5 S1 1_555 1_555
C6 S2 1_555 1_555
C7 C6 1_555 1_555
H3 C7 1_555 1_555
C8 C7 1_555 1_555
H4 C8 1_555 1_555
C9 C8 1_555 1_555
C10 C5 1_555 1_555
H5 C10 1_555 1_555
O1G C10G 1_555 1_555
C2G C1 1_555 1_555
H1G C2G 1_555 1_555
C3G C4 1_555 1_555
H2G C3G 1_555 1_555
C7G C6 1_555 1_555
H3G C7G 1_555 1_555
C8G C9 1_555 1_555
H4G C8G 1_555 1_555
C10G C5 1_555 1_555
H5G C10G 1_555 1_555
C2G C3G 1_555 1_555
C7G C8G 1_555 1_555

#END
