
#######################################################################
#
#                 Cambridge Crystallographic Data Centre
#                                CCDC 
#
#######################################################################
#
# If this CIF has been generated from an entry in the Cambridge 
# Structural Database, then it will include bibliographic, chemical, 
# crystal, experimental, refinement or atomic coordinate data resulting 
# from the CCDC's data processing and validation procedures.
#
#######################################################################

data_HURWAU
_chemical_formula_moiety         'C19 H16 O5'
_chemical_name_systematic        
4a,7,8-trihydroxy-3-methyl-4a,12b-dihydrotetraphene-1,6(4H,5H)-dione
_symmetry_cell_setting           monoclinic
_symmetry_space_group_name_H-M   'P 21'
_symmetry_Int_Tables_number      4
_space_group_name_Hall           'P 2yb'
loop_
_symmetry_equiv_pos_site_id
_symmetry_equiv_pos_as_xyz
1 x,y,z
2 -x,1/2+y,-z
_cell_length_a                   7.0727(2)
_cell_length_b                   8.9761(8)
_cell_length_c                   11.4306(5)
_cell_angle_alpha                90
_cell_angle_beta                 96.806(4)
_cell_angle_gamma                90
_cell_volume                     720.561
_exptl_crystal_colour            yellow
_exptl_crystal_description       block
_cell_formula_units_Z            2
loop_
_atom_site_label
_atom_site_type_symbol
_atom_site_fract_x
_atom_site_fract_y
_atom_site_fract_z
C1 C 0.5767(3) 0.6947(2) 1.05291(18)
O1 O 0.73770(19) 0.74030(18) 1.04172(13)
C2 C 0.4939(3) 0.7142(3) 1.16261(19)
H1 H 0.5648 0.7663 1.2255
C3 C 0.3220(3) 0.6615(2) 1.17811(18)
C4 C 0.2033(3) 0.5769(2) 1.08226(19)
H2 H 0.0671 0.5966 1.0883
H3 H 0.2255 0.4689 1.0950
C5 C 0.2456(3) 0.6169(2) 0.95857(18)
O2 O 0.1486(2) 0.51738(19) 0.87454(12)
H4 H 0.179(4) 0.426(4) 0.894(2)
C6 C 0.1659(3) 0.7717(2) 0.92386(19)
H5 H 0.0251 0.7667 0.9151
H6 H 0.2063 0.8420 0.9888
C7 C 0.2273(3) 0.8329(2) 0.81178(19)
C8 C 0.3991(3) 0.7772(2) 0.76960(18)
O3 O 0.1298(2) 0.9335(2) 0.75896(14)
C9 C 0.4531(3) 0.8331(3) 0.66425(18)
C10 C 0.6202(3) 0.7823(3) 0.61810(18)
O4 O 0.3479(2) 0.9385(2) 0.60334(15)
H7 H 0.249(4) 0.954(4) 0.642(3)
C11 C 0.6832(3) 0.8384(3) 0.51244(19)
O5 O 0.5869(3) 0.9466(2) 0.44596(14)
H8 H 0.477(5) 0.971(4) 0.481(3)
C12 C 0.8464(3) 0.7844(3) 0.47381(19)
H9 H 0.8867 0.8219 0.4031
C13 C 0.9537(3) 0.6746(3) 0.53803(19)
H10 H 1.0668 0.6386 0.5105
C14 C 0.8984(3) 0.6176(3) 0.64027(18)
H11 H 0.9730 0.5428 0.6825
C15 C 0.7314(3) 0.6701(2) 0.68261(19)
C16 C 0.6729(3) 0.6142(3) 0.78953(18)
H12 H 0.7476 0.5393 0.8317
C17 C 0.5140(3) 0.6645(2) 0.83305(18)
C18 C 0.4618(3) 0.6118(2) 0.95055(17)
H13 H 0.5004 0.5048 0.9582
C19 C 0.2381(4) 0.6796(3) 1.2912(2)
H14 H 0.3331 0.7237 1.3506
H15 H 0.1995 0.5820 1.3186
H16 H 0.1267 0.7451 1.2786
loop_
_geom_bond_atom_site_label_1
_geom_bond_atom_site_label_2
_geom_bond_site_symmetry_1
_geom_bond_site_symmetry_2
C1 O1 1_555 1_555
C2 C1 1_555 1_555
H1 C2 1_555 1_555
C3 C2 1_555 1_555
C4 C3 1_555 1_555
H2 C4 1_555 1_555
H3 C4 1_555 1_555
C5 C4 1_555 1_555
O2 C5 1_555 1_555
H4 O2 1_555 1_555
C6 C5 1_555 1_555
H5 C6 1_555 1_555
H6 C6 1_555 1_555
C7 C6 1_555 1_555
C8 C7 1_555 1_555
O3 C7 1_555 1_555
C9 C8 1_555 1_555
C10 C9 1_555 1_555
O4 C9 1_555 1_555
H7 O4 1_555 1_555
C11 C10 1_555 1_555
O5 C11 1_555 1_555
H8 O5 1_555 1_555
C12 C11 1_555 1_555
H9 C12 1_555 1_555
C13 C12 1_555 1_555
H10 C13 1_555 1_555
C14 C13 1_555 1_555
H11 C14 1_555 1_555
C15 C10 1_555 1_555
C16 C15 1_555 1_555
H12 C16 1_555 1_555
C17 C8 1_555 1_555
C18 C1 1_555 1_555
H13 C18 1_555 1_555
C19 C3 1_555 1_555
H14 C19 1_555 1_555
H15 C19 1_555 1_555
H16 C19 1_555 1_555
C5 C18 1_555 1_555
C14 C15 1_555 1_555
C16 C17 1_555 1_555
C17 C18 1_555 1_555

#END
