
#######################################################################
#
#                 Cambridge Crystallographic Data Centre
#                                CCDC 
#
#######################################################################
#
# If this CIF has been generated from an entry in the Cambridge 
# Structural Database, then it will include bibliographic, chemical, 
# crystal, experimental, refinement or atomic coordinate data resulting 
# from the CCDC's data processing and validation procedures.
#
#######################################################################

data_HURZOL
_chemical_formula_moiety         'C15 H10 Cl1 N3 S1'
_chemical_name_systematic        
'2-(3-chlorophenyl)-6-methylimidazo[1,2-a]pyridin-3-yl thiocyanate'
_symmetry_cell_setting           triclinic
_symmetry_space_group_name_H-M   'P -1'
_symmetry_Int_Tables_number      2
_space_group_name_Hall           '-P 1'
loop_
_symmetry_equiv_pos_site_id
_symmetry_equiv_pos_as_xyz
1 x,y,z
2 -x,-y,-z
_cell_length_a                   9.1730(15)
_cell_length_b                   11.6089(19)
_cell_length_c                   13.862(2)
_cell_angle_alpha                111.106(2)
_cell_angle_beta                 90.784(3)
_cell_angle_gamma                95.671(3)
_cell_volume                     1368.45
_exptl_crystal_colour            colorless
_exptl_crystal_description       block
_cell_formula_units_Z            4
loop_
_atom_site_label
_atom_site_type_symbol
_atom_site_fract_x
_atom_site_fract_y
_atom_site_fract_z
C1 C 0.5583(3) 0.8091(2) 0.2909(2)
H1 H 0.5609 0.8157 0.2261
C2 C 0.6363(3) 0.8957(3) 0.3723(2)
C3 C 0.7263(3) 1.0037(3) 0.3606(3)
H2 H 0.7139 1.0003 0.2907
H3 H 0.8278 1.0008 0.3763
H4 H 0.6950 1.0796 0.4073
C4 C 0.6282(3) 0.8817(3) 0.4696(2)
H5 H 0.6796 0.9417 0.5269
C5 C 0.5488(3) 0.7846(3) 0.4819(2)
H6 H 0.5483 0.7764 0.5463
C6 C 0.4668(3) 0.6957(2) 0.39686(19)
C7 C 0.3228(3) 0.5467(2) 0.28928(19)
C8 C 0.3830(3) 0.6149(2) 0.23284(18)
C9 C 0.2830(3) 0.7003(3) 0.0983(2)
C10 C 0.2159(3) 0.4355(2) 0.25355(19)
C11 C 0.2213(3) 0.3461(2) 0.2971(2)
H7 H 0.2913 0.3569 0.3497
C12 C 0.1228(3) 0.2415(3) 0.2625(2)
C13 C 0.0168(3) 0.2229(3) 0.1864(3)
H8 H -0.0490 0.1511 0.1636
C14 C 0.0100(3) 0.3135(3) 0.1443(2)
H9 H -0.0616 0.3027 0.0927
C15 C 0.1069(3) 0.4186(3) 0.1773(2)
H10 H 0.1001 0.4792 0.1487
Cl1 Cl 0.13288(10) 0.12784(8) 0.31621(8)
N1 N 0.3763(2) 0.5958(2) 0.38919(16)
N2 N 0.4754(2) 0.71166(19) 0.30339(15)
N3 N 0.2208(3) 0.7794(3) 0.0979(2)
S1 S 0.38226(7) 0.58575(6) 0.10139(5)
C16 C 0.1220(3) 0.3554(2) 0.6545(2)
H11 H 0.1084 0.3531 0.5873
C17 C 0.0465(3) 0.2694(2) 0.6847(2)
C18 C -0.0644(4) 0.1727(3) 0.6118(3)
H12 H -0.0711 0.1861 0.5475
H13 H -0.1584 0.1782 0.6418
H14 H -0.0348 0.0917 0.5992
C19 C 0.0701(3) 0.2753(3) 0.7873(2)
H15 H 0.0200 0.2154 0.8083
C20 C 0.1635(3) 0.3658(2) 0.8557(2)
H16 H 0.1772 0.3683 0.9231
C21 C 0.2395(3) 0.4553(2) 0.82465(19)
C22 C 0.3035(3) 0.5454(2) 0.71326(19)
C23 C 0.1896(3) 0.6164(3) 0.5706(2)
C24 C 0.3701(3) 0.6116(2) 0.81017(18)
C25 C 0.4668(3) 0.7287(2) 0.84566(19)
C26 C 0.5662(3) 0.7533(2) 0.9276(2)
H17 H 0.5720 0.6956 0.9594
C27 C 0.6565(3) 0.8628(2) 0.9624(2)
C28 C 0.6516(3) 0.9498(3) 0.9173(2)
H18 H 0.7148 1.0232 0.9407
C29 C 0.5506(3) 0.9255(3) 0.8365(2)
H19 H 0.5443 0.9841 0.8057
C30 C 0.4593(3) 0.8172(3) 0.8005(2)
H20 H 0.3918 0.8025 0.7456
Cl2 Cl 0.78141(10) 0.89248(7) 1.06604(6)
N4 N 0.3317(2) 0.55476(19) 0.87757(16)
N5 N 0.2184(2) 0.44561(19) 0.72335(15)
N6 N 0.0921(4) 0.6594(4) 0.5539(2)
S2 S 0.33875(7) 0.55235(7) 0.59241(5)
loop_
_geom_bond_atom_site_label_1
_geom_bond_atom_site_label_2
_geom_bond_site_symmetry_1
_geom_bond_site_symmetry_2
C1 H1 1_555 1_555
C2 C1 1_555 1_555
C3 C2 1_555 1_555
H2 C3 1_555 1_555
H3 C3 1_555 1_555
H4 C3 1_555 1_555
C4 C2 1_555 1_555
H5 C4 1_555 1_555
C5 C4 1_555 1_555
H6 C5 1_555 1_555
C6 C5 1_555 1_555
C7 C8 1_555 1_555
C8 N2 1_555 1_555
C9 N3 1_555 1_555
C10 C7 1_555 1_555
C11 C10 1_555 1_555
H7 C11 1_555 1_555
C12 C11 1_555 1_555
C13 C12 1_555 1_555
H8 C13 1_555 1_555
C14 C13 1_555 1_555
H9 C14 1_555 1_555
C15 C10 1_555 1_555
H10 C15 1_555 1_555
Cl1 C12 1_555 1_555
N1 C6 1_555 1_555
N2 C1 1_555 1_555
S1 C8 1_555 1_555
C16 H11 1_555 1_555
C17 C16 1_555 1_555
C18 C17 1_555 1_555
H12 C18 1_555 1_555
H13 C18 1_555 1_555
H14 C18 1_555 1_555
C19 C17 1_555 1_555
H15 C19 1_555 1_555
C20 C19 1_555 1_555
H16 C20 1_555 1_555
C21 C20 1_555 1_555
C22 C24 1_555 1_555
C23 N6 1_555 1_555
C24 C25 1_555 1_555
C25 C26 1_555 1_555
C26 H17 1_555 1_555
C27 C26 1_555 1_555
C28 C27 1_555 1_555
H18 C28 1_555 1_555
C29 C28 1_555 1_555
H19 C29 1_555 1_555
C30 C25 1_555 1_555
H20 C30 1_555 1_555
Cl2 C27 1_555 1_555
N4 C21 1_555 1_555
N5 C16 1_555 1_555
S2 C22 1_555 1_555
C6 N2 1_555 1_555
C7 N1 1_555 1_555
C9 S1 1_555 1_555
C14 C15 1_555 1_555
C21 N5 1_555 1_555
C22 N5 1_555 1_555
C23 S2 1_555 1_555
C24 N4 1_555 1_555
C29 C30 1_555 1_555

#END
