
#######################################################################
#
#                 Cambridge Crystallographic Data Centre
#                                CCDC 
#
#######################################################################
#
# If this CIF has been generated from an entry in the Cambridge 
# Structural Database, then it will include bibliographic, chemical, 
# crystal, experimental, refinement or atomic coordinate data resulting 
# from the CCDC's data processing and validation procedures.
#
#######################################################################

data_HURZIF
_chemical_formula_moiety         'C31 H29 Br1 N2 O2 S1'
_chemical_name_systematic        
8-benzyl-4-bromo-3a-methyl-1-((4-methylphenyl)sulfonyl)-3-phenyl-1,2,3,3a,8,8a-hexahydropyrrolo[2,3-b]indole
_symmetry_cell_setting           orthorhombic
_symmetry_space_group_name_H-M   'P 21 21 21'
_symmetry_Int_Tables_number      19
_space_group_name_Hall           'P 2ac 2ab'
loop_
_symmetry_equiv_pos_site_id
_symmetry_equiv_pos_as_xyz
1 x,y,z
2 1/2-x,-y,1/2+z
3 -x,1/2+y,1/2-z
4 1/2+x,1/2-y,-z
_cell_length_a                   9.5132(9)
_cell_length_b                   13.7101(12)
_cell_length_c                   21.3394(19)
_cell_angle_alpha                90
_cell_angle_beta                 90
_cell_angle_gamma                90
_cell_volume                     2783.23
_exptl_crystal_colour            colorless
_exptl_crystal_description       prismatic
_cell_formula_units_Z            4
loop_
_atom_site_label
_atom_site_type_symbol
_atom_site_fract_x
_atom_site_fract_y
_atom_site_fract_z
Br1 Br -0.03085(7) 0.05349(4) 0.05197(2)
S1 S 0.26114(12) 0.17457(8) 0.35335(4)
N1 N 0.3643(4) 0.0265(2) 0.21655(14)
N2 N 0.2735(4) 0.1567(2) 0.27842(13)
O1 O 0.3149(3) 0.2698(2) 0.36503(13)
O2 O 0.3229(3) 0.0907(2) 0.38160(12)
C1 C 0.3349(5) 0.0074(3) 0.15435(18)
C2 C 0.4241(5) -0.0356(3) 0.11071(19)
H1 H 0.5142 -0.0556 0.1216
C3 C 0.3736(7) -0.0474(3) 0.0506(2)
H2 H 0.4315 -0.0755 0.0204
C4 C 0.2420(8) -0.0194(3) 0.03403(19)
H3 H 0.2108 -0.0284 -0.0068
C5 C 0.1545(6) 0.0227(3) 0.07816(19)
C6 C 0.2008(4) 0.0387(3) 0.13925(16)
C7 C 0.1290(4) 0.0816(3) 0.19688(17)
C8 C 0.2427(4) 0.0628(3) 0.24886(15)
H4 H 0.2089 0.0154 0.2798
C9 C 0.2399(5) 0.2340(3) 0.23319(17)
H5 H 0.3183 0.2453 0.2050
H6 H 0.2176 0.2945 0.2546
C10 C 0.1125(4) 0.1960(3) 0.19731(16)
H7 H 0.0299 0.2105 0.2231
C11 C 0.0918(4) 0.2483(3) 0.13616(17)
C12 C -0.0347(5) 0.2939(3) 0.12277(19)
H8 H -0.1072 0.2918 0.1520
C13 C -0.0547(6) 0.3421(3) 0.0671(2)
H9 H -0.1406 0.3719 0.0590
C14 C 0.0491(7) 0.3467(3) 0.0240(2)
H10 H 0.0339 0.3786 -0.0139
C15 C 0.1774(6) 0.3041(3) 0.03604(19)
H11 H 0.2496 0.3087 0.0068
C16 C 0.1989(5) 0.2543(3) 0.09190(19)
H12 H 0.2852 0.2248 0.0998
C17 C -0.0082(5) 0.0320(3) 0.2130(2)
H13 H -0.0788 0.0506 0.1832
H14 H -0.0372 0.0513 0.2543
H15 H 0.0043 -0.0375 0.2118
C18 C 0.4762(5) -0.0179(3) 0.2523(2)
H16 H 0.5056 0.0275 0.2847
H17 H 0.5558 -0.0285 0.2248
C19 C 0.4385(4) -0.1139(3) 0.28310(19)
C20 C 0.3908(5) -0.1911(3) 0.2481(2)
H18 H 0.3797 -0.1847 0.2050
C21 C 0.3592(6) -0.2787(4) 0.2773(3)
H19 H 0.3254 -0.3308 0.2538
C22 C 0.3776(6) -0.2886(5) 0.3404(3)
H20 H 0.3584 -0.3480 0.3597
C23 C 0.4231(6) -0.2131(5) 0.3748(3)
H21 H 0.4331 -0.2199 0.4180
C24 C 0.4550(5) -0.1254(4) 0.3466(2)
H22 H 0.4880 -0.0738 0.3707
C25 C 0.0826(4) 0.1741(3) 0.37407(16)
C26 C 0.0077(5) 0.2595(3) 0.3783(2)
H23 H 0.0517 0.3188 0.3703
C27 C -0.1310(6) 0.2574(4) 0.3943(3)
H24 H -0.1804 0.3158 0.3968
C28 C -0.2002(5) 0.1715(4) 0.4067(2)
C29 C -0.1243(6) 0.0861(3) 0.4013(2)
H25 H -0.1687 0.0267 0.4084
C30 C 0.0143(5) 0.0874(3) 0.38584(18)
H26 H 0.0636 0.0290 0.3831
C31 C -0.3522(6) 0.1702(5) 0.4260(3)
H27 H -0.3847 0.1040 0.4281
H28 H -0.4071 0.2056 0.3958
H29 H -0.3619 0.2003 0.4664
loop_
_geom_bond_atom_site_label_1
_geom_bond_atom_site_label_2
_geom_bond_site_symmetry_1
_geom_bond_site_symmetry_2
Br1 C5 1_555 1_555
S1 N2 1_555 1_555
N1 C1 1_555 1_555
N2 C8 1_555 1_555
O1 S1 1_555 1_555
O2 S1 1_555 1_555
C1 C2 1_555 1_555
C2 H1 1_555 1_555
C3 C2 1_555 1_555
H2 C3 1_555 1_555
C4 C3 1_555 1_555
H3 C4 1_555 1_555
C5 C4 1_555 1_555
C6 C1 1_555 1_555
C7 C6 1_555 1_555
C8 N1 1_555 1_555
H4 C8 1_555 1_555
C9 N2 1_555 1_555
H5 C9 1_555 1_555
H6 C9 1_555 1_555
C10 C7 1_555 1_555
H7 C10 1_555 1_555
C11 C10 1_555 1_555
C12 C11 1_555 1_555
H8 C12 1_555 1_555
C13 C12 1_555 1_555
H9 C13 1_555 1_555
C14 C13 1_555 1_555
H10 C14 1_555 1_555
C15 C14 1_555 1_555
H11 C15 1_555 1_555
C16 C11 1_555 1_555
H12 C16 1_555 1_555
C17 C7 1_555 1_555
H13 C17 1_555 1_555
H14 C17 1_555 1_555
H15 C17 1_555 1_555
C18 N1 1_555 1_555
H16 C18 1_555 1_555
H17 C18 1_555 1_555
C19 C18 1_555 1_555
C20 C19 1_555 1_555
H18 C20 1_555 1_555
C21 C20 1_555 1_555
H19 C21 1_555 1_555
C22 C21 1_555 1_555
H20 C22 1_555 1_555
C23 C22 1_555 1_555
H21 C23 1_555 1_555
C24 C19 1_555 1_555
H22 C24 1_555 1_555
C25 S1 1_555 1_555
C26 C25 1_555 1_555
H23 C26 1_555 1_555
C27 C26 1_555 1_555
H24 C27 1_555 1_555
C28 C27 1_555 1_555
C29 C28 1_555 1_555
H25 C29 1_555 1_555
C30 C25 1_555 1_555
H26 C30 1_555 1_555
C31 C28 1_555 1_555
H27 C31 1_555 1_555
H28 C31 1_555 1_555
H29 C31 1_555 1_555
C5 C6 1_555 1_555
C7 C8 1_555 1_555
C9 C10 1_555 1_555
C15 C16 1_555 1_555
C23 C24 1_555 1_555
C29 C30 1_555 1_555

#END
