
#######################################################################
#
#                 Cambridge Crystallographic Data Centre
#                                CCDC 
#
#######################################################################
#
# If this CIF has been generated from an entry in the Cambridge 
# Structural Database, then it will include bibliographic, chemical, 
# crystal, experimental, refinement or atomic coordinate data resulting 
# from the CCDC's data processing and validation procedures.
#
#######################################################################

data_HUSBED
_chemical_formula_moiety         'C14 H14 F3 N1 O2'
_chemical_name_systematic        
'Methyl 3-(5-methyl-2-(trifluoromethyl)-1H-indol-3-yl)propanoate'
_symmetry_cell_setting           triclinic
_symmetry_space_group_name_H-M   'P -1'
_symmetry_Int_Tables_number      2
_space_group_name_Hall           '-P 1'
loop_
_symmetry_equiv_pos_site_id
_symmetry_equiv_pos_as_xyz
1 x,y,z
2 -x,-y,-z
_cell_length_a                   9.187(2)
_cell_length_b                   9.510(2)
_cell_length_c                   17.170(4)
_cell_angle_alpha                74.026(3)
_cell_angle_beta                 82.092(3)
_cell_angle_gamma                77.180(3)
_cell_volume                     1401.55
_chemical_melting_point          156-158deg.C
_cell_formula_units_Z            4
loop_
_atom_site_label
_atom_site_type_symbol
_atom_site_fract_x
_atom_site_fract_y
_atom_site_fract_z
C1 C 0.7083(8) -0.2966(9) 0.3668(5)
H1 H 0.7417 -0.2425 0.3139
H2 H 0.6812 -0.3861 0.3628
H3 H 0.7874 -0.3221 0.4023
C2 C 0.5752(6) -0.2020(6) 0.4003(4)
C3 C 0.5099(7) -0.2547(7) 0.4787(4)
H4 H 0.5516 -0.3489 0.5089
C4 C 0.3880(7) -0.1743(6) 0.5131(3)
H5 H 0.3486 -0.2113 0.5658
C5 C 0.3251(5) -0.0346(5) 0.4660(3)
C6 C 0.3867(5) 0.0230(5) 0.3866(3)
C7 C 0.5127(6) -0.0635(6) 0.3548(3)
H6 H 0.5544 -0.0270 0.3025
C8 C 0.2960(5) 0.1663(5) 0.3555(3)
C9 C 0.1869(6) 0.1879(5) 0.4162(3)
C10 C 0.0646(7) 0.3123(6) 0.4181(3)
C11 C 0.3237(6) 0.2727(6) 0.2746(3)
H7 H 0.2290 0.3328 0.2559
H8 H 0.3692 0.2167 0.2351
C12 C 0.4268(6) 0.3746(6) 0.2809(3)
H9 H 0.3921 0.4129 0.3284
H10 H 0.5269 0.3160 0.2888
C13 C 0.4340(5) 0.5033(5) 0.2078(3)
C14 C 0.5082(8) 0.7367(6) 0.1599(4)
H11 H 0.5416 0.7107 0.1093
H12 H 0.5783 0.7870 0.1724
H13 H 0.4116 0.8013 0.1555
F1 F -0.0238(8) 0.3041(7) 0.4773(4)
F2 F 0.0987(7) 0.4316(7) 0.4105(9)
F3 F -0.0150(12) 0.3525(12) 0.3613(5)
N1 N 0.2037(5) 0.0674(5) 0.4825(2)
H27 H 0.1468 0.0579 0.5270
O1 O 0.3874(5) 0.5167(4) 0.1444(2)
O2 O 0.4977(4) 0.6030(4) 0.2238(2)
C15 C 1.0112(7) 0.7573(8) 0.1418(4)
H14 H 0.9873 0.7336 0.1995
H15 H 0.9779 0.8621 0.1193
H16 H 1.1176 0.7314 0.1303
C16 C 0.9344(6) 0.6711(6) 0.1046(4)
C17 C 0.8874(6) 0.7285(6) 0.0267(4)
H17 H 0.9063 0.8214 -0.0028
C18 C 0.8137(6) 0.6532(6) -0.0089(3)
H18 H 0.7826 0.6944 -0.0611
C19 C 0.7878(5) 0.5148(5) 0.0356(3)
C20 C 0.8345(5) 0.4518(5) 0.1148(3)
C21 C 0.9074(6) 0.5317(6) 0.1484(3)
H19 H 0.9384 0.4915 0.2007
C22 C 0.7937(5) 0.3075(5) 0.1426(3)
C23 C 0.7253(5) 0.2916(5) 0.0814(3)
C24 C 0.6609(6) 0.1684(6) 0.0756(3)
C25 C 0.8331(5) 0.1994(6) 0.2221(3)
H20 H 0.7665 0.1284 0.2370
H21 H 0.8183 0.2531 0.2640
C26 C 0.9937(5) 0.1158(6) 0.2182(3)
H22 H 1.0126 0.0760 0.1707
H23 H 1.0601 0.1853 0.2117
C27 C 1.0300(5) -0.0092(5) 0.2918(3)
C28 C 1.1973(7) -0.2298(6) 0.3446(4)
H24 H 1.1908 -0.1987 0.3939
H25 H 1.2984 -0.2776 0.3328
H26 H 1.1315 -0.2985 0.3512
F4 F 0.5249(6) 0.1998(7) 0.0646(7)
F5 F 0.7164(9) 0.1123(7) 0.0170(4)
F6 F 0.6716(10) 0.0580(7) 0.1364(3)
N2 N 0.7202(4) 0.4165(5) 0.0169(2)
H28 H 0.6808 0.4299 -0.0278
O3 O 1.1544(4) -0.1022(4) 0.2790(2)
O4 O 0.9556(4) -0.0241(4) 0.3556(2)
loop_
_geom_bond_atom_site_label_1
_geom_bond_atom_site_label_2
_geom_bond_site_symmetry_1
_geom_bond_site_symmetry_2
C1 H1 1_555 1_555
H2 C1 1_555 1_555
H3 C1 1_555 1_555
C2 C1 1_555 1_555
C3 C2 1_555 1_555
H4 C3 1_555 1_555
C4 C3 1_555 1_555
H5 C4 1_555 1_555
C5 C4 1_555 1_555
C6 C5 1_555 1_555
C7 C2 1_555 1_555
H6 C7 1_555 1_555
C8 C6 1_555 1_555
C9 C8 1_555 1_555
C10 C9 1_555 1_555
C11 C8 1_555 1_555
H7 C11 1_555 1_555
H8 C11 1_555 1_555
C12 C11 1_555 1_555
H9 C12 1_555 1_555
H10 C12 1_555 1_555
C13 C12 1_555 1_555
C14 H11 1_555 1_555
H12 C14 1_555 1_555
H13 C14 1_555 1_555
C15 H14 1_555 1_555
H15 C15 1_555 1_555
H16 C15 1_555 1_555
C16 C15 1_555 1_555
C17 C16 1_555 1_555
H17 C17 1_555 1_555
C18 C17 1_555 1_555
H18 C18 1_555 1_555
C19 C18 1_555 1_555
C20 C19 1_555 1_555
C21 C16 1_555 1_555
H19 C21 1_555 1_555
C22 C20 1_555 1_555
C23 C22 1_555 1_555
C24 C23 1_555 1_555
C25 C22 1_555 1_555
H20 C25 1_555 1_555
H21 C25 1_555 1_555
C26 C25 1_555 1_555
H22 C26 1_555 1_555
H23 C26 1_555 1_555
C27 C26 1_555 1_555
C28 H24 1_555 1_555
H25 C28 1_555 1_555
H26 C28 1_555 1_555
F1 C10 1_555 1_555
F2 C10 1_555 1_555
F3 C10 1_555 1_555
F4 C24 1_555 1_555
F5 C24 1_555 1_555
F6 C24 1_555 1_555
N1 C5 1_555 1_555
H27 N1 1_555 1_555
N2 C19 1_555 1_555
H28 N2 1_555 1_555
O1 C13 1_555 1_555
O2 C13 1_555 1_555
O3 C27 1_555 1_555
O4 C27 1_555 1_555
C6 C7 1_555 1_555
C9 N1 1_555 1_555
C14 O2 1_555 1_555
C20 C21 1_555 1_555
C23 N2 1_555 1_555
C28 O3 1_555 1_555

#END
