
#######################################################################
#
#                 Cambridge Crystallographic Data Centre
#                                CCDC 
#
#######################################################################
#
# If this CIF has been generated from an entry in the Cambridge 
# Structural Database, then it will include bibliographic, chemical, 
# crystal, experimental, refinement or atomic coordinate data resulting 
# from the CCDC's data processing and validation procedures.
#
#######################################################################

data_HUSBIG
_chemical_formula_moiety         '2(C19 H23 N2 O1 1+),C4 H4 O6 2-,2(H2 O1)'
_chemical_name_systematic        
'bis((3R,4S,8S,9R)-Cinchonidinium) (2R,3R)-tartrate dihydrate'
_symmetry_cell_setting           monoclinic
_symmetry_space_group_name_H-M   'C 2'
_symmetry_Int_Tables_number      5
_space_group_name_Hall           'C 2y'
loop_
_symmetry_equiv_pos_site_id
_symmetry_equiv_pos_as_xyz
1 x,y,z
2 -x,y,-z
3 1/2+x,1/2+y,z
4 1/2-x,1/2+y,-z
_cell_length_a                   19.960(3)
_cell_length_b                   6.625(2)
_cell_length_c                   15.530(2)
_cell_angle_alpha                90
_cell_angle_beta                 106.680(10)
_cell_angle_gamma                90
_cell_volume                     1967.2
_exptl_crystal_colour            colorless
_exptl_crystal_description       block
_cell_formula_units_Z            2
_exptl_crystal_recrystallization_method ethanol-water
loop_
_atom_site_label
_atom_site_type_symbol
_atom_site_fract_x
_atom_site_fract_y
_atom_site_fract_z
O1 O 0.79220(10) 0.5001(4) 0.2810(2)
N1 N 0.74180(10) 0.1056(5) 0.35040(10)
N2 N 0.8394(2) 0.2624(9) -0.0033(2)
C1 C 0.8650(2) 0.1144(8) 0.0583(2)
C2 C 0.9005(2) -0.0500(10) 0.0336(3)
C3 C 0.9278(2) -0.2020(10) 0.0925(4)
C4 C 0.9216(2) -0.1971(9) 0.1799(3)
C5 C 0.8881(2) -0.0391(6) 0.2064(2)
C6 C 0.8584(2) 0.1200(7) 0.1475(2)
C7 C 0.82210(10) 0.2872(6) 0.1703(2)
C8 C 0.7973(2) 0.4341(7) 0.1073(2)
C9 C 0.8069(2) 0.4119(9) 0.0210(2)
C10 C 0.80840(10) 0.3008(5) 0.2614(2)
C11 C 0.74690(10) 0.1606(5) 0.2585(2)
C12 C 0.67550(10) 0.2438(6) 0.2035(2)
C13 C 0.6214(2) 0.1976(6) 0.2525(2)
C14 C 0.7135(2) 0.2716(7) 0.3954(2)
C15 C 0.6391(2) 0.3218(8) 0.3399(2)
C16 C 0.6954(2) -0.0770(6) 0.3405(2)
C17 C 0.6222(2) -0.0257(6) 0.2769(2)
C18 C 0.6014(2) -0.1598(7) 0.1960(2)
C19 C 0.5421(3) -0.2490(10) 0.1680(4)
H1 H 0.8300(10) 0.561(6) 0.308(2)
H5 H 0.7830(10) 0.069(6) 0.381(2)
H6 H 0.9053 -0.0546 -0.0242
H7 H 0.9507 -0.3094 0.0744
H8 H 0.9402 -0.3009 0.2199
H9 H 0.8849 -0.0365 0.2649
H10 H 0.7745 0.5468 0.1209
H11 H 0.7885 0.5116 -0.0214
H12 H 0.8498 0.2544 0.3081
H13 H 0.7549 0.0351 0.2295
H14 H 0.6786 0.3885 0.1960
H15 H 0.6617 0.1819 0.1445
H16 H 0.5748 0.2349 0.2144
H17 H 0.7428 0.3904 0.4009
H18 H 0.7136 0.2295 0.4552
H19 H 0.6352 0.4648 0.3259
H20 H 0.6065 0.2896 0.3737
H21 H 0.6913 -0.1172 0.3988
H22 H 0.7156 -0.1885 0.3160
H23 H 0.5881 -0.0454 0.3107
H24 H 0.6336 -0.1795 0.1638
H25 H 0.5086 -0.2327 0.1986
H26 H 0.5325 -0.3306 0.1171
O2 O 0.86930(10) 0.9863(4) 0.4509(2)
O3 O 0.87960(10) 1.2929(5) 0.5111(2)
O4 O 1.01140(10) 1.2489(5) 0.60070(10)
C20 C 0.9040(2) 1.1285(6) 0.4975(2)
C21 C 0.98270(10) 1.0962(6) 0.5379(2)
H2 H 0.982(2) 1.341(5) 0.599(3)
H27 H 0.9906 0.9651 0.5683
C21A C 1.01730(10) 1.0962(6) 0.4621(2)
O4A O 0.98860(10) 1.2489(5) 0.39930(10)
H2A H 1.018(2) 1.341(5) 0.401(3)
C20A C 1.0960(2) 1.1285(6) 0.5025(2)
O2A O 1.13070(10) 0.9863(4) 0.5491(2)
O3A O 1.12040(10) 1.2929(5) 0.4889(2)
H27A H 1.0094 0.9651 0.4317
O5 O 0.9137(2) 0.6346(6) 0.3968(3)
H3 H 0.897(3) 0.735(5) 0.419(4)
H4 H 0.911(3) 0.531(5) 0.430(3)
loop_
_geom_bond_atom_site_label_1
_geom_bond_atom_site_label_2
_geom_bond_site_symmetry_1
_geom_bond_site_symmetry_2
O1 C10 1_555 1_555
O2 C20 1_555 1_555
O3 C20 1_555 1_555
O4 C21 1_555 1_555
O5 H3 1_555 1_555
N1 C11 1_555 1_555
N2 C1 1_555 1_555
C1 C2 1_555 1_555
C2 C3 1_555 1_555
C3 C4 1_555 1_555
C4 C5 1_555 1_555
C5 C6 1_555 1_555
C6 C1 1_555 1_555
C7 C6 1_555 1_555
C8 C7 1_555 1_555
C9 N2 1_555 1_555
C10 C7 1_555 1_555
C11 C10 1_555 1_555
C12 C11 1_555 1_555
C13 C12 1_555 1_555
C14 N1 1_555 1_555
C15 C13 1_555 1_555
C16 N1 1_555 1_555
C17 C13 1_555 1_555
C18 C17 1_555 1_555
C19 C18 1_555 1_555
C20 C21 1_555 1_555
C21 H27 1_555 1_555
H1 O1 1_555 1_555
H2 O4 1_555 1_555
H4 O5 1_555 1_555
H5 N1 1_555 1_555
H6 C2 1_555 1_555
H7 C3 1_555 1_555
H8 C4 1_555 1_555
H9 C5 1_555 1_555
H10 C8 1_555 1_555
H11 C9 1_555 1_555
H12 C10 1_555 1_555
H13 C11 1_555 1_555
H14 C12 1_555 1_555
H15 C12 1_555 1_555
H16 C13 1_555 1_555
H17 C14 1_555 1_555
H18 C14 1_555 1_555
H19 C15 1_555 1_555
H20 C15 1_555 1_555
H21 C16 1_555 1_555
H22 C16 1_555 1_555
H23 C17 1_555 1_555
H24 C18 1_555 1_555
H25 C19 1_555 1_555
H26 C19 1_555 1_555
C21A C21 1_555 1_555
O4A C21A 1_555 1_555
H2A O4A 1_555 1_555
C20A C21A 1_555 1_555
O2A C20A 1_555 1_555
O3A C20A 1_555 1_555
H27A C21A 1_555 1_555
C8 C9 1_555 1_555
C14 C15 1_555 1_555
C16 C17 1_555 1_555

#END
