
#######################################################################
#
#                 Cambridge Crystallographic Data Centre
#                                CCDC 
#
#######################################################################
#
# If this CIF has been generated from an entry in the Cambridge 
# Structural Database, then it will include bibliographic, chemical, 
# crystal, experimental, refinement or atomic coordinate data resulting 
# from the CCDC's data processing and validation procedures.
#
#######################################################################

data_HUSDOQ
_chemical_formula_moiety         'C18 H28 O4 Si1'
_chemical_name_systematic        
2,15-dimethyl-10-((trimethylsilyl)oxy)-4,12-dioxatetracyclo[7.3.3.0^1,9^.0^2,6^]pentadec-6-en-5-one
_symmetry_cell_setting           orthorhombic
_symmetry_space_group_name_H-M   'P 21 21 21'
_symmetry_Int_Tables_number      19
_space_group_name_Hall           'P 2ac 2ab'
loop_
_symmetry_equiv_pos_site_id
_symmetry_equiv_pos_as_xyz
1 x,y,z
2 1/2-x,-y,1/2+z
3 1/2+x,1/2-y,-z
4 -x,1/2+y,1/2-z
_cell_length_a                   7.2691(8)
_cell_length_b                   11.4811(10)
_cell_length_c                   21.668(2)
_cell_angle_alpha                90
_cell_angle_beta                 90
_cell_angle_gamma                90
_cell_volume                     1808.35
_exptl_crystal_colour            colorless
_exptl_crystal_description       prism
_cell_formula_units_Z            4
loop_
_atom_site_label
_atom_site_type_symbol
_atom_site_fract_x
_atom_site_fract_y
_atom_site_fract_z
Si1 Si -0.14826(14) -0.83124(7) 1.12225(4)
O1 O -0.1903(3) -0.97112(18) 1.11010(10)
O2 O -0.3582(3) -1.19003(19) 1.21418(9)
O3 O -0.2352(4) -1.4927(2) 1.20722(12)
C1 C -0.2108(4) -1.3581(2) 1.12923(14)
C2 C -0.3153(4) -1.0401(3) 1.14434(14)
H1 H -0.4155 -0.9902 1.1590
O4 O 0.0393(4) -1.4857(2) 1.16022(13)
C3 C -0.4600(4) -1.2251(3) 1.15959(14)
C4 C -0.1360(4) -1.2849(3) 1.08990(13)
H2 H -0.0122 -1.2909 1.0796
C5 C -0.3991(4) -1.1421(2) 1.10681(13)
C6 C -0.5264(5) -1.4128(3) 1.09689(18)
H3 H -0.5211 -1.3673 1.0598
H4 H -0.6518 -1.4184 1.1106
H5 H -0.4792 -1.4894 1.0889
C7 C -0.5816(5) -1.1089(3) 1.07471(16)
H6 H -0.6176 -1.1753 1.0490
C8 C -0.2301(5) -1.1008(3) 1.19921(14)
H7 H -0.1113 -1.1336 1.1886
H8 H -0.2147 -1.0473 1.2335
C9 C -0.1151(5) -1.4498(3) 1.16504(16)
C10 C -0.6684(4) -1.2020(3) 1.17021(17)
H9 H -0.7400 -1.2709 1.1604
H10 H -0.6914 -1.1808 1.2128
C11 C -0.7194(5) -1.1012(3) 1.12689(19)
H11 H -0.8440 -1.1101 1.1115
H12 H -0.7095 -1.0270 1.1480
C12 C -0.2535(5) -1.1913(3) 1.06189(14)
H13 H -0.3155 -1.2227 1.0259
H14 H -0.1749 -1.1282 1.0481
C13 C -0.5714(6) -1.0023(3) 1.03238(18)
H15 H -0.5547 -0.9334 1.0569
H16 H -0.6835 -0.9959 1.0092
H17 H -0.4696 -1.0107 1.0045
C14 C -0.4104(4) -1.3542(2) 1.14704(14)
C15 C -0.3656(6) -0.7479(3) 1.1300(2)
H18 H -0.4298 -0.7482 1.0913
H19 H -0.3383 -0.6691 1.1416
H20 H -0.4413 -0.7833 1.1611
C16 C -0.4087(5) -1.4295(3) 1.20647(17)
H21 H -0.4188 -1.3804 1.2427
H22 H -0.5112 -1.4836 1.2063
C17 C -0.0088(7) -0.8112(4) 1.1927(2)
H23 H -0.0772 -0.8375 1.2279
H24 H 0.0205 -0.7302 1.1975
H25 H 0.1028 -0.8554 1.1892
C18 C -0.0207(9) -0.7854(4) 1.0530(2)
H26 H 0.0922 -0.8284 1.0504
H27 H 0.0060 -0.7036 1.0557
H28 H -0.0939 -0.8002 1.0170
loop_
_geom_bond_atom_site_label_1
_geom_bond_atom_site_label_2
_geom_bond_site_symmetry_1
_geom_bond_site_symmetry_2
Si1 O1 1_555 1_555
O1 C2 1_555 1_555
O2 C3 1_555 1_555
O3 C9 1_555 1_555
C1 C4 1_555 1_555
C2 H1 1_555 1_555
O4 C9 1_555 1_555
C3 C5 1_555 1_555
C4 H2 1_555 1_555
C5 C2 1_555 1_555
C6 H3 1_555 1_555
H4 C6 1_555 1_555
H5 C6 1_555 1_555
C7 C5 1_555 1_555
H6 C7 1_555 1_555
C8 O2 1_555 1_555
H7 C8 1_555 1_555
H8 C8 1_555 1_555
C9 C1 1_555 1_555
C10 C3 1_555 1_555
H9 C10 1_555 1_555
H10 C10 1_555 1_555
C11 C7 1_555 1_555
H11 C11 1_555 1_555
H12 C11 1_555 1_555
C12 C4 1_555 1_555
H13 C12 1_555 1_555
H14 C12 1_555 1_555
C13 C7 1_555 1_555
H15 C13 1_555 1_555
H16 C13 1_555 1_555
H17 C13 1_555 1_555
C14 C1 1_555 1_555
C15 Si1 1_555 1_555
H18 C15 1_555 1_555
H19 C15 1_555 1_555
H20 C15 1_555 1_555
C16 O3 1_555 1_555
H21 C16 1_555 1_555
H22 C16 1_555 1_555
C17 Si1 1_555 1_555
H23 C17 1_555 1_555
H24 C17 1_555 1_555
H25 C17 1_555 1_555
C18 Si1 1_555 1_555
H26 C18 1_555 1_555
H27 C18 1_555 1_555
H28 C18 1_555 1_555
C2 C8 1_555 1_555
C3 C14 1_555 1_555
C5 C12 1_555 1_555
C6 C14 1_555 1_555
C10 C11 1_555 1_555
C14 C16 1_555 1_555

#END
