
#######################################################################
#
#                 Cambridge Crystallographic Data Centre
#                                CCDC 
#
#######################################################################
#
# If this CIF has been generated from an entry in the Cambridge 
# Structural Database, then it will include bibliographic, chemical, 
# crystal, experimental, refinement or atomic coordinate data resulting 
# from the CCDC's data processing and validation procedures.
#
#######################################################################

data_HUSDEG
_chemical_formula_moiety         'C14 H22 O4'
_chemical_name_systematic        
8a-hydroxy-5a-(hydroxymethyl)-6,8b-dimethyldecahydro-3H-indeno[4,5-c]furan-3-one
_symmetry_cell_setting           orthorhombic
_symmetry_space_group_name_H-M   'P 21 21 21'
_symmetry_Int_Tables_number      19
_space_group_name_Hall           'P 2ac 2ab'
loop_
_symmetry_equiv_pos_site_id
_symmetry_equiv_pos_as_xyz
1 x,y,z
2 1/2-x,-y,1/2+z
3 -x,1/2+y,1/2-z
4 1/2+x,1/2-y,-z
_cell_length_a                   6.5953(15)
_cell_length_b                   9.079(2)
_cell_length_c                   21.403(5)
_cell_angle_alpha                90
_cell_angle_beta                 90
_cell_angle_gamma                90
_cell_volume                     1281.58
_exptl_crystal_colour            colorless
_exptl_crystal_description       Plate
_cell_formula_units_Z            4
loop_
_atom_site_label
_atom_site_type_symbol
_atom_site_fract_x
_atom_site_fract_y
_atom_site_fract_z
O1 O 0.4760(3) 0.47972(17) 0.19935(7)
H1 H 0.4539 0.3952 0.2110
O2 O 0.4715(3) 0.19971(17) 0.21565(8)
H2 H 0.4989 0.1154 0.2265
O3 O 0.3315(3) 0.5864(2) 0.01380(8)
C1 C 0.6589(4) 0.3151(2) 0.12796(11)
O4 O 0.5442(3) 0.6381(2) -0.06306(7)
C2 C 0.4902(4) 0.2115(2) 0.14947(11)
H3 H 0.3624 0.2460 0.1325
H4 H 0.5156 0.1142 0.1324
C3 C 0.6642(4) 0.3028(2) 0.05601(10)
H5 H 0.7285 0.2107 0.0444
H6 H 0.5264 0.3011 0.0402
C4 C 0.5573(4) 0.5870(2) 0.10037(10)
C5 C 0.3385(4) 0.5549(3) 0.07929(11)
H7 H 0.3042 0.4526 0.0870
H8 H 0.2435 0.6168 0.1018
C6 C 0.6768(4) 0.5761(2) 0.03966(11)
H9 H 0.7786 0.6547 0.0385
C7 C 0.9148(4) 0.3784(3) 0.20612(11)
H10 H 0.8454 0.3518 0.2445
H11 H 1.0592 0.3852 0.2142
C8 C 0.8333(4) 0.5199(3) 0.17957(11)
H12 H 0.9241 0.5591 0.1480
H13 H 0.8159 0.5931 0.2122
C9 C 0.6294(3) 0.4782(2) 0.15091(10)
C10 C 0.5176(5) 0.6052(3) -0.00990(11)
C11 C 0.8995(5) 0.1088(3) 0.17079(12)
H14 H 1.0350 0.0943 0.1860
H15 H 0.8782 0.0491 0.1344
H16 H 0.8042 0.0813 0.2026
C12 C 0.5644(4) 0.7464(2) 0.12407(12)
H17 H 0.4899 0.7538 0.1625
H18 H 0.5048 0.8105 0.0935
H19 H 0.7027 0.7747 0.1311
C13 C 0.7784(4) 0.4297(3) 0.02596(10)
H20 H 0.9163 0.4316 0.0417
H21 H 0.7841 0.4147 -0.0189
C14 C 0.8696(4) 0.2690(3) 0.15415(11)
H22 H 0.9675 0.2901 0.1209
loop_
_geom_bond_atom_site_label_1
_geom_bond_atom_site_label_2
_geom_bond_site_symmetry_1
_geom_bond_site_symmetry_2
O1 H1 1_555 1_555
O2 H2 1_555 1_555
O3 C5 1_555 1_555
C1 C2 1_555 1_555
O4 C10 1_555 1_555
C2 O2 1_555 1_555
H3 C2 1_555 1_555
H4 C2 1_555 1_555
C3 C1 1_555 1_555
H5 C3 1_555 1_555
H6 C3 1_555 1_555
C4 C5 1_555 1_555
C5 H7 1_555 1_555
H8 C5 1_555 1_555
C6 C4 1_555 1_555
H9 C6 1_555 1_555
C7 H10 1_555 1_555
H11 C7 1_555 1_555
C8 C7 1_555 1_555
H12 C8 1_555 1_555
H13 C8 1_555 1_555
C9 O1 1_555 1_555
C10 O3 1_555 1_555
C11 H14 1_555 1_555
H15 C11 1_555 1_555
H16 C11 1_555 1_555
C12 C4 1_555 1_555
H17 C12 1_555 1_555
H18 C12 1_555 1_555
H19 C12 1_555 1_555
C13 C3 1_555 1_555
H20 C13 1_555 1_555
H21 C13 1_555 1_555
C14 C1 1_555 1_555
H22 C14 1_555 1_555
C1 C9 1_555 1_555
C4 C9 1_555 1_555
C6 C10 1_555 1_555
C6 C13 1_555 1_555
C7 C14 1_555 1_555
C8 C9 1_555 1_555
C11 C14 1_555 1_555

#END
