
#######################################################################
#
#                 Cambridge Crystallographic Data Centre
#                                CCDC 
#
#######################################################################
#
# If this CIF has been generated from an entry in the Cambridge 
# Structural Database, then it will include bibliographic, chemical, 
# crystal, experimental, refinement or atomic coordinate data resulting 
# from the CCDC's data processing and validation procedures.
#
#######################################################################

data_HUSDOP
_chemical_formula_moiety         'C14 H17 F1 N4 O1'
_chemical_name_systematic        
N^2^,N^4^-diethyl-5-fluoro-6-phenoxypyrimidine-2,4-diamine
_symmetry_cell_setting           monoclinic
_symmetry_space_group_name_H-M   'P 21/c'
_symmetry_Int_Tables_number      14
_space_group_name_Hall           '-P 2ybc'
loop_
_symmetry_equiv_pos_site_id
_symmetry_equiv_pos_as_xyz
1 x,y,z
2 -x,1/2+y,1/2-z
3 -x,-y,-z
4 x,1/2-y,1/2+z
_cell_length_a                   8.8074(2)
_cell_length_b                   8.1779(2)
_cell_length_c                   19.7704(4)
_cell_angle_alpha                90
_cell_angle_beta                 101.4000(10)
_cell_angle_gamma                90
_cell_volume                     1395.89
_exptl_crystal_colour            colorless
_exptl_crystal_description       block
_chemical_melting_point          88-89deg.C
_cell_formula_units_Z            4
_exptl_crystal_recrystallization_method 'ethyl acetate'
loop_
_atom_site_label
_atom_site_type_symbol
_atom_site_fract_x
_atom_site_fract_y
_atom_site_fract_z
F1 F 0.05074(8) 0.13628(9) 0.24207(3)
O1 O 0.17236(9) 0.40830(10) 0.19271(4)
N1 N 0.01211(10) 0.37458(11) 0.08498(4)
N2 N -0.16910(9) 0.14988(10) 0.06716(4)
N3 N -0.18180(11) -0.03416(11) 0.15479(4)
N4 N -0.16458(11) 0.34360(11) -0.01676(4)
C1 C -0.10509(11) 0.28658(12) 0.04687(5)
C2 C -0.11872(11) 0.09954(12) 0.13197(5)
C3 C -0.00034(11) 0.18696(13) 0.17561(5)
C4 C 0.06051(11) 0.31982(13) 0.14915(5)
C5 C 0.32272(11) 0.40914(12) 0.18059(5)
C6 C 0.42552(12) 0.51146(13) 0.22322(5)
C7 C 0.57885(12) 0.51690(13) 0.21525(6)
C8 C 0.62777(12) 0.42311(14) 0.16514(6)
C9 C 0.52297(13) 0.32171(14) 0.12298(6)
C10 C 0.36905(12) 0.31336(13) 0.13048(5)
C11 C -0.29961(13) -0.13274(13) 0.11097(6)
C12 C -0.23219(17) -0.24926(16) 0.06504(7)
C13 C -0.28604(12) 0.25829(13) -0.06434(5)
C14 C -0.22300(19) 0.1365(2) -0.10889(9)
H1 H -0.1444(18) -0.0641(19) 0.1987(8)
H2 H -0.1158(18) 0.427(2) -0.0319(9)
H3 H 0.3909(18) 0.5775(19) 0.2565(8)
H4 H 0.6530(19) 0.589(2) 0.2430(9)
H5 H 0.735(2) 0.427(2) 0.1589(9)
H6 H 0.554(2) 0.254(2) 0.0891(9)
H7 H 0.2974(18) 0.2449(19) 0.1006(8)
H8 H -0.3731(18) -0.060(2) 0.0828(8)
H9 H -0.3530(18) -0.191(2) 0.1415(8)
H10 H -0.153(2) -0.327(2) 0.0933(10)
H11 H -0.313(2) -0.320(2) 0.0382(9)
H12 H -0.184(2) -0.186(3) 0.0323(10)
H13 H -0.3527(19) 0.203(2) -0.0374(9)
H14 H -0.3510(18) 0.337(2) -0.0920(8)
H15 H -0.152(3) 0.052(3) -0.0803(11)
H16 H -0.310(3) 0.077(3) -0.1424(12)
H17 H -0.167(3) 0.195(3) -0.1377(12)
loop_
_geom_bond_atom_site_label_1
_geom_bond_atom_site_label_2
_geom_bond_site_symmetry_1
_geom_bond_site_symmetry_2
F1 C3 1_555 1_555
O1 C4 1_555 1_555
N1 C1 1_555 1_555
N2 C1 1_555 1_555
N3 C2 1_555 1_555
N4 C1 1_555 1_555
C2 N2 1_555 1_555
C3 C2 1_555 1_555
C4 N1 1_555 1_555
C5 O1 1_555 1_555
C6 C5 1_555 1_555
C7 C6 1_555 1_555
C8 C7 1_555 1_555
C9 C8 1_555 1_555
C10 C5 1_555 1_555
C11 N3 1_555 1_555
C12 C11 1_555 1_555
C13 N4 1_555 1_555
C14 C13 1_555 1_555
H1 N3 1_555 1_555
H2 N4 1_555 1_555
H3 C6 1_555 1_555
H4 C7 1_555 1_555
H5 C8 1_555 1_555
H6 C9 1_555 1_555
H7 C10 1_555 1_555
H8 C11 1_555 1_555
H9 C11 1_555 1_555
H10 C12 1_555 1_555
H11 C12 1_555 1_555
H12 C12 1_555 1_555
H13 C13 1_555 1_555
H14 C13 1_555 1_555
H15 C14 1_555 1_555
H16 C14 1_555 1_555
H17 C14 1_555 1_555
C3 C4 1_555 1_555
C9 C10 1_555 1_555

#END
