
#######################################################################
#
#                 Cambridge Crystallographic Data Centre
#                                CCDC 
#
#######################################################################
#
# If this CIF has been generated from an entry in the Cambridge 
# Structural Database, then it will include bibliographic, chemical, 
# crystal, experimental, refinement or atomic coordinate data resulting 
# from the CCDC's data processing and validation procedures.
#
#######################################################################

data_HUSFAD
_chemical_formula_moiety         'C19 H23 F1 N4 O2'
_chemical_name_systematic        
4-(5-Fluoro-6-phenoxy-2-(piperidin-1-yl)pyrimidin-4-yl)morpholine
_symmetry_cell_setting           monoclinic
_symmetry_space_group_name_H-M   'P 21/c'
_symmetry_Int_Tables_number      14
_space_group_name_Hall           '-P 2ybc'
loop_
_symmetry_equiv_pos_site_id
_symmetry_equiv_pos_as_xyz
1 x,y,z
2 -x,1/2+y,1/2-z
3 -x,-y,-z
4 x,1/2-y,1/2+z
_cell_length_a                   17.4666(6)
_cell_length_b                   5.4244(2)
_cell_length_c                   19.3478(6)
_cell_angle_alpha                90
_cell_angle_beta                 109.29(1)
_cell_angle_gamma                90
_cell_volume                     1730.21
_exptl_crystal_colour            colorless
_exptl_crystal_description       plate
_chemical_melting_point          128-130deg.C
_cell_formula_units_Z            4
_exptl_crystal_recrystallization_method hexane
loop_
_atom_site_label
_atom_site_type_symbol
_atom_site_fract_x
_atom_site_fract_y
_atom_site_fract_z
F1 F 0.59349(13) 0.9512(5) 0.54639(10)
N1 N 0.77438(16) 0.6298(5) 0.64833(13)
N2 N 0.72165(16) 0.4518(6) 0.52832(13)
N3 N 0.84581(17) 0.3345(5) 0.60808(14)
O1 O 0.70338(15) 0.9522(4) 0.67757(11)
C1 C 0.77790(18) 0.4742(6) 0.59455(16)
C2 C 0.65811(19) 0.6051(7) 0.51030(16)
C3 C 0.6537(2) 0.7835(7) 0.56068(17)
C4 C 0.71165(19) 0.7810(6) 0.62908(16)
C5 C 0.8507(2) 0.1384(7) 0.55791(19)
H1 H 0.8102 0.1684 0.5090
H2 H 0.8380 -0.0219 0.5761
C6 C 0.9351(2) 0.1281(6) 0.55139(17)
H3 H 0.9386 -0.0152 0.5209
H4 H 0.9445 0.2791 0.5266
C7 C 1.0002(2) 0.1067(6) 0.62604(17)
H5 H 1.0545 0.1152 0.6205
H6 H 0.9954 -0.0542 0.6484
C8 C 0.99098(19) 0.3147(6) 0.67538(16)
H7 H 1.0313 0.2937 0.7249
H8 H 1.0018 0.4743 0.6556
C9 C 0.9067(2) 0.3177(6) 0.68083(16)
H9 H 0.8978 0.1654 0.7053
H10 H 0.9012 0.4603 0.7108
C10 C 0.74223(18) 0.9137(5) 0.75263(15)
C11 C 0.72353(19) 0.7110(6) 0.78753(17)
H11 H 0.6875 0.5874 0.7604
C12 C 0.75840(19) 0.6920(6) 0.86287(17)
H12 H 0.7463 0.5537 0.8876
C13 C 0.81059(18) 0.8721(6) 0.90250(16)
H13 H 0.8352 0.8564 0.9540
C14 C 0.8265(2) 1.0740(6) 0.86653(17)
H14 H 0.8616 1.1995 0.8937
C15 C 0.79217(19) 1.0977(6) 0.79113(16)
H15 H 0.8030 1.2384 0.7667
O2 O 0.4855(4) 0.3946(12) 0.3118(3)
N4 N 0.6042(3) 0.5348(10) 0.4421(3)
C16 C 0.6161(3) 0.3259(12) 0.3983(3)
H16 H 0.6421 0.1858 0.4303
H17 H 0.6503 0.3744 0.3687
C17 C 0.4745(5) 0.6044(17) 0.3515(4)
H18 H 0.4444 0.5529 0.3844
H19 H 0.4403 0.7250 0.3163
C18 C 0.5531(4) 0.7345(11) 0.3978(4)
H20 H 0.5802 0.8137 0.3660
H21 H 0.5415 0.8616 0.4297
C19 C 0.5303(4) 0.2575(16) 0.3490(4)
H22 H 0.5367 0.1224 0.3169
H23 H 0.5028 0.1851 0.3815
C20? C 0.5106(3) 0.6150(16) 0.4372(4)
C21? C 0.4592(5) 0.6872(17) 0.3587(4)
C22? C 0.5521(5) 0.4373(16) 0.3186(3)
C23? C 0.6064(4) 0.4158(13) 0.3965(3)
H24? H 0.5013 0.7333 0.4725
H25? H 0.4950 0.4485 0.4488
H26? H 0.4016 0.7054 0.3552
H27? H 0.4782 0.8466 0.3454
H28? H 0.5737 0.5677 0.2944
H29? H 0.5539 0.2800 0.2932
H30? H 0.5954 0.2571 0.4167
H31? H 0.6635 0.4140 0.3978
N5? N 0.5955(3) 0.6170(12) 0.4428(3)
O3? O 0.4672(3) 0.4949(12) 0.3093(3)
loop_
_geom_bond_atom_site_label_1
_geom_bond_atom_site_label_2
_geom_bond_site_symmetry_1
_geom_bond_site_symmetry_2
F1 C3 1_555 1_555
N1 C1 1_555 1_555
N2 C1 1_555 1_555
N3 C1 1_555 1_555
O1 C4 1_555 1_555
C2 N2 1_555 1_555
C3 C2 1_555 1_555
C4 N1 1_555 1_555
C5 N3 1_555 1_555
H1 C5 1_555 1_555
H2 C5 1_555 1_555
C6 C5 1_555 1_555
H3 C6 1_555 1_555
H4 C6 1_555 1_555
C7 C6 1_555 1_555
H5 C7 1_555 1_555
H6 C7 1_555 1_555
C8 C7 1_555 1_555
H7 C8 1_555 1_555
H8 C8 1_555 1_555
C9 N3 1_555 1_555
H9 C9 1_555 1_555
H10 C9 1_555 1_555
C10 O1 1_555 1_555
C11 C10 1_555 1_555
H11 C11 1_555 1_555
C12 C11 1_555 1_555
H12 C12 1_555 1_555
C13 C12 1_555 1_555
H13 C13 1_555 1_555
C14 C13 1_555 1_555
H14 C14 1_555 1_555
C15 C10 1_555 1_555
H15 C15 1_555 1_555
O2 C17 1_555 1_555
N4 C2 1_555 1_555
C16 N4 1_555 1_555
H16 C16 1_555 1_555
H17 C16 1_555 1_555
C17 H18 1_555 1_555
H19 C17 1_555 1_555
C18 N4 1_555 1_555
H20 C18 1_555 1_555
H21 C18 1_555 1_555
C19 O2 1_555 1_555
H22 C19 1_555 1_555
H23 C19 1_555 1_555
C3 C4 1_555 1_555
C8 C9 1_555 1_555
C14 C15 1_555 1_555
C16 C19 1_555 1_555
C17 C18 1_555 1_555

#END
