
#######################################################################
#
#                 Cambridge Crystallographic Data Centre
#                                CCDC 
#
#######################################################################
#
# If this CIF has been generated from an entry in the Cambridge 
# Structural Database, then it will include bibliographic, chemical, 
# crystal, experimental, refinement or atomic coordinate data resulting 
# from the CCDC's data processing and validation procedures.
#
#######################################################################

data_HUSFOR
_chemical_formula_moiety         'C18 H17 F1 N4 O1'
_chemical_name_systematic        
N^4^-ethyl-5-fluoro-2phenoxy-N^6^-phenylpyrimidine-4,6-diamine
_symmetry_cell_setting           monoclinic
_symmetry_space_group_name_H-M   'P c'
_symmetry_Int_Tables_number      7
_space_group_name_Hall           'P -2yc'
loop_
_symmetry_equiv_pos_site_id
_symmetry_equiv_pos_as_xyz
1 x,y,z
2 x,-y,1/2+z
_cell_length_a                   12.6975(3)
_cell_length_b                   12.8198(3)
_cell_length_c                   20.7884(5)
_cell_angle_alpha                90
_cell_angle_beta                 106.44(1)
_cell_angle_gamma                90
_cell_volume                     3245.58
_exptl_crystal_colour            colorless
_exptl_crystal_description       block
_chemical_melting_point          122-124deg.C
_cell_formula_units_Z            8
_exptl_crystal_recrystallization_method dichloromethane/n-hexane
loop_
_atom_site_label
_atom_site_type_symbol
_atom_site_fract_x
_atom_site_fract_y
_atom_site_fract_z
F1 F 0.21927(11) 0.94230(10) 0.33776(7)
O1 O -0.01705(12) 1.26138(11) 0.21110(8)
N1 N 0.13260(14) 1.20441(13) 0.28731(9)
N2 N -0.00265(14) 1.08380(13) 0.22480(8)
N3 N 0.02513(15) 0.90304(13) 0.24013(9)
N4 N 0.29014(15) 1.14383(14) 0.36628(9)
C1 C 0.03923(16) 1.17699(15) 0.24293(10)
C2 C 0.05867(16) 1.00290(14) 0.25683(9)
C3 C 0.15639(17) 1.02231(14) 0.30532(10)
C4 C 0.19337(16) 1.12400(15) 0.31982(10)
C5 C 0.33922(18) 1.24777(17) 0.37561(13)
H1 H 0.2931 1.2954 0.3936
H2 H 0.3428 1.2756 0.3319
C6 C 0.45309(18) 1.24278(17) 0.42346(11)
H3 H 0.4854 1.3128 0.4294
H4 H 0.4988 1.1963 0.4052
H5 H 0.4491 1.2160 0.4669
C7 C -0.06489(17) 0.87269(15) 0.18639(10)
C8 C -0.16716(18) 0.92105(16) 0.17354(11)
H6 H -0.1774 0.9776 0.2007
C9 C -0.25426(19) 0.88612(19) 0.12076(12)
H7 H -0.3239 0.9191 0.1122
C10 C -0.2405(2) 0.8037(2) 0.08054(12)
H8 H -0.3002 0.7806 0.0445
C11 C -0.1393(2) 0.75557(19) 0.09345(12)
H9 H -0.1294 0.6992 0.0661
C12 C -0.05185(19) 0.78920(16) 0.14627(11)
H10 H 0.0172 0.7551 0.1551
C13 C -0.12118(16) 1.24644(15) 0.16619(11)
C14 C -0.1326(2) 1.2577(2) 0.09879(12)
H11 H -0.0701 1.2689 0.0831
C15 C -0.2369(2) 1.2526(2) 0.05420(13)
H12 H -0.2460 1.2610 0.0075
C16 C -0.3271(2) 1.2355(2) 0.07679(13)
H13 H -0.3983 1.2322 0.0459
C17 C -0.31401(19) 1.2233(2) 0.14441(14)
H14 H -0.3764 1.2110 0.1600
C18 C -0.21007(19) 1.22859(19) 0.19019(12)
H15 H -0.2008 1.2201 0.2369
H61 H 0.067(3) 0.855(3) 0.2589(16)
H62 H 0.328(2) 1.088(2) 0.3851(15)
F2 F 0.61948(11) 0.36753(10) 0.28526(7)
O2 O 0.79808(13) 0.02713(12) 0.41844(9)
N5 N 0.65771(14) 0.10117(13) 0.34333(9)
N6 N 0.81604(14) 0.20246(13) 0.40009(9)
N7 N 0.82481(15) 0.38066(14) 0.37851(9)
N8 N 0.50818(15) 0.18054(14) 0.26694(9)
C19 C 0.75686(17) 0.11687(15) 0.38535(10)
C20 C 0.76927(16) 0.28924(15) 0.36637(10)
C21 C 0.66703(17) 0.28172(15) 0.32031(10)
C22 C 0.61048(17) 0.18759(15) 0.30967(10)
C23 C 0.44875(19) 0.08244(17) 0.25020(12)
H16 H 0.3694 0.0975 0.2320
H17 H 0.4589 0.0409 0.2917
C24 C 0.4862(3) 0.0186(2) 0.19960(14)
H18 H 0.4440 -0.0464 0.1904
H19 H 0.5645 0.0023 0.2177
H20 H 0.4745 0.0585 0.1580
C25 C 0.91981(17) 0.39557(16) 0.43368(11)
C26 C 1.01386(19) 0.33660(19) 0.44029(12)
H21 H 1.0158 0.2854 0.4076
C27 C 1.1050(2) 0.3524(2) 0.49469(14)
H22 H 1.1691 0.3116 0.4990
C28 C 1.1043(2) 0.4265(2) 0.54268(15)
H23 H 1.1668 0.4357 0.5802
C29 C 1.0116(2) 0.4872(2) 0.53575(14)
H24 H 1.0112 0.5394 0.5681
C30 C 0.9186(2) 0.47190(18) 0.48124(12)
H25 H 0.8549 0.5134 0.4767
C31 C 0.90741(17) 0.02428(15) 0.45790(11)
C32 C 0.99226(19) 0.03569(18) 0.42853(11)
H26 H 0.9773 0.0517 0.3822
C33 C 1.09931(19) 0.02325(18) 0.46829(13)
H27 H 1.1585 0.0316 0.4492
C34 C 1.12067(19) -0.00139(18) 0.53581(12)
H28 H 1.1942 -0.0102 0.5627
C35 C 1.0344(2) -0.01320(18) 0.56397(11)
H29 H 1.0489 -0.0301 0.6102
C36 C 0.92641(19) -0.00033(17) 0.52443(11)
H30 H 0.8669 -0.0085 0.5433
H63 H 0.791(3) 0.433(2) 0.3639(15)
H64 H 0.482(2) 0.238(2) 0.2428(14)
F3 F 0.73193(12) 0.87122(10) 0.28884(7)
O3 O 0.63783(14) 0.52140(12) 0.39859(9)
N9 N 0.72389(14) 0.59898(13) 0.33202(8)
N10 N 0.61206(14) 0.69821(13) 0.38589(8)
N11 N 0.59310(16) 0.87895(13) 0.37070(9)
N12 N 0.81159(15) 0.68092(14) 0.26135(9)
C37 C 0.65747(16) 0.61328(15) 0.37045(10)
C38 C 0.63741(16) 0.78716(15) 0.35815(10)
C39 C 0.70723(17) 0.78261(15) 0.31789(10)
C40 C 0.74807(16) 0.68742(15) 0.30330(9)
C41 C 0.84569(17) 0.58195(17) 0.23888(11)
H31 H 0.8679 0.5337 0.2776
H32 H 0.9105 0.5941 0.2224
C42 C 0.7562(2) 0.53101(19) 0.18380(12)
H33 H 0.7833 0.4649 0.1709
H34 H 0.7353 0.5775 0.1448
H35 H 0.6921 0.5177 0.2000
C43 C 0.52597(17) 0.88987(15) 0.41439(10)
C44 C 0.43837(17) 0.82301(17) 0.41141(11)
H36 H 0.4223 0.7678 0.3796
C45 C 0.37468(18) 0.83714(19) 0.45500(11)
H37 H 0.3158 0.7906 0.4535
C46 C 0.39618(18) 0.91880(19) 0.50082(11)
H38 H 0.3523 0.9282 0.5306
C47 C 0.48214(19) 0.98642(18) 0.50275(11)
H39 H 0.4965 1.0429 0.5336
C48 C 0.54759(18) 0.97236(16) 0.46002(11)
H40 H 0.6068 1.0187 0.4619
C49 C 0.55930(18) 0.51864(15) 0.43404(11)
C50 C 0.59553(19) 0.49306(17) 0.50100(11)
H41 H 0.6718 0.4854 0.5227
C51 C 0.5187(2) 0.47861(19) 0.53643(11)
H42 H 0.5424 0.4606 0.5826
C52 C 0.4078(2) 0.49045(19) 0.50461(12)
H43 H 0.3554 0.4802 0.5289
C53 C 0.37325(19) 0.51730(18) 0.43737(12)
H44 H 0.2972 0.5266 0.4159
C54 C 0.4489(2) 0.53073(17) 0.40112(11)
H45 H 0.4253 0.5478 0.3548
H65 H 0.623(3) 0.938(2) 0.3603(15)
H66 H 0.823(3) 0.741(2) 0.2392(16)
F4 F 0.08624(11) 0.44399(9) 0.33299(7)
O4 O 0.24535(13) 0.76854(11) 0.23156(8)
N13 N 0.15273(14) 0.70816(12) 0.29976(8)
N14 N 0.22880(14) 0.58983(13) 0.23504(8)
N15 N 0.19948(15) 0.40942(13) 0.24040(9)
N16 N 0.06109(15) 0.64478(14) 0.37397(9)
C55 C 0.20831(16) 0.68207(15) 0.25667(10)
C56 C 0.18587(16) 0.50840(14) 0.26050(10)
C57 C 0.12800(16) 0.52561(14) 0.30637(10)
C58 C 0.11286(16) 0.62647(15) 0.32703(10)
C59 C 0.04001(18) 0.74992(16) 0.39499(11)
H46 H -0.0120 0.7867 0.3573
H47 H 0.1094 0.7902 0.4082
C60 C -0.0078(2) 0.74251(17) 0.45360(12)
H48 H -0.0220 0.8128 0.4677
H49 H 0.0443 0.7067 0.4909
H50 H -0.0768 0.7032 0.4402
C61 C 0.25957(17) 0.37878(15) 0.19603(10)
C62 C 0.36115(17) 0.42229(16) 0.19816(11)
H51 H 0.3908 0.4766 0.2291
C63 C 0.41876(18) 0.38622(17) 0.15507(11)
H52 H 0.4878 0.4163 0.1566
C64 C 0.3767(2) 0.30676(18) 0.10975(12)
H53 H 0.4164 0.2827 0.0802
C65 C 0.2760(2) 0.26261(18) 0.10800(12)
H54 H 0.2469 0.2077 0.0774
C66 C 0.21770(18) 0.29872(17) 0.15094(11)
H55 H 0.1488 0.2685 0.1495
C67 C 0.31543(17) 0.75655(14) 0.19118(10)
C68 C 0.27862(18) 0.79439(17) 0.12627(11)
H56 H 0.2060 0.8205 0.1093
C69 C 0.35005(18) 0.79341(17) 0.08643(11)
H57 H 0.3265 0.8201 0.0420
C70 C 0.45506(18) 0.75387(18) 0.11092(11)
H58 H 0.5032 0.7527 0.0833
C71 C 0.49003(18) 0.71586(18) 0.17603(11)
H59 H 0.5621 0.6884 0.1928
C72 C 0.42062(18) 0.71768(17) 0.21674(11)
H60 H 0.4448 0.6926 0.2615
H67 H 0.167(2) 0.364(2) 0.2554(14)
H68 H 0.039(2) 0.589(2) 0.3894(15)
loop_
_geom_bond_atom_site_label_1
_geom_bond_atom_site_label_2
_geom_bond_site_symmetry_1
_geom_bond_site_symmetry_2
F1 C3 1_555 1_555
O1 C1 1_555 1_555
N1 C1 1_555 1_555
N2 C1 1_555 1_555
N3 C2 1_555 1_555
N4 C4 1_555 1_555
C2 N2 1_555 1_555
C3 C2 1_555 1_555
C4 N1 1_555 1_555
C5 N4 1_555 1_555
H1 C5 1_555 1_555
H2 C5 1_555 1_555
C6 C5 1_555 1_555
H3 C6 1_555 1_555
H4 C6 1_555 1_555
H5 C6 1_555 1_555
C7 N3 1_555 1_555
C8 C7 1_555 1_555
H6 C8 1_555 1_555
C9 C8 1_555 1_555
H7 C9 1_555 1_555
C10 C9 1_555 1_555
H8 C10 1_555 1_555
C11 C10 1_555 1_555
H9 C11 1_555 1_555
C12 C7 1_555 1_555
H10 C12 1_555 1_555
C13 O1 1_555 1_555
C14 C13 1_555 1_555
H11 C14 1_555 1_555
C15 C14 1_555 1_555
H12 C15 1_555 1_555
C16 C15 1_555 1_555
H13 C16 1_555 1_555
C17 C16 1_555 1_555
H14 C17 1_555 1_555
C18 C13 1_555 1_555
H15 C18 1_555 1_555
F2 C21 1_555 1_555
O2 C19 1_555 1_555
N5 C19 1_555 1_555
N6 C19 1_555 1_555
N7 C20 1_555 1_555
N8 C22 1_555 1_555
C20 N6 1_555 1_555
C21 C20 1_555 1_555
C22 N5 1_555 1_555
C23 N8 1_555 1_555
H16 C23 1_555 1_555
H17 C23 1_555 1_555
C24 C23 1_555 1_555
H18 C24 1_555 1_555
H19 C24 1_555 1_555
H20 C24 1_555 1_555
C25 N7 1_555 1_555
C26 C25 1_555 1_555
H21 C26 1_555 1_555
C27 C26 1_555 1_555
H22 C27 1_555 1_555
C28 C27 1_555 1_555
H23 C28 1_555 1_555
C29 C28 1_555 1_555
H24 C29 1_555 1_555
C30 C25 1_555 1_555
H25 C30 1_555 1_555
C31 O2 1_555 1_555
C32 C31 1_555 1_555
H26 C32 1_555 1_555
C33 C32 1_555 1_555
H27 C33 1_555 1_555
C34 C33 1_555 1_555
H28 C34 1_555 1_555
C35 C34 1_555 1_555
H29 C35 1_555 1_555
C36 C31 1_555 1_555
H30 C36 1_555 1_555
F3 C39 1_555 1_555
O3 C37 1_555 1_555
N9 C37 1_555 1_555
N10 C37 1_555 1_555
N11 C38 1_555 1_555
N12 C40 1_555 1_555
C38 N10 1_555 1_555
C39 C38 1_555 1_555
C40 N9 1_555 1_555
C41 N12 1_555 1_555
H31 C41 1_555 1_555
H32 C41 1_555 1_555
C42 C41 1_555 1_555
H33 C42 1_555 1_555
H34 C42 1_555 1_555
H35 C42 1_555 1_555
C43 N11 1_555 1_555
C44 C43 1_555 1_555
H36 C44 1_555 1_555
C45 C44 1_555 1_555
H37 C45 1_555 1_555
C46 C45 1_555 1_555
H38 C46 1_555 1_555
C47 C46 1_555 1_555
H39 C47 1_555 1_555
C48 C43 1_555 1_555
H40 C48 1_555 1_555
C49 O3 1_555 1_555
C50 C49 1_555 1_555
H41 C50 1_555 1_555
C51 C50 1_555 1_555
H42 C51 1_555 1_555
C52 C51 1_555 1_555
H43 C52 1_555 1_555
C53 C52 1_555 1_555
H44 C53 1_555 1_555
C54 C49 1_555 1_555
H45 C54 1_555 1_555
F4 C57 1_555 1_555
O4 C55 1_555 1_555
N13 C55 1_555 1_555
N14 C55 1_555 1_555
N15 C56 1_555 1_555
N16 C58 1_555 1_555
C56 N14 1_555 1_555
C57 C56 1_555 1_555
C58 N13 1_555 1_555
C59 N16 1_555 1_555
H46 C59 1_555 1_555
H47 C59 1_555 1_555
C60 C59 1_555 1_555
H48 C60 1_555 1_555
H49 C60 1_555 1_555
H50 C60 1_555 1_555
C61 N15 1_555 1_555
C62 C61 1_555 1_555
H51 C62 1_555 1_555
C63 C62 1_555 1_555
H52 C63 1_555 1_555
C64 C63 1_555 1_555
H53 C64 1_555 1_555
C65 C64 1_555 1_555
H54 C65 1_555 1_555
C66 C61 1_555 1_555
H55 C66 1_555 1_555
C67 O4 1_555 1_555
C68 C67 1_555 1_555
H56 C68 1_555 1_555
C69 C68 1_555 1_555
H57 C69 1_555 1_555
C70 C69 1_555 1_555
H58 C70 1_555 1_555
C71 C70 1_555 1_555
H59 C71 1_555 1_555
C72 C67 1_555 1_555
H60 C72 1_555 1_555
H61 N3 1_555 1_555
H62 N4 1_555 1_555
H63 N7 1_555 1_555
H64 N8 1_555 1_555
H65 N11 1_555 1_555
H66 N12 1_555 1_555
H67 N15 1_555 1_555
H68 N16 1_555 1_555
C3 C4 1_555 1_555
C11 C12 1_555 1_555
C17 C18 1_555 1_555
C21 C22 1_555 1_555
C29 C30 1_555 1_555
C35 C36 1_555 1_555
C39 C40 1_555 1_555
C47 C48 1_555 1_555
C53 C54 1_555 1_555
C57 C58 1_555 1_555
C65 C66 1_555 1_555
C71 C72 1_555 1_555

#END
