
#######################################################################
#
#                 Cambridge Crystallographic Data Centre
#                                CCDC 
#
#######################################################################
#
# If this CIF has been generated from an entry in the Cambridge 
# Structural Database, then it will include bibliographic, chemical, 
# crystal, experimental, refinement or atomic coordinate data resulting 
# from the CCDC's data processing and validation procedures.
#
#######################################################################

data_HUSPOC
_chemical_formula_moiety         'C12 H8 Cl1 N3 O1'
_chemical_name_systematic        
2-chloro-4-methoxy-6-(phenylethynyl)-1,3,5-triazine
_symmetry_cell_setting           orthorhombic
_symmetry_space_group_name_H-M   'P n a 21'
_symmetry_Int_Tables_number      33
_space_group_name_Hall           'P 2c -2n'
loop_
_symmetry_equiv_pos_site_id
_symmetry_equiv_pos_as_xyz
1 x,y,z
2 -x,-y,1/2+z
3 1/2-x,1/2+y,1/2+z
4 1/2+x,1/2-y,z
_cell_length_a                   13.9382(7)
_cell_length_b                   11.2867(6)
_cell_length_c                   7.3966(3)
_cell_angle_alpha                90
_cell_angle_beta                 90
_cell_angle_gamma                90
_cell_volume                     1163.61
_cell_formula_units_Z            4
loop_
_atom_site_label
_atom_site_type_symbol
_atom_site_fract_x
_atom_site_fract_y
_atom_site_fract_z
Cl1 Cl 0.10730(8) 0.80059(12) 0.95099(19)
O1 O 0.4354(2) 0.9123(3) 1.0523(4)
N1 N 0.2826(2) 0.8630(3) 1.0112(4)
N2 N 0.1674(2) 0.9130(3) 1.2331(4)
N3 N 0.3302(2) 0.9654(3) 1.2777(4)
C1 C 0.1966(3) 0.8669(3) 1.0784(5)
C2 C 0.2391(3) 0.9626(3) 1.3276(5)
C3 C 0.3472(3) 0.9140(3) 1.1173(5)
C4 C 0.2135(3) 1.0162(4) 1.4965(5)
C5 C 0.1918(3) 1.0604(3) 1.6365(6)
C6 C 0.1643(3) 1.1140(3) 1.8023(5)
C7 C 0.0679(3) 1.1183(4) 1.8519(5)
H1 H 0.0213 1.0870 1.7756
C8 C 0.0416(3) 1.1689(4) 2.0137(6)
H2 H -0.0228 1.1715 2.0464
C9 C 0.1097(4) 1.2156(4) 2.1273(6)
H3 H 0.0915 1.2493 2.2368
C10 C 0.2048(4) 1.2126(3) 2.0794(6)
H4 H 0.2507 1.2448 2.1563
C11 C 0.2324(3) 1.1626(3) 1.9196(5)
H5 H 0.2970 1.1610 1.8884
C12 C 0.5092(3) 0.9648(4) 1.1570(6)
H6 H 0.5683 0.9626 1.0907
H7 H 0.5165 0.9217 1.2681
H8 H 0.4927 1.0455 1.1832
loop_
_geom_bond_atom_site_label_1
_geom_bond_atom_site_label_2
_geom_bond_site_symmetry_1
_geom_bond_site_symmetry_2
Cl1 C1 1_555 1_555
O1 C3 1_555 1_555
N1 C1 1_555 1_555
N2 C1 1_555 1_555
N3 C2 1_555 1_555
C2 N2 1_555 1_555
C3 N1 1_555 1_555
C4 C2 1_555 1_555
C5 C4 1_555 1_555
C6 C5 1_555 1_555
C7 C6 1_555 1_555
H1 C7 1_555 1_555
C8 C7 1_555 1_555
H2 C8 1_555 1_555
C9 C8 1_555 1_555
H3 C9 1_555 1_555
C10 C9 1_555 1_555
H4 C10 1_555 1_555
C11 C6 1_555 1_555
H5 C11 1_555 1_555
C12 O1 1_555 1_555
H6 C12 1_555 1_555
H7 C12 1_555 1_555
H8 C12 1_555 1_555
N3 C3 1_555 1_555
C10 C11 1_555 1_555

#END
