
#######################################################################
#
#                 Cambridge Crystallographic Data Centre
#                                CCDC 
#
#######################################################################
#
# If this CIF has been generated from an entry in the Cambridge 
# Structural Database, then it will include bibliographic, chemical, 
# crystal, experimental, refinement or atomic coordinate data resulting 
# from the CCDC's data processing and validation procedures.
#
#######################################################################

data_HUSYEB
_chemical_formula_moiety         'C36 H18 O4,2(C2 D6 O1 S1)'
_chemical_name_systematic        
"4,4'-(cyclopenta[hi]aceanthrylene-2,7-diylbis(ethyne-2,1-diyl))dibenzoic acid hexadeutero-dimethylsulfoxide solvate"
_symmetry_cell_setting           monoclinic
_symmetry_space_group_name_H-M   'P 21/c'
_symmetry_Int_Tables_number      14
_space_group_name_Hall           '-P 2ybc'
loop_
_symmetry_equiv_pos_site_id
_symmetry_equiv_pos_as_xyz
1 x,y,z
2 -x,1/2+y,1/2-z
3 -x,-y,-z
4 x,1/2-y,1/2+z
_cell_length_a                   29.1292(11)
_cell_length_b                   5.4697(2)
_cell_length_c                   10.2876(4)
_cell_angle_alpha                90
_cell_angle_beta                 91.5450(18)
_cell_angle_gamma                90
_cell_volume                     1638.51
_exptl_crystal_colour            green
_exptl_crystal_description       needle
_cell_formula_units_Z            2
_exptl_crystal_recrystallization_method 'dimethyl sulfoxide'
_exptl_crystal_preparation       
'The data crystal was mounted using oil (Parantone-N, Exxon) to a  0.3 mm cryo-loop (Hampton Research) with the (2 -1 -6) scattering  planes roughly normal to the spindle axis.'
loop_
_atom_site_label
_atom_site_type_symbol
_atom_site_fract_x
_atom_site_fract_y
_atom_site_fract_z
O1 O 0.14085(4) 0.6076(2) 1.02189(12)
O2 O 0.13884(4) 0.9105(2) 0.87567(12)
H1 H 0.1107(8) 0.945(4) 0.914(2)
C1 C 0.40029(6) 0.2314(3) 0.60694(16)
C2 C 0.40630(6) 0.0187(3) 0.52105(16)
C3 C 0.37747(6) -0.1424(3) 0.45945(16)
H2 H 0.3452 -0.1304 0.4689
C4 C 0.39643(6) -0.3290(3) 0.38065(17)
H3 H 0.3762 -0.4399 0.3368
C5 C 0.44292(6) -0.3540(3) 0.36590(16)
H4 H 0.4543 -0.4817 0.3132
C6 C 0.47406(6) -0.1894(3) 0.42928(15)
C7 C 0.45439(6) -0.0039(3) 0.50465(15)
C8 C 0.47750(6) 0.1826(3) 0.57433(16)
C9 C 0.44253(6) 0.3282(3) 0.63746(16)
H5 H 0.4482 0.4672 0.6909
C10 C 0.35718(6) 0.3154(3) 0.65183(16)
C11 C 0.32125(6) 0.3804(3) 0.69361(17)
C12 C 0.27959(6) 0.4641(3) 0.75095(17)
C13 C 0.25722(6) 0.6721(4) 0.70442(18)
H6 H 0.2691 0.7578 0.6324
C14 C 0.21785(6) 0.7555(4) 0.76176(17)
H7 H 0.2028 0.8979 0.7292
C15 C 0.20011(5) 0.6308(3) 0.86734(16)
C16 C 0.22224(6) 0.4228(3) 0.91418(17)
H8 H 0.2101 0.3365 0.9857
C17 C 0.26176(6) 0.3406(4) 0.85739(18)
H9 H 0.2769 0.1992 0.8908
C18 C 0.15719(6) 0.7134(3) 0.93004(16)
O1B O 0.85915(4) -0.6076(2) -0.02189(12)
O2B O 0.86116(4) -0.9105(2) 0.12433(12)
H1B H 0.8893(8) -0.945(4) 0.086(2)
C1B C 0.59971(6) -0.2314(3) 0.39306(16)
C2B C 0.59370(6) -0.0187(3) 0.47895(16)
C3B C 0.62253(6) 0.1424(3) 0.54055(16)
H2B H 0.6548 0.1304 0.5311
C4B C 0.60357(6) 0.3290(3) 0.61935(17)
H3B H 0.6238 0.4399 0.6632
C5B C 0.55708(6) 0.3540(3) 0.63410(16)
H4B H 0.5457 0.4817 0.6868
C6B C 0.52594(6) 0.1894(3) 0.57072(15)
C7B C 0.54561(6) 0.0039(3) 0.49535(15)
C8B C 0.52250(6) -0.1826(3) 0.42567(16)
C9B C 0.55747(6) -0.3282(3) 0.36254(16)
H5B H 0.5518 -0.4672 0.3091
C10B C 0.64282(6) -0.3154(3) 0.34817(16)
C11B C 0.67875(6) -0.3804(3) 0.30639(17)
C12B C 0.72041(6) -0.4641(3) 0.24905(17)
C13B C 0.74278(6) -0.6721(4) 0.29558(18)
H6B H 0.7309 -0.7578 0.3676
C14B C 0.78215(6) -0.7555(4) 0.23824(17)
H7B H 0.7972 -0.8979 0.2708
C15B C 0.79989(5) -0.6308(3) 0.13266(16)
C16B C 0.77776(6) -0.4228(3) 0.08582(17)
H8B H 0.7899 -0.3365 0.0143
C17B C 0.73824(6) -0.3406(4) 0.14261(18)
H9B H 0.7231 -0.1992 0.1092
C18B C 0.84281(6) -0.7134(3) 0.06996(16)
S1 S 0.05201(2) 1.08173(8) 0.10986(4)
O3 O 0.06166(4) 1.0585(2) -0.03371(11)
C19 C 0.10607(6) 1.1252(4) 0.19107(17)
D1 D 0.1202 1.2762 0.1600
D2 D 0.1262 0.9863 0.1731
D3 D 0.1016 1.1372 0.2849
C20 C 0.04095(6) 0.7787(4) 0.16444(19)
D4 D 0.0115 0.7225 0.1274
D5 D 0.0398 0.7772 0.2596
D6 D 0.0655 0.6697 0.1364
loop_
_geom_bond_atom_site_label_1
_geom_bond_atom_site_label_2
_geom_bond_site_symmetry_1
_geom_bond_site_symmetry_2
O1 C18 1_555 1_555
O2 H1 1_555 1_555
C1 C2 1_555 1_555
C2 C3 1_555 1_555
C3 H2 1_555 1_555
C4 C3 1_555 1_555
H3 C4 1_555 1_555
C5 C4 1_555 1_555
H4 C5 1_555 1_555
C6 C5 1_555 1_555
C7 C2 1_555 1_555
C8 C7 1_555 1_555
C9 C1 1_555 1_555
H5 C9 1_555 1_555
C10 C1 1_555 1_555
C11 C10 1_555 1_555
C12 C11 1_555 1_555
C13 C12 1_555 1_555
H6 C13 1_555 1_555
C14 C13 1_555 1_555
H7 C14 1_555 1_555
C15 C14 1_555 1_555
C16 C15 1_555 1_555
H8 C16 1_555 1_555
C17 C12 1_555 1_555
H9 C17 1_555 1_555
C18 O2 1_555 1_555
S1 O3 1_555 1_555
C19 S1 1_555 1_555
D1 C19 1_555 1_555
D2 C19 1_555 1_555
D3 C19 1_555 1_555
C20 S1 1_555 1_555
D4 C20 1_555 1_555
D5 C20 1_555 1_555
D6 C20 1_555 1_555
O1B C18B 1_555 1_555
O2B H1B 1_555 1_555
C1B C2B 1_555 1_555
C2B C3B 1_555 1_555
C3B H2B 1_555 1_555
C4B C3B 1_555 1_555
H3B C4B 1_555 1_555
C5B C4B 1_555 1_555
H4B C5B 1_555 1_555
C6B C8 1_555 1_555
C7B C2B 1_555 1_555
C8B C6 1_555 1_555
C9B C1B 1_555 1_555
H5B C9B 1_555 1_555
C10B C1B 1_555 1_555
C11B C10B 1_555 1_555
C12B C11B 1_555 1_555
C13B C12B 1_555 1_555
H6B C13B 1_555 1_555
C14B C13B 1_555 1_555
H7B C14B 1_555 1_555
C15B C14B 1_555 1_555
C16B C15B 1_555 1_555
H8B C16B 1_555 1_555
C17B C12B 1_555 1_555
H9B C17B 1_555 1_555
C18B O2B 1_555 1_555
C6 C7 1_555 1_555
C8 C9 1_555 1_555
C15 C18 1_555 1_555
C16 C17 1_555 1_555
C5B C6B 1_555 1_555
C6B C7B 1_555 1_555
C7B C8B 1_555 1_555
C8B C9B 1_555 1_555
C15B C18B 1_555 1_555
C16B C17B 1_555 1_555

#END
