
#######################################################################
#
#                 Cambridge Crystallographic Data Centre
#                                CCDC 
#
#######################################################################
#
# If this CIF has been generated from an entry in the Cambridge 
# Structural Database, then it will include bibliographic, chemical, 
# crystal, experimental, refinement or atomic coordinate data resulting 
# from the CCDC's data processing and validation procedures.
#
#######################################################################

data_HUTJUD
_chemical_formula_moiety         'C23 H13 Br2 F2 N1 O5'
_chemical_name_systematic        
'5,7-Dibromo-2,2-difluoro-3-(2-phenylvinyl)-2,3-dihydro-1-benzofuran-3-yl 4-nitrobenzoate'
_symmetry_cell_setting           monoclinic
_symmetry_space_group_name_H-M   'P 21/c'
_symmetry_Int_Tables_number      14
_space_group_name_Hall           '-P 2ybc'
loop_
_symmetry_equiv_pos_site_id
_symmetry_equiv_pos_as_xyz
1 x,y,z
2 -x,1/2+y,1/2-z
3 -x,-y,-z
4 x,1/2-y,1/2+z
_cell_length_a                   17.200(3)
_cell_length_b                   7.9746(16)
_cell_length_c                   15.165(3)
_cell_angle_alpha                90
_cell_angle_beta                 95.20(3)
_cell_angle_gamma                90
_cell_volume                     2071.52
_cell_formula_units_Z            4
loop_
_atom_site_label
_atom_site_type_symbol
_atom_site_fract_x
_atom_site_fract_y
_atom_site_fract_z
Br1 Br 0.299568(19) 0.46840(4) 0.39591(2)
Br2 Br 0.15349(2) 1.01829(4) 0.55228(2)
O1 O 0.23434(12) 0.3730(3) 0.76015(14)
O2 O 0.15514(13) 0.5829(3) 0.79766(15)
F1 F 0.34866(11) 0.2068(2) 0.71598(12)
F2 F 0.42329(10) 0.4185(3) 0.69707(12)
O3 O 0.32466(12) 0.3634(3) 0.59598(13)
C1 C 0.01969(19) 0.0466(4) 0.8615(2)
N1 N -0.02799(17) -0.0906(4) 0.89453(19)
O4 O -0.08906(15) -0.0549(4) 0.9243(2)
C2 C 0.16740(17) 0.4360(4) 0.7889(2)
C3 C 0.22260(17) 0.7245(4) 0.4875(2)
H1 H 0.2069 0.7687 0.4320
C4 C 0.28322(18) 0.5114(4) 0.5791(2)
C5 C 0.22539(17) 0.7447(4) 0.6484(2)
H2 H 0.2140 0.8031 0.6988
C6 C 0.00228(17) 0.2093(4) 0.8813(2)
H3 H -0.0408 0.2337 0.9119
C7 C 0.20461(17) 0.8066(4) 0.5641(2)
C8 C 0.26448(18) 0.5752(4) 0.4953(2)
C9 C 0.26385(18) 0.5919(4) 0.6543(2)
O5 O -0.00285(15) -0.2340(3) 0.89101(19)
C10 C 0.45259(19) 0.7157(4) 0.9533(2)
H4 H 0.4609 0.7484 0.8961
C11 C 0.3458(2) 0.5204(4) 0.8927(2)
H5 H 0.3182 0.4244 0.9053
C12 C 0.29379(18) 0.4862(4) 0.7337(2)
C13 C 0.04959(17) 0.3361(4) 0.8553(2)
H6 H 0.0387 0.4472 0.8682
C14 C 0.39529(18) 0.5973(4) 0.9668(2)
C15 C 0.08076(19) 0.0030(4) 0.8137(2)
H7 H 0.0904 -0.1085 0.8002
C16 C 0.3857(2) 0.5487(4) 1.0536(2)
H8 H 0.3490 0.4670 1.0640
C17 C 0.34831(18) 0.3654(4) 0.6860(2)
C18 C 0.11398(17) 0.2967(4) 0.80920(19)
C19 C 0.4299(2) 0.6202(4) 1.1240(2)
H9 H 0.4220 0.5880 1.1815
C20 C 0.33741(18) 0.5755(4) 0.8103(2)
H10 H 0.3603 0.6779 0.7987
C21 C 0.4974(2) 0.7849(4) 1.0249(3)
H11 H 0.5357 0.8632 1.0151
C22 C 0.12780(18) 0.1316(4) 0.7862(2)
H12 H 0.1687 0.1067 0.7523
C23 C 0.4856(2) 0.7389(4) 1.1102(2)
H13 H 0.5150 0.7876 1.1579
loop_
_geom_bond_atom_site_label_1
_geom_bond_atom_site_label_2
_geom_bond_site_symmetry_1
_geom_bond_site_symmetry_2
Br1 C8 1_555 1_555
Br2 C7 1_555 1_555
O1 C2 1_555 1_555
O2 C2 1_555 1_555
F1 C17 1_555 1_555
F2 C17 1_555 1_555
O3 C4 1_555 1_555
C1 N1 1_555 1_555
N1 O4 1_555 1_555
C2 C18 1_555 1_555
C3 H1 1_555 1_555
C4 C8 1_555 1_555
C5 H2 1_555 1_555
C6 C1 1_555 1_555
H3 C6 1_555 1_555
C7 C3 1_555 1_555
C8 C3 1_555 1_555
C9 C4 1_555 1_555
O5 N1 1_555 1_555
C10 H4 1_555 1_555
C11 H5 1_555 1_555
C12 O1 1_555 1_555
C13 C6 1_555 1_555
H6 C13 1_555 1_555
C14 C10 1_555 1_555
C15 C1 1_555 1_555
H7 C15 1_555 1_555
C16 C14 1_555 1_555
H8 C16 1_555 1_555
C17 O3 1_555 1_555
C18 C13 1_555 1_555
C19 C16 1_555 1_555
H9 C19 1_555 1_555
C20 C11 1_555 1_555
H10 C20 1_555 1_555
C21 C10 1_555 1_555
H11 C21 1_555 1_555
C22 C15 1_555 1_555
H12 C22 1_555 1_555
C23 C19 1_555 1_555
H13 C23 1_555 1_555
C5 C7 1_555 1_555
C5 C9 1_555 1_555
C9 C12 1_555 1_555
C11 C14 1_555 1_555
C12 C17 1_555 1_555
C12 C20 1_555 1_555
C18 C22 1_555 1_555
C21 C23 1_555 1_555

#END
