
#######################################################################
#
#                 Cambridge Crystallographic Data Centre
#                                CCDC 
#
#######################################################################
#
# If this CIF has been generated from an entry in the Cambridge 
# Structural Database, then it will include bibliographic, chemical, 
# crystal, experimental, refinement or atomic coordinate data resulting 
# from the CCDC's data processing and validation procedures.
#
#######################################################################

data_HUTNIV
_chemical_formula_moiety         'C27 H38 N2 O5 S1,H2 O1'
_chemical_name_systematic        
'10-Hydroxy-9-(3,7,11-trimethyldodeca-2,6,10-trien-1-yl)-2,4,5,7-tetrahydro-3H-[1,3]diazepino[2,1-a]isoindol-1-ium-8-yl sulfate monohydrate'
_symmetry_cell_setting           triclinic
_symmetry_space_group_name_H-M   'P -1'
_symmetry_Int_Tables_number      2
_space_group_name_Hall           '-P 1'
loop_
_symmetry_equiv_pos_site_id
_symmetry_equiv_pos_as_xyz
1 x,y,z
2 -x,-y,-z
_cell_length_a                   8.7229(13)
_cell_length_b                   9.5627(15)
_cell_length_c                   17.457(3)
_cell_angle_alpha                80.380(2)
_cell_angle_beta                 78.254(2)
_cell_angle_gamma                73.254(2)
_cell_volume                     1356.05
_exptl_crystal_colour            colorless
_exptl_crystal_description       block
_cell_formula_units_Z            2
loop_
_atom_site_label
_atom_site_type_symbol
_atom_site_fract_x
_atom_site_fract_y
_atom_site_fract_z
S1 S 0.32694(7) 0.47674(6) 0.44564(3)
O1 O 0.2536(2) 0.38328(17) 0.39818(10)
O2 O 0.2222(2) 0.48895(19) 0.52121(11)
O3 O 0.4914(2) 0.39122(17) 0.44982(10)
O4 O 0.3133(2) 0.61353(18) 0.39511(11)
O5 O 0.6103(2) -0.07103(18) 0.32547(10)
H1 H 0.6168 -0.1615 0.3322
N1 N 0.2051(2) -0.1846(2) 0.59103(12)
H2 H 0.2985 -0.2412 0.5708
C1 C 0.5117(3) 0.2319(2) 0.28863(13)
H3 H 0.6251 0.1744 0.2733
H4 H 0.5138 0.3295 0.2996
C2 C 0.0173(3) -0.1827(3) 0.72200(14)
H5 H 0.0979 -0.1612 0.7477
H6 H -0.0384 -0.2483 0.7603
C3 C 0.1054(3) -0.2620(2) 0.65123(14)
H7 H 0.1761 -0.3576 0.6700
H8 H 0.0238 -0.2833 0.6261
C4 C 0.1791(3) -0.0447(2) 0.56182(13)
C5 C 0.2803(3) 0.0044(2) 0.49052(13)
C6 C 0.2278(3) 0.1570(2) 0.47838(13)
C7 C 0.3059(3) 0.2301(2) 0.41393(13)
C8 C 0.4335(3) 0.1536(2) 0.36175(13)
C9 C 0.4188(3) 0.2506(3) 0.22191(14)
H9 H 0.3153 0.3197 0.2268
C10 C 0.4630(4) 0.1830(3) 0.15742(16)
C11 C 0.3510(5) 0.2164(4) 0.09732(18)
H10 H 0.3518 0.1228 0.0799
H11 H 0.2390 0.2606 0.1230
C12 C 0.3945(5) 0.3188(4) 0.02578(19)
H12 H 0.5102 0.2816 0.0030
H13 H 0.3790 0.4174 0.0415
C13 C 0.2894(5) 0.3306(4) -0.0358(2)
H14 H 0.2807 0.2408 -0.0486
C14 C 0.2083(5) 0.4532(4) -0.0736(2)
C15 C 0.0911(5) 0.4552(4) -0.1280(2)
H15 H 0.1251 0.5088 -0.1794
H16 H -0.0174 0.5140 -0.1058
C16 C 0.0714(5) 0.3080(4) -0.1445(2)
H17 H 0.1690 0.2585 -0.1798
H18 H 0.0607 0.2426 -0.0944
C17 C -0.0730(6) 0.3339(4) -0.1814(2)
H19 H -0.0843 0.4083 -0.2249
C18 C -0.1878(5) 0.2652(4) -0.1606(2)
C19 C -0.1708(7) 0.1268(5) -0.0979(2)
H20 H -0.1180 0.0382 -0.1243
H21 H -0.2787 0.1211 -0.0700
H22 H -0.1050 0.1343 -0.0602
N2 N 0.0667(2) 0.0721(2) 0.58851(11)
C20 C 0.0889(3) 0.2103(2) 0.54133(14)
H23 H 0.1158 0.2735 0.5733
H24 H -0.0095 0.2657 0.5187
C21 C 0.2058(6) 0.6042(4) -0.0610(3)
H25 H 0.2474 0.5999 -0.0123
H26 H 0.0941 0.6667 -0.0568
H27 H 0.2741 0.6455 -0.1056
C22 C -0.3375(6) 0.3082(5) -0.1972(3)
H28 H -0.3336 0.3923 -0.2375
H29 H -0.4331 0.3352 -0.1566
H30 H -0.3440 0.2253 -0.2216
C23 C 0.6198(4) 0.0700(4) 0.13813(18)
H31 H 0.6878 0.0602 0.1781
H32 H 0.6765 0.1004 0.0863
H33 H 0.5981 -0.0247 0.1374
C24 C 0.4837(3) -0.0016(2) 0.37645(13)
C25 C 0.4063(3) -0.0773(2) 0.44088(13)
H34 H 0.4391 -0.1815 0.4504
C26 C -0.0330(3) 0.0866(3) 0.66690(14)
H35 H -0.1218 0.1781 0.6636
H36 H 0.0350 0.0973 0.7035
C27 C -0.1068(3) -0.0397(3) 0.70155(15)
H37 H -0.1681 -0.0559 0.6634
H38 H -0.1849 -0.0123 0.7498
O6 O 0.6412(2) 0.6420(2) 0.34321(12)
H39 H 0.674(4) 0.599(4) 0.3837(13)
H40 H 0.5479(19) 0.634(4) 0.3493(19)
loop_
_geom_bond_atom_site_label_1
_geom_bond_atom_site_label_2
_geom_bond_site_symmetry_1
_geom_bond_site_symmetry_2
S1 O1 1_555 1_555
O1 C7 1_555 1_555
O2 S1 1_555 1_555
O3 S1 1_555 1_555
O4 S1 1_555 1_555
O5 H1 1_555 1_555
N1 H2 1_555 1_555
C1 H3 1_555 1_555
H4 C1 1_555 1_555
C2 H5 1_555 1_555
H6 C2 1_555 1_555
C3 N1 1_555 1_555
H7 C3 1_555 1_555
H8 C3 1_555 1_555
C4 N1 1_555 1_555
C5 C4 1_555 1_555
C6 C5 1_555 1_555
C7 C6 1_555 1_555
C8 C1 1_555 1_555
C9 C1 1_555 1_555
H9 C9 1_555 1_555
C10 C9 1_555 1_555
C11 C10 1_555 1_555
H10 C11 1_555 1_555
H11 C11 1_555 1_555
C12 C11 1_555 1_555
H12 C12 1_555 1_555
H13 C12 1_555 1_555
C13 C12 1_555 1_555
H14 C13 1_555 1_555
C14 C13 1_555 1_555
C15 C14 1_555 1_555
H15 C15 1_555 1_555
H16 C15 1_555 1_555
C16 C15 1_555 1_555
H17 C16 1_555 1_555
H18 C16 1_555 1_555
C17 C16 1_555 1_555
H19 C17 1_555 1_555
C18 C17 1_555 1_555
C19 C18 1_555 1_555
H20 C19 1_555 1_555
H21 C19 1_555 1_555
H22 C19 1_555 1_555
N2 C4 1_555 1_555
C20 C6 1_555 1_555
H23 C20 1_555 1_555
H24 C20 1_555 1_555
C21 C14 1_555 1_555
H25 C21 1_555 1_555
H26 C21 1_555 1_555
H27 C21 1_555 1_555
C22 C18 1_555 1_555
H28 C22 1_555 1_555
H29 C22 1_555 1_555
H30 C22 1_555 1_555
C23 C10 1_555 1_555
H31 C23 1_555 1_555
H32 C23 1_555 1_555
H33 C23 1_555 1_555
C24 O5 1_555 1_555
C25 C5 1_555 1_555
H34 C25 1_555 1_555
C26 N2 1_555 1_555
H35 C26 1_555 1_555
H36 C26 1_555 1_555
C27 C2 1_555 1_555
H37 C27 1_555 1_555
H38 C27 1_555 1_555
O6 H39 1_555 1_555
H40 O6 1_555 1_555
C2 C3 1_555 1_555
C7 C8 1_555 1_555
C8 C24 1_555 1_555
N2 C20 1_555 1_555
C24 C25 1_555 1_555
C26 C27 1_555 1_555

#END
