
#######################################################################
#
#                 Cambridge Crystallographic Data Centre
#                                CCDC 
#
#######################################################################
#
# If this CIF has been generated from an entry in the Cambridge 
# Structural Database, then it will include bibliographic, chemical, 
# crystal, experimental, refinement or atomic coordinate data resulting 
# from the CCDC's data processing and validation procedures.
#
#######################################################################

data_HUTNEQ
_chemical_formula_moiety         'C20 H25 N1 O4 S1'
_chemical_name_systematic        
4-Isopropoxy-4-phenyl-1-(phenylsulfonyl)piperidin-3-ol
_symmetry_cell_setting           triclinic
_symmetry_space_group_name_H-M   'P -1'
_symmetry_Int_Tables_number      2
_space_group_name_Hall           '-P 1'
loop_
_symmetry_equiv_pos_site_id
_symmetry_equiv_pos_as_xyz
1 x,y,z
2 -x,-y,-z
_cell_length_a                   9.1979(5)
_cell_length_b                   10.9875(6)
_cell_length_c                   11.1459(6)
_cell_angle_alpha                68.1380(10)
_cell_angle_beta                 73.5940(10)
_cell_angle_gamma                71.6100(10)
_cell_volume                     974.47
_exptl_crystal_colour            colorless
_cell_formula_units_Z            2
loop_
_atom_site_label
_atom_site_type_symbol
_atom_site_fract_x
_atom_site_fract_y
_atom_site_fract_z
C1 C 0.72870(18) 0.60448(15) 0.70830(15)
H1 H 0.7981 0.6654 0.6671
H2 H 0.6362 0.6440 0.6689
C2 C 0.80963(16) 0.46864(14) 0.68631(14)
H3 H 0.8464 0.4858 0.5913
C3 C 0.95464(16) 0.39792(14) 0.75229(13)
C4 C 0.90634(18) 0.39448(16) 0.89709(14)
H4 H 0.8386 0.3327 0.9441
H5 H 0.9987 0.3602 0.9363
C5 C 0.8222(2) 0.53235(17) 0.91366(16)
H6 H 0.7898 0.5244 1.0064
H7 H 0.8916 0.5933 0.8734
C6 C 0.59783(19) 0.85338(16) 0.83124(19)
C7 C 0.6636(3) 0.8916(2) 0.9045(3)
H8 H 0.6771 0.8379 0.9895
C8 C 0.7094(3) 1.0141(3) 0.8467(4)
H9 H 0.7544 1.0419 0.8940
C9 C 0.6893(3) 1.0929(2) 0.7229(4)
H10 H 0.7202 1.1740 0.6864
C10 C 0.6242(3) 1.0537(2) 0.6518(3)
H11 H 0.6113 1.1079 0.5668
C11 C 0.5773(3) 0.93356(19) 0.7058(2)
H12 H 0.5321 0.9071 0.6576
C12 C 1.02452(16) 0.25735(14) 0.73654(14)
C13 C 1.0411(2) 0.24024(16) 0.61593(17)
H13 H 1.0081 0.3142 0.5461
C14 C 1.1059(2) 0.11463(19) 0.5975(2)
H14 H 1.1157 0.1051 0.5158
C15 C 1.1558(2) 0.00380(19) 0.6997(2)
H15 H 1.1993 -0.0804 0.6874
C16 C 1.1408(3) 0.01870(19) 0.8190(2)
H16 H 1.1748 -0.0557 0.8881
C17 C 1.0751(2) 0.14423(17) 0.83847(18)
H17 H 1.0648 0.1526 0.9207
C18 C 1.20492(19) 0.46357(19) 0.71257(17)
H18 H 1.1969 0.4151 0.8070
C19 C 1.2326(3) 0.5985(3) 0.6861(3)
H19 H 1.2416 0.6463 0.5936
H20 H 1.3272 0.5872 0.7137
H21 H 1.1468 0.6489 0.7340
C20 C 1.3368(2) 0.3823(3) 0.6380(3)
H22 H 1.3151 0.2971 0.6541
H23 H 1.4319 0.3673 0.6667
H24 H 1.3477 0.4306 0.5455
N1 N 0.68513(15) 0.58536(12) 0.85018(13)
O1 O 0.52409(17) 0.65987(15) 1.03946(14)
O2 O 0.70317(13) 0.38601(12) 0.72664(12)
H25 H 0.6530 0.3864 0.8002
O3 O 0.41325(14) 0.71292(13) 0.84312(16)
O4 O 1.05743(11) 0.48737(10) 0.67579(10)
S1 S 0.54102(5) 0.69882(4) 0.89913(5)
loop_
_geom_bond_atom_site_label_1
_geom_bond_atom_site_label_2
_geom_bond_site_symmetry_1
_geom_bond_site_symmetry_2
C1 H1 1_555 1_555
H2 C1 1_555 1_555
C2 C1 1_555 1_555
H3 C2 1_555 1_555
C3 C2 1_555 1_555
C4 C3 1_555 1_555
H4 C4 1_555 1_555
H5 C4 1_555 1_555
C5 C4 1_555 1_555
H6 C5 1_555 1_555
H7 C5 1_555 1_555
C6 C7 1_555 1_555
C7 H8 1_555 1_555
C8 C7 1_555 1_555
H9 C8 1_555 1_555
C9 C8 1_555 1_555
H10 C9 1_555 1_555
C10 C9 1_555 1_555
H11 C10 1_555 1_555
C11 C6 1_555 1_555
H12 C11 1_555 1_555
C12 C3 1_555 1_555
C13 C12 1_555 1_555
H13 C13 1_555 1_555
C14 C13 1_555 1_555
H14 C14 1_555 1_555
C15 C14 1_555 1_555
H15 C15 1_555 1_555
C16 C15 1_555 1_555
H16 C16 1_555 1_555
C17 C12 1_555 1_555
H17 C17 1_555 1_555
C18 H18 1_555 1_555
C19 C18 1_555 1_555
H19 C19 1_555 1_555
H20 C19 1_555 1_555
H21 C19 1_555 1_555
C20 C18 1_555 1_555
H22 C20 1_555 1_555
H23 C20 1_555 1_555
H24 C20 1_555 1_555
N1 C1 1_555 1_555
O1 S1 1_555 1_555
O2 C2 1_555 1_555
H25 O2 1_555 1_555
O3 S1 1_555 1_555
O4 C3 1_555 1_555
S1 C6 1_555 1_555
C5 N1 1_555 1_555
C10 C11 1_555 1_555
C16 C17 1_555 1_555
C18 O4 1_555 1_555
N1 S1 1_555 1_555

#END
