
#######################################################################
#
#                 Cambridge Crystallographic Data Centre
#                                CCDC 
#
#######################################################################
#
# If this CIF has been generated from an entry in the Cambridge 
# Structural Database, then it will include bibliographic, chemical, 
# crystal, experimental, refinement or atomic coordinate data resulting 
# from the CCDC's data processing and validation procedures.
#
#######################################################################

data_HUTXID
_chemical_formula_moiety         'C12 H10 N2 O1 S1'
_chemical_name_systematic        
3,9-dimethyl-4,9-dihydroisothiazolo(5,4-b)quinolin-4-one
_symmetry_cell_setting           orthorhombic
_symmetry_space_group_name_H-M   'P 21 21 21'
_symmetry_Int_Tables_number      19
_space_group_name_Hall           'P 2ac 2ab'
loop_
_symmetry_equiv_pos_site_id
_symmetry_equiv_pos_as_xyz
1 x,y,z
2 1/2-x,-y,1/2+z
3 -x,1/2+y,1/2-z
4 1/2+x,1/2-y,-z
_cell_length_a                   4.7665(11)
_cell_length_b                   14.6780(17)
_cell_length_c                   15.128(2)
_cell_angle_alpha                90
_cell_angle_beta                 90
_cell_angle_gamma                90
_cell_volume                     1058.4
_exptl_crystal_colour            'pale yellow'
_exptl_crystal_description       block
_chemical_melting_point          472-473K
_cell_formula_units_Z            4
loop_
_atom_site_label
_atom_site_type_symbol
_atom_site_fract_x
_atom_site_fract_y
_atom_site_fract_z
S1 S 0.1458(2) 0.45171(6) 0.70106(7)
N1 N 0.2529(7) 0.52031(19) 0.61973(18)
C1 C 0.1265(8) 0.6002(2) 0.6255(2)
C2 C -0.2399(8) 0.68765(19) 0.7205(2)
C3 C -0.5993(8) 0.7418(2) 0.8271(2)
H1 H -0.6020 0.7968 0.7965
C4 C -0.7720(9) 0.7309(3) 0.8987(2)
H2 H -0.8935 0.7771 0.9160
C5 C -0.7618(9) 0.6493(3) 0.9447(2)
H3 H -0.8755 0.6417 0.9941
C6 C -0.5880(8) 0.5794(3) 0.9192(2)
H4 H -0.5857 0.5254 0.9513
N2 N -0.2394(7) 0.51865(15) 0.81893(16)
C7 C -0.0778(7) 0.53123(19) 0.7463(2)
C8 C -0.0697(7) 0.61058(19) 0.6972(2)
C9 C -0.4177(7) 0.6721(2) 0.7987(2)
C10 C -0.4149(7) 0.5892(2) 0.8456(2)
C11 C 0.1950(10) 0.6723(2) 0.5597(2)
H5 H 0.3314 0.6494 0.5186
H6 H 0.2700 0.7245 0.5896
H7 H 0.0279 0.6893 0.5283
C12 C -0.2259(9) 0.4323(2) 0.8682(2)
H8 H -0.0936 0.3922 0.8403
H9 H -0.4078 0.4042 0.8686
H10 H -0.1675 0.4441 0.9279
O1 O -0.2388(6) 0.76065(14) 0.67957(14)
loop_
_geom_bond_atom_site_label_1
_geom_bond_atom_site_label_2
_geom_bond_site_symmetry_1
_geom_bond_site_symmetry_2
S1 N1 1_555 1_555
N1 C1 1_555 1_555
C1 C8 1_555 1_555
C2 C8 1_555 1_555
C3 H1 1_555 1_555
C4 C3 1_555 1_555
H2 C4 1_555 1_555
C5 C4 1_555 1_555
H3 C5 1_555 1_555
C6 C5 1_555 1_555
H4 C6 1_555 1_555
N2 C7 1_555 1_555
C7 S1 1_555 1_555
C8 C7 1_555 1_555
C9 C2 1_555 1_555
C10 C6 1_555 1_555
C11 C1 1_555 1_555
H5 C11 1_555 1_555
H6 C11 1_555 1_555
H7 C11 1_555 1_555
C12 N2 1_555 1_555
H8 C12 1_555 1_555
H9 C12 1_555 1_555
H10 C12 1_555 1_555
O1 C2 1_555 1_555
C3 C9 1_555 1_555
N2 C10 1_555 1_555
C9 C10 1_555 1_555

#END
