
#######################################################################
#
#                 Cambridge Crystallographic Data Centre
#                                CCDC 
#
#######################################################################
#
# If this CIF has been generated from an entry in the Cambridge 
# Structural Database, then it will include bibliographic, chemical, 
# crystal, experimental, refinement or atomic coordinate data resulting 
# from the CCDC's data processing and validation procedures.
#
#######################################################################

data_HUTXEZ
_chemical_formula_moiety         'C17 H12 N2 O1 S1,C1 H4 O1'
_chemical_name_systematic        
'3-methyl-8-phenyl-4,9-dihydroisothiazolo(5,4-b)quinolin-4-one methanol solvate'
_symmetry_cell_setting           triclinic
_symmetry_space_group_name_H-M   'P -1'
_symmetry_Int_Tables_number      2
_space_group_name_Hall           '-P 1'
loop_
_symmetry_equiv_pos_site_id
_symmetry_equiv_pos_as_xyz
1 x,y,z
2 -x,-y,-z
_cell_length_a                   8.9715(16)
_cell_length_b                   13.3357(17)
_cell_length_c                   14.104(3)
_cell_angle_alpha                89.786(9)
_cell_angle_beta                 76.724(14)
_cell_angle_gamma                82.851(11)
_cell_volume                     1629.02
_exptl_crystal_colour            'pale yellow'
_exptl_crystal_description       block
_chemical_melting_point          557-558K
_cell_formula_units_Z            4
loop_
_atom_site_label
_atom_site_type_symbol
_atom_site_fract_x
_atom_site_fract_y
_atom_site_fract_z
S1 S 0.18497(9) 0.94401(5) 0.36545(4)
N1 N 0.1576(3) 0.82282(15) 0.38321(15)
C1 C 0.1585(3) 0.79705(18) 0.47344(18)
C2 C 0.1943(3) 0.87273(18) 0.63506(17)
C3 C 0.2134(3) 0.9777(2) 0.77592(18)
H1 H 0.2037 0.9208 0.8141
C4 C 0.2292(4) 1.0676(2) 0.81660(19)
H2 H 0.2267 1.0723 0.8827
C5 C 0.2489(3) 1.1519(2) 0.7590(2)
H3 H 0.2608 1.2122 0.7875
C6 C 0.2513(3) 1.14907(19) 0.66069(18)
C7 C 0.1346(4) 0.69223(19) 0.5055(2)
H4 H 0.1216 0.6529 0.4518
H5 H 0.0441 0.6947 0.5577
H6 H 0.2228 0.6617 0.5277
C8 C 0.1821(3) 0.87602(17) 0.53454(17)
C9 C 0.1984(3) 0.96436(17) 0.48363(16)
C10 C 0.2117(3) 0.97072(18) 0.67679(17)
C11 C 0.2295(3) 1.05655(18) 0.61971(17)
C12 C 0.1760(4) 1.3283(2) 0.6218(2)
H7 H 0.0875 1.3297 0.6716
C13 C 0.2038(5) 1.4140(2) 0.5693(3)
H8 H 0.1343 1.4727 0.5839
C14 C 0.3344(5) 1.4131(2) 0.4951(3)
H9 H 0.3531 1.4709 0.4595
C15 C 0.4363(4) 1.3264(3) 0.4741(3)
H10 H 0.5244 1.3252 0.4240
C16 C 0.4086(4) 1.2405(2) 0.5273(2)
H11 H 0.4791 1.1823 0.5129
C17 C 0.2778(3) 1.24016(18) 0.60149(19)
O1 O 0.1934(3) 0.79490(14) 0.68170(14)
N2 N 0.2222(2) 1.05161(14) 0.52248(13)
H12 H 0.2329 1.1041 0.4871
C18 C 0.4277(4) 0.6491(3) 0.2486(3)
H13 H 0.4384 0.6476 0.3148
H14 H 0.4720 0.7059 0.2170
H15 H 0.4801 0.5878 0.2148
O2 O 0.2717(2) 0.65790(14) 0.24753(14)
H16 H 0.2287 0.7129 0.2714
S2 S 0.19074(10) 1.44185(5) 0.25904(5)
N3 N 0.1579(3) 1.32151(17) 0.24962(17)
C19 C 0.1499(3) 1.29859(19) 0.16023(19)
C20 C 0.1725(3) 1.37832(18) -0.01007(17)
C21 C 0.2050(3) 1.4840(2) -0.15735(18)
H17 H 0.1880 1.4293 -0.1924
C22 C 0.2346(4) 1.5720(2) -0.20330(19)
H18 H 0.2367 1.5773 -0.2693
C23 C 0.2618(3) 1.6535(2) -0.15176(19)
H19 H 0.2845 1.7124 -0.1846
C24 C 0.2561(3) 1.65011(18) -0.05306(17)
C25 C 0.1197(4) 1.1948(2) 0.1372(2)
H20 H 0.1100 1.1551 0.1947
H21 H 0.2040 1.1635 0.0872
H22 H 0.0259 1.1991 0.1148
C26 C 0.1709(3) 1.37841(17) 0.09280(17)
C27 C 0.1956(3) 1.46468(18) 0.13804(17)
C28 C 0.1999(3) 1.47554(18) -0.05738(16)
C29 C 0.2249(3) 1.55900(17) -0.00560(16)
C30 C 0.1671(4) 1.8013(2) 0.0589(2)
H23 H 0.0662 1.7869 0.0671
C31 C 0.1968(4) 1.8854(3) 0.1064(3)
H24 H 0.1159 1.9266 0.1466
C32 C 0.3440(5) 1.9075(3) 0.0940(3)
H25 H 0.3635 1.9648 0.1241
C33 C 0.4612(5) 1.8460(3) 0.0381(3)
H26 H 0.5622 1.8592 0.0321
C34 C 0.4323(4) 1.7626(3) -0.0108(3)
H27 H 0.5140 1.7223 -0.0513
C35 C 0.2856(3) 1.73938(18) 0.00012(18)
O3 O 0.1557(2) 1.30368(13) -0.05595(13)
N4 N 0.2199(3) 1.55228(14) 0.09307(13)
H28 H 0.2324 1.6039 0.1254
C36 C 0.4111(4) 1.1376(3) 0.2948(3)
H29 H 0.4615 1.1967 0.2964
H30 H 0.4088 1.1220 0.2288
H31 H 0.4666 1.0816 0.3203
O4 O 0.2586(2) 1.15568(15) 0.35203(14)
H32 H 0.2158 1.2089 0.3362
loop_
_geom_bond_atom_site_label_1
_geom_bond_atom_site_label_2
_geom_bond_site_symmetry_1
_geom_bond_site_symmetry_2
S1 N1 1_555 1_555
N1 C1 1_555 1_555
C1 C7 1_555 1_555
C2 C8 1_555 1_555
C3 H1 1_555 1_555
C4 C3 1_555 1_555
H2 C4 1_555 1_555
C5 C4 1_555 1_555
H3 C5 1_555 1_555
C6 C5 1_555 1_555
C7 H4 1_555 1_555
H5 C7 1_555 1_555
H6 C7 1_555 1_555
C8 C1 1_555 1_555
C9 S1 1_555 1_555
C10 C2 1_555 1_555
C11 C6 1_555 1_555
C12 H7 1_555 1_555
C13 C12 1_555 1_555
H8 C13 1_555 1_555
C14 C13 1_555 1_555
H9 C14 1_555 1_555
C15 C14 1_555 1_555
H10 C15 1_555 1_555
C16 C15 1_555 1_555
H11 C16 1_555 1_555
C17 C6 1_555 1_555
O1 C2 1_555 1_555
N2 C9 1_555 1_555
H12 N2 1_555 1_555
C18 H13 1_555 1_555
H14 C18 1_555 1_555
H15 C18 1_555 1_555
O2 C18 1_555 1_555
H16 O2 1_555 1_555
S2 N3 1_555 1_555
N3 C19 1_555 1_555
C19 C25 1_555 1_555
C20 C26 1_555 1_555
C21 H17 1_555 1_555
C22 C21 1_555 1_555
H18 C22 1_555 1_555
C23 C22 1_555 1_555
H19 C23 1_555 1_555
C24 C23 1_555 1_555
C25 H20 1_555 1_555
H21 C25 1_555 1_555
H22 C25 1_555 1_555
C26 C19 1_555 1_555
C27 S2 1_555 1_555
C28 C20 1_555 1_555
C29 C24 1_555 1_555
C30 H23 1_555 1_555
C31 C30 1_555 1_555
H24 C31 1_555 1_555
C32 C31 1_555 1_555
H25 C32 1_555 1_555
C33 C32 1_555 1_555
H26 C33 1_555 1_555
C34 C33 1_555 1_555
H27 C34 1_555 1_555
C35 C24 1_555 1_555
O3 C20 1_555 1_555
N4 C27 1_555 1_555
H28 N4 1_555 1_555
C36 H29 1_555 1_555
H30 C36 1_555 1_555
H31 C36 1_555 1_555
O4 C36 1_555 1_555
H32 O4 1_555 1_555
C3 C10 1_555 1_555
C8 C9 1_555 1_555
C10 C11 1_555 1_555
C11 N2 1_555 1_555
C12 C17 1_555 1_555
C16 C17 1_555 1_555
C21 C28 1_555 1_555
C26 C27 1_555 1_555
C28 C29 1_555 1_555
C29 N4 1_555 1_555
C30 C35 1_555 1_555
C34 C35 1_555 1_555

#END
