
#######################################################################
#
#                 Cambridge Crystallographic Data Centre
#                                CCDC 
#
#######################################################################
#
# If this CIF has been generated from an entry in the Cambridge 
# Structural Database, then it will include bibliographic, chemical, 
# crystal, experimental, refinement or atomic coordinate data resulting 
# from the CCDC's data processing and validation procedures.
#
#######################################################################

data_HUVGOW
_chemical_name_common            
"1,4-bis(1H-imidazol-1-yl)benzene, biphenyl-4,4'-diol"
_chemical_formula_moiety         'C12 H10 N4,C12 H10 O2'
_chemical_name_systematic        
"biphenyl-4,4'-diol 1,1'-(1,4-phenylene)bis-1H-imidazole"
_symmetry_cell_setting           triclinic
_symmetry_space_group_name_H-M   'P -1'
_symmetry_Int_Tables_number      2
_space_group_name_Hall           '-P 1'
loop_
_symmetry_equiv_pos_site_id
_symmetry_equiv_pos_as_xyz
1 x,y,z
2 -x,-y,-z
_cell_length_a                   9.892(2)
_cell_length_b                   10.043(2)
_cell_length_c                   10.989(2)
_cell_angle_alpha                84.19(3)
_cell_angle_beta                 79.26(3)
_cell_angle_gamma                63.72(3)
_cell_volume                     961.504
_exptl_crystal_colour            colorless
_exptl_crystal_description       block
_cell_formula_units_Z            2
_exptl_crystal_recrystallization_method acetone
loop_
_atom_site_label
_atom_site_type_symbol
_atom_site_fract_x
_atom_site_fract_y
_atom_site_fract_z
C1 C 1.90245(18) -0.12085(17) 0.53777(15)
H1 H 1.9176 -0.1699 0.4655
C2 C 1.9341(2) -0.0633(2) 0.70763(16)
H2 H 1.9772 -0.0660 0.7767
C3 C 1.7988(2) 0.04220(19) 0.68408(15)
H3 H 1.7326 0.1238 0.7323
C4 C 1.64814(18) 0.08706(15) 0.51331(13)
C5 C 1.50624(19) 0.16036(17) 0.58258(14)
H4 H 1.4948 0.1534 0.6686
C6 C 1.38073(18) 0.24413(17) 0.52536(13)
H5 H 1.2850 0.2943 0.5723
C7 C 1.39915(18) 0.25244(15) 0.39750(13)
C8 C 1.54031(18) 0.17698(16) 0.32795(14)
H6 H 1.5510 0.1818 0.2419
C9 C 1.66636(18) 0.09400(17) 0.38514(14)
H7 H 1.7620 0.0435 0.3382
C10 C 1.16540(19) 0.48105(17) 0.36702(15)
H8 H 1.1593 0.5289 0.4374
C11 C 1.1219(2) 0.4336(2) 0.19792(16)
H9 H 1.0775 0.4439 0.1279
C12 C 1.2443(2) 0.31243(19) 0.22690(14)
H10 H 1.2992 0.2258 0.1820
N1 N 2.00002(16) -0.16619(16) 0.61628(13)
N2 N 1.77754(15) 0.00538(13) 0.57419(11)
N3 N 1.27168(14) 0.34303(13) 0.33656(11)
N4 N 1.07138(17) 0.54047(16) 0.28611(14)
C13 C 0.66923(19) 0.44084(16) 0.27361(15)
C14 C 0.51412(19) 0.52595(16) 0.27668(15)
H11 H 0.4528 0.5680 0.3506
C15 C 0.44932(18) 0.54897(16) 0.17059(14)
H12 H 0.3447 0.6066 0.1752
C16 C 0.53531(17) 0.48888(15) 0.05698(13)
C17 C 0.69200(18) 0.40582(17) 0.05618(15)
H13 H 0.7542 0.3645 -0.0176
C18 C 0.75768(19) 0.38303(18) 0.16175(15)
H14 H 0.8627 0.3281 0.1573
O1 O 0.72726(15) 0.41716(13) 0.38164(11)
H15 H 0.8255 0.3348 0.3823
C13A C 0.33077(19) 0.55916(16) -0.27361(15)
C14A C 0.48588(19) 0.47405(16) -0.27668(15)
H11A H 0.5472 0.4320 -0.3506
C15A C 0.55068(18) 0.45103(16) -0.17059(14)
H12A H 0.6553 0.3934 -0.1752
C16A C 0.46469(17) 0.51112(15) -0.05698(13)
C17A C 0.30800(18) 0.59418(17) -0.05618(15)
H13A H 0.2458 0.6355 0.0176
C18A C 0.24232(19) 0.61697(18) -0.16175(15)
H14A H 0.1373 0.6719 -0.1573
O1A O 0.27274(15) 0.58284(13) -0.38164(11)
H15A H 0.1745 0.6652 -0.3823
C19 C 0.84990(17) 0.85937(17) 0.12034(13)
C20 C 0.76966(19) 0.77548(17) 0.12885(14)
H16 H 0.8065 0.6818 0.1668
C21 C 0.63487(18) 0.82963(16) 0.08134(13)
H17 H 0.5828 0.7709 0.0878
C22 C 0.57376(17) 0.97009(15) 0.02365(12)
C23 C 0.66018(19) 1.05047(17) 0.01374(14)
H18 H 0.6252 1.1434 -0.0255
C24 C 0.79567(19) 0.99671(17) 0.06010(15)
H19 H 0.8508 1.0528 0.0509
O2 O 0.98014(13) 0.81476(13) 0.17052(12)
H20 H 0.9991 0.7204 0.2137
C19A C 0.15010(17) 1.14063(17) -0.12034(13)
C20A C 0.23034(19) 1.22452(17) -0.12885(14)
H16A H 0.1935 1.3182 -0.1668
C21A C 0.36513(18) 1.17037(16) -0.08134(13)
H17A H 0.4172 1.2291 -0.0878
C22A C 0.42624(17) 1.02991(15) -0.02365(12)
C23A C 0.33982(19) 0.94953(17) -0.01374(14)
H18A H 0.3748 0.8566 0.0255
C24A C 0.20433(19) 1.00329(17) -0.06010(15)
H19A H 0.1492 0.9472 -0.0509
O2A O 0.01986(13) 1.18524(13) -0.17052(12)
H20A H 0.0009 1.2796 -0.2137
loop_
_geom_bond_atom_site_label_1
_geom_bond_atom_site_label_2
_geom_bond_site_symmetry_1
_geom_bond_site_symmetry_2
C1 H1 1_555 1_555
C2 H2 1_555 1_555
C3 C2 1_555 1_555
H3 C3 1_555 1_555
C4 C5 1_555 1_555
C5 H4 1_555 1_555
C6 C5 1_555 1_555
H5 C6 1_555 1_555
C7 C6 1_555 1_555
C8 C7 1_555 1_555
H6 C8 1_555 1_555
C9 C4 1_555 1_555
H7 C9 1_555 1_555
C10 H8 1_555 1_555
C11 H9 1_555 1_555
C12 C11 1_555 1_555
H10 C12 1_555 1_555
N1 C1 1_555 1_555
N2 C1 1_555 1_555
N3 C7 1_555 1_555
N4 C10 1_555 1_555
C13 C14 1_555 1_555
C14 H11 1_555 1_555
C15 C14 1_555 1_555
H12 C15 1_555 1_555
C16 C15 1_555 1_555
C17 C16 1_555 1_555
H13 C17 1_555 1_555
C18 C13 1_555 1_555
H14 C18 1_555 1_555
O1 C13 1_555 1_555
H15 O1 1_555 1_555
C19 C20 1_555 1_555
C20 H16 1_555 1_555
C21 C20 1_555 1_555
H17 C21 1_555 1_555
C22 C21 1_555 1_555
C23 C22 1_555 1_555
H18 C23 1_555 1_555
C24 C19 1_555 1_555
H19 C24 1_555 1_555
O2 C19 1_555 1_555
H20 O2 1_555 1_555
C13A C14A 1_555 1_555
C14A H11A 1_555 1_555
C15A C14A 1_555 1_555
H12A C15A 1_555 1_555
C16A C16 1_555 1_555
C17A C16A 1_555 1_555
H13A C17A 1_555 1_555
C18A C13A 1_555 1_555
H14A C18A 1_555 1_555
O1A C13A 1_555 1_555
H15A O1A 1_555 1_555
C19A C20A 1_555 1_555
C20A H16A 1_555 1_555
C21A C20A 1_555 1_555
H17A C21A 1_555 1_555
C22A C22 1_555 1_555
C23A C22A 1_555 1_555
H18A C23A 1_555 1_555
C24A C19A 1_555 1_555
H19A C24A 1_555 1_555
O2A C19A 1_555 1_555
H20A O2A 1_555 1_555
C2 N1 1_555 1_555
C3 N2 1_555 1_555
C4 N2 1_555 1_555
C8 C9 1_555 1_555
C10 N3 1_555 1_555
C11 N4 1_555 1_555
C12 N3 1_555 1_555
C17 C18 1_555 1_555
C23 C24 1_555 1_555
C15A C16A 1_555 1_555
C17A C18A 1_555 1_555
C21A C22A 1_555 1_555
C23A C24A 1_555 1_555

#END
