
#######################################################################
#
#                 Cambridge Crystallographic Data Centre
#                                CCDC 
#
#######################################################################
#
# If this CIF has been generated from an entry in the Cambridge 
# Structural Database, then it will include bibliographic, chemical, 
# crystal, experimental, refinement or atomic coordinate data resulting 
# from the CCDC's data processing and validation procedures.
#
#######################################################################

data_HUVLOA
_chemical_formula_moiety         'C45 H48 N4 O9'
_chemical_name_systematic        
tris(6-(3,4,5-Trimethoxyphenyl)pyridin-2-ylmethyl)amine
_symmetry_cell_setting           monoclinic
_symmetry_space_group_name_H-M   'P 21/c'
_symmetry_Int_Tables_number      14
_space_group_name_Hall           '-P 2ybc'
loop_
_symmetry_equiv_pos_site_id
_symmetry_equiv_pos_as_xyz
1 x,y,z
2 -x,1/2+y,1/2-z
3 -x,-y,-z
4 x,1/2-y,1/2+z
_cell_length_a                   31.378(5)
_cell_length_b                   10.0581(15)
_cell_length_c                   12.9625(19)
_cell_angle_alpha                90
_cell_angle_beta                 100.347(3)
_cell_angle_gamma                90
_cell_volume                     4024.48
_exptl_crystal_colour            colorless
_exptl_crystal_description       plate
_cell_formula_units_Z            4
loop_
_atom_site_label
_atom_site_type_symbol
_atom_site_fract_x
_atom_site_fract_y
_atom_site_fract_z
N1 N 0.25680(7) 0.0525(3) 0.4434(2)
C1 C 0.27206(9) 0.1801(3) 0.4911(3)
C2 C 0.30972(10) 0.2350(3) 0.4457(2)
C3 C 0.30640(10) 0.2565(3) 0.3386(3)
H3 H 0.2806 0.2335 0.2916
C4 C 0.34093(10) 0.3115(3) 0.3014(3)
H4 H 0.3392 0.3284 0.2287
C5 C 0.37818(10) 0.3417(3) 0.3720(3)
H5 H 0.4024 0.3794 0.3482
C6 C 0.37986(10) 0.3166(3) 0.4776(3)
N2 N 0.34557(8) 0.2638(3) 0.5148(2)
C7 C 0.41889(10) 0.3456(3) 0.5572(3)
C8 C 0.46017(10) 0.3319(3) 0.5330(3)
H6 H 0.4633 0.3060 0.4643
C9 C 0.49665(9) 0.3558(3) 0.6081(3)
C10 C 0.49228(9) 0.3950(3) 0.7092(3)
C11 C 0.45084(10) 0.4082(3) 0.7334(3)
C12 C 0.41449(10) 0.3837(3) 0.6577(3)
H7 H 0.3864 0.3930 0.6747
O1 O 0.53865(6) 0.3432(2) 0.59270(17)
C13 C 0.54447(10) 0.3065(4) 0.4896(3)
H8 H 0.5755 0.3025 0.4873
H9 H 0.5305 0.3726 0.4390
H10 H 0.5314 0.2191 0.4718
O2 O 0.52875(6) 0.4122(2) 0.78386(17)
C14 C 0.53612(12) 0.5453(4) 0.8211(3)
H11 H 0.5666 0.5558 0.8539
H12 H 0.5176 0.5643 0.8727
H13 H 0.5292 0.6073 0.7621
O3 O 0.44959(7) 0.4420(3) 0.83516(18)
C15 C 0.41055(11) 0.5005(4) 0.8565(3)
H14 H 0.4154 0.5333 0.9289
H15 H 0.3875 0.4336 0.8472
H16 H 0.4021 0.5746 0.8082
C16 C 0.28926(10) -0.0528(3) 0.4631(3)
H17 H 0.2977 -0.0999 0.4064
C17 C 0.30925(9) -0.0856(3) 0.5750(3)
C18 C 0.35323(10) -0.1119(3) 0.6051(3)
H18 H 0.3720 -0.1062 0.5554
C19 C 0.36943(10) -0.1465(4) 0.7083(3)
H19 H 0.3993 -0.1666 0.7299
C20 C 0.34136(10) -0.1514(3) 0.7793(3)
H20 H 0.3517 -0.1745 0.8505
C21 C 0.29767(9) -0.1218(3) 0.7448(3)
N3 N 0.28210(8) -0.0908(3) 0.6443(2)
C22 C 0.26538(10) -0.1244(3) 0.8155(2)
C23 C 0.27528(10) -0.0845(3) 0.9196(3)
H21 H 0.3040 -0.0582 0.9491
C24 C 0.24298(11) -0.0833(3) 0.9803(3)
C25 C 0.20094(10) -0.1232(3) 0.9373(3)
C26 C 0.19180(10) -0.1672(3) 0.8343(3)
C27 C 0.22368(9) -0.1668(3) 0.7729(3)
H22 H 0.2171 -0.1953 0.7019
O4 O 0.24830(7) -0.0441(3) 1.08337(18)
C28 C 0.29117(12) -0.0303(4) 1.1391(3)
H23 H 0.2906 -0.0145 1.2134
H24 H 0.3052 0.0451 1.1107
H25 H 0.3075 -0.1118 1.1317
O5 O 0.16906(7) -0.1241(2) 0.99765(18)
C29 C 0.14373(13) -0.0045(4) 0.9892(3)
H26 H 0.1192 -0.0164 1.0255
H27 H 0.1329 0.0151 0.9150
H28 H 0.1618 0.0694 1.0211
O6 O 0.15027(7) -0.2103(2) 0.79973(18)
C30 C 0.14248(11) -0.2747(4) 0.7003(3)
H29 H 0.1125 -0.3069 0.6853
H30 H 0.1624 -0.3500 0.7014
H31 H 0.1472 -0.2116 0.6459
C31 C 0.21435(9) 0.0165(3) 0.4681(3)
H32 H 0.2146 0.0331 0.5435
H33 H 0.2093 -0.0797 0.4551
C32 C 0.17762(9) 0.0942(3) 0.4037(2)
C33 C 0.17858(10) 0.1358(4) 0.3016(3)
H34 H 0.2034 0.1205 0.2707
C34 C 0.14260(10) 0.1998(4) 0.2464(3)
H35 H 0.1423 0.2296 0.1768
C35 C 0.10719(10) 0.2196(3) 0.2941(3)
H36 H 0.0822 0.2633 0.2573
C36 C 0.10821(9) 0.1758(3) 0.3956(2)
N4 N 0.14331(7) 0.1144(3) 0.4502(2)
C37 C 0.07060(9) 0.1935(3) 0.4512(2)
C38 C 0.03684(9) 0.2808(3) 0.4143(3)
H37 H 0.0372 0.3308 0.3522
C39 C 0.00267(9) 0.2946(3) 0.4686(2)
C40 C 0.00151(9) 0.2195(3) 0.5584(2)
C41 C 0.03428(9) 0.1285(3) 0.5925(2)
C42 C 0.06918(9) 0.1173(3) 0.5402(2)
H38 H 0.0921 0.0575 0.5654
O7 O -0.03163(6) 0.3793(2) 0.44122(17)
C43 C -0.03152(10) 0.4611(3) 0.3509(3)
H39 H -0.0576 0.5166 0.3389
H40 H -0.0311 0.4045 0.2895
H41 H -0.0058 0.5180 0.3625
O8 O -0.02971(6) 0.2424(2) 0.61890(16)
C44 C -0.07144(10) 0.1875(4) 0.5798(3)
H42 H -0.0926 0.2247 0.6190
H43 H -0.0704 0.0907 0.5883
H44 H -0.0800 0.2096 0.5053
O9 O 0.02989(7) 0.0562(2) 0.67890(16)
C45 C 0.05989(11) -0.0490(3) 0.7081(3)
H45 H 0.0522 -0.0972 0.7678
H46 H 0.0891 -0.0122 0.7277
H47 H 0.0590 -0.1100 0.6488
H1? H 0.2812 0.1681 0.5677
H2? H 0.2479 0.2450 0.4795
loop_
_geom_bond_atom_site_label_1
_geom_bond_atom_site_label_2
_geom_bond_site_symmetry_1
_geom_bond_site_symmetry_2
N1 C1 1_555 1_555
C1 C2 1_555 1_555
C2 C3 1_555 1_555
C3 H3 1_555 1_555
C4 C3 1_555 1_555
H4 C4 1_555 1_555
C5 C4 1_555 1_555
H5 C5 1_555 1_555
C6 C5 1_555 1_555
N2 C2 1_555 1_555
C7 C6 1_555 1_555
C8 C7 1_555 1_555
H6 C8 1_555 1_555
C9 C8 1_555 1_555
C10 C9 1_555 1_555
C11 C10 1_555 1_555
C12 C7 1_555 1_555
H7 C12 1_555 1_555
O1 C9 1_555 1_555
C13 O1 1_555 1_555
H8 C13 1_555 1_555
H9 C13 1_555 1_555
H10 C13 1_555 1_555
O2 C10 1_555 1_555
C14 O2 1_555 1_555
H11 C14 1_555 1_555
H12 C14 1_555 1_555
H13 C14 1_555 1_555
O3 C11 1_555 1_555
C15 O3 1_555 1_555
H14 C15 1_555 1_555
H15 C15 1_555 1_555
H16 C15 1_555 1_555
C16 N1 1_555 1_555
H17 C16 1_555 1_555
C17 C16 1_555 1_555
C18 C17 1_555 1_555
H18 C18 1_555 1_555
C19 C18 1_555 1_555
H19 C19 1_555 1_555
C20 C19 1_555 1_555
H20 C20 1_555 1_555
C21 C20 1_555 1_555
N3 C17 1_555 1_555
C22 C21 1_555 1_555
C23 C22 1_555 1_555
H21 C23 1_555 1_555
C24 C23 1_555 1_555
C25 C24 1_555 1_555
C26 C25 1_555 1_555
C27 C22 1_555 1_555
H22 C27 1_555 1_555
O4 C24 1_555 1_555
C28 O4 1_555 1_555
H23 C28 1_555 1_555
H24 C28 1_555 1_555
H25 C28 1_555 1_555
O5 C25 1_555 1_555
C29 O5 1_555 1_555
H26 C29 1_555 1_555
H27 C29 1_555 1_555
H28 C29 1_555 1_555
O6 C26 1_555 1_555
C30 O6 1_555 1_555
H29 C30 1_555 1_555
H30 C30 1_555 1_555
H31 C30 1_555 1_555
C31 N1 1_555 1_555
H32 C31 1_555 1_555
H33 C31 1_555 1_555
C32 C31 1_555 1_555
C33 C32 1_555 1_555
H34 C33 1_555 1_555
C34 C33 1_555 1_555
H35 C34 1_555 1_555
C35 C34 1_555 1_555
H36 C35 1_555 1_555
C36 C35 1_555 1_555
N4 C32 1_555 1_555
C37 C36 1_555 1_555
C38 C37 1_555 1_555
H37 C38 1_555 1_555
C39 C38 1_555 1_555
C40 C39 1_555 1_555
C41 C40 1_555 1_555
C42 C37 1_555 1_555
H38 C42 1_555 1_555
O7 C39 1_555 1_555
C43 O7 1_555 1_555
H39 C43 1_555 1_555
H40 C43 1_555 1_555
H41 C43 1_555 1_555
O8 C40 1_555 1_555
C44 O8 1_555 1_555
H42 C44 1_555 1_555
H43 C44 1_555 1_555
H44 C44 1_555 1_555
O9 C41 1_555 1_555
C45 O9 1_555 1_555
H45 C45 1_555 1_555
H46 C45 1_555 1_555
H47 C45 1_555 1_555
C6 N2 1_555 1_555
C11 C12 1_555 1_555
C21 N3 1_555 1_555
C26 C27 1_555 1_555
C36 N4 1_555 1_555
C41 C42 1_555 1_555

#END
