
#######################################################################
#
#                 Cambridge Crystallographic Data Centre
#                                CCDC 
#
#######################################################################
#
# If this CIF has been generated from an entry in the Cambridge 
# Structural Database, then it will include bibliographic, chemical, 
# crystal, experimental, refinement or atomic coordinate data resulting 
# from the CCDC's data processing and validation procedures.
#
#######################################################################

data_HUWKAN
_chemical_formula_moiety         'C29 H33 N3 O1 S1'
_chemical_name_systematic        
(4-(Cyclohexylamino)-5-(cyclohexylimino)-1-phenyl-2-thioxo-2,5-dihydro-1H-pyrrol-3-yl)(phenyl)methanone
_symmetry_cell_setting           monoclinic
_symmetry_space_group_name_H-M   'P 21/c'
_symmetry_Int_Tables_number      14
_space_group_name_Hall           '-P 2ybc'
loop_
_symmetry_equiv_pos_site_id
_symmetry_equiv_pos_as_xyz
1 x,y,z
2 -x,1/2+y,1/2-z
3 -x,-y,-z
4 x,1/2-y,1/2+z
_cell_length_a                   12.822(4)
_cell_length_b                   11.337(3)
_cell_length_c                   18.694(5)
_cell_angle_alpha                90
_cell_angle_beta                 102.173(4)
_cell_angle_gamma                90
_cell_volume                     2656.32
_exptl_crystal_colour            yellow
_exptl_crystal_description       block
_cell_formula_units_Z            4
loop_
_atom_site_label
_atom_site_type_symbol
_atom_site_fract_x
_atom_site_fract_y
_atom_site_fract_z
S1 S 0.72415(8) 0.52425(8) 0.48125(4)
O1 O 0.72669(18) 0.87157(17) 0.57524(12)
N1 N 0.69920(18) 0.48501(18) 0.61799(12)
N2 N 0.69436(19) 0.5115(2) 0.74798(13)
N3 N 0.77616(19) 0.7293(2) 0.73349(14)
C1 C 0.7285(2) 0.5614(2) 0.56683(15)
C2 C 0.7119(2) 0.5403(2) 0.68639(15)
C3 C 0.7526(2) 0.6607(2) 0.67499(14)
C4 C 0.7592(2) 0.6726(2) 0.60270(14)
C5 C 0.6600(2) 0.3671(2) 0.60060(15)
C6 C 0.7303(3) 0.2742(3) 0.6129(2)
H1 H 0.8028 0.2877 0.6303
C7 C 0.6924(4) 0.1606(3) 0.5991(2)
H2 H 0.7398 0.0974 0.6072
C8 C 0.5879(5) 0.1406(4) 0.5740(2)
H3 H 0.5630 0.0636 0.5659
C9 C 0.5176(4) 0.2330(4) 0.5603(2)
H4 H 0.4455 0.2188 0.5421
C10 C 0.5543(3) 0.3485(3) 0.57380(18)
H5 H 0.5071 0.4117 0.5646
C11 C 0.6446(2) 0.4017(3) 0.76539(16)
H6 H 0.6198 0.3571 0.7201
C12 C 0.5479(17) 0.437(2) 0.7970(15)
H7 H 0.5710 0.4884 0.8387
H8 H 0.4975 0.4800 0.7603
C13 C 0.4935(14) 0.3300(18) 0.8204(13)
H9 H 0.4592 0.2860 0.7774
H10 H 0.4387 0.3556 0.8456
C14 C 0.5728(19) 0.249(2) 0.8714(15)
H11 H 0.5983 0.2880 0.9179
H12 H 0.5365 0.1769 0.8805
C15 C 0.663(2) 0.219(2) 0.8388(13)
H13 H 0.6385 0.1702 0.7959
H14 H 0.7144 0.1736 0.8736
C16 C 0.7182(12) 0.3291(16) 0.8166(10)
H15 H 0.7477 0.3751 0.8599
H16 H 0.7767 0.3052 0.7943
C17 C 0.8271(2) 0.8450(2) 0.74014(15)
H17 H 0.7889 0.8956 0.7007
C18 C 0.9425(2) 0.8351(3) 0.73305(18)
H18 H 0.9800 0.7809 0.7698
H19 H 0.9452 0.8035 0.6852
C19 C 0.9973(3) 0.9542(3) 0.7426(2)
H20 H 0.9635 1.0067 0.7035
H21 H 1.0715 0.9452 0.7398
C20 C 0.9905(3) 1.0074(3) 0.8160(2)
H22 H 1.0295 0.9581 0.8550
H23 H 1.0235 1.0848 0.8205
C21 C 0.8762(3) 1.0183(3) 0.8238(2)
H24 H 0.8391 1.0740 0.7879
H25 H 0.8746 1.0488 0.8721
C22 C 0.8185(3) 0.8991(3) 0.81313(18)
H26 H 0.8498 0.8462 0.8526
H27 H 0.7439 0.9101 0.8146
C23 C 0.7766(2) 0.7833(2) 0.56467(15)
C24 C 0.8559(2) 0.7923(2) 0.51720(15)
C25 C 0.9429(2) 0.7184(3) 0.52489(17)
H28 H 0.9480 0.6536 0.5559
C26 C 1.0226(3) 0.7399(3) 0.4869(2)
H29 H 1.0825 0.6917 0.4936
C27 C 1.0119(4) 0.8335(4) 0.4392(2)
H30 H 1.0653 0.8488 0.4136
C28 C 0.9238(4) 0.9041(4) 0.4290(3)
H31 H 0.9162 0.9654 0.3952
C29 C 0.8464(3) 0.8849(3) 0.4683(2)
H32 H 0.7874 0.9345 0.4620
H33 H 0.762(2) 0.698(3) 0.7733(17)
H34? H 0.6492 0.3421 0.7282
C30? C 0.7055(14) 0.3574(19) 0.8417(9)
H35? H 0.7787 0.3393 0.8396
H36? H 0.7065 0.4191 0.8778
C31? C 0.653(2) 0.249(2) 0.8646(14)
H37? H 0.6876 0.2268 0.9141
H38? H 0.6604 0.1835 0.8324
C32? C 0.534(2) 0.424(3) 0.7665(14)
H39? H 0.4960 0.4477 0.7182
H40? H 0.5290 0.4875 0.8003
C33? C 0.4795(18) 0.312(2) 0.7903(17)
H41? H 0.4060 0.3294 0.7917
H42? H 0.4795 0.2494 0.7547
C34? C 0.535(2) 0.272(3) 0.8613(17)
H43? H 0.5019 0.2002 0.8737
H44? H 0.5284 0.3313 0.8974
loop_
_geom_bond_atom_site_label_1
_geom_bond_atom_site_label_2
_geom_bond_site_symmetry_1
_geom_bond_site_symmetry_2
S1 C1 1_555 1_555
O1 C23 1_555 1_555
N1 C1 1_555 1_555
N2 C2 1_555 1_555
N3 C3 1_555 1_555
C1 C4 1_555 1_555
C2 N1 1_555 1_555
C3 C2 1_555 1_555
C4 C3 1_555 1_555
C5 N1 1_555 1_555
C6 C5 1_555 1_555
H1 C6 1_555 1_555
C7 C6 1_555 1_555
H2 C7 1_555 1_555
C8 C7 1_555 1_555
H3 C8 1_555 1_555
C9 C8 1_555 1_555
H4 C9 1_555 1_555
C10 C5 1_555 1_555
H5 C10 1_555 1_555
C11 N2 1_555 1_555
H6 C11 1_555 1_555
C12 C11 1_555 1_555
H7 C12 1_555 1_555
H8 C12 1_555 1_555
C13 C12 1_555 1_555
H9 C13 1_555 1_555
H10 C13 1_555 1_555
C14 C13 1_555 1_555
H11 C14 1_555 1_555
H12 C14 1_555 1_555
C15 C14 1_555 1_555
H13 C15 1_555 1_555
H14 C15 1_555 1_555
C16 C11 1_555 1_555
H15 C16 1_555 1_555
H16 C16 1_555 1_555
C17 N3 1_555 1_555
H17 C17 1_555 1_555
C18 C17 1_555 1_555
H18 C18 1_555 1_555
H19 C18 1_555 1_555
C19 C18 1_555 1_555
H20 C19 1_555 1_555
H21 C19 1_555 1_555
C20 C19 1_555 1_555
H22 C20 1_555 1_555
H23 C20 1_555 1_555
C21 C20 1_555 1_555
H24 C21 1_555 1_555
H25 C21 1_555 1_555
C22 C17 1_555 1_555
H26 C22 1_555 1_555
H27 C22 1_555 1_555
C23 C4 1_555 1_555
C24 C23 1_555 1_555
C25 C24 1_555 1_555
H28 C25 1_555 1_555
C26 C25 1_555 1_555
H29 C26 1_555 1_555
C27 C26 1_555 1_555
H30 C27 1_555 1_555
C28 C27 1_555 1_555
H31 C28 1_555 1_555
C29 C24 1_555 1_555
H32 C29 1_555 1_555
H33 N3 1_555 1_555
C9 C10 1_555 1_555
C15 C16 1_555 1_555
C21 C22 1_555 1_555
C28 C29 1_555 1_555

#END
