
#######################################################################
#
#                 Cambridge Crystallographic Data Centre
#                                CCDC 
#
#######################################################################
#
# If this CIF has been generated from an entry in the Cambridge 
# Structural Database, then it will include bibliographic, chemical, 
# crystal, experimental, refinement or atomic coordinate data resulting 
# from the CCDC's data processing and validation procedures.
#
#######################################################################

data_HUWMET
_chemical_formula_moiety         'C16 H15 N1 Se1'
_chemical_name_systematic        
1,1'-(3-isoselenocyanatopropane-1,1-diyl)dibenzene
_symmetry_cell_setting           monoclinic
_symmetry_space_group_name_H-M   'P 21/n'
_symmetry_Int_Tables_number      14
_space_group_name_Hall           '-P 2yn'
loop_
_symmetry_equiv_pos_site_id
_symmetry_equiv_pos_as_xyz
1 x,y,z
2 1/2-x,1/2+y,1/2-z
3 -x,-y,-z
4 1/2+x,1/2-y,1/2+z
_cell_length_a                   14.8679(9)
_cell_length_b                   10.0040(6)
_cell_length_c                   18.5854(11)
_cell_angle_alpha                90
_cell_angle_beta                 98.871(2)
_cell_angle_gamma                90
_cell_volume                     2731.3
_exptl_crystal_colour            yellow
_exptl_crystal_description       Tabular
_cell_formula_units_Z            8
loop_
_atom_site_label
_atom_site_type_symbol
_atom_site_fract_x
_atom_site_fract_y
_atom_site_fract_z
Se1 Se 0.53413(2) 1.23664(2) 0.07990(2)
N1 N 0.58442(14) 0.95707(18) 0.10292(10)
C1 C 0.56444(15) 1.0679(2) 0.09400(11)
C2 C 0.61226(16) 0.8202(2) 0.11441(11)
H1 H 0.6675 0.8040 0.0920
H2 H 0.5635 0.7607 0.0904
C3 C 0.63219(15) 0.78713(19) 0.19545(11)
H3 H 0.5798 0.8142 0.2191
H4 H 0.6862 0.8382 0.2183
C4 C 0.65001(14) 0.63640(18) 0.20747(10)
H5 H 0.5957 0.5885 0.1811
C5 C 0.73171(14) 0.59227(18) 0.17295(10)
C6 C 0.71837(15) 0.53907(19) 0.10282(11)
H6 H 0.6582 0.5253 0.0782
C7 C 0.79169(16) 0.5061(2) 0.06854(12)
H7 H 0.7816 0.4716 0.0203
C8 C 0.87986(16) 0.5232(2) 0.10442(12)
H8 H 0.9302 0.4997 0.0811
C9 C 0.89420(15) 0.5748(2) 0.17448(12)
H9 H 0.9545 0.5866 0.1993
C10 C 0.82046(15) 0.60921(19) 0.20839(11)
H10 H 0.8308 0.6447 0.2564
C11 C 0.65885(14) 0.59552(19) 0.28698(11)
C12 C 0.63195(15) 0.46698(19) 0.30359(11)
H11 H 0.6084 0.4079 0.2652
C13 C 0.63903(16) 0.4242(2) 0.37513(12)
H12 H 0.6199 0.3366 0.3855
C14 C 0.67394(16) 0.5088(2) 0.43142(11)
H13 H 0.6787 0.4798 0.4805
C15 C 0.70180(16) 0.6359(2) 0.41575(12)
H14 H 0.7263 0.6940 0.4543
C16 C 0.69433(15) 0.6795(2) 0.34421(11)
H15 H 0.7135 0.7672 0.3342
Se2 Se 0.40321(2) -0.47394(2) 0.09937(2)
N2 N 0.35413(14) -0.19219(19) 0.09939(10)
C17 C 0.37330(15) -0.3044(2) 0.09980(11)
C18 C 0.33119(16) -0.0533(2) 0.10729(12)
H16 H 0.2662 -0.0387 0.0876
H17 H 0.3682 0.0032 0.0793
C19 C 0.34920(15) -0.01345(19) 0.18757(11)
H18 H 0.4130 -0.0356 0.2079
H19 H 0.3089 -0.0661 0.2146
C20 C 0.33282(15) 0.13669(19) 0.19898(11)
H20 H 0.3723 0.1876 0.1696
C21 C 0.23466(14) 0.17511(19) 0.17172(10)
C22 C 0.20964(16) 0.22723(19) 0.10146(11)
H21 H 0.2549 0.2420 0.0714
C23 C 0.11870(17) 0.2576(2) 0.07510(12)
H22 H 0.1020 0.2918 0.0272
C24 C 0.05310(16) 0.2373(2) 0.11969(12)
H23 H -0.0089 0.2570 0.1020
C25 C 0.07725(16) 0.1890(2) 0.18920(12)
H24 H 0.0322 0.1767 0.2197
C26 C 0.16710(15) 0.15832(19) 0.21471(11)
H25 H 0.1830 0.1249 0.2628
C27 C 0.36030(14) 0.17694(19) 0.27866(11)
C28 C 0.38421(15) 0.3087(2) 0.29447(11)
H26 H 0.3842 0.3709 0.2558
C29 C 0.40828(17) 0.3515(2) 0.36599(12)
H27 H 0.4240 0.4424 0.3760
C30 C 0.40922(16) 0.2616(2) 0.42250(12)
H28 H 0.4258 0.2902 0.4715
C31 C 0.38602(16) 0.1305(2) 0.40745(12)
H29 H 0.3867 0.0685 0.4463
C32 C 0.36162(15) 0.0878(2) 0.33614(12)
H30 H 0.3457 -0.0031 0.3265
loop_
_geom_bond_atom_site_label_1
_geom_bond_atom_site_label_2
_geom_bond_site_symmetry_1
_geom_bond_site_symmetry_2
Se1 C1 1_555 1_555
N1 C1 1_555 1_555
C2 N1 1_555 1_555
H1 C2 1_555 1_555
H2 C2 1_555 1_555
C3 C2 1_555 1_555
H3 C3 1_555 1_555
H4 C3 1_555 1_555
C4 C3 1_555 1_555
H5 C4 1_555 1_555
C5 C4 1_555 1_555
C6 C5 1_555 1_555
H6 C6 1_555 1_555
C7 C6 1_555 1_555
H7 C7 1_555 1_555
C8 C7 1_555 1_555
H8 C8 1_555 1_555
C9 C8 1_555 1_555
H9 C9 1_555 1_555
C10 C5 1_555 1_555
H10 C10 1_555 1_555
C11 C4 1_555 1_555
C12 C11 1_555 1_555
H11 C12 1_555 1_555
C13 C12 1_555 1_555
H12 C13 1_555 1_555
C14 C13 1_555 1_555
H13 C14 1_555 1_555
C15 C14 1_555 1_555
H14 C15 1_555 1_555
C16 C11 1_555 1_555
H15 C16 1_555 1_555
Se2 C17 1_555 1_555
N2 C17 1_555 1_555
C18 N2 1_555 1_555
H16 C18 1_555 1_555
H17 C18 1_555 1_555
C19 C18 1_555 1_555
H18 C19 1_555 1_555
H19 C19 1_555 1_555
C20 C19 1_555 1_555
H20 C20 1_555 1_555
C21 C20 1_555 1_555
C22 C21 1_555 1_555
H21 C22 1_555 1_555
C23 C22 1_555 1_555
H22 C23 1_555 1_555
C24 C23 1_555 1_555
H23 C24 1_555 1_555
C25 C24 1_555 1_555
H24 C25 1_555 1_555
C26 C21 1_555 1_555
H25 C26 1_555 1_555
C27 C20 1_555 1_555
C28 C27 1_555 1_555
H26 C28 1_555 1_555
C29 C28 1_555 1_555
H27 C29 1_555 1_555
C30 C29 1_555 1_555
H28 C30 1_555 1_555
C31 C30 1_555 1_555
H29 C31 1_555 1_555
C32 C27 1_555 1_555
H30 C32 1_555 1_555
C9 C10 1_555 1_555
C15 C16 1_555 1_555
C25 C26 1_555 1_555
C31 C32 1_555 1_555

#END
