
#######################################################################
#
#                 Cambridge Crystallographic Data Centre
#                                CCDC 
#
#######################################################################
#
# If this CIF has been generated from an entry in the Cambridge 
# Structural Database, then it will include bibliographic, chemical, 
# crystal, experimental, refinement or atomic coordinate data resulting 
# from the CCDC's data processing and validation procedures.
#
#######################################################################

data_HUWPUM
_chemical_formula_moiety         'C24 H22 N4 O4,2(H2 O1)'
_chemical_name_systematic        
'5a-Hydroxy-2-isopropyl-4-(4-oxoquinazolin-3(4H)-yl)-4,5,5a,9c-tetrahydro-3H-2a,9b-diazacyclopenta[jk]fluorene-1,3(2H)-dione dihydrate'
_symmetry_cell_setting           triclinic
_symmetry_space_group_name_H-M   'P -1'
_symmetry_Int_Tables_number      2
_space_group_name_Hall           '-P 1'
loop_
_symmetry_equiv_pos_site_id
_symmetry_equiv_pos_as_xyz
1 x,y,z
2 -x,-y,-z
_cell_length_a                   9.3200(6)
_cell_length_b                   10.5489(6)
_cell_length_c                   12.1772(7)
_cell_angle_alpha                95.818(5)
_cell_angle_beta                 90.490(5)
_cell_angle_gamma                111.805(6)
_cell_volume                     1104.44
_exptl_crystal_description       pillar
_cell_formula_units_Z            2
loop_
_atom_site_label
_atom_site_type_symbol
_atom_site_fract_x
_atom_site_fract_y
_atom_site_fract_z
O1 O 1.05347(14) 0.16161(13) 0.20757(12)
H1 H 1.0730 0.1288 0.2613
O2 O 0.66266(16) 0.36165(13) 0.14002(11)
O3 O 0.90866(15) 0.51709(13) 0.39517(12)
O4 O 0.55086(16) -0.04180(14) -0.12274(12)
N1 N 0.79134(18) 0.23590(15) 0.05720(13)
N2 N 0.71564(18) 0.30830(15) 0.34812(13)
N3 N 0.76787(18) 0.01839(15) -0.00712(13)
N4 N 0.47807(18) 0.23773(16) 0.43698(14)
C1 C 0.6954(2) 0.44398(18) 0.51242(16)
C2 C 0.8956(2) 0.09236(18) 0.17308(16)
C3 C 0.8723(2) 0.14148(18) 0.06178(16)
H2 H 0.9718 0.1783 0.0272
C4 C 0.5448(2) 0.34787(18) 0.51874(16)
C5 C 0.7644(2) -0.10059(19) 0.03874(17)
C6 C 0.7015(2) 0.19918(19) -0.04948(16)
H3 H 0.6072 0.2190 -0.0416
C7 C 0.7446(2) 0.29491(18) 0.14733(16)
C8 C 0.8461(2) -0.06176(19) 0.14046(17)
C9 C 0.8020(2) 0.27150(18) 0.25832(16)
H4 H 0.9113 0.3315 0.2709
C10 C 0.7842(2) 0.43139(18) 0.41685(16)
C11 C 0.5644(2) 0.22410(19) 0.35881(17)
H5 H 0.5206 0.1505 0.3043
C12 C 0.7895(2) 0.12231(18) 0.25751(17)
H6 H 0.8185 0.1074 0.3304
H7 H 0.6834 0.0604 0.2390
C13 C 0.7574(2) 0.55282(19) 0.59604(17)
H8 H 0.8577 0.6163 0.5924
C14 C 0.5203(2) 0.4725(2) 0.68933(17)
H9 H 0.4615 0.4835 0.7482
C15 C 0.6600(2) 0.0439(2) -0.06672(16)
C16 C 0.6921(2) -0.23651(19) -0.00458(18)
H10 H 0.6357 -0.2612 -0.0720
C17 C 0.7937(2) 0.2724(2) -0.14385(18)
H11 H 0.8908 0.2566 -0.1464
C18 C 0.4577(2) 0.36369(19) 0.60864(17)
H12 H 0.3576 0.3006 0.6137
C19 C 0.8623(2) -0.16044(19) 0.20009(18)
H13 H 0.9177 -0.1358 0.2679
C20 C 0.6702(2) 0.56628(19) 0.68387(17)
H14 H 0.7120 0.6385 0.7398
C21 C 0.7942(2) -0.29748(19) 0.15658(18)
H15 H 0.8069 -0.3651 0.1945
C22 C 0.7078(2) -0.33439(19) 0.05776(18)
H16 H 0.6589 -0.4270 0.0322
C23 C 0.7057(3) 0.2157(2) -0.25458(19)
H17 H 0.6945 0.1215 -0.2718
H18 H 0.7617 0.2685 -0.3109
H19 H 0.6052 0.2211 -0.2511
C24 C 0.8326(3) 0.4260(2) -0.1214(2)
H20 H 0.7393 0.4443 -0.1255
H21 H 0.9013 0.4722 -0.1755
H22 H 0.8819 0.4587 -0.0490
O5 O 1.15597(16) 0.08533(14) 0.39890(13)
H23 H 1.2524 0.1307 0.4113
H24 H 1.1350 0.0023 0.4104
O6 O 0.96920(19) 0.18199(15) 0.53874(14)
H25 H 1.0344 0.1655 0.4972
H26 H 0.9998 0.2679 0.5583
loop_
_geom_bond_atom_site_label_1
_geom_bond_atom_site_label_2
_geom_bond_site_symmetry_1
_geom_bond_site_symmetry_2
O1 H1 1_555 1_555
O2 C7 1_555 1_555
O3 C10 1_555 1_555
O4 C15 1_555 1_555
N1 C3 1_555 1_555
N2 C9 1_555 1_555
N3 C3 1_555 1_555
N4 C4 1_555 1_555
C1 C4 1_555 1_555
C2 O1 1_555 1_555
C3 C2 1_555 1_555
H2 C3 1_555 1_555
C4 C18 1_555 1_555
C5 N3 1_555 1_555
C6 N1 1_555 1_555
H3 C6 1_555 1_555
C7 N1 1_555 1_555
C8 C2 1_555 1_555
C9 C7 1_555 1_555
H4 C9 1_555 1_555
C10 N2 1_555 1_555
C11 N2 1_555 1_555
H5 C11 1_555 1_555
C12 C2 1_555 1_555
H6 C12 1_555 1_555
H7 C12 1_555 1_555
C13 C1 1_555 1_555
H8 C13 1_555 1_555
C14 H9 1_555 1_555
C15 N3 1_555 1_555
C16 C5 1_555 1_555
H10 C16 1_555 1_555
C17 C6 1_555 1_555
H11 C17 1_555 1_555
C18 C14 1_555 1_555
H12 C18 1_555 1_555
C19 C8 1_555 1_555
H13 C19 1_555 1_555
C20 C13 1_555 1_555
H14 C20 1_555 1_555
C21 C19 1_555 1_555
H15 C21 1_555 1_555
C22 C16 1_555 1_555
H16 C22 1_555 1_555
C23 C17 1_555 1_555
H17 C23 1_555 1_555
H18 C23 1_555 1_555
H19 C23 1_555 1_555
C24 C17 1_555 1_555
H20 C24 1_555 1_555
H21 C24 1_555 1_555
H22 C24 1_555 1_555
O5 H23 1_555 1_555
H24 O5 1_555 1_555
O6 H25 1_555 1_555
H26 O6 1_555 1_555
N4 C11 1_555 1_555
C1 C10 1_555 1_555
C5 C8 1_555 1_555
C6 C15 1_555 1_555
C9 C12 1_555 1_555
C14 C20 1_555 1_555
C21 C22 1_555 1_555

#END
