
#######################################################################
#
#                 Cambridge Crystallographic Data Centre
#                                CCDC 
#
#######################################################################
#
# If this CIF has been generated from an entry in the Cambridge 
# Structural Database, then it will include bibliographic, chemical, 
# crystal, experimental, refinement or atomic coordinate data resulting 
# from the CCDC's data processing and validation procedures.
#
#######################################################################

data_HUWPAQ
_chemical_formula_moiety         'C11 H15 N1 O3'
_chemical_name_systematic        'N-(2-Hydroxybenzyl)-4-aminobutyric acid'
_symmetry_cell_setting           triclinic
_symmetry_space_group_name_H-M   'P -1'
_symmetry_Int_Tables_number      2
_space_group_name_Hall           '-P 1'
loop_
_symmetry_equiv_pos_site_id
_symmetry_equiv_pos_as_xyz
1 x,y,z
2 -x,-y,-z
_cell_length_a                   8.3470(6)
_cell_length_b                   11.8078(9)
_cell_length_c                   12.2142(10)
_cell_angle_alpha                106.365(2)
_cell_angle_beta                 108.429(2)
_cell_angle_gamma                99.490(2)
_cell_volume                     1052.31
_exptl_crystal_colour            colorless
_exptl_crystal_description       plate
_chemical_melting_point          209-210deg.C
_cell_formula_units_Z            4
_exptl_crystal_recrystallization_method ethanol/water
loop_
_atom_site_label
_atom_site_type_symbol
_atom_site_fract_x
_atom_site_fract_y
_atom_site_fract_z
O1 O 0.25341(18) 0.63599(12) 0.91830(13)
H1 H 0.1475 0.6314 0.8871
O2 O 0.88244(17) 1.12698(12) 1.35057(13)
O3 O 0.67911(17) 1.19481(12) 1.24256(13)
N1 N 0.6027(2) 0.74560(14) 0.89168(16)
H3 H 0.627(3) 0.7136(18) 0.818(2)
H4 H 0.489(3) 0.7601(18) 0.861(2)
C1 C 0.2857(2) 0.53416(17) 0.85426(18)
C2 C 0.1527(3) 0.42777(18) 0.77613(19)
H7 H 0.0362 0.4231 0.7692
C3 C 0.1911(3) 0.32837(18) 0.7082(2)
H8 H 0.0998 0.2576 0.6526
C4 C 0.3616(3) 0.33228(18) 0.7214(2)
H9 H 0.3875 0.2645 0.6755
C5 C 0.4948(3) 0.43700(18) 0.80296(19)
H10 H 0.6118 0.4392 0.8129
C6 C 0.4598(2) 0.53883(17) 0.87035(18)
C7 C 0.6033(2) 0.65459(17) 0.95466(19)
H11 H 0.5845 0.6884 1.0312
H12 H 0.7174 0.6367 0.9760
C8 C 0.7328(2) 0.86871(16) 0.96387(19)
H13 H 0.7284 0.9167 0.9098
H14 H 0.8512 0.8580 0.9917
C9 C 0.7005(2) 0.93981(17) 1.07494(19)
H15 H 0.7238 0.8991 1.1357
H16 H 0.5769 0.9401 1.0495
C10 C 0.8183(2) 1.07254(17) 1.13468(19)
H17 H 0.9415 1.0727 1.1536
H18 H 0.7874 1.1161 1.0770
C11 C 0.7952(2) 1.13753(16) 1.25210(19)
O4 O 0.2123(2) 0.11744(13) 0.43002(14)
H2 H 0.098(3) 0.1111(19) 0.398(2)
O5 O 0.92278(18) 0.64270(13) 0.82108(14)
O6 O 0.68353(17) 0.66319(12) 0.69434(12)
N2 N 0.5849(2) 0.26034(14) 0.43612(15)
H5 H 0.622(2) 0.2407(17) 0.366(2)
H6 H 0.478(3) 0.2802(17) 0.4065(19)
C12 C 0.2500(2) 0.02711(17) 0.35357(19)
C13 C 0.1224(3) -0.07722(18) 0.2642(2)
H19 H 0.0045 -0.0886 0.2561
C14 C 0.1679(3) -0.16475(18) 0.1867(2)
H20 H 0.0802 -0.2342 0.1246
C15 C 0.3403(3) -0.15075(18) 0.1998(2)
H21 H 0.3711 -0.2099 0.1468
C16 C 0.4677(3) -0.04891(17) 0.29173(19)
H22 H 0.5860 -0.0401 0.3016
C17 C 0.4257(2) 0.04094(16) 0.37001(18)
C18 C 0.5661(2) 0.14973(16) 0.47187(18)
H23 H 0.5369 0.1682 0.5455
H24 H 0.6784 0.1294 0.4928
C19 C 0.7183(2) 0.36965(16) 0.53748(18)
H25 H 0.8315 0.3508 0.5628
H26 H 0.6837 0.3884 0.6087
C20 C 0.7402(2) 0.48121(16) 0.50059(18)
H27 H 0.6278 0.5012 0.4763
H28 H 0.7745 0.4629 0.4292
C21 C 0.8801(2) 0.59177(17) 0.60711(19)
H29 H 0.9901 0.5694 0.6345
H30 H 0.9020 0.6593 0.5772
C22 C 0.8276(2) 0.63601(16) 0.71638(19)
loop_
_geom_bond_atom_site_label_1
_geom_bond_atom_site_label_2
_geom_bond_site_symmetry_1
_geom_bond_site_symmetry_2
O1 H1 1_555 1_555
O2 C11 1_555 1_555
O3 C11 1_555 1_555
O4 H2 1_555 1_555
O5 C22 1_555 1_555
O6 C22 1_555 1_555
N1 H3 1_555 1_555
H4 N1 1_555 1_555
N2 H5 1_555 1_555
H6 N2 1_555 1_555
C1 O1 1_555 1_555
C2 C1 1_555 1_555
H7 C2 1_555 1_555
C3 C2 1_555 1_555
H8 C3 1_555 1_555
C4 C3 1_555 1_555
H9 C4 1_555 1_555
C5 C4 1_555 1_555
H10 C5 1_555 1_555
C6 C1 1_555 1_555
C7 N1 1_555 1_555
H11 C7 1_555 1_555
H12 C7 1_555 1_555
C8 N1 1_555 1_555
H13 C8 1_555 1_555
H14 C8 1_555 1_555
C9 C8 1_555 1_555
H15 C9 1_555 1_555
H16 C9 1_555 1_555
C10 C9 1_555 1_555
H17 C10 1_555 1_555
H18 C10 1_555 1_555
C11 C10 1_555 1_555
C12 O4 1_555 1_555
C13 C12 1_555 1_555
H19 C13 1_555 1_555
C14 C13 1_555 1_555
H20 C14 1_555 1_555
C15 C14 1_555 1_555
H21 C15 1_555 1_555
C16 C15 1_555 1_555
H22 C16 1_555 1_555
C17 C12 1_555 1_555
C18 N2 1_555 1_555
H23 C18 1_555 1_555
H24 C18 1_555 1_555
C19 N2 1_555 1_555
H25 C19 1_555 1_555
H26 C19 1_555 1_555
C20 C19 1_555 1_555
H27 C20 1_555 1_555
H28 C20 1_555 1_555
C21 C20 1_555 1_555
H29 C21 1_555 1_555
H30 C21 1_555 1_555
C22 C21 1_555 1_555
C5 C6 1_555 1_555
C6 C7 1_555 1_555
C16 C17 1_555 1_555
C17 C18 1_555 1_555

#END
