
#######################################################################
#
#                 Cambridge Crystallographic Data Centre
#                                CCDC 
#
#######################################################################
#
# If this CIF has been generated from an entry in the Cambridge 
# Structural Database, then it will include bibliographic, chemical, 
# crystal, experimental, refinement or atomic coordinate data resulting 
# from the CCDC's data processing and validation procedures.
#
#######################################################################

data_HUWWIF
_chemical_name_common            
(4'-(bis(2-pyridyl)amino)-1,1'-biphenyl-4-yl)dimethyl(hydroxy)silane
_chemical_formula_moiety         'C24 H23 N3 O1 Si1'
_chemical_name_systematic        
(4-(4'-(bis(2-pyridyl)amino)phenyl)phenyl)dimethyl(hydroxy)silane
_symmetry_cell_setting           triclinic
_symmetry_space_group_name_H-M   'P -1'
_symmetry_Int_Tables_number      2
_space_group_name_Hall           '-P 1'
loop_
_symmetry_equiv_pos_site_id
_symmetry_equiv_pos_as_xyz
1 x,y,z
2 -x,-y,-z
_cell_length_a                   10.953(2)
_cell_length_b                   13.403(3)
_cell_length_c                   16.501(3)
_cell_angle_alpha                71.378(4)
_cell_angle_beta                 76.530(4)
_cell_angle_gamma                72.198(4)
_cell_volume                     2160.94
_exptl_crystal_colour            colorless
_exptl_crystal_description       plate
_chemical_melting_point          162-164deg.C
_cell_formula_units_Z            4
_exptl_crystal_recrystallization_method dichloromethane/toluene
_exptl_crystal_preparation       'violet luminescent'
loop_
_atom_site_label
_atom_site_type_symbol
_atom_site_fract_x
_atom_site_fract_y
_atom_site_fract_z
Si1 Si 0.01723(11) 0.33032(11) 0.43783(8)
O1 O 0.1209(3) 0.3267(3) 0.49608(19)
H1 H 0.1313 0.2692 0.5341
N1 N -0.8170(3) 0.1942(2) 0.86855(18)
N2 N -0.8864(3) 0.0655(2) 0.98894(19)
N3 N -0.9555(3) 0.2316(2) 0.7684(2)
C1 C 0.0894(5) 0.2266(5) 0.3766(3)
H3 H 0.1686 0.2401 0.3409
H4 H 0.0296 0.2304 0.3407
H5 H 0.1072 0.1556 0.4163
C2 C -0.0145(4) 0.4650(4) 0.3624(3)
H6 H -0.0516 0.5188 0.3940
H7 H -0.0739 0.4694 0.3261
H8 H 0.0653 0.4777 0.3272
C3 C -0.1386(4) 0.3051(4) 0.5080(3)
C4 C -0.1645(4) 0.2036(4) 0.5363(3)
C5 C -0.2757(4) 0.1837(4) 0.5929(3)
C6 C -0.3674(4) 0.2665(3) 0.6228(2)
C7 C -0.3440(4) 0.3692(4) 0.5948(3)
C8 C -0.2302(5) 0.3874(5) 0.5383(3)
C9 C -0.4859(3) 0.2468(3) 0.6837(2)
C10 C -0.4870(4) 0.1472(4) 0.7436(2)
C11 C -0.5944(4) 0.1287(4) 0.8027(3)
C12 C -0.7063(3) 0.2106(3) 0.8058(2)
C13 C -0.7089(4) 0.3112(3) 0.7467(2)
C14 C -0.6010(4) 0.3277(4) 0.6868(3)
C15 C -0.8044(3) 0.1271(3) 0.9539(2)
C16 C -0.7094(4) 0.1281(4) 0.9962(3)
C17 C -0.6978(4) 0.0594(4) 1.0764(3)
C18 C -0.7802(4) -0.0057(4) 1.1134(3)
C19 C -0.8729(4) 0.0000(4) 1.0686(3)
C20 C -0.9431(3) 0.2368(3) 0.8446(2)
C21 C -1.0457(4) 0.2828(3) 0.8989(3)
C22 C -1.1667(4) 0.3253(4) 0.8719(4)
C23 C -1.1806(4) 0.3201(4) 0.7937(3)
C24 C -1.0752(4) 0.2739(4) 0.7452(3)
H15 H -0.102(3) 0.139(3) 0.517(2)
H16 H -0.287(4) 0.104(3) 0.614(2)
H17 H -0.404(3) 0.437(3) 0.609(2)
H18 H -0.220(4) 0.460(4) 0.521(3)
H19 H -0.414(3) 0.087(3) 0.741(2)
H20 H -0.598(3) 0.068(3) 0.838(2)
H21 H -0.784(3) 0.371(2) 0.7487(18)
H22 H -0.617(3) 0.397(3) 0.648(2)
H23 H -0.664(3) 0.175(3) 0.973(2)
H24 H -0.640(4) 0.056(3) 1.106(3)
H25 H -0.773(4) -0.053(3) 1.167(3)
H26 H -0.924(3) -0.049(3) 1.089(2)
H27 H -1.016(4) 0.287(4) 0.950(3)
H28 H -1.230(3) 0.351(3) 0.906(2)
H29 H -1.272(4) 0.354(3) 0.769(2)
H30 H -1.076(3) 0.272(3) 0.687(3)
Si2 Si 0.23283(16) 1.02271(11) -0.35540(9)
O2 O 0.1955(3) 1.1484(2) -0.36363(18)
H2 H 0.1780 1.1824 -0.4122
N4 N 0.6643(3) 0.4786(2) 0.17021(18)
N5 N 0.4624(3) 0.4496(3) 0.2401(2)
N6 N 0.8777(3) 0.4928(3) 0.1267(2)
C25 C 0.0741(7) 0.9818(6) -0.3379(5)
H9 H 0.0271 1.0243 -0.3851
H10 H 0.0227 0.9946 -0.2848
H11 H 0.0928 0.9061 -0.3349
C26 C 0.3194(8) 0.9955(7) -0.4569(5)
H12 H 0.4011 1.0140 -0.4697
H13 H 0.2688 1.0382 -0.5023
H14 H 0.3342 0.9197 -0.4525
C27 C 0.3178(4) 0.9373(3) -0.2612(3)
C28 C 0.4451(5) 0.8770(4) -0.2698(3)
C29 C 0.5027(5) 0.8077(4) -0.2000(3)
C30 C 0.4366(3) 0.7942(3) -0.1165(2)
C31 C 0.3109(4) 0.8563(3) -0.1069(3)
C32 C 0.2538(5) 0.9254(3) -0.1772(3)
C33 C 0.4980(3) 0.7147(3) -0.0416(2)
C34 C 0.5868(4) 0.6175(4) -0.0502(3)
C35 C 0.6403(4) 0.5421(4) 0.0179(3)
C36 C 0.6086(3) 0.5589(3) 0.0992(2)
C37 C 0.5214(3) 0.6547(3) 0.1098(3)
C38 C 0.4676(4) 0.7303(3) 0.0400(3)
C39 C 0.5865(4) 0.4338(3) 0.2450(2)
C40 C 0.6368(5) 0.3791(4) 0.3213(3)
C41 C 0.5579(6) 0.3373(4) 0.3930(3)
C42 C 0.4318(6) 0.3488(4) 0.3887(4)
C43 C 0.3903(5) 0.4056(4) 0.3127(4)
C44 C 0.7995(3) 0.4268(3) 0.1544(2)
C45 C 0.8423(5) 0.3185(4) 0.1660(3)
C46 C 0.9729(6) 0.2747(5) 0.1469(3)
C47 C 1.0567(5) 0.3384(5) 0.1182(3)
C48 C 1.0056(5) 0.4471(5) 0.1086(3)
H31 H 0.486(4) 0.872(4) -0.320(3)
H32 H 0.577(4) 0.778(3) -0.206(3)
H33 H 0.269(3) 0.850(3) -0.058(2)
H34 H 0.171(3) 0.960(3) -0.166(2)
H35 H 0.604(3) 0.606(3) -0.100(2)
H36 H 0.687(3) 0.474(3) 0.016(2)
H37 H 0.493(3) 0.674(2) 0.167(2)
H38 H 0.413(3) 0.791(3) 0.0468(19)
H39 H 0.710(4) 0.381(3) 0.319(2)
H40 H 0.595(3) 0.301(3) 0.443(2)
H41 H 0.389(4) 0.319(3) 0.435(3)
H42 H 0.321(4) 0.420(4) 0.305(3)
H43 H 0.797(4) 0.285(3) 0.183(2)
H44 H 1.002(4) 0.200(4) 0.148(3)
H45 H 1.152(4) 0.311(3) 0.099(3)
H46 H 1.066(5) 0.500(4) 0.092(3)
loop_
_geom_bond_atom_site_label_1
_geom_bond_atom_site_label_2
_geom_bond_site_symmetry_1
_geom_bond_site_symmetry_2
Si1 O1 1_555 1_555
Si2 O2 1_555 1_555
O1 H1 1_555 1_555
O2 H2 1_555 1_555
N1 C12 1_555 1_555
N2 C15 1_555 1_555
N3 C20 1_555 1_555
N4 C36 1_555 1_555
N5 C39 1_555 1_555
N6 C44 1_555 1_555
C1 Si1 1_555 1_555
H3 C1 1_555 1_555
H4 C1 1_555 1_555
H5 C1 1_555 1_555
C2 Si1 1_555 1_555
H6 C2 1_555 1_555
H7 C2 1_555 1_555
H8 C2 1_555 1_555
C3 Si1 1_555 1_555
C4 C3 1_555 1_555
C5 C4 1_555 1_555
C6 C5 1_555 1_555
C7 C6 1_555 1_555
C8 C3 1_555 1_555
C9 C6 1_555 1_555
C10 C9 1_555 1_555
C11 C10 1_555 1_555
C12 C11 1_555 1_555
C13 C12 1_555 1_555
C14 C9 1_555 1_555
C15 N1 1_555 1_555
C16 C15 1_555 1_555
C17 C16 1_555 1_555
C18 C17 1_555 1_555
C19 N2 1_555 1_555
C20 N1 1_555 1_555
C21 C20 1_555 1_555
C22 C21 1_555 1_555
C23 C22 1_555 1_555
C24 N3 1_555 1_555
C25 Si2 1_555 1_555
H9 C25 1_555 1_555
H10 C25 1_555 1_555
H11 C25 1_555 1_555
C26 Si2 1_555 1_555
H12 C26 1_555 1_555
H13 C26 1_555 1_555
H14 C26 1_555 1_555
C27 Si2 1_555 1_555
C28 C27 1_555 1_555
C29 C28 1_555 1_555
C30 C29 1_555 1_555
C31 C30 1_555 1_555
C32 C27 1_555 1_555
C33 C30 1_555 1_555
C34 C33 1_555 1_555
C35 C34 1_555 1_555
C36 C35 1_555 1_555
C37 C36 1_555 1_555
C38 C33 1_555 1_555
C39 N4 1_555 1_555
C40 C39 1_555 1_555
C41 C40 1_555 1_555
C42 C41 1_555 1_555
C43 N5 1_555 1_555
C44 N4 1_555 1_555
C45 C44 1_555 1_555
C46 C45 1_555 1_555
C47 C46 1_555 1_555
C48 N6 1_555 1_555
H15 C4 1_555 1_555
H16 C5 1_555 1_555
H17 C7 1_555 1_555
H18 C8 1_555 1_555
H19 C10 1_555 1_555
H20 C11 1_555 1_555
H21 C13 1_555 1_555
H22 C14 1_555 1_555
H23 C16 1_555 1_555
H24 C17 1_555 1_555
H25 C18 1_555 1_555
H26 C19 1_555 1_555
H27 C21 1_555 1_555
H28 C22 1_555 1_555
H29 C23 1_555 1_555
H30 C24 1_555 1_555
H31 C28 1_555 1_555
H32 C29 1_555 1_555
H33 C31 1_555 1_555
H34 C32 1_555 1_555
H35 C34 1_555 1_555
H36 C35 1_555 1_555
H37 C37 1_555 1_555
H38 C38 1_555 1_555
H39 C40 1_555 1_555
H40 C41 1_555 1_555
H41 C42 1_555 1_555
H42 C43 1_555 1_555
H43 C45 1_555 1_555
H44 C46 1_555 1_555
H45 C47 1_555 1_555
H46 C48 1_555 1_555
C7 C8 1_555 1_555
C13 C14 1_555 1_555
C18 C19 1_555 1_555
C23 C24 1_555 1_555
C31 C32 1_555 1_555
C37 C38 1_555 1_555
C42 C43 1_555 1_555
C47 C48 1_555 1_555

#END
