
#######################################################################
#
#                 Cambridge Crystallographic Data Centre
#                                CCDC 
#
#######################################################################
#
# If this CIF has been generated from an entry in the Cambridge 
# Structural Database, then it will include bibliographic, chemical, 
# crystal, experimental, refinement or atomic coordinate data resulting 
# from the CCDC's data processing and validation procedures.
#
#######################################################################

data_HUWWAX
_chemical_formula_moiety         'C34 H30 N6 Si1'
_chemical_name_systematic        
bis(4-(bis(2-pyridyl)amino)phenyl)dimethylsilane
_symmetry_cell_setting           monoclinic
_symmetry_space_group_name_H-M   'P 21/c'
_symmetry_Int_Tables_number      14
_space_group_name_Hall           '-P 2ybc'
loop_
_symmetry_equiv_pos_site_id
_symmetry_equiv_pos_as_xyz
1 x,y,z
2 x,1/2-y,1/2+z
3 -x,-y,-z
4 -x,1/2+y,1/2-z
_cell_length_a                   9.4669(15)
_cell_length_b                   10.5822(16)
_cell_length_c                   29.086(5)
_cell_angle_alpha                90
_cell_angle_beta                 91.313(3)
_cell_angle_gamma                90
_cell_volume                     2913.09
_exptl_crystal_colour            colorless
_exptl_crystal_description       plate
_chemical_melting_point          202-204deg.C
_cell_formula_units_Z            4
_exptl_crystal_recrystallization_method dichloromethane/hexanes
_exptl_crystal_preparation       'violet luminescent'
loop_
_atom_site_label
_atom_site_type_symbol
_atom_site_fract_x
_atom_site_fract_y
_atom_site_fract_z
Si1 Si 0.40986(5) 0.56655(4) 0.243870(14)
N1 N -0.03129(13) 0.24471(11) 0.13945(4)
N2 N 0.03451(15) 0.06062(13) 0.17982(5)
N3 N -0.13659(15) 0.41977(12) 0.10491(5)
N4 N 0.53100(13) 0.32611(12) 0.43277(4)
N5 N 0.40676(15) 0.20469(12) 0.48509(5)
N6 N 0.72202(14) 0.26434(13) 0.47974(5)
C1 C 0.3338(3) 0.72647(18) 0.25333(9)
H1 H 0.400(2) 0.774(2) 0.2696(8)
H2 H 0.241(2) 0.721(2) 0.2692(8)
H3 H 0.317(2) 0.764(2) 0.2269(9)
C2 C 0.5774(2) 0.5779(2) 0.21210(8)
H4 H 0.637(2) 0.6334(19) 0.2263(7)
H5 H 0.562(2) 0.620(2) 0.1839(9)
H6 H 0.616(3) 0.501(3) 0.2074(8)
C3 C 0.27579(16) 0.46985(13) 0.21080(5)
C4 C 0.13157(18) 0.48962(16) 0.21549(6)
H7 H 0.0978(16) 0.5508(14) 0.2337(6)
C5 C 0.03032(19) 0.41697(16) 0.19285(6)
H8 H -0.0653(19) 0.4329(14) 0.1954(6)
C6 C 0.07130(16) 0.32081(13) 0.16351(5)
C7 C 0.21361(17) 0.30039(15) 0.15745(6)
H9 H 0.2447(17) 0.2358(15) 0.1371(6)
C8 C 0.31385(18) 0.37255(15) 0.18103(6)
H10 H 0.4144(18) 0.3576(14) 0.1763(5)
C9 C -0.01372(15) 0.11158(14) 0.14002(5)
C10 C -0.04158(19) 0.04092(18) 0.10162(7)
H11 H -0.0648(19) 0.0739(16) 0.0816(6)
C11 C -0.0236(2) -0.08687(18) 0.10347(8)
H12 H -0.0429(19) -0.1373(18) 0.0756(7)
C12 C 0.0230(2) -0.14226(19) 0.14370(9)
H13 H 0.039(2) -0.231(2) 0.1455(7)
C13 C 0.0520(2) -0.06687(18) 0.18049(8)
H14 H 0.090(2) -0.0957(17) 0.2106(7)
C14 C -0.15288(16) 0.30092(14) 0.11911(5)
C15 C -0.28026(17) 0.23616(16) 0.11496(6)
H15 H -0.2876(16) 0.1501(16) 0.1270(6)
C16 C -0.39377(19) 0.29751(18) 0.09491(6)
H16 H -0.4813(19) 0.2539(15) 0.0923(6)
C17 C -0.3794(2) 0.42086(18) 0.08057(7)
H17 H -0.453(2) 0.4626(17) 0.0674(7)
C18 C -0.2506(2) 0.47730(18) 0.08663(6)
H18 H -0.2319(16) 0.5640(15) 0.0772(5)
C19 C 0.44598(15) 0.49092(12) 0.30146(5)
C20 C 0.57344(17) 0.51009(15) 0.32552(5)
H19 H 0.6410(17) 0.5615(13) 0.3127(5)
C21 C 0.60117(18) 0.45791(15) 0.36845(5)
H20 H 0.6881(17) 0.4712(14) 0.3840(5)
C22 C 0.50104(16) 0.38251(13) 0.38906(5)
C23 C 0.37368(17) 0.36193(14) 0.36595(5)
H21 H 0.3061(16) 0.3068(15) 0.3791(5)
C24 C 0.34678(16) 0.41548(13) 0.32323(5)
H22 H 0.2564(17) 0.3974(13) 0.3072(5)
C25 C 0.42383(15) 0.31720(14) 0.46567(5)
C26 C 0.34384(19) 0.42186(18) 0.47667(6)
H23 H 0.365(2) 0.4993(18) 0.4654(7)
C27 C 0.2401(2) 0.4088(2) 0.50864(7)
H24 H 0.187(2) 0.482(2) 0.5167(7)
C28 C 0.2188(2) 0.2940(2) 0.52858(7)
H25 H 0.150(2) 0.2759(17) 0.5513(7)
C29 C 0.3041(2) 0.1958(2) 0.51647(7)
H26 H 0.296(2) 0.1144(19) 0.5305(7)
C30 C 0.65484(15) 0.25173(13) 0.43893(5)
C31 C 0.70022(19) 0.17321(16) 0.40493(6)
H27 H 0.6601(17) 0.1719(16) 0.3813(6)
C32 C 0.8205(2) 0.10345(16) 0.41278(8)
H28 H 0.850(2) 0.0527(17) 0.3903(7)
C33 C 0.8914(2) 0.11345(18) 0.45413(8)
H29 H 0.972(2) 0.0656(17) 0.4593(6)
C34 C 0.83931(19) 0.19296(19) 0.48638(7)
H30 H 0.888(2) 0.2012(17) 0.5156(7)
loop_
_geom_bond_atom_site_label_1
_geom_bond_atom_site_label_2
_geom_bond_site_symmetry_1
_geom_bond_site_symmetry_2
Si1 C1 1_555 1_555
N1 C6 1_555 1_555
N2 C9 1_555 1_555
N3 C14 1_555 1_555
N4 C22 1_555 1_555
N5 C25 1_555 1_555
N6 C30 1_555 1_555
C1 H1 1_555 1_555
H2 C1 1_555 1_555
H3 C1 1_555 1_555
C2 Si1 1_555 1_555
H4 C2 1_555 1_555
H5 C2 1_555 1_555
H6 C2 1_555 1_555
C3 Si1 1_555 1_555
C4 C3 1_555 1_555
H7 C4 1_555 1_555
C5 C4 1_555 1_555
H8 C5 1_555 1_555
C6 C5 1_555 1_555
C7 C6 1_555 1_555
H9 C7 1_555 1_555
C8 C3 1_555 1_555
H10 C8 1_555 1_555
C9 N1 1_555 1_555
C10 C9 1_555 1_555
H11 C10 1_555 1_555
C11 C10 1_555 1_555
H12 C11 1_555 1_555
C12 C11 1_555 1_555
H13 C12 1_555 1_555
C13 N2 1_555 1_555
H14 C13 1_555 1_555
C14 N1 1_555 1_555
C15 C14 1_555 1_555
H15 C15 1_555 1_555
C16 C15 1_555 1_555
H16 C16 1_555 1_555
C17 C16 1_555 1_555
H17 C17 1_555 1_555
C18 N3 1_555 1_555
H18 C18 1_555 1_555
C19 Si1 1_555 1_555
C20 C19 1_555 1_555
H19 C20 1_555 1_555
C21 C20 1_555 1_555
H20 C21 1_555 1_555
C22 C21 1_555 1_555
C23 C22 1_555 1_555
H21 C23 1_555 1_555
C24 C19 1_555 1_555
H22 C24 1_555 1_555
C25 N4 1_555 1_555
C26 C25 1_555 1_555
H23 C26 1_555 1_555
C27 C26 1_555 1_555
H24 C27 1_555 1_555
C28 C27 1_555 1_555
H25 C28 1_555 1_555
C29 N5 1_555 1_555
H26 C29 1_555 1_555
C30 N4 1_555 1_555
C31 C30 1_555 1_555
H27 C31 1_555 1_555
C32 C31 1_555 1_555
H28 C32 1_555 1_555
C33 C32 1_555 1_555
H29 C33 1_555 1_555
C34 N6 1_555 1_555
H30 C34 1_555 1_555
C7 C8 1_555 1_555
C12 C13 1_555 1_555
C17 C18 1_555 1_555
C23 C24 1_555 1_555
C28 C29 1_555 1_555
C33 C34 1_555 1_555

#END
