
#######################################################################
#
#                 Cambridge Crystallographic Data Centre
#                                CCDC 
#
#######################################################################
#
# If this CIF has been generated from an entry in the Cambridge 
# Structural Database, then it will include bibliographic, chemical, 
# crystal, experimental, refinement or atomic coordinate data resulting 
# from the CCDC's data processing and validation procedures.
#
#######################################################################

data_HUWWEB
_chemical_formula_moiety         'C18 H19 N3 O1 Si1'
_chemical_name_systematic        
(4-(bis(2-pyridyl)amino)phenyl)dimethyl(hydroxy)silane
_symmetry_cell_setting           monoclinic
_symmetry_space_group_name_H-M   'C 2/c'
_symmetry_Int_Tables_number      15
_space_group_name_Hall           '-C 2yn'
loop_
_symmetry_equiv_pos_site_id
_symmetry_equiv_pos_as_xyz
1 x,y,z
2 1/2+x,1/2+y,z
3 x,-y,1/2+z
4 1/2+x,1/2-y,1/2+z
5 -x,-y,-z
6 1/2-x,1/2-y,-z
7 -x,y,1/2-z
8 1/2-x,1/2+y,1/2-z
_cell_length_a                   24.426(6)
_cell_length_b                   10.168(3)
_cell_length_c                   14.629(3)
_cell_angle_alpha                90
_cell_angle_beta                 110.132(5)
_cell_angle_gamma                90
_cell_volume                     3411.32
_exptl_crystal_colour            colorless
_exptl_crystal_description       plate
_chemical_melting_point          130-132deg.C
_cell_formula_units_Z            8
_exptl_crystal_recrystallization_method dichloromethane/hexanes
_exptl_crystal_preparation       'violet luminescent'
loop_
_atom_site_label
_atom_site_type_symbol
_atom_site_fract_x
_atom_site_fract_y
_atom_site_fract_z
Si1 Si 0.38842(2) 0.68156(5) 0.09024(3)
O1 O 0.34995(6) 0.80680(15) 0.10381(10)
N1 N 0.60845(6) 0.86412(15) 0.01390(9)
N2 N 0.68372(6) 1.01862(15) 0.06088(10)
N3 N 0.57112(7) 0.84333(15) -0.15641(10)
C1 C 0.41117(12) 0.5922(3) 0.20755(18)
C2 C 0.34399(11) 0.5726(3) -0.00959(18)
C3 C 0.45385(7) 0.73937(18) 0.06290(11)
C4 C 0.48333(8) 0.8546(2) 0.10372(12)
C5 C 0.53325(8) 0.8966(2) 0.08729(13)
C6 C 0.55672(7) 0.82195(18) 0.03022(11)
C7 C 0.52851(8) 0.70684(19) -0.01146(13)
C8 C 0.47778(8) 0.6683(2) 0.00402(12)
C9 C 0.65419(7) 0.92508(18) 0.08876(12)
C10 C 0.66795(8) 0.8884(2) 0.18634(13)
C11 C 0.71411(8) 0.9487(2) 0.25534(14)
C12 C 0.74590(9) 1.0423(2) 0.22768(15)
C13 C 0.72930(9) 1.0743(2) 0.13090(15)
C14 C 0.61733(8) 0.83048(17) -0.07476(11)
C15 C 0.67039(9) 0.7839(2) -0.07273(15)
C16 C 0.67689(11) 0.7495(2) -0.15886(18)
C17 C 0.63021(12) 0.7606(2) -0.24427(17)
C18 C 0.57862(10) 0.8064(2) -0.24043(14)
H1 H 0.3766(10) 0.565(2) 0.2234(14)
H2 H 0.4311(10) 0.648(2) 0.2557(15)
H3 H 0.4301(10) 0.518(2) 0.2058(15)
H4 H 0.3420(9) 0.863(2) 0.0634(13)
H5 H 0.3123(10) 0.542(2) 0.0042(14)
H6 H 0.3635(11) 0.507(2) -0.0274(16)
H7 H 0.3297(10) 0.617(2) -0.0686(17)
H8 H 0.4693(7) 0.9083(17) 0.1436(11)
H9 H 0.5506(7) 0.9743(17) 0.1145(10)
H10 H 0.5428(7) 0.6537(17) -0.0530(10)
H11 H 0.4588(6) 0.5861(17) -0.0271(10)
H12 H 0.6445(7) 0.8215(17) 0.2042(11)
H13 H 0.7219(8) 0.9271(18) 0.3219(12)
H14 H 0.7792(7) 1.0863(18) 0.2752(11)
H15 H 0.7494(7) 1.1406(16) 0.1077(10)
H16 H 0.6965(7) 0.7751(18) -0.0189(12)
H17 H 0.7125(9) 0.714(2) -0.1580(13)
H18 H 0.6339(8) 0.7366(18) -0.3045(13)
H19 H 0.5443(8) 0.8126(19) -0.2963(13)
loop_
_geom_bond_atom_site_label_1
_geom_bond_atom_site_label_2
_geom_bond_site_symmetry_1
_geom_bond_site_symmetry_2
Si1 O1 1_555 1_555
O1 H4 1_555 1_555
N1 C6 1_555 1_555
N2 C9 1_555 1_555
N3 C14 1_555 1_555
C1 Si1 1_555 1_555
C2 Si1 1_555 1_555
C3 Si1 1_555 1_555
C4 C3 1_555 1_555
C5 C4 1_555 1_555
C6 C5 1_555 1_555
C7 C6 1_555 1_555
C8 C3 1_555 1_555
C9 N1 1_555 1_555
C10 C9 1_555 1_555
C11 C10 1_555 1_555
C12 C11 1_555 1_555
C13 N2 1_555 1_555
C14 N1 1_555 1_555
C15 C14 1_555 1_555
C16 C15 1_555 1_555
C17 C16 1_555 1_555
C18 N3 1_555 1_555
H1 C1 1_555 1_555
H2 C1 1_555 1_555
H3 C1 1_555 1_555
H5 C2 1_555 1_555
H6 C2 1_555 1_555
H7 C2 1_555 1_555
H8 C4 1_555 1_555
H9 C5 1_555 1_555
H10 C7 1_555 1_555
H11 C8 1_555 1_555
H12 C10 1_555 1_555
H13 C11 1_555 1_555
H14 C12 1_555 1_555
H15 C13 1_555 1_555
H16 C15 1_555 1_555
H17 C16 1_555 1_555
H18 C17 1_555 1_555
H19 C18 1_555 1_555
C7 C8 1_555 1_555
C12 C13 1_555 1_555
C17 C18 1_555 1_555

#END
