
#######################################################################
#
#                 Cambridge Crystallographic Data Centre
#                                CCDC 
#
#######################################################################
#
# If this CIF has been generated from an entry in the Cambridge 
# Structural Database, then it will include bibliographic, chemical, 
# crystal, experimental, refinement or atomic coordinate data resulting 
# from the CCDC's data processing and validation procedures.
#
#######################################################################

data_HUWXUU
_chemical_formula_moiety         'C12 H12 N2 O2 S2'
_chemical_name_systematic        
2,2'-(ethane-1,2-diylbis(iminomethylylidene))dithiophen-3(2H)-one
_symmetry_cell_setting           monoclinic
_symmetry_space_group_name_H-M   'P 21/c'
_symmetry_Int_Tables_number      14
_space_group_name_Hall           '-P 2ybc'
loop_
_symmetry_equiv_pos_site_id
_symmetry_equiv_pos_as_xyz
1 x,y,z
2 -x,1/2+y,1/2-z
3 -x,-y,-z
4 x,1/2-y,1/2+z
_cell_length_a                   13.096(3)
_cell_length_b                   6.7348(15)
_cell_length_c                   7.4126(16)
_cell_angle_alpha                90
_cell_angle_beta                 103.610(4)
_cell_angle_gamma                90
_cell_volume                     635.425
_exptl_crystal_colour            yellow
_exptl_crystal_description       needle
_cell_formula_units_Z            2
loop_
_atom_site_label
_atom_site_type_symbol
_atom_site_fract_x
_atom_site_fract_y
_atom_site_fract_z
S1 S 0.37463(4) 0.88471(10) 0.34337(8)
O1 O 0.11830(11) 1.0947(2) 0.0335(2)
N1 N 0.08038(14) 0.7083(3) 0.1219(3)
C1 C 0.29893(17) 1.1968(4) 0.1534(3)
H1 H 0.2951 1.3227 0.1006
C2 C 0.20972(16) 1.0631(3) 0.1282(3)
C3 C 0.24227(15) 0.8803(3) 0.2252(3)
C4 C 0.17939(16) 0.7132(3) 0.2144(3)
H2 H 0.2086 0.5987 0.2756
C5 C 0.01455(16) 0.5323(3) 0.1018(3)
H3 H -0.0488 0.5607 0.1435
H4 H 0.0519 0.4259 0.1778
C6 C 0.38765(18) 1.1204(4) 0.2606(3)
H5 H 0.4510 1.1893 0.2879
H6 H 0.0574(19) 0.811(4) 0.069(4)
S1B S -0.37463(4) 0.11529(10) -0.34337(8)
O1B O -0.11830(11) -0.0947(2) -0.0335(2)
N1B N -0.08038(14) 0.2917(3) -0.1219(3)
C1B C -0.29893(17) -0.1968(4) -0.1534(3)
H1B H -0.2951 -0.3227 -0.1006
C2B C -0.20972(16) -0.0631(3) -0.1282(3)
C3B C -0.24227(15) 0.1197(3) -0.2252(3)
C4B C -0.17939(16) 0.2868(3) -0.2144(3)
H2B H -0.2086 0.4013 -0.2756
C5B C -0.01455(16) 0.4677(3) -0.1018(3)
H3B H 0.0488 0.4393 -0.1435
H4B H -0.0519 0.5741 -0.1778
C6B C -0.38765(18) -0.1204(4) -0.2606(3)
H5B H -0.4510 -0.1893 -0.2879
H6B H -0.0574(19) 0.189(4) -0.069(4)
loop_
_geom_bond_atom_site_label_1
_geom_bond_atom_site_label_2
_geom_bond_site_symmetry_1
_geom_bond_site_symmetry_2
S1 C3 1_555 1_555
O1 C2 1_555 1_555
N1 C4 1_555 1_555
C1 H1 1_555 1_555
C2 C1 1_555 1_555
C3 C2 1_555 1_555
C4 C3 1_555 1_555
H2 C4 1_555 1_555
C5 N1 1_555 1_555
H3 C5 1_555 1_555
H4 C5 1_555 1_555
C6 S1 1_555 1_555
H5 C6 1_555 1_555
H6 N1 1_555 1_555
S1B C3B 1_555 1_555
O1B C2B 1_555 1_555
N1B C4B 1_555 1_555
C1B H1B 1_555 1_555
C2B C1B 1_555 1_555
C3B C2B 1_555 1_555
C4B C3B 1_555 1_555
H2B C4B 1_555 1_555
C5B C5 1_555 1_555
H3B C5B 1_555 1_555
H4B C5B 1_555 1_555
C6B S1B 1_555 1_555
H5B C6B 1_555 1_555
H6B N1B 1_555 1_555
C1 C6 1_555 1_555
N1B C5B 1_555 1_555
C1B C6B 1_555 1_555

#END
