
#######################################################################
#
#                 Cambridge Crystallographic Data Centre
#                                CCDC 
#
#######################################################################
#
# If this CIF has been generated from an entry in the Cambridge 
# Structural Database, then it will include bibliographic, chemical, 
# crystal, experimental, refinement or atomic coordinate data resulting 
# from the CCDC's data processing and validation procedures.
#
#######################################################################

data_HUWXOO
_chemical_formula_moiety         'C14 H16 N2 O2 S2'
_chemical_name_systematic        
N,N'-ethane-1,2-diylbis(1-(3-methoxy-2-thienyl)methanimine)
_symmetry_cell_setting           monoclinic
_symmetry_space_group_name_H-M   'P 21/n'
_symmetry_Int_Tables_number      14
_space_group_name_Hall           '-P 2yn'
loop_
_symmetry_equiv_pos_site_id
_symmetry_equiv_pos_as_xyz
1 x,y,z
2 1/2-x,1/2+y,1/2-z
3 -x,-y,-z
4 1/2+x,1/2-y,1/2+z
_cell_length_a                   7.6253(7)
_cell_length_b                   9.0313(8)
_cell_length_c                   10.8088(10)
_cell_angle_alpha                90
_cell_angle_beta                 91.164(2)
_cell_angle_gamma                90
_cell_volume                     744.209
_exptl_crystal_colour            'pale yellow'
_exptl_crystal_description       block
_cell_formula_units_Z            2
loop_
_atom_site_label
_atom_site_type_symbol
_atom_site_fract_x
_atom_site_fract_y
_atom_site_fract_z
S1 S 1.14912(4) 0.05254(4) 0.27052(3)
O1 O 0.69088(13) -0.02090(12) 0.40113(10)
N1 N 1.06711(15) 0.31179(13) 0.44813(10)
C1 C 0.57281(19) -0.14363(17) 0.38295(14)
H1 H 0.5330 -0.1461 0.2982
H2 H 0.4740 -0.1323 0.4358
H3 H 0.6327 -0.2343 0.4028
C2 C 0.84335(17) -0.02564(16) 0.33948(12)
C3 C 0.96739(17) 0.08350(16) 0.35999(12)
C4 C 0.95518(17) 0.20733(15) 0.44438(12)
H4 H 0.8616 0.2107 0.4981
C5 C 1.03311(19) 0.43177(15) 0.53521(12)
H5 H 1.1400 0.4560 0.5810
H6 H 0.9460 0.4004 0.5939
C6 C 0.89518(18) -0.13372(16) 0.25127(12)
H7 H 0.8267 -0.2142 0.2268
C7 C 1.05788(19) -0.10422(17) 0.20727(13)
H8 H 1.1133 -0.1629 0.1492
S1B S 0.85088(4) 0.94746(4) 0.72948(3)
O1B O 1.30912(13) 1.02090(12) 0.59887(10)
N1B N 0.93289(15) 0.68821(13) 0.55187(10)
C1B C 1.42719(19) 1.14363(17) 0.61705(14)
H1B H 1.4670 1.1461 0.7018
H2B H 1.5260 1.1323 0.5642
H3B H 1.3673 1.2343 0.5972
C2B C 1.15665(17) 1.02564(16) 0.66052(12)
C3B C 1.03261(17) 0.91650(16) 0.64001(12)
C4B C 1.04482(17) 0.79267(15) 0.55562(12)
H4B H 1.1384 0.7893 0.5019
C5B C 0.96689(19) 0.56823(15) 0.46479(12)
H5B H 0.8600 0.5440 0.4190
H6B H 1.0540 0.5996 0.4061
C6B C 1.10482(18) 1.13372(16) 0.74873(12)
H7B H 1.1733 1.2142 0.7732
C7B C 0.94212(19) 1.10422(17) 0.79273(13)
H8B H 0.8867 1.1629 0.8508
loop_
_geom_bond_atom_site_label_1
_geom_bond_atom_site_label_2
_geom_bond_site_symmetry_1
_geom_bond_site_symmetry_2
S1 C3 1_555 1_555
O1 C1 1_555 1_555
N1 C4 1_555 1_555
C1 H1 1_555 1_555
H2 C1 1_555 1_555
H3 C1 1_555 1_555
C2 O1 1_555 1_555
C3 C2 1_555 1_555
C4 C3 1_555 1_555
H4 C4 1_555 1_555
C5 N1 1_555 1_555
H5 C5 1_555 1_555
H6 C5 1_555 1_555
C6 C2 1_555 1_555
H7 C6 1_555 1_555
C7 S1 1_555 1_555
H8 C7 1_555 1_555
S1B C3B 1_555 1_555
O1B C1B 1_555 1_555
N1B C4B 1_555 1_555
C1B H1B 1_555 1_555
H2B C1B 1_555 1_555
H3B C1B 1_555 1_555
C2B O1B 1_555 1_555
C3B C2B 1_555 1_555
C4B C3B 1_555 1_555
H4B C4B 1_555 1_555
C5B C5 1_555 1_555
H5B C5B 1_555 1_555
H6B C5B 1_555 1_555
C6B C2B 1_555 1_555
H7B C6B 1_555 1_555
C7B S1B 1_555 1_555
H8B C7B 1_555 1_555
C6 C7 1_555 1_555
N1B C5B 1_555 1_555
C6B C7B 1_555 1_555

#END
