
#######################################################################
#
#                 Cambridge Crystallographic Data Centre
#                                CCDC 
#
#######################################################################
#
# If this CIF has been generated from an entry in the Cambridge 
# Structural Database, then it will include bibliographic, chemical, 
# crystal, experimental, refinement or atomic coordinate data resulting 
# from the CCDC's data processing and validation procedures.
#
#######################################################################

data_HUWXOM
_chemical_formula_moiety         'C32 H24 N2 S2'
_chemical_name_systematic        3,3'-bis(8-Quinolylthiomethyl)-1,1'-biphenyl
_symmetry_cell_setting           monoclinic
_symmetry_space_group_name_H-M   'P 21/c'
_symmetry_Int_Tables_number      14
_space_group_name_Hall           '-P 2ybc'
loop_
_symmetry_equiv_pos_site_id
_symmetry_equiv_pos_as_xyz
1 x,y,z
2 x,1/2-y,1/2+z
3 -x,-y,-z
4 -x,1/2+y,1/2-z
_cell_length_a                   5.8913(14)
_cell_length_b                   11.298(3)
_cell_length_c                   37.653(9)
_cell_angle_alpha                90
_cell_angle_beta                 92.018(4)
_cell_angle_gamma                90
_cell_volume                     2504.63
_exptl_crystal_colour            colorless
_exptl_crystal_description       needle
_cell_formula_units_Z            4
_exptl_crystal_recrystallization_method 'dichloromethane/di-isopropyl ether'
loop_
_atom_site_label
_atom_site_type_symbol
_atom_site_fract_x
_atom_site_fract_y
_atom_site_fract_z
N1 N 0.6251(5) 0.6148(3) 0.27291(8)
C1 C 0.4448(7) 0.6776(4) 0.26415(11)
H1 H 0.3750 0.7204 0.2825
C2 C 0.3464(7) 0.6865(4) 0.22963(12)
H2 H 0.2159 0.7342 0.2250
C3 C 0.4434(7) 0.6248(3) 0.20300(11)
H3 H 0.3798 0.6287 0.1795
C4 C 0.6359(7) 0.5561(3) 0.21023(10)
C5 C 0.7489(7) 0.4903(3) 0.18428(10)
H4 H 0.6922 0.4912 0.1603
C6 C 0.9377(7) 0.4257(4) 0.19303(10)
H5 H 1.0128 0.3835 0.1751
C7 C 1.0227(7) 0.4207(3) 0.22829(9)
H6 H 1.1535 0.3744 0.2340
C8 C 0.9182(6) 0.4825(3) 0.25467(9)
C9 C 0.7242(6) 0.5520(3) 0.24608(9)
S1 S 1.00582(17) 0.48216(9) 0.30005(2)
C10 C 1.2329(6) 0.3748(3) 0.30147(9)
H7 H 1.1854 0.3031 0.2880
H8 H 1.3684 0.4082 0.2903
C11 C 1.2906(6) 0.3424(3) 0.33966(9)
C12 C 1.1434(6) 0.2734(3) 0.35869(9)
H9 H 1.0035 0.2488 0.3477
C13 C 1.1964(6) 0.2389(3) 0.39377(9)
C14 C 1.4013(6) 0.2758(3) 0.40904(10)
H10 H 1.4411 0.2531 0.4327
C15 C 1.5482(6) 0.3446(3) 0.39047(10)
H11 H 1.6887 0.3682 0.4014
C16 C 1.4940(6) 0.3800(3) 0.35605(9)
H12 H 1.5946 0.4296 0.3437
C17 C 1.0366(6) 0.1653(3) 0.41397(9)
C18 C 0.9165(6) 0.0717(3) 0.39791(9)
H13 H 0.9340 0.0561 0.3734
C19 C 0.7730(7) 0.0016(3) 0.41703(10)
H14 H 0.6970 -0.0634 0.4059
C20 C 0.7398(7) 0.0268(3) 0.45294(10)
H15 H 0.6383 -0.0203 0.4660
C21 C 0.8539(6) 0.1196(3) 0.46942(9)
C22 C 1.0016(6) 0.1879(3) 0.45017(9)
H16 H 1.0809 0.2512 0.4616
C23 C 0.8116(6) 0.1487(3) 0.50780(9)
H17 H 0.9462 0.1883 0.5189
H18 H 0.7815 0.0754 0.5212
S2 S 0.56760(17) 0.24595(9) 0.50834(2)
C24 C 0.5224(7) 0.2636(3) 0.55411(9)
C25 C 0.6641(7) 0.2169(4) 0.58070(10)
H19 H 0.7932 0.1714 0.5749
C26 C 0.6127(9) 0.2385(4) 0.61716(10)
H20 H 0.7118 0.2084 0.6355
C27 C 0.4289(9) 0.2998(4) 0.62597(11)
H21 H 0.3985 0.3109 0.6504
C28 C 0.2799(8) 0.3480(4) 0.59988(10)
C29 C 0.0855(9) 0.4137(4) 0.60693(13)
H22 H 0.0458 0.4259 0.6309
C30 C -0.0466(9) 0.4600(4) 0.58059(14)
H23 H -0.1780 0.5049 0.5855
C31 C 0.0174(8) 0.4393(4) 0.54519(12)
H24 H -0.0747 0.4729 0.5266
N2 N 0.1945(6) 0.3771(3) 0.53630(8)
C32 C 0.3295(7) 0.3306(3) 0.56296(9)
loop_
_geom_bond_atom_site_label_1
_geom_bond_atom_site_label_2
_geom_bond_site_symmetry_1
_geom_bond_site_symmetry_2
N1 C1 1_555 1_555
C1 H1 1_555 1_555
C2 C1 1_555 1_555
H2 C2 1_555 1_555
C3 C2 1_555 1_555
H3 C3 1_555 1_555
C4 C3 1_555 1_555
C5 C4 1_555 1_555
H4 C5 1_555 1_555
C6 C5 1_555 1_555
H5 C6 1_555 1_555
C7 C6 1_555 1_555
H6 C7 1_555 1_555
C8 C7 1_555 1_555
C9 N1 1_555 1_555
S1 C8 1_555 1_555
C10 S1 1_555 1_555
H7 C10 1_555 1_555
H8 C10 1_555 1_555
C11 C10 1_555 1_555
C12 C11 1_555 1_555
H9 C12 1_555 1_555
C13 C12 1_555 1_555
C14 C13 1_555 1_555
H10 C14 1_555 1_555
C15 C14 1_555 1_555
H11 C15 1_555 1_555
C16 C11 1_555 1_555
H12 C16 1_555 1_555
C17 C13 1_555 1_555
C18 C17 1_555 1_555
H13 C18 1_555 1_555
C19 C18 1_555 1_555
H14 C19 1_555 1_555
C20 C19 1_555 1_555
H15 C20 1_555 1_555
C21 C20 1_555 1_555
C22 C17 1_555 1_555
H16 C22 1_555 1_555
C23 C21 1_555 1_555
H17 C23 1_555 1_555
H18 C23 1_555 1_555
S2 C23 1_555 1_555
C24 S2 1_555 1_555
C25 C24 1_555 1_555
H19 C25 1_555 1_555
C26 C25 1_555 1_555
H20 C26 1_555 1_555
C27 C26 1_555 1_555
H21 C27 1_555 1_555
C28 C27 1_555 1_555
C29 C28 1_555 1_555
H22 C29 1_555 1_555
C30 C29 1_555 1_555
H23 C30 1_555 1_555
C31 C30 1_555 1_555
H24 C31 1_555 1_555
N2 C31 1_555 1_555
C32 C24 1_555 1_555
C4 C9 1_555 1_555
C8 C9 1_555 1_555
C15 C16 1_555 1_555
C21 C22 1_555 1_555
C28 C32 1_555 1_555
N2 C32 1_555 1_555

#END
