
#######################################################################
#
#                 Cambridge Crystallographic Data Centre
#                                CCDC 
#
#######################################################################
#
# If this CIF has been generated from an entry in the Cambridge 
# Structural Database, then it will include bibliographic, chemical, 
# crystal, experimental, refinement or atomic coordinate data resulting 
# from the CCDC's data processing and validation procedures.
#
#######################################################################

data_HUXHAL
_chemical_formula_moiety         'C19 H18 Cl1 N1 O2'
_chemical_name_systematic        
(1R,5R)-1-(4-Chlorophenyl)-2-(4-methoxybenzyl)-2-azabicyclo[3.1.0]hexan-3-one
_symmetry_cell_setting           orthorhombic
_symmetry_space_group_name_H-M   'P 21 21 21'
_symmetry_Int_Tables_number      19
_space_group_name_Hall           'P 2ac 2ab'
loop_
_symmetry_equiv_pos_site_id
_symmetry_equiv_pos_as_xyz
1 x,y,z
2 1/2-x,-y,1/2+z
3 -x,1/2+y,1/2-z
4 1/2+x,1/2-y,-z
_cell_length_a                   7.3021(15)
_cell_length_b                   15.329(3)
_cell_length_c                   43.092(8)
_cell_angle_alpha                90
_cell_angle_beta                 90
_cell_angle_gamma                90
_cell_volume                     4823.46
_exptl_crystal_colour            colorless
_exptl_crystal_description       prism
_chemical_melting_point          '74.3-75.9 deg.C'
_cell_formula_units_Z            12
loop_
_atom_site_label
_atom_site_type_symbol
_atom_site_fract_x
_atom_site_fract_y
_atom_site_fract_z
Cl1 Cl 1.32827(17) 0.18525(7) 0.02216(2)
O1 O 0.8011(4) 0.49822(17) 0.16872(5)
O2 O 0.1688(4) 0.49319(18) 0.04157(6)
N1 N 0.8399(4) 0.40383(18) 0.12782(6)
C1 C 0.8142(5) 0.3127(2) 0.12086(7)
C2 C 0.6239(5) 0.2782(3) 0.12721(8)
H1 H 0.5855 0.2245 0.1163
H2 H 0.5250 0.3213 0.1307
C3 C 0.7706(5) 0.2700(2) 0.15186(8)
H3 H 0.8227 0.2112 0.1566
C4 C 0.7826(5) 0.3405(2) 0.17595(8)
H4 H 0.6690 0.3426 0.1885
H5 H 0.8875 0.3300 0.1900
C5 C 0.8079(5) 0.4241(3) 0.15847(8)
C6 C 0.9416(5) 0.2752(2) 0.09719(8)
C7 C 0.8759(6) 0.2262(2) 0.07224(8)
H6 H 0.7491 0.2129 0.0708
C8 C 0.9954(6) 0.1969(3) 0.04957(8)
H7 H 0.9512 0.1632 0.0327
C9 C 1.1783(6) 0.2170(2) 0.05172(8)
C10 C 1.2477(6) 0.2638(2) 0.07653(8)
H8 H 1.3749 0.2764 0.0780
C11 C 1.1259(5) 0.2921(2) 0.09936(8)
H9 H 1.1713 0.3235 0.1167
C12 C 0.8523(5) 0.4704(2) 0.10323(7)
H10 H 0.9529 0.4550 0.0888
H11 H 0.8814 0.5276 0.1127
C13 C 0.6758(5) 0.4772(2) 0.08538(7)
C14 C 0.5315(5) 0.5259(2) 0.09704(8)
H12 H 0.5485 0.5579 0.1157
C15 C 0.3644(6) 0.5293(2) 0.08244(8)
H13 H 0.2668 0.5620 0.0912
C16 C 0.3393(5) 0.4843(2) 0.05463(8)
C17 C 0.4821(5) 0.4358(2) 0.04240(8)
H14 H 0.4660 0.4048 0.0235
C18 C 0.6481(5) 0.4326(2) 0.05773(8)
H15 H 0.7454 0.3993 0.0492
C19 C 0.1447(6) 0.4572(3) 0.01144(9)
H16 H 0.2404 0.4795 -0.0024
H17 H 0.0242 0.4739 0.0034
H18 H 0.1530 0.3935 0.0126
Cl2 Cl 1.14781(14) 0.15037(7) 0.17538(2)
O3 O 1.7022(4) -0.13987(18) 0.32419(6)
O4 O 2.3318(4) -0.16412(16) 0.19487(5)
N2 N 1.6644(4) -0.05149(18) 0.28152(6)
C20 C 1.6874(5) 0.0385(2) 0.27294(7)
C21 C 1.8759(5) 0.0752(2) 0.27862(8)
H19 H 1.9124 0.1276 0.2667
H20 H 1.9763 0.0336 0.2829
C22 C 1.7289(5) 0.0859(3) 0.30309(8)
H21 H 1.6747 0.1450 0.3067
C23 C 1.7188(5) 0.0189(3) 0.32854(8)
H22 H 1.8323 0.0195 0.3411
H23 H 1.6133 0.0307 0.3423
C24 C 1.6962(5) -0.0670(3) 0.31256(8)
C25 C 1.5550(5) 0.0712(2) 0.24912(8)
C26 C 1.6111(5) 0.1189(2) 0.22313(8)
H24 H 1.7369 0.1332 0.2207
C27 C 1.4858(5) 0.1458(2) 0.20070(8)
H25 H 1.5242 0.1797 0.1834
C28 C 1.3053(5) 0.1224(2) 0.20418(8)
C29 C 1.2438(5) 0.0750(2) 0.22961(7)
H26 H 1.1185 0.0593 0.2316
C30 C 1.3712(5) 0.0512(2) 0.25198(7)
H27 H 1.3307 0.0203 0.2698
C31 C 1.6561(5) -0.1215(2) 0.25825(8)
H28 H 1.5558 -0.1088 0.2435
H29 H 1.6271 -0.1772 0.2688
C32 C 1.8325(5) -0.1317(2) 0.24047(7)
C33 C 1.9708(5) -0.1844(2) 0.25146(8)
H30 H 1.9517 -0.2156 0.2702
C34 C 2.1359(5) -0.1937(2) 0.23632(8)
H31 H 2.2290 -0.2299 0.2447
C35 C 2.1648(5) -0.1490(2) 0.20830(8)
C36 C 2.0287(5) -0.0965(2) 0.19653(8)
H32 H 2.0470 -0.0661 0.1776
C37 C 1.8649(5) -0.0881(2) 0.21248(8)
H33 H 1.7718 -0.0517 0.2042
C38 C 2.3778(6) -0.1130(2) 0.16797(8)
H34 H 2.2886 -0.1244 0.1515
H35 H 2.5006 -0.1290 0.1608
H36 H 2.3755 -0.0509 0.1734
Cl3 Cl 0.75627(15) 0.03864(7) 0.13518(2)
O5 O 0.2048(4) -0.28370(17) -0.00636(5)
O6 O -0.3111(3) -0.28866(17) 0.15056(5)
N3 N 0.2236(4) -0.19396(19) 0.03626(6)
C39 C 0.2049(5) -0.1028(2) 0.04439(8)
C40 C 0.0176(5) -0.0649(3) 0.03826(8)
H37 H -0.0172 -0.0114 0.0496
H38 H -0.0842 -0.1062 0.0344
C41 C 0.1648(5) -0.0572(2) 0.01361(8)
H39 H 0.2208 0.0012 0.0097
C42 C 0.1744(6) -0.1253(2) -0.01154(8)
H40 H 0.0593 -0.1264 -0.0237
H41 H 0.2776 -0.1132 -0.0258
C43 C 0.2027(5) -0.2104(3) 0.00502(8)
C44 C 0.3385(5) -0.0667(2) 0.06730(7)
C45 C 0.2871(5) -0.0034(2) 0.08911(8)
H42 H 0.1640 0.0164 0.0900
C46 C 0.4170(5) 0.0302(3) 0.10942(8)
H43 H 0.3832 0.0741 0.1239
C47 C 0.5929(5) 0.0002(2) 0.10861(8)
C48 C 0.6463(5) -0.0631(2) 0.08756(8)
H44 H 0.7686 -0.0843 0.0875
C49 C 0.5199(5) -0.0950(2) 0.06671(8)
H45 H 0.5569 -0.1369 0.0517
C50 C 0.2484(6) -0.2639(2) 0.05916(8)
H46 H 0.3691 -0.2565 0.0693
H47 H 0.2495 -0.3207 0.0482
C51 C 0.1024(5) -0.2662(2) 0.08383(8)
C52 C -0.0834(5) -0.2662(2) 0.07664(8)
H48 H -0.1191 -0.2604 0.0555
C53 C -0.2162(6) -0.2740(2) 0.09877(8)
H49 H -0.3418 -0.2740 0.0930
C54 C -0.1664(5) -0.2822(2) 0.13025(8)
C55 C 0.0157(5) -0.2834(2) 0.13815(8)
H50 H 0.0510 -0.2900 0.1592
C56 C 0.1499(5) -0.2748(2) 0.11495(7)
H51 H 0.2755 -0.2749 0.1206
C57 C -0.2641(6) -0.2995(3) 0.18293(8)
H52 H -0.2027 -0.3557 0.1858
H53 H -0.3758 -0.2978 0.1955
H54 H -0.1820 -0.2523 0.1894
loop_
_geom_bond_atom_site_label_1
_geom_bond_atom_site_label_2
_geom_bond_site_symmetry_1
_geom_bond_site_symmetry_2
Cl1 C9 1_555 1_555
O1 C5 1_555 1_555
O2 C16 1_555 1_555
N1 C1 1_555 1_555
C1 C2 1_555 1_555
C2 H1 1_555 1_555
H2 C2 1_555 1_555
C3 C1 1_555 1_555
H3 C3 1_555 1_555
C4 C3 1_555 1_555
H4 C4 1_555 1_555
H5 C4 1_555 1_555
C5 N1 1_555 1_555
C6 C1 1_555 1_555
C7 C6 1_555 1_555
H6 C7 1_555 1_555
C8 C7 1_555 1_555
H7 C8 1_555 1_555
C9 C8 1_555 1_555
C10 C9 1_555 1_555
H8 C10 1_555 1_555
C11 C6 1_555 1_555
H9 C11 1_555 1_555
C12 N1 1_555 1_555
H10 C12 1_555 1_555
H11 C12 1_555 1_555
C13 C12 1_555 1_555
C14 C13 1_555 1_555
H12 C14 1_555 1_555
C15 C14 1_555 1_555
H13 C15 1_555 1_555
C16 C15 1_555 1_555
C17 C16 1_555 1_555
H14 C17 1_555 1_555
C18 C13 1_555 1_555
H15 C18 1_555 1_555
C19 O2 1_555 1_555
H16 C19 1_555 1_555
H17 C19 1_555 1_555
H18 C19 1_555 1_555
Cl2 C28 1_555 1_555
O3 C24 1_555 1_555
O4 C35 1_555 1_555
N2 C20 1_555 1_555
C20 C21 1_555 1_555
C21 H19 1_555 1_555
H20 C21 1_555 1_555
C22 C20 1_555 1_555
H21 C22 1_555 1_555
C23 C22 1_555 1_555
H22 C23 1_555 1_555
H23 C23 1_555 1_555
C24 N2 1_555 1_555
C25 C20 1_555 1_555
C26 C25 1_555 1_555
H24 C26 1_555 1_555
C27 C26 1_555 1_555
H25 C27 1_555 1_555
C28 C27 1_555 1_555
C29 C28 1_555 1_555
H26 C29 1_555 1_555
C30 C25 1_555 1_555
H27 C30 1_555 1_555
C31 N2 1_555 1_555
H28 C31 1_555 1_555
H29 C31 1_555 1_555
C32 C31 1_555 1_555
C33 C32 1_555 1_555
H30 C33 1_555 1_555
C34 C33 1_555 1_555
H31 C34 1_555 1_555
C35 C34 1_555 1_555
C36 C35 1_555 1_555
H32 C36 1_555 1_555
C37 C32 1_555 1_555
H33 C37 1_555 1_555
C38 O4 1_555 1_555
H34 C38 1_555 1_555
H35 C38 1_555 1_555
H36 C38 1_555 1_555
Cl3 C47 1_555 1_555
O5 C43 1_555 1_555
O6 C54 1_555 1_555
N3 C39 1_555 1_555
C39 C40 1_555 1_555
C40 H37 1_555 1_555
H38 C40 1_555 1_555
C41 C39 1_555 1_555
H39 C41 1_555 1_555
C42 C41 1_555 1_555
H40 C42 1_555 1_555
H41 C42 1_555 1_555
C43 N3 1_555 1_555
C44 C39 1_555 1_555
C45 C44 1_555 1_555
H42 C45 1_555 1_555
C46 C45 1_555 1_555
H43 C46 1_555 1_555
C47 C46 1_555 1_555
C48 C47 1_555 1_555
H44 C48 1_555 1_555
C49 C44 1_555 1_555
H45 C49 1_555 1_555
C50 N3 1_555 1_555
H46 C50 1_555 1_555
H47 C50 1_555 1_555
C51 C50 1_555 1_555
C52 C51 1_555 1_555
H48 C52 1_555 1_555
C53 C52 1_555 1_555
H49 C53 1_555 1_555
C54 C53 1_555 1_555
C55 C54 1_555 1_555
H50 C55 1_555 1_555
C56 C51 1_555 1_555
H51 C56 1_555 1_555
C57 O6 1_555 1_555
H52 C57 1_555 1_555
H53 C57 1_555 1_555
H54 C57 1_555 1_555
C2 C3 1_555 1_555
C4 C5 1_555 1_555
C10 C11 1_555 1_555
C17 C18 1_555 1_555
C21 C22 1_555 1_555
C23 C24 1_555 1_555
C29 C30 1_555 1_555
C36 C37 1_555 1_555
C40 C41 1_555 1_555
C42 C43 1_555 1_555
C48 C49 1_555 1_555
C55 C56 1_555 1_555

#END
