
#######################################################################
#
#                 Cambridge Crystallographic Data Centre
#                                CCDC 
#
#######################################################################
#
# If this CIF has been generated from an entry in the Cambridge 
# Structural Database, then it will include bibliographic, chemical, 
# crystal, experimental, refinement or atomic coordinate data resulting 
# from the CCDC's data processing and validation procedures.
#
#######################################################################

data_HUXJIU
_chemical_formula_moiety         
'C16 H36 N1 1+,C80 H116 N4 O12,C1 H3 O3 S1 1-,0.5(C6 H6)'
_chemical_name_systematic        
'Tetra-n-butylammonium 7,11,15,18-tetrakis((t-butylamino)carbonyl)-19,21,23,25-tetra-n-heptyl-[4]-cavitand methylsulfonate clathrate benzene solvate'
_symmetry_cell_setting           triclinic
_symmetry_space_group_name_H-M   'P -1'
_symmetry_Int_Tables_number      2
_space_group_name_Hall           '-P 1'
loop_
_symmetry_equiv_pos_site_id
_symmetry_equiv_pos_as_xyz
1 x,y,z
2 -x,-y,-z
_cell_length_a                   17.094(3)
_cell_length_b                   17.800(4)
_cell_length_c                   19.804(4)
_cell_angle_alpha                116.32(3)
_cell_angle_beta                 105.02(3)
_cell_angle_gamma                98.39(3)
_cell_volume                     4974.23
_exptl_crystal_colour            colorless
_exptl_crystal_description       block
_cell_formula_units_Z            2
_exptl_crystal_recrystallization_method benzene/dichloromethane/methanol
loop_
_atom_site_label
_atom_site_type_symbol
_atom_site_fract_x
_atom_site_fract_y
_atom_site_fract_z
N5 N 0.68573(16) 0.41484(17) 0.74080(15)
C81 C 0.5911(2) 0.3678(2) 0.69467(19)
H117 H 0.5602 0.4121 0.7069
H118 H 0.5802 0.3385 0.6359
C82 C 0.5559(2) 0.3002(2) 0.7138(2)
H119 H 0.5776 0.3252 0.7732
H120 H 0.5759 0.2484 0.6897
C83 C 0.4589(2) 0.2709(2) 0.6815(2)
H121 H 0.4376 0.2586 0.6250
H122 H 0.4384 0.2155 0.6809
C84 C 0.4222(2) 0.3387(3) 0.7312(2)
H123 H 0.3601 0.3167 0.7073
H124 H 0.4417 0.3936 0.7316
H125 H 0.4413 0.3497 0.7868
C85 C 0.7062(2) 0.4663(2) 0.83176(19)
H126 H 0.7023 0.4240 0.8513
H127 H 0.7659 0.5044 0.8582
C86 C 0.6506(2) 0.5232(2) 0.8593(2)
H128 H 0.5915 0.4855 0.8381
H129 H 0.6507 0.5634 0.8372
C87 C 0.6820(3) 0.5772(3) 0.9516(2)
H130 H 0.7426 0.6107 0.9727
H131 H 0.6499 0.6201 0.9673
C88 C 0.6724(3) 0.5215(3) 0.9910(2)
H132 H 0.6940 0.5597 1.0499
H133 H 0.7047 0.4794 0.9765
H134 H 0.6122 0.4895 0.9719
C89 C 0.7337(2) 0.3468(2) 0.7242(2)
H135 H 0.7218 0.3137 0.7513
H136 H 0.7109 0.3045 0.6652
C90 C 0.8293(2) 0.3831(2) 0.7515(2)
H137 H 0.8428 0.4042 0.7160
H138 H 0.8518 0.4337 0.8075
C91 C 0.8713(2) 0.3132(2) 0.7485(2)
H139 H 0.8445 0.2606 0.6937
H140 H 0.8615 0.2959 0.7874
C92 C 0.9664(2) 0.3438(3) 0.7682(3)
H141 H 0.9906 0.2963 0.7654
H142 H 0.9935 0.3951 0.8229
H143 H 0.9765 0.3599 0.7291
C93 C 0.7128(2) 0.4785(2) 0.71398(19)
H144 H 0.6839 0.5243 0.7303
H145 H 0.7747 0.5080 0.7434
C94 C 0.6947(2) 0.4387(2) 0.6243(2)
H146 H 0.7039 0.3802 0.6030
H147 H 0.6344 0.4304 0.5961
C95 C 0.7501(3) 0.4954(2) 0.6069(2)
H148 H 0.8096 0.4971 0.6296
H149 H 0.7468 0.5560 0.6354
C96 C 0.7280(3) 0.4661(3) 0.5183(2)
H150 H 0.7669 0.5072 0.5126
H151 H 0.6695 0.4652 0.4953
H152 H 0.7333 0.4071 0.4897
S1 S 0.39331(5) 0.06349(6) 0.20002(5)
O13 O 0.36103(16) 0.0120(2) 0.11369(14)
O14 O 0.45119(16) 0.14988(17) 0.23604(18)
O15 O 0.43230(15) 0.01494(17) 0.23593(14)
C97 C 0.3059(2) 0.0771(2) 0.2295(2)
H153 H 0.2768 0.1093 0.2074
H154 H 0.3254 0.1104 0.2887
H155 H 0.2666 0.0194 0.2090
C98 C -0.0770(4) 0.4860(5) -0.0160(3)
C99 C -0.0646(7) 0.4110(6) -0.0230(5)
C100 C 0.0014(5) 0.3771(6) -0.0158(5)
C101 C -0.0801(6) 0.5717(6) 0.0035(5)
C102 C -0.0036(5) 0.4546(8) -0.0004(6)
C98A C 0.0770(4) 0.5140(5) 0.0160(3)
C99A C 0.0646(7) 0.5890(6) 0.0230(5)
C100A C -0.0014(5) 0.6229(6) 0.0158(5)
C101A C 0.0801(6) 0.4283(6) -0.0035(5)
C102A C 0.0036(5) 0.5454(8) 0.0004(6)
O1 O 0.48735(13) 0.29859(14) 0.48857(12)
O2 O 0.44892(13) 0.37204(14) 0.41683(12)
O3 O 0.26723(13) 0.28813(14) 0.15235(12)
O4 O 0.17903(13) 0.15196(14) 0.03732(12)
O5 O 0.11451(13) -0.14546(14) -0.02417(12)
O6 O 0.15929(13) -0.21793(14) 0.04700(12)
O7 O 0.33541(13) -0.13409(14) 0.31365(12)
O8 O 0.42007(13) 0.00289(15) 0.43144(12)
O9 O 0.59188(14) 0.18138(15) 0.54284(14)
O10 O 0.45059(14) 0.44566(17) 0.29237(13)
O11 O 0.12770(14) -0.04155(15) -0.12809(14)
O12 O 0.28780(13) -0.30223(17) 0.12515(13)
N1 N 0.56742(16) 0.12654(19) 0.40859(16)
H1 H 0.5294 0.1140 0.3625
N2 N 0.47258(16) 0.31182(19) 0.23533(16)
H2 H 0.4516 0.2561 0.2196
N3 N 0.26038(17) -0.01496(18) -0.04352(15)
H3 H 0.2910 0.0006 0.0064
N4 N 0.36376(17) -0.18188(18) 0.13144(16)
H4 H 0.3730 -0.1248 0.1526
C1 C 0.3917(2) 0.0725(2) 0.43278(18)
C2 C 0.4515(2) 0.1492(2) 0.45472(17)
C3 C 0.4252(2) 0.2215(2) 0.46260(17)
C4 C 0.3400(2) 0.2204(2) 0.44902(17)
C5 C 0.2824(2) 0.1416(2) 0.42647(17)
H5 H 0.2243 0.1387 0.4166
C6 C 0.3059(2) 0.0670(2) 0.41766(18)
C7 C 0.5443(2) 0.1541(2) 0.4731(2)
C8 C 0.6514(2) 0.1153(2) 0.4082(2)
C9 C 0.6623(3) 0.0403(3) 0.4229(3)
H6 H 0.6167 -0.0136 0.3807
H7 H 0.6600 0.0543 0.4759
H8 H 0.7174 0.0317 0.4216
C10 C 0.6513(3) 0.0935(4) 0.3254(2)
H9 H 0.6057 0.0390 0.2843
H10 H 0.7061 0.0856 0.3224
H11 H 0.6421 0.1415 0.3158
C11 C 0.7222(2) 0.1994(3) 0.4731(3)
H12 H 0.7148 0.2475 0.4629
H13 H 0.7772 0.1909 0.4717
H14 H 0.7202 0.2141 0.5263
C12 C 0.4970(2) 0.3173(2) 0.4277(2)
H15 H 0.5577 0.3463 0.4428
H16 H 0.4789 0.2614 0.3759
C13 C 0.3142(2) 0.3001(2) 0.45366(18)
H17 H 0.3641 0.3527 0.4948
C14 C 0.3676(2) 0.3297(2) 0.35734(19)
C15 C 0.3569(2) 0.3262(2) 0.28379(19)
C16 C 0.2760(2) 0.2875(2) 0.22439(18)
C17 C 0.2059(2) 0.2534(2) 0.23655(19)
C18 C 0.2201(2) 0.2579(2) 0.31079(19)
H18 H 0.1732 0.2338 0.3199
C19 C 0.3000(2) 0.2962(2) 0.37265(18)
C20 C 0.4315(2) 0.3671(3) 0.27107(19)
C21 C 0.5497(2) 0.3363(2) 0.2201(2)
C22 C 0.6229(2) 0.3968(3) 0.3000(2)
H19 H 0.6320 0.3671 0.3316
H20 H 0.6094 0.4507 0.3303
H21 H 0.6745 0.4115 0.2897
C23 C 0.5685(3) 0.2514(3) 0.1725(3)
H22 H 0.5786 0.2225 0.2047
H23 H 0.6190 0.2646 0.1603
H24 H 0.5199 0.2123 0.1219
C24 C 0.5333(3) 0.3807(3) 0.1687(2)
H25 H 0.5212 0.4355 0.1990
H26 H 0.4846 0.3412 0.1182
H27 H 0.5837 0.3936 0.1561
C25 C 0.2630(2) 0.2081(2) 0.08540(19)
H28 H 0.2887 0.2220 0.0513
H29 H 0.2969 0.1769 0.1060
C26 C 0.11851(19) 0.2070(2) 0.16856(18)
H30 H 0.1165 0.2343 0.1338
C27 C 0.14830(19) 0.0894(2) 0.05649(19)
C28 C 0.14818(19) 0.0042(2) 0.00915(18)
C29 C 0.11603(19) -0.0596(2) 0.02557(18)
C30 C 0.08171(19) -0.0406(2) 0.08592(19)
C31 C 0.08061(19) 0.0455(2) 0.12977(19)
H31 H 0.0561 0.0593 0.1701
C32 C 0.11409(19) 0.1125(2) 0.11698(18)
C33 C 0.1779(2) -0.0202(2) -0.0610(2)
C34 C 0.3032(2) -0.0336(2) -0.10242(19)
C35 C 0.2977(2) 0.0298(3) -0.1344(2)
H32 H 0.2380 0.0203 -0.1636
H33 H 0.3289 0.0196 -0.1712
H34 H 0.3225 0.0904 -0.0890
C36 C 0.3957(2) -0.0198(3) -0.0569(2)
H35 H 0.4217 0.0414 -0.0129
H36 H 0.4264 -0.0331 -0.0942
H37 H 0.3982 -0.0590 -0.0344
C37 C 0.2622(2) -0.1286(2) -0.1714(2)
H38 H 0.2028 -0.1370 -0.2004
H39 H 0.2645 -0.1682 -0.1494
H40 H 0.2928 -0.1417 -0.2088
C38 C 0.1810(2) -0.1739(2) 0.0064(2)
H41 H 0.2319 -0.1224 0.0445
H42 H 0.1957 -0.2141 -0.0389
C39 C 0.04963(19) -0.1124(2) 0.10298(18)
H43 H 0.0277 -0.1692 0.0504
C40 C 0.1785(2) -0.1658(2) 0.13042(18)
C41 C 0.2499(2) -0.1699(2) 0.18102(19)
C42 C 0.26814(19) -0.1236(2) 0.26432(19)
C43 C 0.21778(19) -0.0748(2) 0.29693(19)
C44 C 0.1479(2) -0.0726(2) 0.24360(19)
H44 H 0.1137 -0.0383 0.2653
C45 C 0.12576(19) -0.1187(2) 0.15953(19)
C46 C 0.3032(2) -0.2245(3) 0.14398(18)
C47 C 0.4170(2) -0.2211(2) 0.08534(19)
C48 C 0.3598(2) -0.2932(3) -0.0003(2)
H45 H 0.3239 -0.2684 -0.0266
H46 H 0.3238 -0.3396 0.0020
H47 H 0.3948 -0.3181 -0.0313
C49 C 0.4714(3) -0.1478(3) 0.0830(3)
H48 H 0.5082 -0.1020 0.1382
H49 H 0.4347 -0.1226 0.0577
H50 H 0.5064 -0.1712 0.0514
C50 C 0.4725(2) -0.2592(3) 0.1261(2)
H51 H 0.5093 -0.2127 0.1812
H52 H 0.5077 -0.2841 0.0952
H53 H 0.4366 -0.3055 0.1285
C51 C 0.4142(2) -0.0661(2) 0.35574(19)
H54 H 0.4608 -0.0918 0.3649
H55 H 0.4224 -0.0411 0.3213
C52 C 0.24291(19) -0.0203(2) 0.38827(18)
H56 H 0.2748 -0.0514 0.4116
C53 C 0.2395(2) 0.3138(2) 0.48161(19)
H57 H 0.2216 0.3609 0.4742
H58 H 0.1912 0.2591 0.4467
C54 C 0.2589(2) 0.3382(2) 0.56966(19)
H59 H 0.2528 0.2840 0.5731
H60 H 0.3185 0.3758 0.6020
C55 C 0.2006(2) 0.3866(2) 0.6057(2)
H61 H 0.2071 0.4407 0.6021
H62 H 0.1411 0.3491 0.5725
C56 C 0.2166(2) 0.4119(3) 0.6933(2)
H63 H 0.2015 0.3578 0.6960
H64 H 0.2779 0.4421 0.7255
C57 C 0.1666(2) 0.4713(3) 0.7310(2)
H65 H 0.1053 0.4404 0.6995
H66 H 0.1805 0.5247 0.7267
C58 C 0.1837(3) 0.4992(3) 0.8194(2)
H67 H 0.1636 0.4468 0.8233
H68 H 0.2458 0.5243 0.8501
C59 C 0.1405(3) 0.5666(3) 0.8578(2)
H69 H 0.1531 0.5819 0.9143
H70 H 0.0790 0.5419 0.8282
H71 H 0.1615 0.6195 0.8557
C60 C 0.0445(2) 0.2194(2) 0.19806(19)
H72 H -0.0093 0.1786 0.1527
H73 H 0.0510 0.2043 0.2412
C61 C 0.0396(2) 0.3130(2) 0.2306(2)
H74 H 0.0948 0.3535 0.2738
H75 H 0.0312 0.3268 0.1864
C62 C -0.0295(3) 0.3315(3) 0.2641(3)
H76 H -0.0827 0.2859 0.2283
H77 H -0.0391 0.3865 0.2677
C63 C 0.0075(6) 0.3424(7) 0.3571(5)
H78 H 0.0174 0.2868 0.3514
H79 H 0.0627 0.3893 0.3897
C64 C -0.0540(5) 0.3649(5) 0.4021(4)
H80 H -0.0673 0.4181 0.4043
H81 H -0.1076 0.3159 0.3719
C65 C -0.0172(7) 0.3812(7) 0.4867(7)
H82 H 0.0384 0.4273 0.5152
H83 H -0.0069 0.3267 0.4838
C66 C -0.0747(7) 0.4102(7) 0.5378(6)
H84 H -0.0476 0.4173 0.5912
H85 H -0.1302 0.3652 0.5100
H86 H -0.0823 0.4662 0.5442
C67 C -0.02367(19) -0.1020(2) 0.13320(19)
H87 H -0.0027 -0.0482 0.1871
H88 H -0.0680 -0.0936 0.0960
C68 C -0.0637(2) -0.1788(2) 0.1398(2)
H89 H -0.0209 -0.1840 0.1807
H90 H -0.0803 -0.2335 0.0872
C69 C -0.1413(2) -0.1709(2) 0.1631(2)
H91 H -0.1258 -0.1140 0.2135
H92 H -0.1858 -0.1704 0.1200
C70 C -0.1778(2) -0.2439(2) 0.1762(2)
H93 H -0.1371 -0.2374 0.2257
H94 H -0.1830 -0.3008 0.1301
C71 C -0.2639(2) -0.2469(3) 0.1847(2)
H95 H -0.3055 -0.2575 0.1337
H96 H -0.2824 -0.2976 0.1915
C72 C -0.2666(2) -0.1652(3) 0.2540(2)
H97 H -0.3256 -0.1729 0.2528
H98 H -0.2505 -0.1146 0.2464
C73 C -0.2082(3) -0.1443(3) 0.3364(2)
H99 H -0.2122 -0.0904 0.3786
H100 H -0.1495 -0.1358 0.3384
H101 H -0.2251 -0.1930 0.3454
C74 C 0.16921(19) -0.0115(2) 0.41858(19)
H102 H 0.1922 0.0314 0.4774
H103 H 0.1318 0.0123 0.3914
C75 C 0.1163(2) -0.0979(2) 0.4036(2)
H104 H 0.0799 -0.1343 0.3455
H105 H 0.1549 -0.1302 0.4162
C76 C 0.0605(2) -0.0854(2) 0.4539(2)
H106 H 0.0960 -0.0425 0.5112
H107 H 0.0172 -0.0601 0.4361
C77 C 0.0156(2) -0.1692(2) 0.4485(2)
H108 H 0.0565 -0.2026 0.4524
H109 H -0.0307 -0.2060 0.3948
C78 C -0.0217(2) -0.1531(2) 0.5142(2)
H110 H -0.0560 -0.1126 0.5154
H111 H -0.0605 -0.2096 0.4996
C79 C 0.0441(3) -0.1147(3) 0.5986(2)
H112 H 0.0811 -0.1528 0.5967
H113 H 0.0801 -0.0561 0.6150
C80 C 0.0067(3) -0.1051(3) 0.6619(2)
H114 H 0.0527 -0.0804 0.7143
H115 H -0.0282 -0.1628 0.6469
H116 H -0.0285 -0.0657 0.6657
C103? C -0.0432(8) 0.3155(7) 0.3196(8)
C104? C -0.1179(7) 0.3449(7) 0.3444(6)
C105? C -0.1412(6) 0.3163(7) 0.3988(6)
C106? C -0.0706(10) 0.3641(10) 0.4861(9)
H156? H 0.0094 0.3459 0.3685
H157? H -0.0552 0.2516 0.2991
H158? H -0.1023 0.4098 0.3718
H159? H -0.1686 0.3211 0.2946
H160? H -0.1513 0.2521 0.3742
H161? H -0.1949 0.3284 0.4034
H162? H -0.0883 0.3417 0.5187
H163? H -0.0624 0.4275 0.5118
H164? H -0.0172 0.3526 0.4819
loop_
_geom_bond_atom_site_label_1
_geom_bond_atom_site_label_2
_geom_bond_site_symmetry_1
_geom_bond_site_symmetry_2
O1 C3 1_555 1_555
O2 C12 1_555 1_555
O3 C16 1_555 1_555
O4 C25 1_555 1_555
O5 C29 1_555 1_555
O6 C38 1_555 1_555
O7 C42 1_555 1_555
O8 C1 1_555 1_555
O9 C7 1_555 1_555
O10 C20 1_555 1_555
O11 C33 1_555 1_555
O12 C46 1_555 1_555
N1 H1 1_555 1_555
N2 H2 1_555 1_555
N3 H3 1_555 1_555
N4 H4 1_555 1_555
C1 C2 1_555 1_555
C2 C3 1_555 1_555
C3 C4 1_555 1_555
C4 C5 1_555 1_555
C5 H5 1_555 1_555
C6 C1 1_555 1_555
C7 N1 1_555 1_555
C8 N1 1_555 1_555
C9 C8 1_555 1_555
H6 C9 1_555 1_555
H7 C9 1_555 1_555
H8 C9 1_555 1_555
C10 C8 1_555 1_555
H9 C10 1_555 1_555
H10 C10 1_555 1_555
H11 C10 1_555 1_555
C11 C8 1_555 1_555
H12 C11 1_555 1_555
H13 C11 1_555 1_555
H14 C11 1_555 1_555
C12 O1 1_555 1_555
H15 C12 1_555 1_555
H16 C12 1_555 1_555
C13 C4 1_555 1_555
H17 C13 1_555 1_555
C14 O2 1_555 1_555
C15 C14 1_555 1_555
C16 C15 1_555 1_555
C17 C16 1_555 1_555
C18 C17 1_555 1_555
H18 C18 1_555 1_555
C19 C13 1_555 1_555
C20 N2 1_555 1_555
C21 N2 1_555 1_555
C22 C21 1_555 1_555
H19 C22 1_555 1_555
H20 C22 1_555 1_555
H21 C22 1_555 1_555
C23 C21 1_555 1_555
H22 C23 1_555 1_555
H23 C23 1_555 1_555
H24 C23 1_555 1_555
C24 C21 1_555 1_555
H25 C24 1_555 1_555
H26 C24 1_555 1_555
H27 C24 1_555 1_555
C25 O3 1_555 1_555
H28 C25 1_555 1_555
H29 C25 1_555 1_555
C26 C17 1_555 1_555
H30 C26 1_555 1_555
C27 O4 1_555 1_555
C28 C27 1_555 1_555
C29 C28 1_555 1_555
C30 C29 1_555 1_555
C31 C30 1_555 1_555
H31 C31 1_555 1_555
C32 C26 1_555 1_555
C33 N3 1_555 1_555
C34 N3 1_555 1_555
C35 C34 1_555 1_555
H32 C35 1_555 1_555
H33 C35 1_555 1_555
H34 C35 1_555 1_555
C36 C34 1_555 1_555
H35 C36 1_555 1_555
H36 C36 1_555 1_555
H37 C36 1_555 1_555
C37 C34 1_555 1_555
H38 C37 1_555 1_555
H39 C37 1_555 1_555
H40 C37 1_555 1_555
C38 O5 1_555 1_555
H41 C38 1_555 1_555
H42 C38 1_555 1_555
C39 C30 1_555 1_555
H43 C39 1_555 1_555
C40 O6 1_555 1_555
C41 C40 1_555 1_555
C42 C41 1_555 1_555
C43 C42 1_555 1_555
C44 C43 1_555 1_555
H44 C44 1_555 1_555
C45 C39 1_555 1_555
C46 N4 1_555 1_555
C47 N4 1_555 1_555
C48 C47 1_555 1_555
H45 C48 1_555 1_555
H46 C48 1_555 1_555
H47 C48 1_555 1_555
C49 C47 1_555 1_555
H48 C49 1_555 1_555
H49 C49 1_555 1_555
H50 C49 1_555 1_555
C50 C47 1_555 1_555
H51 C50 1_555 1_555
H52 C50 1_555 1_555
H53 C50 1_555 1_555
C51 O7 1_555 1_555
H54 C51 1_555 1_555
H55 C51 1_555 1_555
C52 C6 1_555 1_555
H56 C52 1_555 1_555
C53 C13 1_555 1_555
H57 C53 1_555 1_555
H58 C53 1_555 1_555
C54 C53 1_555 1_555
H59 C54 1_555 1_555
H60 C54 1_555 1_555
C55 C54 1_555 1_555
H61 C55 1_555 1_555
H62 C55 1_555 1_555
C56 C55 1_555 1_555
H63 C56 1_555 1_555
H64 C56 1_555 1_555
C57 C56 1_555 1_555
H65 C57 1_555 1_555
H66 C57 1_555 1_555
C58 C57 1_555 1_555
H67 C58 1_555 1_555
H68 C58 1_555 1_555
C59 C58 1_555 1_555
H69 C59 1_555 1_555
H70 C59 1_555 1_555
H71 C59 1_555 1_555
C60 C26 1_555 1_555
H72 C60 1_555 1_555
H73 C60 1_555 1_555
C61 C60 1_555 1_555
H74 C61 1_555 1_555
H75 C61 1_555 1_555
C62 C61 1_555 1_555
H76 C62 1_555 1_555
H77 C62 1_555 1_555
C63 C62 1_555 1_555
H78 C63 1_555 1_555
H79 C63 1_555 1_555
C64 C63 1_555 1_555
H80 C64 1_555 1_555
H81 C64 1_555 1_555
C65 C64 1_555 1_555
H82 C65 1_555 1_555
H83 C65 1_555 1_555
C66 C65 1_555 1_555
H84 C66 1_555 1_555
H85 C66 1_555 1_555
H86 C66 1_555 1_555
C67 C39 1_555 1_555
H87 C67 1_555 1_555
H88 C67 1_555 1_555
C68 C67 1_555 1_555
H89 C68 1_555 1_555
H90 C68 1_555 1_555
C69 C68 1_555 1_555
H91 C69 1_555 1_555
H92 C69 1_555 1_555
C70 C69 1_555 1_555
H93 C70 1_555 1_555
H94 C70 1_555 1_555
C71 C70 1_555 1_555
H95 C71 1_555 1_555
H96 C71 1_555 1_555
C72 C71 1_555 1_555
H97 C72 1_555 1_555
H98 C72 1_555 1_555
C73 C72 1_555 1_555
H99 C73 1_555 1_555
H100 C73 1_555 1_555
H101 C73 1_555 1_555
C74 C52 1_555 1_555
H102 C74 1_555 1_555
H103 C74 1_555 1_555
C75 C74 1_555 1_555
H104 C75 1_555 1_555
H105 C75 1_555 1_555
C76 C75 1_555 1_555
H106 C76 1_555 1_555
H107 C76 1_555 1_555
C77 C76 1_555 1_555
H108 C77 1_555 1_555
H109 C77 1_555 1_555
C78 C77 1_555 1_555
H110 C78 1_555 1_555
H111 C78 1_555 1_555
C79 C78 1_555 1_555
H112 C79 1_555 1_555
H113 C79 1_555 1_555
C80 C79 1_555 1_555
H114 C80 1_555 1_555
H115 C80 1_555 1_555
H116 C80 1_555 1_555
N5 C81 1_555 1_555
C81 H117 1_555 1_555
H118 C81 1_555 1_555
C82 C81 1_555 1_555
H119 C82 1_555 1_555
H120 C82 1_555 1_555
C83 C82 1_555 1_555
H121 C83 1_555 1_555
H122 C83 1_555 1_555
C84 C83 1_555 1_555
H123 C84 1_555 1_555
H124 C84 1_555 1_555
H125 C84 1_555 1_555
C85 N5 1_555 1_555
H126 C85 1_555 1_555
H127 C85 1_555 1_555
C86 C85 1_555 1_555
H128 C86 1_555 1_555
H129 C86 1_555 1_555
C87 C86 1_555 1_555
H130 C87 1_555 1_555
H131 C87 1_555 1_555
C88 C87 1_555 1_555
H132 C88 1_555 1_555
H133 C88 1_555 1_555
H134 C88 1_555 1_555
C89 N5 1_555 1_555
H135 C89 1_555 1_555
H136 C89 1_555 1_555
C90 C89 1_555 1_555
H137 C90 1_555 1_555
H138 C90 1_555 1_555
C91 C90 1_555 1_555
H139 C91 1_555 1_555
H140 C91 1_555 1_555
C92 C91 1_555 1_555
H141 C92 1_555 1_555
H142 C92 1_555 1_555
H143 C92 1_555 1_555
C93 N5 1_555 1_555
H144 C93 1_555 1_555
H145 C93 1_555 1_555
C94 C93 1_555 1_555
H146 C94 1_555 1_555
H147 C94 1_555 1_555
C95 C94 1_555 1_555
H148 C95 1_555 1_555
H149 C95 1_555 1_555
C96 C95 1_555 1_555
H150 C96 1_555 1_555
H151 C96 1_555 1_555
H152 C96 1_555 1_555
S1 O13 1_555 1_555
O14 S1 1_555 1_555
O15 S1 1_555 1_555
C97 S1 1_555 1_555
H153 C97 1_555 1_555
H154 C97 1_555 1_555
H155 C97 1_555 1_555
C98 C99 1_555 1_555
C99 C100 1_555 1_555
C100 C102 1_555 1_555
C101 C98 1_555 1_555
C102 C98 1_555 1_555
C98A C102 1_555 1_555
C99A C98A 1_555 1_555
C100A C101 1_555 1_555
C101A C100 1_555 1_555
C102A C98 1_555 1_555
O8 C51 1_555 1_555
C2 C7 1_555 1_555
C5 C6 1_555 1_555
C14 C19 1_555 1_555
C15 C20 1_555 1_555
C18 C19 1_555 1_555
C27 C32 1_555 1_555
C28 C33 1_555 1_555
C31 C32 1_555 1_555
C40 C45 1_555 1_555
C41 C46 1_555 1_555
C43 C52 1_555 1_555
C44 C45 1_555 1_555
C99 C102 1_555 1_555
C101 C102A 1_555 1_555
C102 C101A 1_555 1_555
C102 C102A 1_555 1_555
C98A C101A 1_555 1_555
C98A C102A 1_555 1_555
C99A C100A 1_555 1_555
C99A C102A 1_555 1_555
C100A C102A 1_555 1_555

#END
