
#######################################################################
#
#                 Cambridge Crystallographic Data Centre
#                                CCDC 
#
#######################################################################
#
# If this CIF has been generated from an entry in the Cambridge 
# Structural Database, then it will include bibliographic, chemical, 
# crystal, experimental, refinement or atomic coordinate data resulting 
# from the CCDC's data processing and validation procedures.
#
#######################################################################

data_HUXKER
_chemical_formula_moiety         'C16 H18 F3 N1 O4'
_chemical_name_systematic        
'Ethyl 2-hydroxy-4-(4-methylphenyl)-6-oxo-2-(trifluoromethyl)piperidine-3-carboxylate'
_symmetry_cell_setting           monoclinic
_symmetry_space_group_name_H-M   'P 21/n'
_symmetry_Int_Tables_number      14
_space_group_name_Hall           '-P 2yn'
loop_
_symmetry_equiv_pos_site_id
_symmetry_equiv_pos_as_xyz
1 x,y,z
2 1/2-x,1/2+y,1/2-z
3 -x,-y,-z
4 1/2+x,1/2-y,1/2+z
_cell_length_a                   7.1958(2)
_cell_length_b                   20.9310(6)
_cell_length_c                   10.5732(3)
_cell_angle_alpha                90
_cell_angle_beta                 93.9880(10)
_cell_angle_gamma                90
_cell_volume                     1588.63
_exptl_crystal_colour            colorless
_exptl_crystal_description       block
_cell_formula_units_Z            4
loop_
_atom_site_label
_atom_site_type_symbol
_atom_site_fract_x
_atom_site_fract_y
_atom_site_fract_z
F1 F 0.82613(19) 0.05620(6) 0.29671(12)
F2 F 0.88243(16) -0.03815(6) 0.37047(12)
F3 F 0.62030(15) 0.00670(5) 0.39711(10)
N1 N 0.8153(2) -0.03342(7) 0.10455(14)
H1 H 0.8935 -0.0010 0.1059
O1 O 0.53418(19) 0.01542(6) 0.14022(12)
H2 H 0.4276 0.0042 0.1593
O2 O 0.9696(2) -0.07700(6) -0.05192(13)
O3 O 0.27414(18) -0.05669(7) 0.24222(15)
O4 O 0.39803(16) -0.13117(6) 0.37449(11)
C1 C 0.5347(2) -0.24308(8) 0.18564(17)
H3 H 0.6525 -0.2351 0.2290
C2 C 0.4471(3) -0.30136(8) 0.20202(17)
H4 H 0.5048 -0.3324 0.2572
C3 C 0.2758(3) -0.31465(8) 0.13836(17)
C4 C 0.1945(3) -0.26779(9) 0.05945(17)
H5 H 0.0776 -0.2760 0.0151
C5 C 0.2811(2) -0.20919(8) 0.04424(17)
H6 H 0.2221 -0.1777 -0.0094
C6 C 0.4529(2) -0.19628(8) 0.10677(16)
C7 C 0.5477(2) -0.13242(8) 0.08845(16)
H7 H 0.4649 -0.1058 0.0296
C8 C 0.7340(3) -0.14112(8) 0.02966(17)
H8 H 0.8080 -0.1735 0.0795
H9 H 0.7100 -0.1581 -0.0573
C9 C 0.8478(3) -0.08112(8) 0.02347(17)
C10 C 0.6673(2) -0.02930(8) 0.18929(16)
C11 C 0.5834(2) -0.09571(8) 0.21409(16)
H10 H 0.6749 -0.1204 0.2703
C12 C 0.4019(2) -0.09107(8) 0.27845(17)
C13 C 0.2210(2) -0.13723(10) 0.43358(18)
H11 H 0.1633 -0.0945 0.4402
H12 H 0.2439 -0.1546 0.5203
C14 C 0.0910(3) -0.18051(11) 0.3573(2)
H13 H -0.0267 -0.1839 0.3982
H14 H 0.1474 -0.2230 0.3521
H15 H 0.0672 -0.1630 0.2718
C15 C 0.7507(2) -0.00083(9) 0.31426(18)
C16 C 0.1819(3) -0.37831(10) 0.1554(2)
H16 H 0.0633 -0.3794 0.1040
H17 H 0.1589 -0.3842 0.2449
H18 H 0.2628 -0.4127 0.1284
loop_
_geom_bond_atom_site_label_1
_geom_bond_atom_site_label_2
_geom_bond_site_symmetry_1
_geom_bond_site_symmetry_2
F1 C15 1_555 1_555
F2 C15 1_555 1_555
F3 C15 1_555 1_555
N1 H1 1_555 1_555
O1 H2 1_555 1_555
O2 C9 1_555 1_555
O3 C12 1_555 1_555
O4 C12 1_555 1_555
C1 H3 1_555 1_555
C2 C1 1_555 1_555
H4 C2 1_555 1_555
C3 C2 1_555 1_555
C4 C3 1_555 1_555
H5 C4 1_555 1_555
C5 C4 1_555 1_555
H6 C5 1_555 1_555
C6 C1 1_555 1_555
C7 C6 1_555 1_555
H7 C7 1_555 1_555
C8 C7 1_555 1_555
H8 C8 1_555 1_555
H9 C8 1_555 1_555
C9 N1 1_555 1_555
C10 N1 1_555 1_555
C11 C7 1_555 1_555
H10 C11 1_555 1_555
C12 C11 1_555 1_555
C13 O4 1_555 1_555
H11 C13 1_555 1_555
H12 C13 1_555 1_555
C14 C13 1_555 1_555
H13 C14 1_555 1_555
H14 C14 1_555 1_555
H15 C14 1_555 1_555
C15 C10 1_555 1_555
C16 C3 1_555 1_555
H16 C16 1_555 1_555
H17 C16 1_555 1_555
H18 C16 1_555 1_555
O1 C10 1_555 1_555
C5 C6 1_555 1_555
C8 C9 1_555 1_555
C10 C11 1_555 1_555

#END
