
#######################################################################
#
#                 Cambridge Crystallographic Data Centre
#                                CCDC 
#
#######################################################################
#
# If this CIF has been generated from an entry in the Cambridge 
# Structural Database, then it will include bibliographic, chemical, 
# crystal, experimental, refinement or atomic coordinate data resulting 
# from the CCDC's data processing and validation procedures.
#
#######################################################################

data_HUXXEF
_chemical_formula_moiety         'C41 H41 B1 N4,C1 H2 Cl2'
_chemical_name_systematic        
'3-(1H-benzo[d]imidazol-1-yl)-6,6-dimesityl-2,7-dimethyl-6,7-dihydro-5H-benzo[e]benzo[4,5]imidazo[1,2-a][1,3]azaborinin-12-ium-6-uide dichloromethane solvate'
_symmetry_cell_setting           monoclinic
_symmetry_space_group_name_H-M   'P 21/c'
_symmetry_Int_Tables_number      14
_space_group_name_Hall           '-P 2ybc'
loop_
_symmetry_equiv_pos_site_id
_symmetry_equiv_pos_as_xyz
1 x,y,z
2 -x,1/2+y,1/2-z
3 -x,-y,-z
4 x,1/2-y,1/2+z
_cell_length_a                   7.9975(5)
_cell_length_b                   30.5017(19)
_cell_length_c                   14.9235(7)
_cell_angle_alpha                90
_cell_angle_beta                 92.268(3)
_cell_angle_gamma                90
_cell_volume                     3637.55
_exptl_crystal_colour            colorless
_exptl_crystal_description       needle
_cell_formula_units_Z            4
loop_
_atom_site_label
_atom_site_type_symbol
_atom_site_fract_x
_atom_site_fract_y
_atom_site_fract_z
B1 B 0.1386(5) 0.69672(13) 0.7843(3)
N1 N 0.2853(3) 0.64346(9) 0.8999(2)
N2 N 0.4344(3) 0.70229(9) 0.8839(2)
N3 N -0.4961(4) 0.49352(10) 0.8793(2)
N4 N -0.2704(4) 0.53311(9) 0.8475(2)
C1 C 0.2934(4) 0.68197(11) 0.8529(2)
C2 C -0.0146(4) 0.68210(11) 0.8536(3)
H1 H 0.0024 0.6970 0.9122
H2 H -0.1251 0.6909 0.8273
C3 C 0.5146(4) 0.67779(11) 0.9521(2)
C4 C 0.6542(5) 0.68704(12) 1.0058(3)
H3 H 0.7162 0.7133 0.9989
C5 C 0.6994(5) 0.65632(13) 1.0699(3)
H4 H 0.7945 0.6615 1.1087
C6 C 0.6073(5) 0.61773(13) 1.0789(3)
H5 H 0.6425 0.5971 1.1234
C7 C 0.4677(5) 0.60857(12) 1.0254(3)
H6 H 0.4058 0.5823 1.0320
C8 C 0.4219(4) 0.63982(11) 0.9613(2)
C9 C -0.0086(4) 0.63337(11) 0.8661(2)
C10 C 0.1458(4) 0.61403(11) 0.8873(2)
C11 C 0.1675(4) 0.56920(11) 0.8922(2)
H7 H 0.2758 0.5574 0.9049
C12 C 0.0306(5) 0.54095(11) 0.8787(2)
C13 C -0.1240(4) 0.56060(11) 0.8611(2)
C14 C -0.1438(4) 0.60547(11) 0.8541(2)
H8 H -0.2518 0.6173 0.8408
C15 C 0.0520(5) 0.49204(11) 0.8791(3)
H9 H -0.0153 0.4792 0.9259
H10 H 0.1702 0.4848 0.8910
H11 H 0.0151 0.4802 0.8206
C16 C -0.3718(5) 0.51739(12) 0.9115(3)
H12 H -0.3539 0.5232 0.9737
C17 C -0.3331(5) 0.51724(12) 0.7663(3)
C18 C -0.2787(6) 0.52216(15) 0.6803(3)
H13 H -0.1831 0.5392 0.6676
C19 C -0.3723(7) 0.50073(18) 0.6139(3)
H14 H -0.3386 0.5023 0.5536
C20 C -0.5153(7) 0.47675(17) 0.6333(4)
H15 H -0.5769 0.4628 0.5856
C21 C -0.5699(6) 0.47272(14) 0.7193(3)
H16 H -0.6683 0.4567 0.7315
C22 C -0.4752(5) 0.49301(12) 0.7873(3)
C23 C 0.5022(5) 0.74422(12) 0.8539(3)
H17 H 0.4372 0.7544 0.8009
H18 H 0.6193 0.7403 0.8387
H19 H 0.4953 0.7659 0.9020
C24 C 0.1112(4) 0.66305(11) 0.6972(2)
C25 C 0.2211(5) 0.62879(12) 0.6729(3)
C26 C 0.1724(5) 0.59866(13) 0.6054(3)
H20 H 0.2473 0.5757 0.5917
C27 C 0.0211(6) 0.60104(13) 0.5584(3)
C28 C -0.0830(5) 0.63569(13) 0.5795(3)
H21 H -0.1868 0.6387 0.5469
C29 C -0.0418(5) 0.66619(12) 0.6464(3)
C30 C -0.1671(5) 0.70286(14) 0.6556(3)
H22 H -0.1995 0.7143 0.5960
H23 H -0.1167 0.7264 0.6923
H24 H -0.2665 0.6916 0.6844
C31 C -0.0241(6) 0.56867(15) 0.4845(3)
H25 H -0.0390 0.5395 0.5106
H26 H 0.0659 0.5677 0.4419
H27 H -0.1283 0.5779 0.4533
C32 C 0.3982(5) 0.62333(12) 0.7101(3)
H28 H 0.4675 0.6107 0.6640
H29 H 0.3987 0.6038 0.7623
H30 H 0.4434 0.6520 0.7283
C33 C 0.1440(4) 0.74935(11) 0.7571(2)
C34 C 0.0786(4) 0.78321(11) 0.8098(3)
C35 C 0.0662(5) 0.82633(12) 0.7763(3)
H31 H 0.0212 0.8483 0.8134
C36 C 0.1162(5) 0.83814(13) 0.6924(3)
C37 C 0.1925(5) 0.80585(13) 0.6438(3)
H32 H 0.2351 0.8133 0.5873
C38 C 0.2098(4) 0.76280(12) 0.6741(3)
C39 C 0.3124(5) 0.73302(13) 0.6164(3)
H33 H 0.3783 0.7508 0.5760
H34 H 0.2374 0.7137 0.5809
H35 H 0.3878 0.7152 0.6549
C40 C 0.0271(5) 0.77749(12) 0.9055(3)
H36 H 0.1077 0.7584 0.9377
H37 H -0.0844 0.7642 0.9058
H38 H 0.0248 0.8062 0.9351
C41 C 0.0976(6) 0.88474(13) 0.6601(4)
H39 H 0.0098 0.8994 0.6930
H40 H 0.0671 0.8848 0.5958
H41 H 0.2037 0.9003 0.6704
Cl1 Cl 0.32781(14) 0.34966(4) 0.67905(9)
Cl2 Cl 0.5983(2) 0.36119(5) 0.55766(11)
C42 C 0.5407(5) 0.36123(15) 0.6694(3)
H42 H 0.5657 0.3903 0.6962
H43 H 0.6078 0.3391 0.7034
loop_
_geom_bond_atom_site_label_1
_geom_bond_atom_site_label_2
_geom_bond_site_symmetry_1
_geom_bond_site_symmetry_2
B1 C1 1_555 1_555
N1 C1 1_555 1_555
N2 C1 1_555 1_555
N3 C16 1_555 1_555
N4 C13 1_555 1_555
C2 B1 1_555 1_555
H1 C2 1_555 1_555
H2 C2 1_555 1_555
C3 N2 1_555 1_555
C4 C3 1_555 1_555
H3 C4 1_555 1_555
C5 C4 1_555 1_555
H4 C5 1_555 1_555
C6 C5 1_555 1_555
H5 C6 1_555 1_555
C7 C6 1_555 1_555
H6 C7 1_555 1_555
C8 N1 1_555 1_555
C9 C2 1_555 1_555
C10 N1 1_555 1_555
C11 C10 1_555 1_555
H7 C11 1_555 1_555
C12 C11 1_555 1_555
C13 C12 1_555 1_555
C14 C9 1_555 1_555
H8 C14 1_555 1_555
C15 C12 1_555 1_555
H9 C15 1_555 1_555
H10 C15 1_555 1_555
H11 C15 1_555 1_555
C16 N4 1_555 1_555
H12 C16 1_555 1_555
C17 N4 1_555 1_555
C18 C17 1_555 1_555
H13 C18 1_555 1_555
C19 C18 1_555 1_555
H14 C19 1_555 1_555
C20 C19 1_555 1_555
H15 C20 1_555 1_555
C21 C20 1_555 1_555
H16 C21 1_555 1_555
C22 N3 1_555 1_555
C23 N2 1_555 1_555
H17 C23 1_555 1_555
H18 C23 1_555 1_555
H19 C23 1_555 1_555
C24 B1 1_555 1_555
C25 C24 1_555 1_555
C26 C25 1_555 1_555
H20 C26 1_555 1_555
C27 C26 1_555 1_555
C28 C27 1_555 1_555
H21 C28 1_555 1_555
C29 C24 1_555 1_555
C30 C29 1_555 1_555
H22 C30 1_555 1_555
H23 C30 1_555 1_555
H24 C30 1_555 1_555
C31 C27 1_555 1_555
H25 C31 1_555 1_555
H26 C31 1_555 1_555
H27 C31 1_555 1_555
C32 C25 1_555 1_555
H28 C32 1_555 1_555
H29 C32 1_555 1_555
H30 C32 1_555 1_555
C33 B1 1_555 1_555
C34 C33 1_555 1_555
C35 C34 1_555 1_555
H31 C35 1_555 1_555
C36 C35 1_555 1_555
C37 C36 1_555 1_555
H32 C37 1_555 1_555
C38 C33 1_555 1_555
C39 C38 1_555 1_555
H33 C39 1_555 1_555
H34 C39 1_555 1_555
H35 C39 1_555 1_555
C40 C34 1_555 1_555
H36 C40 1_555 1_555
H37 C40 1_555 1_555
H38 C40 1_555 1_555
C41 C36 1_555 1_555
H39 C41 1_555 1_555
H40 C41 1_555 1_555
H41 C41 1_555 1_555
Cl1 C42 1_555 1_555
Cl2 C42 1_555 1_555
C42 H42 1_555 1_555
H43 C42 1_555 1_555
C3 C8 1_555 1_555
C7 C8 1_555 1_555
C9 C10 1_555 1_555
C13 C14 1_555 1_555
C17 C22 1_555 1_555
C21 C22 1_555 1_555
C28 C29 1_555 1_555
C37 C38 1_555 1_555

#END
