
#######################################################################
#
#                 Cambridge Crystallographic Data Centre
#                                CCDC 
#
#######################################################################
#
# If this CIF has been generated from an entry in the Cambridge 
# Structural Database, then it will include bibliographic, chemical, 
# crystal, experimental, refinement or atomic coordinate data resulting 
# from the CCDC's data processing and validation procedures.
#
#######################################################################

data_HUXXOO
_chemical_formula_moiety         'C24 H25 Br1 N2 O6 S1'
_chemical_name_systematic        
'Dimethyl 2-(4-bromophenyl)-4-methyl-3-(((4-methylphenyl)sulfonyl)carbohydrazonoyl)cyclopent-3-ene-1,1-dicarboxylate'
_symmetry_cell_setting           monoclinic
_symmetry_space_group_name_H-M   'P 21'
_symmetry_Int_Tables_number      4
_space_group_name_Hall           'P 2yb'
loop_
_symmetry_equiv_pos_site_id
_symmetry_equiv_pos_as_xyz
1 x,y,z
2 -x,1/2+y,-z
_cell_length_a                   10.5697(4)
_cell_length_b                   6.1702(3)
_cell_length_c                   20.1938(8)
_cell_angle_alpha                90
_cell_angle_beta                 102.992(2)
_cell_angle_gamma                90
_cell_volume                     1283.27
_exptl_crystal_colour            colorless
_exptl_crystal_description       prism
_cell_formula_units_Z            2
loop_
_atom_site_label
_atom_site_type_symbol
_atom_site_fract_x
_atom_site_fract_y
_atom_site_fract_z
Br1 Br 0.71536(3) 0.55299(11) 0.777420(18)
S1 S 0.13813(7) 0.96173(9) 0.57329(3)
N1 N 0.0753(2) 0.7236(4) 0.66427(10)
N2 N 0.0390(2) 0.7941(4) 0.59703(11)
H1 H 0.003(4) 0.708(6) 0.5717(19)
O1 O 0.3045(2) 0.2804(4) 0.93434(13)
O2 O 0.2630(2) 0.6236(4) 0.95683(11)
O3 O -0.0198(2) 0.7700(3) 0.87786(11)
O4 O -0.0318(2) 0.4730(3) 0.93911(10)
O5 O 0.0843(2) 0.9860(4) 0.50132(10)
O6 O 0.1542(2) 1.1482(3) 0.61605(12)
C1 C 0.3658(3) 0.7410(5) 0.81840(15)
H2 H 0.3338 0.8643 0.8376
C2 C 0.4949(3) 0.7361(6) 0.81292(17)
H3 H 0.5507 0.8557 0.8279
C3 C 0.5402(2) 0.5579(7) 0.78587(13)
C4 C 0.4612(3) 0.3822(6) 0.76335(17)
H4 H 0.4945 0.2589 0.7448
C5 C 0.3312(3) 0.3887(5) 0.76832(16)
H5 H 0.2757 0.2695 0.7526
C6 C 0.2830(2) 0.5671(4) 0.79598(11)
C7 C 0.1427(2) 0.5776(4) 0.80257(11)
H6 H 0.1160 0.7329 0.8034
C8 C 0.1151(2) 0.4588(4) 0.86680(11)
C9 C 0.0583(3) 0.2373(4) 0.83977(13)
H7 H 0.1270 0.1251 0.8461
H8 H -0.0100 0.1903 0.8631
C10 C 0.0027(2) 0.2779(4) 0.76583(13)
C11 C 0.0493(2) 0.4618(4) 0.74564(12)
C12 C 0.2380(3) 0.4383(4) 0.92273(13)
C13 C 0.3829(4) 0.6274(9) 1.0092(2)
H9 H 0.3807 0.5120 1.0422
H10 H 0.3916 0.7680 1.0323
H11 H 0.4569 0.6046 0.9882
C14 C 0.0147(2) 0.5899(4) 0.89383(11)
C15 C -0.1286(3) 0.5746(5) 0.96856(14)
H12 H -0.0980 0.7180 0.9860
H13 H -0.1445 0.4850 1.0059
H14 H -0.2094 0.5901 0.9338
C16 C -0.0874(3) 0.1168(4) 0.72453(16)
H15 H -0.1156 0.1697 0.6778
H16 H -0.1634 0.0971 0.7442
H17 H -0.0425 -0.0221 0.7245
C17 C 0.0233(2) 0.5452(4) 0.67636(11)
H18 H -0.0317 0.4675 0.6405
C18 C 0.2883(3) 0.8305(5) 0.58265(14)
C19 C 0.2932(5) 0.6278(6) 0.5533(2)
H19 H 0.2159 0.5538 0.5320
C20 C 0.4137(5) 0.5372(9) 0.5559(2)
H20 H 0.4187 0.3996 0.5356
C21 C 0.5274(5) 0.6414(11) 0.5875(2)
C22 C 0.5186(4) 0.8335(12) 0.6171(2)
H21 H 0.5961 0.9041 0.6399
C23 C 0.4000(4) 0.9330(7) 0.61556(19)
H22 H 0.3963 1.0693 0.6369
C24 C 0.6547(14) 0.520(5) 0.5880(5)
H23 H 0.7252 0.5834 0.6224
H24 H 0.6753 0.5312 0.5432
H25 H 0.6446 0.3666 0.5988
C25? C 0.673(2) 0.633(10) 0.587(3)
H26? H 0.6918 0.4965 0.5663
H27? H 0.7244 0.6412 0.6338
H28? H 0.6946 0.7551 0.5607
loop_
_geom_bond_atom_site_label_1
_geom_bond_atom_site_label_2
_geom_bond_site_symmetry_1
_geom_bond_site_symmetry_2
Br1 C3 1_555 1_555
S1 N2 1_555 1_555
N1 N2 1_555 1_555
N2 H1 1_555 1_555
O1 C12 1_555 1_555
O2 C12 1_555 1_555
O3 C14 1_555 1_555
O4 C14 1_555 1_555
O5 S1 1_555 1_555
O6 S1 1_555 1_555
C1 H2 1_555 1_555
C2 C1 1_555 1_555
H3 C2 1_555 1_555
C3 C2 1_555 1_555
C4 C3 1_555 1_555
H4 C4 1_555 1_555
C5 C4 1_555 1_555
H5 C5 1_555 1_555
C6 C1 1_555 1_555
C7 C6 1_555 1_555
H6 C7 1_555 1_555
C8 C7 1_555 1_555
C9 C8 1_555 1_555
H7 C9 1_555 1_555
H8 C9 1_555 1_555
C10 C9 1_555 1_555
C11 C7 1_555 1_555
C12 C8 1_555 1_555
C13 O2 1_555 1_555
H9 C13 1_555 1_555
H10 C13 1_555 1_555
H11 C13 1_555 1_555
C14 C8 1_555 1_555
C15 O4 1_555 1_555
H12 C15 1_555 1_555
H13 C15 1_555 1_555
H14 C15 1_555 1_555
C16 C10 1_555 1_555
H15 C16 1_555 1_555
H16 C16 1_555 1_555
H17 C16 1_555 1_555
C17 N1 1_555 1_555
H18 C17 1_555 1_555
C18 S1 1_555 1_555
C19 C18 1_555 1_555
H19 C19 1_555 1_555
C20 C19 1_555 1_555
H20 C20 1_555 1_555
C21 C20 1_555 1_555
C22 C21 1_555 1_555
H21 C22 1_555 1_555
C23 C18 1_555 1_555
H22 C23 1_555 1_555
C24 C21 1_555 1_555
H23 C24 1_555 1_555
H24 C24 1_555 1_555
H25 C24 1_555 1_555
C5 C6 1_555 1_555
C10 C11 1_555 1_555
C11 C17 1_555 1_555
C22 C23 1_555 1_555

#END
