
#######################################################################
#
#                 Cambridge Crystallographic Data Centre
#                                CCDC 
#
#######################################################################
#
# If this CIF has been generated from an entry in the Cambridge 
# Structural Database, then it will include bibliographic, chemical, 
# crystal, experimental, refinement or atomic coordinate data resulting 
# from the CCDC's data processing and validation procedures.
#
#######################################################################

data_HUXXUU
_chemical_formula_moiety         'C16 H15 Cl1 O5 S2'
_chemical_name_systematic        
3-(4-Chlorophenyl)-3-(1,1,3,3-tetraoxo-1,3-benzodithiol-2-yl)propan-1-ol
_symmetry_cell_setting           monoclinic
_symmetry_space_group_name_H-M   'P 21'
_symmetry_Int_Tables_number      4
_space_group_name_Hall           'P 2yb'
loop_
_symmetry_equiv_pos_site_id
_symmetry_equiv_pos_as_xyz
1 x,y,z
2 -x,1/2+y,-z
_cell_length_a                   7.8439(2)
_cell_length_b                   20.1047(6)
_cell_length_c                   11.0496(3)
_cell_angle_alpha                90
_cell_angle_beta                 105.1850(10)
_cell_angle_gamma                90
_cell_volume                     1681.67
_exptl_crystal_colour            colorless
_exptl_crystal_description       prism
_cell_formula_units_Z            4
loop_
_atom_site_label
_atom_site_type_symbol
_atom_site_fract_x
_atom_site_fract_y
_atom_site_fract_z
Cl1 Cl 0.29460(8) 0.23958(3) 0.10993(4)
S1 S 0.58907(4) 0.316826(15) 0.73636(3)
S2 S 0.35998(4) 0.395165(16) 0.84691(3)
O1 O 0.53285(16) 0.24995(5) 0.74878(12)
O2 O 0.69888(15) 0.32961(7) 0.65323(11)
O3 O 0.24520(15) 0.34713(7) 0.87977(11)
O4 O 0.31218(16) 0.46444(6) 0.84330(10)
O5 O -0.19552(14) 0.43138(6) 0.44050(10)
H1 H -0.1527 0.4666 0.4171
C1 C 0.68911(16) 0.35087(6) 0.88499(12)
C2 C 0.86888(17) 0.34470(7) 0.94344(14)
H2 H 0.9454 0.3211 0.9048
C3 C 0.9319(2) 0.37428(7) 1.05978(15)
H3 H 1.0540 0.3712 1.1015
C4 C 0.8200(2) 0.40823(8) 1.11617(13)
H4 H 0.8665 0.4271 1.1969
C5 C 0.6403(2) 0.41550(7) 1.05730(13)
H5 H 0.5639 0.4393 1.0959
C6 C 0.57791(16) 0.38644(6) 0.93991(11)
C7 C 0.40028(16) 0.37228(6) 0.69775(11)
H6 H 0.4350 0.4133 0.6590
C8 C 0.23411(16) 0.34339(6) 0.60656(12)
H7 H 0.1858 0.3073 0.6504
C9 C 0.27105(15) 0.31460(6) 0.48918(11)
C10 C 0.20473(17) 0.25174(6) 0.44793(13)
H8 H 0.1537 0.2249 0.5000
C11 C 0.21285(19) 0.22819(6) 0.33146(13)
H9 H 0.1663 0.1857 0.3032
C12 C 0.2891(2) 0.26712(7) 0.25741(13)
C13 C 0.3601(2) 0.32889(7) 0.29753(13)
H10 H 0.4149 0.3548 0.2463
C14 C 0.35012(18) 0.35237(6) 0.41335(13)
H11 H 0.3979 0.3948 0.4413
C15 C 0.09409(17) 0.39919(7) 0.56971(13)
H12 H 0.0605 0.4140 0.6458
H13 H 0.1475 0.4376 0.5373
C16 C -0.07113(17) 0.37817(7) 0.47170(13)
H14 H -0.0387 0.3634 0.3952
H15 H -0.1262 0.3401 0.5039
Cl2 Cl 0.77938(7) 0.22326(3) 0.12292(5)
S3 S 1.00878(4) 0.106236(17) 0.71140(3)
S4 S 0.75507(4) 0.047460(16) 0.82789(3)
O6 O 1.04936(14) 0.05149(7) 0.63979(10)
O7 O 1.06091(16) 0.17173(7) 0.68607(12)
O8 O 0.73186(17) -0.01913(6) 0.77999(12)
O9 O 0.63002(15) 0.07359(8) 0.88993(11)
O10 O 0.39002(13) -0.00736(5) 0.41599(10)
H16 H 0.3302 -0.0262 0.4602
C17 C 1.09008(15) 0.08661(6) 0.87102(12)
C18 C 1.26559(17) 0.09550(8) 0.93697(14)
H17 H 1.3468 0.1179 0.9008
C19 C 1.3171(2) 0.07013(9) 1.05805(16)
H18 H 1.4368 0.0744 1.1049
C20 C 1.1977(2) 0.03866(8) 1.11226(13)
H19 H 1.2372 0.0217 1.1951
C21 C 1.0218(2) 0.03172(7) 1.04705(12)
H20 H 0.9394 0.0110 1.0844
C22 C 0.96981(16) 0.05612(6) 0.92522(11)
C23 C 0.77472(14) 0.10358(6) 0.70272(11)
H21 H 0.7348 0.1490 0.7201
C24 C 0.66275(15) 0.08010(6) 0.57362(11)
H22 H 0.6922 0.0323 0.5640
C25 C 0.70337(15) 0.11831(6) 0.46625(11)
C26 C 0.74272(19) 0.08314(6) 0.36878(13)
H23 H 0.7530 0.0361 0.3745
C27 C 0.76735(19) 0.11500(7) 0.26318(14)
H24 H 0.7936 0.0902 0.1971
C28 C 0.75305(18) 0.18343(7) 0.25582(13)
C29 C 0.7147(2) 0.22015(7) 0.35140(15)
H25 H 0.7055 0.2672 0.3453
C30 C 0.68967(18) 0.18740(6) 0.45651(13)
H26 H 0.6630 0.2124 0.5222
C31 C 0.46436(15) 0.08376(7) 0.56925(12)
H27 H 0.4414 0.0561 0.6374
H28 H 0.4327 0.1303 0.5832
C32 C 0.34965(17) 0.05951(6) 0.44349(12)
H29 H 0.2239 0.0621 0.4443
H30 H 0.3668 0.0893 0.3763
loop_
_geom_bond_atom_site_label_1
_geom_bond_atom_site_label_2
_geom_bond_site_symmetry_1
_geom_bond_site_symmetry_2
Cl1 C12 1_555 1_555
S1 O1 1_555 1_555
S2 O3 1_555 1_555
O2 S1 1_555 1_555
O4 S2 1_555 1_555
O5 H1 1_555 1_555
C1 S1 1_555 1_555
C2 C1 1_555 1_555
H2 C2 1_555 1_555
C3 C2 1_555 1_555
H3 C3 1_555 1_555
C4 C3 1_555 1_555
H4 C4 1_555 1_555
C5 C4 1_555 1_555
H5 C5 1_555 1_555
C6 S2 1_555 1_555
C7 S1 1_555 1_555
H6 C7 1_555 1_555
C8 C7 1_555 1_555
H7 C8 1_555 1_555
C9 C8 1_555 1_555
C10 C9 1_555 1_555
H8 C10 1_555 1_555
C11 C10 1_555 1_555
H9 C11 1_555 1_555
C12 C11 1_555 1_555
C13 C12 1_555 1_555
H10 C13 1_555 1_555
C14 C9 1_555 1_555
H11 C14 1_555 1_555
C15 C8 1_555 1_555
H12 C15 1_555 1_555
H13 C15 1_555 1_555
C16 O5 1_555 1_555
H14 C16 1_555 1_555
H15 C16 1_555 1_555
Cl2 C28 1_555 1_555
S3 O6 1_555 1_555
S4 O8 1_555 1_555
O7 S3 1_555 1_555
O9 S4 1_555 1_555
O10 H16 1_555 1_555
C17 S3 1_555 1_555
C18 C17 1_555 1_555
H17 C18 1_555 1_555
C19 C18 1_555 1_555
H18 C19 1_555 1_555
C20 C19 1_555 1_555
H19 C20 1_555 1_555
C21 C20 1_555 1_555
H20 C21 1_555 1_555
C22 S4 1_555 1_555
C23 S3 1_555 1_555
H21 C23 1_555 1_555
C24 C23 1_555 1_555
H22 C24 1_555 1_555
C25 C24 1_555 1_555
C26 C25 1_555 1_555
H23 C26 1_555 1_555
C27 C26 1_555 1_555
H24 C27 1_555 1_555
C28 C27 1_555 1_555
C29 C28 1_555 1_555
H25 C29 1_555 1_555
C30 C25 1_555 1_555
H26 C30 1_555 1_555
C31 C24 1_555 1_555
H27 C31 1_555 1_555
H28 C31 1_555 1_555
C32 O10 1_555 1_555
H29 C32 1_555 1_555
H30 C32 1_555 1_555
S2 C7 1_555 1_555
C1 C6 1_555 1_555
C5 C6 1_555 1_555
C13 C14 1_555 1_555
C15 C16 1_555 1_555
S4 C23 1_555 1_555
C17 C22 1_555 1_555
C21 C22 1_555 1_555
C29 C30 1_555 1_555
C31 C32 1_555 1_555

#END
