
#######################################################################
#
#                 Cambridge Crystallographic Data Centre
#                                CCDC 
#
#######################################################################
#
# If this CIF has been generated from an entry in the Cambridge 
# Structural Database, then it will include bibliographic, chemical, 
# crystal, experimental, refinement or atomic coordinate data resulting 
# from the CCDC's data processing and validation procedures.
#
#######################################################################

data_HUXXOP
_chemical_formula_moiety         'C41 H49 B1 N2'
_chemical_name_systematic        
3,4,4-trimesityl-1,2,7,9-tetramethyl-4,5-dihydro-3H-benzo[e]imidazo[1,2-a][1,3]azaborinin-10-ium-4-uide
_symmetry_cell_setting           monoclinic
_symmetry_space_group_name_H-M   'P 21/n'
_symmetry_Int_Tables_number      14
_space_group_name_Hall           '-P 2yn'
loop_
_symmetry_equiv_pos_site_id
_symmetry_equiv_pos_as_xyz
1 x,y,z
2 1/2-x,1/2+y,1/2-z
3 -x,-y,-z
4 1/2+x,1/2-y,1/2+z
_cell_length_a                   13.940(2)
_cell_length_b                   10.5549(16)
_cell_length_c                   23.468(4)
_cell_angle_alpha                90
_cell_angle_beta                 103.833(2)
_cell_angle_gamma                90
_cell_volume                     3352.82
_cell_formula_units_Z            4
loop_
_atom_site_label
_atom_site_type_symbol
_atom_site_fract_x
_atom_site_fract_y
_atom_site_fract_z
B1 B 0.5130(3) 0.8029(3) 0.20784(16)
N1 N 0.49120(17) 0.6144(2) 0.28775(11)
N2 N 0.46398(18) 0.5614(2) 0.19714(11)
C1 C 0.4811(2) 0.6653(3) 0.23305(13)
C2 C 0.5837(2) 0.7372(3) 0.16734(14)
H1 H 0.6188 0.8037 0.1505
H2 H 0.6334 0.6803 0.1919
C3 C 0.4692(2) 0.4480(3) 0.22855(14)
C4 C 0.4844(2) 0.4820(3) 0.28543(14)
C5 C 0.5170(2) 0.6637(3) 0.11935(14)
C6 C 0.4514(2) 0.5773(3) 0.13445(14)
C7 C 0.3737(2) 0.5222(3) 0.09383(14)
C8 C 0.3678(3) 0.5517(3) 0.03525(14)
H3 H 0.3163 0.5147 0.0061
C9 C 0.4331(3) 0.6322(3) 0.01752(15)
C10 C 0.5065(2) 0.6883(3) 0.06007(15)
H4 H 0.5510 0.7453 0.0485
C11 C 0.2949(3) 0.4399(3) 0.10885(15)
H5 H 0.2950 0.4514 0.1503
H6 H 0.3082 0.3509 0.1017
H7 H 0.2302 0.4640 0.0843
C12 C 0.4224(3) 0.6614(4) -0.04677(15)
H8 H 0.3780 0.5993 -0.0707
H9 H 0.4873 0.6571 -0.0559
H10 H 0.3949 0.7466 -0.0554
C13 C 0.4969(3) 0.4034(3) 0.33930(14)
H11 H 0.4944 0.3135 0.3286
H12 H 0.4437 0.4225 0.3587
H13 H 0.5608 0.4225 0.3660
C14 C 0.4694(3) 0.3195(3) 0.20319(15)
H14 H 0.5166 0.2658 0.2304
H15 H 0.4885 0.3249 0.1657
H16 H 0.4031 0.2827 0.1967
C15 C 0.5093(2) 0.6781(3) 0.34402(13)
C16 C 0.6075(2) 0.6957(3) 0.37492(14)
C17 C 0.6234(3) 0.7507(3) 0.43015(15)
H17 H 0.6894 0.7655 0.4517
C18 C 0.5462(3) 0.7848(3) 0.45498(15)
C19 C 0.4504(3) 0.7604(3) 0.42293(15)
H18 H 0.3970 0.7821 0.4397
C20 C 0.4297(2) 0.7060(3) 0.36772(14)
C21 C 0.3250(2) 0.6726(3) 0.33673(15)
H19 H 0.2863 0.6570 0.3658
H20 H 0.3251 0.5962 0.3130
H21 H 0.2955 0.7429 0.3112
C22 C 0.5659(3) 0.8436(4) 0.51551(16)
H22 H 0.6362 0.8354 0.5348
H23 H 0.5264 0.7999 0.5389
H24 H 0.5477 0.9334 0.5120
C23 C 0.6921(2) 0.6467(3) 0.35212(15)
H25 H 0.7486 0.7042 0.3639
H26 H 0.6723 0.6417 0.3092
H27 H 0.7108 0.5622 0.3683
C24 C 0.5679(2) 0.8968(3) 0.26267(13)
C25 C 0.6711(2) 0.9199(3) 0.28228(14)
C26 C 0.7085(3) 1.0014(3) 0.32926(15)
H28 H 0.7779 1.0138 0.3412
C27 C 0.6489(3) 1.0644(3) 0.35887(15)
C28 C 0.5485(3) 1.0450(3) 0.33999(14)
H29 H 0.5054 1.0877 0.3594
C29 C 0.5085(2) 0.9650(3) 0.29350(13)
C30 C 0.3962(2) 0.9579(3) 0.27719(14)
H30 H 0.3708 0.9819 0.3112
H31 H 0.3755 0.8713 0.2653
H32 H 0.3701 1.0161 0.2446
C31 C 0.6923(3) 1.1535(3) 0.40893(16)
H33 H 0.7640 1.1412 0.4210
H34 H 0.6630 1.1358 0.4421
H35 H 0.6780 1.2413 0.3960
C32 C 0.7494(2) 0.8653(3) 0.25392(16)
H36 H 0.8151 0.8894 0.2770
H37 H 0.7397 0.8986 0.2140
H38 H 0.7438 0.7727 0.2525
C33 C 0.4252(2) 0.8781(3) 0.15906(14)
C34 C 0.4550(2) 0.9797(3) 0.12684(15)
C35 C 0.3903(3) 1.0355(3) 0.07903(15)
H39 H 0.4137 1.1034 0.0594
C36 C 0.2939(3) 0.9967(3) 0.05898(14)
C37 C 0.2621(3) 0.9024(3) 0.09064(15)
H40 H 0.1954 0.8753 0.0787
C38 C 0.3241(2) 0.8448(3) 0.13973(13)
C39 C 0.2704(2) 0.7517(3) 0.17059(14)
H41 H 0.2288 0.6960 0.1415
H42 H 0.2291 0.7984 0.1918
H43 H 0.3189 0.7007 0.1984
C40 C 0.5589(3) 1.0344(3) 0.14155(16)
H44 H 0.5561 1.1246 0.1314
H45 H 0.5993 0.9895 0.1191
H46 H 0.5882 1.0242 0.1836
C41 C 0.2268(3) 1.0565(4) 0.00530(16)
H47 H 0.2286 1.1489 0.0096
H48 H 0.1591 1.0263 0.0013
H49 H 0.2495 1.0331 -0.0297
loop_
_geom_bond_atom_site_label_1
_geom_bond_atom_site_label_2
_geom_bond_site_symmetry_1
_geom_bond_site_symmetry_2
B1 C1 1_555 1_555
N1 C1 1_555 1_555
N2 C1 1_555 1_555
C2 B1 1_555 1_555
H1 C2 1_555 1_555
H2 C2 1_555 1_555
C3 N2 1_555 1_555
C4 N1 1_555 1_555
C5 C2 1_555 1_555
C6 N2 1_555 1_555
C7 C6 1_555 1_555
C8 C7 1_555 1_555
H3 C8 1_555 1_555
C9 C8 1_555 1_555
C10 C5 1_555 1_555
H4 C10 1_555 1_555
C11 C7 1_555 1_555
H5 C11 1_555 1_555
H6 C11 1_555 1_555
H7 C11 1_555 1_555
C12 C9 1_555 1_555
H8 C12 1_555 1_555
H9 C12 1_555 1_555
H10 C12 1_555 1_555
C13 C4 1_555 1_555
H11 C13 1_555 1_555
H12 C13 1_555 1_555
H13 C13 1_555 1_555
C14 C3 1_555 1_555
H14 C14 1_555 1_555
H15 C14 1_555 1_555
H16 C14 1_555 1_555
C15 N1 1_555 1_555
C16 C15 1_555 1_555
C17 C16 1_555 1_555
H17 C17 1_555 1_555
C18 C17 1_555 1_555
C19 C18 1_555 1_555
H18 C19 1_555 1_555
C20 C15 1_555 1_555
C21 C20 1_555 1_555
H19 C21 1_555 1_555
H20 C21 1_555 1_555
H21 C21 1_555 1_555
C22 C18 1_555 1_555
H22 C22 1_555 1_555
H23 C22 1_555 1_555
H24 C22 1_555 1_555
C23 C16 1_555 1_555
H25 C23 1_555 1_555
H26 C23 1_555 1_555
H27 C23 1_555 1_555
C24 B1 1_555 1_555
C25 C24 1_555 1_555
C26 C25 1_555 1_555
H28 C26 1_555 1_555
C27 C26 1_555 1_555
C28 C27 1_555 1_555
H29 C28 1_555 1_555
C29 C24 1_555 1_555
C30 C29 1_555 1_555
H30 C30 1_555 1_555
H31 C30 1_555 1_555
H32 C30 1_555 1_555
C31 C27 1_555 1_555
H33 C31 1_555 1_555
H34 C31 1_555 1_555
H35 C31 1_555 1_555
C32 C25 1_555 1_555
H36 C32 1_555 1_555
H37 C32 1_555 1_555
H38 C32 1_555 1_555
C33 B1 1_555 1_555
C34 C33 1_555 1_555
C35 C34 1_555 1_555
H39 C35 1_555 1_555
C36 C35 1_555 1_555
C37 C36 1_555 1_555
H40 C37 1_555 1_555
C38 C33 1_555 1_555
C39 C38 1_555 1_555
H41 C39 1_555 1_555
H42 C39 1_555 1_555
H43 C39 1_555 1_555
C40 C34 1_555 1_555
H44 C40 1_555 1_555
H45 C40 1_555 1_555
H46 C40 1_555 1_555
C41 C36 1_555 1_555
H47 C41 1_555 1_555
H48 C41 1_555 1_555
H49 C41 1_555 1_555
C3 C4 1_555 1_555
C5 C6 1_555 1_555
C9 C10 1_555 1_555
C19 C20 1_555 1_555
C28 C29 1_555 1_555
C37 C38 1_555 1_555

#END
