
#######################################################################
#
#                 Cambridge Crystallographic Data Centre
#                                CCDC 
#
#######################################################################
#
# If this CIF has been generated from an entry in the Cambridge 
# Structural Database, then it will include bibliographic, chemical, 
# crystal, experimental, refinement or atomic coordinate data resulting 
# from the CCDC's data processing and validation procedures.
#
#######################################################################

data_HUXZUX
_chemical_formula_moiety         'C20 H19 N1 O3'
_chemical_name_systematic        
'ethyl 2-(anilinomethylene)-5-oxo-5-phenylpent-3-enoate'
_symmetry_cell_setting           triclinic
_symmetry_space_group_name_H-M   'P -1'
_symmetry_Int_Tables_number      2
_space_group_name_Hall           '-P 1'
loop_
_symmetry_equiv_pos_site_id
_symmetry_equiv_pos_as_xyz
1 x,y,z
2 -x,-y,-z
_cell_length_a                   7.1922(8)
_cell_length_b                   12.1296(13)
_cell_length_c                   19.556(2)
_cell_angle_alpha                88.763(3)
_cell_angle_beta                 83.361(3)
_cell_angle_gamma                89.660(2)
_cell_volume                     1694.19
_exptl_crystal_colour            green
_exptl_crystal_description       prismatic
_cell_formula_units_Z            4
loop_
_atom_site_label
_atom_site_type_symbol
_atom_site_fract_x
_atom_site_fract_y
_atom_site_fract_z
N1 N 0.8425(3) 1.10513(16) 0.37961(9)
O1 O 0.7234(3) 0.66229(15) 0.54385(9)
O2 O 0.6814(4) 1.08399(16) 0.59515(9)
O3 O 0.7371(2) 1.19159(13) 0.50228(8)
C1 C 0.6799(3) 0.72841(19) 0.58924(11)
C2 C 0.6899(3) 0.84736(18) 0.57686(11)
H1 H 0.6574 0.8949 0.6130
C3 C 0.7455(3) 0.88835(19) 0.51386(11)
H2 H 0.7797 0.8352 0.4812
C4 C 0.7620(3) 1.00021(18) 0.48757(11)
C5 C 0.8184(3) 1.01373(18) 0.41857(11)
H3 H 0.8441 0.9485 0.3951
C6 C 0.7216(3) 1.09264(19) 0.53413(11)
C7 C 0.6995(4) 1.2884(2) 0.54422(13)
H4 H 0.7676 1.2838 0.5842
H5 H 0.5669 1.2937 0.5599
C8 C 0.7612(5) 1.3860(2) 0.50076(14)
H6 H 0.8933 1.3809 0.4868
H7 H 0.7348 1.4518 0.5266
H8 H 0.6954 1.3886 0.4608
C9 C 0.6073(3) 0.68548(18) 0.65965(11)
C10 C 0.5232(3) 0.58215(18) 0.66615(12)
H9 H 0.5148 0.5414 0.6269
C11 C 0.4525(3) 0.5390(2) 0.72915(13)
H10 H 0.3941 0.4706 0.7324
C12 C 0.4688(4) 0.5978(2) 0.78766(13)
H11 H 0.4222 0.5687 0.8306
C13 C 0.5538(4) 0.6995(2) 0.78267(12)
H12 H 0.5661 0.7384 0.8224
C14 C 0.6208(3) 0.7440(2) 0.71928(12)
H13 H 0.6753 0.8135 0.7163
C15 C 0.9140(3) 1.11028(18) 0.30925(10)
C16 C 0.8726(3) 1.20151(19) 0.27010(11)
H14 H 0.7997 1.2583 0.2903
C17 C 0.9392(3) 1.2085(2) 0.20113(12)
H15 H 0.9096 1.2697 0.1750
C18 C 1.0490(3) 1.1259(2) 0.17071(12)
H16 H 1.0936 1.1309 0.1242
C19 C 1.0921(3) 1.0357(2) 0.21001(12)
H17 H 1.1662 0.9795 0.1897
C20 C 1.0269(3) 1.02745(19) 0.27924(11)
H18 H 1.0585 0.9668 0.3055
H19 H 0.810(3) 1.1658(15) 0.3975(11)
N2 N 0.0844(3) 0.61050(17) 0.15776(9)
O4 O 0.2509(3) 0.17913(15) -0.00121(9)
O5 O 0.2637(3) 0.60414(14) -0.05691(8)
O6 O 0.2095(2) 0.70588(12) 0.03688(7)
C21 C 0.2984(3) 0.24701(19) -0.04699(12)
C22 C 0.2840(3) 0.36529(18) -0.03559(11)
H20 H 0.3119 0.4148 -0.0723
C23 C 0.2304(3) 0.40290(19) 0.02765(11)
H21 H 0.2102 0.3480 0.0616
C24 C 0.1987(3) 0.51368(18) 0.05237(11)
C25 C 0.1337(3) 0.52122(19) 0.12115(11)
H22 H 0.1227 0.4545 0.1456
C26 C 0.2277(3) 0.60845(19) 0.00483(12)
C27 C 0.2353(4) 0.8046(2) -0.00616(12)
H23 H 0.1434 0.8079 -0.0387
H24 H 0.3593 0.8052 -0.0316
C28 C 0.2113(4) 0.9009(2) 0.04119(14)
H25 H 0.0868 0.9006 0.0650
H26 H 0.2312 0.9683 0.0148
H27 H 0.3004 0.8954 0.0741
C29 C 0.3690(3) 0.20664(18) -0.11724(11)
C30 C 0.4778(3) 0.2715(2) -0.16565(12)
H28 H 0.5060 0.3436 -0.1556
C31 C 0.5441(4) 0.2285(2) -0.22889(13)
H29 H 0.6184 0.2718 -0.2609
C32 C 0.5011(4) 0.1226(2) -0.24477(13)
H30 H 0.5456 0.0945 -0.2875
C33 C 0.3921(4) 0.0581(2) -0.19750(13)
H31 H 0.3613 -0.0132 -0.2085
C34 C 0.3287(3) 0.0990(2) -0.13402(13)
H32 H 0.2580 0.0542 -0.1018
C35 C 0.0199(3) 0.61136(19) 0.22896(10)
C36 C 0.0539(3) 0.5244(2) 0.27308(12)
H33 H 0.1212 0.4630 0.2563
C37 C -0.0128(4) 0.5295(2) 0.34211(12)
H34 H 0.0104 0.4713 0.3717
C38 C -0.1129(4) 0.6195(2) 0.36761(12)
H35 H -0.1584 0.6221 0.4140
C39 C -0.1446(4) 0.7052(2) 0.32378(13)
H36 H -0.2126 0.7661 0.3408
C40 C -0.0775(3) 0.7029(2) 0.25462(12)
H37 H -0.0978 0.7624 0.2256
H38 H 0.088(3) 0.6730(16) 0.1355(12)
loop_
_geom_bond_atom_site_label_1
_geom_bond_atom_site_label_2
_geom_bond_site_symmetry_1
_geom_bond_site_symmetry_2
N1 C5 1_555 1_555
O1 C1 1_555 1_555
O2 C6 1_555 1_555
O3 C6 1_555 1_555
C1 C2 1_555 1_555
C2 H1 1_555 1_555
C3 C2 1_555 1_555
H2 C3 1_555 1_555
C4 C3 1_555 1_555
C5 C4 1_555 1_555
H3 C5 1_555 1_555
C6 C4 1_555 1_555
C7 O3 1_555 1_555
H4 C7 1_555 1_555
H5 C7 1_555 1_555
C8 C7 1_555 1_555
H6 C8 1_555 1_555
H7 C8 1_555 1_555
H8 C8 1_555 1_555
C9 C1 1_555 1_555
C10 C9 1_555 1_555
H9 C10 1_555 1_555
C11 C10 1_555 1_555
H10 C11 1_555 1_555
C12 C11 1_555 1_555
H11 C12 1_555 1_555
C13 C12 1_555 1_555
H12 C13 1_555 1_555
C14 C9 1_555 1_555
H13 C14 1_555 1_555
C15 N1 1_555 1_555
C16 C15 1_555 1_555
H14 C16 1_555 1_555
C17 C16 1_555 1_555
H15 C17 1_555 1_555
C18 C17 1_555 1_555
H16 C18 1_555 1_555
C19 C18 1_555 1_555
H17 C19 1_555 1_555
C20 C15 1_555 1_555
H18 C20 1_555 1_555
H19 N1 1_555 1_555
N2 C25 1_555 1_555
O4 C21 1_555 1_555
O5 C26 1_555 1_555
O6 C26 1_555 1_555
C21 C22 1_555 1_555
C22 H20 1_555 1_555
C23 C22 1_555 1_555
H21 C23 1_555 1_555
C24 C23 1_555 1_555
C25 C24 1_555 1_555
H22 C25 1_555 1_555
C26 C24 1_555 1_555
C27 O6 1_555 1_555
H23 C27 1_555 1_555
H24 C27 1_555 1_555
C28 C27 1_555 1_555
H25 C28 1_555 1_555
H26 C28 1_555 1_555
H27 C28 1_555 1_555
C29 C21 1_555 1_555
C30 C29 1_555 1_555
H28 C30 1_555 1_555
C31 C30 1_555 1_555
H29 C31 1_555 1_555
C32 C31 1_555 1_555
H30 C32 1_555 1_555
C33 C32 1_555 1_555
H31 C33 1_555 1_555
C34 C29 1_555 1_555
H32 C34 1_555 1_555
C35 N2 1_555 1_555
C36 C35 1_555 1_555
H33 C36 1_555 1_555
C37 C36 1_555 1_555
H34 C37 1_555 1_555
C38 C37 1_555 1_555
H35 C38 1_555 1_555
C39 C38 1_555 1_555
H36 C39 1_555 1_555
C40 C35 1_555 1_555
H37 C40 1_555 1_555
H38 N2 1_555 1_555
C13 C14 1_555 1_555
C19 C20 1_555 1_555
C33 C34 1_555 1_555
C39 C40 1_555 1_555

#END
