
#######################################################################
#
#                 Cambridge Crystallographic Data Centre
#                                CCDC 
#
#######################################################################
#
# If this CIF has been generated from an entry in the Cambridge 
# Structural Database, then it will include bibliographic, chemical, 
# crystal, experimental, refinement or atomic coordinate data resulting 
# from the CCDC's data processing and validation procedures.
#
#######################################################################

data_HUXZOR
_chemical_formula_moiety         'C20 H19 N1 O3'
_chemical_name_systematic        
'ethyl 3-((3-oxo-3-phenylprop-1-en-1-yl)(phenyl)amino)acrylate'
_symmetry_cell_setting           monoclinic
_symmetry_space_group_name_H-M   'P 21/n'
_symmetry_Int_Tables_number      14
_space_group_name_Hall           '-P 2yn'
loop_
_symmetry_equiv_pos_site_id
_symmetry_equiv_pos_as_xyz
1 x,y,z
2 1/2-x,1/2+y,1/2-z
3 -x,-y,-z
4 1/2+x,1/2-y,1/2+z
_cell_length_a                   12.0860(13)
_cell_length_b                   9.5463(10)
_cell_length_c                   15.3992(17)
_cell_angle_alpha                90
_cell_angle_beta                 105.849(2)
_cell_angle_gamma                90
_cell_volume                     1709.17
_exptl_crystal_colour            colorless
_exptl_crystal_description       prismatic
_cell_formula_units_Z            4
loop_
_atom_site_label
_atom_site_type_symbol
_atom_site_fract_x
_atom_site_fract_y
_atom_site_fract_z
N1 N 0.14554(10) 0.21160(12) 0.11531(8)
O1 O -0.16438(10) -0.01250(14) 0.09264(9)
O2 O -0.07438(9) -0.11557(11) 0.22315(8)
O3 O 0.14043(9) 0.58651(12) -0.02183(8)
C1 C -0.07884(12) -0.02936(15) 0.15332(11)
C2 C 0.03228(12) 0.03646(15) 0.16309(11)
H1 H 0.0967 0.0020 0.2056
C3 C 0.04332(12) 0.14508(16) 0.11219(10)
H2 H -0.0229 0.1788 0.0714
C4 C 0.14809(12) 0.33428(15) 0.06999(10)
H3 H 0.0779 0.3703 0.0365
C5 C 0.24238(12) 0.40682(15) 0.06959(10)
H4 H 0.3145 0.3719 0.0997
C6 C 0.23312(12) 0.53992(15) 0.02240(10)
C7 C 0.34076(11) 0.62186(14) 0.02868(9)
C8 C 0.44806(13) 0.58302(15) 0.08197(11)
H5 H 0.4552 0.5042 0.1186
C9 C 0.54422(14) 0.65940(17) 0.08146(13)
H6 H 0.6157 0.6320 0.1180
C10 C 0.53599(15) 0.77537(18) 0.02777(13)
H7 H 0.6016 0.8256 0.0268
C11 C 0.43029(16) 0.81657(18) -0.02440(12)
H8 H 0.4239 0.8959 -0.0605
C12 C 0.33317(14) 0.74133(16) -0.02389(11)
H9 H 0.2617 0.7710 -0.0592
C13 C 0.25120(11) 0.15184(14) 0.17037(10)
C14 C 0.29612(14) 0.19851(18) 0.25712(11)
H10 H 0.2596 0.2691 0.2805
C15 C 0.39630(15) 0.1389(2) 0.30911(12)
H11 H 0.4281 0.1702 0.3678
C16 C 0.44938(14) 0.0339(2) 0.27497(13)
H12 H 0.5164 -0.0065 0.3107
C17 C 0.40401(14) -0.01144(19) 0.18871(13)
H13 H 0.4405 -0.0824 0.1656
C18 C 0.30416(13) 0.04743(16) 0.13533(11)
H14 H 0.2732 0.0167 0.0764
C19 C -0.17623(14) -0.19643(17) 0.22015(13)
H15 H -0.1548 -0.2784 0.2582
H16 H -0.2100 -0.2284 0.1588
C20 C -0.26340(17) -0.1148(2) 0.25069(15)
H17 H -0.2284 -0.0753 0.3091
H18 H -0.3253 -0.1755 0.2543
H19 H -0.2928 -0.0409 0.2084
loop_
_geom_bond_atom_site_label_1
_geom_bond_atom_site_label_2
_geom_bond_site_symmetry_1
_geom_bond_site_symmetry_2
N1 C3 1_555 1_555
O1 C1 1_555 1_555
O2 C1 1_555 1_555
O3 C6 1_555 1_555
C1 C2 1_555 1_555
C2 H1 1_555 1_555
C3 C2 1_555 1_555
H2 C3 1_555 1_555
C4 N1 1_555 1_555
H3 C4 1_555 1_555
C5 C4 1_555 1_555
H4 C5 1_555 1_555
C6 C5 1_555 1_555
C7 C6 1_555 1_555
C8 C7 1_555 1_555
H5 C8 1_555 1_555
C9 C8 1_555 1_555
H6 C9 1_555 1_555
C10 C9 1_555 1_555
H7 C10 1_555 1_555
C11 C10 1_555 1_555
H8 C11 1_555 1_555
C12 C7 1_555 1_555
H9 C12 1_555 1_555
C13 N1 1_555 1_555
C14 C13 1_555 1_555
H10 C14 1_555 1_555
C15 C14 1_555 1_555
H11 C15 1_555 1_555
C16 C15 1_555 1_555
H12 C16 1_555 1_555
C17 C16 1_555 1_555
H13 C17 1_555 1_555
C18 C13 1_555 1_555
H14 C18 1_555 1_555
C19 O2 1_555 1_555
H15 C19 1_555 1_555
H16 C19 1_555 1_555
C20 C19 1_555 1_555
H17 C20 1_555 1_555
H18 C20 1_555 1_555
H19 C20 1_555 1_555
C11 C12 1_555 1_555
C17 C18 1_555 1_555

#END
