
#######################################################################
#
#                 Cambridge Crystallographic Data Centre
#                                CCDC 
#
#######################################################################
#
# If this CIF has been generated from an entry in the Cambridge 
# Structural Database, then it will include bibliographic, chemical, 
# crystal, experimental, refinement or atomic coordinate data resulting 
# from the CCDC's data processing and validation procedures.
#
#######################################################################

data_HUYBOT
_chemical_name_common            
"trans-2,3-Dihydrospiro-[2,3-dicarbomethoxycyclopropane]-1',3'-dihydroindol-2'-one monohydrate"
_chemical_formula_moiety         'C14 H13 N1 O5,H2 O1'
_chemical_name_systematic        
"Dimethyl 2'-oxo-1',2'-dihydrospiro[cyclopropane-1,3'-indole]-2,3-dicarboxylate monohydrate"
_symmetry_cell_setting           monoclinic
_symmetry_space_group_name_H-M   'P 21/c'
_symmetry_Int_Tables_number      14
_space_group_name_Hall           '-P 2ybc'
loop_
_symmetry_equiv_pos_site_id
_symmetry_equiv_pos_as_xyz
1 x,y,z
2 -x,1/2+y,1/2-z
3 -x,-y,-z
4 x,1/2-y,1/2+z
_cell_length_a                   9.070(4)
_cell_length_b                   11.872(5)
_cell_length_c                   13.301(6)
_cell_angle_alpha                90
_cell_angle_beta                 105.405(5)
_cell_angle_gamma                90
_cell_volume                     1380.78
_chemical_melting_point          '123-124 deg.C'
_cell_formula_units_Z            4
loop_
_atom_site_label
_atom_site_type_symbol
_atom_site_fract_x
_atom_site_fract_y
_atom_site_fract_z
C1 C 0.26820(19) 0.51286(15) 0.43041(13)
H1 H 0.3149 0.5607 0.3928
C2 C 0.3233(2) 0.50327(17) 0.53810(14)
H2 H 0.4088 0.5446 0.5727
C3 C 0.2538(2) 0.43403(17) 0.59420(14)
H3 H 0.2942 0.4282 0.6660
C4 C 0.1244(2) 0.37252(15) 0.54591(13)
H4 H 0.0757 0.3269 0.5840
C5 C 0.07110(18) 0.38179(13) 0.43918(12)
C6 C 0.14283(17) 0.44961(12) 0.38098(12)
C7 C 0.05410(17) 0.43916(12) 0.27045(12)
C8 C -0.07215(17) 0.35695(13) 0.27119(13)
C9 C 0.11585(17) 0.43974(13) 0.17419(12)
H5 H 0.0602 0.3916 0.1168
C10 C 0.02993(18) 0.53890(13) 0.19498(12)
H6 H 0.0930 0.6051 0.2212
C11 C -0.12427(18) 0.56488(13) 0.12529(13)
C12 C -0.3448(2) 0.67556(18) 0.10737(16)
H7 H -0.3376 0.7100 0.0436
H8 H -0.3874 0.7284 0.1466
H9 H -0.4095 0.6104 0.0917
C13 C 0.28405(18) 0.44565(14) 0.18796(12)
C14 C 0.50113(19) 0.33564(18) 0.18773(17)
H10 H 0.5279 0.3863 0.1392
H11 H 0.5260 0.2599 0.1729
H12 H 0.5571 0.3554 0.2574
N1 N -0.05622(15) 0.32902(11) 0.37219(11)
H13 H -0.1168 0.2843 0.3929
O1 O -0.16763(13) 0.31955(11) 0.19576(10)
O2 O -0.19394(12) 0.64222(10) 0.16804(9)
O3 O -0.17865(16) 0.52335(12) 0.04157(10)
O4 O 0.33853(12) 0.34375(10) 0.17821(10)
O5 O 0.35992(14) 0.52961(11) 0.20601(11)
O6 O 0.7408(2) 0.20867(14) 0.46530(15)
H14 H 0.719(4) 0.144(3) 0.444(3)
H15 H 0.792(4) 0.197(3) 0.530(3)
loop_
_geom_bond_atom_site_label_1
_geom_bond_atom_site_label_2
_geom_bond_site_symmetry_1
_geom_bond_site_symmetry_2
C1 H1 1_555 1_555
C2 C1 1_555 1_555
H2 C2 1_555 1_555
C3 C2 1_555 1_555
H3 C3 1_555 1_555
C4 C3 1_555 1_555
H4 C4 1_555 1_555
C5 C4 1_555 1_555
C6 C1 1_555 1_555
C7 C6 1_555 1_555
C8 C7 1_555 1_555
C9 C7 1_555 1_555
H5 C9 1_555 1_555
C10 C7 1_555 1_555
H6 C10 1_555 1_555
C11 C10 1_555 1_555
C12 H7 1_555 1_555
H8 C12 1_555 1_555
H9 C12 1_555 1_555
C13 C9 1_555 1_555
C14 H10 1_555 1_555
H11 C14 1_555 1_555
H12 C14 1_555 1_555
N1 C5 1_555 1_555
H13 N1 1_555 1_555
O1 C8 1_555 1_555
O2 C11 1_555 1_555
O3 C11 1_555 1_555
O4 C13 1_555 1_555
O5 C13 1_555 1_555
O6 H14 1_555 1_555
H15 O6 1_555 1_555
C5 C6 1_555 1_555
C8 N1 1_555 1_555
C9 C10 1_555 1_555
C12 O2 1_555 1_555
C14 O4 1_555 1_555

#END
