
#######################################################################
#
#                 Cambridge Crystallographic Data Centre
#                                CCDC 
#
#######################################################################
#
# If this CIF has been generated from an entry in the Cambridge 
# Structural Database, then it will include bibliographic, chemical, 
# crystal, experimental, refinement or atomic coordinate data resulting 
# from the CCDC's data processing and validation procedures.
#
#######################################################################

data_HUYGIT
_chemical_formula_moiety         'C18 H14 N2 O3'
_chemical_name_systematic        
2-(4-Methoxyphenyl)-5-(4-nitrophenyl)penta-2,4-dienenitrile
_symmetry_cell_setting           triclinic
_symmetry_space_group_name_H-M   'P -1'
_symmetry_Int_Tables_number      2
_space_group_name_Hall           '-P 1'
loop_
_symmetry_equiv_pos_site_id
_symmetry_equiv_pos_as_xyz
1 x,y,z
2 -x,-y,-z
_cell_length_a                   6.7908(17)
_cell_length_b                   8.0131(19)
_cell_length_c                   15.325(3)
_cell_angle_alpha                100.40(2)
_cell_angle_beta                 95.407(19)
_cell_angle_gamma                108.08(2)
_cell_volume                     769.583
_exptl_crystal_colour            'light yellow'
_exptl_crystal_description       block
_cell_formula_units_Z            2
loop_
_atom_site_label
_atom_site_type_symbol
_atom_site_fract_x
_atom_site_fract_y
_atom_site_fract_z
O1 O 1.0463(3) 1.1257(3) 0.93296(13)
O2 O 1.3295(3) 1.0846(3) 0.98388(14)
O3 O 0.4702(3) -0.3940(3) 0.12648(12)
N1 N 1.1674(4) 1.0407(3) 0.93037(14)
N2 N 0.2878(4) 0.2473(3) 0.47178(15)
C1 C 0.8797(4) 0.6678(3) 0.73570(16)
H1 H 0.7459 0.6193 0.7018
C2 C 0.9207(4) 0.8102(3) 0.80780(16)
H2 H 0.8171 0.8588 0.8224
C3 C 1.1192(4) 0.8793(3) 0.85793(15)
C4 C 1.2722(4) 0.8067(3) 0.84028(17)
H3 H 1.4028 0.8518 0.8768
C5 C 1.2287(4) 0.6647(3) 0.76693(16)
H4 H 1.3322 0.6150 0.7539
C6 C 1.0327(4) 0.5943(3) 0.71210(15)
C7 C 0.9964(4) 0.4514(3) 0.63204(15)
H5 H 1.1093 0.4139 0.6195
C8 C 0.8158(4) 0.3697(3) 0.57522(15)
H6 H 0.7010 0.4042 0.5878
C9 C 0.7871(3) 0.2328(3) 0.49636(15)
H7 H 0.9021 0.1982 0.4842
C10 C 0.6051(3) 0.1498(3) 0.43806(14)
C11 C 0.5685(3) 0.0068(3) 0.35702(14)
C12 C 0.3784(4) -0.0566(3) 0.29874(16)
H8 H 0.2739 -0.0086 0.3124
C13 C 0.3392(4) -0.1888(3) 0.22094(16)
H9 H 0.2112 -0.2269 0.1829
C14 C 0.4908(4) -0.2628(3) 0.20063(16)
C15 C 0.6814(4) -0.2034(3) 0.25813(16)
H10 H 0.7842 -0.2537 0.2447
C16 C 0.7198(4) -0.0707(3) 0.33475(15)
H11 H 0.8487 -0.0321 0.3722
C17 C 0.4280(4) 0.2038(3) 0.45708(15)
C18 C 0.2849(5) -0.4459(4) 0.0608(2)
H12 H 0.2931 -0.5332 0.0106
H13 H 0.2739 -0.3420 0.0407
H14 H 0.1638 -0.4973 0.0871
loop_
_geom_bond_atom_site_label_1
_geom_bond_atom_site_label_2
_geom_bond_site_symmetry_1
_geom_bond_site_symmetry_2
O1 N1 1_555 1_555
O2 N1 1_555 1_555
O3 C14 1_555 1_555
N1 C3 1_555 1_555
N2 C17 1_555 1_555
C1 H1 1_555 1_555
C2 C1 1_555 1_555
H2 C2 1_555 1_555
C3 C2 1_555 1_555
C4 C3 1_555 1_555
H3 C4 1_555 1_555
C5 C4 1_555 1_555
H4 C5 1_555 1_555
C6 C1 1_555 1_555
C7 C6 1_555 1_555
H5 C7 1_555 1_555
C8 C7 1_555 1_555
H6 C8 1_555 1_555
C9 C8 1_555 1_555
H7 C9 1_555 1_555
C10 C9 1_555 1_555
C11 C10 1_555 1_555
C12 C11 1_555 1_555
H8 C12 1_555 1_555
C13 C12 1_555 1_555
H9 C13 1_555 1_555
C14 C13 1_555 1_555
C15 C14 1_555 1_555
H10 C15 1_555 1_555
C16 C11 1_555 1_555
H11 C16 1_555 1_555
C17 C10 1_555 1_555
C18 O3 1_555 1_555
H12 C18 1_555 1_555
H13 C18 1_555 1_555
H14 C18 1_555 1_555
C5 C6 1_555 1_555
C15 C16 1_555 1_555

#END
