
#######################################################################
#
#                 Cambridge Crystallographic Data Centre
#                                CCDC 
#
#######################################################################
#
# If this CIF has been generated from an entry in the Cambridge 
# Structural Database, then it will include bibliographic, chemical, 
# crystal, experimental, refinement or atomic coordinate data resulting 
# from the CCDC's data processing and validation procedures.
#
#######################################################################

data_HUYLOE
_chemical_formula_moiety         'C23 H26 N2'
_chemical_name_systematic        
1-Mesityl-2,3,5,7-tetramethyl-1H-imidazo[1,2-a]indole
_symmetry_cell_setting           monoclinic
_symmetry_space_group_name_H-M   'P 21/c'
_symmetry_Int_Tables_number      14
_space_group_name_Hall           '-P 2ybc'
loop_
_symmetry_equiv_pos_site_id
_symmetry_equiv_pos_as_xyz
1 x,y,z
2 -x,1/2+y,1/2-z
3 -x,-y,-z
4 x,1/2-y,1/2+z
_cell_length_a                   8.6465(2)
_cell_length_b                   15.9218(3)
_cell_length_c                   14.1408(3)
_cell_angle_alpha                90
_cell_angle_beta                 102.845(2)
_cell_angle_gamma                90
_cell_volume                     1898.02
_exptl_crystal_colour            colorless
_exptl_crystal_description       thin-plate
_cell_formula_units_Z            4
loop_
_atom_site_label
_atom_site_type_symbol
_atom_site_fract_x
_atom_site_fract_y
_atom_site_fract_z
N1 N 0.75830(14) 0.42305(8) 0.03388(8)
N2 N 0.81508(16) 0.28775(8) 0.02771(9)
C1 C 0.75622(18) 0.34708(10) 0.08012(11)
C2 C 0.6988(2) 0.35357(11) 0.16242(12)
H1 H 0.6864 0.3098 0.2058
C3 C 0.85630(19) 0.32811(10) -0.05170(11)
C4 C 0.82162(18) 0.41056(10) -0.04949(10)
C5 C 0.69793(17) 0.48408(10) 0.08886(11)
C6 C 0.66174(18) 0.43995(11) 0.16879(11)
C7 C 0.5974(2) 0.48456(11) 0.23643(12)
H2 H 0.5732 0.4559 0.2903
C8 C 0.5689(2) 0.56938(12) 0.22547(13)
C9 C 0.60519(18) 0.61002(11) 0.14552(12)
H3 H 0.5844 0.6685 0.1384
C10 C 0.66968(17) 0.57025(10) 0.07585(11)
C11 C 0.7025(2) 0.62063(11) -0.00674(13)
H4 H 0.6724 0.6793 0.0001
H5 H 0.6409 0.5980 -0.0681
H6 H 0.8159 0.6176 -0.0064
C12 C 0.4986(3) 0.61854(13) 0.29687(16)
H7 H 0.5053 0.5852 0.3559
H8 H 0.3872 0.6312 0.2680
H9 H 0.5576 0.6711 0.3131
C13 C 0.9284(2) 0.27981(11) -0.12079(12)
H10 H 0.9383 0.3161 -0.1751
H11 H 0.8608 0.2316 -0.1453
H12 H 1.0337 0.2599 -0.0876
C14 C 0.8456(2) 0.47610(11) -0.11947(12)
H13 H 0.8914 0.4505 -0.1700
H14 H 0.9178 0.5193 -0.0854
H15 H 0.7434 0.5018 -0.1492
C15 C 0.84202(19) 0.20119(10) 0.05476(11)
C16 C 0.9806(2) 0.17918(11) 0.12138(11)
C17 C 1.0050(2) 0.09467(11) 0.14452(12)
H16 H 1.0981 0.0785 0.1903
C18 C 0.8979(2) 0.03329(11) 0.10301(12)
C19 C 0.7605(2) 0.05794(11) 0.03837(13)
H17 H 0.6856 0.0164 0.0100
C20 C 0.7288(2) 0.14173(11) 0.01375(12)
C21 C 0.5755(2) 0.16839(12) -0.05267(14)
H18 H 0.5057 0.1195 -0.0689
H19 H 0.5975 0.1922 -0.1122
H20 H 0.5236 0.2108 -0.0202
C22 C 1.1000(2) 0.24484(12) 0.16636(14)
H21 H 1.1748 0.2206 0.2220
H22 H 1.0449 0.2924 0.1881
H23 H 1.1580 0.2642 0.1183
C23 C 0.9283(3) -0.05856(12) 0.12753(16)
H24 H 1.0196 -0.0639 0.1824
H25 H 0.9505 -0.0881 0.0712
H26 H 0.8345 -0.0832 0.1449
loop_
_geom_bond_atom_site_label_1
_geom_bond_atom_site_label_2
_geom_bond_site_symmetry_1
_geom_bond_site_symmetry_2
N1 C1 1_555 1_555
N2 C1 1_555 1_555
C1 C2 1_555 1_555
C2 H1 1_555 1_555
C3 N2 1_555 1_555
C4 N1 1_555 1_555
C5 N1 1_555 1_555
C6 C2 1_555 1_555
C7 C6 1_555 1_555
H2 C7 1_555 1_555
C8 C7 1_555 1_555
C9 C8 1_555 1_555
H3 C9 1_555 1_555
C10 C5 1_555 1_555
C11 C10 1_555 1_555
H4 C11 1_555 1_555
H5 C11 1_555 1_555
H6 C11 1_555 1_555
C12 C8 1_555 1_555
H7 C12 1_555 1_555
H8 C12 1_555 1_555
H9 C12 1_555 1_555
C13 C3 1_555 1_555
H10 C13 1_555 1_555
H11 C13 1_555 1_555
H12 C13 1_555 1_555
C14 C4 1_555 1_555
H13 C14 1_555 1_555
H14 C14 1_555 1_555
H15 C14 1_555 1_555
C15 N2 1_555 1_555
C16 C15 1_555 1_555
C17 C16 1_555 1_555
H16 C17 1_555 1_555
C18 C17 1_555 1_555
C19 C18 1_555 1_555
H17 C19 1_555 1_555
C20 C15 1_555 1_555
C21 C20 1_555 1_555
H18 C21 1_555 1_555
H19 C21 1_555 1_555
H20 C21 1_555 1_555
C22 C16 1_555 1_555
H21 C22 1_555 1_555
H22 C22 1_555 1_555
H23 C22 1_555 1_555
C23 C18 1_555 1_555
H24 C23 1_555 1_555
H25 C23 1_555 1_555
H26 C23 1_555 1_555
C3 C4 1_555 1_555
C5 C6 1_555 1_555
C9 C10 1_555 1_555
C19 C20 1_555 1_555

#END
