
#######################################################################
#
#                 Cambridge Crystallographic Data Centre
#                                CCDC 
#
#######################################################################
#
# If this CIF has been generated from an entry in the Cambridge 
# Structural Database, then it will include bibliographic, chemical, 
# crystal, experimental, refinement or atomic coordinate data resulting 
# from the CCDC's data processing and validation procedures.
#
#######################################################################

data_HUYZAC
_chemical_formula_moiety         'C21 H24 O2'
_chemical_name_systematic        
r-2,c-6-bis(p-Tolyl)-t-3,t-5-dimethyltetrahydropyran-4-one
_chemical_properties_biological  'possible biological activity'
_symmetry_cell_setting           orthorhombic
_symmetry_space_group_name_H-M   'P b c a'
_symmetry_Int_Tables_number      61
_space_group_name_Hall           '-P 2ac 2ab'
loop_
_symmetry_equiv_pos_site_id
_symmetry_equiv_pos_as_xyz
1 x,y,z
2 1/2+x,y,1/2-z
3 x,1/2-y,1/2+z
4 1/2-x,1/2+y,z
5 -x,-y,-z
6 1/2-x,-y,1/2+z
7 -x,1/2+y,1/2-z
8 1/2+x,1/2-y,-z
_cell_length_a                   9.0894(18)
_cell_length_b                   25.813(3)
_cell_length_c                   15.1605(10)
_cell_angle_alpha                90
_cell_angle_beta                 90
_cell_angle_gamma                90
_cell_volume                     3557.03
_exptl_crystal_colour            colorless
_exptl_crystal_description       plate
_chemical_melting_point          413-414K
_cell_formula_units_Z            8
_exptl_crystal_recrystallization_method ethanol
loop_
_atom_site_label
_atom_site_type_symbol
_atom_site_fract_x
_atom_site_fract_y
_atom_site_fract_z
O1 O 0.3386(3) 0.21722(10) 0.47826(19)
C1 C 0.3436(6) 0.16638(16) 0.4427(3)
H1 H 0.4247 0.1644 0.4002
C2 C 0.1986(6) 0.15250(17) 0.3952(3)
H2 H 0.1225 0.1491 0.4406
C3 C 0.1514(6) 0.19571(19) 0.3344(3)
C4 C 0.1592(5) 0.24947(17) 0.3730(3)
H3 H 0.0870 0.2514 0.4209
C5 C 0.3134(5) 0.25661(16) 0.4140(3)
H4 H 0.3875 0.2535 0.3674
C6 C 0.2087(8) 0.10035(19) 0.3475(4)
H5 H 0.1212 0.0950 0.3132
H6 H 0.2182 0.0731 0.3901
H7 H 0.2929 0.1003 0.3093
O2 O 0.1122(5) 0.18778(14) 0.2588(2)
C7 C 0.1202(7) 0.2911(2) 0.3056(3)
H8 H 0.1898 0.2902 0.2580
H9 H 0.1231 0.3245 0.3334
H10 H 0.0232 0.2848 0.2831
C8 C 0.3748(5) 0.12970(17) 0.5178(3)
C9 C 0.4746(6) 0.08991(19) 0.5096(4)
H11 H 0.5260 0.0859 0.4570
C10 C 0.4997(7) 0.05590(19) 0.5778(4)
H12 H 0.5679 0.0294 0.5705
C11 C 0.4261(7) 0.06040(19) 0.6564(3)
C12 C 0.3242(6) 0.09967(19) 0.6647(3)
H13 H 0.2716 0.1030 0.7170
C13 C 0.2988(6) 0.13430(19) 0.5962(3)
H14 H 0.2302 0.1607 0.6033
C14 C 0.3312(5) 0.30789(16) 0.4588(3)
C15 C 0.3906(6) 0.34989(17) 0.4157(3)
H15 H 0.4251 0.3458 0.3584
C16 C 0.4003(6) 0.39790(19) 0.4551(3)
H16 H 0.4416 0.4254 0.4241
C17 C 0.3495(6) 0.40571(18) 0.5401(3)
C18 C 0.2935(6) 0.36365(19) 0.5842(3)
H17 H 0.2614 0.3677 0.6421
C19 C 0.2836(5) 0.31543(17) 0.5449(3)
H18 H 0.2447 0.2877 0.5765
C20 C 0.4543(8) 0.0228(2) 0.7318(4)
H19 H 0.4757 -0.0109 0.7083
H20 H 0.3686 0.0209 0.7686
H21 H 0.5365 0.0348 0.7660
C21 C 0.3542(7) 0.45915(19) 0.5817(4)
H22 H 0.3256 0.4568 0.6425
H23 H 0.2876 0.4817 0.5511
H24 H 0.4522 0.4728 0.5779
loop_
_geom_bond_atom_site_label_1
_geom_bond_atom_site_label_2
_geom_bond_site_symmetry_1
_geom_bond_site_symmetry_2
O1 C1 1_555 1_555
C1 H1 1_555 1_555
C2 C1 1_555 1_555
H2 C2 1_555 1_555
C3 C2 1_555 1_555
C4 C3 1_555 1_555
H3 C4 1_555 1_555
C5 O1 1_555 1_555
H4 C5 1_555 1_555
C6 C2 1_555 1_555
H5 C6 1_555 1_555
H6 C6 1_555 1_555
H7 C6 1_555 1_555
O2 C3 1_555 1_555
C7 C4 1_555 1_555
H8 C7 1_555 1_555
H9 C7 1_555 1_555
H10 C7 1_555 1_555
C8 C1 1_555 1_555
C9 C8 1_555 1_555
H11 C9 1_555 1_555
C10 C9 1_555 1_555
H12 C10 1_555 1_555
C11 C10 1_555 1_555
C12 C11 1_555 1_555
H13 C12 1_555 1_555
C13 C8 1_555 1_555
H14 C13 1_555 1_555
C14 C5 1_555 1_555
C15 C14 1_555 1_555
H15 C15 1_555 1_555
C16 C15 1_555 1_555
H16 C16 1_555 1_555
C17 C16 1_555 1_555
C18 C17 1_555 1_555
H17 C18 1_555 1_555
C19 C14 1_555 1_555
H18 C19 1_555 1_555
C20 C11 1_555 1_555
H19 C20 1_555 1_555
H20 C20 1_555 1_555
H21 C20 1_555 1_555
C21 C17 1_555 1_555
H22 C21 1_555 1_555
H23 C21 1_555 1_555
H24 C21 1_555 1_555
C4 C5 1_555 1_555
C12 C13 1_555 1_555
C18 C19 1_555 1_555

#END
