
#######################################################################
#
#                 Cambridge Crystallographic Data Centre
#                                CCDC 
#
#######################################################################
#
# If this CIF has been generated from an entry in the Cambridge 
# Structural Database, then it will include bibliographic, chemical, 
# crystal, experimental, refinement or atomic coordinate data resulting 
# from the CCDC's data processing and validation procedures.
#
#######################################################################

data_HUZBIN
_chemical_formula_moiety         'C7 H5 Cl3 N2 O3'
_chemical_name_systematic        1-Methyl-4-nitro-2-(trichloroacetyl)pyrrole
_symmetry_cell_setting           orthorhombic
_symmetry_space_group_name_H-M   'P b c a'
_symmetry_Int_Tables_number      61
_space_group_name_Hall           '-P 2ac 2ab'
loop_
_symmetry_equiv_pos_site_id
_symmetry_equiv_pos_as_xyz
1 x,y,z
2 1/2+x,y,1/2-z
3 x,1/2-y,1/2+z
4 1/2-x,1/2+y,z
5 -x,-y,-z
6 1/2-x,-y,1/2+z
7 -x,1/2+y,1/2-z
8 1/2+x,1/2-y,-z
_cell_length_a                   11.590(4)
_cell_length_b                   10.603(3)
_cell_length_c                   16.935(5)
_cell_angle_alpha                90
_cell_angle_beta                 90
_cell_angle_gamma                90
_cell_volume                     2081.12
_exptl_crystal_colour            yellow
_exptl_crystal_description       block
_cell_formula_units_Z            8
_exptl_crystal_recrystallization_method chloroform
loop_
_atom_site_label
_atom_site_type_symbol
_atom_site_fract_x
_atom_site_fract_y
_atom_site_fract_z
O1 O 0.2386(2) -0.0288(2) 1.05488(14)
Cl1 Cl 0.43332(7) 0.09579(9) 0.70167(5)
Cl2 Cl 0.66325(7) 0.18290(9) 0.67657(5)
Cl3 Cl 0.62763(9) -0.05161(8) 0.75825(6)
C1 C 0.4904(2) 0.1345(2) 0.88368(15)
C2 C 0.4192(2) 0.0315(3) 0.88783(16)
H1 H 0.4102 -0.0310 0.8498
N1 N 0.2791(2) -0.0471(2) 0.98913(16)
N2 N 0.47657(19) 0.2036(2) 0.95299(13)
C3 C 0.5735(2) 0.1735(3) 0.82389(17)
C4 C 0.3628(2) 0.0394(3) 0.96037(17)
O2 O 0.6432(2) 0.2557(2) 0.83321(14)
C5 C 0.5730(2) 0.1024(3) 0.74347(17)
C6 C 0.3992(2) 0.1462(3) 0.99869(17)
H2 H 0.3743 0.1737 1.0480
C7 C 0.5283(3) 0.3257(3) 0.97263(19)
H3 H 0.4935 0.3580 1.0199
H4 H 0.5155 0.3838 0.9300
H5 H 0.6097 0.3153 0.9808
O3 O 0.2513(2) -0.1352(2) 0.94712(16)
loop_
_geom_bond_atom_site_label_1
_geom_bond_atom_site_label_2
_geom_bond_site_symmetry_1
_geom_bond_site_symmetry_2
O1 N1 1_555 1_555
Cl1 C5 1_555 1_555
Cl2 C5 1_555 1_555
Cl3 C5 1_555 1_555
C1 C2 1_555 1_555
C2 H1 1_555 1_555
N1 C4 1_555 1_555
N2 C1 1_555 1_555
C3 C1 1_555 1_555
C4 C2 1_555 1_555
O2 C3 1_555 1_555
C5 C3 1_555 1_555
C6 N2 1_555 1_555
H2 C6 1_555 1_555
C7 N2 1_555 1_555
H3 C7 1_555 1_555
H4 C7 1_555 1_555
H5 C7 1_555 1_555
O3 N1 1_555 1_555
C4 C6 1_555 1_555

#END
