
#######################################################################
#
#                 Cambridge Crystallographic Data Centre
#                                CCDC 
#
#######################################################################
#
# If this CIF has been generated from an entry in the Cambridge 
# Structural Database, then it will include bibliographic, chemical, 
# crystal, experimental, refinement or atomic coordinate data resulting 
# from the CCDC's data processing and validation procedures.
#
#######################################################################

data_HUZCAI
_chemical_formula_moiety         'C18 H8 Cl2 N6 O4,C8 H20 N1 1+,C1 H3 O3 S1 1-'
_chemical_name_systematic        
'tetraethylammonium 5,17-dichloro-2,8,14,20-tetraoxa-4,6,16,18,26,28-hexaazapentacyclo[19.3.1.1^3,7^.1^9,13^.1^15,19^]octacosa-1(25),3(28),4,6,9(27),10,12,15(26),16,18,21,23-dodecaene methanesulfonate'
_symmetry_cell_setting           orthorhombic
_symmetry_space_group_name_H-M   'C m c a'
_symmetry_Int_Tables_number      64
_space_group_name_Hall           '-C 2ac 2'
loop_
_symmetry_equiv_pos_site_id
_symmetry_equiv_pos_as_xyz
1 x,y,z
2 -x,1/2-y,1/2+z
3 x,-y,-z
4 -x,1/2+y,1/2-z
5 1/2+x,1/2+y,z
6 1/2-x,-y,1/2+z
7 1/2+x,1/2-y,-z
8 1/2-x,y,1/2-z
9 -x,-y,-z
10 x,1/2+y,1/2-z
11 -x,y,z
12 x,1/2-y,1/2+z
13 1/2-x,1/2-y,-z
14 1/2+x,y,1/2-z
15 1/2-x,1/2+y,z
16 1/2+x,-y,1/2+z
_cell_length_a                   15.570(5)
_cell_length_b                   16.638(5)
_cell_length_c                   23.910(5)
_cell_angle_alpha                90
_cell_angle_beta                 90
_cell_angle_gamma                90
_cell_volume                     6193.97
_exptl_crystal_colour            colorless
_exptl_crystal_description       rod
_cell_formula_units_Z            8
loop_
_atom_site_label
_atom_site_type_symbol
_atom_site_fract_x
_atom_site_fract_y
_atom_site_fract_z
Cl1 Cl 0.86357(8) 0.22272(8) 0.66088(6)
O1 O 0.65354(17) 0.10231(15) 0.53919(11)
O2 O 0.65331(19) 0.37588(15) 0.55724(12)
N1 N 0.7495(2) 0.16094(19) 0.59540(14)
N2 N 0.7491(2) 0.30338(19) 0.60534(14)
N3 N 0.6495(2) 0.23979(17) 0.54387(13)
C1 C 0.6843(2) 0.1711(2) 0.56013(15)
C2 C 0.7781(3) 0.2298(2) 0.61501(17)
C3 C 0.6841(3) 0.3027(2) 0.56891(16)
C4 C 0.5753(3) 0.3810(2) 0.52753(16)
C5 C 0.5000 0.3660(3) 0.5561(2)
H1 H 0.5000 0.3463 0.5934
C6 C 0.5771(3) 0.4065(2) 0.47271(17)
H2 H 0.6302 0.4152 0.4541
C7 C 0.5000 0.4190(3) 0.4455(3)
H3 H 0.5000 0.4364 0.4076
C8 C 0.5752(2) 0.10619(19) 0.50927(15)
C9 C 0.5000 0.1090(3) 0.5392(2)
H4 H 0.5000 0.1127 0.5789
C10 C 0.5771(3) 0.1034(2) 0.45179(16)
H5 H 0.6302 0.1021 0.4322
C11 C 0.5000 0.1024(3) 0.4233(2)
H6 H 0.5000 0.1010 0.3836
Cl1J Cl 0.13643(8) 0.22272(8) 0.66088(6)
O1J O 0.34646(17) 0.10231(15) 0.53919(11)
O2J O 0.34669(19) 0.37588(15) 0.55724(12)
N1J N 0.2505(2) 0.16094(19) 0.59540(14)
N2J N 0.2509(2) 0.30338(19) 0.60534(14)
N3J N 0.3505(2) 0.23979(17) 0.54387(13)
C1J C 0.3157(2) 0.1711(2) 0.56013(15)
C2J C 0.2219(3) 0.2298(2) 0.61501(17)
C3J C 0.3159(3) 0.3027(2) 0.56891(16)
C4J C 0.4247(3) 0.3810(2) 0.52753(16)
C6J C 0.4229(3) 0.4065(2) 0.47271(17)
H2J H 0.3698 0.4152 0.4541
C8J C 0.4248(2) 0.10619(19) 0.50927(15)
C10J C 0.4229(3) 0.1034(2) 0.45179(16)
H5J H 0.3698 0.1021 0.4322
S1 S 0.5000 0.78199(10) 0.30108(6)
O3 O 0.4243(3) 0.7825(3) 0.33445(18)
O4 O 0.5000 0.8409(3) 0.25653(17)
C12 C 0.5000 0.6876(4) 0.2669(3)
O3J O 0.5757(3) 0.7825(3) 0.33445(18)
N4 N 0.2500 0.5035(3) 0.7500
C13 C 0.3066(3) 0.5578(2) 0.78530(16)
H7 H 0.3401 0.5929 0.7600
H8 H 0.2692 0.5928 0.8082
C14 C 0.3682(3) 0.5148(3) 0.8237(2)
H9 H 0.3358 0.4849 0.8520
H10 H 0.4054 0.5542 0.8421
H11 H 0.4034 0.4774 0.8018
C15 C 0.3043(3) 0.4493(3) 0.71312(17)
H12 H 0.3376 0.4125 0.7374
H13 H 0.2654 0.4159 0.6899
C16 C 0.3661(3) 0.4931(3) 0.67477(19)
H14 H 0.4004 0.4538 0.6539
H15 H 0.4043 0.5272 0.6971
H16 H 0.3337 0.5266 0.6485
C13G C 0.1934(3) 0.5578(2) 0.71470(16)
H7G H 0.1599 0.5929 0.7400
H8G H 0.2308 0.5928 0.6918
C14G C 0.1318(3) 0.5148(3) 0.6763(2)
H9G H 0.1642 0.4849 0.6480
H10G H 0.0946 0.5542 0.6579
H11G H 0.0966 0.4774 0.6982
C15G C 0.1957(3) 0.4493(3) 0.78688(17)
H12G H 0.1624 0.4125 0.7626
H13G H 0.2346 0.4159 0.8101
C16G C 0.1339(3) 0.4931(3) 0.82523(19)
H14G H 0.0996 0.4538 0.8461
H15G H 0.0957 0.5272 0.8029
H16G H 0.1663 0.5266 0.8515
loop_
_geom_bond_atom_site_label_1
_geom_bond_atom_site_label_2
_geom_bond_site_symmetry_1
_geom_bond_site_symmetry_2
Cl1 C2 1_555 1_555
O1 C1 1_555 1_555
O2 C3 1_555 1_555
N1 C1 1_555 1_555
N2 C2 1_555 1_555
N3 C1 1_555 1_555
C2 N1 1_555 1_555
C3 N2 1_555 1_555
C4 O2 1_555 1_555
C5 C4 1_555 1_555
H1 C5 1_555 1_555
C6 C4 1_555 1_555
H2 C6 1_555 1_555
C7 C6 1_555 1_555
H3 C7 1_555 1_555
C8 O1 1_555 1_555
C9 C8 1_555 1_555
H4 C9 1_555 1_555
C10 C8 1_555 1_555
H5 C10 1_555 1_555
C11 C10 1_555 1_555
H6 C11 1_555 1_555
S1 O3 1_555 1_555
O4 S1 1_555 1_555
C12 S1 1_555 1_555
N4 C13 1_555 1_555
C13 H7 1_555 1_555
H8 C13 1_555 1_555
C14 C13 1_555 1_555
H9 C14 1_555 1_555
H10 C14 1_555 1_555
H11 C14 1_555 1_555
C15 N4 1_555 1_555
H12 C15 1_555 1_555
H13 C15 1_555 1_555
C16 C15 1_555 1_555
H14 C16 1_555 1_555
H15 C16 1_555 1_555
H16 C16 1_555 1_555
Cl1J C2J 1_555 1_555
O1J C1J 1_555 1_555
O2J C3J 1_555 1_555
N1J C1J 1_555 1_555
N2J C2J 1_555 1_555
N3J C1J 1_555 1_555
C2J N1J 1_555 1_555
C3J N2J 1_555 1_555
C4J C5 1_555 1_555
C6J C7 1_555 1_555
H2J C6J 1_555 1_555
C8J C9 1_555 1_555
C10J C11 1_555 1_555
H5J C10J 1_555 1_555
O3J S1 1_555 1_555
C13G N4 1_555 1_555
H7G C13G 1_555 1_555
H8G C13G 1_555 1_555
C14G C13G 1_555 1_555
H9G C14G 1_555 1_555
H10G C14G 1_555 1_555
H11G C14G 1_555 1_555
C15G N4 1_555 1_555
H12G C15G 1_555 1_555
H13G C15G 1_555 1_555
C16G C15G 1_555 1_555
H14G C16G 1_555 1_555
H15G C16G 1_555 1_555
H16G C16G 1_555 1_555
N3 C3 1_555 1_555
O1J C8J 1_555 1_555
O2J C4J 1_555 1_555
N3J C3J 1_555 1_555
C4J C6J 1_555 1_555
C8J C10J 1_555 1_555

#END
