
#######################################################################
#
#                 Cambridge Crystallographic Data Centre
#                                CCDC 
#
#######################################################################
#
# If this CIF has been generated from an entry in the Cambridge 
# Structural Database, then it will include bibliographic, chemical, 
# crystal, experimental, refinement or atomic coordinate data resulting 
# from the CCDC's data processing and validation procedures.
#
#######################################################################

data_HUZFUF
_chemical_formula_moiety         'C36 H28 O4'
_chemical_name_systematic        
8-(2-oxo-2-phenylethyl)-3-(2-(2-(3-oxo-3-phenylprop-1-en-1-yl)phenyl)vinyl)-3,3a,8,8a-tetrahydro-1H-indeno[1,2-c]furan-1-one
_symmetry_cell_setting           orthorhombic
_symmetry_space_group_name_H-M   'P 21 21 21'
_symmetry_Int_Tables_number      19
_space_group_name_Hall           'P 2ac 2ab'
loop_
_symmetry_equiv_pos_site_id
_symmetry_equiv_pos_as_xyz
1 x,y,z
2 1/2+x,1/2-y,-z
3 -x,1/2+y,1/2-z
4 1/2-x,-y,1/2+z
_cell_length_a                   9.2630(12)
_cell_length_b                   12.8186(16)
_cell_length_c                   22.369(3)
_cell_angle_alpha                90
_cell_angle_beta                 90
_cell_angle_gamma                90
_cell_volume                     2656.07
_exptl_crystal_colour            colorless
_exptl_crystal_description       prism
_cell_formula_units_Z            4
loop_
_atom_site_label
_atom_site_type_symbol
_atom_site_fract_x
_atom_site_fract_y
_atom_site_fract_z
O1 O 0.47065(13) 0.49561(9) 0.44656(5)
O2 O 0.35609(13) 0.39928(11) 0.37892(5)
O3 O -0.12859(14) 0.68337(11) 0.48065(6)
O4 O 0.34384(14) 0.12513(11) 0.39337(5)
C1 C 0.43820(17) 0.40306(13) 0.42053(6)
C2 C 0.51449(16) 0.31392(11) 0.45188(6)
H1 H 0.4451 0.2737 0.4772
C3 C 0.60053(16) 0.23906(11) 0.41021(6)
H2 H 0.6094 0.1706 0.4314
C4 C 0.74981(16) 0.28885(11) 0.40926(6)
C5 C 0.76428(16) 0.36167(11) 0.45508(6)
C6 C 0.89396(17) 0.41478(12) 0.46369(7)
H3 H 0.9036 0.4639 0.4952
C7 C 1.00879(18) 0.39487(13) 0.42553(8)
H4 H 1.0974 0.4311 0.4307
C8 C 0.99480(18) 0.32209(13) 0.37978(8)
H5 H 1.0742 0.3087 0.3540
C9 C 0.86574(18) 0.26873(12) 0.37146(7)
H6 H 0.8568 0.2189 0.3402
C10 C 0.62662(16) 0.37021(11) 0.49127(6)
H7 H 0.6367 0.3359 0.5312
C11 C 0.56703(18) 0.48275(12) 0.49716(6)
H8 H 0.6487 0.5334 0.4935
C12 C 0.48883(19) 0.50234(13) 0.55500(7)
H9 H 0.5470 0.5136 0.5894
C13 C 0.34732(18) 0.50551(12) 0.56298(7)
H10 H 0.2882 0.4954 0.5288
C14 C 0.27362(18) 0.52340(11) 0.62075(7)
C15 C 0.13227(18) 0.56437(11) 0.62454(7)
C16 C 0.0655(2) 0.57108(13) 0.68073(7)
H11 H -0.0312 0.5953 0.6831
C17 C 0.1362(2) 0.54349(14) 0.73257(8)
H12 H 0.0892 0.5497 0.7701
C18 C 0.2766(2) 0.50655(15) 0.72935(7)
H13 H 0.3271 0.4889 0.7649
C19 C 0.3431(2) 0.49542(13) 0.67423(7)
H14 H 0.4383 0.4681 0.6726
C20 C 0.04829(18) 0.60238(12) 0.57314(7)
H15 H -0.0530 0.5911 0.5745
C21 C 0.09935(18) 0.65098(13) 0.52488(7)
H16 H 0.1995 0.6664 0.5225
C22 C 0.00338(19) 0.68157(12) 0.47482(8)
C23 C 0.07174(19) 0.70600(12) 0.41611(7)
C24 C -0.0116(2) 0.75202(14) 0.37155(8)
H17 H -0.1093 0.7698 0.3795
C25 C 0.0465(3) 0.77214(16) 0.31577(9)
H18 H -0.0110 0.8039 0.2857
C26 C 0.1880(3) 0.74601(18) 0.30384(9)
H19 H 0.2283 0.7605 0.2657
C27 C 0.2710(3) 0.6989(2) 0.34723(10)
H20 H 0.3678 0.6794 0.3386
C28 C 0.2140(2) 0.67981(16) 0.40327(8)
H21 H 0.2724 0.6486 0.4332
C29 C 0.53984(17) 0.21699(12) 0.34804(6)
H22 H 0.5235 0.2843 0.3275
H23 H 0.6132 0.1780 0.3248
C30 C 0.39984(17) 0.15539(12) 0.34733(7)
C31 C 0.33770(16) 0.12641(12) 0.28780(7)
C32 C 0.23613(19) 0.04626(15) 0.28505(8)
H24 H 0.2023 0.0151 0.3210
C33 C 0.1842(2) 0.01161(16) 0.23056(9)
H25 H 0.1155 -0.0434 0.2292
C34 C 0.2318(2) 0.05668(16) 0.17818(8)
H26 H 0.1963 0.0327 0.1408
C35 C 0.3313(2) 0.13667(16) 0.18029(8)
H27 H 0.3638 0.1680 0.1442
C36 C 0.38418(19) 0.17152(13) 0.23476(7)
H28 H 0.4527 0.2267 0.2358
loop_
_geom_bond_atom_site_label_1
_geom_bond_atom_site_label_2
_geom_bond_site_symmetry_1
_geom_bond_site_symmetry_2
O1 C1 1_555 1_555
O2 C1 1_555 1_555
O3 C22 1_555 1_555
O4 C30 1_555 1_555
C1 C2 1_555 1_555
C2 H1 1_555 1_555
C3 C2 1_555 1_555
H2 C3 1_555 1_555
C4 C3 1_555 1_555
C5 C4 1_555 1_555
C6 C5 1_555 1_555
H3 C6 1_555 1_555
C7 C6 1_555 1_555
H4 C7 1_555 1_555
C8 C7 1_555 1_555
H5 C8 1_555 1_555
C9 C4 1_555 1_555
H6 C9 1_555 1_555
C10 C2 1_555 1_555
H7 C10 1_555 1_555
C11 O1 1_555 1_555
H8 C11 1_555 1_555
C12 C11 1_555 1_555
H9 C12 1_555 1_555
C13 C12 1_555 1_555
H10 C13 1_555 1_555
C14 C13 1_555 1_555
C15 C14 1_555 1_555
C16 C15 1_555 1_555
H11 C16 1_555 1_555
C17 C16 1_555 1_555
H12 C17 1_555 1_555
C18 C17 1_555 1_555
H13 C18 1_555 1_555
C19 C14 1_555 1_555
H14 C19 1_555 1_555
C20 C15 1_555 1_555
H15 C20 1_555 1_555
C21 C20 1_555 1_555
H16 C21 1_555 1_555
C22 C21 1_555 1_555
C23 C22 1_555 1_555
C24 C23 1_555 1_555
H17 C24 1_555 1_555
C25 C24 1_555 1_555
H18 C25 1_555 1_555
C26 C25 1_555 1_555
H19 C26 1_555 1_555
C27 C26 1_555 1_555
H20 C27 1_555 1_555
C28 C23 1_555 1_555
H21 C28 1_555 1_555
C29 C3 1_555 1_555
H22 C29 1_555 1_555
H23 C29 1_555 1_555
C30 C29 1_555 1_555
C31 C30 1_555 1_555
C32 C31 1_555 1_555
H24 C32 1_555 1_555
C33 C32 1_555 1_555
H25 C33 1_555 1_555
C34 C33 1_555 1_555
H26 C34 1_555 1_555
C35 C34 1_555 1_555
H27 C35 1_555 1_555
C36 C31 1_555 1_555
H28 C36 1_555 1_555
C5 C10 1_555 1_555
C8 C9 1_555 1_555
C10 C11 1_555 1_555
C18 C19 1_555 1_555
C27 C28 1_555 1_555
C35 C36 1_555 1_555

#END
