
#######################################################################
#
#                 Cambridge Crystallographic Data Centre
#                                CCDC 
#
#######################################################################
#
# If this CIF has been generated from an entry in the Cambridge 
# Structural Database, then it will include bibliographic, chemical, 
# crystal, experimental, refinement or atomic coordinate data resulting 
# from the CCDC's data processing and validation procedures.
#
#######################################################################

data_HUZGIU
_chemical_formula_moiety         'C30 H20 F2'
_chemical_name_systematic        9,10-bis(2-(4-fluorophenyl)vinyl)anthracene
_symmetry_cell_setting           triclinic
_symmetry_space_group_name_H-M   'P -1'
_symmetry_Int_Tables_number      2
_space_group_name_Hall           '-P 1'
loop_
_symmetry_equiv_pos_site_id
_symmetry_equiv_pos_as_xyz
1 x,y,z
2 -x,-y,-z
_cell_length_a                   9.4080(19)
_cell_length_b                   10.249(2)
_cell_length_c                   12.766(3)
_cell_angle_alpha                106.25(3)
_cell_angle_beta                 90.87(3)
_cell_angle_gamma                115.16(3)
_cell_volume                     1056.81
_exptl_crystal_colour            yellow
_exptl_crystal_description       needle
_cell_formula_units_Z            2
loop_
_atom_site_label
_atom_site_type_symbol
_atom_site_fract_x
_atom_site_fract_y
_atom_site_fract_z
F1 F 0.5308(4) 0.1269(3) -0.24153(18)
C1 C 0.8501(4) 0.1820(4) 0.3859(3)
H1 H 0.8139 0.1456 0.3104
C2 C 0.8329(5) 0.0817(5) 0.4404(3)
H2 H 0.7862 -0.0220 0.4024
C3 C 0.8861(5) 0.1348(5) 0.5545(3)
H3 H 0.8741 0.0656 0.5918
C4 C 0.9543(5) 0.2847(5) 0.6110(3)
H4 H 0.9879 0.3167 0.6866
C5 C 0.9761(4) 0.3951(4) 0.5574(3)
C6 C 0.9220(4) 0.3421(4) 0.4408(3)
C7 C 0.9470(4) 0.4482(4) 0.3844(3)
C8 C 0.8987(5) 0.3988(4) 0.2624(3)
H5 H 0.9797 0.4295 0.2208
C9 C 0.7564(5) 0.3179(5) 0.2092(3)
H6 H 0.6769 0.2853 0.2516
C10 C 0.7028(5) 0.2700(4) 0.0887(3)
C11 C 0.5431(5) 0.2027(5) 0.0504(3)
H7 H 0.4719 0.1887 0.1007
C12 C 0.4854(5) 0.1554(5) -0.0594(3)
H8 H 0.3765 0.1098 -0.0833
C13 C 0.5875(6) 0.1756(5) -0.1322(3)
C14 C 0.7480(6) 0.2424(5) -0.1007(3)
H9 H 0.8169 0.2556 -0.1526
C15 C 0.8062(5) 0.2903(5) 0.0117(3)
H10 H 0.9152 0.3363 0.0352
F1A F 1.4692(4) 0.8731(3) 1.24153(18)
C1A C 1.1499(4) 0.8180(4) 0.6141(3)
H1A H 1.1861 0.8544 0.6896
C2A C 1.1671(5) 0.9183(5) 0.5596(3)
H2A H 1.2138 1.0220 0.5976
C3A C 1.1139(5) 0.8652(5) 0.4455(3)
H3A H 1.1259 0.9344 0.4082
C4A C 1.0457(5) 0.7153(5) 0.3890(3)
H4A H 1.0121 0.6833 0.3134
C5A C 1.0239(4) 0.6049(4) 0.4426(3)
C6A C 1.0780(4) 0.6579(4) 0.5592(3)
C7A C 1.0530(4) 0.5518(4) 0.6156(3)
C8A C 1.1013(5) 0.6012(4) 0.7376(3)
H5A H 1.0203 0.5705 0.7792
C9A C 1.2436(5) 0.6821(5) 0.7908(3)
H6A H 1.3231 0.7147 0.7484
C10A C 1.2972(5) 0.7300(4) 0.9113(3)
C11A C 1.4569(5) 0.7973(5) 0.9496(3)
H7A H 1.5281 0.8113 0.8993
C12A C 1.5146(5) 0.8446(5) 1.0594(3)
H8A H 1.6235 0.8902 1.0833
C13A C 1.4125(6) 0.8244(5) 1.1322(3)
C14A C 1.2520(6) 0.7576(5) 1.1007(3)
H9A H 1.1831 0.7444 1.1526
C15A C 1.1938(5) 0.7097(5) 0.9883(3)
H10A H 1.0848 0.6637 0.9648
F2 F 1.5667(3) 0.4220(3) 0.71534(19)
C16 C 1.0370(4) 0.0720(4) -0.0824(3)
C17 C 1.0869(5) 0.1496(4) -0.1626(3)
H11 H 1.0437 0.0975 -0.2366
C18 C 1.1962(5) 0.2976(5) -0.1325(3)
H12 H 1.2259 0.3455 -0.1861
C19 C 1.2653(5) 0.3796(4) -0.0215(3)
H13 H 1.3381 0.4817 -0.0018
C20 C 1.2256(4) 0.3097(4) 0.0565(3)
H14 H 1.2736 0.3646 0.1294
C21 C 1.1122(4) 0.1542(4) 0.0302(3)
C22 C 1.0763(4) 0.0819(4) 0.1114(3)
C23 C 1.1590(4) 0.1680(4) 0.2268(3)
H15 H 1.1388 0.2485 0.2649
C24 C 1.2583(4) 0.1400(4) 0.2793(3)
H16 H 1.2791 0.0609 0.2391
C25 C 1.3405(4) 0.2180(4) 0.3936(3)
C26 C 1.4602(4) 0.1894(4) 0.4300(3)
H17 H 1.4891 0.1225 0.3806
C27 C 1.5378(5) 0.2568(5) 0.5372(3)
H18 H 1.6183 0.2366 0.5604
C28 C 1.4929(5) 0.3541(4) 0.6082(3)
C29 C 1.3752(5) 0.3862(4) 0.5777(3)
H19 H 1.3468 0.4525 0.6283
C30 C 1.2995(4) 0.3180(4) 0.4701(3)
H20 H 1.2193 0.3392 0.4479
F2A F 0.4333(3) -0.4220(3) -0.71534(19)
C16A C 0.9630(4) -0.0720(4) 0.0824(3)
C17A C 0.9131(5) -0.1496(4) 0.1626(3)
H11A H 0.9563 -0.0975 0.2366
C18A C 0.8038(5) -0.2976(5) 0.1325(3)
H12A H 0.7741 -0.3455 0.1861
C19A C 0.7347(5) -0.3796(4) 0.0215(3)
H13A H 0.6619 -0.4817 0.0018
C20A C 0.7744(4) -0.3097(4) -0.0565(3)
H14A H 0.7264 -0.3646 -0.1294
C21A C 0.8878(4) -0.1542(4) -0.0302(3)
C22A C 0.9237(4) -0.0819(4) -0.1114(3)
C23A C 0.8410(4) -0.1680(4) -0.2268(3)
H15A H 0.8612 -0.2485 -0.2649
C24A C 0.7417(4) -0.1400(4) -0.2793(3)
H16A H 0.7209 -0.0609 -0.2391
C25A C 0.6595(4) -0.2180(4) -0.3936(3)
C26A C 0.5398(4) -0.1894(4) -0.4300(3)
H17A H 0.5109 -0.1225 -0.3806
C27A C 0.4622(5) -0.2568(5) -0.5372(3)
H18A H 0.3817 -0.2366 -0.5604
C28A C 0.5071(5) -0.3541(4) -0.6082(3)
C29A C 0.6248(5) -0.3862(4) -0.5777(3)
H19A H 0.6532 -0.4525 -0.6283
C30A C 0.7005(4) -0.3180(4) -0.4701(3)
H20A H 0.7807 -0.3392 -0.4479
loop_
_geom_bond_atom_site_label_1
_geom_bond_atom_site_label_2
_geom_bond_site_symmetry_1
_geom_bond_site_symmetry_2
F1 C13 1_555 1_555
C1 H1 1_555 1_555
C2 C1 1_555 1_555
H2 C2 1_555 1_555
C3 C2 1_555 1_555
H3 C3 1_555 1_555
C4 C3 1_555 1_555
H4 C4 1_555 1_555
C5 C4 1_555 1_555
C6 C1 1_555 1_555
C7 C6 1_555 1_555
C8 C7 1_555 1_555
H5 C8 1_555 1_555
C9 C8 1_555 1_555
H6 C9 1_555 1_555
C10 C9 1_555 1_555
C11 C10 1_555 1_555
H7 C11 1_555 1_555
C12 C11 1_555 1_555
H8 C12 1_555 1_555
C13 C12 1_555 1_555
C14 C13 1_555 1_555
H9 C14 1_555 1_555
C15 C10 1_555 1_555
H10 C15 1_555 1_555
F2 C28 1_555 1_555
C16 C17 1_555 1_555
C17 H11 1_555 1_555
C18 C17 1_555 1_555
H12 C18 1_555 1_555
C19 C18 1_555 1_555
H13 C19 1_555 1_555
C20 C19 1_555 1_555
H14 C20 1_555 1_555
C21 C16 1_555 1_555
C22 C21 1_555 1_555
C23 C22 1_555 1_555
H15 C23 1_555 1_555
C24 C23 1_555 1_555
H16 C24 1_555 1_555
C25 C24 1_555 1_555
C26 C25 1_555 1_555
H17 C26 1_555 1_555
C27 C26 1_555 1_555
H18 C27 1_555 1_555
C28 C27 1_555 1_555
C29 C28 1_555 1_555
H19 C29 1_555 1_555
C30 C25 1_555 1_555
H20 C30 1_555 1_555
F1A C13A 1_555 1_555
C1A H1A 1_555 1_555
C2A C1A 1_555 1_555
H2A C2A 1_555 1_555
C3A C2A 1_555 1_555
H3A C3A 1_555 1_555
C4A C3A 1_555 1_555
H4A C4A 1_555 1_555
C5A C7 1_555 1_555
C6A C1A 1_555 1_555
C7A C5 1_555 1_555
C8A C7A 1_555 1_555
H5A C8A 1_555 1_555
C9A C8A 1_555 1_555
H6A C9A 1_555 1_555
C10A C9A 1_555 1_555
C11A C10A 1_555 1_555
H7A C11A 1_555 1_555
C12A C11A 1_555 1_555
H8A C12A 1_555 1_555
C13A C12A 1_555 1_555
C14A C13A 1_555 1_555
H9A C14A 1_555 1_555
C15A C10A 1_555 1_555
H10A C15A 1_555 1_555
F2A C28A 1_555 1_555
C16A C22 1_555 1_555
C17A C16A 1_555 1_555
H11A C17A 1_555 1_555
C18A C17A 1_555 1_555
H12A C18A 1_555 1_555
C19A C18A 1_555 1_555
H13A C19A 1_555 1_555
C20A C19A 1_555 1_555
H14A C20A 1_555 1_555
C21A C16A 1_555 1_555
C22A C16 1_555 1_555
C23A C22A 1_555 1_555
H15A C23A 1_555 1_555
C24A C23A 1_555 1_555
H16A C24A 1_555 1_555
C25A C24A 1_555 1_555
C26A C25A 1_555 1_555
H17A C26A 1_555 1_555
C27A C26A 1_555 1_555
H18A C27A 1_555 1_555
C28A C27A 1_555 1_555
C29A C28A 1_555 1_555
H19A C29A 1_555 1_555
C30A C25A 1_555 1_555
H20A C30A 1_555 1_555
C5 C6 1_555 1_555
C14 C15 1_555 1_555
C20 C21 1_555 1_555
C29 C30 1_555 1_555
C4A C5A 1_555 1_555
C5A C6A 1_555 1_555
C6A C7A 1_555 1_555
C14A C15A 1_555 1_555
C20A C21A 1_555 1_555
C21A C22A 1_555 1_555
C29A C30A 1_555 1_555

#END
