
#######################################################################
#
#                 Cambridge Crystallographic Data Centre
#                                CCDC 
#
#######################################################################
#
# If this CIF has been generated from an entry in the Cambridge 
# Structural Database, then it will include bibliographic, chemical, 
# crystal, experimental, refinement or atomic coordinate data resulting 
# from the CCDC's data processing and validation procedures.
#
#######################################################################

data_HUZGUG
_chemical_formula_moiety         'C30 H20 Br2'
_chemical_name_systematic        9,10-bis(2-(4-bromophenyl)vinyl)anthracene
_symmetry_cell_setting           monoclinic
_symmetry_space_group_name_H-M   'P 21/n'
_symmetry_Int_Tables_number      14
_space_group_name_Hall           '-P 2yn'
loop_
_symmetry_equiv_pos_site_id
_symmetry_equiv_pos_as_xyz
1 x,y,z
2 1/2-x,1/2+y,1/2-z
3 -x,-y,-z
4 1/2+x,1/2-y,1/2+z
_cell_length_a                   4.6220(9)
_cell_length_b                   27.568(6)
_cell_length_c                   9.2820(19)
_cell_angle_alpha                90
_cell_angle_beta                 103.74(3)
_cell_angle_gamma                90
_cell_volume                     1148.86
_exptl_crystal_colour            brown
_exptl_crystal_description       Prism
_cell_formula_units_Z            2
loop_
_atom_site_label
_atom_site_type_symbol
_atom_site_fract_x
_atom_site_fract_y
_atom_site_fract_z
Br1 Br 0.8675(3) 0.14732(3) 0.95825(10)
C1 C 0.1649(18) 0.4440(3) 0.7579(7)
H1 H 0.2047 0.4115 0.7443
C2 C -0.055(2) 0.4666(3) 0.6630(10)
H2 H -0.1567 0.4502 0.5787
C3 C -0.138(2) 0.5141(3) 0.6856(10)
H3 H -0.3027 0.5274 0.6195
C4 C 0.003(2) 0.5403(3) 0.7945(8)
H4 H -0.0565 0.5721 0.8053
C5 C 0.2597(19) 0.5197(2) 0.9013(7)
C6 C 0.344(2) 0.4711(3) 0.8846(9)
C7 C 0.578(2) 0.4513(2) 0.9848(8)
C8 C 0.6574(19) 0.4010(3) 0.9664(9)
H5 H 0.7517 0.3960 0.8896
C9 C 0.622(2) 0.3620(3) 1.0365(8)
H6 H 0.5382 0.3679 1.1167
C10 C 0.6810(13) 0.3119(2) 1.0187(6)
C11 C 0.887(2) 0.2973(3) 0.9346(9)
H7 H 0.9811 0.3205 0.8889
C12 C 0.946(2) 0.2489(3) 0.9212(9)
H8 H 1.0881 0.2400 0.8701
C13 C 0.8033(18) 0.2134(2) 0.9803(6)
C14 C 0.585(3) 0.2288(3) 1.0624(10)
H9 H 0.4803 0.2063 1.1046
C15 C 0.545(2) 0.2746(3) 1.0740(10)
H10 H 0.4051 0.2836 1.1266
Br1B Br 0.1325(3) 0.85268(3) 1.04175(10)
C1B C 0.8351(18) 0.5560(3) 1.2421(7)
H1B H 0.7953 0.5885 1.2557
C2B C 1.055(2) 0.5334(3) 1.3370(10)
H2B H 1.1567 0.5498 1.4213
C3B C 1.138(2) 0.4859(3) 1.3144(10)
H3B H 1.3027 0.4726 1.3805
C4B C 0.997(2) 0.4597(3) 1.2055(8)
H4B H 1.0565 0.4279 1.1947
C5B C 0.7403(19) 0.4803(2) 1.0987(7)
C6B C 0.656(2) 0.5289(3) 1.1154(9)
C7B C 0.422(2) 0.5487(2) 1.0152(8)
C8B C 0.3426(19) 0.5990(3) 1.0336(9)
H5B H 0.2483 0.6040 1.1104
C9B C 0.378(2) 0.6380(3) 0.9635(8)
H6B H 0.4618 0.6321 0.8833
C10B C 0.3190(13) 0.6881(2) 0.9813(6)
C11B C 0.113(2) 0.7027(3) 1.0654(9)
H7B H 0.0189 0.6795 1.1111
C12B C 0.054(2) 0.7511(3) 1.0788(9)
H8B H -0.0881 0.7600 1.1299
C13B C 0.1967(18) 0.7866(2) 1.0197(6)
C14B C 0.415(3) 0.7712(3) 0.9376(10)
H9B H 0.5197 0.7937 0.8954
C15B C 0.455(2) 0.7254(3) 0.9260(10)
H10B H 0.5949 0.7164 0.8734
loop_
_geom_bond_atom_site_label_1
_geom_bond_atom_site_label_2
_geom_bond_site_symmetry_1
_geom_bond_site_symmetry_2
Br1 C13 1_555 1_555
C1 H1 1_555 1_555
C2 C1 1_555 1_555
H2 C2 1_555 1_555
C3 C2 1_555 1_555
H3 C3 1_555 1_555
C4 C3 1_555 1_555
H4 C4 1_555 1_555
C5 C4 1_555 1_555
C6 C1 1_555 1_555
C7 C6 1_555 1_555
C8 C7 1_555 1_555
H5 C8 1_555 1_555
C9 C8 1_555 1_555
H6 C9 1_555 1_555
C10 C9 1_555 1_555
C11 C10 1_555 1_555
H7 C11 1_555 1_555
C12 C11 1_555 1_555
H8 C12 1_555 1_555
C13 C12 1_555 1_555
C14 C13 1_555 1_555
H9 C14 1_555 1_555
C15 C10 1_555 1_555
H10 C15 1_555 1_555
Br1B C13B 1_555 1_555
C1B H1B 1_555 1_555
C2B C1B 1_555 1_555
H2B C2B 1_555 1_555
C3B C2B 1_555 1_555
H3B C3B 1_555 1_555
C4B C3B 1_555 1_555
H4B C4B 1_555 1_555
C5B C7 1_555 1_555
C6B C1B 1_555 1_555
C7B C5 1_555 1_555
C8B C7B 1_555 1_555
H5B C8B 1_555 1_555
C9B C8B 1_555 1_555
H6B C9B 1_555 1_555
C10B C9B 1_555 1_555
C11B C10B 1_555 1_555
H7B C11B 1_555 1_555
C12B C11B 1_555 1_555
H8B C12B 1_555 1_555
C13B C12B 1_555 1_555
C14B C13B 1_555 1_555
H9B C14B 1_555 1_555
C15B C10B 1_555 1_555
H10B C15B 1_555 1_555
C5 C6 1_555 1_555
C14 C15 1_555 1_555
C4B C5B 1_555 1_555
C5B C6B 1_555 1_555
C6B C7B 1_555 1_555
C14B C15B 1_555 1_555

#END
