
#######################################################################
#
#                 Cambridge Crystallographic Data Centre
#                                CCDC 
#
#######################################################################
#
# If this CIF has been generated from an entry in the Cambridge 
# Structural Database, then it will include bibliographic, chemical, 
# crystal, experimental, refinement or atomic coordinate data resulting 
# from the CCDC's data processing and validation procedures.
#
#######################################################################

data_HUZGIS
_chemical_formula_moiety         'C12 H11 Cl1 N4 O2'
_chemical_name_systematic        
1-Acetyl-4-(p-chlorobenzylideneamino)-3-methyl-4,5-dihydro-1H-1,2,4-triazol-5-one
_symmetry_cell_setting           triclinic
_symmetry_space_group_name_H-M   'P -1'
_symmetry_Int_Tables_number      2
_space_group_name_Hall           '-P 1'
loop_
_symmetry_equiv_pos_site_id
_symmetry_equiv_pos_as_xyz
1 x,y,z
2 -x,-y,-z
_cell_length_a                   6.910(3)
_cell_length_b                   7.5682(10)
_cell_length_c                   12.380(3)
_cell_angle_alpha                93.13(2)
_cell_angle_beta                 98.20(2)
_cell_angle_gamma                95.86(2)
_cell_volume                     635.885
_exptl_crystal_colour            colorless
_exptl_crystal_description       needle
_chemical_melting_point          454-455K
_cell_formula_units_Z            2
_exptl_crystal_recrystallization_method ethanol
loop_
_atom_site_label
_atom_site_type_symbol
_atom_site_fract_x
_atom_site_fract_y
_atom_site_fract_z
Cl1 Cl 1.30518(13) 0.31259(12) 0.43443(6)
C1 C 1.1650(4) 0.3165(3) 0.53956(19)
C2 C 1.2396(4) 0.4034(3) 0.63867(19)
H1 H 1.3653 0.4646 0.6498
C3 C 1.1281(3) 0.3998(3) 0.72144(18)
H2 H 1.1787 0.4594 0.7888
C4 C 0.9406(3) 0.3085(3) 0.70658(18)
C5 C 0.8667(4) 0.2255(3) 0.6043(2)
H3 H 0.7400 0.1662 0.5920
C6 C 0.9769(4) 0.2298(4) 0.5216(2)
H4 H 0.9254 0.1744 0.4532
C7 C 0.8276(3) 0.2997(3) 0.79634(18)
H5 H 0.8738 0.3644 0.8627
N1 N 0.6640(3) 0.2020(2) 0.78283(15)
N2 N 0.5517(3) 0.1937(2) 0.86630(14)
C8 C 0.5795(3) 0.2824(3) 0.96927(17)
O1 O 0.7185(2) 0.3842(2) 1.01258(12)
N3 N 0.4083(3) 0.2233(2) 1.00901(14)
N4 N 0.2821(3) 0.1039(2) 0.93391(15)
C9 C 0.3485(3) 0.2796(3) 1.10770(18)
O2 O 0.4589(2) 0.3780(2) 1.17304(14)
C10 C 0.1472(4) 0.2092(3) 1.1229(2)
H6 H 0.1273 0.2400 1.1965
H7 H 0.1307 0.0820 1.1097
H8 H 0.0531 0.2599 1.0725
C11 C 0.3725(3) 0.0897(3) 0.85118(19)
C12 C 0.2981(4) -0.0240(3) 0.7496(2)
H9 H 0.1620 -0.0657 0.7490
H10 H 0.3727 -0.1240 0.7467
H11 H 0.3115 0.0439 0.6873
loop_
_geom_bond_atom_site_label_1
_geom_bond_atom_site_label_2
_geom_bond_site_symmetry_1
_geom_bond_site_symmetry_2
Cl1 C1 1_555 1_555
C1 C2 1_555 1_555
C2 H1 1_555 1_555
C3 C2 1_555 1_555
H2 C3 1_555 1_555
C4 C3 1_555 1_555
C5 C4 1_555 1_555
H3 C5 1_555 1_555
C6 C1 1_555 1_555
H4 C6 1_555 1_555
C7 C4 1_555 1_555
H5 C7 1_555 1_555
N1 C7 1_555 1_555
N2 N1 1_555 1_555
C8 N2 1_555 1_555
O1 C8 1_555 1_555
N3 C8 1_555 1_555
N4 N3 1_555 1_555
C9 N3 1_555 1_555
O2 C9 1_555 1_555
C10 C9 1_555 1_555
H6 C10 1_555 1_555
H7 C10 1_555 1_555
H8 C10 1_555 1_555
C11 N2 1_555 1_555
C12 C11 1_555 1_555
H9 C12 1_555 1_555
H10 C12 1_555 1_555
H11 C12 1_555 1_555
C5 C6 1_555 1_555
N4 C11 1_555 1_555

#END
