
#######################################################################
#
#                 Cambridge Crystallographic Data Centre
#                                CCDC 
#
#######################################################################
#
# If this CIF has been generated from an entry in the Cambridge 
# Structural Database, then it will include bibliographic, chemical, 
# crystal, experimental, refinement or atomic coordinate data resulting 
# from the CCDC's data processing and validation procedures.
#
#######################################################################

data_HUZHAN
_chemical_formula_moiety         'C30 H20 I2'
_chemical_name_systematic        9,10-bis(2-(4-iodophenyl)vinyl)anthracene
_symmetry_cell_setting           monoclinic
_symmetry_space_group_name_H-M   'P 21/c'
_symmetry_Int_Tables_number      14
_space_group_name_Hall           '-P 2ybc'
loop_
_symmetry_equiv_pos_site_id
_symmetry_equiv_pos_as_xyz
1 x,y,z
2 -x,1/2+y,1/2-z
3 -x,-y,-z
4 x,1/2-y,1/2+z
_cell_length_a                   4.6500(9)
_cell_length_b                   28.225(6)
_cell_length_c                   9.3260(19)
_cell_angle_alpha                90
_cell_angle_beta                 104.36(3)
_cell_angle_gamma                90
_cell_volume                     1185.76
_exptl_crystal_colour            brown
_exptl_crystal_description       prism
_cell_formula_units_Z            2
loop_
_atom_site_label
_atom_site_type_symbol
_atom_site_fract_x
_atom_site_fract_y
_atom_site_fract_z
I1 I 1.3997(3) -0.35175(3) 0.54029(11)
C1 C 1.434(4) -0.2002(6) 0.5738(15)
H1 H 1.5707 -0.1784 0.6261
C2 C 1.506(4) -0.2512(6) 0.5820(15)
H2 H 1.6924 -0.2616 0.6340
C3 C 1.303(3) -0.2820(5) 0.5149(14)
C4 C 1.043(4) -0.2692(4) 0.4325(17)
H3 H 0.9137 -0.2928 0.3858
C5 C 0.945(3) -0.2200(6) 0.4100(19)
H4 H 0.7590 -0.2122 0.3508
C6 C 1.148(3) -0.1841(4) 0.4829(12)
C7 C 1.077(3) -0.1350(4) 0.4619(11)
H5 H 0.9256 -0.1286 0.3780
C8 C 1.184(2) -0.0969(3) 0.5389(12)
H6 H 1.3400 -0.1015 0.6221
C9 C 1.088(2) -0.0507(3) 0.5084(11)
C10 C 1.140(2) -0.0221(3) 0.3896(11)
C11 C 0.945(2) -0.0273(4) 0.6123(12)
C12 C 0.902(3) -0.0521(4) 0.7446(15)
H7 H 0.9886 -0.0817 0.7683
C13 C 0.738(3) -0.0325(4) 0.8342(16)
H8 H 0.6788 -0.0512 0.9039
C14 C 0.665(2) 0.0122(3) 0.8214(11)
H9 H 0.5818 0.0260 0.8924
C15 C 0.703(2) 0.0377(4) 0.7148(11)
H10 H 0.6253 0.0682 0.7049
I1B I 0.6003(3) 0.35175(3) 0.45971(11)
C1B C 0.566(4) 0.2002(6) 0.4262(15)
H1B H 0.4293 0.1784 0.3739
C2B C 0.494(4) 0.2512(6) 0.4180(15)
H2B H 0.3076 0.2616 0.3660
C3B C 0.697(3) 0.2820(5) 0.4851(14)
C4B C 0.957(4) 0.2692(4) 0.5675(17)
H3B H 1.0863 0.2928 0.6142
C5B C 1.055(3) 0.2200(6) 0.5900(19)
H4B H 1.2410 0.2122 0.6492
C6B C 0.852(3) 0.1841(4) 0.5171(12)
C7B C 0.923(3) 0.1350(4) 0.5381(11)
H5B H 1.0744 0.1286 0.6220
C8B C 0.816(2) 0.0969(3) 0.4611(12)
H6B H 0.6600 0.1015 0.3779
C9B C 0.912(2) 0.0507(3) 0.4916(11)
C10B C 0.860(2) 0.0221(3) 0.6104(11)
C11B C 1.055(2) 0.0273(4) 0.3877(12)
C12B C 1.098(3) 0.0521(4) 0.2554(15)
H7B H 1.0114 0.0817 0.2317
C13B C 1.262(3) 0.0325(4) 0.1658(16)
H8B H 1.3212 0.0512 0.0961
C14B C 1.335(2) -0.0122(3) 0.1786(11)
H9B H 1.4182 -0.0260 0.1076
C15B C 1.297(2) -0.0377(4) 0.2852(11)
H10B H 1.3747 -0.0682 0.2951
loop_
_geom_bond_atom_site_label_1
_geom_bond_atom_site_label_2
_geom_bond_site_symmetry_1
_geom_bond_site_symmetry_2
I1 C3 1_555 1_555
C1 H1 1_555 1_555
C2 C1 1_555 1_555
H2 C2 1_555 1_555
C3 C2 1_555 1_555
C4 C3 1_555 1_555
H3 C4 1_555 1_555
C5 C4 1_555 1_555
H4 C5 1_555 1_555
C6 C1 1_555 1_555
C7 C6 1_555 1_555
H5 C7 1_555 1_555
C8 C7 1_555 1_555
H6 C8 1_555 1_555
C9 C8 1_555 1_555
C10 C9 1_555 1_555
C11 C9 1_555 1_555
C12 C11 1_555 1_555
H7 C12 1_555 1_555
C13 C12 1_555 1_555
H8 C13 1_555 1_555
C14 C13 1_555 1_555
H9 C14 1_555 1_555
C15 C14 1_555 1_555
H10 C15 1_555 1_555
I1B C3B 1_555 1_555
C1B H1B 1_555 1_555
C2B C1B 1_555 1_555
H2B C2B 1_555 1_555
C3B C2B 1_555 1_555
C4B C3B 1_555 1_555
H3B C4B 1_555 1_555
C5B C4B 1_555 1_555
H4B C5B 1_555 1_555
C6B C1B 1_555 1_555
C7B C6B 1_555 1_555
H5B C7B 1_555 1_555
C8B C7B 1_555 1_555
H6B C8B 1_555 1_555
C9B C8B 1_555 1_555
C10B C11 1_555 1_555
C11B C10 1_555 1_555
C12B C11B 1_555 1_555
H7B C12B 1_555 1_555
C13B C12B 1_555 1_555
H8B C13B 1_555 1_555
C14B C13B 1_555 1_555
H9B C14B 1_555 1_555
C15B C10 1_555 1_555
H10B C15B 1_555 1_555
C5 C6 1_555 1_555
C15 C10B 1_555 1_555
C5B C6B 1_555 1_555
C9B C10B 1_555 1_555
C9B C11B 1_555 1_555
C14B C15B 1_555 1_555

#END
