
#######################################################################
#
#                 Cambridge Crystallographic Data Centre
#                                CCDC 
#
#######################################################################
#
# If this CIF has been generated from an entry in the Cambridge 
# Structural Database, then it will include bibliographic, chemical, 
# crystal, experimental, refinement or atomic coordinate data resulting 
# from the CCDC's data processing and validation procedures.
#
#######################################################################

data_HUZLOF
_chemical_formula_moiety         'C16 H13 N4 1+,C2 H1 F3 O2,C2 F3 O2 1-'
_chemical_name_systematic        
'7,8-dicyano-10,10-dimethylpyrido[1,2-a]indol-6(10H)-iminium trifluoroacetic acid trifluoroacetate'
_symmetry_cell_setting           monoclinic
_symmetry_space_group_name_H-M   'P 21/n'
_symmetry_Int_Tables_number      14
_space_group_name_Hall           '-P 2yn'
loop_
_symmetry_equiv_pos_site_id
_symmetry_equiv_pos_as_xyz
1 x,y,z
2 1/2-x,1/2+y,1/2-z
3 -x,-y,-z
4 1/2+x,1/2-y,1/2+z
_cell_length_a                   8.6010(4)
_cell_length_b                   21.0213(10)
_cell_length_c                   11.9369(6)
_cell_angle_alpha                90
_cell_angle_beta                 104.7170(10)
_cell_angle_gamma                90
_cell_volume                     2087.43
_exptl_crystal_colour            yellow
_exptl_crystal_description       Plate
_cell_formula_units_Z            4
loop_
_atom_site_label
_atom_site_type_symbol
_atom_site_fract_x
_atom_site_fract_y
_atom_site_fract_z
O1 O 0.37076(14) 0.03720(5) 0.35629(9)
O2 O 0.45807(14) 0.04070(5) 0.19418(9)
C1 C 0.43662(17) 0.06325(7) 0.28309(12)
C2 C 0.49374(19) 0.13156(7) 0.31710(13)
F1 F 0.36847(13) 0.17062(4) 0.30748(9)
F2 F 0.58131(12) 0.13467(5) 0.42680(8)
F3 F 0.58329(15) 0.15460(5) 0.25068(9)
O3 O 0.70394(15) 0.07265(5) 0.70355(11)
H1 H 0.6862 0.0359 0.6810
O4 O 0.89460(12) 0.07006(5) 0.60545(9)
C3 C 0.82095(17) 0.09459(7) 0.66892(12)
C4 C 0.86948(18) 0.16236(7) 0.71405(12)
F4 F 0.77513(13) 0.20489(4) 0.64803(9)
F5 F 0.85646(18) 0.17135(5) 0.82103(9)
F6 F 1.01846(12) 0.17641(5) 0.71161(11)
N1 N 0.00537(17) -0.10923(6) 0.62219(11)
N2 N 0.00557(17) -0.08207(6) 0.94598(12)
N3 N 0.29938(13) 0.08371(5) 0.73462(9)
N4 N 0.24520(15) 0.02208(6) 0.56558(10)
C5 C 0.07473(17) -0.06643(6) 0.66962(12)
C6 C 0.07993(18) -0.04907(6) 0.90379(12)
C7 C 0.16025(16) -0.01366(6) 0.73216(11)
C8 C 0.23636(15) 0.03097(6) 0.67319(11)
C9 C 0.32009(16) 0.08807(6) 0.85312(11)
C10 C 0.25747(17) 0.04377(6) 0.91231(12)
H2 H 0.2733 0.0464 0.9922
C11 C 0.16833(16) -0.00598(6) 0.84875(12)
C12 C 0.41431(17) 0.14694(6) 0.89925(12)
C13 C 0.3311(2) 0.18694(7) 0.97483(13)
H3 H 0.2258 0.1989 0.9303
H4 H 0.3935 0.2245 1.0007
H5 H 0.3221 0.1624 1.0407
C14 C 0.58339(17) 0.12607(7) 0.96820(12)
H6 H 0.5748 0.1012 1.0338
H7 H 0.6480 0.1630 0.9944
H8 H 0.6326 0.1010 0.9193
C15 C 0.41888(16) 0.18026(6) 0.78836(12)
C16 C 0.35195(15) 0.14269(6) 0.69248(11)
C17 C 0.32800(17) 0.16434(7) 0.57990(12)
H9 H 0.2790 0.1393 0.5166
C18 C 0.38155(18) 0.22590(7) 0.56664(13)
H10 H 0.3691 0.2421 0.4924
C19 C 0.45283(18) 0.26349(7) 0.66125(13)
H11 H 0.4889 0.3041 0.6496
C20 C 0.47086(18) 0.24113(7) 0.77312(13)
H12 H 0.5170 0.2666 0.8366
H13 H 0.300(2) 0.0480(9) 0.5349(16)
H14 H 0.197(2) -0.0112(10) 0.5247(17)
loop_
_geom_bond_atom_site_label_1
_geom_bond_atom_site_label_2
_geom_bond_site_symmetry_1
_geom_bond_site_symmetry_2
O1 C1 1_555 1_555
O2 C1 1_555 1_555
C1 C2 1_555 1_555
C2 F1 1_555 1_555
F2 C2 1_555 1_555
F3 C2 1_555 1_555
O3 H1 1_555 1_555
O4 C3 1_555 1_555
C3 O3 1_555 1_555
C4 C3 1_555 1_555
F4 C4 1_555 1_555
F5 C4 1_555 1_555
F6 C4 1_555 1_555
N1 C5 1_555 1_555
N2 C6 1_555 1_555
N3 C8 1_555 1_555
N4 C8 1_555 1_555
C5 C7 1_555 1_555
C6 C11 1_555 1_555
C7 C8 1_555 1_555
C9 N3 1_555 1_555
C10 C9 1_555 1_555
H2 C10 1_555 1_555
C11 C7 1_555 1_555
C12 C9 1_555 1_555
C13 C12 1_555 1_555
H3 C13 1_555 1_555
H4 C13 1_555 1_555
H5 C13 1_555 1_555
C14 C12 1_555 1_555
H6 C14 1_555 1_555
H7 C14 1_555 1_555
H8 C14 1_555 1_555
C15 C12 1_555 1_555
C16 N3 1_555 1_555
C17 C16 1_555 1_555
H9 C17 1_555 1_555
C18 C17 1_555 1_555
H10 C18 1_555 1_555
C19 C18 1_555 1_555
H11 C19 1_555 1_555
C20 C15 1_555 1_555
H12 C20 1_555 1_555
H13 N4 1_555 1_555
H14 N4 1_555 1_555
C10 C11 1_555 1_555
C15 C16 1_555 1_555
C19 C20 1_555 1_555

#END
