
#######################################################################
#
#                 Cambridge Crystallographic Data Centre
#                                CCDC 
#
#######################################################################
#
# If this CIF has been generated from an entry in the Cambridge 
# Structural Database, then it will include bibliographic, chemical, 
# crystal, experimental, refinement or atomic coordinate data resulting 
# from the CCDC's data processing and validation procedures.
#
#######################################################################

data_HUZMAS
_chemical_name_common            
(3R,3aS,8R,8aS)-8-((4-bromobenzoyl)methyl)-3-((E)-2-((E)-(4-bromobenzoyl)vinyl)styryl)-3,3a,8,8a-tetrahydroindeno[1,2-c]furan-1-one
_chemical_formula_moiety         'C36 H26 Br2 O4'
_chemical_name_systematic        
(3R,3aS,8R,8aS)-8-(2-(4-bromophenyl)-2-oxoethyl)-3-(2-(2-(3-(4-bromophenyl)-3-oxoprop-1-en-1-yl)phenyl)vinyl)-3,3a,8,8a-tetrahydro-1H-indeno[1,2-c]furan-1-one
_symmetry_cell_setting           orthorhombic
_symmetry_space_group_name_H-M   'P 21 21 21'
_symmetry_Int_Tables_number      19
_space_group_name_Hall           'P 2ac 2ab'
loop_
_symmetry_equiv_pos_site_id
_symmetry_equiv_pos_as_xyz
1 x,y,z
2 1/2+x,1/2-y,-z
3 -x,1/2+y,1/2-z
4 1/2-x,-y,1/2+z
_cell_length_a                   5.5911(18)
_cell_length_b                   13.004(4)
_cell_length_c                   40.623(13)
_cell_angle_alpha                90
_cell_angle_beta                 90
_cell_angle_gamma                90
_cell_volume                     2953.56
_exptl_crystal_colour            colorless
_exptl_crystal_description       plate
_cell_formula_units_Z            4
loop_
_atom_site_label
_atom_site_type_symbol
_atom_site_fract_x
_atom_site_fract_y
_atom_site_fract_z
Br1 Br 0.07345(10) 0.50039(3) 0.49461(2)
Br2 Br 0.56166(11) 0.24556(4) 0.96859(2)
O1 O 0.4056(5) -0.02271(19) 0.75979(6)
O2 O 0.5224(6) 0.0316(2) 0.80939(7)
O3 O 0.5441(6) 0.1244(2) 0.59256(7)
O4 O 0.9726(6) -0.0894(2) 0.85190(8)
C1 C 0.4782(8) -0.1007(3) 0.73574(9)
H1 H 0.6089 -0.0715 0.7218
C2 C 0.5833(8) -0.1886(3) 0.75683(9)
H2 H 0.7166 -0.2242 0.7450
C3 C 0.6763(8) -0.1320(3) 0.78779(10)
H3 H 0.8511 -0.1173 0.7857
C4 C 0.5340(8) -0.0329(3) 0.78821(10)
C5 C 0.6277(7) -0.2033(3) 0.81784(9)
H4 H 0.7725 -0.2471 0.8214
C6 C 0.4291(8) -0.2714(3) 0.80531(9)
C7 C 0.4072(7) -0.2657(3) 0.77106(9)
C8 C 0.2438(7) -0.3275(3) 0.75463(10)
H5 H 0.2357 -0.3264 0.7313
C9 C 0.0922(9) -0.3909(3) 0.77255(10)
H6 H -0.0247 -0.4312 0.7615
C10 C 0.1117(8) -0.3953(3) 0.80671(11)
H7 H 0.0064 -0.4384 0.8188
C11 C 0.2826(8) -0.3377(3) 0.82335(10)
H8 H 0.2994 -0.3433 0.8466
C12 C 0.2694(8) -0.1245(3) 0.71418(10)
H9 H 0.1241 -0.1458 0.7242
C13 C 0.2777(8) -0.1170(3) 0.68143(10)
H10 H 0.4207 -0.0918 0.6717
C14 C 0.0776(8) -0.1457(3) 0.65922(9)
C15 C -0.0742(8) -0.2265(3) 0.66806(9)
H11 H -0.0421 -0.2647 0.6875
C16 C -0.2710(8) -0.2519(4) 0.64889(10)
H12 H -0.3735 -0.3067 0.6553
C17 C -0.3176(8) -0.1964(3) 0.62015(11)
H13 H -0.4536 -0.2127 0.6071
C18 C -0.1667(8) -0.1180(3) 0.61061(11)
H14 H -0.1991 -0.0815 0.5909
C19 C 0.0350(8) -0.0910(3) 0.62963(9)
C20 C 0.1969(7) -0.0100(3) 0.61813(9)
H15 H 0.3557 -0.0116 0.6264
C21 C 0.1441(8) 0.0656(3) 0.59724(10)
H16 H -0.0156 0.0737 0.5897
C22 C 0.3319(8) 0.1369(3) 0.58574(10)
C23 C 0.2610(8) 0.2251(3) 0.56370(9)
C24 C 0.0428(8) 0.2747(3) 0.56666(9)
H17 H -0.0710 0.2518 0.5824
C25 C -0.0092(8) 0.3581(3) 0.54649(10)
H18 H -0.1574 0.3932 0.5487
C26 C 0.1543(8) 0.3899(3) 0.52332(10)
C27 C 0.3721(8) 0.3409(3) 0.51952(10)
H19 H 0.4827 0.3633 0.5033
C28 C 0.4261(8) 0.2586(3) 0.53981(9)
H20 H 0.5754 0.2244 0.5376
C29 C 0.5692(8) -0.1495(3) 0.85040(9)
H21 H 0.4228 -0.1076 0.8475
H22 H 0.5358 -0.2021 0.8674
C30 C 0.7696(8) -0.0809(3) 0.86224(10)
C31 C 0.7123(7) -0.0021(4) 0.88797(9)
C32 C 0.8816(8) 0.0745(3) 0.89466(10)
H23 H 1.0277 0.0759 0.8827
C33 C 0.8381(8) 0.1485(3) 0.91854(11)
H24 H 0.9514 0.2014 0.9227
C34 C 0.6279(8) 0.1439(3) 0.93609(10)
C35 C 0.4578(9) 0.0699(3) 0.93042(10)
H25 H 0.3144 0.0684 0.9429
C36 C 0.4999(7) -0.0033(3) 0.90582(9)
H26 H 0.3826 -0.0543 0.9013
loop_
_geom_bond_atom_site_label_1
_geom_bond_atom_site_label_2
_geom_bond_site_symmetry_1
_geom_bond_site_symmetry_2
Br1 C26 1_555 1_555
Br2 C34 1_555 1_555
O1 C1 1_555 1_555
O2 C4 1_555 1_555
O3 C22 1_555 1_555
O4 C30 1_555 1_555
C1 H1 1_555 1_555
C2 C1 1_555 1_555
H2 C2 1_555 1_555
C3 C2 1_555 1_555
H3 C3 1_555 1_555
C4 O1 1_555 1_555
C5 C3 1_555 1_555
H4 C5 1_555 1_555
C6 C5 1_555 1_555
C7 C2 1_555 1_555
C8 C7 1_555 1_555
H5 C8 1_555 1_555
C9 C8 1_555 1_555
H6 C9 1_555 1_555
C10 C9 1_555 1_555
H7 C10 1_555 1_555
C11 C6 1_555 1_555
H8 C11 1_555 1_555
C12 C1 1_555 1_555
H9 C12 1_555 1_555
C13 C12 1_555 1_555
H10 C13 1_555 1_555
C14 C13 1_555 1_555
C15 C14 1_555 1_555
H11 C15 1_555 1_555
C16 C15 1_555 1_555
H12 C16 1_555 1_555
C17 C16 1_555 1_555
H13 C17 1_555 1_555
C18 C17 1_555 1_555
H14 C18 1_555 1_555
C19 C14 1_555 1_555
C20 C19 1_555 1_555
H15 C20 1_555 1_555
C21 C20 1_555 1_555
H16 C21 1_555 1_555
C22 C21 1_555 1_555
C23 C22 1_555 1_555
C24 C23 1_555 1_555
H17 C24 1_555 1_555
C25 C24 1_555 1_555
H18 C25 1_555 1_555
C26 C25 1_555 1_555
C27 C26 1_555 1_555
H19 C27 1_555 1_555
C28 C23 1_555 1_555
H20 C28 1_555 1_555
C29 C5 1_555 1_555
H21 C29 1_555 1_555
H22 C29 1_555 1_555
C30 C29 1_555 1_555
C31 C30 1_555 1_555
C32 C31 1_555 1_555
H23 C32 1_555 1_555
C33 C32 1_555 1_555
H24 C33 1_555 1_555
C34 C33 1_555 1_555
C35 C34 1_555 1_555
H25 C35 1_555 1_555
C36 C31 1_555 1_555
H26 C36 1_555 1_555
C3 C4 1_555 1_555
C6 C7 1_555 1_555
C10 C11 1_555 1_555
C18 C19 1_555 1_555
C27 C28 1_555 1_555
C35 C36 1_555 1_555

#END
