
#######################################################################
#
#                 Cambridge Crystallographic Data Centre
#                                CCDC 
#
#######################################################################
#
# If this CIF has been generated from an entry in the Cambridge 
# Structural Database, then it will include bibliographic, chemical, 
# crystal, experimental, refinement or atomic coordinate data resulting 
# from the CCDC's data processing and validation procedures.
#
#######################################################################

data_HUZMEW
_chemical_name_common            
(3R,3aS,8R,8aS)-8-((4-bromobenzoyl)methyl)-3-((E)-2-((Z)-(4-bromobenzoyl)vinyl)styryl)-3,3a,8,8a-tetrahydroindeno[1,2-c]furan-1-one
_chemical_formula_moiety         'C36 H26 Br2 O4'
_chemical_name_systematic        
(3R,3aS,8R,8aS)-8-(2-(4-bromophenyl)-2-oxoethyl)-3-(2-(2-(3-(4-bromophenyl)-3-oxoprop-1-en-1-yl)phenyl)vinyl)-3,3a,8,8a-tetrahydro-1H-indeno[1,2-c]furan-1-one
_symmetry_cell_setting           orthorhombic
_symmetry_space_group_name_H-M   'P 21 21 21'
_symmetry_Int_Tables_number      19
_space_group_name_Hall           'P 2ac 2ab'
loop_
_symmetry_equiv_pos_site_id
_symmetry_equiv_pos_as_xyz
1 x,y,z
2 1/2-x,-y,1/2+z
3 -x,1/2+y,1/2-z
4 1/2+x,1/2-y,-z
_cell_length_a                   5.6288(11)
_cell_length_b                   12.578(3)
_cell_length_c                   41.669(8)
_cell_angle_alpha                90
_cell_angle_beta                 90
_cell_angle_gamma                90
_cell_volume                     2950.13
_exptl_crystal_colour            yellow
_exptl_crystal_description       prism
_cell_formula_units_Z            4
loop_
_atom_site_label
_atom_site_type_symbol
_atom_site_fract_x
_atom_site_fract_y
_atom_site_fract_z
Br1 Br 0.0754(2) 0.01230(7) 0.01481(2)
Br2 Br -0.1119(2) 0.19332(8) -0.47191(2)
O1 O -0.4746(11) 0.3240(5) -0.09739(14)
O2 O -0.0748(10) 0.4784(4) -0.26434(11)
O3 O -0.0141(13) 0.4180(4) -0.31403(13)
O4 O 0.3505(10) 0.5491(6) -0.36564(14)
C1 C -0.3182(15) 0.1600(7) -0.0559(2)
H1 H -0.4630 0.1488 -0.0660
C2 C -0.2460(16) 0.0920(7) -0.03206(19)
H2 H -0.3415 0.0351 -0.0260
C3 C -0.0291(14) 0.1090(6) -0.01711(16)
C4 C 0.1073(14) 0.1931(6) -0.02485(16)
H3 H 0.2473 0.2054 -0.0136
C5 C 0.0424(15) 0.2613(6) -0.04922(17)
H4 H 0.1426 0.3167 -0.0551
C6 C -0.1745(14) 0.2471(6) -0.06508(16)
C7 C -0.2606(15) 0.3201(8) -0.09075(19)
C8 C -0.0755(17) 0.3798(6) -0.10772(17)
H5 H 0.0783 0.3542 -0.1050
C9 C -0.0958(16) 0.4676(6) -0.12694(16)
H6 H 0.0408 0.4824 -0.1387
C10 C -0.2911(14) 0.5437(7) -0.13279(17)
C11 C -0.4664(16) 0.5640(7) -0.1105(2)
H7 H -0.4674 0.5262 -0.0913
C12 C -0.6409(17) 0.6393(7) -0.1160(2)
H8 H -0.7580 0.6504 -0.1006
C13 C -0.6441(18) 0.6984(7) -0.1441(2)
H9 H -0.7604 0.7497 -0.1474
C14 C -0.4708(15) 0.6798(7) -0.16711(19)
H10 H -0.4704 0.7195 -0.1859
C15 C -0.2954(14) 0.6014(7) -0.16232(18)
C16 C -0.1245(16) 0.5816(5) -0.18773(15)
H11 H 0.0299 0.5648 -0.1816
C17 C -0.1703(13) 0.5855(5) -0.21910(17)
H12 H -0.3239 0.6013 -0.2258
C18 C 0.0176(14) 0.5652(6) -0.24402(17)
H13 H 0.1638 0.5416 -0.2334
C19 C 0.0763(14) 0.6545(6) -0.26762(15)
H14 H 0.2134 0.6956 -0.2601
C20 C -0.1238(13) 0.7275(5) -0.27735(16)
C21 C -0.2656(14) 0.7912(6) -0.25810(18)
H15 H -0.2413 0.7932 -0.2360
C22 C -0.4412(15) 0.8512(5) -0.27177(19)
H16 H -0.5366 0.8941 -0.2589
C23 C -0.4782(15) 0.8484(6) -0.3049(2)
H17 H -0.6028 0.8869 -0.3138
C24 C -0.3335(12) 0.7895(6) -0.32453(18)
H18 H -0.3548 0.7902 -0.3467
C25 C -0.1542(13) 0.7289(6) -0.31070(17)
C26 C 0.0358(12) 0.6615(6) -0.32672(16)
H19 H 0.1619 0.7095 -0.3340
C27 C 0.1365(14) 0.5947(6) -0.29888(16)
H20 H 0.3087 0.5857 -0.3011
C28 C 0.0160(15) 0.4889(7) -0.29474(18)
C29 C -0.0552(13) 0.5996(6) -0.35652(16)
H21 H -0.1811 0.5514 -0.3501
H22 H -0.1202 0.6492 -0.3720
C30 C 0.1448(14) 0.5368(7) -0.37190(17)
C31 C 0.0721(13) 0.4533(6) -0.39617(16)
C32 C -0.1413(14) 0.4558(6) -0.41238(18)
H23 H -0.2525 0.5081 -0.4075
C33 C -0.1916(15) 0.3806(7) -0.43593(18)
H24 H -0.3330 0.3842 -0.4474
C34 C -0.0306(15) 0.3008(7) -0.44209(18)
C35 C 0.1821(15) 0.2972(7) -0.42587(19)
H25 H 0.2923 0.2441 -0.4304
C36 C 0.2299(15) 0.3720(8) -0.40313(19)
H26 H 0.3727 0.3684 -0.3920
loop_
_geom_bond_atom_site_label_1
_geom_bond_atom_site_label_2
_geom_bond_site_symmetry_1
_geom_bond_site_symmetry_2
Br1 C3 1_555 1_555
Br2 C34 1_555 1_555
O1 C7 1_555 1_555
O2 C18 1_555 1_555
O3 C28 1_555 1_555
O4 C30 1_555 1_555
C1 H1 1_555 1_555
C2 C1 1_555 1_555
H2 C2 1_555 1_555
C3 C2 1_555 1_555
C4 C3 1_555 1_555
H3 C4 1_555 1_555
C5 C4 1_555 1_555
H4 C5 1_555 1_555
C6 C1 1_555 1_555
C7 C6 1_555 1_555
C8 C7 1_555 1_555
H5 C8 1_555 1_555
C9 C8 1_555 1_555
H6 C9 1_555 1_555
C10 C9 1_555 1_555
C11 C10 1_555 1_555
H7 C11 1_555 1_555
C12 C11 1_555 1_555
H8 C12 1_555 1_555
C13 C12 1_555 1_555
H9 C13 1_555 1_555
C14 C13 1_555 1_555
H10 C14 1_555 1_555
C15 C10 1_555 1_555
C16 C15 1_555 1_555
H11 C16 1_555 1_555
C17 C16 1_555 1_555
H12 C17 1_555 1_555
C18 C17 1_555 1_555
H13 C18 1_555 1_555
C19 C18 1_555 1_555
H14 C19 1_555 1_555
C20 C19 1_555 1_555
C21 C20 1_555 1_555
H15 C21 1_555 1_555
C22 C21 1_555 1_555
H16 C22 1_555 1_555
C23 C22 1_555 1_555
H17 C23 1_555 1_555
C24 C23 1_555 1_555
H18 C24 1_555 1_555
C25 C20 1_555 1_555
C26 C25 1_555 1_555
H19 C26 1_555 1_555
C27 C19 1_555 1_555
H20 C27 1_555 1_555
C28 O2 1_555 1_555
C29 C26 1_555 1_555
H21 C29 1_555 1_555
H22 C29 1_555 1_555
C30 C29 1_555 1_555
C31 C30 1_555 1_555
C32 C31 1_555 1_555
H23 C32 1_555 1_555
C33 C32 1_555 1_555
H24 C33 1_555 1_555
C34 C33 1_555 1_555
C35 C34 1_555 1_555
H25 C35 1_555 1_555
C36 C31 1_555 1_555
H26 C36 1_555 1_555
C5 C6 1_555 1_555
C14 C15 1_555 1_555
C24 C25 1_555 1_555
C26 C27 1_555 1_555
C27 C28 1_555 1_555
C35 C36 1_555 1_555

#END
