
#######################################################################
#
#                 Cambridge Crystallographic Data Centre
#                                CCDC 
#
#######################################################################
#
# If this CIF has been generated from an entry in the Cambridge 
# Structural Database, then it will include bibliographic, chemical, 
# crystal, experimental, refinement or atomic coordinate data resulting 
# from the CCDC's data processing and validation procedures.
#
#######################################################################

data_HUZQEA
_chemical_formula_moiety         'C16 H22 N1 O2 1+,C2 H1 O4 1-'
_chemical_name_systematic        
'2-hydroxy-N-isopropyl-3-(1-naphthyloxy)propan-1-aminium (hydrogen oxalate)'
_symmetry_cell_setting           monoclinic
_symmetry_space_group_name_H-M   'P 21'
_symmetry_Int_Tables_number      4
_space_group_name_Hall           'P 2yb'
loop_
_symmetry_equiv_pos_site_id
_symmetry_equiv_pos_as_xyz
1 x,y,z
2 -x,1/2+y,-z
_cell_length_a                   8.1696(3)
_cell_length_b                   5.6053(2)
_cell_length_c                   18.9321(9)
_cell_angle_alpha                90
_cell_angle_beta                 98.820(2)
_cell_angle_gamma                90
_cell_volume                     856.707
_cell_formula_units_Z            2
loop_
_atom_site_label
_atom_site_type_symbol
_atom_site_fract_x
_atom_site_fract_y
_atom_site_fract_z
C1 C 0.19307(7) -0.07697(10) 0.35918(3)
C2 C 0.34832(7) -0.11865(9) 0.39567(3)
H1 H 0.4363 -0.0206 0.3888
C3 C 0.37368(8) -0.31276(11) 0.44409(3)
H2 H 0.4791 -0.3409 0.4690
C4 C 0.24686(8) -0.45868(11) 0.45483(3)
H3 H 0.2664 -0.5856 0.4866
C5 C -0.05102(9) -0.56696(11) 0.42730(4)
H4 H -0.0339 -0.6988 0.4574
C6 C -0.20550(9) -0.51832(13) 0.39295(4)
H5 H -0.2930 -0.6173 0.4000
C7 C -0.23548(8) -0.32390(13) 0.34762(4)
H6 H -0.3427 -0.2935 0.3250
C8 C -0.10840(7) -0.17528(13) 0.33575(3)
H7 H -0.1294 -0.0452 0.3052
C9 C 0.05572(6) -0.22239(10) 0.37064(3)
C10 C 0.08513(7) -0.41832(10) 0.41780(3)
O1 O 0.15270(4) 0.09811(7) 0.30920(2)
C11 C 0.28198(6) 0.24115(11) 0.28863(3)
H8 H 0.3716 0.1412 0.2776
H9 H 0.3255 0.3493 0.3269
C12 C 0.20569(6) 0.38029(9) 0.22290(3)
H10 H 0.1137 0.4788 0.2338
C13 C 0.34188(5) 0.53630(9) 0.20183(3)
H11 H 0.3962 0.6170 0.2444
H12 H 0.4234 0.4334 0.1851
O2 O 0.14923(4) 0.21764(7) 0.16625(2)
H13 H 0.0414(8) 0.1820(13) 0.1658(4)
N1 N 0.29026(5) 0.72095(8) 0.14555(2)
H14 H 0.2113(5) 0.8179(8) 0.1595(3)
H15 H 0.3872(7) 0.8285(10) 0.1430(3)
C14 C 0.22725(6) 0.63516(8) 0.07040(3)
H16 H 0.1306 0.5325 0.0715
C15 C 0.17455(7) 0.85328(10) 0.02436(3)
H17 H 0.0933 0.9419 0.0451
H18 H 0.1279 0.8028 -0.0229
H19 H 0.2693 0.9525 0.0219
C16 C 0.35990(7) 0.49414(11) 0.04073(3)
H20 H 0.4522 0.5964 0.0367
H21 H 0.3154 0.4326 -0.0056
H22 H 0.3960 0.3641 0.0723
O3 O -0.31609(5) -0.38241(7) 0.16113(2)
H23 H -0.2626(9) -0.5298(15) 0.1612(4)
O4 O -0.06818(4) -0.23422(6) 0.14926(2)
C17 C -0.21165(6) -0.21103(8) 0.15620(3)
C18 C -0.29152(6) 0.03921(9) 0.16011(3)
O5 O -0.44257(4) 0.05235(6) 0.16065(2)
O6 O -0.19076(4) 0.20983(7) 0.16252(2)
loop_
_geom_bond_atom_site_label_1
_geom_bond_atom_site_label_2
_geom_bond_site_symmetry_1
_geom_bond_site_symmetry_2
C1 C2 1_555 1_555
C2 H1 1_555 1_555
C3 C2 1_555 1_555
H2 C3 1_555 1_555
C4 C3 1_555 1_555
H3 C4 1_555 1_555
C5 H4 1_555 1_555
C6 C5 1_555 1_555
H5 C6 1_555 1_555
C7 C6 1_555 1_555
H6 C7 1_555 1_555
C8 C7 1_555 1_555
H7 C8 1_555 1_555
C9 C1 1_555 1_555
C10 C4 1_555 1_555
O1 C1 1_555 1_555
C11 O1 1_555 1_555
H8 C11 1_555 1_555
H9 C11 1_555 1_555
C12 C11 1_555 1_555
H10 C12 1_555 1_555
C13 C12 1_555 1_555
H11 C13 1_555 1_555
H12 C13 1_555 1_555
O2 C12 1_555 1_555
H13 O2 1_555 1_555
N1 C13 1_555 1_555
H14 N1 1_555 1_555
H15 N1 1_555 1_555
C14 N1 1_555 1_555
H16 C14 1_555 1_555
C15 C14 1_555 1_555
H17 C15 1_555 1_555
H18 C15 1_555 1_555
H19 C15 1_555 1_555
C16 C14 1_555 1_555
H20 C16 1_555 1_555
H21 C16 1_555 1_555
H22 C16 1_555 1_555
O3 H23 1_555 1_555
O4 C17 1_555 1_555
C17 O3 1_555 1_555
C18 C17 1_555 1_555
O5 C18 1_555 1_555
O6 C18 1_555 1_555
C5 C10 1_555 1_555
C8 C9 1_555 1_555
C9 C10 1_555 1_555

#END
