
#######################################################################
#
#                 Cambridge Crystallographic Data Centre
#                                CCDC 
#
#######################################################################
#
# If this CIF has been generated from an entry in the Cambridge 
# Structural Database, then it will include bibliographic, chemical, 
# crystal, experimental, refinement or atomic coordinate data resulting 
# from the CCDC's data processing and validation procedures.
#
#######################################################################

data_HUZQOK
_chemical_name_common            'Propranolol oxalate'
_chemical_formula_moiety         '2(C16 H22 N1 O2 1+),C2 O4 2-'
_chemical_name_systematic        
'bis(2-Hydroxy-N-isopropyl-3-(1-naphthyloxy)propan-1-aminium) oxalate'
_symmetry_cell_setting           monoclinic
_symmetry_space_group_name_H-M   'P 21/c'
_symmetry_Int_Tables_number      14
_space_group_name_Hall           '-P 2ybc'
loop_
_symmetry_equiv_pos_site_id
_symmetry_equiv_pos_as_xyz
1 x,y,z
2 -x,1/2+y,1/2-z
3 -x,-y,-z
4 x,1/2-y,1/2+z
_cell_length_a                   12.9928(6)
_cell_length_b                   6.4517(3)
_cell_length_c                   19.8420(13)
_cell_angle_alpha                90
_cell_angle_beta                 106.600(2)
_cell_angle_gamma                90
_cell_volume                     1593.95
_exptl_crystal_colour            colorless
_exptl_crystal_description       Needle
_cell_formula_units_Z            2
loop_
_atom_site_label
_atom_site_type_symbol
_atom_site_fract_x
_atom_site_fract_y
_atom_site_fract_z
C1 C 0.7037(6) 0.2173(12) 0.6423(4)
C2 C 0.6447(7) 0.1503(13) 0.6866(5)
H1 H 0.6652 0.0305 0.7132
C3 C 0.5551(7) 0.2610(15) 0.6916(5)
H2 H 0.5170 0.2135 0.7217
C4 C 0.5218(7) 0.4351(15) 0.6540(5)
H3 H 0.4616 0.5060 0.6582
C5 C 0.5498(8) 0.6914(14) 0.5667(5)
H4 H 0.4910 0.7670 0.5710
C6 C 0.6025(8) 0.7592(14) 0.5218(5)
H5 H 0.5799 0.8781 0.4952
C7 C 0.6918(7) 0.6483(14) 0.5156(5)
H6 H 0.7287 0.6960 0.4848
C8 C 0.7264(7) 0.4734(13) 0.5531(4)
H7 H 0.7858 0.4016 0.5479
C9 C 0.6697(6) 0.4006(11) 0.6011(4)
C10 C 0.5796(7) 0.5093(13) 0.6079(5)
O1 O 0.7905(5) 0.1223(8) 0.6318(3)
C11 C 0.8290(7) -0.0599(13) 0.6713(4)
H8 H 0.7720 -0.1616 0.6647
H9 H 0.8556 -0.0275 0.7210
C12 C 0.9181(7) -0.1418(11) 0.6444(5)
H10 H 0.8905 -0.1633 0.5935
C13 C 1.0142(6) 0.0059(12) 0.6593(4)
H11 H 0.9890 0.1465 0.6476
H12 H 1.0528 0.0017 0.7090
O2 O 0.9472(5) -0.3369(8) 0.6778(3)
H13 H 0.9600 -0.4189 0.6496
N1 N 1.0878(5) -0.0543(9) 0.6170(3)
H14 H 1.0794 0.0376 0.5817
H15 H 1.0669 -0.1788 0.5975
C14 C 1.2055(7) -0.0663(13) 0.6558(5)
H16 H 1.2154 -0.1629 0.6953
C15 C 1.2651(9) -0.1475(17) 0.6066(6)
H17 H 1.2386 -0.2829 0.5904
H18 H 1.3404 -0.1558 0.6309
H19 H 1.2544 -0.0556 0.5671
C16 C 1.2427(8) 0.1479(16) 0.6846(6)
H20 H 1.2023 0.1913 0.7157
H21 H 1.2316 0.2444 0.6464
H22 H 1.3176 0.1432 0.7098
O3 O 1.0359(5) 0.2393(8) 0.5137(3)
O4 O 1.0584(5) 0.5003(8) 0.5920(3)
C17 C 1.0265(6) 0.4286(11) 0.5311(4)
O3B O 0.9641(5) 0.7607(8) 0.4863(3)
O4B O 0.9416(5) 0.4997(8) 0.4080(3)
C17B C 0.9735(6) 0.5714(11) 0.4689(4)
loop_
_geom_bond_atom_site_label_1
_geom_bond_atom_site_label_2
_geom_bond_site_symmetry_1
_geom_bond_site_symmetry_2
C1 C2 1_555 1_555
C2 H1 1_555 1_555
C3 C2 1_555 1_555
H2 C3 1_555 1_555
C4 C3 1_555 1_555
H3 C4 1_555 1_555
C5 H4 1_555 1_555
C6 C5 1_555 1_555
H5 C6 1_555 1_555
C7 C6 1_555 1_555
H6 C7 1_555 1_555
C8 C7 1_555 1_555
H7 C8 1_555 1_555
C9 C1 1_555 1_555
C10 C4 1_555 1_555
O1 C1 1_555 1_555
C11 O1 1_555 1_555
H8 C11 1_555 1_555
H9 C11 1_555 1_555
C12 C11 1_555 1_555
H10 C12 1_555 1_555
C13 C12 1_555 1_555
H11 C13 1_555 1_555
H12 C13 1_555 1_555
O2 C12 1_555 1_555
H13 O2 1_555 1_555
N1 C13 1_555 1_555
H14 N1 1_555 1_555
H15 N1 1_555 1_555
C14 N1 1_555 1_555
H16 C14 1_555 1_555
C15 C14 1_555 1_555
H17 C15 1_555 1_555
H18 C15 1_555 1_555
H19 C15 1_555 1_555
C16 C14 1_555 1_555
H20 C16 1_555 1_555
H21 C16 1_555 1_555
H22 C16 1_555 1_555
O3 C17 1_555 1_555
O4 C17 1_555 1_555
C17 C17B 1_555 1_555
O3B C17B 1_555 1_555
O4B C17B 1_555 1_555
C5 C10 1_555 1_555
C8 C9 1_555 1_555
C9 C10 1_555 1_555

#END
