
#######################################################################
#
#                 Cambridge Crystallographic Data Centre
#                                CCDC 
#
#######################################################################
#
# If this CIF has been generated from an entry in the Cambridge 
# Structural Database, then it will include bibliographic, chemical, 
# crystal, experimental, refinement or atomic coordinate data resulting 
# from the CCDC's data processing and validation procedures.
#
#######################################################################

data_HUZTAX
_chemical_formula_moiety         'C36 H28 Cl1 N3 O1'
_chemical_name_systematic        
2-(3-(2-(4-N,N-Di-p-tolylaminophenyl)-(E)-ethenyl)phenyl)-5-(4-chlorophenyl)-1,3,4-oxadiazole
_symmetry_cell_setting           triclinic
_symmetry_space_group_name_H-M   'P -1'
_symmetry_Int_Tables_number      2
_space_group_name_Hall           '-P 1'
loop_
_symmetry_equiv_pos_site_id
_symmetry_equiv_pos_as_xyz
1 x,y,z
2 -x,-y,-z
_cell_length_a                   7.096(8)
_cell_length_b                   15.010(16)
_cell_length_c                   15.916(17)
_cell_angle_alpha                61.953(18)
_cell_angle_beta                 85.939(10)
_cell_angle_gamma                77.51(2)
_cell_volume                     1459.8
_exptl_crystal_colour            green-yellow
_chemical_melting_point          '200-201 deg.C'
_cell_formula_units_Z            2
_exptl_crystal_recrystallization_method ether/DMF
_exptl_crystal_preparation       photoluminescent
loop_
_atom_site_label
_atom_site_type_symbol
_atom_site_fract_x
_atom_site_fract_y
_atom_site_fract_z
Cl1 Cl 1.9014(3) -0.1571(1) 1.0237(1)
O1 O 1.4528(4) 0.2939(2) 0.6695(2)
N1 N 0.4451(6) 1.1616(3) 0.2466(2)
N2 N 1.3037(6) 0.4205(3) 0.6998(3)
N3 N 1.3887(6) 0.3369(3) 0.7844(3)
C1 C 1.7836(7) -0.0336(4) 0.9473(4)
C2 C 1.7527(8) -0.0074(4) 0.8543(4)
C3 C 1.6537(8) 0.0906(4) 0.7945(3)
C4 C 1.5834(6) 0.1622(4) 0.8261(3)
C5 C 1.6189(9) 0.1338(4) 0.9201(4)
C6 C 1.7173(9) 0.0352(5) 0.9801(4)
C7 C 1.4748(7) 0.2641(4) 0.7644(3)
C8 C 1.3452(6) 0.3918(3) 0.6345(3)
C9 C 1.2941(6) 0.4506(3) 0.5331(3)
C10 C 1.3442(6) 0.4038(4) 0.4744(3)
C11 C 1.2951(7) 0.4613(4) 0.3789(3)
C12 C 1.1972(7) 0.5624(4) 0.3419(3)
C13 C 1.1450(6) 0.6098(3) 0.3992(3)
C14 C 1.1979(6) 0.5519(3) 0.4954(3)
C15 C 1.0366(6) 0.7159(3) 0.3572(3)
C16 C 0.9483(6) 0.7672(3) 0.4026(3)
C17 C 0.8276(6) 0.8698(3) 0.3619(3)
C18 C 0.8125(7) 0.9381(4) 0.2649(3)
C19 C 0.6883(7) 1.0320(4) 0.2275(3)
C20 C 0.5725(7) 1.0651(3) 0.2850(3)
C21 C 0.5889(7) 0.9990(3) 0.3825(3)
C22 C 0.7137(6) 0.9045(3) 0.4196(3)
C23 C 0.4852(8) 1.2415(4) 0.1563(3)
C24 C 0.6576(8) 1.2702(4) 0.1454(3)
C25 C 0.7046(10) 1.3433(4) 0.0562(4)
C26 C 0.5732(12) 1.3868(4) -0.0201(4)
C27 C 0.6278(12) 1.4659(4) -0.1165(4)
C28 C 0.4019(11) 1.3579(5) -0.0056(4)
C29 C 0.3573(8) 1.2861(4) 0.0807(3)
C30 C 0.2679(7) 1.1791(4) 0.2881(3)
C31 C 0.1898(7) 1.2752(4) 0.2809(3)
C32 C 0.0163(8) 1.2936(4) 0.3198(3)
C33 C -0.0853(7) 1.2177(5) 0.3672(3)
C34 C -0.2764(8) 1.2370(5) 0.4100(4)
C35 C -0.0071(7) 1.1202(4) 0.3747(3)
C36 C 0.1654(7) 1.1028(4) 0.3343(3)
loop_
_geom_bond_atom_site_label_1
_geom_bond_atom_site_label_2
_geom_bond_site_symmetry_1
_geom_bond_site_symmetry_2
Cl1 C1 1_555 1_555
O1 C7 1_555 1_555
N1 C20 1_555 1_555
N2 N3 1_555 1_555
N3 C7 1_555 1_555
C1 C2 1_555 1_555
C2 C3 1_555 1_555
C3 C4 1_555 1_555
C4 C5 1_555 1_555
C5 C6 1_555 1_555
C6 C1 1_555 1_555
C7 C4 1_555 1_555
C8 O1 1_555 1_555
C9 C8 1_555 1_555
C10 C9 1_555 1_555
C11 C10 1_555 1_555
C12 C11 1_555 1_555
C13 C12 1_555 1_555
C14 C9 1_555 1_555
C15 C13 1_555 1_555
C16 C15 1_555 1_555
C17 C16 1_555 1_555
C18 C17 1_555 1_555
C19 C18 1_555 1_555
C20 C19 1_555 1_555
C21 C20 1_555 1_555
C22 C17 1_555 1_555
C23 N1 1_555 1_555
C24 C23 1_555 1_555
C25 C24 1_555 1_555
C26 C25 1_555 1_555
C27 C26 1_555 1_555
C28 C26 1_555 1_555
C29 C23 1_555 1_555
C30 N1 1_555 1_555
C31 C30 1_555 1_555
C32 C31 1_555 1_555
C33 C32 1_555 1_555
C34 C33 1_555 1_555
C35 C33 1_555 1_555
C36 C30 1_555 1_555
N2 C8 1_555 1_555
C13 C14 1_555 1_555
C21 C22 1_555 1_555
C28 C29 1_555 1_555
C35 C36 1_555 1_555

#END
