
#######################################################################
#
#                 Cambridge Crystallographic Data Centre
#                                CCDC 
#
#######################################################################
#
# If this CIF has been generated from an entry in the Cambridge 
# Structural Database, then it will include bibliographic, chemical, 
# crystal, experimental, refinement or atomic coordinate data resulting 
# from the CCDC's data processing and validation procedures.
#
#######################################################################

data_HXQUIO03
_chemical_formula_moiety         'C9 H7 N1 O1'
_chemical_name_systematic        Quinolin-2(1H)-one
_symmetry_cell_setting           orthorhombic
_symmetry_space_group_name_H-M   'P 21 21 21'
_symmetry_Int_Tables_number      19
_space_group_name_Hall           'P 2ac 2ab'
loop_
_symmetry_equiv_pos_site_id
_symmetry_equiv_pos_as_xyz
1 x,y,z
2 1/2-x,-y,1/2+z
3 -x,1/2+y,1/2-z
4 1/2+x,1/2-y,-z
_cell_length_a                   4.7333(6)
_cell_length_b                   12.0590(15)
_cell_length_c                   12.3012(15)
_cell_angle_alpha                90
_cell_angle_beta                 90
_cell_angle_gamma                90
_cell_volume                     702.139
_cell_formula_units_Z            4
loop_
_atom_site_label
_atom_site_type_symbol
_atom_site_fract_x
_atom_site_fract_y
_atom_site_fract_z
H1 H 0.152(5) 0.7621(17) 0.0740(16)
N1 N 0.0991(4) 0.81700(14) 0.11919(13)
O1 O -0.2369(3) 0.87250(10) -0.00022(11)
C1 C 0.2426(4) 0.82288(15) 0.21724(15)
C2 C 0.4483(4) 0.74485(16) 0.24369(17)
H2 H 0.4941 0.6886 0.1951
C3 C -0.0370(5) 0.98612(16) 0.25678(17)
H3 H -0.0829 1.0445 0.3029
C4 C -0.1713(4) 0.97708(15) 0.16101(16)
H4 H -0.3062 1.0296 0.1419
C5 C -0.1097(4) 0.88713(15) 0.08712(16)
C6 C 0.3164(5) 0.91302(19) 0.38960(17)
H5 H 0.2742 0.9692 0.4388
C7 C 0.1741(4) 0.90867(16) 0.28973(17)
C8 C 0.5826(5) 0.75187(19) 0.34199(18)
H6 H 0.7200 0.6999 0.3599
C9 C 0.5166(5) 0.8356(2) 0.41546(18)
H7 H 0.6086 0.8390 0.4822
loop_
_geom_bond_atom_site_label_1
_geom_bond_atom_site_label_2
_geom_bond_site_symmetry_1
_geom_bond_site_symmetry_2
H1 N1 1_555 1_555
N1 C1 1_555 1_555
O1 C5 1_555 1_555
C1 C2 1_555 1_555
C2 H2 1_555 1_555
C3 H3 1_555 1_555
C4 C3 1_555 1_555
H4 C4 1_555 1_555
C5 N1 1_555 1_555
C6 H5 1_555 1_555
C7 C1 1_555 1_555
C8 C2 1_555 1_555
H6 C8 1_555 1_555
C9 C6 1_555 1_555
H7 C9 1_555 1_555
C3 C7 1_555 1_555
C4 C5 1_555 1_555
C6 C7 1_555 1_555
C8 C9 1_555 1_555

#END
