
#######################################################################
#
#                 Cambridge Crystallographic Data Centre
#                                CCDC 
#
#######################################################################
#
# If this CIF has been generated from an entry in the Cambridge 
# Structural Database, then it will include bibliographic, chemical, 
# crystal, experimental, refinement or atomic coordinate data resulting 
# from the CCDC's data processing and validation procedures.
#
#######################################################################

data_HYMXON
_chemical_formula_moiety         'C15 H22 O5'
_chemical_name_systematic        Hymenoxon
_symmetry_cell_setting           orthorhombic
_symmetry_space_group_name_H-M   'P 21 21 21'
_symmetry_Int_Tables_number      19
_space_group_name_Hall           'P 2ac 2ab'
loop_
_symmetry_equiv_pos_site_id
_symmetry_equiv_pos_as_xyz
1 x,y,z
2 1/2+x,1/2-y,-z
3 -x,1/2+y,1/2-z
4 1/2-x,-y,1/2+z
_cell_length_a                   7.500(2)
_cell_length_b                   8.011(4)
_cell_length_c                   24.549(5)
_cell_angle_alpha                90
_cell_angle_beta                 90
_cell_angle_gamma                90
_cell_volume                     1474.97
_chemical_melting_point          136deg.C
_cell_formula_units_Z            4
loop_
_atom_site_label
_atom_site_type_symbol
_atom_site_fract_x
_atom_site_fract_y
_atom_site_fract_z
C1 C 0.38100 -0.44540 -0.39130
C2 C 0.48330 -0.28120 -0.39160
C3 C 0.47560 -0.57290 -0.35350
C4 C 0.37150 -0.73650 -0.34410
C5 C 0.16930 -0.73270 -0.35490
C6 C 0.12450 -0.72360 -0.41660
C7 C 0.27840 -0.68470 -0.45470
C8 C 0.34710 -0.50600 -0.45030
C9 C 0.08620 -0.89110 -0.33740
C10 C 0.02440 -0.98090 -0.38700
C11 C 0.06520 -0.95470 -0.28870
C12 C 0.66400 -0.61760 -0.37380
C13 C 0.22180 -0.38540 -0.48070
O1 O 0.05900 -0.89010 -0.43080
O2 O -0.04600 -1.11820 -0.38970
O3 O 0.32970 -0.46050 -0.27460
H1 H 0.25300 -0.41700 -0.37500
H2 H 0.41700 -0.18600 -0.40900
H3 H 0.59800 -0.30200 -0.40700
H4 H 0.39800 -0.17800 -0.31800
H5 H 0.57300 -0.55900 -0.27700
H6 H 0.37900 -0.76500 -0.30800
H7 H 0.42000 -0.83800 -0.36500
H8 H 0.10900 -0.63100 -0.33800
H9 H 0.02700 -0.65000 -0.42500
H10 H 0.24300 -0.72800 -0.49200
H11 H 0.38200 -0.74900 -0.45200
H12 H 0.46500 -0.49800 -0.46800
H13 H 0.12400 -0.90800 -0.25800
H14 H 0.66100 -0.67600 -0.41000
H15 H 0.74200 -0.53200 -0.37700
H16 H 0.70700 -0.70700 -0.35400
H17 H 0.11800 -0.36100 -0.46000
H18 H 0.26200 -0.27200 -0.47600
H19 H 0.17900 -0.42600 -0.51400
H20 H 0.33000 -0.46500 -0.24200
H21 H 0.72400 -0.10700 -0.34900
O4 O 0.59700 -0.33850 -0.30080
O5 O 0.62990 -0.07740 -0.33340
C14 C 0.51490 -0.21530 -0.33420
C15 C 0.49760 -0.48760 -0.29800
loop_
_geom_bond_atom_site_label_1
_geom_bond_atom_site_label_2
_geom_bond_site_symmetry_1
_geom_bond_site_symmetry_2
C1 C2 1_555 1_555
C2 H2 1_555 1_555
C3 C1 1_555 1_555
C4 C3 1_555 1_555
C5 C4 1_555 1_555
C6 C5 1_555 1_555
C7 C6 1_555 1_555
C8 C1 1_555 1_555
C9 C5 1_555 1_555
C10 C9 1_555 1_555
C11 C9 1_555 1_555
C12 C3 1_555 1_555
C13 C8 1_555 1_555
O1 C6 1_555 1_555
O2 C10 1_555 1_555
O3 H20 1_555 1_555
H1 C1 1_555 1_555
H3 C2 1_555 1_555
H4 C14 1_555 1_555
H5 C15 1_555 1_555
H6 C4 1_555 1_555
H7 C4 1_555 1_555
H8 C5 1_555 1_555
H9 C6 1_555 1_555
H10 C7 1_555 1_555
H11 C7 1_555 1_555
H12 C8 1_555 1_555
H13 C11 1_555 1_555
H14 C12 1_555 1_555
H15 C12 1_555 1_555
H16 C12 1_555 1_555
H17 C13 1_555 1_555
H18 C13 1_555 1_555
H19 C13 1_555 1_555
H21 O5 1_555 1_555
O4 C14 1_555 1_555
O5 C14 1_555 1_555
C14 C2 1_555 1_555
C15 C3 1_555 1_555
C7 C8 1_555 1_555
C10 O1 1_555 1_555
O3 C15 1_555 1_555
O4 C15 1_555 1_555

#END
