
#######################################################################
#
#                 Cambridge Crystallographic Data Centre
#                                CCDC 
#
#######################################################################
#
# If this CIF has been generated from an entry in the Cambridge 
# Structural Database, then it will include bibliographic, chemical, 
# crystal, experimental, refinement or atomic coordinate data resulting 
# from the CCDC's data processing and validation procedures.
#
#######################################################################

data_HZDCET04
_chemical_formula_moiety         'C6 H12 N2 O4'
_chemical_name_systematic        'diethyl 1,2-hydrazinedicarboxylate'
_symmetry_cell_setting           monoclinic
_symmetry_space_group_name_H-M   'C 2/c'
_symmetry_Int_Tables_number      15
_space_group_name_Hall           '-C 2yn'
loop_
_symmetry_equiv_pos_site_id
_symmetry_equiv_pos_as_xyz
1 x,y,z
2 -x,y,1/2-z
3 1/2+x,1/2+y,z
4 1/2-x,1/2+y,1/2-z
5 -x,-y,-z
6 x,-y,1/2+z
7 1/2-x,1/2-y,-z
8 1/2+x,1/2-y,1/2+z
_cell_length_a                   13.2933(15)
_cell_length_b                   8.7481(10)
_cell_length_c                   7.6755(9)
_cell_angle_alpha                90
_cell_angle_beta                 97.460(2)
_cell_angle_gamma                90
_cell_volume                     885.037
_cell_formula_units_Z            4
loop_
_atom_site_label
_atom_site_type_symbol
_atom_site_fract_x
_atom_site_fract_y
_atom_site_fract_z
O1 O 0.3996(1) 0.1756(1) 0.3870(1)
O2 O 0.2945(1) 0.0735(1) 0.1620(1)
N1 N 0.4504(1) -0.0109(1) 0.2104(2)
C1 C 0.3830(1) 0.0887(1) 0.2642(2)
C2 C 0.2102(1) 0.1623(2) 0.2113(2)
C3 C 0.1169(1) 0.1086(2) 0.0977(3)
H1 H 0.4314 -0.0741 0.1268
H2 H 0.2210 0.2704 0.1927
H3 H 0.2035 0.1463 0.3343
H4 H 0.0595 0.1671 0.1236
H5 H 0.1058 0.0024 0.1204
H6 H 0.1254 0.1220 -0.0236
O1A O 0.6004(1) 0.1756(1) 0.1130(1)
O2A O 0.7055(1) 0.0735(1) 0.3380(1)
N1A N 0.5496(1) -0.0109(1) 0.2896(2)
C1A C 0.6170(1) 0.0887(1) 0.2358(2)
C2A C 0.7898(1) 0.1623(2) 0.2887(2)
C3A C 0.8831(1) 0.1086(2) 0.4023(3)
H1A H 0.5686 -0.0741 0.3732
H2A H 0.7790 0.2704 0.3073
H3A H 0.7965 0.1463 0.1657
H4A H 0.9405 0.1671 0.3764
H5A H 0.8942 0.0024 0.3796
H6A H 0.8746 0.1220 0.5236
loop_
_geom_bond_atom_site_label_1
_geom_bond_atom_site_label_2
_geom_bond_site_symmetry_1
_geom_bond_site_symmetry_2
O1 C1 1_555 1_555
O2 C1 1_555 1_555
N1 C1 1_555 1_555
C2 O2 1_555 1_555
C3 C2 1_555 1_555
H1 N1 1_555 1_555
H2 C2 1_555 1_555
H3 C2 1_555 1_555
H4 C3 1_555 1_555
H5 C3 1_555 1_555
H6 C3 1_555 1_555
O1A C1A 1_555 1_555
O2A C1A 1_555 1_555
N1A N1 1_555 1_555
C1A N1A 1_555 1_555
C2A O2A 1_555 1_555
C3A C2A 1_555 1_555
H1A N1A 1_555 1_555
H2A C2A 1_555 1_555
H3A C2A 1_555 1_555
H4A C3A 1_555 1_555
H5A C3A 1_555 1_555
H6A C3A 1_555 1_555

#END
