
#######################################################################
#
#                 Cambridge Crystallographic Data Centre
#                                CCDC 
#
#######################################################################
#
# If this CIF has been generated from an entry in the Cambridge 
# Structural Database, then it will include bibliographic, chemical, 
# crystal, experimental, refinement or atomic coordinate data resulting 
# from the CCDC's data processing and validation procedures.
#
#######################################################################

data_IALXZN10
_chemical_formula_moiety         'C13 H13 N4 O2 1+,I1 1-'
_chemical_name_systematic        '1,3,10-Trimethylisoalloxazinium iodide'
_symmetry_cell_setting           monoclinic
_symmetry_space_group_name_H-M   'P 21/n'
_symmetry_Int_Tables_number      14
_space_group_name_Hall           '-P 2yn'
loop_
_symmetry_equiv_pos_site_id
_symmetry_equiv_pos_as_xyz
1 x,y,z
2 1/2-x,1/2+y,1/2-z
3 -x,-y,-z
4 1/2+x,1/2-y,1/2+z
_cell_length_a                   12.880(2)
_cell_length_b                   16.076(4)
_cell_length_c                   6.831(2)
_cell_angle_alpha                90
_cell_angle_beta                 94.04(1)
_cell_angle_gamma                90
_cell_volume                     1410.9
_cell_formula_units_Z            4
loop_
_atom_site_label
_atom_site_type_symbol
_atom_site_fract_x
_atom_site_fract_y
_atom_site_fract_z
C1 C -0.40860 0.24270 0.23400
C2 C -0.22690 0.27090 0.13900
C3 C -0.46190 0.50510 0.24600
C4 C -0.34910 0.38400 0.22700
C5 C -0.29010 0.13250 0.37100
C6 C -0.53470 0.36370 0.21700
C7 C -0.51310 0.27160 0.20900
C8 C -0.57760 0.13870 0.20500
C9 C -0.66450 0.08640 0.19000
C10 C -0.64670 0.00110 0.20100
C11 C -0.55130 -0.03150 0.23400
C12 C -0.45910 0.01800 0.26000
C13 C -0.47370 0.10650 0.24300
N1 N -0.32970 0.29840 0.21600
N2 N -0.39190 0.16170 0.26700
N3 N -0.44640 0.41170 0.23400
N4 N -0.59540 0.22080 0.20000
O1 O -0.27340 0.43130 0.21900
O2 O -0.62180 0.39250 0.21400
I1 I -0.44039 0.28097 -0.27780
loop_
_geom_bond_atom_site_label_1
_geom_bond_atom_site_label_2
_geom_bond_site_symmetry_1
_geom_bond_site_symmetry_2
C1 C7 1_555 1_555
C2 N1 1_555 1_555
C3 N3 1_555 1_555
C4 N1 1_555 1_555
C5 N2 1_555 1_555
C6 C7 1_555 1_555
C7 N4 1_555 1_555
C8 C9 1_555 1_555
C9 C10 1_555 1_555
C10 C11 1_555 1_555
C11 C12 1_555 1_555
C12 C13 1_555 1_555
C13 C8 1_555 1_555
N1 C1 1_555 1_555
N2 C1 1_555 1_555
N3 C4 1_555 1_555
N4 C8 1_555 1_555
O1 C4 1_555 1_555
O2 C6 1_555 1_555
C6 N3 1_555 1_555
C13 N2 1_555 1_555

#END
