
#######################################################################
#
#                 Cambridge Crystallographic Data Centre
#                                CCDC 
#
#######################################################################
#
# If this CIF has been generated from an entry in the Cambridge 
# Structural Database, then it will include bibliographic, chemical, 
# crystal, experimental, refinement or atomic coordinate data resulting 
# from the CCDC's data processing and validation procedures.
#
#######################################################################

data_IBABAP
_chemical_formula_moiety         'C24 H18 I2 O5'
_chemical_name_systematic        
(2,4-Dimethylbenzoyl)bis(2-iodophenylcarboxyl)methane
_symmetry_cell_setting           triclinic
_symmetry_space_group_name_H-M   'P -1'
_symmetry_Int_Tables_number      2
_space_group_name_Hall           '-P 1'
loop_
_symmetry_equiv_pos_site_id
_symmetry_equiv_pos_as_xyz
1 x,y,z
2 -x,-y,-z
_cell_length_a                   7.903(1)
_cell_length_b                   12.706(2)
_cell_length_c                   12.742(2)
_cell_angle_alpha                67.11(1)
_cell_angle_beta                 83.91(1)
_cell_angle_gamma                78.861(9)
_cell_volume                     1155.85
_exptl_crystal_colour            colorless
_chemical_melting_point          102-105deg.C
_cell_formula_units_Z            2
loop_
_atom_site_label
_atom_site_type_symbol
_atom_site_fract_x
_atom_site_fract_y
_atom_site_fract_z
I1 I 0.64125(5) 0.72457(3) 0.94836(3)
I2 I 0.81322(7) 1.05345(4) 0.23420(4)
O1 O 0.6525(3) 0.6318(2) 0.6334(2)
O2 O 0.8029(4) 0.5799(3) 0.7912(2)
O3 O 0.9121(4) 0.6937(3) 0.5517(2)
O4 O 0.7715(5) 0.8044(3) 0.3927(3)
O5 O 1.0741(4) 0.4813(3) 0.6270(3)
C1 C 0.4642(5) 0.6514(3) 0.8975(4)
C2 C 0.3057(6) 0.6447(4) 0.9566(4)
H1 H 0.2873 0.6633 1.0211
C3 C 0.1769(6) 0.6107(4) 0.9197(5)
H2 H 0.0714 0.6060 0.9598
C4 C 0.2010(6) 0.5836(4) 0.8250(5)
H3 H 0.1111 0.5639 0.7987
C5 C 0.3606(6) 0.5858(4) 0.7686(4)
H4 H 0.3783 0.5643 0.7059
C6 C 0.4942(5) 0.6193(3) 0.8033(3)
C7 C 0.6675(6) 0.6091(4) 0.7463(4)
C8 C 0.8082(5) 0.6088(4) 0.5726(3)
H5 H 0.7770 0.6123 0.4988
C9 C 0.8884(6) 0.7882(4) 0.4522(4)
C10 C 1.0225(6) 0.8610(4) 0.4338(4)
C11 C 1.1649(7) 0.8173(5) 0.5015(4)
H6 H 1.1725 0.7439 0.5589
C12 C 1.2957(8) 0.8801(6) 0.4855(6)
H7 H 1.3922 0.8487 0.5304
C13 C 1.2819(9) 0.9904(6) 0.4019(7)
H8 H 1.3692 1.0337 0.3911
C14 C 1.1415(9) 1.0358(5) 0.3355(5)
H9 H 1.1318 1.1109 0.2811
C15 C 1.0138(7) 0.9718(4) 0.3481(4)
C16 C 0.9182(6) 0.4894(4) 0.6329(3)
C17 C 0.8277(6) 0.3883(4) 0.6878(4)
C18 C 0.6718(7) 0.3885(4) 0.6442(5)
H10 H 0.6267 0.4531 0.5823
C19 C 0.5836(7) 0.2970(5) 0.6897(5)
H11 H 0.4819 0.2990 0.6578
C20 C 0.6464(7) 0.2026(5) 0.7822(5)
C21 C 0.7979(7) 0.1985(4) 0.8282(4)
H12 H 0.8386 0.1339 0.8914
C22 C 0.8949(6) 0.2924(4) 0.7805(4)
C23 C 0.5472(9) 0.1000(5) 0.8373(6)
H13 H 0.4523 0.1195 0.8837
H14 H 0.6232 0.0330 0.8838
H15 H 0.5041 0.0834 0.7787
C24 C 1.0542(7) 0.2827(5) 0.8355(5)
H16 H 1.1520 0.2678 0.7887
H17 H 1.0589 0.2201 0.9086
H18 H 1.0560 0.3537 0.8452
loop_
_geom_bond_atom_site_label_1
_geom_bond_atom_site_label_2
_geom_bond_site_symmetry_1
_geom_bond_site_symmetry_2
I1 C1 1_555 1_555
I2 C15 1_555 1_555
O1 C7 1_555 1_555
O2 C7 1_555 1_555
O3 C8 1_555 1_555
O4 C9 1_555 1_555
O5 C16 1_555 1_555
C1 C2 1_555 1_555
C2 H1 1_555 1_555
C3 C2 1_555 1_555
H2 C3 1_555 1_555
C4 C3 1_555 1_555
H3 C4 1_555 1_555
C5 C4 1_555 1_555
H4 C5 1_555 1_555
C6 C1 1_555 1_555
C7 C6 1_555 1_555
C8 O1 1_555 1_555
H5 C8 1_555 1_555
C9 O3 1_555 1_555
C10 C9 1_555 1_555
C11 C10 1_555 1_555
H6 C11 1_555 1_555
C12 C11 1_555 1_555
H7 C12 1_555 1_555
C13 C12 1_555 1_555
H8 C13 1_555 1_555
C14 C13 1_555 1_555
H9 C14 1_555 1_555
C15 C10 1_555 1_555
C16 C8 1_555 1_555
C17 C16 1_555 1_555
C18 C17 1_555 1_555
H10 C18 1_555 1_555
C19 C18 1_555 1_555
H11 C19 1_555 1_555
C20 C19 1_555 1_555
C21 C20 1_555 1_555
H12 C21 1_555 1_555
C22 C17 1_555 1_555
C23 C20 1_555 1_555
H13 C23 1_555 1_555
H14 C23 1_555 1_555
H15 C23 1_555 1_555
C24 C22 1_555 1_555
H16 C24 1_555 1_555
H17 C24 1_555 1_555
H18 C24 1_555 1_555
C5 C6 1_555 1_555
C14 C15 1_555 1_555
C21 C22 1_555 1_555

#END
