
#######################################################################
#
#                 Cambridge Crystallographic Data Centre
#                                CCDC 
#
#######################################################################
#
# If this CIF has been generated from an entry in the Cambridge 
# Structural Database, then it will include bibliographic, chemical, 
# crystal, experimental, refinement or atomic coordinate data resulting 
# from the CCDC's data processing and validation procedures.
#
#######################################################################

data_IBAFAV
_chemical_formula_moiety         'C20 H22 N2 O2 S1'
_chemical_name_systematic        
3a-methyl-1-((4-methylphenyl)sulfonyl)-3-vinyl-1,2,3,3a,8,8a-hexahydropyrrolo[2,3-b]indole
_symmetry_cell_setting           monoclinic
_symmetry_space_group_name_H-M   'P 21/n'
_symmetry_Int_Tables_number      14
_space_group_name_Hall           '-P 2yn'
loop_
_symmetry_equiv_pos_site_id
_symmetry_equiv_pos_as_xyz
1 x,y,z
2 1/2-x,1/2+y,1/2-z
3 -x,-y,-z
4 1/2+x,1/2-y,1/2+z
_cell_length_a                   13.764(3)
_cell_length_b                   8.3813(18)
_cell_length_c                   15.703(3)
_cell_angle_alpha                90
_cell_angle_beta                 95.075(4)
_cell_angle_gamma                90
_cell_volume                     1804.4
_exptl_crystal_colour            colorless
_exptl_crystal_description       block
_cell_formula_units_Z            4
loop_
_atom_site_label
_atom_site_type_symbol
_atom_site_fract_x
_atom_site_fract_y
_atom_site_fract_z
S1 S 0.29747(7) 0.35250(12) 0.36155(7)
O1 O 0.3407(2) 0.2125(3) 0.4021(2)
O2 O 0.3159(2) 0.3882(4) 0.27524(19)
N1 N 0.1808(2) 0.3339(3) 0.36068(19)
N2 N 0.0984(2) 0.5827(4) 0.3156(2)
C1 C 0.1333(3) 0.2932(6) 0.4372(3)
H1 H 0.1327 0.3860 0.4762
H2 H 0.1673 0.2035 0.4681
C2 C 0.1105(2) 0.4127(4) 0.3001(2)
H3 H 0.1258 0.3926 0.2400
C3 C -0.0537(2) 0.4787(4) 0.3214(2)
C4 C 0.3331(2) 0.5178(4) 0.4258(2)
C5 C 0.0116(2) 0.3353(4) 0.3178(2)
C6 C 0.3832(3) 0.7792(5) 0.5290(3)
C7 C -0.0429(4) 0.2509(8) 0.4635(4)
H4 H -0.0481 0.3467 0.4951
C8 C 0.3497(3) 0.7979(5) 0.4445(2)
H5 H 0.3440 0.9023 0.4210
C9 C 0.3920(3) 0.6264(6) 0.5605(3)
H6 H 0.4156 0.6107 0.6186
C10 C 0.3673(3) 0.4946(5) 0.5098(3)
H7 H 0.3740 0.3899 0.5327
C11 C 0.3241(3) 0.6688(4) 0.3931(2)
H8 H 0.3004 0.6846 0.3350
C12 C 0.4082(4) 0.9218(6) 0.5853(3)
H9 H 0.3999 1.0196 0.5512
H10 H 0.4760 0.9135 0.6097
H11 H 0.3649 0.9248 0.6316
C13 C -0.1425(3) 0.7728(6) 0.3175(3)
H12 H -0.1740 0.8737 0.3151
C14 C -0.0430(3) 0.7652(5) 0.3146(2)
H13 H -0.0053 0.8596 0.3113
C15 C 0.0003(3) 0.6167(4) 0.3166(2)
C16 C -0.1968(3) 0.6367(6) 0.3237(3)
H14 H -0.2653 0.6447 0.3270
C17 C -0.1529(3) 0.4876(5) 0.3253(3)
H15 H -0.1907 0.3934 0.3290
C18 C 0.0336(3) 0.2475(5) 0.4058(2)
H16 H 0.0390 0.1324 0.3900
C19 C -0.1065(9) 0.1377(12) 0.4778(8)
H17 H -0.1052 0.0390 0.4482
H18 H -0.1534 0.1552 0.5177
C20 C -0.0250(3) 0.2171(5) 0.2487(2)
H19 H -0.0362 0.2728 0.1938
H20 H -0.0862 0.1693 0.2636
H21 H 0.0238 0.1331 0.2442
H22 H 0.135(3) 0.635(5) 0.289(3)
H23? H 0.0565 0.1490 0.3777
C21? C -0.0410(15) 0.164(3) 0.4430(16)
H24? H -0.0448 0.0558 0.4254
C22? C -0.102(4) 0.197(5) 0.493(4)
H25? H -0.1058 0.3023 0.5147
H26? H -0.1463 0.1175 0.5087
loop_
_geom_bond_atom_site_label_1
_geom_bond_atom_site_label_2
_geom_bond_site_symmetry_1
_geom_bond_site_symmetry_2
S1 O1 1_555 1_555
O2 S1 1_555 1_555
N1 S1 1_555 1_555
N2 C2 1_555 1_555
C1 N1 1_555 1_555
H1 C1 1_555 1_555
H2 C1 1_555 1_555
C2 N1 1_555 1_555
H3 C2 1_555 1_555
C3 C5 1_555 1_555
C4 S1 1_555 1_555
C5 C2 1_555 1_555
C6 C8 1_555 1_555
C7 H4 1_555 1_555
C8 H5 1_555 1_555
C9 C6 1_555 1_555
H6 C9 1_555 1_555
C10 C4 1_555 1_555
H7 C10 1_555 1_555
C11 C4 1_555 1_555
H8 C11 1_555 1_555
C12 C6 1_555 1_555
H9 C12 1_555 1_555
H10 C12 1_555 1_555
H11 C12 1_555 1_555
C13 H12 1_555 1_555
C14 C13 1_555 1_555
H13 C14 1_555 1_555
C15 N2 1_555 1_555
C16 C13 1_555 1_555
H14 C16 1_555 1_555
C17 C3 1_555 1_555
H15 C17 1_555 1_555
C18 C1 1_555 1_555
H16 C18 1_555 1_555
C19 C7 1_555 1_555
H17 C19 1_555 1_555
H18 C19 1_555 1_555
C20 C5 1_555 1_555
H19 C20 1_555 1_555
H20 C20 1_555 1_555
H21 C20 1_555 1_555
H22 N2 1_555 1_555
C3 C15 1_555 1_555
C5 C18 1_555 1_555
C7 C18 1_555 1_555
C8 C11 1_555 1_555
C9 C10 1_555 1_555
C14 C15 1_555 1_555
C16 C17 1_555 1_555

#END
