
#######################################################################
#
#                 Cambridge Crystallographic Data Centre
#                                CCDC 
#
#######################################################################
#
# If this CIF has been generated from an entry in the Cambridge 
# Structural Database, then it will include bibliographic, chemical, 
# crystal, experimental, refinement or atomic coordinate data resulting 
# from the CCDC's data processing and validation procedures.
#
#######################################################################

data_IBAGUQ
_chemical_formula_moiety         'C30 H41 N3 O7 S1'
_chemical_name_systematic        
'methyl (3R,4R)-3-((R,Z)-1-(((R)-t-butylsulfinyl)imino)-1-methoxybutan-2-yl)-1,2-bis(4-methoxybenzyl)-5-oxopyrazolidine-4-carboxylate'
_symmetry_cell_setting           orthorhombic
_symmetry_space_group_name_H-M   'P 21 21 21'
_symmetry_Int_Tables_number      19
_space_group_name_Hall           'P 2ac 2ab'
loop_
_symmetry_equiv_pos_site_id
_symmetry_equiv_pos_as_xyz
1 x,y,z
2 1/2-x,-y,1/2+z
3 1/2+x,1/2-y,-z
4 -x,1/2+y,1/2-z
_cell_length_a                   8.3265(2)
_cell_length_b                   10.1974(3)
_cell_length_c                   38.2435(16)
_cell_angle_alpha                90
_cell_angle_beta                 90
_cell_angle_gamma                90
_cell_volume                     3247.2
_exptl_crystal_colour            white
_cell_formula_units_Z            4
loop_
_atom_site_label
_atom_site_type_symbol
_atom_site_fract_x
_atom_site_fract_y
_atom_site_fract_z
S1 S -1.03170(12) -0.23241(9) -0.30873(3)
O1 O -1.3236(3) -0.2983(3) -0.42378(7)
O2 O -1.0153(4) -0.1761(3) -0.46019(7)
O3 O -1.4979(5) -0.8107(5) -0.27575(13)
O4 O -0.6912(2) -0.3436(2) -0.36938(6)
O5 O -0.4660(5) -0.9090(3) -0.45719(10)
N1 N -1.2238(3) -0.5004(3) -0.41170(8)
N2 N -1.0752(3) -0.5704(2) -0.41067(6)
N3 N -0.8635(3) -0.2476(3) -0.33217(7)
C1 C -1.2117(4) -0.3741(4) -0.41879(8)
C2 C -1.0326(4) -0.3385(3) -0.41739(7)
H1 H -1.0178 -0.2689 -0.4000
C3 C -0.9575(3) -0.4652(3) -0.40315(7)
H2 H -0.8553 -0.4832 -0.4149
C4 C -1.3730(4) -0.5724(4) -0.40636(11)
H3 H -1.3786 -0.6426 -0.4234
H4 H -1.4624 -0.5137 -0.4108
C5 C -1.3930(4) -0.6303(4) -0.37057(10)
C6 C -1.4486(5) -0.7562(5) -0.36740(13)
H5 H -1.4631 -0.8053 -0.3877
C7 C -1.4838(7) -0.8131(6) -0.33612(18)
H6 H -1.5264 -0.8973 -0.3352
C8 C -1.4565(5) -0.7464(5) -0.30713(14)
C9 C -1.3959(5) -0.6198(5) -0.30744(12)
H7 H -1.3765 -0.5748 -0.2867
C10 C -1.3640(4) -0.5607(5) -0.34074(11)
H8 H -1.3240 -0.4756 -0.3420
C11 C -1.4686(11) -0.7506(9) -0.24529(17)
H9 H -1.5103 -0.6629 -0.2461
H10 H -1.3548 -0.7477 -0.2413
H11 H -1.5196 -0.7981 -0.2267
C12 C -0.9682(5) -0.2905(3) -0.45217(9)
C13 C -0.9671(7) -0.1225(5) -0.49400(12)
H12 H -1.0407 -0.1516 -0.5117
H13 H -0.8608 -0.1522 -0.4996
H14 H -0.9681 -0.0284 -0.4929
C14 C -1.0524(4) -0.6330(4) -0.44522(8)
H15 H -1.0487 -0.5655 -0.4631
H16 H -1.1437 -0.6890 -0.4501
C15 C -0.8998(4) -0.7139(3) -0.44704(8)
C16 C -0.8859(6) -0.8312(4) -0.42979(11)
H17 H -0.9694 -0.8643 -0.4163
C17 C -0.7324(8) -0.9031(4) -0.43360(13)
H18 H -0.7159 -0.9834 -0.4226
C18 C -0.6147(5) -0.8462(4) -0.45404(10)
C19 C -0.6314(6) -0.7353(4) -0.47007(10)
H19 H -0.5486 -0.7016 -0.4837
C20 C -0.7724(5) -0.6690(4) -0.46662(9)
H20 H -0.7833 -0.5892 -0.4781
C21 C -0.4339(8) -1.0276(5) -0.44340(15)
H21 H -0.4275 -1.0915 -0.4618
H22 H -0.5179 -1.0516 -0.4274
H23 H -0.3334 -1.0244 -0.4311
C22 C -0.9332(3) -0.4590(3) -0.36327(7)
H24 H -1.0392 -0.4497 -0.3524
C23 C -0.8573(4) -0.5855(3) -0.34928(8)
H25 H -0.9170 -0.6602 -0.3581
H26 H -0.7480 -0.5923 -0.3579
C24 C -0.8555(6) -0.5898(4) -0.30969(10)
H27 H -0.8215 -0.6751 -0.3021
H28 H -0.9615 -0.5724 -0.3010
H29 H -0.7824 -0.5248 -0.3010
C25 C -0.8340(3) -0.3415(3) -0.35285(7)
C26 C -0.5797(5) -0.2391(4) -0.36112(12)
H30 H -0.4806 -0.2535 -0.3733
H31 H -0.5599 -0.2381 -0.3364
H32 H -0.6248 -0.1566 -0.3681
C27 C -1.0342(5) -0.0539(4) -0.30835(11)
C28 C -1.1881(6) -0.0207(5) -0.28803(15)
H33 H -1.2793 -0.0293 -0.3032
H34 H -1.1818 0.0677 -0.2795
H35 H -1.1992 -0.0798 -0.2686
C29 C -1.0434(11) -0.0064(7) -0.34560(18)
H36 H -0.9415 -0.0197 -0.3568
H37 H -1.0696 0.0852 -0.3458
H38 H -1.1248 -0.0546 -0.3579
C30 C -0.8887(8) -0.0095(6) -0.2879(2)
H39 H -0.8859 -0.0539 -0.2658
H40 H -0.8946 0.0834 -0.2841
H41 H -0.7931 -0.0298 -0.3009
O6 O -0.8709(12) -0.3508(5) -0.47040(14)
O7 O -1.1786(9) -0.2823(11) -0.3233(4)
O8? O -1.164(2) -0.244(2) -0.3390(6)
O9? O -0.987(5) -0.367(3) -0.4772(7)
loop_
_geom_bond_atom_site_label_1
_geom_bond_atom_site_label_2
_geom_bond_site_symmetry_1
_geom_bond_site_symmetry_2
S1 N3 1_555 1_555
O1 C1 1_555 1_555
O2 C12 1_555 1_555
O3 C8 1_555 1_555
O4 C25 1_555 1_555
O5 C18 1_555 1_555
N1 N2 1_555 1_555
N2 C3 1_555 1_555
N3 C25 1_555 1_555
C1 N1 1_555 1_555
C2 C1 1_555 1_555
H1 C2 1_555 1_555
C3 C2 1_555 1_555
H2 C3 1_555 1_555
C4 N1 1_555 1_555
H3 C4 1_555 1_555
H4 C4 1_555 1_555
C5 C4 1_555 1_555
C6 C5 1_555 1_555
H5 C6 1_555 1_555
C7 C6 1_555 1_555
H6 C7 1_555 1_555
C8 C7 1_555 1_555
C9 C8 1_555 1_555
H7 C9 1_555 1_555
C10 C5 1_555 1_555
H8 C10 1_555 1_555
C11 O3 1_555 1_555
H9 C11 1_555 1_555
H10 C11 1_555 1_555
H11 C11 1_555 1_555
C12 C2 1_555 1_555
C13 O2 1_555 1_555
H12 C13 1_555 1_555
H13 C13 1_555 1_555
H14 C13 1_555 1_555
C14 N2 1_555 1_555
H15 C14 1_555 1_555
H16 C14 1_555 1_555
C15 C14 1_555 1_555
C16 C15 1_555 1_555
H17 C16 1_555 1_555
C17 C16 1_555 1_555
H18 C17 1_555 1_555
C18 C17 1_555 1_555
C19 C18 1_555 1_555
H19 C19 1_555 1_555
C20 C15 1_555 1_555
H20 C20 1_555 1_555
C21 O5 1_555 1_555
H21 C21 1_555 1_555
H22 C21 1_555 1_555
H23 C21 1_555 1_555
C22 C3 1_555 1_555
H24 C22 1_555 1_555
C23 C22 1_555 1_555
H25 C23 1_555 1_555
H26 C23 1_555 1_555
C24 C23 1_555 1_555
H27 C24 1_555 1_555
H28 C24 1_555 1_555
H29 C24 1_555 1_555
C25 C22 1_555 1_555
C26 O4 1_555 1_555
H30 C26 1_555 1_555
H31 C26 1_555 1_555
H32 C26 1_555 1_555
C27 S1 1_555 1_555
C28 C27 1_555 1_555
H33 C28 1_555 1_555
H34 C28 1_555 1_555
H35 C28 1_555 1_555
C29 C27 1_555 1_555
H36 C29 1_555 1_555
H37 C29 1_555 1_555
H38 C29 1_555 1_555
C30 C27 1_555 1_555
H39 C30 1_555 1_555
H40 C30 1_555 1_555
H41 C30 1_555 1_555
O6 C12 1_555 1_555
O7 S1 1_555 1_555
C9 C10 1_555 1_555
C19 C20 1_555 1_555

#END
