
#######################################################################
#
#                 Cambridge Crystallographic Data Centre
#                                CCDC 
#
#######################################################################
#
# If this CIF has been generated from an entry in the Cambridge 
# Structural Database, then it will include bibliographic, chemical, 
# crystal, experimental, refinement or atomic coordinate data resulting 
# from the CCDC's data processing and validation procedures.
#
#######################################################################

data_IBANUV
_chemical_name_common            'Tetrabutylammonium trimesate dihydrate'
_chemical_formula_moiety         'C16 H36 N1 1+,C9 H5 O6 1-,2(H2 O1)'
_chemical_name_systematic        
'Tetrabutylammonium 3,5-dicarboxyphenyl-1-carboxylate dihydrate'
_symmetry_cell_setting           monoclinic
_symmetry_space_group_name_H-M   'P 21/c'
_symmetry_Int_Tables_number      14
_space_group_name_Hall           '-P 2ybc'
loop_
_symmetry_equiv_pos_site_id
_symmetry_equiv_pos_as_xyz
1 x,y,z
2 -x,1/2+y,1/2-z
3 -x,-y,-z
4 x,1/2-y,1/2+z
_cell_length_a                   13.6206(17)
_cell_length_b                   13.6908(19)
_cell_length_c                   16.094(2)
_cell_angle_alpha                90
_cell_angle_beta                 109.665(3)
_cell_angle_gamma                90
_cell_volume                     2826.12
_exptl_crystal_colour            colorless
_exptl_crystal_description       block
_cell_formula_units_Z            4
loop_
_atom_site_label
_atom_site_type_symbol
_atom_site_fract_x
_atom_site_fract_y
_atom_site_fract_z
C1 C 0.17078(5) 0.35674(5) 0.29161(4)
C2 C 0.22846(5) 0.27246(5) 0.29556(4)
H1 H 0.2019 0.2126 0.3052
C3 C 0.32552(5) 0.27664(4) 0.28528(4)
C4 C 0.36479(5) 0.36673(4) 0.27123(4)
H2 H 0.4294 0.3698 0.2636
C5 C 0.30855(5) 0.45195(4) 0.26848(4)
C6 C 0.21166(5) 0.44621(5) 0.27865(4)
H3 H 0.1735 0.5030 0.2768
C7 C 0.06385(5) 0.35388(5) 0.29678(5)
C8 C 0.38514(5) 0.18413(4) 0.28674(5)
C9 C 0.35018(5) 0.54955(4) 0.25192(4)
O1 O 0.01141(4) 0.42678(5) 0.28898(6)
O2 O 0.03129(4) 0.26757(4) 0.30938(4)
H4 H -0.0352(9) 0.27382(16) 0.3071(7)
O3 O 0.47870(3) 0.19741(3) 0.28578(3)
H5 H 0.5195(4) 0.1383(5) 0.2812(6)
O4 O 0.34596(4) 0.10476(3) 0.28795(4)
O5 O 0.30581(4) 0.62467(3) 0.26340(4)
O6 O 0.42769(3) 0.54637(3) 0.22615(3)
O7 O 0.20669(5) 0.95092(4) 0.25001(5)
H6 H 0.2437 1.0025 0.2564
H7 H 0.1458 0.9696 0.2451
O8 O 0.16173(4) 0.76489(4) 0.19326(3)
H8 H 0.1758 0.8234 0.2116
H9 H 0.2068 0.7211 0.2155
N1 N 0.24962(4) 0.75252(4) 0.47901(3)
C10 C 0.31513(5) 0.77996(5) 0.42250(4)
H10 H 0.3197 0.7235 0.3876
H11 H 0.2789 0.8309 0.3818
C11 C 0.42441(5) 0.81502(6) 0.47199(5)
H12 H 0.4655 0.7615 0.5058
H13 H 0.4220 0.8663 0.5128
C12 C 0.47528(6) 0.85357(6) 0.40791(6)
H14 H 0.4719 0.8039 0.3641
H15 H 0.4370 0.9102 0.3775
C13 C 0.58675(7) 0.88134(8) 0.45389(7)
H16 H 0.6164 0.9049 0.4114
H17 H 0.6250 0.8252 0.4835
H18 H 0.5903 0.9317 0.4963
C14 C 0.30339(5) 0.67505(5) 0.54628(4)
H19 H 0.2622 0.6638 0.5842
H20 H 0.3706 0.7001 0.5830
C15 C 0.32028(6) 0.57789(5) 0.50775(5)
H21 H 0.2532 0.5491 0.4752
H22 H 0.3577 0.5886 0.4668
C16 C 0.38093(7) 0.50869(6) 0.57859(6)
H23 H 0.3454 0.5018 0.6214
H24 H 0.4491 0.5366 0.6089
C17 C 0.39478(7) 0.40909(6) 0.54457(7)
H25 H 0.4338 0.3684 0.5930
H26 H 0.4317 0.4150 0.5034
H27 H 0.3277 0.3803 0.5156
C18 C 0.23260(5) 0.84066(5) 0.52957(4)
H28 H 0.1894 0.8209 0.5638
H29 H 0.2996 0.8606 0.5709
C19 C 0.18241(7) 0.92825(5) 0.47440(5)
H30 H 0.2286 0.9537 0.4450
H31 H 0.1180 0.9083 0.4294
C20 C 0.15976(7) 1.00712(6) 0.53040(6)
H32 H 0.2236 1.0239 0.5775
H33 H 0.1107 0.9825 0.5572
C21 C 0.11497(9) 1.09836(7) 0.47756(9)
H34 H 0.1023 1.1468 0.5159
H35 H 0.0506 1.0825 0.4319
H36 H 0.1637 1.1235 0.4515
C22 C 0.14603(5) 0.71435(5) 0.41712(5)
H37 H 0.1596 0.6593 0.3847
H38 H 0.1137 0.7651 0.3746
C23 C 0.06905(6) 0.68235(6) 0.46164(5)
H39 H 0.0992 0.6290 0.5018
H40 H 0.0571 0.7362 0.4962
C24 C -0.03202(7) 0.65040(8) 0.39765(6)
H41 H -0.0194 0.5965 0.3634
H42 H -0.0612 0.7038 0.3572
C25 C -0.11046(7) 0.61897(8) 0.43812(7)
H43 H -0.1736 0.6001 0.3925
H44 H -0.1247 0.6721 0.4713
H45 H -0.0836 0.5645 0.4766
loop_
_geom_bond_atom_site_label_1
_geom_bond_atom_site_label_2
_geom_bond_site_symmetry_1
_geom_bond_site_symmetry_2
C1 C2 1_555 1_555
C2 H1 1_555 1_555
C3 C2 1_555 1_555
C4 C3 1_555 1_555
H2 C4 1_555 1_555
C5 C4 1_555 1_555
C6 C1 1_555 1_555
H3 C6 1_555 1_555
C7 C1 1_555 1_555
C8 C3 1_555 1_555
C9 C5 1_555 1_555
O1 C7 1_555 1_555
O2 C7 1_555 1_555
H4 O2 1_555 1_555
O3 C8 1_555 1_555
H5 O3 1_555 1_555
O4 C8 1_555 1_555
O5 C9 1_555 1_555
O6 C9 1_555 1_555
O7 H6 1_555 1_555
H7 O7 1_555 1_555
O8 H8 1_555 1_555
H9 O8 1_555 1_555
N1 C10 1_555 1_555
C10 H10 1_555 1_555
H11 C10 1_555 1_555
C11 C10 1_555 1_555
H12 C11 1_555 1_555
H13 C11 1_555 1_555
C12 C11 1_555 1_555
H14 C12 1_555 1_555
H15 C12 1_555 1_555
C13 C12 1_555 1_555
H16 C13 1_555 1_555
H17 C13 1_555 1_555
H18 C13 1_555 1_555
C14 N1 1_555 1_555
H19 C14 1_555 1_555
H20 C14 1_555 1_555
C15 C14 1_555 1_555
H21 C15 1_555 1_555
H22 C15 1_555 1_555
C16 C15 1_555 1_555
H23 C16 1_555 1_555
H24 C16 1_555 1_555
C17 C16 1_555 1_555
H25 C17 1_555 1_555
H26 C17 1_555 1_555
H27 C17 1_555 1_555
C18 N1 1_555 1_555
H28 C18 1_555 1_555
H29 C18 1_555 1_555
C19 C18 1_555 1_555
H30 C19 1_555 1_555
H31 C19 1_555 1_555
C20 C19 1_555 1_555
H32 C20 1_555 1_555
H33 C20 1_555 1_555
C21 C20 1_555 1_555
H34 C21 1_555 1_555
H35 C21 1_555 1_555
H36 C21 1_555 1_555
C22 N1 1_555 1_555
H37 C22 1_555 1_555
H38 C22 1_555 1_555
C23 C22 1_555 1_555
H39 C23 1_555 1_555
H40 C23 1_555 1_555
C24 C23 1_555 1_555
H41 C24 1_555 1_555
H42 C24 1_555 1_555
C25 C24 1_555 1_555
H43 C25 1_555 1_555
H44 C25 1_555 1_555
H45 C25 1_555 1_555
C5 C6 1_555 1_555

#END
