
#######################################################################
#
#                 Cambridge Crystallographic Data Centre
#                                CCDC 
#
#######################################################################
#
# If this CIF has been generated from an entry in the Cambridge 
# Structural Database, then it will include bibliographic, chemical, 
# crystal, experimental, refinement or atomic coordinate data resulting 
# from the CCDC's data processing and validation procedures.
#
#######################################################################

data_IBECUO01
_chemical_compound_source        'rhizome of Curcuma zedoaria'
_chemical_name_common            Curcumenol
_chemical_formula_moiety         'C15 H22 O2'
_chemical_name_systematic        
9-Isopropylidene-2,6-dimethyl-11-oxatricyclo[6.2.1.0^1,5^]undec-6-en-8-ol
_symmetry_cell_setting           monoclinic
_symmetry_space_group_name_H-M   'P 21'
_symmetry_Int_Tables_number      4
_space_group_name_Hall           'P 2yb'
loop_
_symmetry_equiv_pos_site_id
_symmetry_equiv_pos_as_xyz
1 x,y,z
2 -x,1/2+y,-z
_cell_length_a                   9.3495(7)
_cell_length_b                   12.5350(10)
_cell_length_c                   11.7727(9)
_cell_angle_alpha                90
_cell_angle_beta                 96.532(1)
_cell_angle_gamma                90
_cell_volume                     1370.76
_exptl_crystal_colour            colorless
_exptl_crystal_description       prism
_cell_formula_units_Z            4
loop_
_atom_site_label
_atom_site_type_symbol
_atom_site_fract_x
_atom_site_fract_y
_atom_site_fract_z
O1 O 0.24626(15) 0.50024(12) 0.49296(13)
H1 H 0.268(3) 0.497(2) 0.569(3)
O2 O 0.06839(14) 0.62132(11) 0.52267(11)
C1 C 0.2006(2) 0.60463(17) 0.47181(17)
C2 C 0.1560(2) 0.62872(17) 0.34601(17)
C3 C 0.2186(2) 0.59756(17) 0.25570(17)
C4 C 0.1634(3) 0.6348(2) 0.13744(18)
H3 H 0.0671 0.6656 0.1381
H4 H 0.1584 0.5741 0.0846
H5 H 0.2287 0.6890 0.1125
C5 C 0.3508(2) 0.52777(19) 0.2618(2)
H6 H 0.3878 0.5157 0.3421
H7 H 0.4248 0.5631 0.2226
H8 H 0.3257 0.4592 0.2248
C6 C 0.0287(2) 0.70366(17) 0.34497(17)
H9 H -0.0595 0.6710 0.3051
H10 H 0.0476 0.7719 0.3070
C7 C 0.0140(2) 0.72101(17) 0.47172(17)
C8 C -0.1354(2) 0.74213(18) 0.50599(18)
H11 H -0.1786 0.8026 0.4584
C9 C -0.2388(2) 0.6479(2) 0.4898(2)
H12 H -0.2524 0.6276 0.4089
H13 H -0.3317 0.6681 0.5145
H14 H -0.1987 0.5874 0.5356
C10 C -0.1057(2) 0.7814(2) 0.62979(19)
H15 H -0.0960 0.7204 0.6834
H16 H -0.1851 0.8277 0.6495
C11 C 0.0359(2) 0.84454(19) 0.63593(19)
H17 H 0.1000 0.8254 0.7057
H18 H 0.0168 0.9222 0.6371
C12 C 0.1062(2) 0.81353(17) 0.52712(17)
H19 H 0.0964 0.8756 0.4734
C13 C 0.2640(2) 0.78423(17) 0.54836(17)
C14 C 0.3074(2) 0.68708(17) 0.52234(17)
H20 H 0.4067 0.6693 0.5357
C15 C 0.3668(2) 0.86938(19) 0.5957(2)
H21 H 0.4647 0.8402 0.6069
H22 H 0.3395 0.8942 0.6692
H23 H 0.3634 0.9293 0.5420
O3 O 0.03989(15) 0.49267(12) 0.71017(12)
H2 H 0.045(3) 0.538(3) 0.656(3)
O4 O 0.28533(14) 0.46600(12) 0.72943(11)
C16 C 0.1638(2) 0.50276(17) 0.78584(16)
C17 C 0.1685(2) 0.42847(17) 0.88859(17)
C18 C 0.0631(2) 0.40510(18) 0.95131(17)
C19 C 0.0876(2) 0.3318(2) 1.0536(2)
H24 H 0.1859 0.3035 1.0596
H25 H 0.0187 0.2726 1.0443
H26 H 0.0740 0.3717 1.1232
C20 C -0.0861(2) 0.4506(2) 0.9308(2)
H27 H -0.0908 0.5024 0.8681
H28 H -0.1099 0.4861 1.0004
H29 H -0.1552 0.3930 0.9105
C21 C 0.3243(2) 0.39168(18) 0.91067(17)
H30 H 0.3322 0.3138 0.8986
H31 H 0.3659 0.4092 0.9895
C22 C 0.3990(2) 0.45412(18) 0.82278(17)
C23 C 0.5286(2) 0.40276(19) 0.77721(18)
H32 H 0.5990 0.3832 0.8444
C24 C 0.4981(3) 0.3034(2) 0.7059(2)
H33 H 0.4503 0.2504 0.7499
H34 H 0.5888 0.2738 0.6855
H35 H 0.4354 0.3213 0.6361
C25 C 0.5938(2) 0.4943(2) 0.71440(19)
H36 H 0.5450 0.5011 0.6356
H37 H 0.6977 0.4818 0.7105
C26 C 0.5709(2) 0.5955(2) 0.7840(2)
H38 H 0.5388 0.6555 0.7327
H39 H 0.6613 0.6162 0.8310
C27 C 0.4527(2) 0.56609(18) 0.86173(17)
H40 H 0.4996 0.5604 0.9422
C28 C 0.3310(2) 0.64559(18) 0.85997(17)
C29 C 0.1969(2) 0.61599(17) 0.82481(17)
H41 H 0.1210 0.6664 0.8241
C30 C 0.3704(3) 0.75649(19) 0.9014(2)
H42 H 0.2833 0.8004 0.8977
H43 H 0.4378 0.7880 0.8529
H44 H 0.4158 0.7532 0.9806
loop_
_geom_bond_atom_site_label_1
_geom_bond_atom_site_label_2
_geom_bond_site_symmetry_1
_geom_bond_site_symmetry_2
O1 H1 1_555 1_555
O2 C1 1_555 1_555
O3 H2 1_555 1_555
O4 C16 1_555 1_555
C1 O1 1_555 1_555
C2 C1 1_555 1_555
C3 C2 1_555 1_555
C4 C3 1_555 1_555
H3 C4 1_555 1_555
H4 C4 1_555 1_555
H5 C4 1_555 1_555
C5 C3 1_555 1_555
H6 C5 1_555 1_555
H7 C5 1_555 1_555
H8 C5 1_555 1_555
C6 C2 1_555 1_555
H9 C6 1_555 1_555
H10 C6 1_555 1_555
C7 O2 1_555 1_555
C8 C7 1_555 1_555
H11 C8 1_555 1_555
C9 C8 1_555 1_555
H12 C9 1_555 1_555
H13 C9 1_555 1_555
H14 C9 1_555 1_555
C10 C8 1_555 1_555
H15 C10 1_555 1_555
H16 C10 1_555 1_555
C11 C10 1_555 1_555
H17 C11 1_555 1_555
H18 C11 1_555 1_555
C12 C7 1_555 1_555
H19 C12 1_555 1_555
C13 C12 1_555 1_555
C14 C1 1_555 1_555
H20 C14 1_555 1_555
C15 C13 1_555 1_555
H21 C15 1_555 1_555
H22 C15 1_555 1_555
H23 C15 1_555 1_555
C16 O3 1_555 1_555
C17 C16 1_555 1_555
C18 C17 1_555 1_555
C19 C18 1_555 1_555
H24 C19 1_555 1_555
H25 C19 1_555 1_555
H26 C19 1_555 1_555
C20 C18 1_555 1_555
H27 C20 1_555 1_555
H28 C20 1_555 1_555
H29 C20 1_555 1_555
C21 C17 1_555 1_555
H30 C21 1_555 1_555
H31 C21 1_555 1_555
C22 O4 1_555 1_555
C23 C22 1_555 1_555
H32 C23 1_555 1_555
C24 C23 1_555 1_555
H33 C24 1_555 1_555
H34 C24 1_555 1_555
H35 C24 1_555 1_555
C25 C23 1_555 1_555
H36 C25 1_555 1_555
H37 C25 1_555 1_555
C26 C25 1_555 1_555
H38 C26 1_555 1_555
H39 C26 1_555 1_555
C27 C22 1_555 1_555
H40 C27 1_555 1_555
C28 C27 1_555 1_555
C29 C16 1_555 1_555
H41 C29 1_555 1_555
C30 C28 1_555 1_555
H42 C30 1_555 1_555
H43 C30 1_555 1_555
H44 C30 1_555 1_555
C6 C7 1_555 1_555
C11 C12 1_555 1_555
C13 C14 1_555 1_555
C21 C22 1_555 1_555
C26 C27 1_555 1_555
C28 C29 1_555 1_555

#END
