
#######################################################################
#
#                 Cambridge Crystallographic Data Centre
#                                CCDC 
#
#######################################################################
#
# If this CIF has been generated from an entry in the Cambridge 
# Structural Database, then it will include bibliographic, chemical, 
# crystal, experimental, refinement or atomic coordinate data resulting 
# from the CCDC's data processing and validation procedures.
#
#######################################################################

data_IBEGEC
_chemical_formula_moiety         '2(C3 H8 N1 O2 1+),O4 S1 2-'
_chemical_name_systematic        'DL-Alanine sulfate'
_symmetry_cell_setting           triclinic
_symmetry_space_group_name_H-M   'P -1'
_symmetry_Int_Tables_number      2
_space_group_name_Hall           '-P 1'
loop_
_symmetry_equiv_pos_site_id
_symmetry_equiv_pos_as_xyz
1 x,y,z
2 -x,-y,-z
_cell_length_a                   7.431(3)
_cell_length_b                   9.826(3)
_cell_length_c                   10.081(3)
_cell_angle_alpha                120.07(5)
_cell_angle_beta                 104.73(5)
_cell_angle_gamma                94.24(5)
_cell_volume                     597.991
_exptl_crystal_colour            colorless
_exptl_crystal_description       prismatic
_cell_formula_units_Z            2
loop_
_atom_site_label
_atom_site_type_symbol
_atom_site_fract_x
_atom_site_fract_y
_atom_site_fract_z
S1 S 0.8097(1) 0.2614(1) 0.6222(1)
O1 O 0.8531(2) 0.2918(2) 0.7854(2)
O2 O 0.9754(2) 0.3433(1) 0.6130(2)
O3 O 0.6412(2) 0.3195(2) 0.5776(2)
O4 O 0.7681(2) 0.0839(1) 0.5029(2)
O5 O 0.5841(2) 0.7146(2) 0.1779(2)
O6 O 0.5155(2) 0.9485(1) 0.2211(2)
C1 C 0.4903(2) 0.7915(2) 0.1363(2)
C2 C 0.3315(2) 0.7116(2) -0.0269(2)
C3 C 0.4091(5) 0.6905(4) -0.1592(3)
N1 N 0.2313(2) 0.5530(2) -0.0665(2)
H1 H 0.6097(46) 0.9947(38) 0.3197(40)
H2 H 0.2422(38) 0.7734(32) -0.0154(31)
H3 H 0.3094(57) 0.6367(49) -0.2630(52)
H4 H 0.4948(45) 0.6262(37) -0.1684(37)
H5 H 0.4689(49) 0.7994(44) -0.1238(42)
H6 H 0.1302(48) 0.4988(40) -0.1677(41)
H7 H 0.1917(39) 0.5705(34) 0.0194(37)
H8 H 0.2998(44) 0.4794(37) -0.0795(36)
O7 O 0.0975(2) 0.2920(2) 0.1696(2)
O8 O 0.2922(2) 0.4212(2) 0.4279(2)
C4 C 0.1776(2) 0.2939(2) 0.2911(2)
C5 C 0.1609(2) 0.1401(2) 0.2943(2)
C6 C -0.0428(3) 0.0374(3) 0.2100(3)
N2 N 0.2347(2) 0.1801(2) 0.4644(2)
H9 H 0.3133(45) 0.5135(40) 0.4205(38)
H10 H 0.2431(37) 0.0778(32) 0.2379(32)
H11 H -0.0435(47) -0.0543(40) 0.2220(39)
H12 H -0.0855(55) 0.0077(46) 0.0979(47)
H13 H -0.1355(46) 0.1006(39) 0.2579(39)
H14 H 0.2270(34) 0.0864(30) 0.4596(29)
H15 H 0.1681(39) 0.2392(34) 0.5199(34)
H16 H 0.3533(38) 0.2352(31) 0.5138(31)
loop_
_geom_bond_atom_site_label_1
_geom_bond_atom_site_label_2
_geom_bond_site_symmetry_1
_geom_bond_site_symmetry_2
S1 O1 1_555 1_555
O2 S1 1_555 1_555
O3 S1 1_555 1_555
O4 S1 1_555 1_555
O5 C1 1_555 1_555
O6 C1 1_555 1_555
C1 C2 1_555 1_555
C2 C3 1_555 1_555
C3 H3 1_555 1_555
N1 C2 1_555 1_555
O7 C4 1_555 1_555
O8 C4 1_555 1_555
C4 C5 1_555 1_555
C5 C6 1_555 1_555
C6 H11 1_555 1_555
N2 C5 1_555 1_555
H1 O6 1_555 1_555
H2 C2 1_555 1_555
H4 C3 1_555 1_555
H5 C3 1_555 1_555
H6 N1 1_555 1_555
H7 N1 1_555 1_555
H8 N1 1_555 1_555
H9 O8 1_555 1_555
H10 C5 1_555 1_555
H12 C6 1_555 1_555
H13 C6 1_555 1_555
H14 N2 1_555 1_555
H15 N2 1_555 1_555
H16 N2 1_555 1_555

#END
