
#######################################################################
#
#                 Cambridge Crystallographic Data Centre
#                                CCDC 
#
#######################################################################
#
# If this CIF has been generated from an entry in the Cambridge 
# Structural Database, then it will include bibliographic, chemical, 
# crystal, experimental, refinement or atomic coordinate data resulting 
# from the CCDC's data processing and validation procedures.
#
#######################################################################

data_IBEHEE
_chemical_compound_source        
'Abiesnephrolepis, dried plant material, extracted with 80% ethanol'
_chemical_name_common            'nephrolepismonoterpene A'
_chemical_formula_moiety         'C10 H16 O3'
_chemical_name_systematic        
'3-Hydroxy-2,3-dimethylbicyclo[2.2.1]heptane-2-carboxylic acid'
_chemical_properties_biological  
'Tested for cytotoxic activity against four tumor cells viz. A549, Colo205, QGY-7703 and THP-1'
_symmetry_cell_setting           orthorhombic
_symmetry_space_group_name_H-M   'P 21 21 21'
_symmetry_Int_Tables_number      19
_space_group_name_Hall           'P 2ac 2ab'
loop_
_symmetry_equiv_pos_site_id
_symmetry_equiv_pos_as_xyz
1 x,y,z
2 1/2-x,-y,1/2+z
3 -x,1/2+y,1/2-z
4 1/2+x,1/2-y,-z
_cell_length_a                   6.9477(7)
_cell_length_b                   12.9251(11)
_cell_length_c                   33.670(4)
_cell_angle_alpha                90
_cell_angle_beta                 90
_cell_angle_gamma                90
_cell_volume                     3023.56
_exptl_crystal_colour            colorless
_exptl_crystal_description       prism
_cell_formula_units_Z            12
_exptl_crystal_recrystallization_method methanol/water
loop_
_atom_site_label
_atom_site_type_symbol
_atom_site_fract_x
_atom_site_fract_y
_atom_site_fract_z
O1 O 0.8135(4) 0.06255(19) 0.18781(7)
H1 H 0.7958 0.0073 0.1765
O2 O 0.3769(4) 0.1194(2) 0.19544(8)
O3 O 0.4574(4) -0.04756(19) 0.19494(8)
H2 H 0.4022 -0.0471 0.1734
C1 C 0.5885(5) 0.1629(3) 0.26496(10)
H3 H 0.4601 0.1942 0.2657
C2 C 0.5962(5) 0.0538(3) 0.24564(9)
C3 C 0.8100(5) 0.0464(2) 0.23038(10)
C4 C 0.8977(5) 0.1446(3) 0.24767(11)
H4 H 1.0204 0.1642 0.2355
C5 C 0.9030(6) 0.1416(4) 0.29293(12)
H5 H 0.9866 0.1953 0.3033
H6 H 0.9478 0.0749 0.3024
C6 C 0.6928(7) 0.1606(4) 0.30519(12)
H7 H 0.6450 0.1050 0.3219
H8 H 0.6789 0.2258 0.3191
C7 C 0.7352(6) 0.2222(3) 0.24036(11)
H9 H 0.7630 0.2902 0.2510
H10 H 0.6995 0.2273 0.2126
C8 C 0.4619(5) 0.0488(3) 0.20975(10)
C9 C 0.5335(7) -0.0333(3) 0.27437(11)
H11 H 0.5414 -0.0988 0.2610
H12 H 0.4034 -0.0213 0.2828
H13 H 0.6169 -0.0337 0.2971
C10 C 0.9168(7) -0.0537(3) 0.23871(14)
H14 H 1.0451 -0.0491 0.2282
H15 H 0.8504 -0.1102 0.2263
H16 H 0.9226 -0.0651 0.2669
O4 O 0.3321(4) 0.16216(18) 0.11187(7)
H17 H 0.3313 0.1556 0.1361
O5 O -0.1176(4) 0.1669(2) 0.09434(8)
O6 O -0.0055(4) 0.2173(2) 0.15332(7)
H18 H -0.0759 0.1710 0.1614
C11 C 0.0849(6) 0.3167(3) 0.05247(12)
H19 H -0.0483 0.3094 0.0433
C12 C 0.1092(5) 0.3081(2) 0.09791(10)
C13 C 0.3268(6) 0.2710(3) 0.10181(10)
C14 C 0.3964(6) 0.2756(3) 0.05871(11)
H20 H 0.5150 0.2367 0.0537
C15 C 0.4018(8) 0.3881(4) 0.04362(14)
H21 H 0.4747 0.3935 0.0191
H22 H 0.4576 0.4339 0.0633
C16 C 0.1875(8) 0.4132(4) 0.03670(14)
H23 H 0.1490 0.4745 0.0513
H24 H 0.1607 0.4236 0.0087
C17 C 0.2209(7) 0.2336(3) 0.03686(11)
H25 H 0.2352 0.2356 0.0082
H26 H 0.1853 0.1646 0.0454
C18 C -0.0166(5) 0.2224(3) 0.11443(11)
C19 C 0.0630(6) 0.4075(3) 0.12071(13)
H27 H -0.0700 0.4250 0.1169
H28 H 0.1425 0.4628 0.1110
H29 H 0.0876 0.3971 0.1485
C20 C 0.4513(6) 0.3274(3) 0.13208(13)
H30 H 0.5786 0.2985 0.1319
H31 H 0.3960 0.3198 0.1580
H32 H 0.4578 0.3995 0.1253
O7 O 0.8167(4) 0.95769(19) 0.11706(7)
H33 H 0.8081 1.0137 0.1058
O8 O 0.3725(4) 0.9091(2) 0.11949(8)
O9 O 0.4895(4) 1.00988(19) 0.07168(8)
H34 H 0.4201 1.0531 0.0823
C21 C 0.5950(6) 0.7383(3) 0.09816(12)
H35 H 0.4616 0.7188 0.1040
C22 C 0.6172(5) 0.8420(3) 0.07528(10)
C23 C 0.8276(5) 0.8755(3) 0.08771(10)
C24 C 0.9007(6) 0.7817(3) 0.11102(11)
H36 H 1.0136 0.7960 0.1276
C25 C 0.9227(8) 0.6872(3) 0.08380(15)
H37 H 0.9956 0.6328 0.0967
H38 H 0.9859 0.7057 0.0591
C26 C 0.7133(9) 0.6537(3) 0.07654(15)
H39 H 0.6886 0.5859 0.0878
H40 H 0.6839 0.6523 0.0484
C27 C 0.7201(6) 0.7538(3) 0.13447(11)
H41 H 0.7353 0.6911 0.1500
H42 H 0.6756 0.8099 0.1512
C28 C 0.4800(5) 0.9222(3) 0.09173(10)
C29 C 0.5803(6) 0.8332(3) 0.03036(10)
H43 H 0.4495 0.8123 0.0259
H44 H 0.6658 0.7826 0.0192
H45 H 0.6026 0.8990 0.0180
C30 C 0.9578(6) 0.9141(3) 0.05466(12)
H46 H 1.0810 0.9323 0.0655
H47 H 0.9008 0.9738 0.0424
H48 H 0.9737 0.8606 0.0352
loop_
_geom_bond_atom_site_label_1
_geom_bond_atom_site_label_2
_geom_bond_site_symmetry_1
_geom_bond_site_symmetry_2
O1 H1 1_555 1_555
O2 C8 1_555 1_555
O3 H2 1_555 1_555
C1 H3 1_555 1_555
C2 C1 1_555 1_555
C3 O1 1_555 1_555
C4 C3 1_555 1_555
H4 C4 1_555 1_555
C5 C4 1_555 1_555
H5 C5 1_555 1_555
H6 C5 1_555 1_555
C6 C1 1_555 1_555
H7 C6 1_555 1_555
H8 C6 1_555 1_555
C7 C1 1_555 1_555
H9 C7 1_555 1_555
H10 C7 1_555 1_555
C8 O3 1_555 1_555
C9 C2 1_555 1_555
H11 C9 1_555 1_555
H12 C9 1_555 1_555
H13 C9 1_555 1_555
C10 C3 1_555 1_555
H14 C10 1_555 1_555
H15 C10 1_555 1_555
H16 C10 1_555 1_555
O4 H17 1_555 1_555
O5 C18 1_555 1_555
O6 H18 1_555 1_555
C11 H19 1_555 1_555
C12 C11 1_555 1_555
C13 O4 1_555 1_555
C14 C13 1_555 1_555
H20 C14 1_555 1_555
C15 C14 1_555 1_555
H21 C15 1_555 1_555
H22 C15 1_555 1_555
C16 C11 1_555 1_555
H23 C16 1_555 1_555
H24 C16 1_555 1_555
C17 C11 1_555 1_555
H25 C17 1_555 1_555
H26 C17 1_555 1_555
C18 O6 1_555 1_555
C19 C12 1_555 1_555
H27 C19 1_555 1_555
H28 C19 1_555 1_555
H29 C19 1_555 1_555
C20 C13 1_555 1_555
H30 C20 1_555 1_555
H31 C20 1_555 1_555
H32 C20 1_555 1_555
O7 H33 1_555 1_555
O8 C28 1_555 1_555
O9 H34 1_555 1_555
C21 H35 1_555 1_555
C22 C21 1_555 1_555
C23 O7 1_555 1_555
C24 C23 1_555 1_555
H36 C24 1_555 1_555
C25 C24 1_555 1_555
H37 C25 1_555 1_555
H38 C25 1_555 1_555
C26 C21 1_555 1_555
H39 C26 1_555 1_555
H40 C26 1_555 1_555
C27 C21 1_555 1_555
H41 C27 1_555 1_555
H42 C27 1_555 1_555
C28 O9 1_555 1_555
C29 C22 1_555 1_555
H43 C29 1_555 1_555
H44 C29 1_555 1_555
H45 C29 1_555 1_555
C30 C23 1_555 1_555
H46 C30 1_555 1_555
H47 C30 1_555 1_555
H48 C30 1_555 1_555
C2 C3 1_555 1_555
C2 C8 1_555 1_555
C4 C7 1_555 1_555
C5 C6 1_555 1_555
C12 C13 1_555 1_555
C12 C18 1_555 1_555
C14 C17 1_555 1_555
C15 C16 1_555 1_555
C22 C23 1_555 1_555
C22 C28 1_555 1_555
C24 C27 1_555 1_555
C25 C26 1_555 1_555

#END
