
#######################################################################
#
#                 Cambridge Crystallographic Data Centre
#                                CCDC 
#
#######################################################################
#
# If this CIF has been generated from an entry in the Cambridge 
# Structural Database, then it will include bibliographic, chemical, 
# crystal, experimental, refinement or atomic coordinate data resulting 
# from the CCDC's data processing and validation procedures.
#
#######################################################################

data_IBEHAY
_chemical_formula_moiety         'C17 H21 N1 O3'
_chemical_name_systematic        
'(+-)-Methyl 7\a-hydroxy-8-methyl-3-(p-tolyl)-8-azabicyclo(3.2.1)oct-2-ene-2-carboxylate'
_symmetry_cell_setting           monoclinic
_symmetry_space_group_name_H-M   'P 21/c'
_symmetry_Int_Tables_number      14
_space_group_name_Hall           '-P 2ybc'
loop_
_symmetry_equiv_pos_site_id
_symmetry_equiv_pos_as_xyz
1 x,y,z
2 -x,1/2+y,1/2-z
3 -x,-y,-z
4 x,1/2-y,1/2+z
_cell_length_a                   16.1472(10)
_cell_length_b                   21.757(2)
_cell_length_c                   8.8720(7)
_cell_angle_alpha                90
_cell_angle_beta                 96.070(6)
_cell_angle_gamma                90
_cell_volume                     3099.39
_chemical_melting_point          113-114deg.C
_cell_formula_units_Z            8
loop_
_atom_site_label
_atom_site_type_symbol
_atom_site_fract_x
_atom_site_fract_y
_atom_site_fract_z
C1 C 0.5152(1) 0.1913(1) 0.2016(1)
C2 C 0.5555(1) 0.1363(1) 0.2866(1)
C3 C 0.6158(1) 0.1481(1) 0.4213(2)
C4 C 0.7114(1) 0.2195(1) 0.5412(3)
O1 O 0.6552(1) 0.2024(1) 0.4107(1)
O2 O 0.6279(1) 0.1160(1) 0.5311(2)
C5 C 0.5328(1) 0.0790(1) 0.2439(2)
C6 C 0.5804(1) 0.0226(1) 0.2929(2)
C7 C 0.5426(1) -0.0296(1) 0.3443(2)
C8 C 0.5883(1) -0.0823(1) 0.3810(2)
C9 C 0.6725(1) -0.0859(1) 0.3641(2)
C10 C 0.7100(1) -0.0339(1) 0.3126(3)
C11 C 0.6651(1) 0.0192(1) 0.2780(2)
C12 C 0.7206(1) -0.1447(1) 0.3967(3)
C13 C 0.4589(1) 0.0694(1) 0.1270(2)
C14 C 0.4180(1) 0.1298(1) 0.0726(2)
C15 C 0.3730(1) 0.1615(1) 0.1957(2)
C16 C 0.4345(1) 0.2101(1) 0.2656(2)
O3 O 0.4398(1) 0.2097(1) 0.4251(1)
N1 N 0.4827(1) 0.1757(1) 0.0456(2)
C17 C 0.5442(1) 0.1558(1) -0.0534(2)
H1 H 0.5541 0.2259 0.2033
H2 H 0.7363 0.2585 0.5232
H3 H 0.7542 0.1889 0.5589
H4 H 0.6811 0.2224 0.6284
H5 H 0.4858 -0.0291 0.3542
H6 H 0.5618 -0.1163 0.4180
H7 H 0.7666 -0.0347 0.3011
H8 H 0.6921 0.0534 0.2440
H9 H 0.7789 -0.1355 0.4175
H10 H 0.7122 -0.1714 0.3103
H11 H 0.7015 -0.1647 0.4831
H15 H 0.4181 0.0440 0.1703
H16 H 0.4770 0.0477 0.0408
H17 H 0.3798 0.1234 -0.0195
H18 H 0.3218 0.1807 0.1517
H19 H 0.3597 0.1322 0.2717
H20 H 0.4173 0.2509 0.2275
H21 H 0.4476(14) 0.2495(11) 0.4640(30)
H22 H 0.5832 0.1884 -0.0639
H23 H 0.5166 0.1455 -0.1513
H24 H 0.5733 0.1204 -0.0103
C18 C 1.0173(1) -0.1941(1) 0.6746(2)
C19 C 0.9688(1) -0.1434(1) 0.7433(2)
C20 C 0.9045(1) -0.1648(1) 0.8385(2)
C21 C 0.8408(2) -0.1483(1) 1.0625(3)
O4 O 0.9036(1) -0.1321(1) 0.9659(2)
O5 O 0.8598(1) -0.2084(1) 0.8086(2)
C22 C 0.9829(1) -0.0841(1) 0.7137(2)
C23 C 0.9268(1) -0.0336(1) 0.7512(2)
C24 C 0.9556(1) 0.0192(1) 0.8273(2)
C25 C 0.9008(1) 0.0642(1) 0.8647(2)
C26 C 0.8158(1) 0.0593(1) 0.8231(2)
C27 C 0.7876(1) 0.0080(1) 0.7409(3)
C28 C 0.8418(1) -0.0377(1) 0.7064(3)
C29 C 0.7556(2) 0.1074(1) 0.8665(3)
C30 C 1.0553(1) -0.0674(1) 0.6273(2)
C31 C 1.1054(1) -0.1237(1) 0.5882(2)
C32 C 1.1532(1) -0.1521(1) 0.7304(2)
C33 C 1.1000(1) -0.2066(1) 0.7726(2)
O6 O 1.0941(1) -0.2083(1) 0.9301(1)
N2 N 1.0492(1) -0.1745(1) 0.5331(2)
C34 C 0.9854(1) -0.1591(1) 0.4092(2)
H25 H 0.9840 -0.2316 0.6594
H26 H 0.8546 -0.1306 1.1611
H27 H 0.8380 -0.1922 1.0712
H28 H 0.7877 -0.1329 1.0196
H29 H 1.0125 0.0245 0.8534
H30 H 0.9214 0.0985 0.9190
H31 H 0.7311 0.0042 0.7083
H32 H 0.8211 -0.0720 0.6522
H33 H 0.7838 0.1462 0.8799
H34 H 0.7345 0.0957 0.9594
H35 H 0.7103 0.1110 0.7877
H39 H 1.0917 -0.0392 0.6877
H40 H 1.0345 -0.0464 0.5345
H41 H 1.1434 -0.1133 0.5130
H42 H 1.2079 -0.1660 0.7090
H43 H 1.1599 -0.1224 0.8123
H44 H 1.1244 -0.2450 0.7404
H45 H 1.0813(13) -0.2489(10) 0.9620(20)
H46 H 0.9523 -0.1948 0.3817
H47 H 1.0116 -0.1452 0.3232
H48 H 0.9503 -0.1271 0.4415
H12? H 0.6828 -0.1789 0.3898
H13? H 0.7495 -0.1430 0.4969
H14? H 0.7602 -0.1497 0.3241
H36? H 0.7019 0.0890 0.8715
H37? H 0.7512 0.1395 0.7919
H38? H 0.7754 0.1243 0.9637
loop_
_geom_bond_atom_site_label_1
_geom_bond_atom_site_label_2
_geom_bond_site_symmetry_1
_geom_bond_site_symmetry_2
C1 C2 1_555 1_555
C2 C3 1_555 1_555
C3 O1 1_555 1_555
C4 O1 1_555 1_555
O2 C3 1_555 1_555
C5 C2 1_555 1_555
C6 C5 1_555 1_555
C7 C6 1_555 1_555
C8 C7 1_555 1_555
C9 C8 1_555 1_555
C10 C9 1_555 1_555
C11 C6 1_555 1_555
C12 C9 1_555 1_555
C13 C5 1_555 1_555
C14 C13 1_555 1_555
C15 C14 1_555 1_555
C16 C1 1_555 1_555
O3 C16 1_555 1_555
N1 C1 1_555 1_555
C17 N1 1_555 1_555
C18 C19 1_555 1_555
C19 C20 1_555 1_555
C20 O4 1_555 1_555
C21 O4 1_555 1_555
O5 C20 1_555 1_555
C22 C19 1_555 1_555
C23 C22 1_555 1_555
C24 C23 1_555 1_555
C25 C24 1_555 1_555
C26 C25 1_555 1_555
C27 C26 1_555 1_555
C28 C23 1_555 1_555
C29 C26 1_555 1_555
C30 C22 1_555 1_555
C31 C30 1_555 1_555
C32 C31 1_555 1_555
C33 C18 1_555 1_555
O6 C33 1_555 1_555
N2 C18 1_555 1_555
C34 N2 1_555 1_555
H1 C1 1_555 1_555
H2 C4 1_555 1_555
H3 C4 1_555 1_555
H4 C4 1_555 1_555
H5 C7 1_555 1_555
H6 C8 1_555 1_555
H7 C10 1_555 1_555
H8 C11 1_555 1_555
H9 C12 1_555 1_555
H10 C12 1_555 1_555
H11 C12 1_555 1_555
H15 C13 1_555 1_555
H16 C13 1_555 1_555
H17 C14 1_555 1_555
H18 C15 1_555 1_555
H19 C15 1_555 1_555
H20 C16 1_555 1_555
H21 O3 1_555 1_555
H22 C17 1_555 1_555
H23 C17 1_555 1_555
H24 C17 1_555 1_555
H25 C18 1_555 1_555
H26 C21 1_555 1_555
H27 C21 1_555 1_555
H28 C21 1_555 1_555
H29 C24 1_555 1_555
H30 C25 1_555 1_555
H31 C27 1_555 1_555
H32 C28 1_555 1_555
H33 C29 1_555 1_555
H34 C29 1_555 1_555
H35 C29 1_555 1_555
H39 C30 1_555 1_555
H40 C30 1_555 1_555
H41 C31 1_555 1_555
H42 C32 1_555 1_555
H43 C32 1_555 1_555
H44 C33 1_555 1_555
H45 O6 1_555 1_555
H46 C34 1_555 1_555
H47 C34 1_555 1_555
H48 C34 1_555 1_555
C10 C11 1_555 1_555
C14 N1 1_555 1_555
C15 C16 1_555 1_555
C27 C28 1_555 1_555
C31 N2 1_555 1_555
C32 C33 1_555 1_555

#END
