
#######################################################################
#
#                 Cambridge Crystallographic Data Centre
#                                CCDC 
#
#######################################################################
#
# If this CIF has been generated from an entry in the Cambridge 
# Structural Database, then it will include bibliographic, chemical, 
# crystal, experimental, refinement or atomic coordinate data resulting 
# from the CCDC's data processing and validation procedures.
#
#######################################################################

data_IBELUW
_chemical_formula_moiety         '2(C1 H6 N3 1+),C12 H8 O6 S2 2-,C11 H7 N1'
_chemical_name_systematic        
"bis(Guanidinium) 4,4'-biphenyldisulfonate 1-cyanonaphthalene clathrate"
_symmetry_cell_setting           orthorhombic
_symmetry_space_group_name_H-M   'P n a 21'
_symmetry_Int_Tables_number      33
_space_group_name_Hall           'P 2c -2n'
loop_
_symmetry_equiv_pos_site_id
_symmetry_equiv_pos_as_xyz
1 x,y,z
2 -x,-y,1/2+z
3 1/2-x,1/2+y,1/2+z
4 1/2+x,1/2-y,z
_cell_length_a                   16.4448(4)
_cell_length_b                   7.3914(2)
_cell_length_c                   22.6154(2)
_cell_angle_alpha                90
_cell_angle_beta                 90
_cell_angle_gamma                90
_cell_volume                     2748.9
_exptl_crystal_colour            colorless
_exptl_crystal_description       prism
_cell_formula_units_Z            4
loop_
_atom_site_label
_atom_site_type_symbol
_atom_site_fract_x
_atom_site_fract_y
_atom_site_fract_z
S1 S 0.6172(1) -0.2450(1) 0.3192(1)
O1 O 0.5831(4) -0.2457(3) 0.2591(3)
O2 O 0.6693(3) -0.0886(5) 0.3291(2)
O3 O 0.6603(3) -0.4119(5) 0.3324(2)
C1 C 0.5341(5) -0.2285(5) 0.3679(3)
C2 C 0.4566(4) -0.2709(6) 0.3506(3)
C3 C 0.3953(6) -0.2662(5) 0.3927(5)
C4 C 0.4084(5) -0.2191(6) 0.4517(3)
C5 C 0.4879(3) -0.1721(5) 0.4671(3)
C6 C 0.5503(3) -0.1751(6) 0.4264(3)
C7 C 0.3418(4) -0.2162(6) 0.4951(3)
C8 C 0.2627(3) -0.1659(6) 0.4778(3)
C9 C 0.2001(3) -0.1644(6) 0.5182(3)
C10 C 0.2131(5) -0.2199(6) 0.5751(3)
C11 C 0.2911(6) -0.2700(6) 0.5927(3)
C12 C 0.3562(5) -0.2668(6) 0.5539(4)
S2 S 0.1320(1) -0.2334(2) 0.6263(1)
O4 O 0.1676(4) -0.2392(3) 0.6854(3)
O5 O 0.0877(3) -0.3983(5) 0.6117(2)
O6 O 0.0830(3) -0.0698(5) 0.6168(2)
H1 H 0.4451(4) -0.3029(6) 0.3108(3)
H2 H 0.3417(6) -0.2966(5) 0.3808(5)
H3 H 0.4993(3) -0.1371(5) 0.5067(3)
H4 H 0.6038(3) -0.1414(6) 0.4378(3)
H5 H 0.2524(3) -0.1328(6) 0.4379(3)
H6 H 0.1476(3) -0.1245(6) 0.5066(3)
H7 H 0.2999(6) -0.3074(6) 0.6324(3)
H8 H 0.4093(5) -0.2983(6) 0.5667(4)
C13 C 0.5742(5) 0.2519(5) 0.2257(4)
N1 N 0.5521(4) 0.1004(6) 0.1984(3)
N2 N 0.6225(4) 0.2500(4) 0.2739(4)
N3 N 0.5536(4) 0.4084(6) 0.1997(3)
H9 H 0.5252(4) 0.1057(6) 0.1649(3)
H10 H 0.5645(4) -0.0053(6) 0.2140(3)
H11 H 0.6403(4) 0.1465(4) 0.2881(4)
H12 H 0.6363(4) 0.3523(4) 0.2911(4)
H13 H 0.5266(4) 0.4076(6) 0.1662(3)
H14 H 0.5671(4) 0.5119(6) 0.2163(3)
C14 C 0.1752(5) 0.2643(6) 0.7208(3)
N4 N 0.1968(3) 0.1051(5) 0.7428(2)
N5 N 0.1301(5) 0.2684(5) 0.6743(4)
N6 N 0.2002(3) 0.4180(5) 0.7440(2)
H15 H 0.1805(3) 0.0047(5) 0.7256(2)
H16 H 0.2276(3) 0.0998(5) 0.7746(2)
H17 H 0.1165(5) 0.3728(5) 0.6584(4)
H18 H 0.1130(5) 0.1668(5) 0.6583(4)
H19 H 0.1861(3) 0.5214(5) 0.7277(2)
H20 H 0.2310(3) 0.4173(5) 0.7758(2)
C15 C 0.3424(7) 0.2726(10) 0.5238(5)
C16 C 0.2618(7) 0.2929(18) 0.5403(5)
C17 C 0.1999(6) 0.3082(13) 0.4989(5)
C18 C 0.2189(6) 0.2994(11) 0.4386(4)
C19 C 0.2993(6) 0.2816(11) 0.4202(4)
C20 C 0.3214(9) 0.2764(14) 0.3604(6)
C21 C 0.3996(8) 0.2570(10) 0.3419(6)
C22 C 0.4641(7) 0.2495(13) 0.3841(6)
C23 C 0.4451(7) 0.2602(11) 0.4431(5)
C24 C 0.3634(8) 0.2725(22) 0.4634(5)
C25 C 0.4036(9) 0.2535(16) 0.5684(7)
N7 N 0.4502(9) 0.2386(12) 0.6049(6)
H21 H 0.2485(7) 0.2965(18) 0.5812(5)
H22 H 0.1452(6) 0.3245(13) 0.5113(5)
H23 H 0.1767(6) 0.3057(11) 0.4101(4)
H24 H 0.2799(9) 0.2871(14) 0.3314(6)
H25 H 0.4113(8) 0.2484(10) 0.3009(6)
H26 H 0.5190(7) 0.2373(13) 0.3716(6)
H27 H 0.4879(7) 0.2594(11) 0.4713(5)
C26? C 0.4065(8) 0.2779(12) 0.4200(6)
C27? C 0.4865(9) 0.2975(19) 0.4022(7)
C28? C 0.5495(7) 0.3015(15) 0.4439(5)
C29? C 0.5314(7) 0.2932(13) 0.5031(5)
C30? C 0.4501(7) 0.2767(12) 0.5229(5)
C31? C 0.4296(10) 0.2710(17) 0.5830(7)
C32? C 0.3516(9) 0.2525(11) 0.6013(7)
C33? C 0.2868(10) 0.2545(23) 0.5603(8)
C34? C 0.3052(8) 0.2626(16) 0.5015(7)
C35? C 0.3859(9) 0.2737(28) 0.4808(7)
C36? C 0.3425(12) 0.2583(23) 0.3769(8)
N8? N 0.2899(12) 0.2554(17) 0.3447(9)
H28? H 0.4988(9) 0.3085(19) 0.3613(7)
H29? H 0.6044(7) 0.3098(15) 0.4313(5)
H30? H 0.5742(7) 0.2987(13) 0.5313(5)
H31? H 0.4715(10) 0.2803(17) 0.6118(7)
H32? H 0.3403(9) 0.2379(11) 0.6422(7)
H33? H 0.2318(10) 0.2504(23) 0.5733(8)
H34? H 0.2622(8) 0.2606(16) 0.4735(7)
loop_
_geom_bond_atom_site_label_1
_geom_bond_atom_site_label_2
_geom_bond_site_symmetry_1
_geom_bond_site_symmetry_2
S1 O1 1_555 1_555
O2 S1 1_555 1_555
O3 S1 1_555 1_555
C1 S1 1_555 1_555
C2 C1 1_555 1_555
C3 C2 1_555 1_555
C4 C3 1_555 1_555
C5 C4 1_555 1_555
C6 C1 1_555 1_555
C7 C4 1_555 1_555
C8 C7 1_555 1_555
C9 C8 1_555 1_555
C10 C9 1_555 1_555
C11 C10 1_555 1_555
C12 C7 1_555 1_555
S2 C10 1_555 1_555
O4 S2 1_555 1_555
O5 S2 1_555 1_555
O6 S2 1_555 1_555
C13 N1 1_555 1_555
N1 H9 1_555 1_555
N2 C13 1_555 1_555
N3 C13 1_555 1_555
C14 N4 1_555 1_555
N4 H15 1_555 1_555
N5 C14 1_555 1_555
N6 C14 1_555 1_555
C15 C16 1_555 1_555
C16 C17 1_555 1_555
C17 C18 1_555 1_555
C18 C19 1_555 1_555
C19 C20 1_555 1_555
C20 C21 1_555 1_555
C21 C22 1_555 1_555
C22 C23 1_555 1_555
C23 C24 1_555 1_555
C24 C15 1_555 1_555
C25 C15 1_555 1_555
N7 C25 1_555 1_555
H1 C2 1_555 1_555
H2 C3 1_555 1_555
H3 C5 1_555 1_555
H4 C6 1_555 1_555
H5 C8 1_555 1_555
H6 C9 1_555 1_555
H7 C11 1_555 1_555
H8 C12 1_555 1_555
H10 N1 1_555 1_555
H11 N2 1_555 1_555
H12 N2 1_555 1_555
H13 N3 1_555 1_555
H14 N3 1_555 1_555
H16 N4 1_555 1_555
H17 N5 1_555 1_555
H18 N5 1_555 1_555
H19 N6 1_555 1_555
H20 N6 1_555 1_555
H21 C16 1_555 1_555
H22 C17 1_555 1_555
H23 C18 1_555 1_555
H24 C20 1_555 1_555
H25 C21 1_555 1_555
H26 C22 1_555 1_555
H27 C23 1_555 1_555
C5 C6 1_555 1_555
C11 C12 1_555 1_555
C19 C24 1_555 1_555

#END
