
#######################################################################
#
#                 Cambridge Crystallographic Data Centre
#                                CCDC 
#
#######################################################################
#
# If this CIF has been generated from an entry in the Cambridge 
# Structural Database, then it will include bibliographic, chemical, 
# crystal, experimental, refinement or atomic coordinate data resulting 
# from the CCDC's data processing and validation procedures.
#
#######################################################################

data_IBELEG
_chemical_formula_moiety         '2(C1 H6 N3 1+),C12 H8 O6 S2 2-,C8 H9 N1 O2'
_chemical_name_systematic        
"bis(Guanidinium) 4,4'-biphenyldisulfonate 4-nitro-o-xylene clathrate"
_symmetry_cell_setting           orthorhombic
_symmetry_space_group_name_H-M   'P n a 21'
_symmetry_Int_Tables_number      33
_space_group_name_Hall           'P 2c -2n'
loop_
_symmetry_equiv_pos_site_id
_symmetry_equiv_pos_as_xyz
1 x,y,z
2 -x,-y,1/2+z
3 1/2-x,1/2+y,1/2+z
4 1/2+x,1/2-y,z
_cell_length_a                   15.5457(5)
_cell_length_b                   7.4379(2)
_cell_length_c                   23.7189(7)
_cell_angle_alpha                90
_cell_angle_beta                 90
_cell_angle_gamma                90
_cell_volume                     2742.55
_exptl_crystal_colour            colorless
_exptl_crystal_description       needle
_cell_formula_units_Z            4
loop_
_atom_site_label
_atom_site_type_symbol
_atom_site_fract_x
_atom_site_fract_y
_atom_site_fract_z
S1 S 0.3755(2) 0.7175(4) 0.4762(1)
O1 O 0.4287(5) 0.5557(9) 0.4674(3)
O2 O 0.3365(6) 0.7260(10) 0.5297(4)
O3 O 0.4234(4) 0.8806(9) 0.4621(3)
S2 S -0.1274(2) 0.7336(3) 0.1732(1)
O4 O -0.0869(6) 0.7363(9) 0.1148(3)
O5 O -0.1846(4) 0.5788(8) 0.1806(3)
O6 O -0.1717(4) 0.9041(8) 0.1850(3)
C1 C 0.2931(8) 0.7030(14) 0.4273(5)
C2 C 0.3077(6) 0.6441(13) 0.3713(4)
C3 C 0.2440(6) 0.6438(14) 0.3332(4)
C4 C 0.1591(6) 0.6934(12) 0.3455(5)
C5 C 0.1386(9) 0.7470(14) 0.4032(6)
C6 C 0.2104(10) 0.7520(13) 0.4430(5)
C7 C 0.0899(6) 0.6998(13) 0.3030(4)
C8 C 0.0054(6) 0.6557(13) 0.3178(4)
C9 C -0.0605(6) 0.6626(14) 0.2764(4)
C10 C -0.0396(6) 0.7141(13) 0.2231(4)
C11 C 0.0441(7) 0.7549(13) 0.2077(5)
C12 C 0.1046(8) 0.7444(13) 0.2484(6)
H1 H 0.3634(6) 0.6043(13) 0.3606(4)
H2 H 0.2571(6) 0.6078(14) 0.2958(4)
H3 H 0.0817(9) 0.7770(14) 0.4142(6)
H4 H 0.2002(10) 0.7900(13) 0.4806(5)
H5 H -0.0078(6) 0.6212(13) 0.3554(4)
H6 H -0.1180(6) 0.6318(14) 0.2857(4)
H7 H 0.0583(7) 0.7888(13) 0.1702(5)
H8 H 0.1623(8) 0.7703(13) 0.2379(6)
C13 C 0.1605(7) 0.7215(15) 0.0670(5)
N1 N 0.1161(6) 0.7138(14) 0.0223(6)
N2 N 0.1815(6) 0.8829(12) 0.0903(4)
N3 N 0.1886(5) 0.5688(11) 0.0917(4)
H9 H 0.1035(6) 0.6089(14) 0.0073(6)
H10 H 0.0978(6) 0.8134(14) 0.0062(6)
H11 H 0.1642(6) 0.9833(12) 0.0742(4)
H12 H 0.2124(6) 0.8869(12) 0.1213(4)
H13 H 0.1761(5) 0.4638(11) 0.0766(4)
H14 H 0.2194(5) 0.5741(11) 0.1227(4)
C14 C 0.4181(9) 0.2631(13) 0.0793(5)
N4 N 0.4362(6) 0.4166(12) 0.0568(3)
N5 N 0.3683(6) 0.2583(10) 0.1284(4)
N6 N 0.4376(6) 0.1128(11) 0.0536(3)
H15 H 0.4619(6) 0.4210(12) 0.0237(3)
H16 H 0.4228(6) 0.5168(12) 0.0744(3)
H17 H 0.3497(6) 0.3591(10) 0.1435(4)
H18 H 0.3556(6) 0.1545(10) 0.1442(4)
H19 H 0.4633(6) 0.1156(11) 0.0206(3)
H20 H 0.4250(6) 0.0090(11) 0.0694(3)
C15 C 0.7039(12) 0.3039(17) 0.3506(7)
C16 C 0.7969(18) 0.3049(34) 0.3732(18)
C17 C 0.6277(12) 0.2889(19) 0.3809(7)
C18 C 0.6296(16) 0.2855(21) 0.4479(8)
C19 C 0.7004(12) 0.3004(17) 0.2926(7)
C20 C 0.6198(11) 0.2958(16) 0.2660(6)
C21 C 0.5456(13) 0.2845(13) 0.2989(8)
C22 C 0.5528(14) 0.2890(19) 0.3571(8)
N7 N 0.6137(9) 0.2782(16) 0.2045(6)
O7 O 0.5440(10) 0.2823(18) 0.1779(7)
O8 O 0.6821(8) 0.2633(15) 0.1738(5)
H21 H 0.7959(18) 0.3073(34) 0.4145(18)
H22 H 0.8270(18) 0.4115(34) 0.3591(18)
H23 H 0.8268(18) 0.1964(34) 0.3603(18)
H24 H 0.6894(16) 0.2858(21) 0.4610(8)
H25 H 0.6006(16) 0.1768(21) 0.4615(8)
H26 H 0.5998(16) 0.3919(21) 0.4626(8)
H27 H 0.7517(12) 0.3012(17) 0.2709(7)
H28 H 0.4907(13) 0.2737(13) 0.2816(8)
H29 H 0.5024(14) 0.2922(19) 0.3798(8)
loop_
_geom_bond_atom_site_label_1
_geom_bond_atom_site_label_2
_geom_bond_site_symmetry_1
_geom_bond_site_symmetry_2
S1 O1 1_555 1_555
O2 S1 1_555 1_555
O3 S1 1_555 1_555
S2 O4 1_555 1_555
O5 S2 1_555 1_555
O6 S2 1_555 1_555
C1 S1 1_555 1_555
C2 C1 1_555 1_555
C3 C2 1_555 1_555
C4 C3 1_555 1_555
C5 C4 1_555 1_555
C6 C1 1_555 1_555
C7 C4 1_555 1_555
C8 C7 1_555 1_555
C9 C8 1_555 1_555
C10 S2 1_555 1_555
C11 C10 1_555 1_555
C12 C7 1_555 1_555
C13 N1 1_555 1_555
N1 H9 1_555 1_555
N2 C13 1_555 1_555
N3 C13 1_555 1_555
C14 N4 1_555 1_555
N4 H15 1_555 1_555
N5 C14 1_555 1_555
N6 C14 1_555 1_555
C15 C16 1_555 1_555
C16 H21 1_555 1_555
C17 C15 1_555 1_555
C18 C17 1_555 1_555
C19 C15 1_555 1_555
C20 C19 1_555 1_555
C21 C20 1_555 1_555
C22 C17 1_555 1_555
N7 C20 1_555 1_555
O7 N7 1_555 1_555
O8 N7 1_555 1_555
H1 C2 1_555 1_555
H2 C3 1_555 1_555
H3 C5 1_555 1_555
H4 C6 1_555 1_555
H5 C8 1_555 1_555
H6 C9 1_555 1_555
H7 C11 1_555 1_555
H8 C12 1_555 1_555
H10 N1 1_555 1_555
H11 N2 1_555 1_555
H12 N2 1_555 1_555
H13 N3 1_555 1_555
H14 N3 1_555 1_555
H16 N4 1_555 1_555
H17 N5 1_555 1_555
H18 N5 1_555 1_555
H19 N6 1_555 1_555
H20 N6 1_555 1_555
H22 C16 1_555 1_555
H23 C16 1_555 1_555
H24 C18 1_555 1_555
H25 C18 1_555 1_555
H26 C18 1_555 1_555
H27 C19 1_555 1_555
H28 C21 1_555 1_555
H29 C22 1_555 1_555
C5 C6 1_555 1_555
C9 C10 1_555 1_555
C11 C12 1_555 1_555
C21 C22 1_555 1_555

#END
