
#######################################################################
#
#                 Cambridge Crystallographic Data Centre
#                                CCDC 
#
#######################################################################
#
# If this CIF has been generated from an entry in the Cambridge 
# Structural Database, then it will include bibliographic, chemical, 
# crystal, experimental, refinement or atomic coordinate data resulting 
# from the CCDC's data processing and validation procedures.
#
#######################################################################

data_IBEMOU
_chemical_formula_moiety         'C27 H20 O3'
_chemical_name_systematic        2,7-bis(4-methoxyphenyl)-9H-fluoren-9-one
_symmetry_cell_setting           monoclinic
_symmetry_space_group_name_H-M   'P 21/c'
_symmetry_Int_Tables_number      14
_space_group_name_Hall           '-P 2ybc'
loop_
_symmetry_equiv_pos_site_id
_symmetry_equiv_pos_as_xyz
1 x,y,z
2 -x,1/2+y,1/2-z
3 -x,-y,-z
4 x,1/2-y,1/2+z
_cell_length_a                   11.0929(11)
_cell_length_b                   8.7240(6)
_cell_length_c                   21.0781(18)
_cell_angle_alpha                90
_cell_angle_beta                 104.607(2)
_cell_angle_gamma                90
_cell_volume                     1973.89
_exptl_crystal_colour            red
_exptl_crystal_description       block
_cell_formula_units_Z            4
loop_
_atom_site_label
_atom_site_type_symbol
_atom_site_fract_x
_atom_site_fract_y
_atom_site_fract_z
O1 O 0.42805(16) 0.1219(2) 0.44139(9)
O2 O 0.10593(16) 0.3663(2) 0.01349(10)
O3 O 0.95444(17) 0.1851(2) 0.86041(10)
C1 C 0.4869(2) 0.2379(3) 0.43922(13)
C2 C 0.4733(2) 0.3408(3) 0.38143(13)
C3 C 0.3968(2) 0.3283(3) 0.31953(14)
H1 H 0.3412 0.2469 0.3093
C4 C 0.4018(2) 0.4372(3) 0.27167(14)
C5 C 0.4860(2) 0.5576(3) 0.29060(14)
H2 H 0.4903 0.6322 0.2597
C6 C 0.5632(2) 0.5712(3) 0.35296(14)
H3 H 0.6180 0.6534 0.3636
C7 C 0.5580(2) 0.4619(3) 0.39894(13)
C8 C 0.6276(2) 0.4413(3) 0.46746(13)
C9 C 0.7213(2) 0.5252(3) 0.50783(14)
H4 H 0.7501 0.6146 0.4927
C10 C 0.7719(2) 0.4750(3) 0.57108(14)
H5 H 0.8338 0.5342 0.5981
C11 C 0.7353(2) 0.3408(3) 0.59648(14)
C12 C 0.6398(2) 0.2568(3) 0.55445(14)
H6 H 0.6119 0.1663 0.5692
C13 C 0.5875(2) 0.3067(3) 0.49198(14)
C14 C 0.3245(2) 0.4243(3) 0.20398(14)
C15 C 0.3651(2) 0.4751(3) 0.15097(14)
H7 H 0.4427 0.5221 0.1588
C16 C 0.2968(2) 0.4596(3) 0.08711(14)
H8 H 0.3280 0.4951 0.0528
C17 C 0.1814(2) 0.3908(3) 0.07466(15)
C18 C 0.1379(2) 0.3390(3) 0.12660(15)
H9 H 0.0601 0.2926 0.1185
C19 C 0.2077(2) 0.3549(3) 0.18985(14)
H10 H 0.1765 0.3186 0.2240
C20 C 0.1362(3) 0.4440(4) -0.03984(14)
H11 H 0.1438 0.5519 -0.0306
H12 H 0.0716 0.4270 -0.0791
H13 H 0.2137 0.4056 -0.0457
C21 C 0.7932(2) 0.2922(3) 0.66448(14)
C22 C 0.9051(3) 0.3531(3) 0.70034(15)
H14 H 0.9472 0.4220 0.6800
C23 C 0.9560(3) 0.3154(3) 0.76470(15)
H15 H 1.0313 0.3587 0.7871
C24 C 0.8969(3) 0.2153(3) 0.79594(15)
C25 C 0.7865(3) 0.1508(3) 0.76239(16)
H16 H 0.7450 0.0818 0.7831
C26 C 0.7377(3) 0.1898(3) 0.69741(15)
H17 H 0.6634 0.1443 0.6749
C27 C 0.8825(3) 0.1259(4) 0.90133(15)
H18 H 0.8095 0.1880 0.8973
H19 H 0.9310 0.1270 0.9460
H20 H 0.8582 0.0226 0.8885
loop_
_geom_bond_atom_site_label_1
_geom_bond_atom_site_label_2
_geom_bond_site_symmetry_1
_geom_bond_site_symmetry_2
O1 C1 1_555 1_555
O2 C17 1_555 1_555
O3 C24 1_555 1_555
C1 C2 1_555 1_555
C2 C3 1_555 1_555
C3 H1 1_555 1_555
C4 C3 1_555 1_555
C5 C4 1_555 1_555
H2 C5 1_555 1_555
C6 C5 1_555 1_555
H3 C6 1_555 1_555
C7 C2 1_555 1_555
C8 C7 1_555 1_555
C9 C8 1_555 1_555
H4 C9 1_555 1_555
C10 C9 1_555 1_555
H5 C10 1_555 1_555
C11 C10 1_555 1_555
C12 C11 1_555 1_555
H6 C12 1_555 1_555
C13 C1 1_555 1_555
C14 C4 1_555 1_555
C15 C14 1_555 1_555
H7 C15 1_555 1_555
C16 C15 1_555 1_555
H8 C16 1_555 1_555
C17 C16 1_555 1_555
C18 C17 1_555 1_555
H9 C18 1_555 1_555
C19 C14 1_555 1_555
H10 C19 1_555 1_555
C20 O2 1_555 1_555
H11 C20 1_555 1_555
H12 C20 1_555 1_555
H13 C20 1_555 1_555
C21 C11 1_555 1_555
C22 C21 1_555 1_555
H14 C22 1_555 1_555
C23 C22 1_555 1_555
H15 C23 1_555 1_555
C24 C23 1_555 1_555
C25 C24 1_555 1_555
H16 C25 1_555 1_555
C26 C21 1_555 1_555
H17 C26 1_555 1_555
C27 O3 1_555 1_555
H18 C27 1_555 1_555
H19 C27 1_555 1_555
H20 C27 1_555 1_555
C6 C7 1_555 1_555
C8 C13 1_555 1_555
C12 C13 1_555 1_555
C18 C19 1_555 1_555
C25 C26 1_555 1_555

#END
