
#######################################################################
#
#                 Cambridge Crystallographic Data Centre
#                                CCDC 
#
#######################################################################
#
# If this CIF has been generated from an entry in the Cambridge 
# Structural Database, then it will include bibliographic, chemical, 
# crystal, experimental, refinement or atomic coordinate data resulting 
# from the CCDC's data processing and validation procedures.
#
#######################################################################

data_IBEMOU01
_chemical_formula_moiety         'C27 H20 O3'
_chemical_name_systematic        2,7-bis(4-methoxyphenyl)-9H-fluoren-9-one
_symmetry_cell_setting           orthorhombic
_symmetry_space_group_name_H-M   'C m c 21'
_symmetry_Int_Tables_number      36
_space_group_name_Hall           'C 2n -2'
loop_
_symmetry_equiv_pos_site_id
_symmetry_equiv_pos_as_xyz
1 x,y,z
2 -x,-y,1/2+z
3 x,-y,1/2+z
4 -x,y,z
5 1/2+x,1/2+y,z
6 1/2-x,1/2-y,1/2+z
7 1/2+x,1/2-y,1/2+z
8 1/2-x,1/2+y,z
_cell_length_a                   41.590(3)
_cell_length_b                   6.9057(4)
_cell_length_c                   7.0345(5)
_cell_angle_alpha                90
_cell_angle_beta                 90
_cell_angle_gamma                90
_cell_volume                     2020.37
_exptl_crystal_colour            yellow
_exptl_crystal_description       plate
_cell_formula_units_Z            4
loop_
_atom_site_label
_atom_site_type_symbol
_atom_site_fract_x
_atom_site_fract_y
_atom_site_fract_z
O1 O 0.5000 0.1775(7) 0.5636(6)
O2 O 0.71553(6) 0.2567(4) 0.3704(5)
C1 C 0.5000 0.2080(9) 0.3927(10)
C2 C 0.52844(9) 0.2299(6) 0.2677(7)
C3 C 0.51800(9) 0.2702(6) 0.0822(7)
C4 C 0.54030(10) 0.3027(6) -0.0586(7)
H1 H 0.5339 0.3281 -0.1829
C5 C 0.57296(9) 0.2962(6) -0.0089(7)
H2 H 0.5882 0.3186 -0.1033
C6 C 0.58366(10) 0.2582(6) 0.1735(7)
C7 C 0.56033(10) 0.2227(6) 0.3137(6)
H3 H 0.5666 0.1943 0.4375
C8 C 0.61836(9) 0.2536(6) 0.2229(6)
C9 C 0.64084(10) 0.3713(6) 0.1332(7)
H4 H 0.6341 0.4542 0.0370
C10 C 0.67304(9) 0.3681(6) 0.1834(7)
H5 H 0.6877 0.4472 0.1207
C11 C 0.68316(9) 0.2471(7) 0.3268(7)
C12 C 0.66177(9) 0.1300(6) 0.4197(7)
H6 H 0.6686 0.0491 0.5175
C13 C 0.62964(9) 0.1346(6) 0.3649(7)
H7 H 0.6152 0.0536 0.4268
C14 C 0.72721(11) 0.1398(9) 0.5197(9)
H8 H 0.7167 0.1748 0.6361
H9 H 0.7500 0.1589 0.5330
H10 H 0.7230 0.0062 0.4917
O2C O 0.28447(6) 0.2567(4) 0.3704(5)
C2C C 0.47156(9) 0.2299(6) 0.2677(7)
C3C C 0.48200(9) 0.2702(6) 0.0822(7)
C4C C 0.45970(10) 0.3027(6) -0.0586(7)
H1C H 0.4661 0.3281 -0.1829
C5C C 0.42704(9) 0.2962(6) -0.0089(7)
H2C H 0.4118 0.3186 -0.1033
C6C C 0.41634(10) 0.2582(6) 0.1735(7)
C7C C 0.43967(10) 0.2227(6) 0.3137(6)
H3C H 0.4334 0.1943 0.4375
C8C C 0.38164(9) 0.2536(6) 0.2229(6)
C9C C 0.35916(10) 0.3713(6) 0.1332(7)
H4C H 0.3659 0.4542 0.0370
C10C C 0.32696(9) 0.3681(6) 0.1834(7)
H5C H 0.3123 0.4472 0.1207
C11C C 0.31684(9) 0.2471(7) 0.3268(7)
C12C C 0.33823(9) 0.1300(6) 0.4197(7)
H6C H 0.3314 0.0491 0.5175
C13C C 0.37036(9) 0.1346(6) 0.3649(7)
H7C H 0.3848 0.0536 0.4268
C14C C 0.27279(11) 0.1398(9) 0.5197(9)
H8C H 0.2833 0.1748 0.6361
H9C H 0.2500 0.1589 0.5330
H10C H 0.2770 0.0062 0.4917
loop_
_geom_bond_atom_site_label_1
_geom_bond_atom_site_label_2
_geom_bond_site_symmetry_1
_geom_bond_site_symmetry_2
O1 C1 1_555 1_555
O2 C11 1_555 1_555
C1 C2 1_555 1_555
C2 C3 1_555 1_555
C3 C4 1_555 1_555
C4 H1 1_555 1_555
C5 C4 1_555 1_555
H2 C5 1_555 1_555
C6 C5 1_555 1_555
C7 C2 1_555 1_555
H3 C7 1_555 1_555
C8 C6 1_555 1_555
C9 C8 1_555 1_555
H4 C9 1_555 1_555
C10 C9 1_555 1_555
H5 C10 1_555 1_555
C11 C10 1_555 1_555
C12 C11 1_555 1_555
H6 C12 1_555 1_555
C13 C8 1_555 1_555
H7 C13 1_555 1_555
C14 O2 1_555 1_555
H8 C14 1_555 1_555
H9 C14 1_555 1_555
H10 C14 1_555 1_555
O2C C11C 1_555 1_555
C2C C1 1_555 1_555
C3C C3 1_555 1_555
C4C C3C 1_555 1_555
H1C C4C 1_555 1_555
C5C C4C 1_555 1_555
H2C C5C 1_555 1_555
C6C C5C 1_555 1_555
C7C C2C 1_555 1_555
H3C C7C 1_555 1_555
C8C C6C 1_555 1_555
C9C C8C 1_555 1_555
H4C C9C 1_555 1_555
C10C C9C 1_555 1_555
H5C C10C 1_555 1_555
C11C C10C 1_555 1_555
C12C C11C 1_555 1_555
H6C C12C 1_555 1_555
C13C C8C 1_555 1_555
H7C C13C 1_555 1_555
C14C O2C 1_555 1_555
H8C C14C 1_555 1_555
H9C C14C 1_555 1_555
H10C C14C 1_555 1_555
C6 C7 1_555 1_555
C12 C13 1_555 1_555
C2C C3C 1_555 1_555
C6C C7C 1_555 1_555
C12C C13C 1_555 1_555

#END
