
#######################################################################
#
#                 Cambridge Crystallographic Data Centre
#                                CCDC 
#
#######################################################################
#
# If this CIF has been generated from an entry in the Cambridge 
# Structural Database, then it will include bibliographic, chemical, 
# crystal, experimental, refinement or atomic coordinate data resulting 
# from the CCDC's data processing and validation procedures.
#
#######################################################################

data_IBENIM01
_chemical_name_common            
(Z)-3-(Diphenylboryloxy)-1,3-diphenylprop-2-en-1-one
_chemical_formula_moiety         'C27 H21 B1 O2'
_chemical_name_systematic        2,2,4,6-tetraphenyl-1,3,2-dioxaborinine
_symmetry_cell_setting           triclinic
_symmetry_space_group_name_H-M   'P -1'
_symmetry_Int_Tables_number      2
_space_group_name_Hall           '-P 1'
loop_
_symmetry_equiv_pos_site_id
_symmetry_equiv_pos_as_xyz
1 x,y,z
2 -x,-y,-z
_cell_length_a                   8.109(3)
_cell_length_b                   12.250(5)
_cell_length_c                   21.727(9)
_cell_angle_alpha                76.874(7)
_cell_angle_beta                 81.153(9)
_cell_angle_gamma                80.376(8)
_cell_volume                     2057.15
_exptl_crystal_colour            yellow
_exptl_crystal_description       block
_cell_formula_units_Z            4
_exptl_crystal_recrystallization_method 'Vapour Deposition'
loop_
_atom_site_label
_atom_site_type_symbol
_atom_site_fract_x
_atom_site_fract_y
_atom_site_fract_z
B1 B 0.7234(9) 0.2684(5) 0.4120(3)
C1 C 0.6134(7) 0.2701(4) 0.5234(3)
C2 C 0.5232(7) 0.2114(4) 0.5825(3)
C3 C 0.4597(9) 0.1137(5) 0.5834(3)
H1 H 0.4764 0.0840 0.5468
C4 C 0.3719(10) 0.0593(6) 0.6379(4)
H2 H 0.3285 -0.0063 0.6376
C5 C 0.3479(11) 0.1004(7) 0.6920(4)
H3 H 0.2890 0.0629 0.7286
C6 C 0.4110(12) 0.1982(8) 0.6927(3)
H4 H 0.3940 0.2267 0.7297
C7 C 0.4990(10) 0.2534(5) 0.6385(3)
H5 H 0.5426 0.3187 0.6391
C8 C 0.6494(7) 0.3810(5) 0.5145(3)
H6 H 0.6009 0.4260 0.5435
C9 C 0.7580(7) 0.4228(4) 0.4619(3)
C10 C 0.8251(7) 0.5293(4) 0.4532(3)
C11 C 0.7969(7) 0.5933(5) 0.5005(3)
H7 H 0.7347 0.5678 0.5393
C12 C 0.8616(8) 0.6942(5) 0.4894(4)
H8 H 0.8425 0.7367 0.5209
C13 C 0.9522(9) 0.7318(6) 0.4335(4)
H9 H 0.9936 0.8006 0.4263
C14 C 0.9832(10) 0.6702(6) 0.3878(4)
H10 H 1.0490 0.6961 0.3499
C15 C 0.9191(8) 0.5692(5) 0.3961(3)
H11 H 0.9390 0.5287 0.3637
C16 C 0.5630(7) 0.3218(5) 0.3744(3)
C17 C 0.4380(8) 0.2568(6) 0.3731(3)
H12 H 0.4483 0.1815 0.3946
C18 C 0.2994(9) 0.3012(7) 0.3409(4)
H13 H 0.2186 0.2559 0.3403
C19 C 0.2821(9) 0.4138(7) 0.3096(3)
H14 H 0.1870 0.4452 0.2893
C20 C 0.4020(9) 0.4773(6) 0.3084(3)
H15 H 0.3929 0.5514 0.2853
C21 C 0.5390(8) 0.4338(5) 0.3413(3)
H16 H 0.6181 0.4807 0.3413
C22 C 0.8614(7) 0.1796(4) 0.3832(3)
C23 C 0.9717(8) 0.1040(5) 0.4210(3)
H17 H 0.9587 0.1035 0.4643
C24 C 1.1002(9) 0.0293(5) 0.3970(3)
H18 H 1.1708 -0.0194 0.4243
C25 C 1.1237(9) 0.0268(6) 0.3338(4)
H19 H 1.2093 -0.0230 0.3173
C26 C 1.0171(10) 0.1001(6) 0.2955(3)
H20 H 1.0317 0.0996 0.2522
C27 C 0.8885(8) 0.1748(5) 0.3186(3)
H21 H 0.8187 0.2228 0.2908
O1 O 0.8133(5) 0.3645(3) 0.41836(18)
O2 O 0.6612(5) 0.2114(3) 0.48007(18)
B2 B 0.6652(9) 0.7083(5) 0.0897(3)
C28 C 0.7308(6) 0.8981(4) 0.0364(2)
C29 C 0.7916(7) 0.9997(4) 0.0442(3)
C30 C 0.8428(9) 1.0016(5) 0.1023(3)
H22 H 0.8392 0.9386 0.1355
C31 C 0.8985(11) 1.0964(6) 0.1102(4)
H23 H 0.9329 1.0971 0.1490
C32 C 0.9044(9) 1.1893(6) 0.0627(4)
H24 H 0.9415 1.2532 0.0692
C33 C 0.8561(8) 1.1892(5) 0.0056(4)
H25 H 0.8623 1.2528 -0.0271
C34 C 0.7977(7) 1.0952(5) -0.0044(3)
H26 H 0.7628 1.0962 -0.0433
C35 C 0.6589(7) 0.8905(5) -0.0151(3)
H27 H 0.6306 0.9557 -0.0452
C36 C 0.6276(7) 0.7872(4) -0.0233(3)
C37 C 0.5780(7) 0.7672(5) -0.0807(3)
C38 C 0.5054(9) 0.6741(5) -0.0797(3)
H28 H 0.4891 0.6222 -0.0416
C39 C 0.4547(10) 0.6546(6) -0.1345(4)
H29 H 0.4040 0.5910 -0.1326
C40 C 0.4805(10) 0.7302(7) -0.1908(4)
H30 H 0.4489 0.7179 -0.2277
C41 C 0.5519(11) 0.8225(8) -0.1923(3)
H31 H 0.5671 0.8741 -0.2307
C42 C 0.6025(9) 0.8429(6) -0.1398(3)
H32 H 0.6534 0.9068 -0.1427
C43 C 0.7873(7) 0.5988(4) 0.1189(3)
C44 C 0.7755(8) 0.5505(5) 0.1845(3)
H33 H 0.6894 0.5808 0.2119
C45 C 0.8860(9) 0.4612(6) 0.2089(4)
H34 H 0.8746 0.4322 0.2525
C46 C 1.0142(10) 0.4127(6) 0.1705(4)
H35 H 1.0892 0.3514 0.1877
C47 C 1.0300(10) 0.4568(6) 0.1055(4)
H36 H 1.1162 0.4253 0.0787
C48 C 0.9163(8) 0.5482(5) 0.0809(3)
H37 H 0.9274 0.5765 0.0372
C49 C 0.4826(7) 0.7319(5) 0.1278(3)
C50 C 0.4348(9) 0.8244(6) 0.1581(3)
H38 H 0.5109 0.8748 0.1553
C51 C 0.2773(11) 0.8417(8) 0.1920(4)
H39 H 0.2507 0.9016 0.2131
C52 C 0.1604(10) 0.7721(7) 0.1947(4)
H40 H 0.0537 0.7855 0.2167
C53 C 0.2017(9) 0.6806(6) 0.1644(4)
H41 H 0.1227 0.6331 0.1654
C54 C 0.3623(9) 0.6616(5) 0.1328(3)
H42 H 0.3904 0.5987 0.1142
O3 O 0.6458(5) 0.6981(3) 0.02248(18)
O4 O 0.7571(5) 0.8100(3) 0.08222(18)
loop_
_geom_bond_atom_site_label_1
_geom_bond_atom_site_label_2
_geom_bond_site_symmetry_1
_geom_bond_site_symmetry_2
B1 C16 1_555 1_555
C1 C2 1_555 1_555
C2 C3 1_555 1_555
C3 H1 1_555 1_555
C4 C3 1_555 1_555
H2 C4 1_555 1_555
C5 C4 1_555 1_555
H3 C5 1_555 1_555
C6 C5 1_555 1_555
H4 C6 1_555 1_555
C7 C2 1_555 1_555
H5 C7 1_555 1_555
C8 C1 1_555 1_555
H6 C8 1_555 1_555
C9 C8 1_555 1_555
C10 C9 1_555 1_555
C11 C10 1_555 1_555
H7 C11 1_555 1_555
C12 C11 1_555 1_555
H8 C12 1_555 1_555
C13 C12 1_555 1_555
H9 C13 1_555 1_555
C14 C13 1_555 1_555
H10 C14 1_555 1_555
C15 C10 1_555 1_555
H11 C15 1_555 1_555
C16 C17 1_555 1_555
C17 H12 1_555 1_555
C18 C17 1_555 1_555
H13 C18 1_555 1_555
C19 C18 1_555 1_555
H14 C19 1_555 1_555
C20 C19 1_555 1_555
H15 C20 1_555 1_555
C21 C16 1_555 1_555
H16 C21 1_555 1_555
C22 B1 1_555 1_555
C23 C22 1_555 1_555
H17 C23 1_555 1_555
C24 C23 1_555 1_555
H18 C24 1_555 1_555
C25 C24 1_555 1_555
H19 C25 1_555 1_555
C26 C25 1_555 1_555
H20 C26 1_555 1_555
C27 C22 1_555 1_555
H21 C27 1_555 1_555
O1 B1 1_555 1_555
O2 B1 1_555 1_555
B2 C43 1_555 1_555
C28 C29 1_555 1_555
C29 C30 1_555 1_555
C30 H22 1_555 1_555
C31 C30 1_555 1_555
H23 C31 1_555 1_555
C32 C31 1_555 1_555
H24 C32 1_555 1_555
C33 C32 1_555 1_555
H25 C33 1_555 1_555
C34 C29 1_555 1_555
H26 C34 1_555 1_555
C35 C28 1_555 1_555
H27 C35 1_555 1_555
C36 C35 1_555 1_555
C37 C36 1_555 1_555
C38 C37 1_555 1_555
H28 C38 1_555 1_555
C39 C38 1_555 1_555
H29 C39 1_555 1_555
C40 C39 1_555 1_555
H30 C40 1_555 1_555
C41 C40 1_555 1_555
H31 C41 1_555 1_555
C42 C37 1_555 1_555
H32 C42 1_555 1_555
C43 C44 1_555 1_555
C44 H33 1_555 1_555
C45 C44 1_555 1_555
H34 C45 1_555 1_555
C46 C45 1_555 1_555
H35 C46 1_555 1_555
C47 C46 1_555 1_555
H36 C47 1_555 1_555
C48 C43 1_555 1_555
H37 C48 1_555 1_555
C49 B2 1_555 1_555
C50 C49 1_555 1_555
H38 C50 1_555 1_555
C51 C50 1_555 1_555
H39 C51 1_555 1_555
C52 C51 1_555 1_555
H40 C52 1_555 1_555
C53 C52 1_555 1_555
H41 C53 1_555 1_555
C54 C49 1_555 1_555
H42 C54 1_555 1_555
O3 B2 1_555 1_555
O4 B2 1_555 1_555
C1 O2 1_555 1_555
C6 C7 1_555 1_555
C9 O1 1_555 1_555
C14 C15 1_555 1_555
C20 C21 1_555 1_555
C26 C27 1_555 1_555
C28 O4 1_555 1_555
C33 C34 1_555 1_555
C36 O3 1_555 1_555
C41 C42 1_555 1_555
C47 C48 1_555 1_555
C53 C54 1_555 1_555

#END
