
#######################################################################
#
#                 Cambridge Crystallographic Data Centre
#                                CCDC 
#
#######################################################################
#
# If this CIF has been generated from an entry in the Cambridge 
# Structural Database, then it will include bibliographic, chemical, 
# crystal, experimental, refinement or atomic coordinate data resulting 
# from the CCDC's data processing and validation procedures.
#
#######################################################################

data_IBENOV
_chemical_formula_moiety         'C29 H24 O1'
_chemical_name_systematic        2,7-bis(4-ethylphenyl)-9H-fluoren-9-one
_symmetry_cell_setting           monoclinic
_symmetry_space_group_name_H-M   'P 21/n'
_symmetry_Int_Tables_number      14
_space_group_name_Hall           '-P 2yn'
loop_
_symmetry_equiv_pos_site_id
_symmetry_equiv_pos_as_xyz
1 x,y,z
2 1/2-x,1/2+y,1/2-z
3 -x,-y,-z
4 1/2+x,1/2-y,1/2+z
_cell_length_a                   13.7657(12)
_cell_length_b                   9.4828(8)
_cell_length_c                   16.2158(15)
_cell_angle_alpha                90
_cell_angle_beta                 94.6770(10)
_cell_angle_gamma                90
_cell_volume                     2109.72
_exptl_crystal_colour            orange
_exptl_crystal_description       block
_cell_formula_units_Z            4
loop_
_atom_site_label
_atom_site_type_symbol
_atom_site_fract_x
_atom_site_fract_y
_atom_site_fract_z
O1 O 0.3855(2) 0.8846(3) 0.51769(18)
C1 C 0.4121(3) 0.7791(4) 0.5549(2)
C2 C 0.3537(3) 0.6902(4) 0.6081(2)
C3 C 0.2609(3) 0.7089(4) 0.6320(2)
H1 H 0.2241 0.7864 0.6132
C4 C 0.2223(3) 0.6110(4) 0.6847(2)
C5 C 0.2791(3) 0.4954(4) 0.7105(3)
H2 H 0.2535 0.4286 0.7448
C6 C 0.3732(3) 0.4766(4) 0.6866(3)
H3 H 0.4098 0.3981 0.7041
C7 C 0.4109(3) 0.5759(4) 0.6368(2)
C8 C 0.5072(3) 0.5884(4) 0.6044(2)
C9 C 0.5899(4) 0.5055(4) 0.6154(3)
H4 H 0.5896 0.4226 0.6460
C10 C 0.6728(3) 0.5483(4) 0.5801(3)
H5 H 0.7284 0.4926 0.5880
C11 C 0.6776(3) 0.6713(4) 0.5331(2)
C12 C 0.5921(3) 0.7518(4) 0.5223(2)
H6 H 0.5914 0.8338 0.4909
C13 C 0.5096(3) 0.7111(4) 0.5575(2)
C14 C 0.1225(3) 0.6260(4) 0.7123(2)
C15 C 0.1000(3) 0.5798(4) 0.7896(3)
H7 H 0.1497 0.5430 0.8257
C16 C 0.0067(3) 0.5862(4) 0.8152(3)
H8 H -0.0055 0.5530 0.8673
C17 C -0.0689(3) 0.6423(4) 0.7630(3)
C18 C -0.0470(3) 0.6919(4) 0.6872(3)
H9 H -0.0963 0.7314 0.6520
C19 C 0.0462(3) 0.6848(4) 0.6616(3)
H10 H 0.0582 0.7197 0.6099
C20 C -0.1711(3) 0.6408(4) 0.7891(3)
H11 H -0.2130 0.6911 0.7480
H12 H -0.1721 0.6915 0.8410
C21 C -0.2124(3) 0.4957(4) 0.7999(3)
H13 H -0.2119 0.4444 0.7489
H14 H -0.2782 0.5034 0.8151
H15 H -0.1736 0.4466 0.8426
C22 C 0.7683(3) 0.7132(4) 0.4961(2)
C23 C 0.8363(3) 0.6134(4) 0.4776(3)
H16 H 0.8254 0.5189 0.4891
C24 C 0.9199(4) 0.6518(5) 0.4425(3)
H17 H 0.9640 0.5820 0.4304
C25 C 0.9408(3) 0.7910(5) 0.4244(3)
C26 C 0.8725(4) 0.8901(5) 0.4448(3)
H18 H 0.8838 0.9848 0.4344
C27 C 0.7889(3) 0.8527(4) 0.4798(3)
H19 H 0.7452 0.9225 0.4929
C28 C 1.0301(4) 0.8340(6) 0.3844(4)
H20 H 1.0234 0.9322 0.3683
H21 H 1.0855 0.8271 0.4252
C29 C 1.0514(8) 0.7523(10) 0.3119(6)
H22 H 1.0688 0.6578 0.3284
H23 H 1.1045 0.7952 0.2864
H24 H 0.9948 0.7502 0.2732
H25? H 1.0135 0.8335 0.3251
H26? H 1.0450 0.9307 0.4001
C30? C 1.1204(10) 0.7528(19) 0.4018(16)
H27? H 1.1293 0.6906 0.3563
H28? H 1.1162 0.6986 0.4513
H29? H 1.1747 0.8164 0.4090
loop_
_geom_bond_atom_site_label_1
_geom_bond_atom_site_label_2
_geom_bond_site_symmetry_1
_geom_bond_site_symmetry_2
O1 C1 1_555 1_555
C1 C2 1_555 1_555
C2 C3 1_555 1_555
C3 H1 1_555 1_555
C4 C3 1_555 1_555
C5 C4 1_555 1_555
H2 C5 1_555 1_555
C6 C5 1_555 1_555
H3 C6 1_555 1_555
C7 C2 1_555 1_555
C8 C7 1_555 1_555
C9 C8 1_555 1_555
H4 C9 1_555 1_555
C10 C9 1_555 1_555
H5 C10 1_555 1_555
C11 C10 1_555 1_555
C12 C11 1_555 1_555
H6 C12 1_555 1_555
C13 C1 1_555 1_555
C14 C4 1_555 1_555
C15 C14 1_555 1_555
H7 C15 1_555 1_555
C16 C15 1_555 1_555
H8 C16 1_555 1_555
C17 C16 1_555 1_555
C18 C17 1_555 1_555
H9 C18 1_555 1_555
C19 C14 1_555 1_555
H10 C19 1_555 1_555
C20 C17 1_555 1_555
H11 C20 1_555 1_555
H12 C20 1_555 1_555
C21 C20 1_555 1_555
H13 C21 1_555 1_555
H14 C21 1_555 1_555
H15 C21 1_555 1_555
C22 C11 1_555 1_555
C23 C22 1_555 1_555
H16 C23 1_555 1_555
C24 C23 1_555 1_555
H17 C24 1_555 1_555
C25 C24 1_555 1_555
C26 C25 1_555 1_555
H18 C26 1_555 1_555
C27 C22 1_555 1_555
H19 C27 1_555 1_555
C28 C25 1_555 1_555
H20 C28 1_555 1_555
H21 C28 1_555 1_555
C29 C28 1_555 1_555
H22 C29 1_555 1_555
H23 C29 1_555 1_555
H24 C29 1_555 1_555
C6 C7 1_555 1_555
C8 C13 1_555 1_555
C12 C13 1_555 1_555
C18 C19 1_555 1_555
C26 C27 1_555 1_555

#END
