
#######################################################################
#
#                 Cambridge Crystallographic Data Centre
#                                CCDC 
#
#######################################################################
#
# If this CIF has been generated from an entry in the Cambridge 
# Structural Database, then it will include bibliographic, chemical, 
# crystal, experimental, refinement or atomic coordinate data resulting 
# from the CCDC's data processing and validation procedures.
#
#######################################################################

data_IBEPAJ
_chemical_name_common            
'2-Bromo-7,12-diiodo-5,5,10,10,15,15-hexaethyltruxene unknown solvate'
_chemical_formula_moiety         'C39 H39 Br1 I2'
_chemical_name_systematic        
"2-bromo-5,5,10,10,15,15-hexaethyl-7,12-diiodo-10,15-dihydro-5H-diindeno[1,2-a:1',2'-c]fluorene unknown solvate"
_symmetry_cell_setting           cubic
_symmetry_space_group_name_H-M   'P a -3'
_symmetry_Int_Tables_number      205
_space_group_name_Hall           '-P 2ac 2ab 3'
loop_
_symmetry_equiv_pos_site_id
_symmetry_equiv_pos_as_xyz
1 x,y,z
2 1/2-x,-y,1/2+z
3 -x,1/2+y,1/2-z
4 1/2+x,1/2-y,-z
5 z,x,y
6 1/2+z,1/2-x,-y
7 1/2-z,-x,1/2+y
8 -z,1/2+x,1/2-y
9 y,z,x
10 -y,1/2+z,1/2-x
11 1/2+y,1/2-z,-x
12 1/2-y,-z,1/2+x
13 -x,-y,-z
14 1/2+x,y,1/2-z
15 x,1/2-y,1/2+z
16 1/2-x,1/2+y,z
17 -z,-x,-y
18 1/2-z,1/2+x,y
19 1/2+z,x,1/2-y
20 z,1/2-x,1/2+y
21 -y,-z,-x
22 y,1/2-z,1/2+x
23 1/2-y,1/2+z,x
24 1/2+y,z,1/2-x
_cell_length_a                   19.950(5)
_cell_length_b                   19.950(5)
_cell_length_c                   19.950(5)
_cell_angle_alpha                90
_cell_angle_beta                 90
_cell_angle_gamma                90
_cell_volume                     7940.15
_exptl_crystal_colour            colorless
_exptl_crystal_description       plate
_cell_formula_units_Z            8
_exptl_crystal_recrystallization_method tetrahydrofuran
_exptl_crystal_preparation       Luminescent
loop_
_atom_site_label
_atom_site_type_symbol
_atom_site_fract_x
_atom_site_fract_y
_atom_site_fract_z
I1 I 1.00092(3) 0.30916(4) 1.03738(3)
C1 C 0.7834(3) 0.2102(3) 0.8938(2)
C2 C 0.7512(2) 0.2370(2) 0.8290(2)
C3 C 0.7861(2) 0.2946(2) 0.8060(2)
C4 C 0.8422(2) 0.3076(2) 0.8531(2)
C5 C 0.8941(2) 0.3552(3) 0.8558(2)
H1 H 0.8984 0.3869 0.8219
C6 C 0.9389(3) 0.3551(3) 0.9088(3)
H2 H 0.9727 0.3872 0.9108
C7 C 0.9336(3) 0.3073(3) 0.9587(3)
C8 C 0.8845(3) 0.2594(3) 0.9567(3)
H3 H 0.8817 0.2272 0.9903
C9 C 0.8390(3) 0.2596(3) 0.9039(3)
C10 C 0.8135(3) 0.1392(3) 0.8850(3)
H4 H 0.8339 0.1257 0.9270
H5 H 0.7774 0.1081 0.8754
C11 C 0.8646(4) 0.1341(4) 0.8308(5)
H6 H 0.8459 0.1502 0.7895
H7 H 0.8777 0.0881 0.8255
H8 H 0.9030 0.1605 0.8425
C12 C 0.7342(3) 0.2133(3) 0.9532(3)
H9 H 0.6997 0.1796 0.9467
H10 H 0.7582 0.2021 0.9939
C13 C 0.7006(5) 0.2812(5) 0.9623(4)
H11 H 0.7341 0.3157 0.9633
H12 H 0.6761 0.2815 1.0038
H13 H 0.6704 0.2892 0.9258
I1F I 0.46262(3) -0.00092(3) 0.80916(4)
C1F C 0.6062(2) 0.2166(3) 0.7102(3)
C2F C 0.6710(2) 0.2488(2) 0.7370(2)
C3F C 0.6940(2) 0.2139(2) 0.7946(2)
C4F C 0.6469(2) 0.1578(2) 0.8076(2)
C5F C 0.6442(2) 0.1059(2) 0.8552(3)
H1F H 0.6781 0.1016 0.8869
C6F C 0.5912(3) 0.0611(3) 0.8551(3)
H2F H 0.5892 0.0273 0.8872
C7F C 0.5413(3) 0.0664(3) 0.8073(3)
C8F C 0.5433(3) 0.1155(3) 0.7594(3)
H3F H 0.5097 0.1183 0.7272
C9F C 0.5961(3) 0.1610(3) 0.7596(3)
C10F C 0.6150(3) 0.1865(3) 0.6392(3)
H4F H 0.5730 0.1661 0.6257
H5F H 0.6246 0.2226 0.6081
C11F C 0.6692(5) 0.1354(4) 0.6341(4)
H6F H 0.7105 0.1541 0.6502
H7F H 0.6745 0.1223 0.5881
H8F H 0.6575 0.0970 0.6605
C12F C 0.5468(3) 0.2658(3) 0.7133(3)
H9F H 0.5533 0.3003 0.6796
H10F H 0.5061 0.2418 0.7021
C13F C 0.5377(4) 0.2994(5) 0.7812(5)
H11F H 0.5367 0.2659 0.8157
H12F H 0.4962 0.3239 0.7815
H13F H 0.5742 0.3296 0.7892
I1I I 0.69084(4) 0.53738(3) 0.49908(3)
C1I C 0.7898(3) 0.3938(2) 0.7166(3)
C2I C 0.7630(2) 0.3290(2) 0.7488(2)
C3I C 0.7054(2) 0.3060(2) 0.7139(2)
C4I C 0.6924(2) 0.3531(2) 0.6578(2)
C5I C 0.6448(3) 0.3558(2) 0.6059(2)
H1I H 0.6131 0.3219 0.6016
C6I C 0.6449(3) 0.4088(3) 0.5611(3)
H2I H 0.6128 0.4108 0.5273
C7I C 0.6927(3) 0.4587(3) 0.5664(3)
C8I C 0.7406(3) 0.4567(3) 0.6155(3)
H3I H 0.7728 0.4903 0.6183
C9I C 0.7404(3) 0.4039(3) 0.6610(3)
C10I C 0.8608(3) 0.3850(3) 0.6865(3)
H4I H 0.8743 0.4270 0.6661
H5I H 0.8919 0.3754 0.7226
C11I C 0.8659(4) 0.3308(5) 0.6354(4)
H6I H 0.8498 0.2895 0.6541
H7I H 0.9119 0.3255 0.6223
H8I H 0.8395 0.3425 0.5970
C12I C 0.7867(3) 0.4532(3) 0.7658(3)
H9I H 0.8204 0.4467 0.8003
H10I H 0.7979 0.4939 0.7418
C13I C 0.7188(5) 0.4623(4) 0.7994(5)
H11I H 0.6843 0.4633 0.7659
H12I H 0.7185 0.5038 0.8239
H13I H 0.7108 0.4258 0.8296
Br1? Br 1.00092(3) 0.30916(4) 1.03738(3)
loop_
_geom_bond_atom_site_label_1
_geom_bond_atom_site_label_2
_geom_bond_site_symmetry_1
_geom_bond_site_symmetry_2
I1 C7 1_555 1_555
C1 C2 1_555 1_555
C2 C3 1_555 1_555
C3 C4 1_555 1_555
C4 C5 1_555 1_555
C5 H1 1_555 1_555
C6 C5 1_555 1_555
H2 C6 1_555 1_555
C7 C6 1_555 1_555
C8 C7 1_555 1_555
H3 C8 1_555 1_555
C9 C1 1_555 1_555
C10 C1 1_555 1_555
H4 C10 1_555 1_555
H5 C10 1_555 1_555
C11 C10 1_555 1_555
H6 C11 1_555 1_555
H7 C11 1_555 1_555
H8 C11 1_555 1_555
C12 C1 1_555 1_555
H9 C12 1_555 1_555
H10 C12 1_555 1_555
C13 C12 1_555 1_555
H11 C13 1_555 1_555
H12 C13 1_555 1_555
H13 C13 1_555 1_555
I1F C7F 1_555 1_555
C1F C2F 1_555 1_555
C2F C3F 1_555 1_555
C3F C2 1_555 1_555
C4F C3F 1_555 1_555
C5F C4F 1_555 1_555
H1F C5F 1_555 1_555
C6F C5F 1_555 1_555
H2F C6F 1_555 1_555
C7F C6F 1_555 1_555
C8F C7F 1_555 1_555
H3F C8F 1_555 1_555
C9F C1F 1_555 1_555
C10F C1F 1_555 1_555
H4F C10F 1_555 1_555
H5F C10F 1_555 1_555
C11F C10F 1_555 1_555
H6F C11F 1_555 1_555
H7F C11F 1_555 1_555
H8F C11F 1_555 1_555
C12F C1F 1_555 1_555
H9F C12F 1_555 1_555
H10F C12F 1_555 1_555
C13F C12F 1_555 1_555
H11F C13F 1_555 1_555
H12F C13F 1_555 1_555
H13F C13F 1_555 1_555
I1I C7I 1_555 1_555
C1I C2I 1_555 1_555
C2I C3 1_555 1_555
C3I C2F 1_555 1_555
C4I C3I 1_555 1_555
C5I C4I 1_555 1_555
H1I C5I 1_555 1_555
C6I C5I 1_555 1_555
H2I C6I 1_555 1_555
C7I C6I 1_555 1_555
C8I C7I 1_555 1_555
H3I C8I 1_555 1_555
C9I C1I 1_555 1_555
C10I C1I 1_555 1_555
H4I C10I 1_555 1_555
H5I C10I 1_555 1_555
C11I C10I 1_555 1_555
H6I C11I 1_555 1_555
H7I C11I 1_555 1_555
H8I C11I 1_555 1_555
C12I C1I 1_555 1_555
H9I C12I 1_555 1_555
H10I C12I 1_555 1_555
C13I C12I 1_555 1_555
H11I C13I 1_555 1_555
H12I C13I 1_555 1_555
H13I C13I 1_555 1_555
C4 C9 1_555 1_555
C8 C9 1_555 1_555
C4F C9F 1_555 1_555
C8F C9F 1_555 1_555
C2I C3I 1_555 1_555
C4I C9I 1_555 1_555
C8I C9I 1_555 1_555

#END
