
#######################################################################
#
#                 Cambridge Crystallographic Data Centre
#                                CCDC 
#
#######################################################################
#
# If this CIF has been generated from an entry in the Cambridge 
# Structural Database, then it will include bibliographic, chemical, 
# crystal, experimental, refinement or atomic coordinate data resulting 
# from the CCDC's data processing and validation procedures.
#
#######################################################################

data_IBEVIX
_chemical_formula_moiety         'C7 H15 N2 1+,H1 O4 S1 1-,2(H2 O1)'
_chemical_name_systematic        
'1-methyl-4-aza-1-azoniabicyclo[2.2.2]octane hydrogen sulfate dihydrate'
_symmetry_cell_setting           orthorhombic
_symmetry_space_group_name_H-M   'P 21 21 21'
_symmetry_Int_Tables_number      19
_space_group_name_Hall           'P 2ac 2ab'
loop_
_symmetry_equiv_pos_site_id
_symmetry_equiv_pos_as_xyz
1 x,y,z
2 1/2+x,1/2-y,-z
3 -x,1/2+y,1/2-z
4 1/2-x,-y,1/2+z
_cell_length_a                   8.5502(8)
_cell_length_b                   11.4259(9)
_cell_length_c                   11.7456(8)
_cell_angle_alpha                90
_cell_angle_beta                 90
_cell_angle_gamma                90
_cell_volume                     1147.47
_exptl_crystal_colour            colorless
_exptl_crystal_description       needle
_cell_formula_units_Z            4
loop_
_atom_site_label
_atom_site_type_symbol
_atom_site_fract_x
_atom_site_fract_y
_atom_site_fract_z
S1 S 0.89953(12) 0.87574(8) 0.67861(7)
O1 O 1.0492(3) 0.9337(3) 0.6967(2)
H1 H 1.0691 0.9357 0.7667
O2 O 0.7698(3) 0.9530(2) 0.7131(2)
O3 O 0.8800(4) 0.8497(2) 0.5537(2)
O4 O 0.8919(4) 0.7635(2) 0.7409(2)
N1 N 0.5948(4) 0.5870(3) 0.9530(2)
N2 N 0.5995(4) 0.3719(3) 1.0023(2)
C1 C 0.5897(5) 0.7147(3) 0.9234(3)
H2 H 0.5965 0.7614 0.9933
H3 H 0.4913 0.7323 0.8842
H4 H 0.6779 0.7339 0.8735
C2 C 0.6070(5) 0.5146(3) 0.8468(3)
H5 H 0.7119 0.5245 0.8124
H6 H 0.5279 0.5407 0.7908
C3 C 0.5803(5) 0.3860(3) 0.8764(3)
H7 H 0.4738 0.3619 0.8532
H8 H 0.6569 0.3363 0.8357
C4 C 0.4458(5) 0.5537(3) 1.0147(3)
H9 H 0.3562 0.5558 0.9614
H10 H 0.4252 0.6097 1.0772
C5 C 0.4654(5) 0.4300(4) 1.0630(3)
H11 H 0.4871 0.4339 1.1457
H12 H 0.3682 0.3844 1.0514
C6 C 0.7339(5) 0.5617(4) 1.0280(4)
H13 H 0.7188 0.5975 1.1039
H14 H 0.8300 0.5947 0.9937
C7 C 0.7490(5) 0.4283(4) 1.0393(3)
H15 H 0.8364 0.3999 0.9914
H16 H 0.7716 0.4073 1.1194
O5 O 0.0641(3) 0.5274(2) 0.1052(2)
O6 O 0.2071(3) 0.6971(2) 0.8024(2)
loop_
_geom_bond_atom_site_label_1
_geom_bond_atom_site_label_2
_geom_bond_site_symmetry_1
_geom_bond_site_symmetry_2
S1 O1 1_555 1_555
O1 H1 1_555 1_555
O2 S1 1_555 1_555
O3 S1 1_555 1_555
O4 S1 1_555 1_555
N1 C1 1_555 1_555
N2 C3 1_555 1_555
C1 H2 1_555 1_555
H3 C1 1_555 1_555
H4 C1 1_555 1_555
C2 N1 1_555 1_555
H5 C2 1_555 1_555
H6 C2 1_555 1_555
C3 C2 1_555 1_555
H7 C3 1_555 1_555
H8 C3 1_555 1_555
C4 N1 1_555 1_555
H9 C4 1_555 1_555
H10 C4 1_555 1_555
C5 N2 1_555 1_555
H11 C5 1_555 1_555
H12 C5 1_555 1_555
C6 N1 1_555 1_555
H13 C6 1_555 1_555
H14 C6 1_555 1_555
C7 N2 1_555 1_555
H15 C7 1_555 1_555
H16 C7 1_555 1_555
C4 C5 1_555 1_555
C6 C7 1_555 1_555

#END
