
#######################################################################
#
#                 Cambridge Crystallographic Data Centre
#                                CCDC 
#
#######################################################################
#
# If this CIF has been generated from an entry in the Cambridge 
# Structural Database, then it will include bibliographic, chemical, 
# crystal, experimental, refinement or atomic coordinate data resulting 
# from the CCDC's data processing and validation procedures.
#
#######################################################################

data_IBEXEV
_chemical_formula_moiety         'C12 H15 N5 O1'
_chemical_name_systematic        
4-(5-(4-methylphenyl)-1H-tetrazol-1-yl)morpholine
_symmetry_cell_setting           orthorhombic
_symmetry_space_group_name_H-M   'P c a 21'
_symmetry_Int_Tables_number      29
_space_group_name_Hall           'P 2c -2ac'
loop_
_symmetry_equiv_pos_site_id
_symmetry_equiv_pos_as_xyz
1 x,y,z
2 -x,-y,1/2+z
3 1/2-x,y,1/2+z
4 1/2+x,-y,z
_cell_length_a                   12.406(9)
_cell_length_b                   5.786(4)
_cell_length_c                   34.77(3)
_cell_angle_alpha                90
_cell_angle_beta                 90
_cell_angle_gamma                90
_cell_volume                     2495.83
_cell_formula_units_Z            8
loop_
_atom_site_label
_atom_site_type_symbol
_atom_site_fract_x
_atom_site_fract_y
_atom_site_fract_z
C1 C 0.7015(7) 1.1779(12) 0.7292(2)
H1 H 0.7250 1.3220 0.7184
H2 H 0.7333 1.1577 0.7542
H3 H 0.6244 1.1785 0.7316
C2 C 0.7353(5) 0.9832(10) 0.70342(19)
C3 C 0.8375(6) 0.8902(13) 0.7049(2)
H4 H 0.8867 0.9502 0.7224
C4 C 0.8695(5) 0.7104(12) 0.68115(18)
H5 H 0.9396 0.6541 0.6828
C5 C 0.7978(4) 0.6125(10) 0.65479(16)
C6 C 0.6920(4) 0.7041(11) 0.65322(17)
H6 H 0.6419 0.6430 0.6361
C7 C 0.6636(5) 0.8838(11) 0.67710(17)
H7 H 0.5938 0.9416 0.6757
C8 C 0.8340(4) 0.4188(10) 0.63096(17)
C9 C 0.7184(4) 0.5550(9) 0.54694(17)
H8 H 0.7580 0.4687 0.5276
H9 H 0.7619 0.6855 0.5550
C10 C 0.6111(4) 0.6383(9) 0.53061(17)
H10 H 0.5734 0.7280 0.5500
H11 H 0.6245 0.7382 0.5087
C11 C 0.5233(4) 0.3048(8) 0.55106(18)
H12 H 0.4770 0.1783 0.5432
H13 H 0.4855 0.3932 0.5705
C12 C 0.6272(4) 0.2073(9) 0.56813(16)
H14 H 0.6111 0.1094 0.5900
H15 H 0.6653 0.1161 0.5491
N1 N 0.9239(4) 0.3009(9) 0.63706(15)
N2 N 0.9308(4) 0.1370(9) 0.60819(17)
N3 N 0.8503(4) 0.1570(8) 0.58443(15)
N4 N 0.7881(3) 0.3311(7) 0.59880(13)
N5 N 0.6930(3) 0.4057(6) 0.58012(12)
O1 O 0.5449(3) 0.4488(7) 0.51888(11)
C13 C 0.0386(6) 0.3147(11) 0.76984(19)
H16 H 0.0016 0.1755 0.7770
H17 H 0.1150 0.2919 0.7723
H18 H 0.0215 0.3530 0.7437
C14 C 0.0036(5) 0.5098(10) 0.79597(19)
C15 C 0.0738(5) 0.6128(11) 0.82138(16)
H19 H 0.1445 0.5600 0.8227
C16 C 0.0419(4) 0.7940(10) 0.84518(17)
H20 H 0.0911 0.8593 0.8622
C17 C -0.0626(4) 0.8774(8) 0.84362(15)
C18 C -0.1346(4) 0.7773(11) 0.81775(18)
H21 H -0.2053 0.8306 0.8165
C19 C -0.1017(5) 0.5994(12) 0.79404(19)
H22 H -0.1501 0.5376 0.7764
C20 C -0.1016(4) 1.0718(10) 0.86725(15)
C21 C 0.0144(4) 0.9718(8) 0.95331(16)
H23 H -0.0281 0.8361 0.9472
H24 H -0.0265 1.0678 0.9709
C22 C 0.1208(4) 0.9006(8) 0.97162(16)
H25 H 0.1066 0.8154 0.9951
H26 H 0.1595 0.7993 0.9542
C23 C 0.2075(4) 1.2227(9) 0.94604(17)
H27 H 0.2460 1.1248 0.9280
H28 H 0.2534 1.3534 0.9522
C24 C 0.1050(4) 1.3083(9) 0.92759(17)
H29 H 0.0658 1.4071 0.9453
H30 H 0.1214 1.3965 0.9046
N6 N -0.1928(4) 1.1856(9) 0.86045(15)
N7 N -0.2011(4) 1.3489(9) 0.88853(17)
N8 N -0.1203(4) 1.3421(8) 0.91234(14)
N9 N -0.0565(3) 1.1689(7) 0.89869(12)
N10 N 0.0395(3) 1.1028(7) 0.91767(12)
O2 O 0.1858(3) 1.0957(6) 0.98019(12)
loop_
_geom_bond_atom_site_label_1
_geom_bond_atom_site_label_2
_geom_bond_site_symmetry_1
_geom_bond_site_symmetry_2
C1 H1 1_555 1_555
H2 C1 1_555 1_555
H3 C1 1_555 1_555
C2 C1 1_555 1_555
C3 C2 1_555 1_555
H4 C3 1_555 1_555
C4 C3 1_555 1_555
H5 C4 1_555 1_555
C5 C4 1_555 1_555
C6 C5 1_555 1_555
H6 C6 1_555 1_555
C7 C2 1_555 1_555
H7 C7 1_555 1_555
C8 C5 1_555 1_555
C9 H8 1_555 1_555
H9 C9 1_555 1_555
C10 C9 1_555 1_555
H10 C10 1_555 1_555
H11 C10 1_555 1_555
C11 H12 1_555 1_555
H13 C11 1_555 1_555
C12 C11 1_555 1_555
H14 C12 1_555 1_555
H15 C12 1_555 1_555
N1 C8 1_555 1_555
N2 N1 1_555 1_555
N3 N2 1_555 1_555
N4 C8 1_555 1_555
N5 C9 1_555 1_555
O1 C10 1_555 1_555
C13 H16 1_555 1_555
H17 C13 1_555 1_555
H18 C13 1_555 1_555
C14 C13 1_555 1_555
C15 C14 1_555 1_555
H19 C15 1_555 1_555
C16 C15 1_555 1_555
H20 C16 1_555 1_555
C17 C16 1_555 1_555
C18 C17 1_555 1_555
H21 C18 1_555 1_555
C19 C14 1_555 1_555
H22 C19 1_555 1_555
C20 C17 1_555 1_555
C21 H23 1_555 1_555
H24 C21 1_555 1_555
C22 C21 1_555 1_555
H25 C22 1_555 1_555
H26 C22 1_555 1_555
C23 H27 1_555 1_555
H28 C23 1_555 1_555
C24 C23 1_555 1_555
H29 C24 1_555 1_555
H30 C24 1_555 1_555
N6 C20 1_555 1_555
N7 N6 1_555 1_555
N8 N7 1_555 1_555
N9 C20 1_555 1_555
N10 C21 1_555 1_555
O2 C22 1_555 1_555
C6 C7 1_555 1_555
C11 O1 1_555 1_555
C12 N5 1_555 1_555
N3 N4 1_555 1_555
N4 N5 1_555 1_555
C18 C19 1_555 1_555
C23 O2 1_555 1_555
C24 N10 1_555 1_555
N8 N9 1_555 1_555
N9 N10 1_555 1_555

#END
