
#######################################################################
#
#                 Cambridge Crystallographic Data Centre
#                                CCDC 
#
#######################################################################
#
# If this CIF has been generated from an entry in the Cambridge 
# Structural Database, then it will include bibliographic, chemical, 
# crystal, experimental, refinement or atomic coordinate data resulting 
# from the CCDC's data processing and validation procedures.
#
#######################################################################

data_IBIBAZ
_chemical_formula_moiety         'C22 H12 F4 S2'
_chemical_name_systematic        
2-(4-(2-(2,5-difluoro-4-(2-thienyl)phenyl)vinyl)-2,5-difluorophenyl)thiophene
_symmetry_cell_setting           monoclinic
_symmetry_space_group_name_H-M   'C 2'
_symmetry_Int_Tables_number      5
_space_group_name_Hall           'C 2y'
loop_
_symmetry_equiv_pos_site_id
_symmetry_equiv_pos_as_xyz
1 x,y,z
2 -x,y,-z
3 1/2+x,1/2+y,z
4 1/2-x,1/2+y,-z
_cell_length_a                   18.983(7)
_cell_length_b                   6.635(2)
_cell_length_c                   28.718(11)
_cell_angle_alpha                90
_cell_angle_beta                 101.140(4)
_cell_angle_gamma                90
_cell_volume                     3548.94
_exptl_crystal_colour            yellow
_exptl_crystal_description       block
_cell_formula_units_Z            8
loop_
_atom_site_label
_atom_site_type_symbol
_atom_site_fract_x
_atom_site_fract_y
_atom_site_fract_z
S1 S 0.95447(6) 0.6139(2) 0.18090(4)
S2 S 0.29949(9) 0.6068(3) -0.17599(6)
F1 F 0.69030(12) 0.1507(3) 0.05122(8)
F2 F 0.85881(13) 0.7973(4) 0.10791(9)
F3 F 0.41583(14) 0.4124(4) -0.12338(9)
F4 F 0.55202(12) 1.0619(3) -0.03407(9)
C1 C 1.0127(2) 0.4512(8) 0.21482(14)
H1 H 1.0525 0.4916 0.2371
C2 C 0.9940(2) 0.2574(8) 0.20553(15)
H2 H 1.0204 0.1496 0.2206
C3 C 0.9305(2) 0.2325(7) 0.17061(12)
H3 H 0.9101 0.1084 0.1607
C4 C 0.90231(19) 0.4191(7) 0.15290(13)
C5 C 0.8380(2) 0.4489(6) 0.11598(13)
C6 C 0.7924(2) 0.2865(6) 0.09988(13)
H4 H 0.8029 0.1589 0.1128
C7 C 0.7326(2) 0.3145(6) 0.06530(13)
C8 C 0.7110(2) 0.4987(6) 0.04381(13)
C9 C 0.7567(2) 0.6606(6) 0.05978(13)
H5 H 0.7461 0.7883 0.0469
C10 C 0.8169(2) 0.6326(6) 0.09416(13)
C11 C 0.6448(2) 0.5166(6) 0.00839(13)
H6 H 0.6211 0.3981 -0.0025
C12 C 0.6159(2) 0.6894(6) -0.00946(13)
H7 H 0.6401 0.8075 0.0012
C13 C 0.5489(2) 0.7094(6) -0.04451(13)
C14 C 0.5113(2) 0.5462(6) -0.06848(13)
H8 H 0.5287 0.4159 -0.0625
C15 C 0.4488(2) 0.5779(6) -0.10073(13)
C16 C 0.4176(2) 0.7647(6) -0.11223(13)
C17 C 0.4549(2) 0.9279(6) -0.08787(13)
H9 H 0.4368 1.0579 -0.0933
C18 C 0.5177(2) 0.8966(6) -0.05606(13)
C19 C 0.3519(2) 0.7970(6) -0.14748(13)
C20 C 0.3197(9) 0.983(2) -0.1611(6)
H10 H 0.3369 1.1056 -0.1480
C21 C 0.2566(3) 0.9616(9) -0.19775(17)
H11 H 0.2307 1.0690 -0.2134
C22 C 0.2402(2) 0.7677(8) -0.20643(16)
H12 H 0.1993 0.7259 -0.2276
S4 S 0.40678(15) 0.3451(4) 0.68409(9)
S5 S 0.84864(11) 0.4415(3) 0.32759(6)
F5 F 0.56341(14) 0.8299(4) 0.54060(9)
F6 F 0.48453(14) 0.1624(4) 0.62550(9)
F7 F 0.78848(12) 0.6091(4) 0.39766(8)
F8 F 0.66134(14) -0.0611(4) 0.44984(9)
C24 C 0.3560(3) 0.4899(10) 0.71095(16)
H16 H 0.3309 0.4402 0.7333
C25 C 0.3538(2) 0.6840(9) 0.69811(17)
H17 H 0.3279 0.7835 0.7102
C26 C 0.3973(11) 0.717(3) 0.6629(8)
H18 H 0.4030 0.8415 0.6493
C27 C 0.4305(2) 0.5373(7) 0.65150(13)
C28 C 0.4768(2) 0.5157(6) 0.61643(13)
C29 C 0.4986(2) 0.6835(6) 0.59345(13)
H19 H 0.4833 0.8116 0.6001
C30 C 0.5426(2) 0.6595(6) 0.56101(13)
C31 C 0.5688(2) 0.4756(6) 0.54850(13)
C32 C 0.5471(2) 0.3094(6) 0.57150(14)
H20 H 0.5626 0.1813 0.5649
C33 C 0.5031(2) 0.3324(6) 0.60386(13)
C34 C 0.61535(19) 0.4659(6) 0.51366(13)
H21 H 0.6325 0.5872 0.5041
C35 C 0.6353(2) 0.2970(6) 0.49443(12)
H22 H 0.6190 0.1754 0.5045
C36 C 0.6808(2) 0.2884(6) 0.45879(13)
C37 C 0.7156(2) 0.4575(6) 0.44409(13)
H23 H 0.7106 0.5829 0.4576
C38 C 0.7567(2) 0.4382(6) 0.40999(14)
C39 C 0.76854(19) 0.2574(6) 0.38796(13)
C40 C 0.7349(2) 0.0903(6) 0.40310(13)
H24 H 0.7405 -0.0357 0.3901
C41 C 0.69341(19) 0.1095(6) 0.43720(13)
C42 C 0.8120(2) 0.2418(7) 0.35130(13)
C43 C 0.8331(8) 0.0704(17) 0.3288(5)
H25 H 0.8181 -0.0582 0.3353
C44 C 0.8768(2) 0.1016(9) 0.29690(16)
H26 H 0.8961 0.0004 0.2808
C45 C 0.8876(3) 0.2978(9) 0.29219(16)
H27 H 0.9145 0.3501 0.2711
H13? H 0.2226 1.0589 -0.2095
H14? H 0.2028 0.7094 -0.2279
S3? S 0.3285(10) 1.030(3) -0.1695(6)
C23? C 0.2965(14) 0.677(3) -0.1734(12)
H15? H 0.2968 0.5377 -0.1688
H28? H 0.3331 0.4260 0.7327
H29? H 0.3258 0.7749 0.7112
H30? H 0.8982 0.0106 0.2793
H31? H 0.9154 0.3664 0.2740
C46? C 0.844(2) 0.370(3) 0.3230(13)
H32? H 0.8371 0.5081 0.3247
S6? S 0.8288(9) 0.020(2) 0.3314(6)
S7? S 0.3963(7) 0.753(3) 0.6629(5)
C47? C 0.4026(14) 0.406(2) 0.6825(9)
H33? H 0.4144 0.2702 0.6843
loop_
_geom_bond_atom_site_label_1
_geom_bond_atom_site_label_2
_geom_bond_site_symmetry_1
_geom_bond_site_symmetry_2
S1 C1 1_555 1_555
S2 C19 1_555 1_555
F1 C7 1_555 1_555
F2 C10 1_555 1_555
F3 C15 1_555 1_555
F4 C18 1_555 1_555
C1 H1 1_555 1_555
C2 C1 1_555 1_555
H2 C2 1_555 1_555
C3 C2 1_555 1_555
H3 C3 1_555 1_555
C4 S1 1_555 1_555
C5 C4 1_555 1_555
C6 C5 1_555 1_555
H4 C6 1_555 1_555
C7 C6 1_555 1_555
C8 C7 1_555 1_555
C9 C8 1_555 1_555
H5 C9 1_555 1_555
C10 C5 1_555 1_555
C11 C8 1_555 1_555
H6 C11 1_555 1_555
C12 C11 1_555 1_555
H7 C12 1_555 1_555
C13 C12 1_555 1_555
C14 C13 1_555 1_555
H8 C14 1_555 1_555
C15 C14 1_555 1_555
C16 C15 1_555 1_555
C17 C16 1_555 1_555
H9 C17 1_555 1_555
C18 C13 1_555 1_555
C19 C16 1_555 1_555
C20 C19 1_555 1_555
H10 C20 1_555 1_555
C21 C20 1_555 1_555
H11 C21 1_555 1_555
C22 S2 1_555 1_555
H12 C22 1_555 1_555
S4 C24 1_555 1_555
S5 C42 1_555 1_555
F5 C30 1_555 1_555
F6 C33 1_555 1_555
F7 C38 1_555 1_555
F8 C41 1_555 1_555
C24 H16 1_555 1_555
C25 C24 1_555 1_555
H17 C25 1_555 1_555
C26 C25 1_555 1_555
H18 C26 1_555 1_555
C27 S4 1_555 1_555
C28 C27 1_555 1_555
C29 C28 1_555 1_555
H19 C29 1_555 1_555
C30 C29 1_555 1_555
C31 C30 1_555 1_555
C32 C31 1_555 1_555
H20 C32 1_555 1_555
C33 C28 1_555 1_555
C34 C31 1_555 1_555
H21 C34 1_555 1_555
C35 C34 1_555 1_555
H22 C35 1_555 1_555
C36 C35 1_555 1_555
C37 C36 1_555 1_555
H23 C37 1_555 1_555
C38 C37 1_555 1_555
C39 C38 1_555 1_555
C40 C39 1_555 1_555
H24 C40 1_555 1_555
C41 C36 1_555 1_555
C42 C39 1_555 1_555
C43 C42 1_555 1_555
H25 C43 1_555 1_555
C44 C43 1_555 1_555
H26 C44 1_555 1_555
C45 S5 1_555 1_555
H27 C45 1_555 1_555
C3 C4 1_555 1_555
C9 C10 1_555 1_555
C17 C18 1_555 1_555
C21 C22 1_555 1_555
C26 C27 1_555 1_555
C32 C33 1_555 1_555
C40 C41 1_555 1_555
C44 C45 1_555 1_555

#END
