
#######################################################################
#
#                 Cambridge Crystallographic Data Centre
#                                CCDC 
#
#######################################################################
#
# If this CIF has been generated from an entry in the Cambridge 
# Structural Database, then it will include bibliographic, chemical, 
# crystal, experimental, refinement or atomic coordinate data resulting 
# from the CCDC's data processing and validation procedures.
#
#######################################################################

data_IBIGAC
_chemical_formula_moiety         'C28 H44 N4 O16,0.5(C2 H6 O1),3.75(H2 O1)'
_chemical_name_systematic        
'((RRRS/SSSR)-1,7-bis(3-carboxy-1-carboxylpropyl)-4,10-bis(1,3-dicarboxypropyl)-1,7-diazonia-4,10-diazacyclododecane) ethanol solvate hydrate'
_symmetry_cell_setting           monoclinic
_symmetry_space_group_name_H-M   'P 21/c'
_symmetry_Int_Tables_number      14
_space_group_name_Hall           '-P 2ybc'
loop_
_symmetry_equiv_pos_site_id
_symmetry_equiv_pos_as_xyz
1 x,y,z
2 -x,1/2+y,1/2-z
3 -x,-y,-z
4 x,1/2-y,1/2+z
_cell_length_a                   16.70420(1)
_cell_length_b                   10.72220(1)
_cell_length_c                   21.1538(2)
_cell_angle_alpha                90
_cell_angle_beta                 102.7460(1)
_cell_angle_gamma                90
_cell_volume                     3695.4
_cell_formula_units_Z            4
loop_
_atom_site_label
_atom_site_type_symbol
_atom_site_fract_x
_atom_site_fract_y
_atom_site_fract_z
O1 O -0.6375(2) 0.6280(4) -0.0167(2)
O2 O -0.5094(3) 0.6667(5) -0.0274(2)
O3 O -0.8082(2) 0.8106(3) -0.0343(2)
O4 O -0.8049(2) 0.7189(3) 0.0621(1)
O5 O -0.7186(6) 0.3367(10) 0.1070(4)
O8 O -0.7731(2) 0.3070(3) 0.0019(2)
O9 O -1.0776(2) 0.9386(3) -0.2082(1)
O10 O -1.0789(2) 0.9234(3) -0.1026(1)
O11 O -0.9912(2) 1.2080(3) -0.0009(1)
O12 O -1.0046(2) 1.2352(3) -0.1072(2)
O13 O -0.6475(2) 0.8579(4) -0.1067(2)
O14 O -0.6961(8) 1.0577(8) -0.1045(4)
O16 O -0.7729(2) 1.3333(3) -0.2679(1)
O17 O -0.8401(2) 1.1501(3) -0.2849(1)
N1 N -0.6963(2) 0.5844(3) -0.1445(2)
N2 N -0.8541(2) 0.5938(3) -0.1015(1)
N3 N -0.9193(2) 0.8177(3) -0.1783(1)
N4 N -0.7678(2) 0.8200(3) -0.2186(1)
C1 C -0.7367(3) 0.4694(4) -0.1245(2)
C2 C -0.8294(3) 0.4820(4) -0.1324(2)
C3 C -0.9428(2) 0.6164(4) -0.1249(2)
C4 C -0.9609(2) 0.6922(4) -0.1870(2)
C5 C -0.9166(3) 0.8747(4) -0.2435(2)
C6 C -0.8453(2) 0.8216(4) -0.2688(2)
C7 C -0.7074(2) 0.7359(4) -0.2380(2)
C8 C -0.7194(3) 0.6017(4) -0.2177(2)
C9 C -0.6035(3) 0.5842(5) -0.1188(2)
C10 C -0.5813(4) 0.6312(6) -0.0483(3)
C11 C -0.5665(3) 0.4557(6) -0.1268(2)
C12 C -0.4702(9) 0.5023(15) -0.1266(7)
C13 C -0.4346(8) 0.3838(13) -0.1469(6)
O18 O -0.4580(6) 0.3454(10) -0.2050(4)
O19 O -0.3810(6) 0.3175(9) -0.1061(4)
C16 C -0.8295(3) 0.5872(4) -0.0300(2)
C17 C -0.8141(3) 0.7186(4) -0.0019(2)
C18 C -0.8862(3) 0.5074(4) 0.0024(2)
C19 C -0.8415(3) 0.4432(5) 0.0643(2)
C20 C -0.7771(3) 0.3574(5) 0.0525(2)
C21 C -0.9507(3) 0.9016(4) -0.1309(2)
C22 C -1.0428(3) 0.9227(4) -0.1495(2)
C23 C -0.9009(3) 1.0218(4) -0.1178(2)
C24 C -0.9066(3) 1.0827(4) -0.0539(2)
C25 C -0.9725(3) 1.1796(4) -0.0582(2)
C26 C -0.7354(3) 0.9475(4) -0.2022(2)
C27 C -0.6779(4) 0.9451(5) -0.1354(2)
C28 C -0.6920(3) 1.0092(4) -0.2518(2)
C29 C -0.6919(3) 1.1526(5) -0.2488(2)
C30 C -0.7759(3) 1.2086(4) -0.2690(2)
H1 H -0.7971 0.7923 0.0760
H2 H -0.8209 1.3620 -0.2755
H3 H -0.7170 0.6526 -0.1262
H4 H -0.8649 0.8011 -0.1586
H5 H -0.7117 0.4508 -0.0785
H6 H -0.7254 0.3978 -0.1508
H7 H -0.8554 0.4841 -0.1792
H8 H -0.8502 0.4074 -0.1136
H9 H -0.9639 0.6613 -0.0911
H10 H -0.9717 0.5354 -0.1326
H11 H -0.9421 0.6454 -0.2213
H12 H -1.0209 0.7043 -0.2012
H13 H -0.9106 0.9663 -0.2390
H14 H -0.9688 0.8570 -0.2749
H15 H -0.8589 0.7355 -0.2845
H16 H -0.8374 0.8723 -0.3061
H17 H -0.6512 0.7639 -0.2176
H18 H -0.7137 0.7396 -0.2856
H19 H -0.7776 0.5777 -0.2338
H20 H -0.6854 0.5455 -0.2381
H21 H -0.5796 0.6446 -0.1456
H22 H -0.5932 0.4153 -0.1682
H23 H -0.5686 0.3993 -0.0902
H24 H -0.4696 0.5705 -0.1580
H25 H -0.4408 0.5296 -0.0829
H28 H -0.7750 0.5445 -0.0200
H29 H -0.9298 0.5615 0.0125
H30 H -0.9131 0.4432 -0.0288
H31 H -0.8161 0.5072 0.0963
H32 H -0.8815 0.3958 0.0831
H33 H -0.9401 0.8555 -0.0888
H34 H -0.9208 1.0812 -0.1537
H35 H -0.8426 1.0031 -0.1171
H36 H -0.9161 1.0166 -0.0237
H37 H -0.8531 1.1219 -0.0348
H38 H -0.7831 1.0016 -0.1990
H39 H -0.6346 0.9793 -0.2436
H40 H -0.7198 0.9824 -0.2959
H41 H -0.6672 1.1793 -0.2040
H42 H -0.6571 1.1852 -0.2774
O22 O -0.2171(4) 0.0697(6) -0.1205(3)
O24 O -0.4106(5) -0.2256(7) -0.0832(4)
C31 C -0.4388(9) -0.0619(15) -0.2104(7)
O25 O -0.4198(5) 0.0272(7) -0.1991(3)
C32 C -0.4986(6) -0.1615(9) -0.1961(5)
O29 O -0.3429(7) -0.0349(11) -0.0258(5)
O32 O -0.5073(9) 0.1182(14) -0.1873(7)
O6? O -0.7026(8) 0.3896(13) 0.0950(6)
O7? O -0.7376(10) 0.2862(16) 0.1081(7)
O15? O -0.6395(7) 1.0521(10) -0.1181(5)
C14? C -0.4758(5) 0.4413(8) -0.1234(4)
C15? C -0.4490(5) 0.3131(8) -0.1342(3)
O20? O -0.4711(4) 0.2582(7) -0.1874(3)
O21? O -0.4035(4) 0.2535(6) -0.0857(3)
O23? O -0.2411(11) 0.0389(17) -0.1043(8)
O26? O -0.4994(7) -0.0637(11) 0.0249(5)
O27? O -0.4411(5) -0.0921(8) 0.0017(4)
O28? O -0.5112(8) -0.1260(13) 0.0577(6)
O30? O -0.3266(6) 0.0326(10) -0.0409(4)
O31? O -0.3450(8) -0.0810(13) -0.0957(6)
H26? H -0.4605 0.4969 -0.1562
H27? H -0.4454 0.4697 -0.0803
loop_
_geom_bond_atom_site_label_1
_geom_bond_atom_site_label_2
_geom_bond_site_symmetry_1
_geom_bond_site_symmetry_2
O1 C10 1_555 1_555
O2 C10 1_555 1_555
O3 C17 1_555 1_555
O4 C17 1_555 1_555
O5 C20 1_555 1_555
O8 C20 1_555 1_555
O9 C22 1_555 1_555
O10 C22 1_555 1_555
O11 C25 1_555 1_555
O12 C25 1_555 1_555
O13 C27 1_555 1_555
O14 C27 1_555 1_555
O16 C30 1_555 1_555
O17 C30 1_555 1_555
N1 C1 1_555 1_555
N2 C2 1_555 1_555
N3 C4 1_555 1_555
N4 C6 1_555 1_555
C1 C2 1_555 1_555
C2 H7 1_555 1_555
C3 N2 1_555 1_555
C4 C3 1_555 1_555
C5 N3 1_555 1_555
C6 C5 1_555 1_555
C7 N4 1_555 1_555
C8 N1 1_555 1_555
C9 N1 1_555 1_555
C10 C9 1_555 1_555
C11 C9 1_555 1_555
C12 C11 1_555 1_555
C13 C12 1_555 1_555
O18 C13 1_555 1_555
O19 C13 1_555 1_555
C16 N2 1_555 1_555
C17 C16 1_555 1_555
C18 C16 1_555 1_555
C19 C18 1_555 1_555
C20 C19 1_555 1_555
C21 N3 1_555 1_555
C22 C21 1_555 1_555
C23 C21 1_555 1_555
C24 C23 1_555 1_555
C25 C24 1_555 1_555
C26 N4 1_555 1_555
C27 C26 1_555 1_555
C28 C26 1_555 1_555
C29 C28 1_555 1_555
C30 C29 1_555 1_555
C31 O25 1_555 1_555
C32 C31 1_555 1_555
H1 O4 1_555 1_555
H2 O16 1_555 1_555
H3 N1 1_555 1_555
H4 N3 1_555 1_555
H5 C1 1_555 1_555
H6 C1 1_555 1_555
H8 C2 1_555 1_555
H9 C3 1_555 1_555
H10 C3 1_555 1_555
H11 C4 1_555 1_555
H12 C4 1_555 1_555
H13 C5 1_555 1_555
H14 C5 1_555 1_555
H15 C6 1_555 1_555
H16 C6 1_555 1_555
H17 C7 1_555 1_555
H18 C7 1_555 1_555
H19 C8 1_555 1_555
H20 C8 1_555 1_555
H21 C9 1_555 1_555
H22 C11 1_555 1_555
H23 C11 1_555 1_555
H24 C12 1_555 1_555
H25 C12 1_555 1_555
H28 C16 1_555 1_555
H29 C18 1_555 1_555
H30 C18 1_555 1_555
H31 C19 1_555 1_555
H32 C19 1_555 1_555
H33 C21 1_555 1_555
H34 C23 1_555 1_555
H35 C23 1_555 1_555
H36 C24 1_555 1_555
H37 C24 1_555 1_555
H38 C26 1_555 1_555
H39 C28 1_555 1_555
H40 C28 1_555 1_555
H41 C29 1_555 1_555
H42 C29 1_555 1_555
C7 C8 1_555 1_555

#END
