
#######################################################################
#
#                 Cambridge Crystallographic Data Centre
#                                CCDC 
#
#######################################################################
#
# If this CIF has been generated from an entry in the Cambridge 
# Structural Database, then it will include bibliographic, chemical, 
# crystal, experimental, refinement or atomic coordinate data resulting 
# from the CCDC's data processing and validation procedures.
#
#######################################################################

data_IBIGIK
_chemical_formula_moiety         'C28 H44 N4 O16,7.5(H2 O1)'
_chemical_name_systematic        
'((RRSS/SSRR)-1,7-bis(3-carboxy-1-carboxylpropyl)-4,10-bis(1,3-dicarboxypropyl)-1,7-diazonia-4,10-diazacyclododecane) hydrate'
_symmetry_cell_setting           monoclinic
_symmetry_space_group_name_H-M   'P 21/c'
_symmetry_Int_Tables_number      14
_space_group_name_Hall           '-P 2ybc'
loop_
_symmetry_equiv_pos_site_id
_symmetry_equiv_pos_as_xyz
1 x,y,z
2 -x,1/2+y,1/2-z
3 -x,-y,-z
4 x,1/2-y,1/2+z
_cell_length_a                   21.40380(10)
_cell_length_b                   10.19300(10)
_cell_length_c                   18.5358(2)
_cell_angle_alpha                90
_cell_angle_beta                 109.425(1)
_cell_angle_gamma                90
_cell_volume                     3813.75
_cell_formula_units_Z            4
loop_
_atom_site_label
_atom_site_type_symbol
_atom_site_fract_x
_atom_site_fract_y
_atom_site_fract_z
O1 O 0.2965(2) -0.5334(23) 0.2381(2)
O2 O 0.2908(2) -0.3874(3) 0.3258(2)
O3 O 0.0771(2) -0.5916(3) 0.0326(2)
O4 O 0.0496(1) -0.3863(3) 0.0537(2)
O5 O 0.0276(2) 0.0216(4) 0.0690(2)
O6 O 0.1217(1) -0.0306(3) 0.0468(2)
O7 O 0.1414(2) -0.0380(4) 0.3451(2)
O8 O 0.0390(2) -0.0930(4) 0.3400(2)
O9 O 0.2569(2) 0.3036(3) -0.0947(2)
O10 O 0.2507(2) 0.4088(3) 0.0074(2)
O11 O 0.1367(2) 0.0621(3) -0.2528(2)
O12 O 0.1211(2) -0.1159(3) -0.1932(2)
O13 O 0.2499(1) -0.2614(3) 0.0180(2)
O14 O 0.3189(2) -0.3916(3) -0.0194(2)
O15 O 0.4510(2) -0.0910(4) -0.1416(2)
O16 O 0.4265(1) 0.0217(3) -0.0495(2)
N1 N 0.2805(2) -0.1846(3) 0.2113(2)
N2 N 0.1991(2) 0.0562(3) 0.1810(2)
N3 N 0.2682(2) 0.1363(3) 0.0693(2)
N4 N 0.3499(2) -0.1124(3) 0.1011(2)
C1 C 0.2565(2) -0.1253(4) 0.2704(2)
C2 C 0.2477(2) 0.0226(4) 0.2589(2)
C3 C 0.2072(2) 0.1966(4) 0.1592(2)
C4 C 0.2690(2) 0.2151(4) 0.1363(2)
C5 C 0.3351(2) 0.1276(4) 0.0629(2)
C6 C 0.3782(2) 0.0254(4) 0.1170(2)
C7 C 0.3802(2) -0.2009(4) 0.1689(2)
C8 C 0.3534(2) -0.1742(4) 0.2343(2)
C9 C 0.2578(2) -0.3213(4) 0.1916(2)
C10 C 0.2825(2) -0.4155(4) 0.2603(2)
C11 C 0.1822(2) -0.3298(4) 0.1521(2)
C12 C 0.1635(2) -0.4554(4) 0.1048(2)
C13 C 0.0911(2) -0.4726(4) 0.0626(2)
C14 C 0.1279(2) 0.0250(4) 0.1744(2)
C15 C 0.0895(2) 0.0044(4) 0.0882(2)
C16 C 0.0978(2) 0.1256(4) 0.2151(2)
C17 C 0.0486(2) 0.0608(5) 0.2482(2)
C18 C 0.0823(2) -0.0267(4) 0.3160(2)
C19 C 0.2188(2) 0.1815(4) -0.0041(2)
C20 C 0.2434(2) 0.3048(4) -0.0359(2)
C21 C 0.2021(2) 0.0707(4) -0.0632(2)
C22 C 0.1347(2) 0.0930(4) -0.1258(2)
C23 C 0.1302(2) 0.0145(4) -0.1966(2)
C24 C 0.3548(2) -0.1728(4) 0.0275(2)
C25 C 0.3034(2) -0.2864(4) 0.0061(2)
C26 C 0.4266(2) -0.2101(4) 0.0365(2)
C27 C 0.4389(2) -0.2141(4) -0.0401(2)
C28 C 0.4379(2) -0.0825(5) -0.0768(2)
H1 H 0.3066 -0.5851 0.2756
H2 H 0.0359 -0.5997 0.0124
H4 H 0.0596 -0.1465 0.3742
H5 H 0.2657 0.4708 -0.0119
H6 H 0.4493 -0.0160 -0.1609
H7 H 0.2095 0.0030 0.1459
H8 H 0.3050 -0.1061 0.0946
H9 H 0.2887 -0.1434 0.3218
H10 H 0.2136 -0.1656 0.2676
H11 H 0.2317 0.0597 0.2989
H12 H 0.2911 0.0631 0.2645
H13 H 0.2102 0.2548 0.2029
H14 H 0.1677 0.2228 0.1159
H15 H 0.2730 0.3090 0.1249
H16 H 0.3085 0.1910 0.1802
H17 H 0.3569 0.2144 0.0746
H18 H 0.3311 0.1047 0.0097
H19 H 0.4229 0.0263 0.1123
H20 H 0.3829 0.0495 0.1703
H21 H 0.4288 -0.1885 0.1876
H22 H 0.3711 -0.2934 0.1524
H23 H 0.3737 -0.2374 0.2762
H24 H 0.3670 -0.0849 0.2545
H25 H 0.2782 -0.3518 0.1533
H26 H 0.1600 -0.3285 0.1912
H27 H 0.1667 -0.2527 0.1183
H28 H 0.1873 -0.4567 0.0672
H29 H 0.1793 -0.5314 0.1393
H30 H 0.1285 -0.0613 0.2003
H31 H 0.1337 0.1679 0.2569
H32 H 0.0747 0.1947 0.1783
H33 H 0.0235 0.1300 0.2643
H34 H 0.0165 0.0080 0.2078
H35 H 0.1773 0.2057 0.0062
H36 H 0.2012 -0.0137 -0.0371
H37 H 0.2371 0.0652 -0.0870
H38 H 0.0987 0.0662 -0.1065
H39 H 0.1291 0.1874 -0.1389
H40 H 0.3401 -0.1050 -0.0136
H41 H 0.4570 -0.1456 0.0704
H42 H 0.4366 -0.2973 0.0612
H43 H 0.4825 -0.2556 -0.0322
H44 H 0.4047 -0.2705 -0.0757
O17 O 0.0396(4) -0.2224(9) 0.1758(5)
O18 O 0.1167(1) -0.2232(3) -0.0622(2)
O19 O 0.3483(2) -0.7027(3) 0.3506(2)
O20 O 0.4331(2) 0.1148(4) 0.3095(2)
O21 O 0.4417(5) -0.5552(9) 0.0206(6)
O24 O 0.4551(2) 0.1221(4) -0.2185(2)
O26 O 0.4545(4) 0.1863(8) -0.3281(5)
O28 O 0.4448(4) -0.0240(8) -0.3095(5)
O22? O 0.4292(7) -0.5472(14) -0.0362(8)
O23? O 0.4262(10) -0.5540(20) -0.0150(14)
O25? O 0.4507(4) 0.0931(8) -0.2851(4)
O27? O 0.4518(5) 0.0403(10) -0.3600(6)
H3? H 0.0105 0.0145 0.0213
loop_
_geom_bond_atom_site_label_1
_geom_bond_atom_site_label_2
_geom_bond_site_symmetry_1
_geom_bond_site_symmetry_2
O1 C10 1_555 1_555
O2 C10 1_555 1_555
O3 C13 1_555 1_555
O4 C13 1_555 1_555
O5 C15 1_555 1_555
O6 C15 1_555 1_555
O7 C18 1_555 1_555
O8 C18 1_555 1_555
O9 C20 1_555 1_555
O10 C20 1_555 1_555
O11 C23 1_555 1_555
O12 C23 1_555 1_555
O13 C25 1_555 1_555
O14 C25 1_555 1_555
O15 C28 1_555 1_555
O16 C28 1_555 1_555
N1 C1 1_555 1_555
N2 C2 1_555 1_555
N3 C4 1_555 1_555
N4 C6 1_555 1_555
C1 C2 1_555 1_555
C2 H11 1_555 1_555
C3 N2 1_555 1_555
C4 C3 1_555 1_555
C5 N3 1_555 1_555
C6 C5 1_555 1_555
C7 N4 1_555 1_555
C8 N1 1_555 1_555
C9 N1 1_555 1_555
C10 C9 1_555 1_555
C11 C9 1_555 1_555
C12 C11 1_555 1_555
C13 C12 1_555 1_555
C14 N2 1_555 1_555
C15 C14 1_555 1_555
C16 C14 1_555 1_555
C17 C16 1_555 1_555
C18 C17 1_555 1_555
C19 N3 1_555 1_555
C20 C19 1_555 1_555
C21 C19 1_555 1_555
C22 C21 1_555 1_555
C23 C22 1_555 1_555
C24 N4 1_555 1_555
C25 C24 1_555 1_555
C26 C24 1_555 1_555
C27 C26 1_555 1_555
C28 C27 1_555 1_555
H1 O1 1_555 1_555
H2 O3 1_555 1_555
H4 O8 1_555 1_555
H5 O10 1_555 1_555
H6 O15 1_555 1_555
H7 N2 1_555 1_555
H8 N4 1_555 1_555
H9 C1 1_555 1_555
H10 C1 1_555 1_555
H12 C2 1_555 1_555
H13 C3 1_555 1_555
H14 C3 1_555 1_555
H15 C4 1_555 1_555
H16 C4 1_555 1_555
H17 C5 1_555 1_555
H18 C5 1_555 1_555
H19 C6 1_555 1_555
H20 C6 1_555 1_555
H21 C7 1_555 1_555
H22 C7 1_555 1_555
H23 C8 1_555 1_555
H24 C8 1_555 1_555
H25 C9 1_555 1_555
H26 C11 1_555 1_555
H27 C11 1_555 1_555
H28 C12 1_555 1_555
H29 C12 1_555 1_555
H30 C14 1_555 1_555
H31 C16 1_555 1_555
H32 C16 1_555 1_555
H33 C17 1_555 1_555
H34 C17 1_555 1_555
H35 C19 1_555 1_555
H36 C21 1_555 1_555
H37 C21 1_555 1_555
H38 C22 1_555 1_555
H39 C22 1_555 1_555
H40 C24 1_555 1_555
H41 C26 1_555 1_555
H42 C26 1_555 1_555
H43 C27 1_555 1_555
H44 C27 1_555 1_555
C7 C8 1_555 1_555

#END
