
#######################################################################
#
#                 Cambridge Crystallographic Data Centre
#                                CCDC 
#
#######################################################################
#
# If this CIF has been generated from an entry in the Cambridge 
# Structural Database, then it will include bibliographic, chemical, 
# crystal, experimental, refinement or atomic coordinate data resulting 
# from the CCDC's data processing and validation procedures.
#
#######################################################################

data_IBIJUB
_chemical_formula_moiety         'C19 H18 F1 I1 N1 1+,C1 F3 O3 S1 1-'
_chemical_name_systematic        
'(3-butyl-7-fluoroisoquinolin-4-yl)(phenyl)iodonium trifluoromethanesulfonate'
_symmetry_cell_setting           triclinic
_symmetry_space_group_name_H-M   'P -1'
_symmetry_Int_Tables_number      2
_space_group_name_Hall           '-P 1'
loop_
_symmetry_equiv_pos_site_id
_symmetry_equiv_pos_as_xyz
1 x,y,z
2 -x,-y,-z
_cell_length_a                   9.3007(11)
_cell_length_b                   11.150(2)
_cell_length_c                   11.8077(14)
_cell_angle_alpha                108.287(3)
_cell_angle_beta                 106.291(2)
_cell_angle_gamma                100.663(3)
_cell_volume                     1064.71
_exptl_crystal_colour            white
_exptl_crystal_description       prismatic
_cell_formula_units_Z            2
_chemical_properties_physical    
Moisture-sensitive,Heat-sensitive,Light-sensitive
loop_
_atom_site_label
_atom_site_type_symbol
_atom_site_fract_x
_atom_site_fract_y
_atom_site_fract_z
I1 I 0.82046(4) 0.18856(3) 0.06021(3)
F1 F 0.7367(6) 0.3040(5) 0.6410(4)
N1 N 0.8469(5) 0.5821(4) 0.3007(4)
C1 C 0.7832(7) 0.2130(5) 0.3365(5)
H1 H 0.7855 0.1381 0.2744
C2 C 0.7611(9) 0.2057(7) 0.4441(6)
H2 H 0.7480 0.1260 0.4552
C3 C 0.7584(8) 0.3175(7) 0.5363(5)
C4 C 0.7772(7) 0.4344(6) 0.5263(5)
H3 H 0.7748 0.5075 0.5902
C5 C 0.8008(6) 0.4448(5) 0.4165(4)
C6 C 0.8024(5) 0.3330(5) 0.3194(4)
C7 C 0.8254(5) 0.3552(5) 0.2129(4)
C8 C 0.8465(5) 0.4751(5) 0.2035(5)
C9 C 0.8245(7) 0.5656(6) 0.3994(5)
H4 H 0.8241 0.6393 0.4638
C10 C 0.8660(6) 0.5072(6) 0.0933(5)
H5 H 0.8963 0.4378 0.0407
H6 H 0.9499 0.5894 0.1262
C11 C 0.7159(6) 0.5210(5) 0.0105(5)
H7 H 0.6327 0.4381 -0.0238
H8 H 0.6843 0.5889 0.0637
C12 C 0.7353(7) 0.5564(6) -0.0985(5)
H9 H 0.7839 0.4972 -0.1428
H10 H 0.8056 0.6457 -0.0639
C13 C 0.5824(7) 0.5483(7) -0.1940(6)
H11 H 0.5198 0.4574 -0.2407
H12 H 0.6041 0.5858 -0.2526
H13 H 0.5262 0.5967 -0.1495
C14 C 0.5975(7) 0.1681(5) -0.0627(4)
C15 C 0.5848(8) 0.1773(6) -0.1787(5)
H14 H 0.6718 0.1895 -0.2026
C16 C 0.4403(11) 0.1679(7) -0.2576(6)
H15 H 0.4286 0.1731 -0.3365
C17 C 0.3137(11) 0.1509(7) -0.2220(8)
H16 H 0.2169 0.1463 -0.2765
C18 C 0.3263(8) 0.1400(6) -0.1042(7)
H17 H 0.2388 0.1276 -0.0809
C19 C 0.4709(7) 0.1482(5) -0.0241(5)
H18 H 0.4830 0.1404 0.0540
S1 S 0.1749(2) 0.1001(2) 0.21940(17)
F2 F 0.3666(10) 0.2307(9) 0.4473(6)
F3 F 0.3285(9) 0.0194(7) 0.3866(5)
F4 F 0.1491(9) 0.1006(7) 0.4303(5)
O1 O 0.1183(6) 0.2121(5) 0.2387(5)
O2 O 0.2939(9) 0.0960(8) 0.1704(6)
O3 O 0.0599(10) -0.0274(7) 0.1569(8)
C20 C 0.2503(18) 0.1000(15) 0.3711(11)
loop_
_geom_bond_atom_site_label_1
_geom_bond_atom_site_label_2
_geom_bond_site_symmetry_1
_geom_bond_site_symmetry_2
I1 C7 1_555 1_555
F1 C3 1_555 1_555
N1 C8 1_555 1_555
C1 H1 1_555 1_555
C2 C1 1_555 1_555
H2 C2 1_555 1_555
C3 C2 1_555 1_555
C4 C3 1_555 1_555
H3 C4 1_555 1_555
C5 C4 1_555 1_555
C6 C1 1_555 1_555
C7 C6 1_555 1_555
C8 C7 1_555 1_555
C9 N1 1_555 1_555
H4 C9 1_555 1_555
C10 C8 1_555 1_555
H5 C10 1_555 1_555
H6 C10 1_555 1_555
C11 C10 1_555 1_555
H7 C11 1_555 1_555
H8 C11 1_555 1_555
C12 C11 1_555 1_555
H9 C12 1_555 1_555
H10 C12 1_555 1_555
C13 C12 1_555 1_555
H11 C13 1_555 1_555
H12 C13 1_555 1_555
H13 C13 1_555 1_555
C14 I1 1_555 1_555
C15 C14 1_555 1_555
H14 C15 1_555 1_555
C16 C15 1_555 1_555
H15 C16 1_555 1_555
C17 C16 1_555 1_555
H16 C17 1_555 1_555
C18 C17 1_555 1_555
H17 C18 1_555 1_555
C19 C14 1_555 1_555
H18 C19 1_555 1_555
S1 O1 1_555 1_555
F2 C20 1_555 1_555
F3 C20 1_555 1_555
F4 C20 1_555 1_555
O2 S1 1_555 1_555
O3 S1 1_555 1_555
C20 S1 1_555 1_555
C5 C6 1_555 1_555
C5 C9 1_555 1_555
C18 C19 1_555 1_555

#END
