
#######################################################################
#
#                 Cambridge Crystallographic Data Centre
#                                CCDC 
#
#######################################################################
#
# If this CIF has been generated from an entry in the Cambridge 
# Structural Database, then it will include bibliographic, chemical, 
# crystal, experimental, refinement or atomic coordinate data resulting 
# from the CCDC's data processing and validation procedures.
#
#######################################################################

data_IBIMAK
_chemical_name_common            'lyonivalol A'
_chemical_formula_moiety         'C20 H32 O4'
_chemical_name_systematic        
8\a,14\a-epoxy-5\a,9\a,18\a-trihydroxy-isopimara-15-ene
_symmetry_cell_setting           orthorhombic
_symmetry_space_group_name_H-M   'P 21 21 21'
_symmetry_Int_Tables_number      19
_space_group_name_Hall           'P 2ac 2ab'
loop_
_symmetry_equiv_pos_site_id
_symmetry_equiv_pos_as_xyz
1 x,y,z
2 1/2-x,-y,1/2+z
3 1/2+x,1/2-y,-z
4 -x,1/2+y,1/2-z
_cell_length_a                   6.7620(2)
_cell_length_b                   11.6033(4)
_cell_length_c                   22.0911(6)
_cell_angle_alpha                90
_cell_angle_beta                 90
_cell_angle_gamma                90
_cell_volume                     1733.3
_exptl_crystal_colour            colorless
_exptl_crystal_description       column
_chemical_melting_point          '456-457 K'
_cell_formula_units_Z            4
_exptl_crystal_recrystallization_method methanol/water
loop_
_atom_site_label
_atom_site_type_symbol
_atom_site_fract_x
_atom_site_fract_y
_atom_site_fract_z
O1 O 0.8469(3) 0.86977(15) 0.07790(8)
O2 O 0.9233(2) 0.78658(14) 0.19653(7)
H1 H 0.8972 0.7176 0.1964
O3 O 1.0008(2) 0.57376(14) 0.17475(8)
H2 H 0.9843 0.5047 0.1808
O4 O 1.0438(3) 0.35275(14) 0.18431(7)
H3 H 1.0616 0.3327 0.2195
C1 C 1.2616(3) 0.7143(2) 0.16955(10)
C2 C 1.3035(4) 0.7089(2) 0.23832(10)
H4 H 1.3533 0.7830 0.2517
H5 H 1.1807 0.6941 0.2596
C3 C 1.4529(4) 0.6157(2) 0.25476(10)
H6 H 1.4768 0.6165 0.2981
H7 H 1.5773 0.6305 0.2343
C4 C 1.3726(4) 0.4980(2) 0.23575(11)
H8 H 1.2510 0.4830 0.2577
H9 H 1.4673 0.4391 0.2471
C5 C 1.3312(4) 0.4888(2) 0.16736(10)
C6 C 1.1936(4) 0.5921(2) 0.14712(10)
C7 C 1.1620(4) 0.5972(2) 0.07831(11)
H10 H 1.2853 0.6177 0.0587
H11 H 1.1225 0.5218 0.0637
C8 C 1.0036(4) 0.6854(2) 0.06189(10)
H12 H 1.0051 0.6960 0.0183
H13 H 0.8756 0.6536 0.0726
C9 C 1.0231(4) 0.8030(2) 0.09161(10)
C10 C 1.0329(4) 0.9074(2) 0.05341(11)
H14 H 1.0512 0.8935 0.0100
C11 C 1.0947(4) 1.0262(2) 0.07549(11)
C12 C 1.0636(4) 1.0296(2) 0.14437(10)
H15 H 1.1144 1.1018 0.1602
H16 H 0.9231 1.0264 0.1531
C13 C 1.1679(4) 0.9290(2) 0.17591(11)
H17 H 1.1525 0.9383 0.2193
H18 H 1.3081 0.9336 0.1670
C14 C 1.0936(4) 0.8076(2) 0.15817(10)
C15 C 1.4484(4) 0.7538(2) 0.13468(11)
H19 H 1.4097 0.7919 0.0980
H20 H 1.5282 0.6878 0.1250
H21 H 1.5233 0.8060 0.1594
C16 C 1.5301(4) 0.4786(2) 0.13330(11)
H22 H 1.6212 0.5349 0.1487
H23 H 1.5090 0.4917 0.0909
H24 H 1.5838 0.4028 0.1392
C17 C 1.2305(4) 0.3706(2) 0.15551(11)
H25 H 1.2125 0.3618 0.1122
H26 H 1.3200 0.3102 0.1687
C18 C 0.9648(4) 1.1140(2) 0.04328(11)
H27 H 0.9683 1.1124 0.0012
C19 C 0.8484(5) 1.1919(2) 0.06762(13)
H28 H 0.8387 1.1977 0.1095
H29 H 0.7757 1.2411 0.0430
C20 C 1.3109(4) 1.0496(2) 0.05713(12)
H30 H 1.3952 0.9924 0.0751
H31 H 1.3495 1.1247 0.0710
H32 H 1.3226 1.0462 0.0139
loop_
_geom_bond_atom_site_label_1
_geom_bond_atom_site_label_2
_geom_bond_site_symmetry_1
_geom_bond_site_symmetry_2
O1 C9 1_555 1_555
O2 H1 1_555 1_555
O3 H2 1_555 1_555
O4 H3 1_555 1_555
C1 C2 1_555 1_555
C2 H4 1_555 1_555
H5 C2 1_555 1_555
C3 C2 1_555 1_555
H6 C3 1_555 1_555
H7 C3 1_555 1_555
C4 C3 1_555 1_555
H8 C4 1_555 1_555
H9 C4 1_555 1_555
C5 C4 1_555 1_555
C6 O3 1_555 1_555
C7 C6 1_555 1_555
H10 C7 1_555 1_555
H11 C7 1_555 1_555
C8 C7 1_555 1_555
H12 C8 1_555 1_555
H13 C8 1_555 1_555
C9 C8 1_555 1_555
C10 O1 1_555 1_555
H14 C10 1_555 1_555
C11 C10 1_555 1_555
C12 C11 1_555 1_555
H15 C12 1_555 1_555
H16 C12 1_555 1_555
C13 C12 1_555 1_555
H17 C13 1_555 1_555
H18 C13 1_555 1_555
C14 O2 1_555 1_555
C15 C1 1_555 1_555
H19 C15 1_555 1_555
H20 C15 1_555 1_555
H21 C15 1_555 1_555
C16 C5 1_555 1_555
H22 C16 1_555 1_555
H23 C16 1_555 1_555
H24 C16 1_555 1_555
C17 O4 1_555 1_555
H25 C17 1_555 1_555
H26 C17 1_555 1_555
C18 C11 1_555 1_555
H27 C18 1_555 1_555
C19 C18 1_555 1_555
H28 C19 1_555 1_555
H29 C19 1_555 1_555
C20 C11 1_555 1_555
H30 C20 1_555 1_555
H31 C20 1_555 1_555
H32 C20 1_555 1_555
C1 C6 1_555 1_555
C1 C14 1_555 1_555
C5 C6 1_555 1_555
C5 C17 1_555 1_555
C9 C10 1_555 1_555
C9 C14 1_555 1_555
C13 C14 1_555 1_555

#END
