
#######################################################################
#
#                 Cambridge Crystallographic Data Centre
#                                CCDC 
#
#######################################################################
#
# If this CIF has been generated from an entry in the Cambridge 
# Structural Database, then it will include bibliographic, chemical, 
# crystal, experimental, refinement or atomic coordinate data resulting 
# from the CCDC's data processing and validation procedures.
#
#######################################################################

data_IBISEU02
_chemical_formula_moiety         'C9 H15 N9 2+,C1 O3 2-,4(H2 O1)'
_chemical_name_systematic        
'(2,6-bis(((guanidin-2-ium-1-yl)imino)methyl)pyridine) carbonate tetrahydrate'
_symmetry_cell_setting           triclinic
_symmetry_space_group_name_H-M   'P -1'
_symmetry_Int_Tables_number      2
_space_group_name_Hall           '-P 1'
loop_
_symmetry_equiv_pos_site_id
_symmetry_equiv_pos_as_xyz
1 x,y,z
2 -x,-y,-z
_cell_length_a                   8.2420(2)
_cell_length_b                   8.6011(3)
_cell_length_c                   13.8821(4)
_cell_angle_alpha                72.792(3)
_cell_angle_beta                 78.998(3)
_cell_angle_gamma                70.789(2)
_cell_volume                     882.924
_exptl_crystal_colour            colorless
_exptl_crystal_description       'parallel plate'
_cell_formula_units_Z            2
loop_
_atom_site_label
_atom_site_type_symbol
_atom_site_fract_x
_atom_site_fract_y
_atom_site_fract_z
O1 O -0.46937(8) 0.99058(8) -0.27160(4)
O2 O -0.42505(8) 0.75634(8) -0.14350(5)
O3 O -0.28550(7) 0.94656(8) -0.16056(5)
C1 C -0.39347(6) 0.89770(6) -0.19218(4)
N1 N -0.23176(5) 0.56105(5) 0.01260(3)
H1 H -0.30091(16) 0.63919(16) -0.04868(9)
H2 H -0.22416(18) 0.43571(17) 0.03450(10)
C2 C -0.17692(6) 0.63177(7) 0.06813(4)
N2 N -0.19586(5) 0.79785(5) 0.04113(3)
H3 H -0.24058(18) 0.86648(17) -0.02803(10)
H4 H -0.1502(2) 0.8484(2) 0.08238(12)
C3 C 0.03576(6) 0.50419(6) 0.28479(4)
H5 H 0.05986(19) 0.36599(17) 0.30380(11)
N3 N -0.10168(4) 0.53178(5) 0.15255(3)
H6 H -0.08508(15) 0.40133(15) 0.17237(9)
C4 C 0.09146(6) 0.57500(6) 0.35282(4)
N4 N -0.04350(4) 0.60514(5) 0.20836(3)
C5 C 0.04328(6) 0.75050(6) 0.34224(4)
H7 H -0.03556(18) 0.83556(17) 0.28260(10)
N5 N 0.18698(4) 0.46088(4) 0.42577(3)
C6 C 0.09722(6) 0.81083(7) 0.40960(4)
H8 H 0.06326(19) 0.94620(16) 0.40411(11)
N6 N 0.38876(4) 0.44551(4) 0.63384(3)
C7 C 0.19583(6) 0.69466(6) 0.48506(4)
H9 H 0.24078(17) 0.73555(17) 0.53943(10)
N7 N 0.48286(4) 0.32902(4) 0.70789(3)
H10 H 0.51101(15) 0.19679(14) 0.71631(9)
C8 C 0.23804(6) 0.52064(6) 0.49058(4)
N8 N 0.48736(5) 0.55845(5) 0.76132(3)
H11 H 0.53160(16) 0.61538(16) 0.80226(10)
H12 H 0.42110(16) 0.63596(16) 0.70202(10)
C9 C 0.34137(6) 0.39250(6) 0.56959(4)
H13 H 0.37312(18) 0.25786(16) 0.57057(11)
N9 N 0.62536(5) 0.28047(5) 0.84525(3)
C10 C 0.53293(6) 0.39223(6) 0.77244(4)
H14 H 0.66211(15) 0.15273(15) 0.84583(10)
H15 H 0.66677(18) 0.31595(18) 0.89661(10)
O4 O 0.75639(9) 0.20278(11) 0.04436(6)
H16 H 0.64236(18) 0.2074(2) 0.08215(11)
H17 H 0.83387(18) 0.1733(2) 0.09586(11)
O5 O 0.26444(9) 0.09316(8) 0.45045(5)
H18 H 0.33733(17) 0.06369(18) 0.39114(10)
H19 H 0.24256(17) 0.21506(16) 0.44004(10)
O6 O 0.94345(8) 0.18309(8) 0.19970(5)
H20 H 1.06664(15) 0.12008(17) 0.19894(11)
H21 H 0.87667(16) 0.13713(17) 0.26163(10)
O7 O 0.69938(8) 0.09973(8) 0.35046(5)
H22 H 0.62036(16) 0.06665(17) 0.32074(10)
H23 H 0.70552(17) 0.03178(17) 0.42029(10)
O8 O 0.975(3) -0.018(3) 0.0776(17)
H24 H 1.078(6) -0.065(6) 0.035(4)
loop_
_geom_bond_atom_site_label_1
_geom_bond_atom_site_label_2
_geom_bond_site_symmetry_1
_geom_bond_site_symmetry_2
O1 C1 1_555 1_555
O2 C1 1_555 1_555
O3 C1 1_555 1_555
N1 H1 1_555 1_555
H2 N1 1_555 1_555
C2 N1 1_555 1_555
N2 C2 1_555 1_555
H3 N2 1_555 1_555
H4 N2 1_555 1_555
C3 H5 1_555 1_555
N3 C2 1_555 1_555
H6 N3 1_555 1_555
C4 C3 1_555 1_555
N4 C3 1_555 1_555
C5 C4 1_555 1_555
H7 C5 1_555 1_555
N5 C4 1_555 1_555
C6 C5 1_555 1_555
H8 C6 1_555 1_555
N6 N7 1_555 1_555
C7 C6 1_555 1_555
H9 C7 1_555 1_555
N7 H10 1_555 1_555
C8 N5 1_555 1_555
N8 H11 1_555 1_555
H12 N8 1_555 1_555
C9 N6 1_555 1_555
H13 C9 1_555 1_555
N9 C10 1_555 1_555
C10 N7 1_555 1_555
H14 N9 1_555 1_555
H15 N9 1_555 1_555
O4 H16 1_555 1_555
H17 O4 1_555 1_555
O5 H18 1_555 1_555
H19 O5 1_555 1_555
O6 H20 1_555 1_555
H21 O6 1_555 1_555
O7 H22 1_555 1_555
H23 O7 1_555 1_555
O8 H24 1_555 1_555
N3 N4 1_555 1_555
C7 C8 1_555 1_555
C8 C9 1_555 1_555
N8 C10 1_555 1_555

#END
