
#######################################################################
#
#                 Cambridge Crystallographic Data Centre
#                                CCDC 
#
#######################################################################
#
# If this CIF has been generated from an entry in the Cambridge 
# Structural Database, then it will include bibliographic, chemical, 
# crystal, experimental, refinement or atomic coordinate data resulting 
# from the CCDC's data processing and validation procedures.
#
#######################################################################

data_IBIXOH
_chemical_formula_moiety         'C13 H18 O4 S1'
_chemical_name_systematic        
'Phenyl 4-O-methyl-1-thio-\a-L-rhamno-pyranoside'
_symmetry_cell_setting           monoclinic
_symmetry_space_group_name_H-M   'P 21'
_symmetry_Int_Tables_number      4
_space_group_name_Hall           'P 2yb'
loop_
_symmetry_equiv_pos_site_id
_symmetry_equiv_pos_as_xyz
1 x,y,z
2 -x,1/2+y,-z
_cell_length_a                   12.267(3)
_cell_length_b                   5.1879(8)
_cell_length_c                   12.335(3)
_cell_angle_alpha                90
_cell_angle_beta                 120.10(2)
_cell_angle_gamma                90
_cell_volume                     679.143
_exptl_crystal_colour            colorless
_exptl_crystal_description       plate
_cell_formula_units_Z            2
loop_
_atom_site_label
_atom_site_type_symbol
_atom_site_fract_x
_atom_site_fract_y
_atom_site_fract_z
C1 C 0.67338(12) 0.5116(3) 0.17448(12)
C2 C 0.66536(16) 0.3233(3) 0.25046(15)
H1 H 0.7311 0.2006 0.2917
C3 C 0.55981(17) 0.3160(4) 0.26564(18)
H2 H 0.5526 0.1839 0.3150
C4 C 0.46583(15) 0.4993(4) 0.20943(16)
H3 H 0.3955 0.4960 0.2221
C5 C 0.47467(15) 0.6886(4) 0.13431(16)
H4 H 0.4101 0.8144 0.0954
C6 C 0.57761(14) 0.6945(3) 0.11595(15)
H5 H 0.5828 0.8226 0.0637
C7 C 0.86680(13) 0.2110(3) 0.18187(13)
H6 H 0.7933 0.0909 0.1501
C8 C 0.93635(14) 0.1467(3) 0.10997(13)
H7 H 0.9562 -0.0417 0.1225
C9 C 1.06163(14) 0.2865(3) 0.16610(14)
H8 H 1.0467 0.4761 0.1515
C10 C 1.13679(14) 0.2330(3) 0.30625(14)
H9 H 1.1607 0.0467 0.3207
C11 C 1.06059(15) 0.3019(3) 0.36955(14)
H10 H 1.0421 0.4909 0.3606
C12 C 1.12627(17) 0.2284(4) 0.50666(15)
H11 H 1.0740 0.2795 0.5424
H12 H 1.2078 0.3166 0.5514
H13 H 1.1396 0.0416 0.5149
C13 C 1.36028(19) 0.2419(8) 0.4233(2)
H14 H 1.4330 0.3578 0.4554
H15 H 1.3646 0.1159 0.3663
H16 H 1.3611 0.1514 0.4935
S1 S 0.80271(3) 0.53890(7) 0.14785(3)
O1 O 0.94419(10) 0.1593(2) 0.31024(10)
O2 O 1.24767(12) 0.3873(3) 0.35781(13)
O3 O 1.12935(11) 0.1945(2) 0.10670(11)
H17 H 1.1628 0.3197 0.0911
O4 O 0.85883(10) 0.1847(2) -0.02060(10)
H18 H 0.8629 0.3395 -0.0381
loop_
_geom_bond_atom_site_label_1
_geom_bond_atom_site_label_2
_geom_bond_site_symmetry_1
_geom_bond_site_symmetry_2
C1 C2 1_555 1_555
C2 H1 1_555 1_555
C3 C2 1_555 1_555
H2 C3 1_555 1_555
C4 C3 1_555 1_555
H3 C4 1_555 1_555
C5 C4 1_555 1_555
H4 C5 1_555 1_555
C6 C1 1_555 1_555
H5 C6 1_555 1_555
C7 H6 1_555 1_555
C8 C7 1_555 1_555
H7 C8 1_555 1_555
C9 C8 1_555 1_555
H8 C9 1_555 1_555
C10 C9 1_555 1_555
H9 C10 1_555 1_555
C11 C10 1_555 1_555
H10 C11 1_555 1_555
C12 C11 1_555 1_555
H11 C12 1_555 1_555
H12 C12 1_555 1_555
H13 C12 1_555 1_555
C13 H14 1_555 1_555
H15 C13 1_555 1_555
H16 C13 1_555 1_555
S1 C1 1_555 1_555
O1 C7 1_555 1_555
O2 C10 1_555 1_555
O3 C9 1_555 1_555
H17 O3 1_555 1_555
O4 C8 1_555 1_555
H18 O4 1_555 1_555
C5 C6 1_555 1_555
C7 S1 1_555 1_555
C11 O1 1_555 1_555
C13 O2 1_555 1_555

#END
