
#######################################################################
#
#                 Cambridge Crystallographic Data Centre
#                                CCDC 
#
#######################################################################
#
# If this CIF has been generated from an entry in the Cambridge 
# Structural Database, then it will include bibliographic, chemical, 
# crystal, experimental, refinement or atomic coordinate data resulting 
# from the CCDC's data processing and validation procedures.
#
#######################################################################

data_IBIYIE
_chemical_formula_moiety         'C11 H10 N2 O5'
_chemical_name_systematic        
6-methoxy-10-nitro-12,13-dioxa-11-azatricyclo[7.3.1.0^2,7^]trideca-2,4,6,10-tetraene
_symmetry_cell_setting           orthorhombic
_symmetry_space_group_name_H-M   'P b c a'
_symmetry_Int_Tables_number      61
_space_group_name_Hall           '-P 2ac 2ab'
loop_
_symmetry_equiv_pos_site_id
_symmetry_equiv_pos_as_xyz
1 x,y,z
2 1/2-x,-y,1/2+z
3 -x,1/2+y,1/2-z
4 1/2+x,1/2-y,-z
5 -x,-y,-z
6 1/2+x,y,1/2-z
7 x,1/2-y,1/2+z
8 1/2-x,1/2+y,z
_cell_length_a                   4.8748(8)
_cell_length_b                   17.909(3)
_cell_length_c                   23.571(4)
_cell_angle_alpha                90
_cell_angle_beta                 90
_cell_angle_gamma                90
_cell_volume                     2057.81
_exptl_crystal_colour            colorless
_cell_formula_units_Z            8
loop_
_atom_site_label
_atom_site_type_symbol
_atom_site_fract_x
_atom_site_fract_y
_atom_site_fract_z
C1 C 1.1970(4) 0.52497(9) 0.69284(7)
H1 H 1.0954 0.4780 0.6892
H2 H 1.2842 0.5271 0.7303
H3 H 1.3381 0.5276 0.6633
C2 C 0.8707(3) 0.59113(9) 0.63667(6)
C3 C 0.9059(4) 0.54242(9) 0.59126(7)
H4 H 1.0354 0.5029 0.5936
C4 C 0.7495(4) 0.55228(9) 0.54243(7)
H5 H 0.7734 0.5191 0.5114
C5 C 0.5598(3) 0.60946(9) 0.53819(7)
H6 H 0.4538 0.6156 0.5047
C6 C 0.5268(3) 0.65806(9) 0.58408(6)
C7 C 0.3138(3) 0.71904(9) 0.57972(7)
H7 H 0.1454 0.6972 0.5620
C8 C 0.6801(3) 0.64998(9) 0.63341(6)
C9 C 0.6448(3) 0.81801(9) 0.62037(7)
C10 C 0.4853(3) 0.77161(9) 0.66209(7)
H8 H 0.4342 0.8031 0.6955
C11 C 0.6416(4) 0.70286(9) 0.68250(6)
H9 H 0.8225 0.7179 0.6978
H10 H 0.5376 0.6778 0.7132
N1 N 0.6090(3) 0.82450(7) 0.56713(6)
N2 N 0.8621(3) 0.86748(8) 0.64276(6)
O1 O 1.0117(2) 0.58656(6) 0.68673(5)
O2 O 0.2403(2) 0.74918(6) 0.63254(5)
O3 O 1.0082(3) 0.90174(7) 0.60977(5)
O4 O 0.8820(3) 0.86969(7) 0.69497(5)
O5 O 0.4128(2) 0.77896(6) 0.54290(5)
loop_
_geom_bond_atom_site_label_1
_geom_bond_atom_site_label_2
_geom_bond_site_symmetry_1
_geom_bond_site_symmetry_2
C1 H1 1_555 1_555
H2 C1 1_555 1_555
H3 C1 1_555 1_555
C2 C3 1_555 1_555
C3 H4 1_555 1_555
C4 C3 1_555 1_555
H5 C4 1_555 1_555
C5 C4 1_555 1_555
H6 C5 1_555 1_555
C6 C5 1_555 1_555
C7 C6 1_555 1_555
H7 C7 1_555 1_555
C8 C2 1_555 1_555
C9 C10 1_555 1_555
C10 H8 1_555 1_555
C11 C8 1_555 1_555
H9 C11 1_555 1_555
H10 C11 1_555 1_555
N1 C9 1_555 1_555
N2 C9 1_555 1_555
O1 C1 1_555 1_555
O2 C7 1_555 1_555
O3 N2 1_555 1_555
O4 N2 1_555 1_555
O5 C7 1_555 1_555
C2 O1 1_555 1_555
C6 C8 1_555 1_555
C10 C11 1_555 1_555
C10 O2 1_555 1_555
N1 O5 1_555 1_555

#END
