
#######################################################################
#
#                 Cambridge Crystallographic Data Centre
#                                CCDC 
#
#######################################################################
#
# If this CIF has been generated from an entry in the Cambridge 
# Structural Database, then it will include bibliographic, chemical, 
# crystal, experimental, refinement or atomic coordinate data resulting 
# from the CCDC's data processing and validation procedures.
#
#######################################################################

data_IBODIN
_chemical_name_common            1-Amino-2-phenyl-o-carborane
_chemical_formula_moiety         'C8 H17 B10 N1'
_chemical_name_systematic        
1-Amino-2-phenyl-1,2-dicarba-closo-dodecaborane(10)
_symmetry_cell_setting           monoclinic
_symmetry_space_group_name_H-M   'P 21/n'
_symmetry_Int_Tables_number      14
_space_group_name_Hall           '-P 2yn'
loop_
_symmetry_equiv_pos_site_id
_symmetry_equiv_pos_as_xyz
1 x,y,z
2 1/2+x,1/2-y,1/2+z
3 -x,-y,-z
4 1/2-x,1/2+y,1/2-z
_cell_length_a                   10.6738(7)
_cell_length_b                   22.3100(16)
_cell_length_c                   23.3165(16)
_cell_angle_alpha                90
_cell_angle_beta                 102.677(2)
_cell_angle_gamma                90
_cell_volume                     5417.06
_exptl_crystal_colour            colorless
_exptl_crystal_description       tablet
_chemical_melting_point          '93.5-94.5 deg.C'
_cell_formula_units_Z            16
_exptl_crystal_recrystallization_method hexane
loop_
_atom_site_label
_atom_site_type_symbol
_atom_site_fract_x
_atom_site_fract_y
_atom_site_fract_z
C1 C 0.95167(19) 0.66335(10) 0.24440(9)
C2 C 0.97396(18) 0.61673(9) 0.18519(9)
B1 B 0.8848(2) 0.68198(10) 0.17269(11)
H1 H 0.9172 0.7221 0.1510
B2 B 0.7984(2) 0.68902(11) 0.22906(11)
H2 H 0.7697 0.7338 0.2438
B3 B 0.8480(2) 0.62864(12) 0.27907(11)
H3 H 0.8524 0.6329 0.3273
B4 B 0.9628(2) 0.58670(11) 0.25168(11)
H4 H 1.0464 0.5646 0.2816
B5 B 0.8349(2) 0.61356(11) 0.13343(10)
H5 H 0.8305 0.6087 0.0852
B6 B 0.7220(2) 0.65833(11) 0.16013(11)
H6 H 0.6433 0.6829 0.1294
B7 B 0.7004(2) 0.62477(12) 0.22640(11)
H7 H 0.6057 0.6267 0.2396
B8 B 0.8033(2) 0.56096(12) 0.24167(11)
H8 H 0.7782 0.5206 0.2654
B9 B 0.8844(2) 0.55371(11) 0.18362(11)
H9 H 0.9130 0.5089 0.1690
B10 B 0.7220(2) 0.57861(11) 0.16798(11)
H10 H 0.6420 0.5502 0.1428
C3 C 1.10210(19) 0.61802(9) 0.16864(9)
C4 C 1.1136(2) 0.64827(10) 0.11768(10)
H11 H 1.0413 0.6684 0.0947
C5 C 1.2296(2) 0.64918(12) 0.10037(12)
H12 H 1.2364 0.6694 0.0653
C6 C 1.3360(2) 0.62048(13) 0.13427(13)
H13 H 1.4161 0.6216 0.1229
C7 C 1.3247(2) 0.59046(12) 0.18423(13)
H14 H 1.3974 0.5706 0.2072
C8 C 1.2081(2) 0.58865(10) 0.20190(11)
H15 H 1.2013 0.5675 0.2364
N1 N 1.05566(18) 0.69657(9) 0.27479(9)
H16 H 1.0718(19) 0.7324(8) 0.2537(9)
H17 H 1.1125(17) 0.6784(9) 0.3081(8)
C9 C 0.4212(2) 0.79785(10) 0.22613(10)
C10 C 0.45647(18) 0.85833(9) 0.18352(8)
B11 B 0.4519(3) 0.86732(14) 0.25587(11)
H18 H 0.5401 0.8774 0.2905
B12 B 0.3264(2) 0.82181(13) 0.27063(12)
H19 H 0.3289 0.8026 0.3152
B13 B 0.2624(3) 0.78168(12) 0.20609(12)
H20 H 0.2219 0.7355 0.2074
B14 B 0.3500(2) 0.80306(12) 0.15364(12)
H21 H 0.3716 0.7706 0.1205
B15 B 0.3832(3) 0.92051(12) 0.20052(14)
H22 H 0.4226 0.9668 0.1989
B16 B 0.3004(3) 0.89888(13) 0.25566(14)
H23 H 0.2862 0.9310 0.2906
B17 B 0.1820(2) 0.84580(12) 0.22384(11)
H24 H 0.0877 0.8432 0.2373
B18 B 0.1965(2) 0.83184(14) 0.15070(12)
H25 H 0.1121 0.8188 0.1152
B19 B 0.3200(2) 0.87900(12) 0.13634(11)
H26 H 0.3177 0.8973 0.0914
B20 B 0.2157(3) 0.90533(13) 0.18009(14)
H27 H 0.1435 0.9415 0.1644
C11 C 0.58421(18) 0.85892(9) 0.16685(9)
C12 C 0.6897(2) 0.88694(10) 0.20212(10)
H28 H 0.6821 0.9045 0.2383
C13 C 0.8065(2) 0.88948(11) 0.18496(11)
H29 H 0.8777 0.9091 0.2093
C14 C 0.8195(2) 0.86374(11) 0.13297(11)
H30 H 0.8996 0.8654 0.1215
C15 C 0.7156(2) 0.83556(11) 0.09751(11)
H31 H 0.7243 0.8178 0.0615
C16 C 0.5982(2) 0.83295(10) 0.11419(10)
H32 H 0.5273 0.8134 0.0896
N2 N 0.5171(2) 0.75405(11) 0.24099(11)
C17 C 0.94547(18) 0.16457(9) 0.11200(9)
C18 C 0.89091(18) 0.10452(8) 0.06520(8)
B21 B 1.0004(2) 0.09389(10) 0.13209(10)
H33 H 0.9759 0.0694 0.1701
B22 B 1.1051(2) 0.15641(11) 0.14285(11)
H34 H 1.1522 0.1730 0.1878
B23 B 1.0499(2) 0.20598(11) 0.08321(11)
H35 H 1.0600 0.2557 0.0887
B24 B 0.9134(2) 0.17304(10) 0.03640(10)
H36 H 0.8318 0.2007 0.0116
B25 B 1.0152(2) 0.05637(11) 0.06625(10)
H37 H 1.0027 0.0067 0.0610
B26 B 1.1524(2) 0.08840(12) 0.11406(11)
H38 H 1.2310 0.0598 0.1401
B27 B 1.1840(2) 0.15856(12) 0.08315(11)
H39 H 1.2838 0.1765 0.0884
B28 B 1.0644(2) 0.16981(12) 0.01711(11)
H40 H 1.0848 0.1956 -0.0210
B29 B 0.9618(2) 0.10592(11) 0.00668(10)
H41 H 0.9147 0.0893 -0.0382
B30 B 1.1289(2) 0.09668(12) 0.03630(11)
H42 H 1.1930 0.0739 0.0109
C19 C 0.75688(18) 0.08248(9) 0.06371(8)
C20 C 0.7376(2) 0.02735(10) 0.08842(11)
H43 H 0.8094 0.0031 0.1052
C21 C 0.6145(2) 0.00758(11) 0.08867(11)
H44 H 0.6029 -0.0302 0.1056
C22 C 0.5094(2) 0.04187(11) 0.06482(10)
H45 H 0.4255 0.0281 0.0655
C23 C 0.5263(2) 0.09608(11) 0.03994(11)
H46 H 0.4537 0.1200 0.0233
C24 C 0.6490(2) 0.11624(10) 0.03890(10)
H47 H 0.6593 0.1536 0.0210
N3 N 0.86211(19) 0.19180(9) 0.14230(9)
H48 H 0.8187(18) 0.1606(9) 0.1647(9)
H49 H 0.7851(16) 0.2123(9) 0.1153(8)
C25 C 0.5156(2) 0.39399(9) 0.12842(9)
C26 C 0.39810(18) 0.38248(8) 0.06265(8)
B31 B 0.4461(2) 0.32505(10) 0.11259(11)
H50 H 0.3804 0.3052 0.1390
B32 B 0.6133(2) 0.33244(11) 0.14214(12)
H51 H 0.6598 0.3163 0.1873
B33 B 0.6629(2) 0.39933(11) 0.11203(11)
H52 H 0.7423 0.4280 0.1373
B34 B 0.5243(2) 0.43047(10) 0.06396(10)
H53 H 0.5105 0.4801 0.0583
B35 B 0.4207(2) 0.31391(10) 0.03526(11)
H54 H 0.3404 0.2855 0.0104
B36 B 0.5571(2) 0.28202(11) 0.08398(12)
H55 H 0.5670 0.2324 0.0910
B37 B 0.6911(2) 0.32869(12) 0.08251(12)
H56 H 0.7905 0.3101 0.0879
B38 B 0.6376(2) 0.38987(11) 0.03468(11)
H57 H 0.7017 0.4122 0.0090
B39 B 0.4706(2) 0.38048(11) 0.00482(10)
H58 H 0.4243 0.3966 -0.0403
B40 B 0.5725(3) 0.31659(11) 0.01690(12)
H59 H 0.5934 0.2899 -0.0206
C27 C 0.26693(19) 0.40689(9) 0.06167(9)
C28 C 0.1646(2) 0.36759(11) 0.05814(12)
H60 H 0.1783 0.3257 0.0551
C29 C 0.0430(2) 0.38850(12) 0.05894(13)
H61 H -0.0263 0.3611 0.0558
C30 C 0.0221(2) 0.44877(12) 0.06425(11)
H62 H -0.0609 0.4631 0.0658
C31 C 0.1224(2) 0.48821(11) 0.06723(12)
H63 H 0.1083 0.5300 0.0706
C32 C 0.2438(2) 0.46758(10) 0.06544(11)
H64 H 0.3118 0.4954 0.0668
N4 N 0.4852(2) 0.42821(10) 0.17403(9)
H65 H 0.4106(19) 0.4115(9) 0.1900(9)
H66 H 0.489(2) 0.4732(6) 0.1685(10)
loop_
_geom_bond_atom_site_label_1
_geom_bond_atom_site_label_2
_geom_bond_site_symmetry_1
_geom_bond_site_symmetry_2
C1 C2 1_555 1_555
C2 B1 1_555 1_555
B1 C1 1_555 1_555
H1 B1 1_555 1_555
B2 C1 1_555 1_555
H2 B2 1_555 1_555
B3 C1 1_555 1_555
H3 B3 1_555 1_555
B4 C1 1_555 1_555
H4 B4 1_555 1_555
B5 C2 1_555 1_555
H5 B5 1_555 1_555
B6 B1 1_555 1_555
H6 B6 1_555 1_555
B7 B2 1_555 1_555
H7 B7 1_555 1_555
B8 B3 1_555 1_555
H8 B8 1_555 1_555
B9 C2 1_555 1_555
H9 B9 1_555 1_555
B10 B5 1_555 1_555
H10 B10 1_555 1_555
C3 C2 1_555 1_555
C4 C3 1_555 1_555
H11 C4 1_555 1_555
C5 C4 1_555 1_555
H12 C5 1_555 1_555
C6 C5 1_555 1_555
H13 C6 1_555 1_555
C7 C6 1_555 1_555
H14 C7 1_555 1_555
C8 C3 1_555 1_555
H15 C8 1_555 1_555
N1 C1 1_555 1_555
H16 N1 1_555 1_555
H17 N1 1_555 1_555
C9 C10 1_555 1_555
C10 B11 1_555 1_555
B11 C9 1_555 1_555
H18 B11 1_555 1_555
B12 C9 1_555 1_555
H19 B12 1_555 1_555
B13 C9 1_555 1_555
H20 B13 1_555 1_555
B14 C9 1_555 1_555
H21 B14 1_555 1_555
B15 C10 1_555 1_555
H22 B15 1_555 1_555
B16 B11 1_555 1_555
H23 B16 1_555 1_555
B17 B12 1_555 1_555
H24 B17 1_555 1_555
B18 B13 1_555 1_555
H25 B18 1_555 1_555
B19 C10 1_555 1_555
H26 B19 1_555 1_555
B20 B15 1_555 1_555
H27 B20 1_555 1_555
C11 C10 1_555 1_555
C12 C11 1_555 1_555
H28 C12 1_555 1_555
C13 C12 1_555 1_555
H29 C13 1_555 1_555
C14 C13 1_555 1_555
H30 C14 1_555 1_555
C15 C14 1_555 1_555
H31 C15 1_555 1_555
C16 C11 1_555 1_555
H32 C16 1_555 1_555
N2 C9 1_555 1_555
C17 C18 1_555 1_555
C18 B21 1_555 1_555
B21 C17 1_555 1_555
H33 B21 1_555 1_555
B22 C17 1_555 1_555
H34 B22 1_555 1_555
B23 C17 1_555 1_555
H35 B23 1_555 1_555
B24 C17 1_555 1_555
H36 B24 1_555 1_555
B25 C18 1_555 1_555
H37 B25 1_555 1_555
B26 B21 1_555 1_555
H38 B26 1_555 1_555
B27 B22 1_555 1_555
H39 B27 1_555 1_555
B28 B23 1_555 1_555
H40 B28 1_555 1_555
B29 C18 1_555 1_555
H41 B29 1_555 1_555
B30 B25 1_555 1_555
H42 B30 1_555 1_555
C19 C18 1_555 1_555
C20 C19 1_555 1_555
H43 C20 1_555 1_555
C21 C20 1_555 1_555
H44 C21 1_555 1_555
C22 C21 1_555 1_555
H45 C22 1_555 1_555
C23 C22 1_555 1_555
H46 C23 1_555 1_555
C24 C19 1_555 1_555
H47 C24 1_555 1_555
N3 C17 1_555 1_555
H48 N3 1_555 1_555
H49 N3 1_555 1_555
C25 C26 1_555 1_555
C26 B31 1_555 1_555
B31 C25 1_555 1_555
H50 B31 1_555 1_555
B32 C25 1_555 1_555
H51 B32 1_555 1_555
B33 C25 1_555 1_555
H52 B33 1_555 1_555
B34 C25 1_555 1_555
H53 B34 1_555 1_555
B35 C26 1_555 1_555
H54 B35 1_555 1_555
B36 B31 1_555 1_555
H55 B36 1_555 1_555
B37 B32 1_555 1_555
H56 B37 1_555 1_555
B38 B33 1_555 1_555
H57 B38 1_555 1_555
B39 C26 1_555 1_555
H58 B39 1_555 1_555
B40 B35 1_555 1_555
H59 B40 1_555 1_555
C27 C26 1_555 1_555
C28 C27 1_555 1_555
H60 C28 1_555 1_555
C29 C28 1_555 1_555
H61 C29 1_555 1_555
C30 C29 1_555 1_555
H62 C30 1_555 1_555
C31 C30 1_555 1_555
H63 C31 1_555 1_555
C32 C27 1_555 1_555
H64 C32 1_555 1_555
N4 C25 1_555 1_555
H65 N4 1_555 1_555
H66 N4 1_555 1_555
C2 B4 1_555 1_555
B1 B5 1_555 1_555
B1 B2 1_555 1_555
B2 B6 1_555 1_555
B2 B3 1_555 1_555
B3 B7 1_555 1_555
B3 B4 1_555 1_555
B4 B9 1_555 1_555
B4 B8 1_555 1_555
B5 B9 1_555 1_555
B5 B6 1_555 1_555
B6 B10 1_555 1_555
B6 B7 1_555 1_555
B7 B8 1_555 1_555
B7 B10 1_555 1_555
B8 B9 1_555 1_555
B8 B10 1_555 1_555
B9 B10 1_555 1_555
C7 C8 1_555 1_555
C10 B14 1_555 1_555
B11 B15 1_555 1_555
B11 B12 1_555 1_555
B12 B16 1_555 1_555
B12 B13 1_555 1_555
B13 B17 1_555 1_555
B13 B14 1_555 1_555
B14 B19 1_555 1_555
B14 B18 1_555 1_555
B15 B19 1_555 1_555
B15 B16 1_555 1_555
B16 B20 1_555 1_555
B16 B17 1_555 1_555
B17 B18 1_555 1_555
B17 B20 1_555 1_555
B18 B19 1_555 1_555
B18 B20 1_555 1_555
B19 B20 1_555 1_555
C15 C16 1_555 1_555
C18 B24 1_555 1_555
B21 B25 1_555 1_555
B21 B22 1_555 1_555
B22 B26 1_555 1_555
B22 B23 1_555 1_555
B23 B27 1_555 1_555
B23 B24 1_555 1_555
B24 B29 1_555 1_555
B24 B28 1_555 1_555
B25 B29 1_555 1_555
B25 B26 1_555 1_555
B26 B30 1_555 1_555
B26 B27 1_555 1_555
B27 B28 1_555 1_555
B27 B30 1_555 1_555
B28 B29 1_555 1_555
B28 B30 1_555 1_555
B29 B30 1_555 1_555
C23 C24 1_555 1_555
C26 B34 1_555 1_555
B31 B35 1_555 1_555
B31 B32 1_555 1_555
B32 B36 1_555 1_555
B32 B33 1_555 1_555
B33 B37 1_555 1_555
B33 B34 1_555 1_555
B34 B39 1_555 1_555
B34 B38 1_555 1_555
B35 B39 1_555 1_555
B35 B36 1_555 1_555
B36 B40 1_555 1_555
B36 B37 1_555 1_555
B37 B38 1_555 1_555
B37 B40 1_555 1_555
B38 B39 1_555 1_555
B38 B40 1_555 1_555
B39 B40 1_555 1_555
C31 C32 1_555 1_555

#END
