
#######################################################################
#
#                 Cambridge Crystallographic Data Centre
#                                CCDC 
#
#######################################################################
#
# If this CIF has been generated from an entry in the Cambridge 
# Structural Database, then it will include bibliographic, chemical, 
# crystal, experimental, refinement or atomic coordinate data resulting 
# from the CCDC's data processing and validation procedures.
#
#######################################################################

data_IBODOT
_chemical_name_common            
'1-Amino-2-phenyl-o-carborane hexamethylphosphoramide'
_chemical_formula_moiety         'C8 H17 B10 N1,C6 H18 N3 O1 P1'
_chemical_name_systematic        
'1-Amino-2-phenyl-1,2-dicarba-closo-dodecaborane hexamethylphosphoramide'
_symmetry_cell_setting           monoclinic
_symmetry_space_group_name_H-M   'P 21'
_symmetry_Int_Tables_number      4
_space_group_name_Hall           'P 2yb'
loop_
_symmetry_equiv_pos_site_id
_symmetry_equiv_pos_as_xyz
1 x,y,z
2 -x,1/2+y,-z
_cell_length_a                   10.526(3)
_cell_length_b                   21.680(3)
_cell_length_c                   12.111(2)
_cell_angle_alpha                90
_cell_angle_beta                 115.48(2)
_cell_angle_gamma                90
_cell_volume                     2494.96
_exptl_crystal_colour            colorless
_exptl_crystal_description       block
_cell_formula_units_Z            4
loop_
_atom_site_label
_atom_site_type_symbol
_atom_site_fract_x
_atom_site_fract_y
_atom_site_fract_z
P1 P 0.6297(2) 0.80737(7) 0.57544(14)
O1 O 0.4820(4) 0.8108(2) 0.4866(4)
N1 N 0.7274(8) 0.7793(4) 0.5092(7)
C1 C 0.6720(13) 0.7532(8) 0.3946(11)
H1 H 0.694(15) 0.7785(40) 0.3403(38)
H2 H 0.5716(22) 0.7501(72) 0.3644(65)
H3 H 0.711(13) 0.7128(30) 0.3991(27)
C2 C 0.8703(12) 0.7774(11) 0.5609(11)
H4 H 0.9008(12) 0.7388(36) 0.542(16)
H5 H 0.9058(13) 0.7816(98) 0.6480(20)
H6 H 0.9054(13) 0.8106(54) 0.529(14)
N2 N 0.6478(8) 0.7638(3) 0.6884(6)
C3 C 0.7864(12) 0.7536(8) 0.7943(10)
H7 H 0.7719(12) 0.7387(85) 0.8627(55)
H8 H 0.8375(82) 0.7918(18) 0.816(11)
H9 H 0.8391(80) 0.7237(62) 0.7727(60)
C4 C 0.5430(13) 0.7266(5) 0.6910(8)
H10 H 0.5598(54) 0.7193(35) 0.7743(8)
H11 H 0.5426(62) 0.6880(16) 0.6519(73)
H12 H 0.4536(17) 0.7466(18) 0.6484(71)
N3 N 0.7051(7) 0.8714(3) 0.6370(6)
C5 C 0.6769(14) 0.9040(7) 0.7187(11)
H13 H 0.700(15) 0.9466(13) 0.7153(95)
H14 H 0.732(11) 0.8883(43) 0.7994(19)
H15 H 0.5787(33) 0.9004(56) 0.6994(80)
C6 C 0.7389(16) 0.9125(6) 0.5527(11)
H16 H 0.798(12) 0.9457(37) 0.5989(26)
H17 H 0.6533(20) 0.9290(52) 0.4908(78)
H18 H 0.787(13) 0.8890(16) 0.5148(97)
P2 P 0.3413(2) 0.82682(8) 0.99038(14)
O2 O 0.2724(4) 0.8311(2) 1.0736(3)
N4 N 0.5050(6) 0.8505(3) 1.0614(5)
C7 C 0.5475(10) 0.8927(5) 1.1588(9)
H19 H 0.4678(21) 0.9164(28) 1.1528(45)
H20 H 0.6176(66) 0.9199(25) 1.1551(45)
H21 H 0.5861(81) 0.8707(6) 1.2350(9)
C8 C 0.6090(9) 0.8447(5) 1.0119(8)
H22 H 0.6300(61) 0.8848(7) 0.9903(66)
H23 H 0.5718(36) 0.8190(31) 0.9404(46)
H24 H 0.6934(33) 0.8265(34) 1.0723(30)
N5 N 0.2533(7) 0.8667(3) 0.8667(5)
C9 C 0.2920(11) 0.8719(5) 0.7659(8)
H25 H 0.2085(11) 0.8745(44) 0.6904(10)
H26 H 0.3455(83) 0.8363(20) 0.7644(51)
H27 H 0.3478(81) 0.9083(22) 0.7762(44)
C10 C 0.1552(12) 0.9118(5) 0.8633(8)
H28 H 0.0954(68) 0.9221(33) 0.7798(8)
H29 H 0.2044(13) 0.9480(16) 0.9059(76)
H30 H 0.0991(67) 0.8959(16) 0.9018(78)
N6 N 0.3569(7) 0.7599(3) 0.9396(5)
C11 C 0.2354(10) 0.7294(4) 0.8421(7)
H31 H 0.2644(18) 0.7107(26) 0.7847(33)
H32 H 0.1634(29) 0.7594(7) 0.8007(39)
H33 H 0.1993(43) 0.6982(21) 0.8772(10)
C12 C 0.4552(10) 0.7145(4) 1.0235(7)
H34 H 0.5017(50) 0.6927(21) 0.9822(20)
H35 H 0.4041(13) 0.6857(17) 1.0493(45)
H36 H 0.5240(40) 0.7354(4) 1.0936(29)
N7 N 0.7192(8) 0.3931(3) 0.7032(5)
H37 H 0.7509(71) 0.3759(28) 0.7763(31)
H38 H 0.6642(58) 0.3698(25) 0.6372(39)
C13 C 0.8157(7) 0.4322(3) 0.6942(5)
C14 C 0.7849(6) 0.5150(3) 0.7117(5)
B1 B 0.9189(8) 0.4744(3) 0.8219(6)
H39 H 0.9188(8) 0.4648(3) 0.9102(6)
B2 B 0.9890(9) 0.4233(4) 0.7505(6)
H40 H 1.0410(9) 0.3808(4) 0.7951(6)
B3 B 0.8809(9) 0.4273(4) 0.5897(6)
H41 H 0.8601(9) 0.3881(4) 0.5280(6)
B4 B 0.7524(9) 0.4839(3) 0.5710(6)
H42 H 0.6460(9) 0.4800(3) 0.4985(6)
B5 B 0.9416(8) 0.5507(4) 0.7792(6)
H43 H 0.9621(8) 0.5899(4) 0.8410(6)
B6 B 1.0702(9) 0.4930(4) 0.8008(7)
H44 H 1.1742(9) 0.4951(4) 0.8775(7)
B7 B 1.0479(10) 0.4664(5) 0.6565(7)
H45 H 1.1358(10) 0.4520(5) 0.6377(7)
B8 B 0.8988(8) 0.5044(4) 0.5451(7)
H46 H 0.8895(8) 0.5144(4) 0.4538(7)
B9 B 0.8344(8) 0.5572(4) 0.6200(6)
H47 H 0.7841(8) 0.6004(4) 0.5776(6)
B10 B 1.0183(9) 0.5437(4) 0.6753(7)
H48 H 1.0889(9) 0.5791(4) 0.6695(7)
C15 C 0.6626(7) 0.5324(3) 0.7378(6)
C16 C 0.5254(8) 0.5371(3) 0.6467(6)
H49 H 0.5079(8) 0.5288(3) 0.5661(6)
C17 C 0.4155(8) 0.5537(4) 0.6729(7)
H50 H 0.3251(8) 0.5564(4) 0.6101(7)
C18 C 0.4379(8) 0.5661(3) 0.7902(8)
H51 H 0.3631(8) 0.5756(3) 0.8087(8)
C19 C 0.5707(9) 0.5643(4) 0.8788(7)
H52 H 0.5875(9) 0.5753(4) 0.9581(7)
C20 C 0.6843(7) 0.5465(3) 0.8546(6)
H53 H 0.7744(7) 0.5442(3) 0.9180(6)
N8 N 0.2879(7) 0.7407(2) 0.2550(5)
H54 H 0.3520(52) 0.7540(29) 0.3277(31)
H55 H 0.2894(64) 0.7667(24) 0.1981(42)
C21 C 0.1739(8) 0.7091(3) 0.2499(5)
C22 C 0.1809(7) 0.6257(3) 0.2387(5)
B11 B 0.2005(9) 0.6612(3) 0.3709(6)
H56 H 0.3008(9) 0.6609(3) 0.4520(6)
B12 B 0.0834(10) 0.7245(4) 0.3346(7)
H57 H 0.1047(10) 0.7644(4) 0.3948(7)
B13 B 0.0023(8) 0.7289(4) 0.1710(7)
H58 H -0.0307(8) 0.7724(4) 0.1221(7)
B14 B 0.0734(8) 0.6688(3) 0.1181(6)
H59 H 0.0922(8) 0.6740(3) 0.0369(6)
B15 B 0.0986(9) 0.5929(4) 0.3164(7)
H60 H 0.1296(9) 0.5491(4) 0.3647(7)
B16 B 0.0329(10) 0.6543(5) 0.3728(8)
H61 H 0.0205(10) 0.6497(5) 0.4572(8)
B17 B -0.0878(12) 0.6969(5) 0.2466(8)
H62 H -0.1793(12) 0.7201(5) 0.2475(8)
B18 B -0.0929(8) 0.6611(4) 0.1136(7)
H63 H -0.1880(8) 0.6607(4) 0.0277(7)
B19 B 0.0191(8) 0.5980(4) 0.1545(6)
H64 H -0.0024(8) 0.5576(4) 0.0957(6)
B20 B -0.0765(11) 0.6153(5) 0.2391(8)
H65 H -0.1608(11) 0.5853(5) 0.2367(8)
C23 C 0.3071(7) 0.5995(3) 0.2283(6)
C24 C 0.2916(8) 0.5652(3) 0.1259(7)
H66 H 0.2016(8) 0.5581(3) 0.0648(7)
C25 C 0.4029(9) 0.5419(4) 0.1127(7)
H67 H 0.3885(9) 0.5192(4) 0.0432(7)
C26 C 0.5386(9) 0.5515(4) 0.2017(8)
H68 H 0.6152(9) 0.5349(4) 0.1928(8)
C27 C 0.5583(9) 0.5853(4) 0.3014(7)
H69 H 0.6489(9) 0.5930(4) 0.3607(7)
C28 C 0.4425(9) 0.6086(3) 0.3158(6)
H70 H 0.4573(9) 0.6308(3) 0.3860(6)
loop_
_geom_bond_atom_site_label_1
_geom_bond_atom_site_label_2
_geom_bond_site_symmetry_1
_geom_bond_site_symmetry_2
P1 O1 1_555 1_555
N1 P1 1_555 1_555
C1 N1 1_555 1_555
H1 C1 1_555 1_555
H2 C1 1_555 1_555
H3 C1 1_555 1_555
C2 N1 1_555 1_555
H4 C2 1_555 1_555
H5 C2 1_555 1_555
H6 C2 1_555 1_555
N2 P1 1_555 1_555
C3 N2 1_555 1_555
H7 C3 1_555 1_555
H8 C3 1_555 1_555
H9 C3 1_555 1_555
C4 N2 1_555 1_555
H10 C4 1_555 1_555
H11 C4 1_555 1_555
H12 C4 1_555 1_555
N3 P1 1_555 1_555
C5 N3 1_555 1_555
H13 C5 1_555 1_555
H14 C5 1_555 1_555
H15 C5 1_555 1_555
C6 N3 1_555 1_555
H16 C6 1_555 1_555
H17 C6 1_555 1_555
H18 C6 1_555 1_555
P2 O2 1_555 1_555
N4 P2 1_555 1_555
C7 N4 1_555 1_555
H19 C7 1_555 1_555
H20 C7 1_555 1_555
H21 C7 1_555 1_555
C8 N4 1_555 1_555
H22 C8 1_555 1_555
H23 C8 1_555 1_555
H24 C8 1_555 1_555
N5 P2 1_555 1_555
C9 N5 1_555 1_555
H25 C9 1_555 1_555
H26 C9 1_555 1_555
H27 C9 1_555 1_555
C10 N5 1_555 1_555
H28 C10 1_555 1_555
H29 C10 1_555 1_555
H30 C10 1_555 1_555
N6 P2 1_555 1_555
C11 N6 1_555 1_555
H31 C11 1_555 1_555
H32 C11 1_555 1_555
H33 C11 1_555 1_555
C12 N6 1_555 1_555
H34 C12 1_555 1_555
H35 C12 1_555 1_555
H36 C12 1_555 1_555
N7 H37 1_555 1_555
H38 N7 1_555 1_555
C13 N7 1_555 1_555
C14 C13 1_555 1_555
B1 C13 1_555 1_555
H39 B1 1_555 1_555
B2 C13 1_555 1_555
H40 B2 1_555 1_555
B3 C13 1_555 1_555
H41 B3 1_555 1_555
B4 C13 1_555 1_555
H42 B4 1_555 1_555
B5 C14 1_555 1_555
H43 B5 1_555 1_555
B6 B1 1_555 1_555
H44 B6 1_555 1_555
B7 B2 1_555 1_555
H45 B7 1_555 1_555
B8 B3 1_555 1_555
H46 B8 1_555 1_555
B9 C14 1_555 1_555
H47 B9 1_555 1_555
B10 B5 1_555 1_555
H48 B10 1_555 1_555
C15 C14 1_555 1_555
C16 C15 1_555 1_555
H49 C16 1_555 1_555
C17 C16 1_555 1_555
H50 C17 1_555 1_555
C18 C17 1_555 1_555
H51 C18 1_555 1_555
C19 C18 1_555 1_555
H52 C19 1_555 1_555
C20 C15 1_555 1_555
H53 C20 1_555 1_555
N8 H54 1_555 1_555
H55 N8 1_555 1_555
C21 N8 1_555 1_555
C22 C21 1_555 1_555
B11 C21 1_555 1_555
H56 B11 1_555 1_555
B12 C21 1_555 1_555
H57 B12 1_555 1_555
B13 C21 1_555 1_555
H58 B13 1_555 1_555
B14 C21 1_555 1_555
H59 B14 1_555 1_555
B15 C22 1_555 1_555
H60 B15 1_555 1_555
B16 B11 1_555 1_555
H61 B16 1_555 1_555
B17 B12 1_555 1_555
H62 B17 1_555 1_555
B18 B13 1_555 1_555
H63 B18 1_555 1_555
B19 C22 1_555 1_555
H64 B19 1_555 1_555
B20 B15 1_555 1_555
H65 B20 1_555 1_555
C23 C22 1_555 1_555
C24 C23 1_555 1_555
H66 C24 1_555 1_555
C25 C24 1_555 1_555
H67 C25 1_555 1_555
C26 C25 1_555 1_555
H68 C26 1_555 1_555
C27 C26 1_555 1_555
H69 C27 1_555 1_555
C28 C23 1_555 1_555
H70 C28 1_555 1_555
C14 B1 1_555 1_555
C14 B4 1_555 1_555
B1 B5 1_555 1_555
B1 B2 1_555 1_555
B2 B6 1_555 1_555
B2 B3 1_555 1_555
B3 B7 1_555 1_555
B3 B4 1_555 1_555
B4 B9 1_555 1_555
B4 B8 1_555 1_555
B5 B9 1_555 1_555
B5 B6 1_555 1_555
B6 B10 1_555 1_555
B6 B7 1_555 1_555
B7 B8 1_555 1_555
B7 B10 1_555 1_555
B8 B9 1_555 1_555
B8 B10 1_555 1_555
B9 B10 1_555 1_555
C19 C20 1_555 1_555
C22 B11 1_555 1_555
C22 B14 1_555 1_555
B11 B15 1_555 1_555
B11 B12 1_555 1_555
B12 B16 1_555 1_555
B12 B13 1_555 1_555
B13 B17 1_555 1_555
B13 B14 1_555 1_555
B14 B19 1_555 1_555
B14 B18 1_555 1_555
B15 B19 1_555 1_555
B15 B16 1_555 1_555
B16 B20 1_555 1_555
B16 B17 1_555 1_555
B17 B18 1_555 1_555
B17 B20 1_555 1_555
B18 B19 1_555 1_555
B18 B20 1_555 1_555
B19 B20 1_555 1_555
C27 C28 1_555 1_555

#END
