
#######################################################################
#
#                 Cambridge Crystallographic Data Centre
#                                CCDC 
#
#######################################################################
#
# If this CIF has been generated from an entry in the Cambridge 
# Structural Database, then it will include bibliographic, chemical, 
# crystal, experimental, refinement or atomic coordinate data resulting 
# from the CCDC's data processing and validation procedures.
#
#######################################################################

data_IBOGOY
_chemical_formula_moiety         'C16 H11 N1 O2'
_chemical_name_systematic        1-nitro-2-phenylnaphthalene
_symmetry_cell_setting           monoclinic
_symmetry_space_group_name_H-M   'P 21/n'
_symmetry_Int_Tables_number      14
_space_group_name_Hall           '-P 2yn'
loop_
_symmetry_equiv_pos_site_id
_symmetry_equiv_pos_as_xyz
1 x,y,z
2 1/2-x,1/2+y,1/2-z
3 -x,-y,-z
4 1/2+x,1/2-y,1/2+z
_cell_length_a                   11.694(4)
_cell_length_b                   14.981(6)
_cell_length_c                   13.855(5)
_cell_angle_alpha                90
_cell_angle_beta                 94.039(11)
_cell_angle_gamma                90
_cell_volume                     2421.2
_exptl_crystal_colour            colorless
_exptl_crystal_description       Tabular
_cell_formula_units_Z            8
loop_
_atom_site_label
_atom_site_type_symbol
_atom_site_fract_x
_atom_site_fract_y
_atom_site_fract_z
O1 O 0.99523(12) 0.01911(11) 0.24748(11)
O2 O 0.89710(13) 0.12841(10) 0.30294(11)
N1 N 0.90468(14) 0.05848(12) 0.25776(12)
C1 C 0.7500(2) -0.00265(14) -0.09069(16)
H1 H 0.7397 -0.0094 -0.1589
C2 C 0.66798(18) -0.03238(14) -0.03425(16)
H2 H 0.6007 -0.0596 -0.0632
C3 C 0.68196(17) -0.02316(13) 0.06820(15)
C4 C 0.78615(16) 0.01427(12) 0.11066(14)
C5 C 0.79753(15) 0.01955(13) 0.21300(14)
C6 C 0.71440(16) -0.00620(13) 0.27281(15)
C7 C 0.72915(16) -0.00206(12) 0.38016(15)
C8 C 0.64352(17) 0.03680(13) 0.43170(16)
H3 H 0.5776 0.0618 0.3979
C9 C 0.65445(18) 0.03901(14) 0.53192(17)
H4 H 0.5962 0.0659 0.5665
C10 C 0.75026(19) 0.00207(14) 0.58210(16)
H5 H 0.7574 0.0039 0.6508
C11 C 0.86902(17) 0.04586(13) 0.04937(15)
H6 H 0.9376 0.0725 0.0766
C12 C 0.85089(18) 0.03828(14) -0.04912(16)
H7 H 0.9064 0.0607 -0.0898
C13 C 0.82483(16) -0.03969(13) 0.43146(15)
H8 H 0.8832 -0.0670 0.3973
C14 C 0.83495(18) -0.03732(14) 0.53202(15)
H9 H 0.9002 -0.0628 0.5663
C15 C 0.61098(16) -0.04050(13) 0.22699(16)
H10 H 0.5506 -0.0573 0.2656
C16 C 0.59638(17) -0.04982(14) 0.12914(16)
H11 H 0.5271 -0.0748 0.1013
O3 O 0.65774(13) 0.85894(10) 0.73712(11)
O4 O 0.73829(12) 0.74443(12) 0.67425(11)
N2 N 0.65398(14) 0.79046(12) 0.68824(12)
C17 C 0.48999(17) 0.74281(13) 1.01435(15)
H12 H 0.4960 0.7422 1.0831
C18 C 0.56743(17) 0.69535(13) 0.96345(15)
H13 H 0.6264 0.6619 0.9974
C19 C 0.55956(16) 0.69627(13) 0.86298(14)
H14 H 0.6137 0.6641 0.8286
C20 C 0.47218(16) 0.74442(12) 0.81205(15)
C21 C 0.45642(16) 0.74278(12) 0.70447(14)
C22 C 0.54126(16) 0.76169(13) 0.64475(14)
C23 C 0.52653(16) 0.75932(12) 0.54181(14)
C24 C 0.41600(16) 0.73357(13) 0.50031(14)
C25 C 0.39614(17) 0.73068(13) 0.39812(14)
H15 H 0.3233 0.7128 0.3701
C26 C 0.48049(17) 0.75328(13) 0.33996(15)
H16 H 0.4665 0.7513 0.2716
C27 C 0.34791(17) 0.71841(13) 0.65991(15)
H17 H 0.2870 0.7050 0.6994
C28 C 0.32901(16) 0.71377(13) 0.56194(15)
H18 H 0.2554 0.6968 0.5347
C29 C 0.58921(17) 0.77967(14) 0.38157(15)
H19 H 0.6475 0.7954 0.3403
C30 C 0.61261(17) 0.78313(13) 0.47983(15)
H20 H 0.6861 0.8014 0.5061
C31 C 0.39420(16) 0.79168(13) 0.86403(14)
H21 H 0.3343 0.8244 0.8304
C32 C 0.40337(17) 0.79136(13) 0.96457(15)
H22 H 0.3504 0.8244 0.9993
loop_
_geom_bond_atom_site_label_1
_geom_bond_atom_site_label_2
_geom_bond_site_symmetry_1
_geom_bond_site_symmetry_2
O1 N1 1_555 1_555
O2 N1 1_555 1_555
N1 C5 1_555 1_555
C1 H1 1_555 1_555
C2 C1 1_555 1_555
H2 C2 1_555 1_555
C3 C2 1_555 1_555
C4 C3 1_555 1_555
C5 C4 1_555 1_555
C6 C5 1_555 1_555
C7 C6 1_555 1_555
C8 C7 1_555 1_555
H3 C8 1_555 1_555
C9 C8 1_555 1_555
H4 C9 1_555 1_555
C10 C9 1_555 1_555
H5 C10 1_555 1_555
C11 C4 1_555 1_555
H6 C11 1_555 1_555
C12 C1 1_555 1_555
H7 C12 1_555 1_555
C13 C7 1_555 1_555
H8 C13 1_555 1_555
C14 C10 1_555 1_555
H9 C14 1_555 1_555
C15 C6 1_555 1_555
H10 C15 1_555 1_555
C16 C3 1_555 1_555
H11 C16 1_555 1_555
O3 N2 1_555 1_555
O4 N2 1_555 1_555
N2 C22 1_555 1_555
C17 H12 1_555 1_555
C18 C17 1_555 1_555
H13 C18 1_555 1_555
C19 C18 1_555 1_555
H14 C19 1_555 1_555
C20 C19 1_555 1_555
C21 C20 1_555 1_555
C22 C21 1_555 1_555
C23 C22 1_555 1_555
C24 C23 1_555 1_555
C25 C24 1_555 1_555
H15 C25 1_555 1_555
C26 C25 1_555 1_555
H16 C26 1_555 1_555
C27 C21 1_555 1_555
H17 C27 1_555 1_555
C28 C24 1_555 1_555
H18 C28 1_555 1_555
C29 C26 1_555 1_555
H19 C29 1_555 1_555
C30 C23 1_555 1_555
H20 C30 1_555 1_555
C31 C20 1_555 1_555
H21 C31 1_555 1_555
C32 C17 1_555 1_555
H22 C32 1_555 1_555
C11 C12 1_555 1_555
C13 C14 1_555 1_555
C15 C16 1_555 1_555
C27 C28 1_555 1_555
C29 C30 1_555 1_555
C31 C32 1_555 1_555

#END
