
#######################################################################
#
#                 Cambridge Crystallographic Data Centre
#                                CCDC 
#
#######################################################################
#
# If this CIF has been generated from an entry in the Cambridge 
# Structural Database, then it will include bibliographic, chemical, 
# crystal, experimental, refinement or atomic coordinate data resulting 
# from the CCDC's data processing and validation procedures.
#
#######################################################################

data_IBOGIS
_chemical_formula_moiety         'C12 H15 N1 O6'
_chemical_name_systematic        
4-(4,5-dimethoxy-2-nitrophenyl)-3-hydroxybutan-2-one
_symmetry_cell_setting           monoclinic
_symmetry_space_group_name_H-M   'P 21/n'
_symmetry_Int_Tables_number      14
_space_group_name_Hall           '-P 2yn'
loop_
_symmetry_equiv_pos_site_id
_symmetry_equiv_pos_as_xyz
1 x,y,z
2 1/2-x,1/2+y,1/2-z
3 -x,-y,-z
4 1/2+x,1/2-y,1/2+z
_cell_length_a                   13.8557(17)
_cell_length_b                   4.7327(5)
_cell_length_c                   19.297(2)
_cell_angle_alpha                90
_cell_angle_beta                 98.406(4)
_cell_angle_gamma                90
_cell_volume                     1251.8
_exptl_crystal_colour            colorless
_cell_formula_units_Z            4
loop_
_atom_site_label
_atom_site_type_symbol
_atom_site_fract_x
_atom_site_fract_y
_atom_site_fract_z
C1 C 0.63841(11) 0.1134(3) 0.02298(7)
H1 H 0.6779 0.2596 0.0046
H2 H 0.5737 0.1899 0.0270
H3 H 0.6315 -0.0488 -0.0089
C2 C 0.68745(10) 0.0211(3) 0.09379(7)
C3 C 0.65748(9) 0.1728(3) 0.15710(7)
H4 H 0.6386 0.3712 0.1435
C4 C 0.56696(9) 0.0155(3) 0.17538(7)
H5 H 0.5190 -0.0026 0.1323
H6 H 0.5868 -0.1777 0.1912
C5 C 0.51751(9) 0.1548(3) 0.23113(7)
C6 C 0.54418(9) 0.0599(3) 0.30001(7)
H7 H 0.5944 -0.0776 0.3092
C7 C 0.50001(10) 0.1592(3) 0.35517(7)
C8 C 0.42486(10) 0.3647(3) 0.34256(7)
C9 C 0.31254(10) 0.6622(3) 0.39033(8)
H8 H 0.3380 0.8303 0.3695
H9 H 0.2935 0.7114 0.4358
H10 H 0.2556 0.5911 0.3591
C10 C 0.59470(10) -0.1402(3) 0.43835(7)
H11 H 0.5773 -0.3079 0.4094
H12 H 0.5998 -0.1915 0.4880
H13 H 0.6575 -0.0660 0.4288
C11 C 0.44448(9) 0.3608(3) 0.22085(7)
C12 C 0.39779(9) 0.4636(3) 0.27553(7)
H14 H 0.3476 0.6011 0.2663
N1 N 0.41142(8) 0.4816(2) 0.15209(6)
O1 O 0.38632(7) 0.4486(2) 0.39993(5)
O2 O 0.52054(7) 0.0723(2) 0.42207(5)
O3 O 0.73401(6) 0.17928(18) 0.21425(5)
H15 H 0.7441 0.0153 0.2303
O4 O 0.74614(8) -0.1693(2) 0.10191(5)
O5 O 0.45671(7) 0.4295(2) 0.10308(5)
O6 O 0.33931(7) 0.6371(2) 0.14513(6)
loop_
_geom_bond_atom_site_label_1
_geom_bond_atom_site_label_2
_geom_bond_site_symmetry_1
_geom_bond_site_symmetry_2
C1 H1 1_555 1_555
H2 C1 1_555 1_555
H3 C1 1_555 1_555
C2 C1 1_555 1_555
C3 C2 1_555 1_555
H4 C3 1_555 1_555
C4 C3 1_555 1_555
H5 C4 1_555 1_555
H6 C4 1_555 1_555
C5 C4 1_555 1_555
C6 C5 1_555 1_555
H7 C6 1_555 1_555
C7 C6 1_555 1_555
C8 C7 1_555 1_555
C9 H8 1_555 1_555
H9 C9 1_555 1_555
H10 C9 1_555 1_555
C10 H11 1_555 1_555
H12 C10 1_555 1_555
H13 C10 1_555 1_555
C11 C5 1_555 1_555
C12 C8 1_555 1_555
H14 C12 1_555 1_555
N1 C11 1_555 1_555
O1 C8 1_555 1_555
O2 C7 1_555 1_555
O3 C3 1_555 1_555
H15 O3 1_555 1_555
O4 C2 1_555 1_555
O5 N1 1_555 1_555
O6 N1 1_555 1_555
C9 O1 1_555 1_555
C10 O2 1_555 1_555
C11 C12 1_555 1_555

#END
