
#######################################################################
#
#                 Cambridge Crystallographic Data Centre
#                                CCDC 
#
#######################################################################
#
# If this CIF has been generated from an entry in the Cambridge 
# Structural Database, then it will include bibliographic, chemical, 
# crystal, experimental, refinement or atomic coordinate data resulting 
# from the CCDC's data processing and validation procedures.
#
#######################################################################

data_IBOGEO
_chemical_formula_moiety         'C18 H15 F1 N2 O6'
_chemical_name_systematic        
1-(4-fluorophenyl)-5,6-dimethoxy-10-nitro-12,13-dioxa-11-azatricyclo[7.3.1.0^2,7^]trideca-2,4,6,10-tetraene
_symmetry_cell_setting           monoclinic
_symmetry_space_group_name_H-M   'P 21/c'
_symmetry_Int_Tables_number      14
_space_group_name_Hall           '-P 2ybc'
loop_
_symmetry_equiv_pos_site_id
_symmetry_equiv_pos_as_xyz
1 x,y,z
2 -x,1/2+y,1/2-z
3 -x,-y,-z
4 x,1/2-y,1/2+z
_cell_length_a                   7.3857(12)
_cell_length_b                   13.440(2)
_cell_length_c                   33.366(5)
_cell_angle_alpha                90
_cell_angle_beta                 90.245(8)
_cell_angle_gamma                90
_cell_volume                     3312.01
_exptl_crystal_colour            colorless
_cell_formula_units_Z            8
loop_
_atom_site_label
_atom_site_type_symbol
_atom_site_fract_x
_atom_site_fract_y
_atom_site_fract_z
C1 C 0.8414(3) 0.58943(14) 0.57107(6)
C2 C 0.6445(2) 0.57937(15) 0.56048(5)
H1 H 0.6141 0.6264 0.5382
C3 C 0.5935(2) 0.47452(15) 0.54823(5)
H2 H 0.4663 0.4731 0.5387
H3 H 0.6721 0.4521 0.5260
C4 C 0.6158(2) 0.40627(14) 0.58365(5)
C5 C 0.6253(2) 0.30418(15) 0.57758(6)
C6 C 0.6446(2) 0.23896(15) 0.61035(6)
C7 C 0.6569(2) 0.27847(15) 0.64883(6)
H4 H 0.6722 0.2354 0.6712
C8 C 0.6468(2) 0.38019(15) 0.65468(6)
H5 H 0.6543 0.4062 0.6811
C9 C 0.6260(2) 0.44517(14) 0.62254(5)
C10 C 0.6152(2) 0.55634(15) 0.62963(5)
C11 C 0.5037(2) 0.58575(14) 0.66551(5)
C12 C 0.3161(3) 0.59512(14) 0.66093(6)
H6 H 0.2627 0.5857 0.6353
C13 C 0.2075(3) 0.61790(16) 0.69326(6)
H7 H 0.0803 0.6251 0.6901
C14 C 0.2881(3) 0.62990(16) 0.73018(6)
C15 C 0.4724(3) 0.62180(17) 0.73592(6)
H8 H 0.5243 0.6308 0.7618
C16 C 0.5805(3) 0.60032(16) 0.70318(6)
H9 H 0.7080 0.5955 0.7065
C17 C 0.7606(3) 0.21289(17) 0.52448(6)
H10 H 0.8711 0.2337 0.5385
H11 H 0.7748 0.2242 0.4956
H12 H 0.7390 0.1420 0.5294
C18 C 0.6758(3) 0.07235(16) 0.63368(7)
H13 H 0.7868 0.0901 0.6482
H14 H 0.6867 0.0046 0.6231
H15 H 0.5724 0.0758 0.6519
F1 F 0.18156(16) 0.65076(10) 0.76233(4)
N1 N 0.9143(2) 0.59961(12) 0.60552(5)
N2 N 0.9730(2) 0.59604(13) 0.53788(5)
O1 O 0.54717(16) 0.60767(10) 0.59590(4)
O2 O 0.80001(16) 0.59431(10) 0.63803(4)
O3 O 1.13612(19) 0.59715(12) 0.54540(4)
O4 O 0.9073(2) 0.59886(11) 0.50397(4)
O5 O 0.60839(17) 0.27020(11) 0.53905(4)
O6 O 0.64864(18) 0.14017(10) 0.60130(4)
C19 C 0.4097(2) 0.82992(14) 0.61558(5)
C20 C 0.2159(2) 0.81525(15) 0.60310(5)
H16 H 0.2039 0.7510 0.5882
C21 C 0.1417(2) 0.89972(14) 0.57751(5)
H17 H 0.2171 0.9083 0.5533
H18 H 0.0164 0.8844 0.5689
C22 C 0.1441(2) 0.99365(14) 0.60211(5)
C23 C 0.1368(2) 1.08530(15) 0.58288(5)
C24 C 0.1471(2) 1.17394(15) 0.60490(6)
C25 C 0.1624(2) 1.16920(15) 0.64655(6)
H19 H 0.1703 1.2287 0.6618
C26 C 0.1662(2) 1.07720(15) 0.66565(6)
H20 H 0.1751 1.0745 0.6940
C27 C 0.1574(2) 0.98933(14) 0.64392(5)
C28 C 0.1618(2) 0.88905(15) 0.66519(5)
C29 C 0.0433(2) 0.88262(15) 0.70174(6)
C30 C 0.1079(3) 0.90039(16) 0.74008(6)
H21 H 0.2323 0.9154 0.7441
C31 C -0.0085(3) 0.89631(17) 0.77271(6)
H22 H 0.0345 0.9086 0.7991
C32 C -0.1876(3) 0.87403(15) 0.76572(6)
C33 C -0.2564(3) 0.85656(16) 0.72824(6)
H23 H -0.3812 0.8421 0.7245
C34 C -0.1397(2) 0.86043(15) 0.69586(6)
H24 H -0.1842 0.8480 0.6696
C35 C 0.2576(3) 1.12266(19) 0.51846(6)
H25 H 0.2693 1.1945 0.5229
H26 H 0.2330 1.1099 0.4900
H27 H 0.3705 1.0895 0.5263
C36 C 0.1418(3) 1.35162(15) 0.60465(6)
H28 H 0.0337 1.3563 0.6215
H29 H 0.1431 1.4070 0.5856
H30 H 0.2503 1.3546 0.6216
F2 F -0.30220(14) 0.86931(10) 0.79751(3)
N3 N 0.4732(2) 0.85095(12) 0.65019(5)
N4 N 0.5514(2) 0.81416(12) 0.58529(5)
O7 O 0.11487(16) 0.80979(10) 0.63956(4)
O8 O 0.34809(16) 0.87119(10) 0.67970(4)
O9 O 0.49629(18) 0.79551(11) 0.55131(4)
O10 O 0.71179(17) 0.82089(11) 0.59461(4)
O11 O 0.11185(17) 1.08488(10) 0.54204(4)
O12 O 0.13926(18) 1.25973(10) 0.58327(4)
loop_
_geom_bond_atom_site_label_1
_geom_bond_atom_site_label_2
_geom_bond_site_symmetry_1
_geom_bond_site_symmetry_2
C1 C2 1_555 1_555
C2 H1 1_555 1_555
C3 C2 1_555 1_555
H2 C3 1_555 1_555
H3 C3 1_555 1_555
C4 C3 1_555 1_555
C5 C4 1_555 1_555
C6 C5 1_555 1_555
C7 C6 1_555 1_555
H4 C7 1_555 1_555
C8 C7 1_555 1_555
H5 C8 1_555 1_555
C9 C4 1_555 1_555
C10 C9 1_555 1_555
C11 C10 1_555 1_555
C12 C11 1_555 1_555
H6 C12 1_555 1_555
C13 C12 1_555 1_555
H7 C13 1_555 1_555
C14 C13 1_555 1_555
C15 C14 1_555 1_555
H8 C15 1_555 1_555
C16 C11 1_555 1_555
H9 C16 1_555 1_555
C17 H10 1_555 1_555
H11 C17 1_555 1_555
H12 C17 1_555 1_555
C18 H13 1_555 1_555
H14 C18 1_555 1_555
H15 C18 1_555 1_555
F1 C14 1_555 1_555
N1 C1 1_555 1_555
N2 C1 1_555 1_555
O1 C2 1_555 1_555
O2 C10 1_555 1_555
O3 N2 1_555 1_555
O4 N2 1_555 1_555
O5 C5 1_555 1_555
O6 C6 1_555 1_555
C19 C20 1_555 1_555
C20 H16 1_555 1_555
C21 C20 1_555 1_555
H17 C21 1_555 1_555
H18 C21 1_555 1_555
C22 C21 1_555 1_555
C23 C22 1_555 1_555
C24 C23 1_555 1_555
C25 C24 1_555 1_555
H19 C25 1_555 1_555
C26 C25 1_555 1_555
H20 C26 1_555 1_555
C27 C22 1_555 1_555
C28 C27 1_555 1_555
C29 C28 1_555 1_555
C30 C29 1_555 1_555
H21 C30 1_555 1_555
C31 C30 1_555 1_555
H22 C31 1_555 1_555
C32 C31 1_555 1_555
C33 C32 1_555 1_555
H23 C33 1_555 1_555
C34 C29 1_555 1_555
H24 C34 1_555 1_555
C35 H25 1_555 1_555
H26 C35 1_555 1_555
H27 C35 1_555 1_555
C36 H28 1_555 1_555
H29 C36 1_555 1_555
H30 C36 1_555 1_555
F2 C32 1_555 1_555
N3 C19 1_555 1_555
N4 C19 1_555 1_555
O7 C20 1_555 1_555
O8 C28 1_555 1_555
O9 N4 1_555 1_555
O10 N4 1_555 1_555
O11 C23 1_555 1_555
O12 C24 1_555 1_555
C8 C9 1_555 1_555
C10 O1 1_555 1_555
C15 C16 1_555 1_555
C17 O5 1_555 1_555
C18 O6 1_555 1_555
N1 O2 1_555 1_555
C26 C27 1_555 1_555
C28 O7 1_555 1_555
C33 C34 1_555 1_555
C35 O11 1_555 1_555
C36 O12 1_555 1_555
N3 O8 1_555 1_555

#END
