
#######################################################################
#
#                 Cambridge Crystallographic Data Centre
#                                CCDC 
#
#######################################################################
#
# If this CIF has been generated from an entry in the Cambridge 
# Structural Database, then it will include bibliographic, chemical, 
# crystal, experimental, refinement or atomic coordinate data resulting 
# from the CCDC's data processing and validation procedures.
#
#######################################################################

data_IBOLIV
_chemical_formula_moiety         'C15 H21 N1 O3'
_chemical_name_systematic        
6-Hydroxy-3,4,7,7-tetramethyl-2-phenylperhydro-1,4-oxazepin-5-one
_symmetry_cell_setting           monoclinic
_symmetry_space_group_name_H-M   'P 21'
_symmetry_Int_Tables_number      4
_space_group_name_Hall           'P 2yb'
loop_
_symmetry_equiv_pos_site_id
_symmetry_equiv_pos_as_xyz
1 x,y,z
2 -x,1/2+y,-z
_cell_length_a                   8.381(4)
_cell_length_b                   6.231(5)
_cell_length_c                   13.771(9)
_cell_angle_alpha                90
_cell_angle_beta                 103.19(5)
_cell_angle_gamma                90
_cell_volume                     700.177
_exptl_crystal_colour            colorless
_exptl_crystal_description       needles
_cell_formula_units_Z            2
loop_
_atom_site_label
_atom_site_type_symbol
_atom_site_fract_x
_atom_site_fract_y
_atom_site_fract_z
O1 O 0.7463(3) 0.4241(8) 0.9683(2)
O2 O 0.7380(3) 0.2159(8) 0.7259(2)
O3 O 1.0363(3) 0.2408(8) 0.9655(2)
N1 N 0.6013(4) 0.1501 0.8840(2)
C1 C 1.0075(6) 0.0481(12) 0.7513(4)
C2 C 0.9025(5) 0.2115(10) 0.7896(3)
C3 C 0.9622(6) 0.4373(11) 0.7821(4)
C4 C 0.8957(4) 0.1588(9) 0.8985(3)
C5 C 0.7425(5) 0.2563(9) 0.9206(3)
C6 C 0.4489(5) 0.2436(10) 0.8964(3)
C7 C 0.6011(5) -0.0370(9) 0.8191(3)
C8 C 0.4501(6) -0.1734(10) 0.8084(3)
C9 C 0.6365(5) 0.0307(10) 0.7164(3)
C10 C 0.4840(5) 0.0875(10) 0.6378(3)
C11 C 0.4112(8) -0.0666(11) 0.5692(3)
C12 C 0.2667(6) -0.0169(12) 0.5002(4)
C13 C 0.1951(6) 0.1783(13) 0.4997(3)
C14 C 0.2689(6) 0.3340(12) 0.5674(4)
C15 C 0.4128(5) 0.2883(10) 0.6354(3)
H1 H 1.1037 0.1396 0.9856
H2 H 1.0110 0.0831 0.6839
H3 H 1.1167 0.0489 0.7924
H4 H 0.9602 -0.0918 0.7530
H5 H 0.9649 0.4664 0.7140
H6 H 0.8889 0.5360 0.8031
H7 H 1.0702 0.4537 0.8237
H8 H 0.8910 0.0060 0.9062
H9 H 0.4726 0.3641 0.9408
H10 H 0.3854 0.2906 0.8329
H11 H 0.3879 0.1385 0.9239
H12 H 0.6910 -0.1256 0.8519
H13 H 0.4330 -0.2103 0.8729
H14 H 0.3577 -0.0934 0.7721
H15 H 0.4623 -0.3021 0.7724
H16 H 0.6910 -0.0854 0.6914
H17 H 0.4609 -0.2053 0.5690
H18 H 0.2170 -0.1227 0.4521
H19 H 0.0937 0.2072 0.4528
H20 H 0.2197 0.4734 0.5663
H21 H 0.4652 0.3954 0.6821
loop_
_geom_bond_atom_site_label_1
_geom_bond_atom_site_label_2
_geom_bond_site_symmetry_1
_geom_bond_site_symmetry_2
O1 C5 1_555 1_555
O2 C2 1_555 1_555
O3 C4 1_555 1_555
N1 C5 1_555 1_555
C1 C2 1_555 1_555
C2 C3 1_555 1_555
C3 H5 1_555 1_555
C4 C2 1_555 1_555
C5 C4 1_555 1_555
C6 N1 1_555 1_555
C7 N1 1_555 1_555
C8 C7 1_555 1_555
C9 O2 1_555 1_555
C10 C9 1_555 1_555
C11 C10 1_555 1_555
C12 C11 1_555 1_555
C13 C12 1_555 1_555
C14 C13 1_555 1_555
C15 C10 1_555 1_555
H1 O3 1_555 1_555
H2 C1 1_555 1_555
H3 C1 1_555 1_555
H4 C1 1_555 1_555
H6 C3 1_555 1_555
H7 C3 1_555 1_555
H8 C4 1_555 1_555
H9 C6 1_555 1_555
H10 C6 1_555 1_555
H11 C6 1_555 1_555
H12 C7 1_555 1_555
H13 C8 1_555 1_555
H14 C8 1_555 1_555
H15 C8 1_555 1_555
H16 C9 1_555 1_555
H17 C11 1_555 1_555
H18 C12 1_555 1_555
H19 C13 1_555 1_555
H20 C14 1_555 1_555
H21 C15 1_555 1_555
C7 C9 1_555 1_555
C14 C15 1_555 1_555

#END
