
#######################################################################
#
#                 Cambridge Crystallographic Data Centre
#                                CCDC 
#
#######################################################################
#
# If this CIF has been generated from an entry in the Cambridge 
# Structural Database, then it will include bibliographic, chemical, 
# crystal, experimental, refinement or atomic coordinate data resulting 
# from the CCDC's data processing and validation procedures.
#
#######################################################################

data_IBONUI
_chemical_formula_moiety         'C22 H24 O6'
_chemical_name_systematic        
(1a,2b,3a,6a,7b,8a,9b,10a,13a,14b)-Dimethyl-16-isopropylidene-15,18-dioxahexacyclo(6.6.1.1^3,6^.1^10,1^.0^2,7^.0^9,14^)octadeca-4,11-diene-2,7-dicarboxylate
_symmetry_cell_setting           monoclinic
_symmetry_space_group_name_H-M   'P 21/c'
_symmetry_Int_Tables_number      14
_space_group_name_Hall           '-P 2ybc'
loop_
_symmetry_equiv_pos_site_id
_symmetry_equiv_pos_as_xyz
1 x,y,z
2 x,1/2-y,1/2+z
3 -x,-y,-z
4 -x,1/2+y,1/2-z
_cell_length_a                   14.980(4)
_cell_length_b                   14.900(5)
_cell_length_c                   8.698(2)
_cell_angle_alpha                90
_cell_angle_beta                 95.83(2)
_cell_angle_gamma                90
_cell_volume                     1931.37
_exptl_crystal_colour            colorless
_exptl_crystal_description       needle
_chemical_melting_point          173-174deg.C
_cell_formula_units_Z            4
loop_
_atom_site_label
_atom_site_type_symbol
_atom_site_fract_x
_atom_site_fract_y
_atom_site_fract_z
O1 O 0.2192(2) 0.2204(2) 0.1482(4)
O2 O 0.0961(2) 0.2003(2) 0.2700(4)
O3 O 0.2272(3) 0.0716(3) -0.0485(4)
O4 O 0.3580(2) 0.0047(3) 0.0186(4)
O5 O 0.3196(2) 0.0220(2) 0.4749(3)
O6 O 0.4733(2) 0.1152(2) 0.5723(4)
C1 C 0.2736(3) 0.1065(3) 0.4542(5)
C2 C 0.0648(4) 0.2883(4) 0.2148(8)
C3 C 0.1767(3) 0.1757(4) 0.2295(6)
C4 C 0.2065(3) 0.0882(3) 0.3072(5)
C5 C 0.1264(3) 0.0269(4) 0.3450(6)
C6 C 0.0736(3) 0.0044(4) 0.1904(6)
C7 C 0.1228(4) -0.0514(4) 0.1167(6)
C8 C 0.2095(3) -0.0685(3) 0.2190(6)
C9 C 0.2656(3) 0.0222(3) 0.2165(5)
C10 C 0.3766(4) 0.0050(5) -0.1420(7)
C11 C 0.2784(4) 0.0389(4) 0.0489(6)
C12 C 0.3533(3) 0.0196(3) 0.3268(5)
C13 C 0.4040(3) 0.1089(3) 0.3205(5)
C14 C 0.4973(3) 0.1123(4) 0.4158(6)
C15 C 0.5311(3) 0.2074(4) 0.3966(6)
C16 C 0.4835(4) 0.2578(4) 0.4822(6)
C17 C 0.4195(3) 0.1950(3) 0.5525(6)
C18 C 0.3478(3) 0.1710(3) 0.4189(5)
C19 C 0.1698(3) -0.1218(4) 0.4873(6)
C20 C 0.2166(4) -0.2115(4) 0.4845(7)
C21 C 0.1237(4) -0.1028(4) 0.6283(7)
C22 C 0.1720(3) -0.0631(3) 0.3747(6)
H1 H 0.2439 0.1243 0.5434
H2 H 0.1072 0.3338 0.2551
H3 H 0.0599 0.2892 0.1027
H4 H 0.0065 0.3003 0.2497
H5 H 0.0915 0.0485 0.4253
H6 H 0.0146 0.0269 0.1532
H7 H 0.1065 -0.0769 0.0152
H8 H 0.2413 -0.1232 0.1986
H9 H 0.4349 -0.0219 -0.1504
H10 H 0.3308 -0.0292 -0.2033
H11 H 0.3765 0.0663 -0.1796
H12 H 0.3903 -0.0325 0.3120
H13 H 0.4056 0.1306 0.2157
H14 H 0.5387 0.0650 0.3940
H15 H 0.5778 0.2268 0.3345
H16 H 0.4885 0.3222 0.4971
H17 H 0.3962 0.2170 0.6455
H18 H 0.3247 0.2235 0.3621
H19 H 0.2070 -0.2450 0.5770
H20 H 0.1924 -0.2450 0.3941
H21 H 0.2804 -0.2021 0.4805
H22 H 0.1518 -0.0516 0.6825
H23 H 0.0609 -0.0896 0.5982
H24 H 0.1284 -0.1548 0.6957
loop_
_geom_bond_atom_site_label_1
_geom_bond_atom_site_label_2
_geom_bond_site_symmetry_1
_geom_bond_site_symmetry_2
O1 C3 1_555 1_555
O2 C2 1_555 1_555
O3 C11 1_555 1_555
O4 C10 1_555 1_555
O5 C1 1_555 1_555
O6 C14 1_555 1_555
C1 C4 1_555 1_555
C2 H2 1_555 1_555
C3 O2 1_555 1_555
C4 C3 1_555 1_555
C5 C4 1_555 1_555
C6 C5 1_555 1_555
C7 C6 1_555 1_555
C8 C7 1_555 1_555
C9 C4 1_555 1_555
C10 H9 1_555 1_555
C11 O4 1_555 1_555
C12 O5 1_555 1_555
C13 C12 1_555 1_555
C14 C13 1_555 1_555
C15 C14 1_555 1_555
C16 C15 1_555 1_555
C17 O6 1_555 1_555
C18 C1 1_555 1_555
C19 C20 1_555 1_555
C20 H19 1_555 1_555
C21 C19 1_555 1_555
C22 C5 1_555 1_555
H1 C1 1_555 1_555
H3 C2 1_555 1_555
H4 C2 1_555 1_555
H5 C5 1_555 1_555
H6 C6 1_555 1_555
H7 C7 1_555 1_555
H8 C8 1_555 1_555
H10 C10 1_555 1_555
H11 C10 1_555 1_555
H12 C12 1_555 1_555
H13 C13 1_555 1_555
H14 C14 1_555 1_555
H15 C15 1_555 1_555
H16 C16 1_555 1_555
H17 C17 1_555 1_555
H18 C18 1_555 1_555
H20 C20 1_555 1_555
H21 C20 1_555 1_555
H22 C21 1_555 1_555
H23 C21 1_555 1_555
H24 C21 1_555 1_555
C8 C22 1_555 1_555
C8 C9 1_555 1_555
C9 C12 1_555 1_555
C9 C11 1_555 1_555
C13 C18 1_555 1_555
C16 C17 1_555 1_555
C17 C18 1_555 1_555
C19 C22 1_555 1_555

#END
