
#######################################################################
#
#                 Cambridge Crystallographic Data Centre
#                                CCDC 
#
#######################################################################
#
# If this CIF has been generated from an entry in the Cambridge 
# Structural Database, then it will include bibliographic, chemical, 
# crystal, experimental, refinement or atomic coordinate data resulting 
# from the CCDC's data processing and validation procedures.
#
#######################################################################

data_IBOSUO
_chemical_formula_moiety         'C28 H28 N2 O2,2(H2 O1)'
_chemical_name_systematic        
'(1S,2S,5S,6S)-2,6-bis(Quinolin-2-ylmethyl)bicyclo(3.3.0)octane-2,6-diol dihydrate'
_symmetry_cell_setting           orthorhombic
_symmetry_space_group_name_H-M   'P 21 21 21'
_symmetry_Int_Tables_number      19
_space_group_name_Hall           'P 2ac 2ab'
loop_
_symmetry_equiv_pos_site_id
_symmetry_equiv_pos_as_xyz
1 x,y,z
2 1/2-x,-y,1/2+z
3 -x,1/2+y,1/2-z
4 1/2+x,1/2-y,-z
_cell_length_a                   10.2233(6)
_cell_length_b                   10.9545(6)
_cell_length_c                   22.3013(14)
_cell_angle_alpha                90
_cell_angle_beta                 90
_cell_angle_gamma                90
_cell_volume                     2497.55
_exptl_crystal_colour            colorless
_cell_formula_units_Z            4
loop_
_atom_site_label
_atom_site_type_symbol
_atom_site_fract_x
_atom_site_fract_y
_atom_site_fract_z
O1 O 0.9329(2) -0.1973(2) 0.03642(10)
O2 O 0.74981(19) -0.03808(18) -0.00688(8)
H1 H 0.7836 -0.0904 0.0143
N1 N 1.1980(2) -0.0883(2) 0.16671(11)
N2 N 0.8746(3) 0.2087(2) -0.13490(13)
C1 C 1.0549(3) -0.1317(3) 0.03183(13)
C2 C 1.0993(4) -0.1278(4) -0.03360(15)
C3 C 1.0051(3) -0.0405(3) -0.06355(12)
H2 H 0.9285 -0.0835 -0.0781
H3 H 1.0467 0.0007 -0.0970
C4 C 0.9672(3) 0.0515(3) -0.01438(14)
C5 C 1.0239(3) 0.0023(3) 0.04522(13)
C6 C 0.9222(3) 0.0310(3) 0.09376(12)
H4 H 0.8797 -0.0431 0.1074
H5 H 0.9630 0.0708 0.1278
C7 C 0.8235(3) 0.1165(3) 0.06336(13)
H6 H 0.8514 0.2009 0.0664
H7 H 0.7375 0.1083 0.0813
C8 C 0.8224(3) 0.0745(3) -0.00157(14)
C9 C 1.1574(3) -0.1893(4) 0.07321(15)
C10 C 1.1326(3) -0.1759(3) 0.13900(13)
C11 C 1.0450(3) -0.2512(3) 0.16993(19)
C12 C 1.0286(4) -0.2405(3) 0.23036(18)
C13 C 1.0994(3) -0.1512(3) 0.26119(14)
C14 C 1.1815(3) -0.0751(3) 0.22742(14)
C15 C 1.2508(3) 0.0183(3) 0.25661(16)
C16 C 1.2391(4) 0.0344(4) 0.31705(17)
C17 C 1.1616(4) -0.0432(4) 0.35058(18)
C18 C 1.0929(4) -0.1331(4) 0.32387(16)
C19 C 0.7558(4) 0.1640(4) -0.04379(18)
C20 C 0.7823(3) 0.1411(3) -0.10977(16)
C21 C 0.7120(4) 0.0506(4) -0.1416(2)
C22 C 0.7410(4) 0.0348(4) -0.2004(2)
C23 C 0.8370(4) 0.1040(3) -0.22902(18)
C24 C 0.9048(4) 0.1890(3) -0.19411(16)
C25 C 1.0033(4) 0.2607(4) -0.2202(2)
C26 C 1.0322(4) 0.2476(4) -0.2793(2)
H8 H 1.0980 0.2950 -0.2963
C27 C 0.8719(5) 0.0939(4) -0.2910(2)
C28 C 0.9649(5) 0.1642(5) -0.3150(2)
H9 H 0.9846 0.1576 -0.3555
H10 H 1.184(2) -0.099(2) -0.0326(11)
H11 H 1.105(3) -0.210(3) -0.0503(12)
H12 H 1.003(2) 0.126(2) -0.0248(10)
H13 H 1.105(2) 0.043(2) 0.0514(10)
H14 H 1.242(3) -0.154(2) 0.0619(10)
H15 H 1.157(2) -0.272(2) 0.0646(10)
H16 H 1.001(2) -0.305(2) 0.1479(11)
H17 H 0.965(3) -0.291(3) 0.2502(12)
H18 H 1.037(2) -0.193(2) 0.3424(11)
H19 H 1.147(3) -0.033(3) 0.3925(13)
H20 H 1.291(2) 0.102(2) 0.3332(11)
H21 H 1.308(3) 0.065(3) 0.2341(12)
H22 H 0.788(4) 0.244(3) -0.0345(16)
H23 H 0.666(3) 0.163(2) -0.0395(12)
H24 H 0.640(4) 0.002(4) -0.1121(19)
H25 H 0.692(2) -0.024(2) -0.2206(11)
H26 H 0.810(3) 0.032(3) -0.3091(14)
H27 H 1.061(4) 0.315(3) -0.1950(16)
H28 H 0.944(3) -0.265(2) 0.0253(12)
O3 O 0.6091(3) 0.5466(2) 0.40369(12)
H29 H 0.663(4) 0.489(4) 0.3763(18)
H30 H 0.6718(15) 0.5577(16) 0.4198(7)
O4 O 0.9783(3) 0.5602(2) 1.00682(11)
H31 H 0.967(3) 0.571(3) 0.9668(9)
H32 H 1.059(5) 0.555(5) 1.003(2)
loop_
_geom_bond_atom_site_label_1
_geom_bond_atom_site_label_2
_geom_bond_site_symmetry_1
_geom_bond_site_symmetry_2
O1 C1 1_555 1_555
O2 H1 1_555 1_555
O3 H29 1_555 1_555
O4 H31 1_555 1_555
N1 C10 1_555 1_555
N2 C20 1_555 1_555
C1 C2 1_555 1_555
C2 C3 1_555 1_555
C3 H2 1_555 1_555
H3 C3 1_555 1_555
C4 C3 1_555 1_555
C5 C1 1_555 1_555
C6 C5 1_555 1_555
H4 C6 1_555 1_555
H5 C6 1_555 1_555
C7 C6 1_555 1_555
H6 C7 1_555 1_555
H7 C7 1_555 1_555
C8 O2 1_555 1_555
C9 C1 1_555 1_555
C10 C9 1_555 1_555
C11 C10 1_555 1_555
C12 C11 1_555 1_555
C13 C12 1_555 1_555
C14 N1 1_555 1_555
C15 C14 1_555 1_555
C16 C15 1_555 1_555
C17 C16 1_555 1_555
C18 C13 1_555 1_555
C19 C8 1_555 1_555
C20 C19 1_555 1_555
C21 C20 1_555 1_555
C22 C21 1_555 1_555
C23 C22 1_555 1_555
C24 N2 1_555 1_555
C25 C24 1_555 1_555
C26 C25 1_555 1_555
H8 C26 1_555 1_555
C27 C23 1_555 1_555
C28 C26 1_555 1_555
H9 C28 1_555 1_555
H10 C2 1_555 1_555
H11 C2 1_555 1_555
H12 C4 1_555 1_555
H13 C5 1_555 1_555
H14 C9 1_555 1_555
H15 C9 1_555 1_555
H16 C11 1_555 1_555
H17 C12 1_555 1_555
H18 C18 1_555 1_555
H19 C17 1_555 1_555
H20 C16 1_555 1_555
H21 C15 1_555 1_555
H22 C19 1_555 1_555
H23 C19 1_555 1_555
H24 C21 1_555 1_555
H25 C22 1_555 1_555
H26 C27 1_555 1_555
H27 C25 1_555 1_555
H28 O1 1_555 1_555
H30 O3 1_555 1_555
H32 O4 1_555 1_555
C4 C5 1_555 1_555
C4 C8 1_555 1_555
C7 C8 1_555 1_555
C13 C14 1_555 1_555
C17 C18 1_555 1_555
C23 C24 1_555 1_555
C27 C28 1_555 1_555

#END
