
#######################################################################
#
#                 Cambridge Crystallographic Data Centre
#                                CCDC 
#
#######################################################################
#
# If this CIF has been generated from an entry in the Cambridge 
# Structural Database, then it will include bibliographic, chemical, 
# crystal, experimental, refinement or atomic coordinate data resulting 
# from the CCDC's data processing and validation procedures.
#
#######################################################################

data_IBOSOI
_chemical_formula_moiety         'C15 H27 N1 O2'
_chemical_name_systematic        
2-n-Pentyl-1-azaspiro(5.5)undec-4-ene-7,8-diol
_symmetry_cell_setting           monoclinic
_symmetry_space_group_name_H-M   'P 21/n'
_symmetry_Int_Tables_number      14
_space_group_name_Hall           '-P 2yn'
loop_
_symmetry_equiv_pos_site_id
_symmetry_equiv_pos_as_xyz
1 x,y,z
2 1/2+x,1/2-y,1/2+z
3 -x,-y,-z
4 1/2-x,1/2+y,1/2-z
_cell_length_a                   11.454(3)
_cell_length_b                   10.072(3)
_cell_length_c                   13.561(4)
_cell_angle_alpha                90
_cell_angle_beta                 113.362(4)
_cell_angle_gamma                90
_cell_volume                     1436.2
_exptl_crystal_colour            colorless
_exptl_crystal_description       plate
_cell_formula_units_Z            4
loop_
_atom_site_label
_atom_site_type_symbol
_atom_site_fract_x
_atom_site_fract_y
_atom_site_fract_z
O1 O 0.91580(12) 0.57944(13) 0.83211(10)
H1 H 0.9278 0.5227 0.8816
O2 O 1.09508(12) 0.62561(12) 1.04094(10)
H2 H 1.1624 0.6623 1.0850
N1 N 0.82238(13) 0.76529(15) 0.67849(11)
H3 H 0.8052 0.6830 0.6765
C1 C 0.97204(16) 0.70594(17) 0.86370(13)
H4 H 1.0482 0.7112 0.8518
C2 C 1.01163(16) 0.73070(18) 0.98390(14)
H5 H 1.0551 0.8144 1.0019
C3 C 0.89812(18) 0.7374(2) 1.01417(15)
H6 H 0.9271 0.7593 1.0914
H7 H 0.8557 0.6497 1.0021
C4 C 0.80344(18) 0.8424(2) 0.94750(15)
H8 H 0.8432 0.9313 0.9653
H9 H 0.7280 0.8417 0.9658
C5 C 0.76158(16) 0.8167(2) 0.82698(14)
H10 H 0.7035 0.8886 0.7864
H11 H 0.7138 0.7321 0.8083
C6 C 0.87403(15) 0.80941(17) 0.79269(13)
C7 C 0.93509(16) 0.94358(18) 0.80029(14)
H12 H 0.9593 0.9910 0.8659
C8 C 0.95703(17) 0.99917(19) 0.72108(15)
H13 H 0.9931 1.0856 0.7315
C9 C 0.92736(19) 0.93154(19) 0.61557(15)
H14 H 0.9970 0.9479 0.5913
H15 H 0.8480 0.9688 0.5611
C10 C 0.91159(17) 0.78297(18) 0.62572(14)
H16 H 0.9986 0.7442 0.6714
C11 C 0.86211(18) 0.7108(2) 0.51811(15)
H17 H 0.7802 0.7509 0.4706
H18 H 0.8459 0.6168 0.5298
C12 C 0.95445(16) 0.71618(18) 0.46175(12)
H19 H 0.9522 0.8068 0.4327
H20 H 1.0417 0.7007 0.5160
C13 C 0.92782(16) 0.61660(18) 0.37038(12)
H23 H 1.0000 0.6185 0.3476
H24 H 0.9244 0.5265 0.3983
C14 C 0.8072(2) 0.6402(3) 0.27355(19)
H25 H 0.8122 0.7274 0.2417
H26 H 0.7348 0.6432 0.2960
C15 C 0.7830(3) 0.5321(4) 0.1888(3)
H27 H 0.7033 0.5508 0.1273
H28 H 0.7767 0.4457 0.2197
H29 H 0.8534 0.5303 0.1650
H21? H 1.0342 0.6663 0.4999
H22? H 0.9730 0.8076 0.4453
C16? C 0.8595(13) 0.642(2) 0.3639(12)
H30? H 0.8256 0.5671 0.3913
H31? H 0.7874 0.7035 0.3275
C17? C 0.9004(9) 0.588(2) 0.2795(11)
H32? H 0.9367 0.6647 0.2553
H33? H 0.9725 0.5281 0.3178
C18? C 0.820(3) 0.517(4) 0.180(3)
H34? H 0.8690 0.4987 0.1371
H35? H 0.7458 0.5719 0.1388
H36? H 0.7906 0.4330 0.1995
loop_
_geom_bond_atom_site_label_1
_geom_bond_atom_site_label_2
_geom_bond_site_symmetry_1
_geom_bond_site_symmetry_2
O1 H1 1_555 1_555
O2 H2 1_555 1_555
N1 H3 1_555 1_555
C1 O1 1_555 1_555
H4 C1 1_555 1_555
C2 O2 1_555 1_555
H5 C2 1_555 1_555
C3 C2 1_555 1_555
H6 C3 1_555 1_555
H7 C3 1_555 1_555
C4 C3 1_555 1_555
H8 C4 1_555 1_555
H9 C4 1_555 1_555
C5 C4 1_555 1_555
H10 C5 1_555 1_555
H11 C5 1_555 1_555
C6 N1 1_555 1_555
C7 C6 1_555 1_555
H12 C7 1_555 1_555
C8 C7 1_555 1_555
H13 C8 1_555 1_555
C9 C8 1_555 1_555
H14 C9 1_555 1_555
H15 C9 1_555 1_555
C10 N1 1_555 1_555
H16 C10 1_555 1_555
C11 C10 1_555 1_555
H17 C11 1_555 1_555
H18 C11 1_555 1_555
C12 C11 1_555 1_555
H19 C12 1_555 1_555
H20 C12 1_555 1_555
C13 C12 1_555 1_555
H23 C13 1_555 1_555
H24 C13 1_555 1_555
C14 C13 1_555 1_555
H25 C14 1_555 1_555
H26 C14 1_555 1_555
C15 C14 1_555 1_555
H27 C15 1_555 1_555
H28 C15 1_555 1_555
H29 C15 1_555 1_555
C1 C2 1_555 1_555
C1 C6 1_555 1_555
C5 C6 1_555 1_555
C9 C10 1_555 1_555

#END
