
#######################################################################
#
#                 Cambridge Crystallographic Data Centre
#                                CCDC 
#
#######################################################################
#
# If this CIF has been generated from an entry in the Cambridge 
# Structural Database, then it will include bibliographic, chemical, 
# crystal, experimental, refinement or atomic coordinate data resulting 
# from the CCDC's data processing and validation procedures.
#
#######################################################################

data_IBOTID
_chemical_formula_moiety         'C21 H31 Br1 O2'
_chemical_name_systematic        
(S)-5-((R)-2-((1R,4E,3aR,7aR)-4-Bromomethylene-7a-methylperhydroinden-1-yl)propyl)-4,4-dimethyl-3-methylenedihydrofuran-2-one
_symmetry_cell_setting           monoclinic
_symmetry_space_group_name_H-M   'P 21'
_symmetry_Int_Tables_number      4
_space_group_name_Hall           'P 2yb'
loop_
_symmetry_equiv_pos_site_id
_symmetry_equiv_pos_as_xyz
1 x,y,z
2 -x,1/2+y,-z
_cell_length_a                   9.394(2)
_cell_length_b                   7.571(1)
_cell_length_c                   14.713(2)
_cell_angle_alpha                90
_cell_angle_beta                 106.10(1)
_cell_angle_gamma                90
_cell_volume                     1005.38
_exptl_crystal_colour            colorless
_exptl_crystal_description       block
_chemical_melting_point          '403 K'
_cell_formula_units_Z            2
_exptl_crystal_recrystallization_method 'diethyl ether/hexane'
loop_
_atom_site_label
_atom_site_type_symbol
_atom_site_fract_x
_atom_site_fract_y
_atom_site_fract_z
Br1 Br -0.24582(7) 0.2814(2) 0.19307(4)
O1 O -0.2776(5) 0.9445(6) -0.4852(3)
O2 O -0.2999(7) 1.1235(7) -0.6085(4)
C1 C -0.2708(6) 0.3298(8) 0.0622(4)
C2 C -0.3168(6) 0.4761(7) 0.0186(4)
C3 C -0.3025(6) 0.6348(7) -0.2207(4)
C4 C -0.3418(6) 0.4958(7) -0.0863(3)
C5 C -0.2535(6) 0.6495(7) -0.1123(4)
C6 C -0.2916(7) 0.6891(8) -0.3869(4)
C7 C -0.2190(6) 0.767(1) -0.4562(4)
C8 C -0.2394(8) 0.6692(9) -0.5508(5)
C9 C -0.3074(8) 0.4338(8) -0.2391(4)
C10 C -0.3542(7) 0.6424(8) 0.0631(4)
C11 C -0.2793(7) 0.798(1) 0.0371(4)
C12 C -0.3140(8) 0.3442(8) -0.1454(4)
C13 C -0.2244(7) 0.8194(9) -0.6142(4)
C14 C -0.2703(9) 0.978(1) -0.5732(5)
C15 C -0.1743(9) 0.815(2) -0.6901(4)
C16 C -0.2189(8) 0.7321(8) -0.2826(5)
C17 C -0.1213(8) 0.528(1) -0.5425(5)
C18 C -0.2049(9) 0.9267(9) -0.2641(5)
C19 C -0.3915(8) 0.587(1) -0.5885(5)
C20 C -0.2992(7) 0.8189(8) -0.0700(4)
C21 C -0.0848(6) 0.6194(9) -0.0730(4)
H1 H -0.1026 0.7831 -0.4281
H2 H -0.4010 0.7622 -0.3959
H3 H -0.3050 0.5472 -0.3919
H4 H -0.4070 0.2789 -0.1627
H5 H -0.2130 0.2709 -0.1067
H6 H -0.4558 0.5257 -0.1181
H7 H -0.4539 0.6584 0.0323
H8 H -0.3469 0.6314 0.1253
H9 H -0.4658 0.6725 -0.5888
H10 H -0.3994 0.4921 -0.5481
H11 H -0.4043 0.5440 -0.6509
H12 H -0.2497 0.2225 0.0321
H13 H -0.1775 0.9650 -0.7262
H14 H -0.1255 0.7220 -0.7212
H15 H -0.1764 0.7795 0.0651
H16 H -0.3101 0.9012 0.0630
H17 H -0.4007 0.8429 -0.0998
H18 H -0.2406 0.9155 -0.0796
H19 H -0.0604 0.5128 -0.0993
H20 H -0.0578 0.6098 -0.0060
H21 H -0.0325 0.7149 -0.0907
H22 H -0.1503 0.9785 -0.3027
H23 H -0.1553 0.9479 -0.1994
H24 H -0.3012 0.9772 -0.2789
H25 H -0.1220 0.6833 -0.2674
H26 H -0.1260 0.4799 -0.6028
H27 H -0.1368 0.4376 -0.5018
H28 H -0.0266 0.5801 -0.5164
H29 H -0.4017 0.6761 -0.2415
H30 H -0.2205 0.3980 -0.2552
H31 H -0.3922 0.4027 -0.2888
loop_
_geom_bond_atom_site_label_1
_geom_bond_atom_site_label_2
_geom_bond_site_symmetry_1
_geom_bond_site_symmetry_2
Br1 C1 1_555 1_555
O1 C7 1_555 1_555
O2 C14 1_555 1_555
C1 C2 1_555 1_555
C2 C4 1_555 1_555
C3 C5 1_555 1_555
C4 C5 1_555 1_555
C5 C20 1_555 1_555
C6 C7 1_555 1_555
C7 C8 1_555 1_555
C8 C13 1_555 1_555
C9 C3 1_555 1_555
C10 C2 1_555 1_555
C11 C10 1_555 1_555
C12 C4 1_555 1_555
C13 C14 1_555 1_555
C14 O1 1_555 1_555
C15 C13 1_555 1_555
C16 C3 1_555 1_555
C17 C8 1_555 1_555
C18 C16 1_555 1_555
C19 C8 1_555 1_555
C20 C11 1_555 1_555
C21 C5 1_555 1_555
H1 C7 1_555 1_555
H2 C6 1_555 1_555
H3 C6 1_555 1_555
H4 C12 1_555 1_555
H5 C12 1_555 1_555
H6 C4 1_555 1_555
H7 C10 1_555 1_555
H8 C10 1_555 1_555
H9 C19 1_555 1_555
H10 C19 1_555 1_555
H11 C19 1_555 1_555
H12 C1 1_555 1_555
H13 C15 1_555 1_555
H14 C15 1_555 1_555
H15 C11 1_555 1_555
H16 C11 1_555 1_555
H17 C20 1_555 1_555
H18 C20 1_555 1_555
H19 C21 1_555 1_555
H20 C21 1_555 1_555
H21 C21 1_555 1_555
H22 C18 1_555 1_555
H23 C18 1_555 1_555
H24 C18 1_555 1_555
H25 C16 1_555 1_555
H26 C17 1_555 1_555
H27 C17 1_555 1_555
H28 C17 1_555 1_555
H29 C3 1_555 1_555
H30 C9 1_555 1_555
H31 C9 1_555 1_555
C6 C16 1_555 1_555
C9 C12 1_555 1_555

#END
