
#######################################################################
#
#                 Cambridge Crystallographic Data Centre
#                                CCDC 
#
#######################################################################
#
# If this CIF has been generated from an entry in the Cambridge 
# Structural Database, then it will include bibliographic, chemical, 
# crystal, experimental, refinement or atomic coordinate data resulting 
# from the CCDC's data processing and validation procedures.
#
#######################################################################

data_IBOYUW
_chemical_formula_moiety         'C25 H27 N2 1+,0.5(H2 O1),I1 1-'
_chemical_name_systematic        
'2-mesityl-3-methyl-1-(4-methylbenzyl)-1H-3,1-benzimidazol-3-ium iodide hemihydrate'
_symmetry_cell_setting           monoclinic
_symmetry_space_group_name_H-M   'C 2/c'
_symmetry_Int_Tables_number      15
_space_group_name_Hall           '-C 2yn'
loop_
_symmetry_equiv_pos_site_id
_symmetry_equiv_pos_as_xyz
1 x,y,z
2 -x,y,1/2-z
3 1/2+x,1/2+y,z
4 1/2-x,1/2+y,1/2-z
5 -x,-y,-z
6 x,-y,1/2+z
7 1/2-x,1/2-y,-z
8 1/2+x,1/2-y,1/2+z
_cell_length_a                   36.821(3)
_cell_length_b                   7.8463(7)
_cell_length_c                   16.1110(14)
_cell_angle_alpha                90
_cell_angle_beta                 99.9670(10)
_cell_angle_gamma                90
_cell_volume                     4584.36
_exptl_crystal_colour            colorless
_exptl_crystal_description       needle
_cell_formula_units_Z            8
_exptl_crystal_recrystallization_method water
loop_
_atom_site_label
_atom_site_type_symbol
_atom_site_fract_x
_atom_site_fract_y
_atom_site_fract_z
I1 I 0.41860(2) 0.13251(2) 0.17592(2)
H1 H 0.4825(11) 0.956(5) 0.239(3)
O1 O 0.5000 0.8971(5) 0.2500
H1A H 0.5175(11) 0.956(5) 0.261(3)
N1 N 0.43017(5) 0.5335(2) 0.34206(10)
C1 C 0.43930(7) 0.5962(3) 0.26248(15)
H2 H 0.4390 0.5010 0.2230
H3 H 0.4639 0.6478 0.2729
H4 H 0.4211 0.6818 0.2383
N2 N 0.40243(5) 0.5024(2) 0.45002(10)
C2 C 0.40063(6) 0.5779(3) 0.37459(13)
C3 C 0.37496(6) 0.5210(3) 0.50689(14)
H5 H 0.3614 0.6294 0.4938
H6 H 0.3881 0.5275 0.5659
C4 C 0.34771(6) 0.3767(3) 0.49925(14)
C5 C 0.31352(7) 0.3901(3) 0.44784(18)
H7 H 0.3068 0.4934 0.4184
C6 C 0.29761(7) 0.1026(3) 0.47926(18)
C7 C 0.28908(7) 0.2551(4) 0.43894(18)
H8 H 0.2657 0.2682 0.4039
C8 C 0.33119(8) 0.0905(4) 0.53229(19)
H9 H 0.3376 -0.0127 0.5622
C9 C 0.35564(7) 0.2245(3) 0.54287(16)
H10 H 0.3784 0.2129 0.5807
C10 C 0.27177(10) -0.0490(5) 0.4645(2)
H11 H 0.2467 -0.0093 0.4430
H12 H 0.2721 -0.1101 0.5176
H13 H 0.2798 -0.1257 0.4232
C11 C 0.43466(6) 0.4049(2) 0.46671(13)
C12 C 0.45008(6) 0.3052(3) 0.53520(14)
H14 H 0.4385 0.2925 0.5831
C13 C 0.48301(7) 0.2259(3) 0.53025(16)
H15 H 0.4945 0.1576 0.5761
C14 C 0.49992(7) 0.2431(3) 0.45980(16)
H16 H 0.5224 0.1846 0.4586
C15 C 0.48508(6) 0.3423(3) 0.39186(16)
H17 H 0.4968 0.3547 0.3440
C16 C 0.45192(5) 0.4235(3) 0.39732(13)
C17 C 0.37111(6) 0.6930(3) 0.33452(13)
C18 C 0.37315(6) 0.8663(2) 0.35568(13)
C19 C 0.34444(6) 0.9708(3) 0.31944(14)
H18 H 0.3452 1.0881 0.3342
C20 C 0.31473(7) 0.9103(3) 0.26255(16)
C21 C 0.31436(6) 0.7390(3) 0.24028(15)
H19 H 0.2944 0.6968 0.2003
C22 C 0.34206(6) 0.6286(3) 0.27443(15)
C23 C 0.40579(7) 0.9387(3) 0.41346(16)
H20 H 0.4284 0.9116 0.3916
H21 H 0.4072 0.8892 0.4698
H22 H 0.4031 1.0627 0.4167
C24 C 0.28400(9) 1.0271(4) 0.2244(2)
H23 H 0.2883 1.0660 0.1691
H24 H 0.2832 1.1258 0.2613
H25 H 0.2605 0.9659 0.2179
C25 C 0.34100(8) 0.4448(3) 0.24680(19)
H26 H 0.3186 0.4243 0.2055
H27 H 0.3410 0.3707 0.2958
H28 H 0.3627 0.4199 0.2212
loop_
_geom_bond_atom_site_label_1
_geom_bond_atom_site_label_2
_geom_bond_site_symmetry_1
_geom_bond_site_symmetry_2
H1 O1 1_555 1_555
O1 H1A 1_555 1_555
N1 C1 1_555 1_555
C1 H2 1_555 1_555
H3 C1 1_555 1_555
H4 C1 1_555 1_555
N2 C2 1_555 1_555
C2 N1 1_555 1_555
C3 N2 1_555 1_555
H5 C3 1_555 1_555
H6 C3 1_555 1_555
C4 C3 1_555 1_555
C5 C4 1_555 1_555
H7 C5 1_555 1_555
C6 C7 1_555 1_555
C7 C5 1_555 1_555
H8 C7 1_555 1_555
C8 C6 1_555 1_555
H9 C8 1_555 1_555
C9 C4 1_555 1_555
H10 C9 1_555 1_555
C10 C6 1_555 1_555
H11 C10 1_555 1_555
H12 C10 1_555 1_555
H13 C10 1_555 1_555
C11 N2 1_555 1_555
C12 C11 1_555 1_555
H14 C12 1_555 1_555
C13 C12 1_555 1_555
H15 C13 1_555 1_555
C14 C13 1_555 1_555
H16 C14 1_555 1_555
C15 C14 1_555 1_555
H17 C15 1_555 1_555
C16 N1 1_555 1_555
C17 C2 1_555 1_555
C18 C17 1_555 1_555
C19 C18 1_555 1_555
H18 C19 1_555 1_555
C20 C19 1_555 1_555
C21 C20 1_555 1_555
H19 C21 1_555 1_555
C22 C17 1_555 1_555
C23 C18 1_555 1_555
H20 C23 1_555 1_555
H21 C23 1_555 1_555
H22 C23 1_555 1_555
C24 C20 1_555 1_555
H23 C24 1_555 1_555
H24 C24 1_555 1_555
H25 C24 1_555 1_555
C25 C22 1_555 1_555
H26 C25 1_555 1_555
H27 C25 1_555 1_555
H28 C25 1_555 1_555
C8 C9 1_555 1_555
C11 C16 1_555 1_555
C15 C16 1_555 1_555
C21 C22 1_555 1_555

#END
