
#######################################################################
#
#                 Cambridge Crystallographic Data Centre
#                                CCDC 
#
#######################################################################
#
# If this CIF has been generated from an entry in the Cambridge 
# Structural Database, then it will include bibliographic, chemical, 
# crystal, experimental, refinement or atomic coordinate data resulting 
# from the CCDC's data processing and validation procedures.
#
#######################################################################

data_IBUFUJ
_chemical_formula_moiety         'C21 H20 N2 O1'
_chemical_name_systematic        
2'-((4-(dimethylamino)benzylidene)amino)biphenyl-2-ol
_symmetry_cell_setting           monoclinic
_symmetry_space_group_name_H-M   'C 2/c'
_symmetry_Int_Tables_number      15
_space_group_name_Hall           '-C 2yn'
loop_
_symmetry_equiv_pos_site_id
_symmetry_equiv_pos_as_xyz
1 x,y,z
2 -x,y,1/2-z
3 1/2+x,1/2+y,z
4 1/2-x,1/2+y,1/2-z
5 -x,-y,-z
6 x,-y,1/2+z
7 1/2-x,1/2-y,-z
8 1/2+x,1/2-y,1/2+z
_cell_length_a                   28.608(3)
_cell_length_b                   7.0798(7)
_cell_length_c                   16.9806(17)
_cell_angle_alpha                90
_cell_angle_beta                 100.020(3)
_cell_angle_gamma                90
_cell_volume                     3386.77
_exptl_crystal_description       block
_cell_formula_units_Z            8
loop_
_atom_site_label
_atom_site_type_symbol
_atom_site_fract_x
_atom_site_fract_y
_atom_site_fract_z
N1 N 0.14363(9) 0.5389(3) 0.71740(18)
N2 N 0.30918(10) 0.4633(3) 0.50376(19)
O1 O 0.07241(8) 0.6195(3) 0.60005(15)
H1 H 0.0953 0.5677 0.6273
C1 C 0.11698(11) 0.5399(4) 0.7805(2)
C2 C 0.12448(12) 0.4106(4) 0.8423(2)
H2 H 0.1488 0.3228 0.8443
C3 C 0.09682(13) 0.4082(5) 0.9010(2)
H3 H 0.1029 0.3213 0.9426
C4 C 0.06015(12) 0.5354(5) 0.8975(2)
H4 H 0.0407 0.5336 0.9360
C5 C 0.05271(11) 0.6655(5) 0.8361(2)
H5 H 0.0281 0.7520 0.8345
C6 C 0.08058(10) 0.6731(4) 0.7762(2)
C7 C 0.07053(10) 0.8233(4) 0.7138(2)
C8 C 0.06584(11) 0.7933(5) 0.6315(2)
C9 C 0.05115(11) 0.9386(5) 0.5783(2)
H6 H 0.0471 0.9160 0.5236
C10 C 0.04244(12) 1.1154(5) 0.6055(3)
H7 H 0.0326 1.2121 0.5693
C11 C 0.04824(12) 1.1487(5) 0.6858(3)
H8 H 0.0431 1.2693 0.7042
C12 C 0.06172(10) 1.0046(5) 0.7396(2)
H9 H 0.0650 1.0289 0.7941
C13 C 0.18851(12) 0.5077(3) 0.7324(2)
H10 H 0.2027 0.4909 0.7855
C14 C 0.21816(11) 0.4971(4) 0.6725(2)
C15 C 0.20168(11) 0.5200(4) 0.5910(2)
H11 H 0.1696 0.5437 0.5737
C16 C 0.23103(11) 0.5091(4) 0.5352(2)
H12 H 0.2184 0.5252 0.4813
C17 C 0.27974(12) 0.4738(4) 0.5580(2)
C18 C 0.29605(11) 0.4509(4) 0.6402(2)
H13 H 0.3281 0.4270 0.6580
C19 C 0.26635(11) 0.4627(4) 0.6956(2)
H14 H 0.2788 0.4472 0.7495
C20 C 0.35702(11) 0.3904(4) 0.5276(2)
H15 H 0.3754 0.4776 0.5638
H16 H 0.3715 0.3746 0.4812
H17 H 0.3558 0.2707 0.5537
C21 C 0.29226(12) 0.4853(4) 0.4185(2)
H18 H 0.2733 0.3778 0.3988
H19 H 0.3189 0.4948 0.3913
H20 H 0.2734 0.5978 0.4092
loop_
_geom_bond_atom_site_label_1
_geom_bond_atom_site_label_2
_geom_bond_site_symmetry_1
_geom_bond_site_symmetry_2
N1 C1 1_555 1_555
N2 C17 1_555 1_555
O1 H1 1_555 1_555
C1 C2 1_555 1_555
C2 H2 1_555 1_555
C3 C2 1_555 1_555
H3 C3 1_555 1_555
C4 C3 1_555 1_555
H4 C4 1_555 1_555
C5 C4 1_555 1_555
H5 C5 1_555 1_555
C6 C1 1_555 1_555
C7 C6 1_555 1_555
C8 O1 1_555 1_555
C9 C8 1_555 1_555
H6 C9 1_555 1_555
C10 C9 1_555 1_555
H7 C10 1_555 1_555
C11 C10 1_555 1_555
H8 C11 1_555 1_555
C12 C7 1_555 1_555
H9 C12 1_555 1_555
C13 N1 1_555 1_555
H10 C13 1_555 1_555
C14 C13 1_555 1_555
C15 C14 1_555 1_555
H11 C15 1_555 1_555
C16 C15 1_555 1_555
H12 C16 1_555 1_555
C17 C16 1_555 1_555
C18 C17 1_555 1_555
H13 C18 1_555 1_555
C19 C14 1_555 1_555
H14 C19 1_555 1_555
C20 N2 1_555 1_555
H15 C20 1_555 1_555
H16 C20 1_555 1_555
H17 C20 1_555 1_555
C21 N2 1_555 1_555
H18 C21 1_555 1_555
H19 C21 1_555 1_555
H20 C21 1_555 1_555
C5 C6 1_555 1_555
C7 C8 1_555 1_555
C11 C12 1_555 1_555
C18 C19 1_555 1_555

#END
