
#######################################################################
#
#                 Cambridge Crystallographic Data Centre
#                                CCDC 
#
#######################################################################
#
# If this CIF has been generated from an entry in the Cambridge 
# Structural Database, then it will include bibliographic, chemical, 
# crystal, experimental, refinement or atomic coordinate data resulting 
# from the CCDC's data processing and validation procedures.
#
#######################################################################

data_IBUHES
_chemical_formula_moiety         'C9 H8 Cl2 O3'
_chemical_name_systematic        '(R)-2-(2,4-Dichlorophenoxy)propanoic acid'
_symmetry_cell_setting           monoclinic
_symmetry_space_group_name_H-M   'P 21'
_symmetry_Int_Tables_number      4
_space_group_name_Hall           'P 2yb'
loop_
_symmetry_equiv_pos_site_id
_symmetry_equiv_pos_as_xyz
1 x,y,z
2 -x,1/2+y,-z
_cell_length_a                   9.9750(5)
_cell_length_b                   4.6130(3)
_cell_length_c                   11.1410(6)
_cell_angle_alpha                90
_cell_angle_beta                 94.227(4)
_cell_angle_gamma                90
_cell_volume                     511.255
_exptl_crystal_colour            colorless
_exptl_crystal_description       needle
_chemical_melting_point          '122-123 deg.C'
_cell_formula_units_Z            2
_exptl_crystal_recrystallization_method 'dilute formic acid solution'
loop_
_atom_site_label
_atom_site_type_symbol
_atom_site_fract_x
_atom_site_fract_y
_atom_site_fract_z
Cl1 Cl 0.33075(6) 0.9310 0.02745(5)
Cl2 Cl 0.74983(6) 0.8066(2) 0.35455(6)
O1 O 0.09896(18) 0.7080(4) 0.37653(17)
O2 O 0.00362(15) 0.2803(4) 0.41244(14)
O3 O 0.19508(14) 0.5356(4) 0.17461(13)
C1 C 0.0676(2) 0.4370(6) 0.35118(18)
C2 C 0.1132(2) 0.3295(6) 0.2324(2)
C3 C -0.0097(3) 0.2792(8) 0.1459(2)
C4 C 0.3241(2) 0.5786(5) 0.2212(2)
C5 C 0.4004(2) 0.7719(6) 0.15832(19)
C6 C 0.5309(2) 0.8404(6) 0.1987(2)
C7 C 0.5867(2) 0.7114(6) 0.3024(2)
C8 C 0.5150(2) 0.5167(6) 0.3650(2)
C9 C 0.3831(2) 0.4508(6) 0.3245(2)
H1 H 0.162(2) 0.150(6) 0.245(2)
H2 H 0.069(3) 0.751(8) 0.436(3)
H3 H 0.576(3) 0.957(8) 0.158(2)
H4 H 0.552(2) 0.433(7) 0.432(2)
H5 H 0.333(3) 0.323(6) 0.368(2)
H6 H -0.057(3) 0.443(8) 0.137(2)
H7 H -0.074(3) 0.143(6) 0.181(2)
H8 H 0.016(2) 0.208(6) 0.071(2)
loop_
_geom_bond_atom_site_label_1
_geom_bond_atom_site_label_2
_geom_bond_site_symmetry_1
_geom_bond_site_symmetry_2
Cl1 C5 1_555 1_555
Cl2 C7 1_555 1_555
O1 C1 1_555 1_555
O2 C1 1_555 1_555
O3 C2 1_555 1_555
C1 C2 1_555 1_555
C2 C3 1_555 1_555
C3 H6 1_555 1_555
C4 O3 1_555 1_555
C5 C4 1_555 1_555
C6 C5 1_555 1_555
C7 C6 1_555 1_555
C8 C7 1_555 1_555
C9 C4 1_555 1_555
H1 C2 1_555 1_555
H2 O1 1_555 1_555
H3 C6 1_555 1_555
H4 C8 1_555 1_555
H5 C9 1_555 1_555
H7 C3 1_555 1_555
H8 C3 1_555 1_555
C8 C9 1_555 1_555

#END
