
#######################################################################
#
#                 Cambridge Crystallographic Data Centre
#                                CCDC 
#
#######################################################################
#
# If this CIF has been generated from an entry in the Cambridge 
# Structural Database, then it will include bibliographic, chemical, 
# crystal, experimental, refinement or atomic coordinate data resulting 
# from the CCDC's data processing and validation procedures.
#
#######################################################################

data_IBUJOH
_chemical_name_common            'vortioxetine hydrochloride monohydrate'
_chemical_formula_moiety         'C18 H23 N2 S1 1+,H2 O1,Cl1 1-'
_chemical_name_systematic        
'4-(2-((2,4-dimethylphenyl)sulfanyl)phenyl)piperazin-1-ium chloride monohydrate'
_chemical_properties_biological  
'Vortioxetine is a multimodal serotonergic agent used to treat major depressive disorder'
_symmetry_cell_setting           monoclinic
_symmetry_space_group_name_H-M   'P 21/c'
_symmetry_Int_Tables_number      14
_space_group_name_Hall           '-P 2ybc'
loop_
_symmetry_equiv_pos_site_id
_symmetry_equiv_pos_as_xyz
1 x,y,z
2 -x,1/2+y,1/2-z
3 -x,-y,-z
4 x,1/2-y,1/2+z
_cell_length_a                   6.2578(13)
_cell_length_b                   46.078(10)
_cell_length_c                   7.0238(16)
_cell_angle_alpha                90
_cell_angle_beta                 107.730(3)
_cell_angle_gamma                90
_cell_volume                     1929.09
_cell_formula_units_Z            4
loop_
_atom_site_label
_atom_site_type_symbol
_atom_site_fract_x
_atom_site_fract_y
_atom_site_fract_z
Cl1 Cl 0.34935(12) 0.219989(16) 0.08261(11)
S1 S 0.47964(16) 0.11640(2) 0.74820(17)
N1 N 0.6926(4) 0.21152(5) 0.5022(3)
H1 H 0.6122 0.2192 0.3844
H2 H 0.7865 0.2253 0.5714
N2 N 0.7857(4) 0.16232(4) 0.7582(3)
C1 C 0.5386(5) 0.20251(6) 0.6156(5)
H3 H 0.4248 0.1896 0.5341
H4 H 0.4639 0.2195 0.6472
C2 C 0.8254(5) 0.18670(7) 0.4653(4)
H5 H 0.9321 0.1935 0.4000
H6 H 0.7263 0.1728 0.3775
C3 C 0.9495(5) 0.17212(7) 0.6610(4)
H7 H 1.0342 0.1557 0.6363
H8 H 1.0536 0.1857 0.7470
C4 C 0.6660(5) 0.18733(6) 0.8053(4)
H9 H 0.7723 0.2006 0.8917
H10 H 0.5629 0.1809 0.8754
C5 C 0.8711(5) 0.14353(6) 0.9265(4)
C6 C 1.0754(6) 0.14772(7) 1.0718(5)
H11 H 1.1667 0.1631 1.0606
C7 C 1.1445(7) 0.12907(8) 1.2337(5)
H12 H 1.2817 0.1320 1.3310
C8 C 1.0123(7) 0.10643(9) 1.2508(5)
H13 H 1.0591 0.0942 1.3608
C9 C 0.8090(6) 0.10142(8) 1.1067(5)
H14 H 0.7203 0.0858 1.1189
C10 C 0.7375(5) 0.12015(7) 0.9421(4)
C11 C 0.4037(6) 0.08002(8) 0.7712(5)
C12 C 0.2616(8) 0.07372(9) 0.8812(8)
H15 H 0.2141 0.0884 0.9497
C13 C 0.1901(10) 0.04574(11) 0.8897(9)
H16 H 0.0957 0.0418 0.9664
C14 C 0.2516(10) 0.02363(10) 0.7909(9)
C15 C 0.3905(11) 0.03018(11) 0.6813(9)
H17 H 0.4354 0.0152 0.6130
C16 C 0.4694(7) 0.05820(11) 0.6659(7)
C17 C 0.6191(13) 0.06426(17) 0.5373(11)
H18 H 0.6794 0.0835 0.5638
H19 H 0.5332 0.0627 0.3988
H20 H 0.7397 0.0505 0.5676
C18 C 0.1695(15) -0.00735(12) 0.8023(13)
H21 H 0.2787 -0.0177 0.9059
H22 H 0.1486 -0.0170 0.6767
H23 H 0.0297 -0.0068 0.8321
O1 O -0.0196(3) 0.24719(5) 0.2493(3)
H24 H 0.0732 0.2361 0.1994
H25 H 0.0851 0.2552 0.3532
loop_
_geom_bond_atom_site_label_1
_geom_bond_atom_site_label_2
_geom_bond_site_symmetry_1
_geom_bond_site_symmetry_2
S1 C10 1_555 1_555
N1 H1 1_555 1_555
H2 N1 1_555 1_555
N2 C3 1_555 1_555
C1 N1 1_555 1_555
H3 C1 1_555 1_555
H4 C1 1_555 1_555
C2 N1 1_555 1_555
H5 C2 1_555 1_555
H6 C2 1_555 1_555
C3 C2 1_555 1_555
H7 C3 1_555 1_555
H8 C3 1_555 1_555
C4 N2 1_555 1_555
H9 C4 1_555 1_555
H10 C4 1_555 1_555
C5 N2 1_555 1_555
C6 C5 1_555 1_555
H11 C6 1_555 1_555
C7 C6 1_555 1_555
H12 C7 1_555 1_555
C8 C7 1_555 1_555
H13 C8 1_555 1_555
C9 C8 1_555 1_555
H14 C9 1_555 1_555
C10 C5 1_555 1_555
C11 S1 1_555 1_555
C12 C11 1_555 1_555
H15 C12 1_555 1_555
C13 C12 1_555 1_555
H16 C13 1_555 1_555
C14 C13 1_555 1_555
C15 C14 1_555 1_555
H17 C15 1_555 1_555
C16 C11 1_555 1_555
C17 C16 1_555 1_555
H18 C17 1_555 1_555
H19 C17 1_555 1_555
H20 C17 1_555 1_555
C18 C14 1_555 1_555
H21 C18 1_555 1_555
H22 C18 1_555 1_555
H23 C18 1_555 1_555
O1 H24 1_555 1_555
H25 O1 1_555 1_555
C1 C4 1_555 1_555
C9 C10 1_555 1_555
C15 C16 1_555 1_555

#END
