
#######################################################################
#
#                 Cambridge Crystallographic Data Centre
#                                CCDC 
#
#######################################################################
#
# If this CIF has been generated from an entry in the Cambridge 
# Structural Database, then it will include bibliographic, chemical, 
# crystal, experimental, refinement or atomic coordinate data resulting 
# from the CCDC's data processing and validation procedures.
#
#######################################################################

data_IBUPEB
_chemical_formula_moiety         'C25 H24 Br1 N1 O4'
_chemical_name_systematic        
'Ethyl (S)-4-(4-(4-bromophenylcarbamoyloxy)phenyl)-3-phenylbutyrate'
_symmetry_cell_setting           triclinic
_symmetry_space_group_name_H-M   'P 1'
_symmetry_Int_Tables_number      1
_space_group_name_Hall           'P 1'
loop_
_symmetry_equiv_pos_site_id
_symmetry_equiv_pos_as_xyz
1 x,y,z
_cell_length_a                   9.7044(12)
_cell_length_b                   13.386(3)
_cell_length_c                   19.120(3)
_cell_angle_alpha                109.545(15)
_cell_angle_beta                 90.018(12)
_cell_angle_gamma                100.453(14)
_cell_volume                     2296.79
_cell_formula_units_Z            4
loop_
_atom_site_label
_atom_site_type_symbol
_atom_site_fract_x
_atom_site_fract_y
_atom_site_fract_z
Br1 Br 0.19936(12) 0.2652(2) 0.09428(6)
N1 N 0.2916(7) 0.0349(6) -0.2291(3)
H1 H 0.3759 0.0195 -0.2368
O1 O 0.4133(8) -0.3831(7) -0.7621(4)
O2 O 0.3684(8) -0.2294(6) -0.7705(4)
O3 O 0.2619(6) -0.0584(6) -0.3481(3)
O4 O 0.0867(6) 0.0259(5) -0.2932(3)
C1 C 0.3462(10) -0.3004(9) -0.7453(5)
C2 C 0.2360(9) -0.3109(10) -0.6915(5)
H2 H 0.2781 -0.2717 -0.6403
H3 H 0.2078 -0.3882 -0.6969
C3 C 0.1052(9) -0.2682(8) -0.7015(4)
H4 H 0.1357 -0.1902 -0.6957
C4 C 0.0017(9) -0.2746(9) -0.6400(4)
H5 H -0.0799 -0.2431 -0.6468
H6 H -0.0333 -0.3514 -0.6461
C5 C 0.0327(9) -0.3254(7) -0.7783(4)
C6 C -0.0546(8) -0.2740(7) -0.8062(5)
H7 H -0.0661 -0.2035 -0.7767
C7 C -0.1245(8) -0.3216(6) -0.8749(4)
H8 H -0.1845 -0.2854 -0.8926
C8 C -0.1056(8) -0.4243(6) -0.9181(4)
H9 H -0.1519 -0.4577 -0.9663
C9 C -0.0219(11) -0.4779(8) -0.8920(5)
H10 H -0.0125 -0.5491 -0.9211
C10 C 0.0488(10) -0.4274(7) -0.8230(5)
H11 H 0.1098 -0.4634 -0.8057
C11 C 0.0671(9) -0.2166(7) -0.5627(5)
C12 C 0.0998(9) -0.2704(8) -0.5169(5)
H12 H 0.0794 -0.3472 -0.5354
C13 C 0.1607(10) -0.2190(7) -0.4450(5)
H13 H 0.1823 -0.2598 -0.4157
C14 C 0.1893(9) -0.1082(7) -0.4173(4)
C15 C 0.1569(10) -0.0504(7) -0.4599(5)
H14 H 0.1754 0.0263 -0.4403
C16 C 0.0969(10) -0.1038(7) -0.5321(5)
H15 H 0.0756 -0.0626 -0.5612
C17 C 0.2006(8) 0.0038(7) -0.2897(4)
C18 C 0.2651(7) 0.0892(7) -0.1551(4)
C19 C 0.1319(9) 0.0706(7) -0.1273(4)
H16 H 0.0556 0.0227 -0.1594
C20 C 0.1122(9) 0.1221(8) -0.0532(5)
H17 H 0.0223 0.1100 -0.0345
C21 C 0.2241(8) 0.1913(8) -0.0066(4)
C22 C 0.3565(8) 0.2096(8) -0.0338(4)
H18 H 0.4329 0.2571 -0.0015
C23 C 0.3759(8) 0.1590(7) -0.1074(4)
H19 H 0.4659 0.1718 -0.1258
C24 C 0.5239(10) -0.3833(10) -0.8143(5)
H20 H 0.5720 -0.3081 -0.8063
H21 H 0.5943 -0.4233 -0.8052
C25 C 0.4642(2) -0.4339(8) -0.89113(6)
H22 H 0.5383 -0.4288 -0.9253
H23 H 0.3908 -0.3967 -0.8993
H24 H 0.4236 -0.5101 -0.9002
Br2 Br -0.18115(13) -0.2427(2) -0.09216(6)
N2 N -0.30730(15) -0.0182(2) 0.22694(6)
H25 H -0.3928 -0.0051 0.2340
O5 O -0.3653(8) 0.3509(7) 0.7484(4)
O6 O -0.3932(13) 0.2067(9) 0.7851(7)
O7 O -0.2813(6) 0.0691(6) 0.3478(3)
O8 O -0.1012(6) -0.0065(6) 0.2904(4)
C26 C -0.3368(10) 0.2578(9) 0.7480(6)
C27 C -0.2288(10) 0.2214(8) 0.6956(5)
H26 H -0.2740 0.1928 0.6445
H27 H -0.1984 0.1605 0.7056
C28 C -0.0990(8) 0.3039(7) 0.6969(4)
H28 H -0.1288 0.3631 0.6833
C29 C -0.0010(10) 0.2493(9) 0.6367(4)
H29 H 0.0837 0.3035 0.6374
H30 H 0.0298 0.1908 0.6499
C30 C -0.0230(9) 0.3534(6) 0.7737(4)
C31 C 0.0596(10) 0.2988(8) 0.8011(5)
H31 H 0.0737 0.2295 0.7708
C32 C 0.1216(11) 0.3453(8) 0.8728(5)
H32 H 0.1779 0.3072 0.8911
C33 C 0.1033(11) 0.4461(7) 0.9181(5)
H33 H 0.1476 0.4779 0.9668
C34 C 0.0199(11) 0.4994(8) 0.8914(5)
H34 H 0.0020 0.5669 0.9229
C35 C -0.0389(10) 0.4558(6) 0.8187(4)
H35 H -0.0902 0.4962 0.7996
C36 C -0.0706(9) 0.2027(7) 0.5593(4)
C37 C -0.1191(11) 0.0916(7) 0.5264(5)
H36 H -0.1073 0.0459 0.5539
C38 C -0.1843(10) 0.0450(7) 0.4548(5)
H37 H -0.2135 -0.0311 0.4331
C39 C -0.2052(9) 0.1117(7) 0.4165(4)
C40 C -0.1584(10) 0.2223(7) 0.4463(5)
H38 H -0.1705 0.2677 0.4187
C41 C -0.0933(9) 0.2652(8) 0.5174(4)
H39 H -0.0629 0.3413 0.5384
C42 C -0.2184(8) 0.0132(7) 0.2871(4)
C43 C -0.2760(8) -0.0704(7) 0.1534(4)
C44 C -0.1419(8) -0.0440(7) 0.1285(4)
H40 H -0.0706 0.0089 0.1615
C45 C -0.1153(9) -0.0961(8) 0.0554(4)
H41 H -0.0256 -0.0789 0.0378
C46 C -0.2198(9) -0.1731(8) 0.0083(4)
C47 C -0.3524(9) -0.2000(8) 0.0314(5)
H42 H -0.4227 -0.2540 -0.0017
C48 C -0.3795(8) -0.1460(7) 0.1040(4)
H43 H -0.4709 -0.1613 0.1203
C49 C -0.4809(16) 0.3889(11) 0.7930(7)
H44 H -0.5221 0.4356 0.7716
H45 H -0.5550 0.3258 0.7899
C50 C -0.437(3) 0.4492(15) 0.8712(9)
H46 H -0.5152 0.4799 0.8966
H47 H -0.3572 0.5076 0.8747
H48 H -0.4092 0.4005 0.8948
Br3 Br -0.42674(15) -0.2478(2) -0.59771(8)
N3 N -0.2262(7) -0.0313(7) -0.2733(4)
H49 H -0.1342 -0.0173 -0.2656
O9 O 0.0986(6) 0.3586(6) 0.2556(4)
O10 O -0.0332(8) 0.2137(6) 0.2716(4)
O11 O -0.2079(6) 0.0538(7) -0.1525(3)
O12 O -0.4267(6) -0.0174(6) -0.2094(4)
C51 C -0.0158(9) 0.2809(8) 0.2422(5)
C52 C -0.1176(9) 0.2886(9) 0.1860(4)
H50 H -0.0992 0.2415 0.1361
H51 H -0.1003 0.3638 0.1861
C53 C -0.2715(9) 0.2566(8) 0.1994(4)
H52 H -0.2872 0.1792 0.1960
C54 C -0.3690(10) 0.2627(9) 0.1372(5)
H53 H -0.4667 0.2307 0.1432
H54 H -0.3659 0.3395 0.1435
C55 C -0.3122(9) 0.3198(7) 0.2752(5)
C56 C -0.4124(9) 0.2690(8) 0.3114(5)
H55 H -0.4543 0.1950 0.2884
C57 C -0.4498(12) 0.3275(10) 0.3808(6)
H56 H -0.5219 0.2947 0.4042
C58 C -0.3832(13) 0.4330(10) 0.4161(7)
H57 H -0.4049 0.4709 0.4652
C59 C -0.2858(19) 0.4835(12) 0.3808(8)
H58 H -0.2423 0.5569 0.4049
C60 C -0.2511(16) 0.4279(9) 0.3106(8)
H59 H -0.1847 0.4637 0.2861
C61 C -0.3309(9) 0.2059(7) 0.0604(5)
C62 C -0.2715(9) 0.2643(8) 0.0165(5)
H60 H -0.2555 0.3409 0.0360
C63 C -0.2348(10) 0.2140(8) -0.0555(5)
H61 H -0.1944 0.2554 -0.0847
C64 C -0.2584(9) 0.1026(7) -0.0833(5)
C65 C -0.3181(10) 0.0411(8) -0.0421(5)
H62 H -0.3351 -0.0356 -0.0622
C66 C -0.3530(11) 0.0941(7) 0.0298(5)
H63 H -0.3933 0.0523 0.0589
C67 C -0.3001(8) -0.0016(8) -0.2127(4)
C68 C -0.2800(8) -0.0825(6) -0.3477(4)
C69 C -0.4031(8) -0.0626(7) -0.3733(5)
H64 H -0.4564 -0.0166 -0.3402
C70 C -0.4460(9) -0.1115(8) -0.4481(5)
H65 H -0.5280 -0.0970 -0.4668
C71 C -0.3703(9) -0.1817(10) -0.4960(5)
C72 C -0.2472(9) -0.2004(8) -0.4697(5)
H66 H -0.1933 -0.2459 -0.5028
C73 C -0.2043(9) -0.1527(7) -0.3961(4)
H67 H -0.1222 -0.1675 -0.3776
C74 C 0.2113(9) 0.3555(9) 0.3066(5)
H68 H 0.2156 0.2794 0.2994
H69 H 0.3028 0.3905 0.2947
C75 C 0.1863(14) 0.4110(10) 0.3843(5)
H70 H 0.2575 0.4024 0.4170
H71 H 0.0928 0.3799 0.3951
H72 H 0.1917 0.4880 0.3927
Br4 Br 0.44461(17) 0.2278(2) 0.59441(8)
N4 N 0.2008(7) 0.0139(7) 0.2770(4)
H73 H 0.1087 0.0017 0.2706
O13 O -0.0424(7) -0.3376(6) -0.2483(4)
O14 O 0.0101(9) -0.1903(6) -0.2796(5)
O15 O 0.1812(6) -0.0664(6) 0.1551(3)
O16 O 0.4004(6) 0.0014(6) 0.2119(4)
C76 C 0.0370(9) -0.2436(7) -0.2454(5)
C77 C 0.1601(9) -0.2102(7) -0.1904(5)
H74 H 0.1261 -0.1832 -0.1399
H75 H 0.2244 -0.1490 -0.1982
C78 C 0.2450(8) -0.2970(7) -0.1922(4)
H76 H 0.1834 -0.3549 -0.1783
C79 C 0.3719(9) -0.2443(9) -0.1324(4)
H77 H 0.4268 -0.3001 -0.1330
H78 H 0.4342 -0.1874 -0.1461
C80 C 0.2970(9) -0.3480(6) -0.2682(5)
C81 C 0.3935(10) -0.2895(8) -0.3004(5)
H79 H 0.4307 -0.2155 -0.2737
C82 C 0.4364(11) -0.3374(9) -0.3708(6)
H80 H 0.5035 -0.2969 -0.3921
C83 C 0.3807(15) -0.4447(10) -0.4099(7)
H81 H 0.4091 -0.4779 -0.4584
C84 C 0.285(2) -0.5029(12) -0.3791(9)
H82 H 0.2467 -0.5764 -0.4062
C85 C 0.2441(16) -0.4553(9) -0.3086(7)
H83 H 0.1784 -0.4969 -0.2874
C86 C 0.3274(9) -0.1957(7) -0.0552(5)
C87 C 0.3299(10) -0.0854(7) -0.0235(5)
H84 H 0.3629 -0.0393 -0.0509
C88 C 0.2850(9) -0.0409(7) 0.0477(5)
H85 H 0.2879 0.0347 0.0688
C89 C 0.2371(8) -0.1079(7) 0.0861(4)
C90 C 0.2322(9) -0.2178(7) 0.0576(4)
H86 H 0.1990 -0.2629 0.0856
C91 C 0.2775(8) -0.2606(7) -0.0135(4)
H87 H 0.2742 -0.3362 -0.0341
C92 C 0.2739(8) -0.0161(8) 0.2159(4)
C93 C 0.2607(8) 0.0631(7) 0.3499(4)
C94 C 0.3797(8) 0.0342(7) 0.3727(5)
H88 H 0.4232 -0.0182 0.3383
C95 C 0.4343(10) 0.0827(8) 0.4463(5)
H89 H 0.5140 0.0627 0.4628
C96 C 0.3696(9) 0.1614(9) 0.4954(4)
C97 C 0.2493(9) 0.1883(8) 0.4726(5)
H90 H 0.2038 0.2393 0.5070
C98 C 0.1968(9) 0.1402(7) 0.3996(5)
H91 H 0.1166 0.1599 0.3833
C99 C -0.1743(11) -0.3728(9) -0.2950(6)
H92 H -0.2418 -0.4212 -0.2762
H93 H -0.2155 -0.3090 -0.2916
C100 C -0.1521(18) -0.4297(10) -0.3728(7)
H94 H -0.2423 -0.4706 -0.3992
H95 H -0.0881 -0.4794 -0.3753
H96 H -0.1112 -0.3771 -0.3962
loop_
_geom_bond_atom_site_label_1
_geom_bond_atom_site_label_2
_geom_bond_site_symmetry_1
_geom_bond_site_symmetry_2
Br1 C21 1_555 1_555
N1 H1 1_555 1_555
O1 C1 1_555 1_555
O2 C1 1_555 1_555
O3 C14 1_555 1_555
O4 C17 1_555 1_555
C1 C2 1_555 1_555
C2 H2 1_555 1_555
H3 C2 1_555 1_555
C3 C2 1_555 1_555
H4 C3 1_555 1_555
C4 C3 1_555 1_555
H5 C4 1_555 1_555
H6 C4 1_555 1_555
C5 C3 1_555 1_555
C6 C5 1_555 1_555
H7 C6 1_555 1_555
C7 C6 1_555 1_555
H8 C7 1_555 1_555
C8 C7 1_555 1_555
H9 C8 1_555 1_555
C9 C8 1_555 1_555
H10 C9 1_555 1_555
C10 C5 1_555 1_555
H11 C10 1_555 1_555
C11 C4 1_555 1_555
C12 C11 1_555 1_555
H12 C12 1_555 1_555
C13 C12 1_555 1_555
H13 C13 1_555 1_555
C14 C13 1_555 1_555
C15 C14 1_555 1_555
H14 C15 1_555 1_555
C16 C11 1_555 1_555
H15 C16 1_555 1_555
C17 N1 1_555 1_555
C18 N1 1_555 1_555
C19 C18 1_555 1_555
H16 C19 1_555 1_555
C20 C19 1_555 1_555
H17 C20 1_555 1_555
C21 C20 1_555 1_555
C22 C21 1_555 1_555
H18 C22 1_555 1_555
C23 C18 1_555 1_555
H19 C23 1_555 1_555
C24 O1 1_555 1_555
H20 C24 1_555 1_555
H21 C24 1_555 1_555
C25 C24 1_555 1_555
H22 C25 1_555 1_555
H23 C25 1_555 1_555
H24 C25 1_555 1_555
Br2 C46 1_555 1_555
N2 H25 1_555 1_555
O5 C26 1_555 1_555
O6 C26 1_555 1_555
O7 C39 1_555 1_555
O8 C42 1_555 1_555
C26 C27 1_555 1_555
C27 H26 1_555 1_555
H27 C27 1_555 1_555
C28 C27 1_555 1_555
H28 C28 1_555 1_555
C29 C28 1_555 1_555
H29 C29 1_555 1_555
H30 C29 1_555 1_555
C30 C28 1_555 1_555
C31 C30 1_555 1_555
H31 C31 1_555 1_555
C32 C31 1_555 1_555
H32 C32 1_555 1_555
C33 C32 1_555 1_555
H33 C33 1_555 1_555
C34 C33 1_555 1_555
H34 C34 1_555 1_555
C35 C30 1_555 1_555
H35 C35 1_555 1_555
C36 C29 1_555 1_555
C37 C36 1_555 1_555
H36 C37 1_555 1_555
C38 C37 1_555 1_555
H37 C38 1_555 1_555
C39 C38 1_555 1_555
C40 C39 1_555 1_555
H38 C40 1_555 1_555
C41 C36 1_555 1_555
H39 C41 1_555 1_555
C42 N2 1_555 1_555
C43 N2 1_555 1_555
C44 C43 1_555 1_555
H40 C44 1_555 1_555
C45 C44 1_555 1_555
H41 C45 1_555 1_555
C46 C45 1_555 1_555
C47 C46 1_555 1_555
H42 C47 1_555 1_555
C48 C43 1_555 1_555
H43 C48 1_555 1_555
C49 O5 1_555 1_555
H44 C49 1_555 1_555
H45 C49 1_555 1_555
C50 C49 1_555 1_555
H46 C50 1_555 1_555
H47 C50 1_555 1_555
H48 C50 1_555 1_555
Br3 C71 1_555 1_555
N3 H49 1_555 1_555
O9 C51 1_555 1_555
O10 C51 1_555 1_555
O11 C64 1_555 1_555
O12 C67 1_555 1_555
C51 C52 1_555 1_555
C52 H50 1_555 1_555
H51 C52 1_555 1_555
C53 C52 1_555 1_555
H52 C53 1_555 1_555
C54 C53 1_555 1_555
H53 C54 1_555 1_555
H54 C54 1_555 1_555
C55 C53 1_555 1_555
C56 C55 1_555 1_555
H55 C56 1_555 1_555
C57 C56 1_555 1_555
H56 C57 1_555 1_555
C58 C57 1_555 1_555
H57 C58 1_555 1_555
C59 C58 1_555 1_555
H58 C59 1_555 1_555
C60 C55 1_555 1_555
H59 C60 1_555 1_555
C61 C54 1_555 1_555
C62 C61 1_555 1_555
H60 C62 1_555 1_555
C63 C62 1_555 1_555
H61 C63 1_555 1_555
C64 C63 1_555 1_555
C65 C64 1_555 1_555
H62 C65 1_555 1_555
C66 C61 1_555 1_555
H63 C66 1_555 1_555
C67 N3 1_555 1_555
C68 N3 1_555 1_555
C69 C68 1_555 1_555
H64 C69 1_555 1_555
C70 C69 1_555 1_555
H65 C70 1_555 1_555
C71 C70 1_555 1_555
C72 C71 1_555 1_555
H66 C72 1_555 1_555
C73 C68 1_555 1_555
H67 C73 1_555 1_555
C74 O9 1_555 1_555
H68 C74 1_555 1_555
H69 C74 1_555 1_555
C75 C74 1_555 1_555
H70 C75 1_555 1_555
H71 C75 1_555 1_555
H72 C75 1_555 1_555
Br4 C96 1_555 1_555
N4 H73 1_555 1_555
O13 C76 1_555 1_555
O14 C76 1_555 1_555
O15 C89 1_555 1_555
O16 C92 1_555 1_555
C76 C77 1_555 1_555
C77 H74 1_555 1_555
H75 C77 1_555 1_555
C78 C77 1_555 1_555
H76 C78 1_555 1_555
C79 C78 1_555 1_555
H77 C79 1_555 1_555
H78 C79 1_555 1_555
C80 C78 1_555 1_555
C81 C80 1_555 1_555
H79 C81 1_555 1_555
C82 C81 1_555 1_555
H80 C82 1_555 1_555
C83 C82 1_555 1_555
H81 C83 1_555 1_555
C84 C83 1_555 1_555
H82 C84 1_555 1_555
C85 C80 1_555 1_555
H83 C85 1_555 1_555
C86 C79 1_555 1_555
C87 C86 1_555 1_555
H84 C87 1_555 1_555
C88 C87 1_555 1_555
H85 C88 1_555 1_555
C89 C88 1_555 1_555
C90 C89 1_555 1_555
H86 C90 1_555 1_555
C91 C86 1_555 1_555
H87 C91 1_555 1_555
C92 N4 1_555 1_555
C93 N4 1_555 1_555
C94 C93 1_555 1_555
H88 C94 1_555 1_555
C95 C94 1_555 1_555
H89 C95 1_555 1_555
C96 C95 1_555 1_555
C97 C96 1_555 1_555
H90 C97 1_555 1_555
C98 C93 1_555 1_555
H91 C98 1_555 1_555
C99 O13 1_555 1_555
H92 C99 1_555 1_555
H93 C99 1_555 1_555
C100 C99 1_555 1_555
H94 C100 1_555 1_555
H95 C100 1_555 1_555
H96 C100 1_555 1_555
O3 C17 1_555 1_555
C9 C10 1_555 1_555
C15 C16 1_555 1_555
C22 C23 1_555 1_555
O7 C42 1_555 1_555
C34 C35 1_555 1_555
C40 C41 1_555 1_555
C47 C48 1_555 1_555
O11 C67 1_555 1_555
C59 C60 1_555 1_555
C65 C66 1_555 1_555
C72 C73 1_555 1_555
O15 C92 1_555 1_555
C84 C85 1_555 1_555
C90 C91 1_555 1_555
C97 C98 1_555 1_555

#END
