
#######################################################################
#
#                 Cambridge Crystallographic Data Centre
#                                CCDC 
#
#######################################################################
#
# If this CIF has been generated from an entry in the Cambridge 
# Structural Database, then it will include bibliographic, chemical, 
# crystal, experimental, refinement or atomic coordinate data resulting 
# from the CCDC's data processing and validation procedures.
#
#######################################################################

data_IBUYIQ
_chemical_formula_moiety         'C8 H15 N1 O1'
_chemical_name_systematic        1-azabicyclo[2.2.2]octan-4-ylmethanol
_symmetry_cell_setting           monoclinic
_symmetry_space_group_name_H-M   'P 21/c'
_symmetry_Int_Tables_number      14
_space_group_name_Hall           '-P 2ybc'
loop_
_symmetry_equiv_pos_site_id
_symmetry_equiv_pos_as_xyz
1 x,y,z
2 -x,1/2+y,1/2-z
3 -x,-y,-z
4 x,1/2-y,1/2+z
_cell_length_a                   5.9465(12)
_cell_length_b                   12.518(3)
_cell_length_c                   11.4741(18)
_cell_angle_alpha                90
_cell_angle_beta                 115.173(8)
_cell_angle_gamma                90
_cell_volume                     772.995
_exptl_crystal_colour            colorless
_exptl_crystal_description       plate
_cell_formula_units_Z            4
loop_
_atom_site_label
_atom_site_type_symbol
_atom_site_fract_x
_atom_site_fract_y
_atom_site_fract_z
O1 O 0.29877(18) 0.16700(7) 0.04427(9)
H1 H 0.388(3) 0.1178(13) 0.1049(15)
N1 N 0.45923(18) 0.49961(8) 0.29026(9)
C1 C 0.6080(2) 0.40614(9) 0.36020(11)
H2 H 0.6118 0.4030 0.4472
H3 H 0.7809 0.4147 0.3704
C2 C 0.5001(2) 0.30034(10) 0.28833(11)
H4 H 0.6253 0.2642 0.2665
H5 H 0.4574 0.2521 0.3443
C3 C 0.2663(2) 0.32482(9) 0.16467(10)
C4 C 0.1462(2) 0.22388(10) 0.08970(12)
H6 H 0.1028 0.1762 0.1458
H7 H -0.0101 0.2437 0.0152
C5 C 0.0817(2) 0.38260(10) 0.20395(12)
H8 H 0.0361 0.3357 0.2600
H9 H -0.0715 0.4000 0.1263
C6 C 0.2021(2) 0.48638(10) 0.27684(11)
H10 H 0.1010 0.5484 0.2298
H11 H 0.2037 0.4847 0.3634
C7 C 0.4543(2) 0.50349(10) 0.16072(11)
H12 H 0.6260 0.5121 0.1690
H13 H 0.3568 0.5664 0.1139
C8 C 0.3392(2) 0.40128(10) 0.08216(11)
H14 H 0.1905 0.4201 0.0029
H15 H 0.4609 0.3663 0.0568
loop_
_geom_bond_atom_site_label_1
_geom_bond_atom_site_label_2
_geom_bond_site_symmetry_1
_geom_bond_site_symmetry_2
O1 H1 1_555 1_555
N1 C1 1_555 1_555
C1 H2 1_555 1_555
H3 C1 1_555 1_555
C2 C1 1_555 1_555
H4 C2 1_555 1_555
H5 C2 1_555 1_555
C3 C2 1_555 1_555
C4 O1 1_555 1_555
H6 C4 1_555 1_555
H7 C4 1_555 1_555
C5 C3 1_555 1_555
H8 C5 1_555 1_555
H9 C5 1_555 1_555
C6 N1 1_555 1_555
H10 C6 1_555 1_555
H11 C6 1_555 1_555
C7 N1 1_555 1_555
H12 C7 1_555 1_555
H13 C7 1_555 1_555
C8 C3 1_555 1_555
H14 C8 1_555 1_555
H15 C8 1_555 1_555
C3 C4 1_555 1_555
C5 C6 1_555 1_555
C7 C8 1_555 1_555

#END
