
#######################################################################
#
#                 Cambridge Crystallographic Data Centre
#                                CCDC 
#
#######################################################################
#
# If this CIF has been generated from an entry in the Cambridge 
# Structural Database, then it will include bibliographic, chemical, 
# crystal, experimental, refinement or atomic coordinate data resulting 
# from the CCDC's data processing and validation procedures.
#
#######################################################################

data_IBUZEN
_chemical_formula_moiety         
'C108 H108 N12 O8,C104 H76 F16 I4 N8 O8,9(C6 H6),8(C1 H4 O1)'
_chemical_name_systematic        
'3^2^,7^2^,11^2^,15^2^-tetrakis(3,5-dimethylpyridin-4-yl)-17,18,19,20-tetrahexyl-2,4,6,8,10,12,14,16-octaoxa-3,7,11,15(5,6)-tetrabenzimidazola-1,5,9,13(1,2,4,5)tetrabenzenapentacyclo(11.3.1.1^1,5^.1^5,9^.1^9,13^)icosaphane 3^2^,7^2^,11^2^,15^2^-tetrakis(2,3,5,6-tetrafluoro-4-iodophenyl)-17,18,19,20-tetrahexyl-2,4,6,8,10,12,14,16-octaoxa-3,7,11,15(5,6)-tetrabenzimidazola-1,5,9,13(1,2,4,5)tetrabenzenapentacyclo(11.3.1.1^1,5^.1^5,9^.1^9,13^)icosaphane benzene methanol solvate'
_symmetry_cell_setting           monoclinic
_symmetry_space_group_name_H-M   'C 2/c'
_symmetry_Int_Tables_number      15
_space_group_name_Hall           '-C 2yn'
loop_
_symmetry_equiv_pos_site_id
_symmetry_equiv_pos_as_xyz
1 x,y,z
2 -x,y,1/2-z
3 1/2+x,1/2+y,z
4 1/2-x,1/2+y,1/2-z
5 -x,-y,-z
6 x,-y,1/2+z
7 1/2-x,1/2-y,-z
8 1/2+x,1/2-y,1/2+z
_cell_length_a                   24.1821(12)
_cell_length_b                   40.5599(19)
_cell_length_c                   25.6963(11)
_cell_angle_alpha                90
_cell_angle_beta                 90.153(3)
_cell_angle_gamma                90
_cell_volume                     25203.4
_exptl_crystal_colour            colorless
_exptl_crystal_description       needle
_cell_formula_units_Z            4
loop_
_atom_site_label
_atom_site_type_symbol
_atom_site_fract_x
_atom_site_fract_y
_atom_site_fract_z
O1 O 0.6946(2) 0.77033(13) 0.2103(2)
O2 O 0.6900(2) 0.77088(14) 0.3157(2)
O3 O 0.5443(2) 0.77499(14) 0.4419(2)
O4 O 0.4328(2) 0.77542(14) 0.4334(2)
N1 N 0.6231(5) 0.5295(2) 0.2716(4)
N2 N 0.4709(3) 0.5302(2) 0.4257(3)
N3 N 0.6676(3) 0.65078(17) 0.2221(3)
H1 H 0.6679 0.6431 0.1900
N4 N 0.6635(3) 0.65103(17) 0.3092(3)
N5 N 0.5308(3) 0.65372(17) 0.4385(3)
H2 H 0.5647 0.6460 0.4405
N6 N 0.4381(3) 0.65471(17) 0.4329(3)
C1 C 0.5085(4) 0.8678(2) 0.1111(4)
H3 H 0.5148 0.8744 0.1477
H4 H 0.5404 0.8759 0.0907
C2 C 0.5090(4) 0.8299(2) 0.1087(4)
H5 H 0.5120 0.8239 0.0711
C3 C 0.6827(5) 0.8790(3) 0.3047(4)
H6 H 0.6741 0.9028 0.3071
H7 H 0.6707 0.8684 0.3375
C4 C 0.6511(4) 0.8642(2) 0.2597(4)
H8 H 0.6685 0.8717 0.2269
H9 H 0.6129 0.8729 0.2603
C5 C 0.5589(3) 0.8150(2) 0.1357(3)
C6 C 0.5842(3) 0.7871(2) 0.1151(3)
C7 C 0.6291(3) 0.7721(2) 0.1397(3)
H10 H 0.6464 0.7534 0.1247
C8 C 0.6480(3) 0.7849(2) 0.1863(3)
C9 C 0.6251(3) 0.8125(2) 0.2095(3)
C10 C 0.5797(3) 0.8267(2) 0.1823(3)
H11 H 0.5624 0.8455 0.1972
C11 C 0.6482(3) 0.8265(2) 0.2590(3)
H12 H 0.6874 0.8187 0.2607
C12 C 0.6198(3) 0.8125(2) 0.3077(3)
C13 C 0.5704(3) 0.8265(2) 0.3265(3)
H13 H 0.5546 0.8446 0.3084
C14 C 0.5438(3) 0.8143(2) 0.3715(3)
C15 C 0.5669(3) 0.7871(2) 0.3958(3)
C16 C 0.6152(3) 0.7729(2) 0.3771(3)
H14 H 0.6309 0.7544 0.3943
C17 C 0.6404(3) 0.7856(2) 0.3335(3)
C18 C 0.5174(3) 0.7447(2) 0.4383(3)
C19 C 0.4587(3) 0.7452(2) 0.4345(3)
C20 C 0.4283(3) 0.7166(2) 0.4336(3)
H15 H 0.3890 0.7171 0.4323
C21 C 0.4573(3) 0.6868(2) 0.4346(3)
C22 C 0.5155(3) 0.6861(2) 0.4386(3)
C23 C 0.5458(3) 0.7156(2) 0.4414(3)
H16 H 0.5849 0.7153 0.4453
C24 C 0.4825(3) 0.6351(2) 0.4345(3)
C25 C 0.4814(3) 0.5997(2) 0.4345(3)
C26 C 0.5167(3) 0.5809(2) 0.4026(3)
C27 C 0.5084(4) 0.5474(2) 0.3992(4)
H17 H 0.5313 0.5355 0.3758
C28 C 0.4374(4) 0.5482(3) 0.4560(4)
H18 H 0.4095 0.5367 0.4747
C29 C 0.4402(3) 0.5821(2) 0.4622(3)
C30 C 0.3991(4) 0.5990(2) 0.4986(4)
H19 H 0.4164 0.6186 0.5141
H20 H 0.3884 0.5837 0.5263
H21 H 0.3662 0.6056 0.4789
C31 C 0.5626(4) 0.5954(3) 0.3708(4)
H22 H 0.5956 0.5982 0.3926
H23 H 0.5511 0.6169 0.3571
H24 H 0.5712 0.5806 0.3418
C32 C 0.6852(3) 0.7403(2) 0.2354(3)
C33 C 0.6818(3) 0.7115(2) 0.2080(3)
H25 H 0.6848 0.7112 0.1711
C34 C 0.6738(3) 0.6825(2) 0.2363(3)
C35 C 0.6721(3) 0.6826(2) 0.2915(3)
C36 C 0.6773(3) 0.7121(2) 0.3184(3)
H26 H 0.6770 0.7124 0.3553
C37 C 0.6831(3) 0.7410(2) 0.2905(3)
C38 C 0.6606(3) 0.6326(2) 0.2663(3)
C39 C 0.6496(4) 0.5966(2) 0.2669(4)
C40 C 0.6046(5) 0.5835(3) 0.2366(4)
C41 C 0.5954(6) 0.5510(3) 0.2411(5)
H27 H 0.5663 0.5421 0.2206
C42 C 0.6656(5) 0.5424(2) 0.2981(4)
H28 H 0.6875 0.5278 0.3184
C43 C 0.6801(4) 0.5751(2) 0.2980(3)
C44 C 0.7289(4) 0.5870(3) 0.3302(4)
H29 H 0.7484 0.6044 0.3114
H30 H 0.7542 0.5685 0.3366
H31 H 0.7156 0.5956 0.3635
C45 C 0.5687(6) 0.6048(3) 0.2035(5)
H32 H 0.5657 0.6267 0.2193
H33 H 0.5319 0.5949 0.2006
H34 H 0.5850 0.6068 0.1688
C46 C 0.3602(15) 0.8659(14) -0.0049(15)
H35 H 0.3320 0.8748 -0.0291
H36 H 0.3829 0.8496 -0.0242
C47 C 0.3969(13) 0.8936(9) 0.0141(15)
H37 H 0.3782 0.9056 0.0426
H38 H 0.4036 0.9094 -0.0147
C48 C 0.4514(9) 0.8799(8) 0.0334(7)
H39 H 0.4823 0.8909 0.0150
H40 H 0.4533 0.8560 0.0258
C49 C 0.4573(8) 0.8855(6) 0.0918(7)
H41 H 0.4604 0.9094 0.0991
H42 H 0.4242 0.8770 0.1100
C50 C 0.8082(15) 0.9072(13) 0.3536(14)
H43 H 0.8400 0.9058 0.3296
H44 H 0.8225 0.9099 0.3894
C51 C 0.772(3) 0.9365(11) 0.339(4)
H45 H 0.7937 0.9569 0.3414
H46 H 0.7581 0.9338 0.3035
H47 H 0.7406 0.9379 0.3632
C52 C 0.7738(13) 0.8760(11) 0.3499(17)
H48 H 0.7466 0.8755 0.3786
H49 H 0.7982 0.8565 0.3535
C53 C 0.7436(8) 0.8745(13) 0.2982(14)
H50 H 0.7580 0.8919 0.2749
H51 H 0.7507 0.8529 0.2816
C54 C 0.3320(19) 0.8489(12) 0.040(2)
H52 H 0.3086 0.8311 0.0262
H53 H 0.3598 0.8398 0.0633
H54 H 0.3090 0.8649 0.0584
O1A O 0.3054(2) 0.77033(13) 0.2897(2)
O2A O 0.3100(2) 0.77088(14) 0.1843(2)
O3A O 0.4557(2) 0.77499(14) 0.0581(2)
O4A O 0.5672(2) 0.77542(14) 0.0666(2)
N1A N 0.3769(5) 0.5295(2) 0.2284(4)
N2A N 0.5291(3) 0.5302(2) 0.0743(3)
N3A N 0.3324(3) 0.65078(17) 0.2779(3)
H1A H 0.3321 0.6431 0.3100
N4A N 0.3365(3) 0.65103(17) 0.1908(3)
N5A N 0.4692(3) 0.65372(17) 0.0615(3)
H2A H 0.4353 0.6460 0.0595
N6A N 0.5619(3) 0.65471(17) 0.0671(3)
C1A C 0.4915(4) 0.8678(2) 0.3889(4)
H3A H 0.4852 0.8744 0.3523
H4A H 0.4596 0.8759 0.4093
C2A C 0.4910(4) 0.8299(2) 0.3913(4)
H5A H 0.4880 0.8239 0.4289
C3A C 0.3173(5) 0.8790(3) 0.1953(4)
H6A H 0.3259 0.9028 0.1929
H7A H 0.3293 0.8684 0.1625
C4A C 0.3489(4) 0.8642(2) 0.2403(4)
H8A H 0.3315 0.8717 0.2731
H9A H 0.3871 0.8729 0.2397
C5A C 0.4411(3) 0.8150(2) 0.3643(3)
C6A C 0.4158(3) 0.7871(2) 0.3849(3)
C7A C 0.3709(3) 0.7721(2) 0.3603(3)
H10A H 0.3536 0.7534 0.3753
C8A C 0.3520(3) 0.7849(2) 0.3137(3)
C9A C 0.3749(3) 0.8125(2) 0.2905(3)
C10A C 0.4203(3) 0.8267(2) 0.3177(3)
H11A H 0.4376 0.8455 0.3028
C11A C 0.3518(3) 0.8265(2) 0.2410(3)
H12A H 0.3126 0.8187 0.2393
C12A C 0.3802(3) 0.8125(2) 0.1923(3)
C13A C 0.4296(3) 0.8265(2) 0.1735(3)
H13A H 0.4454 0.8446 0.1916
C14A C 0.4562(3) 0.8143(2) 0.1285(3)
C15A C 0.4331(3) 0.7871(2) 0.1042(3)
C16A C 0.3848(3) 0.7729(2) 0.1229(3)
H14A H 0.3691 0.7544 0.1057
C17A C 0.3596(3) 0.7856(2) 0.1665(3)
C18A C 0.4826(3) 0.7447(2) 0.0617(3)
C19A C 0.5413(3) 0.7452(2) 0.0655(3)
C20A C 0.5717(3) 0.7166(2) 0.0664(3)
H15A H 0.6110 0.7171 0.0677
C21A C 0.5427(3) 0.6868(2) 0.0654(3)
C22A C 0.4845(3) 0.6861(2) 0.0614(3)
C23A C 0.4542(3) 0.7156(2) 0.0586(3)
H16A H 0.4151 0.7153 0.0547
C24A C 0.5175(3) 0.6351(2) 0.0655(3)
C25A C 0.5186(3) 0.5997(2) 0.0655(3)
C26A C 0.4833(3) 0.5809(2) 0.0974(3)
C27A C 0.4916(4) 0.5474(2) 0.1008(4)
H17A H 0.4687 0.5355 0.1242
C28A C 0.5626(4) 0.5482(3) 0.0440(4)
H18A H 0.5905 0.5367 0.0253
C29A C 0.5598(3) 0.5821(2) 0.0378(3)
C30A C 0.6009(4) 0.5990(2) 0.0014(4)
H19A H 0.5836 0.6186 -0.0141
H20A H 0.6116 0.5837 -0.0263
H21A H 0.6338 0.6056 0.0211
C31A C 0.4374(4) 0.5954(3) 0.1292(4)
H22A H 0.4044 0.5982 0.1074
H23A H 0.4489 0.6169 0.1429
H24A H 0.4288 0.5806 0.1582
C32A C 0.3148(3) 0.7403(2) 0.2646(3)
C33A C 0.3182(3) 0.7115(2) 0.2920(3)
H25A H 0.3152 0.7112 0.3289
C34A C 0.3262(3) 0.6825(2) 0.2637(3)
C35A C 0.3279(3) 0.6826(2) 0.2085(3)
C36A C 0.3227(3) 0.7121(2) 0.1816(3)
H26A H 0.3230 0.7124 0.1447
C37A C 0.3169(3) 0.7410(2) 0.2095(3)
C38A C 0.3394(3) 0.6326(2) 0.2337(3)
C39A C 0.3504(4) 0.5966(2) 0.2331(4)
C40A C 0.3954(5) 0.5835(3) 0.2634(4)
C41A C 0.4046(6) 0.5510(3) 0.2589(5)
H27A H 0.4337 0.5421 0.2794
C42A C 0.3344(5) 0.5424(2) 0.2019(4)
H28A H 0.3125 0.5278 0.1816
C43A C 0.3199(4) 0.5751(2) 0.2020(3)
C44A C 0.2711(4) 0.5870(3) 0.1698(4)
H29A H 0.2516 0.6044 0.1886
H30A H 0.2458 0.5685 0.1634
H31A H 0.2844 0.5956 0.1365
C45A C 0.4313(6) 0.6048(3) 0.2965(5)
H32A H 0.4343 0.6267 0.2807
H33A H 0.4681 0.5949 0.2994
H34A H 0.4150 0.6068 0.3312
C46A C 0.6398(15) 0.8659(14) 0.5049(15)
H35A H 0.6680 0.8748 0.5291
H36A H 0.6171 0.8496 0.5242
C47A C 0.6031(13) 0.8936(9) 0.4859(15)
H37A H 0.6218 0.9056 0.4574
H38A H 0.5964 0.9094 0.5147
C48A C 0.5486(9) 0.8799(8) 0.4666(7)
H39A H 0.5177 0.8909 0.4850
H40A H 0.5467 0.8560 0.4742
C49A C 0.5427(8) 0.8855(6) 0.4082(7)
H41A H 0.5396 0.9094 0.4009
H42A H 0.5758 0.8770 0.3900
C50A C 0.1918(15) 0.9072(13) 0.1464(14)
H43A H 0.1600 0.9058 0.1704
H44A H 0.1775 0.9099 0.1106
C51A C 0.228(3) 0.9365(11) 0.161(4)
H45A H 0.2063 0.9569 0.1586
H46A H 0.2419 0.9338 0.1965
H47A H 0.2594 0.9379 0.1368
C52A C 0.2262(13) 0.8760(11) 0.1501(17)
H48A H 0.2534 0.8755 0.1214
H49A H 0.2018 0.8565 0.1465
C53A C 0.2564(8) 0.8745(13) 0.2018(14)
H50A H 0.2420 0.8919 0.2251
H51A H 0.2493 0.8529 0.2184
C54A C 0.6680(19) 0.8489(12) 0.460(2)
H52A H 0.6914 0.8311 0.4738
H53A H 0.6402 0.8398 0.4367
H54A H 0.6910 0.8649 0.4416
I1 I 0.52892(2) 0.46074(2) 0.07889(3)
I2 I 0.61725(4) 0.46019(2) 0.26797(3)
F1 F 0.6936(4) 0.41291(17) 0.3349(3)
F2 F 0.7126(4) 0.34800(16) 0.3324(3)
F3 F 0.5745(3) 0.33578(15) 0.2050(3)
F4 F 0.5575(4) 0.40057(17) 0.2051(3)
F5 F 0.4468(2) 0.40847(13) 0.1325(2)
F6 F 0.4443(2) 0.34321(13) 0.1345(2)
F7 F 0.60487(19) 0.34034(11) 0.03051(18)
F8 F 0.6060(2) 0.40530(12) 0.0273(2)
O5 O 0.5330(2) 0.16454(14) 0.4425(2)
O6 O 0.6867(2) 0.16695(15) 0.3256(2)
O7 O 0.6990(2) 0.16681(15) 0.2200(2)
O8 O 0.5786(2) 0.16385(14) 0.0717(2)
N7 N 0.6580(3) 0.28622(19) 0.3134(3)
N8 N 0.6641(3) 0.28618(19) 0.2268(3)
H55 H 0.6647 0.2930 0.1943
N9 N 0.5685(3) 0.28458(17) 0.0845(3)
N10 N 0.4772(3) 0.28522(17) 0.0718(3)
H56 H 0.4433 0.2927 0.0681
C55 C 0.7332(5) 0.0678(4) 0.3268(5)
H57 H 0.7370 0.0920 0.3307
H58 H 0.7556 0.0608 0.2967
C56 C 0.6743(5) 0.0593(3) 0.3177(4)
H59 H 0.6525 0.0669 0.3480
H60 H 0.6710 0.0349 0.3162
C57 C 0.6490(4) 0.0736(2) 0.2688(4)
H61 H 0.6700 0.0655 0.2384
H62 H 0.6106 0.0653 0.2655
C58 C 0.4754(6) 0.0203(3) 0.0722(8)
H63 H 0.4726 0.0103 0.1073
H64 H 0.5116 0.0140 0.0575
C59 C 0.4732(4) 0.0566(2) 0.0773(4)
H65 H 0.4365 0.0627 0.0915
H66 H 0.4759 0.0663 0.0421
C60 C 0.5169(4) 0.0718(2) 0.1111(4)
H67 H 0.5535 0.0635 0.0998
H68 H 0.5111 0.0645 0.1474
C61 C 0.5179(3) 0.1095(2) 0.1098(3)
H69 H 0.5229 0.1161 0.0727
C62 C 0.6480(3) 0.1107(2) 0.2674(3)
H70 H 0.6873 0.1179 0.2716
C63 C 0.6281(3) 0.1251(2) 0.2159(3)
C64 C 0.5843(3) 0.1117(2) 0.1875(3)
H71 H 0.5658 0.0931 0.2017
C65 C 0.5660(3) 0.1238(2) 0.1399(3)
C66 C 0.5948(3) 0.1513(2) 0.1203(3)
C67 C 0.6393(3) 0.1648(2) 0.1462(3)
C68 C 0.6544(3) 0.1526(2) 0.1941(3)
C69 C 0.6361(3) 0.1526(2) 0.3400(3)
C70 C 0.6087(3) 0.1655(2) 0.3831(3)
H72 H 0.6239 0.1836 0.4017
C71 C 0.5585(3) 0.1514(2) 0.3987(3)
C72 C 0.5366(3) 0.1249(2) 0.3717(3)
C73 C 0.5657(3) 0.1128(2) 0.3290(3)
H73 H 0.5507 0.0947 0.3103
C74 C 0.6161(3) 0.1262(2) 0.3127(3)
C75 C 0.6819(3) 0.1969(2) 0.2997(3)
C76 C 0.6735(3) 0.2254(2) 0.3268(4)
H74 H 0.6709 0.2254 0.3637
C77 C 0.6688(3) 0.2543(2) 0.2984(3)
C78 C 0.6723(3) 0.2543(2) 0.2437(3)
C79 C 0.6829(3) 0.2254(2) 0.2171(3)
H75 H 0.6872 0.2254 0.1804
C80 C 0.6870(3) 0.1971(2) 0.2446(3)
C81 C 0.6553(4) 0.3045(2) 0.2683(4)
C82 C 0.6453(4) 0.3393(2) 0.2683(3)
C83 C 0.6729(5) 0.3611(3) 0.3017(4)
C84 C 0.6652(6) 0.3937(3) 0.3006(4)
C85 C 0.6266(5) 0.4084(2) 0.2691(4)
C86 C 0.5965(5) 0.3879(3) 0.2374(4)
C87 C 0.6050(5) 0.3549(3) 0.2373(4)
C88 C 0.5521(3) 0.1941(2) 0.0732(3)
C89 C 0.5812(3) 0.2226(2) 0.0789(3)
H76 H 0.6203 0.2224 0.0834
C90 C 0.5514(3) 0.2522(2) 0.0779(3)
C91 C 0.4940(3) 0.2527(2) 0.0700(3)
C92 C 0.4657(3) 0.2236(2) 0.0617(3)
H77 H 0.4272 0.2238 0.0544
C93 C 0.4937(3) 0.1946(2) 0.0642(3)
C94 C 0.5225(3) 0.3031(2) 0.0804(3)
C95 C 0.5241(3) 0.3390(2) 0.0817(3)
C96 C 0.5655(3) 0.3565(2) 0.0563(3)
C97 C 0.5664(3) 0.3899(2) 0.0547(3)
C98 C 0.5273(3) 0.4088(2) 0.0805(3)
C99 C 0.4862(3) 0.3911(2) 0.1071(4)
C100 C 0.4850(4) 0.3582(2) 0.1074(4)
C101 C 0.8359(15) 0.0172(9) 0.3608(18)
H78 H 0.8761 0.0175 0.3658
H79 H 0.8200 -0.0013 0.3802
H80 H 0.8275 0.0147 0.3237
C102 C 0.8123(10) 0.0480(8) 0.3797(13)
H81 H 0.8223 0.0505 0.4169
H82 H 0.8297 0.0665 0.3606
C103 C 0.7535(9) 0.0511(10) 0.3749(9)
H83 H 0.7396 0.0634 0.4054
H84 H 0.7371 0.0287 0.3762
C104 C 0.411(2) -0.0266(9) 0.054(3)
H85 H 0.4437 -0.0412 0.0580
H86 H 0.3885 -0.0356 0.0248
C105 C 0.431(2) 0.0066(7) 0.0386(19)
H87 H 0.3989 0.0219 0.0393
H88 H 0.4444 0.0057 0.0023
C106 C 0.378(3) -0.0273(15) 0.102(3)
H89 H 0.3667 -0.0500 0.1093
H90 H 0.4005 -0.0190 0.1310
H91 H 0.3452 -0.0134 0.0977
I1A I 0.47108(2) 0.46074(2) 0.42111(3)
I2A I 0.38275(4) 0.46019(2) 0.23203(3)
F1A F 0.3064(4) 0.41291(17) 0.1651(3)
F2A F 0.2874(4) 0.34800(16) 0.1676(3)
F3A F 0.4255(3) 0.33578(15) 0.2950(3)
F4A F 0.4425(4) 0.40057(17) 0.2949(3)
F5A F 0.5532(2) 0.40847(13) 0.3675(2)
F6A F 0.5557(2) 0.34321(13) 0.3655(2)
F7A F 0.39513(19) 0.34034(11) 0.46949(18)
F8A F 0.3940(2) 0.40530(12) 0.4727(2)
O5A O 0.4670(2) 0.16454(14) 0.0575(2)
O6A O 0.3133(2) 0.16695(15) 0.1744(2)
O7A O 0.3010(2) 0.16681(15) 0.2800(2)
O8A O 0.4214(2) 0.16385(14) 0.4283(2)
N7A N 0.3420(3) 0.28622(19) 0.1866(3)
N8A N 0.3359(3) 0.28618(19) 0.2732(3)
H55A H 0.3353 0.2930 0.3057
N9A N 0.4315(3) 0.28458(17) 0.4155(3)
N10A N 0.5228(3) 0.28522(17) 0.4282(3)
H56A H 0.5567 0.2927 0.4319
C55A C 0.2668(5) 0.0678(4) 0.1732(5)
H57A H 0.2630 0.0920 0.1693
H58A H 0.2444 0.0608 0.2033
C56A C 0.3257(5) 0.0593(3) 0.1823(4)
H59A H 0.3475 0.0669 0.1520
H60A H 0.3290 0.0349 0.1838
C57A C 0.3510(4) 0.0736(2) 0.2312(4)
H61A H 0.3300 0.0655 0.2616
H62A H 0.3894 0.0653 0.2345
C58A C 0.5246(6) 0.0203(3) 0.4278(8)
H63A H 0.5274 0.0103 0.3927
H64A H 0.4884 0.0140 0.4425
C59A C 0.5268(4) 0.0566(2) 0.4227(4)
H65A H 0.5635 0.0627 0.4085
H66A H 0.5241 0.0663 0.4579
C60A C 0.4831(4) 0.0718(2) 0.3889(4)
H67A H 0.4465 0.0635 0.4002
H68A H 0.4889 0.0645 0.3526
C61A C 0.4821(3) 0.1095(2) 0.3902(3)
H69A H 0.4771 0.1161 0.4273
C62A C 0.3520(3) 0.1107(2) 0.2326(3)
H70A H 0.3127 0.1179 0.2284
C63A C 0.3719(3) 0.1251(2) 0.2841(3)
C64A C 0.4157(3) 0.1117(2) 0.3125(3)
H71A H 0.4342 0.0931 0.2983
C65A C 0.4340(3) 0.1238(2) 0.3601(3)
C66A C 0.4052(3) 0.1513(2) 0.3797(3)
C67A C 0.3607(3) 0.1648(2) 0.3538(3)
C68A C 0.3456(3) 0.1526(2) 0.3059(3)
C69A C 0.3639(3) 0.1526(2) 0.1600(3)
C70A C 0.3913(3) 0.1655(2) 0.1169(3)
H72A H 0.3761 0.1836 0.0983
C71A C 0.4415(3) 0.1514(2) 0.1013(3)
C72A C 0.4634(3) 0.1249(2) 0.1283(3)
C73A C 0.4343(3) 0.1128(2) 0.1710(3)
H73A H 0.4493 0.0947 0.1897
C74A C 0.3839(3) 0.1262(2) 0.1873(3)
C75A C 0.3181(3) 0.1969(2) 0.2003(3)
C76A C 0.3265(3) 0.2254(2) 0.1732(4)
H74A H 0.3291 0.2254 0.1363
C77A C 0.3312(3) 0.2543(2) 0.2016(3)
C78A C 0.3277(3) 0.2543(2) 0.2563(3)
C79A C 0.3171(3) 0.2254(2) 0.2829(3)
H75A H 0.3128 0.2254 0.3196
C80A C 0.3130(3) 0.1971(2) 0.2554(3)
C81A C 0.3447(4) 0.3045(2) 0.2317(4)
C82A C 0.3547(4) 0.3393(2) 0.2317(3)
C83A C 0.3271(5) 0.3611(3) 0.1983(4)
C84A C 0.3348(6) 0.3937(3) 0.1994(4)
C85A C 0.3734(5) 0.4084(2) 0.2309(4)
C86A C 0.4035(5) 0.3879(3) 0.2626(4)
C87A C 0.3950(5) 0.3549(3) 0.2627(4)
C88A C 0.4479(3) 0.1941(2) 0.4268(3)
C89A C 0.4188(3) 0.2226(2) 0.4211(3)
H76A H 0.3797 0.2224 0.4166
C90A C 0.4486(3) 0.2522(2) 0.4221(3)
C91A C 0.5060(3) 0.2527(2) 0.4300(3)
C92A C 0.5343(3) 0.2236(2) 0.4383(3)
H77A H 0.5728 0.2238 0.4456
C93A C 0.5063(3) 0.1946(2) 0.4358(3)
C94A C 0.4775(3) 0.3031(2) 0.4196(3)
C95A C 0.4759(3) 0.3390(2) 0.4183(3)
C96A C 0.4345(3) 0.3565(2) 0.4437(3)
C97A C 0.4336(3) 0.3899(2) 0.4453(3)
C98A C 0.4727(3) 0.4088(2) 0.4195(3)
C99A C 0.5138(3) 0.3911(2) 0.3929(4)
C100A C 0.5150(4) 0.3582(2) 0.3926(4)
C101A C 0.1641(15) 0.0172(9) 0.1392(18)
H78A H 0.1239 0.0175 0.1342
H79A H 0.1800 -0.0013 0.1198
H80A H 0.1725 0.0147 0.1763
C102A C 0.1877(10) 0.0480(8) 0.1203(13)
H81A H 0.1777 0.0505 0.0831
H82A H 0.1703 0.0665 0.1394
C103A C 0.2465(9) 0.0511(10) 0.1251(9)
H83A H 0.2604 0.0634 0.0946
H84A H 0.2629 0.0287 0.1238
C104A C 0.589(2) -0.0266(9) 0.446(3)
H85A H 0.5563 -0.0412 0.4420
H86A H 0.6115 -0.0356 0.4752
C105A C 0.569(2) 0.0066(7) 0.4614(19)
H87A H 0.6011 0.0219 0.4607
H88A H 0.5556 0.0057 0.4977
C106A C 0.622(3) -0.0273(15) 0.398(3)
H89A H 0.6333 -0.0500 0.3907
H90A H 0.5995 -0.0190 0.3690
H91A H 0.6548 -0.0134 0.4023
C107 C 0.6378(6) 0.4941(5) 0.4234(7)
H92 H 0.6055 0.4850 0.4079
C108 C 0.6336(7) 0.5216(6) 0.4554(8)
H93 H 0.5985 0.5312 0.4619
C109 C 0.6808(10) 0.5349(4) 0.4781(8)
H94 H 0.6780 0.5537 0.5000
C110 C 0.7322(7) 0.5208(5) 0.4687(9)
H95 H 0.7645 0.5299 0.4842
C111 C 0.7364(6) 0.4933(5) 0.4366(8)
H96 H 0.7715 0.4836 0.4302
C112 C 0.6892(8) 0.4800(4) 0.4140(7)
H97 H 0.6920 0.4612 0.3921
C113 C 0.8534(5) 0.3591(3) 0.4653(5)
H98 H 0.8773 0.3406 0.4622
C114 C 0.8644(6) 0.3827(3) 0.4995(5)
H99 H 0.8991 0.3833 0.5169
C115 C 0.8258(6) 0.4059(4) 0.5095(6)
H100 H 0.8321 0.4214 0.5366
C116 C 0.7781(6) 0.4075(3) 0.4815(6)
H101 H 0.7514 0.4239 0.4894
C117 C 0.7683(6) 0.3861(3) 0.4429(6)
H102 H 0.7360 0.3876 0.4220
C118 C 0.8075(6) 0.3615(3) 0.4346(6)
H103 H 0.8022 0.3461 0.4071
C119 C 0.5123(6) 0.2015(3) 0.2733(4)
H104 H 0.5196 0.1811 0.2903
C120 C 0.5269(5) 0.2301(3) 0.2965(5)
H105 H 0.5465 0.2299 0.3285
C121 C 0.5130(5) 0.2591(3) 0.2733(4)
H106 H 0.5217 0.2794 0.2899
C119A C 0.4877(6) 0.2015(3) 0.2267(4)
H104A H 0.4804 0.1811 0.2097
C120A C 0.4731(5) 0.2301(3) 0.2035(5)
H105A H 0.4535 0.2299 0.1715
C121A C 0.4870(5) 0.2591(3) 0.2267(4)
H106A H 0.4783 0.2794 0.2101
C122 C 0.7291(3) 0.2216(2) 0.0218(3)
H107 H 0.7157 0.2019 0.0372
C123 C 0.6929(4) 0.2417(2) -0.0058(3)
H108 H 0.6548 0.2363 -0.0097
C124 C 0.7154(3) 0.2701(2) -0.0272(4)
H109 H 0.6919 0.2845 -0.0464
C122F C 0.7709(3) 0.2784(2) -0.0218(3)
H107F H 0.7843 0.2981 -0.0372
C123F C 0.8071(4) 0.2583(2) 0.0058(3)
H108F H 0.8452 0.2637 0.0097
C124F C 0.7846(3) 0.2299(2) 0.0272(4)
H109F H 0.8081 0.2155 0.0464
C125 C 0.5158(8) 0.6854(3) 0.2719(5)
H110 H 0.5300 0.6653 0.2854
C126 C 0.5268(4) 0.7141(2) 0.2960(4)
H111 H 0.5446 0.7141 0.3290
C127 C 0.5126(5) 0.7431(3) 0.2735(4)
H112 H 0.5202 0.7633 0.2908
C125A C 0.4842(8) 0.6854(3) 0.2281(5)
H110A H 0.4700 0.6653 0.2146
C126A C 0.4732(4) 0.7141(2) 0.2040(4)
H111A H 0.4554 0.7141 0.1710
C127A C 0.4874(5) 0.7431(3) 0.2265(4)
H112A H 0.4798 0.7633 0.2092
O9 O 0.6456(2) 0.65357(18) 0.4165(2)
H113 H 0.6493 0.6492 0.3847
C128 C 0.6932(4) 0.6435(4) 0.4438(4)
H114 H 0.7256 0.6458 0.4213
H115 H 0.6891 0.6204 0.4542
H116 H 0.6979 0.6572 0.4748
O10 O 0.6340(3) 0.29479(17) 0.4163(2)
H117 H 0.6485 0.2960 0.3867
C129 C 0.6593(4) 0.3171(3) 0.4494(4)
H118 H 0.6442 0.3392 0.4433
H119 H 0.6992 0.3173 0.4429
H120 H 0.6525 0.3107 0.4856
O11 O 0.6627(2) 0.64125(18) 0.1152(2)
H121 H 0.6342 0.6445 0.0971
C130 C 0.7100(3) 0.6499(3) 0.0862(4)
H122 H 0.7086 0.6734 0.0775
H123 H 0.7111 0.6368 0.0541
H124 H 0.7433 0.6454 0.1069
O12 O 0.6652(3) 0.3056(2) 0.1260(3)
H125 H 0.6449 0.2942 0.1063
C131 C 0.7155(4) 0.3099(4) 0.1032(5)
H126 H 0.7228 0.2917 0.0792
H127 H 0.7443 0.3105 0.1301
H128 H 0.7157 0.3308 0.0839
C132 C 0.7431(4) 0.2550(3) 0.5523(4)
H129 H 0.7381 0.2585 0.5885
C133 C 0.7791(4) 0.2733(3) 0.5259(4)
H130 H 0.7996 0.2896 0.5443
C134 C 0.7879(4) 0.2699(3) 0.4742(4)
H131 H 0.8136 0.2834 0.4562
C132F C 0.7569(4) 0.2450(3) 0.4477(4)
H129F H 0.7619 0.2415 0.4115
C133F C 0.7209(4) 0.2267(3) 0.4741(4)
H130F H 0.7004 0.2104 0.4557
C134F C 0.7121(4) 0.2301(3) 0.5258(4)
H131F H 0.6864 0.2166 0.5438
H132? H 0.4881 0.8748 0.1425
H133? H 0.5471 0.8758 0.1145
H134? H 0.6594 0.8763 0.3361
H135? H 0.7160 0.8652 0.3102
C135? C 0.3357(7) 0.8915(8) 0.0105(10)
H136? H 0.3286 0.8675 0.0126
H137? H 0.3159 0.9025 0.0394
C136? C 0.3976(7) 0.8983(4) 0.0142(8)
H138? H 0.4155 0.8934 -0.0195
H139? H 0.4039 0.9219 0.0224
C137? C 0.4225(6) 0.8768(5) 0.0567(9)
H140? H 0.4031 0.8810 0.0899
H141? H 0.4174 0.8533 0.0476
C138? C 0.4822(6) 0.8838(4) 0.0634(7)
H142? H 0.4875 0.9079 0.0658
H143? H 0.5020 0.8760 0.0320
C139? C 0.7645(11) 0.9126(7) 0.3812(11)
H144? H 0.7823 0.8969 0.3570
H145? H 0.7514 0.9001 0.4119
C140? C 0.8061(14) 0.9384(10) 0.398(2)
H146? H 0.8374 0.9276 0.4156
H147? H 0.8194 0.9506 0.3678
H148? H 0.7885 0.9538 0.4226
C141? C 0.7164(9) 0.9288(5) 0.3547(10)
H149? H 0.6839 0.9277 0.3780
H150? H 0.7253 0.9524 0.3493
C142? C 0.7013(9) 0.9139(4) 0.3035(8)
H151? H 0.6715 0.9273 0.2878
H152? H 0.7338 0.9154 0.2803
C143? C 0.3156(9) 0.9049(7) -0.0416(9)
H153? H 0.2758 0.9009 -0.0452
H154? H 0.3228 0.9287 -0.0433
H155? H 0.3354 0.8938 -0.0699
H156? H 0.7543 0.0629 0.2948
H157? H 0.7359 0.0918 0.3333
H158? H 0.5121 0.0141 0.0585
H159? H 0.4719 0.0104 0.1073
C144? C 0.3781(8) 0.0019(7) 0.0638(11)
H160? H 0.3814 -0.0148 0.0916
H161? H 0.3679 0.0231 0.0804
C145? C 0.4326(8) 0.0057(6) 0.0383(11)
H162? H 0.4455 -0.0162 0.0264
H163? H 0.4281 0.0199 0.0071
C146? C 0.3333(11) -0.0080(9) 0.0277(13)
H164? H 0.2985 -0.0101 0.0469
H165? H 0.3291 0.0087 0.0004
H166? H 0.3426 -0.0293 0.0117
C147? C 0.8194(17) 0.0046(8) 0.394(2)
H167? H 0.8347 -0.0162 0.3816
H168? H 0.8497 0.0199 0.4023
H169? H 0.7978 0.0006 0.4259
C148? C 0.7836(16) 0.0191(7) 0.3543(15)
H170? H 0.8055 0.0226 0.3222
H171? H 0.7536 0.0033 0.3459
C149? C 0.7590(13) 0.0505(7) 0.3702(11)
H172? H 0.7309 0.0463 0.3973
H173? H 0.7881 0.0647 0.3855
C150? C 0.7033(8) 0.4825(4) 0.4054(7)
H174? H 0.7195 0.4655 0.3850
C151? C 0.7354(5) 0.5088(5) 0.4226(7)
H175? H 0.7735 0.5097 0.4140
C152? C 0.7117(9) 0.5336(5) 0.4524(9)
H176? H 0.7336 0.5515 0.4642
C153? C 0.6559(10) 0.5321(4) 0.4650(9)
H177? H 0.6396 0.5491 0.4854
C154? C 0.6238(6) 0.5058(5) 0.4478(8)
H178? H 0.5856 0.5048 0.4564
C155? C 0.6475(8) 0.4810(4) 0.4180(8)
H179? H 0.6256 0.4631 0.4062
C156? C 0.8229(12) 0.4957(6) 0.3078(12)
H180? H 0.8097 0.5103 0.2816
C157? C 0.8003(11) 0.4656(6) 0.3079(11)
H181? H 0.7719 0.4592 0.2844
C158? C 0.8210(11) 0.4452(6) 0.3443(10)
H182? H 0.8068 0.4233 0.3455
C159? C 0.8616(12) 0.5080(7) 0.3393(12)
H183? H 0.8753 0.5298 0.3348
C160? C 0.5380(7) 0.9390(4) 0.2871(7)
H184? H 0.5653 0.9390 0.3138
C161? C 0.8570(10) 0.4527(6) 0.3759(10)
H185? H 0.8704 0.4363 0.3992
C162? C 0.8813(13) 0.4880(7) 0.3791(13)
H186? H 0.9066 0.4951 0.4051
C163? C 0.5570(9) 0.9390(4) 0.2361(6)
H187? H 0.5953 0.9390 0.2282
C164? C 0.5169(6) 0.9390(4) 0.1972(8)
H188? H 0.5267 0.9390 0.1614
loop_
_geom_bond_atom_site_label_1
_geom_bond_atom_site_label_2
_geom_bond_site_symmetry_1
_geom_bond_site_symmetry_2
O1 C8 1_555 1_555
O2 C17 1_555 1_555
O3 C15 1_555 1_555
O4 C19 1_555 1_555
N1 C41 1_555 1_555
N2 C27 1_555 1_555
N3 H1 1_555 1_555
N4 C35 1_555 1_555
N5 H2 1_555 1_555
N6 C21 1_555 1_555
C1 H3 1_555 1_555
H4 C1 1_555 1_555
C2 C1 1_555 1_555
H5 C2 1_555 1_555
C3 H6 1_555 1_555
H7 C3 1_555 1_555
C4 C3 1_555 1_555
H8 C4 1_555 1_555
H9 C4 1_555 1_555
C5 C2 1_555 1_555
C6 C5 1_555 1_555
C7 C6 1_555 1_555
H10 C7 1_555 1_555
C8 C7 1_555 1_555
C9 C8 1_555 1_555
C10 C5 1_555 1_555
H11 C10 1_555 1_555
C11 C4 1_555 1_555
H12 C11 1_555 1_555
C12 C11 1_555 1_555
C13 C12 1_555 1_555
H13 C13 1_555 1_555
C14 C13 1_555 1_555
C15 C14 1_555 1_555
C16 C15 1_555 1_555
H14 C16 1_555 1_555
C17 C12 1_555 1_555
C18 O3 1_555 1_555
C19 C18 1_555 1_555
C20 C19 1_555 1_555
H15 C20 1_555 1_555
C21 C20 1_555 1_555
C22 N5 1_555 1_555
C23 C18 1_555 1_555
H16 C23 1_555 1_555
C24 N5 1_555 1_555
C25 C24 1_555 1_555
C26 C25 1_555 1_555
C27 C26 1_555 1_555
H17 C27 1_555 1_555
C28 N2 1_555 1_555
H18 C28 1_555 1_555
C29 C25 1_555 1_555
C30 C29 1_555 1_555
H19 C30 1_555 1_555
H20 C30 1_555 1_555
H21 C30 1_555 1_555
C31 C26 1_555 1_555
H22 C31 1_555 1_555
H23 C31 1_555 1_555
H24 C31 1_555 1_555
C32 O1 1_555 1_555
C33 C32 1_555 1_555
H25 C33 1_555 1_555
C34 N3 1_555 1_555
C35 C34 1_555 1_555
C36 C35 1_555 1_555
H26 C36 1_555 1_555
C37 O2 1_555 1_555
C38 N3 1_555 1_555
C39 C38 1_555 1_555
C40 C39 1_555 1_555
C41 C40 1_555 1_555
H27 C41 1_555 1_555
C42 N1 1_555 1_555
H28 C42 1_555 1_555
C43 C39 1_555 1_555
C44 C43 1_555 1_555
H29 C44 1_555 1_555
H30 C44 1_555 1_555
H31 C44 1_555 1_555
C45 C40 1_555 1_555
H32 C45 1_555 1_555
H33 C45 1_555 1_555
H34 C45 1_555 1_555
C46 H35 1_555 1_555
H36 C46 1_555 1_555
C47 C46 1_555 1_555
H37 C47 1_555 1_555
H38 C47 1_555 1_555
C48 C47 1_555 1_555
H39 C48 1_555 1_555
H40 C48 1_555 1_555
C49 C1 1_555 1_555
H41 C49 1_555 1_555
H42 C49 1_555 1_555
C50 H43 1_555 1_555
H44 C50 1_555 1_555
C51 C50 1_555 1_555
H45 C51 1_555 1_555
H46 C51 1_555 1_555
H47 C51 1_555 1_555
C52 C50 1_555 1_555
H48 C52 1_555 1_555
H49 C52 1_555 1_555
C53 C3 1_555 1_555
H50 C53 1_555 1_555
H51 C53 1_555 1_555
C54 C46 1_555 1_555
H52 C54 1_555 1_555
H53 C54 1_555 1_555
H54 C54 1_555 1_555
I1 C98 1_555 1_555
I2 C85 1_555 1_555
F1 C84 1_555 1_555
F2 C83 1_555 1_555
F3 C87 1_555 1_555
F4 C86 1_555 1_555
F5 C99 1_555 1_555
F6 C100 1_555 1_555
F7 C96 1_555 1_555
F8 C97 1_555 1_555
O5 C71 1_555 1_555
O6 C69 1_555 1_555
O7 C68 1_555 1_555
O8 C66 1_555 1_555
N7 C77 1_555 1_555
N8 H55 1_555 1_555
N9 C90 1_555 1_555
N10 H56 1_555 1_555
C55 H57 1_555 1_555
H58 C55 1_555 1_555
C56 C55 1_555 1_555
H59 C56 1_555 1_555
H60 C56 1_555 1_555
C57 C56 1_555 1_555
H61 C57 1_555 1_555
H62 C57 1_555 1_555
C58 H63 1_555 1_555
H64 C58 1_555 1_555
C59 C58 1_555 1_555
H65 C59 1_555 1_555
H66 C59 1_555 1_555
C60 C59 1_555 1_555
H67 C60 1_555 1_555
H68 C60 1_555 1_555
C61 C60 1_555 1_555
H69 C61 1_555 1_555
C62 C57 1_555 1_555
H70 C62 1_555 1_555
C63 C62 1_555 1_555
C64 C63 1_555 1_555
H71 C64 1_555 1_555
C65 C61 1_555 1_555
C66 C65 1_555 1_555
C67 C66 1_555 1_555
C68 C63 1_555 1_555
C69 C70 1_555 1_555
C70 H72 1_555 1_555
C71 C70 1_555 1_555
C72 C71 1_555 1_555
C73 C72 1_555 1_555
H73 C73 1_555 1_555
C74 C62 1_555 1_555
C75 O6 1_555 1_555
C76 C75 1_555 1_555
H74 C76 1_555 1_555
C77 C76 1_555 1_555
C78 N8 1_555 1_555
C79 C78 1_555 1_555
H75 C79 1_555 1_555
C80 O7 1_555 1_555
C81 N7 1_555 1_555
C82 C81 1_555 1_555
C83 C82 1_555 1_555
C84 C83 1_555 1_555
C85 C84 1_555 1_555
C86 C85 1_555 1_555
C87 C82 1_555 1_555
C88 O8 1_555 1_555
C89 C88 1_555 1_555
H76 C89 1_555 1_555
C90 C89 1_555 1_555
C91 N10 1_555 1_555
C92 C91 1_555 1_555
H77 C92 1_555 1_555
C93 C88 1_555 1_555
C94 N9 1_555 1_555
C95 C94 1_555 1_555
C96 C95 1_555 1_555
C97 C96 1_555 1_555
C98 C97 1_555 1_555
C99 C98 1_555 1_555
C100 C95 1_555 1_555
C101 H78 1_555 1_555
H79 C101 1_555 1_555
H80 C101 1_555 1_555
C102 C101 1_555 1_555
H81 C102 1_555 1_555
H82 C102 1_555 1_555
C103 C55 1_555 1_555
H83 C103 1_555 1_555
H84 C103 1_555 1_555
C104 H85 1_555 1_555
H86 C104 1_555 1_555
C105 C58 1_555 1_555
H87 C105 1_555 1_555
H88 C105 1_555 1_555
C106 C104 1_555 1_555
H89 C106 1_555 1_555
H90 C106 1_555 1_555
H91 C106 1_555 1_555
C107 H92 1_555 1_555
C108 C107 1_555 1_555
H93 C108 1_555 1_555
C109 C108 1_555 1_555
H94 C109 1_555 1_555
C110 C109 1_555 1_555
H95 C110 1_555 1_555
C111 C110 1_555 1_555
H96 C111 1_555 1_555
C112 C107 1_555 1_555
H97 C112 1_555 1_555
C113 H98 1_555 1_555
C114 C113 1_555 1_555
H99 C114 1_555 1_555
C115 C114 1_555 1_555
H100 C115 1_555 1_555
C116 C115 1_555 1_555
H101 C116 1_555 1_555
C117 C116 1_555 1_555
H102 C117 1_555 1_555
C118 C113 1_555 1_555
H103 C118 1_555 1_555
C119 H104 1_555 1_555
C120 C119 1_555 1_555
H105 C120 1_555 1_555
C121 C120 1_555 1_555
H106 C121 1_555 1_555
C122 H107 1_555 1_555
C123 C122 1_555 1_555
H108 C123 1_555 1_555
C124 C123 1_555 1_555
H109 C124 1_555 1_555
C125 H110 1_555 1_555
C126 C125 1_555 1_555
H111 C126 1_555 1_555
C127 C126 1_555 1_555
H112 C127 1_555 1_555
O9 H113 1_555 1_555
C128 O9 1_555 1_555
H114 C128 1_555 1_555
H115 C128 1_555 1_555
H116 C128 1_555 1_555
O10 H117 1_555 1_555
C129 O10 1_555 1_555
H118 C129 1_555 1_555
H119 C129 1_555 1_555
H120 C129 1_555 1_555
O11 H121 1_555 1_555
C130 O11 1_555 1_555
H122 C130 1_555 1_555
H123 C130 1_555 1_555
H124 C130 1_555 1_555
O12 H125 1_555 1_555
C131 O12 1_555 1_555
H126 C131 1_555 1_555
H127 C131 1_555 1_555
H128 C131 1_555 1_555
C132 H129 1_555 1_555
C133 C132 1_555 1_555
H130 C133 1_555 1_555
C134 C133 1_555 1_555
H131 C134 1_555 1_555
O1A C8A 1_555 1_555
O2A C17A 1_555 1_555
O3A C15A 1_555 1_555
O4A C6 1_555 1_555
N1A C41A 1_555 1_555
N2A C27A 1_555 1_555
N3A H1A 1_555 1_555
N4A C35A 1_555 1_555
N5A H2A 1_555 1_555
N6A C21A 1_555 1_555
C1A H3A 1_555 1_555
H4A C1A 1_555 1_555
C2A C14 1_555 1_555
H5A C2A 1_555 1_555
C3A H6A 1_555 1_555
H7A C3A 1_555 1_555
C4A C3A 1_555 1_555
H8A C4A 1_555 1_555
H9A C4A 1_555 1_555
C5A C2A 1_555 1_555
C6A O4 1_555 1_555
C7A C6A 1_555 1_555
H10A C7A 1_555 1_555
C8A C7A 1_555 1_555
C9A C8A 1_555 1_555
C10A C5A 1_555 1_555
H11A C10A 1_555 1_555
C11A C4A 1_555 1_555
H12A C11A 1_555 1_555
C12A C11A 1_555 1_555
C13A C12A 1_555 1_555
H13A C13A 1_555 1_555
C14A C2 1_555 1_555
C15A C14A 1_555 1_555
C16A C15A 1_555 1_555
H14A C16A 1_555 1_555
C17A C12A 1_555 1_555
C18A O3A 1_555 1_555
C19A O4A 1_555 1_555
C20A C19A 1_555 1_555
H15A C20A 1_555 1_555
C21A C20A 1_555 1_555
C22A N5A 1_555 1_555
C23A C18A 1_555 1_555
H16A C23A 1_555 1_555
C24A N5A 1_555 1_555
C25A C24A 1_555 1_555
C26A C25A 1_555 1_555
C27A C26A 1_555 1_555
H17A C27A 1_555 1_555
C28A N2A 1_555 1_555
H18A C28A 1_555 1_555
C29A C25A 1_555 1_555
C30A C29A 1_555 1_555
H19A C30A 1_555 1_555
H20A C30A 1_555 1_555
H21A C30A 1_555 1_555
C31A C26A 1_555 1_555
H22A C31A 1_555 1_555
H23A C31A 1_555 1_555
H24A C31A 1_555 1_555
C32A O1A 1_555 1_555
C33A C32A 1_555 1_555
H25A C33A 1_555 1_555
C34A N3A 1_555 1_555
C35A C34A 1_555 1_555
C36A C35A 1_555 1_555
H26A C36A 1_555 1_555
C37A O2A 1_555 1_555
C38A N3A 1_555 1_555
C39A C38A 1_555 1_555
C40A C39A 1_555 1_555
C41A C40A 1_555 1_555
H27A C41A 1_555 1_555
C42A N1A 1_555 1_555
H28A C42A 1_555 1_555
C43A C39A 1_555 1_555
C44A C43A 1_555 1_555
H29A C44A 1_555 1_555
H30A C44A 1_555 1_555
H31A C44A 1_555 1_555
C45A C40A 1_555 1_555
H32A C45A 1_555 1_555
H33A C45A 1_555 1_555
H34A C45A 1_555 1_555
C46A H35A 1_555 1_555
H36A C46A 1_555 1_555
C47A C46A 1_555 1_555
H37A C47A 1_555 1_555
H38A C47A 1_555 1_555
C48A C47A 1_555 1_555
H39A C48A 1_555 1_555
H40A C48A 1_555 1_555
C49A C1A 1_555 1_555
H41A C49A 1_555 1_555
H42A C49A 1_555 1_555
C50A H43A 1_555 1_555
H44A C50A 1_555 1_555
C51A C50A 1_555 1_555
H45A C51A 1_555 1_555
H46A C51A 1_555 1_555
H47A C51A 1_555 1_555
C52A C50A 1_555 1_555
H48A C52A 1_555 1_555
H49A C52A 1_555 1_555
C53A C3A 1_555 1_555
H50A C53A 1_555 1_555
H51A C53A 1_555 1_555
C54A C46A 1_555 1_555
H52A C54A 1_555 1_555
H53A C54A 1_555 1_555
H54A C54A 1_555 1_555
I1A C98A 1_555 1_555
I2A C85A 1_555 1_555
F1A C84A 1_555 1_555
F2A C83A 1_555 1_555
F3A C87A 1_555 1_555
F4A C86A 1_555 1_555
F5A C99A 1_555 1_555
F6A C100A 1_555 1_555
F7A C96A 1_555 1_555
F8A C97A 1_555 1_555
O5A C93 1_555 1_555
O6A C69A 1_555 1_555
O7A C68A 1_555 1_555
O8A C66A 1_555 1_555
N7A C77A 1_555 1_555
N8A H55A 1_555 1_555
N9A C90A 1_555 1_555
N10A H56A 1_555 1_555
C55A H57A 1_555 1_555
H58A C55A 1_555 1_555
C56A C55A 1_555 1_555
H59A C56A 1_555 1_555
H60A C56A 1_555 1_555
C57A C56A 1_555 1_555
H61A C57A 1_555 1_555
H62A C57A 1_555 1_555
C58A H63A 1_555 1_555
H64A C58A 1_555 1_555
C59A C58A 1_555 1_555
H65A C59A 1_555 1_555
H66A C59A 1_555 1_555
C60A C59A 1_555 1_555
H67A C60A 1_555 1_555
H68A C60A 1_555 1_555
C61A C72 1_555 1_555
H69A C61A 1_555 1_555
C62A C57A 1_555 1_555
H70A C62A 1_555 1_555
C63A C62A 1_555 1_555
C64A C63A 1_555 1_555
H71A C64A 1_555 1_555
C65A C61A 1_555 1_555
C66A C65A 1_555 1_555
C67A C66A 1_555 1_555
C68A C63A 1_555 1_555
C69A C70A 1_555 1_555
C70A H72A 1_555 1_555
C71A O5A 1_555 1_555
C72A C61 1_555 1_555
C73A C72A 1_555 1_555
H73A C73A 1_555 1_555
C74A C62A 1_555 1_555
C75A O6A 1_555 1_555
C76A C75A 1_555 1_555
H74A C76A 1_555 1_555
C77A C76A 1_555 1_555
C78A N8A 1_555 1_555
C79A C78A 1_555 1_555
H75A C79A 1_555 1_555
C80A O7A 1_555 1_555
C81A N7A 1_555 1_555
C82A C81A 1_555 1_555
C83A C82A 1_555 1_555
C84A C83A 1_555 1_555
C85A C84A 1_555 1_555
C86A C85A 1_555 1_555
C87A C82A 1_555 1_555
C88A O8A 1_555 1_555
C89A C88A 1_555 1_555
H76A C89A 1_555 1_555
C90A C89A 1_555 1_555
C91A N10A 1_555 1_555
C92A C91A 1_555 1_555
H77A C92A 1_555 1_555
C93A O5 1_555 1_555
C94A N9A 1_555 1_555
C95A C94A 1_555 1_555
C96A C95A 1_555 1_555
C97A C96A 1_555 1_555
C98A C97A 1_555 1_555
C99A C98A 1_555 1_555
C100A C95A 1_555 1_555
C101A H78A 1_555 1_555
H79A C101A 1_555 1_555
H80A C101A 1_555 1_555
C102A C101A 1_555 1_555
H81A C102A 1_555 1_555
H82A C102A 1_555 1_555
C103A C55A 1_555 1_555
H83A C103A 1_555 1_555
H84A C103A 1_555 1_555
C104A H85A 1_555 1_555
H86A C104A 1_555 1_555
C105A C58A 1_555 1_555
H87A C105A 1_555 1_555
H88A C105A 1_555 1_555
C106A C104A 1_555 1_555
H89A C106A 1_555 1_555
H90A C106A 1_555 1_555
H91A C106A 1_555 1_555
C119A C119 1_555 1_555
H104A C119A 1_555 1_555
C120A C119A 1_555 1_555
H105A C120A 1_555 1_555
C121A C121 1_555 1_555
H106A C121A 1_555 1_555
C122F C124 1_555 1_555
H107F C122F 1_555 1_555
C123F C122F 1_555 1_555
H108F C123F 1_555 1_555
C124F C122 1_555 1_555
H109F C124F 1_555 1_555
C125A C125 1_555 1_555
H110A C125A 1_555 1_555
C126A C125A 1_555 1_555
H111A C126A 1_555 1_555
C127A C127 1_555 1_555
H112A C127A 1_555 1_555
C132F C134 1_555 1_555
H129F C132F 1_555 1_555
C133F C132F 1_555 1_555
H130F C133F 1_555 1_555
C134F C132 1_555 1_555
H131F C134F 1_555 1_555
N4 C38 1_555 1_555
N6 C24 1_555 1_555
C9 C10 1_555 1_555
C9 C11 1_555 1_555
C16 C17 1_555 1_555
C21 C22 1_555 1_555
C22 C23 1_555 1_555
C28 C29 1_555 1_555
C32 C37 1_555 1_555
C33 C34 1_555 1_555
C36 C37 1_555 1_555
C42 C43 1_555 1_555
C48 C49 1_555 1_555
C52 C53 1_555 1_555
N8 C81 1_555 1_555
N10 C94 1_555 1_555
C64 C65 1_555 1_555
C67 C68 1_555 1_555
C69 C74 1_555 1_555
C73 C74 1_555 1_555
C75 C80 1_555 1_555
C77 C78 1_555 1_555
C79 C80 1_555 1_555
C86 C87 1_555 1_555
C90 C91 1_555 1_555
C92 C93 1_555 1_555
C99 C100 1_555 1_555
C102 C103 1_555 1_555
C104 C105 1_555 1_555
C111 C112 1_555 1_555
C117 C118 1_555 1_555
N4A C38A 1_555 1_555
N6A C24A 1_555 1_555
C1A C2A 1_555 1_555
C5A C6A 1_555 1_555
C9A C10A 1_555 1_555
C9A C11A 1_555 1_555
C13A C14A 1_555 1_555
C16A C17A 1_555 1_555
C18A C19A 1_555 1_555
C21A C22A 1_555 1_555
C22A C23A 1_555 1_555
C28A C29A 1_555 1_555
C32A C37A 1_555 1_555
C33A C34A 1_555 1_555
C36A C37A 1_555 1_555
C42A C43A 1_555 1_555
C48A C49A 1_555 1_555
C52A C53A 1_555 1_555
N8A C81A 1_555 1_555
N10A C94A 1_555 1_555
C60A C61A 1_555 1_555
C64A C65A 1_555 1_555
C67A C68A 1_555 1_555
C69A C74A 1_555 1_555
C70A C71A 1_555 1_555
C71A C72A 1_555 1_555
C73A C74A 1_555 1_555
C75A C80A 1_555 1_555
C77A C78A 1_555 1_555
C79A C80A 1_555 1_555
C86A C87A 1_555 1_555
C88A C93A 1_555 1_555
C90A C91A 1_555 1_555
C92A C93A 1_555 1_555
C99A C100A 1_555 1_555
C102A C103A 1_555 1_555
C104A C105A 1_555 1_555
C120A C121A 1_555 1_555
C123F C124F 1_555 1_555
C126A C127A 1_555 1_555
C133F C134F 1_555 1_555

#END
