
#######################################################################
#
#                 Cambridge Crystallographic Data Centre
#                                CCDC 
#
#######################################################################
#
# If this CIF has been generated from an entry in the Cambridge 
# Structural Database, then it will include bibliographic, chemical, 
# crystal, experimental, refinement or atomic coordinate data resulting 
# from the CCDC's data processing and validation procedures.
#
#######################################################################

data_ICABEU
_chemical_compound_source        'seeds of Calophyllum polyanthum'
_chemical_formula_moiety         'C25 H26 O5'
_chemical_name_systematic        'Calopolyanolide C'
_chemical_properties_biological  
'no activity against Herpes simplex virus HSV-2'
_symmetry_cell_setting           orthorhombic
_symmetry_space_group_name_H-M   'P 21 21 21'
_symmetry_Int_Tables_number      19
_space_group_name_Hall           'P 2ac 2ab'
loop_
_symmetry_equiv_pos_site_id
_symmetry_equiv_pos_as_xyz
1 x,y,z
2 1/2-x,-y,1/2+z
3 -x,1/2+y,1/2-z
4 1/2+x,1/2-y,-z
_cell_length_a                   10.044(2)
_cell_length_b                   10.216(2)
_cell_length_c                   21.784(4)
_cell_angle_alpha                90
_cell_angle_beta                 90
_cell_angle_gamma                90
_cell_volume                     2235.25
_exptl_crystal_colour            'pale yellow'
_exptl_crystal_description       needles
_chemical_melting_point          '127-128 deg.C'
_cell_formula_units_Z            4
loop_
_atom_site_label
_atom_site_type_symbol
_atom_site_fract_x
_atom_site_fract_y
_atom_site_fract_z
O1 O 0.7028(2) 0.51971(19) 0.57239(9)
O2 O 0.7832(2) 0.5541(2) 0.35846(9)
O3 O 0.4335(2) 0.2254(2) 0.54432(10)
O4 O 0.4766(2) 0.2409(2) 0.42825(9)
H1 H 0.4444 0.2131 0.4603
O5 O 0.9408(3) 0.6795(3) 0.32130(11)
C1 C 0.6660(4) 0.4318(3) 0.62209(14)
H2 H 0.7284 0.3580 0.6226
C2 C 0.5268(4) 0.3793(4) 0.61473(15)
H3 H 0.4658 0.4541 0.6167
C3 C 0.5111(3) 0.3181(3) 0.55251(17)
C4 C 0.5867(3) 0.3755(3) 0.50265(15)
C5 C 0.5663(3) 0.3367(3) 0.44123(16)
C6 C 0.6296(3) 0.3982(3) 0.39335(14)
C7 C 0.7209(3) 0.4940(3) 0.40824(15)
C8 C 0.8991(4) 0.6247(4) 0.36545(18)
C9 C 0.9586(3) 0.6241(3) 0.42825(14)
H4 H 1.0208 0.6963 0.4316
H5 H 1.0083 0.5435 0.4338
C10 C 0.8545(3) 0.6357(3) 0.47970(13)
H6 H 0.8986 0.6107 0.5181
C11 C 0.7481(3) 0.5367(3) 0.46795(14)
C12 C 0.6782(3) 0.4754(3) 0.51434(14)
C13 C 0.5978(3) 0.3631(3) 0.32740(13)
H7 H 0.6767 0.3749 0.3023
H8 H 0.5720 0.2717 0.3251
C14 C 0.4866(4) 0.4474(4) 0.30268(16)
H9 H 0.4874 0.5341 0.3156
C15 C 0.3922(5) 0.4167(5) 0.26681(19)
C16 C 0.3853(9) 0.2898(7) 0.2409(5)
H10 H 0.4437 0.2848 0.2061
H11 H 0.2956 0.2722 0.2281
H12 H 0.4119 0.2263 0.2710
C17 C 0.2861(4) 0.5098(5) 0.24698(18)
H13 H 0.2903 0.5875 0.2717
H14 H 0.2005 0.4694 0.2518
H15 H 0.2994 0.5326 0.2047
C18 C 0.8053(3) 0.7743(3) 0.48773(16)
C19 C 0.7280(4) 0.8329(4) 0.44326(16)
H16 H 0.7017 0.7846 0.4092
C20 C 0.6888(4) 0.9626(4) 0.4483(2)
H17 H 0.6383 1.0015 0.4175
C21 C 0.7252(4) 1.0324(4) 0.4990(2)
H18 H 0.6994 1.1195 0.5025
C22 C 0.7991(4) 0.9763(4) 0.5448(2)
H19 H 0.8214 1.0241 0.5797
C23 C 0.8407(3) 0.8461(4) 0.53876(17)
H20 H 0.8925 0.8080 0.5693
C24 C 0.6892(4) 0.5150(3) 0.67956(12)
H21 H 0.7795 0.5457 0.6800
H22 H 0.6729 0.4630 0.7155
H23 H 0.6296 0.5885 0.6792
C25 C 0.4866(4) 0.2843(4) 0.66563(16)
H24 H 0.3995 0.2501 0.6572
H25 H 0.4856 0.3296 0.7043
H26 H 0.5495 0.2137 0.6674
loop_
_geom_bond_atom_site_label_1
_geom_bond_atom_site_label_2
_geom_bond_site_symmetry_1
_geom_bond_site_symmetry_2
O1 C1 1_555 1_555
O2 C7 1_555 1_555
O3 C3 1_555 1_555
O4 H1 1_555 1_555
O5 C8 1_555 1_555
C1 H2 1_555 1_555
C2 C1 1_555 1_555
H3 C2 1_555 1_555
C3 C2 1_555 1_555
C4 C3 1_555 1_555
C5 O4 1_555 1_555
C6 C5 1_555 1_555
C7 C6 1_555 1_555
C8 O2 1_555 1_555
C9 C8 1_555 1_555
H4 C9 1_555 1_555
H5 C9 1_555 1_555
C10 C9 1_555 1_555
H6 C10 1_555 1_555
C11 C7 1_555 1_555
C12 O1 1_555 1_555
C13 C6 1_555 1_555
H7 C13 1_555 1_555
H8 C13 1_555 1_555
C14 C13 1_555 1_555
H9 C14 1_555 1_555
C15 C14 1_555 1_555
C16 C15 1_555 1_555
H10 C16 1_555 1_555
H11 C16 1_555 1_555
H12 C16 1_555 1_555
C17 C15 1_555 1_555
H13 C17 1_555 1_555
H14 C17 1_555 1_555
H15 C17 1_555 1_555
C18 C10 1_555 1_555
C19 C18 1_555 1_555
H16 C19 1_555 1_555
C20 C19 1_555 1_555
H17 C20 1_555 1_555
C21 C20 1_555 1_555
H18 C21 1_555 1_555
C22 C21 1_555 1_555
H19 C22 1_555 1_555
C23 C18 1_555 1_555
H20 C23 1_555 1_555
C24 C1 1_555 1_555
H21 C24 1_555 1_555
H22 C24 1_555 1_555
H23 C24 1_555 1_555
C25 C2 1_555 1_555
H24 C25 1_555 1_555
H25 C25 1_555 1_555
H26 C25 1_555 1_555
C4 C5 1_555 1_555
C4 C12 1_555 1_555
C10 C11 1_555 1_555
C11 C12 1_555 1_555
C22 C23 1_555 1_555

#END
