
#######################################################################
#
#                 Cambridge Crystallographic Data Centre
#                                CCDC 
#
#######################################################################
#
# If this CIF has been generated from an entry in the Cambridge 
# Structural Database, then it will include bibliographic, chemical, 
# crystal, experimental, refinement or atomic coordinate data resulting 
# from the CCDC's data processing and validation procedures.
#
#######################################################################

data_ICAHEZ
_chemical_formula_moiety         'C20 H24 N2 O3'
_chemical_name_systematic        
N,N'-Diethyl-N,N'-diphenyl-3-oxapentanediamide
_symmetry_cell_setting           monoclinic
_symmetry_space_group_name_H-M   'P 21/c'
_symmetry_Int_Tables_number      14
_space_group_name_Hall           '-P 2ybc'
loop_
_symmetry_equiv_pos_site_id
_symmetry_equiv_pos_as_xyz
1 x,y,z
2 -x,1/2+y,1/2-z
3 -x,-y,-z
4 x,1/2-y,1/2+z
_cell_length_a                   9.274(2)
_cell_length_b                   9.6410(10)
_cell_length_c                   20.746(3)
_cell_angle_alpha                90
_cell_angle_beta                 94.17(2)
_cell_angle_gamma                90
_cell_volume                     1850
_exptl_crystal_colour            yellow
_exptl_crystal_description       block
_cell_formula_units_Z            4
_exptl_crystal_recrystallization_method acetonitrile
loop_
_atom_site_label
_atom_site_type_symbol
_atom_site_fract_x
_atom_site_fract_y
_atom_site_fract_z
O1 O 0.18736(12) 0.00035(13) 0.20178(6)
O2 O 0.19608(12) 0.12435(14) 0.08371(7)
O3 O 0.07956(15) -0.26279(17) 0.20930(9)
N1 N -0.04239(14) 0.16217(19) 0.07189(9)
N2 N 0.27265(19) -0.36191(16) 0.16739(11)
C1 C 0.05449(16) 0.03711(19) 0.16792(9)
H1 H -0.0003 0.0957 0.1952
H2 H -0.0016 -0.0462 0.1582
C2 C 0.07740(16) 0.11331(18) 0.10532(9)
C3 C -0.18633(18) 0.1602(3) 0.09539(11)
C4 C -0.22960(19) 0.2629(2) 0.13459(10)
H3 H -0.1634 0.3294 0.1503
C5 C -0.3704(2) 0.2695(2) 0.15134(11)
H4 H -0.3998 0.3409 0.1775
C6 C -0.46692(18) 0.1696(2) 0.12900(10)
H5 H -0.5622 0.1725 0.1402
C7 C -0.4223(2) 0.0663(2) 0.09037(11)
H6 H -0.4871 -0.0023 0.0757
C8 C -0.2833(2) 0.0627(2) 0.07301(11)
H7 H -0.2547 -0.0070 0.0457
C9 C -0.0368(3) 0.1888(3) -0.00112(19)
H8 H 0.0457 0.1457 -0.0192
H9 H -0.1256 0.1638 -0.0260
C10 C -0.0195(3) 0.3418(3) 0.00833(19)
H10 H -0.0624 0.3895 -0.0289
H11 H 0.0814 0.3643 0.0140
H12 H -0.0665 0.3697 0.0460
C11 C 0.26283(17) -0.11108(17) 0.17525(9)
H13 H 0.3618 -0.1108 0.1940
H14 H 0.2655 -0.0964 0.1291
C12 C 0.19756(19) -0.2505(2) 0.18634(10)
C13 C 0.4126(2) -0.35088(19) 0.14132(12)
C14 C 0.5366(3) -0.3489(2) 0.18199(12)
H15 H 0.5308 -0.3517 0.2265
C15 C 0.6701(3) -0.3427(2) 0.15607(14)
H16 H 0.7550 -0.3446 0.1828
C16 C 0.6747(3) -0.3337(3) 0.09061(17)
H17 H 0.7634 -0.3252 0.0727
C17 C 0.5526(3) -0.3371(3) 0.05173(14)
H18 H 0.5572 -0.3335 0.0071
C18 C 0.4216(3) -0.3459(3) 0.07747(13)
H19 H 0.3376 -0.3484 0.0502
C19 C 0.2046(3) -0.5049(3) 0.16474(15)
H20 H 0.1000 -0.4976 0.1612
H21 H 0.2345 -0.5560 0.1277
C20 C 0.2539(3) -0.5753(4) 0.22466(15)
H22 H 0.2448 -0.6737 0.2189
H23 H 0.1960 -0.5461 0.2587
H24 H 0.3533 -0.5522 0.2358
loop_
_geom_bond_atom_site_label_1
_geom_bond_atom_site_label_2
_geom_bond_site_symmetry_1
_geom_bond_site_symmetry_2
O1 C1 1_555 1_555
O2 C2 1_555 1_555
O3 C12 1_555 1_555
N1 C2 1_555 1_555
N2 C12 1_555 1_555
C1 H1 1_555 1_555
H2 C1 1_555 1_555
C2 C1 1_555 1_555
C3 N1 1_555 1_555
C4 C3 1_555 1_555
H3 C4 1_555 1_555
C5 C4 1_555 1_555
H4 C5 1_555 1_555
C6 C5 1_555 1_555
H5 C6 1_555 1_555
C7 C6 1_555 1_555
H6 C7 1_555 1_555
C8 C3 1_555 1_555
H7 C8 1_555 1_555
C9 N1 1_555 1_555
H8 C9 1_555 1_555
H9 C9 1_555 1_555
C10 C9 1_555 1_555
H10 C10 1_555 1_555
H11 C10 1_555 1_555
H12 C10 1_555 1_555
C11 O1 1_555 1_555
H13 C11 1_555 1_555
H14 C11 1_555 1_555
C12 C11 1_555 1_555
C13 N2 1_555 1_555
C14 C13 1_555 1_555
H15 C14 1_555 1_555
C15 C14 1_555 1_555
H16 C15 1_555 1_555
C16 C15 1_555 1_555
H17 C16 1_555 1_555
C17 C16 1_555 1_555
H18 C17 1_555 1_555
C18 C13 1_555 1_555
H19 C18 1_555 1_555
C19 N2 1_555 1_555
H20 C19 1_555 1_555
H21 C19 1_555 1_555
C20 C19 1_555 1_555
H22 C20 1_555 1_555
H23 C20 1_555 1_555
H24 C20 1_555 1_555
C7 C8 1_555 1_555
C17 C18 1_555 1_555

#END
