
#######################################################################
#
#                 Cambridge Crystallographic Data Centre
#                                CCDC 
#
#######################################################################
#
# If this CIF has been generated from an entry in the Cambridge 
# Structural Database, then it will include bibliographic, chemical, 
# crystal, experimental, refinement or atomic coordinate data resulting 
# from the CCDC's data processing and validation procedures.
#
#######################################################################

data_ICAMOO
_chemical_formula_moiety         'C10 H13 N1 O2 S1'
_chemical_name_systematic        S-Benzyl-L-cysteine
_symmetry_cell_setting           monoclinic
_symmetry_space_group_name_H-M   'P 21'
_symmetry_Int_Tables_number      4
_space_group_name_Hall           'P 2yb'
loop_
_symmetry_equiv_pos_site_id
_symmetry_equiv_pos_as_xyz
1 x,y,z
2 -x,1/2+y,-z
_cell_length_a                   9.4224(2)
_cell_length_b                   5.09470(10)
_cell_length_c                   21.5510(7)
_cell_angle_alpha                90
_cell_angle_beta                 94.8950(9)
_cell_angle_gamma                90
_cell_volume                     1030.77
_exptl_crystal_colour            colorless
_exptl_crystal_description       rod
_chemical_melting_point          481K
_cell_formula_units_Z            4
_exptl_crystal_recrystallization_method 'hot water'
loop_
_atom_site_label
_atom_site_type_symbol
_atom_site_fract_x
_atom_site_fract_y
_atom_site_fract_z
S1 S 0.46331(10) 1.11851(18) 0.21713(4)
O1 O 0.1623(2) 0.8349(5) 0.04598(11)
O2 O 0.2276(3) 0.4435(5) 0.08454(12)
N1 N 0.4283(3) 1.0318(5) 0.07619(12)
H1 H 0.3756 1.1752 0.0825
H2 H 0.4202 0.9908 0.0354
H3 H 0.5202 1.0645 0.0887
C1 C 0.2457(4) 0.6805(7) 0.07759(15)
C2 C 0.3768(4) 0.8085(7) 0.11256(15)
H4 H 0.4528 0.6779 0.1195
C3 C 0.3335(4) 0.9074(8) 0.17537(15)
H5 H 0.3167 0.7570 0.2013
H6 H 0.2444 1.0025 0.1684
C4 C 0.6018(4) 0.8877(9) 0.24731(16)
H7 H 0.5912 0.7247 0.2241
H8 H 0.6946 0.9602 0.2408
C5 C 0.5953(4) 0.8308(8) 0.31577(17)
C6 C 0.6746(5) 0.9809(11) 0.35949(19)
H9 H 0.7327 1.1148 0.3468
C7 C 0.6668(6) 0.9295(11) 0.4233(2)
H10 H 0.7204 1.0298 0.4527
C8 C 0.5814(5) 0.7341(10) 0.4423(2)
H11 H 0.5771 0.7017 0.4846
C9 C 0.5016(5) 0.5851(10) 0.39901(19)
H12 H 0.4424 0.4532 0.4118
C10 C 0.5103(5) 0.6335(9) 0.33596(19)
H13 H 0.4575 0.5306 0.3068
S2 S -0.08617(12) 0.37634(18) 0.21438(4)
O3 O -0.3769(2) 0.5097(5) 0.05489(11)
O4 O -0.2800(2) 0.1397(5) 0.09592(11)
N2 N -0.1222(3) 0.7327(6) 0.04447(13)
H14 H -0.1790 0.8639 0.0554
H15 H -0.1514 0.6775 0.0058
H16 H -0.0319 0.7907 0.0452
C11 C -0.2744(3) 0.3746(7) 0.07859(15)
C12 C -0.1296(4) 0.5098(7) 0.08928(15)
H17 H -0.0546 0.3829 0.0821
C13 C -0.1006(4) 0.6252(8) 0.15456(15)
H18 H -0.1770 0.7448 0.1625
H19 H -0.0127 0.7253 0.1565
C14 C -0.0065(5) 0.5798(9) 0.27778(16)
H20 H 0.0712 0.6818 0.2634
H21 H -0.0771 0.7005 0.2914
C15 C 0.0484(4) 0.4066(8) 0.33126(17)
C16 C 0.1598(4) 0.2400(10) 0.3240(2)
H22 H 0.2009 0.2355 0.2863
C17 C 0.2123(5) 0.0764(11) 0.3729(2)
H23 H 0.2875 -0.0374 0.3677
C18 C 0.1520(5) 0.0858(11) 0.4282(2)
H24 H 0.1865 -0.0224 0.4608
C19 C 0.0422(6) 0.2517(10) 0.43601(19)
H25 H 0.0024 0.2568 0.4740
C20 C -0.0112(5) 0.4134(9) 0.38788(19)
H26 H -0.0867 0.5261 0.3935
loop_
_geom_bond_atom_site_label_1
_geom_bond_atom_site_label_2
_geom_bond_site_symmetry_1
_geom_bond_site_symmetry_2
S1 C3 1_555 1_555
O1 C1 1_555 1_555
O2 C1 1_555 1_555
N1 H1 1_555 1_555
H2 N1 1_555 1_555
H3 N1 1_555 1_555
C1 C2 1_555 1_555
C2 N1 1_555 1_555
H4 C2 1_555 1_555
C3 C2 1_555 1_555
H5 C3 1_555 1_555
H6 C3 1_555 1_555
C4 S1 1_555 1_555
H7 C4 1_555 1_555
H8 C4 1_555 1_555
C5 C4 1_555 1_555
C6 C5 1_555 1_555
H9 C6 1_555 1_555
C7 C6 1_555 1_555
H10 C7 1_555 1_555
C8 C7 1_555 1_555
H11 C8 1_555 1_555
C9 C8 1_555 1_555
H12 C9 1_555 1_555
C10 C5 1_555 1_555
H13 C10 1_555 1_555
S2 C13 1_555 1_555
O3 C11 1_555 1_555
O4 C11 1_555 1_555
N2 H14 1_555 1_555
H15 N2 1_555 1_555
H16 N2 1_555 1_555
C11 C12 1_555 1_555
C12 N2 1_555 1_555
H17 C12 1_555 1_555
C13 C12 1_555 1_555
H18 C13 1_555 1_555
H19 C13 1_555 1_555
C14 S2 1_555 1_555
H20 C14 1_555 1_555
H21 C14 1_555 1_555
C15 C14 1_555 1_555
C16 C15 1_555 1_555
H22 C16 1_555 1_555
C17 C16 1_555 1_555
H23 C17 1_555 1_555
C18 C17 1_555 1_555
H24 C18 1_555 1_555
C19 C18 1_555 1_555
H25 C19 1_555 1_555
C20 C15 1_555 1_555
H26 C20 1_555 1_555
C9 C10 1_555 1_555
C19 C20 1_555 1_555

#END
