
#######################################################################
#
#                 Cambridge Crystallographic Data Centre
#                                CCDC 
#
#######################################################################
#
# If this CIF has been generated from an entry in the Cambridge 
# Structural Database, then it will include bibliographic, chemical, 
# crystal, experimental, refinement or atomic coordinate data resulting 
# from the CCDC's data processing and validation procedures.
#
#######################################################################

data_ICAPOR01
_chemical_name_common            
2-(3-(4-hydroxystyryl)-5,5-dimethylcyclohex-2-enylidene)malononitrile
_chemical_formula_moiety         'C19 H18 N2 O1'
_chemical_name_systematic        
2-(3-[2-(4-Hydroxyphenyl)vinyl]-5,5-dimethylcyclo-hex-2-en-1-ylidene)malononitrile
_symmetry_cell_setting           orthorhombic
_symmetry_space_group_name_H-M   'P n a 21'
_symmetry_Int_Tables_number      33
_space_group_name_Hall           'P 2c -2n'
loop_
_symmetry_equiv_pos_site_id
_symmetry_equiv_pos_as_xyz
1 x,y,z
2 -x,-y,1/2+z
3 1/2-x,1/2+y,1/2+z
4 1/2+x,1/2-y,z
_cell_length_a                   15.4408(6)
_cell_length_b                   10.9939(3)
_cell_length_c                   9.5709(3)
_cell_angle_alpha                90
_cell_angle_beta                 90
_cell_angle_gamma                90
_cell_volume                     1624.7
_exptl_crystal_colour            red
_exptl_crystal_description       block
_cell_formula_units_Z            4
_exptl_crystal_recrystallization_method methanol
loop_
_atom_site_label
_atom_site_type_symbol
_atom_site_fract_x
_atom_site_fract_y
_atom_site_fract_z
O1 O -0.54719(8) 0.15527(13) -1.52550(13)
N1 N -0.83983(12) -0.25057(16) -0.25053(17)
N2 N -0.58507(11) -0.22365(17) -0.4527(2)
C1 C -0.79936(11) -0.22278(13) -0.34494(15)
C2 C -0.65774(11) -0.20557(13) -0.45514(16)
C3 C -0.74931(9) -0.18623(12) -0.46355(13)
C4 C -0.78732(9) -0.13982(11) -0.58127(13)
C5 C -0.73661(9) -0.10220(12) -0.69865(14)
C6 C -0.77225(8) -0.05911(11) -0.81858(13)
C7 C -0.71681(9) -0.02981(13) -0.93590(13)
C8 C -0.74432(9) 0.00963(12) -1.06057(14)
C9 C -0.69196(8) 0.04291(11) -1.18154(13)
C10 C -0.60213(9) 0.02636(15) -1.18796(16)
C11 C -0.55555(10) 0.06353(18) -1.30321(18)
C12 C -0.59710(9) 0.11845(14) -1.41519(14)
C13 C -0.68540(9) 0.13578(13) -1.41153(14)
C14 C -0.73177(9) 0.09746(12) -1.29602(13)
C15 C -0.88398(10) -0.13415(16) -0.59366(16)
C16 C -0.91563(9) -0.03240(13) -0.69043(14)
C17 C -0.86865(9) -0.04444(14) -0.83154(14)
C18 C -1.01298(11) -0.0497(3) -0.7146(2)
C19 C -0.89806(14) 0.09201(17) -0.62603(19)
H1 H -0.5788(17) 0.184(2) -1.589(3)
H2 H -0.6758(10) -0.1108(13) -0.6962(16)
H3 H -0.6521(12) -0.0389(15) -0.922(2)
H4 H -0.8054(11) 0.0180(15) -1.0750(18)
H5 H -0.5733(12) -0.0107(16) -1.108(2)
H6 H -0.4964(14) 0.0489(16) -1.313(2)
H7 H -0.7132(10) 0.1775(14) -1.4868(17)
H8 H -0.7933(13) 0.1073(15) -1.2947(18)
H9 H -0.9117(12) -0.1251(17) -0.499(2)
H10 H -0.9034(11) -0.2158(17) -0.635(2)
H11 H -0.8814(10) 0.0258(15) -0.8896(19)
H12 H -0.8888(11) -0.1129(16) -0.8827(19)
H13 H -1.0345(15) 0.021(2) -0.775(3)
H14 H -1.0268(18) -0.134(2) -0.759(3)
H15 H -1.0392(15) -0.0497(19) -0.631(3)
H16 H -0.9239(13) 0.1556(19) -0.683(2)
H17 H -0.8338(16) 0.1096(18) -0.619(2)
H18 H -0.9237(15) 0.0988(19) -0.537(3)
loop_
_geom_bond_atom_site_label_1
_geom_bond_atom_site_label_2
_geom_bond_site_symmetry_1
_geom_bond_site_symmetry_2
O1 C12 1_555 1_555
N1 C1 1_555 1_555
N2 C2 1_555 1_555
C1 C3 1_555 1_555
C2 C3 1_555 1_555
C3 C4 1_555 1_555
C4 C5 1_555 1_555
C5 C6 1_555 1_555
C6 C7 1_555 1_555
C7 C8 1_555 1_555
C8 C9 1_555 1_555
C9 C10 1_555 1_555
C10 C11 1_555 1_555
C11 C12 1_555 1_555
C12 C13 1_555 1_555
C13 C14 1_555 1_555
C14 C9 1_555 1_555
C15 C4 1_555 1_555
C16 C15 1_555 1_555
C17 C6 1_555 1_555
C18 C16 1_555 1_555
C19 C16 1_555 1_555
H1 O1 1_555 1_555
H2 C5 1_555 1_555
H3 C7 1_555 1_555
H4 C8 1_555 1_555
H5 C10 1_555 1_555
H6 C11 1_555 1_555
H7 C13 1_555 1_555
H8 C14 1_555 1_555
H9 C15 1_555 1_555
H10 C15 1_555 1_555
H11 C17 1_555 1_555
H12 C17 1_555 1_555
H13 C18 1_555 1_555
H14 C18 1_555 1_555
H15 C18 1_555 1_555
H16 C19 1_555 1_555
H17 C19 1_555 1_555
H18 C19 1_555 1_555
C16 C17 1_555 1_555

#END
