
#######################################################################
#
#                 Cambridge Crystallographic Data Centre
#                                CCDC 
#
#######################################################################
#
# If this CIF has been generated from an entry in the Cambridge 
# Structural Database, then it will include bibliographic, chemical, 
# crystal, experimental, refinement or atomic coordinate data resulting 
# from the CCDC's data processing and validation procedures.
#
#######################################################################

data_ICAVUE
_chemical_formula_moiety         'C22 H28 O4,0.5(C1 H4 O1)'
_chemical_name_systematic        
"4-(dispiro(cyclohexane-1,3'-[1,2,4]trioxolane-5',6''-adamantane)-4-yl)phenol methanol solvate"
_symmetry_cell_setting           triclinic
_symmetry_space_group_name_H-M   'P -1'
_symmetry_Int_Tables_number      2
_space_group_name_Hall           '-P 1'
loop_
_symmetry_equiv_pos_site_id
_symmetry_equiv_pos_as_xyz
1 x,y,z
2 -x,-y,-z
_cell_length_a                   6.4240(10)
_cell_length_b                   16.400(2)
_cell_length_c                   20.560(3)
_cell_angle_alpha                111.820(10)
_cell_angle_beta                 98.310(10)
_cell_angle_gamma                95.040(10)
_cell_volume                     1966
_exptl_crystal_colour            colorless
_exptl_crystal_description       plate
_cell_formula_units_Z            4
loop_
_atom_site_label
_atom_site_type_symbol
_atom_site_fract_x
_atom_site_fract_y
_atom_site_fract_z
O1 O 0.3557(4) 0.5586(2) 0.55086(13)
H1 H 0.4827(4) 0.5699(2) 0.57397(13)
O2 O 0.0251(3) 0.9718(2) 0.31540(13)
O3 O -0.3144(4) 0.9335(2) 0.3226(2)
O4 O -0.1704(4) 0.9271(2) 0.38183(14)
C1 C 0.3295(5) 0.6174(2) 0.5175(2)
C2 C 0.1283(6) 0.6277(2) 0.4945(2)
H2 H 0.0095(6) 0.5965(2) 0.5036(2)
C3 C 0.0946(6) 0.6836(3) 0.4587(2)
H3 H -0.0483(6) 0.6907(3) 0.4430(2)
C4 C 0.2615(5) 0.7299(2) 0.4449(2)
C5 C 0.4635(5) 0.7192(2) 0.4697(2)
H4 H 0.5831(5) 0.7513(2) 0.4618(2)
C6 C 0.4995(5) 0.6634(2) 0.5057(2)
H5 H 0.6423(5) 0.6573(2) 0.5225(2)
C7 C 0.2304(5) 0.7918(2) 0.4059(2)
H6 H 0.3531(5) 0.7951(2) 0.3848(2)
C8 C 0.0368(6) 0.7592(2) 0.3457(2)
H7 H -0.0892(6) 0.7573(2) 0.3655(2)
H8 H 0.0440(6) 0.7000(2) 0.3135(2)
C9 C 0.0226(6) 0.8208(2) 0.3052(2)
H9 H -0.1044(6) 0.8006(2) 0.2691(2)
H10 H 0.1425(6) 0.8183(2) 0.2819(2)
C10 C 0.0222(5) 0.9158(2) 0.3544(2)
C11 C 0.2036(6) 0.9490(2) 0.4174(2)
H11 H 0.1850(6) 1.0063(2) 0.4501(2)
H12 H 0.3346(6) 0.9559(2) 0.4014(2)
C12 C 0.2192(6) 0.8858(2) 0.4562(2)
H13 H 0.3425(6) 0.9068(2) 0.4939(2)
H14 H 0.0957(6) 0.8844(2) 0.4773(2)
C13 C -0.1832(5) 0.9941(2) 0.3042(2)
C14 C -0.2616(5) 0.9760(2) 0.2266(2)
H15 H -0.2646(5) 0.9142(2) 0.1983(2)
C15 C -0.4850(5) 1.0010(2) 0.2167(2)
H16 H -0.5824(5) 0.9654(2) 0.2305(2)
H17 H -0.5340(5) 0.9896(2) 0.1673(2)
C16 C -0.4801(5) 1.0985(2) 0.2612(2)
H18 H -0.6200(5) 1.1139(2) 0.2545(2)
C17 C -0.3250(5) 1.1550(2) 0.2389(2)
H19 H -0.3218(5) 1.2169(2) 0.2669(2)
H20 H -0.3719(5) 1.1447(2) 0.1896(2)
C18 C -0.1037(5) 1.1306(2) 0.2497(2)
H21 H -0.0071(5) 1.1660(2) 0.2355(2)
C19 C -0.1083(5) 1.0329(2) 0.2048(2)
H22 H -0.1522(5) 1.0217(2) 0.1552(2)
H23 H 0.0322(5) 1.0180(2) 0.2115(2)
C20 C -0.1831(5) 1.0914(2) 0.3505(2)
H24 H -0.1367(5) 1.1012(2) 0.3997(2)
C21 C -0.4065(6) 1.1148(2) 0.3396(2)
H25 H -0.5035(6) 1.0789(2) 0.3532(2)
H26 H -0.4055(6) 1.1760(2) 0.3690(2)
C22 C -0.0292(5) 1.1487(2) 0.3285(2)
H27 H -0.0266(5) 1.2104(2) 0.3570(2)
H28 H 0.1122(5) 1.1349(2) 0.3360(2)
O5 O 0.1507(4) 0.5529(2) 0.65646(14)
H29 H 0.0187(4) 0.5529(2) 0.65708(14)
O6 O 0.7975(3) 0.2756(2) 0.97165(12)
O7 O 1.0040(29) 0.3520(11) 0.9270(11)
O9 O 1.1245(9) 0.3369(8) 0.9701(6)
C23 C 0.2339(5) 0.5103(2) 0.6988(2)
C24 C 0.4036(6) 0.4663(2) 0.6847(2)
H30 H 0.4657(6) 0.4635(2) 0.6443(2)
C25 C 0.4843(6) 0.4253(2) 0.7287(2)
H31 H 0.6048(6) 0.3953(2) 0.7188(2)
C26 C 0.3985(5) 0.4267(2) 0.7868(2)
C27 C 0.2237(6) 0.4704(3) 0.7987(2)
H32 H 0.1572(6) 0.4716(3) 0.8379(2)
C28 C 0.1428(6) 0.5119(3) 0.7554(2)
H33 H 0.0226(6) 0.5422(3) 0.7651(2)
C29 C 0.4826(5) 0.3826(2) 0.8359(2)
H34 H 0.3633(5) 0.3622(2) 0.8521(2)
C30 C 0.5877(7) 0.3027(2) 0.8017(2)
H35 H 0.7162(7) 0.3219(2) 0.7892(2)
H36 H 0.4949(7) 0.2619(2) 0.7587(2)
C31 C 0.6436(7) 0.2574(2) 0.8528(2)
H37 H 0.7154(7) 0.2081(2) 0.8309(2)
H38 H 0.5133(7) 0.2343(2) 0.8620(2)
C32 C 0.7787(5) 0.3188(2) 0.9229(2)
C33 C 0.6972(7) 0.4048(2) 0.9549(2)
H39 H 0.8034(7) 0.4453(2) 0.9942(2)
H40 H 0.5732(7) 0.3941(2) 0.9734(2)
C34 C 0.6362(6) 0.4475(2) 0.9019(2)
H41 H 0.5736(6) 0.4996(2) 0.9240(2)
H42 H 0.7627(6) 0.4653(2) 0.8877(2)
C35 C 1.0140(5) 0.2654(3) 0.9879(2)
C36 C 1.0396(7) 0.1693(3) 0.9622(2)
H43 H 0.9920(7) 0.1414(3) 0.9114(2)
C37 C 1.2675(8) 0.1568(4) 0.9805(2)
H44 H 1.3383(8) 0.2003(4) 0.9669(2)
H45 H 1.3104(8) 0.1005(4) 0.9562(2)
C38 C 1.3481(6) 0.2019(3) 1.0606(2)
H46 H 1.4939(6) 0.1956(3) 1.0732(2)
C39 C 1.2139(6) 0.1607(3) 1.0983(2)
H47 H 1.2609(6) 0.1909(3) 1.1490(2)
H48 H 1.2282(6) 0.0991(3) 1.0853(2)
C40 C 0.9833(6) 0.1709(3) 1.0784(3)
H49 H 0.8973(6) 0.1439(3) 1.1017(3)
C41 C 0.9059(7) 0.1270(3) 0.9990(3)
H50 H 0.9140(7) 0.0646(3) 0.9828(3)
H51 H 0.7599(7) 0.1338(3) 0.9877(3)
C42 C 1.0976(6) 0.3102(2) 1.0669(2)
H52 H 1.0849(6) 0.3722(2) 1.0822(2)
C43 C 0.9648(7) 0.2679(3) 1.1037(2)
H53 H 1.0124(7) 0.2962(3) 1.1545(2)
H54 H 0.8187(7) 0.2749(3) 1.0927(2)
C44 C 1.3303(6) 0.2998(3) 1.0853(3)
H55 H 1.4164(6) 0.3269(3) 1.0621(3)
H56 H 1.3810(6) 0.3288(3) 1.1359(3)
O11 O 0.2556(4) 0.4126(2) 0.37532(14)
C45 C 0.2597(8) 0.3441(3) 0.3097(3)
O8? O 0.9757(27) 0.3184(11) 0.9021(7)
O10? O 1.1064(13) 0.2767(12) 0.9294(8)
loop_
_geom_bond_atom_site_label_1
_geom_bond_atom_site_label_2
_geom_bond_site_symmetry_1
_geom_bond_site_symmetry_2
O1 H1 1_555 1_555
O2 C10 1_555 1_555
O3 O4 1_555 1_555
O4 C10 1_555 1_555
C1 O1 1_555 1_555
C2 C1 1_555 1_555
H2 C2 1_555 1_555
C3 C2 1_555 1_555
H3 C3 1_555 1_555
C4 C3 1_555 1_555
C5 C4 1_555 1_555
H4 C5 1_555 1_555
C6 C1 1_555 1_555
H5 C6 1_555 1_555
C7 C4 1_555 1_555
H6 C7 1_555 1_555
C8 C7 1_555 1_555
H7 C8 1_555 1_555
H8 C8 1_555 1_555
C9 C8 1_555 1_555
H9 C9 1_555 1_555
H10 C9 1_555 1_555
C10 C9 1_555 1_555
C11 C10 1_555 1_555
H11 C11 1_555 1_555
H12 C11 1_555 1_555
C12 C7 1_555 1_555
H13 C12 1_555 1_555
H14 C12 1_555 1_555
C13 O2 1_555 1_555
C14 C13 1_555 1_555
H15 C14 1_555 1_555
C15 C14 1_555 1_555
H16 C15 1_555 1_555
H17 C15 1_555 1_555
C16 C15 1_555 1_555
H18 C16 1_555 1_555
C17 C16 1_555 1_555
H19 C17 1_555 1_555
H20 C17 1_555 1_555
C18 C17 1_555 1_555
H21 C18 1_555 1_555
C19 C14 1_555 1_555
H22 C19 1_555 1_555
H23 C19 1_555 1_555
C20 C13 1_555 1_555
H24 C20 1_555 1_555
C21 C16 1_555 1_555
H25 C21 1_555 1_555
H26 C21 1_555 1_555
C22 C18 1_555 1_555
H27 C22 1_555 1_555
H28 C22 1_555 1_555
O5 H29 1_555 1_555
O6 C32 1_555 1_555
O7 O9 1_555 1_555
O9 C35 1_555 1_555
C23 O5 1_555 1_555
C24 C23 1_555 1_555
H30 C24 1_555 1_555
C25 C24 1_555 1_555
H31 C25 1_555 1_555
C26 C25 1_555 1_555
C27 C26 1_555 1_555
H32 C27 1_555 1_555
C28 C23 1_555 1_555
H33 C28 1_555 1_555
C29 C26 1_555 1_555
H34 C29 1_555 1_555
C30 C29 1_555 1_555
H35 C30 1_555 1_555
H36 C30 1_555 1_555
C31 C30 1_555 1_555
H37 C31 1_555 1_555
H38 C31 1_555 1_555
C32 O7 1_555 1_555
C33 C32 1_555 1_555
H39 C33 1_555 1_555
H40 C33 1_555 1_555
C34 C29 1_555 1_555
H41 C34 1_555 1_555
H42 C34 1_555 1_555
C35 O6 1_555 1_555
C36 C35 1_555 1_555
H43 C36 1_555 1_555
C37 C36 1_555 1_555
H44 C37 1_555 1_555
H45 C37 1_555 1_555
C38 C37 1_555 1_555
H46 C38 1_555 1_555
C39 C38 1_555 1_555
H47 C39 1_555 1_555
H48 C39 1_555 1_555
C40 C39 1_555 1_555
H49 C40 1_555 1_555
C41 C36 1_555 1_555
H50 C41 1_555 1_555
H51 C41 1_555 1_555
C42 C35 1_555 1_555
H52 C42 1_555 1_555
C43 C40 1_555 1_555
H53 C43 1_555 1_555
H54 C43 1_555 1_555
C44 C38 1_555 1_555
H55 C44 1_555 1_555
H56 C44 1_555 1_555
O11 C45 1_555 1_555
O3 C13 1_555 1_555
C5 C6 1_555 1_555
C11 C12 1_555 1_555
C18 C19 1_555 1_555
C20 C22 1_555 1_555
C20 C21 1_555 1_555
C27 C28 1_555 1_555
C31 C32 1_555 1_555
C33 C34 1_555 1_555
C40 C41 1_555 1_555
C42 C43 1_555 1_555
C42 C44 1_555 1_555

#END
