
#######################################################################
#
#                 Cambridge Crystallographic Data Centre
#                                CCDC 
#
#######################################################################
#
# If this CIF has been generated from an entry in the Cambridge 
# Structural Database, then it will include bibliographic, chemical, 
# crystal, experimental, refinement or atomic coordinate data resulting 
# from the CCDC's data processing and validation procedures.
#
#######################################################################

data_ICAVOY
_chemical_formula_moiety         'C25 H29 N1 O5'
_chemical_name_systematic        
trans-2-(dispiro(cyclohexane-1,3'-[1,2,4]trioxolane-5',6''-adamantane)-4-ylmethyl)-1H-isoindole-1,3(2H)-dione
_symmetry_cell_setting           triclinic
_symmetry_space_group_name_H-M   'P -1'
_symmetry_Int_Tables_number      2
_space_group_name_Hall           '-P 1'
loop_
_symmetry_equiv_pos_site_id
_symmetry_equiv_pos_as_xyz
1 x,y,z
2 -x,-y,-z
_cell_length_a                   6.3580(10)
_cell_length_b                   12.0750(10)
_cell_length_c                   14.3510(10)
_cell_angle_alpha                80.72
_cell_angle_beta                 83.100(10)
_cell_angle_gamma                81.770(10)
_cell_volume                     1070.82
_exptl_crystal_colour            colorless
_exptl_crystal_description       'rectangular needle'
_cell_formula_units_Z            2
loop_
_atom_site_label
_atom_site_type_symbol
_atom_site_fract_x
_atom_site_fract_y
_atom_site_fract_z
O1 O 0.3131(3) 0.70242(16) 0.51374(11)
O2 O 0.3043(3) 0.85660(14) 0.20272(11)
O3 O 0.1883(2) 0.37243(10) 0.17976(9)
O4 O 0.2297(2) 0.18550(10) 0.23174(9)
O5 O 0.3804(2) 0.23817(11) 0.27489(9)
N1 N 0.2709(3) 0.76241(14) 0.35596(11)
C1 C 0.3790(3) 0.25105(15) 0.06953(13)
H1 H 0.5148 0.2578 0.0927
C2 C 0.2816(3) 0.35368(16) 0.26762(13)
C3 C -0.0133(3) 0.25234(15) 0.11436(14)
H2 H -0.1282 0.2603 0.1658
C4 C 0.4570(3) 0.42654(17) 0.26353(15)
H3 H 0.5544 0.4183 0.2069
H4 H 0.5369 0.4015 0.3182
C5 C 0.1971(3) 0.26554(14) 0.14781(13)
C6 C 0.3352(3) 0.34346(16) -0.01466(14)
H5 H 0.3309 0.4173 0.0045
H6 H 0.4489 0.3357 -0.0655
C7 C 0.1768(3) 0.12505(17) 0.00201(16)
H7 H 0.1837 0.0510 -0.0185
C8 C -0.0003(3) 0.13630(16) 0.08272(17)
H8 H 0.0289 0.0773 0.1357
H9 H -0.1356 0.1278 0.0616
C9 C -0.0554(3) 0.34546(16) 0.03039(15)
H10 H -0.1911 0.3401 0.0080
H11 H -0.0633 0.4190 0.0505
C10 C 0.1224(3) 0.33353(17) -0.04948(14)
H12 H 0.0939 0.3932 -0.1030
C11 C 0.3607(4) 0.76125(18) 0.43970(15)
C12 C 0.3663(3) 0.55056(17) 0.26230(14)
H13 H 0.4816 0.5945 0.2643
H14 H 0.3020 0.5781 0.2036
C13 C 0.3559(3) 0.83882(17) 0.28258(14)
C14 C 0.1997(3) 0.56757(16) 0.34588(14)
H15 H 0.2688 0.5408 0.4043
C15 C 0.5178(3) 0.84322(17) 0.41814(14)
C16 C 0.3887(3) 0.13466(16) 0.03808(15)
H16 H 0.5041 0.1253 -0.0119
H17 H 0.4162 0.0755 0.0911
C17 C 0.1323(4) 0.21777(19) -0.08132(16)
H18 H -0.0023 0.2111 -0.1041
H19 H 0.2444 0.2098 -0.1328
C18 C 0.1097(3) 0.69130(17) 0.34691(16)
H20 H 0.0441 0.7198 0.2887
H21 H -0.0009 0.6965 0.3994
C19 C 0.1098(4) 0.37152(18) 0.34815(14)
H22 H 0.1683 0.3437 0.4082
H23 H -0.0057 0.3286 0.3439
C20 C 0.5152(3) 0.88950(16) 0.32364(14)
C21 C 0.0225(3) 0.49579(17) 0.34524(15)
H24 H -0.0499 0.5215 0.2884
H25 H -0.0812 0.5050 0.3997
C22 C 0.6479(4) 0.8750(2) 0.47538(18)
H26 H 0.6472 0.8450 0.5393
C23 C 0.7817(4) 1.0002(2) 0.3393(2)
H27 H 0.8736 1.0531 0.3137
C24 C 0.6473(4) 0.9686(2) 0.28291(18)
H28 H 0.6458 0.9998 0.2193
C25 C 0.7811(5) 0.9541(3) 0.4334(2)
H29 H 0.8734 0.9768 0.4701
loop_
_geom_bond_atom_site_label_1
_geom_bond_atom_site_label_2
_geom_bond_site_symmetry_1
_geom_bond_site_symmetry_2
O1 C11 1_555 1_555
O2 C13 1_555 1_555
O3 C2 1_555 1_555
O4 O5 1_555 1_555
O5 C2 1_555 1_555
N1 C11 1_555 1_555
C1 H1 1_555 1_555
C2 C4 1_555 1_555
C3 H2 1_555 1_555
C4 H3 1_555 1_555
H4 C4 1_555 1_555
C5 O3 1_555 1_555
C6 C1 1_555 1_555
H5 C6 1_555 1_555
H6 C6 1_555 1_555
C7 H7 1_555 1_555
C8 C3 1_555 1_555
H8 C8 1_555 1_555
H9 C8 1_555 1_555
C9 C3 1_555 1_555
H10 C9 1_555 1_555
H11 C9 1_555 1_555
C10 C6 1_555 1_555
H12 C10 1_555 1_555
C11 C15 1_555 1_555
C12 C4 1_555 1_555
H13 C12 1_555 1_555
H14 C12 1_555 1_555
C13 N1 1_555 1_555
C14 C12 1_555 1_555
H15 C14 1_555 1_555
C15 C20 1_555 1_555
C16 C1 1_555 1_555
H16 C16 1_555 1_555
H17 C16 1_555 1_555
C17 C7 1_555 1_555
H18 C17 1_555 1_555
H19 C17 1_555 1_555
C18 N1 1_555 1_555
H20 C18 1_555 1_555
H21 C18 1_555 1_555
C19 C2 1_555 1_555
H22 C19 1_555 1_555
H23 C19 1_555 1_555
C20 C13 1_555 1_555
C21 C14 1_555 1_555
H24 C21 1_555 1_555
H25 C21 1_555 1_555
C22 C15 1_555 1_555
H26 C22 1_555 1_555
C23 H27 1_555 1_555
C24 C20 1_555 1_555
H28 C24 1_555 1_555
C25 C22 1_555 1_555
H29 C25 1_555 1_555
O4 C5 1_555 1_555
C1 C5 1_555 1_555
C3 C5 1_555 1_555
C7 C8 1_555 1_555
C7 C16 1_555 1_555
C9 C10 1_555 1_555
C10 C17 1_555 1_555
C14 C18 1_555 1_555
C19 C21 1_555 1_555
C23 C25 1_555 1_555
C23 C24 1_555 1_555

#END
