
#######################################################################
#
#                 Cambridge Crystallographic Data Centre
#                                CCDC 
#
#######################################################################
#
# If this CIF has been generated from an entry in the Cambridge 
# Structural Database, then it will include bibliographic, chemical, 
# crystal, experimental, refinement or atomic coordinate data resulting 
# from the CCDC's data processing and validation procedures.
#
#######################################################################

data_ICAVIS
_chemical_formula_moiety         'C25 H29 N1 O5'
_chemical_name_systematic        
cis-2-(dispiro(cyclohexane-1,3'-[1,2,4]trioxolane-5',6''-adamantane)-4-ylmethyl)-1H-isoindole-1,3(2H)-dione
_symmetry_cell_setting           monoclinic
_symmetry_space_group_name_H-M   'P 21/c'
_symmetry_Int_Tables_number      14
_space_group_name_Hall           '-P 2ybc'
loop_
_symmetry_equiv_pos_site_id
_symmetry_equiv_pos_as_xyz
1 x,y,z
2 x,1/2-y,1/2+z
3 -x,-y,-z
4 -x,1/2+y,1/2-z
_cell_length_a                   14.729(2)
_cell_length_b                   6.5990(10)
_cell_length_c                   44.342(4)
_cell_angle_alpha                90
_cell_angle_beta                 93.010(10)
_cell_angle_gamma                90
_cell_volume                     4303.95
_exptl_crystal_colour            colorless
_exptl_crystal_description       plate
_cell_formula_units_Z            8
loop_
_atom_site_label
_atom_site_type_symbol
_atom_site_fract_x
_atom_site_fract_y
_atom_site_fract_z
C1 C -0.3907(5) 1.2638(14) 0.12672(16)
H1 H -0.3623 1.3615 0.1142
C2 C -0.4760(6) 1.2982(14) 0.13800(17)
H2 H -0.5051 1.4272 0.1348
C3 C -0.5190(6) 1.1546(16) 0.15445(18)
H3 H -0.5791 1.1811 0.1609
C4 C -0.4783(5) 0.9710(15) 0.16158(15)
H4 H -0.5067 0.8684 0.1732
C5 C -0.3932(4) 0.9392(13) 0.15093(15)
C6 C -0.3330(5) 0.7646(14) 0.15611(16)
N1 N -0.2549(4) 0.8083(11) 0.14097(13)
C7 C -0.2595(5) 0.9972(15) 0.12736(17)
C8 C -0.3500(5) 1.0798(14) 0.13409(15)
O1 O -0.2002(3) 1.0750(9) 0.11379(11)
O2 O -0.3438(3) 0.6123(9) 0.17059(12)
C9 C -0.1790(5) 0.6681(12) 0.13939(16)
H5 H -0.1401 0.7127 0.1240
H6 H -0.2018 0.5362 0.1339
C10 C -0.1214(4) 0.6527(11) 0.16940(15)
H7 H -0.1602 0.6122 0.1850
C11 C -0.0780(4) 0.8553(11) 0.17801(15)
H8 H -0.1245 0.9547 0.1808
H9 H -0.0423 0.8992 0.1617
C12 C -0.0155(5) 0.8376(11) 0.20661(15)
H10 H -0.0519 0.8054 0.2233
H11 H 0.0154 0.9632 0.2109
C13 C 0.0538(4) 0.6738(13) 0.20340(15)
C14 C 0.0128(4) 0.4730(12) 0.19482(16)
H12 H -0.0228 0.4250 0.2109
H13 H 0.0609 0.3779 0.1920
C15 C -0.0492(5) 0.4900(12) 0.16649(16)
H14 H -0.0125 0.5278 0.1501
H15 H -0.0775 0.3623 0.1616
O3 O 0.1123(3) 0.6558(7) 0.23002(9)
O4 O 0.1130(3) 0.7394(9) 0.18087(10)
O5 O 0.1949(4) 0.635(2) 0.18926(15)
C16 C 0.2041(5) 0.6789(15) 0.22106(16)
C17 C 0.2644(5) 0.5031(13) 0.2334(2)
H16 H 0.2381 0.3754 0.2273
C18 C 0.2715(6) 0.5198(16) 0.2673(2)
H17 H 0.3084 0.4128 0.2761
H18 H 0.2117 0.5076 0.2748
C19 C 0.3093(6) 0.715(2) 0.27708(18)
H19 H 0.3117 0.7224 0.2987
C20 C 0.4046(5) 0.7298(14) 0.26623(17)
H20 H 0.4400 0.6150 0.2731
H21 H 0.4335 0.8508 0.2740
C21 C 0.3991(5) 0.7345(15) 0.2328(2)
H22 H 0.4590 0.7484 0.2256
C22 C 0.3401(6) 0.8922(16) 0.2195(2)
H23 H 0.3368 0.8823 0.1978
H24 H 0.3656 1.0215 0.2251
C23 C 0.2430(6) 0.8718(14) 0.2311(2)
H25 H 0.2041 0.9779 0.2231
C24 C 0.2486(6) 0.8785(16) 0.2646(3)
H26 H 0.2734 1.0279 0.2678
H27 H 0.1893 0.8858 0.2684
C25 C 0.3584(5) 0.5336(16) 0.22105(19)
H28 H 0.3533 0.5298 0.1994
H29 H 0.3982 0.4262 0.2280
C26 C 0.9412(5) -0.1500(14) 0.41042(17)
H30 H 0.9834 -0.1054 0.4263
C27 C 0.9540(6) -0.3249(17) 0.3944(2)
H31 H 1.0064 -0.4066 0.3996
C28 C 0.8951(7) -0.3891(15) 0.3718(2)
H32 H 0.9056 -0.5167 0.3622
C29 C 0.8203(6) -0.2710(15) 0.36312(18)
H33 H 0.7803 -0.3104 0.3464
C30 C 0.8060(5) -0.0980(13) 0.37866(16)
C31 C 0.7312(5) 0.0509(14) 0.37571(16)
N2 N 0.7501(4) 0.1946(10) 0.39803(12)
C32 C 0.8310(5) 0.1526(14) 0.41468(17)
C33 C 0.8658(5) -0.0368(13) 0.40192(15)
O7 O 0.8623(3) 0.2563(8) 0.43518(11)
O8 O 0.6648(3) 0.0540(9) 0.35828(10)
C34 C 0.6920(4) 0.3655(11) 0.40392(15)
H34 H 0.6571 0.3972 0.3856
H35 H 0.7289 0.4810 0.4094
C35 C 0.6252(4) 0.3284(11) 0.42891(14)
H36 H 0.6597 0.3087 0.4476
C36 C 0.5652(4) 0.5110(11) 0.43205(14)
H37 H 0.5323 0.5329 0.4131
H38 H 0.6023 0.6280 0.4364
C37 C 0.4968(4) 0.4817(11) 0.45641(15)
H39 H 0.4549 0.5933 0.4561
H40 H 0.5292 0.4796 0.4758
C38 C 0.4426(4) 0.2898(12) 0.45208(14)
C39 C 0.5008(4) 0.1061(11) 0.44790(14)
H41 H 0.4621 -0.0082 0.4434
H42 H 0.5358 0.0783 0.4663
C40 C 0.5671(4) 0.1397(11) 0.42279(14)
H43 H 0.6052 0.0233 0.4206
H44 H 0.5320 0.1597 0.4042
O9 O 0.3850(3) 0.2629(7) 0.47673(9)
O10 O 0.3796(3) 0.3236(8) 0.42658(9)
O11 O 0.3067(3) 0.1817(8) 0.43373(10)
C41 C 0.2935(4) 0.2290(12) 0.46488(15)
C42 C 0.2534(4) 0.0461(11) 0.47912(16)
H45 H 0.2916 -0.0690 0.4760
C43 C 0.1561(5) 0.0091(13) 0.46548(18)
H46 H 0.1298 -0.1079 0.4745
H47 H 0.1582 -0.0141 0.4441
C44 C 0.0976(5) 0.1923(13) 0.47128(18)
H48 H 0.0370 0.1704 0.4628
C45 C 0.0950(4) 0.2358(13) 0.50494(16)
H49 H 0.0708 0.1197 0.5148
H50 H 0.0564 0.3499 0.5084
C46 C 0.1908(5) 0.2747(14) 0.51783(15)
H51 H 0.1895 0.3006 0.5391
C47 C 0.2315(5) 0.4541(11) 0.50249(16)
H52 H 0.2917 0.4776 0.5111
H53 H 0.1955 0.5722 0.5060
C48 C 0.2358(4) 0.4172(11) 0.46868(16)
H54 H 0.2625 0.5304 0.4589
C49 C 0.2484(5) 0.0888(12) 0.51291(16)
H55 H 0.3086 0.1096 0.5217
H56 H 0.2222 -0.0249 0.5228
C50 C 0.1396(4) 0.3747(12) 0.45568(15)
H57 H 0.1019 0.4908 0.4588
H58 H 0.1409 0.3515 0.4343
O6? O 0.1880(14) 0.841(8) 0.1945(6)
loop_
_geom_bond_atom_site_label_1
_geom_bond_atom_site_label_2
_geom_bond_site_symmetry_1
_geom_bond_site_symmetry_2
C1 H1 1_555 1_555
C2 C1 1_555 1_555
H2 C2 1_555 1_555
C3 C2 1_555 1_555
H3 C3 1_555 1_555
C4 C3 1_555 1_555
H4 C4 1_555 1_555
C5 C4 1_555 1_555
C6 C5 1_555 1_555
N1 C6 1_555 1_555
C7 N1 1_555 1_555
C8 C1 1_555 1_555
O1 C7 1_555 1_555
O2 C6 1_555 1_555
C9 N1 1_555 1_555
H5 C9 1_555 1_555
H6 C9 1_555 1_555
C10 C9 1_555 1_555
H7 C10 1_555 1_555
C11 C10 1_555 1_555
H8 C11 1_555 1_555
H9 C11 1_555 1_555
C12 C11 1_555 1_555
H10 C12 1_555 1_555
H11 C12 1_555 1_555
C13 C12 1_555 1_555
C14 C13 1_555 1_555
H12 C14 1_555 1_555
H13 C14 1_555 1_555
C15 C10 1_555 1_555
H14 C15 1_555 1_555
H15 C15 1_555 1_555
O3 C13 1_555 1_555
O4 C13 1_555 1_555
O5 O4 1_555 1_555
C16 O3 1_555 1_555
C17 C16 1_555 1_555
H16 C17 1_555 1_555
C18 C17 1_555 1_555
H17 C18 1_555 1_555
H18 C18 1_555 1_555
C19 C18 1_555 1_555
H19 C19 1_555 1_555
C20 C19 1_555 1_555
H20 C20 1_555 1_555
H21 C20 1_555 1_555
C21 C20 1_555 1_555
H22 C21 1_555 1_555
C22 C21 1_555 1_555
H23 C22 1_555 1_555
H24 C22 1_555 1_555
C23 C16 1_555 1_555
H25 C23 1_555 1_555
C24 C19 1_555 1_555
H26 C24 1_555 1_555
H27 C24 1_555 1_555
C25 C17 1_555 1_555
H28 C25 1_555 1_555
H29 C25 1_555 1_555
C26 H30 1_555 1_555
C27 C26 1_555 1_555
H31 C27 1_555 1_555
C28 C27 1_555 1_555
H32 C28 1_555 1_555
C29 C28 1_555 1_555
H33 C29 1_555 1_555
C30 C29 1_555 1_555
C31 C30 1_555 1_555
N2 C31 1_555 1_555
C32 N2 1_555 1_555
C33 C26 1_555 1_555
O7 C32 1_555 1_555
O8 C31 1_555 1_555
C34 N2 1_555 1_555
H34 C34 1_555 1_555
H35 C34 1_555 1_555
C35 C34 1_555 1_555
H36 C35 1_555 1_555
C36 C35 1_555 1_555
H37 C36 1_555 1_555
H38 C36 1_555 1_555
C37 C36 1_555 1_555
H39 C37 1_555 1_555
H40 C37 1_555 1_555
C38 C37 1_555 1_555
C39 C38 1_555 1_555
H41 C39 1_555 1_555
H42 C39 1_555 1_555
C40 C35 1_555 1_555
H43 C40 1_555 1_555
H44 C40 1_555 1_555
O9 C38 1_555 1_555
O10 C38 1_555 1_555
O11 O10 1_555 1_555
C41 O9 1_555 1_555
C42 C41 1_555 1_555
H45 C42 1_555 1_555
C43 C42 1_555 1_555
H46 C43 1_555 1_555
H47 C43 1_555 1_555
C44 C43 1_555 1_555
H48 C44 1_555 1_555
C45 C44 1_555 1_555
H49 C45 1_555 1_555
H50 C45 1_555 1_555
C46 C45 1_555 1_555
H51 C46 1_555 1_555
C47 C46 1_555 1_555
H52 C47 1_555 1_555
H53 C47 1_555 1_555
C48 C41 1_555 1_555
H54 C48 1_555 1_555
C49 C42 1_555 1_555
H55 C49 1_555 1_555
H56 C49 1_555 1_555
C50 C44 1_555 1_555
H57 C50 1_555 1_555
H58 C50 1_555 1_555
C5 C8 1_555 1_555
C7 C8 1_555 1_555
C14 C15 1_555 1_555
O5 C16 1_555 1_555
C21 C25 1_555 1_555
C22 C23 1_555 1_555
C23 C24 1_555 1_555
C30 C33 1_555 1_555
C32 C33 1_555 1_555
C39 C40 1_555 1_555
O11 C41 1_555 1_555
C46 C49 1_555 1_555
C47 C48 1_555 1_555
C48 C50 1_555 1_555

#END
