
#######################################################################
#
#                 Cambridge Crystallographic Data Centre
#                                CCDC 
#
#######################################################################
#
# If this CIF has been generated from an entry in the Cambridge 
# Structural Database, then it will include bibliographic, chemical, 
# crystal, experimental, refinement or atomic coordinate data resulting 
# from the CCDC's data processing and validation procedures.
#
#######################################################################

data_ICAXOC
_chemical_formula_moiety         'C18 H13 F3 I1 N1'
_chemical_name_systematic        
1-benzyl-3-iodo-2-phenyl-4-(trifluoromethyl)-1H-pyrrole
_symmetry_cell_setting           monoclinic
_symmetry_space_group_name_H-M   'P 21/c'
_symmetry_Int_Tables_number      14
_space_group_name_Hall           '-P 2ybc'
loop_
_symmetry_equiv_pos_site_id
_symmetry_equiv_pos_as_xyz
1 x,y,z
2 -x,1/2+y,1/2-z
3 -x,-y,-z
4 x,1/2-y,1/2+z
_cell_length_a                   11.015(4)
_cell_length_b                   14.627(5)
_cell_length_c                   11.621(4)
_cell_angle_alpha                90
_cell_angle_beta                 112.793(9)
_cell_angle_gamma                90
_cell_volume                     1726.12
_exptl_crystal_colour            colorless
_exptl_crystal_description       block
_chemical_melting_point          '335.9-337.6 K'
_cell_formula_units_Z            4
_exptl_crystal_recrystallization_method chloroform/petroleum
loop_
_atom_site_label
_atom_site_type_symbol
_atom_site_fract_x
_atom_site_fract_y
_atom_site_fract_z
I1 I 0.11170(3) 0.14365(2) 0.57878(2)
F1 F 0.3308(3) 0.0061(3) 0.4942(3)
F2 F 0.3927(3) 0.1410(2) 0.4873(4)
F3 F 0.3795(2) 0.0484(2) 0.3464(3)
N1 N -0.0016(3) 0.13430(18) 0.1881(2)
C1 C -0.1208(4) -0.0438(3) 0.1064(3)
H1 H -0.0328 -0.0435 0.1610
C2 C -0.1923(6) -0.1237(3) 0.0866(4)
H2 H -0.1521 -0.1767 0.1281
C3 C -0.3200(6) -0.1258(4) 0.0074(5)
H3 H -0.3674 -0.1801 -0.0060
C4 C -0.3798(5) -0.0473(4) -0.0532(5)
H4 H -0.4678 -0.0483 -0.1075
C5 C -0.3088(4) 0.0334(3) -0.0334(4)
H5 H -0.3496 0.0865 -0.0743
C6 C -0.1783(3) 0.0358(2) 0.0463(3)
C7 C -0.1560(3) 0.1848(2) 0.2847(3)
C8 C -0.2293(3) 0.1387(2) 0.3391(4)
H6 H -0.1973 0.0846 0.3824
C9 C -0.3497(4) 0.1724(3) 0.3296(4)
H7 H -0.3979 0.1413 0.3675
C10 C -0.3988(4) 0.2510(3) 0.2648(4)
H8 H -0.4810 0.2726 0.2571
C11 C -0.3277(4) 0.2975(3) 0.2118(4)
H9 H -0.3611 0.3512 0.1682
C12 C -0.2063(3) 0.2660(2) 0.2218(3)
H10 H -0.1575 0.2991 0.1864
C13 C -0.0276(3) 0.14962(19) 0.2933(3)
C14 C 0.0847(3) 0.1306(2) 0.3928(3)
C15 C 0.1823(3) 0.1029(2) 0.3484(3)
C16 C 0.1241(3) 0.1053(2) 0.2217(3)
H11 H 0.1641 0.0896 0.1671
C17 C -0.1013(4) 0.1237(2) 0.0618(3)
H12 H -0.0587 0.1244 0.0028
H13 H -0.1616 0.1750 0.0429
C18 C 0.3192(4) 0.0759(3) 0.4197(4)
loop_
_geom_bond_atom_site_label_1
_geom_bond_atom_site_label_2
_geom_bond_site_symmetry_1
_geom_bond_site_symmetry_2
I1 C14 1_555 1_555
F1 C18 1_555 1_555
F2 C18 1_555 1_555
F3 C18 1_555 1_555
N1 C13 1_555 1_555
C1 H1 1_555 1_555
C2 C1 1_555 1_555
H2 C2 1_555 1_555
C3 C2 1_555 1_555
H3 C3 1_555 1_555
C4 C3 1_555 1_555
H4 C4 1_555 1_555
C5 C4 1_555 1_555
H5 C5 1_555 1_555
C6 C1 1_555 1_555
C7 C8 1_555 1_555
C8 H6 1_555 1_555
C9 C8 1_555 1_555
H7 C9 1_555 1_555
C10 C9 1_555 1_555
H8 C10 1_555 1_555
C11 C10 1_555 1_555
H9 C11 1_555 1_555
C12 C7 1_555 1_555
H10 C12 1_555 1_555
C13 C7 1_555 1_555
C14 C13 1_555 1_555
C15 C14 1_555 1_555
C16 N1 1_555 1_555
H11 C16 1_555 1_555
C17 N1 1_555 1_555
H12 C17 1_555 1_555
H13 C17 1_555 1_555
C18 C15 1_555 1_555
C5 C6 1_555 1_555
C6 C17 1_555 1_555
C11 C12 1_555 1_555
C15 C16 1_555 1_555

#END
