
#######################################################################
#
#                 Cambridge Crystallographic Data Centre
#                                CCDC 
#
#######################################################################
#
# If this CIF has been generated from an entry in the Cambridge 
# Structural Database, then it will include bibliographic, chemical, 
# crystal, experimental, refinement or atomic coordinate data resulting 
# from the CCDC's data processing and validation procedures.
#
#######################################################################

data_ICAXES
_chemical_name_common            
'(N-(1,3-di-t-butyl-1,3,2-diazaphospholidin-2-yl)-1,3-bis[2,6-bis(propan-2-yl)phenyl]-1,3-dihydro-2H-imidazol-2-imine)-trihydrido-boron benzene solvate'
_chemical_formula_moiety         'C37 H61 B1 N5 P1,C6 H6'
_chemical_name_systematic        
'N-(2-boranyl-1,3-di-t-butyl-1,3,2-diazaphospholidin-2-yl)-1,3-bis(2,6-diisopropylphenyl)-1,3-dihydro-2H-imidazol-2-imine benzene solvate'
_symmetry_cell_setting           triclinic
_symmetry_space_group_name_H-M   'P -1'
_symmetry_Int_Tables_number      2
_space_group_name_Hall           '-P 1'
loop_
_symmetry_equiv_pos_site_id
_symmetry_equiv_pos_as_xyz
1 x,y,z
2 -x,-y,-z
_cell_length_a                   9.9932(5)
_cell_length_b                   12.8508(6)
_cell_length_c                   32.4198(16)
_cell_angle_alpha                91.6290(18)
_cell_angle_beta                 95.1147(17)
_cell_angle_gamma                91.5658(17)
_cell_volume                     4143.25
_exptl_crystal_colour            colorless
_exptl_crystal_description       block
_cell_formula_units_Z            4
loop_
_atom_site_label
_atom_site_type_symbol
_atom_site_fract_x
_atom_site_fract_y
_atom_site_fract_z
B1 B 0.5040(2) 0.1938(2) 0.35900(8)
H1 H 0.489(2) 0.1802(16) 0.3246(7)
H2 H 0.600(2) 0.2344(16) 0.3692(6)
H3 H 0.485(2) 0.1241(16) 0.3768(7)
C1 C 0.2635(2) 0.46132(16) 0.38048(7)
H4 H 0.1852 0.4823 0.362
H5 H 0.3085 0.5247 0.3939
C2 C 0.2187(2) 0.38675(16) 0.41322(7)
H6 H 0.2132 0.4255 0.4398
H7 H 0.1285 0.3563 0.4041
C3 C 0.3913(3) 0.44731(18) 0.31701(7)
C4 C 0.5226(3) 0.4023(2) 0.30503(8)
H8 H 0.5922 0.413 0.3281
H9 H 0.5508 0.4373 0.2806
H10 H 0.5091 0.3275 0.2986
C5 C 0.2798(3) 0.4245(2) 0.28234(7)
H11 H 0.2695 0.3491 0.2771
H12 H 0.3032 0.458 0.2571
H13 H 0.1952 0.4517 0.2906
C6 C 0.4144(3) 0.56478(17) 0.32309(8)
H14 H 0.3293 0.5971 0.3279
H15 H 0.4487 0.5932 0.2982
H16 H 0.4799 0.5795 0.347
C7 C 0.4291(18) 0.3156(13) 0.4537(4)
C8 C 0.512(2) 0.2169(14) 0.4566(7)
H17 H 0.4524 0.1559 0.4585
H18 H 0.5765 0.2225 0.4814
H19 H 0.5615 0.2092 0.4319
C9 C 0.365(3) 0.3264(15) 0.4951(6)
H20 H 0.3231 0.3941 0.4969
H21 H 0.4349 0.3212 0.5181
H22 H 0.297 0.2707 0.4966
C10 C 0.527(3) 0.4090(14) 0.4499(6)
H23 H 0.5733 0.3997 0.4247
H24 H 0.5926 0.4134 0.4742
H25 H 0.476 0.4732 0.4483
C11 C 0.18764(17) 0.12660(13) 0.33562(5)
C12 C 0.13402(18) -0.04596(14) 0.33472(6)
H26 H 0.1212 -0.1149 0.3437
C13 C 0.11056(18) -0.01464(14) 0.29595(6)
H27 H 0.079 -0.0571 0.2724
C14 C 0.19837(19) 0.03479(14) 0.40443(5)
C15 C 0.10576(19) 0.08513(14) 0.42799(6)
C16 C -0.01141(19) 0.14380(15) 0.40758(6)
H28 H 0.0225 0.1843 0.3846
C17 C -0.1217(2) 0.06690(16) 0.38864(6)
H29 H -0.0848 0.0215 0.3679
H30 H -0.1961 0.1056 0.3754
H31 H -0.1544 0.0245 0.4105
C18 C -0.0728(2) 0.22047(16) 0.43705(7)
H32 H -0.1376 0.2632 0.4212
H33 H -0.0015 0.2656 0.4513
H34 H -0.1187 0.1817 0.4575
C19 C 0.1202(2) 0.07382(15) 0.47057(6)
H35 H 0.0603 0.1077 0.4873
C20 C 0.2205(2) 0.01390(16) 0.48904(6)
H36 H 0.2288 0.0072 0.5183
C21 C 0.3078(2) -0.03577(15) 0.46547(6)
H37 H 0.3755 -0.077 0.4787
C22 C 0.29979(19) -0.02714(14) 0.42234(6)
C23 C 0.3967(2) -0.08683(15) 0.39773(6)
H38 H 0.3903 -0.0606 0.3689
C24 C 0.5428(2) -0.07207(17) 0.41642(7)
H39 H 0.5658 0.0025 0.4198
H40 H 0.6027 -0.1049 0.3979
H41 H 0.553 -0.1044 0.4435
C25 C 0.3596(2) -0.20375(15) 0.39545(7)
H42 H 0.3677 -0.2312 0.4234
H43 H 0.4205 -0.2403 0.3783
H44 H 0.2668 -0.2143 0.3832
C26 C 0.12027(18) 0.15751(14) 0.26106(6)
C27 C 0.01095(18) 0.22395(14) 0.25886(6)
C28 C -0.08883(19) 0.22879(15) 0.29146(6)
H45 H -0.0672 0.173 0.3117
C29 C -0.23227(19) 0.20811(16) 0.27193(7)
H46 H -0.2595 0.2663 0.2545
H47 H -0.2932 0.2012 0.2938
H48 H -0.2361 0.1436 0.255
C30 C -0.0787(2) 0.33378(16) 0.31531(7)
H49 H 0.0132 0.3457 0.3281
H50 H -0.1414 0.3332 0.3369
H51 H -0.1013 0.3896 0.2962
C31 C -0.0070(2) 0.28603(15) 0.22428(6)
H52 H -0.0791 0.3328 0.2222
C32 C 0.0781(2) 0.28079(16) 0.19292(6)
H53 H 0.0641 0.3234 0.1695
C33 C 0.1839(2) 0.21305(15) 0.19577(6)
H54 H 0.2412 0.209 0.1739
C34 C 0.20799(18) 0.15091(14) 0.22986(6)
C35 C 0.32303(19) 0.07586(15) 0.23142(6)
H55 H 0.3339 0.0469 0.2598
C36 C 0.4559(2) 0.12994(16) 0.22304(6)
H56 H 0.5278 0.0795 0.225
H57 H 0.4773 0.1868 0.2435
H58 H 0.4475 0.1581 0.1952
C37 C 0.2888(2) -0.01443(15) 0.20013(6)
H59 H 0.2052 -0.0497 0.2064
H60 H 0.3618 -0.064 0.2019
H61 H 0.2776 0.0125 0.1721
N1 N 0.21933(15) 0.22331(11) 0.34512(5)
N2 N 0.35709(16) 0.40342(12) 0.35692(5)
N3 N 0.31667(17) 0.30261(12) 0.41900(5)
N4 N 0.18048(15) 0.03971(11) 0.35979(5)
N5 N 0.14087(15) 0.09172(11) 0.29624(4)
P1 P 0.35444(5) 0.27726(4) 0.36969(2)
B2 B 0.4559(2) 0.78076(18) 0.14391(7)
H80 H 0.4735(19) 0.8595(15) 0.1290(6)
H81 H 0.355(2) 0.7466(15) 0.1351(6)
H82 H 0.481(2) 0.7883(15) 0.1781(6)
C46 C 0.6952(2) 0.59881(16) 0.06760(6)
H83 H 0.7903 0.6198 0.0756
H84 H 0.6878 0.5721 0.0385
C47 C 0.6506(2) 0.51411(16) 0.09578(6)
H85 H 0.5843 0.4653 0.0804
H86 H 0.7285 0.4743 0.1069
C48 C 0.4928(2) 0.69502(14) 0.03886(6)
C49 C 0.4169(2) 0.79516(15) 0.04475(6)
H87 H 0.3716 0.7921 0.0703
H88 H 0.35 0.8028 0.0211
H89 H 0.4804 0.8549 0.0466
C50 C 0.5513(2) 0.70155(16) -0.00326(6)
H90 H 0.6164 0.7601 -0.0025
H91 H 0.4786 0.712 -0.025
H92 H 0.5961 0.6367 -0.0092
C51 C 0.3937(2) 0.60204(16) 0.03880(7)
H93 H 0.44 0.5376 0.0332
H94 H 0.3197 0.6103 0.0173
H95 H 0.3577 0.5987 0.0659
C52 C 0.5615(2) 0.50806(14) 0.16604(6)
C53 C 0.6876(2) 0.45384(18) 0.18400(7)
H96 H 0.7171 0.4049 0.1632
H97 H 0.6669 0.4158 0.2085
H98 H 0.7593 0.5061 0.1918
C54 C 0.5140(2) 0.57837(16) 0.19994(7)
H99 H 0.5841 0.6313 0.2086
H100 H 0.4954 0.5366 0.2237
H101 H 0.4319 0.6125 0.1894
C55 C 0.4496(2) 0.42719(17) 0.15267(8)
H102 H 0.3681 0.4627 0.1426
H103 H 0.431 0.3852 0.1764
H104 H 0.4781 0.3819 0.1305
C56 C 0.77654(17) 0.83332(14) 0.16051(5)
C57 C 0.85242(18) 1.00116(14) 0.16985(6)
H105 H 0.8762 1.0711 0.1642
C58 C 0.86523(18) 0.95740(14) 0.20689(6)
H106 H 0.8995 0.9908 0.2323
C59 C 0.77376(18) 0.94424(14) 0.09725(5)
C60 C 0.85610(19) 0.89716(14) 0.06957(6)
C61 C 0.9721(2) 0.82986(16) 0.08506(6)
H107 H 0.9414 0.7866 0.1078
C62 C 1.0180(2) 0.75612(17) 0.05170(7)
H108 H 1.0633 0.7964 0.0315
H109 H 0.9397 0.7182 0.0376
H110 H 1.0804 0.7064 0.0646
C63 C 1.0909(2) 0.89900(18) 0.10324(7)
H111 H 1.1236 0.9417 0.0814
H112 H 1.1632 0.8552 0.1146
H113 H 1.062 0.9444 0.1254
C64 C 0.8339(2) 0.92062(15) 0.02794(6)
H114 H 0.8874 0.8894 0.0085
C65 C 0.7355(2) 0.98845(15) 0.01429(6)
H115 H 0.7223 1.0037 -0.0143
C66 C 0.65654(19) 1.03396(14) 0.04214(6)
H116 H 0.589 1.0801 0.0324
C67 C 0.67354(18) 1.01378(14) 0.08430(6)
C68 C 0.58974(19) 1.07108(14) 0.11421(6)
H117 H 0.597 1.0342 0.141
C69 C 0.6446(2) 1.18335(15) 0.12257(6)
H118 H 0.7414 1.1826 0.1306
H119 H 0.5992 1.2156 0.145
H120 H 0.628 1.2234 0.0974
C70 C 0.44096(19) 1.07335(15) 0.09838(6)
H121 H 0.4312 1.1117 0.0726
H122 H 0.3909 1.1079 0.1193
H123 H 0.4054 1.0019 0.0931
C71 C 0.82811(18) 0.77695(14) 0.23289(6)
C72 C 0.73902(18) 0.78017(14) 0.26390(6)
C73 C 0.63677(19) 0.86489(14) 0.26724(6)
H124 H 0.6276 0.9017 0.2404
C74 C 0.6885(2) 0.94428(16) 0.30171(6)
H125 H 0.6973 0.9097 0.3283
H126 H 0.6248 1.0007 0.303
H127 H 0.7763 0.9731 0.2958
C75 C 0.49801(19) 0.82204(15) 0.27572(6)
H128 H 0.5034 0.7911 0.3031
H129 H 0.4673 0.7688 0.2545
H130 H 0.4344 0.8788 0.275
C76 C 0.7505(2) 0.70383(15) 0.29376(6)
H131 H 0.6922 0.7042 0.3153
C77 C 0.8452(2) 0.62797(16) 0.29243(6)
H132 H 0.8503 0.576 0.3127
C78 C 0.9326(2) 0.62722(15) 0.26171(6)
H133 H 0.9968 0.5742 0.2611
C79 C 0.92845(19) 0.70273(14) 0.23159(6)
C80 C 1.03459(19) 0.70515(15) 0.20090(6)
H134 H 1.0201 0.7679 0.1837
C81 C 1.0256(2) 0.60933(17) 0.17167(7)
H135 H 1.0412 0.5467 0.1878
H136 H 1.0937 0.6158 0.1519
H137 H 0.936 0.604 0.1566
C82 C 1.1749(2) 0.71627(16) 0.22394(7)
H138 H 1.178 0.7757 0.2436
H139 H 1.2416 0.7276 0.204
H140 H 1.195 0.6526 0.239
N6 N 0.73864(15) 0.74141(12) 0.14538(5)
N7 N 0.60850(16) 0.68966(12) 0.07148(5)
N8 N 0.58981(16) 0.56875(12) 0.12937(5)
N9 N 0.79785(15) 0.92564(11) 0.14099(5)
N10 N 0.81955(15) 0.85446(11) 0.20152(4)
P2 P 0.59429(5) 0.69845(4) 0.12358(2)
C89 C -0.0693(4) 0.2958(4) 0.54453(12)
H147 H -0.1491 0.2715 0.5286
C90 C -0.0251(5) 0.3988(4) 0.54219(15)
H148 H -0.0747 0.4448 0.5247
C91 C 0.0915(6) 0.4343(3) 0.56547(18)
H149 H 0.1217 0.5047 0.5639
C92 C 0.1640(5) 0.3669(4) 0.59107(15)
H150 H 0.2438 0.3912 0.607
C93 C 0.1198(5) 0.2639(4) 0.59340(14)
H151 H 0.1693 0.2179 0.6109
C94 C 0.0031(5) 0.2284(2) 0.57013(14)
H152 H -0.0271 0.158 0.5717
C95 C 0.1198(3) 0.3917(2) 0.06826(10)
H153 H 0.1729 0.4542 0.0685
C96 C 0.1791(3) 0.2998(2) 0.07753(8)
H154 H 0.2736 0.2987 0.0841
C97 C 0.1034(2) 0.2089(2) 0.07740(7)
H155 H 0.1454 0.1452 0.0838
C98 C -0.0327(2) 0.2106(2) 0.06800(7)
H156 H -0.0853 0.1479 0.0681
C99 C -0.0932(3) 0.3019(2) 0.05852(8)
H157 H -0.1877 0.3022 0.0519
C100 C -0.0181(3) 0.3938(2) 0.05846(10)
H158 H -0.0602 0.4573 0.0518
C38? C 0.386(3) 0.458(2) 0.3180(7)
C39? C 0.536(3) 0.478(3) 0.3261(11)
H62? H 0.5539 0.5318 0.348
H63? H 0.5723 0.5012 0.3007
H64? H 0.5794 0.4135 0.3348
C40? C 0.349(4) 0.380(3) 0.2824(11)
H65? H 0.3659 0.4124 0.2562
H66? H 0.4024 0.3182 0.2861
H67? H 0.2529 0.3608 0.2819
C41? C 0.310(4) 0.558(2) 0.3134(10)
H68? H 0.2139 0.5411 0.3085
H69? H 0.3404 0.5954 0.2899
H70? H 0.3281 0.6008 0.3388
C42? C 0.4126(19) 0.3224(16) 0.4566(5)
C43? C 0.495(2) 0.2268(15) 0.4627(7)
H71? H 0.4357 0.1656 0.4644
H72? H 0.5548 0.2354 0.4884
H73? H 0.5498 0.2173 0.4392
C44? C 0.331(3) 0.3373(18) 0.4940(6)
H74? H 0.2891 0.4054 0.4929
H75? H 0.3903 0.3337 0.5196
H76? H 0.2607 0.2823 0.4934
C45? C 0.503(2) 0.4176(15) 0.4517(6)
H77? H 0.5483 0.4092 0.4263
H78? H 0.5701 0.4252 0.4756
H79? H 0.4483 0.4798 0.4501
C83? C 0.0434(11) 0.4338(8) 0.5632(4)
H141? H 0.017 0.5025 0.557
C84? C 0.1688(7) 0.4221(4) 0.5817(3)
H142? H 0.2285 0.4804 0.5879
C85? C 0.2071(5) 0.3218(5) 0.59126(16)
H143? H 0.2942 0.3107 0.6044
C86? C 0.1180(7) 0.2379(3) 0.5817(2)
H144? H 0.1442 0.1694 0.5882
C87? C -0.0093(6) 0.2542(5) 0.5625(2)
H145? H -0.0702 0.1968 0.5559
C88? C -0.0476(5) 0.3545(6) 0.5529(3)
H146? H -0.134 0.3672 0.5396
loop_
_geom_bond_atom_site_label_1
_geom_bond_atom_site_label_2
_geom_bond_site_symmetry_1
_geom_bond_site_symmetry_2
B1 H1 1_555 1_555
H2 B1 1_555 1_555
H3 B1 1_555 1_555
C1 H4 1_555 1_555
H5 C1 1_555 1_555
C2 C1 1_555 1_555
H6 C2 1_555 1_555
H7 C2 1_555 1_555
C3 C4 1_555 1_555
C4 H8 1_555 1_555
H9 C4 1_555 1_555
H10 C4 1_555 1_555
C5 C3 1_555 1_555
H11 C5 1_555 1_555
H12 C5 1_555 1_555
H13 C5 1_555 1_555
C6 C3 1_555 1_555
H14 C6 1_555 1_555
H15 C6 1_555 1_555
H16 C6 1_555 1_555
C7 C8 1_555 1_555
C8 H17 1_555 1_555
H18 C8 1_555 1_555
H19 C8 1_555 1_555
C9 C7 1_555 1_555
H20 C9 1_555 1_555
H21 C9 1_555 1_555
H22 C9 1_555 1_555
C10 C7 1_555 1_555
H23 C10 1_555 1_555
H24 C10 1_555 1_555
H25 C10 1_555 1_555
C11 N1 1_555 1_555
C12 H26 1_555 1_555
C13 C12 1_555 1_555
H27 C13 1_555 1_555
C14 C15 1_555 1_555
C15 C16 1_555 1_555
C16 H28 1_555 1_555
C17 C16 1_555 1_555
H29 C17 1_555 1_555
H30 C17 1_555 1_555
H31 C17 1_555 1_555
C18 C16 1_555 1_555
H32 C18 1_555 1_555
H33 C18 1_555 1_555
H34 C18 1_555 1_555
C19 C15 1_555 1_555
H35 C19 1_555 1_555
C20 C19 1_555 1_555
H36 C20 1_555 1_555
C21 C20 1_555 1_555
H37 C21 1_555 1_555
C22 C14 1_555 1_555
C23 C22 1_555 1_555
H38 C23 1_555 1_555
C24 C23 1_555 1_555
H39 C24 1_555 1_555
H40 C24 1_555 1_555
H41 C24 1_555 1_555
C25 C23 1_555 1_555
H42 C25 1_555 1_555
H43 C25 1_555 1_555
H44 C25 1_555 1_555
C26 C27 1_555 1_555
C27 C28 1_555 1_555
C28 H45 1_555 1_555
C29 C28 1_555 1_555
H46 C29 1_555 1_555
H47 C29 1_555 1_555
H48 C29 1_555 1_555
C30 C28 1_555 1_555
H49 C30 1_555 1_555
H50 C30 1_555 1_555
H51 C30 1_555 1_555
C31 C27 1_555 1_555
H52 C31 1_555 1_555
C32 C31 1_555 1_555
H53 C32 1_555 1_555
C33 C32 1_555 1_555
H54 C33 1_555 1_555
C34 C26 1_555 1_555
C35 C34 1_555 1_555
H55 C35 1_555 1_555
C36 C35 1_555 1_555
H56 C36 1_555 1_555
H57 C36 1_555 1_555
H58 C36 1_555 1_555
C37 C35 1_555 1_555
H59 C37 1_555 1_555
H60 C37 1_555 1_555
H61 C37 1_555 1_555
N1 P1 1_555 1_555
N2 C1 1_555 1_555
N3 C2 1_555 1_555
N4 C11 1_555 1_555
N5 C11 1_555 1_555
P1 B1 1_555 1_555
B2 H80 1_555 1_555
H81 B2 1_555 1_555
H82 B2 1_555 1_555
C46 H83 1_555 1_555
H84 C46 1_555 1_555
C47 C46 1_555 1_555
H85 C47 1_555 1_555
H86 C47 1_555 1_555
C48 C49 1_555 1_555
C49 H87 1_555 1_555
H88 C49 1_555 1_555
H89 C49 1_555 1_555
C50 C48 1_555 1_555
H90 C50 1_555 1_555
H91 C50 1_555 1_555
H92 C50 1_555 1_555
C51 C48 1_555 1_555
H93 C51 1_555 1_555
H94 C51 1_555 1_555
H95 C51 1_555 1_555
C52 C53 1_555 1_555
C53 H96 1_555 1_555
H97 C53 1_555 1_555
H98 C53 1_555 1_555
C54 C52 1_555 1_555
H99 C54 1_555 1_555
H100 C54 1_555 1_555
H101 C54 1_555 1_555
C55 C52 1_555 1_555
H102 C55 1_555 1_555
H103 C55 1_555 1_555
H104 C55 1_555 1_555
C56 N6 1_555 1_555
C57 H105 1_555 1_555
C58 C57 1_555 1_555
H106 C58 1_555 1_555
C59 C60 1_555 1_555
C60 C61 1_555 1_555
C61 H107 1_555 1_555
C62 C61 1_555 1_555
H108 C62 1_555 1_555
H109 C62 1_555 1_555
H110 C62 1_555 1_555
C63 C61 1_555 1_555
H111 C63 1_555 1_555
H112 C63 1_555 1_555
H113 C63 1_555 1_555
C64 C60 1_555 1_555
H114 C64 1_555 1_555
C65 C64 1_555 1_555
H115 C65 1_555 1_555
C66 C65 1_555 1_555
H116 C66 1_555 1_555
C67 C59 1_555 1_555
C68 C67 1_555 1_555
H117 C68 1_555 1_555
C69 C68 1_555 1_555
H118 C69 1_555 1_555
H119 C69 1_555 1_555
H120 C69 1_555 1_555
C70 C68 1_555 1_555
H121 C70 1_555 1_555
H122 C70 1_555 1_555
H123 C70 1_555 1_555
C71 C72 1_555 1_555
C72 C73 1_555 1_555
C73 H124 1_555 1_555
C74 C73 1_555 1_555
H125 C74 1_555 1_555
H126 C74 1_555 1_555
H127 C74 1_555 1_555
C75 C73 1_555 1_555
H128 C75 1_555 1_555
H129 C75 1_555 1_555
H130 C75 1_555 1_555
C76 C72 1_555 1_555
H131 C76 1_555 1_555
C77 C76 1_555 1_555
H132 C77 1_555 1_555
C78 C77 1_555 1_555
H133 C78 1_555 1_555
C79 C71 1_555 1_555
C80 C79 1_555 1_555
H134 C80 1_555 1_555
C81 C80 1_555 1_555
H135 C81 1_555 1_555
H136 C81 1_555 1_555
H137 C81 1_555 1_555
C82 C80 1_555 1_555
H138 C82 1_555 1_555
H139 C82 1_555 1_555
H140 C82 1_555 1_555
N6 P2 1_555 1_555
N7 C46 1_555 1_555
N8 C47 1_555 1_555
N9 C56 1_555 1_555
N10 C56 1_555 1_555
P2 B2 1_555 1_555
C89 H147 1_555 1_555
C90 C89 1_555 1_555
H148 C90 1_555 1_555
C91 C90 1_555 1_555
H149 C91 1_555 1_555
C92 C91 1_555 1_555
H150 C92 1_555 1_555
C93 C92 1_555 1_555
H151 C93 1_555 1_555
C94 C89 1_555 1_555
H152 C94 1_555 1_555
C95 H153 1_555 1_555
C96 C95 1_555 1_555
H154 C96 1_555 1_555
C97 C96 1_555 1_555
H155 C97 1_555 1_555
C98 C97 1_555 1_555
H156 C98 1_555 1_555
C99 C98 1_555 1_555
H157 C99 1_555 1_555
C100 C95 1_555 1_555
H158 C100 1_555 1_555
C3 N2 1_555 1_555
C7 N3 1_555 1_555
C12 N4 1_555 1_555
C13 N5 1_555 1_555
C14 N4 1_555 1_555
C21 C22 1_555 1_555
C26 N5 1_555 1_555
C33 C34 1_555 1_555
N2 P1 1_555 1_555
N3 P1 1_555 1_555
C48 N7 1_555 1_555
C52 N8 1_555 1_555
C57 N9 1_555 1_555
C58 N10 1_555 1_555
C59 N9 1_555 1_555
C66 C67 1_555 1_555
C71 N10 1_555 1_555
C78 C79 1_555 1_555
N7 P2 1_555 1_555
N8 P2 1_555 1_555
C93 C94 1_555 1_555
C99 C100 1_555 1_555

#END
