
#######################################################################
#
#                 Cambridge Crystallographic Data Centre
#                                CCDC 
#
#######################################################################
#
# If this CIF has been generated from an entry in the Cambridge 
# Structural Database, then it will include bibliographic, chemical, 
# crystal, experimental, refinement or atomic coordinate data resulting 
# from the CCDC's data processing and validation procedures.
#
#######################################################################

data_ICEDUQ02
_chemical_formula_moiety         'C12 H14 N8'
_chemical_name_systematic        
3,6-bis(3,5-Dimethyl-1H-pyrazol-1-yl)-1,2,4,5-tetrazine
_symmetry_cell_setting           monoclinic
_symmetry_space_group_name_H-M   'P 21/c'
_symmetry_Int_Tables_number      14
_space_group_name_Hall           '-P 2ybc'
loop_
_symmetry_equiv_pos_site_id
_symmetry_equiv_pos_as_xyz
1 x,y,z
2 -x,1/2+y,1/2-z
3 -x,-y,-z
4 x,1/2-y,1/2+z
_cell_length_a                   10.960(4)
_cell_length_b                   16.506(5)
_cell_length_c                   7.137(2)
_cell_angle_alpha                90
_cell_angle_beta                 103.895(4)
_cell_angle_gamma                90
_cell_volume                     1253.34
_exptl_crystal_colour            red
_exptl_crystal_description       Prism
_cell_formula_units_Z            4
loop_
_atom_site_label
_atom_site_type_symbol
_atom_site_fract_x
_atom_site_fract_y
_atom_site_fract_z
N1 N 0.6093(6) 0.2346(4) 0.7745(10)
N2 N 0.9014(6) 0.4878(4) 0.7216(10)
N3 N 0.6398(6) 0.3731(4) 0.7808(10)
N4 N 0.7122(6) 0.4373(4) 0.7730(11)
C1 C 1.0568(8) 0.5720(5) 0.7398(11)
H1 H 1.1376 0.5963 0.7627
N5 N 0.6593(6) 0.1574(4) 0.7709(10)
C2 C 0.6855(7) 0.3012(5) 0.7615(11)
N6 N 0.8455(6) 0.5605(4) 0.6524(10)
C3 C 0.9399(7) 0.6096(5) 0.6633(11)
N7 N 0.8704(6) 0.3479(4) 0.7116(11)
C4 C 0.4585(7) 0.1515(5) 0.8022(12)
H2 H 0.3815 0.1285 0.8155
N8 N 0.7983(6) 0.2841(4) 0.7267(11)
C5 C 0.4045(7) 0.3038(5) 0.7971(12)
H3 H 0.4443 0.3395 0.9039
H4 H 0.3224 0.2863 0.8139
H5 H 0.3935 0.3330 0.6747
C6 C 1.1167(8) 0.4263(5) 0.8593(11)
H6 H 1.1298 0.3907 0.7560
H7 H 1.0796 0.3951 0.9486
H8 H 1.1975 0.4488 0.9293
C7 C 0.5679(8) 0.1085(5) 0.7856(12)
C8 C 0.9169(8) 0.6964(5) 0.6012(12)
H9 H 0.8264 0.7054 0.5522
H10 H 0.9601 0.7083 0.4991
H11 H 0.9490 0.7321 0.7117
C9 C 0.8249(7) 0.4210(5) 0.7354(12)
C10 C 0.4853(7) 0.2319(5) 0.7955(12)
C11 C 1.0299(8) 0.4938(5) 0.7739(11)
C12 C 0.5868(8) 0.0185(5) 0.7849(14)
H12 H 0.6756 0.0066 0.7942
H13 H 0.5356 -0.0044 0.6648
H14 H 0.5614 -0.0056 0.8952
loop_
_geom_bond_atom_site_label_1
_geom_bond_atom_site_label_2
_geom_bond_site_symmetry_1
_geom_bond_site_symmetry_2
N1 N5 1_555 1_555
N2 N6 1_555 1_555
N3 N4 1_555 1_555
N4 C9 1_555 1_555
C1 H1 1_555 1_555
N5 C7 1_555 1_555
C2 N1 1_555 1_555
N6 C3 1_555 1_555
C3 C1 1_555 1_555
N7 N8 1_555 1_555
C4 H2 1_555 1_555
N8 C2 1_555 1_555
C5 H3 1_555 1_555
H4 C5 1_555 1_555
H5 C5 1_555 1_555
C6 H6 1_555 1_555
H7 C6 1_555 1_555
H8 C6 1_555 1_555
C7 C4 1_555 1_555
C8 C3 1_555 1_555
H9 C8 1_555 1_555
H10 C8 1_555 1_555
H11 C8 1_555 1_555
C9 N2 1_555 1_555
C10 N1 1_555 1_555
C11 N2 1_555 1_555
C12 C7 1_555 1_555
H12 C12 1_555 1_555
H13 C12 1_555 1_555
H14 C12 1_555 1_555
N3 C2 1_555 1_555
C1 C11 1_555 1_555
N7 C9 1_555 1_555
C4 C10 1_555 1_555
C5 C10 1_555 1_555
C6 C11 1_555 1_555

#END
