
#######################################################################
#
#                 Cambridge Crystallographic Data Centre
#                                CCDC 
#
#######################################################################
#
# If this CIF has been generated from an entry in the Cambridge 
# Structural Database, then it will include bibliographic, chemical, 
# crystal, experimental, refinement or atomic coordinate data resulting 
# from the CCDC's data processing and validation procedures.
#
#######################################################################

data_ICENEJ01
_chemical_formula_moiety         'C20 H21 F6 N1 O4 S1,0.5(H2 O1)'
_chemical_name_systematic        
'(R,+)-1,1,1-Trifluoro-3-((3,4,5-trimethoxyphenyl)-((3-(trifluoromethylthio)phenyl)methyl)amino)propan-2-ol hemihydrate'
_symmetry_cell_setting           orthorhombic
_symmetry_space_group_name_H-M   'P 21 21 2'
_symmetry_Int_Tables_number      18
_space_group_name_Hall           'P 2 2ab'
loop_
_symmetry_equiv_pos_site_id
_symmetry_equiv_pos_as_xyz
1 x,y,z
2 -x,-y,z
3 1/2+x,1/2-y,-z
4 1/2-x,1/2+y,-z
_cell_length_a                   20.7310(3)
_cell_length_b                   9.0848(1)
_cell_length_c                   14.1122(2)
_cell_angle_alpha                90
_cell_angle_beta                 90
_cell_angle_gamma                90
_cell_volume                     2657.85
_exptl_crystal_colour            white
_chemical_melting_point          '88.9-89.1 deg.C'
_cell_formula_units_Z            4
loop_
_atom_site_label
_atom_site_type_symbol
_atom_site_fract_x
_atom_site_fract_y
_atom_site_fract_z
S1 S 0.7968(1) 0.8767(2) 0.3862(1)
O1 O 0.6321(2) 0.9617(3) -0.1148(2)
O2 O 0.5435(1) 0.2906(3) -0.0979(2)
O3 O 0.5417(1) 0.2077(3) 0.0827(2)
O4 O 0.6094(1) 0.3591(3) 0.2148(2)
N1 N 0.6920(1) 0.6895(3) -0.0257(2)
F1 F 0.6806(1) 0.8888(4) -0.2985(2)
F2 F 0.5778(1) 0.9094(3) -0.2890(2)
F3 F 0.6203(2) 0.6961(4) -0.2988(2)
F4 F 0.6930(3) 0.8021(8) 0.4715(4)
F5 F 0.7426(3) 0.6251(5) 0.4110(3)
F6 F 0.7784(3) 0.7318(5) 0.5359(2)
C1 C 0.6278(2) 0.8293(5) -0.2607(3)
C2 C 0.6325(2) 0.8199(4) -0.1531(3)
C3 C 0.6929(2) 0.7371(4) -0.1234(2)
C4 C 0.6548(2) 0.5675(4) 0.0001(2)
C5 C 0.6179(2) 0.4905(4) -0.0662(2)
C6 C 0.5810(2) 0.3726(4) -0.0371(3)
C7 C 0.5779(2) 0.3295(4) 0.0564(3)
C8 C 0.6154(2) 0.4064(4) 0.1224(2)
C9 C 0.6534(2) 0.5218(3) 0.0957(2)
C10 C 0.5514(2) 0.3075(5) -0.1961(3)
C11 C 0.4821(2) 0.2478(5) 0.1281(4)
C12 C 0.6434(2) 0.4378(5) 0.2857(3)
C13 C 0.7456(2) 0.7319(4) 0.0349(2)
C14 C 0.7281(2) 0.8226(4) 0.1201(2)
C15 C 0.7614(2) 0.8035(4) 0.2045(3)
C16 C 0.7477(2) 0.8915(5) 0.2825(3)
C17 C 0.6999(2) 0.9968(5) 0.2780(3)
C18 C 0.6656(2) 1.0144(4) 0.1950(3)
C19 C 0.6800(2) 0.9299(3) 0.1175(3)
C20 C 0.7502(3) 0.7547(6) 0.4480(4)
H1 H 0.6979 0.6506 -0.1642
H2 H 0.7304 0.8007 -0.1333
H3 H 0.6182 0.5188 -0.1303
H4 H 0.6787 0.5709 0.1410
H5 H 0.5383 0.4059 -0.2146
H6 H 0.5250 0.2357 -0.2290
H7 H 0.5963 0.2925 -0.2125
H8 H 0.4912 0.3041 0.1849
H9 H 0.4584 0.1595 0.1448
H10 H 0.4564 0.3070 0.0850
H11 H 0.6892 0.4361 0.2715
H12 H 0.6359 0.3923 0.3468
H13 H 0.6284 0.5389 0.2871
H14 H 0.7766 0.7875 -0.0032
H15 H 0.7672 0.6422 0.0567
H16 H 0.7934 0.7305 0.2089
H17 H 0.6908 1.0561 0.3310
H18 H 0.6323 1.0843 0.1917
H19 H 0.6569 0.9446 0.0610
H20 H 0.5980(30) 0.9970(90) -0.1350(50)
H21 H 0.6021(15) 0.7690(30) -0.1350(20)
O5 O 0.5000 0.0000 0.9389(3)
loop_
_geom_bond_atom_site_label_1
_geom_bond_atom_site_label_2
_geom_bond_site_symmetry_1
_geom_bond_site_symmetry_2
S1 C16 1_555 1_555
O1 C2 1_555 1_555
O2 C6 1_555 1_555
O3 C7 1_555 1_555
O4 C8 1_555 1_555
N1 C3 1_555 1_555
F1 C1 1_555 1_555
F2 C1 1_555 1_555
F3 C1 1_555 1_555
F4 C20 1_555 1_555
F5 C20 1_555 1_555
F6 C20 1_555 1_555
C1 C2 1_555 1_555
C2 C3 1_555 1_555
C3 H1 1_555 1_555
C4 N1 1_555 1_555
C5 C4 1_555 1_555
C6 C5 1_555 1_555
C7 C6 1_555 1_555
C8 C7 1_555 1_555
C9 C4 1_555 1_555
C10 O2 1_555 1_555
C11 O3 1_555 1_555
C12 O4 1_555 1_555
C13 N1 1_555 1_555
C14 C13 1_555 1_555
C15 C14 1_555 1_555
C16 C15 1_555 1_555
C17 C16 1_555 1_555
C18 C17 1_555 1_555
C19 C14 1_555 1_555
C20 S1 1_555 1_555
H2 C3 1_555 1_555
H3 C5 1_555 1_555
H4 C9 1_555 1_555
H5 C10 1_555 1_555
H6 C10 1_555 1_555
H7 C10 1_555 1_555
H8 C11 1_555 1_555
H9 C11 1_555 1_555
H10 C11 1_555 1_555
H11 C12 1_555 1_555
H12 C12 1_555 1_555
H13 C12 1_555 1_555
H14 C13 1_555 1_555
H15 C13 1_555 1_555
H16 C15 1_555 1_555
H17 C17 1_555 1_555
H18 C18 1_555 1_555
H19 C19 1_555 1_555
H20 O1 1_555 1_555
H21 C2 1_555 1_555
C8 C9 1_555 1_555
C18 C19 1_555 1_555

#END
