
#######################################################################
#
#                 Cambridge Crystallographic Data Centre
#                                CCDC 
#
#######################################################################
#
# If this CIF has been generated from an entry in the Cambridge 
# Structural Database, then it will include bibliographic, chemical, 
# crystal, experimental, refinement or atomic coordinate data resulting 
# from the CCDC's data processing and validation procedures.
#
#######################################################################

data_ICEPOX01
_chemical_name_common            'Bupropion hydrobromide'
_chemical_formula_moiety         'C13 H19 Cl1 N1 O1 1+,Br1 1-'
_chemical_name_systematic        
'(+-)-N-t-Butyl-1-(3-chlorophenyl)-1-oxopropan-2-aminium bromide'
_chemical_properties_biological  
'Bupropion hydrobromide is an antidepressant drug'
_symmetry_cell_setting           orthorhombic
_symmetry_space_group_name_H-M   'P b c a'
_symmetry_Int_Tables_number      61
_space_group_name_Hall           '-P 2ac 2ab'
loop_
_symmetry_equiv_pos_site_id
_symmetry_equiv_pos_as_xyz
1 x,y,z
2 1/2-x,-y,1/2+z
3 1/2+x,1/2-y,-z
4 -x,1/2+y,1/2-z
5 -x,-y,-z
6 1/2+x,y,1/2-z
7 1/2-x,1/2+y,z
8 x,1/2-y,1/2+z
_cell_length_a                   8.6365(3)
_cell_length_b                   12.4167(4)
_cell_length_c                   27.7299(9)
_cell_angle_alpha                90
_cell_angle_beta                 90
_cell_angle_gamma                90
_cell_volume                     2973.67
_exptl_crystal_colour            colorless
_exptl_crystal_description       chunk
_cell_formula_units_Z            8
loop_
_atom_site_label
_atom_site_type_symbol
_atom_site_fract_x
_atom_site_fract_y
_atom_site_fract_z
Cl1 Cl 0.64902(16) 0.13486(10) 0.30782(5)
O1 O 0.2252(3) 0.5302(2) 0.36148(10)
N1 N 0.0897(3) 0.4013(2) 0.42945(10)
H1 H 0.0641 0.4701 0.4232
H2 H 0.0795 0.3916 0.4615
C1 C 0.4152(4) 0.4049(3) 0.33702(12)
C2 C 0.4685(4) 0.2986(3) 0.33869(13)
H3 H 0.4304 0.2506 0.3616
C3 C 0.2923(4) 0.4466(3) 0.37016(13)
C4 C 0.4730(5) 0.4749(4) 0.30249(14)
H4 H 0.4370 0.5455 0.3012
C5 C 0.2563(4) 0.3873(3) 0.41720(13)
H5 H 0.2803 0.3106 0.4137
C6 C 0.5790(5) 0.2662(3) 0.30557(14)
C7 C 0.6378(5) 0.3355(4) 0.27142(15)
H6 H 0.7125 0.3121 0.2496
C8 C 0.3555(5) 0.4362(4) 0.45698(14)
H7 H 0.3289 0.5107 0.4610
H8 H 0.4628 0.4302 0.4484
H9 H 0.3371 0.3984 0.4866
C9 C 0.5842(5) 0.4404(4) 0.26997(15)
H10 H 0.6229 0.4880 0.2471
C10 C -0.0297(5) 0.3291(3) 0.40443(15)
C11 C -0.0103(5) 0.3351(4) 0.35035(17)
H11 H 0.0898 0.3077 0.3416
H12 H -0.0191 0.4087 0.3400
H13 H -0.0893 0.2927 0.3350
C12 C -0.0049(5) 0.2142(3) 0.42227(19)
H14 H -0.0860 0.1688 0.4101
H15 H -0.0066 0.2132 0.4569
H16 H 0.0934 0.1882 0.4110
C13 C -0.1869(5) 0.3719(4) 0.4196(2)
H17 H -0.2015 0.4427 0.4064
H18 H -0.1921 0.3752 0.4541
H19 H -0.2665 0.3249 0.4077
Br1 Br 0.01842(6) 0.34893(3) 0.545477(15)
loop_
_geom_bond_atom_site_label_1
_geom_bond_atom_site_label_2
_geom_bond_site_symmetry_1
_geom_bond_site_symmetry_2
Cl1 C6 1_555 1_555
O1 C3 1_555 1_555
N1 H1 1_555 1_555
H2 N1 1_555 1_555
C1 C2 1_555 1_555
C2 H3 1_555 1_555
C3 C1 1_555 1_555
C4 C1 1_555 1_555
H4 C4 1_555 1_555
C5 N1 1_555 1_555
H5 C5 1_555 1_555
C6 C2 1_555 1_555
C7 C6 1_555 1_555
H6 C7 1_555 1_555
C8 C5 1_555 1_555
H7 C8 1_555 1_555
H8 C8 1_555 1_555
H9 C8 1_555 1_555
C9 C4 1_555 1_555
H10 C9 1_555 1_555
C10 N1 1_555 1_555
C11 C10 1_555 1_555
H11 C11 1_555 1_555
H12 C11 1_555 1_555
H13 C11 1_555 1_555
C12 C10 1_555 1_555
H14 C12 1_555 1_555
H15 C12 1_555 1_555
H16 C12 1_555 1_555
C13 C10 1_555 1_555
H17 C13 1_555 1_555
H18 C13 1_555 1_555
H19 C13 1_555 1_555
C3 C5 1_555 1_555
C7 C9 1_555 1_555

#END
