
#######################################################################
#
#                 Cambridge Crystallographic Data Centre
#                                CCDC 
#
#######################################################################
#
# If this CIF has been generated from an entry in the Cambridge 
# Structural Database, then it will include bibliographic, chemical, 
# crystal, experimental, refinement or atomic coordinate data resulting 
# from the CCDC's data processing and validation procedures.
#
#######################################################################

data_ICEQEO
_chemical_formula_moiety         'C26 H23 N2 1+,I1 1-,C1 H1 Cl3'
_chemical_name_systematic        
'4-(2-(4-(Diphenylamino)phenyl)vinyl)-1-methylpyridinium iodide chloroform solvate'
_symmetry_cell_setting           orthorhombic
_symmetry_space_group_name_H-M   'P b c a'
_symmetry_Int_Tables_number      61
_space_group_name_Hall           '-P 2ac 2ab'
loop_
_symmetry_equiv_pos_site_id
_symmetry_equiv_pos_as_xyz
1 x,y,z
2 1/2-x,-y,1/2+z
3 1/2+x,1/2-y,-z
4 -x,1/2+y,1/2-z
5 -x,-y,-z
6 1/2+x,y,1/2-z
7 1/2-x,1/2+y,z
8 x,1/2-y,1/2+z
_cell_length_a                   15.422(5)
_cell_length_b                   14.042(5)
_cell_length_c                   24.693(5)
_cell_angle_alpha                90
_cell_angle_beta                 90
_cell_angle_gamma                90
_cell_volume                     5347.41
_exptl_crystal_colour            red
_exptl_crystal_description       prism
_cell_formula_units_Z            8
_exptl_crystal_recrystallization_method chloroform/ethanol
loop_
_atom_site_label
_atom_site_type_symbol
_atom_site_fract_x
_atom_site_fract_y
_atom_site_fract_z
C1 C 0.7725(3) 0.9317(3) 0.8174(2)
H1 H 0.7216 0.9503 0.8372
H2 H 0.7879 0.9813 0.7925
H3 H 0.8195 0.9212 0.8422
C2 C 0.8170(3) 0.8029(3) 0.75620(17)
H4 H 0.8713 0.8314 0.7537
C3 C 0.8002(3) 0.7210(3) 0.72873(17)
H5 H 0.8440 0.6925 0.7085
C4 C 0.6762(3) 0.8028(3) 0.7898(2)
H6 H 0.6337 0.8312 0.8111
C5 C 0.6565(3) 0.7219(3) 0.7624(2)
H7 H 0.6014 0.6954 0.7652
C6 C 0.7183(3) 0.6793(3) 0.73050(18)
C7 C 0.6943(3) 0.5926(3) 0.69960(19)
H8 H 0.6354 0.5793 0.6962
C8 C 0.7473(3) 0.5339(3) 0.67707(18)
H9 H 0.8060 0.5479 0.6801
C9 C 0.7242(3) 0.4467(3) 0.64695(17)
C10 C 0.6400(3) 0.4238(3) 0.63095(17)
H10 H 0.5946 0.4635 0.6413
C11 C 0.6219(3) 0.3440(3) 0.60017(18)
H11 H 0.5651 0.3311 0.5900
C12 C 0.7897(3) 0.3856(3) 0.63109(16)
H12 H 0.8467 0.3994 0.6408
C13 C 0.7725(3) 0.3046(3) 0.60116(17)
H13 H 0.8177 0.2638 0.5921
C14 C 0.6884(3) 0.2831(3) 0.58439(17)
C15 C 0.7374(3) 0.1610(3) 0.51892(18)
C16 C 0.7880(3) 0.2164(3) 0.48510(19)
H14 H 0.7793 0.2819 0.4841
C17 C 0.8506(3) 0.1765(3) 0.45312(19)
H15 H 0.8846 0.2148 0.4309
C18 C 0.8634(3) 0.0790(3) 0.4538(2)
H16 H 0.9053 0.0514 0.4317
C19 C 0.8140(3) 0.0240(3) 0.4872(2)
H17 H 0.8231 -0.0415 0.4881
C20 C 0.7510(3) 0.0634(3) 0.51954(19)
H18 H 0.7175 0.0247 0.5418
C21 C 0.5872(3) 0.1609(3) 0.55193(19)
C22 C 0.5474(3) 0.1300(3) 0.59885(19)
H19 H 0.5760 0.1359 0.6318
C23 C 0.4660(3) 0.0905(3) 0.5971(2)
H20 H 0.4398 0.0703 0.6290
C24 C 0.4232(3) 0.0807(3) 0.5493(2)
H21 H 0.3681 0.0540 0.5485
C25 C 0.4616(3) 0.1102(3) 0.5028(2)
H22 H 0.4324 0.1033 0.4701
C26 C 0.5439(3) 0.1506(3) 0.50333(18)
H23 H 0.5696 0.1704 0.4712
N1 N 0.7546(3) 0.8430(2) 0.78719(15)
N2 N 0.6722(2) 0.2019(2) 0.55308(15)
C27 C 0.4531(3) 0.6690(3) 0.63233(18)
H24 H 0.4610 0.6220 0.6612
Cl1 Cl 0.51286(9) 0.63200(9) 0.57558(6)
Cl2 Cl 0.49082(9) 0.77873(10) 0.65546(6)
Cl3 Cl 0.34280(9) 0.67558(11) 0.61677(6)
I1 I 0.472455(18) 0.49595(2) 0.750907(13)
loop_
_geom_bond_atom_site_label_1
_geom_bond_atom_site_label_2
_geom_bond_site_symmetry_1
_geom_bond_site_symmetry_2
C1 H1 1_555 1_555
H2 C1 1_555 1_555
H3 C1 1_555 1_555
C2 H4 1_555 1_555
C3 C2 1_555 1_555
H5 C3 1_555 1_555
C4 H6 1_555 1_555
C5 C4 1_555 1_555
H7 C5 1_555 1_555
C6 C3 1_555 1_555
C7 C6 1_555 1_555
H8 C7 1_555 1_555
C8 C7 1_555 1_555
H9 C8 1_555 1_555
C9 C8 1_555 1_555
C10 C9 1_555 1_555
H10 C10 1_555 1_555
C11 C10 1_555 1_555
H11 C11 1_555 1_555
C12 C9 1_555 1_555
H12 C12 1_555 1_555
C13 C12 1_555 1_555
H13 C13 1_555 1_555
C14 C11 1_555 1_555
C15 C16 1_555 1_555
C16 H14 1_555 1_555
C17 C16 1_555 1_555
H15 C17 1_555 1_555
C18 C17 1_555 1_555
H16 C18 1_555 1_555
C19 C18 1_555 1_555
H17 C19 1_555 1_555
C20 C15 1_555 1_555
H18 C20 1_555 1_555
C21 C22 1_555 1_555
C22 H19 1_555 1_555
C23 C22 1_555 1_555
H20 C23 1_555 1_555
C24 C23 1_555 1_555
H21 C24 1_555 1_555
C25 C24 1_555 1_555
H22 C25 1_555 1_555
C26 C21 1_555 1_555
H23 C26 1_555 1_555
C27 H24 1_555 1_555
Cl1 C27 1_555 1_555
Cl2 C27 1_555 1_555
Cl3 C27 1_555 1_555
N1 C1 1_555 1_555
N2 C14 1_555 1_555
C2 N1 1_555 1_555
C4 N1 1_555 1_555
C5 C6 1_555 1_555
C13 C14 1_555 1_555
C15 N2 1_555 1_555
C19 C20 1_555 1_555
C21 N2 1_555 1_555
C25 C26 1_555 1_555

#END
