
#######################################################################
#
#                 Cambridge Crystallographic Data Centre
#                                CCDC 
#
#######################################################################
#
# If this CIF has been generated from an entry in the Cambridge 
# Structural Database, then it will include bibliographic, chemical, 
# crystal, experimental, refinement or atomic coordinate data resulting 
# from the CCDC's data processing and validation procedures.
#
#######################################################################

data_ICERIT
_chemical_formula_moiety         'C22 H19 Cl1 O4'
_chemical_name_systematic        
'2-Oxo-3-phenyl-1-oxaspiro[4.5]dec-3-en-4-yl 4-chlorobenzoate'
_symmetry_cell_setting           monoclinic
_symmetry_space_group_name_H-M   'P 21/n'
_symmetry_Int_Tables_number      14
_space_group_name_Hall           '-P 2yn'
loop_
_symmetry_equiv_pos_site_id
_symmetry_equiv_pos_as_xyz
1 x,y,z
2 1/2-x,1/2+y,1/2-z
3 -x,-y,-z
4 1/2+x,1/2-y,1/2+z
_cell_length_a                   10.6749(11)
_cell_length_b                   6.0573(7)
_cell_length_c                   29.680(2)
_cell_angle_alpha                90
_cell_angle_beta                 94.073(3)
_cell_angle_gamma                90
_cell_volume                     1914.29
_exptl_crystal_colour            colorless
_exptl_crystal_description       needle
_cell_formula_units_Z            4
_exptl_crystal_recrystallization_method ethanol
loop_
_atom_site_label
_atom_site_type_symbol
_atom_site_fract_x
_atom_site_fract_y
_atom_site_fract_z
Cl1 Cl 0.12660(11) 0.2324(2) 0.01251(3)
O1 O 0.8011(2) 1.1616(4) 0.23504(7)
O2 O 0.6200(2) 0.6961(3) 0.11999(7)
O3 O 0.88152(19) 0.9348(4) 0.18510(7)
C1 C 0.5410(3) 1.0548(5) 0.18905(10)
C2 C 0.7841(3) 1.0405(5) 0.20325(11)
C3 C 0.4573(3) 0.6371(6) 0.06401(10)
C4 C 0.6651(3) 0.9735(5) 0.17816(10)
O4 O 0.5851(3) 0.9633(5) 0.06858(9)
C5 C 0.5581(3) 0.7859(6) 0.08245(11)
C6 C 0.6975(3) 0.8265(5) 0.14798(10)
C7 C 0.8350(3) 0.7845(5) 0.14969(10)
C8 C 0.5275(3) 1.2628(6) 0.20683(10)
H1 H 0.5975 1.3531 0.2119
C9 C 0.4313(3) 0.4390(6) 0.08403(11)
H2 H 0.4821 0.3901 0.1088
C10 C 0.8680(3) 0.5505(6) 0.16495(12)
H3 H 0.8363 0.5251 0.1943
H4 H 0.8268 0.4466 0.1439
C11 C 0.2815(4) 0.5784(8) 0.01044(12)
H5 H 0.2309 0.6239 -0.0146
C12 C 0.2569(3) 0.3854(7) 0.03160(12)
C13 C 0.4352(4) 0.9231(7) 0.18177(12)
H6 H 0.4425 0.7820 0.1699
C14 C 0.3833(4) 0.7073(7) 0.02664(12)
H7 H 0.4012 0.8393 0.0124
C15 C 0.3313(4) 0.3127(7) 0.06779(11)
H8 H 0.3144 0.1787 0.0814
C16 C 1.0087(4) 0.5081(7) 0.16786(14)
H9 H 1.0490 0.5970 0.1919
H10 H 1.0247 0.3540 0.1751
C17 C 0.8935(3) 0.8462(7) 0.10627(11)
H11 H 0.8535 0.7622 0.0814
H12 H 0.8790 1.0016 0.1000
C18 C 1.0341(4) 0.8006(9) 0.10949(14)
H13 H 1.0757 0.9012 0.1311
H14 H 1.0669 0.8274 0.0803
C19 C 0.3071(4) 1.2061(9) 0.20985(14)
H15 H 0.2285 1.2563 0.2170
C20 C 0.3194(4) 1.0002(9) 0.19209(14)
H16 H 0.2489 0.9112 0.1869
C21 C 0.4105(4) 1.3389(7) 0.21723(12)
H17 H 0.4022 1.4797 0.2292
C22 C 1.0633(4) 0.5637(9) 0.12397(16)
H18 H 1.0294 0.4635 0.1007
H19 H 1.1536 0.5432 0.1272
loop_
_geom_bond_atom_site_label_1
_geom_bond_atom_site_label_2
_geom_bond_site_symmetry_1
_geom_bond_site_symmetry_2
Cl1 C12 1_555 1_555
O1 C2 1_555 1_555
O2 C5 1_555 1_555
O3 C2 1_555 1_555
C1 C4 1_555 1_555
C2 C4 1_555 1_555
C3 C5 1_555 1_555
C4 C6 1_555 1_555
O4 C5 1_555 1_555
C6 O2 1_555 1_555
C7 O3 1_555 1_555
C8 C1 1_555 1_555
H1 C8 1_555 1_555
C9 C3 1_555 1_555
H2 C9 1_555 1_555
C10 C7 1_555 1_555
H3 C10 1_555 1_555
H4 C10 1_555 1_555
C11 H5 1_555 1_555
C12 C11 1_555 1_555
C13 C1 1_555 1_555
H6 C13 1_555 1_555
C14 C3 1_555 1_555
H7 C14 1_555 1_555
C15 C9 1_555 1_555
H8 C15 1_555 1_555
C16 C10 1_555 1_555
H9 C16 1_555 1_555
H10 C16 1_555 1_555
C17 C7 1_555 1_555
H11 C17 1_555 1_555
H12 C17 1_555 1_555
C18 C17 1_555 1_555
H13 C18 1_555 1_555
H14 C18 1_555 1_555
C19 H15 1_555 1_555
C20 C13 1_555 1_555
H16 C20 1_555 1_555
C21 C8 1_555 1_555
H17 C21 1_555 1_555
C22 C16 1_555 1_555
H18 C22 1_555 1_555
H19 C22 1_555 1_555
C6 C7 1_555 1_555
C11 C14 1_555 1_555
C12 C15 1_555 1_555
C18 C22 1_555 1_555
C19 C20 1_555 1_555
C19 C21 1_555 1_555

#END
