
#######################################################################
#
#                 Cambridge Crystallographic Data Centre
#                                CCDC 
#
#######################################################################
#
# If this CIF has been generated from an entry in the Cambridge 
# Structural Database, then it will include bibliographic, chemical, 
# crystal, experimental, refinement or atomic coordinate data resulting 
# from the CCDC's data processing and validation procedures.
#
#######################################################################

data_ICERIU
_chemical_formula_moiety         'C20 H22 Cl1 N3 O1'
_chemical_name_systematic        
12-(4-chlorophenyl)-5-methyl-1,2,7,9,10,12-hexahydro-3H,8H-pyrazolo[1',2':1,2][1,2,4]triazino[4,5-a]indol-3-one
_symmetry_cell_setting           monoclinic
_symmetry_space_group_name_H-M   'P 21/c'
_symmetry_Int_Tables_number      14
_space_group_name_Hall           '-P 2ybc'
loop_
_symmetry_equiv_pos_site_id
_symmetry_equiv_pos_as_xyz
1 x,y,z
2 -x,1/2+y,1/2-z
3 -x,-y,-z
4 x,1/2-y,1/2+z
_cell_length_a                   20.4883(5)
_cell_length_b                   13.6623(3)
_cell_length_c                   13.2442(3)
_cell_angle_alpha                90
_cell_angle_beta                 107.797(3)
_cell_angle_gamma                90
_cell_volume                     3529.87
_exptl_crystal_colour            colorless
_exptl_crystal_description       prism
_cell_formula_units_Z            8
loop_
_atom_site_label
_atom_site_type_symbol
_atom_site_fract_x
_atom_site_fract_y
_atom_site_fract_z
Cl1 Cl 0.86453(3) 0.49339(3) 1.42479(4)
O1 O 0.98341(7) 0.73988(10) 0.79391(11)
N1 N 0.90248(8) 0.67791(10) 0.86272(11)
N2 N 0.88661(8) 0.67011(10) 0.96066(11)
N3 N 0.87598(7) 0.51270(10) 0.82628(11)
C1 C 0.90449(9) 0.55945(11) 1.11501(13)
C2 C 0.95541(10) 0.51929(14) 1.19932(15)
H1 H 0.9984 0.5068 1.1920
C3 C 0.85794(8) 0.35409(12) 0.84531(14)
C4 C 0.91870(9) 0.57733(12) 1.01123(13)
H2 H 0.9684 0.5811 1.0243
C5 C 0.86885(9) 0.61061(12) 0.77884(13)
H3 H 0.8928 0.6119 0.7251
C6 C 0.87927(9) 0.39852(12) 0.94731(13)
H4 H 0.8850 0.3672 1.0118
C7 C 0.88044(11) 0.51918(13) 1.30507(14)
C8 C 0.85588(8) 0.42585(12) 0.77187(13)
C9 C 0.95876(9) 0.73191(12) 0.86642(14)
C10 C 0.84008(10) 0.41277(13) 0.65528(14)
H5 H 0.8723 0.4497 0.6298
H6 H 0.7942 0.4364 0.6192
C11 C 0.92233(10) 0.75801(12) 1.01932(14)
H7 H 0.9395 0.7447 1.0948
H8 H 0.8912 0.8133 1.0080
C12 C 0.84532(9) 0.30330(14) 0.63241(15)
H9 H 0.8260 0.2916 0.5569
H10 H 0.8932 0.2841 0.6535
C13 C 0.84133(10) 0.24905(13) 0.81284(15)
H11 H 0.8108 0.2228 0.8494
H12 H 0.8831 0.2105 0.8332
C14 C 0.88994(8) 0.49589(12) 0.93327(13)
C15 C 0.94336(11) 0.49738(14) 1.29440(15)
H13 H 0.9773 0.4685 1.3498
C16 C 0.84088(10) 0.57924(14) 1.12729(15)
H14 H 0.8061 0.6054 1.0711
C17 C 0.82894(11) 0.56022(15) 1.22279(16)
H15 H 0.7867 0.5749 1.2315
C18 C 0.79457(10) 0.63789(14) 0.72674(16)
H16 H 0.7708 0.6378 0.7789
H17 H 0.7737 0.5912 0.6723
H18 H 0.7921 0.7019 0.6960
C19 C 0.98169(10) 0.77985(13) 0.97508(15)
H19 H 0.9879 0.8498 0.9694
H20 H 1.0242 0.7514 1.0194
C20 C 0.80717(10) 0.24134(13) 0.69230(15)
H21 H 0.8069 0.1735 0.6706
H22 H 0.7600 0.2634 0.6746
Cl2 Cl 0.65573(4) 0.49768(4) 1.06709(4)
O2 O 0.49908(7) 0.25736(11) 0.31911(12)
N4 N 0.58428(8) 0.32211(11) 0.45733(12)
N5 N 0.60704(8) 0.32753(10) 0.57114(12)
N6 N 0.61722(7) 0.48508(11) 0.44657(11)
C21 C 0.66768(10) 0.42829(13) 0.78005(15)
H23 H 0.7013 0.4101 0.7499
C22 C 0.64512(9) 0.64048(13) 0.48875(14)
C23 C 0.68766(10) 0.34990(14) 0.40764(16)
H24 H 0.7139 0.3414 0.4807
H25 H 0.7100 0.3967 0.3753
H26 H 0.6841 0.2884 0.3713
C24 C 0.61620(9) 0.38663(13) 0.40051(14)
H27 H 0.5883 0.3884 0.3258
C25 C 0.62426(9) 0.59700(12) 0.57151(14)
H28 H 0.6222 0.6278 0.6330
C26 C 0.68553(10) 0.44549(13) 0.88833(15)
H29 H 0.7306 0.4380 0.9312
C27 C 0.59999(9) 0.43796(12) 0.71593(14)
C28 C 0.55021(10) 0.46587(14) 0.76167(16)
H30 H 0.5048 0.4716 0.7196
C29 C 0.57974(8) 0.42221(12) 0.59769(14)
H31 H 0.5296 0.4218 0.5689
C30 C 0.66803(10) 0.74351(13) 0.47705(15)
H32 H 0.7166(12) 0.7517(16) 0.5227(18)
H33 H 0.6426(11) 0.7919(17) 0.5021(18)
C31 C 0.60780(8) 0.50138(12) 0.54402(13)
C32 C 0.52728(9) 0.26700(13) 0.41434(16)
C33 C 0.65250(10) 0.58617(15) 0.30827(15)
H34 H 0.6095 0.5812 0.2515
H35 H 0.6832 0.5361 0.2974
C34 C 0.64023(8) 0.57052(13) 0.41276(14)
C35 C 0.63454(12) 0.47412(13) 0.93128(15)
C36 C 0.50973(11) 0.22086(15) 0.50599(18)
H36 H 0.5021 0.1511 0.4951
H37 H 0.4691 0.2506 0.5157
C37 C 0.56750(11) 0.48533(15) 0.86935(17)
H38 H 0.5342 0.5057 0.8993
C38 C 0.68378(13) 0.68649(15) 0.30587(18)
H39 H 0.6754 0.7052 0.2324
H40 H 0.7330 0.6812 0.3379
C39 C 0.57278(10) 0.24121(13) 0.60100(17)
H41 H 0.5593 0.2553 0.6637
H42 H 0.6033 0.1852 0.6155
C40 C 0.6577(2) 0.7684(2) 0.3618(2)
H43 H 0.6819 0.8285 0.3576
H44 H 0.6093 0.7791 0.3261
C41? C 0.7007(9) 0.7420(8) 0.3873(9)
loop_
_geom_bond_atom_site_label_1
_geom_bond_atom_site_label_2
_geom_bond_site_symmetry_1
_geom_bond_site_symmetry_2
Cl1 C7 1_555 1_555
O1 C9 1_555 1_555
N1 N2 1_555 1_555
N2 C4 1_555 1_555
N3 C5 1_555 1_555
C1 C2 1_555 1_555
C2 H1 1_555 1_555
C3 C6 1_555 1_555
C4 C1 1_555 1_555
H2 C4 1_555 1_555
C5 N1 1_555 1_555
H3 C5 1_555 1_555
C6 H4 1_555 1_555
C7 C15 1_555 1_555
C8 N3 1_555 1_555
C9 N1 1_555 1_555
C10 C8 1_555 1_555
H5 C10 1_555 1_555
H6 C10 1_555 1_555
C11 N2 1_555 1_555
H7 C11 1_555 1_555
H8 C11 1_555 1_555
C12 C10 1_555 1_555
H9 C12 1_555 1_555
H10 C12 1_555 1_555
C13 C3 1_555 1_555
H11 C13 1_555 1_555
H12 C13 1_555 1_555
C14 N3 1_555 1_555
C15 C2 1_555 1_555
H13 C15 1_555 1_555
C16 C1 1_555 1_555
H14 C16 1_555 1_555
C17 C7 1_555 1_555
H15 C17 1_555 1_555
C18 C5 1_555 1_555
H16 C18 1_555 1_555
H17 C18 1_555 1_555
H18 C18 1_555 1_555
C19 C9 1_555 1_555
H19 C19 1_555 1_555
H20 C19 1_555 1_555
C20 C12 1_555 1_555
H21 C20 1_555 1_555
H22 C20 1_555 1_555
Cl2 C35 1_555 1_555
O2 C32 1_555 1_555
N4 N5 1_555 1_555
N5 C29 1_555 1_555
N6 C24 1_555 1_555
C21 H23 1_555 1_555
C22 C25 1_555 1_555
C23 H24 1_555 1_555
H25 C23 1_555 1_555
H26 C23 1_555 1_555
C24 N4 1_555 1_555
H27 C24 1_555 1_555
C25 H28 1_555 1_555
C26 C21 1_555 1_555
H29 C26 1_555 1_555
C27 C21 1_555 1_555
C28 C27 1_555 1_555
H30 C28 1_555 1_555
C29 C27 1_555 1_555
H31 C29 1_555 1_555
C30 C22 1_555 1_555
H32 C30 1_555 1_555
H33 C30 1_555 1_555
C31 N6 1_555 1_555
C32 N4 1_555 1_555
C33 H34 1_555 1_555
H35 C33 1_555 1_555
C34 N6 1_555 1_555
C35 C26 1_555 1_555
C36 C32 1_555 1_555
H36 C36 1_555 1_555
H37 C36 1_555 1_555
C37 C28 1_555 1_555
H38 C37 1_555 1_555
C38 C33 1_555 1_555
H39 C38 1_555 1_555
H40 C38 1_555 1_555
C39 N5 1_555 1_555
H41 C39 1_555 1_555
H42 C39 1_555 1_555
C40 C30 1_555 1_555
H43 C40 1_555 1_555
H44 C40 1_555 1_555
C3 C8 1_555 1_555
C4 C14 1_555 1_555
C6 C14 1_555 1_555
C11 C19 1_555 1_555
C13 C20 1_555 1_555
C16 C17 1_555 1_555
C22 C34 1_555 1_555
C23 C24 1_555 1_555
C25 C31 1_555 1_555
C29 C31 1_555 1_555
C33 C34 1_555 1_555
C35 C37 1_555 1_555
C36 C39 1_555 1_555
C38 C40 1_555 1_555

#END
