
#######################################################################
#
#                 Cambridge Crystallographic Data Centre
#                                CCDC 
#
#######################################################################
#
# If this CIF has been generated from an entry in the Cambridge 
# Structural Database, then it will include bibliographic, chemical, 
# crystal, experimental, refinement or atomic coordinate data resulting 
# from the CCDC's data processing and validation procedures.
#
#######################################################################

data_ICEROA
_chemical_formula_moiety         'C22 H27 N3 O1'
_chemical_name_systematic        
5-benzyl-7,11,11-trimethyl-1,2,3,10,11,12a-hexahydro-9H-pyrazolo[1',2':1,2][1,2,4]triazino[6,5,4-hi]indol-9-one
_symmetry_cell_setting           triclinic
_symmetry_space_group_name_H-M   'P -1'
_symmetry_Int_Tables_number      2
_space_group_name_Hall           '-P 1'
loop_
_symmetry_equiv_pos_site_id
_symmetry_equiv_pos_as_xyz
1 x,y,z
2 -x,-y,-z
_cell_length_a                   9.6834(3)
_cell_length_b                   9.8620(4)
_cell_length_c                   10.1119(5)
_cell_angle_alpha                97.912(4)
_cell_angle_beta                 99.103(3)
_cell_angle_gamma                96.761(3)
_cell_volume                     934.767
_exptl_crystal_colour            colorless
_exptl_crystal_description       prism
_cell_formula_units_Z            2
loop_
_atom_site_label
_atom_site_type_symbol
_atom_site_fract_x
_atom_site_fract_y
_atom_site_fract_z
O1 O 0.99048(9) 0.82191(8) 0.87777(8)
N1 N 1.10276(9) 1.16385(9) 0.74224(9)
N2 N 1.16115(10) 0.95528(10) 0.80069(9)
N3 N 1.26709(9) 0.94546(10) 0.71470(9)
C1 C 1.15944(11) 1.13088(11) 0.62662(11)
C2 C 1.20624(11) 0.99311(11) 0.58662(11)
H1 H 1.1252 0.9264 0.5375
C3 C 1.08511(11) 0.83439(12) 0.81094(11)
C4 C 0.78312(13) 1.47035(13) 0.79392(12)
H2 H 0.8401 1.5532 0.7943
C5 C 1.00453(12) 1.36434(12) 0.86132(11)
H3 H 1.0458 1.4609 0.8850
H4 H 1.0279 1.3204 0.9405
C6 C 0.84488(12) 1.35583(12) 0.82648(11)
C7 C 1.28598(12) 0.79425(12) 0.70922(11)
C8 C 1.25171(12) 1.09567(12) 0.38000(11)
H5 H 1.3153 1.0998 0.3150
H6 H 1.1620 1.0438 0.3328
C9 C 1.06987(11) 1.29716(11) 0.74801(11)
C10 C 0.75713(13) 1.23323(12) 0.82698(12)
H7 H 0.7967 1.1563 0.8499
C11 C 1.22905(12) 1.24270(12) 0.43385(11)
H8 H 1.3190 1.3029 0.4563
H9 H 1.1683 1.2780 0.3648
C12 C 1.13604(11) 1.09040(11) 0.85798(11)
H10 H 1.0539 1.0804 0.9033
C13 C 1.16218(11) 1.24096(12) 0.55819(11)
C14 C 1.10339(12) 1.34559(12) 0.63395(11)
H11 H 1.0900 1.4316 0.6104
C15 C 1.31348(12) 1.01923(12) 0.49321(11)
H12 H 1.3373 0.9317 0.4534
H13 H 1.3993 1.0742 0.5457
C16 C 1.14300(12) 0.72225(12) 0.72885(12)
H14 H 1.0812 0.6891 0.6423
H15 H 1.1551 0.6450 0.7774
C17 C 1.26352(12) 1.16568(13) 0.96037(11)
H16 H 1.2466 1.2575 0.9920
H17 H 1.3456 1.1706 0.9180
H18 H 1.2788 1.1164 1.0357
C18 C 0.63708(14) 1.46197(14) 0.76083(13)
H19 H 0.5971 1.5391 0.7389
C19 C 1.39985(13) 0.79039(14) 0.83152(12)
H20 H 1.3726 0.8337 0.9125
H21 H 1.4879 0.8390 0.8199
H22 H 1.4106 0.6960 0.8389
C20 C 0.61129(13) 1.22475(14) 0.79368(12)
H23 H 0.5540 1.1421 0.7937
C21 C 1.32943(13) 0.72812(13) 0.57980(12)
H24 H 1.4171 0.7778 0.5687
H25 H 1.2577 0.7312 0.5034
H26 H 1.3408 0.6336 0.5857
C22 C 0.55058(13) 1.33910(15) 0.76034(13)
H27 H 0.4529 1.3334 0.7379
loop_
_geom_bond_atom_site_label_1
_geom_bond_atom_site_label_2
_geom_bond_site_symmetry_1
_geom_bond_site_symmetry_2
O1 C3 1_555 1_555
N1 C1 1_555 1_555
N2 N3 1_555 1_555
N3 C2 1_555 1_555
C1 C2 1_555 1_555
C2 H1 1_555 1_555
C3 N2 1_555 1_555
C4 H2 1_555 1_555
C5 H3 1_555 1_555
H4 C5 1_555 1_555
C6 C4 1_555 1_555
C7 N3 1_555 1_555
C8 H5 1_555 1_555
H6 C8 1_555 1_555
C9 N1 1_555 1_555
C10 C6 1_555 1_555
H7 C10 1_555 1_555
C11 C8 1_555 1_555
H8 C11 1_555 1_555
H9 C11 1_555 1_555
C12 N1 1_555 1_555
H10 C12 1_555 1_555
C13 C1 1_555 1_555
C14 C9 1_555 1_555
H11 C14 1_555 1_555
C15 C2 1_555 1_555
H12 C15 1_555 1_555
H13 C15 1_555 1_555
C16 C3 1_555 1_555
H14 C16 1_555 1_555
H15 C16 1_555 1_555
C17 C12 1_555 1_555
H16 C17 1_555 1_555
H17 C17 1_555 1_555
H18 C17 1_555 1_555
C18 C4 1_555 1_555
H19 C18 1_555 1_555
C19 C7 1_555 1_555
H20 C19 1_555 1_555
H21 C19 1_555 1_555
H22 C19 1_555 1_555
C20 C10 1_555 1_555
H23 C20 1_555 1_555
C21 C7 1_555 1_555
H24 C21 1_555 1_555
H25 C21 1_555 1_555
H26 C21 1_555 1_555
C22 C18 1_555 1_555
H27 C22 1_555 1_555
N2 C12 1_555 1_555
C5 C6 1_555 1_555
C5 C9 1_555 1_555
C7 C16 1_555 1_555
C8 C15 1_555 1_555
C11 C13 1_555 1_555
C13 C14 1_555 1_555
C20 C22 1_555 1_555

#END
