
#######################################################################
#
#                 Cambridge Crystallographic Data Centre
#                                CCDC 
#
#######################################################################
#
# If this CIF has been generated from an entry in the Cambridge 
# Structural Database, then it will include bibliographic, chemical, 
# crystal, experimental, refinement or atomic coordinate data resulting 
# from the CCDC's data processing and validation procedures.
#
#######################################################################

data_ICEREQ
_chemical_formula_moiety         'C18 H22 N2 O1'
_chemical_name_systematic        
2,4-dimethyl-1-phenyl-1,2,6,7,8,9-hexahydro[1,2,5]oxadiazino[5,4-a]indole
_symmetry_cell_setting           monoclinic
_symmetry_space_group_name_H-M   'P 2/c'
_symmetry_Int_Tables_number      13
_space_group_name_Hall           '-P 2yc'
loop_
_symmetry_equiv_pos_site_id
_symmetry_equiv_pos_as_xyz
1 x,y,z
2 -x,y,1/2-z
3 -x,-y,-z
4 x,-y,1/2+z
_cell_length_a                   9.8566(5)
_cell_length_b                   9.5037(5)
_cell_length_c                   16.2899(9)
_cell_angle_alpha                90
_cell_angle_beta                 97.981(5)
_cell_angle_gamma                90
_cell_volume                     1511.16
_exptl_crystal_colour            colorless
_exptl_crystal_description       prism
_cell_formula_units_Z            4
loop_
_atom_site_label
_atom_site_type_symbol
_atom_site_fract_x
_atom_site_fract_y
_atom_site_fract_z
O1 O 0.00767(9) 0.29211(9) 0.48242(5)
C1 C 0.60926(14) 0.34022(15) 0.36895(8)
H1 H 0.7040 0.3619 0.3642
H2 H 0.5726 0.2840 0.3213
N1 N 0.05792(11) 0.26403(11) 0.57002(6)
N2 N 0.23574(10) 0.29966(11) 0.45927(6)
C2 C 0.35610(12) 0.33450(13) 0.42857(7)
C3 C 0.26480(12) 0.19688(13) 0.51908(7)
C4 C 0.45787(12) 0.24880(13) 0.46650(7)
C5 C 0.10488(12) 0.37638(13) 0.44895(8)
H3 H 0.1158 0.4668 0.4781
C6 C 0.30865(14) 0.00823(15) 0.81309(8)
H4 H 0.3417 -0.0215 0.8665
C7 C 0.37415(13) 0.44804(13) 0.36725(8)
H5 H 0.3280 0.5331 0.3812
H6 H 0.3344 0.4187 0.3121
C8 C 0.52779(14) 0.47670(14) 0.36916(8)
H7 H 0.5418 0.5327 0.3212
H8 H 0.5612 0.5304 0.4185
C9 C 0.04442(14) 0.39901(15) 0.35951(8)
H9 H 0.0277 0.3096 0.3326
H10 H 0.1074 0.4522 0.3318
H11 H -0.0403 0.4497 0.3572
C10 C 0.20989(12) 0.09730(13) 0.65302(7)
C11 C -0.06516(13) 0.21810(15) 0.60311(8)
H12 H -0.1305 0.2935 0.5988
H13 H -0.0416 0.1920 0.6602
H14 H -0.1042 0.1386 0.5720
C12 C 0.15456(12) 0.14522(13) 0.56634(7)
H15 H 0.1061 0.0668 0.5361
C13 C 0.40037(13) 0.16234(13) 0.52399(7)
H16 H 0.4464 0.0948 0.5586
C14 C 0.28281(13) 0.18937(14) 0.70916(8)
H17 H 0.2985 0.2812 0.6931
C15 C 0.33214(13) 0.14519(15) 0.78874(8)
H18 H 0.3810 0.2072 0.8259
C16 C 0.23608(15) -0.08355(14) 0.75778(8)
H19 H 0.2205 -0.1753 0.7740
C17 C 0.18622(13) -0.03950(14) 0.67796(8)
H20 H 0.1369 -0.1016 0.6411
C18 C 0.60278(13) 0.25592(15) 0.44818(8)
H21 H 0.6371 0.1615 0.4416
H22 H 0.6602 0.3002 0.4941
loop_
_geom_bond_atom_site_label_1
_geom_bond_atom_site_label_2
_geom_bond_site_symmetry_1
_geom_bond_site_symmetry_2
O1 N1 1_555 1_555
C1 H1 1_555 1_555
H2 C1 1_555 1_555
N1 C11 1_555 1_555
N2 C2 1_555 1_555
C2 C4 1_555 1_555
C3 N2 1_555 1_555
C4 C13 1_555 1_555
C5 O1 1_555 1_555
H3 C5 1_555 1_555
C6 H4 1_555 1_555
C7 C2 1_555 1_555
H5 C7 1_555 1_555
H6 C7 1_555 1_555
C8 C1 1_555 1_555
H7 C8 1_555 1_555
H8 C8 1_555 1_555
C9 C5 1_555 1_555
H9 C9 1_555 1_555
H10 C9 1_555 1_555
H11 C9 1_555 1_555
C10 C12 1_555 1_555
C11 H12 1_555 1_555
H13 C11 1_555 1_555
H14 C11 1_555 1_555
C12 N1 1_555 1_555
H15 C12 1_555 1_555
C13 C3 1_555 1_555
H16 C13 1_555 1_555
C14 C10 1_555 1_555
H17 C14 1_555 1_555
C15 C6 1_555 1_555
H18 C15 1_555 1_555
C16 C6 1_555 1_555
H19 C16 1_555 1_555
C17 C10 1_555 1_555
H20 C17 1_555 1_555
C18 C1 1_555 1_555
H21 C18 1_555 1_555
H22 C18 1_555 1_555
N2 C5 1_555 1_555
C3 C12 1_555 1_555
C4 C18 1_555 1_555
C7 C8 1_555 1_555
C14 C15 1_555 1_555
C16 C17 1_555 1_555

#END
