
#######################################################################
#
#                 Cambridge Crystallographic Data Centre
#                                CCDC 
#
#######################################################################
#
# If this CIF has been generated from an entry in the Cambridge 
# Structural Database, then it will include bibliographic, chemical, 
# crystal, experimental, refinement or atomic coordinate data resulting 
# from the CCDC's data processing and validation procedures.
#
#######################################################################

data_ICEVAN
_chemical_formula_moiety         'C23 H32 N2 O7 S2'
_chemical_name_systematic        
(4,10-bis(p-Toluenesulfonyl)-4,10-diaza-1,7-dioxacyclodec-2-yl)methanol
_symmetry_cell_setting           monoclinic
_symmetry_space_group_name_H-M   'P 21'
_symmetry_Int_Tables_number      4
_space_group_name_Hall           'P 2yb'
loop_
_symmetry_equiv_pos_site_id
_symmetry_equiv_pos_as_xyz
1 x,y,z
2 -x,1/2+y,-z
_cell_length_a                   6.0853(4)
_cell_length_b                   13.7666(9)
_cell_length_c                   14.4567(10)
_cell_angle_alpha                90
_cell_angle_beta                 95.5070(10)
_cell_angle_gamma                90
_cell_volume                     1205.5
_chemical_melting_point          175.2-177deg.C
_cell_formula_units_Z            2
loop_
_atom_site_label
_atom_site_type_symbol
_atom_site_fract_x
_atom_site_fract_y
_atom_site_fract_z
S1 S 0.5232(2) 0.4583(1) 0.3831(1)
S2 S 0.4987(2) 0.4950(1) -0.1372(1)
N1 N 0.5715(5) 0.5223(3) 0.2914(2)
N2 N 0.4010(5) 0.4696(3) -0.0389(2)
O1 O 0.7407(4) 0.4408(3) 0.1151(2)
O2 O 0.2806(4) 0.5852(2) 0.1304(2)
O3 O -0.1501(8) 0.6473(4) 0.0536(3)
O4 O 0.6478(5) 0.3704(2) 0.3802(2)
O5 O 0.2870(4) 0.4543(3) 0.3842(2)
O6 O 0.7253(5) 0.4668(5) -0.1305(3)
O7 O 0.4396(7) 0.5947(3) -0.1600(3)
C1 C 0.8056(6) 0.5218(4) 0.2675(3)
C2 C 0.8591(7) 0.4380(4) 0.2056(3)
C3 C 0.5435(8) 0.3864(4) 0.1072(3)
C4 C 0.4585(9) 0.3766(4) 0.0062(3)
C5 C 0.1944(7) 0.5193(4) -0.0204(3)
C6 C 0.2316(7) 0.6124(4) 0.0350(3)
C7 C 0.4225(7) 0.6506(3) 0.1823(3)
C8 C 0.4579(7) 0.6160(3) 0.2815(3)
C9 C 0.0394(8) 0.6810(5) 0.0221(3)
C10 C 0.6288(6) 0.5241(3) 0.4826(2)
C11 C 0.4977(7) 0.5920(3) 0.5210(3)
C12 C 0.5799(8) 0.6449(4) 0.5979(3)
C13 C 0.7946(7) 0.6299(3) 0.6388(3)
C14 C 0.9215(7) 0.5596(3) 0.6001(3)
C15 C 0.8425(6) 0.5069(3) 0.5222(2)
C16 C 0.8823(11) 0.6875(5) 0.7211(4)
C17 C 0.3610(6) 0.4197(3) -0.2230(3)
C18 C 0.4482(7) 0.4091(3) -0.3071(3)
C19 C 0.3374(8) 0.3560(3) -0.3769(3)
C20 C 0.1353(7) 0.3119(3) -0.3660(3)
C21 C 0.0517(7) 0.3222(4) -0.2810(3)
C22 C 0.1608(7) 0.3742(4) -0.2101(3)
C23 C 0.0117(9) 0.2540(4) -0.4426(3)
H1 H -0.1882 0.5963 0.0259
H2 H 0.9042 0.5189 0.3252
H3 H 0.8349 0.5830 0.2363
H4 H 1.0178 0.4387 0.1988
H5 H 0.8253 0.3769 0.2359
H6 H 0.4327 0.4189 0.1412
H7 H 0.5710 0.3218 0.1345
H8 H 0.5714 0.3446 -0.0270
H9 H 0.3275 0.3348 0.0013
H10 H 0.1055 0.4749 0.0138
H11 H 0.1098 0.5343 -0.0798
H12 H 0.3627 0.6455 0.0142
H13 H 0.3568 0.7157 0.1801
H14 H 0.5643 0.6543 0.1556
H15 H 0.5448 0.6647 0.3185
H16 H 0.3144 0.6105 0.3065
H17 H 0.0806 0.7419 0.0543
H18 H 0.0102 0.6958 -0.0443
H19 H 0.3521 0.6023 0.4948
H20 H 0.4900 0.6917 0.6230
H21 H 1.0653 0.5475 0.6275
H22 H 0.9319 0.4602 0.4966
H23 H 0.872(10) 0.7557(18) 0.7080(40)
H24 H 1.0270(60) 0.6630(50) 0.7450(40)
H25 H 0.8040(80) 0.6640(50) 0.7710(30)
H26 H 0.5838 0.4384 -0.3164
H27 H 0.3994 0.3491 -0.4337
H28 H -0.0836 0.2927 -0.2716
H29 H 0.1011 0.3792 -0.1527
H30 H 0.0540(90) 0.2840(40) -0.4980(20)
H31 H 0.0620(90) 0.1880(20) -0.4470(40)
H32 H -0.1420(40) 0.2620(40) -0.4420(40)
loop_
_geom_bond_atom_site_label_1
_geom_bond_atom_site_label_2
_geom_bond_site_symmetry_1
_geom_bond_site_symmetry_2
S1 N1 1_555 1_555
S2 N2 1_555 1_555
N1 C1 1_555 1_555
N2 C4 1_555 1_555
O1 C2 1_555 1_555
O2 C6 1_555 1_555
O3 C9 1_555 1_555
O4 S1 1_555 1_555
O5 S1 1_555 1_555
O6 S2 1_555 1_555
O7 S2 1_555 1_555
C1 C2 1_555 1_555
C2 H4 1_555 1_555
C3 O1 1_555 1_555
C4 C3 1_555 1_555
C5 N2 1_555 1_555
C6 C5 1_555 1_555
C7 O2 1_555 1_555
C8 N1 1_555 1_555
C9 C6 1_555 1_555
C10 S1 1_555 1_555
C11 C10 1_555 1_555
C12 C11 1_555 1_555
C13 C12 1_555 1_555
C14 C13 1_555 1_555
C15 C10 1_555 1_555
C16 C13 1_555 1_555
C17 S2 1_555 1_555
C18 C17 1_555 1_555
C19 C18 1_555 1_555
C20 C19 1_555 1_555
C21 C20 1_555 1_555
C22 C17 1_555 1_555
C23 C20 1_555 1_555
H1 O3 1_555 1_555
H2 C1 1_555 1_555
H3 C1 1_555 1_555
H5 C2 1_555 1_555
H6 C3 1_555 1_555
H7 C3 1_555 1_555
H8 C4 1_555 1_555
H9 C4 1_555 1_555
H10 C5 1_555 1_555
H11 C5 1_555 1_555
H12 C6 1_555 1_555
H13 C7 1_555 1_555
H14 C7 1_555 1_555
H15 C8 1_555 1_555
H16 C8 1_555 1_555
H17 C9 1_555 1_555
H18 C9 1_555 1_555
H19 C11 1_555 1_555
H20 C12 1_555 1_555
H21 C14 1_555 1_555
H22 C15 1_555 1_555
H23 C16 1_555 1_555
H24 C16 1_555 1_555
H25 C16 1_555 1_555
H26 C18 1_555 1_555
H27 C19 1_555 1_555
H28 C21 1_555 1_555
H29 C22 1_555 1_555
H30 C23 1_555 1_555
H31 C23 1_555 1_555
H32 C23 1_555 1_555
C7 C8 1_555 1_555
C14 C15 1_555 1_555
C21 C22 1_555 1_555

#END
