
#######################################################################
#
#                 Cambridge Crystallographic Data Centre
#                                CCDC 
#
#######################################################################
#
# If this CIF has been generated from an entry in the Cambridge 
# Structural Database, then it will include bibliographic, chemical, 
# crystal, experimental, refinement or atomic coordinate data resulting 
# from the CCDC's data processing and validation procedures.
#
#######################################################################

data_ICIFUX
_chemical_formula_moiety         'C32 H33 N5'
_chemical_name_systematic        
3-t-Butyl-2-(2,2-dicyano-1-(4-(dimethylamino)phenyl)vinyl)-4-(2,2,6-trimethylhept-6-en-4-yn-3-ylidene)cyclobut-2-ene-1,1-dicarbonitrile
_symmetry_cell_setting           triclinic
_symmetry_space_group_name_H-M   'P -1'
_symmetry_Int_Tables_number      2
_space_group_name_Hall           '-P 1'
loop_
_symmetry_equiv_pos_site_id
_symmetry_equiv_pos_as_xyz
1 x,y,z
2 -x,-y,-z
_cell_length_a                   9.1767(9)
_cell_length_b                   11.4374(12)
_cell_length_c                   14.6257(13)
_cell_angle_alpha                77.131(4)
_cell_angle_beta                 87.221(3)
_cell_angle_gamma                70.146(4)
_cell_volume                     1406.95
_exptl_crystal_colour            orange
_exptl_crystal_description       cube
_cell_formula_units_Z            2
loop_
_atom_site_label
_atom_site_type_symbol
_atom_site_fract_x
_atom_site_fract_y
_atom_site_fract_z
N1 N 0.2711(2) 0.47722(18) -0.05716(13)
N2 N -0.0199(2) 0.63779(18) 0.26751(12)
N3 N -0.1605(2) 1.04605(18) 0.25614(13)
N4 N 0.1622(2) 1.16499(18) 0.18955(12)
N5 N 0.1755(2) 1.11241(18) -0.08667(12)
C1 C 0.5246(3) 0.7515(3) 0.70817(19)
H1 H 0.6362 0.7232 0.7432
H2 H 0.4385 0.7421 0.7596
H3 H 0.4931 0.8495 0.6702
C2 C 0.5330(2) 0.6699(2) 0.64248(13)
C3 C 0.4001(2) 0.70290(19) 0.58139(13)
C4 C 0.2947(2) 0.73464(18) 0.52578(12)
C5 C 0.1607(2) 0.76653(17) 0.46606(12)
C6 C 0.1759(2) 0.79807(18) 0.37256(12)
C7 C 0.2982(2) 0.81457(19) 0.30550(13)
C8 C 0.2071(2) 0.83964(19) 0.22907(13)
C9 C 0.2127(2) 0.87520(19) 0.12520(12)
C10 C 0.2344(2) 0.77593(19) 0.07471(13)
C11 C 0.2029(2) 0.7982(2) -0.02215(13)
H4 H 0.1671 0.8930 -0.0624
C12 C 0.2172(3) 0.7011(2) -0.06563(14)
H5 H 0.1915 0.7223 -0.1386
C13 C 0.2657(3) 0.5727(2) -0.01541(15)
C14 C 0.3078(3) 0.5486(2) 0.08093(15)
H6 H 0.3533 0.4534 0.1199
C15 C 0.2901(2) 0.6472(2) 0.12384(14)
H7 H 0.3192 0.6264 0.1963
C16 C 0.3254(4) 0.3452(2) -0.00392(19)
H8 H 0.4450 0.3191 0.0182
H9 H 0.3160 0.2833 -0.0476
H10 H 0.2555 0.3358 0.0570
C17 C 0.2252(3) 0.5053(3) -0.15648(19)
H11 H 0.1131 0.5793 -0.1691
H12 H 0.2188 0.4203 -0.1742
H13 H 0.3097 0.5368 -0.1993
C18 C 0.4634(2) 0.8083(2) 0.31572(14)
C19 C 0.5286(3) 0.8424(3) 0.21856(16)
H14 H 0.5112 0.7839 0.1743
H15 H 0.6511 0.8256 0.2258
H16 H 0.4695 0.9416 0.1872
C20 C 0.4670(3) 0.9051(2) 0.37181(16)
H17 H 0.3902 0.9985 0.3383
H18 H 0.5836 0.9068 0.3746
H19 H 0.4297 0.8785 0.4422
C21 C 0.5631(2) 0.6721(2) 0.36262(15)
H20 H 0.5169 0.6440 0.4300
H21 H 0.6807 0.6685 0.3722
H22 H 0.5620 0.6080 0.3187
C22 C 0.6586(3) 0.5673(2) 0.63667(16)
H23 H 0.6586 0.5177 0.5925
H24 H 0.7467 0.5448 0.6768
C23 C 0.0178(2) 0.7549(2) 0.52090(13)
C24 C 0.0006(5) 0.8127(6) 0.6061(3)
H25 H 0.1097 0.7760 0.6450
H26 H -0.0872 0.7882 0.6502
H27 H -0.0331 0.9150 0.5838
C25 C 0.0508(5) 0.6073(5) 0.5493(4)
H28 H 0.0645 0.5695 0.4868
H29 H -0.0452 0.5889 0.5881
H30 H 0.1556 0.5621 0.5924
C26 C -0.1373(5) 0.8162(4) 0.4649(3)
H31 H -0.1587 0.9169 0.4395
H32 H -0.2298 0.8025 0.5098
H33 H -0.1322 0.7723 0.4062
C27 C 0.0650(2) 0.82765(18) 0.28627(12)
C28 C 0.0144(2) 0.7230(2) 0.27463(12)
C29 C -0.0649(2) 0.94884(19) 0.27110(12)
C30 C 0.1875(2) 1.00160(19) 0.08856(13)
C31 C 0.1711(2) 1.0899(2) 0.14674(14)
C32 C 0.1827(2) 1.05967(19) -0.00948(14)
C33? C -0.0408(9) 0.8813(11) 0.5593(6)
C34? C 0.0579(10) 0.6461(9) 0.6047(7)
C35? C -0.1125(10) 0.7568(8) 0.4652(6)
H34? H 0.0506 0.8851 0.6011
H35? H -0.1405 0.8824 0.6019
H36? H -0.0725 0.9628 0.5010
H37? H 0.1089 0.5576 0.5821
H38? H -0.0459 0.6452 0.6425
H39? H 0.1396 0.6571 0.6500
H40? H -0.1514 0.8451 0.4131
H41? H -0.2065 0.7491 0.5108
H42? H -0.0752 0.6777 0.4307
loop_
_geom_bond_atom_site_label_1
_geom_bond_atom_site_label_2
_geom_bond_site_symmetry_1
_geom_bond_site_symmetry_2
N1 C13 1_555 1_555
N2 C28 1_555 1_555
N3 C29 1_555 1_555
N4 C31 1_555 1_555
N5 C32 1_555 1_555
C1 H1 1_555 1_555
H2 C1 1_555 1_555
H3 C1 1_555 1_555
C2 C1 1_555 1_555
C3 C2 1_555 1_555
C4 C3 1_555 1_555
C5 C4 1_555 1_555
C6 C5 1_555 1_555
C7 C6 1_555 1_555
C8 C7 1_555 1_555
C9 C8 1_555 1_555
C10 C9 1_555 1_555
C11 C10 1_555 1_555
H4 C11 1_555 1_555
C12 C11 1_555 1_555
H5 C12 1_555 1_555
C13 C12 1_555 1_555
C14 C13 1_555 1_555
H6 C14 1_555 1_555
C15 C10 1_555 1_555
H7 C15 1_555 1_555
C16 N1 1_555 1_555
H8 C16 1_555 1_555
H9 C16 1_555 1_555
H10 C16 1_555 1_555
C17 N1 1_555 1_555
H11 C17 1_555 1_555
H12 C17 1_555 1_555
H13 C17 1_555 1_555
C18 C7 1_555 1_555
C19 C18 1_555 1_555
H14 C19 1_555 1_555
H15 C19 1_555 1_555
H16 C19 1_555 1_555
C20 C18 1_555 1_555
H17 C20 1_555 1_555
H18 C20 1_555 1_555
H19 C20 1_555 1_555
C21 C18 1_555 1_555
H20 C21 1_555 1_555
H21 C21 1_555 1_555
H22 C21 1_555 1_555
C22 C2 1_555 1_555
H23 C22 1_555 1_555
H24 C22 1_555 1_555
C23 C5 1_555 1_555
C24 C23 1_555 1_555
H25 C24 1_555 1_555
H26 C24 1_555 1_555
H27 C24 1_555 1_555
C25 C23 1_555 1_555
H28 C25 1_555 1_555
H29 C25 1_555 1_555
H30 C25 1_555 1_555
C26 C23 1_555 1_555
H31 C26 1_555 1_555
H32 C26 1_555 1_555
H33 C26 1_555 1_555
C27 C6 1_555 1_555
C28 C27 1_555 1_555
C29 C27 1_555 1_555
C30 C9 1_555 1_555
C31 C30 1_555 1_555
C32 C30 1_555 1_555
C8 C27 1_555 1_555
C14 C15 1_555 1_555

#END
