
#######################################################################
#
#                 Cambridge Crystallographic Data Centre
#                                CCDC 
#
#######################################################################
#
# If this CIF has been generated from an entry in the Cambridge 
# Structural Database, then it will include bibliographic, chemical, 
# crystal, experimental, refinement or atomic coordinate data resulting 
# from the CCDC's data processing and validation procedures.
#
#######################################################################

data_ICIGOS
_chemical_formula_moiety         'C40 H51 N5 Si1'
_chemical_name_systematic        
3-Allyl-2-t-butyl-6-(4-(dimethylamino)phenyl)-4,4-dimethyl-2-((triisopropylsilyl)ethynyl)-2,4-dihydropentalene-1,1,5,5-tetracarbonitrile
_symmetry_cell_setting           triclinic
_symmetry_space_group_name_H-M   'P -1'
_symmetry_Int_Tables_number      2
_space_group_name_Hall           '-P 1'
loop_
_symmetry_equiv_pos_site_id
_symmetry_equiv_pos_as_xyz
1 x,y,z
2 -x,-y,-z
_cell_length_a                   10.737(5)
_cell_length_b                   11.029(4)
_cell_length_c                   16.007(7)
_cell_angle_alpha                96.73(3)
_cell_angle_beta                 97.50(3)
_cell_angle_gamma                92.64(4)
_cell_volume                     1862.73
_exptl_crystal_colour            purple
_exptl_crystal_description       prism
_cell_formula_units_Z            2
loop_
_atom_site_label
_atom_site_type_symbol
_atom_site_fract_x
_atom_site_fract_y
_atom_site_fract_z
Si1 Si 0.41910(4) 0.17625(5) 0.29650(3)
N1 N 0.79644(17) -0.56879(19) 0.04143(12)
N2 N 1.13324(16) -0.48573(19) 0.20537(12)
N3 N 0.86414(17) -0.69568(18) 0.50769(12)
N4 N 0.75745(18) -0.09314(19) 0.39369(12)
N5 N 0.49093(16) -0.39269(19) 0.32596(11)
C1 C 0.90732(17) -0.40873(19) 0.16712(12)
C2 C 0.82347(16) -0.40002(18) 0.24005(11)
C3 C 0.74975(16) -0.30734(18) 0.22522(11)
C4 C 0.64288(16) -0.24420(18) 0.26390(11)
C5 C 0.58521(16) -0.16791(18) 0.18940(11)
C6 C 0.70398(17) -0.14822(18) 0.14514(11)
C7 C 0.78445(16) -0.23429(18) 0.16184(11)
C8 C 0.91208(17) -0.27361(19) 0.13990(12)
C9 C 0.84478(18) -0.4993(2) 0.09598(12)
C10 C 1.03469(18) -0.4516(2) 0.19040(12)
C11 C 0.83299(16) -0.47868(19) 0.30684(12)
C12 C 0.80973(17) -0.43236(19) 0.38900(12)
H1 H 0.7836 -0.3410 0.4003
C13 C 0.82006(18) -0.5026(2) 0.45478(12)
H2 H 0.8024 -0.4642 0.5157
C14 C 0.85387(17) -0.6251(2) 0.44253(13)
C15 C 0.87643(18) -0.6723(2) 0.36016(13)
H3 H 0.9008 -0.7641 0.3483
C16 C 0.86703(17) -0.59991(19) 0.29480(12)
H4 H 0.8861 -0.6373 0.2340
C17 C 0.8401(2) -0.6440(2) 0.59159(13)
H5 H 0.9136 -0.5750 0.6185
H6 H 0.8384 -0.7154 0.6322
H7 H 0.7503 -0.6031 0.5863
C18 C 0.9201(3) -0.8129(2) 0.49825(16)
H8 H 0.8587 -0.8765 0.4530
H9 H 0.9333 -0.8478 0.5589
H10 H 1.0101 -0.8015 0.4759
C19 C 0.70394(18) -0.15637(19) 0.33720(12)
C20 C 0.55515(17) -0.32787(19) 0.29715(12)
C21 C 0.47303(16) -0.24124(19) 0.12471(11)
C22 C 0.34929(17) -0.2433(2) 0.16406(12)
H11 H 0.3620 -0.2885 0.2206
H12 H 0.2753 -0.2922 0.1188
H13 H 0.3240 -0.1507 0.1803
C23 C 0.44804(18) -0.1740(2) 0.04591(12)
H14 H 0.3667 -0.2176 0.0047
H15 H 0.5290 -0.1772 0.0124
H16 H 0.4308 -0.0798 0.0654
C24 C 0.50492(18) -0.3721(2) 0.09560(13)
H17 H 0.5194 -0.4221 0.1498
H18 H 0.5896 -0.3696 0.0660
H19 H 0.4282 -0.4167 0.0505
C25 C 0.54123(16) -0.05190(19) 0.22579(11)
C26 C 0.50120(17) 0.04225(19) 0.25508(12)
C27 C 0.41781(19) 0.2870(2) 0.21521(13)
H20 H 0.3813 0.3707 0.2413
C28 C 0.5518(2) 0.3172(2) 0.19737(15)
H21 H 0.6068 0.3640 0.2543
H22 H 0.5486 0.3752 0.1474
H23 H 0.5944 0.2335 0.1779
C29 C 0.3329(2) 0.2386(3) 0.13266(14)
H24 H 0.3653 0.1529 0.1063
H25 H 0.3360 0.3042 0.0878
H26 H 0.2374 0.2244 0.1455
C30 C 0.25389(19) 0.1102(2) 0.29824(14)
H27 H 0.2252 0.0623 0.2354
C31 C 0.1559(2) 0.2058(3) 0.3105(2)
H28 H 0.1719 0.2503 0.3751
H29 H 0.0626 0.1611 0.2976
H30 H 0.1645 0.2731 0.2674
C32 C 0.2457(2) 0.0126(3) 0.35866(15)
H31 H 0.3129 -0.0551 0.3466
H32 H 0.1519 -0.0311 0.3483
H33 H 0.2666 0.0552 0.4236
C33 C 0.5079(2) 0.2459(2) 0.40153(13)
H34 H 0.5928 0.2926 0.3888
C34 C 0.4304(3) 0.3429(3) 0.44593(15)
H35 H 0.3980 0.4055 0.4019
H36 H 0.4887 0.3929 0.5003
H37 H 0.3503 0.2979 0.4665
C35 C 0.5474(2) 0.1522(2) 0.46234(14)
H38 H 0.4645 0.1090 0.4806
H39 H 0.6056 0.1981 0.5182
H40 H 0.5998 0.0836 0.4309
C36 C 0.71960(18) -0.0409(2) 0.09591(12)
H41 H 0.7442 -0.0737 0.0343
H42 H 0.6309 0.0013 0.0861
C37 C 0.8192(2) 0.0537(2) 0.14052(14)
H43 H 0.8176 0.0825 0.2059
C38 C 0.9085(3) 0.1031(3) 0.1034(2)
H44 H 0.980(4) 0.168(4) 0.138(2)
H45 H 0.912(3) 0.071(4) 0.042(2)
C39 C 1.01507(18) -0.1941(2) 0.20088(14)
H46 H 1.0124 -0.1004 0.1877
H47 H 1.1061 -0.2273 0.1921
H48 H 0.9989 -0.1990 0.2656
C40 C 0.9334(2) -0.2714(2) 0.04788(13)
H49 H 0.8583 -0.3252 0.0065
H50 H 1.0223 -0.3093 0.0385
H51 H 0.9349 -0.1782 0.0334
loop_
_geom_bond_atom_site_label_1
_geom_bond_atom_site_label_2
_geom_bond_site_symmetry_1
_geom_bond_site_symmetry_2
Si1 C26 1_555 1_555
N1 C9 1_555 1_555
N2 C10 1_555 1_555
N3 C14 1_555 1_555
N4 C19 1_555 1_555
N5 C20 1_555 1_555
C1 C2 1_555 1_555
C2 C3 1_555 1_555
C3 C4 1_555 1_555
C4 C5 1_555 1_555
C5 C6 1_555 1_555
C6 C7 1_555 1_555
C7 C3 1_555 1_555
C8 C1 1_555 1_555
C9 C1 1_555 1_555
C10 C1 1_555 1_555
C11 C2 1_555 1_555
C12 C11 1_555 1_555
H1 C12 1_555 1_555
C13 C12 1_555 1_555
H2 C13 1_555 1_555
C14 C13 1_555 1_555
C15 C14 1_555 1_555
H3 C15 1_555 1_555
C16 C11 1_555 1_555
H4 C16 1_555 1_555
C17 N3 1_555 1_555
H5 C17 1_555 1_555
H6 C17 1_555 1_555
H7 C17 1_555 1_555
C18 N3 1_555 1_555
H8 C18 1_555 1_555
H9 C18 1_555 1_555
H10 C18 1_555 1_555
C19 C4 1_555 1_555
C20 C4 1_555 1_555
C21 C5 1_555 1_555
C22 C21 1_555 1_555
H11 C22 1_555 1_555
H12 C22 1_555 1_555
H13 C22 1_555 1_555
C23 C21 1_555 1_555
H14 C23 1_555 1_555
H15 C23 1_555 1_555
H16 C23 1_555 1_555
C24 C21 1_555 1_555
H17 C24 1_555 1_555
H18 C24 1_555 1_555
H19 C24 1_555 1_555
C25 C5 1_555 1_555
C26 C25 1_555 1_555
C27 Si1 1_555 1_555
H20 C27 1_555 1_555
C28 C27 1_555 1_555
H21 C28 1_555 1_555
H22 C28 1_555 1_555
H23 C28 1_555 1_555
C29 C27 1_555 1_555
H24 C29 1_555 1_555
H25 C29 1_555 1_555
H26 C29 1_555 1_555
C30 Si1 1_555 1_555
H27 C30 1_555 1_555
C31 C30 1_555 1_555
H28 C31 1_555 1_555
H29 C31 1_555 1_555
H30 C31 1_555 1_555
C32 C30 1_555 1_555
H31 C32 1_555 1_555
H32 C32 1_555 1_555
H33 C32 1_555 1_555
C33 Si1 1_555 1_555
H34 C33 1_555 1_555
C34 C33 1_555 1_555
H35 C34 1_555 1_555
H36 C34 1_555 1_555
H37 C34 1_555 1_555
C35 C33 1_555 1_555
H38 C35 1_555 1_555
H39 C35 1_555 1_555
H40 C35 1_555 1_555
C36 C6 1_555 1_555
H41 C36 1_555 1_555
H42 C36 1_555 1_555
C37 C36 1_555 1_555
H43 C37 1_555 1_555
C38 C37 1_555 1_555
H44 C38 1_555 1_555
H45 C38 1_555 1_555
C39 C8 1_555 1_555
H46 C39 1_555 1_555
H47 C39 1_555 1_555
H48 C39 1_555 1_555
C40 C8 1_555 1_555
H49 C40 1_555 1_555
H50 C40 1_555 1_555
H51 C40 1_555 1_555
C7 C8 1_555 1_555
C15 C16 1_555 1_555

#END
