
#######################################################################
#
#                 Cambridge Crystallographic Data Centre
#                                CCDC 
#
#######################################################################
#
# If this CIF has been generated from an entry in the Cambridge 
# Structural Database, then it will include bibliographic, chemical, 
# crystal, experimental, refinement or atomic coordinate data resulting 
# from the CCDC's data processing and validation procedures.
#
#######################################################################

data_ICIGIN
_chemical_formula_moiety         'C30 H36 N1 Na1 O8 S1'
_chemical_name_systematic        
'(15-crown-5)-(4-methyl-N-(9H-xanthen-9-yl)benzenesulfonamidato)-sodium unknown solvate'
_symmetry_cell_setting           monoclinic
_symmetry_space_group_name_H-M   'P 21/n'
_symmetry_Int_Tables_number      14
_space_group_name_Hall           '-P 2yn'
loop_
_symmetry_equiv_pos_site_id
_symmetry_equiv_pos_as_xyz
1 x,y,z
2 1/2-x,1/2+y,1/2-z
3 -x,-y,-z
4 1/2+x,1/2-y,1/2+z
_cell_length_a                   15.6531(9)
_cell_length_b                   11.2507(9)
_cell_length_c                   17.5258(12)
_cell_angle_alpha                90
_cell_angle_beta                 108.232(7)
_cell_angle_gamma                90
_cell_volume                     2931.49
_exptl_crystal_colour            colorless
_cell_formula_units_Z            4
_chemical_properties_physical    Air-sensitive
loop_
_atom_site_label
_atom_site_type_symbol
_atom_site_fract_x
_atom_site_fract_y
_atom_site_fract_z
C1 C 0.5592(11) 0.537(2) 0.2391(14)
H1 H 0.5527 0.6227 0.2374
H2 H 0.5334 0.5058 0.2786
S1 S 0.51288(16) 0.0377(2) 0.21310(13)
Na1 Na 0.5507(2) 0.2771(3) 0.14747(19)
O1 O 0.5901(4) 0.0721(6) 0.1879(4)
O2 O 0.4721(5) -0.0774(5) 0.1839(4)
O3 O 0.1766(4) 0.1730(6) 0.1933(4)
O4 O 0.7049(8) 0.2567(10) 0.1424(7)
O5 O 0.6595(8) 0.3790(11) 0.2620(7)
O6 O 0.5113(8) 0.4838(10) 0.1566(7)
O7 O 0.4135(7) 0.3432(10) 0.0371(6)
O8 O 0.5600(8) 0.2559(11) 0.0080(7)
N1 N 0.4472(5) 0.1449(6) 0.1940(4)
C2 C 0.5569(6) 0.0199(8) 0.3191(5)
C3 C 0.5320(7) -0.0769(9) 0.3587(6)
H3 H 0.4938 -0.1358 0.3296
C4 C 0.5656(8) -0.0827(12) 0.4425(7)
H4 H 0.5486 -0.1454 0.4692
C5 C 0.6234(7) 0.0025(11) 0.4864(7)
C6 C 0.6479(7) 0.0951(10) 0.4485(6)
H5 H 0.6875 0.1522 0.4781
C7 C 0.6139(7) 0.1048(8) 0.3649(6)
H6 H 0.6300 0.1699 0.3396
C8 C 0.6579(8) -0.0078(13) 0.5768(6)
H7 H 0.6094 0.0054 0.5984
H8 H 0.7040 0.0505 0.5980
H9 H 0.6824 -0.0858 0.5915
C9 C 0.3589(5) 0.1243(7) 0.2018(5)
H10 H 0.3600 0.0443 0.2242
C10 C 0.2828(6) 0.1261(8) 0.1235(5)
C11 C 0.2956(8) 0.1002(8) 0.0507(5)
H11 H 0.3536 0.0891 0.0482
C12 C 0.2228(10) 0.0905(10) -0.0185(6)
H12 H 0.2329 0.0733 -0.0669
C13 C 0.1368(9) 0.1056(11) -0.0178(7)
H13 H 0.0886 0.0971 -0.0646
C14 C 0.1226(7) 0.1344(9) 0.0554(7)
H14 H 0.0648 0.1454 0.0581
C15 C 0.1955(6) 0.1458(8) 0.1222(5)
C16 C 0.2464(6) 0.2250(7) 0.2546(5)
C17 C 0.2207(6) 0.2924(8) 0.3097(5)
H15 H 0.1601 0.3027 0.3043
C18 C 0.2861(7) 0.3437(9) 0.3724(6)
H16 H 0.2699 0.3868 0.4110
C19 C 0.3751(7) 0.3318(10) 0.3785(6)
H17 H 0.4189 0.3682 0.4205
C20 C 0.4002(6) 0.2647(9) 0.3212(6)
H18 H 0.4606 0.2580 0.3250
C21 C 0.3353(6) 0.2086(7) 0.2591(5)
C22 C 0.7686(12) 0.3337(19) 0.1891(13)
H19 H 0.7647 0.4096 0.1620
H20 H 0.8283 0.3015 0.1976
C23 C 0.7519(8) 0.3507(14) 0.2697(7)
H21 H 0.7687 0.2785 0.3010
H22 H 0.7903 0.4142 0.2989
C24 C 0.6516(14) 0.5055(18) 0.2599(11)
H23 H 0.6841 0.5384 0.3120
H24 H 0.6773 0.5378 0.2206
C25 C 0.4170(13) 0.5011(18) 0.1262(12)
H25 H 0.4025 0.5839 0.1314
H26 H 0.3871 0.4532 0.1562
C26 C 0.3856(11) 0.4648(17) 0.0383(11)
H27 H 0.3208 0.4715 0.0161
H28 H 0.4131 0.5147 0.0073
C27 C 0.4074(11) 0.3044(16) -0.0413(10)
H29 H 0.4205 0.3701 -0.0718
H30 H 0.3468 0.2770 -0.0687
C28 C 0.4710(12) 0.2082(18) -0.0369(9)
H31 H 0.4696 0.1838 -0.0903
H32 H 0.4566 0.1401 -0.0092
C29 C 0.6310(12) 0.1754(14) 0.0145(11)
H33 H 0.6365 0.1590 -0.0381
H34 H 0.6200 0.1011 0.0379
C30 C 0.7162(6) 0.2337(10) 0.0681(6)
H35 H 0.7673 0.1814 0.0746
H36 H 0.7274 0.3073 0.0439
C31? C 0.527(3) 0.530(4) 0.243(3)
H37? H 0.5222 0.5464 0.2955
H38? H 0.5391 0.6045 0.2208
O9? O 0.7179(14) 0.300(2) 0.2010(12)
O10? O 0.6065(19) 0.453(2) 0.2540(13)
O11? O 0.4563(19) 0.463(2) 0.1225(14)
O12? O 0.4536(12) 0.2920(16) 0.0130(11)
O13? O 0.6319(12) 0.2742(16) 0.0406(9)
C32? C 0.764(2) 0.303(3) 0.1410(19)
H39? H 0.8240 0.2702 0.1642
H40? H 0.7700 0.3843 0.1260
H41? H 0.8165 0.3600 0.2823
H42? H 0.7397 0.3049 0.3120
C33? C 0.704(3) 0.475(3) 0.260(2)
H43? H 0.7327 0.5256 0.3053
H44? H 0.7073 0.5141 0.2113
C34? C 0.448(2) 0.495(3) 0.1980(18)
H45? H 0.4042 0.5586 0.1916
H46? H 0.4276 0.4274 0.2223
C35? C 0.375(2) 0.429(3) 0.0680(19)
H47? H 0.3328 0.4945 0.0574
H48? H 0.3493 0.3634 0.0899
C36? C 0.3914(17) 0.389(3) -0.0104(18)
H49? H 0.3357 0.3640 -0.0499
H50? H 0.4170 0.4538 -0.0329
C37? C 0.4870(19) 0.265(3) -0.0513(17)
H51? H 0.4994 0.3368 -0.0763
H52? H 0.4440 0.2171 -0.0916
C38? C 0.569(2) 0.199(3) -0.0148(16)
H53? H 0.5561 0.1298 0.0131
H54? H 0.5937 0.1714 -0.0559
H55? H 0.7460 0.2436 0.0275
H56? H 0.7162 0.1499 0.0809
loop_
_geom_bond_atom_site_label_1
_geom_bond_atom_site_label_2
_geom_bond_site_symmetry_1
_geom_bond_site_symmetry_2
C1 H1 1_555 1_555
H2 C1 1_555 1_555
S1 O1 1_555 1_555
Na1 O1 1_555 1_555
O2 S1 1_555 1_555
O3 C15 1_555 1_555
O4 Na1 1_555 1_555
O5 Na1 1_555 1_555
O6 C1 1_555 1_555
O7 Na1 1_555 1_555
O8 Na1 1_555 1_555
N1 S1 1_555 1_555
C2 S1 1_555 1_555
C3 C2 1_555 1_555
H3 C3 1_555 1_555
C4 C3 1_555 1_555
H4 C4 1_555 1_555
C5 C4 1_555 1_555
C6 C5 1_555 1_555
H5 C6 1_555 1_555
C7 C2 1_555 1_555
H6 C7 1_555 1_555
C8 C5 1_555 1_555
H7 C8 1_555 1_555
H8 C8 1_555 1_555
H9 C8 1_555 1_555
C9 N1 1_555 1_555
H10 C9 1_555 1_555
C10 C9 1_555 1_555
C11 C10 1_555 1_555
H11 C11 1_555 1_555
C12 C11 1_555 1_555
H12 C12 1_555 1_555
C13 C12 1_555 1_555
H13 C13 1_555 1_555
C14 C13 1_555 1_555
H14 C14 1_555 1_555
C15 C10 1_555 1_555
C16 O3 1_555 1_555
C17 C16 1_555 1_555
H15 C17 1_555 1_555
C18 C17 1_555 1_555
H16 C18 1_555 1_555
C19 C18 1_555 1_555
H17 C19 1_555 1_555
C20 C19 1_555 1_555
H18 C20 1_555 1_555
C21 C9 1_555 1_555
C22 O4 1_555 1_555
H19 C22 1_555 1_555
H20 C22 1_555 1_555
C23 O5 1_555 1_555
H21 C23 1_555 1_555
H22 C23 1_555 1_555
C24 C1 1_555 1_555
H23 C24 1_555 1_555
H24 C24 1_555 1_555
C25 O6 1_555 1_555
H25 C25 1_555 1_555
H26 C25 1_555 1_555
C26 O7 1_555 1_555
H27 C26 1_555 1_555
H28 C26 1_555 1_555
C27 O7 1_555 1_555
H29 C27 1_555 1_555
H30 C27 1_555 1_555
C28 O8 1_555 1_555
H31 C28 1_555 1_555
H32 C28 1_555 1_555
C29 O8 1_555 1_555
H33 C29 1_555 1_555
H34 C29 1_555 1_555
C30 O4 1_555 1_555
H35 C30 1_555 1_555
H36 C30 1_555 1_555
Na1 O6 1_555 1_555
Na1 N1 1_555 1_555
O5 C24 1_555 1_555
C6 C7 1_555 1_555
C14 C15 1_555 1_555
C16 C21 1_555 1_555
C20 C21 1_555 1_555
C22 C23 1_555 1_555
C25 C26 1_555 1_555
C27 C28 1_555 1_555
C29 C30 1_555 1_555

#END
