
#######################################################################
#
#                 Cambridge Crystallographic Data Centre
#                                CCDC 
#
#######################################################################
#
# If this CIF has been generated from an entry in the Cambridge 
# Structural Database, then it will include bibliographic, chemical, 
# crystal, experimental, refinement or atomic coordinate data resulting 
# from the CCDC's data processing and validation procedures.
#
#######################################################################

data_ICIGAE
_chemical_formula_moiety         'C40 H51 N5 Si1,C1 H2 Cl2'
_chemical_name_systematic        
'2-(4-Allyl-5-t-butyl-2-methyl-7-(triisopropylsilyl)hepta-2,4-dien-6-yn-3-yl)-3-(4-(dimethylamino)phenyl)buta-1,3-diene-1,1,4,4-tetracarbonitrile dichloromethane solvate'
_symmetry_cell_setting           monoclinic
_symmetry_space_group_name_H-M   'C 2/c'
_symmetry_Int_Tables_number      15
_space_group_name_Hall           '-C 2yn'
loop_
_symmetry_equiv_pos_site_id
_symmetry_equiv_pos_as_xyz
1 x,y,z
2 1/2+x,1/2+y,z
3 -x,y,1/2-z
4 1/2-x,1/2+y,1/2-z
5 -x,-y,-z
6 1/2-x,1/2-y,-z
7 x,-y,1/2+z
8 1/2+x,1/2-y,1/2+z
_cell_length_a                   36.3783(6)
_cell_length_b                   13.9312(3)
_cell_length_c                   17.1478(4)
_cell_angle_alpha                90
_cell_angle_beta                 93.5761(8)
_cell_angle_gamma                90
_cell_volume                     8673.47
_exptl_crystal_colour            orange
_exptl_crystal_description       plate
_cell_formula_units_Z            9
loop_
_atom_site_label
_atom_site_type_symbol
_atom_site_fract_x
_atom_site_fract_y
_atom_site_fract_z
Cl1 Cl 0.10096(9) 0.7064(2) 0.1451(3)
Cl2 Cl 0.15239(7) 0.5542(2) 0.19461(17)
C1 C 0.1385(2) 0.6404(7) 0.1241(5)
H1 H 0.1593 0.6848 0.1174
H2 H 0.1331 0.6074 0.0736
Si1 Si 0.03447(6) 0.2274(2) 0.05755(15)
N1 N 0.19021(8) 0.3094(2) -0.03708(15)
N2 N 0.28189(8) -0.0363(2) 0.18391(18)
N3 N 0.24429(8) -0.0222(2) 0.41179(17)
N4 N 0.29060(8) 0.2891(2) 0.32008(18)
N5 N 0.20737(9) 0.3402(2) 0.49072(17)
C2 C 0.07026(11) 0.2020(3) 0.1335(2)
C3 C 0.09183(9) 0.1701(3) 0.1824(2)
C4 C 0.11785(9) 0.1256(3) 0.23878(19)
C5 C 0.13731(8) 0.1860(2) 0.28704(18)
C6 C 0.16602(8) 0.1614(2) 0.35018(18)
C7 C 0.20424(8) 0.1837(2) 0.32935(16)
C8 C 0.21947(8) 0.1367(2) 0.25837(17)
C9 C 0.21186(8) 0.1790(2) 0.18260(17)
C10 C 0.20047(8) 0.2757(2) 0.17517(18)
C11 C 0.19305(8) 0.3193(2) 0.10394(18)
C12 C 0.19681(8) 0.2675(2) 0.03339(18)
C13 C 0.20811(9) 0.1701(2) 0.04027(18)
C14 C 0.21521(8) 0.1279(2) 0.11184(18)
C15 C 0.17992(11) 0.4100(3) -0.0427(2)
C16 C 0.19509(11) 0.2566(3) -0.1090(2)
C17 C 0.24003(8) 0.0561(2) 0.27474(17)
C18 C 0.26238(9) 0.0061(2) 0.22142(18)
C19 C 0.24239(8) 0.0139(2) 0.35165(19)
C20 C 0.22632(8) 0.2477(2) 0.36863(17)
C21 C 0.26246(9) 0.2706(2) 0.34237(18)
C22 C 0.21534(8) 0.2999(2) 0.43587(18)
C23 C 0.15764(8) 0.1328(2) 0.42241(18)
C24 C 0.18467(9) 0.1100(2) 0.48981(18)
C25 C 0.11831(9) 0.1172(3) 0.4426(2)
C26 C 0.13038(9) 0.2953(3) 0.2835(2)
C27 C 0.10063(11) 0.3263(3) 0.3333(3)
C28 C 0.10546(17) 0.3835(4) 0.3944(3)
C29 C 0.11799(9) 0.0159(3) 0.2323(2)
C30 C 0.14567(10) -0.0366(3) 0.2877(2)
C31 C 0.12634(13) -0.0112(3) 0.1478(2)
C32 C 0.07909(11) -0.0211(3) 0.2477(3)
C33 C 0.0619(2) 0.2490(6) -0.0305(5)
C34 C 0.0876(3) 0.3360(8) -0.0175(7)
C35 C 0.0043(2) 0.1182(6) 0.0398(5)
C36 C -0.0142(3) 0.0880(8) 0.1138(6)
C37 C -0.0242(3) 0.1279(10) -0.0293(7)
C38 C 0.0067(3) 0.3323(8) 0.0869(7)
C39 C -0.0112(4) 0.3864(12) 0.0151(8)
C40 C 0.0277(5) 0.4038(12) 0.1418(9)
C41 C 0.0956(3) 0.1829(9) -0.0497(8)
H3 H 0.1976 0.3148 0.2247
H4 H 0.1848 0.3892 0.1017
H5 H 0.2110 0.1306 -0.0091
H6 H 0.2232 0.0577 0.1143
H7 H 0.1553 0.4218 -0.0120
H8 H 0.1748 0.4293 -0.1034
H9 H 0.2020 0.4536 -0.0170
H10 H 0.2238 0.2390 -0.1127
H11 H 0.1860 0.3004 -0.1585
H12 H 0.1791 0.1914 -0.1092
H13 H 0.1818 0.0356 0.5062
H14 H 0.1793 0.1553 0.5389
H15 H 0.2123 0.1226 0.4728
H16 H 0.1000 0.1357 0.3930
H17 H 0.1124 0.1620 0.4917
H18 H 0.1144 0.0427 0.4576
H19 H 0.1534 0.3293 0.3004
H20 H 0.1237 0.3140 0.2287
H21 H 0.0764 0.3033 0.3204
H22 H 0.1293 0.4079 0.4090
H23 H 0.0851 0.4004 0.4237
H24 H 0.1393 -0.0232 0.3473
H25 H 0.1731 -0.0110 0.2788
H26 H 0.1442 -0.1127 0.2760
H27 H 0.1263 -0.0884 0.1418
H28 H 0.1530 0.0166 0.1351
H29 H 0.1055 0.0192 0.1074
H30 H 0.0593 0.0084 0.2046
H31 H 0.0721 0.0010 0.3053
H32 H 0.0787 -0.0984 0.2441
H33 H 0.0451 0.2585 -0.0782
H34 H 0.1113 0.3155 0.0201
H35 H 0.0730 0.3933 0.0095
H36 H 0.0967 0.3601 -0.0730
H37 H 0.0210 0.0643 0.0268
H38 H -0.0304 0.1470 0.1339
H39 H 0.0067 0.0689 0.1587
H40 H -0.0318 0.0270 0.1010
H41 H -0.0413 0.0645 -0.0329
H42 H -0.0102 0.1356 -0.0826
H43 H -0.0411 0.1903 -0.0210
H44 H -0.0156 0.3040 0.1188
H45 H 0.0094 0.4291 -0.0114
H46 H -0.0328 0.4326 0.0336
H47 H -0.0226 0.3350 -0.0269
H48 H 0.0300 0.3749 0.2003
H49 H 0.0129 0.4711 0.1417
H50 H 0.0549 0.4156 0.1218
H51 H 0.1178 0.1926 -0.0054
H52 H 0.1051 0.2024 -0.1060
H53 H 0.0871 0.1086 -0.0507
C42? C 0.0779(3) 0.2762(7) -0.0344(5)
C43? C 0.0836(4) 0.1673(9) -0.0566(9)
C44? C 0.0621(4) 0.3262(10) -0.1085(7)
C45? C 0.0062(2) 0.1773(7) 0.0172(5)
C46? C -0.0103(3) 0.1274(9) 0.0863(7)
C47? C -0.0253(3) 0.2240(9) -0.0329(7)
C48? C 0.0291(3) 0.3856(7) 0.0743(6)
C49? C 0.0066(4) 0.3784(11) 0.1485(7)
C50? C 0.0618(3) 0.4533(10) 0.0926(8)
H54? H 0.1035 0.3088 -0.0128
H55? H 0.0571 0.1345 -0.0710
H56? H 0.0972 0.1301 -0.0076
H57? H 0.1003 0.1629 -0.1064
H58? H 0.0338 0.3045 -0.1204
H59? H 0.0780 0.3063 -0.1571
H60? H 0.0634 0.4030 -0.1004
H61? H 0.0176 0.1218 -0.0180
H62? H -0.0255 0.0647 0.0659
H63? H 0.0116 0.1061 0.1282
H64? H -0.0286 0.1763 0.1137
H65? H -0.0461 0.1708 -0.0485
H66? H -0.0147 0.2531 -0.0854
H67? H -0.0373 0.2810 -0.0002
H68? H 0.0117 0.4154 0.0270
H69? H -0.0166 0.3312 0.1369
H70? H 0.0240 0.3502 0.1965
H71? H -0.0031 0.4489 0.1636
H72? H 0.0803 0.4216 0.1371
H73? H 0.0763 0.4648 0.0403
H74? H 0.0519 0.5212 0.1133
Si2? Si 0.04493(7) 0.2637(2) 0.04556(17)
loop_
_geom_bond_atom_site_label_1
_geom_bond_atom_site_label_2
_geom_bond_site_symmetry_1
_geom_bond_site_symmetry_2
Cl1 C1 1_555 1_555
Cl2 C1 1_555 1_555
C1 H1 1_555 1_555
Si1 C2 1_555 1_555
N1 C12 1_555 1_555
N2 C18 1_555 1_555
N3 C19 1_555 1_555
N4 C21 1_555 1_555
N5 C22 1_555 1_555
C2 C3 1_555 1_555
C3 C4 1_555 1_555
C4 C5 1_555 1_555
C5 C6 1_555 1_555
C6 C7 1_555 1_555
C7 C8 1_555 1_555
C8 C9 1_555 1_555
C9 C10 1_555 1_555
C10 C11 1_555 1_555
C11 C12 1_555 1_555
C12 C13 1_555 1_555
C13 C14 1_555 1_555
C14 C9 1_555 1_555
C15 N1 1_555 1_555
C16 N1 1_555 1_555
C17 C8 1_555 1_555
C18 C17 1_555 1_555
C19 C17 1_555 1_555
C20 C7 1_555 1_555
C21 C20 1_555 1_555
C22 C20 1_555 1_555
C23 C6 1_555 1_555
C24 C23 1_555 1_555
C25 C23 1_555 1_555
C26 C5 1_555 1_555
C27 C26 1_555 1_555
C28 C27 1_555 1_555
C29 C4 1_555 1_555
C30 C29 1_555 1_555
C31 C29 1_555 1_555
C32 C29 1_555 1_555
C33 Si1 1_555 1_555
C34 C33 1_555 1_555
C35 Si1 1_555 1_555
C36 C35 1_555 1_555
C37 C35 1_555 1_555
C38 Si1 1_555 1_555
C39 C38 1_555 1_555
C40 C38 1_555 1_555
C41 C33 1_555 1_555
H2 C1 1_555 1_555
H3 C10 1_555 1_555
H4 C11 1_555 1_555
H5 C13 1_555 1_555
H6 C14 1_555 1_555
H7 C15 1_555 1_555
H8 C15 1_555 1_555
H9 C15 1_555 1_555
H10 C16 1_555 1_555
H11 C16 1_555 1_555
H12 C16 1_555 1_555
H13 C24 1_555 1_555
H14 C24 1_555 1_555
H15 C24 1_555 1_555
H16 C25 1_555 1_555
H17 C25 1_555 1_555
H18 C25 1_555 1_555
H19 C26 1_555 1_555
H20 C26 1_555 1_555
H21 C27 1_555 1_555
H22 C28 1_555 1_555
H23 C28 1_555 1_555
H24 C30 1_555 1_555
H25 C30 1_555 1_555
H26 C30 1_555 1_555
H27 C31 1_555 1_555
H28 C31 1_555 1_555
H29 C31 1_555 1_555
H30 C32 1_555 1_555
H31 C32 1_555 1_555
H32 C32 1_555 1_555
H33 C33 1_555 1_555
H34 C34 1_555 1_555
H35 C34 1_555 1_555
H36 C34 1_555 1_555
H37 C35 1_555 1_555
H38 C36 1_555 1_555
H39 C36 1_555 1_555
H40 C36 1_555 1_555
H41 C37 1_555 1_555
H42 C37 1_555 1_555
H43 C37 1_555 1_555
H44 C38 1_555 1_555
H45 C39 1_555 1_555
H46 C39 1_555 1_555
H47 C39 1_555 1_555
H48 C40 1_555 1_555
H49 C40 1_555 1_555
H50 C40 1_555 1_555
H51 C41 1_555 1_555
H52 C41 1_555 1_555
H53 C41 1_555 1_555

#END
