
#######################################################################
#
#                 Cambridge Crystallographic Data Centre
#                                CCDC 
#
#######################################################################
#
# If this CIF has been generated from an entry in the Cambridge 
# Structural Database, then it will include bibliographic, chemical, 
# crystal, experimental, refinement or atomic coordinate data resulting 
# from the CCDC's data processing and validation procedures.
#
#######################################################################

data_ICIHAE
_chemical_compound_source        'leaves of Andrographis paniculata'
_chemical_formula_moiety         'C20 H30 O5'
_chemical_name_systematic        Andropanolide
_chemical_properties_biological  
'parent plant exhibits antibacterial, anti-inflammatory, antimalarial, antithrombotic, hepatoprotective and immunostimulant properties'
_symmetry_cell_setting           orthorhombic
_symmetry_space_group_name_H-M   'P 21 21 21'
_symmetry_Int_Tables_number      19
_space_group_name_Hall           'P 2ac 2ab'
loop_
_symmetry_equiv_pos_site_id
_symmetry_equiv_pos_as_xyz
1 x,y,z
2 1/2-x,-y,1/2+z
3 -x,1/2+y,1/2-z
4 1/2+x,1/2-y,-z
_cell_length_a                   7.435(2)
_cell_length_b                   10.636(2)
_cell_length_c                   23.951(3)
_cell_angle_alpha                90
_cell_angle_beta                 90
_cell_angle_gamma                90
_cell_volume                     1894.01
_exptl_crystal_colour            colorless
_exptl_crystal_description       plate
_chemical_melting_point          '210-211 deg.C'
_cell_formula_units_Z            4
loop_
_atom_site_label
_atom_site_type_symbol
_atom_site_fract_x
_atom_site_fract_y
_atom_site_fract_z
C1 C 0.5993(5) 0.6586(4) 0.67760(17)
H1 H 0.6332 0.5726 0.6860
H2 H 0.4822 0.6737 0.6941
C2 C 0.5854(6) 0.6743(4) 0.61455(17)
H3 H 0.4964 0.6162 0.6000
H4 H 0.5461 0.7590 0.6060
C3 C 0.7638(5) 0.6498(4) 0.58679(18)
H5 H 0.7990 0.5630 0.5953
O1 O 0.7468(4) 0.6609(3) 0.52656(12)
H6 H 0.626(4) 0.628(6) 0.518(3)
C4 C 0.9155(5) 0.7370(4) 0.60709(17)
C5 C 1.0943(6) 0.6829(5) 0.58535(19)
H7 H 1.0861 0.6698 0.5458
H8 H 1.1183 0.6042 0.6035
H9 H 1.1899 0.7408 0.5932
C6 C 0.8944(6) 0.8720(4) 0.58479(18)
H10 H 0.7746 0.9021 0.5937
H11 H 0.9800 0.9262 0.6037
O2 O 0.9223(4) 0.8816(3) 0.52506(13)
H12 H 0.850(8) 0.811(4) 0.510(3)
C7 C 0.9189(5) 0.7314(4) 0.67204(16)
H13 H 0.9538 0.6444 0.6801
C8 C 1.0686(6) 0.8098(5) 0.69920(18)
H14 H 1.1798 0.7977 0.6787
H15 H 1.0373 0.8982 0.6972
C9 C 1.0967(6) 0.7731(5) 0.75952(19)
H16 H 1.1430 0.6879 0.7614
H17 H 1.1847 0.8286 0.7764
C10 C 0.9233(7) 0.7810(4) 0.79142(19)
C11 C 0.9086(9) 0.8502(5) 0.8360(2)
H18 H 0.795(3) 0.875(4) 0.8531(17)
H19 H 1.012(3) 0.900(4) 0.8479(18)
C12 C 0.7717(5) 0.7070(4) 0.76563(17)
H20 H 0.8143 0.6199 0.7637
C13 C 0.6007(6) 0.7037(4) 0.80189(18)
H21 H 0.5637 0.7893 0.8099
H22 H 0.5049 0.6638 0.7809
C14 C 0.7361(5) 0.7477(4) 0.70399(18)
C15 C 0.6648(7) 0.8833(4) 0.7041(2)
H23 H 0.7622 0.9403 0.7112
H24 H 0.5754 0.8922 0.7328
H25 H 0.6123 0.9020 0.6685
C16 C 0.6251(6) 0.6348(4) 0.8559(2)
H26 H 0.6994 0.5646 0.8545
C17 C 0.4366(9) 0.7671(6) 0.9174(2)
O3 O 0.3973(8) 0.8569(4) 0.8901(2)
C18 C 0.5557(6) 0.6604(4) 0.90492(19)
C19 C 0.5741(8) 0.5843(4) 0.95716(19)
H27 H 0.6916 0.5994 0.9744
O4 O 0.5517(5) 0.4544(3) 0.94562(13)
H28 H 0.632(8) 0.411(6) 0.972(2)
C20 C 0.4246(13) 0.6349(6) 0.9944(3)
H29 H 0.3241 0.5768 0.9955
H30 H 0.4682 0.6474 1.0322
O5 O 0.3709(6) 0.7529(4) 0.97012(18)
loop_
_geom_bond_atom_site_label_1
_geom_bond_atom_site_label_2
_geom_bond_site_symmetry_1
_geom_bond_site_symmetry_2
C1 H1 1_555 1_555
H2 C1 1_555 1_555
C2 C1 1_555 1_555
H3 C2 1_555 1_555
H4 C2 1_555 1_555
C3 C2 1_555 1_555
H5 C3 1_555 1_555
O1 C3 1_555 1_555
H6 O1 1_555 1_555
C4 C3 1_555 1_555
C5 C4 1_555 1_555
H7 C5 1_555 1_555
H8 C5 1_555 1_555
H9 C5 1_555 1_555
C6 C4 1_555 1_555
H10 C6 1_555 1_555
H11 C6 1_555 1_555
O2 C6 1_555 1_555
H12 O2 1_555 1_555
C7 C4 1_555 1_555
H13 C7 1_555 1_555
C8 C7 1_555 1_555
H14 C8 1_555 1_555
H15 C8 1_555 1_555
C9 C8 1_555 1_555
H16 C9 1_555 1_555
H17 C9 1_555 1_555
C10 C9 1_555 1_555
C11 C10 1_555 1_555
H18 C11 1_555 1_555
H19 C11 1_555 1_555
C12 C10 1_555 1_555
H20 C12 1_555 1_555
C13 C12 1_555 1_555
H21 C13 1_555 1_555
H22 C13 1_555 1_555
C14 C1 1_555 1_555
C15 C14 1_555 1_555
H23 C15 1_555 1_555
H24 C15 1_555 1_555
H25 C15 1_555 1_555
C16 C13 1_555 1_555
H26 C16 1_555 1_555
C17 O3 1_555 1_555
C18 C16 1_555 1_555
C19 C18 1_555 1_555
H27 C19 1_555 1_555
O4 C19 1_555 1_555
H28 O4 1_555 1_555
C20 C19 1_555 1_555
H29 C20 1_555 1_555
H30 C20 1_555 1_555
O5 C17 1_555 1_555
C7 C14 1_555 1_555
C12 C14 1_555 1_555
C17 C18 1_555 1_555
C20 O5 1_555 1_555

#END
