
#######################################################################
#
#                 Cambridge Crystallographic Data Centre
#                                CCDC 
#
#######################################################################
#
# If this CIF has been generated from an entry in the Cambridge 
# Structural Database, then it will include bibliographic, chemical, 
# crystal, experimental, refinement or atomic coordinate data resulting 
# from the CCDC's data processing and validation procedures.
#
#######################################################################

data_ICIKUB
_chemical_name_common            
1,2,5,6-Tetramethyl-3,4,7,8-tetraphenylsemibullvalene
_chemical_formula_moiety         'C36 H32'
_chemical_name_systematic        
2a,4,4a,4b-Tetramethyl-1,2,2b,3-tetraphenyl-2a,2b,4a,4b-tetrahydrocyclopropa(cd)pentalene
_symmetry_cell_setting           triclinic
_symmetry_space_group_name_H-M   'P -1'
_symmetry_Int_Tables_number      2
_space_group_name_Hall           '-P 1'
loop_
_symmetry_equiv_pos_site_id
_symmetry_equiv_pos_as_xyz
1 x,y,z
2 -x,-y,-z
_cell_length_a                   9.7357(19)
_cell_length_b                   10.937(2)
_cell_length_c                   14.409(3)
_cell_angle_alpha                72.66(3)
_cell_angle_beta                 79.32(3)
_cell_angle_gamma                66.81(3)
_cell_volume                     1342.16
_exptl_crystal_colour            colorless
_exptl_crystal_description       Block
_chemical_melting_point          189-191deg.C
_cell_formula_units_Z            2
loop_
_atom_site_label
_atom_site_type_symbol
_atom_site_fract_x
_atom_site_fract_y
_atom_site_fract_z
C1 C 0.2370(5) 1.0391(3) 0.3124(3)
C2 C 0.2024(3) 0.9207(3) 0.3635(2)
C3 C 0.1502(4) 0.8762(4) 0.2995(3)
C4 C 0.1542(4) 0.9613(3) 0.1975(2)
C5 C 0.2967(4) 0.8425(3) 0.1827(3)
C6 C 0.4238(4) 0.8721(3) 0.1873(2)
C7 C 0.3790(4) 1.0069(3) 0.1976(3)
C8 C 0.2129(4) 1.0730(3) 0.2043(2)
C9 C 0.2494(4) 1.1372(3) 0.3602(3)
C10 C 0.3803(4) 1.1178(3) 0.3969(3)
H1 H 0.4656 1.0418 0.3900
C11 C 0.3869(4) 1.2092(4) 0.4437(3)
H2 H 0.4752 1.1929 0.4694
C12 C 0.2633(5) 1.3233(4) 0.4521(3)
H3 H 0.2687 1.3863 0.4813
C13 C 0.1308(4) 1.3451(4) 0.4173(3)
H4 H 0.0463 1.4214 0.4247
C14 C 0.1232(4) 1.2526(3) 0.3708(3)
H5 H 0.0338 1.2681 0.3469
C15 C 0.2310(3) 0.8451(3) 0.4665(2)
C16 C 0.1889(3) 0.9077(3) 0.5439(2)
H6 H 0.1400 1.0024 0.5313
C17 C 0.2176(4) 0.8332(4) 0.6390(3)
H7 H 0.1874 0.8782 0.6889
C18 C 0.2911(4) 0.6920(4) 0.6601(3)
H8 H 0.3112 0.6419 0.7239
C19 C 0.3342(4) 0.6266(4) 0.5853(3)
H9 H 0.3824 0.5317 0.5987
C20 C 0.3058(4) 0.7023(3) 0.4899(3)
H10 H 0.3373 0.6569 0.4402
C21 C 0.3054(4) 0.7254(3) 0.1470(3)
C22 C 0.3504(4) 0.5905(4) 0.2064(3)
H11 H 0.3739 0.5749 0.2696
C23 C 0.3606(5) 0.4821(4) 0.1740(3)
H12 H 0.3908 0.3938 0.2146
C24 C 0.3256(5) 0.5044(4) 0.0801(3)
H13 H 0.3331 0.4306 0.0574
C25 C 0.2795(5) 0.6359(5) 0.0197(3)
H14 H 0.2543 0.6509 -0.0429
C26 C 0.2713(4) 0.7443(4) 0.0531(3)
H15 H 0.2422 0.8322 0.0119
C27 C 0.5806(3) 0.7729(3) 0.1910(2)
C28 C 0.6537(4) 0.7041(4) 0.1179(3)
H16 H 0.6030 0.7193 0.0644
C29 C 0.8020(5) 0.6128(4) 0.1243(3)
H17 H 0.8488 0.5662 0.0758
C30 C 0.8800(4) 0.5912(4) 0.2028(3)
H18 H 0.9802 0.5339 0.2054
C31 C 0.8079(4) 0.6552(3) 0.2767(3)
H19 H 0.8581 0.6379 0.3309
C32 C 0.6586(4) 0.7468(3) 0.2700(3)
H20 H 0.6113 0.7907 0.3197
C33 C 0.0592(4) 0.7855(4) 0.3321(3)
H21 H 0.0349 0.7697 0.2762
H22 H -0.0315 0.8293 0.3680
H23 H 0.1160 0.6993 0.3732
C34 C 0.0254(4) 1.0068(4) 0.1350(3)
H24 H 0.0469 1.0603 0.0719
H25 H -0.0647 1.0615 0.1655
H26 H 0.0124 0.9276 0.1280
C35 C 0.4852(4) 1.0856(3) 0.1689(3)
H27 H 0.4348 1.1748 0.1816
H28 H 0.5167 1.0955 0.1008
H29 H 0.5713 1.0362 0.2063
C36 C 0.1362(4) 1.2203(3) 0.1491(3)
H30 H 0.0296 1.2456 0.1619
H31 H 0.1621 1.2288 0.0804
H32 H 0.1684 1.2797 0.1698
loop_
_geom_bond_atom_site_label_1
_geom_bond_atom_site_label_2
_geom_bond_site_symmetry_1
_geom_bond_site_symmetry_2
C1 C2 1_555 1_555
C2 C3 1_555 1_555
C3 C4 1_555 1_555
C4 C5 1_555 1_555
C5 C6 1_555 1_555
C6 C7 1_555 1_555
C7 C1 1_555 1_555
C8 C1 1_555 1_555
C9 C1 1_555 1_555
C10 C9 1_555 1_555
H1 C10 1_555 1_555
C11 C10 1_555 1_555
H2 C11 1_555 1_555
C12 C11 1_555 1_555
H3 C12 1_555 1_555
C13 C12 1_555 1_555
H4 C13 1_555 1_555
C14 C9 1_555 1_555
H5 C14 1_555 1_555
C15 C2 1_555 1_555
C16 C15 1_555 1_555
H6 C16 1_555 1_555
C17 C16 1_555 1_555
H7 C17 1_555 1_555
C18 C17 1_555 1_555
H8 C18 1_555 1_555
C19 C18 1_555 1_555
H9 C19 1_555 1_555
C20 C15 1_555 1_555
H10 C20 1_555 1_555
C21 C5 1_555 1_555
C22 C21 1_555 1_555
H11 C22 1_555 1_555
C23 C22 1_555 1_555
H12 C23 1_555 1_555
C24 C23 1_555 1_555
H13 C24 1_555 1_555
C25 C24 1_555 1_555
H14 C25 1_555 1_555
C26 C21 1_555 1_555
H15 C26 1_555 1_555
C27 C6 1_555 1_555
C28 C27 1_555 1_555
H16 C28 1_555 1_555
C29 C28 1_555 1_555
H17 C29 1_555 1_555
C30 C29 1_555 1_555
H18 C30 1_555 1_555
C31 C30 1_555 1_555
H19 C31 1_555 1_555
C32 C27 1_555 1_555
H20 C32 1_555 1_555
C33 C3 1_555 1_555
H21 C33 1_555 1_555
H22 C33 1_555 1_555
H23 C33 1_555 1_555
C34 C4 1_555 1_555
H24 C34 1_555 1_555
H25 C34 1_555 1_555
H26 C34 1_555 1_555
C35 C7 1_555 1_555
H27 C35 1_555 1_555
H28 C35 1_555 1_555
H29 C35 1_555 1_555
C36 C8 1_555 1_555
H30 C36 1_555 1_555
H31 C36 1_555 1_555
H32 C36 1_555 1_555
C4 C8 1_555 1_555
C7 C8 1_555 1_555
C13 C14 1_555 1_555
C19 C20 1_555 1_555
C25 C26 1_555 1_555
C31 C32 1_555 1_555

#END
