
#######################################################################
#
#                 Cambridge Crystallographic Data Centre
#                                CCDC 
#
#######################################################################
#
# If this CIF has been generated from an entry in the Cambridge 
# Structural Database, then it will include bibliographic, chemical, 
# crystal, experimental, refinement or atomic coordinate data resulting 
# from the CCDC's data processing and validation procedures.
#
#######################################################################

data_ICILOV
_chemical_formula_moiety         'C9 H9 Br1 S4'
_chemical_name_systematic        4-Bromo-4',5,5'-trimethyltetrathiafulvalene
_symmetry_cell_setting           triclinic
_symmetry_space_group_name_H-M   'P -1'
_symmetry_Int_Tables_number      2
_space_group_name_Hall           '-P 1'
loop_
_symmetry_equiv_pos_site_id
_symmetry_equiv_pos_as_xyz
1 x,y,z
2 -x,-y,-z
_cell_length_a                   6.033(2)
_cell_length_b                   6.830(1)
_cell_length_c                   7.862(4)
_cell_angle_alpha                107.70(2)
_cell_angle_beta                 103.17(1)
_cell_angle_gamma                95.81(1)
_cell_volume                     295.384
_exptl_crystal_colour            orange
_exptl_crystal_description       plate
_chemical_melting_point          447-448K
_cell_formula_units_Z            1
_exptl_crystal_recrystallization_method acetonitrile
loop_
_atom_site_label
_atom_site_type_symbol
_atom_site_fract_x
_atom_site_fract_y
_atom_site_fract_z
Br1 Br 0.2108(7) 0.2062(7) 0.0913(6)
S1 S 0.69554(15) 0.25752(15) 0.32587(14)
S2 S 0.7955(2) 0.7152(2) 0.40385(14)
C1 C 0.8942(6) 0.4941(6) 0.4431(5)
C2 C 0.4706(6) 0.3719(6) 0.2315(5)
C3 C 0.5163(6) 0.5780(6) 0.2675(5)
C5 C 0.3493(24) 0.7137(24) 0.1973(22)
H4 H 0.3374(65) 0.8306(47) 0.3035(22)
H5 H 0.1939(31) 0.6279(30) 0.1317(58)
H6 H 0.4074(47) 0.7713(63) 0.1115(54)
C1A C 1.1058(6) 0.5059(6) 0.5569(5)
S1A S 1.30446(15) 0.74248(15) 0.67413(14)
C2A C 1.5294(6) 0.6281(6) 0.7685(5)
Br1A Br 1.7892(7) 0.7938(7) 0.9087(6)
C3A C 1.4837(6) 0.4220(6) 0.7325(5)
S2A S 1.2045(2) 0.2848(2) 0.59615(14)
C5A C 1.6507(24) 0.2863(24) 0.8027(22)
H4A H 1.6626(65) 0.1694(47) 0.6965(22)
H5A H 1.8061(31) 0.3721(30) 0.8683(58)
H6A H 1.5926(47) 0.2287(63) 0.8885(54)
Br2? Br 0.3197(6) 0.7275(6) 0.1840(6)
C4? C 0.2403(24) 0.2204(27) 0.1074(24)
H1? H 0.1844(48) 0.1397(57) 0.1780(33)
H2? H 0.2680(30) 0.1248(55) -0.0039(40)
H3? H 0.1239(35) 0.3009(27) 0.0709(57)
loop_
_geom_bond_atom_site_label_1
_geom_bond_atom_site_label_2
_geom_bond_site_symmetry_1
_geom_bond_site_symmetry_2
Br1 C2 1_555 1_555
S1 C1 1_555 1_555
S2 C1 1_555 1_555
C1 C1A 1_555 1_555
C2 S1 1_555 1_555
C3 S2 1_555 1_555
C5 C3 1_555 1_555
H4 C5 1_555 1_555
H5 C5 1_555 1_555
H6 C5 1_555 1_555
C1A S1A 1_555 1_555
S1A C2A 1_555 1_555
C2A Br1A 1_555 1_555
C3A C2A 1_555 1_555
S2A C1A 1_555 1_555
C5A C3A 1_555 1_555
H4A C5A 1_555 1_555
H5A C5A 1_555 1_555
H6A C5A 1_555 1_555
C2 C3 1_555 1_555
C3A S2A 1_555 1_555

#END
