
#######################################################################
#
#                 Cambridge Crystallographic Data Centre
#                                CCDC 
#
#######################################################################
#
# If this CIF has been generated from an entry in the Cambridge 
# Structural Database, then it will include bibliographic, chemical, 
# crystal, experimental, refinement or atomic coordinate data resulting 
# from the CCDC's data processing and validation procedures.
#
#######################################################################

data_ICILUB
_chemical_formula_moiety         'C10 H12 S4'
_chemical_name_systematic        4,4',5,5'-Tetramethyltetrathiafulvalene
_symmetry_cell_setting           triclinic
_symmetry_space_group_name_H-M   'P -1'
_symmetry_Int_Tables_number      2
_space_group_name_Hall           '-P 1'
loop_
_symmetry_equiv_pos_site_id
_symmetry_equiv_pos_as_xyz
1 x,y,z
2 -x,-y,-z
_cell_length_a                   6.0472(3)
_cell_length_b                   6.7723(4)
_cell_length_c                   7.7964(4)
_cell_angle_alpha                107.635(2)
_cell_angle_beta                 103.913(2)
_cell_angle_gamma                96.561(2)
_cell_volume                     289.253
_exptl_crystal_colour            orange
_exptl_crystal_description       plate
_cell_formula_units_Z            1
loop_
_atom_site_label
_atom_site_type_symbol
_atom_site_fract_x
_atom_site_fract_y
_atom_site_fract_z
S1 S 0.31105(5) 0.74831(5) 0.17119(4)
S2 S 0.20411(5) 0.29077(5) 0.10934(4)
C1 C 0.1067(2) 0.5080(2) 0.05823(17)
C2 C 0.5393(2) 0.6373(2) 0.26880(17)
C3 C 0.4904(2) 0.4293(2) 0.23998(17)
C4 C 0.7663(2) 0.7897(2) 0.3802(2)
H1 H 0.824(3) 0.862(3) 0.304(3)
H2 H 0.753(4) 0.894(4) 0.487(4)
H3 H 0.876(4) 0.722(4) 0.427(3)
C5 C 0.6541(2) 0.2999(2) 0.3091(2)
H4 H 0.647(4) 0.171(4) 0.205(3)
H5 H 0.618(4) 0.263(4) 0.393(4)
H6 H 0.806(4) 0.375(4) 0.367(3)
C1A C -0.1067(2) 0.4920(2) -0.05823(17)
S1A S -0.31105(5) 0.25169(5) -0.17119(4)
C2A C -0.5393(2) 0.3627(2) -0.26880(17)
C3A C -0.4904(2) 0.5707(2) -0.23998(17)
S2A S -0.20411(5) 0.70923(5) -0.10934(4)
C5A C -0.6541(2) 0.7001(2) -0.3091(2)
H4A H -0.647(4) 0.829(4) -0.205(3)
H5A H -0.618(4) 0.737(4) -0.393(4)
H6A H -0.806(4) 0.625(4) -0.367(3)
C4A C -0.7663(2) 0.2103(2) -0.3802(2)
H1A H -0.824(3) 0.138(3) -0.304(3)
H2A H -0.753(4) 0.106(4) -0.487(4)
H3A H -0.876(4) 0.278(4) -0.427(3)
loop_
_geom_bond_atom_site_label_1
_geom_bond_atom_site_label_2
_geom_bond_site_symmetry_1
_geom_bond_site_symmetry_2
S1 C1 1_555 1_555
S2 C1 1_555 1_555
C1 C1A 1_555 1_555
C2 S1 1_555 1_555
C3 S2 1_555 1_555
C4 C2 1_555 1_555
H1 C4 1_555 1_555
H2 C4 1_555 1_555
H3 C4 1_555 1_555
C5 C3 1_555 1_555
H4 C5 1_555 1_555
H5 C5 1_555 1_555
H6 C5 1_555 1_555
C1A S1A 1_555 1_555
S1A C2A 1_555 1_555
C2A C3A 1_555 1_555
C3A S2A 1_555 1_555
S2A C1A 1_555 1_555
C5A C3A 1_555 1_555
H4A C5A 1_555 1_555
H5A C5A 1_555 1_555
H6A C5A 1_555 1_555
C4A C2A 1_555 1_555
H1A C4A 1_555 1_555
H2A C4A 1_555 1_555
H3A C4A 1_555 1_555
C2 C3 1_555 1_555

#END
