
#######################################################################
#
#                 Cambridge Crystallographic Data Centre
#                                CCDC 
#
#######################################################################
#
# If this CIF has been generated from an entry in the Cambridge 
# Structural Database, then it will include bibliographic, chemical, 
# crystal, experimental, refinement or atomic coordinate data resulting 
# from the CCDC's data processing and validation procedures.
#
#######################################################################

data_ICINUG
_chemical_compound_source        
'marine alga-derived fungus Penicillium thomii Maire KMM 4675'
_chemical_name_common            'Pallidopenillin A'
_chemical_formula_moiety         'C15 H24 O4'
_chemical_name_systematic        
1-((1R,2R,4aR,5R,6S,8aS)-02,5-dihydroxy-2,6-dimethyl-1,2,4a,5,6,7,8,8a-octahydronaphthalen-1-yl)-3-hydroxypropan-1-one
_symmetry_cell_setting           orthorhombic
_symmetry_space_group_name_H-M   'P 21 21 21'
_symmetry_Int_Tables_number      19
_space_group_name_Hall           'P 2ac 2ab'
loop_
_symmetry_equiv_pos_site_id
_symmetry_equiv_pos_as_xyz
1 x,y,z
2 1/2-x,-y,1/2+z
3 -x,1/2+y,1/2-z
4 1/2+x,1/2-y,-z
_cell_length_a                   9.23720(10)
_cell_length_b                   10.90570(10)
_cell_length_c                   14.6437(2)
_cell_angle_alpha                90
_cell_angle_beta                 90
_cell_angle_gamma                90
_cell_volume                     1475.18
_exptl_crystal_colour            colorless
_exptl_crystal_description       prism
_cell_formula_units_Z            4
loop_
_atom_site_label
_atom_site_type_symbol
_atom_site_fract_x
_atom_site_fract_y
_atom_site_fract_z
O1 O 0.7492(2) 0.39914(12) -0.17045(8)
H1 H 0.7297 0.4458 -0.2126
O2 O 0.61371(17) 0.28294(16) 0.00351(12)
O3 O 0.87102(15) -0.15961(11) 0.26986(9)
H2 H 0.8332 -0.2241 0.2860
O4 O 0.83859(14) 0.40572(10) 0.21118(8)
H3 H 0.9244 0.3876 0.2159
C1 C 0.7617(2) 0.46709(14) -0.08807(11)
H4 H 0.6662 0.4924 -0.0679
H5 H 0.8187 0.5403 -0.0990
C2 C 0.83263(19) 0.39128(15) -0.01441(11)
H6 H 0.9147 0.3486 -0.0408
H7 H 0.8695 0.4461 0.0323
C3 C 0.73562(18) 0.29899(13) 0.03005(10)
C4 C 0.79633(16) 0.22933(12) 0.11175(9)
H8 H 0.9021 0.2313 0.1071
C5 C 0.74986(19) 0.09426(12) 0.11336(9)
H9 H 0.6463 0.0905 0.1276
C6 C 0.7752(3) 0.02927(16) 0.02258(11)
H10 H 0.7182 0.0683 -0.0249
H11 H 0.8765 0.0352 0.0058
C7 C 0.7319(5) -0.10503(17) 0.03107(13)
H12 H 0.7515 -0.1461 -0.0264
H13 H 0.6285 -0.1098 0.0422
C8 C 0.8111(4) -0.17236(16) 0.10730(13)
H14 H 0.9149 -0.1710 0.0936
C9 C 0.78733(19) -0.10602(13) 0.19745(10)
H15 H 0.6844 -0.1098 0.2135
C10 C 0.83332(17) 0.02832(12) 0.18939(9)
H16 H 0.9359 0.0290 0.1722
C11 C 0.8204(2) 0.09615(15) 0.27747(10)
H17 H 0.8374 0.0539 0.3316
C12 C 0.7858(2) 0.21359(15) 0.28211(11)
H18 H 0.7809 0.2486 0.3399
C13 C 0.75366(18) 0.29565(13) 0.20174(10)
C14 C 0.7626(7) -0.30570(19) 0.11223(18)
H19 H 0.6669 -0.3098 0.1376
H20 H 0.8282 -0.3510 0.1503
H21 H 0.7621 -0.3403 0.0520
C15 C 0.5970(2) 0.3381(2) 0.20525(17)
H22 H 0.5815 0.4000 0.1597
H23 H 0.5766 0.3714 0.2646
H24 H 0.5341 0.2698 0.1938
loop_
_geom_bond_atom_site_label_1
_geom_bond_atom_site_label_2
_geom_bond_site_symmetry_1
_geom_bond_site_symmetry_2
O1 H1 1_555 1_555
O2 C3 1_555 1_555
O3 H2 1_555 1_555
O4 H3 1_555 1_555
C1 O1 1_555 1_555
H4 C1 1_555 1_555
H5 C1 1_555 1_555
C2 C1 1_555 1_555
H6 C2 1_555 1_555
H7 C2 1_555 1_555
C3 C2 1_555 1_555
C4 C3 1_555 1_555
H8 C4 1_555 1_555
C5 C4 1_555 1_555
H9 C5 1_555 1_555
C6 C5 1_555 1_555
H10 C6 1_555 1_555
H11 C6 1_555 1_555
C7 C6 1_555 1_555
H12 C7 1_555 1_555
H13 C7 1_555 1_555
C8 C7 1_555 1_555
H14 C8 1_555 1_555
C9 O3 1_555 1_555
H15 C9 1_555 1_555
C10 C5 1_555 1_555
H16 C10 1_555 1_555
C11 C10 1_555 1_555
H17 C11 1_555 1_555
C12 C11 1_555 1_555
H18 C12 1_555 1_555
C13 O4 1_555 1_555
C14 C8 1_555 1_555
H19 C14 1_555 1_555
H20 C14 1_555 1_555
H21 C14 1_555 1_555
C15 C13 1_555 1_555
H22 C15 1_555 1_555
H23 C15 1_555 1_555
H24 C15 1_555 1_555
C4 C13 1_555 1_555
C8 C9 1_555 1_555
C9 C10 1_555 1_555
C12 C13 1_555 1_555

#END
