
#######################################################################
#
#                 Cambridge Crystallographic Data Centre
#                                CCDC 
#
#######################################################################
#
# If this CIF has been generated from an entry in the Cambridge 
# Structural Database, then it will include bibliographic, chemical, 
# crystal, experimental, refinement or atomic coordinate data resulting 
# from the CCDC's data processing and validation procedures.
#
#######################################################################

data_ICINAJ
_chemical_formula_moiety         'C6 H3 I1 S4,C16 H4 N6 O8,2(C4 H8 O2)'
_chemical_name_systematic        
'4-Iodotetrathiafulvalene 2,4,5,7-tetranitro-9-dicyanomethylenefluorene dioxane solvate'
_symmetry_cell_setting           monoclinic
_symmetry_space_group_name_H-M   'P 21/c'
_symmetry_Int_Tables_number      14
_space_group_name_Hall           '-P 2ybc'
loop_
_symmetry_equiv_pos_site_id
_symmetry_equiv_pos_as_xyz
1 x,y,z
2 x,1/2-y,1/2+z
3 -x,-y,-z
4 -x,1/2+y,1/2-z
_cell_length_a                   10.178(1)
_cell_length_b                   24.490(1)
_cell_length_c                   14.101(1)
_cell_angle_alpha                90
_cell_angle_beta                 100.99(1)
_cell_angle_gamma                90
_cell_volume                     3450.34
_exptl_crystal_colour            green-black
_exptl_crystal_description       prism
_cell_formula_units_Z            4
loop_
_atom_site_label
_atom_site_type_symbol
_atom_site_fract_x
_atom_site_fract_y
_atom_site_fract_z
I1 I 0.69842(2) 0.417503(7) 0.648373(14)
S1 S 0.50338(6) 0.31337(2) 0.57740(4)
S2 S 0.71164(6) 0.22800(3) 0.62116(5)
S3 S 0.27619(6) 0.21945(2) 0.52022(4)
S4 S 0.47928(6) 0.13359(2) 0.57870(4)
C1 C 0.5410(2) 0.24321(10) 0.5835(2)
C2 C 0.6672(2) 0.33423(10) 0.6258(2)
C3 C 0.7614(2) 0.29560(10) 0.6453(2)
H1 H 0.8483(31) 0.3040(12) 0.6655(21)
C4 C 0.4450(2) 0.20375(9) 0.5625(2)
C5 C 0.2213(3) 0.15177(11) 0.5152(2)
H2 H 0.1294(31) 0.1400(12) 0.4979(21)
C6 C 0.3133(3) 0.11294(11) 0.5416(2)
H3 H 0.2934(34) 0.0758(15) 0.5415(25)
N1 N 0.4826(2) 0.02526(8) 0.3640(2)
N2 N 0.1361(2) 0.15410(8) 0.22187(15)
N3 N 0.1029(2) 0.27306(8) 0.25311(15)
N4 N 0.4236(2) 0.42183(8) 0.30527(15)
N5 N 0.8775(2) 0.14995(10) 0.4157(2)
N6 N 0.8416(2) 0.32300(11) 0.4099(2)
O1 O 0.5895(2) 0.01790(8) 0.4195(2)
O2 O 0.4080(2) -0.01155(7) 0.3283(2)
O3 O 0.0454(2) 0.12805(7) 0.24605(14)
O4 O 0.1229(2) 0.18572(7) 0.15236(12)
O5 O 0.0666(2) 0.24165(7) 0.31139(13)
O6 O 0.0287(2) 0.29485(7) 0.18497(15)
O7 O 0.3452(2) 0.45121(7) 0.25115(14)
O8 O 0.5226(2) 0.43835(7) 0.36188(14)
C7 C 0.5383(2) 0.12282(9) 0.3603(2)
H4 H 0.6293(28) 0.1134(11) 0.3916(20)
C8 C 0.4417(2) 0.08208(9) 0.3393(2)
C9 C 0.3098(2) 0.09234(9) 0.2978(2)
H5 H 0.2442(28) 0.0638(11) 0.2841(19)
C10 C 0.2728(2) 0.14625(9) 0.2767(2)
C11 C 0.2459(2) 0.28833(9) 0.2710(2)
C12 C 0.2684(2) 0.34430(9) 0.2687(2)
H6 H 0.1997(28) 0.3669(12) 0.2464(20)
C13 C 0.3984(2) 0.36266(9) 0.3018(2)
C14 C 0.5051(2) 0.32813(9) 0.3338(2)
H7 H 0.5939(30) 0.3436(12) 0.3565(21)
C15 C 0.5767(2) 0.22718(9) 0.3554(2)
C16 C 0.4973(2) 0.17674(9) 0.3401(2)
C17 C 0.3610(2) 0.18998(9) 0.3010(2)
C18 C 0.3502(2) 0.25036(9) 0.2971(2)
C19 C 0.4813(2) 0.27208(9) 0.3288(2)
C20 C 0.7129(2) 0.23149(10) 0.3856(2)
C21 C 0.8019(2) 0.18522(10) 0.4029(2)
C22 C 0.7830(2) 0.28289(11) 0.3982(2)
O9 O 0.0100(2) 0.42438(8) 0.2308(2)
C23 C -0.1251(3) 0.41683(14) 0.1832(4)
H8 H -0.1390(38) 0.3782(17) 0.1742(28)
H9 H -0.1932(46) 0.4330(18) 0.2210(31)
C24 C -0.1511(5) 0.4448(2) 0.0895(3)
H10 H -0.2396(43) 0.4416(16) 0.0565(29)
H11 H -0.0940(31) 0.4437(13) 0.0477(22)
O10 O -0.1215(3) 0.50267(9) 0.0981(2)
C25 C 0.0145(3) 0.50940(14) 0.1472(3)
H12 H 0.0292(32) 0.5488(14) 0.1508(23)
H13 H 0.0733(39) 0.4938(16) 0.1092(28)
C26 C 0.0358(3) 0.48139(12) 0.2426(2)
H14 H -0.0181(32) 0.4968(13) 0.2842(22)
H15 H 0.1241(37) 0.4831(14) 0.2787(25)
O11 O 0.2579(2) 0.07725(8) -0.05814(13)
C27 C 0.1510(3) 0.11066(12) -0.0371(2)
H16 H 0.1876(32) 0.1393(14) 0.0014(23)
H17 H 0.1041(31) 0.1243(13) -0.0994(23)
C28 C 0.0578(3) 0.07744(12) 0.0108(2)
H18 H 0.0187(28) 0.0486(12) -0.0329(21)
H19 H -0.0086(28) 0.1020(12) 0.0291(20)
O12 O 0.1278(2) 0.05206(8) 0.09691(13)
C29 C 0.2335(3) 0.01849(11) 0.0753(2)
H20 H 0.1944(30) -0.0098(13) 0.0321(21)
H21 H 0.2826(33) 0.0029(14) 0.1376(25)
C30 C 0.3273(3) 0.05196(11) 0.0284(2)
H22 H 0.3703(30) 0.0808(13) 0.0750(21)
H23 H 0.3929(27) 0.0296(11) 0.0116(19)
loop_
_geom_bond_atom_site_label_1
_geom_bond_atom_site_label_2
_geom_bond_site_symmetry_1
_geom_bond_site_symmetry_2
I1 C2 1_555 1_555
S1 C1 1_555 1_555
S2 C1 1_555 1_555
S3 C4 1_555 1_555
S4 C4 1_555 1_555
C1 C4 1_555 1_555
C2 S1 1_555 1_555
C3 S2 1_555 1_555
H1 C3 1_555 1_555
C5 S3 1_555 1_555
H2 C5 1_555 1_555
C6 S4 1_555 1_555
H3 C6 1_555 1_555
N1 O1 1_555 1_555
N2 O3 1_555 1_555
N3 O5 1_555 1_555
N4 O7 1_555 1_555
N5 C21 1_555 1_555
N6 C22 1_555 1_555
O2 N1 1_555 1_555
O4 N2 1_555 1_555
O6 N3 1_555 1_555
O8 N4 1_555 1_555
C7 H4 1_555 1_555
C8 N1 1_555 1_555
C9 C8 1_555 1_555
H5 C9 1_555 1_555
C10 N2 1_555 1_555
C11 N3 1_555 1_555
C12 C11 1_555 1_555
H6 C12 1_555 1_555
C13 N4 1_555 1_555
C14 C13 1_555 1_555
H7 C14 1_555 1_555
C15 C16 1_555 1_555
C16 C7 1_555 1_555
C17 C10 1_555 1_555
C18 C11 1_555 1_555
C19 C14 1_555 1_555
C20 C15 1_555 1_555
C21 C20 1_555 1_555
C22 C20 1_555 1_555
O9 C23 1_555 1_555
C23 H8 1_555 1_555
H9 C23 1_555 1_555
C24 C23 1_555 1_555
H10 C24 1_555 1_555
H11 C24 1_555 1_555
O10 C24 1_555 1_555
C25 O10 1_555 1_555
H12 C25 1_555 1_555
H13 C25 1_555 1_555
C26 O9 1_555 1_555
H14 C26 1_555 1_555
H15 C26 1_555 1_555
O11 C27 1_555 1_555
C27 H16 1_555 1_555
H17 C27 1_555 1_555
C28 C27 1_555 1_555
H18 C28 1_555 1_555
H19 C28 1_555 1_555
O12 C28 1_555 1_555
C29 O12 1_555 1_555
H20 C29 1_555 1_555
H21 C29 1_555 1_555
C30 O11 1_555 1_555
H22 C30 1_555 1_555
H23 C30 1_555 1_555
C2 C3 1_555 1_555
C5 C6 1_555 1_555
C7 C8 1_555 1_555
C9 C10 1_555 1_555
C12 C13 1_555 1_555
C15 C19 1_555 1_555
C16 C17 1_555 1_555
C17 C18 1_555 1_555
C18 C19 1_555 1_555
C25 C26 1_555 1_555
C29 C30 1_555 1_555

#END
