
#######################################################################
#
#                 Cambridge Crystallographic Data Centre
#                                CCDC 
#
#######################################################################
#
# If this CIF has been generated from an entry in the Cambridge 
# Structural Database, then it will include bibliographic, chemical, 
# crystal, experimental, refinement or atomic coordinate data resulting 
# from the CCDC's data processing and validation procedures.
#
#######################################################################

data_ICINUF
_chemical_formula_moiety         'C16 H22 N2 O2 S1'
_chemical_name_systematic        
'1-Benzyl-4-vinyloctahydro-1H-2,1,3-benzothiadiazine 2,2-dioxide'
_symmetry_cell_setting           orthorhombic
_symmetry_space_group_name_H-M   'P b c a'
_symmetry_Int_Tables_number      61
_space_group_name_Hall           '-P 2ac 2ab'
loop_
_symmetry_equiv_pos_site_id
_symmetry_equiv_pos_as_xyz
1 x,y,z
2 1/2+x,1/2-y,-z
3 -x,1/2+y,1/2-z
4 1/2-x,-y,1/2+z
5 -x,-y,-z
6 1/2-x,1/2+y,z
7 x,1/2-y,1/2+z
8 1/2+x,y,1/2-z
_cell_length_a                   12.3076(3)
_cell_length_b                   9.7760(3)
_cell_length_c                   26.6952(7)
_cell_angle_alpha                90
_cell_angle_beta                 90
_cell_angle_gamma                90
_cell_volume                     3211.94
_exptl_crystal_colour            colorless
_exptl_crystal_description       needle
_cell_formula_units_Z            8
loop_
_atom_site_label
_atom_site_type_symbol
_atom_site_fract_x
_atom_site_fract_y
_atom_site_fract_z
S1 S 0.28053(3) 0.05056(4) 0.410352(16)
O1 O 0.16832(11) 0.05422(14) 0.39685(5)
O2 O 0.31945(11) -0.07391(13) 0.43283(5)
N1 N 0.35155(13) 0.08796(16) 0.35991(6)
N2 N 0.30579(13) 0.17375(16) 0.44842(6)
H1 H 0.2672(19) 0.245(3) 0.4413(9)
C1 C 0.4269(2) 0.1577(3) 0.17749(9)
H2 H 0.4475 0.1942 0.1467
C2 C 0.4754(2) 0.0406(3) 0.19486(9)
H3 H 0.5286 -0.0024 0.1758
C3 C 0.44542(19) -0.0136(3) 0.24043(8)
H4 H 0.4790 -0.0928 0.2519
C4 C 0.36601(17) 0.0481(2) 0.26931(7)
C5 C 0.33231(18) -0.0113(2) 0.31871(7)
H5 H 0.2558 -0.0350 0.3176
H6 H 0.3733 -0.0942 0.3251
C6 C 0.46700(15) 0.1262(2) 0.36863(7)
H7 H 0.4938 0.1627 0.3367
C7 C 0.47586(15) 0.2435(2) 0.40654(7)
H8 H 0.4360 0.3216 0.3926
C8 C 0.42186(15) 0.20661(19) 0.45703(7)
H9 H 0.4583 0.1264 0.4713
C9 C 0.42637(16) 0.3220(2) 0.49412(7)
H10 H 0.3845 0.3992 0.4877
C10 C 0.48522(18) 0.3209(2) 0.53476(8)
H11 H 0.5280 0.2453 0.5423
H12 H 0.4844 0.3959 0.5562
C11 C 0.3477(2) 0.2213(3) 0.20560(9)
H13 H 0.3149 0.3008 0.1939
C12 C 0.31702(19) 0.1668(2) 0.25141(8)
H14 H 0.2634 0.2097 0.2703
C13 C 0.59488(17) 0.2867(2) 0.41155(8)
H15 H 0.6184 0.3277 0.3803
H16 H 0.6007 0.3557 0.4375
C14 C 0.67054(18) 0.1677(2) 0.42436(9)
H17 H 0.7451 0.1999 0.4250
H18 H 0.6529 0.1329 0.4574
C15 C 0.65961(18) 0.0534(2) 0.38605(10)
H19 H 0.7049 -0.0232 0.3959
H20 H 0.6846 0.0855 0.3537
C16 C 0.54175(18) 0.0062(2) 0.38182(9)
H21 H 0.5189 -0.0337 0.4134
H22 H 0.5361 -0.0636 0.3561
loop_
_geom_bond_atom_site_label_1
_geom_bond_atom_site_label_2
_geom_bond_site_symmetry_1
_geom_bond_site_symmetry_2
S1 O1 1_555 1_555
O2 S1 1_555 1_555
N1 S1 1_555 1_555
N2 S1 1_555 1_555
H1 N2 1_555 1_555
C1 H2 1_555 1_555
C2 C1 1_555 1_555
H3 C2 1_555 1_555
C3 C2 1_555 1_555
H4 C3 1_555 1_555
C4 C3 1_555 1_555
C5 N1 1_555 1_555
H5 C5 1_555 1_555
H6 C5 1_555 1_555
C6 N1 1_555 1_555
H7 C6 1_555 1_555
C7 C6 1_555 1_555
H8 C7 1_555 1_555
C8 N2 1_555 1_555
H9 C8 1_555 1_555
C9 C8 1_555 1_555
H10 C9 1_555 1_555
C10 C9 1_555 1_555
H11 C10 1_555 1_555
H12 C10 1_555 1_555
C11 C1 1_555 1_555
H13 C11 1_555 1_555
C12 C4 1_555 1_555
H14 C12 1_555 1_555
C13 C7 1_555 1_555
H15 C13 1_555 1_555
H16 C13 1_555 1_555
C14 C13 1_555 1_555
H17 C14 1_555 1_555
H18 C14 1_555 1_555
C15 C14 1_555 1_555
H19 C15 1_555 1_555
H20 C15 1_555 1_555
C16 C6 1_555 1_555
H21 C16 1_555 1_555
H22 C16 1_555 1_555
C4 C5 1_555 1_555
C7 C8 1_555 1_555
C11 C12 1_555 1_555
C15 C16 1_555 1_555

#END
