
#######################################################################
#
#                 Cambridge Crystallographic Data Centre
#                                CCDC 
#
#######################################################################
#
# If this CIF has been generated from an entry in the Cambridge 
# Structural Database, then it will include bibliographic, chemical, 
# crystal, experimental, refinement or atomic coordinate data resulting 
# from the CCDC's data processing and validation procedures.
#
#######################################################################

data_ICINUG01
_chemical_compound_source        
'marine alga-derived fungus Penicillium thomii Maire KMM 4675'
_chemical_name_common            'Pallidopenillin A'
_chemical_formula_moiety         'C15 H24 O4'
_chemical_name_systematic        
1-((1R,2R,4aR,5R,6S,8aS)-02,5-dihydroxy-2,6-dimethyl-1,2,4a,5,6,7,8,8a-octahydronaphthalen-1-yl)-3-hydroxypropan-1-one
_symmetry_cell_setting           monoclinic
_symmetry_space_group_name_H-M   'P 21'
_symmetry_Int_Tables_number      4
_space_group_name_Hall           'P 2yb'
loop_
_symmetry_equiv_pos_site_id
_symmetry_equiv_pos_as_xyz
1 x,y,z
2 -x,1/2+y,-z
_cell_length_a                   18.1759(5)
_cell_length_b                   9.1998(3)
_cell_length_c                   18.1799(5)
_cell_angle_alpha                90
_cell_angle_beta                 106.5940(10)
_cell_angle_gamma                90
_cell_volume                     2913.34
_exptl_crystal_colour            colorless
_exptl_crystal_description       prism
_cell_formula_units_Z            8
loop_
_atom_site_label
_atom_site_type_symbol
_atom_site_fract_x
_atom_site_fract_y
_atom_site_fract_z
O1 O 0.51001(10) 0.3468(2) -0.16132(10)
H1 H 0.5085 0.3266 -0.2068
O2 O 0.48677(14) 0.20694(19) -0.01530(10)
O3 O 0.56876(10) 0.45381(19) 0.34138(9)
H2 H 0.5940 0.4135 0.3823
O4 O 0.31592(9) 0.42297(17) 0.02793(9)
H3 H 0.3231 0.5111 0.0399
C1 C 0.43335(13) 0.3526(3) -0.15452(13)
H4 H 0.4123 0.2529 -0.1569
H5 H 0.4003 0.4089 -0.1979
C2 C 0.43296(13) 0.4231(2) -0.07956(12)
H6 H 0.4655 0.5113 -0.0720
H7 H 0.3799 0.4543 -0.0832
C3 C 0.46122(13) 0.3267(2) -0.01036(12)
C4 C 0.45445(12) 0.3854(2) 0.06581(11)
H8 H 0.4541 0.4939 0.0626
C5 C 0.52231(12) 0.3414(2) 0.13423(11)
H9 H 0.5194 0.2344 0.1428
C6 C 0.60041(13) 0.3761(3) 0.12137(13)
H10 H 0.6063 0.3203 0.0769
H11 H 0.6030 0.4809 0.1100
C7 C 0.66509(14) 0.3371(4) 0.19269(14)
H12 H 0.6655 0.2305 0.2002
H13 H 0.7147 0.3648 0.1844
C8 C 0.65789(12) 0.4114(3) 0.26516(12)
H14 H 0.6603 0.5188 0.2577
C9 C 0.58022(12) 0.3763(2) 0.27694(12)
H15 H 0.5768 0.2694 0.2855
C10 C 0.51536(11) 0.4215(2) 0.20608(11)
H16 H 0.5218 0.5276 0.1977
C11 C 0.43713(14) 0.4013(3) 0.21614(14)
H17 H 0.4307 0.4160 0.2657
C12 C 0.37621(14) 0.3639(3) 0.15909(14)
H18 H 0.3288 0.3530 0.1707
C13 C 0.37638(12) 0.3371(2) 0.07721(12)
C14 C 0.72397(15) 0.3694(5) 0.33426(15)
H19 H 0.7222 0.4288 0.3785
H20 H 0.7728 0.3859 0.3227
H21 H 0.7195 0.2664 0.3462
C15 C 0.35520(15) 0.1806(2) 0.05506(15)
H22 H 0.3079 0.1555 0.0679
H23 H 0.3968 0.1165 0.0832
H24 H 0.3471 0.1684 -0.0002
C16 C 0.65317(13) 0.3063(3) 0.56433(14)
H25 H 0.6558 0.4067 0.5846
H26 H 0.6968 0.2507 0.5975
O5 O 0.65908(10) 0.3097(2) 0.48813(11)
H27 H 0.7046 0.3278 0.4891
O6 O 0.51343(10) 0.4496(2) 0.50926(12)
O7 O 0.16013(9) 0.17609(18) 0.43235(10)
H28 H 0.1180 0.2138 0.4084
O8 O 0.47071(10) 0.24642(19) 0.68488(9)
H29 H 0.4598 0.1577 0.6790
C17 C 0.57845(12) 0.2366(2) 0.56648(13)
H30 H 0.5710 0.1462 0.5357
H31 H 0.5825 0.2091 0.6201
C18 C 0.50896(12) 0.3313(3) 0.53686(13)
C19 C 0.43337(12) 0.2733(2) 0.54549(12)
H32 H 0.4377 0.1650 0.5488
C20 C 0.36421(12) 0.3098(2) 0.47593(12)
H33 H 0.3538 0.4165 0.4764
C21 C 0.37837(13) 0.2710(3) 0.39964(13)
H34 H 0.4212 0.3303 0.3924
H35 H 0.3931 0.1673 0.4000
C22 C 0.30636(14) 0.2985(4) 0.33367(13)
H36 H 0.3160 0.2677 0.2851
H37 H 0.2957 0.4042 0.3301
C23 C 0.23551(13) 0.2189(3) 0.34218(12)
H38 H 0.2460 0.1121 0.3429
C24 C 0.22213(12) 0.2600(2) 0.41918(12)
H39 H 0.2097 0.3659 0.4191
C25 C 0.29398(12) 0.2276(2) 0.48483(12)
H40 H 0.3050 0.1214 0.4828
C26 C 0.28227(14) 0.2578(3) 0.56175(14)
H41 H 0.2327 0.2440 0.5681
C27 C 0.33907(15) 0.3035(3) 0.62168(14)
H42 H 0.3266 0.3221 0.6681
C28 C 0.42132(12) 0.3281(2) 0.62200(12)
C29 C 0.16544(14) 0.2503(5) 0.27481(14)
H43 H 0.1533 0.3542 0.2737
H44 H 0.1216 0.1940 0.2805
H45 H 0.1762 0.2228 0.2268
C30 C 0.44209(15) 0.4869(3) 0.64105(14)
H46 H 0.4290 0.5137 0.6879
H47 H 0.4134 0.5485 0.5985
H48 H 0.4973 0.5006 0.6490
O9 O 0.98922(10) 0.7764(2) 0.66010(10)
H49 H 0.9923 0.7524 0.7055
O10 O 1.02444(13) 0.64025(19) 0.51282(10)
O11 O 0.92554(11) 0.91742(18) 0.15918(9)
H50 H 0.9000 0.8821 0.1170
O12 O 1.18220(9) 0.88593(18) 0.47179(9)
H51 H 1.1751 0.9739 0.4595
C31 C 1.06480(13) 0.7903(3) 0.65153(12)
H52 H 1.0881 0.6928 0.6525
H53 H 1.0974 0.8474 0.6949
C32 C 1.06151(13) 0.8653(2) 0.57661(12)
H54 H 1.0233 0.9448 0.5683
H55 H 1.1122 0.9098 0.5810
C33 C 1.04094(13) 0.7670(2) 0.50779(12)
C34 C 1.04481(12) 0.8320(2) 0.43211(11)
H56 H 1.0404 0.9399 0.4360
C35 C 0.97920(12) 0.7812(2) 0.36302(11)
H57 H 0.9890 0.6775 0.3522
C36 C 0.90013(13) 0.7903(3) 0.37585(13)
H58 H 0.8896 0.8917 0.3880
H59 H 0.8985 0.7280 0.4198
C37 C 0.83916(13) 0.7399(4) 0.30337(13)
H60 H 0.8486 0.6368 0.2933
H61 H 0.7879 0.7462 0.3121
C38 C 0.83915(13) 0.8304(3) 0.23315(13)
H62 H 0.8277 0.9336 0.2432
C39 C 0.91924(13) 0.8248(2) 0.22035(12)
H63 H 0.9300 0.7226 0.2079
C40 C 0.98142(12) 0.8728(2) 0.29303(11)
H64 H 0.9700 0.9756 0.3039
C41 C 1.06019(15) 0.8707(3) 0.28270(14)
H65 H 1.0655 0.8939 0.2336
C42 C 1.12276(13) 0.8382(3) 0.33823(13)
H66 H 1.1703 0.8396 0.3262
C43 C 1.12459(12) 0.7989(2) 0.41970(12)
C44 C 0.77685(15) 0.7770(5) 0.16244(15)
H67 H 0.7706 0.8475 0.1207
H68 H 0.7282 0.7668 0.1752
H69 H 0.7919 0.6827 0.1463
C45 C 1.15055(15) 0.6417(3) 0.43658(16)
H70 H 1.1982 0.6260 0.4226
H71 H 1.1106 0.5763 0.4066
H72 H 1.1595 0.6219 0.4914
O13 O -0.16116(10) 0.8294(3) 0.00812(10)
H73 H -0.2068 0.8524 0.0046
O14 O -0.01492(10) 0.9590(2) -0.03016(12)
O15 O 0.34275(10) 0.70927(18) 0.07468(11)
H74 H 0.3834 0.7564 0.0930
O16 O 0.02758(10) 0.70163(17) -0.18262(9)
H75 H 0.0382 0.6138 -0.1721
C46 C -0.15323(13) 0.8062(3) -0.06634(14)
H76 H -0.1553 0.9006 -0.0930
H77 H -0.1962 0.7453 -0.0965
C47 C -0.07763(12) 0.7314(2) -0.06120(13)
H78 H -0.0688 0.6555 -0.0210
H79 H -0.0817 0.6823 -0.1107
C48 C -0.00940(12) 0.8307(2) -0.04324(12)
C49 C 0.06672(11) 0.7645(2) -0.04586(12)
H80 H 0.0637 0.6570 -0.0390
C50 C 0.13500(12) 0.8227(2) 0.01859(12)
H81 H 0.1434 0.9267 0.0073
C51 C 0.12205(13) 0.8146(3) 0.09786(13)
H82 H 0.1130 0.7125 0.1101
H83 H 0.0763 0.8724 0.0983
C52 C 0.19309(14) 0.8743(4) 0.15811(13)
H84 H 0.1993 0.9784 0.1475
H85 H 0.1850 0.8669 0.2096
C53 C 0.26661(13) 0.7927(3) 0.15854(13)
H86 H 0.2600 0.6890 0.1718
C54 C 0.27824(12) 0.7955(2) 0.07892(13)
H87 H 0.2869 0.8983 0.0656
C55 C 0.20733(12) 0.7364(2) 0.01877(12)
H88 H 0.1994 0.6343 0.0338
C56 C 0.21778(14) 0.7306(2) -0.06012(14)
H89 H 0.2671 0.7085 -0.0652
C57 C 0.16053(15) 0.7553(3) -0.12301(14)
H90 H 0.1720 0.7489 -0.1707
C58 C 0.07906(13) 0.7925(2) -0.12579(12)
C59 C 0.33477(15) 0.8544(5) 0.22048(15)
H91 H 0.3473 0.9512 0.2051
H92 H 0.3792 0.7901 0.2271
H93 H 0.3216 0.8614 0.2690
C60 C 0.06132(16) 0.9476(2) -0.15461(14)
H94 H 0.0771 0.9613 -0.2013
H95 H 0.0893 1.0158 -0.1151
H96 H 0.0061 0.9655 -0.1659
loop_
_geom_bond_atom_site_label_1
_geom_bond_atom_site_label_2
_geom_bond_site_symmetry_1
_geom_bond_site_symmetry_2
O1 H1 1_555 1_555
O2 C3 1_555 1_555
O3 H2 1_555 1_555
O4 H3 1_555 1_555
C1 O1 1_555 1_555
H4 C1 1_555 1_555
H5 C1 1_555 1_555
C2 C1 1_555 1_555
H6 C2 1_555 1_555
H7 C2 1_555 1_555
C3 C2 1_555 1_555
C4 C3 1_555 1_555
H8 C4 1_555 1_555
C5 C4 1_555 1_555
H9 C5 1_555 1_555
C6 C5 1_555 1_555
H10 C6 1_555 1_555
H11 C6 1_555 1_555
C7 C6 1_555 1_555
H12 C7 1_555 1_555
H13 C7 1_555 1_555
C8 C7 1_555 1_555
H14 C8 1_555 1_555
C9 O3 1_555 1_555
H15 C9 1_555 1_555
C10 C5 1_555 1_555
H16 C10 1_555 1_555
C11 C10 1_555 1_555
H17 C11 1_555 1_555
C12 C11 1_555 1_555
H18 C12 1_555 1_555
C13 O4 1_555 1_555
C14 C8 1_555 1_555
H19 C14 1_555 1_555
H20 C14 1_555 1_555
H21 C14 1_555 1_555
C15 C13 1_555 1_555
H22 C15 1_555 1_555
H23 C15 1_555 1_555
H24 C15 1_555 1_555
C16 H25 1_555 1_555
H26 C16 1_555 1_555
O5 C16 1_555 1_555
H27 O5 1_555 1_555
O6 C18 1_555 1_555
O7 H28 1_555 1_555
O8 H29 1_555 1_555
C17 C16 1_555 1_555
H30 C17 1_555 1_555
H31 C17 1_555 1_555
C18 C17 1_555 1_555
C19 C18 1_555 1_555
H32 C19 1_555 1_555
C20 C19 1_555 1_555
H33 C20 1_555 1_555
C21 C20 1_555 1_555
H34 C21 1_555 1_555
H35 C21 1_555 1_555
C22 C21 1_555 1_555
H36 C22 1_555 1_555
H37 C22 1_555 1_555
C23 C22 1_555 1_555
H38 C23 1_555 1_555
C24 O7 1_555 1_555
H39 C24 1_555 1_555
C25 C20 1_555 1_555
H40 C25 1_555 1_555
C26 C25 1_555 1_555
H41 C26 1_555 1_555
C27 C26 1_555 1_555
H42 C27 1_555 1_555
C28 O8 1_555 1_555
C29 C23 1_555 1_555
H43 C29 1_555 1_555
H44 C29 1_555 1_555
H45 C29 1_555 1_555
C30 C28 1_555 1_555
H46 C30 1_555 1_555
H47 C30 1_555 1_555
H48 C30 1_555 1_555
O9 H49 1_555 1_555
O10 C33 1_555 1_555
O11 H50 1_555 1_555
O12 H51 1_555 1_555
C31 O9 1_555 1_555
H52 C31 1_555 1_555
H53 C31 1_555 1_555
C32 C31 1_555 1_555
H54 C32 1_555 1_555
H55 C32 1_555 1_555
C33 C32 1_555 1_555
C34 C33 1_555 1_555
H56 C34 1_555 1_555
C35 C34 1_555 1_555
H57 C35 1_555 1_555
C36 C35 1_555 1_555
H58 C36 1_555 1_555
H59 C36 1_555 1_555
C37 C36 1_555 1_555
H60 C37 1_555 1_555
H61 C37 1_555 1_555
C38 C37 1_555 1_555
H62 C38 1_555 1_555
C39 O11 1_555 1_555
H63 C39 1_555 1_555
C40 C35 1_555 1_555
H64 C40 1_555 1_555
C41 C40 1_555 1_555
H65 C41 1_555 1_555
C42 C41 1_555 1_555
H66 C42 1_555 1_555
C43 O12 1_555 1_555
C44 C38 1_555 1_555
H67 C44 1_555 1_555
H68 C44 1_555 1_555
H69 C44 1_555 1_555
C45 C43 1_555 1_555
H70 C45 1_555 1_555
H71 C45 1_555 1_555
H72 C45 1_555 1_555
O13 H73 1_555 1_555
O14 C48 1_555 1_555
O15 H74 1_555 1_555
O16 H75 1_555 1_555
C46 O13 1_555 1_555
H76 C46 1_555 1_555
H77 C46 1_555 1_555
C47 C46 1_555 1_555
H78 C47 1_555 1_555
H79 C47 1_555 1_555
C48 C47 1_555 1_555
C49 C48 1_555 1_555
H80 C49 1_555 1_555
C50 C49 1_555 1_555
H81 C50 1_555 1_555
C51 C50 1_555 1_555
H82 C51 1_555 1_555
H83 C51 1_555 1_555
C52 C51 1_555 1_555
H84 C52 1_555 1_555
H85 C52 1_555 1_555
C53 C52 1_555 1_555
H86 C53 1_555 1_555
C54 O15 1_555 1_555
H87 C54 1_555 1_555
C55 C50 1_555 1_555
H88 C55 1_555 1_555
C56 C55 1_555 1_555
H89 C56 1_555 1_555
C57 C56 1_555 1_555
H90 C57 1_555 1_555
C58 O16 1_555 1_555
C59 C53 1_555 1_555
H91 C59 1_555 1_555
H92 C59 1_555 1_555
H93 C59 1_555 1_555
C60 C58 1_555 1_555
H94 C60 1_555 1_555
H95 C60 1_555 1_555
H96 C60 1_555 1_555
C4 C13 1_555 1_555
C8 C9 1_555 1_555
C9 C10 1_555 1_555
C12 C13 1_555 1_555
C19 C28 1_555 1_555
C23 C24 1_555 1_555
C24 C25 1_555 1_555
C27 C28 1_555 1_555
C34 C43 1_555 1_555
C38 C39 1_555 1_555
C39 C40 1_555 1_555
C42 C43 1_555 1_555
C49 C58 1_555 1_555
C53 C54 1_555 1_555
C54 C55 1_555 1_555
C57 C58 1_555 1_555

#END
