
#######################################################################
#
#                 Cambridge Crystallographic Data Centre
#                                CCDC 
#
#######################################################################
#
# If this CIF has been generated from an entry in the Cambridge 
# Structural Database, then it will include bibliographic, chemical, 
# crystal, experimental, refinement or atomic coordinate data resulting 
# from the CCDC's data processing and validation procedures.
#
#######################################################################

data_ICIWOJ
_chemical_formula_moiety         'C37 H60 N1 Na1 O7 S1,2.5(C7 H8)'
_chemical_name_systematic        
'(15-crown-5)-(N-(2,6-diisopropylphenyl)-2,4,6-triisopropylbenzenesulfonamidato)-sodium toluene solvate'
_symmetry_cell_setting           triclinic
_symmetry_space_group_name_H-M   'P -1'
_symmetry_Int_Tables_number      2
_space_group_name_Hall           '-P 1'
loop_
_symmetry_equiv_pos_site_id
_symmetry_equiv_pos_as_xyz
1 x,y,z
2 -x,-y,-z
_cell_length_a                   10.6133(9)
_cell_length_b                   15.1843(17)
_cell_length_c                   17.3640(16)
_cell_angle_alpha                107.939(9)
_cell_angle_beta                 92.806(8)
_cell_angle_gamma                93.558(8)
_cell_volume                     2650.3
_exptl_crystal_colour            colorless
_exptl_crystal_description       block
_cell_formula_units_Z            2
loop_
_atom_site_label
_atom_site_type_symbol
_atom_site_fract_x
_atom_site_fract_y
_atom_site_fract_z
S1 S 0.09116(10) 0.21362(6) 0.72213(5)
Na1 Na 0.26118(15) 0.06277(9) 0.63798(7)
O1 O 0.1405(2) 0.19017(15) 0.64154(12)
O2 O -0.0434(2) 0.18555(16) 0.71796(12)
O3 O 0.1098(3) -0.06910(17) 0.56207(14)
O4 O 0.2842(3) 0.01617(17) 0.48930(13)
O5 O 0.4408(3) 0.14979(17) 0.59530(14)
O6 O 0.4734(3) 0.04777(18) 0.69879(14)
O7 O 0.2633(3) -0.06925(17) 0.69250(15)
N1 N 0.1810(3) 0.17376(18) 0.77438(14)
C1 C 0.1029(4) 0.3394(2) 0.76278(18)
C2 C 0.2008(4) 0.3928(2) 0.74258(18)
C3 C 0.1986(4) 0.4897(2) 0.76788(19)
H1 H 0.2620 0.5250 0.7529
C4 C 0.1060(4) 0.5347(2) 0.81415(19)
C5 C 0.0163(4) 0.4809(2) 0.83804(19)
H2 H -0.0446 0.5108 0.8710
C6 C 0.0115(4) 0.3847(2) 0.81583(19)
C7 C 0.3122(4) 0.3523(2) 0.6944(2)
H3 H 0.3151 0.2879 0.6943
C8 C 0.2918(5) 0.3514(3) 0.6059(2)
H4 H 0.2146 0.3148 0.5818
H5 H 0.3615 0.3250 0.5762
H6 H 0.2864 0.4138 0.6046
C9 C 0.4391(4) 0.4048(3) 0.7326(2)
H7 H 0.4432 0.4658 0.7268
H8 H 0.5069 0.3716 0.7059
H9 H 0.4469 0.4100 0.7892
C10 C 0.1028(5) 0.6397(3) 0.8387(2)
H10 H 0.0593 0.6588 0.8890
C11 C 0.0243(6) 0.6665(3) 0.7748(3)
H11 H 0.0646 0.6493 0.7246
H12 H 0.0174 0.7324 0.7928
H13 H -0.0587 0.6348 0.7669
C12 C 0.2297(6) 0.6924(3) 0.8554(4)
H14 H 0.2798 0.6724 0.8935
H15 H 0.2197 0.7576 0.8778
H16 H 0.2711 0.6812 0.8058
C13 C -0.0905(4) 0.3375(3) 0.85184(19)
H17 H -0.0732 0.2721 0.8392
C14 C -0.2220(4) 0.3400(3) 0.8135(2)
H18 H -0.2410 0.4034 0.8235
H19 H -0.2835 0.3087 0.8369
H20 H -0.2243 0.3095 0.7561
C15 C -0.0882(4) 0.3778(3) 0.9440(2)
H21 H -0.0044 0.3775 0.9673
H22 H -0.1465 0.3409 0.9643
H23 H -0.1123 0.4404 0.9583
C16 C 0.1544(4) 0.1830(2) 0.85614(19)
C17 C 0.0653(4) 0.1211(2) 0.87486(19)
C18 C 0.0456(4) 0.1318(3) 0.9558(2)
H24 H -0.0144 0.0917 0.9680
C19 C 0.1123(4) 0.1998(3) 1.0182(2)
H25 H 0.0969 0.2061 1.0718
C20 C 0.2017(4) 0.2584(3) 1.0007(2)
H26 H 0.2481 0.3035 1.0431
C21 C 0.2253(4) 0.2521(2) 0.92007(19)
C22 C -0.0088(4) 0.0413(2) 0.8108(2)
H27 H 0.0195 0.0411 0.7578
C23 C -0.1519(4) 0.0515(3) 0.8090(2)
H28 H -0.1833 0.0478 0.8589
H29 H -0.1939 0.0026 0.7644
H30 H -0.1678 0.1105 0.8027
C24 C 0.0183(4) -0.0524(3) 0.8219(2)
H31 H 0.1073 -0.0599 0.8196
H32 H -0.0277 -0.1018 0.7795
H33 H -0.0079 -0.0541 0.8736
C25 C 0.3280(4) 0.3179(2) 0.9060(2)
H34 H 0.3268 0.3080 0.8475
C26 C 0.4589(4) 0.2974(3) 0.9340(2)
H35 H 0.4629 0.3071 0.9914
H36 H 0.5225 0.3381 0.9220
H37 H 0.4734 0.2341 0.9061
C27 C 0.3076(4) 0.4204(2) 0.9478(2)
H38 H 0.2256 0.4334 0.9303
H39 H 0.3715 0.4591 0.9336
H40 H 0.3130 0.4329 1.0056
C28 C 0.5581(4) 0.1567(3) 0.6413(2)
H41 H 0.6012 0.2179 0.6518
H42 H 0.6123 0.1109 0.6113
C29 C 0.5310(4) 0.1402(3) 0.7193(2)
H43 H 0.6087 0.1468 0.7531
H44 H 0.4743 0.1843 0.7487
C30 C 0.4444(4) 0.0201(3) 0.7669(2)
H45 H 0.3899 0.0627 0.8005
H46 H 0.5212 0.0196 0.7993
C31 C 0.3784(4) -0.0757(3) 0.7352(2)
H47 H 0.4311 -0.1175 0.6992
H48 H 0.3610 -0.0995 0.7798
C32 C 0.2067(4) -0.1553(3) 0.6419(2)
H49 H 0.1881 -0.1966 0.6736
H50 H 0.2632 -0.1845 0.6010
C33 C 0.0861(4) -0.1363(3) 0.6023(2)
H51 H 0.0482 -0.1935 0.5634
H52 H 0.0266 -0.1140 0.6433
C34 C 0.1330(4) -0.1079(3) 0.4784(2)
H53 H 0.0580 -0.1443 0.4482
H54 H 0.2017 -0.1482 0.4729
C35 C 0.1669(4) -0.0298(3) 0.4470(2)
H55 H 0.1764 -0.0529 0.3891
H56 H 0.1011 0.0131 0.4565
C36 C 0.3244(4) 0.0972(3) 0.4690(2)
H57 H 0.2658 0.1447 0.4871
H58 H 0.3283 0.0824 0.4108
C37 C 0.4518(4) 0.1302(3) 0.5107(2)
H59 H 0.5104 0.0829 0.4919
H60 H 0.4835 0.1858 0.4991
C38 C 0.2312(6) 0.3426(5) 0.3912(3)
H61 H 0.1489 0.3610 0.3807
H62 H 0.2812 0.3945 0.4284
H63 H 0.2228 0.2929 0.4144
C39 C 0.2922(6) 0.3116(5) 0.3164(4)
C40 C 0.2990(6) 0.2202(4) 0.2800(4)
H64 H 0.2652 0.1775 0.3036
C41 C 0.3568(7) 0.1888(5) 0.2063(5)
H65 H 0.3562 0.1253 0.1801
C42 C 0.4115(6) 0.2470(6) 0.1740(4)
H66 H 0.4547 0.2254 0.1273
C43 C 0.4040(7) 0.3445(5) 0.2114(4)
H67 H 0.4392 0.3869 0.1880
C44 C 0.3444(6) 0.3749(5) 0.2820(4)
H68 H 0.3391 0.4381 0.3067
C45 C 0.3856(16) 0.6161(12) 0.5831(10)
H69 H 0.4419 0.6702 0.5893
H70 H 0.4313 0.5616 0.5662
H71 H 0.3507 0.6203 0.6340
C46 C 0.2901(9) 0.6109(5) 0.5261(5)
C47 C 0.1633(10) 0.5992(5) 0.5403(6)
H72 H 0.1413 0.5928 0.5896
C48 C 0.0695(8) 0.5970(6) 0.4809(8)
H73 H -0.0153 0.5892 0.4905
C49 C 0.1024(11) 0.6066(7) 0.4072(7)
H74 H 0.0396 0.6052 0.3675
C50 C 0.2291(13) 0.6183(7) 0.3930(5)
H75 H 0.2511 0.6247 0.3437
C51 C 0.3229(9) 0.6205(6) 0.4524(6)
H76 H 0.4077 0.6283 0.4428
C52? C 0.0839(14) 0.6199(12) 0.3993(7)
H77? H 0.0024 0.6259 0.4212
H78? H 0.0810 0.5642 0.3539
H79? H 0.1060 0.6726 0.3817
C53? C 0.1755(9) 0.6156(7) 0.4597(5)
C54? C 0.1371(9) 0.5970(7) 0.5289(5)
H80? H 0.0514 0.5880 0.5356
C55? C 0.2268(12) 0.5918(7) 0.5881(5)
H81? H 0.2011 0.5794 0.6344
C56? C 0.3550(11) 0.6053(8) 0.5781(6)
H82? H 0.4150 0.6018 0.6177
C57? C 0.3934(8) 0.6239(8) 0.5089(7)
H83? H 0.4791 0.6329 0.5022
C58? C 0.3037(10) 0.6291(7) 0.4497(6)
H84? H 0.3294 0.6415 0.4034
C59? C 0.7161(14) 1.0255(9) 1.0193(9)
H85? H 0.7560 0.9942 0.9710
H86? H 0.7468 1.0050 1.0633
H87? H 0.7354 1.0913 1.0327
C60? C 0.5794(6) 1.0042(6) 1.0054(5)
C61? C 0.5023(8) 1.0650(4) 0.9841(4)
H88? H 0.5380 1.1188 0.9762
C62? C 0.3717(8) 1.0453(6) 0.9745(4)
H89? H 0.3201 1.0859 0.9603
C63? C 0.3183(6) 0.9649(7) 0.9863(5)
H90? H 0.2310 0.9517 0.9799
C64? C 0.3955(8) 0.9042(5) 1.0076(4)
H91? H 0.3598 0.8504 1.0154
C65? C 0.5260(8) 0.9238(5) 1.0171(4)
H92? H 0.5777 0.8832 1.0314
loop_
_geom_bond_atom_site_label_1
_geom_bond_atom_site_label_2
_geom_bond_site_symmetry_1
_geom_bond_site_symmetry_2
S1 O1 1_555 1_555
Na1 O1 1_555 1_555
O2 S1 1_555 1_555
O3 Na1 1_555 1_555
O4 Na1 1_555 1_555
O5 Na1 1_555 1_555
O6 Na1 1_555 1_555
O7 Na1 1_555 1_555
N1 S1 1_555 1_555
C1 S1 1_555 1_555
C2 C1 1_555 1_555
C3 C2 1_555 1_555
H1 C3 1_555 1_555
C4 C3 1_555 1_555
C5 C4 1_555 1_555
H2 C5 1_555 1_555
C6 C1 1_555 1_555
C7 C2 1_555 1_555
H3 C7 1_555 1_555
C8 C7 1_555 1_555
H4 C8 1_555 1_555
H5 C8 1_555 1_555
H6 C8 1_555 1_555
C9 C7 1_555 1_555
H7 C9 1_555 1_555
H8 C9 1_555 1_555
H9 C9 1_555 1_555
C10 C4 1_555 1_555
H10 C10 1_555 1_555
C11 C10 1_555 1_555
H11 C11 1_555 1_555
H12 C11 1_555 1_555
H13 C11 1_555 1_555
C12 C10 1_555 1_555
H14 C12 1_555 1_555
H15 C12 1_555 1_555
H16 C12 1_555 1_555
C13 C6 1_555 1_555
H17 C13 1_555 1_555
C14 C13 1_555 1_555
H18 C14 1_555 1_555
H19 C14 1_555 1_555
H20 C14 1_555 1_555
C15 C13 1_555 1_555
H21 C15 1_555 1_555
H22 C15 1_555 1_555
H23 C15 1_555 1_555
C16 N1 1_555 1_555
C17 C16 1_555 1_555
C18 C17 1_555 1_555
H24 C18 1_555 1_555
C19 C18 1_555 1_555
H25 C19 1_555 1_555
C20 C19 1_555 1_555
H26 C20 1_555 1_555
C21 C16 1_555 1_555
C22 C17 1_555 1_555
H27 C22 1_555 1_555
C23 C22 1_555 1_555
H28 C23 1_555 1_555
H29 C23 1_555 1_555
H30 C23 1_555 1_555
C24 C22 1_555 1_555
H31 C24 1_555 1_555
H32 C24 1_555 1_555
H33 C24 1_555 1_555
C25 C21 1_555 1_555
H34 C25 1_555 1_555
C26 C25 1_555 1_555
H35 C26 1_555 1_555
H36 C26 1_555 1_555
H37 C26 1_555 1_555
C27 C25 1_555 1_555
H38 C27 1_555 1_555
H39 C27 1_555 1_555
H40 C27 1_555 1_555
C28 O5 1_555 1_555
H41 C28 1_555 1_555
H42 C28 1_555 1_555
C29 O6 1_555 1_555
H43 C29 1_555 1_555
H44 C29 1_555 1_555
C30 O6 1_555 1_555
H45 C30 1_555 1_555
H46 C30 1_555 1_555
C31 O7 1_555 1_555
H47 C31 1_555 1_555
H48 C31 1_555 1_555
C32 O7 1_555 1_555
H49 C32 1_555 1_555
H50 C32 1_555 1_555
C33 O3 1_555 1_555
H51 C33 1_555 1_555
H52 C33 1_555 1_555
C34 O3 1_555 1_555
H53 C34 1_555 1_555
H54 C34 1_555 1_555
C35 O4 1_555 1_555
H55 C35 1_555 1_555
H56 C35 1_555 1_555
C36 O4 1_555 1_555
H57 C36 1_555 1_555
H58 C36 1_555 1_555
C37 O5 1_555 1_555
H59 C37 1_555 1_555
H60 C37 1_555 1_555
C38 H61 1_555 1_555
H62 C38 1_555 1_555
H63 C38 1_555 1_555
C39 C38 1_555 1_555
C40 C39 1_555 1_555
H64 C40 1_555 1_555
C41 C40 1_555 1_555
H65 C41 1_555 1_555
C42 C41 1_555 1_555
H66 C42 1_555 1_555
C43 C42 1_555 1_555
H67 C43 1_555 1_555
C44 C39 1_555 1_555
H68 C44 1_555 1_555
C45 H69 1_555 1_555
H70 C45 1_555 1_555
H71 C45 1_555 1_555
C46 C45 1_555 1_555
C47 C46 1_555 1_555
H72 C47 1_555 1_555
C48 C47 1_555 1_555
H73 C48 1_555 1_555
C49 C48 1_555 1_555
H74 C49 1_555 1_555
C50 C49 1_555 1_555
H75 C50 1_555 1_555
C51 C46 1_555 1_555
H76 C51 1_555 1_555
Na1 N1 1_555 1_555
C5 C6 1_555 1_555
C20 C21 1_555 1_555
C28 C29 1_555 1_555
C30 C31 1_555 1_555
C32 C33 1_555 1_555
C34 C35 1_555 1_555
C36 C37 1_555 1_555
C43 C44 1_555 1_555
C50 C51 1_555 1_555

#END
