
#######################################################################
#
#                 Cambridge Crystallographic Data Centre
#                                CCDC 
#
#######################################################################
#
# If this CIF has been generated from an entry in the Cambridge 
# Structural Database, then it will include bibliographic, chemical, 
# crystal, experimental, refinement or atomic coordinate data resulting 
# from the CCDC's data processing and validation procedures.
#
#######################################################################

data_ICIWUP
_chemical_formula_moiety         'C40 H56 K1 N1 O9 S1,C7 H8'
_chemical_name_systematic        
'(18-crown-6)-(2,4,6-triisopropyl-N-(9H-xanthen-9-yl)benzenesulfonamidato)-potassium toluene solvate'
_symmetry_cell_setting           triclinic
_symmetry_space_group_name_H-M   'P -1'
_symmetry_Int_Tables_number      2
_space_group_name_Hall           '-P 1'
loop_
_symmetry_equiv_pos_site_id
_symmetry_equiv_pos_as_xyz
1 x,y,z
2 -x,-y,-z
_cell_length_a                   10.9876(5)
_cell_length_b                   12.4673(7)
_cell_length_c                   18.4805(12)
_cell_angle_alpha                76.475(5)
_cell_angle_beta                 86.282(5)
_cell_angle_gamma                88.815(4)
_cell_volume                     2456.14
_exptl_crystal_colour            colorless
_exptl_crystal_description       block
_cell_formula_units_Z            2
loop_
_atom_site_label
_atom_site_type_symbol
_atom_site_fract_x
_atom_site_fract_y
_atom_site_fract_z
K1 K 0.45544(5) 0.25385(5) 0.10356(4)
S1 S 0.28599(6) 0.03060(6) 0.19930(4)
O1 O 0.70725(16) 0.18153(17) 0.11237(11)
O2 O 0.56302(17) 0.13884(17) 0.00199(12)
O3 O -0.00325(17) 0.39019(17) 0.10577(11)
O4 O 0.40126(17) 0.30592(18) -0.05925(13)
O5 O 0.59824(18) 0.28868(18) 0.21890(13)
O6 O 0.43725(18) 0.45274(19) 0.15890(15)
C1 C 0.0664(2) 0.2066(2) 0.09633(14)
C2 C 0.1127(2) 0.1779(2) 0.17487(14)
H1 H 0.0690 0.1125 0.2038
C3 C 0.0855(2) 0.2721(2) 0.21252(15)
C4 C 0.0749(2) 0.1307(2) 0.05149(15)
H2 H 0.1099 0.0619 0.0696
O7 O 0.31272(18) 0.44954(18) 0.03159(15)
C5 C 0.0142(2) 0.3082(2) 0.06673(14)
C6 C 0.0312(2) 0.3702(2) 0.17778(16)
C7 C -0.0176(2) 0.2584(3) -0.04762(16)
H3 H -0.0457 0.2754 -0.0954
C8 C 0.1688(3) -0.1235(2) 0.44769(15)
C9 C 0.1283(2) -0.0911(2) 0.31567(14)
C10 C -0.0261(2) 0.3356(3) -0.00518(16)
H4 H -0.0583 0.4053 -0.0243
C11 C 0.1005(2) -0.1383(2) 0.39114(14)
H5 H 0.0316 -0.1824 0.4039
C12 C 0.0324(2) 0.1556(3) -0.01957(16)
H6 H 0.0376 0.1033 -0.0483
C13 C 0.0385(3) -0.1169(2) 0.26256(15)
H7 H 0.0572 -0.0681 0.2134
C14 C 0.6889(3) 0.1107(3) 0.00470(18)
H8 H 0.7376 0.1717 -0.0242
H9 H 0.7051 0.0471 -0.0163
C15 C 0.7215(3) 0.0851(3) 0.0837(2)
H10 H 0.6693 0.0271 0.1131
H11 H 0.8053 0.0593 0.0870
C16 C 0.1365(3) -0.1809(3) 0.52851(15)
H12 H 0.0588 -0.2190 0.5304
C17 C 0.1177(3) 0.2623(3) 0.28588(16)
H13 H 0.1544 0.1974 0.3108
C18 C 0.0089(3) 0.4546(3) 0.21354(18)
H14 H -0.0272 0.5198 0.1887
C19 C 0.0543(4) -0.2354(3) 0.25457(19)
H15 H 0.1364 -0.2463 0.2365
H16 H -0.0014 -0.2492 0.2199
H17 H 0.0379 -0.2852 0.3022
C20 C 0.7249(3) 0.2628(3) 0.21521(19)
H18 H 0.7562 0.2511 0.2644
H19 H 0.7692 0.3235 0.1823
C21 C 0.5226(3) 0.1508(3) -0.07044(18)
H20 H 0.5229 0.0798 -0.0834
H21 H 0.5763 0.2000 -0.1065
C22 C 0.3018(3) -0.0032(3) 0.35376(16)
C23 C 0.2683(3) -0.0542(3) 0.42780(15)
H22 H 0.3147 -0.0412 0.4652
C24 C 0.7420(3) 0.1614(3) 0.18669(19)
H23 H 0.7712 0.0944 0.2137
C25 C -0.0943(3) -0.0952(3) 0.28631(18)
H24 H -0.1175 -0.1465 0.3324
H25 H -0.1464 -0.1044 0.2484
H26 H -0.1023 -0.0213 0.2930
C26 C 0.0400(3) 0.4428(3) 0.2861(2)
H27 H 0.0233 0.4990 0.3107
C27 C 0.3963(3) 0.1973(3) -0.0713(2)
H28 H 0.3628 0.1996 -0.1189
H29 H 0.3442 0.1513 -0.0324
C28 C 0.2968(3) 0.4692(3) -0.0469(2)
H30 H 0.3659 0.5097 -0.0749
H31 H 0.2235 0.5126 -0.0591
C29 C 0.0963(4) 0.3461(3) 0.32187(19)
H32 H 0.1197 0.3380 0.3703
C30 C 0.1205(3) -0.1004(3) 0.57852(17)
H33 H 0.1968 -0.0649 0.5798
H34 H 0.0942 -0.1395 0.6280
H35 H 0.0604 -0.0459 0.5595
C31 C 0.3345(3) 0.5221(3) 0.1365(3)
H36 H 0.3396 0.5898 0.1534
H37 H 0.2596 0.4848 0.1584
C32 C 0.3346(3) 0.5472(3) 0.0545(3)
H38 H 0.2718 0.6014 0.0376
H39 H 0.4128 0.5777 0.0328
C33 C 0.4101(3) 0.0763(4) 0.34212(19)
H40 H 0.4123 0.1202 0.2906
C34 C 0.4460(3) 0.4191(3) 0.2369(2)
H41 H 0.3898 0.3593 0.2580
H42 H 0.4259 0.4801 0.2599
C35 C 0.2869(3) 0.3613(3) -0.0659(2)
H43 H 0.2256 0.3170 -0.0326
H44 H 0.2622 0.3720 -0.1166
C36 C 0.5301(3) 0.0086(6) 0.3528(2)
H45 H 0.5274 -0.0389 0.4020
H46 H 0.5979 0.0579 0.3467
H47 H 0.5393 -0.0352 0.3165
C37 C 0.3984(5) 0.1555(5) 0.3942(2)
H48 H 0.3193 0.1898 0.3911
H49 H 0.4601 0.2111 0.3797
H50 H 0.4084 0.1153 0.4445
C38 C 0.2324(4) -0.2671(4) 0.5580(2)
H51 H 0.2452 -0.3156 0.5247
H52 H 0.2051 -0.3090 0.6065
H53 H 0.3076 -0.2311 0.5612
O8 O 0.23724(17) -0.04539(17) 0.15965(10)
N1 N 0.24394(18) 0.15319(19) 0.17461(11)
O9 O 0.41859(16) 0.03101(19) 0.19552(11)
C39 C 0.5743(3) 0.3817(3) 0.2504(2)
H54 H 0.6304 0.4408 0.2275
H55 H 0.5854 0.3615 0.3035
C40 C 0.2334(2) -0.0251(2) 0.29694(14)
C41 C 0.5963(7) -0.3816(8) 0.3217(5)
C42 C 0.5344(8) -0.4565(6) 0.3792(4)
H56 H 0.5764 -0.5146 0.4084
C43 C 0.4096(8) -0.4445(8) 0.3931(4)
H57 H 0.3681 -0.4945 0.4315
C44 C 0.3468(7) -0.3575(10) 0.3495(6)
H58 H 0.2633 -0.3495 0.3588
C45 C 0.4088(12) -0.2827(7) 0.2920(6)
H59 H 0.3668 -0.2245 0.2628
C46 C 0.5335(12) -0.2947(7) 0.2781(4)
H60 H 0.5750 -0.2447 0.2397
C47 C 0.6972(18) -0.3876(17) 0.3107(10)
H61 H 0.7377 -0.3802 0.3537
H62 H 0.7232 -0.3297 0.2687
H63 H 0.7174 -0.4578 0.3000
C48? C 0.4482(12) -0.2538(11) 0.3005(7)
H64? H 0.4089 -0.3115 0.2845
H65? H 0.4657 -0.1934 0.2584
H66? H 0.3953 -0.2289 0.3367
C49? C 0.5499(5) -0.2914(6) 0.3304(3)
C50? C 0.5727(7) -0.2773(6) 0.4007(4)
H67? H 0.5180 -0.2376 0.4250
C51? C 0.6771(8) -0.3227(7) 0.4347(4)
H68? H 0.6924 -0.3133 0.4817
C52? C 0.7588(6) -0.3821(7) 0.3983(6)
H69? H 0.8287 -0.4124 0.4210
C53? C 0.7360(6) -0.3961(7) 0.3280(6)
H70? H 0.7907 -0.4358 0.3037
C54? C 0.6316(7) -0.3508(7) 0.2940(4)
H71? H 0.6163 -0.3602 0.2470
C55? C 0.049(2) -0.476(2) 0.4905(13)
H72? H 0.0017 -0.4758 0.4488
H73? H 0.0054 -0.5121 0.5358
H74? H 0.0655 -0.4008 0.4922
C56? C 0.1562(11) -0.5290(9) 0.4830(5)
C57? C 0.2536(14) -0.4747(7) 0.4386(4)
H75? H 0.2441 -0.4026 0.4114
C58? C 0.3653(12) -0.5283(11) 0.4351(5)
H76? H 0.4305 -0.4920 0.4054
H77? H 0.4543 -0.6719 0.4735
C59? C 0.2821(13) -0.6903(7) 0.5202(5)
H78? H 0.2917 -0.7625 0.5475
C60? C 0.1705(11) -0.6368(9) 0.5238(4)
H79? H 0.1053 -0.6731 0.5535
C61? C 0.3795(10) -0.6361(11) 0.4759(6)
loop_
_geom_bond_atom_site_label_1
_geom_bond_atom_site_label_2
_geom_bond_site_symmetry_1
_geom_bond_site_symmetry_2
K1 O1 1_555 1_555
S1 O8 1_555 1_555
O1 C15 1_555 1_555
O2 K1 1_555 1_555
O3 C5 1_555 1_555
O4 K1 1_555 1_555
O5 K1 1_555 1_555
O6 K1 1_555 1_555
C1 C2 1_555 1_555
C2 H1 1_555 1_555
C3 C2 1_555 1_555
C4 C1 1_555 1_555
H2 C4 1_555 1_555
O7 K1 1_555 1_555
C5 C1 1_555 1_555
C6 O3 1_555 1_555
C7 H3 1_555 1_555
C8 C11 1_555 1_555
C9 C11 1_555 1_555
C10 C5 1_555 1_555
H4 C10 1_555 1_555
C11 H5 1_555 1_555
C12 C4 1_555 1_555
H6 C12 1_555 1_555
C13 C9 1_555 1_555
H7 C13 1_555 1_555
C14 O2 1_555 1_555
H8 C14 1_555 1_555
H9 C14 1_555 1_555
C15 C14 1_555 1_555
H10 C15 1_555 1_555
H11 C15 1_555 1_555
C16 C8 1_555 1_555
H12 C16 1_555 1_555
C17 C3 1_555 1_555
H13 C17 1_555 1_555
C18 C6 1_555 1_555
H14 C18 1_555 1_555
C19 C13 1_555 1_555
H15 C19 1_555 1_555
H16 C19 1_555 1_555
H17 C19 1_555 1_555
C20 O5 1_555 1_555
H18 C20 1_555 1_555
H19 C20 1_555 1_555
C21 O2 1_555 1_555
H20 C21 1_555 1_555
H21 C21 1_555 1_555
C22 C23 1_555 1_555
C23 C8 1_555 1_555
H22 C23 1_555 1_555
C24 O1 1_555 1_555
H23 C24 1_555 1_555
C25 C13 1_555 1_555
H24 C25 1_555 1_555
H25 C25 1_555 1_555
H26 C25 1_555 1_555
C26 C18 1_555 1_555
H27 C26 1_555 1_555
C27 O4 1_555 1_555
H28 C27 1_555 1_555
H29 C27 1_555 1_555
C28 O7 1_555 1_555
H30 C28 1_555 1_555
H31 C28 1_555 1_555
C29 C17 1_555 1_555
H32 C29 1_555 1_555
C30 C16 1_555 1_555
H33 C30 1_555 1_555
H34 C30 1_555 1_555
H35 C30 1_555 1_555
C31 O6 1_555 1_555
H36 C31 1_555 1_555
H37 C31 1_555 1_555
C32 O7 1_555 1_555
H38 C32 1_555 1_555
H39 C32 1_555 1_555
C33 C22 1_555 1_555
H40 C33 1_555 1_555
C34 O6 1_555 1_555
H41 C34 1_555 1_555
H42 C34 1_555 1_555
C35 O4 1_555 1_555
H43 C35 1_555 1_555
H44 C35 1_555 1_555
C36 C33 1_555 1_555
H45 C36 1_555 1_555
H46 C36 1_555 1_555
H47 C36 1_555 1_555
C37 C33 1_555 1_555
H48 C37 1_555 1_555
H49 C37 1_555 1_555
H50 C37 1_555 1_555
C38 C16 1_555 1_555
H51 C38 1_555 1_555
H52 C38 1_555 1_555
H53 C38 1_555 1_555
N1 K1 1_555 1_555
O9 K1 1_555 1_555
C39 O5 1_555 1_555
H54 C39 1_555 1_555
H55 C39 1_555 1_555
C40 S1 1_555 1_555
C41 C42 1_555 1_555
C42 H56 1_555 1_555
C43 C42 1_555 1_555
H57 C43 1_555 1_555
C44 C43 1_555 1_555
H58 C44 1_555 1_555
C45 C44 1_555 1_555
H59 C45 1_555 1_555
C46 C41 1_555 1_555
H60 C46 1_555 1_555
C47 C41 1_555 1_555
H61 C47 1_555 1_555
H62 C47 1_555 1_555
H63 C47 1_555 1_555
S1 N1 1_555 1_555
S1 O9 1_555 1_555
C2 N1 1_555 1_555
C3 C6 1_555 1_555
C7 C10 1_555 1_555
C7 C12 1_555 1_555
C9 C40 1_555 1_555
C20 C24 1_555 1_555
C21 C27 1_555 1_555
C22 C40 1_555 1_555
C26 C29 1_555 1_555
C28 C35 1_555 1_555
C31 C32 1_555 1_555
C34 C39 1_555 1_555
C45 C46 1_555 1_555

#END
