
#######################################################################
#
#                 Cambridge Crystallographic Data Centre
#                                CCDC 
#
#######################################################################
#
# If this CIF has been generated from an entry in the Cambridge 
# Structural Database, then it will include bibliographic, chemical, 
# crystal, experimental, refinement or atomic coordinate data resulting 
# from the CCDC's data processing and validation procedures.
#
#######################################################################

data_ICIWID
_chemical_formula_moiety         'C30 H36 N1 Na1 O9 S1,C6 H6'
_chemical_name_systematic        
'(15-crown-5)-(4-methoxy-N-(9H-xanthen-9-yl)benzenesulfonamidato)-sodium benzene solvate'
_symmetry_cell_setting           triclinic
_symmetry_space_group_name_H-M   'P -1'
_symmetry_Int_Tables_number      2
_space_group_name_Hall           '-P 1'
loop_
_symmetry_equiv_pos_site_id
_symmetry_equiv_pos_as_xyz
1 x,y,z
2 -x,-y,-z
_cell_length_a                   9.6525(4)
_cell_length_b                   10.0128(5)
_cell_length_c                   20.1980(10)
_cell_angle_alpha                94.526(4)
_cell_angle_beta                 92.174(4)
_cell_angle_gamma                117.703(5)
_cell_volume                     1716.78
_exptl_crystal_colour            colorless
_exptl_crystal_description       block
_cell_formula_units_Z            2
loop_
_atom_site_label
_atom_site_type_symbol
_atom_site_fract_x
_atom_site_fract_y
_atom_site_fract_z
S1 S 0.02296(8) 0.11115(7) 0.20173(4)
Na1 Na 0.19543(14) -0.05908(12) 0.14706(6)
O1 O -0.0467(2) -0.0287(2) 0.15644(11)
O2 O -0.0244(2) 0.2247(2) 0.18759(11)
O3 O 0.6257(4) 0.5554(3) 0.2686(2)
O4 O -0.2020(3) -0.0691(3) 0.46591(11)
O5 O 0.4147(6) -0.0375(7) 0.2082(2)
O6 O 0.1245(6) -0.2655(6) 0.2259(3)
O7 O 0.0118(7) -0.3166(7) 0.0938(3)
O8 O 0.1479(6) -0.0550(6) 0.0287(2)
O9 O 0.4500(6) 0.0478(5) 0.0863(3)
N1 N 0.2028(2) 0.1667(2) 0.20744(11)
C1 C -0.0508(3) 0.0544(3) 0.28023(15)
C2 C -0.1067(3) 0.1337(3) 0.31999(15)
H1 H -0.1100 0.2181 0.3055
C3 C -0.1579(4) 0.0888(3) 0.38119(16)
H2 H -0.1964 0.1426 0.4074
C4 C -0.1524(3) -0.0358(3) 0.40386(16)
C5 C -0.0964(4) -0.1156(4) 0.36435(18)
H3 H -0.0922 -0.1995 0.3791
C6 C -0.0466(4) -0.0708(4) 0.30305(19)
H4 H -0.0096 -0.1254 0.2765
C7 C -0.1941(4) -0.1944(4) 0.49182(19)
H5 H -0.2559 -0.2851 0.4622
H6 H -0.2341 -0.2068 0.5349
H7 H -0.0869 -0.1754 0.4957
C8 C 0.3038(3) 0.3185(3) 0.24090(13)
H8 H 0.2371 0.3551 0.2629
C9 C 0.4188(3) 0.3169(3) 0.29369(12)
C10 C 0.3768(4) 0.2024(4) 0.33451(17)
H9 H 0.2769 0.1196 0.3277
C11 C 0.4804(5) 0.2082(5) 0.3854(2)
H10 H 0.4481 0.1303 0.4127
C12 C 0.6278(4) 0.3251(4) 0.39601(16)
H11 H 0.6962 0.3282 0.4305
C13 C 0.6746(5) 0.4382(4) 0.3556(2)
H12 H 0.7763 0.5182 0.3616
C14 C 0.5695(4) 0.4339(3) 0.30518(19)
C15 C 0.5468(4) 0.5399(4) 0.2078(3)
C16 C 0.6299(5) 0.6425(6) 0.1629(3)
H13 H 0.7341 0.7144 0.1741
C17 C 0.5582(5) 0.6369(6) 0.1031(3)
H14 H 0.6123 0.7068 0.0736
C18 C 0.4088(5) 0.5306(6) 0.0862(2)
H15 H 0.3597 0.5276 0.0452
C19 C 0.3277(4) 0.4253(4) 0.12948(16)
H16 H 0.2257 0.3502 0.1163
C20 C 0.3945(3) 0.4291(3) 0.19170(15)
C21 C 0.5691(4) 0.0669(5) 0.1896(2)
H17 H 0.6304 0.1375 0.2280
H18 H 0.6236 0.0109 0.1748
C22 C 0.4001(11) -0.1308(11) 0.2559(5)
H19 H 0.3638 -0.0991 0.2953
H20 H 0.5018 -0.1232 0.2683
C23 C 0.2953(12) -0.2794(12) 0.2331(5)
H21 H 0.2906 -0.3486 0.2650
H22 H 0.3203 -0.3108 0.1905
C24 C 0.0191(11) -0.4074(10) 0.1967(5)
H23 H -0.0849 -0.4273 0.2084
H24 H 0.0428 -0.4808 0.2161
C25 C 0.0138(10) -0.4336(10) 0.1258(5)
H25 H 0.1047 -0.4449 0.1143
H26 H -0.0794 -0.5277 0.1101
C26 C 0.0077(16) -0.3207(13) 0.0300(6)
H27 H -0.0917 -0.4052 0.0119
H28 H 0.0897 -0.3438 0.0157
C27 C 0.0249(5) -0.1917(5) 0.0002(2)
H29 H 0.0404 -0.2056 -0.0465
H30 H -0.0721 -0.1854 0.0024
C28 C 0.2761(9) -0.0005(9) -0.0108(4)
H31 H 0.2512 0.0361 -0.0503
H32 H 0.3021 -0.0805 -0.0247
C29 C 0.4164(6) 0.1318(5) 0.0335(2)
H33 H 0.5064 0.1829 0.0081
H34 H 0.3868 0.2054 0.0532
C30 C 0.5541(8) 0.1473(10) 0.1383(4)
H35 H 0.5164 0.2166 0.1555
H36 H 0.6560 0.2066 0.1220
C38 C 0.3973(6) 0.6523(8) 0.4096(2)
H57 H 0.4903 0.6526 0.3989
C39 C 0.3961(5) 0.7846(6) 0.4278(2)
H58 H 0.4887 0.8757 0.4301
C40 C 0.2594(5) 0.7852(4) 0.44280(18)
H59 H 0.2589 0.8765 0.4550
C41 C 0.1240(4) 0.6519(4) 0.43992(17)
H60 H 0.0310 0.6519 0.4504
C42 C 0.1251(5) 0.5190(4) 0.42173(18)
H61 H 0.0323 0.4281 0.4193
C43 C 0.2615(8) 0.5177(6) 0.40698(19)
H62 H 0.2622 0.4263 0.3953
O10? O 0.4906(8) 0.0584(8) 0.1243(4)
O11? O 0.3600(9) -0.1320(9) 0.2205(4)
O12? O 0.0464(9) -0.3153(8) 0.1850(4)
O13? O 0.0787(9) -0.2555(9) 0.0531(5)
O14? O 0.2601(9) 0.0484(8) 0.0395(3)
H37? H 0.6817 0.1149 0.1863
H38? H 0.5476 0.1304 0.2220
C31? C 0.5242(10) -0.0660(12) 0.2111(5)
H39? H 0.5835 -0.0545 0.2529
H40? H 0.5434 -0.1314 0.1789
C32? C 0.2485(19) -0.2686(19) 0.2534(8)
H41? H 0.2950 -0.3362 0.2517
H42? H 0.2575 -0.2317 0.3001
C33? C 0.1264(15) -0.3402(14) 0.2409(6)
H43? H 0.0730 -0.3354 0.2801
H44? H 0.1106 -0.4433 0.2332
C34? C -0.0444(19) -0.4257(17) 0.1390(9)
H45? H -0.1475 -0.4801 0.1552
H46? H -0.0018 -0.4961 0.1331
C35? C -0.0623(18) -0.3810(16) 0.0773(8)
H47? H -0.1441 -0.3506 0.0789
H48? H -0.0997 -0.4690 0.0445
H49? H -0.0282 -0.2663 -0.0381
H50? H -0.0441 -0.1530 0.0166
C36? C 0.1754(17) -0.0683(15) -0.0159(5)
H51? H 0.2417 -0.1117 -0.0307
H52? H 0.1553 -0.0212 -0.0526
H53? H 0.4331 0.2144 0.0073
H54? H 0.4536 0.0684 0.0097
C37? C 0.5082(12) 0.1946(10) 0.0980(5)
H55? H 0.6173 0.2633 0.0927
H56? H 0.4651 0.2469 0.1260
loop_
_geom_bond_atom_site_label_1
_geom_bond_atom_site_label_2
_geom_bond_site_symmetry_1
_geom_bond_site_symmetry_2
S1 O1 1_555 1_555
Na1 O1 1_555 1_555
O2 S1 1_555 1_555
O3 C14 1_555 1_555
O4 C4 1_555 1_555
O5 Na1 1_555 1_555
O6 Na1 1_555 1_555
O7 Na1 1_555 1_555
O8 Na1 1_555 1_555
O9 Na1 1_555 1_555
N1 S1 1_555 1_555
C1 S1 1_555 1_555
C2 C1 1_555 1_555
H1 C2 1_555 1_555
C3 C2 1_555 1_555
H2 C3 1_555 1_555
C4 C3 1_555 1_555
C5 C4 1_555 1_555
H3 C5 1_555 1_555
C6 C1 1_555 1_555
H4 C6 1_555 1_555
C7 O4 1_555 1_555
H5 C7 1_555 1_555
H6 C7 1_555 1_555
H7 C7 1_555 1_555
C8 N1 1_555 1_555
H8 C8 1_555 1_555
C9 C8 1_555 1_555
C10 C9 1_555 1_555
H9 C10 1_555 1_555
C11 C10 1_555 1_555
H10 C11 1_555 1_555
C12 C11 1_555 1_555
H11 C12 1_555 1_555
C13 C12 1_555 1_555
H12 C13 1_555 1_555
C14 C9 1_555 1_555
C15 O3 1_555 1_555
C16 C15 1_555 1_555
H13 C16 1_555 1_555
C17 C16 1_555 1_555
H14 C17 1_555 1_555
C18 C17 1_555 1_555
H15 C18 1_555 1_555
C19 C18 1_555 1_555
H16 C19 1_555 1_555
C20 C8 1_555 1_555
C21 O5 1_555 1_555
H17 C21 1_555 1_555
H18 C21 1_555 1_555
C22 O5 1_555 1_555
H19 C22 1_555 1_555
H20 C22 1_555 1_555
C23 O6 1_555 1_555
H21 C23 1_555 1_555
H22 C23 1_555 1_555
C24 O6 1_555 1_555
H23 C24 1_555 1_555
H24 C24 1_555 1_555
C25 O7 1_555 1_555
H25 C25 1_555 1_555
H26 C25 1_555 1_555
C26 O7 1_555 1_555
H27 C26 1_555 1_555
H28 C26 1_555 1_555
C27 O8 1_555 1_555
H29 C27 1_555 1_555
H30 C27 1_555 1_555
C28 O8 1_555 1_555
H31 C28 1_555 1_555
H32 C28 1_555 1_555
C29 O9 1_555 1_555
H33 C29 1_555 1_555
H34 C29 1_555 1_555
C30 O9 1_555 1_555
H35 C30 1_555 1_555
H36 C30 1_555 1_555
C38 H57 1_555 1_555
C39 C38 1_555 1_555
H58 C39 1_555 1_555
C40 C39 1_555 1_555
H59 C40 1_555 1_555
C41 C40 1_555 1_555
H60 C41 1_555 1_555
C42 C41 1_555 1_555
H61 C42 1_555 1_555
C43 C38 1_555 1_555
H62 C43 1_555 1_555
Na1 N1 1_555 1_555
C5 C6 1_555 1_555
C13 C14 1_555 1_555
C15 C20 1_555 1_555
C19 C20 1_555 1_555
C21 C30 1_555 1_555
C22 C23 1_555 1_555
C24 C25 1_555 1_555
C26 C27 1_555 1_555
C28 C29 1_555 1_555
C42 C43 1_555 1_555

#END
