
#######################################################################
#
#                 Cambridge Crystallographic Data Centre
#                                CCDC 
#
#######################################################################
#
# If this CIF has been generated from an entry in the Cambridge 
# Structural Database, then it will include bibliographic, chemical, 
# crystal, experimental, refinement or atomic coordinate data resulting 
# from the CCDC's data processing and validation procedures.
#
#######################################################################

data_ICIYIF
_chemical_name_common            
'C-(4-hydroxyphenyl)calix(4)resorcinarene tetrahydrate'
_chemical_formula_moiety         'C52 H40 O12,4(H2 O1)'
_chemical_name_systematic        
'2,8,14,20-tetrakis(4-hydroxyphenyl)-4,6,10,12,16,18,22,24-octahydroxycalix(4)arene tetrahydrate'
_symmetry_cell_setting           triclinic
_symmetry_space_group_name_H-M   'P -1'
_symmetry_Int_Tables_number      2
_space_group_name_Hall           '-P 1'
loop_
_symmetry_equiv_pos_site_id
_symmetry_equiv_pos_as_xyz
1 x,y,z
2 -x,-y,-z
_cell_length_a                   10.6866(10)
_cell_length_b                   11.0302(11)
_cell_length_c                   11.7256(11)
_cell_angle_alpha                79.9040(10)
_cell_angle_beta                 83.9900(10)
_cell_angle_gamma                84.4080(10)
_cell_volume                     1348.86
_exptl_crystal_colour            colorless
_exptl_crystal_description       Plate
_cell_formula_units_Z            1
loop_
_atom_site_label
_atom_site_type_symbol
_atom_site_fract_x
_atom_site_fract_y
_atom_site_fract_z
O1 O 0.01537(11) 0.14077(11) 0.46371(10)
H1 H -0.0253 0.1447 0.5284
C1 C -0.08897(15) 0.06287(14) 0.20312(13)
H2 H -0.0529 0.0442 0.1300
O2 O -0.39979(11) 0.09570(12) 0.35749(10)
H3 H -0.4204 0.1157 0.4232
C2 C -0.00823(15) 0.08264(14) 0.28297(13)
O3 O 0.11968(12) -0.19330(11) 0.33468(10)
H4 H 0.1403 -0.2690 0.3543
C3 C -0.06380(15) 0.11582(14) 0.38761(14)
O4 O 0.28372(12) -0.28862(11) -0.03994(10)
H5 H 0.3085 -0.3558 0.0000
C4 C -0.19424(15) 0.12227(15) 0.41305(14)
H6 H -0.2306 0.1446 0.4847
O5 O 0.38470(12) 0.50202(11) 0.08908(12)
H7 H 0.4542 0.4986 0.1175
C5 C -0.27128(15) 0.09590(15) 0.33332(14)
O6 O 0.40676(13) 0.46682(11) -0.20130(13)
H8 H 0.3403 0.5139 -0.2077
C6 C 0.13485(15) 0.06397(14) 0.26117(13)
H9 H 0.1674 0.0275 0.3377
C7 C 0.21561(14) 0.00479(14) 0.06374(13)
H10 H 0.2203 0.0903 0.0346
C8 C 0.17264(14) -0.03023(14) 0.18024(13)
C9 C 0.16310(15) -0.15610(15) 0.22049(14)
C10 C 0.19670(16) -0.24255(15) 0.14681(14)
H11 H 0.1879 -0.3277 0.1749
C11 C 0.24301(15) -0.20411(15) 0.03226(14)
C12 C 0.25211(14) -0.07901(14) -0.01243(13)
C13 C 0.30463(15) -0.03976(14) -0.13833(13)
H12 H 0.3874 -0.0889 -0.1495
C14 C 0.21989(15) -0.06913(14) -0.22518(13)
C15 C 0.19876(15) 0.18345(14) 0.21818(14)
C16 C 0.32391(16) 0.18883(16) 0.23822(15)
H13 H 0.3665 0.1191 0.2818
C17 C 0.38834(16) 0.29328(16) 0.19627(16)
H14 H 0.4739 0.2950 0.2108
C18 C 0.32599(16) 0.39500(15) 0.13294(15)
C19 C 0.20201(17) 0.39197(16) 0.11115(17)
H15 H 0.1598 0.4617 0.0672
C20 C 0.13897(16) 0.28637(16) 0.15389(16)
H16 H 0.0536 0.2848 0.1388
C21 C 0.33108(15) 0.09597(15) -0.16261(13)
C22 C 0.44929(16) 0.13034(16) -0.14745(16)
H17 H 0.5150 0.0682 -0.1273
C23 C 0.47311(17) 0.25384(17) -0.16117(18)
H18 H 0.5549 0.2755 -0.1518
C24 C 0.37779(17) 0.34532(16) -0.18852(16)
C25 C 0.25932(17) 0.31375(16) -0.20407(16)
H19 H 0.1936 0.3763 -0.2228
C26 C 0.23712(16) 0.18962(16) -0.19206(15)
H20 H 0.1561 0.1684 -0.2042
O1A O -0.01537(11) -0.14077(11) -0.46371(10)
H1A H 0.0253 -0.1447 -0.5284
C1A C 0.08897(15) -0.06287(14) -0.20312(13)
H2A H 0.0529 -0.0442 -0.1300
O2A O 0.39979(11) -0.09570(12) -0.35749(10)
H3A H 0.4204 -0.1157 -0.4232
C2A C 0.00823(15) -0.08264(14) -0.28297(13)
O3A O -0.11968(12) 0.19330(11) -0.33468(10)
H4A H -0.1403 0.2690 -0.3543
C3A C 0.06380(15) -0.11582(14) -0.38761(14)
O4A O -0.28372(12) 0.28862(11) 0.03994(10)
H5A H -0.3085 0.3558 0.0000
C4A C 0.19424(15) -0.12227(15) -0.41305(14)
H6A H 0.2306 -0.1446 -0.4847
O5A O -0.38470(12) -0.50202(11) -0.08908(12)
H7A H -0.4542 -0.4986 -0.1175
C5A C 0.27128(15) -0.09590(15) -0.33332(14)
O6A O -0.40676(13) -0.46682(11) 0.20130(13)
H8A H -0.3403 -0.5139 0.2077
C6A C -0.13485(15) -0.06397(14) -0.26117(13)
H9A H -0.1674 -0.0275 -0.3377
C7A C -0.21561(14) -0.00479(14) -0.06374(13)
H10A H -0.2203 -0.0903 -0.0346
C8A C -0.17264(14) 0.03023(14) -0.18024(13)
C9A C -0.16310(15) 0.15610(15) -0.22049(14)
C10A C -0.19670(16) 0.24255(15) -0.14681(14)
H11A H -0.1879 0.3277 -0.1749
C11A C -0.24301(15) 0.20411(15) -0.03226(14)
C12A C -0.25211(14) 0.07901(14) 0.01243(13)
C13A C -0.30463(15) 0.03976(14) 0.13833(13)
H12A H -0.3874 0.0889 0.1495
C14A C -0.21989(15) 0.06913(14) 0.22518(13)
C15A C -0.19876(15) -0.18345(14) -0.21818(14)
C16A C -0.32391(16) -0.18883(16) -0.23822(15)
H13A H -0.3665 -0.1191 -0.2818
C17A C -0.38834(16) -0.29328(16) -0.19627(16)
H14A H -0.4739 -0.2950 -0.2108
C18A C -0.32599(16) -0.39500(15) -0.13294(15)
C19A C -0.20201(17) -0.39197(16) -0.11115(17)
H15A H -0.1598 -0.4617 -0.0672
C20A C -0.13897(16) -0.28637(16) -0.15389(16)
H16A H -0.0536 -0.2848 -0.1388
C21A C -0.33108(15) -0.09597(15) 0.16261(13)
C22A C -0.44929(16) -0.13034(16) 0.14745(16)
H17A H -0.5150 -0.0682 0.1273
C23A C -0.47311(17) -0.25384(17) 0.16117(18)
H18A H -0.5549 -0.2755 0.1518
C24A C -0.37779(17) -0.34532(16) 0.18852(16)
C25A C -0.25932(17) -0.31375(16) 0.20407(16)
H19A H -0.1936 -0.3763 0.2228
C26A C -0.23712(16) -0.18962(16) 0.19206(15)
H20A H -0.1561 -0.1684 0.2042
O7 O -0.4905(2) 0.1488(2) 0.56626(16)
O8 O 0.20014(15) 0.61947(13) -0.22011(14)
loop_
_geom_bond_atom_site_label_1
_geom_bond_atom_site_label_2
_geom_bond_site_symmetry_1
_geom_bond_site_symmetry_2
O1 H1 1_555 1_555
C1 H2 1_555 1_555
O2 H3 1_555 1_555
C2 C1 1_555 1_555
O3 H4 1_555 1_555
C3 O1 1_555 1_555
O4 H5 1_555 1_555
C4 C3 1_555 1_555
H6 C4 1_555 1_555
O5 H7 1_555 1_555
C5 O2 1_555 1_555
O6 H8 1_555 1_555
C6 C2 1_555 1_555
H9 C6 1_555 1_555
C7 H10 1_555 1_555
C8 C6 1_555 1_555
C9 O3 1_555 1_555
C10 C9 1_555 1_555
H11 C10 1_555 1_555
C11 O4 1_555 1_555
C12 C7 1_555 1_555
C13 C12 1_555 1_555
H12 C13 1_555 1_555
C14 C13 1_555 1_555
C15 C6 1_555 1_555
C16 C15 1_555 1_555
H13 C16 1_555 1_555
C17 C16 1_555 1_555
H14 C17 1_555 1_555
C18 O5 1_555 1_555
C19 C18 1_555 1_555
H15 C19 1_555 1_555
C20 C15 1_555 1_555
H16 C20 1_555 1_555
C21 C13 1_555 1_555
C22 C21 1_555 1_555
H17 C22 1_555 1_555
C23 C22 1_555 1_555
H18 C23 1_555 1_555
C24 O6 1_555 1_555
C25 C24 1_555 1_555
H19 C25 1_555 1_555
C26 C21 1_555 1_555
H20 C26 1_555 1_555
O1A H1A 1_555 1_555
C1A C14 1_555 1_555
H2A C1A 1_555 1_555
O2A H3A 1_555 1_555
C2A C1A 1_555 1_555
O3A H4A 1_555 1_555
C3A O1A 1_555 1_555
O4A H5A 1_555 1_555
C4A C3A 1_555 1_555
H6A C4A 1_555 1_555
O5A H7A 1_555 1_555
C5A C14 1_555 1_555
O6A H8A 1_555 1_555
C6A C2A 1_555 1_555
H9A C6A 1_555 1_555
C7A H10A 1_555 1_555
C8A C6A 1_555 1_555
C9A O3A 1_555 1_555
C10A C9A 1_555 1_555
H11A C10A 1_555 1_555
C11A O4A 1_555 1_555
C12A C7A 1_555 1_555
C13A C12A 1_555 1_555
H12A C13A 1_555 1_555
C14A C1 1_555 1_555
C15A C6A 1_555 1_555
C16A C15A 1_555 1_555
H13A C16A 1_555 1_555
C17A C16A 1_555 1_555
H14A C17A 1_555 1_555
C18A O5A 1_555 1_555
C19A C18A 1_555 1_555
H15A C19A 1_555 1_555
C20A C15A 1_555 1_555
H16A C20A 1_555 1_555
C21A C13A 1_555 1_555
C22A C21A 1_555 1_555
H17A C22A 1_555 1_555
C23A C22A 1_555 1_555
H18A C23A 1_555 1_555
C24A O6A 1_555 1_555
C25A C24A 1_555 1_555
H19A C25A 1_555 1_555
C26A C21A 1_555 1_555
H20A C26A 1_555 1_555
C2 C3 1_555 1_555
C4 C5 1_555 1_555
C5 C14A 1_555 1_555
C7 C8 1_555 1_555
C8 C9 1_555 1_555
C10 C11 1_555 1_555
C11 C12 1_555 1_555
C17 C18 1_555 1_555
C19 C20 1_555 1_555
C23 C24 1_555 1_555
C25 C26 1_555 1_555
O2A C5A 1_555 1_555
C2A C3A 1_555 1_555
C4A C5A 1_555 1_555
C7A C8A 1_555 1_555
C8A C9A 1_555 1_555
C10A C11A 1_555 1_555
C11A C12A 1_555 1_555
C13A C14A 1_555 1_555
C17A C18A 1_555 1_555
C19A C20A 1_555 1_555
C23A C24A 1_555 1_555
C25A C26A 1_555 1_555

#END
