
#######################################################################
#
#                 Cambridge Crystallographic Data Centre
#                                CCDC 
#
#######################################################################
#
# If this CIF has been generated from an entry in the Cambridge 
# Structural Database, then it will include bibliographic, chemical, 
# crystal, experimental, refinement or atomic coordinate data resulting 
# from the CCDC's data processing and validation procedures.
#
#######################################################################

data_ICOMIZ
_chemical_formula_moiety         'C19 H14 F2 O2'
_chemical_name_systematic        
1,7-bis(4-fluorophenyl)-5-hydroxyhepta-1,4,6-trien-3-one
_symmetry_cell_setting           monoclinic
_symmetry_space_group_name_H-M   'P 21/c'
_symmetry_Int_Tables_number      14
_space_group_name_Hall           '-P 2ybc'
loop_
_symmetry_equiv_pos_site_id
_symmetry_equiv_pos_as_xyz
1 x,y,z
2 -x,1/2+y,1/2-z
3 -x,-y,-z
4 x,1/2-y,1/2+z
_cell_length_a                   36.350(5)
_cell_length_b                   5.7608(14)
_cell_length_c                   7.4088(12)
_cell_angle_alpha                90
_cell_angle_beta                 91.308(12)
_cell_angle_gamma                90
_cell_volume                     1551.04
_cell_formula_units_Z            4
loop_
_atom_site_label
_atom_site_type_symbol
_atom_site_fract_x
_atom_site_fract_y
_atom_site_fract_z
F1 F 0.02515(4) 1.2747(4) -0.0578(2)
F2 F 0.48722(4) 0.5654(3) 0.2117(2)
O1 O 0.20588(4) 0.4029(4) -0.2050(3)
O2 O 0.27215(5) 0.2930(5) -0.1474(3)
H1 H 0.2507 0.2792 -0.1823
C1 C 0.05529(6) 1.1411(6) -0.0845(3)
C2 C 0.05100(6) 0.9311(5) -0.1659(3)
H2 H 0.0278 0.8782 -0.2020
C3 C 0.08232(6) 0.7970(5) -0.1937(3)
H3 H 0.0801 0.6529 -0.2494
C4 C 0.11689(6) 0.8777(5) -0.1384(3)
C5 C 0.11977(6) 1.0940(5) -0.0586(3)
H4 H 0.1429 1.1500 -0.0238
C6 C 0.08898(6) 1.2289(5) -0.0296(3)
H5 H 0.0910 1.3738 0.0251
C7 C 0.14870(6) 0.7254(5) -0.1618(3)
H6 H 0.1442 0.5848 -0.2200
C8 C 0.18312(6) 0.7659(5) -0.1094(3)
H7 H 0.1887 0.9092 -0.0579
C9 C 0.21275(6) 0.5970(6) -0.1284(3)
C10 C 0.24815(6) 0.6517(6) -0.0626(3)
H8 H 0.2525 0.7959 -0.0099
C11 C 0.27680(7) 0.4947(6) -0.0747(3)
C12 C 0.31377(7) 0.5544(6) -0.0059(3)
H9 H 0.3173 0.6980 0.0492
C13 C 0.34227(6) 0.4146(5) -0.0184(3)
H10 H 0.3380 0.2717 -0.0734
C14 C 0.38012(6) 0.4612(5) 0.0456(3)
C15 C 0.39037(6) 0.6603(5) 0.1380(3)
H11 H 0.3727 0.7721 0.1627
C16 C 0.42632(7) 0.6958(5) 0.1941(3)
H12 H 0.4331 0.8297 0.2567
C17 C 0.45191(6) 0.5297(5) 0.1556(3)
C18 C 0.44317(6) 0.3296(5) 0.0668(3)
H13 H 0.4610 0.2185 0.0439
C19 C 0.40705(6) 0.2966(5) 0.0118(3)
H14 H 0.4006 0.1611 -0.0493
loop_
_geom_bond_atom_site_label_1
_geom_bond_atom_site_label_2
_geom_bond_site_symmetry_1
_geom_bond_site_symmetry_2
F1 C1 1_555 1_555
F2 C17 1_555 1_555
O1 C9 1_555 1_555
O2 H1 1_555 1_555
C1 C2 1_555 1_555
C2 H2 1_555 1_555
C3 C2 1_555 1_555
H3 C3 1_555 1_555
C4 C3 1_555 1_555
C5 C4 1_555 1_555
H4 C5 1_555 1_555
C6 C1 1_555 1_555
H5 C6 1_555 1_555
C7 C4 1_555 1_555
H6 C7 1_555 1_555
C8 C7 1_555 1_555
H7 C8 1_555 1_555
C9 C8 1_555 1_555
C10 C9 1_555 1_555
H8 C10 1_555 1_555
C11 O2 1_555 1_555
C12 C11 1_555 1_555
H9 C12 1_555 1_555
C13 C12 1_555 1_555
H10 C13 1_555 1_555
C14 C13 1_555 1_555
C15 C14 1_555 1_555
H11 C15 1_555 1_555
C16 C15 1_555 1_555
H12 C16 1_555 1_555
C17 C16 1_555 1_555
C18 C17 1_555 1_555
H13 C18 1_555 1_555
C19 C14 1_555 1_555
H14 C19 1_555 1_555
C5 C6 1_555 1_555
C10 C11 1_555 1_555
C18 C19 1_555 1_555

#END
