
#######################################################################
#
#                 Cambridge Crystallographic Data Centre
#                                CCDC 
#
#######################################################################
#
# If this CIF has been generated from an entry in the Cambridge 
# Structural Database, then it will include bibliographic, chemical, 
# crystal, experimental, refinement or atomic coordinate data resulting 
# from the CCDC's data processing and validation procedures.
#
#######################################################################

data_ICONUL
_chemical_formula_moiety         'C16 H12 B1 O6 1-,Na1 1+,1.25(H2 O1)'
_chemical_name_systematic        
'Sodium bis((hydroxy)(phenyl)acetato)borate hydrate'
_symmetry_cell_setting           monoclinic
_symmetry_space_group_name_H-M   'C 2'
_symmetry_Int_Tables_number      5
_space_group_name_Hall           'C 2y'
loop_
_symmetry_equiv_pos_site_id
_symmetry_equiv_pos_as_xyz
1 x,y,z
2 -x,y,-z
3 1/2+x,1/2+y,z
4 1/2-x,1/2+y,-z
_cell_length_a                   16.404(5)
_cell_length_b                   8.524(5)
_cell_length_c                   24.609(5)
_cell_angle_alpha                90
_cell_angle_beta                 105.465(5)
_cell_angle_gamma                90
_cell_volume                     3316.43
_exptl_crystal_colour            colorless
_exptl_crystal_description       prism
_chemical_melting_point          '423 K'
_cell_formula_units_Z            8
loop_
_atom_site_label
_atom_site_type_symbol
_atom_site_fract_x
_atom_site_fract_y
_atom_site_fract_z
Na1 Na 0.07865(5) 0.33081(11) 0.26913(4)
Na2 Na -0.13240(10) 0.2483(3) 0.20650(8)
Na3 Na -0.11384(11) 0.1541(3) 0.24358(17)
B1 B -0.16823(12) 0.8444(3) 0.21315(9)
O1 O -0.18129(7) 0.96450(17) 0.17023(6)
O2 O -0.38686(8) 0.88896(19) 0.17740(7)
O3 O -0.25560(7) 0.81797(15) 0.22033(5)
O4 O -0.10682(9) 0.88302(16) 0.26372(6)
O5 O -0.03671(9) 0.5168(2) 0.22983(6)
O6 O -0.14005(8) 0.68932(16) 0.19499(5)
C1 C -0.24129(18) 0.8048(4) 0.06635(11)
H1 H -0.1887 0.7789 0.0901
C2 C -0.2675(3) 0.7378(7) 0.01339(14)
H2 H -0.2332 0.6640 0.0025
C3 C -0.3414(3) 0.7771(8) -0.02253(16)
H3 H -0.3581 0.7304 -0.0579
C4 C -0.3922(2) 0.8854(8) -0.00733(15)
H4 H -0.4427 0.9155 -0.0326
C5 C -0.36792(17) 0.9507(6) 0.04630(12)
H5 H -0.4030 1.0233 0.0570
C6 C -0.29251(12) 0.9093(3) 0.08391(9)
C7 C -0.26793(11) 0.9777(2) 0.14257(8)
H6 H -0.2842 1.0886 0.1407
C8 C -0.31108(11) 0.8918(2) 0.18164(8)
C9 C -0.12705(11) 0.6452(2) 0.34561(8)
H7 H -0.1773 0.6809 0.3214
C10 C -0.12829(15) 0.5573(3) 0.39272(9)
H8 H -0.1799 0.5379 0.4004
C11 C -0.05845(19) 0.4998(4) 0.42718(10)
H9 H -0.0616 0.4363 0.4573
C12 C 0.02062(18) 0.5354(5) 0.41796(11)
H10 H 0.0703 0.4987 0.4426
C13 C 0.02351(15) 0.6253(5) 0.37201(10)
H11 H 0.0754 0.6501 0.3657
C14 C -0.05073(11) 0.6791(2) 0.33504(7)
C15 C -0.04738(11) 0.7589(3) 0.28083(8)
H12 H 0.0099 0.7980 0.2842
C16 C -0.07188(11) 0.6416(3) 0.23284(8)
B2 B 0.24049(13) 0.7272(3) 0.30083(8)
O7 O 0.25031(8) 0.77000(19) 0.24625(5)
O8 O 0.19059(8) 0.85525(16) 0.31691(5)
O9 O 0.12305(12) 1.06949(18) 0.27673(7)
O10 O 0.18937(7) 0.57905(16) 0.29956(5)
O11 O 0.19762(8) 0.36310(16) 0.35090(6)
O12 O 0.31918(7) 0.69379(17) 0.34148(5)
C17 C 0.07754(12) 0.7723(2) 0.16786(8)
H13 H 0.0824 0.7012 0.1972
C18 C 0.01209(16) 0.7565(4) 0.12015(10)
H14 H -0.0268 0.6753 0.1167
C19 C 0.0052(3) 0.8663(5) 0.07638(12)
H15 H -0.0395 0.8597 0.0440
C20 C 0.0634(4) 0.9812(4) 0.08146(13)
H16 H 0.0585 1.0530 0.0523
C21 C 0.1294(3) 0.9934(3) 0.12888(10)
H17 H 0.1699 1.0712 0.1313
C22 C 0.13607(15) 0.8901(2) 0.17340(8)
C23 C 0.20477(14) 0.9112(2) 0.22770(8)
H18 H 0.2443 0.9923 0.2224
C24 C 0.16893(13) 0.9576(2) 0.27591(8)
C25 C 0.38111(15) 0.4738(4) 0.47158(10)
H19 H 0.4124 0.3991 0.4584
C26 C 0.3893(2) 0.4865(5) 0.52900(11)
H20 H 0.4241 0.4180 0.5543
C27 C 0.34424(17) 0.6044(5) 0.54806(9)
H21 H 0.3494 0.6145 0.5865
C28 C 0.29377(17) 0.7028(4) 0.51168(9)
H22 H 0.2660 0.7832 0.5251
C29 C 0.28263(14) 0.6851(3) 0.45358(9)
H23 H 0.2453 0.7505 0.4285
C30 C 0.32619(10) 0.5724(2) 0.43358(7)
C31 C 0.31482(11) 0.5509(2) 0.37084(7)
H24 H 0.3587 0.4795 0.3653
C32 C 0.22843(10) 0.4844(2) 0.34049(7)
O13 O -0.03073(16) 0.1923(4) 0.17125(14)
O14 O -0.02525(14) 0.2160(3) 0.30956(11)
loop_
_geom_bond_atom_site_label_1
_geom_bond_atom_site_label_2
_geom_bond_site_symmetry_1
_geom_bond_site_symmetry_2
B1 O1 1_555 1_555
O1 C7 1_555 1_555
O2 C8 1_555 1_555
O3 B1 1_555 1_555
O4 B1 1_555 1_555
O5 C16 1_555 1_555
O6 B1 1_555 1_555
C1 H1 1_555 1_555
C2 C1 1_555 1_555
H2 C2 1_555 1_555
C3 C2 1_555 1_555
H3 C3 1_555 1_555
C4 C3 1_555 1_555
H4 C4 1_555 1_555
C5 C4 1_555 1_555
H5 C5 1_555 1_555
C6 C1 1_555 1_555
C7 C6 1_555 1_555
H6 C7 1_555 1_555
C8 O3 1_555 1_555
C9 H7 1_555 1_555
C10 C9 1_555 1_555
H8 C10 1_555 1_555
C11 C10 1_555 1_555
H9 C11 1_555 1_555
C12 C11 1_555 1_555
H10 C12 1_555 1_555
C13 C12 1_555 1_555
H11 C13 1_555 1_555
C14 C9 1_555 1_555
C15 O4 1_555 1_555
H12 C15 1_555 1_555
C16 O6 1_555 1_555
B2 O7 1_555 1_555
O7 C23 1_555 1_555
O8 B2 1_555 1_555
O9 C24 1_555 1_555
O10 B2 1_555 1_555
O11 C32 1_555 1_555
O12 B2 1_555 1_555
C17 H13 1_555 1_555
C18 C17 1_555 1_555
H14 C18 1_555 1_555
C19 C18 1_555 1_555
H15 C19 1_555 1_555
C20 C19 1_555 1_555
H16 C20 1_555 1_555
C21 C20 1_555 1_555
H17 C21 1_555 1_555
C22 C17 1_555 1_555
C23 C22 1_555 1_555
H18 C23 1_555 1_555
C24 O8 1_555 1_555
C25 H19 1_555 1_555
C26 C25 1_555 1_555
H20 C26 1_555 1_555
C27 C26 1_555 1_555
H21 C27 1_555 1_555
C28 C27 1_555 1_555
H22 C28 1_555 1_555
C29 C28 1_555 1_555
H23 C29 1_555 1_555
C30 C25 1_555 1_555
C31 O12 1_555 1_555
H24 C31 1_555 1_555
C32 O10 1_555 1_555
C5 C6 1_555 1_555
C7 C8 1_555 1_555
C13 C14 1_555 1_555
C14 C15 1_555 1_555
C15 C16 1_555 1_555
C21 C22 1_555 1_555
C23 C24 1_555 1_555
C29 C30 1_555 1_555
C30 C31 1_555 1_555
C31 C32 1_555 1_555

#END
