
#######################################################################
#
#                 Cambridge Crystallographic Data Centre
#                                CCDC 
#
#######################################################################
#
# If this CIF has been generated from an entry in the Cambridge 
# Structural Database, then it will include bibliographic, chemical, 
# crystal, experimental, refinement or atomic coordinate data resulting 
# from the CCDC's data processing and validation procedures.
#
#######################################################################

data_ICOPAU
_chemical_formula_moiety         'C16 H14 Br1 N1'
_chemical_name_systematic        5-bromo-1,3-dimethyl-2-phenyl-1H-indole
_symmetry_cell_setting           monoclinic
_symmetry_space_group_name_H-M   'P 21'
_symmetry_Int_Tables_number      4
_space_group_name_Hall           'P 2yb'
loop_
_symmetry_equiv_pos_site_id
_symmetry_equiv_pos_as_xyz
1 x,y,z
2 -x,1/2+y,-z
_cell_length_a                   8.0950(16)
_cell_length_b                   8.2380(16)
_cell_length_c                   10.444(2)
_cell_angle_alpha                90
_cell_angle_beta                 92.73(3)
_cell_angle_gamma                90
_cell_volume                     695.685
_exptl_crystal_description       block
_cell_formula_units_Z            2
loop_
_atom_site_label
_atom_site_type_symbol
_atom_site_fract_x
_atom_site_fract_y
_atom_site_fract_z
Br1 Br 0.55027(12) 0.47511(18) 0.63416(9)
N1 N 1.0989(7) 0.4528(10) 0.2672(5)
C1 C 0.9882(9) 0.4733(17) 0.3628(6)
C2 C 1.0054(12) 0.5583(11) 0.4809(8)
H1 H 1.1024 0.6125 0.5060
C3 C 0.8691(13) 0.5559(12) 0.5568(8)
H2 H 0.8737 0.6120 0.6342
C4 C 0.7276(10) 0.4726(17) 0.5202(7)
C5 C 0.7092(10) 0.3935(10) 0.4071(8)
H3 H 0.6107 0.3406 0.3841
C6 C 0.8413(9) 0.3926(10) 0.3251(6)
C7 C 0.8640(9) 0.3247(9) 0.2007(7)
C8 C 1.0174(9) 0.3683(10) 0.1683(7)
C9 C 0.7314(13) 0.2326(15) 0.1211(9)
H4 H 0.7747 0.2009 0.0409
H5 H 0.6368 0.3013 0.1055
H6 H 0.6992 0.1376 0.1670
C10 C 1.2575(11) 0.5389(12) 0.2679(9)
H7 H 1.2782 0.5902 0.3497
H8 H 1.2536 0.6199 0.2017
H9 H 1.3445 0.4631 0.2529
C11 C 1.2509(16) 0.2360(16) -0.1740(11)
H10 H 1.2982 0.2018 -0.2487
C12 C 1.3261(15) 0.2050(17) -0.0593(11)
H11 H 1.4289 0.1543 -0.0565
C13 C 1.2580(10) 0.2448(12) 0.0528(9)
H12 H 1.3113 0.2179 0.1308
C14 C 1.1062(10) 0.3270(10) 0.0493(7)
C15 C 1.0277(13) 0.3625(11) -0.0701(8)
H13 H 0.9258 0.4149 -0.0752
C16 C 1.1049(17) 0.3179(12) -0.1798(9)
H14 H 1.0559 0.3445 -0.2594
loop_
_geom_bond_atom_site_label_1
_geom_bond_atom_site_label_2
_geom_bond_site_symmetry_1
_geom_bond_site_symmetry_2
Br1 C4 1_555 1_555
N1 C1 1_555 1_555
C1 C2 1_555 1_555
C2 H1 1_555 1_555
C3 C2 1_555 1_555
H2 C3 1_555 1_555
C4 C3 1_555 1_555
C5 C4 1_555 1_555
H3 C5 1_555 1_555
C6 C1 1_555 1_555
C7 C6 1_555 1_555
C8 N1 1_555 1_555
C9 C7 1_555 1_555
H4 C9 1_555 1_555
H5 C9 1_555 1_555
H6 C9 1_555 1_555
C10 N1 1_555 1_555
H7 C10 1_555 1_555
H8 C10 1_555 1_555
H9 C10 1_555 1_555
C11 H10 1_555 1_555
C12 C11 1_555 1_555
H11 C12 1_555 1_555
C13 C12 1_555 1_555
H12 C13 1_555 1_555
C14 C8 1_555 1_555
C15 C14 1_555 1_555
H13 C15 1_555 1_555
C16 C11 1_555 1_555
H14 C16 1_555 1_555
C5 C6 1_555 1_555
C7 C8 1_555 1_555
C13 C14 1_555 1_555
C15 C16 1_555 1_555

#END
