
#######################################################################
#
#                 Cambridge Crystallographic Data Centre
#                                CCDC 
#
#######################################################################
#
# If this CIF has been generated from an entry in the Cambridge 
# Structural Database, then it will include bibliographic, chemical, 
# crystal, experimental, refinement or atomic coordinate data resulting 
# from the CCDC's data processing and validation procedures.
#
#######################################################################

data_ICOPOG
_chemical_formula_moiety         'C10 H19 N1 O2 S1'
_chemical_name_systematic        
N-((1R*,2R*,5S*)-Bicyclo(3.1.0)hexan-2-yl)-2-methylpropane-2-sulfonamide
_symmetry_cell_setting           monoclinic
_symmetry_space_group_name_H-M   'P 21/n'
_symmetry_Int_Tables_number      14
_space_group_name_Hall           '-P 2yn'
loop_
_symmetry_equiv_pos_site_id
_symmetry_equiv_pos_as_xyz
1 x,y,z
2 1/2-x,1/2+y,1/2-z
3 -x,-y,-z
4 1/2+x,1/2-y,1/2+z
_cell_length_a                   11.7827(5)
_cell_length_b                   6.0089(2)
_cell_length_c                   16.0233(7)
_cell_angle_alpha                90
_cell_angle_beta                 91.4596(14)
_cell_angle_gamma                90
_cell_volume                     1134.1
_exptl_crystal_colour            colorless
_exptl_crystal_description       block
_chemical_melting_point          '374-375 K'
_cell_formula_units_Z            4
_exptl_crystal_recrystallization_method 'petroleum ether/diethyl ether (4:1)'
loop_
_atom_site_label
_atom_site_type_symbol
_atom_site_fract_x
_atom_site_fract_y
_atom_site_fract_z
S1 S 0.17271(8) 0.57615(13) 0.06006(5)
C1 C 0.2663(3) 0.4099(6) -0.0019(2)
C2 C 0.1961(4) 0.2738(7) -0.0647(2)
C3 C 0.3363(4) 0.2588(7) 0.0550(3)
C4 C 0.3414(4) 0.5750(7) -0.0472(2)
N1 N 0.0893(3) 0.4054(6) 0.1057(2)
C5 C 0.0989(4) 0.3470(7) 0.1949(2)
C6 C 0.0177(5) 0.4884(6) 0.2443(2)
C7 C -0.0881(4) 0.3509(9) 0.2559(3)
C8 C -0.0126(5) 0.4108(7) 0.3298(3)
C9 C -0.0699(6) 0.1267(7) 0.2163(3)
C10 C 0.0587(8) 0.1093(7) 0.2081(3)
O1 O 0.1037(3) 0.7088(5) 0.00261(17)
O2 O 0.2411(3) 0.6902(4) 0.12248(18)
H1 H 0.2478 0.1816 -0.0991
H2 H 0.1513 0.3768 -0.1019
H3 H 0.1432 0.1746 -0.0342
H4 H 0.3883 0.1662 0.0208
H5 H 0.3823 0.3509 0.0953
H6 H 0.2846 0.1588 0.0865
H7 H 0.3956 0.4921 -0.0829
H8 H 0.3850 0.6667 -0.0054
H9 H 0.2928 0.6745 -0.0832
H10 H 0.1798 0.3690 0.2132
H11 H 0.0407 0.6388 0.2238
H12 H -0.1721 0.3620 0.2463
H13 H -0.0392 0.5197 0.3721
H14 H 0.0342 0.2928 0.3584
H15 H -0.0987 0.0050 0.2527
H16 H -0.1088 0.1187 0.1603
H17 H 0.0943 0.0452 0.2600
H18 H 0.0778 0.0142 0.1592
H19 H 0.0267 0.3860 0.0802
loop_
_geom_bond_atom_site_label_1
_geom_bond_atom_site_label_2
_geom_bond_site_symmetry_1
_geom_bond_site_symmetry_2
S1 C1 1_555 1_555
C1 C2 1_555 1_555
C2 H1 1_555 1_555
C3 C1 1_555 1_555
C4 C1 1_555 1_555
N1 S1 1_555 1_555
C5 N1 1_555 1_555
C6 C5 1_555 1_555
C7 C6 1_555 1_555
C8 C6 1_555 1_555
C9 C7 1_555 1_555
C10 C5 1_555 1_555
O1 S1 1_555 1_555
O2 S1 1_555 1_555
H2 C2 1_555 1_555
H3 C2 1_555 1_555
H4 C3 1_555 1_555
H5 C3 1_555 1_555
H6 C3 1_555 1_555
H7 C4 1_555 1_555
H8 C4 1_555 1_555
H9 C4 1_555 1_555
H10 C5 1_555 1_555
H11 C6 1_555 1_555
H12 C7 1_555 1_555
H13 C8 1_555 1_555
H14 C8 1_555 1_555
H15 C9 1_555 1_555
H16 C9 1_555 1_555
H17 C10 1_555 1_555
H18 C10 1_555 1_555
H19 N1 1_555 1_555
C7 C8 1_555 1_555
C9 C10 1_555 1_555

#END
