
#######################################################################
#
#                 Cambridge Crystallographic Data Centre
#                                CCDC 
#
#######################################################################
#
# If this CIF has been generated from an entry in the Cambridge 
# Structural Database, then it will include bibliographic, chemical, 
# crystal, experimental, refinement or atomic coordinate data resulting 
# from the CCDC's data processing and validation procedures.
#
#######################################################################

data_ICOXAC
_chemical_formula_moiety         'C21 H20 Br1 N1 O7'
_chemical_name_systematic        
'ethyl (S)-3-((S)-1-(4-bromophenyl)-2-nitroethyl)-6-methoxy-2-oxo-chromane-3-carboxylate'
_symmetry_cell_setting           monoclinic
_symmetry_space_group_name_H-M   'P 21'
_symmetry_Int_Tables_number      4
_space_group_name_Hall           'P 2yb'
loop_
_symmetry_equiv_pos_site_id
_symmetry_equiv_pos_as_xyz
1 x,y,z
2 -x,1/2+y,-z
_cell_length_a                   8.9229(6)
_cell_length_b                   8.9132(6)
_cell_length_c                   13.0754(10)
_cell_angle_alpha                90
_cell_angle_beta                 107.378(3)
_cell_angle_gamma                90
_cell_volume                     992.441
_exptl_crystal_colour            colorless
_exptl_crystal_description       Block
_chemical_melting_point          '155-162 deg.C'
_cell_formula_units_Z            2
loop_
_atom_site_label
_atom_site_type_symbol
_atom_site_fract_x
_atom_site_fract_y
_atom_site_fract_z
O1 O 0.56379(18) 0.97782(17) 0.43427(11)
C1 C 0.4445(2) 1.0209(2) 0.37214(15)
C2 C 0.3494(2) 0.9357(2) 0.27151(13)
C3 C 0.3060(2) 1.0464(2) 0.17705(13)
H1 H 0.4013 1.0793 0.1609
H2 H 0.2373 0.9970 0.1132
C4 C 0.2235(2) 1.1797(2) 0.20583(14)
C5 C 0.1056(2) 1.2587(2) 0.13223(14)
H3 H 0.0772 1.2324 0.0593
C6 C 0.0287(2) 1.3771(2) 0.16554(15)
C7 C 0.0689(2) 1.4157(2) 0.27258(15)
H4 H 0.0159 1.4943 0.2951
C8 C 0.1879(3) 1.3381(2) 0.34703(16)
H5 H 0.2166 1.3641 0.4200
C9 C 0.2626(2) 1.2234(2) 0.31256(15)
O2 O 0.38954(18) 1.15631(15) 0.38950(11)
C10 C 0.1952(2) 0.8784(2) 0.28666(16)
O3 O 0.08676(19) 0.8365(2) 0.21375(14)
O4 O 0.2001(2) 0.8796(2) 0.38802(12)
C11 C 0.0596(3) 0.8268(4) 0.4145(2)
H6 H -0.0004 0.9128 0.4280
H7 H -0.0080 0.7693 0.3544
C12 C 0.1092(3) 0.7337(4) 0.5086(2)
H8 H 0.1656 0.6474 0.4939
H9 H 0.0179 0.7002 0.5280
H10 H 0.1775 0.7909 0.5673
C13 C 0.4516(2) 0.8015(2) 0.25208(14)
H11 H 0.5595 0.8411 0.2658
C14 C 0.4023(2) 0.7435(2) 0.13766(14)
C15 C 0.4772(2) 0.7996(2) 0.06628(14)
H12 H 0.5608 0.8675 0.0911
C16 C 0.4306(2) 0.7570(2) -0.04128(15)
H13 H 0.4805 0.7972 -0.0891
C17 C 0.3103(2) 0.6552(2) -0.07614(14)
C18 C 0.2378(2) 0.5925(3) -0.00658(14)
H14 H 0.1582 0.5204 -0.0311
C19 C 0.2837(2) 0.6372(2) 0.09965(15)
H15 H 0.2341 0.5952 0.1471
Br1 Br 0.23924(2) 0.60492(3) -0.223586(13)
C20 C 0.4623(2) 0.6760(2) 0.33482(15)
H16 H 0.4834 0.7193 0.4066
H17 H 0.3627 0.6213 0.3178
N1 N 0.5923(2) 0.5714(2) 0.33190(14)
O5 O 0.72527(18) 0.6200(3) 0.35775(16)
O6 O 0.5584(3) 0.4442(2) 0.3012(2)
O7 O -0.08461(16) 1.44822(16) 0.08641(11)
C21 C -0.1800(3) 1.5550(2) 0.11970(17)
H18 H -0.2250 1.5086 0.1709
H19 H -0.2637 1.5888 0.0579
H20 H -0.1161 1.6401 0.1529
loop_
_geom_bond_atom_site_label_1
_geom_bond_atom_site_label_2
_geom_bond_site_symmetry_1
_geom_bond_site_symmetry_2
O1 C1 1_555 1_555
C1 C2 1_555 1_555
C2 C3 1_555 1_555
C3 H1 1_555 1_555
H2 C3 1_555 1_555
C4 C3 1_555 1_555
C5 C4 1_555 1_555
H3 C5 1_555 1_555
C6 C5 1_555 1_555
C7 C6 1_555 1_555
H4 C7 1_555 1_555
C8 C7 1_555 1_555
H5 C8 1_555 1_555
C9 C4 1_555 1_555
O2 C1 1_555 1_555
C10 C2 1_555 1_555
O3 C10 1_555 1_555
O4 C10 1_555 1_555
C11 O4 1_555 1_555
H6 C11 1_555 1_555
H7 C11 1_555 1_555
C12 C11 1_555 1_555
H8 C12 1_555 1_555
H9 C12 1_555 1_555
H10 C12 1_555 1_555
C13 C2 1_555 1_555
H11 C13 1_555 1_555
C14 C13 1_555 1_555
C15 C14 1_555 1_555
H12 C15 1_555 1_555
C16 C15 1_555 1_555
H13 C16 1_555 1_555
C17 C16 1_555 1_555
C18 C17 1_555 1_555
H14 C18 1_555 1_555
C19 C14 1_555 1_555
H15 C19 1_555 1_555
Br1 C17 1_555 1_555
C20 C13 1_555 1_555
H16 C20 1_555 1_555
H17 C20 1_555 1_555
N1 C20 1_555 1_555
O5 N1 1_555 1_555
O6 N1 1_555 1_555
O7 C6 1_555 1_555
C21 O7 1_555 1_555
H18 C21 1_555 1_555
H19 C21 1_555 1_555
H20 C21 1_555 1_555
C8 C9 1_555 1_555
C9 O2 1_555 1_555
C18 C19 1_555 1_555

#END
