
#######################################################################
#
#                 Cambridge Crystallographic Data Centre
#                                CCDC 
#
#######################################################################
#
# If this CIF has been generated from an entry in the Cambridge 
# Structural Database, then it will include bibliographic, chemical, 
# crystal, experimental, refinement or atomic coordinate data resulting 
# from the CCDC's data processing and validation procedures.
#
#######################################################################

data_ICOZIL
_chemical_formula_moiety         'C28 H24 N4 O2 S3'
_chemical_name_systematic        
N,N-bis(1,3-benzothiazol-2-ylmethyl)-5-(dimethylamino)naphthalene-1-sulfonamide
_symmetry_cell_setting           triclinic
_symmetry_space_group_name_H-M   'P -1'
_symmetry_Int_Tables_number      2
_space_group_name_Hall           '-P 1'
loop_
_symmetry_equiv_pos_site_id
_symmetry_equiv_pos_as_xyz
1 x,y,z
2 -x,-y,-z
_cell_length_a                   10.5188(4)
_cell_length_b                   12.1420(5)
_cell_length_c                   12.2581(5)
_cell_angle_alpha                114.1660(10)
_cell_angle_beta                 106.7050(10)
_cell_angle_gamma                97.6280(10)
_cell_volume                     1310.73
_exptl_crystal_colour            brown
_exptl_crystal_description       block
_cell_formula_units_Z            2
loop_
_atom_site_label
_atom_site_type_symbol
_atom_site_fract_x
_atom_site_fract_y
_atom_site_fract_z
C1 C -0.0790(3) 0.1652(3) 0.1611(3)
H1 H -0.0727 0.0963 0.0881
H2 H -0.1132 0.2225 0.1316
C2 C -0.1833(3) 0.1129(2) 0.2027(3)
C3 C -0.2773(3) 0.0207(3) 0.2942(3)
C4 C -0.2854(3) -0.0347(3) 0.3718(3)
H3 H -0.2063 -0.0426 0.4228
C5 C -0.4126(4) -0.0776(3) 0.3713(4)
H4 H -0.4194 -0.1152 0.4228
C6 C -0.5322(4) -0.0664(3) 0.2958(4)
H5 H -0.6168 -0.0949 0.2991
C7 C -0.5268(3) -0.0142(3) 0.2173(3)
H6 H -0.6069 -0.0085 0.1651
C8 C -0.3974(3) 0.0305(3) 0.2176(3)
C9 C 0.0751(3) 0.3521(2) 0.3671(3)
H7 H 0.1616 0.3755 0.4383
H8 H 0.0000 0.3436 0.3968
C10 C 0.0745(3) 0.4543(2) 0.3277(2)
C11 C 0.0542(3) 0.6345(2) 0.3313(3)
C12 C 0.0269(3) 0.7505(3) 0.3709(3)
H9 H 0.0018 0.7839 0.4420
C13 C 0.0377(3) 0.8149(3) 0.3029(3)
H10 H 0.0197 0.8926 0.3283
C14 C 0.0752(3) 0.7660(3) 0.1969(3)
H11 H 0.0810 0.8114 0.1522
C15 C 0.1037(3) 0.6526(3) 0.1567(3)
H12 H 0.1293 0.6203 0.0858
C16 C 0.0931(3) 0.5866(2) 0.2259(3)
C17 C 0.3247(3) 0.2379(2) 0.3103(3)
C18 C 0.4302(3) 0.2851(3) 0.4288(3)
H13 H 0.4132 0.2742 0.4946
C19 C 0.5629(3) 0.3494(3) 0.4505(3)
H14 H 0.6349 0.3783 0.5295
C20 C 0.5865(3) 0.3697(3) 0.3568(3)
H15 H 0.6751 0.4129 0.3727
C21 C 0.4798(3) 0.3268(2) 0.2346(3)
C22 C 0.5055(3) 0.3492(3) 0.1357(3)
C23 C 0.4061(3) 0.2910(3) 0.0146(3)
H16 H 0.4244 0.3010 -0.0512
C24 C 0.2762(3) 0.2160(3) -0.0125(3)
H17 H 0.2098 0.1774 -0.0960
C25 C 0.2453(3) 0.1985(2) 0.0800(3)
H18 H 0.1576 0.1502 0.0602
C26 C 0.3466(3) 0.2538(2) 0.2075(2)
C27 C 0.6594(4) 0.5610(3) 0.2547(4)
H19 H 0.6042 0.5956 0.2073
H20 H 0.7554 0.6058 0.2870
H21 H 0.6329 0.5692 0.3257
N1 N 0.0593(2) 0.23158(18) 0.2601(2)
N2 N -0.1553(2) 0.0693(2) 0.2841(2)
N3 N 0.0435(2) 0.5556(2) 0.3878(2)
N4 N 0.6375(3) 0.4283(3) 0.1698(3)
O1 O 0.1166(2) 0.03105(17) 0.1769(2)
O2 O 0.1813(2) 0.1531(2) 0.4124(2)
S1 S -0.35557(8) 0.10183(8) 0.13097(8)
S2 S 0.11893(8) 0.44158(7) 0.19749(7)
S3 S 0.16460(7) 0.15027(6) 0.29137(7)
C28 C 0.6830(4) 0.4118(4) 0.0643(4)
H22 H 0.6708 0.3239 0.0123
H23 H 0.7791 0.4574 0.0987
H24 H 0.6291 0.4431 0.0122
loop_
_geom_bond_atom_site_label_1
_geom_bond_atom_site_label_2
_geom_bond_site_symmetry_1
_geom_bond_site_symmetry_2
C1 H1 1_555 1_555
H2 C1 1_555 1_555
C2 C1 1_555 1_555
C3 C4 1_555 1_555
C4 H3 1_555 1_555
C5 C4 1_555 1_555
H4 C5 1_555 1_555
C6 C5 1_555 1_555
H5 C6 1_555 1_555
C7 C6 1_555 1_555
H6 C7 1_555 1_555
C8 C3 1_555 1_555
C9 H7 1_555 1_555
H8 C9 1_555 1_555
C10 C9 1_555 1_555
C11 C12 1_555 1_555
C12 H9 1_555 1_555
C13 C12 1_555 1_555
H10 C13 1_555 1_555
C14 C13 1_555 1_555
H11 C14 1_555 1_555
C15 C14 1_555 1_555
H12 C15 1_555 1_555
C16 C11 1_555 1_555
C17 C18 1_555 1_555
C18 H13 1_555 1_555
C19 C18 1_555 1_555
H14 C19 1_555 1_555
C20 C19 1_555 1_555
H15 C20 1_555 1_555
C21 C20 1_555 1_555
C22 C21 1_555 1_555
C23 C22 1_555 1_555
H16 C23 1_555 1_555
C24 C23 1_555 1_555
H17 C24 1_555 1_555
C25 C24 1_555 1_555
H18 C25 1_555 1_555
C26 C17 1_555 1_555
C27 H19 1_555 1_555
H20 C27 1_555 1_555
H21 C27 1_555 1_555
N1 C1 1_555 1_555
N2 C2 1_555 1_555
N3 C10 1_555 1_555
N4 C22 1_555 1_555
O1 S3 1_555 1_555
O2 S3 1_555 1_555
S1 C2 1_555 1_555
S2 C10 1_555 1_555
S3 C17 1_555 1_555
C28 N4 1_555 1_555
H22 C28 1_555 1_555
H23 C28 1_555 1_555
H24 C28 1_555 1_555
C3 N2 1_555 1_555
C7 C8 1_555 1_555
C8 S1 1_555 1_555
C9 N1 1_555 1_555
C11 N3 1_555 1_555
C15 C16 1_555 1_555
C16 S2 1_555 1_555
C21 C26 1_555 1_555
C25 C26 1_555 1_555
C27 N4 1_555 1_555
N1 S3 1_555 1_555

#END
