
#######################################################################
#
#                 Cambridge Crystallographic Data Centre
#                                CCDC 
#
#######################################################################
#
# If this CIF has been generated from an entry in the Cambridge 
# Structural Database, then it will include bibliographic, chemical, 
# crystal, experimental, refinement or atomic coordinate data resulting 
# from the CCDC's data processing and validation procedures.
#
#######################################################################

data_ICUFOE
_chemical_formula_moiety         'C12 H11 N5,C6 H8 O7'
_chemical_name_systematic        'N-benzyl-9H-purin-6-amine citric acid'
_symmetry_cell_setting           triclinic
_symmetry_space_group_name_H-M   'P -1'
_symmetry_Int_Tables_number      2
_space_group_name_Hall           '-P 1'
loop_
_symmetry_equiv_pos_site_id
_symmetry_equiv_pos_as_xyz
1 x,y,z
2 -x,-y,-z
_cell_length_a                   5.0883(5)
_cell_length_b                   13.0295(11)
_cell_length_c                   16.4332(14)
_cell_angle_alpha                69.1550(10)
_cell_angle_beta                 83.900(3)
_cell_angle_gamma                79.244(2)
_cell_volume                     999.346
_exptl_crystal_colour            colorless
_exptl_crystal_description       block
_cell_formula_units_Z            2
loop_
_atom_site_label
_atom_site_type_symbol
_atom_site_fract_x
_atom_site_fract_y
_atom_site_fract_z
N1 N 0.8128(6) 0.3837(2) 0.02158(17)
H1 H 0.7094 0.4048 -0.0214
N2 N 1.1549(6) 0.2901(2) 0.10719(17)
N3 N 0.5945(6) 0.5032(2) 0.10163(18)
N4 N 0.8253(6) 0.4735(2) 0.23014(18)
N5 N 1.2047(6) 0.3395(2) 0.27388(17)
H2 H 1.3315 0.2938 0.2605
C1 C 1.0334(8) 0.3062(3) 0.0352(2)
H3 H 1.0956 0.2672 -0.0025
C2 C 0.9946(7) 0.3652(3) 0.1418(2)
C3 C 0.7852(7) 0.4224(3) 0.0889(2)
C4 C 0.6332(8) 0.5226(3) 0.1726(2)
H4 H 0.5093 0.5784 0.1843
C5 C 1.0128(8) 0.3917(3) 0.2171(2)
C6 C 1.2134(8) 0.3549(3) 0.3565(2)
H5 H 1.1921 0.4340 0.3464
H6 H 1.3885 0.3213 0.3800
C7 C 1.0048(8) 0.3065(4) 0.4228(2)
C8 C 0.8530(10) 0.3654(5) 0.4708(3)
H7 H 0.8776 0.4378 0.4613
C9 C 0.6635(12) 0.3180(6) 0.5333(3)
H8 H 0.5595 0.3585 0.5651
C10 C 0.6319(11) 0.2122(7) 0.5474(3)
H9 H 0.5072 0.1801 0.5901
C11 C 0.7746(13) 0.1521(5) 0.5017(4)
H10 H 0.7482 0.0796 0.5124
C12 C 0.9646(10) 0.1996(4) 0.4373(3)
H11 H 1.0628 0.1590 0.4046
O1 O 0.8783(6) 0.6259(2) 0.29838(16)
H12 H 0.8593 0.5785 0.2783
O2 O 1.0061(7) 0.7143(2) 0.16158(18)
O3 O 0.5955(6) 1.1407(2) 0.14943(16)
H13 H 0.4777 1.1953 0.1409
O4 O 0.5502(8) 1.1430(3) 0.2830(2)
O5 O 0.7449(5) 0.9598(2) 0.06658(14)
O6 O 1.1480(5) 0.9705(2) 0.10178(14)
H14 H 1.1781 0.9898 0.0489
O7 O 0.5566(4) 0.89879(19) 0.22926(13)
H15 H 0.4844 0.9278 0.1824
C13 C 0.9595(8) 0.7114(3) 0.2353(3)
C14 C 0.9931(7) 0.8022(3) 0.2674(2)
H16 H 1.1808 0.8099 0.2617
H17 H 0.9388 0.7818 0.3288
C15 C 0.8292(7) 0.9133(3) 0.2175(2)
C16 C 0.8685(7) 1.0015(3) 0.2554(2)
H18 H 0.8689 0.9684 0.3184
H19 H 1.0418 1.0241 0.2350
C17 C 0.6556(8) 1.1026(3) 0.2308(3)
C18 C 0.9056(7) 0.9504(3) 0.1199(2)
loop_
_geom_bond_atom_site_label_1
_geom_bond_atom_site_label_2
_geom_bond_site_symmetry_1
_geom_bond_site_symmetry_2
N1 H1 1_555 1_555
N2 C1 1_555 1_555
N3 C3 1_555 1_555
N4 C4 1_555 1_555
N5 H2 1_555 1_555
C1 N1 1_555 1_555
H3 C1 1_555 1_555
C2 N2 1_555 1_555
C3 N1 1_555 1_555
C4 N3 1_555 1_555
H4 C4 1_555 1_555
C5 N4 1_555 1_555
C6 N5 1_555 1_555
H5 C6 1_555 1_555
H6 C6 1_555 1_555
C7 C6 1_555 1_555
C8 C7 1_555 1_555
H7 C8 1_555 1_555
C9 C8 1_555 1_555
H8 C9 1_555 1_555
C10 C9 1_555 1_555
H9 C10 1_555 1_555
C11 C10 1_555 1_555
H10 C11 1_555 1_555
C12 C7 1_555 1_555
H11 C12 1_555 1_555
O1 H12 1_555 1_555
O2 C13 1_555 1_555
O3 H13 1_555 1_555
O4 C17 1_555 1_555
O5 C18 1_555 1_555
O6 H14 1_555 1_555
O7 H15 1_555 1_555
C13 O1 1_555 1_555
C14 C13 1_555 1_555
H16 C14 1_555 1_555
H17 C14 1_555 1_555
C15 O7 1_555 1_555
C16 C15 1_555 1_555
H18 C16 1_555 1_555
H19 C16 1_555 1_555
C17 O3 1_555 1_555
C18 O6 1_555 1_555
N5 C5 1_555 1_555
C2 C3 1_555 1_555
C2 C5 1_555 1_555
C11 C12 1_555 1_555
C14 C15 1_555 1_555
C15 C18 1_555 1_555
C16 C17 1_555 1_555

#END
