
#######################################################################
#
#                 Cambridge Crystallographic Data Centre
#                                CCDC 
#
#######################################################################
#
# If this CIF has been generated from an entry in the Cambridge 
# Structural Database, then it will include bibliographic, chemical, 
# crystal, experimental, refinement or atomic coordinate data resulting 
# from the CCDC's data processing and validation procedures.
#
#######################################################################

data_ICUJEX
_chemical_formula_moiety         'C15 H9 N3 O1 S2'
_chemical_name_systematic        
N-(2H-[1,2,4]Thiadiazolo[3,2-b][1,3]benzothiazol-(2E)-2-ylidene)benzamide
_symmetry_cell_setting           monoclinic
_symmetry_space_group_name_H-M   'P 21/c'
_symmetry_Int_Tables_number      14
_space_group_name_Hall           '-P 2ybc'
loop_
_symmetry_equiv_pos_site_id
_symmetry_equiv_pos_as_xyz
1 x,y,z
2 -x,1/2+y,1/2-z
3 -x,-y,-z
4 x,1/2-y,1/2+z
_cell_length_a                   10.115(2)
_cell_length_b                   11.848(2)
_cell_length_c                   12.107(3)
_cell_angle_alpha                90
_cell_angle_beta                 114.616
_cell_angle_gamma                90
_cell_volume                     1319.07
_cell_formula_units_Z            4
loop_
_atom_site_label
_atom_site_type_symbol
_atom_site_fract_x
_atom_site_fract_y
_atom_site_fract_z
S1 S 0.5707(1) 0.3235(1) 0.5575(1)
S2 S 0.4166(1) 0.1151(1) 0.2499(1)
O1 O 0.6947(2) 0.4697(2) 0.6452(2)
N1 N 0.4809(3) 0.2135(2) 0.4556(2)
N2 N 0.5927(3) 0.3002(2) 0.3480(2)
N3 N 0.7257(3) 0.4517(2) 0.4694(2)
C1 C 0.6363(3) 0.3635(3) 0.4487(3)
C2 C 0.5053(4) 0.2187(3) 0.3550(3)
C3 C 0.3441(4) 0.0621(3) 0.3484(3)
C4 C 0.3885(3) 0.1251(3) 0.4553(3)
C5 C 0.3453(4) 0.0982(3) 0.5466(3)
C6 C 0.2540(4) 0.0065(3) 0.5267(3)
C7 C 0.2091(4) -0.0564(3) 0.4206(3)
C8 C 0.2541(4) -0.0300(3) 0.3304(3)
C9 C 0.7498(3) 0.5042(3) 0.5748(3)
C10 C 0.8440(4) 0.6055(3) 0.6077(3)
C11 C 0.8565(4) 0.6714(3) 0.7064(3)
C12 C 0.9450(4) 0.7667(3) 0.7369(3)
C13 C 1.0236(4) 0.7946(3) 0.6711(13)
C14 C 1.0138(4) 0.7279(3) 0.5742(4)
C15 C 0.9234(4) 0.6347(3) 0.5419(3)
loop_
_geom_bond_atom_site_label_1
_geom_bond_atom_site_label_2
_geom_bond_site_symmetry_1
_geom_bond_site_symmetry_2
S1 N1 1_555 1_555
S2 C2 1_555 1_555
O1 C9 1_555 1_555
N1 C2 1_555 1_555
N2 C1 1_555 1_555
N3 C1 1_555 1_555
C1 S1 1_555 1_555
C2 N2 1_555 1_555
C3 S2 1_555 1_555
C4 N1 1_555 1_555
C5 C4 1_555 1_555
C6 C5 1_555 1_555
C7 C6 1_555 1_555
C8 C3 1_555 1_555
C9 N3 1_555 1_555
C10 C9 1_555 1_555
C11 C10 1_555 1_555
C12 C11 1_555 1_555
C13 C12 1_555 1_555
C14 C13 1_555 1_555
C15 C10 1_555 1_555
C3 C4 1_555 1_555
C7 C8 1_555 1_555
C14 C15 1_555 1_555

#END
