
#######################################################################
#
#                 Cambridge Crystallographic Data Centre
#                                CCDC 
#
#######################################################################
#
# If this CIF has been generated from an entry in the Cambridge 
# Structural Database, then it will include bibliographic, chemical, 
# crystal, experimental, refinement or atomic coordinate data resulting 
# from the CCDC's data processing and validation procedures.
#
#######################################################################

data_ICUQUV
_chemical_formula_moiety         'C44 H36'
_chemical_name_systematic        2,12-di-t-butyltetrabenzo[a,fg,l,qr]pentacene
_symmetry_cell_setting           orthorhombic
_symmetry_space_group_name_H-M   'P c a 21'
_symmetry_Int_Tables_number      29
_space_group_name_Hall           'P 2c -2ac'
loop_
_symmetry_equiv_pos_site_id
_symmetry_equiv_pos_as_xyz
1 x,y,z
2 -x,-y,1/2+z
3 1/2+x,-y,z
4 1/2-x,y,1/2+z
_cell_length_a                   22.119(6)
_cell_length_b                   6.2411(16)
_cell_length_c                   21.509(6)
_cell_angle_alpha                90
_cell_angle_beta                 90
_cell_angle_gamma                90
_cell_volume                     2969.25
_exptl_crystal_colour            orange
_exptl_crystal_description       needle
_cell_formula_units_Z            4
loop_
_atom_site_label
_atom_site_type_symbol
_atom_site_fract_x
_atom_site_fract_y
_atom_site_fract_z
C1 C 0.5994(4) 0.7848(16) 0.5617(4)
C2 C 0.5776(5) 0.8244(18) 0.6216(4)
H1 H 0.5506 0.7234 0.6396
C3 C 0.5928(6) 0.9975(15) 0.6550(6)
C4 C 0.6386(5) 1.1356(17) 0.6320(4)
H2 H 0.6528 1.2496 0.6574
C5 C 0.6633(4) 1.1072(15) 0.5723(4)
C6 C 0.7065(4) 1.2564(17) 0.5469(5)
C7 C 0.7227(5) 1.4462(19) 0.5789(5)
H3 H 0.7057 1.4749 0.6186
C8 C 0.7623(4) 1.5869(18) 0.5538(5)
H4 H 0.7704 1.7177 0.5748
C9 C 0.7919(5) 1.5430(17) 0.4966(5)
C10 C 0.8336(4) 1.6932(17) 0.4699(5)
H5 H 0.8405 1.8266 0.4899
C11 C 0.8635(5) 1.6468(19) 0.4159(5)
H6 H 0.8926 1.7429 0.3993
C12 C 0.8499(6) 1.452(2) 0.3857(6)
H7 H 0.8701 1.4206 0.3478
C13 C 0.8108(5) 1.3136(17) 0.4073(4)
H8 H 0.8042 1.1836 0.3853
C14 C 0.7782(4) 1.3528(16) 0.4624(4)
C15 C 0.7324(4) 1.2099(15) 0.4884(4)
C16 C 0.7135(5) 1.0284(16) 0.4554(6)
H9 H 0.7319 1.0000 0.4164
C17 C 0.6701(4) 0.8900(16) 0.4760(4)
C18 C 0.6435(4) 0.9250(18) 0.5367(4)
C19 C 0.6494(5) 0.7052(17) 0.4392(4)
C20 C 0.6713(4) 0.6678(16) 0.3803(4)
H10 H 0.7015 0.7609 0.3645
C21 C 0.6507(5) 0.4952(16) 0.3414(7)
C22 C 0.6104(4) 0.3570(18) 0.3685(4)
H11 H 0.5972 0.2372 0.3449
C23 C 0.5877(5) 0.3812(17) 0.4282(5)
C24 C 0.5411(4) 0.2371(17) 0.4542(4)
C25 C 0.5256(5) 0.0404(17) 0.4231(6)
H12 H 0.5447 0.0065 0.3848
C26 C 0.4851(4) -0.0958(17) 0.4466(5)
H13 H 0.4753 -0.2220 0.4241
C27 C 0.4561(4) -0.0557(19) 0.5053(5)
C28 C 0.4122(5) -0.1969(18) 0.5283(5)
H14 H 0.4030 -0.3244 0.5061
C29 C 0.3828(5) -0.1529(18) 0.5820(5)
H15 H 0.3545 -0.2530 0.5981
C30 C 0.3936(5) 0.0365(19) 0.6140(6)
H16 H 0.3713 0.0701 0.6505
C31 C 0.4387(5) 0.1802(18) 0.5910(5)
H17 H 0.4481 0.3061 0.6139
C32 C 0.4691(4) 0.1379(15) 0.5354(4)
C33 C 0.5150(4) 0.2826(16) 0.5108(4)
C34 C 0.5354(6) 0.4617(18) 0.5451(6)
H18 H 0.5172 0.4889 0.5843
C35 C 0.5805(5) 0.6006(17) 0.5248(4)
C36 C 0.6051(4) 0.5625(19) 0.4645(5)
C37 C 0.5748(6) 1.0290(18) 0.7257(5)
C38 C 0.5202(6) 0.890(2) 0.7389(5)
H19 H 0.4883 0.9218 0.7087
H20 H 0.5316 0.7387 0.7356
H21 H 0.5054 0.9193 0.7810
C39 C 0.6237(6) 0.990(2) 0.7687(7)
H22 H 0.6579 1.0833 0.7584
H23 H 0.6101 1.0206 0.8112
H24 H 0.6364 0.8399 0.7658
C40 C 0.5522(6) 1.264(2) 0.7321(5)
H25 H 0.5191 1.2885 0.7027
H26 H 0.5379 1.2880 0.7746
H27 H 0.5855 1.3622 0.7229
C41 C 0.6750(5) 0.4643(18) 0.2778(6)
C42 C 0.6917(5) 0.231(2) 0.2635(5)
H28 H 0.7074 0.2211 0.2210
H29 H 0.7227 0.1825 0.2929
H30 H 0.6557 0.1407 0.2675
C43 C 0.6204(6) 0.525(2) 0.2321(7)
H31 H 0.6335 0.5079 0.1889
H32 H 0.5860 0.4302 0.2402
H33 H 0.6083 0.6740 0.2393
C44 C 0.7280(5) 0.610(2) 0.2574(6)
H34 H 0.7399 0.5739 0.2148
H35 H 0.7153 0.7602 0.2592
H36 H 0.7625 0.5877 0.2853
loop_
_geom_bond_atom_site_label_1
_geom_bond_atom_site_label_2
_geom_bond_site_symmetry_1
_geom_bond_site_symmetry_2
C1 C2 1_555 1_555
C2 H1 1_555 1_555
C3 C2 1_555 1_555
C4 C3 1_555 1_555
H2 C4 1_555 1_555
C5 C4 1_555 1_555
C6 C5 1_555 1_555
C7 C6 1_555 1_555
H3 C7 1_555 1_555
C8 C7 1_555 1_555
H4 C8 1_555 1_555
C9 C8 1_555 1_555
C10 C9 1_555 1_555
H5 C10 1_555 1_555
C11 C10 1_555 1_555
H6 C11 1_555 1_555
C12 C11 1_555 1_555
H7 C12 1_555 1_555
C13 C12 1_555 1_555
H8 C13 1_555 1_555
C14 C9 1_555 1_555
C15 C6 1_555 1_555
C16 C15 1_555 1_555
H9 C16 1_555 1_555
C17 C16 1_555 1_555
C18 C1 1_555 1_555
C19 C17 1_555 1_555
C20 C19 1_555 1_555
H10 C20 1_555 1_555
C21 C20 1_555 1_555
C22 C21 1_555 1_555
H11 C22 1_555 1_555
C23 C22 1_555 1_555
C24 C23 1_555 1_555
C25 C24 1_555 1_555
H12 C25 1_555 1_555
C26 C25 1_555 1_555
H13 C26 1_555 1_555
C27 C26 1_555 1_555
C28 C27 1_555 1_555
H14 C28 1_555 1_555
C29 C28 1_555 1_555
H15 C29 1_555 1_555
C30 C29 1_555 1_555
H16 C30 1_555 1_555
C31 C30 1_555 1_555
H17 C31 1_555 1_555
C32 C27 1_555 1_555
C33 C24 1_555 1_555
C34 C33 1_555 1_555
H18 C34 1_555 1_555
C35 C1 1_555 1_555
C36 C19 1_555 1_555
C37 C3 1_555 1_555
C38 C37 1_555 1_555
H19 C38 1_555 1_555
H20 C38 1_555 1_555
H21 C38 1_555 1_555
C39 C37 1_555 1_555
H22 C39 1_555 1_555
H23 C39 1_555 1_555
H24 C39 1_555 1_555
C40 C37 1_555 1_555
H25 C40 1_555 1_555
H26 C40 1_555 1_555
H27 C40 1_555 1_555
C41 C21 1_555 1_555
C42 C41 1_555 1_555
H28 C42 1_555 1_555
H29 C42 1_555 1_555
H30 C42 1_555 1_555
C43 C41 1_555 1_555
H31 C43 1_555 1_555
H32 C43 1_555 1_555
H33 C43 1_555 1_555
C44 C41 1_555 1_555
H34 C44 1_555 1_555
H35 C44 1_555 1_555
H36 C44 1_555 1_555
C5 C18 1_555 1_555
C13 C14 1_555 1_555
C14 C15 1_555 1_555
C17 C18 1_555 1_555
C23 C36 1_555 1_555
C31 C32 1_555 1_555
C32 C33 1_555 1_555
C34 C35 1_555 1_555
C35 C36 1_555 1_555

#END
