
#######################################################################
#
#                 Cambridge Crystallographic Data Centre
#                                CCDC 
#
#######################################################################
#
# If this CIF has been generated from an entry in the Cambridge 
# Structural Database, then it will include bibliographic, chemical, 
# crystal, experimental, refinement or atomic coordinate data resulting 
# from the CCDC's data processing and validation procedures.
#
#######################################################################

data_ICUQIJ
_chemical_formula_moiety         'C36 H30 F2'
_chemical_name_systematic        
2,10-di-t-butyl-6,14-difluorodibenzo[fg,qr]pentacene
_symmetry_cell_setting           monoclinic
_symmetry_space_group_name_H-M   'P 21/c'
_symmetry_Int_Tables_number      14
_space_group_name_Hall           '-P 2ybc'
loop_
_symmetry_equiv_pos_site_id
_symmetry_equiv_pos_as_xyz
1 x,y,z
2 -x,1/2+y,1/2-z
3 -x,-y,-z
4 x,1/2-y,1/2+z
_cell_length_a                   25.340(5)
_cell_length_b                   5.8908(12)
_cell_length_c                   16.810(3)
_cell_angle_alpha                90
_cell_angle_beta                 93.285(4)
_cell_angle_gamma                90
_cell_volume                     2505.15
_exptl_crystal_colour            yellow
_exptl_crystal_description       octahedron
_cell_formula_units_Z            4
loop_
_atom_site_label
_atom_site_type_symbol
_atom_site_fract_x
_atom_site_fract_y
_atom_site_fract_z
F1 F 0.16908(7) 1.5622(4) 0.51169(11)
F2 F 0.32175(7) -0.5015(4) 0.97940(10)
C1 C 0.20018(12) 0.5127(6) 0.79521(17)
C2 C 0.15656(12) 0.4943(6) 0.84170(18)
H1 H 0.1558 0.3740 0.8793
C3 C 0.11374(12) 0.6451(6) 0.83551(17)
C4 C 0.11572(12) 0.8190(6) 0.78000(18)
H2 H 0.0870 0.9223 0.7745
C5 C 0.15871(12) 0.8481(6) 0.73154(17)
C6 C 0.16031(12) 1.0346(6) 0.67495(17)
C7 C 0.11958(13) 1.2002(6) 0.66477(18)
H3 H 0.0895 1.1890 0.6957
C8 C 0.12268(13) 1.3765(6) 0.61122(17)
H4 H 0.0953 1.4865 0.6053
C9 C 0.16714(13) 1.3888(6) 0.56604(17)
C10 C 0.20779(13) 1.2372(6) 0.57291(18)
H5 H 0.2375 1.2520 0.5412
C11 C 0.20485(12) 1.0571(6) 0.62831(17)
C12 C 0.24719(13) 0.8996(6) 0.63829(18)
H6 H 0.2769 0.9184 0.6070
C13 C 0.24719(13) 0.7206(6) 0.69129(18)
C14 C 0.20201(12) 0.6922(6) 0.73916(17)
C15 C 0.29181(12) 0.5601(6) 0.70108(17)
C16 C 0.33640(13) 0.5827(6) 0.65680(18)
H7 H 0.3368 0.7002 0.6181
C17 C 0.38065(12) 0.4406(6) 0.66664(18)
C18 C 0.37846(13) 0.2655(6) 0.72127(17)
H8 H 0.4080 0.1671 0.7288
C19 C 0.33395(12) 0.2277(6) 0.76628(18)
C20 C 0.33221(12) 0.0375(6) 0.82193(17)
C21 C 0.37307(13) -0.1249(6) 0.83200(18)
H9 H 0.4035 -0.1102 0.8020
C22 C 0.36982(13) -0.3052(6) 0.88456(18)
H10 H 0.3975 -0.4133 0.8912
C23 C 0.32455(13) -0.3225(6) 0.92732(18)
C24 C 0.28367(13) -0.1733(6) 0.92001(18)
H11 H 0.2536 -0.1918 0.9507
C25 C 0.28656(12) 0.0100(6) 0.86603(17)
C26 C 0.24400(13) 0.1677(6) 0.85567(18)
H12 H 0.2139 0.1471 0.8860
C27 C 0.24450(12) 0.3470(6) 0.80419(18)
C28 C 0.29030(12) 0.3793(6) 0.75690(17)
C29 C 0.06488(12) 0.6124(6) 0.88468(18)
C30 C 0.07947(13) 0.4887(7) 0.96348(18)
H13 H 0.0962 0.3432 0.9522
H14 H 0.1041 0.5824 0.9964
H15 H 0.0474 0.4616 0.9920
C31 C 0.02464(13) 0.4659(7) 0.83473(18)
H16 H 0.0410 0.3209 0.8217
H17 H -0.0064 0.4376 0.8654
H18 H 0.0138 0.5462 0.7854
C32 C 0.03878(14) 0.8389(7) 0.9048(2)
H19 H 0.0291 0.9212 0.8554
H20 H 0.0070 0.8097 0.9336
H21 H 0.0636 0.9305 0.9381
C33 C 0.42878(13) 0.4758(6) 0.61567(18)
C34 C 0.47893(13) 0.3610(7) 0.6530(2)
H22 H 0.4874 0.4255 0.7059
H23 H 0.4728 0.1975 0.6579
H24 H 0.5085 0.3870 0.6190
C35 C 0.44082(14) 0.7309(7) 0.6078(2)
H25 H 0.4489 0.7957 0.6608
H26 H 0.4712 0.7512 0.5750
H27 H 0.4100 0.8082 0.5825
C36 C 0.41603(14) 0.3725(7) 0.53272(19)
H28 H 0.4084 0.2104 0.5382
H29 H 0.3851 0.4493 0.5073
H30 H 0.4464 0.3923 0.4998
loop_
_geom_bond_atom_site_label_1
_geom_bond_atom_site_label_2
_geom_bond_site_symmetry_1
_geom_bond_site_symmetry_2
F1 C9 1_555 1_555
F2 C23 1_555 1_555
C1 C2 1_555 1_555
C2 H1 1_555 1_555
C3 C2 1_555 1_555
C4 C3 1_555 1_555
H2 C4 1_555 1_555
C5 C4 1_555 1_555
C6 C5 1_555 1_555
C7 C6 1_555 1_555
H3 C7 1_555 1_555
C8 C7 1_555 1_555
H4 C8 1_555 1_555
C9 C8 1_555 1_555
C10 C9 1_555 1_555
H5 C10 1_555 1_555
C11 C6 1_555 1_555
C12 C11 1_555 1_555
H6 C12 1_555 1_555
C13 C12 1_555 1_555
C14 C1 1_555 1_555
C15 C13 1_555 1_555
C16 C15 1_555 1_555
H7 C16 1_555 1_555
C17 C16 1_555 1_555
C18 C17 1_555 1_555
H8 C18 1_555 1_555
C19 C18 1_555 1_555
C20 C19 1_555 1_555
C21 C20 1_555 1_555
H9 C21 1_555 1_555
C22 C21 1_555 1_555
H10 C22 1_555 1_555
C23 C22 1_555 1_555
C24 C23 1_555 1_555
H11 C24 1_555 1_555
C25 C20 1_555 1_555
C26 C25 1_555 1_555
H12 C26 1_555 1_555
C27 C1 1_555 1_555
C28 C15 1_555 1_555
C29 C3 1_555 1_555
C30 C29 1_555 1_555
H13 C30 1_555 1_555
H14 C30 1_555 1_555
H15 C30 1_555 1_555
C31 C29 1_555 1_555
H16 C31 1_555 1_555
H17 C31 1_555 1_555
H18 C31 1_555 1_555
C32 C29 1_555 1_555
H19 C32 1_555 1_555
H20 C32 1_555 1_555
H21 C32 1_555 1_555
C33 C17 1_555 1_555
C34 C33 1_555 1_555
H22 C34 1_555 1_555
H23 C34 1_555 1_555
H24 C34 1_555 1_555
C35 C33 1_555 1_555
H25 C35 1_555 1_555
H26 C35 1_555 1_555
H27 C35 1_555 1_555
C36 C33 1_555 1_555
H28 C36 1_555 1_555
H29 C36 1_555 1_555
H30 C36 1_555 1_555
C5 C14 1_555 1_555
C10 C11 1_555 1_555
C13 C14 1_555 1_555
C19 C28 1_555 1_555
C24 C25 1_555 1_555
C26 C27 1_555 1_555
C27 C28 1_555 1_555

#END
