
#######################################################################
#
#                 Cambridge Crystallographic Data Centre
#                                CCDC 
#
#######################################################################
#
# If this CIF has been generated from an entry in the Cambridge 
# Structural Database, then it will include bibliographic, chemical, 
# crystal, experimental, refinement or atomic coordinate data resulting 
# from the CCDC's data processing and validation procedures.
#
#######################################################################

data_ICUQUT
_chemical_formula_moiety         'C12 H12 O2'
_chemical_name_systematic        
2,3-Dimethyl-trans-1,4-diethynylcyclohexa-2,5-diene-1,4-diol
_symmetry_cell_setting           monoclinic
_symmetry_space_group_name_H-M   'P 21/c'
_symmetry_Int_Tables_number      14
_space_group_name_Hall           '-P 2ybc'
loop_
_symmetry_equiv_pos_site_id
_symmetry_equiv_pos_as_xyz
1 x,y,z
2 -x,1/2+y,1/2-z
3 -x,-y,-z
4 x,1/2-y,1/2+z
_cell_length_a                   10.8340(3)
_cell_length_b                   10.2757(2)
_cell_length_c                   9.7859(2)
_cell_angle_alpha                90
_cell_angle_beta                 107.0150(10)
_cell_angle_gamma                90
_cell_volume                     1041.75
_exptl_crystal_colour            colorless
_exptl_crystal_description       Needle
_chemical_melting_point          '399 K'
_cell_formula_units_Z            4
loop_
_atom_site_label
_atom_site_type_symbol
_atom_site_fract_x
_atom_site_fract_y
_atom_site_fract_z
O1 O 0.75565(8) 0.53994(7) 0.07663(7)
O2 O 0.65884(7) 0.18787(7) 0.42368(7)
C1 C 0.60521(10) 0.45607(9) 0.19340(10)
C2 C 0.81959(9) 0.29276(9) 0.33130(10)
C3 C 0.57996(10) 0.33701(10) 0.22881(10)
C4 C 0.74006(10) 0.50668(9) 0.21399(10)
C5 C 0.84551(9) 0.41204(9) 0.29159(10)
C6 C 0.68318(9) 0.23970(9) 0.29630(10)
C7 C 0.67174(10) 0.12635(10) 0.19892(10)
C8 C 0.66475(12) 0.03894(11) 0.11732(12)
C9 C 0.98148(11) 0.46124(11) 0.31688(12)
C10 C 0.92329(11) 0.20039(11) 0.41322(12)
C11 C 0.75902(11) 0.72271(11) 0.37030(12)
C12 C 0.75309(10) 0.62907(10) 0.29725(11)
H1 H 0.5365(12) 0.5182(12) 0.1517(14)
H2 H 0.8911(13) 0.1096(14) 0.4014(14)
H3 H 0.7320(15) 0.4690(16) 0.0226(18)
H4 H 0.4938(13) 0.3051(12) 0.2107(13)
H5 H 0.7643(14) 0.7978(15) 0.4282(16)
H6 H 1.0124(15) 0.4366(14) 0.2390(17)
H7 H 0.9859(15) 0.5581(15) 0.3188(16)
H8 H 1.0026(15) 0.2072(14) 0.3811(16)
H9 H 1.0408(16) 0.4262(16) 0.4068(18)
H10 H 0.9496(14) 0.2249(15) 0.5169(17)
H11 H 0.6588(15) 0.2567(17) 0.4807(18)
H12 H 0.6593(16) -0.0304(15) 0.0556(18)
loop_
_geom_bond_atom_site_label_1
_geom_bond_atom_site_label_2
_geom_bond_site_symmetry_1
_geom_bond_site_symmetry_2
O1 C4 1_555 1_555
O2 C6 1_555 1_555
C1 C3 1_555 1_555
C2 C5 1_555 1_555
C3 C6 1_555 1_555
C4 C1 1_555 1_555
C5 C4 1_555 1_555
C6 C2 1_555 1_555
C7 C6 1_555 1_555
C8 C7 1_555 1_555
C9 C5 1_555 1_555
C10 C2 1_555 1_555
C11 C12 1_555 1_555
C12 C4 1_555 1_555
H1 C1 1_555 1_555
H2 C10 1_555 1_555
H3 O1 1_555 1_555
H4 C3 1_555 1_555
H5 C11 1_555 1_555
H6 C9 1_555 1_555
H7 C9 1_555 1_555
H8 C10 1_555 1_555
H9 C9 1_555 1_555
H10 C10 1_555 1_555
H11 O2 1_555 1_555
H12 C8 1_555 1_555

#END
