
#######################################################################
#
#                 Cambridge Crystallographic Data Centre
#                                CCDC 
#
#######################################################################
#
# If this CIF has been generated from an entry in the Cambridge 
# Structural Database, then it will include bibliographic, chemical, 
# crystal, experimental, refinement or atomic coordinate data resulting 
# from the CCDC's data processing and validation procedures.
#
#######################################################################

data_ICUQON
_chemical_formula_moiety         'C12 H12 O2'
_chemical_name_systematic        
2,5-Dimethyl-trans-1,4-diethynylcyclohexa-2,5-diene-1,4-diol
_symmetry_cell_setting           triclinic
_symmetry_space_group_name_H-M   'P -1'
_symmetry_Int_Tables_number      2
_space_group_name_Hall           '-P 1'
loop_
_symmetry_equiv_pos_site_id
_symmetry_equiv_pos_as_xyz
1 x,y,z
2 -x,-y,-z
_cell_length_a                   6.6905(4)
_cell_length_b                   8.6781(6)
_cell_length_c                   10.1446(7)
_cell_angle_alpha                70.615(3)
_cell_angle_beta                 75.058(3)
_cell_angle_gamma                88.865(3)
_cell_volume                     535.427
_exptl_crystal_colour            colorless
_exptl_crystal_description       Needle
_chemical_melting_point          '445 K'
_cell_formula_units_Z            2
loop_
_atom_site_label
_atom_site_type_symbol
_atom_site_fract_x
_atom_site_fract_y
_atom_site_fract_z
O1 O 0.15390(13) 0.27744(10) 0.19048(9)
C1 C 0.13396(16) 0.36318(13) 0.04525(11)
C2 C -0.08499(16) 0.33374(13) 0.03769(11)
C3 C 0.28211(16) 0.28940(13) -0.04887(11)
C7 C 0.20020(16) 0.54165(13) 0.00299(12)
C9 C 0.40094(18) 0.23071(15) -0.12494(13)
C10 C -0.16514(19) 0.15891(14) 0.08035(14)
H1 H 0.340(2) 0.5623(16) 0.0085(15)
H4 H -0.307(3) 0.150(2) 0.0732(19)
H6 H -0.081(3) 0.101(2) 0.017(2)
H7 H -0.165(3) 0.099(2) 0.181(2)
H8 H 0.497(3) 0.181(2) -0.1812(19)
H12 H 0.058(3) 0.308(2) 0.250(2)
O1A O -0.15390(13) 0.72256(10) -0.19048(9)
C1A C -0.13396(16) 0.63682(13) -0.04525(11)
C2A C 0.08499(16) 0.66626(13) -0.03769(11)
C3A C -0.28211(16) 0.71060(13) 0.04887(11)
C7A C -0.20020(16) 0.45835(13) -0.00299(12)
C9A C -0.40094(18) 0.76929(15) 0.12494(13)
C10A C 0.16514(19) 0.84109(14) -0.08035(14)
H1A H -0.340(2) 0.4377(16) -0.0085(15)
H4A H 0.307(3) 0.850(2) -0.0732(19)
H6A H 0.081(3) 0.899(2) -0.017(2)
H7A H 0.165(3) 0.901(2) -0.181(2)
H8A H -0.497(3) 0.819(2) 0.1812(19)
H12A H -0.058(3) 0.692(2) -0.250(2)
O2 O 0.32575(13) -0.02679(10) 0.30069(9)
C4 C -0.03065(17) -0.12086(13) 0.43567(11)
C5 C 0.26407(16) -0.23439(14) 0.52735(12)
C6 C 0.18506(16) -0.08156(13) 0.44382(11)
C8 C 0.19166(17) 0.04486(13) 0.51462(12)
C11 C -0.0503(2) -0.24636(17) 0.36640(16)
C12 C 0.3200(2) -0.35581(16) 0.60092(14)
H2 H 0.327(2) 0.0684(17) 0.5215(15)
H3 H -0.015(3) -0.355(2) 0.420(2)
H5 H -0.186(3) -0.261(2) 0.363(2)
H9 H 0.041(3) -0.209(2) 0.266(2)
H10 H 0.368(3) -0.450(2) 0.657(2)
H11 H 0.286(3) 0.067(3) 0.254(2)
O2A O -0.32575(13) 0.02679(10) 0.69931(9)
C4A C 0.03065(17) 0.12086(13) 0.56433(11)
C5A C -0.26407(16) 0.23439(14) 0.47265(12)
C6A C -0.18506(16) 0.08156(13) 0.55618(11)
C8A C -0.19166(17) -0.04486(13) 0.48538(12)
C11A C 0.0503(2) 0.24636(17) 0.63360(16)
C12A C -0.3200(2) 0.35581(16) 0.39908(14)
H2A H -0.327(2) -0.0684(17) 0.4785(15)
H3A H 0.015(3) 0.355(2) 0.580(2)
H5A H 0.186(3) 0.261(2) 0.637(2)
H9A H -0.041(3) 0.209(2) 0.734(2)
H10A H -0.368(3) 0.450(2) 0.343(2)
H11A H -0.286(3) -0.067(3) 0.746(2)
loop_
_geom_bond_atom_site_label_1
_geom_bond_atom_site_label_2
_geom_bond_site_symmetry_1
_geom_bond_site_symmetry_2
O1 C1 1_555 1_555
O2 C6 1_555 1_555
C1 C2 1_555 1_555
C2 C10 1_555 1_555
C3 C1 1_555 1_555
C4 C6 1_555 1_555
C5 C6 1_555 1_555
C6 C8 1_555 1_555
C7 C1 1_555 1_555
C8 H2 1_555 1_555
C9 C3 1_555 1_555
C10 H4 1_555 1_555
C11 C4 1_555 1_555
C12 C5 1_555 1_555
H1 C7 1_555 1_555
H3 C11 1_555 1_555
H5 C11 1_555 1_555
H6 C10 1_555 1_555
H7 C10 1_555 1_555
H8 C9 1_555 1_555
H9 C11 1_555 1_555
H10 C12 1_555 1_555
H11 O2 1_555 1_555
H12 O1 1_555 1_555
O1A C1A 1_555 1_555
O2A C6A 1_555 1_555
C1A C2A 1_555 1_555
C2A C7 1_555 1_555
C3A C1A 1_555 1_555
C4A C8 1_555 1_555
C5A C6A 1_555 1_555
C6A C4A 1_555 1_555
C7A C2 1_555 1_555
C8A C4 1_555 1_555
C9A C3A 1_555 1_555
C10A C2A 1_555 1_555
C11A C4A 1_555 1_555
C12A C5A 1_555 1_555
H1A C7A 1_555 1_555
H2A C8A 1_555 1_555
H3A C11A 1_555 1_555
H4A C10A 1_555 1_555
H5A C11A 1_555 1_555
H6A C10A 1_555 1_555
H7A C10A 1_555 1_555
H8A C9A 1_555 1_555
H9A C11A 1_555 1_555
H10A C12A 1_555 1_555
H11A O2A 1_555 1_555
H12A O1A 1_555 1_555
C1A C7A 1_555 1_555
C6A C8A 1_555 1_555

#END
