
#######################################################################
#
#                 Cambridge Crystallographic Data Centre
#                                CCDC 
#
#######################################################################
#
# If this CIF has been generated from an entry in the Cambridge 
# Structural Database, then it will include bibliographic, chemical, 
# crystal, experimental, refinement or atomic coordinate data resulting 
# from the CCDC's data processing and validation procedures.
#
#######################################################################

data_ICUQEF
_chemical_formula_moiety         'C44 H36'
_chemical_name_systematic        2,12-di-t-butyldibenzo[hi,wx]heptacene
_symmetry_cell_setting           triclinic
_symmetry_space_group_name_H-M   'P -1'
_symmetry_Int_Tables_number      2
_space_group_name_Hall           '-P 1'
loop_
_symmetry_equiv_pos_site_id
_symmetry_equiv_pos_as_xyz
1 x,y,z
2 -x,-y,-z
_cell_length_a                   6.0472(16)
_cell_length_b                   9.675(3)
_cell_length_c                   13.478(4)
_cell_angle_alpha                82.367(7)
_cell_angle_beta                 79.563(8)
_cell_angle_gamma                71.879(7)
_cell_volume                     734.57
_exptl_crystal_colour            yellow
_exptl_crystal_description       needle
_cell_formula_units_Z            1
loop_
_atom_site_label
_atom_site_type_symbol
_atom_site_fract_x
_atom_site_fract_y
_atom_site_fract_z
C1 C -0.0389(7) 0.5787(4) 0.4026(3)
C2 C -0.0708(7) 0.6566(4) 0.3090(3)
H1 H -0.2222 0.7214 0.3012
C3 C 0.1069(7) 0.6444(4) 0.2264(3)
C4 C 0.3250(7) 0.5496(4) 0.2399(3)
H2 H 0.4486 0.5389 0.1842
C5 C 0.3729(7) 0.4685(4) 0.3315(3)
C6 C 0.6074(7) 0.3706(4) 0.3422(3)
C7 C 0.7938(7) 0.3448(4) 0.2642(3)
H3 H 0.7693 0.3924 0.1990
C8 C 1.0174(7) 0.2514(4) 0.2770(3)
C9 C 1.2096(7) 0.2268(5) 0.1967(3)
H4 H 1.1859 0.2730 0.1311
C10 C 1.4271(8) 0.1381(5) 0.2118(4)
H5 H 1.5532 0.1232 0.1571
C11 C 1.4651(8) 0.0688(5) 0.3083(4)
H6 H 1.6169 0.0062 0.3179
C12 C 1.2875(7) 0.0900(5) 0.3885(3)
H7 H 1.3175 0.0441 0.4535
C13 C 1.0571(7) 0.1809(4) 0.3750(3)
C14 C 0.8690(7) 0.2066(4) 0.4542(3)
H8 H 0.8937 0.1602 0.5196
C15 C 0.6482(7) 0.2975(4) 0.4403(3)
C16 C 0.4566(7) 0.3202(4) 0.5215(3)
H9 H 0.4866 0.2735 0.5863
C17 C 0.2340(7) 0.4044(4) 0.5120(3)
C18 C 0.1874(7) 0.4835(4) 0.4153(3)
C19 C 0.0643(7) 0.7406(5) 0.1277(3)
C20 C -0.1859(7) 0.7659(5) 0.1059(3)
H10 H -0.2062 0.8243 0.0411
H11 H -0.2996 0.8180 0.1601
H12 H -0.2120 0.6718 0.1025
C21 C 0.0984(8) 0.8890(5) 0.1392(4)
H13 H 0.0685 0.9534 0.0774
H14 H 0.2601 0.8740 0.1505
H15 H -0.0118 0.9338 0.1970
C22 C 0.2355(8) 0.6733(6) 0.0362(3)
H16 H 0.1913 0.7328 -0.0259
H17 H 0.2288 0.5741 0.0328
H18 H 0.3957 0.6698 0.0431
C1A C 0.0389(7) 0.4213(4) 0.5974(3)
C2A C 0.0708(7) 0.3434(4) 0.6910(3)
H1A H 0.2222 0.2786 0.6988
C3A C -0.1069(7) 0.3556(4) 0.7736(3)
C4A C -0.3250(7) 0.4504(4) 0.7601(3)
H2A H -0.4486 0.4611 0.8158
C5A C -0.3729(7) 0.5315(4) 0.6685(3)
C6A C -0.6074(7) 0.6294(4) 0.6578(3)
C7A C -0.7938(7) 0.6552(4) 0.7358(3)
H3A H -0.7693 0.6076 0.8010
C8A C -1.0174(7) 0.7486(4) 0.7230(3)
C9A C -1.2096(7) 0.7732(5) 0.8033(3)
H4A H -1.1859 0.7270 0.8689
C10A C -1.4271(8) 0.8619(5) 0.7882(4)
H5A H -1.5532 0.8768 0.8429
C11A C -1.4651(8) 0.9312(5) 0.6917(4)
H6A H -1.6169 0.9938 0.6821
C12A C -1.2875(7) 0.9100(5) 0.6115(3)
H7A H -1.3175 0.9559 0.5465
C13A C -1.0571(7) 0.8191(4) 0.6250(3)
C14A C -0.8690(7) 0.7934(4) 0.5458(3)
H8A H -0.8937 0.8398 0.4804
C15A C -0.6482(7) 0.7025(4) 0.5597(3)
C16A C -0.4566(7) 0.6798(4) 0.4785(3)
H9A H -0.4866 0.7265 0.4137
C17A C -0.2340(7) 0.5956(4) 0.4880(3)
C18A C -0.1874(7) 0.5165(4) 0.5847(3)
C19A C -0.0643(7) 0.2594(5) 0.8723(3)
C20A C 0.1859(7) 0.2341(5) 0.8941(3)
H10A H 0.2062 0.1757 0.9589
H11A H 0.2996 0.1820 0.8399
H12A H 0.2120 0.3282 0.8975
C21A C -0.0984(8) 0.1110(5) 0.8608(4)
H13A H -0.0685 0.0466 0.9226
H14A H -0.2601 0.1260 0.8495
H15A H 0.0118 0.0662 0.8030
C22A C -0.2355(8) 0.3267(6) 0.9638(3)
H16A H -0.1913 0.2672 1.0259
H17A H -0.2288 0.4259 0.9672
H18A H -0.3957 0.3302 0.9569
loop_
_geom_bond_atom_site_label_1
_geom_bond_atom_site_label_2
_geom_bond_site_symmetry_1
_geom_bond_site_symmetry_2
C1 C2 1_555 1_555
C2 H1 1_555 1_555
C3 C2 1_555 1_555
C4 C3 1_555 1_555
H2 C4 1_555 1_555
C5 C4 1_555 1_555
C6 C5 1_555 1_555
C7 C6 1_555 1_555
H3 C7 1_555 1_555
C8 C7 1_555 1_555
C9 C8 1_555 1_555
H4 C9 1_555 1_555
C10 C9 1_555 1_555
H5 C10 1_555 1_555
C11 C10 1_555 1_555
H6 C11 1_555 1_555
C12 C11 1_555 1_555
H7 C12 1_555 1_555
C13 C8 1_555 1_555
C14 C13 1_555 1_555
H8 C14 1_555 1_555
C15 C6 1_555 1_555
C16 C15 1_555 1_555
H9 C16 1_555 1_555
C17 C16 1_555 1_555
C18 C1 1_555 1_555
C19 C3 1_555 1_555
C20 C19 1_555 1_555
H10 C20 1_555 1_555
H11 C20 1_555 1_555
H12 C20 1_555 1_555
C21 C19 1_555 1_555
H13 C21 1_555 1_555
H14 C21 1_555 1_555
H15 C21 1_555 1_555
C22 C19 1_555 1_555
H16 C22 1_555 1_555
H17 C22 1_555 1_555
H18 C22 1_555 1_555
C1A C17 1_555 1_555
C2A C1A 1_555 1_555
H1A C2A 1_555 1_555
C3A C2A 1_555 1_555
C4A C3A 1_555 1_555
H2A C4A 1_555 1_555
C5A C4A 1_555 1_555
C6A C5A 1_555 1_555
C7A C6A 1_555 1_555
H3A C7A 1_555 1_555
C8A C7A 1_555 1_555
C9A C8A 1_555 1_555
H4A C9A 1_555 1_555
C10A C9A 1_555 1_555
H5A C10A 1_555 1_555
C11A C10A 1_555 1_555
H6A C11A 1_555 1_555
C12A C11A 1_555 1_555
H7A C12A 1_555 1_555
C13A C8A 1_555 1_555
C14A C13A 1_555 1_555
H8A C14A 1_555 1_555
C15A C6A 1_555 1_555
C16A C15A 1_555 1_555
H9A C16A 1_555 1_555
C17A C1 1_555 1_555
C18A C1A 1_555 1_555
C19A C3A 1_555 1_555
C20A C19A 1_555 1_555
H10A C20A 1_555 1_555
H11A C20A 1_555 1_555
H12A C20A 1_555 1_555
C21A C19A 1_555 1_555
H13A C21A 1_555 1_555
H14A C21A 1_555 1_555
H15A C21A 1_555 1_555
C22A C19A 1_555 1_555
H16A C22A 1_555 1_555
H17A C22A 1_555 1_555
H18A C22A 1_555 1_555
C5 C18 1_555 1_555
C12 C13 1_555 1_555
C14 C15 1_555 1_555
C17 C18 1_555 1_555
C5A C18A 1_555 1_555
C12A C13A 1_555 1_555
C14A C15A 1_555 1_555
C16A C17A 1_555 1_555
C17A C18A 1_555 1_555

#END
