
#######################################################################
#
#                 Cambridge Crystallographic Data Centre
#                                CCDC 
#
#######################################################################
#
# If this CIF has been generated from an entry in the Cambridge 
# Structural Database, then it will include bibliographic, chemical, 
# crystal, experimental, refinement or atomic coordinate data resulting 
# from the CCDC's data processing and validation procedures.
#
#######################################################################

data_ICURUU
_chemical_formula_moiety         'C16 H14 O2'
_chemical_name_systematic        
6,7-Dimethyl-trans-1,4-diethynyl-1,4-dihydroxy-1,4-dihydronaphthalene
_symmetry_cell_setting           monoclinic
_symmetry_space_group_name_H-M   'P 21/c'
_symmetry_Int_Tables_number      14
_space_group_name_Hall           '-P 2ybc'
loop_
_symmetry_equiv_pos_site_id
_symmetry_equiv_pos_as_xyz
1 x,y,z
2 -x,1/2+y,1/2-z
3 -x,-y,-z
4 x,1/2-y,1/2+z
_cell_length_a                   12.9015(4)
_cell_length_b                   10.4113(3)
_cell_length_c                   9.7922(3)
_cell_angle_alpha                90
_cell_angle_beta                 100.7680(10)
_cell_angle_gamma                90
_cell_volume                     1292.14
_exptl_crystal_colour            colorless
_exptl_crystal_description       block
_chemical_melting_point          '443 K'
_cell_formula_units_Z            4
loop_
_atom_site_label
_atom_site_type_symbol
_atom_site_fract_x
_atom_site_fract_y
_atom_site_fract_z
O1 O 0.20536(6) 0.53933(8) 0.04263(8)
H1 H 0.1889(12) 0.4650(17) -0.0035(17)
O2 O 0.13233(6) 0.19110(8) 0.41227(8)
H2 H 0.1338(13) 0.2583(18) 0.4691(18)
C1 C 0.19473(8) 0.51088(9) 0.18386(10)
C2 C 0.15493(8) 0.24240(9) 0.28333(9)
C3 C 0.08627(8) 0.45506(10) 0.18313(10)
H3 H 0.0279(11) 0.5133(15) 0.1457(15)
C4 C 0.06880(8) 0.33727(10) 0.22506(10)
H4 H -0.0026(12) 0.3041(14) 0.2193(14)
C5 C 0.28381(8) 0.42230(10) 0.25403(10)
C6 C 0.38830(8) 0.46643(10) 0.27038(11)
H5 H 0.4001(11) 0.5507(14) 0.2310(14)
C7 C 0.47336(8) 0.39607(11) 0.34133(11)
C8 C 0.45331(8) 0.27755(11) 0.40127(11)
C9 C 0.35027(8) 0.23122(10) 0.37992(11)
H6 H 0.3352(11) 0.1470(14) 0.4194(14)
C10 C 0.26517(8) 0.30164(10) 0.30577(10)
C11 C 0.54089(9) 0.20391(13) 0.49244(13)
H7 H 0.6000(14) 0.1924(17) 0.4444(18)
H8 H 0.5156(15) 0.1202(18) 0.5170(19)
H9 H 0.5654(13) 0.2493(17) 0.5775(17)
C12 C 0.58456(9) 0.44756(13) 0.35546(13)
H10 H 0.5844(12) 0.5339(16) 0.3122(17)
H11 H 0.6189(13) 0.4526(16) 0.4536(18)
H12 H 0.6261(13) 0.3900(16) 0.3099(17)
C13 C 0.20218(8) 0.63362(9) 0.26016(11)
C14 C 0.20527(9) 0.72810(12) 0.33037(14)
H13 H 0.2082(13) 0.8024(18) 0.3858(18)
C15 C 0.14929(8) 0.13098(9) 0.18905(10)
C16 C 0.14436(10) 0.04288(12) 0.10936(13)
H14 H 0.1405(14) -0.0279(18) 0.0509(18)
loop_
_geom_bond_atom_site_label_1
_geom_bond_atom_site_label_2
_geom_bond_site_symmetry_1
_geom_bond_site_symmetry_2
O1 H1 1_555 1_555
O2 H2 1_555 1_555
C1 O1 1_555 1_555
C2 O2 1_555 1_555
C3 C1 1_555 1_555
H3 C3 1_555 1_555
C4 C2 1_555 1_555
H4 C4 1_555 1_555
C5 C1 1_555 1_555
C6 C5 1_555 1_555
H5 C6 1_555 1_555
C7 C6 1_555 1_555
C8 C7 1_555 1_555
C9 C8 1_555 1_555
H6 C9 1_555 1_555
C10 C2 1_555 1_555
C11 C8 1_555 1_555
H7 C11 1_555 1_555
H8 C11 1_555 1_555
H9 C11 1_555 1_555
C12 C7 1_555 1_555
H10 C12 1_555 1_555
H11 C12 1_555 1_555
H12 C12 1_555 1_555
C13 C1 1_555 1_555
C14 C13 1_555 1_555
H13 C14 1_555 1_555
C15 C2 1_555 1_555
C16 C15 1_555 1_555
H14 C16 1_555 1_555
C3 C4 1_555 1_555
C5 C10 1_555 1_555
C9 C10 1_555 1_555

#END
