
#######################################################################
#
#                 Cambridge Crystallographic Data Centre
#                                CCDC 
#
#######################################################################
#
# If this CIF has been generated from an entry in the Cambridge 
# Structural Database, then it will include bibliographic, chemical, 
# crystal, experimental, refinement or atomic coordinate data resulting 
# from the CCDC's data processing and validation procedures.
#
#######################################################################

data_ICURUT
_chemical_formula_moiety         'C23 H19 B1 N2 O2'
_chemical_name_systematic        
(1-(7-Azaindol-1-yl)butane-1,3-dionato-O,O')-diphenyl-boron
_symmetry_cell_setting           monoclinic
_symmetry_space_group_name_H-M   'P 21/c'
_symmetry_Int_Tables_number      14
_space_group_name_Hall           '-P 2ybc'
loop_
_symmetry_equiv_pos_site_id
_symmetry_equiv_pos_as_xyz
1 x,y,z
2 x,1/2-y,1/2+z
3 -x,-y,-z
4 -x,1/2+y,1/2-z
_cell_length_a                   9.978(3)
_cell_length_b                   13.283(5)
_cell_length_c                   14.457(4)
_cell_angle_alpha                90.00
_cell_angle_beta                 96.85(2)
_cell_angle_gamma                90.00
_cell_volume                     1902.42
_exptl_crystal_colour            colorless
_chemical_melting_point          '180-182 deg.C'
_cell_formula_units_Z            4
_exptl_crystal_recrystallization_method dichloromethane/hexanes
loop_
_atom_site_label
_atom_site_type_symbol
_atom_site_fract_x
_atom_site_fract_y
_atom_site_fract_z
O1 O 0.06508(15) 0.79053(11) 0.12705(10)
O2 O 0.30184(15) 0.73487(13) 0.13548(11)
N1 N -0.09706(18) 0.72608(14) 0.02394(12)
C1 C 0.0353(2) 0.72219(17) 0.06478(15)
C2 C -0.1584(2) 0.67363(17) -0.05493(15)
C3 C 0.2467(2) 0.89169(17) 0.22307(15)
C4 C 0.2630(2) 0.66824(18) 0.07265(16)
C5 C -0.1943(3) 0.79006(19) 0.05381(18)
H1 H -0.1795 0.8341 0.1040
N2 N -0.0983(2) 0.60731(16) -0.10339(14)
C6 C 0.1295(2) 0.65436(18) 0.03918(16)
H2 H 0.1030 0.6005 0.0001
C7 C -0.2928(3) 0.70636(19) -0.07081(18)
C8 C 0.1743(2) 0.70500(16) 0.27604(15)
C9 C 0.0479(3) 0.67852(19) 0.29946(17)
H3 H -0.0283 0.7056 0.2651
C10 C -0.3114(3) 0.7788(2) 0.0000(2)
H4 H -0.3914 0.8122 0.0071
B1 B 0.1982(3) 0.7806(2) 0.19300(18)
C11 C 0.0311(3) 0.6135(2) 0.37168(18)
H5 H -0.0553 0.5968 0.3845
C12 C 0.3735(3) 0.6107(2) 0.0363(2)
H6 H 0.4588 0.6313 0.0685
H7 H 0.3723 0.6236 -0.0292
H8 H 0.3607 0.5400 0.0460
C13 C 0.1976(3) 0.94024(19) 0.29609(18)
H9 H 0.1382 0.9062 0.3300
C14 C 0.2836(3) 0.6625(2) 0.33068(19)
H10 H 0.3703 0.6782 0.3177
C15 C 0.3343(3) 0.9466(2) 0.1752(2)
H11 H 0.3702 0.9168 0.1255
C16 C 0.3204(3) 1.0898(2) 0.2726(2)
H12 H 0.3455 1.1553 0.2894
C17 C -0.1777(3) 0.5694(2) -0.17708(19)
H13 H -0.1404 0.5223 -0.2142
C18 C 0.2337(4) 1.0382(2) 0.3209(2)
H14 H 0.1986 1.0687 0.3706
C19 C 0.1416(3) 0.5736(2) 0.42454(19)
H15 H 0.1307 0.5306 0.4739
C20 C -0.3715(3) 0.6640(2) -0.1471(2)
H16 H -0.4619 0.6812 -0.1614
C21 C -0.3109(3) 0.5961(2) -0.2007(2)
H17 H -0.3600 0.5680 -0.2531
C22 C 0.3697(3) 1.0446(2) 0.1995(2)
H18 H 0.4278 1.0798 0.1654
C23 C 0.2684(3) 0.5978(2) 0.4038(2)
H19 H 0.3441 0.5707 0.4388
loop_
_geom_bond_atom_site_label_1
_geom_bond_atom_site_label_2
_geom_bond_site_symmetry_1
_geom_bond_site_symmetry_2
O1 C1 1_555 1_555
O2 C4 1_555 1_555
N1 C1 1_555 1_555
C1 C6 1_555 1_555
C2 N1 1_555 1_555
C3 B1 1_555 1_555
C4 C6 1_555 1_555
C5 N1 1_555 1_555
H1 C5 1_555 1_555
N2 C2 1_555 1_555
C6 H2 1_555 1_555
C7 C2 1_555 1_555
C8 C9 1_555 1_555
C9 H3 1_555 1_555
C10 C5 1_555 1_555
H4 C10 1_555 1_555
B1 O1 1_555 1_555
C11 C9 1_555 1_555
H5 C11 1_555 1_555
C12 C4 1_555 1_555
H6 C12 1_555 1_555
H7 C12 1_555 1_555
H8 C12 1_555 1_555
C13 C3 1_555 1_555
H9 C13 1_555 1_555
C14 C8 1_555 1_555
H10 C14 1_555 1_555
C15 C3 1_555 1_555
H11 C15 1_555 1_555
C16 H12 1_555 1_555
C17 N2 1_555 1_555
H13 C17 1_555 1_555
C18 C13 1_555 1_555
H14 C18 1_555 1_555
C19 C11 1_555 1_555
H15 C19 1_555 1_555
C20 C7 1_555 1_555
H16 C20 1_555 1_555
C21 C17 1_555 1_555
H17 C21 1_555 1_555
C22 C15 1_555 1_555
H18 C22 1_555 1_555
C23 C14 1_555 1_555
H19 C23 1_555 1_555
O2 B1 1_555 1_555
C7 C10 1_555 1_555
C8 B1 1_555 1_555
C16 C18 1_555 1_555
C16 C22 1_555 1_555
C19 C23 1_555 1_555
C20 C21 1_555 1_555

#END
