
#######################################################################
#
#                 Cambridge Crystallographic Data Centre
#                                CCDC 
#
#######################################################################
#
# If this CIF has been generated from an entry in the Cambridge 
# Structural Database, then it will include bibliographic, chemical, 
# crystal, experimental, refinement or atomic coordinate data resulting 
# from the CCDC's data processing and validation procedures.
#
#######################################################################

data_ICURII
_chemical_formula_moiety         'C16 H14 O2'
_chemical_name_systematic        
2,3-Dimethyl-trans-1,4-diethynyl-1,4-dihydronaphthalene-1,4-diol
_symmetry_cell_setting           triclinic
_symmetry_space_group_name_H-M   'P -1'
_symmetry_Int_Tables_number      2
_space_group_name_Hall           '-P 1'
loop_
_symmetry_equiv_pos_site_id
_symmetry_equiv_pos_as_xyz
1 x,y,z
2 -x,-y,-z
_cell_length_a                   8.4194(3)
_cell_length_b                   8.7817(3)
_cell_length_c                   10.3302(4)
_cell_angle_alpha                114.0800(10)
_cell_angle_beta                 102.774(2)
_cell_angle_gamma                99.085(2)
_cell_volume                     653.118
_exptl_crystal_colour            colorless
_exptl_crystal_description       Plate
_chemical_melting_point          '435 K'
_cell_formula_units_Z            2
loop_
_atom_site_label
_atom_site_type_symbol
_atom_site_fract_x
_atom_site_fract_y
_atom_site_fract_z
O1 O -0.20200(18) -0.31750(16) 0.30771(13)
H1 H -0.184(4) -0.280(4) 0.249(3)
C1 C -0.1274(2) -0.1672(2) 0.45476(17)
C2 C 0.0614(2) -0.1414(2) 0.50803(17)
C3 C 0.1165(3) -0.2876(3) 0.5138(2)
H2 H 0.0394 -0.3985 0.4819
C4 C 0.2749(6) -0.2565(6) 0.5636(5)
H5 H 0.3177 -0.3476 0.5707
C5 C 0.3925(5) -0.0989(6) 0.6090(5)
H6 H 0.5091 -0.0911 0.6449
C6 C 0.3570(3) 0.0330(3) 0.6069(2)
H7 H 0.4418 0.1397 0.6404
C7 C -0.1778(2) -0.0120(2) 0.44939(17)
C8 C -0.2046(3) -0.2182(2) 0.55266(19)
C9 C -0.2672(3) -0.2619(3) 0.6284(2)
H10 H -0.319(3) -0.301(3) 0.684(3)
O1A O 0.20200(18) 0.31750(16) 0.69229(13)
H1A H 0.184(4) 0.280(4) 0.751(3)
C1A C 0.1274(2) 0.1672(2) 0.54524(17)
C2A C -0.0614(2) 0.1414(2) 0.49197(17)
C3A C -0.1165(3) 0.2876(3) 0.4862(2)
H2A H -0.0394 0.3985 0.5181
C4A C -0.2749(6) 0.2565(6) 0.4364(5)
H5A H -0.3177 0.3476 0.4293
C5A C -0.3925(5) 0.0989(6) 0.3910(5)
H6A H -0.5091 0.0911 0.3551
C6A C -0.3570(3) -0.0330(3) 0.3931(2)
H7A H -0.4418 -0.1397 0.3596
C7A C 0.1778(2) 0.0120(2) 0.55061(17)
C8A C 0.2046(3) 0.2182(2) 0.44734(19)
C9A C 0.2672(3) 0.2619(3) 0.3716(2)
H10A H 0.319(3) 0.301(3) 0.316(3)
O2 O 0.50775(17) 0.58010(18) 0.77804(13)
H11 H 0.419(4) 0.491(4) 0.732(3)
C10 C 0.5653(2) 0.6052(2) 0.92938(17)
C11 C 0.4276(2) 0.6401(2) 1.00130(18)
C12 C 0.3573(3) 0.7787(3) 0.9962(2)
H12 H 0.3896 0.8433 0.9457
C13 C 0.2490(5) 0.8064(5) 1.0650(5)
H15 H 0.2010 0.8984 1.0686
C14 C 0.1930(5) 0.7108(5) 1.1357(5)
H16 H 0.1119 0.7446 1.1845
C15 C 0.2426(3) 0.5863(3) 1.1400(2)
H17 H 0.2001 0.5225 1.1875
C16 C 0.6298(2) 0.4540(2) 0.93203(17)
C17 C 0.7124(2) 0.7650(2) 1.01132(19)
C18 C 0.8310(3) 0.8893(3) 1.0837(2)
H20 H 0.926(3) 0.991(4) 1.143(3)
O2A O 0.49225(17) 0.41990(18) 1.22196(13)
H11A H 0.581(4) 0.509(4) 1.268(3)
C10A C 0.4347(2) 0.3948(2) 1.07062(17)
C11A C 0.5724(2) 0.3599(2) 0.99870(18)
C12A C 0.6427(3) 0.2213(3) 1.0038(2)
H12A H 0.6104 0.1567 1.0543
C13A C 0.7510(5) 0.1936(5) 0.9350(5)
H15A H 0.7990 0.1016 0.9314
C14A C 0.8070(5) 0.2892(5) 0.8643(5)
H16A H 0.8881 0.2554 0.8155
C15A C 0.7574(3) 0.4137(3) 0.8600(2)
H17A H 0.7999 0.4775 0.8125
C16A C 0.3702(2) 0.5460(2) 1.06797(17)
C17A C 0.2876(2) 0.2350(2) 0.98868(19)
C18A C 0.1690(3) 0.1107(3) 0.9163(2)
H20A H 0.074(3) 0.009(4) 0.857(3)
H3? H 0.1823 -0.2489 0.6157
H4? H 0.1934 -0.3086 0.4565
H8? H 0.3845 -0.0555 0.5302
H9? H 0.3724 0.0060 0.6893
H13? H 0.3788 0.8621 1.0980
H14? H 0.2366 0.7297 0.9536
H18? H 0.1462 0.5804 1.0664
H19? H 0.2869 0.7056 1.2145
loop_
_geom_bond_atom_site_label_1
_geom_bond_atom_site_label_2
_geom_bond_site_symmetry_1
_geom_bond_site_symmetry_2
O1 H1 1_555 1_555
C1 O1 1_555 1_555
C2 C1 1_555 1_555
C3 C2 1_555 1_555
H2 C3 1_555 1_555
C4 C3 1_555 1_555
H5 C4 1_555 1_555
C5 C4 1_555 1_555
H6 C5 1_555 1_555
C6 C5 1_555 1_555
H7 C6 1_555 1_555
C7 C1 1_555 1_555
C8 C1 1_555 1_555
C9 C8 1_555 1_555
H10 C9 1_555 1_555
O2 H11 1_555 1_555
C10 O2 1_555 1_555
C11 C10 1_555 1_555
C12 C11 1_555 1_555
H12 C12 1_555 1_555
C13 C12 1_555 1_555
H15 C13 1_555 1_555
C14 C13 1_555 1_555
H16 C14 1_555 1_555
C15 C14 1_555 1_555
H17 C15 1_555 1_555
C16 C10 1_555 1_555
C17 C10 1_555 1_555
C18 C17 1_555 1_555
H20 C18 1_555 1_555
O1A H1A 1_555 1_555
C1A O1A 1_555 1_555
C2A C7 1_555 1_555
C3A C2A 1_555 1_555
H2A C3A 1_555 1_555
C4A C3A 1_555 1_555
H5A C4A 1_555 1_555
C5A C4A 1_555 1_555
H6A C5A 1_555 1_555
C6A C7 1_555 1_555
H7A C6A 1_555 1_555
C7A C2 1_555 1_555
C8A C1A 1_555 1_555
C9A C8A 1_555 1_555
H10A C9A 1_555 1_555
O2A H11A 1_555 1_555
C10A O2A 1_555 1_555
C11A C16 1_555 1_555
C12A C11A 1_555 1_555
H12A C12A 1_555 1_555
C13A C12A 1_555 1_555
H15A C13A 1_555 1_555
C14A C13A 1_555 1_555
H16A C14A 1_555 1_555
C15A C16 1_555 1_555
H17A C15A 1_555 1_555
C16A C11 1_555 1_555
C17A C10A 1_555 1_555
C18A C17A 1_555 1_555
H20A C18A 1_555 1_555
C6 C7A 1_555 1_555
C15 C16A 1_555 1_555
C1A C2A 1_555 1_555
C1A C7A 1_555 1_555
C5A C6A 1_555 1_555
C10A C11A 1_555 1_555
C10A C16A 1_555 1_555
C14A C15A 1_555 1_555

#END
