
#######################################################################
#
#                 Cambridge Crystallographic Data Centre
#                                CCDC 
#
#######################################################################
#
# If this CIF has been generated from an entry in the Cambridge 
# Structural Database, then it will include bibliographic, chemical, 
# crystal, experimental, refinement or atomic coordinate data resulting 
# from the CCDC's data processing and validation procedures.
#
#######################################################################

data_ICUROO
_chemical_formula_moiety         'C14 H8 Cl2 O2'
_chemical_name_systematic        
2,3-Dichloro-trans-1,4-diethynyl-1,4-dihydronaphthalene-1,4-diol
_symmetry_cell_setting           monoclinic
_symmetry_space_group_name_H-M   'P 21/c'
_symmetry_Int_Tables_number      14
_space_group_name_Hall           '-P 2ybc'
loop_
_symmetry_equiv_pos_site_id
_symmetry_equiv_pos_as_xyz
1 x,y,z
2 -x,1/2+y,1/2-z
3 -x,-y,-z
4 x,1/2-y,1/2+z
_cell_length_a                   7.4303(2)
_cell_length_b                   23.2596(5)
_cell_length_c                   7.5476(2)
_cell_angle_alpha                90
_cell_angle_beta                 110.6130(10)
_cell_angle_gamma                90
_cell_volume                     1220.91
_exptl_crystal_colour            colorless
_exptl_crystal_description       Cube
_chemical_melting_point          '460 K'
_cell_formula_units_Z            4
loop_
_atom_site_label
_atom_site_type_symbol
_atom_site_fract_x
_atom_site_fract_y
_atom_site_fract_z
Cl1 Cl 0.74973(4) 0.669728(12) 0.68424(4)
Cl2 Cl 0.60216(4) 0.701379(13) 0.25121(4)
O1 O 0.39013(13) 0.65684(4) 0.78250(12)
O2 O 0.29282(13) 0.60797(4) 0.07385(12)
C1 C 0.26631(16) 0.64720(5) 0.20815(16)
C2 C 0.40127(16) 0.62096(5) 0.63049(15)
C3 C 0.46072(16) 0.66414(5) 0.35052(16)
C4 C 0.20038(16) 0.60610(5) 0.49401(16)
C5 C 0.52230(16) 0.65135(5) 0.53395(16)
C6 C 0.14088(16) 0.61670(5) 0.30060(16)
C7 C 0.07385(18) 0.57959(5) 0.56948(17)
C8 C 0.50000(17) 0.56742(5) 0.71985(16)
C9 C -0.04284(18) 0.59921(5) 0.18291(17)
C10 C -0.10791(18) 0.56314(5) 0.45237(18)
C11 C 0.16535(17) 0.70011(5) 0.11206(17)
C12 C 0.57674(19) 0.52347(6) 0.78254(19)
C13 C -0.16590(18) 0.57243(5) 0.25824(19)
C14 C 0.08106(18) 0.74175(6) 0.03455(19)
H1 H 0.115(2) 0.5727(7) 0.705(2)
H2 H -0.193(2) 0.5453(7) 0.504(2)
H3 H -0.292(2) 0.5620(7) 0.177(2)
H4 H 0.638(3) 0.4879(8) 0.835(3)
H5 H -0.082(2) 0.6064(7) 0.048(2)
H6 H 0.332(3) 0.6250(8) 0.003(3)
H7 H 0.341(3) 0.6857(8) 0.739(3)
H8 H 0.010(3) 0.7737(8) -0.027(3)
loop_
_geom_bond_atom_site_label_1
_geom_bond_atom_site_label_2
_geom_bond_site_symmetry_1
_geom_bond_site_symmetry_2
Cl1 C5 1_555 1_555
Cl2 C3 1_555 1_555
O1 C2 1_555 1_555
O2 C1 1_555 1_555
C1 C3 1_555 1_555
C2 C4 1_555 1_555
C3 C5 1_555 1_555
C4 C6 1_555 1_555
C5 C2 1_555 1_555
C6 C1 1_555 1_555
C7 C4 1_555 1_555
C8 C2 1_555 1_555
C9 C6 1_555 1_555
C10 C7 1_555 1_555
C11 C1 1_555 1_555
C12 C8 1_555 1_555
C13 C9 1_555 1_555
C14 C11 1_555 1_555
H1 C7 1_555 1_555
H2 C10 1_555 1_555
H3 C13 1_555 1_555
H4 C12 1_555 1_555
H5 C9 1_555 1_555
H6 O2 1_555 1_555
H7 O1 1_555 1_555
H8 C14 1_555 1_555
C10 C13 1_555 1_555

#END
