
#######################################################################
#
#                 Cambridge Crystallographic Data Centre
#                                CCDC 
#
#######################################################################
#
# If this CIF has been generated from an entry in the Cambridge 
# Structural Database, then it will include bibliographic, chemical, 
# crystal, experimental, refinement or atomic coordinate data resulting 
# from the CCDC's data processing and validation procedures.
#
#######################################################################

data_ICUSUV
_chemical_formula_moiety         'C19 H14 O2'
_chemical_name_systematic        
2-Methyl-trans-9,10-diethynyl-9,10-dihydroxy-9,10-dihydroanthracene
_symmetry_cell_setting           monoclinic
_symmetry_space_group_name_H-M   'P 21/c'
_symmetry_Int_Tables_number      14
_space_group_name_Hall           '-P 2ybc'
loop_
_symmetry_equiv_pos_site_id
_symmetry_equiv_pos_as_xyz
1 x,y,z
2 -x,1/2+y,1/2-z
3 -x,-y,-z
4 x,1/2-y,1/2+z
_cell_length_a                   10.387(2)
_cell_length_b                   29.695(6)
_cell_length_c                   10.826(2)
_cell_angle_alpha                90
_cell_angle_beta                 118.15(3)
_cell_angle_gamma                90
_cell_volume                     2944.22
_exptl_crystal_colour            orange
_exptl_crystal_description       Plate
_chemical_melting_point          '500 K'
_cell_formula_units_Z            8
loop_
_atom_site_label
_atom_site_type_symbol
_atom_site_fract_x
_atom_site_fract_y
_atom_site_fract_z
O1 O 0.9896(2) 0.64797(8) 1.1605(3)
O2 O 0.4744(2) 0.60132(9) 0.8032(3)
C1 C 0.6374(3) 0.66225(11) 0.9181(3)
C2 C 0.7747(3) 0.66662(11) 0.9450(3)
C5 C 0.6900(4) 0.58209(12) 1.0171(4)
C6 C 0.5807(3) 0.61888(12) 0.9438(3)
C7 C 0.8845(3) 0.63041(12) 1.0195(3)
C11 C 0.5453(4) 0.69866(13) 0.8566(4)
C14 C 0.8280(3) 0.58643(12) 1.0454(4)
C17 C 0.8169(4) 0.70673(13) 0.9061(4)
C18 C 0.9615(4) 0.62192(13) 0.9359(4)
C19 C 0.9193(4) 0.55007(13) 1.1058(4)
C25 C 0.5046(4) 0.62682(14) 1.0292(4)
C27 C 0.5882(4) 0.73790(13) 0.8209(4)
C29 C 0.7253(4) 0.74234(13) 0.8425(4)
C31 C 0.6459(5) 0.54203(15) 1.0535(5)
C32 C 0.4441(5) 0.63303(17) 1.0967(5)
C34 C 0.7369(5) 0.50634(16) 1.1136(6)
C35 C 0.8753(5) 0.51047(14) 1.1370(5)
C36 C 1.0233(5) 0.61494(17) 0.8708(5)
C38 C 0.7704(6) 0.78371(16) 0.7939(6)
H5 H 0.6896 0.8042 0.7528
H6 H 0.8003 0.7755 0.7254
H7 H 0.8503 0.7979 0.8722
H12 H 0.912(4) 0.7085(13) 0.920(4)
H13 H 0.948(4) 0.4843(14) 1.171(4)
H14 H 1.014(5) 0.5542(14) 1.113(5)
H15 H 0.499(5) 0.6009(14) 0.747(5)
H16 H 0.452(4) 0.6948(13) 0.829(4)
H17 H 0.522(4) 0.7653(13) 0.777(4)
H18 H 1.062(5) 0.6093(16) 0.817(5)
H23 H 0.963(5) 0.6429(15) 1.223(5)
H24 H 0.555(6) 0.5382(18) 1.026(6)
H25 H 0.397(6) 0.6349(16) 1.160(5)
H27 H 0.717(5) 0.4766(18) 1.137(5)
O3 O 0.7217(3) 0.34661(9) 0.7356(3)
O4 O 0.8137(3) 0.40442(10) 0.3010(3)
C3 C 0.7124(3) 0.40904(12) 0.5805(3)
C4 C 0.6763(3) 0.35966(12) 0.5866(3)
C8 C 0.8192(3) 0.34221(12) 0.4550(3)
C9 C 0.7393(3) 0.32747(12) 0.5182(4)
C10 C 0.7926(3) 0.42324(12) 0.5161(3)
C12 C 0.8550(3) 0.39128(12) 0.4489(3)
C13 C 0.6611(4) 0.44063(14) 0.6420(4)
C15 C 0.7135(4) 0.28114(13) 0.5206(4)
C16 C 0.5214(4) 0.35492(13) 0.5090(4)
C20 C 1.0104(4) 0.39647(13) 0.5285(4)
C21 C 0.3988(4) 0.35191(17) 0.4441(5)
C22 C 0.8174(4) 0.46948(14) 0.5123(4)
C23 C 0.7682(4) 0.24988(13) 0.4594(5)
C24 C 0.8717(4) 0.31051(14) 0.3909(4)
C26 C 0.7654(4) 0.50036(14) 0.5724(4)
H1 H 0.7820 0.5309 0.5670
C28 C 1.1338(4) 0.39998(15) 0.5977(4)
C30 C 0.8443(4) 0.26524(15) 0.3928(5)
C33 C 0.6883(4) 0.48631(14) 0.6409(4)
C37 C 0.6367(6) 0.52000(18) 0.7070(6)
H2 H 0.5857 0.5051 0.7498
H3 H 0.5719 0.5407 0.6372
H4 H 0.7187 0.5362 0.7771
H8 H 0.747(3) 0.2142(10) 0.482(3)
H9 H 0.663(4) 0.2720(11) 0.578(4)
H10 H 0.606(4) 0.4305(12) 0.691(4)
H11 H 0.934(4) 0.3217(13) 0.341(4)
H19 H 0.734(5) 0.4044(16) 0.259(5)
H20 H 0.876(5) 0.4778(15) 0.471(5)
H21 H 1.233(5) 0.4035(15) 0.659(5)
H22 H 0.305(6) 0.3519(18) 0.407(6)
H26 H 0.889(6) 0.2432(18) 0.335(6)
H28 H 0.815(6) 0.3489(16) 0.778(5)
loop_
_geom_bond_atom_site_label_1
_geom_bond_atom_site_label_2
_geom_bond_site_symmetry_1
_geom_bond_site_symmetry_2
O1 C7 1_555 1_555
O2 C6 1_555 1_555
O3 C4 1_555 1_555
O4 C12 1_555 1_555
C1 C2 1_555 1_555
C2 C7 1_555 1_555
C3 C4 1_555 1_555
C4 C9 1_555 1_555
C5 C6 1_555 1_555
C6 C1 1_555 1_555
C7 C14 1_555 1_555
C8 C9 1_555 1_555
C9 C15 1_555 1_555
C10 C3 1_555 1_555
C11 C1 1_555 1_555
C12 C8 1_555 1_555
C13 C3 1_555 1_555
C14 C5 1_555 1_555
C15 C23 1_555 1_555
C16 C4 1_555 1_555
C17 C2 1_555 1_555
C18 C7 1_555 1_555
C19 C14 1_555 1_555
C20 C12 1_555 1_555
C21 C16 1_555 1_555
C22 C10 1_555 1_555
C23 C30 1_555 1_555
C24 C8 1_555 1_555
C25 C6 1_555 1_555
C26 C22 1_555 1_555
H1 C26 1_555 1_555
C27 C11 1_555 1_555
C28 C20 1_555 1_555
C29 C17 1_555 1_555
C30 C24 1_555 1_555
C31 C5 1_555 1_555
C32 C25 1_555 1_555
C33 C13 1_555 1_555
C34 C31 1_555 1_555
C35 C19 1_555 1_555
C36 C18 1_555 1_555
C37 C33 1_555 1_555
H2 C37 1_555 1_555
H3 C37 1_555 1_555
H4 C37 1_555 1_555
C38 C29 1_555 1_555
H5 C38 1_555 1_555
H6 C38 1_555 1_555
H7 C38 1_555 1_555
H8 C23 1_555 1_555
H9 C15 1_555 1_555
H10 C13 1_555 1_555
H11 C24 1_555 1_555
H12 C17 1_555 1_555
H13 C35 1_555 1_555
H14 C19 1_555 1_555
H15 O2 1_555 1_555
H16 C11 1_555 1_555
H17 C27 1_555 1_555
H18 C36 1_555 1_555
H19 O4 1_555 1_555
H20 C22 1_555 1_555
H21 C28 1_555 1_555
H22 C21 1_555 1_555
H23 O1 1_555 1_555
H24 C31 1_555 1_555
H25 C32 1_555 1_555
H26 C30 1_555 1_555
H27 C34 1_555 1_555
H28 O3 1_555 1_555
C10 C12 1_555 1_555
C26 C33 1_555 1_555
C27 C29 1_555 1_555
C34 C35 1_555 1_555

#END
