
#######################################################################
#
#                 Cambridge Crystallographic Data Centre
#                                CCDC 
#
#######################################################################
#
# If this CIF has been generated from an entry in the Cambridge 
# Structural Database, then it will include bibliographic, chemical, 
# crystal, experimental, refinement or atomic coordinate data resulting 
# from the CCDC's data processing and validation procedures.
#
#######################################################################

data_ICUSAB
_chemical_formula_moiety         'C16 H12 Cl2 O2'
_chemical_name_systematic        
2,3-Dichloro-6,7-dimethyl-trans-1,4-diethynyl-1,4-dihydroxy-1,4-dihydronaphthalene
_symmetry_cell_setting           monoclinic
_symmetry_space_group_name_H-M   'P 21/c'
_symmetry_Int_Tables_number      14
_space_group_name_Hall           '-P 2ybc'
loop_
_symmetry_equiv_pos_site_id
_symmetry_equiv_pos_as_xyz
1 x,y,z
2 -x,1/2+y,1/2-z
3 -x,-y,-z
4 x,1/2-y,1/2+z
_cell_length_a                   7.4472(15)
_cell_length_b                   13.893(3)
_cell_length_c                   14.297(3)
_cell_angle_alpha                90
_cell_angle_beta                 102.93(3)
_cell_angle_gamma                90
_cell_volume                     1441.72
_exptl_crystal_colour            colorless
_exptl_crystal_description       Plate
_chemical_melting_point          '467 K'
_cell_formula_units_Z            4
loop_
_atom_site_label
_atom_site_type_symbol
_atom_site_fract_x
_atom_site_fract_y
_atom_site_fract_z
Cl1 Cl 0.73532(4) 0.42295(2) 0.51779(2)
Cl2 Cl 1.07832(4) 0.33167(2) 0.46182(2)
O1 O 0.40953(12) 0.40246(7) 0.35154(7)
C1 C 0.90060(16) 0.34346(8) 0.27192(8)
C2 C 0.71994(16) 0.36353(8) 0.20040(8)
C3 C 0.88612(15) 0.36358(8) 0.37459(8)
O2 O 1.03364(13) 0.40719(7) 0.24692(7)
C4 C 0.70707(18) 0.33797(8) 0.10419(9)
C5 C 0.74249(16) 0.40518(8) 0.39865(8)
C6 C 0.57034(17) 0.54807(9) 0.33072(8)
C7 C 0.57311(16) 0.44116(8) 0.32739(8)
C8 C 0.57033(16) 0.40789(8) 0.22567(8)
C9 C 0.39704(18) 0.39978(9) 0.05942(9)
C10 C 0.41050(17) 0.42544(9) 0.15468(9)
C11 C 0.95200(18) 0.24092(10) 0.26356(9)
C12 C 0.54918(19) 0.35560(9) 0.03338(9)
C13 C 0.5426(3) 0.32932(11) -0.06972(10)
C14 C 0.2222(2) 0.42154(11) -0.01382(11)
C15 C 0.5678(2) 0.63351(10) 0.33153(10)
C16 C 0.9862(2) 0.15834(12) 0.25545(10)
H1 H 0.815(2) 0.3084(11) 0.0878(11)
H2 H 0.310(2) 0.4576(11) 0.1710(11)
H3 H 0.511(3) 0.3811(14) -0.1104(14)
H4 H 0.446(3) 0.2789(14) -0.0941(13)
H5 H 0.664(3) 0.3102(14) -0.0762(13)
H6 H 0.402(2) 0.4193(13) 0.4036(13)
H7 H 0.564(3) 0.6977(15) 0.3336(13)
H8 H 1.135(3) 0.3933(14) 0.2762(14)
H9 H 1.008(3) 0.0930(17) 0.2496(16)
H10 H 0.179(3) 0.3664(16) -0.0443(16)
H11 H 0.242(3) 0.4673(16) -0.0635(15)
H12 H 0.133(3) 0.4487(18) 0.0172(18)
loop_
_geom_bond_atom_site_label_1
_geom_bond_atom_site_label_2
_geom_bond_site_symmetry_1
_geom_bond_site_symmetry_2
Cl1 C5 1_555 1_555
Cl2 C3 1_555 1_555
O1 C7 1_555 1_555
C1 C2 1_555 1_555
C2 C4 1_555 1_555
C3 C1 1_555 1_555
O2 C1 1_555 1_555
C4 C12 1_555 1_555
C5 C3 1_555 1_555
C6 C7 1_555 1_555
C7 C5 1_555 1_555
C8 C2 1_555 1_555
C9 C10 1_555 1_555
C10 C8 1_555 1_555
C11 C1 1_555 1_555
C12 C9 1_555 1_555
C13 C12 1_555 1_555
C14 C9 1_555 1_555
C15 C6 1_555 1_555
C16 C11 1_555 1_555
H1 C4 1_555 1_555
H2 C10 1_555 1_555
H3 C13 1_555 1_555
H4 C13 1_555 1_555
H5 C13 1_555 1_555
H6 O1 1_555 1_555
H7 C15 1_555 1_555
H8 O2 1_555 1_555
H9 C16 1_555 1_555
H10 C14 1_555 1_555
H11 C14 1_555 1_555
H12 C14 1_555 1_555
C7 C8 1_555 1_555

#END
