
#######################################################################
#
#                 Cambridge Crystallographic Data Centre
#                                CCDC 
#
#######################################################################
#
# If this CIF has been generated from an entry in the Cambridge 
# Structural Database, then it will include bibliographic, chemical, 
# crystal, experimental, refinement or atomic coordinate data resulting 
# from the CCDC's data processing and validation procedures.
#
#######################################################################

data_ICUSEF
_chemical_formula_moiety         'C16 H12 Br2 O2'
_chemical_name_systematic        
2,3-Dibromo-6,7-dimethyl-trans-1,4-diethynyl-1,4-dihydroxy-1,4-dihydronaphthalene
_symmetry_cell_setting           orthorhombic
_symmetry_space_group_name_H-M   'P 21 21 21'
_symmetry_Int_Tables_number      19
_space_group_name_Hall           'P 2ac 2ab'
loop_
_symmetry_equiv_pos_site_id
_symmetry_equiv_pos_as_xyz
1 x,y,z
2 1/2-x,-y,1/2+z
3 -x,1/2+y,1/2-z
4 1/2+x,1/2-y,-z
_cell_length_a                   9.5729(2)
_cell_length_b                   10.3511(2)
_cell_length_c                   15.1691(3)
_cell_angle_alpha                90
_cell_angle_beta                 90
_cell_angle_gamma                90
_cell_volume                     1503.11
_exptl_crystal_colour            colorless
_exptl_crystal_description       Plate
_chemical_melting_point          '474 K'
_cell_formula_units_Z            4
loop_
_atom_site_label
_atom_site_type_symbol
_atom_site_fract_x
_atom_site_fract_y
_atom_site_fract_z
Br1 Br 0.481287(18) 0.420449(16) 0.668246(12)
Br2 Br 0.32373(2) 0.696703(17) 0.721390(12)
O1 O 0.17591(13) 0.79188(13) 0.55205(9)
C1 C 0.41521(17) 0.53628(16) 0.58181(11)
O2 O 0.57932(13) 0.45569(13) 0.47446(8)
C2 C 0.40862(16) 0.55761(16) 0.33077(12)
C3 C 0.33485(16) 0.70681(16) 0.44191(11)
C4 C 0.35789(17) 0.64858(16) 0.60324(11)
C5 C 0.43604(17) 0.48807(16) 0.48801(11)
C6 C 0.31597(18) 0.76342(17) 0.28628(12)
C7 C 0.35305(18) 0.36887(16) 0.47641(11)
C8 C 0.2700(2) 0.8579(2) 0.21657(16)
C9 C 0.31723(17) 0.75167(15) 0.53656(11)
C10 C 0.38912(16) 0.58779(16) 0.42003(11)
C11 C 0.37751(18) 0.64348(19) 0.26420(12)
C12 C 0.29726(17) 0.79294(18) 0.37455(12)
C13 C 0.2805(2) 0.27648(18) 0.46898(13)
C14 C 0.4112(2) 0.6097(2) 0.16979(14)
C15 C 0.40622(18) 0.86675(17) 0.55155(13)
C16 C 0.4825(2) 0.95492(19) 0.56173(16)
H1 H 0.262(2) 0.871(2) 0.3908(15)
H2 H 0.438(2) 0.524(2) 0.1655(17)
H3 H 0.329(3) 0.863(3) 0.171(2)
H4 H 0.440(2) 0.478(2) 0.3163(15)
H5 H 0.225(3) 0.203(3) 0.4634(17)
H6 H 0.473(3) 0.666(2) 0.1432(16)
H7 H 0.345(3) 0.617(3) 0.132(2)
H8 H 0.547(4) 1.032(3) 0.575(2)
H9 H 0.179(3) 0.840(2) 0.1962(19)
H10 H 0.615(2) 0.523(2) 0.4677(15)
H11 H 0.120(3) 0.743(3) 0.5342(19)
H12 H 0.269(3) 0.945(3) 0.240(2)
loop_
_geom_bond_atom_site_label_1
_geom_bond_atom_site_label_2
_geom_bond_site_symmetry_1
_geom_bond_site_symmetry_2
Br1 C1 1_555 1_555
Br2 C4 1_555 1_555
O1 C9 1_555 1_555
C1 C4 1_555 1_555
O2 C5 1_555 1_555
C2 C10 1_555 1_555
C3 C9 1_555 1_555
C4 C9 1_555 1_555
C5 C1 1_555 1_555
C6 C8 1_555 1_555
C7 C5 1_555 1_555
C8 H3 1_555 1_555
C9 C15 1_555 1_555
C10 C3 1_555 1_555
C11 C2 1_555 1_555
C12 C3 1_555 1_555
C13 C7 1_555 1_555
C14 C11 1_555 1_555
C15 C16 1_555 1_555
C16 H8 1_555 1_555
H1 C12 1_555 1_555
H2 C14 1_555 1_555
H4 C2 1_555 1_555
H5 C13 1_555 1_555
H6 C14 1_555 1_555
H7 C14 1_555 1_555
H9 C8 1_555 1_555
H10 O2 1_555 1_555
H11 O1 1_555 1_555
H12 C8 1_555 1_555
C5 C10 1_555 1_555
C6 C11 1_555 1_555
C6 C12 1_555 1_555

#END
