
#######################################################################
#
#                 Cambridge Crystallographic Data Centre
#                                CCDC 
#
#######################################################################
#
# If this CIF has been generated from an entry in the Cambridge 
# Structural Database, then it will include bibliographic, chemical, 
# crystal, experimental, refinement or atomic coordinate data resulting 
# from the CCDC's data processing and validation procedures.
#
#######################################################################

data_ICUSIJ
_chemical_formula_moiety         'C18 H12 O2'
_chemical_name_systematic        
trans-1,4-Diethynyl-1,4-dihydroxy-1,4-dihydroanthracene
_symmetry_cell_setting           monoclinic
_symmetry_space_group_name_H-M   'P 21/c'
_symmetry_Int_Tables_number      14
_space_group_name_Hall           '-P 2ybc'
loop_
_symmetry_equiv_pos_site_id
_symmetry_equiv_pos_as_xyz
1 x,y,z
2 -x,1/2+y,1/2-z
3 -x,-y,-z
4 x,1/2-y,1/2+z
_cell_length_a                   10.8363(2)
_cell_length_b                   27.5202(6)
_cell_length_c                   10.3894(2)
_cell_angle_alpha                90
_cell_angle_beta                 117.1190(10)
_cell_angle_gamma                90
_cell_volume                     2757.68
_exptl_crystal_colour            yellow
_exptl_crystal_description       Block
_chemical_melting_point          '436 K'
_cell_formula_units_Z            8
loop_
_atom_site_label
_atom_site_type_symbol
_atom_site_fract_x
_atom_site_fract_y
_atom_site_fract_z
O1 O 0.72545(13) 0.17957(4) 0.45879(12)
O2 O 0.83030(14) 0.16144(5) 1.01085(12)
C1 C 1.01989(19) 0.16233(6) 0.96027(17)
C2 C 0.72704(16) 0.12453(5) 0.64421(17)
C4 C 0.68392(18) 0.17414(6) 0.57083(16)
C10 C 0.81893(18) 0.21135(6) 0.81565(18)
C11 C 0.53033(18) 0.17681(6) 0.49946(17)
C12 C 1.1425(2) 0.16199(7) 1.00468(19)
C14 C 0.68118(18) 0.08357(6) 0.55878(18)
C15 C 0.86614(18) 0.16366(6) 0.89395(16)
C19 C 0.70973(18) 0.03664(6) 0.6187(2)
C20 C 0.83472(19) 0.07409(6) 0.85635(19)
C21 C 0.4074(2) 0.17921(6) 0.4496(2)
C25 C 0.80836(17) 0.11960(6) 0.79540(17)
C26 C 0.73912(18) 0.21597(6) 0.67537(18)
C29 C 0.78587(19) 0.03185(6) 0.7713(2)
C30 C 0.6652(2) -0.00572(7) 0.5310(2)
C34 C 0.8114(2) -0.01577(7) 0.8318(3)
C35 C 0.6944(2) -0.05048(7) 0.5926(3)
C36 C 0.7670(3) -0.05561(7) 0.7437(3)
H2 H 0.736(3) 0.1613(8) 0.973(3)
H4 H 0.821(3) 0.1814(8) 0.504(3)
H7 H 0.6240(19) 0.0878(6) 0.453(2)
H8 H 1.236(3) 0.1621(7) 1.038(2)
H9 H 0.312(2) 0.1828(7) 0.416(2)
H11 H 0.712(2) 0.2495(6) 0.637(2)
H12 H 0.852(2) 0.2407(7) 0.881(2)
H16 H 0.615(2) -0.0011(7) 0.423(3)
H17 H 0.665(2) -0.0793(8) 0.528(3)
H18 H 0.851(2) -0.0167(7) 0.937(2)
H19 H 0.889(2) 0.0706(7) 0.966(2)
H23 H 0.789(3) -0.0893(9) 0.785(3)
O3 O 0.00968(13) 0.18892(4) 0.64946(13)
O4 O 0.54616(13) 0.15206(5) 0.81410(14)
C3 C 0.42718(17) 0.16106(6) 0.83837(17)
C5 C 0.18309(17) 0.12585(6) 0.69082(16)
C6 C 0.12592(17) 0.17544(6) 0.62509(17)
C7 C 0.06794(18) 0.17347(6) 0.46545(17)
C8 C 0.48520(18) 0.16487(6) 0.99751(18)
C9 C 0.32624(17) 0.11886(6) 0.78289(17)
C13 C 0.0192(2) 0.17381(7) 0.33806(19)
C16 C 0.36405(19) 0.20913(6) 0.77278(17)
C17 C 0.23181(18) 0.21530(6) 0.67972(17)
C18 C 0.37627(19) 0.07257(6) 0.82677(18)
C22 C 0.09396(19) 0.08679(6) 0.65675(17)
C23 C 0.14241(19) 0.03964(6) 0.70654(18)
C24 C 0.5347(2) 0.16927(7) 1.12489(19)
C27 C 0.28776(19) 0.03196(6) 0.78931(18)
C28 C 0.0521(2) -0.00091(7) 0.6752(2)
C31 C 0.1033(3) -0.04633(7) 0.7203(2)
C32 C 0.3375(2) -0.01616(7) 0.8317(2)
C33 C 0.2477(3) -0.05418(7) 0.7985(2)
H1 H -0.006(2) 0.0930(6) 0.596(2)
H3 H -0.045(2) 0.0044(6) 0.627(2)
H5 H 0.432(2) 0.2372(7) 0.802(2)
H6 H 0.479(2) 0.0672(6) 0.885(2)
H10 H 0.039(2) -0.0736(8) 0.703(2)
H13 H 0.200(2) 0.2494(7) 0.648(2)
H14 H -0.021(2) 0.1729(7) 0.238(3)
H15 H 0.443(2) -0.0208(7) 0.883(2)
H20 H 0.284(2) -0.0886(8) 0.828(3)
H21 H 0.575(3) 0.1713(9) 1.226(3)
H22 H 0.037(3) 0.1862(9) 0.742(3)
H24 H 0.519(4) 0.1556(11) 0.727(4)
loop_
_geom_bond_atom_site_label_1
_geom_bond_atom_site_label_2
_geom_bond_site_symmetry_1
_geom_bond_site_symmetry_2
O1 C4 1_555 1_555
O2 C15 1_555 1_555
O3 C6 1_555 1_555
O4 C3 1_555 1_555
C1 C12 1_555 1_555
C2 C4 1_555 1_555
C3 C8 1_555 1_555
C4 C11 1_555 1_555
C5 C6 1_555 1_555
C6 C7 1_555 1_555
C7 C13 1_555 1_555
C8 C24 1_555 1_555
C9 C3 1_555 1_555
C10 C15 1_555 1_555
C11 C21 1_555 1_555
C12 H8 1_555 1_555
C13 H14 1_555 1_555
C14 C2 1_555 1_555
C15 C1 1_555 1_555
C16 C3 1_555 1_555
C17 C6 1_555 1_555
C18 C9 1_555 1_555
C19 C14 1_555 1_555
C20 C25 1_555 1_555
C21 H9 1_555 1_555
C22 C5 1_555 1_555
C23 C22 1_555 1_555
C24 H21 1_555 1_555
C25 C2 1_555 1_555
C26 C4 1_555 1_555
C27 C18 1_555 1_555
C28 C23 1_555 1_555
C29 C19 1_555 1_555
C30 C19 1_555 1_555
C31 C28 1_555 1_555
C32 C27 1_555 1_555
C33 C31 1_555 1_555
C34 C29 1_555 1_555
C35 C30 1_555 1_555
C36 C34 1_555 1_555
H1 C22 1_555 1_555
H2 O2 1_555 1_555
H3 C28 1_555 1_555
H4 O1 1_555 1_555
H5 C16 1_555 1_555
H6 C18 1_555 1_555
H7 C14 1_555 1_555
H10 C31 1_555 1_555
H11 C26 1_555 1_555
H12 C10 1_555 1_555
H13 C17 1_555 1_555
H15 C32 1_555 1_555
H16 C30 1_555 1_555
H17 C35 1_555 1_555
H18 C34 1_555 1_555
H19 C20 1_555 1_555
H20 C33 1_555 1_555
H22 O3 1_555 1_555
H23 C36 1_555 1_555
H24 O4 1_555 1_555
C5 C9 1_555 1_555
C10 C26 1_555 1_555
C15 C25 1_555 1_555
C16 C17 1_555 1_555
C20 C29 1_555 1_555
C23 C27 1_555 1_555
C32 C33 1_555 1_555
C35 C36 1_555 1_555

#END
