
#######################################################################
#
#                 Cambridge Crystallographic Data Centre
#                                CCDC 
#
#######################################################################
#
# If this CIF has been generated from an entry in the Cambridge 
# Structural Database, then it will include bibliographic, chemical, 
# crystal, experimental, refinement or atomic coordinate data resulting 
# from the CCDC's data processing and validation procedures.
#
#######################################################################

data_ICUTEG
_chemical_formula_moiety         'C20 H16 O2'
_chemical_name_systematic        
2,3-Dimethyl-trans-9,10-diethynyl-9,10-dihydroxy-9,10-dihydroanthracene
_symmetry_cell_setting           monoclinic
_symmetry_space_group_name_H-M   'P 21/c'
_symmetry_Int_Tables_number      14
_space_group_name_Hall           '-P 2ybc'
loop_
_symmetry_equiv_pos_site_id
_symmetry_equiv_pos_as_xyz
1 x,y,z
2 -x,1/2+y,1/2-z
3 -x,-y,-z
4 x,1/2-y,1/2+z
_cell_length_a                   7.2871(15)
_cell_length_b                   13.340(3)
_cell_length_c                   15.870(3)
_cell_angle_alpha                90
_cell_angle_beta                 96.254(12)
_cell_angle_gamma                90
_cell_volume                     1533.54
_exptl_crystal_colour            yellow
_exptl_crystal_description       prism
_chemical_melting_point          '501 K'
_cell_formula_units_Z            4
loop_
_atom_site_label
_atom_site_type_symbol
_atom_site_fract_x
_atom_site_fract_y
_atom_site_fract_z
O1 O 0.43936(14) 0.69793(8) 0.29324(6)
O2 O 0.38517(14) 0.37133(7) 0.15219(6)
C1 C 0.24190(17) 0.54081(10) 0.40672(8)
C2 C 0.27417(17) 0.45463(10) 0.45587(8)
C3 C 0.34544(18) 0.36892(10) 0.41876(9)
C4 C 0.38141(18) 0.37325(10) 0.33429(9)
C5 C 0.35002(17) 0.46003(10) 0.28524(8)
C6 C 0.40944(17) 0.46479(9) 0.19557(8)
C7 C 0.29888(18) 0.54284(10) 0.14054(8)
C8 C 0.2757(2) 0.53091(11) 0.05216(9)
C9 C 0.1860(2) 0.60445(12) 0.00104(9)
C10 C 0.1191(2) 0.69004(12) 0.03753(10)
C11 C 0.1404(2) 0.70209(11) 0.12523(9)
C12 C 0.23037(18) 0.62830(10) 0.17733(8)
C13 C 0.26463(18) 0.64402(10) 0.27329(8)
C14 C 0.27942(17) 0.54485(10) 0.32198(8)
C15 C 0.11983(19) 0.70929(10) 0.30241(8)
C16 C -0.0045(2) 0.75935(11) 0.32142(9)
C17 C 0.60751(19) 0.49607(11) 0.20365(9)
C18 C 0.7626(2) 0.52315(15) 0.21212(12)
C19 C 0.2387(2) 0.45566(13) 0.54800(9)
C20 C 0.3884(2) 0.27422(12) 0.46942(11)
H1 H 0.194(2) 0.6017(14) 0.4326(11)
H2 H 0.432(2) 0.3152(12) 0.3091(10)
H3 H 0.325(2) 0.4690(14) 0.0268(11)
H4 H 0.170(3) 0.5959(15) -0.0609(13)
H5 H 0.052(2) 0.7414(14) 0.0012(11)
H6 H 0.093(2) 0.7600(14) 0.1505(11)
H7 H -0.102(3) 0.7981(15) 0.3360(12)
H8 H 0.894(4) 0.5424(19) 0.2206(16)
H9 H 0.177(3) 0.5197(16) 0.5620(13)
H10 H 0.479(3) 0.2866(16) 0.5204(14)
H11 H 0.351(3) 0.4495(17) 0.5857(15)
H12 H 0.279(3) 0.2482(17) 0.4909(14)
H13 H 0.158(3) 0.3964(16) 0.5618(12)
H14 H 0.433(3) 0.2237(18) 0.4342(14)
H15 H 0.472(3) 0.3286(17) 0.1709(13)
H16 H 0.528(3) 0.6579(19) 0.2828(15)
loop_
_geom_bond_atom_site_label_1
_geom_bond_atom_site_label_2
_geom_bond_site_symmetry_1
_geom_bond_site_symmetry_2
O1 C13 1_555 1_555
O2 C6 1_555 1_555
C1 C2 1_555 1_555
C2 C3 1_555 1_555
C3 C4 1_555 1_555
C4 C5 1_555 1_555
C5 C6 1_555 1_555
C6 C7 1_555 1_555
C7 C8 1_555 1_555
C8 C9 1_555 1_555
C9 C10 1_555 1_555
C10 C11 1_555 1_555
C11 C12 1_555 1_555
C12 C7 1_555 1_555
C13 C12 1_555 1_555
C14 C1 1_555 1_555
C15 C13 1_555 1_555
C16 C15 1_555 1_555
C17 C6 1_555 1_555
C18 C17 1_555 1_555
C19 C2 1_555 1_555
C20 C3 1_555 1_555
H1 C1 1_555 1_555
H2 C4 1_555 1_555
H3 C8 1_555 1_555
H4 C9 1_555 1_555
H5 C10 1_555 1_555
H6 C11 1_555 1_555
H7 C16 1_555 1_555
H8 C18 1_555 1_555
H9 C19 1_555 1_555
H10 C20 1_555 1_555
H11 C19 1_555 1_555
H12 C20 1_555 1_555
H13 C19 1_555 1_555
H14 C20 1_555 1_555
H15 O2 1_555 1_555
H16 O1 1_555 1_555
C5 C14 1_555 1_555
C13 C14 1_555 1_555

#END
