
#######################################################################
#
#                 Cambridge Crystallographic Data Centre
#                                CCDC 
#
#######################################################################
#
# If this CIF has been generated from an entry in the Cambridge 
# Structural Database, then it will include bibliographic, chemical, 
# crystal, experimental, refinement or atomic coordinate data resulting 
# from the CCDC's data processing and validation procedures.
#
#######################################################################

data_IDALAB
_chemical_formula_moiety         'C23 H14 F6 O2 S2'
_chemical_name_systematic        
1-(2-Methyl-1-benzothiophene-1,1-dioxide-3-yl)-2-(2-methyl-1-benzothiophen-3-yl)hexafluorocyclopentene
_symmetry_cell_setting           triclinic
_symmetry_space_group_name_H-M   'P -1'
_symmetry_Int_Tables_number      2
_space_group_name_Hall           '-P 1'
loop_
_symmetry_equiv_pos_site_id
_symmetry_equiv_pos_as_xyz
1 x,y,z
2 -x,-y,-z
_cell_length_a                   8.1239(14)
_cell_length_b                   10.7442(19)
_cell_length_c                   13.125(2)
_cell_angle_alpha                86.419(15)
_cell_angle_beta                 76.057(13)
_cell_angle_gamma                74.297(13)
_cell_volume                     1070.36
_exptl_crystal_colour            colorless
_exptl_crystal_description       block
_chemical_melting_point          210deg.C
_cell_formula_units_Z            2
_exptl_crystal_recrystallization_method 'hexane/ethyl acetate'
loop_
_atom_site_label
_atom_site_type_symbol
_atom_site_fract_x
_atom_site_fract_y
_atom_site_fract_z
S1 S 0.3993(2) 0.74058(16) 0.96685(13)
S2 S 0.2095(2) 1.02268(15) 0.58237(12)
O1 O 0.4785(6) 0.8429(4) 0.9237(4)
O2 O 0.4746(6) 0.6589(5) 1.0432(4)
F1 F 0.2898(7) 0.3942(4) 0.7924(5)
F2 F 0.0157(7) 0.4670(4) 0.8524(3)
F3 F 0.2300(11) 0.3712(5) 0.6159(4)
F4 F -0.0342(9) 0.4232(6) 0.6868(5)
F5 F 0.2041(6) 0.5790(4) 0.5191(3)
F6 F -0.0678(6) 0.6320(4) 0.5965(4)
C1 C 0.5597(10) 0.5735(10) 0.7936(7)
C2 C 0.3910(8) 0.6503(6) 0.8604(5)
C3 C 0.1708(7) 0.7954(5) 1.0082(4)
C4 C 0.0724(10) 0.8724(6) 1.0943(5)
C5 C -0.1081(10) 0.9029(7) 1.1126(5)
H1 H -0.180(8) 0.968(6) 1.167(5)
C6 C -0.1872(9) 0.8576(6) 1.0464(5)
H2 H -0.312(8) 0.880(6) 1.056(4)
C7 C -0.0894(8) 0.7819(5) 0.9601(5)
C8 C 0.0919(7) 0.7500(5) 0.9402(4)
C9 C 0.2225(7) 0.6698(5) 0.8550(4)
C10 C 0.1714(6) 0.6174(5) 0.7693(4)
C11 C 0.1543(9) 0.4804(6) 0.7733(5)
C12 C 0.1144(9) 0.4608(6) 0.6698(5)
C13 C 0.0944(8) 0.5898(5) 0.6136(4)
C14 C 0.1300(6) 0.6793(5) 0.6842(4)
C15 C 0.1217(7) 0.8160(5) 0.6556(4)
C16 C -0.0402(7) 0.9167(5) 0.6714(4)
C17 C -0.2112(8) 0.9124(6) 0.7179(5)
H3 H -0.234(7) 0.840(6) 0.742(4)
C18 C -0.3460(10) 1.0225(7) 0.7267(5)
C19 C -0.3130(13) 1.1389(7) 0.6894(6)
C20 C -0.1487(12) 1.1474(7) 0.6429(5)
C21 C -0.0128(8) 1.0370(5) 0.6349(4)
C22 C 0.2646(8) 0.8589(5) 0.6085(4)
C23 C 0.4526(10) 0.7841(9) 0.5744(8)
H4 H -0.146(7) 0.753(5) 0.918(4)
H5 H -0.406(7) 1.207(6) 0.697(4)
H6 H 0.132(7) 0.902(5) 1.135(4)
H7 H -0.459(8) 1.019(6) 0.752(5)
H8 H -0.130(9) 1.233(7) 0.619(5)
H9 H 0.519(13) 0.803(9) 0.504(8)
H10 H 0.527(11) 0.526(8) 0.727(7)
H11 H 0.467(8) 0.689(7) 0.586(5)
H12 H 0.618(10) 0.636(7) 0.768(6)
H13 H 0.514(10) 0.799(7) 0.616(6)
H14 H 0.616(10) 0.520(7) 0.828(6)
loop_
_geom_bond_atom_site_label_1
_geom_bond_atom_site_label_2
_geom_bond_site_symmetry_1
_geom_bond_site_symmetry_2
S1 O1 1_555 1_555
S2 C21 1_555 1_555
O2 S1 1_555 1_555
F1 C11 1_555 1_555
F2 C11 1_555 1_555
F3 C12 1_555 1_555
F4 C12 1_555 1_555
F5 C13 1_555 1_555
F6 C13 1_555 1_555
C1 C2 1_555 1_555
C2 S1 1_555 1_555
C3 S1 1_555 1_555
C4 C3 1_555 1_555
C5 C4 1_555 1_555
H1 C5 1_555 1_555
C6 C5 1_555 1_555
H2 C6 1_555 1_555
C7 C6 1_555 1_555
C8 C3 1_555 1_555
C9 C2 1_555 1_555
C10 C9 1_555 1_555
C11 C10 1_555 1_555
C12 C11 1_555 1_555
C13 C12 1_555 1_555
C14 C10 1_555 1_555
C15 C14 1_555 1_555
C16 C15 1_555 1_555
C17 C16 1_555 1_555
H3 C17 1_555 1_555
C18 C17 1_555 1_555
C19 C18 1_555 1_555
C20 C19 1_555 1_555
C21 C16 1_555 1_555
C22 S2 1_555 1_555
C23 C22 1_555 1_555
H4 C7 1_555 1_555
H5 C19 1_555 1_555
H6 C4 1_555 1_555
H7 C18 1_555 1_555
H8 C20 1_555 1_555
H9 C23 1_555 1_555
H10 C1 1_555 1_555
H11 C23 1_555 1_555
H12 C1 1_555 1_555
H13 C23 1_555 1_555
H14 C1 1_555 1_555
C7 C8 1_555 1_555
C8 C9 1_555 1_555
C13 C14 1_555 1_555
C15 C22 1_555 1_555
C20 C21 1_555 1_555

#END
