
#######################################################################
#
#                 Cambridge Crystallographic Data Centre
#                                CCDC 
#
#######################################################################
#
# If this CIF has been generated from an entry in the Cambridge 
# Structural Database, then it will include bibliographic, chemical, 
# crystal, experimental, refinement or atomic coordinate data resulting 
# from the CCDC's data processing and validation procedures.
#
#######################################################################

data_IDAMUY
_chemical_formula_moiety         'C19 H20 O5'
_chemical_name_systematic        
3-(3,5-dimethoxyphenyl)-4,6-dimethoxyindan-1-one
_symmetry_cell_setting           orthorhombic
_symmetry_space_group_name_H-M   'P 21 21 21'
_symmetry_Int_Tables_number      19
_space_group_name_Hall           'P 2ac 2ab'
loop_
_symmetry_equiv_pos_site_id
_symmetry_equiv_pos_as_xyz
1 x,y,z
2 1/2+x,1/2-y,-z
3 -x,1/2+y,1/2-z
4 1/2-x,-y,1/2+z
_cell_length_a                   8.9533(2)
_cell_length_b                   9.1541(2)
_cell_length_c                   21.5596(4)
_cell_angle_alpha                90
_cell_angle_beta                 90
_cell_angle_gamma                90
_cell_volume                     1767.01
_exptl_crystal_colour            colorless
_exptl_crystal_description       block
_cell_formula_units_Z            4
loop_
_atom_site_label
_atom_site_type_symbol
_atom_site_fract_x
_atom_site_fract_y
_atom_site_fract_z
O1 O 0.1486(2) 0.8618(2) 0.78258(9)
O2 O 0.3115(2) 0.29272(19) 0.80009(9)
O3 O 0.71102(18) 0.60325(19) 0.86215(9)
O4 O 0.5954(2) 0.7887(2) 1.07237(8)
O5 O 0.8146(3) 1.1950(2) 0.97037(10)
C1 C 0.3756(3) 0.9447(3) 0.83284(13)
H1 H 0.3353 0.9855 0.8708
H2 H 0.3925 1.0237 0.8037
C2 C 0.2690(3) 0.8352(3) 0.80595(11)
C3 C 0.3377(2) 0.6898(2) 0.81281(9)
C4 C 0.2722(2) 0.5550(3) 0.79896(10)
H3 H 0.1755 0.5484 0.7835
C5 C 0.3577(3) 0.4330(2) 0.80936(10)
C6 C 0.5061(3) 0.4448(3) 0.83072(10)
H4 H 0.5627 0.3608 0.8367
C7 C 0.5684(2) 0.5804(3) 0.84284(10)
C8 C 0.4802(3) 0.7054(2) 0.83549(9)
C9 C 0.5226(3) 0.8633(2) 0.84612(10)
H5 H 0.5951 0.8912 0.8142
C10 C 0.5877(2) 0.9032(2) 0.90883(10)
C11 C 0.6751(3) 1.0267(2) 0.91351(11)
H6 H 0.6970 1.0811 0.8782
C12 C 0.7307(3) 1.0701(3) 0.97082(12)
C13 C 0.7022(3) 0.9887(3) 1.02329(11)
H7 H 0.7410 1.0167 1.0615
C14 C 0.6147(2) 0.8642(3) 1.01804(10)
C15 C 0.5557(2) 0.8213(3) 0.96162(10)
H8 H 0.4955 0.7387 0.9590
C16 C 0.4972(4) 0.6675(4) 1.07175(14)
H9 H 0.4000 0.6986 1.0584
H10 H 0.4905 0.6270 1.1127
H11 H 0.5346 0.5947 1.0437
C17 C 0.8632(6) 1.2524(5) 1.02803(17)
H12 H 0.7783 1.2688 1.0543
H13 H 0.9144 1.3432 1.0212
H14 H 0.9297 1.1842 1.0476
C18 C 0.8039(3) 0.4796(3) 0.87178(17)
H15 H 0.7598 0.4173 0.9026
H16 H 0.9005 0.5112 0.8857
H17 H 0.8143 0.4267 0.8336
C19 C 0.1611(3) 0.2722(3) 0.77966(18)
H18 H 0.0936 0.3088 0.8106
H19 H 0.1428 0.1699 0.7732
H20 H 0.1459 0.3239 0.7414
loop_
_geom_bond_atom_site_label_1
_geom_bond_atom_site_label_2
_geom_bond_site_symmetry_1
_geom_bond_site_symmetry_2
O1 C2 1_555 1_555
O2 C5 1_555 1_555
O3 C7 1_555 1_555
O4 C14 1_555 1_555
O5 C12 1_555 1_555
C1 H1 1_555 1_555
H2 C1 1_555 1_555
C2 C1 1_555 1_555
C3 C2 1_555 1_555
C4 C3 1_555 1_555
H3 C4 1_555 1_555
C5 C4 1_555 1_555
C6 C5 1_555 1_555
H4 C6 1_555 1_555
C7 C6 1_555 1_555
C8 C3 1_555 1_555
C9 C1 1_555 1_555
H5 C9 1_555 1_555
C10 C9 1_555 1_555
C11 C10 1_555 1_555
H6 C11 1_555 1_555
C12 C11 1_555 1_555
C13 C12 1_555 1_555
H7 C13 1_555 1_555
C14 C13 1_555 1_555
C15 C10 1_555 1_555
H8 C15 1_555 1_555
C16 O4 1_555 1_555
H9 C16 1_555 1_555
H10 C16 1_555 1_555
H11 C16 1_555 1_555
C17 O5 1_555 1_555
H12 C17 1_555 1_555
H13 C17 1_555 1_555
H14 C17 1_555 1_555
C18 O3 1_555 1_555
H15 C18 1_555 1_555
H16 C18 1_555 1_555
H17 C18 1_555 1_555
C19 O2 1_555 1_555
H18 C19 1_555 1_555
H19 C19 1_555 1_555
H20 C19 1_555 1_555
C7 C8 1_555 1_555
C8 C9 1_555 1_555
C14 C15 1_555 1_555

#END
