
#######################################################################
#
#                 Cambridge Crystallographic Data Centre
#                                CCDC 
#
#######################################################################
#
# If this CIF has been generated from an entry in the Cambridge 
# Structural Database, then it will include bibliographic, chemical, 
# crystal, experimental, refinement or atomic coordinate data resulting 
# from the CCDC's data processing and validation procedures.
#
#######################################################################

data_IDAMOS
_chemical_formula_moiety         'C26 H26 O6 S1'
_chemical_name_systematic        
3-(3,5-dimethoxyphenyl)-4,6-dimethoxy-2-((4-methylphenyl)sulfinyl)indan-1-one
_symmetry_cell_setting           monoclinic
_symmetry_space_group_name_H-M   'P 21'
_symmetry_Int_Tables_number      4
_space_group_name_Hall           'P 2yb'
loop_
_symmetry_equiv_pos_site_id
_symmetry_equiv_pos_as_xyz
1 x,y,z
2 -x,1/2+y,-z
_cell_length_a                   9.3224(13)
_cell_length_b                   12.7871(18)
_cell_length_c                   10.2780(15)
_cell_angle_alpha                90
_cell_angle_beta                 102.053(3)
_cell_angle_gamma                90
_cell_volume                     1198.19
_exptl_crystal_colour            colorless
_exptl_crystal_description       block
_cell_formula_units_Z            2
loop_
_atom_site_label
_atom_site_type_symbol
_atom_site_fract_x
_atom_site_fract_y
_atom_site_fract_z
S1 S 0.39024(10) 0.44675(8) 0.72731(11)
O1 O 0.3626(3) 0.3321(2) 0.7151(3)
O2 O 0.2378(3) 0.5318(2) 0.4490(3)
O3 O -0.2269(3) 0.2785(2) 0.2548(3)
O4 O -0.1611(3) 0.3191(2) 0.7237(3)
O5 O -0.2890(3) 0.7217(2) 0.7457(3)
O6 O -0.0110(3) 0.5818(2) 1.1458(2)
C1 C 0.2101(3) 0.5086(3) 0.6752(3)
H1 H 0.2152 0.5830 0.6986
C2 C 0.1697(4) 0.4945(3) 0.5245(4)
C3 C 0.0407(3) 0.4270(2) 0.4938(3)
C4 C -0.0289(4) 0.3886(3) 0.3703(4)
H2 H 0.0033 0.4057 0.2932
C5 C -0.1475(4) 0.3240(3) 0.3672(4)
C6 C -0.1947(4) 0.2990(3) 0.4837(4)
H3 H -0.2749 0.2549 0.4794
C7 C -0.1241(4) 0.3388(3) 0.6050(3)
C8 C -0.0033(3) 0.4033(3) 0.6107(3)
C9 C 0.0891(3) 0.4534(3) 0.7324(3)
H4 H 0.1345 0.3982 0.7934
C10 C 0.0046(3) 0.5257(2) 0.8058(3)
C11 C -0.1025(4) 0.5911(3) 0.7350(3)
H5 H -0.1216 0.5920 0.6425
C12 C -0.1804(4) 0.6550(3) 0.8037(4)
C13 C -0.1523(4) 0.6550(3) 0.9419(4)
H6 H -0.2050 0.6984 0.9875
C14 C -0.0454(4) 0.5897(3) 1.0103(3)
C15 C 0.0335(4) 0.5257(3) 0.9425(3)
H7 H 0.1065 0.4824 0.9896
C16 C -0.0945(4) 0.6400(3) 1.2202(4)
H8 H -0.1954 0.6189 1.1962
H9 H -0.0867 0.7132 1.2017
H10 H -0.0580 0.6277 1.3134
C17 C -0.3291(6) 0.7244(4) 0.6048(4)
H11 H -0.2434 0.7364 0.5689
H12 H -0.3984 0.7798 0.5776
H13 H -0.3727 0.6589 0.5725
C18 C -0.2839(5) 0.2521(4) 0.7251(4)
H14 H -0.3706 0.2821 0.6712
H15 H -0.2971 0.2445 0.8148
H16 H -0.2662 0.1847 0.6902
C19 C -0.1895(5) 0.3045(4) 0.1321(4)
H17 H -0.2551 0.2695 0.0609
H18 H -0.0906 0.2828 0.1335
H19 H -0.1975 0.3787 0.1187
C20 C 0.4238(3) 0.4771(3) 0.8998(4)
C21 C 0.4176(4) 0.3984(3) 0.9901(4)
H20 H 0.3887 0.3313 0.9607
C22 C 0.4548(4) 0.4199(3) 1.1247(5)
H21 H 0.4505 0.3667 1.1854
C23 C 0.4977(4) 0.5176(3) 1.1705(4)
C24 C 0.5015(4) 0.5956(3) 1.0784(4)
H22 H 0.5286 0.6630 1.1079
C25 C 0.4661(4) 0.5759(3) 0.9440(4)
H23 H 0.4708 0.6292 0.8834
C26 C 0.5442(5) 0.5398(4) 1.3171(4)
H24 H 0.6255 0.4956 1.3550
H25 H 0.4638 0.5261 1.3598
H26 H 0.5730 0.6117 1.3301
loop_
_geom_bond_atom_site_label_1
_geom_bond_atom_site_label_2
_geom_bond_site_symmetry_1
_geom_bond_site_symmetry_2
S1 O1 1_555 1_555
O2 C2 1_555 1_555
O3 C5 1_555 1_555
O4 C7 1_555 1_555
O5 C12 1_555 1_555
O6 C14 1_555 1_555
C1 S1 1_555 1_555
H1 C1 1_555 1_555
C2 C1 1_555 1_555
C3 C2 1_555 1_555
C4 C3 1_555 1_555
H2 C4 1_555 1_555
C5 C4 1_555 1_555
C6 C5 1_555 1_555
H3 C6 1_555 1_555
C7 C6 1_555 1_555
C8 C3 1_555 1_555
C9 C1 1_555 1_555
H4 C9 1_555 1_555
C10 C9 1_555 1_555
C11 C10 1_555 1_555
H5 C11 1_555 1_555
C12 C11 1_555 1_555
C13 C12 1_555 1_555
H6 C13 1_555 1_555
C14 C13 1_555 1_555
C15 C10 1_555 1_555
H7 C15 1_555 1_555
C16 O6 1_555 1_555
H8 C16 1_555 1_555
H9 C16 1_555 1_555
H10 C16 1_555 1_555
C17 O5 1_555 1_555
H11 C17 1_555 1_555
H12 C17 1_555 1_555
H13 C17 1_555 1_555
C18 O4 1_555 1_555
H14 C18 1_555 1_555
H15 C18 1_555 1_555
H16 C18 1_555 1_555
C19 O3 1_555 1_555
H17 C19 1_555 1_555
H18 C19 1_555 1_555
H19 C19 1_555 1_555
C20 S1 1_555 1_555
C21 C20 1_555 1_555
H20 C21 1_555 1_555
C22 C21 1_555 1_555
H21 C22 1_555 1_555
C23 C22 1_555 1_555
C24 C23 1_555 1_555
H22 C24 1_555 1_555
C25 C20 1_555 1_555
H23 C25 1_555 1_555
C26 C23 1_555 1_555
H24 C26 1_555 1_555
H25 C26 1_555 1_555
H26 C26 1_555 1_555
C7 C8 1_555 1_555
C8 C9 1_555 1_555
C14 C15 1_555 1_555
C24 C25 1_555 1_555

#END
