
#######################################################################
#
#                 Cambridge Crystallographic Data Centre
#                                CCDC 
#
#######################################################################
#
# If this CIF has been generated from an entry in the Cambridge 
# Structural Database, then it will include bibliographic, chemical, 
# crystal, experimental, refinement or atomic coordinate data resulting 
# from the CCDC's data processing and validation procedures.
#
#######################################################################

data_IDAQIQ
_chemical_formula_moiety         'C21 H16 O1'
_chemical_name_systematic        (S)-2-methyl-2-phenylanthracen-1(2H)-one
_symmetry_cell_setting           orthorhombic
_symmetry_space_group_name_H-M   'P 21 21 21'
_symmetry_Int_Tables_number      19
_space_group_name_Hall           'P 2ac 2ab'
loop_
_symmetry_equiv_pos_site_id
_symmetry_equiv_pos_as_xyz
1 x,y,z
2 1/2-x,-y,1/2+z
3 -x,1/2+y,1/2-z
4 1/2+x,1/2-y,-z
_cell_length_a                   6.3866(6)
_cell_length_b                   7.9273(8)
_cell_length_c                   29.492(3)
_cell_angle_alpha                90
_cell_angle_beta                 90
_cell_angle_gamma                90
_cell_volume                     1493.14
_exptl_crystal_colour            colorless
_exptl_crystal_description       prismatic
_cell_formula_units_Z            4
loop_
_atom_site_label
_atom_site_type_symbol
_atom_site_fract_x
_atom_site_fract_y
_atom_site_fract_z
O1 O 0.0268(3) 1.0374(2) 0.89474(6)
C1 C 0.5965(4) 1.0230(3) 1.01205(8)
C2 C 0.7223(5) 0.9997(3) 1.05104(9)
H1 H 0.8562 1.0455 1.0520
C3 C 0.6493(5) 0.9111(4) 1.08715(9)
H2 H 0.7342 0.8963 1.1125
C4 C 0.4493(5) 0.8425(3) 1.08671(9)
H3 H 0.4006 0.7843 1.1120
C5 C 0.3238(4) 0.8596(3) 1.04964(8)
H4 H 0.1912 0.8111 1.0495
C6 C 0.3943(4) 0.9509(3) 1.01124(7)
C7 C 0.2706(4) 0.9703(3) 0.97179(7)
H5 H 0.1370 0.9237 0.9709
C8 C 0.3441(3) 1.0562(3) 0.93492(7)
C9 C 0.5462(3) 1.1322(3) 0.93580(7)
C10 C 0.6658(4) 1.1149(3) 0.97399(8)
H6 H 0.7971 1.1655 0.9749
C11 C 0.2115(4) 1.0732(3) 0.89412(7)
C12 C 0.3150(4) 1.1275(3) 0.84942(7)
C13 C 0.5128(4) 1.2258(3) 0.85757(9)
H7 H 0.5657 1.2899 0.8338
C14 C 0.6164(4) 1.2270(3) 0.89637(8)
H8 H 0.7383 1.2906 0.8985
C15 C 0.1606(4) 1.2367(3) 0.82233(9)
H9 H 0.2145 1.2549 0.7923
H10 H 0.1427 1.3433 0.8373
H11 H 0.0280 1.1801 0.8204
C16 C 0.3632(4) 0.9599(3) 0.82488(7)
C17 C 0.2109(4) 0.8764(4) 0.80035(9)
H12 H 0.0782 0.9238 0.7979
C18 C 0.2514(5) 0.7246(4) 0.77944(9)
H13 H 0.1461 0.6710 0.7631
C19 C 0.4443(5) 0.6522(4) 0.78254(8)
H14 H 0.4720 0.5503 0.7681
C20 C 0.5963(5) 0.7310(4) 0.80712(9)
H15 H 0.7280 0.6819 0.8098
C21 C 0.5561(4) 0.8836(3) 0.82810(9)
H16 H 0.6616 0.9357 0.8447
loop_
_geom_bond_atom_site_label_1
_geom_bond_atom_site_label_2
_geom_bond_site_symmetry_1
_geom_bond_site_symmetry_2
O1 C11 1_555 1_555
C1 C2 1_555 1_555
C2 H1 1_555 1_555
C3 C2 1_555 1_555
H2 C3 1_555 1_555
C4 C3 1_555 1_555
H3 C4 1_555 1_555
C5 C4 1_555 1_555
H4 C5 1_555 1_555
C6 C1 1_555 1_555
C7 C6 1_555 1_555
H5 C7 1_555 1_555
C8 C7 1_555 1_555
C9 C8 1_555 1_555
C10 C1 1_555 1_555
H6 C10 1_555 1_555
C11 C8 1_555 1_555
C12 C11 1_555 1_555
C13 C12 1_555 1_555
H7 C13 1_555 1_555
C14 C9 1_555 1_555
H8 C14 1_555 1_555
C15 C12 1_555 1_555
H9 C15 1_555 1_555
H10 C15 1_555 1_555
H11 C15 1_555 1_555
C16 C12 1_555 1_555
C17 C16 1_555 1_555
H12 C17 1_555 1_555
C18 C17 1_555 1_555
H13 C18 1_555 1_555
C19 C18 1_555 1_555
H14 C19 1_555 1_555
C20 C19 1_555 1_555
H15 C20 1_555 1_555
C21 C16 1_555 1_555
H16 C21 1_555 1_555
C5 C6 1_555 1_555
C9 C10 1_555 1_555
C13 C14 1_555 1_555
C20 C21 1_555 1_555

#END
