
#######################################################################
#
#                 Cambridge Crystallographic Data Centre
#                                CCDC 
#
#######################################################################
#
# If this CIF has been generated from an entry in the Cambridge 
# Structural Database, then it will include bibliographic, chemical, 
# crystal, experimental, refinement or atomic coordinate data resulting 
# from the CCDC's data processing and validation procedures.
#
#######################################################################

data_IDAQOW
_chemical_formula_moiety         'C21 H16'
_chemical_name_systematic        2-methyl-1-phenylanthracene
_symmetry_cell_setting           monoclinic
_symmetry_space_group_name_H-M   'P 21/c'
_symmetry_Int_Tables_number      14
_space_group_name_Hall           '-P 2ybc'
loop_
_symmetry_equiv_pos_site_id
_symmetry_equiv_pos_as_xyz
1 x,y,z
2 -x,1/2+y,1/2-z
3 -x,-y,-z
4 x,1/2-y,1/2+z
_cell_length_a                   11.3684(14)
_cell_length_b                   12.7420(15)
_cell_length_c                   11.3304(14)
_cell_angle_alpha                90
_cell_angle_beta                 119.698(2)
_cell_angle_gamma                90
_cell_volume                     1425.69
_exptl_crystal_colour            yellow
_exptl_crystal_description       block
_cell_formula_units_Z            4
loop_
_atom_site_label
_atom_site_type_symbol
_atom_site_fract_x
_atom_site_fract_y
_atom_site_fract_z
C1 C 0.3587(2) 0.44933(16) 0.2163(2)
H1 H 0.4400 0.4247 0.2978
H2 H 0.3750 0.5197 0.1925
H3 H 0.3371 0.4011 0.1408
C2 C 0.24192(18) 0.45311(13) 0.24347(18)
C3 C 0.13896(19) 0.52935(14) 0.17193(19)
H4 H 0.1477 0.5760 0.1113
C4 C 0.02923(19) 0.53707(14) 0.18805(18)
H5 H -0.0373 0.5890 0.1389
C5 C 0.01170(17) 0.46886(13) 0.27731(17)
C6 C -0.10109(17) 0.47572(13) 0.29502(18)
H6 H -0.1679 0.5275 0.2462
C7 C -0.11848(17) 0.40843(13) 0.38265(17)
C8 C -0.23165(17) 0.41562(14) 0.40383(18)
H7 H -0.2985 0.4679 0.3571
C9 C -0.24576(18) 0.34901(14) 0.48966(19)
H8 H -0.3221 0.3551 0.5023
C10 C -0.14713(18) 0.27038(14) 0.56051(19)
H9 H -0.1578 0.2239 0.6201
C11 C -0.03721(18) 0.26127(13) 0.54332(18)
H10 H 0.0280 0.2083 0.5914
C12 C -0.01801(17) 0.32970(13) 0.45461(17)
C13 C 0.09544(17) 0.32275(13) 0.43722(17)
H11 H 0.1613 0.2700 0.4848
C14 C 0.11437(16) 0.39150(12) 0.35145(16)
C15 C 0.23063(17) 0.38599(13) 0.33240(17)
C16 C 0.33900(17) 0.30674(13) 0.41058(18)
C17 C 0.35185(19) 0.21776(14) 0.3474(2)
H12 H 0.2896 0.2056 0.2540
C18 C 0.4558(2) 0.14613(15) 0.4203(2)
H13 H 0.4640 0.0855 0.3762
C19 C 0.54612(19) 0.16259(15) 0.5552(2)
H14 H 0.6169 0.1136 0.6042
C20 C 0.53407(19) 0.25060(16) 0.6197(2)
H15 H 0.5964 0.2622 0.7132
C21 C 0.43055(19) 0.32209(15) 0.54741(19)
H16 H 0.4223 0.3823 0.5922
loop_
_geom_bond_atom_site_label_1
_geom_bond_atom_site_label_2
_geom_bond_site_symmetry_1
_geom_bond_site_symmetry_2
C1 H1 1_555 1_555
H2 C1 1_555 1_555
H3 C1 1_555 1_555
C2 C1 1_555 1_555
C3 C2 1_555 1_555
H4 C3 1_555 1_555
C4 C3 1_555 1_555
H5 C4 1_555 1_555
C5 C4 1_555 1_555
C6 C5 1_555 1_555
H6 C6 1_555 1_555
C7 C6 1_555 1_555
C8 C7 1_555 1_555
H7 C8 1_555 1_555
C9 C8 1_555 1_555
H8 C9 1_555 1_555
C10 C9 1_555 1_555
H9 C10 1_555 1_555
C11 C10 1_555 1_555
H10 C11 1_555 1_555
C12 C7 1_555 1_555
C13 C12 1_555 1_555
H11 C13 1_555 1_555
C14 C5 1_555 1_555
C15 C2 1_555 1_555
C16 C15 1_555 1_555
C17 C16 1_555 1_555
H12 C17 1_555 1_555
C18 C17 1_555 1_555
H13 C18 1_555 1_555
C19 C18 1_555 1_555
H14 C19 1_555 1_555
C20 C19 1_555 1_555
H15 C20 1_555 1_555
C21 C16 1_555 1_555
H16 C21 1_555 1_555
C11 C12 1_555 1_555
C13 C14 1_555 1_555
C14 C15 1_555 1_555
C20 C21 1_555 1_555

#END
