
#######################################################################
#
#                 Cambridge Crystallographic Data Centre
#                                CCDC 
#
#######################################################################
#
# If this CIF has been generated from an entry in the Cambridge 
# Structural Database, then it will include bibliographic, chemical, 
# crystal, experimental, refinement or atomic coordinate data resulting 
# from the CCDC's data processing and validation procedures.
#
#######################################################################

data_IDARAJ
_chemical_formula_moiety         'C23 H18 O3'
_chemical_name_systematic        'methyl 2-methyl-1-phenyl-9-anthryl carbonate'
_symmetry_cell_setting           triclinic
_symmetry_space_group_name_H-M   'P -1'
_symmetry_Int_Tables_number      2
_space_group_name_Hall           '-P 1'
loop_
_symmetry_equiv_pos_site_id
_symmetry_equiv_pos_as_xyz
1 x,y,z
2 -x,-y,-z
_cell_length_a                   8.2064(10)
_cell_length_b                   13.2103(16)
_cell_length_c                   17.178(2)
_cell_angle_alpha                73.278(3)
_cell_angle_beta                 87.648(3)
_cell_angle_gamma                81.051(3)
_cell_volume                     1761.78
_exptl_crystal_colour            colorless
_exptl_crystal_description       prismatic
_cell_formula_units_Z            4
loop_
_atom_site_label
_atom_site_type_symbol
_atom_site_fract_x
_atom_site_fract_y
_atom_site_fract_z
O1 O 0.65775(14) 0.69436(9) 0.10380(7)
O2 O 0.5662(2) 0.86773(12) 0.09449(9)
O3 O 0.77488(18) 0.81399(12) 0.01956(9)
C1 C 0.5927(2) 0.64851(14) 0.24402(11)
C2 C 0.7428(3) 0.67809(16) 0.26252(13)
H1 H 0.8134 0.7051 0.2205
C3 C 0.7845(3) 0.6676(2) 0.33983(15)
H2 H 0.8824 0.6884 0.3506
C4 C 0.6802(4) 0.6252(2) 0.40464(15)
H3 H 0.7110 0.6173 0.4578
C5 C 0.5376(3) 0.5962(2) 0.39032(13)
H4 H 0.4704 0.5688 0.4338
C6 C 0.4871(3) 0.60646(16) 0.30957(11)
C7 C 0.3408(3) 0.57742(16) 0.29165(12)
H5 H 0.2728 0.5483 0.3342
C8 C 0.2920(2) 0.59015(14) 0.21272(11)
C9 C 0.3950(2) 0.63401(13) 0.14493(10)
C10 C 0.5436(2) 0.66012(13) 0.16481(10)
C11 C 0.3350(2) 0.65041(14) 0.06316(11)
C12 C 0.1828(2) 0.62541(16) 0.05209(12)
C13 C 0.0853(2) 0.58241(17) 0.12039(14)
H6 H -0.0176 0.5663 0.1119
C14 C 0.1376(2) 0.56443(16) 0.19671(13)
H7 H 0.0716 0.5346 0.2399
C15 C 0.1130(3) 0.6400(2) -0.03069(14)
H8 H 0.1013 0.7142 -0.0610
H9 H 0.0070 0.6165 -0.0250
H10 H 0.1861 0.5986 -0.0590
C16 C 0.4326(2) 0.69609(14) -0.01081(10)
C17 C 0.3907(3) 0.80108(17) -0.05603(12)
H11 H 0.3051 0.8445 -0.0389
C18 C 0.4744(3) 0.84248(19) -0.12661(14)
H12 H 0.4454 0.9137 -0.1562
C19 C 0.5997(3) 0.7796(2) -0.15328(13)
H13 H 0.6550 0.8076 -0.2011
C20 C 0.6431(3) 0.67506(19) -0.10886(13)
H14 H 0.7284 0.6320 -0.1266
C21 C 0.5612(2) 0.63334(15) -0.03806(12)
H15 H 0.5923 0.5625 -0.0082
C22 C 0.6567(2) 0.80076(16) 0.07386(11)
C23 C 0.7853(4) 0.9230(2) -0.02653(16)
H16 H 0.6783 0.9581 -0.0479
H17 H 0.8614 0.9235 -0.0705
H18 H 0.8230 0.9601 0.0082
O4 O -0.03586(14) 0.12916(10) 0.33676(7)
O5 O 0.0031(2) 0.26475(12) 0.22616(9)
O6 O -0.22018(17) 0.26746(11) 0.30567(9)
C24 C 0.2183(2) -0.07101(14) 0.25407(11)
C25 C 0.1936(3) -0.13580(16) 0.20371(13)
H19 H 0.2824 -0.1821 0.1921
C26 C 0.0439(3) -0.13154(17) 0.17243(15)
H20 H 0.0303 -0.1748 0.1397
C27 C -0.0922(3) -0.06157(18) 0.18919(14)
H21 H -0.1953 -0.0595 0.1677
C28 C -0.0743(2) 0.00263(16) 0.23618(12)
H22 H -0.1650 0.0490 0.2460
C29 C 0.0807(2) 0.00002(14) 0.27049(11)
C30 C 0.1062(2) 0.06450(14) 0.31932(11)
C31 C 0.2584(2) 0.06566(14) 0.35215(10)
C32 C 0.3951(2) -0.00585(15) 0.33287(11)
C33 C 0.3709(2) -0.07192(15) 0.28604(12)
H23 H 0.4605 -0.1187 0.2757
C34 C 0.5549(2) -0.00394(18) 0.35968(13)
H24 H 0.6430 -0.0522 0.3499
C35 C 0.5815(2) 0.06616(19) 0.39881(13)
H25 H 0.6890 0.0682 0.4128
C36 C 0.4505(2) 0.13752(17) 0.41961(12)
C37 C 0.2910(2) 0.13502(15) 0.39961(11)
C38 C 0.4935(3) 0.2111(2) 0.46528(14)
H26 H 0.4790 0.2831 0.4303
H27 H 0.6063 0.1902 0.4831
H28 H 0.4227 0.2071 0.5116
C39 C 0.1551(2) 0.20398(16) 0.42938(11)
C40 C 0.1245(3) 0.31370(17) 0.39369(13)
H29 H 0.1857 0.3446 0.3488
C41 C 0.0045(3) 0.37739(19) 0.42400(15)
H30 H -0.0154 0.4507 0.3991
C42 C -0.0856(3) 0.3330(2) 0.49081(15)
H31 H -0.1660 0.3761 0.5114
C43 C -0.0561(3) 0.2243(2) 0.52713(13)
H32 H -0.1174 0.1938 0.5721
C44 C 0.0635(2) 0.16071(18) 0.49709(12)
H33 H 0.0834 0.0876 0.5225
C45 C -0.0765(2) 0.22578(15) 0.28239(12)
C46 C -0.2867(4) 0.3724(2) 0.25576(18)
H34 H -0.2104 0.4211 0.2544
H35 H -0.3897 0.3965 0.2780
H36 H -0.3043 0.3696 0.2016
loop_
_geom_bond_atom_site_label_1
_geom_bond_atom_site_label_2
_geom_bond_site_symmetry_1
_geom_bond_site_symmetry_2
O1 C10 1_555 1_555
O2 C22 1_555 1_555
O3 C22 1_555 1_555
C1 C2 1_555 1_555
C2 H1 1_555 1_555
C3 C2 1_555 1_555
H2 C3 1_555 1_555
C4 C3 1_555 1_555
H3 C4 1_555 1_555
C5 C4 1_555 1_555
H4 C5 1_555 1_555
C6 C1 1_555 1_555
C7 C6 1_555 1_555
H5 C7 1_555 1_555
C8 C7 1_555 1_555
C9 C8 1_555 1_555
C10 C1 1_555 1_555
C11 C9 1_555 1_555
C12 C11 1_555 1_555
C13 C12 1_555 1_555
H6 C13 1_555 1_555
C14 C8 1_555 1_555
H7 C14 1_555 1_555
C15 C12 1_555 1_555
H8 C15 1_555 1_555
H9 C15 1_555 1_555
H10 C15 1_555 1_555
C16 C11 1_555 1_555
C17 C16 1_555 1_555
H11 C17 1_555 1_555
C18 C17 1_555 1_555
H12 C18 1_555 1_555
C19 C18 1_555 1_555
H13 C19 1_555 1_555
C20 C19 1_555 1_555
H14 C20 1_555 1_555
C21 C16 1_555 1_555
H15 C21 1_555 1_555
C22 O1 1_555 1_555
C23 O3 1_555 1_555
H16 C23 1_555 1_555
H17 C23 1_555 1_555
H18 C23 1_555 1_555
O4 C30 1_555 1_555
O5 C45 1_555 1_555
O6 C45 1_555 1_555
C24 C25 1_555 1_555
C25 H19 1_555 1_555
C26 C25 1_555 1_555
H20 C26 1_555 1_555
C27 C26 1_555 1_555
H21 C27 1_555 1_555
C28 C27 1_555 1_555
H22 C28 1_555 1_555
C29 C24 1_555 1_555
C30 C29 1_555 1_555
C31 C30 1_555 1_555
C32 C31 1_555 1_555
C33 C24 1_555 1_555
H23 C33 1_555 1_555
C34 C32 1_555 1_555
H24 C34 1_555 1_555
C35 C34 1_555 1_555
H25 C35 1_555 1_555
C36 C35 1_555 1_555
C37 C31 1_555 1_555
C38 C36 1_555 1_555
H26 C38 1_555 1_555
H27 C38 1_555 1_555
H28 C38 1_555 1_555
C39 C37 1_555 1_555
C40 C39 1_555 1_555
H29 C40 1_555 1_555
C41 C40 1_555 1_555
H30 C41 1_555 1_555
C42 C41 1_555 1_555
H31 C42 1_555 1_555
C43 C42 1_555 1_555
H32 C43 1_555 1_555
C44 C39 1_555 1_555
H33 C44 1_555 1_555
C45 O4 1_555 1_555
C46 O6 1_555 1_555
H34 C46 1_555 1_555
H35 C46 1_555 1_555
H36 C46 1_555 1_555
C5 C6 1_555 1_555
C9 C10 1_555 1_555
C13 C14 1_555 1_555
C20 C21 1_555 1_555
C28 C29 1_555 1_555
C32 C33 1_555 1_555
C36 C37 1_555 1_555
C43 C44 1_555 1_555

#END
