
#######################################################################
#
#                 Cambridge Crystallographic Data Centre
#                                CCDC 
#
#######################################################################
#
# If this CIF has been generated from an entry in the Cambridge 
# Structural Database, then it will include bibliographic, chemical, 
# crystal, experimental, refinement or atomic coordinate data resulting 
# from the CCDC's data processing and validation procedures.
#
#######################################################################

data_IDAREN
_chemical_formula_moiety         'C21 H14 O2'
_chemical_name_systematic        2-methyl-1-phenyl-9,10-anthraquinone
_symmetry_cell_setting           orthorhombic
_symmetry_space_group_name_H-M   'P n m a'
_symmetry_Int_Tables_number      62
_space_group_name_Hall           '-P 2ac 2n'
loop_
_symmetry_equiv_pos_site_id
_symmetry_equiv_pos_as_xyz
1 x,y,z
2 1/2-x,-y,1/2+z
3 1/2+x,1/2-y,1/2-z
4 -x,1/2+y,-z
5 -x,-y,-z
6 1/2+x,y,1/2-z
7 1/2-x,1/2+y,1/2+z
8 x,1/2-y,z
_cell_length_a                   11.774(2)
_cell_length_b                   6.9176(13)
_cell_length_c                   17.903(3)
_cell_angle_alpha                90
_cell_angle_beta                 90
_cell_angle_gamma                90
_cell_volume                     1458.16
_exptl_crystal_colour            yellow
_exptl_crystal_description       prismatic
_cell_formula_units_Z            4
loop_
_atom_site_label
_atom_site_type_symbol
_atom_site_fract_x
_atom_site_fract_y
_atom_site_fract_z
O1 O 0.22570(13) 0.2500 0.55891(10)
O2 O 0.67523(13) 0.2500 0.51478(11)
C1 C 0.40704(18) 0.2500 0.61074(13)
C2 C 0.3634(2) 0.2500 0.68247(14)
H1 H 0.2852 0.2500 0.6896
C3 C 0.4343(2) 0.2500 0.74316(17)
H2 H 0.4040 0.2500 0.7911
C4 C 0.5504(2) 0.2500 0.73339(17)
H3 H 0.5983 0.2500 0.7747
C5 C 0.5951(2) 0.2500 0.66265(16)
H4 H 0.6734 0.2500 0.6562
C6 C 0.52458(18) 0.2500 0.60078(13)
C7 C 0.57269(17) 0.2500 0.52435(14)
C8 C 0.49348(18) 0.2500 0.46006(13)
C9 C 0.37440(17) 0.2500 0.46920(13)
C10 C 0.32704(17) 0.2500 0.54653(13)
C11 C 0.30379(18) 0.2500 0.40626(13)
C12 C 0.3522(2) 0.2500 0.33460(13)
C13 C 0.4702(2) 0.2500 0.32751(15)
H5 H 0.5024 0.2500 0.2801
C14 C 0.5393(2) 0.2500 0.38871(14)
H6 H 0.6177 0.2500 0.3825
C15 C 0.2805(2) 0.2500 0.26555(15)
C16 C 0.17655(18) 0.2500 0.41095(12)
C17 C 0.11716(15) 0.0788(3) 0.41139(10)
H7 H 0.1562 -0.0381 0.4107
C18 C -0.00011(17) 0.0793(4) 0.41284(11)
H8 H -0.0396 -0.0372 0.4131
C19 C -0.0585(2) 0.2500 0.41388(15)
H9 H -0.1375 0.2500 0.4153
C17G C 0.11716(15) 0.4212(3) 0.41139(10)
H7G H 0.1562 0.5381 0.4107
C18G C -0.00011(17) 0.4207(4) 0.41284(11)
H8G H -0.0396 0.5372 0.4131
H10? H 0.2564 0.1204 0.2548
H11? H 0.3241 0.2990 0.2244
H12? H 0.2152 0.3306 0.2733
loop_
_geom_bond_atom_site_label_1
_geom_bond_atom_site_label_2
_geom_bond_site_symmetry_1
_geom_bond_site_symmetry_2
O1 C10 1_555 1_555
O2 C7 1_555 1_555
C1 C2 1_555 1_555
C2 H1 1_555 1_555
C3 C2 1_555 1_555
H2 C3 1_555 1_555
C4 C3 1_555 1_555
H3 C4 1_555 1_555
C5 C4 1_555 1_555
H4 C5 1_555 1_555
C6 C1 1_555 1_555
C7 C6 1_555 1_555
C8 C7 1_555 1_555
C9 C8 1_555 1_555
C10 C1 1_555 1_555
C11 C9 1_555 1_555
C12 C11 1_555 1_555
C13 C12 1_555 1_555
H5 C13 1_555 1_555
C14 C8 1_555 1_555
H6 C14 1_555 1_555
C15 C12 1_555 1_555
C16 C11 1_555 1_555
C17 C16 1_555 1_555
H7 C17 1_555 1_555
C18 C17 1_555 1_555
H8 C18 1_555 1_555
C19 C18 1_555 1_555
H9 C19 1_555 1_555
C17G C16 1_555 1_555
H7G C17G 1_555 1_555
C18G C19 1_555 1_555
H8G C18G 1_555 1_555
C5 C6 1_555 1_555
C9 C10 1_555 1_555
C13 C14 1_555 1_555
C17G C18G 1_555 1_555

#END
