
#######################################################################
#
#                 Cambridge Crystallographic Data Centre
#                                CCDC 
#
#######################################################################
#
# If this CIF has been generated from an entry in the Cambridge 
# Structural Database, then it will include bibliographic, chemical, 
# crystal, experimental, refinement or atomic coordinate data resulting 
# from the CCDC's data processing and validation procedures.
#
#######################################################################

data_IDAYAO
_chemical_formula_moiety         'C38 H44 O10'
_chemical_name_systematic        
'Tetraethyl 2,4,8,10-tetramethyl-6,12-diphenyl-3,9-dioxapentacyclo(6.4.0.0^2,7^.0^4,11^.0^5,10^)dodecane-1,5,7,11-tetracarboxylate'
_symmetry_cell_setting           monoclinic
_symmetry_space_group_name_H-M   'P 21/n'
_symmetry_Int_Tables_number      14
_space_group_name_Hall           '-P 2yn'
loop_
_symmetry_equiv_pos_site_id
_symmetry_equiv_pos_as_xyz
1 x,y,z
2 1/2-x,1/2+y,1/2-z
3 -x,-y,-z
4 1/2+x,1/2-y,1/2+z
_cell_length_a                   10.809(2)
_cell_length_b                   11.284(2)
_cell_length_c                   14.314(3)
_cell_angle_alpha                90
_cell_angle_beta                 99.18(3)
_cell_angle_gamma                90
_cell_volume                     1723.5
_exptl_crystal_colour            colorless
_exptl_crystal_description       block
_chemical_melting_point          '541-542 K'
_cell_formula_units_Z            2
_exptl_crystal_recrystallization_method methanol/dichloromethane
loop_
_atom_site_label
_atom_site_type_symbol
_atom_site_fract_x
_atom_site_fract_y
_atom_site_fract_z
O1 O 0.04041(12) 0.37996(12) 0.08696(9)
O2 O -0.34453(13) 0.45026(14) -0.11659(10)
O3 O -0.34671(15) 0.39159(17) 0.03133(12)
O4 O -0.02344(15) 0.64145(15) 0.24493(10)
O5 O -0.1995(2) 0.6957(2) 0.15614(13)
C1 C -0.07135(17) 0.44772(18) 0.08581(13)
C2 C -0.04534(18) 0.58613(18) 0.08510(13)
C3 C 0.09552(18) 0.61258(17) 0.09318(13)
H1 H 0.1340 0.5774 0.1534
C4 C -0.15084(18) 0.45711(18) -0.01592(13)
C5 C 0.12048(18) 0.40708(17) 0.01862(13)
C6 C 0.13597(18) 0.74236(19) 0.09895(14)
C7 C 0.1013(2) 0.82379(19) 0.02669(16)
H2 H 0.0456 0.8017 -0.0268
C8 C 0.1497(2) 0.9381(2) 0.03413(17)
H3 H 0.1258 0.9918 -0.0147
C9 C 0.2317(2) 0.9730(2) 0.11193(19)
H4 H 0.2639 1.0496 0.1159
C10 C 0.2664(2) 0.8929(2) 0.18506(18)
H5 H 0.3224 0.9153 0.2383
C11 C 0.2173(2) 0.7798(2) 0.17808(16)
H6 H 0.2394 0.7272 0.2280
C12 C -0.29060(19) 0.42916(19) -0.02781(15)
C13 C -0.4770(2) 0.4201(3) -0.14118(17)
H7 H -0.4898 0.3370 -0.1281
H8 H -0.5262 0.4672 -0.1038
C14 C -0.5168(3) 0.4448(3) -0.2436(2)
H9 H -0.6035 0.4239 -0.2615
H10 H -0.5060 0.5276 -0.2555
H11 H -0.4667 0.3989 -0.2799
C15 C -0.0994(2) 0.6502(2) 0.16262(16)
C16 C -0.0631(3) 0.6963(3) 0.32777(17)
H12 H -0.1410 0.7392 0.3092
H13 H 0.0000 0.7519 0.3567
C17 C -0.0810(4) 0.6013(3) 0.3961(2)
H14 H -0.1073 0.6358 0.4510
H15 H -0.0034 0.5598 0.4145
H16 H -0.1438 0.5468 0.3670
C18 C 0.22742(19) 0.31999(19) 0.04144(15)
H17 H 0.2629 0.3266 0.1071
H18 H 0.2905 0.3372 0.0032
H19 H 0.1967 0.2409 0.0285
C19 C -0.1279(2) 0.3974(2) 0.16777(14)
H20 H -0.0664 0.3986 0.2241
H21 H -0.1544 0.3173 0.1537
H22 H -0.1988 0.4445 0.1774
O1B O -0.04041(12) 0.62004(12) -0.08696(9)
O2B O 0.34453(13) 0.54974(14) 0.11659(10)
O3B O 0.34671(15) 0.60841(17) -0.03133(12)
O4B O 0.02344(15) 0.35855(15) -0.24493(10)
O5B O 0.1995(2) 0.3043(2) -0.15614(13)
C1B C 0.07135(17) 0.55228(18) -0.08581(13)
C2B C 0.04534(18) 0.41387(18) -0.08510(13)
C3B C -0.09552(18) 0.38742(17) -0.09318(13)
H1B H -0.1340 0.4226 -0.1534
C4B C 0.15084(18) 0.54289(18) 0.01592(13)
C5B C -0.12048(18) 0.59292(17) -0.01862(13)
C6B C -0.13597(18) 0.25764(19) -0.09895(14)
C7B C -0.1013(2) 0.17621(19) -0.02669(16)
H2B H -0.0456 0.1983 0.0268
C8B C -0.1497(2) 0.0619(2) -0.03413(17)
H3B H -0.1258 0.0082 0.0147
C9B C -0.2317(2) 0.0270(2) -0.11193(19)
H4B H -0.2639 -0.0496 -0.1159
C10B C -0.2664(2) 0.1071(2) -0.18506(18)
H5B H -0.3224 0.0847 -0.2383
C11B C -0.2173(2) 0.2202(2) -0.17808(16)
H6B H -0.2394 0.2728 -0.2280
C12B C 0.29060(19) 0.57084(19) 0.02781(15)
C13B C 0.4770(2) 0.5799(3) 0.14118(17)
H7B H 0.4898 0.6630 0.1281
H8B H 0.5262 0.5328 0.1038
C14B C 0.5168(3) 0.5552(3) 0.2436(2)
H9B H 0.6035 0.5761 0.2615
H10B H 0.5060 0.4724 0.2555
H11B H 0.4667 0.6011 0.2799
C15B C 0.0994(2) 0.3498(2) -0.16262(16)
C16B C 0.0631(3) 0.3037(3) -0.32777(17)
H12B H 0.1410 0.2608 -0.3092
H13B H 0.0000 0.2481 -0.3567
C17B C 0.0810(4) 0.3987(3) -0.3961(2)
H14B H 0.1073 0.3642 -0.4510
H15B H 0.0034 0.4402 -0.4145
H16B H 0.1438 0.4532 -0.3670
C18B C -0.22742(19) 0.68001(19) -0.04144(15)
H17B H -0.2629 0.6734 -0.1071
H18B H -0.2905 0.6628 -0.0032
H19B H -0.1967 0.7591 -0.0285
C19B C 0.1279(2) 0.6026(2) -0.16777(14)
H20B H 0.0664 0.6014 -0.2241
H21B H 0.1544 0.6827 -0.1537
H22B H 0.1988 0.5555 -0.1774
loop_
_geom_bond_atom_site_label_1
_geom_bond_atom_site_label_2
_geom_bond_site_symmetry_1
_geom_bond_site_symmetry_2
O1 C1 1_555 1_555
O2 C12 1_555 1_555
O3 C12 1_555 1_555
O4 C15 1_555 1_555
O5 C15 1_555 1_555
C1 C2 1_555 1_555
C2 C3 1_555 1_555
C3 H1 1_555 1_555
C4 C1 1_555 1_555
C5 O1 1_555 1_555
C6 C3 1_555 1_555
C7 C6 1_555 1_555
H2 C7 1_555 1_555
C8 C7 1_555 1_555
H3 C8 1_555 1_555
C9 C8 1_555 1_555
H4 C9 1_555 1_555
C10 C9 1_555 1_555
H5 C10 1_555 1_555
C11 C6 1_555 1_555
H6 C11 1_555 1_555
C12 C4 1_555 1_555
C13 O2 1_555 1_555
H7 C13 1_555 1_555
H8 C13 1_555 1_555
C14 C13 1_555 1_555
H9 C14 1_555 1_555
H10 C14 1_555 1_555
H11 C14 1_555 1_555
C15 C2 1_555 1_555
C16 O4 1_555 1_555
H12 C16 1_555 1_555
H13 C16 1_555 1_555
C17 C16 1_555 1_555
H14 C17 1_555 1_555
H15 C17 1_555 1_555
H16 C17 1_555 1_555
C18 C5 1_555 1_555
H17 C18 1_555 1_555
H18 C18 1_555 1_555
H19 C18 1_555 1_555
C19 C1 1_555 1_555
H20 C19 1_555 1_555
H21 C19 1_555 1_555
H22 C19 1_555 1_555
O1B C1B 1_555 1_555
O2B C12B 1_555 1_555
O3B C12B 1_555 1_555
O4B C15B 1_555 1_555
O5B C15B 1_555 1_555
C1B C2B 1_555 1_555
C2B C5 1_555 1_555
C3B C4 1_555 1_555
H1B C3B 1_555 1_555
C4B C3 1_555 1_555
C5B C2 1_555 1_555
C6B C3B 1_555 1_555
C7B C6B 1_555 1_555
H2B C7B 1_555 1_555
C8B C7B 1_555 1_555
H3B C8B 1_555 1_555
C9B C8B 1_555 1_555
H4B C9B 1_555 1_555
C10B C9B 1_555 1_555
H5B C10B 1_555 1_555
C11B C6B 1_555 1_555
H6B C11B 1_555 1_555
C12B C4B 1_555 1_555
C13B O2B 1_555 1_555
H7B C13B 1_555 1_555
H8B C13B 1_555 1_555
C14B C13B 1_555 1_555
H9B C14B 1_555 1_555
H10B C14B 1_555 1_555
H11B C14B 1_555 1_555
C15B C2B 1_555 1_555
C16B O4B 1_555 1_555
H12B C16B 1_555 1_555
H13B C16B 1_555 1_555
C17B C16B 1_555 1_555
H14B C17B 1_555 1_555
H15B C17B 1_555 1_555
H16B C17B 1_555 1_555
C18B C5B 1_555 1_555
H17B C18B 1_555 1_555
H18B C18B 1_555 1_555
H19B C18B 1_555 1_555
C19B C1B 1_555 1_555
H20B C19B 1_555 1_555
H21B C19B 1_555 1_555
H22B C19B 1_555 1_555
C4 C5B 1_555 1_555
C5 C4B 1_555 1_555
C10 C11 1_555 1_555
O1B C5B 1_555 1_555
C1B C4B 1_555 1_555
C2B C3B 1_555 1_555
C10B C11B 1_555 1_555

#END
