
#######################################################################
#
#                 Cambridge Crystallographic Data Centre
#                                CCDC 
#
#######################################################################
#
# If this CIF has been generated from an entry in the Cambridge 
# Structural Database, then it will include bibliographic, chemical, 
# crystal, experimental, refinement or atomic coordinate data resulting 
# from the CCDC's data processing and validation procedures.
#
#######################################################################

data_IDAZUJ
_chemical_formula_moiety         'C14 H14 Cl1 F3 N2 O1,0.5(C3 H6 O1)'
_chemical_name_systematic        
'3-((E)-2-Chloro-3,3,3-trifluoroprop-1-enyl)-2,2-dimethyl-N-(3-pyridyl)cyclopropanecarboxamide acetone solvate'
_chemical_properties_biological  'potential insecticidal activity'
_symmetry_cell_setting           monoclinic
_symmetry_space_group_name_H-M   'C 2/c'
_symmetry_Int_Tables_number      15
_space_group_name_Hall           '-C 2yn'
loop_
_symmetry_equiv_pos_site_id
_symmetry_equiv_pos_as_xyz
1 x,y,z
2 1/2+x,1/2+y,z
3 -x,y,1/2-z
4 1/2-x,1/2+y,1/2-z
5 -x,-y,-z
6 1/2-x,1/2-y,-z
7 x,-y,1/2+z
8 1/2+x,1/2-y,1/2+z
_cell_length_a                   24.274(5)
_cell_length_b                   12.330(2)
_cell_length_c                   11.4763(18)
_cell_angle_alpha                90
_cell_angle_beta                 90.761(6)
_cell_angle_gamma                90
_cell_volume                     3434.54
_exptl_crystal_colour            colorless
_exptl_crystal_description       block
_chemical_melting_point          150-153deg.C
_cell_formula_units_Z            8
_exptl_crystal_recrystallization_method acetone/water
loop_
_atom_site_label
_atom_site_type_symbol
_atom_site_fract_x
_atom_site_fract_y
_atom_site_fract_z
C15 C 0.0604(3) 0.3387(10) 0.2302(16)
H15 H 0.0769 0.2882 0.1774
H17 H 0.0802 0.3376 0.3032
C16 C 0.0000 0.3098(6) 0.2500
C17 C 0.0325(5) 0.3878(10) 0.1812(15)
H19 H 0.0150 0.3877 0.1058
H20 H 0.0333 0.4604 0.2114
O2 O -0.0128(4) 0.2136(5) 0.2390(12)
C15B C -0.0604(3) 0.3387(10) 0.2698(16)
H15B H -0.0769 0.2882 0.3226
H17B H -0.0802 0.3376 0.1968
C17B C -0.0325(5) 0.3878(10) 0.3188(15)
H19B H -0.0150 0.3877 0.3942
H20B H -0.0333 0.4604 0.2886
O2B O 0.0128(4) 0.2136(5) 0.2610(12)
Cl1 Cl 0.38602(5) 0.15160(13) 0.16376(12)
N1 N 0.15578(11) 0.0891(2) 0.2849(2)
H1 H 0.1420(11) 0.086(2) 0.208(3)
N2 N 0.11527(12) -0.0682(2) 0.5435(2)
O1 O 0.21832(10) 0.1638(2) 0.41007(18)
C1 C 0.14382(13) -0.0053(3) 0.4729(2)
H2 H 0.1775 0.0214 0.4996
C2 C 0.12648(13) 0.0229(2) 0.3621(2)
C3 C 0.07680(15) -0.0166(3) 0.3255(3)
H3 H 0.0630 0.0013 0.2520
C4 C 0.04733(17) -0.0822(4) 0.3968(3)
H4 H 0.0138 -0.1112 0.3718
C5 C 0.06762(16) -0.1049(3) 0.5056(3)
H5 H 0.0468 -0.1481 0.5547
C6 C 0.19827(13) 0.1562(3) 0.3123(3)
C7 C 0.21704(14) 0.2216(3) 0.2118(3)
H6 H 0.2029 0.1966 0.1360
C8 C 0.27532(15) 0.2690(3) 0.2085(3)
H7 H 0.2918 0.2686 0.1311
C9 C 0.22669(14) 0.3421(3) 0.2189(3)
C10 C 0.20944(18) 0.4051(4) 0.1107(3)
H8 H 0.2282 0.4736 0.1099
H9 H 0.1704 0.4171 0.1115
H10 H 0.2188 0.3644 0.0425
C11 C 0.21635(16) 0.4031(3) 0.3303(3)
H11 H 0.2248 0.3573 0.3958
H12 H 0.1783 0.4244 0.3328
H13 H 0.2393 0.4665 0.3333
C12 C 0.31468(14) 0.2508(3) 0.3044(3)
H14 H 0.3045 0.2729 0.3785
C13 C 0.36280(16) 0.2058(3) 0.2932(4)
C14 C 0.40216(16) 0.1909(3) 0.3906(5)
F1 F 0.4061(2) 0.0879(3) 0.4278(4)
F2 F 0.45348(15) 0.2158(5) 0.3623(5)
F3 F 0.3893(2) 0.2463(4) 0.4845(4)
F4? F 0.4274(6) 0.0973(8) 0.3811(14)
F5? F 0.4404(5) 0.2693(9) 0.4006(13)
F6? F 0.3790(5) 0.1931(12) 0.4959(9)
H16? H 0.0618 0.4104 0.1975
H18? H -0.0695 0.3611 0.3253
loop_
_geom_bond_atom_site_label_1
_geom_bond_atom_site_label_2
_geom_bond_site_symmetry_1
_geom_bond_site_symmetry_2
Cl1 C13 1_555 1_555
N1 H1 1_555 1_555
N2 C1 1_555 1_555
O1 C6 1_555 1_555
C1 H2 1_555 1_555
C2 N1 1_555 1_555
C3 C2 1_555 1_555
H3 C3 1_555 1_555
C4 C3 1_555 1_555
H4 C4 1_555 1_555
C5 N2 1_555 1_555
H5 C5 1_555 1_555
C6 N1 1_555 1_555
C7 C6 1_555 1_555
H6 C7 1_555 1_555
C8 C7 1_555 1_555
H7 C8 1_555 1_555
C9 C7 1_555 1_555
C10 C9 1_555 1_555
H8 C10 1_555 1_555
H9 C10 1_555 1_555
H10 C10 1_555 1_555
C11 C9 1_555 1_555
H11 C11 1_555 1_555
H12 C11 1_555 1_555
H13 C11 1_555 1_555
C12 C8 1_555 1_555
H14 C12 1_555 1_555
C13 C12 1_555 1_555
C14 C13 1_555 1_555
F1 C14 1_555 1_555
F2 C14 1_555 1_555
F3 C14 1_555 1_555
C15 H15 1_555 1_555
H17 C15 1_555 1_555
C16 C15 1_555 1_555
C17 C15 1_555 1_555
H19 C17 1_555 1_555
H20 C17 1_555 1_555
O2 C16 1_555 1_555
C15B C16 1_555 1_555
H15B C15B 1_555 1_555
H17B C15B 1_555 1_555
C17B C16 1_555 1_555
H19B C17B 1_555 1_555
H20B C17B 1_555 1_555
O2B C16 1_555 1_555
C1 C2 1_555 1_555
C4 C5 1_555 1_555
C8 C9 1_555 1_555
C16 C17 1_555 1_555
O2 O2B 1_555 1_555
C15B C17B 1_555 1_555

#END
