
#######################################################################
#
#                 Cambridge Crystallographic Data Centre
#                                CCDC 
#
#######################################################################
#
# If this CIF has been generated from an entry in the Cambridge 
# Structural Database, then it will include bibliographic, chemical, 
# crystal, experimental, refinement or atomic coordinate data resulting 
# from the CCDC's data processing and validation procedures.
#
#######################################################################

data_IDEBIF
_chemical_formula_moiety         'C20 H28 B1 F1 N2'
_chemical_name_systematic        
4-((4-(dimethylamino)-2,6-dimethylphenyl)(fluoro)boryl)-N,N,3,5-tetramethylaniline
_symmetry_cell_setting           monoclinic
_symmetry_space_group_name_H-M   'P 21/n'
_symmetry_Int_Tables_number      14
_space_group_name_Hall           '-P 2yn'
loop_
_symmetry_equiv_pos_site_id
_symmetry_equiv_pos_as_xyz
1 x,y,z
2 1/2-x,1/2+y,1/2-z
3 -x,-y,-z
4 1/2+x,1/2-y,1/2+z
_cell_length_a                   8.161(2)
_cell_length_b                   9.881(4)
_cell_length_c                   22.738(6)
_cell_angle_alpha                90
_cell_angle_beta                 91.052(16)
_cell_angle_gamma                90
_cell_volume                     1833.26
_exptl_crystal_colour            yellow
_exptl_crystal_description       block
_cell_formula_units_Z            4
loop_
_atom_site_label
_atom_site_type_symbol
_atom_site_fract_x
_atom_site_fract_y
_atom_site_fract_z
F1 F 1.03586(11) 0.57809(9) 0.36387(5)
N1 N 0.70483(17) 1.04183(13) 0.52474(6)
N2 N 0.49640(18) 0.13675(14) 0.28763(6)
C1 C 0.83797(17) 0.70203(14) 0.42363(7)
C2 C 0.87923(18) 0.83507(14) 0.40629(7)
C3 C 0.83602(18) 0.94579(15) 0.44000(7)
H1 H 0.8643 1.0340 0.4270
C4 C 0.75146(18) 0.93120(14) 0.49288(7)
C5 C 0.71610(18) 0.79848(15) 0.51125(7)
H2 H 0.6624 0.7851 0.5475
C6 C 0.75763(18) 0.68708(15) 0.47781(7)
C7 C 0.9698(2) 0.86047(16) 0.34998(7)
H3 H 0.9728 0.9579 0.3421
H4 H 0.9132 0.8141 0.3173
H5 H 1.0819 0.8258 0.3540
C8 C 0.7215(2) 0.54761(15) 0.50209(7)
H6 H 0.6669 0.5565 0.5399
H7 H 0.8243 0.4976 0.5077
H8 H 0.6498 0.4985 0.4744
C9 C 0.7493(2) 1.17756(15) 0.50630(7)
H9 H 0.7087 1.2435 0.5348
H10 H 0.7004 1.1962 0.4675
H11 H 0.8689 1.1846 0.5042
C10 C 0.6242(2) 1.02488(16) 0.58030(7)
H12 H 0.5920 1.1136 0.5955
H13 H 0.6994 0.9811 0.6085
H14 H 0.5265 0.9684 0.5746
C11 C 0.77042(18) 0.45960(14) 0.36284(6)
C12 C 0.60291(19) 0.47614(15) 0.34664(7)
C13 C 0.51292(19) 0.36977(16) 0.32235(7)
H15 H 0.4009 0.3839 0.3120
C14 C 0.58303(19) 0.24211(15) 0.31264(6)
C15 C 0.74735(19) 0.22527(15) 0.32987(6)
H16 H 0.7974 0.1394 0.3247
C16 C 0.83920(18) 0.32949(14) 0.35414(6)
C17 C 0.5157(2) 0.61017(17) 0.35345(8)
H17 H 0.3989 0.5986 0.3440
H18 H 0.5629 0.6767 0.3267
H19 H 0.5289 0.6419 0.3941
C18 C 1.01262(19) 0.29807(16) 0.37311(8)
H20 H 1.0298 0.1999 0.3723
H21 H 1.0323 0.3319 0.4131
H22 H 1.0887 0.3419 0.3462
C19 C 0.5702(2) 0.00345(16) 0.28302(8)
H23 H 0.4892 -0.0604 0.2669
H24 H 0.6067 -0.0271 0.3221
H25 H 0.6643 0.0079 0.2570
C20 C 0.3280(2) 0.15328(18) 0.26856(8)
H26 H 0.2920 0.0724 0.2470
H27 H 0.3187 0.2325 0.2428
H28 H 0.2590 0.1662 0.3029
B1 B 0.8810(2) 0.57932(17) 0.38429(8)
loop_
_geom_bond_atom_site_label_1
_geom_bond_atom_site_label_2
_geom_bond_site_symmetry_1
_geom_bond_site_symmetry_2
F1 B1 1_555 1_555
N1 C4 1_555 1_555
N2 C14 1_555 1_555
C1 C2 1_555 1_555
C2 C3 1_555 1_555
C3 H1 1_555 1_555
C4 C3 1_555 1_555
C5 C4 1_555 1_555
H2 C5 1_555 1_555
C6 C1 1_555 1_555
C7 C2 1_555 1_555
H3 C7 1_555 1_555
H4 C7 1_555 1_555
H5 C7 1_555 1_555
C8 C6 1_555 1_555
H6 C8 1_555 1_555
H7 C8 1_555 1_555
H8 C8 1_555 1_555
C9 N1 1_555 1_555
H9 C9 1_555 1_555
H10 C9 1_555 1_555
H11 C9 1_555 1_555
C10 N1 1_555 1_555
H12 C10 1_555 1_555
H13 C10 1_555 1_555
H14 C10 1_555 1_555
C11 C12 1_555 1_555
C12 C13 1_555 1_555
C13 H15 1_555 1_555
C14 C13 1_555 1_555
C15 C14 1_555 1_555
H16 C15 1_555 1_555
C16 C11 1_555 1_555
C17 C12 1_555 1_555
H17 C17 1_555 1_555
H18 C17 1_555 1_555
H19 C17 1_555 1_555
C18 C16 1_555 1_555
H20 C18 1_555 1_555
H21 C18 1_555 1_555
H22 C18 1_555 1_555
C19 N2 1_555 1_555
H23 C19 1_555 1_555
H24 C19 1_555 1_555
H25 C19 1_555 1_555
C20 N2 1_555 1_555
H26 C20 1_555 1_555
H27 C20 1_555 1_555
H28 C20 1_555 1_555
B1 C1 1_555 1_555
C5 C6 1_555 1_555
C11 B1 1_555 1_555
C15 C16 1_555 1_555

#END
