
#######################################################################
#
#                 Cambridge Crystallographic Data Centre
#                                CCDC 
#
#######################################################################
#
# If this CIF has been generated from an entry in the Cambridge 
# Structural Database, then it will include bibliographic, chemical, 
# crystal, experimental, refinement or atomic coordinate data resulting 
# from the CCDC's data processing and validation procedures.
#
#######################################################################

data_IDEBEY
_chemical_formula_moiety         'C60 H72 N24 O12,18(H2 O1)'
_chemical_name_systematic        
'hexakis(Butano)cucurbit(6)uril octadecahydrate'
_symmetry_cell_setting           triclinic
_symmetry_space_group_name_H-M   'P -1'
_symmetry_Int_Tables_number      2
_space_group_name_Hall           '-P 1'
loop_
_symmetry_equiv_pos_site_id
_symmetry_equiv_pos_as_xyz
1 x,y,z
2 -x,-y,-z
_cell_length_a                   12.75050(10)
_cell_length_b                   15.1302(3)
_cell_length_c                   19.3353(4)
_cell_angle_alpha                91.2977(8)
_cell_angle_beta                 92.8870(8)
_cell_angle_gamma                92.9115(1)
_cell_volume                     3719.39
_exptl_crystal_colour            colorless
_exptl_crystal_description       block
_cell_formula_units_Z            2
loop_
_atom_site_label
_atom_site_type_symbol
_atom_site_fract_x
_atom_site_fract_y
_atom_site_fract_z
O1 O 0.5804(3) 0.7226(2) 0.36121(19)
O2 O 0.3995(3) 0.7928(2) 0.48842(18)
O3 O 0.4532(3) 0.7237(2) 0.64075(19)
O4 O 0.6865(3) 0.6140(2) 0.69398(19)
O5 O 0.1536(3) 0.4434(2) 0.42752(19)
O6 O 0.8057(3) 0.6189(2) 0.3936(2)
N1 N 0.7208(3) 0.5301(3) 0.3071(2)
N2 N 0.5597(3) 0.6063(3) 0.2821(2)
N3 N 0.4170(3) 0.6707(3) 0.3169(2)
N4 N 0.2979(3) 0.7123(3) 0.40486(19)
N5 N 0.2440(3) 0.7193(3) 0.5125(2)
N6 N 0.2797(3) 0.6758(2) 0.6315(2)
N7 N 0.3896(3) 0.6059(2) 0.7020(2)
N8 N 0.5475(3) 0.5303(2) 0.7349(2)
N9 N 0.3073(3) 0.5367(2) 0.2897(2)
N10 N 0.1873(3) 0.5785(3) 0.3779(2)
N11 N 0.1522(3) 0.5754(3) 0.4895(2)
N12 N 0.1854(3) 0.5332(3) 0.6094(2)
C1 C 0.6711(4) 0.6008(3) 0.2712(3)
H1 H 0.6802 0.5929 0.2214
H2 H 0.7074 0.6571 0.2862
C2 C 0.5250(4) 0.6709(3) 0.3247(2)
C3 C 0.3598(4) 0.7398(3) 0.3476(3)
H3 H 0.3127 0.7635 0.3117
H4 H 0.4099 0.7879 0.3639
C4 C 0.3222(4) 0.7450(3) 0.4706(3)
C5 C 0.2471(4) 0.7443(3) 0.5849(2)
H5 H 0.1770 0.7615 0.5967
H6 H 0.2955 0.7964 0.5927
C6 C 0.3817(4) 0.6727(3) 0.6558(2)
C7 C 0.4827(4) 0.6040(3) 0.7477(2)
H7 H 0.5251 0.6591 0.7432
H8 H 0.4611 0.6018 0.7956
C8 C 0.7131(4) 0.4366(3) 0.2857(2)
C9 C 0.7469(4) 0.4213(4) 0.2125(2)
H9 H 0.7009 0.4525 0.1803
H10 H 0.7386 0.3579 0.2007
C10 C 0.8606(4) 0.4531(4) 0.2038(3)
H11 H 0.8640 0.5176 0.1998
H12 H 0.8843 0.4276 0.1606
C11 C 0.2939(5) 0.5879(4) 0.1414(3)
H13 H 0.2725 0.6210 0.1005
H14 H 0.2340 0.5489 0.1531
C12 C 0.3217(4) 0.6529(3) 0.2016(3)
H15 H 0.2576 0.6794 0.2162
H16 H 0.3693 0.7006 0.1863
C13 C 0.3739(4) 0.6076(3) 0.2629(2)
C14 C 0.1911(4) 0.6718(3) 0.3978(3)
C15 C 0.1187(4) 0.7264(3) 0.3522(3)
H17 H 0.1487 0.7347 0.3069
H18 H 0.0498 0.6951 0.3447
C16 C 0.1063(5) 0.8160(4) 0.3873(3)
H19 H 0.0628 0.8519 0.3569
H20 H 0.1756 0.8469 0.3945
C17 C 0.0557(5) 0.8068(4) 0.4570(3)
H21 H 0.0950 0.8457 0.4914
H22 H -0.0163 0.8265 0.4525
C18 C 0.0526(4) 0.7123(3) 0.4832(3)
H23 H 0.0364 0.7129 0.5322
H24 H -0.0034 0.6768 0.4573
C19 C 0.1574(4) 0.6700(3) 0.4747(3)
C20 C 0.2117(4) 0.6065(3) 0.6585(2)
C21 C 0.1138(4) 0.6411(4) 0.6910(3)
H25 H 0.1335 0.6947 0.7191
H26 H 0.0627 0.6566 0.6543
C22 C 0.9356(4) 0.4282(4) 0.2640(3)
H27 H 0.9561 0.4813 0.2924
H28 H 0.9995 0.4058 0.2453
C23 C 0.3858(5) 0.5315(4) 0.1239(3)
H29 H 0.3965 0.5346 0.0742
H30 H 0.3676 0.4696 0.1342
C24 C 0.4882(4) 0.5610(3) 0.1641(2)
H31 H 0.5099 0.6212 0.1512
H32 H 0.5436 0.5217 0.1521
C25 C 0.4740(4) 0.5589(3) 0.2416(2)
C26 C 0.6456(4) 0.5433(3) 0.7105(2)
C27 C 0.1996(4) 0.5431(3) 0.3083(3)
H33 H 0.1644 0.4840 0.3041
H34 H 0.1639 0.5809 0.2751
C28 C 0.1649(4) 0.5235(3) 0.4314(3)
C29 C 0.1103(4) 0.5363(3) 0.5504(2)
H35 H 0.0833 0.4759 0.5383
H36 H 0.0508 0.5700 0.5642
C30 C 0.7811(4) 0.5460(3) 0.3672(3)
N7A N 0.6104(3) 0.3941(2) 0.2980(2)
C6A C 0.6183(4) 0.3273(3) 0.3442(2)
O3A O 0.5468(3) 0.2763(2) 0.35925(19)
N6A N 0.7203(3) 0.3242(2) 0.3685(2)
C5A C 0.7529(4) 0.2557(3) 0.4151(2)
N5A N 0.7560(3) 0.2807(3) 0.4875(2)
C4A C 0.6778(4) 0.2550(3) 0.5294(3)
O2A O 0.6005(3) 0.2072(2) 0.51158(18)
N4A N 0.7021(3) 0.2877(3) 0.59514(19)
C3A C 0.6402(4) 0.2602(3) 0.6524(3)
N3A N 0.5830(3) 0.3293(3) 0.6831(2)
C2A C 0.4750(4) 0.3291(3) 0.6753(2)
O1A O 0.4196(3) 0.2774(2) 0.63879(19)
N2A N 0.4403(3) 0.3937(3) 0.7179(2)
C1A C 0.3289(4) 0.3992(3) 0.7288(3)
N1A N 0.2792(3) 0.4699(3) 0.6929(2)
C8A C 0.2869(4) 0.5634(3) 0.7143(2)
C26A C 0.3544(4) 0.4567(3) 0.2895(2)
O4A O 0.3135(3) 0.3860(2) 0.30602(19)
N8A N 0.4525(3) 0.4697(2) 0.2651(2)
C7A C 0.5173(4) 0.3960(3) 0.2523(2)
H7A H 0.4749 0.3409 0.2568
H8A H 0.5389 0.3982 0.2044
C9A C 0.2531(4) 0.5787(4) 0.7875(2)
H9A H 0.2991 0.5475 0.8197
H10A H 0.2614 0.6421 0.7993
C10A C 0.1394(4) 0.5469(4) 0.7962(3)
H11A H 0.1360 0.4824 0.8002
H12A H 0.1157 0.5724 0.8394
C22A C 0.0644(4) 0.5718(4) 0.7360(3)
H27A H 0.0439 0.5187 0.7076
H28A H 0.0005 0.5942 0.7547
C30A C 0.2189(4) 0.4540(3) 0.6328(3)
O6A O 0.1943(3) 0.3811(2) 0.6064(2)
C25A C 0.5260(4) 0.4411(3) 0.7584(2)
C13A C 0.6261(4) 0.3924(3) 0.7371(2)
N9A N 0.6927(3) 0.4633(2) 0.7103(2)
C27A C 0.8004(4) 0.4569(3) 0.6917(3)
N10A N 0.8127(3) 0.4215(3) 0.6221(2)
C14A C 0.8089(4) 0.3282(3) 0.6022(3)
C15A C 0.8813(4) 0.2736(3) 0.6478(3)
H17A H 0.8513 0.2653 0.6931
H18A H 0.9502 0.3049 0.6553
C16A C 0.8937(5) 0.1840(4) 0.6127(3)
H19A H 0.9372 0.1481 0.6431
H20A H 0.8244 0.1531 0.6055
C17A C 0.9443(5) 0.1932(4) 0.5430(3)
H21A H 0.9050 0.1543 0.5086
H22A H 1.0163 0.1735 0.5475
C18A C 0.9474(4) 0.2877(3) 0.5168(3)
H23A H 0.9636 0.2871 0.4678
H24A H 1.0034 0.3232 0.5427
C19A C 0.8426(4) 0.3300(3) 0.5253(3)
N11A N 0.8478(3) 0.4246(3) 0.5105(2)
C28A C 0.8351(4) 0.4765(3) 0.5686(3)
O5A O 0.8464(3) 0.5566(2) 0.57248(19)
C29A C 0.8897(4) 0.4637(3) 0.4496(2)
N12A N 0.8146(3) 0.4668(3) 0.3906(2)
C20A C 0.7883(4) 0.3935(3) 0.3415(2)
C21A C 0.8862(4) 0.3589(4) 0.3090(3)
H25A H 0.8665 0.3053 0.2809
H26A H 0.9373 0.3434 0.3457
H35A H 0.9167 0.5241 0.4617
H36A H 0.9492 0.4300 0.4358
H33A H 0.8356 0.5160 0.6959
H34A H 0.8361 0.4191 0.7249
C12A C 0.6783(4) 0.3471(3) 0.7984(3)
C11A C 0.7061(5) 0.4121(4) 0.8586(3)
H13A H 0.7275 0.3790 0.8995
H14A H 0.7660 0.4511 0.8469
C23A C 0.6142(5) 0.4685(4) 0.8761(3)
H29A H 0.6035 0.4654 0.9258
H30A H 0.6324 0.5304 0.8658
C24A C 0.5118(4) 0.4390(3) 0.8359(2)
H31A H 0.4901 0.3788 0.8488
H32A H 0.4564 0.4783 0.8479
H15A H 0.7424 0.3206 0.7838
H16A H 0.6307 0.2994 0.8137
H1A H 0.3198 0.4071 0.7786
H2A H 0.2926 0.3429 0.7138
H3A H 0.6873 0.2365 0.6883
H4A H 0.5901 0.2121 0.6361
H5A H 0.8230 0.2385 0.4033
H6A H 0.7045 0.2036 0.4073
O7 O 0.8427(3) 1.0642(2) 0.95139(19)
O8 O 0.6696(3) 1.1195(2) 0.81570(19)
O9 O 0.4399(3) 1.2247(2) 0.85588(19)
O10 O 0.3878(3) 1.2903(2) 1.01847(19)
O11 O 0.4303(3) 0.7691(2) 0.8510(2)
O12 O 0.1977(3) 0.8735(2) 0.8810(2)
N13 N 0.8080(3) 0.9303(3) 0.8938(2)
N14 N 0.6855(3) 0.9688(3) 0.7992(2)
N15 N 0.5351(3) 1.0278(3) 0.7679(2)
N16 N 0.3750(3) 1.1036(2) 0.7902(2)
N17 N 0.2713(3) 1.1652(2) 0.8637(2)
N18 N 0.2367(3) 1.2104(2) 0.98174(19)
N19 N 0.2853(3) 1.2120(3) 1.0936(2)
N20 N 0.5882(3) 0.8290(3) 0.8153(2)
N21 N 0.4396(3) 0.8867(3) 0.7770(2)
N22 N 0.2802(3) 0.9614(3) 0.8020(2)
N23 N 0.1761(3) 1.0237(3) 0.8757(2)
N24 N 0.8584(3) 0.9324(2) 1.0057(2)
C31 C 0.8352(4) 0.9839(3) 0.9505(3)
C32 C 0.7938(4) 0.9669(3) 0.8256(3)
H37 H 0.8326 0.9322 0.7930
H38 H 0.8250 1.0275 0.8270
C33 C 0.6333(4) 1.0457(3) 0.7971(2)
C34 C 0.4668(4) 1.0988(3) 0.7491(3)
H39 H 0.5078 1.1554 0.7541
H40 H 0.4434 1.0907 0.7002
C35 C 0.3693(4) 1.1693(3) 0.8390(2)
C36 C 0.2384(4) 1.2346(3) 0.9102(2)
H41 H 0.2861 1.2870 0.9067
H42 H 0.1678 1.2509 0.8946
C37 C 0.3112(4) 1.2411(3) 1.0297(3)
C38 C 0.8161(4) 0.8366(3) 0.9079(2)
C39 C 0.8955(5) 0.7926(4) 0.8638(3)
H43 H 0.9613 0.8293 0.8655
H44 H 0.8681 0.7879 0.8155
C40 C 0.9177(6) 0.7000(4) 0.8899(3)
H45 H 0.8551 0.6606 0.8799
H46 H 0.9752 0.6767 0.8644
C41 C 0.6242(4) 0.8942(3) 0.7663(2)
C42 C 0.6788(4) 0.8537(4) 0.7059(3)
H47 H 0.7460 0.8317 0.7231
H48 H 0.6352 0.8031 0.6864
C43 C 0.6991(5) 0.9192(4) 0.6490(3)
H49 H 0.7217 0.8873 0.6081
H50 H 0.7562 0.9618 0.6648
C44 C 0.6004(5) 0.9694(4) 0.6289(3)
H51 H 0.6131 1.0320 0.6425
H52 H 0.5880 0.9658 0.5785
C45 C 0.5030(4) 0.9334(3) 0.6625(3)
H53 H 0.4868 0.8721 0.6466
H54 H 0.4432 0.9684 0.6486
C46 C 0.5193(4) 0.9370(3) 0.7411(2)
C47 C 0.2754(4) 1.0524(3) 0.7775(2)
C48 C 0.2320(4) 1.0561(4) 0.7031(3)
H55 H 0.1687 1.0167 0.6969
H56 H 0.2842 1.0349 0.6720
C49 C 0.2049(4) 1.1499(4) 0.6835(3)
H57 H 0.2702 1.1861 0.6796
H58 H 0.1671 1.1476 0.6380
C50 C 0.1376(4) 1.1937(4) 0.7361(3)
H59 H 0.1770 1.2457 0.7569
H60 H 0.0742 1.2141 0.7119
C51 C 0.1052(4) 1.1325(3) 0.7932(3)
H61 H 0.0591 1.0835 0.7735
H62 H 0.0659 1.1651 0.8269
C52 C 0.2023(4) 1.0956(3) 0.8298(2)
C53 C 0.8512(4) 0.8378(3) 0.9874(2)
C54 C 0.9542(4) 0.7919(3) 1.0011(3)
H63 H 0.9687 0.7877 1.0512
H64 H 1.0123 0.8270 0.9822
C55 C 0.9472(4) 0.6992(3) 0.9676(3)
H65 H 1.0151 0.6724 0.9747
H66 H 0.8944 0.6625 0.9905
C56 C 0.3486(4) 1.2394(3) 1.1557(3)
H67 H 0.3019 1.2594 1.1909
H68 H 0.3954 1.2900 1.1447
C57 C 0.4817(4) 0.8231(3) 0.8185(3)
C58 C 0.3267(4) 0.8903(3) 0.7643(3)
H69 H 0.2930 0.8338 0.7770
H70 H 0.3117 0.8975 0.7146
C59 C 0.2175(4) 0.9450(3) 0.8558(3)
C60 C 0.8990(4) 0.9714(3) 1.0709(2)
H71 H 0.9575 0.9370 1.0882
H72 H 0.9275 1.0314 1.0628
C38A C 0.1839(4) 1.1634(3) 1.0921(2)
N13A N 0.1920(3) 1.0697(3) 1.1062(2)
C31A C 0.1648(4) 1.0161(3) 1.0495(3)
O7A O 0.1573(3) 0.9358(2) 1.04861(19)
N24A N 0.1416(3) 1.0676(2) 0.9943(2)
C53A C 0.1488(4) 1.1622(3) 1.0126(2)
C39A C 0.1045(5) 1.2074(4) 1.1362(3)
H43A H 0.0387 1.1707 1.1345
H44A H 0.1319 1.2121 1.1845
C40A C 0.0823(6) 1.3000(4) 1.1101(3)
H45A H 0.1449 1.3394 1.1201
H46A H 0.0248 1.3233 1.1356
C55A C 0.0528(4) 1.3008(3) 1.0324(3)
C54A C 0.0458(4) 1.2081(3) 0.9989(3)
H63A H 0.0313 1.2123 0.9488
H64A H -0.0123 1.1730 1.0178
H65A H -0.0151 1.3276 1.0253
H66A H 0.1056 1.3375 1.0095
C60A C 0.1010(4) 1.0286(3) 0.9291(2)
C56A C 0.6514(4) 0.7606(3) 0.8443(3)
N19A N 0.7147(3) 0.7880(3) 0.9064(2)
C37A C 0.6888(4) 0.7589(3) 0.9703(3)
O10A O 0.6122(3) 0.7097(2) 0.98153(19)
N18A N 0.7633(3) 0.7896(2) 1.01826(19)
C36A C 0.7616(4) 0.7654(3) 1.0898(2)
N17A N 0.7287(3) 0.8348(2) 1.1363(2)
C35A C 0.6307(4) 0.8307(3) 1.1610(2)
O9A O 0.5601(3) 0.7753(2) 1.14412(19)
N16A N 0.6250(3) 0.8964(2) 1.2098(2)
C34A C 0.5332(4) 0.9012(3) 1.2509(3)
N15A N 0.4649(3) 0.9722(3) 1.2321(2)
C33A C 0.3667(4) 0.9543(3) 1.2029(2)
O8A O 0.3304(3) 0.8805(2) 1.18430(19)
N14A N 0.3145(3) 1.0312(3) 1.2008(2)
C32A C 0.2062(4) 1.0331(3) 1.1744(3)
H37A H 0.1674 1.0678 1.2070
H38A H 0.1750 0.9725 1.1730
C41A C 0.3758(4) 1.1058(3) 1.2337(2)
N20A N 0.4118(3) 1.1710(3) 1.1847(2)
C57A C 0.5183(4) 1.1769(3) 1.1815(3)
O11A O 0.5697(3) 1.2309(2) 1.1490(2)
N21A N 0.5604(3) 1.1133(3) 1.2230(2)
C46A C 0.4807(4) 1.0630(3) 1.2589(2)
C42A C 0.3212(4) 1.1463(4) 1.2941(3)
H47A H 0.2540 1.1683 1.2769
H48A H 0.3648 1.1969 1.3136
C43A C 0.3009(5) 1.0808(4) 1.3510(3)
H49A H 0.2783 1.1127 1.3919
H50A H 0.2438 1.0382 1.3352
C44A C 0.3996(5) 1.0306(4) 1.3711(3)
H51A H 0.3869 0.9680 1.3575
H52A H 0.4120 1.0342 1.4215
C45A C 0.4970(4) 1.0666(3) 1.3375(3)
H53A H 0.5132 1.1279 1.3534
H54A H 0.5568 1.0316 1.3514
C58A C 0.6733(4) 1.1097(3) 1.2357(3)
N22A N 0.7198(3) 1.0386(3) 1.1980(2)
C47A C 0.7246(4) 0.9476(3) 1.2225(2)
C48A C 0.7680(4) 0.9439(4) 1.2969(3)
H55A H 0.8313 0.9833 1.3031
H56A H 0.7158 0.9651 1.3280
C49A C 0.7951(4) 0.8501(4) 1.3165(3)
H57A H 0.7298 0.8139 1.3204
H58A H 0.8329 0.8524 1.3620
C50A C 0.8624(4) 0.8063(4) 1.2639(3)
H59A H 0.8230 0.7543 1.2431
H60A H 0.9258 0.7859 1.2881
C51A C 0.8948(4) 0.8675(3) 1.2068(3)
H61A H 0.9409 0.9165 1.2265
H62A H 0.9341 0.8349 1.1731
C52A C 0.7977(4) 0.9044(3) 1.1702(2)
N23A N 0.8239(3) 0.9763(3) 1.1243(2)
C59A C 0.7825(4) 1.0550(3) 1.1442(3)
O12A O 0.8023(3) 1.1265(2) 1.1190(2)
H69A H 0.7070 1.1662 1.2230
H70A H 0.6883 1.1025 1.2854
H39A H 0.4922 0.8446 1.2459
H40A H 0.5566 0.9093 1.2998
H41A H 0.7139 0.7130 1.0933
H42A H 0.8322 0.7491 1.1054
H67A H 0.6981 0.7406 0.8091
H68A H 0.6046 0.7100 0.8553
H71A H 0.0425 1.0630 0.9118
H72A H 0.0725 0.9686 0.9372
O13 O 0.3240(3) 1.4466(2) 0.9489(2)
O14 O 0.8446(3) 0.4525(3) 0.0222(2)
O15 O 0.5755(3) 0.3905(2) 0.0603(2)
O16 O 0.7550(4) 0.2824(3) 0.0437(2)
O17 O 0.1514(3) 0.0591(3) 0.5039(2)
O18 O 0.0338(3) 0.5204(3) 0.0941(2)
O19 O 0.5818(3) 0.8834(3) 0.4435(2)
O20 O 0.6829(3) 0.0449(3) 0.4641(2)
O21 O -0.0081(4) 0.0164(3) 0.4003(2)
O22 O 0.7726(4) 0.7621(3) 0.4894(3)
O23 O 0.3850(4) 0.3250(4) 0.4441(3)
O24 O 0.0252(6) 0.6680(5) 0.1807(4)
O25 O 0.0054(8) 0.1288(6) 0.2892(4)
O26 O 0.1393(6) 0.7960(6) 0.1420(5)
O28 O 0.3897(8) 0.8057(9) 0.0494(6)
O30 O 0.1238(4) 0.2672(3) 0.3665(3)
O31 O 0.416(2) 0.490(2) 0.5282(17)
O32 O 0.6045(18) 0.989(2) 1.0021(19)
O27? O 0.2009(12) 0.7774(6) 0.0885(8)
O29? O 0.4482(15) 0.8455(12) 0.0157(11)
loop_
_geom_bond_atom_site_label_1
_geom_bond_atom_site_label_2
_geom_bond_site_symmetry_1
_geom_bond_site_symmetry_2
O1 C2 1_555 1_555
O2 C4 1_555 1_555
O3 C6 1_555 1_555
O4 C26 1_555 1_555
O5 C28 1_555 1_555
O6 C30 1_555 1_555
O7 C31 1_555 1_555
O8 C33 1_555 1_555
O9 C35 1_555 1_555
O10 C37 1_555 1_555
O11 C57 1_555 1_555
O12 C59 1_555 1_555
N1 C1 1_555 1_555
N2 C1 1_555 1_555
N3 C2 1_555 1_555
N4 C3 1_555 1_555
N5 C4 1_555 1_555
N6 C5 1_555 1_555
N7 C6 1_555 1_555
N8 C7 1_555 1_555
N9 C13 1_555 1_555
N10 C14 1_555 1_555
N11 C19 1_555 1_555
N12 C20 1_555 1_555
N13 C31 1_555 1_555
N14 C32 1_555 1_555
N15 C33 1_555 1_555
N16 C34 1_555 1_555
N17 C35 1_555 1_555
N18 C36 1_555 1_555
N19 C37 1_555 1_555
N20 C41 1_555 1_555
N21 C46 1_555 1_555
N22 C47 1_555 1_555
N23 C52 1_555 1_555
N24 C31 1_555 1_555
C1 H1 1_555 1_555
H2 C1 1_555 1_555
C2 N2 1_555 1_555
C3 N3 1_555 1_555
H3 C3 1_555 1_555
H4 C3 1_555 1_555
C4 N4 1_555 1_555
C5 N5 1_555 1_555
H5 C5 1_555 1_555
H6 C5 1_555 1_555
C6 N6 1_555 1_555
C7 N7 1_555 1_555
H7 C7 1_555 1_555
H8 C7 1_555 1_555
C8 N1 1_555 1_555
C9 C8 1_555 1_555
H9 C9 1_555 1_555
H10 C9 1_555 1_555
C10 C9 1_555 1_555
H11 C10 1_555 1_555
H12 C10 1_555 1_555
C11 H13 1_555 1_555
H14 C11 1_555 1_555
C12 C11 1_555 1_555
H15 C12 1_555 1_555
H16 C12 1_555 1_555
C13 N3 1_555 1_555
C14 N4 1_555 1_555
C15 C14 1_555 1_555
H17 C15 1_555 1_555
H18 C15 1_555 1_555
C16 C15 1_555 1_555
H19 C16 1_555 1_555
H20 C16 1_555 1_555
C17 C16 1_555 1_555
H21 C17 1_555 1_555
H22 C17 1_555 1_555
C18 C17 1_555 1_555
H23 C18 1_555 1_555
H24 C18 1_555 1_555
C19 N5 1_555 1_555
C20 N6 1_555 1_555
C21 C20 1_555 1_555
H25 C21 1_555 1_555
H26 C21 1_555 1_555
C22 C10 1_555 1_555
H27 C22 1_555 1_555
H28 C22 1_555 1_555
C23 C11 1_555 1_555
H29 C23 1_555 1_555
H30 C23 1_555 1_555
C24 C23 1_555 1_555
H31 C24 1_555 1_555
H32 C24 1_555 1_555
C25 N2 1_555 1_555
C26 N8 1_555 1_555
C27 N9 1_555 1_555
H33 C27 1_555 1_555
H34 C27 1_555 1_555
C28 N10 1_555 1_555
C29 N11 1_555 1_555
H35 C29 1_555 1_555
H36 C29 1_555 1_555
C30 N1 1_555 1_555
C32 N13 1_555 1_555
H37 C32 1_555 1_555
H38 C32 1_555 1_555
C33 N14 1_555 1_555
C34 N15 1_555 1_555
H39 C34 1_555 1_555
H40 C34 1_555 1_555
C35 N16 1_555 1_555
C36 N17 1_555 1_555
H41 C36 1_555 1_555
H42 C36 1_555 1_555
C37 N18 1_555 1_555
C38 N13 1_555 1_555
C39 C38 1_555 1_555
H43 C39 1_555 1_555
H44 C39 1_555 1_555
C40 C39 1_555 1_555
H45 C40 1_555 1_555
H46 C40 1_555 1_555
C41 N14 1_555 1_555
C42 C41 1_555 1_555
H47 C42 1_555 1_555
H48 C42 1_555 1_555
C43 C42 1_555 1_555
H49 C43 1_555 1_555
H50 C43 1_555 1_555
C44 C43 1_555 1_555
H51 C44 1_555 1_555
H52 C44 1_555 1_555
C45 C44 1_555 1_555
H53 C45 1_555 1_555
H54 C45 1_555 1_555
C46 N15 1_555 1_555
C47 N16 1_555 1_555
C48 C47 1_555 1_555
H55 C48 1_555 1_555
H56 C48 1_555 1_555
C49 C48 1_555 1_555
H57 C49 1_555 1_555
H58 C49 1_555 1_555
C50 C49 1_555 1_555
H59 C50 1_555 1_555
H60 C50 1_555 1_555
C51 C50 1_555 1_555
H61 C51 1_555 1_555
H62 C51 1_555 1_555
C52 N17 1_555 1_555
C53 N24 1_555 1_555
C54 C53 1_555 1_555
H63 C54 1_555 1_555
H64 C54 1_555 1_555
C55 C40 1_555 1_555
H65 C55 1_555 1_555
H66 C55 1_555 1_555
C56 N19 1_555 1_555
H67 C56 1_555 1_555
H68 C56 1_555 1_555
C57 N20 1_555 1_555
C58 N21 1_555 1_555
H69 C58 1_555 1_555
H70 C58 1_555 1_555
C59 N22 1_555 1_555
C60 N24 1_555 1_555
H71 C60 1_555 1_555
H72 C60 1_555 1_555
N7A C8 1_555 1_555
C6A N7A 1_555 1_555
O3A C6A 1_555 1_555
N6A C6A 1_555 1_555
C5A N6A 1_555 1_555
N5A C5A 1_555 1_555
C4A N5A 1_555 1_555
O2A C4A 1_555 1_555
N4A C4A 1_555 1_555
C3A N4A 1_555 1_555
N3A C3A 1_555 1_555
C2A N3A 1_555 1_555
O1A C2A 1_555 1_555
N2A C2A 1_555 1_555
C1A N2A 1_555 1_555
N1A C1A 1_555 1_555
C8A N7 1_555 1_555
C26A N9 1_555 1_555
O4A C26A 1_555 1_555
N8A C25 1_555 1_555
C7A N7A 1_555 1_555
H7A C7A 1_555 1_555
H8A C7A 1_555 1_555
C9A C8A 1_555 1_555
H9A C9A 1_555 1_555
H10A C9A 1_555 1_555
C10A C9A 1_555 1_555
H11A C10A 1_555 1_555
H12A C10A 1_555 1_555
C22A C21 1_555 1_555
H27A C22A 1_555 1_555
H28A C22A 1_555 1_555
C30A N12 1_555 1_555
O6A C30A 1_555 1_555
C25A N8 1_555 1_555
C13A N3A 1_555 1_555
N9A C26 1_555 1_555
C27A N9A 1_555 1_555
N10A C27A 1_555 1_555
C14A N4A 1_555 1_555
C15A C14A 1_555 1_555
H17A C15A 1_555 1_555
H18A C15A 1_555 1_555
C16A C15A 1_555 1_555
H19A C16A 1_555 1_555
H20A C16A 1_555 1_555
C17A C16A 1_555 1_555
H21A C17A 1_555 1_555
H22A C17A 1_555 1_555
C18A C17A 1_555 1_555
H23A C18A 1_555 1_555
H24A C18A 1_555 1_555
C19A N5A 1_555 1_555
N11A C19A 1_555 1_555
C28A N10A 1_555 1_555
O5A C28A 1_555 1_555
C29A N11A 1_555 1_555
N12A C30 1_555 1_555
C20A C8 1_555 1_555
C21A C22 1_555 1_555
H25A C21A 1_555 1_555
H26A C21A 1_555 1_555
H35A C29A 1_555 1_555
H36A C29A 1_555 1_555
H33A C27A 1_555 1_555
H34A C27A 1_555 1_555
C12A C13A 1_555 1_555
C11A C12A 1_555 1_555
H13A C11A 1_555 1_555
H14A C11A 1_555 1_555
C23A C11A 1_555 1_555
H29A C23A 1_555 1_555
H30A C23A 1_555 1_555
C24A C25A 1_555 1_555
H31A C24A 1_555 1_555
H32A C24A 1_555 1_555
H15A C12A 1_555 1_555
H16A C12A 1_555 1_555
H1A C1A 1_555 1_555
H2A C1A 1_555 1_555
H3A C3A 1_555 1_555
H4A C3A 1_555 1_555
H5A C5A 1_555 1_555
H6A C5A 1_555 1_555
C38A N19 1_555 1_555
N13A C38A 1_555 1_555
C31A N13A 1_555 1_555
O7A C31A 1_555 1_555
N24A C31A 1_555 1_555
C53A N18 1_555 1_555
C39A C38A 1_555 1_555
H43A C39A 1_555 1_555
H44A C39A 1_555 1_555
C40A C39A 1_555 1_555
H45A C40A 1_555 1_555
H46A C40A 1_555 1_555
C55A C40A 1_555 1_555
C54A C53A 1_555 1_555
H63A C54A 1_555 1_555
H64A C54A 1_555 1_555
H65A C55A 1_555 1_555
H66A C55A 1_555 1_555
C60A N23 1_555 1_555
C56A N20 1_555 1_555
N19A C38 1_555 1_555
C37A N19A 1_555 1_555
O10A C37A 1_555 1_555
N18A C53 1_555 1_555
C36A N18A 1_555 1_555
N17A C36A 1_555 1_555
C35A N17A 1_555 1_555
O9A C35A 1_555 1_555
N16A C35A 1_555 1_555
C34A N16A 1_555 1_555
N15A C34A 1_555 1_555
C33A N15A 1_555 1_555
O8A C33A 1_555 1_555
N14A C33A 1_555 1_555
C32A N13A 1_555 1_555
H37A C32A 1_555 1_555
H38A C32A 1_555 1_555
C41A N14A 1_555 1_555
N20A C56 1_555 1_555
C57A N20A 1_555 1_555
O11A C57A 1_555 1_555
N21A C57A 1_555 1_555
C46A N15A 1_555 1_555
C42A C41A 1_555 1_555
H47A C42A 1_555 1_555
H48A C42A 1_555 1_555
C43A C42A 1_555 1_555
H49A C43A 1_555 1_555
H50A C43A 1_555 1_555
C44A C43A 1_555 1_555
H51A C44A 1_555 1_555
H52A C44A 1_555 1_555
C45A C46A 1_555 1_555
H53A C45A 1_555 1_555
H54A C45A 1_555 1_555
C58A N21A 1_555 1_555
N22A C58A 1_555 1_555
C47A N16A 1_555 1_555
C48A C47A 1_555 1_555
H55A C48A 1_555 1_555
H56A C48A 1_555 1_555
C49A C48A 1_555 1_555
H57A C49A 1_555 1_555
H58A C49A 1_555 1_555
C50A C49A 1_555 1_555
H59A C50A 1_555 1_555
H60A C50A 1_555 1_555
C51A C50A 1_555 1_555
H61A C51A 1_555 1_555
H62A C51A 1_555 1_555
C52A N17A 1_555 1_555
N23A C60 1_555 1_555
C59A N22A 1_555 1_555
O12A C59A 1_555 1_555
H69A C58A 1_555 1_555
H70A C58A 1_555 1_555
H39A C34A 1_555 1_555
H40A C34A 1_555 1_555
H41A C36A 1_555 1_555
H42A C36A 1_555 1_555
H67A C56A 1_555 1_555
H68A C56A 1_555 1_555
H71A C60A 1_555 1_555
H72A C60A 1_555 1_555
N10 C27 1_555 1_555
N11 C28 1_555 1_555
N12 C29 1_555 1_555
N21 C57 1_555 1_555
N22 C58 1_555 1_555
N23 C59 1_555 1_555
C12 C13 1_555 1_555
C13 C25 1_555 1_555
C14 C19 1_555 1_555
C18 C19 1_555 1_555
C20 C8A 1_555 1_555
C24 C25 1_555 1_555
C38 C53 1_555 1_555
C41 C46 1_555 1_555
C45 C46 1_555 1_555
C47 C52 1_555 1_555
C51 C52 1_555 1_555
C54 C55 1_555 1_555
N6A C20A 1_555 1_555
N2A C25A 1_555 1_555
N1A C8A 1_555 1_555
N1A C30A 1_555 1_555
C26A N8A 1_555 1_555
N8A C7A 1_555 1_555
C10A C22A 1_555 1_555
C25A C13A 1_555 1_555
C13A N9A 1_555 1_555
N10A C14A 1_555 1_555
C14A C19A 1_555 1_555
C18A C19A 1_555 1_555
N11A C28A 1_555 1_555
C29A N12A 1_555 1_555
N12A C20A 1_555 1_555
C20A C21A 1_555 1_555
C23A C24A 1_555 1_555
C38A C53A 1_555 1_555
N24A C53A 1_555 1_555
N24A C60A 1_555 1_555
C55A C54A 1_555 1_555
C56A N19A 1_555 1_555
C37A N18A 1_555 1_555
N14A C32A 1_555 1_555
C41A N20A 1_555 1_555
C41A C46A 1_555 1_555
N21A C46A 1_555 1_555
C44A C45A 1_555 1_555
N22A C47A 1_555 1_555
C47A C52A 1_555 1_555
C51A C52A 1_555 1_555
C52A N23A 1_555 1_555
N23A C59A 1_555 1_555

#END
