
#######################################################################
#
#                 Cambridge Crystallographic Data Centre
#                                CCDC 
#
#######################################################################
#
# If this CIF has been generated from an entry in the Cambridge 
# Structural Database, then it will include bibliographic, chemical, 
# crystal, experimental, refinement or atomic coordinate data resulting 
# from the CCDC's data processing and validation procedures.
#
#######################################################################

data_IDEBAU
_chemical_formula_moiety         'C50 H60 N20 O10,25(H2 O1)'
_chemical_name_systematic        'pentakis(Butano)cucurbit(5)uril hydrate'
_symmetry_cell_setting           triclinic
_symmetry_space_group_name_H-M   'P -1'
_symmetry_Int_Tables_number      2
_space_group_name_Hall           '-P 1'
loop_
_symmetry_equiv_pos_site_id
_symmetry_equiv_pos_as_xyz
1 x,y,z
2 -x,-y,-z
_cell_length_a                   15.0886(2)
_cell_length_b                   15.70650(10)
_cell_length_c                   17.8902(3)
_cell_angle_alpha                101.8020(10)
_cell_angle_beta                 109.3370(10)
_cell_angle_gamma                108.4710(10)
_cell_volume                     3560.49
_exptl_crystal_colour            colorless
_exptl_crystal_description       plate
_cell_formula_units_Z            2
loop_
_atom_site_label
_atom_site_type_symbol
_atom_site_fract_x
_atom_site_fract_y
_atom_site_fract_z
O1 O 0.6227(3) 1.1266(3) 0.3546(2)
O2 O 0.4727(3) 0.9612(3) 0.3883(3)
O3 O 0.2967(4) 0.7813(3) 0.2118(3)
O4 O 0.3142(3) 0.8196(3) 0.0517(3)
O5 O 0.5282(3) 1.0310(3) 0.1459(2)
O6 O 0.8858(3) 0.9003(3) 0.3731(3)
O7 O 0.7583(3) 0.7486(3) 0.4377(3)
O8 O 0.5665(3) 0.5562(3) 0.2488(3)
O9 O 0.6136(3) 0.6267(3) 0.1060(3)
O10 O 0.8161(3) 0.8270(3) 0.1754(3)
N1 N 0.7669(3) 1.1218(3) 0.3385(3)
N2 N 0.7428(3) 1.0936(3) 0.4475(3)
N3 N 0.6288(3) 0.9689(3) 0.4765(3)
N4 N 0.4905(3) 0.8312(3) 0.4206(3)
N5 N 0.3611(4) 0.6993(3) 0.2918(3)
N6 N 0.3014(4) 0.6396(3) 0.1525(3)
N7 N 0.3211(3) 0.6719(3) 0.0315(3)
N8 N 0.4306(3) 0.7843(3) 0.0083(3)
N9 N 0.5789(3) 0.9380(3) 0.0676(3)
N10 N 0.6993(3) 1.0583(3) 0.1849(3)
N11 N 0.8783(4) 1.0371(3) 0.3496(3)
N12 N 0.8486(3) 1.0038(3) 0.4566(3)
N13 N 0.7408(3) 0.8849(3) 0.4946(3)
N14 N 0.6026(3) 0.7465(3) 0.4345(3)
N15 N 0.4719(3) 0.6140(3) 0.3068(3)
N16 N 0.4092(3) 0.5513(3) 0.1676(3)
N17 N 0.4409(4) 0.5954(3) 0.0526(3)
N18 N 0.5440(3) 0.7012(3) 0.0195(3)
N19 N 0.6926(3) 0.8553(3) 0.0806(3)
N20 N 0.8132(3) 0.9761(3) 0.1967(3)
C1 C 0.7018(4) 1.1133(4) 0.3770(3)
C2 C 0.6855(4) 1.0704(4) 0.4979(3)
H1 H 0.7342 1.0978 0.5577
H2 H 0.6369 1.1006 0.4901
C3 C 0.5247(4) 0.9242(4) 0.4242(3)
C4 C 0.3828(4) 0.7648(4) 0.3721(4)
H3 H 0.3616 0.7276 0.4058
H4 H 0.3409 0.8014 0.3618
C5 C 0.3190(4) 0.7144(4) 0.2189(3)
C6 C 0.2502(4) 0.6327(4) 0.0654(3)
H5 H 0.2065 0.5652 0.0306
H6 H 0.2052 0.6664 0.0623
C7 C 0.3528(4) 0.7650(4) 0.0336(3)
C8 C 0.4764(4) 0.8770(4) 0.0016(3)
H7 H 0.4797 0.8673 -0.0531
H8 H 0.4312 0.9099 0.0028
C9 C 0.5959(4) 1.0105(4) 0.1352(3)
C10 C 0.7420(5) 1.1408(4) 0.2600(3)
H9 H 0.6924 1.1697 0.2547
H10 H 0.8050 1.1880 0.2628
C11 C 0.8634(4) 1.1192(4) 0.3889(3)
C12 C 0.9550(5) 1.2139(4) 0.4169(4)
H11 H 1.0190 1.2085 0.4474
H12 H 0.9583 1.2292 0.3671
C13 C 0.9458(6) 1.2938(4) 0.4735(4)
H13 H 0.8859 1.3036 0.4408
H14 H 1.0075 1.3532 0.4930
C14 C 0.9342(5) 1.2724(4) 0.5498(4)
H15 H 0.8719 1.2781 0.5513
H16 H 0.9935 1.3206 0.6012
C15 C 0.9267(4) 1.1727(4) 0.5498(3)
H17 H 0.9939 1.1706 0.5604
H18 H 0.9083 1.1593 0.5952
C16 C 0.8451(4) 1.0969(4) 0.4649(3)
C17 C 0.6653(4) 0.9089(4) 0.5181(3)
C18 C 0.7061(5) 0.9490(4) 0.6142(3)
H19 H 0.7711 1.0061 0.6374
H20 H 0.6562 0.9680 0.6286
C19 C 0.7239(5) 0.8757(5) 0.6538(4)
H21 H 0.7394 0.9001 0.7138
H22 H 0.7844 0.8678 0.6502
C20 C 0.6317(5) 0.7777(4) 0.6122(4)
H23 H 0.6522 0.7299 0.5873
H24 H 0.6117 0.7594 0.6553
C21 C 0.5402(5) 0.7783(4) 0.5444(4)
H25 H 0.5155 0.8217 0.5701
H26 H 0.4840 0.7140 0.5177
C22 C 0.5689(4) 0.8104(4) 0.4775(3)
C23 C 0.3673(4) 0.6075(4) 0.2790(3)
C24 C 0.3048(5) 0.5446(4) 0.3136(4)
H27 H 0.2365 0.5456 0.2961
H28 H 0.3394 0.5699 0.3755
C25 C 0.2926(5) 0.4412(5) 0.2817(4)
H29 H 0.3605 0.4397 0.3049
H30 H 0.2486 0.4016 0.3025
C26 C 0.2451(6) 0.3987(5) 0.1854(5)
H31 H 0.1790 0.3438 0.1656
H32 H 0.2909 0.3752 0.1685
C27 C 0.2271(4) 0.4707(4) 0.1421(4)
H33 H 0.2072 0.4427 0.0816
H34 H 0.1700 0.4836 0.1484
C28 C 0.3234(4) 0.5645(4) 0.1795(3)
C29 C 0.3695(4) 0.6207(4) -0.0066(3)
C30 C 0.2896(5) 0.5364(4) -0.0860(4)
H35 H 0.2410 0.4922 -0.0717
H36 H 0.3243 0.5021 -0.1087
C31 C 0.2300(5) 0.5689(5) -0.1534(4)
H37 H 0.1825 0.5888 -0.1361
H38 H 0.1886 0.5145 -0.2065
C32 C 0.3004(5) 0.6514(5) -0.1684(4)
H39 H 0.2827 0.6345 -0.2290
H40 H 0.2884 0.7084 -0.1506
C33 C 0.4129(5) 0.6743(4) -0.1211(4)
H41 H 0.4550 0.7282 -0.1317
H42 H 0.4263 0.6190 -0.1417
C34 C 0.4439(4) 0.6997(4) -0.0266(3)
C35 C 0.6744(4) 0.9374(4) 0.0662(3)
C36 C 0.6860(5) 0.9516(4) -0.0125(4)
H43 H 0.6706 1.0057 -0.0215
H44 H 0.6365 0.8942 -0.0618
C37 C 0.7958(5) 0.9706(5) -0.0031(4)
H45 H 0.8076 0.9130 -0.0015
H46 H 0.8026 0.9840 -0.0525
C38 C 0.8777(5) 1.0545(5) 0.0766(4)
H47 H 0.9252 1.0324 0.1107
H48 H 0.9177 1.1038 0.0604
C39 C 0.8323(5) 1.0986(4) 0.1302(4)
H49 H 0.8885 1.1467 0.1833
H50 H 0.7943 1.1306 0.1001
C40 C 0.7601(4) 1.0226(4) 0.1490(3)
C41 C 0.8714(4) 0.9727(4) 0.3902(3)
C42 C 0.8445(4) 0.9525(4) 0.5150(3)
H51 H 0.8731 0.9989 0.5720
H52 H 0.8883 0.9177 0.5157
C43 C 0.7046(4) 0.7889(4) 0.4524(3)
C44 C 0.5448(4) 0.6435(4) 0.3942(3)
H53 H 0.5070 0.6196 0.4261
H54 H 0.5935 0.6141 0.3966
C45 C 0.4913(4) 0.5736(4) 0.2420(3)
C46 C 0.4109(5) 0.5189(4) 0.0863(3)
H55 H 0.3420 0.4702 0.0458
H56 H 0.4593 0.4887 0.0918
C47 C 0.5403(5) 0.6406(4) 0.0643(3)
C48 C 0.6404(4) 0.7591(4) 0.0193(4)
H57 H 0.6868 0.7269 0.0306
H58 H 0.6262 0.7630 -0.0371
C49 C 0.7769(4) 0.8807(4) 0.1541(3)
C50 C 0.9035(4) 1.0245(4) 0.2780(3)
H59 H 0.9453 0.9875 0.2831
H60 H 0.9456 1.0874 0.2795
O11 O 0.1562(3) 0.1617(3) 0.1594(3)
O12 O 1.0783(3) 0.9635(3) 0.1377(3)
O13 O 0.9434(4) 0.8078(3) -0.0084(3)
O14 O 0.5367(4) 0.3976(3) 0.3142(3)
O15 O 0.5753(4) 0.4771(3) 0.4855(3)
O16 O 0.3703(4) 0.2288(4) 0.1907(3)
O17 O 0.7737(4) 0.6320(4) 0.5480(3)
O18 O 0.2446(4) 0.9242(4) 0.1660(4)
O19 O 0.0955(4) 0.2393(3) 0.2834(3)
O20 O 1.0386(4) 0.8948(3) 0.2592(3)
O21 O 0.9839(5) 1.5038(5) 0.6759(4)
O22 O 0.1606(4) 0.7974(4) 0.2870(3)
O23 O 0.4282(4) 1.0845(4) 0.2355(3)
O24 O 0.8433(5) 0.6807(4) 0.0563(4)
O25 O 0.9190(5) 0.2743(4) 0.0283(5)
O26 O 0.9842(6) 1.3326(5) 0.2088(5)
O27 O -0.0045(8) 0.5790(9) 0.0535(8)
O28 O 0.6626(8) 0.7735(7) 0.2654(5)
O29 O 0.8301(7) 1.4782(6) 0.5298(6)
O30 O 0.8616(6) 1.4838(6) 0.3766(4)
O31 O 0.6723(6) 1.3210(5) 0.3877(7)
O32 O 0.0388(12) 0.6106(8) 0.2261(7)
O33 O 0.5611(12) 0.8762(11) 0.2422(8)
O34 O 0.8889(13) 0.6896(10) 0.2266(9)
O35 O 0.7768(5) 0.6100(8) 0.3286(6)
O36? O 0.8218(19) 0.6944(11) 0.2592(11)
loop_
_geom_bond_atom_site_label_1
_geom_bond_atom_site_label_2
_geom_bond_site_symmetry_1
_geom_bond_site_symmetry_2
O1 C1 1_555 1_555
O2 C3 1_555 1_555
O3 C5 1_555 1_555
O4 C7 1_555 1_555
O5 C9 1_555 1_555
O6 C41 1_555 1_555
O7 C43 1_555 1_555
O8 C45 1_555 1_555
O9 C47 1_555 1_555
O10 C49 1_555 1_555
N1 C1 1_555 1_555
N2 C1 1_555 1_555
N3 C2 1_555 1_555
N4 C3 1_555 1_555
N5 C4 1_555 1_555
N6 C5 1_555 1_555
N7 C6 1_555 1_555
N8 C7 1_555 1_555
N9 C8 1_555 1_555
N10 C9 1_555 1_555
N11 C11 1_555 1_555
N12 C16 1_555 1_555
N13 C17 1_555 1_555
N14 C22 1_555 1_555
N15 C23 1_555 1_555
N16 C28 1_555 1_555
N17 C29 1_555 1_555
N18 C34 1_555 1_555
N19 C35 1_555 1_555
N20 C40 1_555 1_555
C2 N2 1_555 1_555
H1 C2 1_555 1_555
H2 C2 1_555 1_555
C3 N3 1_555 1_555
C4 N4 1_555 1_555
H3 C4 1_555 1_555
H4 C4 1_555 1_555
C5 N5 1_555 1_555
C6 N6 1_555 1_555
H5 C6 1_555 1_555
H6 C6 1_555 1_555
C7 N7 1_555 1_555
C8 N8 1_555 1_555
H7 C8 1_555 1_555
H8 C8 1_555 1_555
C9 N9 1_555 1_555
C10 N1 1_555 1_555
H9 C10 1_555 1_555
H10 C10 1_555 1_555
C11 N1 1_555 1_555
C12 C11 1_555 1_555
H11 C12 1_555 1_555
H12 C12 1_555 1_555
C13 C12 1_555 1_555
H13 C13 1_555 1_555
H14 C13 1_555 1_555
C14 C13 1_555 1_555
H15 C14 1_555 1_555
H16 C14 1_555 1_555
C15 C14 1_555 1_555
H17 C15 1_555 1_555
H18 C15 1_555 1_555
C16 N2 1_555 1_555
C17 N3 1_555 1_555
C18 C17 1_555 1_555
H19 C18 1_555 1_555
H20 C18 1_555 1_555
C19 C18 1_555 1_555
H21 C19 1_555 1_555
H22 C19 1_555 1_555
C20 C19 1_555 1_555
H23 C20 1_555 1_555
H24 C20 1_555 1_555
C21 C20 1_555 1_555
H25 C21 1_555 1_555
H26 C21 1_555 1_555
C22 N4 1_555 1_555
C23 N5 1_555 1_555
C24 C23 1_555 1_555
H27 C24 1_555 1_555
H28 C24 1_555 1_555
C25 C24 1_555 1_555
H29 C25 1_555 1_555
H30 C25 1_555 1_555
C26 C25 1_555 1_555
H31 C26 1_555 1_555
H32 C26 1_555 1_555
C27 C26 1_555 1_555
H33 C27 1_555 1_555
H34 C27 1_555 1_555
C28 N6 1_555 1_555
C29 N7 1_555 1_555
C30 C29 1_555 1_555
H35 C30 1_555 1_555
H36 C30 1_555 1_555
C31 C30 1_555 1_555
H37 C31 1_555 1_555
H38 C31 1_555 1_555
C32 C31 1_555 1_555
H39 C32 1_555 1_555
H40 C32 1_555 1_555
C33 C32 1_555 1_555
H41 C33 1_555 1_555
H42 C33 1_555 1_555
C34 N8 1_555 1_555
C35 N9 1_555 1_555
C36 C35 1_555 1_555
H43 C36 1_555 1_555
H44 C36 1_555 1_555
C37 C36 1_555 1_555
H45 C37 1_555 1_555
H46 C37 1_555 1_555
C38 C37 1_555 1_555
H47 C38 1_555 1_555
H48 C38 1_555 1_555
C39 C38 1_555 1_555
H49 C39 1_555 1_555
H50 C39 1_555 1_555
C40 N10 1_555 1_555
C41 N11 1_555 1_555
C42 N12 1_555 1_555
H51 C42 1_555 1_555
H52 C42 1_555 1_555
C43 N13 1_555 1_555
C44 N14 1_555 1_555
H53 C44 1_555 1_555
H54 C44 1_555 1_555
C45 N15 1_555 1_555
C46 N16 1_555 1_555
H55 C46 1_555 1_555
H56 C46 1_555 1_555
C47 N17 1_555 1_555
C48 N18 1_555 1_555
H57 C48 1_555 1_555
H58 C48 1_555 1_555
C49 N19 1_555 1_555
C50 N11 1_555 1_555
H59 C50 1_555 1_555
H60 C50 1_555 1_555
N10 C10 1_555 1_555
N12 C41 1_555 1_555
N13 C42 1_555 1_555
N14 C43 1_555 1_555
N15 C44 1_555 1_555
N16 C45 1_555 1_555
N17 C46 1_555 1_555
N18 C47 1_555 1_555
N19 C48 1_555 1_555
N20 C49 1_555 1_555
N20 C50 1_555 1_555
C11 C16 1_555 1_555
C15 C16 1_555 1_555
C17 C22 1_555 1_555
C21 C22 1_555 1_555
C23 C28 1_555 1_555
C27 C28 1_555 1_555
C29 C34 1_555 1_555
C33 C34 1_555 1_555
C35 C40 1_555 1_555
C39 C40 1_555 1_555

#END
