
#######################################################################
#
#                 Cambridge Crystallographic Data Centre
#                                CCDC 
#
#######################################################################
#
# If this CIF has been generated from an entry in the Cambridge 
# Structural Database, then it will include bibliographic, chemical, 
# crystal, experimental, refinement or atomic coordinate data resulting 
# from the CCDC's data processing and validation procedures.
#
#######################################################################

data_IDEBEB
_chemical_formula_moiety         
'C60 H76 B2 N4 S4 4+,4(C1 F3 O3 S1 1-),4(C2 H3 N1)'
_chemical_name_systematic        
"4,4',4'',4'''-[[1^2^,2^2^:2^5^,3^2^:3^5^,4^2^-quaterthiophene]-1^5^,4^5^-diylbis(boranetriyl)]tetrakis(N,N,N,3,5-pentamethylanilinium) tetrakis(trifluoromethanesulfonate) acetonitrile solvate"
_symmetry_cell_setting           monoclinic
_symmetry_space_group_name_H-M   'P 21/n'
_symmetry_Int_Tables_number      14
_space_group_name_Hall           '-P 2yn'
loop_
_symmetry_equiv_pos_site_id
_symmetry_equiv_pos_as_xyz
1 x,y,z
2 1/2-x,1/2+y,1/2-z
3 -x,-y,-z
4 1/2+x,1/2-y,1/2+z
_cell_length_a                   18.2185(5)
_cell_length_b                   12.8036(3)
_cell_length_c                   19.0145(4)
_cell_angle_alpha                90
_cell_angle_beta                 106.9280(10)
_cell_angle_gamma                90
_cell_volume                     4243.19
_exptl_crystal_colour            red
_exptl_crystal_description       block
_cell_formula_units_Z            2
loop_
_atom_site_label
_atom_site_type_symbol
_atom_site_fract_x
_atom_site_fract_y
_atom_site_fract_z
B1 B 0.68217(17) 0.4099(2) 0.17752(15)
S1 S 0.60263(4) 0.60398(5) 0.15759(4)
S2 S 0.58813(4) 0.87877(5) 0.01831(4)
N1 N 0.44111(12) 0.26003(16) 0.30068(12)
N2 N 0.94616(12) 0.18996(17) 0.13151(12)
C1 C 0.61666(14) 0.36747(18) 0.20900(13)
C2 C 0.54086(15) 0.3555(2) 0.16399(13)
C3 C 0.51653(16) 0.3759(2) 0.08193(14)
H1 H 0.4741 0.4261 0.0696
H2 H 0.4998 0.3103 0.0556
H3 H 0.5600 0.4044 0.0676
C4 C 0.48425(15) 0.3198(2) 0.19385(14)
H4 H 0.4331 0.3113 0.1632
C5 C 0.50208(15) 0.29684(18) 0.26755(14)
C6 C 0.57596(15) 0.31084(19) 0.31357(14)
H5 H 0.5872 0.2968 0.3647
C7 C 0.63321(14) 0.34539(19) 0.28477(13)
C8 C 0.71300(15) 0.3636(2) 0.33559(14)
H6 H 0.7145 0.3445 0.3859
H7 H 0.7265 0.4375 0.3341
H8 H 0.7498 0.3207 0.3197
C9 C 0.42165(16) 0.3472(2) 0.34504(15)
H9 H 0.3823 0.3235 0.3672
H10 H 0.4022 0.4071 0.3129
H11 H 0.4678 0.3678 0.3839
C10 C 0.36922(16) 0.2274(2) 0.24302(15)
H12 H 0.3320 0.2007 0.2668
H13 H 0.3815 0.1725 0.2123
H14 H 0.3473 0.2877 0.2123
C11 C 0.46917(17) 0.1673(2) 0.35029(16)
H15 H 0.4281 0.1427 0.3699
H16 H 0.5137 0.1879 0.3910
H17 H 0.4839 0.1110 0.3221
C12 C 0.75490(14) 0.34464(19) 0.17480(13)
C13 C 0.74615(14) 0.24683(19) 0.13776(13)
C14 C 0.66869(16) 0.1959(2) 0.10657(16)
H18 H 0.6755 0.1256 0.0891
H19 H 0.6376 0.2378 0.0655
H20 H 0.6427 0.1912 0.1449
C15 C 0.80914(15) 0.19767(19) 0.12586(13)
H21 H 0.8028 0.1333 0.0999
C16 C 0.88116(14) 0.24193(19) 0.15159(13)
C17 C 0.89245(15) 0.33295(19) 0.19216(14)
H22 H 0.9427 0.3603 0.2121
C18 C 0.82938(15) 0.38465(19) 0.20367(13)
C19 C 0.84753(16) 0.4833(2) 0.24989(15)
H23 H 0.8763 0.5318 0.2280
H24 H 0.8784 0.4655 0.2999
H25 H 0.7996 0.5164 0.2517
C20 C 1.02085(16) 0.2462(2) 0.16184(17)
H26 H 1.0609 0.2110 0.1457
H27 H 1.0350 0.2461 0.2157
H28 H 1.0155 0.3185 0.1440
C21 C 0.92797(17) 0.1885(2) 0.04880(15)
H29 H 0.9713 0.1586 0.0350
H30 H 0.9187 0.2600 0.0299
H31 H 0.8820 0.1461 0.0278
C22 C 0.95724(17) 0.0796(2) 0.16030(16)
H32 H 0.9994 0.0469 0.1460
H33 H 0.9100 0.0397 0.1396
H34 H 0.9696 0.0805 0.2140
C23 C 0.67265(15) 0.52003(19) 0.14492(14)
C24 C 0.70543(15) 0.5637(2) 0.09520(14)
H35 H 0.7459 0.5311 0.0811
C25 C 0.67407(16) 0.6604(2) 0.06701(15)
H36 H 0.6905 0.6988 0.0316
C26 C 0.61711(15) 0.69374(19) 0.09590(14)
C27 C 0.57081(16) 0.7873(2) 0.07905(14)
C28 C 0.50848(17) 0.8150(2) 0.10102(15)
H37 H 0.4901 0.7750 0.1344
C29 C 0.47410(17) 0.9096(2) 0.06877(15)
H38 H 0.4306 0.9398 0.0788
C30 C 0.50959(16) 0.9526(2) 0.02200(14)
B1B B 0.31783(17) 1.5901(2) -0.17752(15)
S1B S 0.39737(4) 1.39602(5) -0.15759(4)
S2B S 0.41187(4) 1.12123(5) -0.01831(4)
N1B N 0.55889(12) 1.73997(16) -0.30068(12)
N2B N 0.05384(12) 1.81004(17) -0.13151(12)
C1B C 0.38334(14) 1.63253(18) -0.20900(13)
C2B C 0.45914(15) 1.6445(2) -0.16399(13)
C3B C 0.48347(16) 1.6241(2) -0.08193(14)
H1B H 0.5259 1.5739 -0.0696
H2B H 0.5002 1.6897 -0.0556
H3B H 0.4400 1.5956 -0.0676
C4B C 0.51575(15) 1.6802(2) -0.19385(14)
H4B H 0.5669 1.6887 -0.1632
C5B C 0.49792(15) 1.70316(18) -0.26755(14)
C6B C 0.42404(15) 1.68916(19) -0.31357(14)
H5B H 0.4128 1.7032 -0.3647
C7B C 0.36679(14) 1.65461(19) -0.28477(13)
C8B C 0.28700(15) 1.6364(2) -0.33559(14)
H6B H 0.2855 1.6555 -0.3859
H7B H 0.2735 1.5625 -0.3341
H8B H 0.2502 1.6793 -0.3197
C9B C 0.57835(16) 1.6528(2) -0.34504(15)
H9B H 0.6177 1.6765 -0.3672
H10B H 0.5978 1.5929 -0.3129
H11B H 0.5322 1.6322 -0.3839
C10B C 0.63078(16) 1.7726(2) -0.24302(15)
H12B H 0.6680 1.7993 -0.2668
H13B H 0.6185 1.8275 -0.2123
H14B H 0.6527 1.7123 -0.2123
C11B C 0.53083(17) 1.8327(2) -0.35029(16)
H15B H 0.5719 1.8573 -0.3699
H16B H 0.4863 1.8121 -0.3910
H17B H 0.5161 1.8890 -0.3221
C12B C 0.24510(14) 1.65536(19) -0.17480(13)
C13B C 0.25385(14) 1.75317(19) -0.13776(13)
C14B C 0.33131(16) 1.8041(2) -0.10657(16)
H18B H 0.3245 1.8744 -0.0891
H19B H 0.3624 1.7622 -0.0655
H20B H 0.3573 1.8088 -0.1449
C15B C 0.19086(15) 1.80233(19) -0.12586(13)
H21B H 0.1972 1.8667 -0.0999
C16B C 0.11884(14) 1.75807(19) -0.15159(13)
C17B C 0.10755(15) 1.66705(19) -0.19216(14)
H22B H 0.0573 1.6397 -0.2121
C18B C 0.17062(15) 1.61535(19) -0.20367(13)
C19B C 0.15247(16) 1.5167(2) -0.24989(15)
H23B H 0.1237 1.4682 -0.2280
H24B H 0.1216 1.5345 -0.2999
H25B H 0.2004 1.4836 -0.2517
C20B C -0.02085(16) 1.7538(2) -0.16184(17)
H26B H -0.0609 1.7890 -0.1457
H27B H -0.0350 1.7539 -0.2157
H28B H -0.0155 1.6815 -0.1440
C21B C 0.07203(17) 1.8115(2) -0.04880(15)
H29B H 0.0287 1.8414 -0.0350
H30B H 0.0813 1.7400 -0.0299
H31B H 0.1180 1.8539 -0.0278
C22B C 0.04276(17) 1.9204(2) -0.16030(16)
H32B H 0.0006 1.9531 -0.1460
H33B H 0.0900 1.9603 -0.1396
H34B H 0.0304 1.9195 -0.2140
C23B C 0.32735(15) 1.47997(19) -0.14492(14)
C24B C 0.29457(15) 1.4363(2) -0.09520(14)
H35B H 0.2541 1.4689 -0.0811
C25B C 0.32593(16) 1.3396(2) -0.06701(15)
H36B H 0.3095 1.3012 -0.0316
C26B C 0.38289(15) 1.30626(19) -0.09590(14)
C27B C 0.42919(16) 1.2127(2) -0.07905(14)
C28B C 0.49152(17) 1.1850(2) -0.10102(15)
H37B H 0.5099 1.2250 -0.1344
C29B C 0.52590(17) 1.0904(2) -0.06877(15)
H38B H 0.5694 1.0602 -0.0788
C30B C 0.49041(16) 1.0474(2) -0.02200(14)
S3 S 0.19256(5) 0.07636(7) 0.33887(4)
C31 C 0.1866(2) 0.1334(3) 0.4252(2)
F1 F 0.18540(19) 0.23748(18) 0.42040(17)
F2 F 0.24759(17) 0.1075(2) 0.48020(12)
F3 F 0.12594(18) 0.1028(2) 0.44277(19)
O1 O 0.26475(16) 0.1133(2) 0.33461(15)
O2 O 0.1271(2) 0.1204(3) 0.2875(2)
O3 O 0.18959(16) -0.0346(2) 0.35160(16)
S4 S 0.36447(4) 0.58968(5) 0.47361(3)
C32 C 0.28056(17) 0.6501(2) 0.41149(16)
O4 O 0.41124(12) 0.67732(17) 0.50644(11)
O5 O 0.39500(13) 0.52890(17) 0.42542(12)
O6 O 0.33229(13) 0.53135(16) 0.52208(12)
F4 F 0.22844(13) 0.57883(18) 0.37903(14)
F5 F 0.29801(11) 0.70532(16) 0.35910(10)
F6 F 0.24602(12) 0.71508(16) 0.44574(12)
C33 C 0.2097(2) 0.3801(3) 0.2783(2)
H39 H 0.2050 0.3041 0.2730
H40 H 0.2462 0.3973 0.3259
H41 H 0.2281 0.4089 0.2387
C34 C 0.13522(19) 0.4247(2) 0.27422(17)
N3 N 0.07711(16) 0.4598(2) 0.27083(16)
C35 C 0.6265(2) 0.0762(3) 0.5556(2)
H42 H 0.6823 0.0713 0.5659
H43 H 0.6117 0.0513 0.5983
H44 H 0.6105 0.1492 0.5456
C36 C 0.5894(2) 0.0124(3) 0.4920(2)
N4 N 0.5585(2) -0.0358(3) 0.4419(2)
loop_
_geom_bond_atom_site_label_1
_geom_bond_atom_site_label_2
_geom_bond_site_symmetry_1
_geom_bond_site_symmetry_2
B1 C1 1_555 1_555
S1 C23 1_555 1_555
S2 C27 1_555 1_555
N1 C5 1_555 1_555
N2 C16 1_555 1_555
C1 C2 1_555 1_555
C2 C3 1_555 1_555
C3 H1 1_555 1_555
H2 C3 1_555 1_555
H3 C3 1_555 1_555
C4 C2 1_555 1_555
H4 C4 1_555 1_555
C5 C4 1_555 1_555
C6 C5 1_555 1_555
H5 C6 1_555 1_555
C7 C1 1_555 1_555
C8 C7 1_555 1_555
H6 C8 1_555 1_555
H7 C8 1_555 1_555
H8 C8 1_555 1_555
C9 N1 1_555 1_555
H9 C9 1_555 1_555
H10 C9 1_555 1_555
H11 C9 1_555 1_555
C10 N1 1_555 1_555
H12 C10 1_555 1_555
H13 C10 1_555 1_555
H14 C10 1_555 1_555
C11 N1 1_555 1_555
H15 C11 1_555 1_555
H16 C11 1_555 1_555
H17 C11 1_555 1_555
C12 B1 1_555 1_555
C13 C12 1_555 1_555
C14 C13 1_555 1_555
H18 C14 1_555 1_555
H19 C14 1_555 1_555
H20 C14 1_555 1_555
C15 C13 1_555 1_555
H21 C15 1_555 1_555
C16 C15 1_555 1_555
C17 C16 1_555 1_555
H22 C17 1_555 1_555
C18 C12 1_555 1_555
C19 C18 1_555 1_555
H23 C19 1_555 1_555
H24 C19 1_555 1_555
H25 C19 1_555 1_555
C20 N2 1_555 1_555
H26 C20 1_555 1_555
H27 C20 1_555 1_555
H28 C20 1_555 1_555
C21 N2 1_555 1_555
H29 C21 1_555 1_555
H30 C21 1_555 1_555
H31 C21 1_555 1_555
C22 N2 1_555 1_555
H32 C22 1_555 1_555
H33 C22 1_555 1_555
H34 C22 1_555 1_555
C23 B1 1_555 1_555
C24 C23 1_555 1_555
H35 C24 1_555 1_555
C25 C24 1_555 1_555
H36 C25 1_555 1_555
C26 S1 1_555 1_555
C27 C26 1_555 1_555
C28 C27 1_555 1_555
H37 C28 1_555 1_555
C29 C28 1_555 1_555
H38 C29 1_555 1_555
C30 S2 1_555 1_555
S3 C31 1_555 1_555
C31 F1 1_555 1_555
F2 C31 1_555 1_555
F3 C31 1_555 1_555
O1 S3 1_555 1_555
O2 S3 1_555 1_555
O3 S3 1_555 1_555
S4 C32 1_555 1_555
C32 F4 1_555 1_555
O4 S4 1_555 1_555
O5 S4 1_555 1_555
O6 S4 1_555 1_555
F5 C32 1_555 1_555
F6 C32 1_555 1_555
C33 H39 1_555 1_555
H40 C33 1_555 1_555
H41 C33 1_555 1_555
C34 C33 1_555 1_555
N3 C34 1_555 1_555
C35 H42 1_555 1_555
H43 C35 1_555 1_555
H44 C35 1_555 1_555
C36 C35 1_555 1_555
N4 C36 1_555 1_555
B1B C1B 1_555 1_555
S1B C23B 1_555 1_555
S2B C27B 1_555 1_555
N1B C5B 1_555 1_555
N2B C16B 1_555 1_555
C1B C2B 1_555 1_555
C2B C3B 1_555 1_555
C3B H1B 1_555 1_555
H2B C3B 1_555 1_555
H3B C3B 1_555 1_555
C4B C2B 1_555 1_555
H4B C4B 1_555 1_555
C5B C4B 1_555 1_555
C6B C5B 1_555 1_555
H5B C6B 1_555 1_555
C7B C1B 1_555 1_555
C8B C7B 1_555 1_555
H6B C8B 1_555 1_555
H7B C8B 1_555 1_555
H8B C8B 1_555 1_555
C9B N1B 1_555 1_555
H9B C9B 1_555 1_555
H10B C9B 1_555 1_555
H11B C9B 1_555 1_555
C10B N1B 1_555 1_555
H12B C10B 1_555 1_555
H13B C10B 1_555 1_555
H14B C10B 1_555 1_555
C11B N1B 1_555 1_555
H15B C11B 1_555 1_555
H16B C11B 1_555 1_555
H17B C11B 1_555 1_555
C12B B1B 1_555 1_555
C13B C12B 1_555 1_555
C14B C13B 1_555 1_555
H18B C14B 1_555 1_555
H19B C14B 1_555 1_555
H20B C14B 1_555 1_555
C15B C13B 1_555 1_555
H21B C15B 1_555 1_555
C16B C15B 1_555 1_555
C17B C16B 1_555 1_555
H22B C17B 1_555 1_555
C18B C12B 1_555 1_555
C19B C18B 1_555 1_555
H23B C19B 1_555 1_555
H24B C19B 1_555 1_555
H25B C19B 1_555 1_555
C20B N2B 1_555 1_555
H26B C20B 1_555 1_555
H27B C20B 1_555 1_555
H28B C20B 1_555 1_555
C21B N2B 1_555 1_555
H29B C21B 1_555 1_555
H30B C21B 1_555 1_555
H31B C21B 1_555 1_555
C22B N2B 1_555 1_555
H32B C22B 1_555 1_555
H33B C22B 1_555 1_555
H34B C22B 1_555 1_555
C23B B1B 1_555 1_555
C24B C23B 1_555 1_555
H35B C24B 1_555 1_555
C25B C24B 1_555 1_555
H36B C25B 1_555 1_555
C26B S1B 1_555 1_555
C27B C26B 1_555 1_555
C28B C27B 1_555 1_555
H37B C28B 1_555 1_555
C29B C28B 1_555 1_555
H38B C29B 1_555 1_555
C30B C30 1_555 1_555
C6 C7 1_555 1_555
C17 C18 1_555 1_555
C25 C26 1_555 1_555
C29 C30 1_555 1_555
S2B C30B 1_555 1_555
C6B C7B 1_555 1_555
C17B C18B 1_555 1_555
C25B C26B 1_555 1_555
C29B C30B 1_555 1_555

#END
