
#######################################################################
#
#                 Cambridge Crystallographic Data Centre
#                                CCDC 
#
#######################################################################
#
# If this CIF has been generated from an entry in the Cambridge 
# Structural Database, then it will include bibliographic, chemical, 
# crystal, experimental, refinement or atomic coordinate data resulting 
# from the CCDC's data processing and validation procedures.
#
#######################################################################

data_IDEBOL
_chemical_formula_moiety         'C48 H60 B2 N4 S2'
_chemical_name_systematic        
4-((5'-(bis(4-(dimethylamino)-2,6-dimethylphenyl)boryl)-2,2'-bithiophen-5-yl)(4-(dimethylamino)-2,6-dimethylphenyl)boryl)-N,N,3,5-tetramethylaniline
_symmetry_cell_setting           monoclinic
_symmetry_space_group_name_H-M   'P 21/n'
_symmetry_Int_Tables_number      14
_space_group_name_Hall           '-P 2yn'
loop_
_symmetry_equiv_pos_site_id
_symmetry_equiv_pos_as_xyz
1 x,y,z
2 1/2-x,1/2+y,1/2-z
3 -x,-y,-z
4 1/2+x,1/2-y,1/2+z
_cell_length_a                   8.0124(6)
_cell_length_b                   31.519(3)
_cell_length_c                   9.5386(9)
_cell_angle_alpha                90
_cell_angle_beta                 108.566(2)
_cell_angle_gamma                90
_cell_volume                     2283.54
_exptl_crystal_colour            yellow
_exptl_crystal_description       prism
_cell_formula_units_Z            2
_exptl_crystal_recrystallization_method dideuterodichloromethane
_exptl_crystal_preparation       'cut and soaked in perfluoro polyether oil'
loop_
_atom_site_label
_atom_site_type_symbol
_atom_site_fract_x
_atom_site_fract_y
_atom_site_fract_z
S1 S 0.11355(8) 0.52968(2) 0.34390(7)
N1 N 0.6060(3) 0.54854(9) -0.0868(3)
C1 C 0.3083(3) 0.59501(8) 0.1767(3)
C2 C 0.2543(3) 0.60126(8) 0.0220(3)
C3 C 0.5631(3) 0.55699(8) 0.1521(3)
C4 C 0.4659(3) 0.57212(8) 0.2388(3)
C5 C 0.3498(3) 0.58522(8) -0.0642(3)
C6 C 0.7682(3) 0.52561(9) -0.0213(3)
C7 C 0.5081(3) 0.56300(8) -0.0010(3)
C8 C 0.5448(4) 0.56577(10) 0.4036(3)
C9 C 0.5367(4) 0.55072(10) -0.2454(3)
C10 C 0.0224(3) 0.55824(8) 0.5581(3)
C11 C 0.0804(3) 0.59342(8) 0.4951(3)
C12 C 0.1362(3) 0.58373(8) 0.3762(3)
B1 B 0.2005(4) 0.61365(10) 0.2749(3)
C13 C 0.0284(3) 0.52096(8) 0.4860(3)
C14 C 0.1495(4) 0.66169(9) 0.2749(3)
C15 C 0.0601(5) 0.74934(10) 0.2766(5)
C16 C -0.0269(4) 0.67521(9) 0.2415(4)
C17 C 0.0866(4) 0.62534(9) -0.0572(3)
C18 C 0.2798(4) 0.69388(10) 0.3068(4)
C19 C -0.1779(4) 0.64403(10) 0.2018(4)
C20 C 0.4730(4) 0.68300(12) 0.3431(6)
N2 N 0.0180(5) 0.79156(10) 0.2832(6)
C21 C -0.0696(4) 0.71779(10) 0.2401(4)
C22 C 0.2354(5) 0.73613(10) 0.3092(5)
C23 C 0.1502(6) 0.82357(11) 0.3035(6)
C24 C -0.1651(6) 0.80399(13) 0.2348(6)
H1 H 0.6698(3) 0.54217(8) 0.1980(3)
H2 H 0.3075(3) 0.58933(8) -0.1682(3)
H3 H 0.3262(5) 0.75684(10) 0.3336(5)
H4 H -0.1899(4) 0.72581(10) 0.2137(4)
H5 H 0.8487(10) 0.5430(3) 0.0564(15)
H6 H 0.7433(5) 0.4990(3) 0.0215(19)
H7 H 0.8227(14) 0.5193(6) -0.0975(5)
H8 H 0.4723(15) 0.5804(5) 0.4542(3)
H9 H 0.549(2) 0.53539(10) 0.4263(4)
H10 H 0.6644(10) 0.5774(6) 0.4373(5)
H11 H 0.6181(14) 0.5366(6) -0.2884(3)
H12 H 0.4220(13) 0.5365(6) -0.2793(3)
H13 H 0.523(3) 0.58050(10) -0.2765(3)
H14 H -0.0168(3) 0.56016(8) 0.6419(3)
H15 H 0.0811(3) 0.62149(8) 0.5315(3)
H16 H -0.0136(5) 0.6115(4) -0.0382(19)
H17 H 0.0968(11) 0.6546(2) -0.0207(16)
H18 H 0.0685(15) 0.6254(6) -0.1637(4)
H19 H -0.1481(13) 0.6196(3) 0.151(2)
H20 H -0.1998(19) 0.6344(5) 0.2921(4)
H21 H -0.2839(8) 0.6578(2) 0.137(2)
H22 H 0.5050(10) 0.6613(7) 0.421(2)
H23 H 0.4950(9) 0.6722(9) 0.2542(9)
H24 H 0.5441(5) 0.7085(2) 0.378(3)
H25 H 0.2511(19) 0.8166(6) 0.390(2)
H26 H 0.188(3) 0.8249(7) 0.2157(16)
H27 H 0.1016(14) 0.8511(2) 0.318(4)
H28 H -0.2232(13) 0.7928(10) 0.1353(17)
H29 H -0.2227(13) 0.7926(10) 0.303(2)
H30 H -0.1734(6) 0.83502(13) 0.233(4)
S1B S -0.11355(8) 0.47032(2) 0.65610(7)
N1B N -0.6060(3) 0.45146(9) 1.0868(3)
C1B C -0.3083(3) 0.40499(8) 0.8233(3)
C2B C -0.2543(3) 0.39874(8) 0.9780(3)
C3B C -0.5631(3) 0.44301(8) 0.8479(3)
C4B C -0.4659(3) 0.42788(8) 0.7612(3)
C5B C -0.3498(3) 0.41478(8) 1.0642(3)
C6B C -0.7682(3) 0.47439(9) 1.0213(3)
C7B C -0.5081(3) 0.43700(8) 1.0010(3)
C8B C -0.5448(4) 0.43423(10) 0.5964(3)
C9B C -0.5367(4) 0.44928(10) 1.2454(3)
C10B C -0.0224(3) 0.44176(8) 0.4419(3)
C11B C -0.0804(3) 0.40658(8) 0.5049(3)
C12B C -0.1362(3) 0.41627(8) 0.6238(3)
B1B B -0.2005(4) 0.38635(10) 0.7251(3)
C13B C -0.0284(3) 0.47904(8) 0.5140(3)
C14B C -0.1495(4) 0.33831(9) 0.7251(3)
C15B C -0.0601(5) 0.25066(10) 0.7234(5)
C16B C 0.0269(4) 0.32479(9) 0.7585(4)
C17B C -0.0866(4) 0.37466(9) 1.0572(3)
C18B C -0.2798(4) 0.30612(10) 0.6932(4)
C19B C 0.1779(4) 0.35597(10) 0.7982(4)
C20B C -0.4730(4) 0.31700(12) 0.6569(6)
N2B N -0.0180(5) 0.20844(10) 0.7168(6)
C21B C 0.0696(4) 0.28221(10) 0.7599(4)
C22B C -0.2354(5) 0.26387(10) 0.6908(5)
C23B C -0.1502(6) 0.17643(11) 0.6965(6)
C24B C 0.1651(6) 0.19601(13) 0.7652(6)
H1B H -0.6698(3) 0.45783(8) 0.8020(3)
H2B H -0.3075(3) 0.41067(8) 1.1682(3)
H3B H -0.3262(5) 0.24316(10) 0.6664(5)
H4B H 0.1899(4) 0.27419(10) 0.7863(4)
H5B H -0.8487(10) 0.4570(3) 0.9436(15)
H6B H -0.7433(5) 0.5010(3) 0.9785(19)
H7B H -0.8227(14) 0.4807(6) 1.0975(5)
H8B H -0.4723(15) 0.4196(5) 0.5458(3)
H9B H -0.549(2) 0.46461(10) 0.5737(4)
H10B H -0.6644(10) 0.4226(6) 0.5627(5)
H11B H -0.6181(14) 0.4634(6) 1.2884(3)
H12B H -0.4220(13) 0.4635(6) 1.2793(3)
H13B H -0.523(3) 0.41950(10) 1.2765(3)
H14B H 0.0168(3) 0.43984(8) 0.3581(3)
H15B H -0.0811(3) 0.37851(8) 0.4685(3)
H16B H 0.0136(5) 0.3885(4) 1.0382(19)
H17B H -0.0968(11) 0.3454(2) 1.0207(16)
H18B H -0.0685(15) 0.3746(6) 1.1637(4)
H19B H 0.1481(13) 0.3804(3) 0.849(2)
H20B H 0.1998(19) 0.3656(5) 0.7079(4)
H21B H 0.2839(8) 0.3422(2) 0.863(2)
H22B H -0.5050(10) 0.3387(7) 0.579(2)
H23B H -0.4950(9) 0.3278(9) 0.7458(9)
H24B H -0.5441(5) 0.2915(2) 0.622(3)
H25B H -0.2511(19) 0.1834(6) 0.610(2)
H26B H -0.188(3) 0.1751(7) 0.7843(16)
H27B H -0.1016(14) 0.1489(2) 0.682(4)
H28B H 0.2232(13) 0.2072(10) 0.8647(17)
H29B H 0.2227(13) 0.2074(10) 0.697(2)
H30B H 0.1734(6) 0.16498(13) 0.767(4)
loop_
_geom_bond_atom_site_label_1
_geom_bond_atom_site_label_2
_geom_bond_site_symmetry_1
_geom_bond_site_symmetry_2
S1 C12 1_555 1_555
N1 C6 1_555 1_555
C1 C2 1_555 1_555
C2 C5 1_555 1_555
C3 C4 1_555 1_555
C4 C1 1_555 1_555
C5 C7 1_555 1_555
C6 H5 1_555 1_555
C7 N1 1_555 1_555
C8 C4 1_555 1_555
C9 N1 1_555 1_555
C10 C11 1_555 1_555
C11 C12 1_555 1_555
C12 B1 1_555 1_555
B1 C1 1_555 1_555
C13 S1 1_555 1_555
C14 B1 1_555 1_555
C15 N2 1_555 1_555
C16 C14 1_555 1_555
C17 C2 1_555 1_555
C18 C14 1_555 1_555
C19 C16 1_555 1_555
C20 C18 1_555 1_555
N2 C23 1_555 1_555
C21 C15 1_555 1_555
C22 C15 1_555 1_555
C23 H25 1_555 1_555
C24 N2 1_555 1_555
H1 C3 1_555 1_555
H2 C5 1_555 1_555
H3 C22 1_555 1_555
H4 C21 1_555 1_555
H6 C6 1_555 1_555
H7 C6 1_555 1_555
H8 C8 1_555 1_555
H9 C8 1_555 1_555
H10 C8 1_555 1_555
H11 C9 1_555 1_555
H12 C9 1_555 1_555
H13 C9 1_555 1_555
H14 C10 1_555 1_555
H15 C11 1_555 1_555
H16 C17 1_555 1_555
H17 C17 1_555 1_555
H18 C17 1_555 1_555
H19 C19 1_555 1_555
H20 C19 1_555 1_555
H21 C19 1_555 1_555
H22 C20 1_555 1_555
H23 C20 1_555 1_555
H24 C20 1_555 1_555
H26 C23 1_555 1_555
H27 C23 1_555 1_555
H28 C24 1_555 1_555
H29 C24 1_555 1_555
H30 C24 1_555 1_555
S1B C12B 1_555 1_555
N1B C6B 1_555 1_555
C1B C2B 1_555 1_555
C2B C5B 1_555 1_555
C3B C4B 1_555 1_555
C4B C1B 1_555 1_555
C5B C7B 1_555 1_555
C6B H5B 1_555 1_555
C7B N1B 1_555 1_555
C8B C4B 1_555 1_555
C9B N1B 1_555 1_555
C10B C11B 1_555 1_555
C11B C12B 1_555 1_555
C12B B1B 1_555 1_555
B1B C1B 1_555 1_555
C13B C13 1_555 1_555
C14B B1B 1_555 1_555
C15B N2B 1_555 1_555
C16B C14B 1_555 1_555
C17B C2B 1_555 1_555
C18B C14B 1_555 1_555
C19B C16B 1_555 1_555
C20B C18B 1_555 1_555
N2B C23B 1_555 1_555
C21B C15B 1_555 1_555
C22B C15B 1_555 1_555
C23B H25B 1_555 1_555
C24B N2B 1_555 1_555
H1B C3B 1_555 1_555
H2B C5B 1_555 1_555
H3B C22B 1_555 1_555
H4B C21B 1_555 1_555
H6B C6B 1_555 1_555
H7B C6B 1_555 1_555
H8B C8B 1_555 1_555
H9B C8B 1_555 1_555
H10B C8B 1_555 1_555
H11B C9B 1_555 1_555
H12B C9B 1_555 1_555
H13B C9B 1_555 1_555
H14B C10B 1_555 1_555
H15B C11B 1_555 1_555
H16B C17B 1_555 1_555
H17B C17B 1_555 1_555
H18B C17B 1_555 1_555
H19B C19B 1_555 1_555
H20B C19B 1_555 1_555
H21B C19B 1_555 1_555
H22B C20B 1_555 1_555
H23B C20B 1_555 1_555
H24B C20B 1_555 1_555
H26B C23B 1_555 1_555
H27B C23B 1_555 1_555
H28B C24B 1_555 1_555
H29B C24B 1_555 1_555
H30B C24B 1_555 1_555
C3 C7 1_555 1_555
C10 C13 1_555 1_555
C16 C21 1_555 1_555
C18 C22 1_555 1_555
S1B C13B 1_555 1_555
C3B C7B 1_555 1_555
C10B C13B 1_555 1_555
C16B C21B 1_555 1_555
C18B C22B 1_555 1_555

#END
