
#######################################################################
#
#                 Cambridge Crystallographic Data Centre
#                                CCDC 
#
#######################################################################
#
# If this CIF has been generated from an entry in the Cambridge 
# Structural Database, then it will include bibliographic, chemical, 
# crystal, experimental, refinement or atomic coordinate data resulting 
# from the CCDC's data processing and validation procedures.
#
#######################################################################

data_IDESEQ
_chemical_formula_moiety         'C21 H24 N2 O12,H2 O1'
_chemical_name_systematic        
'4-Nitro-N-(2,3,4,6-tetra-O-acetyl-\b-D-glucopyranosyl)benzamide monohydrate'
_symmetry_cell_setting           orthorhombic
_symmetry_space_group_name_H-M   'P 21 21 21'
_symmetry_Int_Tables_number      19
_space_group_name_Hall           'P 2ac 2ab'
loop_
_symmetry_equiv_pos_site_id
_symmetry_equiv_pos_as_xyz
1 x,y,z
2 1/2-x,-y,1/2+z
3 -x,1/2+y,1/2-z
4 1/2+x,1/2-y,-z
_cell_length_a                   6.4411(3)
_cell_length_b                   17.5338(9)
_cell_length_c                   21.0656(10)
_cell_angle_alpha                90
_cell_angle_beta                 90
_cell_angle_gamma                90
_cell_volume                     2379.08
_exptl_crystal_colour            colorless
_exptl_crystal_description       block
_chemical_melting_point          '199-201 deg.C'
_cell_formula_units_Z            4
loop_
_atom_site_label
_atom_site_type_symbol
_atom_site_fract_x
_atom_site_fract_y
_atom_site_fract_z
C1 C 0.7139(4) 0.52359(13) 0.87707(11)
H1 H 0.587(5) 0.5264(17) 0.9023(14)
C2 C 0.8613(4) 0.58837(14) 0.89289(11)
H2 H 0.995(5) 0.5828(17) 0.8708(14)
C3 C 0.7594(4) 0.66475(13) 0.87867(12)
H3 H 0.654(5) 0.6752(17) 0.9075(15)
C4 C 0.6741(4) 0.66712(13) 0.81141(11)
H4 H 0.778(5) 0.6719(17) 0.7814(15)
C5 C 0.5443(4) 0.59568(14) 0.79673(11)
H5 H 0.416(5) 0.5956(17) 0.8199(14)
C6 C 0.4961(4) 0.59305(15) 0.72633(12)
H6 H 0.624(6) 0.5853(17) 0.7043(15)
H7 H 0.430(5) 0.6379(18) 0.7142(15)
C7 C 1.0908(4) 0.56232(13) 0.97964(13)
C8 C 1.0938(5) 0.55479(16) 1.05060(13)
H8 H 1.2354 0.5434 1.0648
H9 H 1.0007 0.5134 1.0635
H10 H 1.0474 0.6027 1.0699
C9 C 0.8979(5) 0.77550(14) 0.93088(12)
C10 C 1.0796(5) 0.82892(16) 0.92912(14)
H11 H 1.0642 0.8674 0.9626
H12 H 1.0852 0.8542 0.8877
H13 H 1.2080 0.8001 0.9360
C11 C 0.5723(4) 0.78723(14) 0.76507(12)
C12 C 0.4064(5) 0.84684(15) 0.76816(13)
H14 H 0.4384 0.8878 0.7380
H15 H 0.3998 0.8678 0.8112
H16 H 0.2722 0.8240 0.7572
C13 C 0.1590(4) 0.54007(15) 0.72025(12)
C14 C 0.0365(4) 0.47069(16) 0.70291(12)
H17 H -0.0256 0.4778 0.6608
H18 H -0.0736 0.4627 0.7343
H19 H 0.1284 0.4262 0.7022
C15 C 0.7047(4) 0.38956(14) 0.90623(11)
C16 C 0.8297(4) 0.31721(14) 0.91308(11)
C17 C 0.7307(4) 0.24876(15) 0.89981(11)
H20 H 0.592(5) 0.2484(17) 0.8863(15)
C18 C 0.8347(4) 0.18034(15) 0.90723(12)
H21 H 0.772(5) 0.1346(18) 0.8984(15)
C19 C 1.0405(4) 0.18316(14) 0.92693(11)
C20 C 1.1433(4) 0.25077(14) 0.94081(11)
H22 H 1.285(5) 0.2495(17) 0.9575(14)
C21 C 1.0351(4) 0.31848(14) 0.93406(11)
H23 H 1.099(5) 0.3637(18) 0.9440(15)
N1 N 0.8122(3) 0.45137(12) 0.88669(10)
H24 H 0.926(5) 0.4450(17) 0.8741(15)
N2 N 1.1561(4) 0.11129(12) 0.93337(11)
O1 O 0.6610(3) 0.52864(9) 0.81108(8)
O2 O 0.9010(3) 0.58655(10) 0.96020(8)
O3 O 1.2297(3) 0.54818(14) 0.94456(10)
O4 O 0.9164(3) 0.72322(10) 0.88346(9)
O5 O 0.7560(4) 0.77772(11) 0.96681(10)
O6 O 0.5353(3) 0.73189(10) 0.80803(8)
O7 O 0.7175(4) 0.78691(12) 0.72920(12)
O8 O 0.3648(3) 0.52951(10) 0.71016(8)
O9 O 0.0876(3) 0.59884(12) 0.73929(10)
O10 O 0.5187(3) 0.38948(11) 0.91829(9)
O11 O 1.0591(4) 0.05153(11) 0.93268(11)
O12 O 1.3457(4) 0.11529(12) 0.93909(12)
O13 O 0.2092(3) 0.43377(11) 0.83310(9)
H25 H 0.305(6) 0.435(2) 0.8567(17)
H26 H 0.227(6) 0.392(2) 0.8164(16)
loop_
_geom_bond_atom_site_label_1
_geom_bond_atom_site_label_2
_geom_bond_site_symmetry_1
_geom_bond_site_symmetry_2
C1 H1 1_555 1_555
C2 C1 1_555 1_555
H2 C2 1_555 1_555
C3 C2 1_555 1_555
H3 C3 1_555 1_555
C4 C3 1_555 1_555
H4 C4 1_555 1_555
C5 C4 1_555 1_555
H5 C5 1_555 1_555
C6 C5 1_555 1_555
H6 C6 1_555 1_555
H7 C6 1_555 1_555
C7 C8 1_555 1_555
C8 H8 1_555 1_555
H9 C8 1_555 1_555
H10 C8 1_555 1_555
C9 C10 1_555 1_555
C10 H11 1_555 1_555
H12 C10 1_555 1_555
H13 C10 1_555 1_555
C11 C12 1_555 1_555
C12 H14 1_555 1_555
H15 C12 1_555 1_555
H16 C12 1_555 1_555
C13 C14 1_555 1_555
C14 H17 1_555 1_555
H18 C14 1_555 1_555
H19 C14 1_555 1_555
C15 C16 1_555 1_555
C16 C17 1_555 1_555
C17 H20 1_555 1_555
C18 C17 1_555 1_555
H21 C18 1_555 1_555
C19 C18 1_555 1_555
C20 C19 1_555 1_555
H22 C20 1_555 1_555
C21 C16 1_555 1_555
H23 C21 1_555 1_555
N1 C1 1_555 1_555
H24 N1 1_555 1_555
N2 C19 1_555 1_555
O1 C1 1_555 1_555
O2 C2 1_555 1_555
O3 C7 1_555 1_555
O4 C3 1_555 1_555
O5 C9 1_555 1_555
O6 C4 1_555 1_555
O7 C11 1_555 1_555
O8 C6 1_555 1_555
O9 C13 1_555 1_555
O10 C15 1_555 1_555
O11 N2 1_555 1_555
O12 N2 1_555 1_555
O13 H25 1_555 1_555
H26 O13 1_555 1_555
C5 O1 1_555 1_555
C7 O2 1_555 1_555
C9 O4 1_555 1_555
C11 O6 1_555 1_555
C13 O8 1_555 1_555
C15 N1 1_555 1_555
C20 C21 1_555 1_555

#END
