
#######################################################################
#
#                 Cambridge Crystallographic Data Centre
#                                CCDC 
#
#######################################################################
#
# If this CIF has been generated from an entry in the Cambridge 
# Structural Database, then it will include bibliographic, chemical, 
# crystal, experimental, refinement or atomic coordinate data resulting 
# from the CCDC's data processing and validation procedures.
#
#######################################################################

data_IDESIW
_chemical_formula_moiety         'C10 H15 O3 1-,C12 H14 N1 1+'
_chemical_name_systematic        
'1-(naphthalen-1-yl)ethylammonium 2-hydroxy-6,6-dimethylbicyclo[3.1.1]heptane-2-carboxylate'
_symmetry_cell_setting           monoclinic
_symmetry_space_group_name_H-M   'P 21'
_symmetry_Int_Tables_number      4
_space_group_name_Hall           'P 2yb'
loop_
_symmetry_equiv_pos_site_id
_symmetry_equiv_pos_as_xyz
1 x,y,z
2 -x,1/2+y,-z
_cell_length_a                   6.6130(9)
_cell_length_b                   23.609(3)
_cell_length_c                   12.1940(17)
_cell_angle_alpha                90
_cell_angle_beta                 90.037(3)
_cell_angle_gamma                90
_cell_volume                     1903.8
_exptl_crystal_colour            colorless
_exptl_crystal_description       block
_cell_formula_units_Z            4
loop_
_atom_site_label
_atom_site_type_symbol
_atom_site_fract_x
_atom_site_fract_y
_atom_site_fract_z
O1 O 0.4205(2) 0.16885(6) 0.56626(11)
H1 H 0.5391 0.1557 0.5562
O2 O 0.5438(2) 0.07797(6) 0.67890(13)
O3 O 0.2448(2) 0.07663(5) 0.75770(11)
C1 C 0.3403(4) 0.17377(9) 0.93433(17)
H2 H 0.2241 0.1604 0.8917
H3 H 0.2925 0.1928 1.0009
H4 H 0.4253 0.1414 0.9546
C2 C 0.6437(4) 0.23535(10) 0.93436(18)
H5 H 0.7244 0.2621 0.8912
H6 H 0.7275 0.2028 0.9547
H7 H 0.5946 0.2541 1.0009
C3 C 0.4628(3) 0.21509(8) 0.86586(16)
C4 C 0.5299(3) 0.19873(8) 0.74700(16)
H8 H 0.6706 0.1834 0.7415
C5 C 0.5087(4) 0.26154(9) 0.71524(19)
H9 H 0.6320 0.2844 0.7278
H10 H 0.4526 0.2680 0.6410
C6 C 0.3527(4) 0.26510(8) 0.80758(18)
H11 H 0.3521 0.3016 0.8492
C7 C 0.1493(3) 0.24704(9) 0.76229(19)
H12 H 0.0947 0.2779 0.7161
H13 H 0.0545 0.2412 0.8241
C8 C 0.1590(3) 0.19195(8) 0.69322(17)
H14 H 0.0681 0.1636 0.7270
H15 H 0.1060 0.2002 0.6190
C9 C 0.3711(3) 0.16539(8) 0.68137(15)
C10 C 0.3860(3) 0.10175(8) 0.70991(14)
N1 N 1.0886(2) 0.53009(7) 0.35104(12)
H16 H 1.1831 0.5553 0.3276
H17 H 0.9642 0.5410 0.3270
H18 H 1.1179 0.4951 0.3239
C11 C 0.8552(3) 0.39189(7) 0.75817(15)
H19 H 0.7562 0.3662 0.7847
C12 C 1.0271(4) 0.40060(8) 0.81805(16)
H20 H 1.0465 0.3810 0.8853
C13 C 1.1749(3) 0.43846(9) 0.78018(17)
H21 H 1.2934 0.4450 0.8225
C14 C 1.1489(3) 0.46599(8) 0.68265(16)
H22 H 1.2514 0.4910 0.6573
C15 C 0.9708(3) 0.45801(7) 0.61783(15)
C16 C 0.8211(3) 0.42020(7) 0.65755(15)
C17 C 0.6404(3) 0.41190(8) 0.59716(15)
H23 H 0.5404 0.3866 0.6243
C18 C 0.6079(3) 0.43976(8) 0.50022(16)
H24 H 0.4870 0.4337 0.4598
C19 C 0.7558(3) 0.47748(8) 0.46137(15)
H25 H 0.7315 0.4974 0.3949
C20 C 0.9343(3) 0.48653(7) 0.51619(15)
C21 C 1.0894(3) 0.52806(8) 0.47312(14)
H26 H 1.2262 0.5154 0.4979
C22 C 1.0538(3) 0.58823(8) 0.51601(15)
H27 H 1.0537 0.5879 0.5964
H28 H 0.9231 0.6021 0.4894
H29 H 1.1618 0.6132 0.4897
O4 O 0.9451(3) 0.84650(7) 0.91514(12)
O5 O 0.99162(19) 0.93144(5) 0.76143(12)
O6 O 0.6718(2) 0.91033(6) 0.72766(11)
C23 C 0.8721(4) 0.81953(10) 0.55377(17)
H30 H 0.7481 0.8271 0.5952
H31 H 0.8400 0.7963 0.4895
H32 H 0.9317 0.8555 0.5298
C24 C 1.2146(4) 0.77660(11) 0.5609(2)
H33 H 1.3117 0.7563 0.6073
H34 H 1.2737 0.8126 0.5370
H35 H 1.1820 0.7534 0.4966
C25 C 1.0217(3) 0.78817(8) 0.62616(17)
C26 C 1.0746(3) 0.81170(8) 0.74357(17)
H36 H 1.2003 0.8352 0.7475
C27 C 1.1000(4) 0.74929(8) 0.7812(2)
H37 H 1.0487 0.7415 0.8560
H38 H 1.2379 0.7338 0.7709
C28 C 0.9495(3) 0.73418(8) 0.68793(19)
H39 H 0.9769 0.6976 0.6495
C29 C 0.7377(4) 0.74147(9) 0.7290(2)
H40 H 0.7006 0.7082 0.7741
H41 H 0.6443 0.7429 0.6656
C30 C 0.7111(3) 0.79605(9) 0.79847(19)
H42 H 0.5925 0.8170 0.7700
H43 H 0.6800 0.7848 0.8748
C31 C 0.8933(3) 0.83662(8) 0.80062(15)
C32 C 0.8449(3) 0.89719(7) 0.75862(14)
H44 H 1.026(5) 0.8703(13) 0.915(3)
N2 N 0.6348(2) 0.46878(6) 1.17129(12)
H45 H 0.7287 0.4425 1.1910
H46 H 0.5143 0.4603 1.2032
H47 H 0.6760 0.5037 1.1938
C33 C 0.3437(3) 0.60917(8) 0.77758(15)
H48 H 0.2407 0.6348 0.7556
C34 C 0.5070(4) 0.60136(8) 0.71198(15)
H49 H 0.5191 0.6217 0.6451
C35 C 0.6581(4) 0.56290(8) 0.74409(17)
H50 H 0.7716 0.5571 0.6977
C36 C 0.6458(3) 0.53369(8) 0.84010(15)
H51 H 0.7502 0.5079 0.8597
C37 C 0.4785(3) 0.54139(7) 0.91100(15)
C38 C 0.3241(3) 0.58013(7) 0.87701(15)
C39 C 0.1521(3) 0.58812(8) 0.94402(16)
H52 H 0.0492 0.6138 0.9223
C40 C 0.1342(3) 0.55878(8) 1.04016(16)
H53 H 0.0184 0.5643 1.0850
C41 C 0.2842(3) 0.52079(8) 1.07328(16)
H54 H 0.2669 0.5005 1.1399
C42 C 0.4556(3) 0.51190(7) 1.01241(15)
C43 C 0.6110(3) 0.46865(8) 1.04956(14)
H55 H 0.7441 0.4792 1.0165
C44 C 0.5586(3) 0.40899(8) 1.01170(16)
H56 H 0.5428 0.4086 0.9318
H57 H 0.4320 0.3969 1.0462
H58 H 0.6675 0.3830 1.0327
loop_
_geom_bond_atom_site_label_1
_geom_bond_atom_site_label_2
_geom_bond_site_symmetry_1
_geom_bond_site_symmetry_2
O1 H1 1_555 1_555
O2 C10 1_555 1_555
O3 C10 1_555 1_555
C1 H2 1_555 1_555
H3 C1 1_555 1_555
H4 C1 1_555 1_555
C2 H5 1_555 1_555
H6 C2 1_555 1_555
H7 C2 1_555 1_555
C3 C1 1_555 1_555
C4 C3 1_555 1_555
H8 C4 1_555 1_555
C5 C4 1_555 1_555
H9 C5 1_555 1_555
H10 C5 1_555 1_555
C6 C3 1_555 1_555
H11 C6 1_555 1_555
C7 C6 1_555 1_555
H12 C7 1_555 1_555
H13 C7 1_555 1_555
C8 C7 1_555 1_555
H14 C8 1_555 1_555
H15 C8 1_555 1_555
C9 O1 1_555 1_555
C10 C9 1_555 1_555
N1 H16 1_555 1_555
H17 N1 1_555 1_555
H18 N1 1_555 1_555
C11 H19 1_555 1_555
C12 C11 1_555 1_555
H20 C12 1_555 1_555
C13 C12 1_555 1_555
H21 C13 1_555 1_555
C14 C13 1_555 1_555
H22 C14 1_555 1_555
C15 C14 1_555 1_555
C16 C11 1_555 1_555
C17 C16 1_555 1_555
H23 C17 1_555 1_555
C18 C17 1_555 1_555
H24 C18 1_555 1_555
C19 C18 1_555 1_555
H25 C19 1_555 1_555
C20 C15 1_555 1_555
C21 N1 1_555 1_555
H26 C21 1_555 1_555
C22 C21 1_555 1_555
H27 C22 1_555 1_555
H28 C22 1_555 1_555
H29 C22 1_555 1_555
O4 C31 1_555 1_555
O5 C32 1_555 1_555
O6 C32 1_555 1_555
C23 H30 1_555 1_555
H31 C23 1_555 1_555
H32 C23 1_555 1_555
C24 H33 1_555 1_555
H34 C24 1_555 1_555
H35 C24 1_555 1_555
C25 C23 1_555 1_555
C26 C25 1_555 1_555
H36 C26 1_555 1_555
C27 C26 1_555 1_555
H37 C27 1_555 1_555
H38 C27 1_555 1_555
C28 C25 1_555 1_555
H39 C28 1_555 1_555
C29 C28 1_555 1_555
H40 C29 1_555 1_555
H41 C29 1_555 1_555
C30 C29 1_555 1_555
H42 C30 1_555 1_555
H43 C30 1_555 1_555
C31 C26 1_555 1_555
C32 C31 1_555 1_555
H44 O4 1_555 1_555
N2 H45 1_555 1_555
H46 N2 1_555 1_555
H47 N2 1_555 1_555
C33 H48 1_555 1_555
C34 C33 1_555 1_555
H49 C34 1_555 1_555
C35 C34 1_555 1_555
H50 C35 1_555 1_555
C36 C35 1_555 1_555
H51 C36 1_555 1_555
C37 C36 1_555 1_555
C38 C33 1_555 1_555
C39 C38 1_555 1_555
H52 C39 1_555 1_555
C40 C39 1_555 1_555
H53 C40 1_555 1_555
C41 C40 1_555 1_555
H54 C41 1_555 1_555
C42 C37 1_555 1_555
C43 N2 1_555 1_555
H55 C43 1_555 1_555
C44 C43 1_555 1_555
H56 C44 1_555 1_555
H57 C44 1_555 1_555
H58 C44 1_555 1_555
C2 C3 1_555 1_555
C4 C9 1_555 1_555
C5 C6 1_555 1_555
C8 C9 1_555 1_555
C15 C16 1_555 1_555
C19 C20 1_555 1_555
C20 C21 1_555 1_555
C24 C25 1_555 1_555
C27 C28 1_555 1_555
C30 C31 1_555 1_555
C37 C38 1_555 1_555
C41 C42 1_555 1_555
C42 C43 1_555 1_555

#END
