
#######################################################################
#
#                 Cambridge Crystallographic Data Centre
#                                CCDC 
#
#######################################################################
#
# If this CIF has been generated from an entry in the Cambridge 
# Structural Database, then it will include bibliographic, chemical, 
# crystal, experimental, refinement or atomic coordinate data resulting 
# from the CCDC's data processing and validation procedures.
#
#######################################################################

data_IDEXEX
_chemical_formula_moiety         'C22 H17 Br1 O3'
_chemical_name_systematic        
6-bromo-4-(4-methoxyphenyl)-3-phenyl-3,4-dihydro-2H-1-benzopyran-2-one
_symmetry_cell_setting           orthorhombic
_symmetry_space_group_name_H-M   'P 21 21 21'
_symmetry_Int_Tables_number      19
_space_group_name_Hall           'P 2ac 2ab'
loop_
_symmetry_equiv_pos_site_id
_symmetry_equiv_pos_as_xyz
1 x,y,z
2 1/2-x,-y,1/2+z
3 -x,1/2+y,1/2-z
4 1/2+x,1/2-y,-z
_cell_length_a                   9.2613(7)
_cell_length_b                   11.8708(8)
_cell_length_c                   16.6276(13)
_cell_angle_alpha                90
_cell_angle_beta                 90
_cell_angle_gamma                90
_cell_volume                     1828.02
_exptl_crystal_colour            colorless
_exptl_crystal_description       prism
_cell_formula_units_Z            4
loop_
_atom_site_label
_atom_site_type_symbol
_atom_site_fract_x
_atom_site_fract_y
_atom_site_fract_z
C1 C 0.4823(4) 0.3075(3) 0.43316(19)
C2 C 0.5541(4) 0.3338(3) 0.50379(17)
H1 H 0.643106 0.298080 0.516360
C3 C 0.4952(4) 0.4127(3) 0.55621(19)
C4 C 0.5664(4) 0.4467(3) 0.63433(19)
H2 H 0.618(3) 0.384(3) 0.6525(18)
C5 C 0.4439(4) 0.4662(3) 0.69645(19)
H3 H 0.385(4) 0.397(3) 0.7017(19)
C6 C 0.3368(4) 0.5519(4) 0.6646(2)
C7 C 0.3640(4) 0.4605(3) 0.5360(2)
C8 C 0.2927(4) 0.4355(3) 0.4647(2)
H4 H 0.203396 0.470805 0.452202
C9 C 0.3532(4) 0.3587(3) 0.4125(2)
H5 H 0.307016 0.341103 0.363019
C10 C 0.4972(4) 0.4893(3) 0.7807(2)
C11 C 0.5450(4) 0.5954(3) 0.8062(2)
H6 H 0.539716 0.657669 0.770454
C12 C 0.5994(4) 0.6107(3) 0.8825(2)
H7 H 0.629651 0.683418 0.899382
C13 C 0.6099(4) 0.5199(4) 0.9347(2)
H8 H 0.649357 0.529827 0.986974
C14 C 0.5634(5) 0.4161(3) 0.9106(2)
H9 H 0.569009 0.354145 0.946613
C15 C 0.5079(4) 0.4003(3) 0.8339(2)
H10 H 0.476853 0.327469 0.817741
C16 C 0.6674(4) 0.5463(3) 0.62472(18)
C17 C 0.7948(4) 0.5541(3) 0.6678(2)
H11 H 0.819286 0.494905 0.703781
C18 C 0.8883(4) 0.6449(3) 0.6606(2)
H12 H 0.974545 0.647763 0.691455
C19 C 0.8543(4) 0.7316(3) 0.60794(19)
C20 C 1.0618(5) 0.8421(3) 0.6415(2)
H13 H 1.109200 0.912116 0.624895
H14 H 1.034652 0.847280 0.698356
H15 H 1.128243 0.778724 0.633933
C21 C 0.7269(4) 0.7248(3) 0.56335(19)
H16 H 0.702916 0.783515 0.526870
C22 C 0.6363(4) 0.6347(3) 0.57161(19)
H17 H 0.550212 0.631965 0.540610
Br1 Br 0.56021(6) 0.19376(4) 0.36488(2)
O1 O 0.2991(3) 0.5421(2) 0.58517(14)
O2 O 0.2793(3) 0.6247(3) 0.70309(16)
O3 O 0.9363(3) 0.8249(2) 0.59427(14)
loop_
_geom_bond_atom_site_label_1
_geom_bond_atom_site_label_2
_geom_bond_site_symmetry_1
_geom_bond_site_symmetry_2
C1 C2 1_555 1_555
C2 H1 1_555 1_555
C3 C2 1_555 1_555
C4 C3 1_555 1_555
H2 C4 1_555 1_555
C5 C4 1_555 1_555
H3 C5 1_555 1_555
C6 C5 1_555 1_555
C7 C3 1_555 1_555
C8 C7 1_555 1_555
H4 C8 1_555 1_555
C9 C1 1_555 1_555
H5 C9 1_555 1_555
C10 C5 1_555 1_555
C11 C10 1_555 1_555
H6 C11 1_555 1_555
C12 C11 1_555 1_555
H7 C12 1_555 1_555
C13 C12 1_555 1_555
H8 C13 1_555 1_555
C14 C13 1_555 1_555
H9 C14 1_555 1_555
C15 C10 1_555 1_555
H10 C15 1_555 1_555
C16 C4 1_555 1_555
C17 C16 1_555 1_555
H11 C17 1_555 1_555
C18 C17 1_555 1_555
H12 C18 1_555 1_555
C19 C18 1_555 1_555
C20 H13 1_555 1_555
H14 C20 1_555 1_555
H15 C20 1_555 1_555
C21 C19 1_555 1_555
H16 C21 1_555 1_555
C22 C16 1_555 1_555
H17 C22 1_555 1_555
Br1 C1 1_555 1_555
O1 C6 1_555 1_555
O2 C6 1_555 1_555
O3 C19 1_555 1_555
C7 O1 1_555 1_555
C8 C9 1_555 1_555
C14 C15 1_555 1_555
C20 O3 1_555 1_555
C21 C22 1_555 1_555

#END
