
#######################################################################
#
#                 Cambridge Crystallographic Data Centre
#                                CCDC 
#
#######################################################################
#
# If this CIF has been generated from an entry in the Cambridge 
# Structural Database, then it will include bibliographic, chemical, 
# crystal, experimental, refinement or atomic coordinate data resulting 
# from the CCDC's data processing and validation procedures.
#
#######################################################################

data_IDICAA
_chemical_formula_moiety         'C31 H42 N4 O2 S2'
_chemical_name_systematic        
(4S,5S)-4,5-bis(1-(2,4,6-Trimethylphenyl)-2-thioxoimidazolidin-3-ylmethyl)-2,2-dimethyl-1,3-dioxolane
_symmetry_cell_setting           monoclinic
_symmetry_space_group_name_H-M   'P 21'
_symmetry_Int_Tables_number      4
_space_group_name_Hall           'P 2yb'
loop_
_symmetry_equiv_pos_site_id
_symmetry_equiv_pos_as_xyz
1 x,y,z
2 -x,1/2+y,-z
_cell_length_a                   7.7147(4)
_cell_length_b                   18.6723(8)
_cell_length_c                   11.1002(5)
_cell_angle_alpha                90
_cell_angle_beta                 104.461(2)
_cell_angle_gamma                90
_cell_volume                     1548.34
_exptl_crystal_colour            colorless
_exptl_crystal_description       needle
_cell_formula_units_Z            2
_exptl_crystal_recrystallization_method methanol
loop_
_atom_site_label
_atom_site_type_symbol
_atom_site_fract_x
_atom_site_fract_y
_atom_site_fract_z
C1 C 0.8437(7) 0.3276(3) 0.3639(4)
C2 C 0.6572(7) 0.3315(3) 0.3251(4)
C3 C 0.5743(7) 0.3911(3) 0.3623(4)
H1 H 0.4502 0.3947 0.3381
C4 C 0.6719(8) 0.4447(3) 0.4340(4)
C5 C 0.8558(8) 0.4379(3) 0.4714(4)
H2 H 0.9220 0.4735 0.5210
C6 C 0.9442(7) 0.3803(3) 0.4379(4)
C7 C 0.5475(7) 0.2740(3) 0.2462(5)
H3 H 0.5686 0.2748 0.1646
H4 H 0.4228 0.2823 0.2401
H5 H 0.5812 0.2281 0.2837
C8 C 0.5755(8) 0.5087(3) 0.4735(5)
H6 H 0.4835 0.5251 0.4038
H7 H 0.6597 0.5466 0.5020
H8 H 0.5226 0.4946 0.5394
C9 C 1.1441(7) 0.3767(3) 0.4762(5)
H9 H 1.1805 0.3383 0.5346
H10 H 1.1908 0.4211 0.5143
H11 H 1.1892 0.3683 0.4043
N1 N 0.9344(5) 0.2673(2) 0.3278(3)
C10 C 0.9711(7) 0.2588(3) 0.2164(4)
N2 N 1.0420(5) 0.1933(2) 0.2108(3)
C11 C 1.0808(7) 0.1580(3) 0.3316(4)
H12 H 1.2078 0.1595 0.3718
H13 H 1.0414 0.1085 0.3238
C12 C 0.9747(7) 0.2015(3) 0.4029(4)
H14 H 0.8658 0.1768 0.4076
H15 H 1.0449 0.2119 0.4865
S1 S 0.9370(2) 0.32036(7) 0.10427(13)
C13 C 1.1127(7) 0.1665(3) 0.1112(4)
H16 H 1.2263 0.1431 0.1464
H17 H 1.1351 0.2065 0.0614
C14 C 0.9877(7) 0.1139(3) 0.0277(5)
H18 H 0.9662 0.0725 0.0763
O1 O 1.0743(5) 0.0916(2) -0.0657(3)
C15 C 0.9480(7) 0.0831(3) -0.1782(5)
C16 C 1.0072(9) 0.1208(5) -0.2774(7)
H19 H 1.0371 0.1694 -0.2525
H20 H 0.9126 0.1203 -0.3524
H21 H 1.1106 0.0971 -0.2921
C17 C 0.9259(10) 0.0034(4) -0.2008(7)
H22 H 1.0278 -0.0150 -0.2257
H23 H 0.8194 -0.0054 -0.2654
H24 H 0.9163 -0.0200 -0.1257
O2 O 0.7826(4) 0.11031(18) -0.1654(3)
C18 C 0.8103(7) 0.1447(3) -0.0464(4)
H25 H 0.8219 0.1965 -0.0561
C19 C 0.6504(7) 0.1290(3) 0.0072(4)
H26 H 0.6764 0.1470 0.0918
H27 H 0.5475 0.1551 -0.0409
N3 N 0.6043(5) 0.0543(2) 0.0079(3)
C20 C 0.6046(7) 0.0164(3) 0.1137(4)
N4 N 0.5188(6) -0.0465(2) 0.0782(4)
C21 C 0.4650(8) -0.0541(3) -0.0572(4)
H28 H 0.3427 -0.0711 -0.0851
H29 H 0.5437 -0.0866 -0.0864
C22 C 0.4828(7) 0.0208(3) -0.1006(4)
H30 H 0.5338 0.0214 -0.1721
H31 H 0.3678 0.0450 -0.1220
S2 S 0.6907(2) 0.04239(8) 0.25909(12)
C23 C 0.5010(7) -0.1035(3) 0.1598(4)
C24 C 0.3550(7) -0.1038(3) 0.2132(5)
C25 C 0.3384(8) -0.1602(3) 0.2901(5)
H32 H 0.2437 -0.1601 0.3280
C26 C 0.4575(8) -0.2169(3) 0.3128(5)
C27 C 0.5969(8) -0.2151(3) 0.2576(5)
H33 H 0.6774 -0.2530 0.2721
C28 C 0.6261(8) -0.1592(3) 0.1803(5)
C29 C 0.2216(7) -0.0441(3) 0.1873(5)
H34 H 0.1335 -0.0516 0.2337
H35 H 0.1640 -0.0429 0.1000
H36 H 0.2817 0.0006 0.2116
C30 C 0.4393(8) -0.2764(3) 0.4010(5)
H37 H 0.5522 -0.2840 0.4598
H38 H 0.4031 -0.3197 0.3547
H39 H 0.3509 -0.2635 0.4445
C31 C 0.7877(8) -0.1581(4) 0.1284(6)
H40 H 0.8732 -0.1926 0.1715
H41 H 0.8405 -0.1112 0.1390
H42 H 0.7530 -0.1698 0.0414
loop_
_geom_bond_atom_site_label_1
_geom_bond_atom_site_label_2
_geom_bond_site_symmetry_1
_geom_bond_site_symmetry_2
C1 C2 1_555 1_555
C2 C3 1_555 1_555
C3 H1 1_555 1_555
C4 C3 1_555 1_555
C5 C4 1_555 1_555
H2 C5 1_555 1_555
C6 C1 1_555 1_555
C7 C2 1_555 1_555
H3 C7 1_555 1_555
H4 C7 1_555 1_555
H5 C7 1_555 1_555
C8 C4 1_555 1_555
H6 C8 1_555 1_555
H7 C8 1_555 1_555
H8 C8 1_555 1_555
C9 C6 1_555 1_555
H9 C9 1_555 1_555
H10 C9 1_555 1_555
H11 C9 1_555 1_555
N1 C1 1_555 1_555
C10 N1 1_555 1_555
N2 C10 1_555 1_555
C11 N2 1_555 1_555
H12 C11 1_555 1_555
H13 C11 1_555 1_555
C12 N1 1_555 1_555
H14 C12 1_555 1_555
H15 C12 1_555 1_555
S1 C10 1_555 1_555
C13 N2 1_555 1_555
H16 C13 1_555 1_555
H17 C13 1_555 1_555
C14 C13 1_555 1_555
H18 C14 1_555 1_555
O1 C14 1_555 1_555
C15 O1 1_555 1_555
C16 C15 1_555 1_555
H19 C16 1_555 1_555
H20 C16 1_555 1_555
H21 C16 1_555 1_555
C17 C15 1_555 1_555
H22 C17 1_555 1_555
H23 C17 1_555 1_555
H24 C17 1_555 1_555
O2 C15 1_555 1_555
C18 C14 1_555 1_555
H25 C18 1_555 1_555
C19 C18 1_555 1_555
H26 C19 1_555 1_555
H27 C19 1_555 1_555
N3 C19 1_555 1_555
C20 N3 1_555 1_555
N4 C20 1_555 1_555
C21 N4 1_555 1_555
H28 C21 1_555 1_555
H29 C21 1_555 1_555
C22 N3 1_555 1_555
H30 C22 1_555 1_555
H31 C22 1_555 1_555
S2 C20 1_555 1_555
C23 N4 1_555 1_555
C24 C23 1_555 1_555
C25 C24 1_555 1_555
H32 C25 1_555 1_555
C26 C25 1_555 1_555
C27 C26 1_555 1_555
H33 C27 1_555 1_555
C28 C23 1_555 1_555
C29 C24 1_555 1_555
H34 C29 1_555 1_555
H35 C29 1_555 1_555
H36 C29 1_555 1_555
C30 C26 1_555 1_555
H37 C30 1_555 1_555
H38 C30 1_555 1_555
H39 C30 1_555 1_555
C31 C28 1_555 1_555
H40 C31 1_555 1_555
H41 C31 1_555 1_555
H42 C31 1_555 1_555
C5 C6 1_555 1_555
C11 C12 1_555 1_555
O2 C18 1_555 1_555
C21 C22 1_555 1_555
C27 C28 1_555 1_555

#END
