
#######################################################################
#
#                 Cambridge Crystallographic Data Centre
#                                CCDC 
#
#######################################################################
#
# If this CIF has been generated from an entry in the Cambridge 
# Structural Database, then it will include bibliographic, chemical, 
# crystal, experimental, refinement or atomic coordinate data resulting 
# from the CCDC's data processing and validation procedures.
#
#######################################################################

data_IDICUV
_chemical_formula_moiety         'C18 H14 O4'
_chemical_name_systematic        
6-Isopropyl-3H,3'H-spiro[1-benzofuran-2,1'-[2]benzofuran]-3,3'-dione
_symmetry_cell_setting           orthorhombic
_symmetry_space_group_name_H-M   'P b c a'
_symmetry_Int_Tables_number      61
_space_group_name_Hall           '-P 2ac 2ab'
loop_
_symmetry_equiv_pos_site_id
_symmetry_equiv_pos_as_xyz
1 x,y,z
2 1/2-x,-y,1/2+z
3 -x,1/2+y,1/2-z
4 1/2+x,1/2-y,-z
5 -x,-y,-z
6 1/2+x,y,1/2-z
7 x,1/2-y,1/2+z
8 1/2-x,1/2+y,z
_cell_length_a                   10.5461(4)
_cell_length_b                   13.0825(4)
_cell_length_c                   21.7795(8)
_cell_angle_alpha                90
_cell_angle_beta                 90
_cell_angle_gamma                90
_cell_volume                     3004.9
_exptl_crystal_colour            silver
_exptl_crystal_description       block
_chemical_melting_point          '405-408 K'
_cell_formula_units_Z            8
loop_
_atom_site_label
_atom_site_type_symbol
_atom_site_fract_x
_atom_site_fract_y
_atom_site_fract_z
C1 C 0.2253(2) 0.21490(19) 0.34438(10)
C2 C 0.1289(3) 0.1714(2) 0.31061(13)
H1 H 0.0988 0.1062 0.3193
C3 C 0.0791(3) 0.2291(3) 0.26338(14)
H2 H 0.0136 0.2022 0.2398
C4 C 0.1241(3) 0.3258(3) 0.25033(15)
H3 H 0.0879 0.3630 0.2184
C5 C 0.2209(3) 0.3678(2) 0.28355(13)
H4 H 0.2522 0.4326 0.2745
C6 C 0.2704(2) 0.31070(19) 0.33088(11)
C7 C 0.3710(3) 0.3362(2) 0.37460(12)
O1 O 0.4362(2) 0.41057(15) 0.37965(10)
O2 O 0.38438(16) 0.25464(13) 0.41355(8)
C8 C 0.2992(2) 0.17323(19) 0.39667(11)
C9 C 0.3824(2) 0.07697(19) 0.38399(12)
O3 O 0.45027(19) 0.06874(15) 0.34003(10)
O4 O 0.22368(17) 0.14847(13) 0.44823(8)
C10 C 0.2647(3) 0.05489(19) 0.47056(11)
C11 C 0.2181(3) 0.0113(2) 0.52331(12)
H5 H 0.1547 0.0426 0.5463
C12 C 0.2707(4) -0.0823(2) 0.54084(13)
C13 C 0.3630(3) -0.1285(2) 0.50517(13)
H6 H 0.3959 -0.1913 0.5174
C14 C 0.4069(3) -0.0842(2) 0.45232(13)
H7 H 0.4688 -0.1161 0.4287
C15 C 0.3566(2) 0.00964(19) 0.43485(11)
C16 C 0.2211(6) -0.1342(3) 0.59856(15)
H8 H 0.3023 -0.1659 0.6094
C17 C 0.2162(3) -0.0679(2) 0.65302(13)
H9 H 0.1823 -0.1057 0.6871
H10 H 0.1628 -0.0101 0.6447
H11 H 0.3001 -0.0447 0.6628
C18 C 0.1588(6) -0.2227(4) 0.5923(2)
H12 H 0.1312 -0.2462 0.6319
H13 H 0.2140 -0.2727 0.5743
H14 H 0.0864 -0.2128 0.5663
loop_
_geom_bond_atom_site_label_1
_geom_bond_atom_site_label_2
_geom_bond_site_symmetry_1
_geom_bond_site_symmetry_2
C1 C2 1_555 1_555
C2 H1 1_555 1_555
C3 C2 1_555 1_555
H2 C3 1_555 1_555
C4 C3 1_555 1_555
H3 C4 1_555 1_555
C5 C4 1_555 1_555
H4 C5 1_555 1_555
C6 C1 1_555 1_555
C7 C6 1_555 1_555
O1 C7 1_555 1_555
O2 C7 1_555 1_555
C8 C1 1_555 1_555
C9 C8 1_555 1_555
O3 C9 1_555 1_555
O4 C8 1_555 1_555
C10 O4 1_555 1_555
C11 C10 1_555 1_555
H5 C11 1_555 1_555
C12 C11 1_555 1_555
C13 C12 1_555 1_555
H6 C13 1_555 1_555
C14 C13 1_555 1_555
H7 C14 1_555 1_555
C15 C9 1_555 1_555
C16 C12 1_555 1_555
H8 C16 1_555 1_555
C17 C16 1_555 1_555
H9 C17 1_555 1_555
H10 C17 1_555 1_555
H11 C17 1_555 1_555
C18 C16 1_555 1_555
H12 C18 1_555 1_555
H13 C18 1_555 1_555
H14 C18 1_555 1_555
C5 C6 1_555 1_555
O2 C8 1_555 1_555
C10 C15 1_555 1_555
C14 C15 1_555 1_555

#END
