
#######################################################################
#
#                 Cambridge Crystallographic Data Centre
#                                CCDC 
#
#######################################################################
#
# If this CIF has been generated from an entry in the Cambridge 
# Structural Database, then it will include bibliographic, chemical, 
# crystal, experimental, refinement or atomic coordinate data resulting 
# from the CCDC's data processing and validation procedures.
#
#######################################################################

data_IDIDEG
_chemical_formula_moiety         'C32 H33 B1 N2 O1'
_chemical_name_systematic        
(Diphenyl(5-((phenylamino)methyl)-1-(1-phenylethyl)pyrrolidin-2-yl)methanolato)(hydrido)boron
_symmetry_cell_setting           orthorhombic
_symmetry_space_group_name_H-M   'P 21 21 21'
_symmetry_Int_Tables_number      19
_space_group_name_Hall           'P 2ac 2ab'
loop_
_symmetry_equiv_pos_site_id
_symmetry_equiv_pos_as_xyz
1 x,y,z
2 1/2-x,-y,1/2+z
3 -x,1/2+y,1/2-z
4 1/2+x,1/2-y,-z
_cell_length_a                   9.0271(16)
_cell_length_b                   14.669(3)
_cell_length_c                   19.643(3)
_cell_angle_alpha                90
_cell_angle_beta                 90
_cell_angle_gamma                90
_cell_volume                     2601.1
_cell_formula_units_Z            4
loop_
_atom_site_label
_atom_site_type_symbol
_atom_site_fract_x
_atom_site_fract_y
_atom_site_fract_z
N1 N 0.70812(17) 0.53743(10) 0.23859(7)
N2 N 0.50053(19) 0.62403(11) 0.19292(8)
O1 O 0.62714(13) 0.50569(8) 0.12310(5)
B1 B 0.6435(3) 0.58433(16) 0.16846(11)
H1 H 0.7105 0.6307 0.1499
C1 C 0.8905(3) 0.53971(19) 0.38765(12)
H2 H 0.8104 0.5762 0.3996
C2 C 0.9676(4) 0.4923(2) 0.43824(13)
H3 H 0.9394 0.4975 0.4836
C3 C 1.0849(4) 0.4382(2) 0.42045(17)
H4 H 1.1347 0.4054 0.4539
C4 C 1.1292(3) 0.4317(2) 0.35511(15)
H5 H 1.2098 0.3954 0.3435
C5 C 1.0528(3) 0.48012(18) 0.30520(12)
H6 H 1.0852 0.4764 0.2603
C6 C 0.9318(3) 0.53297(16) 0.31963(10)
C7 C 0.8526(2) 0.58278(15) 0.26225(10)
H7 H 0.9199 0.5805 0.2231
C8 C 0.8276(3) 0.68360(16) 0.27687(13)
H8 H 0.7776 0.6902 0.3197
H9 H 0.7681 0.7097 0.2414
H10 H 0.9214 0.7144 0.2787
C9 C 0.5831(2) 0.54194(15) 0.29059(10)
H11 H 0.6098 0.5828 0.3281
C10 C 0.4474(2) 0.57781(17) 0.25326(10)
H12 H 0.3823 0.5279 0.2408
H13 H 0.3928 0.6198 0.2820
C11 C 0.5664(2) 0.44527(15) 0.31605(10)
H14 H 0.6392 0.4313 0.3509
H15 H 0.4679 0.4346 0.3341
C12 C 0.5931(2) 0.39015(14) 0.25236(9)
H16 H 0.6158 0.3272 0.2634
H17 H 0.5074 0.3918 0.2226
C13 C 0.7241(2) 0.43660(12) 0.21978(8)
H18 H 0.8168 0.4120 0.2381
C14 C 0.2535(3) 0.68451(15) 0.17073(13)
H19 H 0.2179 0.6606 0.2114
C15 C 0.1600(3) 0.73392(18) 0.12924(15)
H20 H 0.0624 0.7429 0.1428
C16 C 0.2064(4) 0.76976(18) 0.06929(16)
H21 H 0.1424 0.8036 0.0422
C17 C 0.3506(3) 0.75478(16) 0.04957(12)
H22 H 0.3836 0.7779 0.0082
C18 C 0.4474(3) 0.70600(15) 0.09020(11)
H23 H 0.5445 0.6971 0.0759
C19 C 0.4008(2) 0.67004(14) 0.15233(11)
C20 C 0.72697(19) 0.43537(12) 0.14041(9)
C21 C 0.88222(19) 0.45469(12) 0.11201(9)
C22 C 1.0066(2) 0.40991(14) 0.13740(10)
H24 H 0.9948 0.3668 0.1717
C23 C 1.1464(2) 0.42784(17) 0.11311(12)
H25 H 1.2279 0.3971 0.1308
C24 C 1.1650(3) 0.49131(18) 0.06266(13)
H26 H 1.2596 0.5052 0.0470
C25 C 1.0438(3) 0.53439(15) 0.03526(11)
H27 H 1.0560 0.5758 -0.0001
C26 C 0.9036(2) 0.51624(13) 0.06021(10)
H28 H 0.8223 0.5462 0.0416
C27 C 0.6670(2) 0.34545(12) 0.11182(9)
C28 C 0.5292(3) 0.34319(16) 0.08164(11)
H29 H 0.4735 0.3964 0.0792
C29 C 0.4721(3) 0.2633(2) 0.05494(12)
H30 H 0.3789 0.2635 0.0348
C30 C 0.5509(4) 0.1849(2) 0.05785(12)
H31 H 0.5123 0.1315 0.0394
C31 C 0.6866(3) 0.18436(16) 0.08777(13)
H32 H 0.7409 0.1306 0.0901
C32 C 0.7442(2) 0.26480(14) 0.11492(11)
H33 H 0.8369 0.2638 0.1356
loop_
_geom_bond_atom_site_label_1
_geom_bond_atom_site_label_2
_geom_bond_site_symmetry_1
_geom_bond_site_symmetry_2
N1 B1 1_555 1_555
N2 B1 1_555 1_555
O1 B1 1_555 1_555
B1 H1 1_555 1_555
C1 H2 1_555 1_555
C2 C1 1_555 1_555
H3 C2 1_555 1_555
C3 C2 1_555 1_555
H4 C3 1_555 1_555
C4 C3 1_555 1_555
H5 C4 1_555 1_555
C5 C4 1_555 1_555
H6 C5 1_555 1_555
C6 C1 1_555 1_555
C7 N1 1_555 1_555
H7 C7 1_555 1_555
C8 C7 1_555 1_555
H8 C8 1_555 1_555
H9 C8 1_555 1_555
H10 C8 1_555 1_555
C9 N1 1_555 1_555
H11 C9 1_555 1_555
C10 N2 1_555 1_555
H12 C10 1_555 1_555
H13 C10 1_555 1_555
C11 C9 1_555 1_555
H14 C11 1_555 1_555
H15 C11 1_555 1_555
C12 C11 1_555 1_555
H16 C12 1_555 1_555
H17 C12 1_555 1_555
C13 N1 1_555 1_555
H18 C13 1_555 1_555
C14 H19 1_555 1_555
C15 C14 1_555 1_555
H20 C15 1_555 1_555
C16 C15 1_555 1_555
H21 C16 1_555 1_555
C17 C16 1_555 1_555
H22 C17 1_555 1_555
C18 C17 1_555 1_555
H23 C18 1_555 1_555
C19 N2 1_555 1_555
C20 O1 1_555 1_555
C21 C20 1_555 1_555
C22 C21 1_555 1_555
H24 C22 1_555 1_555
C23 C22 1_555 1_555
H25 C23 1_555 1_555
C24 C23 1_555 1_555
H26 C24 1_555 1_555
C25 C24 1_555 1_555
H27 C25 1_555 1_555
C26 C21 1_555 1_555
H28 C26 1_555 1_555
C27 C20 1_555 1_555
C28 C27 1_555 1_555
H29 C28 1_555 1_555
C29 C28 1_555 1_555
H30 C29 1_555 1_555
C30 C29 1_555 1_555
H31 C30 1_555 1_555
C31 C30 1_555 1_555
H32 C31 1_555 1_555
C32 C27 1_555 1_555
H33 C32 1_555 1_555
C5 C6 1_555 1_555
C6 C7 1_555 1_555
C9 C10 1_555 1_555
C12 C13 1_555 1_555
C13 C20 1_555 1_555
C14 C19 1_555 1_555
C18 C19 1_555 1_555
C25 C26 1_555 1_555
C31 C32 1_555 1_555

#END
