
#######################################################################
#
#                 Cambridge Crystallographic Data Centre
#                                CCDC 
#
#######################################################################
#
# If this CIF has been generated from an entry in the Cambridge 
# Structural Database, then it will include bibliographic, chemical, 
# crystal, experimental, refinement or atomic coordinate data resulting 
# from the CCDC's data processing and validation procedures.
#
#######################################################################

data_IDIGAG
_chemical_formula_moiety         'C27 H24 N2 O4 S1'
_chemical_name_systematic        
'7a-(4-methylphenyl)-1-[(4-methylphenyl)sulfonyl]-3-phenyl-3a,7a-dihydro-1H-benzimidazole-2,5(3H,4H)-dione unknown solvate'
_symmetry_cell_setting           monoclinic
_symmetry_space_group_name_H-M   'P 21/c'
_symmetry_Int_Tables_number      14
_space_group_name_Hall           '-P 2ybc'
loop_
_symmetry_equiv_pos_site_id
_symmetry_equiv_pos_as_xyz
1 x,y,z
2 -x,1/2+y,1/2-z
3 -x,-y,-z
4 x,1/2-y,1/2+z
_cell_length_a                   11.418(2)
_cell_length_b                   19.755(4)
_cell_length_c                   22.695(5)
_cell_angle_alpha                90
_cell_angle_beta                 100.67(3)
_cell_angle_gamma                90
_cell_volume                     5030.63
_exptl_crystal_colour            colorless
_exptl_crystal_description       prism
_cell_formula_units_Z            8
loop_
_atom_site_label
_atom_site_type_symbol
_atom_site_fract_x
_atom_site_fract_y
_atom_site_fract_z
S1 S 0.21211(7) 0.21325(4) 0.20429(3)
O1 O 0.29688(18) 0.22495(11) 0.16606(10)
O2 O 0.2296(2) 0.15740(11) 0.24520(10)
O3 O 0.04917(18) 0.25654(11) 0.28642(9)
O4 O 0.4933(2) 0.36217(14) 0.43886(11)
N1 N 0.2102(2) 0.28633(12) 0.24196(11)
N2 N 0.1828(2) 0.34104(12) 0.32491(11)
C1 C 0.0692(3) 0.20721(16) 0.16035(13)
C2 C 0.0075(3) 0.14605(17) 0.15935(16)
H1 H 0.0381 0.1103 0.1857
C3 C -0.0997(3) 0.13832(19) 0.11895(17)
H2 H -0.1420 0.0968 0.1178
C4 C -0.1453(3) 0.19038(19) 0.08050(15)
C5 C -0.0834(3) 0.25159(18) 0.08331(15)
H3 H -0.1157 0.2881 0.0582
C6 C 0.0245(3) 0.25984(17) 0.12223(14)
H4 H 0.0674 0.3011 0.1228
C7 C -0.2608(3) 0.1812(2) 0.03677(19)
H5 H -0.2438 0.1733 -0.0034
H6 H -0.3097 0.2221 0.0364
H7 H -0.3040 0.1423 0.0489
C8 C 0.1368(3) 0.29103(15) 0.28610(13)
C9 C 0.1200(3) 0.36708(16) 0.37011(13)
C10 C 0.0782(3) 0.43288(16) 0.36646(14)
H8 H 0.0890 0.4613 0.3341
C11 C 0.0199(3) 0.45691(18) 0.41111(15)
H9 H -0.0090 0.5021 0.4091
C12 C 0.0035(3) 0.41583(19) 0.45819(16)
H10 H -0.0374 0.4325 0.4881
C13 C 0.0472(3) 0.35002(19) 0.46164(16)
H11 H 0.0367 0.3218 0.4942
C14 C 0.1059(3) 0.32518(18) 0.41782(15)
H12 H 0.1362 0.2803 0.4203
C15 C 0.2744(3) 0.37975(16) 0.30163(13)
H13 H 0.2358 0.4179 0.2762
C16 C 0.3716(3) 0.40788(16) 0.35098(14)
H14 H 0.4238 0.4382 0.3326
H15 H 0.3337 0.4354 0.3788
C17 C 0.4468(3) 0.35393(18) 0.38629(14)
C18 C 0.4689(3) 0.29229(16) 0.35350(14)
H16 H 0.5227 0.2593 0.3734
C19 C 0.4162(3) 0.28115(15) 0.29700(14)
H17 H 0.4383 0.2417 0.2777
C20 C 0.3233(3) 0.32722(15) 0.26143(13)
C21 C 0.3668(3) 0.36285(15) 0.21001(13)
C22 C 0.2883(3) 0.40118(16) 0.16927(14)
H18 H 0.2063 0.4025 0.1720
C23 C 0.3279(3) 0.43747(17) 0.12480(15)
H19 H 0.2726 0.4630 0.0971
C24 C 0.4483(3) 0.43722(19) 0.11989(16)
C25 C 0.5254(3) 0.39924(19) 0.16041(16)
H20 H 0.6075 0.3984 0.1578
C26 C 0.4868(3) 0.36191(18) 0.20510(14)
H21 H 0.5421 0.3358 0.2323
C27 C 0.4903(4) 0.4769(2) 0.07038(19)
H22 H 0.5760 0.4700 0.0729
H23 H 0.4743 0.5252 0.0750
H24 H 0.4475 0.4612 0.0313
S2 S 0.92097(7) 0.47639(4) 0.12430(4)
O5 O 1.00317(19) 0.42436(11) 0.11446(10)
O6 O 0.82712(19) 0.49374(11) 0.07576(10)
O7 O 1.11132(19) 0.50673(11) 0.23070(10)
O8 O 1.3443(2) 0.67242(15) 0.07375(13)
N3 N 0.9929(2) 0.54911(13) 0.14319(11)
N4 N 1.1517(2) 0.60850(13) 0.18750(11)
C28 C 0.8635(3) 0.45630(16) 0.18889(15)
C29 C 0.7938(3) 0.50347(18) 0.21283(17)
H25 H 0.7771 0.5464 0.1943
C30 C 0.7494(3) 0.48678(19) 0.26392(19)
H26 H 0.7041 0.5193 0.2809
C31 C 0.7696(3) 0.42417(18) 0.29047(16)
C32 C 0.8381(3) 0.37756(18) 0.26586(16)
H27 H 0.8522 0.3341 0.2837
C33 C 0.8862(3) 0.39336(17) 0.21587(15)
H28 H 0.9344 0.3614 0.2001
C34 C 0.7205(3) 0.4060(2) 0.34592(18)
H29 H 0.6675 0.3668 0.3374
H30 H 0.6756 0.4445 0.3575
H31 H 0.7863 0.3950 0.3788
C35 C 1.0907(3) 0.55024(16) 0.19224(14)
C36 C 1.2454(3) 0.63132(17) 0.23401(14)
C37 C 1.2308(3) 0.69030(17) 0.26513(14)
H32 H 1.1577 0.7145 0.2569
C38 C 1.3246(3) 0.71361(19) 0.30856(16)
H33 H 1.3159 0.7541 0.3299
C39 C 1.4305(3) 0.6779(2) 0.32065(16)
H34 H 1.4944 0.6939 0.3503
C40 C 1.4436(3) 0.6190(2) 0.28988(19)
H35 H 1.5158 0.5941 0.2990
C41 C 1.3510(3) 0.5957(2) 0.24520(17)
H36 H 1.3608 0.5560 0.2230
C42 C 1.0845(3) 0.65397(16) 0.14184(13)
H37 H 1.0311 0.6838 0.1607
C43 C 1.1664(3) 0.69734(16) 0.11140(14)
H38 H 1.1174 0.7291 0.0834
H39 H 1.2188 0.7245 0.1422
C44 C 1.2426(3) 0.65602(18) 0.07736(15)
C45 C 1.1866(3) 0.59611(17) 0.04614(15)
H40 H 1.2266 0.5726 0.0192
C46 C 1.0806(3) 0.57374(16) 0.05465(14)
H41 H 1.0473 0.5362 0.0313
C47 C 1.0088(3) 0.60343(15) 0.09866(13)
C48 C 0.8922(3) 0.63496(15) 0.06756(13)
C49 C 0.8008(3) 0.64807(16) 0.09953(14)
H42 H 0.8131 0.6387 0.1413
C50 C 0.6939(3) 0.67425(16) 0.07121(15)
H43 H 0.6319 0.6810 0.0933
C51 C 0.6746(3) 0.69124(17) 0.01032(15)
C52 C 0.7673(3) 0.68100(17) -0.02056(15)
H44 H 0.7576 0.6941 -0.0615
C53 C 0.8738(3) 0.65202(17) 0.00724(14)
H45 H 0.9348 0.6438 -0.0152
C54 C 0.5563(3) 0.7202(2) -0.02101(16)
H46 H 0.4912 0.6981 -0.0057
H47 H 0.5468 0.7123 -0.0643
H48 H 0.5546 0.7690 -0.0133
loop_
_geom_bond_atom_site_label_1
_geom_bond_atom_site_label_2
_geom_bond_site_symmetry_1
_geom_bond_site_symmetry_2
S1 O1 1_555 1_555
O2 S1 1_555 1_555
O3 C8 1_555 1_555
O4 C17 1_555 1_555
N1 S1 1_555 1_555
N2 C8 1_555 1_555
C1 S1 1_555 1_555
C2 C1 1_555 1_555
H1 C2 1_555 1_555
C3 C2 1_555 1_555
H2 C3 1_555 1_555
C4 C3 1_555 1_555
C5 C4 1_555 1_555
H3 C5 1_555 1_555
C6 C1 1_555 1_555
H4 C6 1_555 1_555
C7 C4 1_555 1_555
H5 C7 1_555 1_555
H6 C7 1_555 1_555
H7 C7 1_555 1_555
C8 N1 1_555 1_555
C9 N2 1_555 1_555
C10 C9 1_555 1_555
H8 C10 1_555 1_555
C11 C10 1_555 1_555
H9 C11 1_555 1_555
C12 C11 1_555 1_555
H10 C12 1_555 1_555
C13 C12 1_555 1_555
H11 C13 1_555 1_555
C14 C9 1_555 1_555
H12 C14 1_555 1_555
C15 N2 1_555 1_555
H13 C15 1_555 1_555
C16 C15 1_555 1_555
H14 C16 1_555 1_555
H15 C16 1_555 1_555
C17 C16 1_555 1_555
C18 C17 1_555 1_555
H16 C18 1_555 1_555
C19 C18 1_555 1_555
H17 C19 1_555 1_555
C20 N1 1_555 1_555
C21 C20 1_555 1_555
C22 C21 1_555 1_555
H18 C22 1_555 1_555
C23 C22 1_555 1_555
H19 C23 1_555 1_555
C24 C23 1_555 1_555
C25 C24 1_555 1_555
H20 C25 1_555 1_555
C26 C21 1_555 1_555
H21 C26 1_555 1_555
C27 C24 1_555 1_555
H22 C27 1_555 1_555
H23 C27 1_555 1_555
H24 C27 1_555 1_555
S2 O5 1_555 1_555
O6 S2 1_555 1_555
O7 C35 1_555 1_555
O8 C44 1_555 1_555
N3 S2 1_555 1_555
N4 C35 1_555 1_555
C28 S2 1_555 1_555
C29 C28 1_555 1_555
H25 C29 1_555 1_555
C30 C29 1_555 1_555
H26 C30 1_555 1_555
C31 C30 1_555 1_555
C32 C31 1_555 1_555
H27 C32 1_555 1_555
C33 C28 1_555 1_555
H28 C33 1_555 1_555
C34 C31 1_555 1_555
H29 C34 1_555 1_555
H30 C34 1_555 1_555
H31 C34 1_555 1_555
C35 N3 1_555 1_555
C36 N4 1_555 1_555
C37 C36 1_555 1_555
H32 C37 1_555 1_555
C38 C37 1_555 1_555
H33 C38 1_555 1_555
C39 C38 1_555 1_555
H34 C39 1_555 1_555
C40 C39 1_555 1_555
H35 C40 1_555 1_555
C41 C36 1_555 1_555
H36 C41 1_555 1_555
C42 N4 1_555 1_555
H37 C42 1_555 1_555
C43 C42 1_555 1_555
H38 C43 1_555 1_555
H39 C43 1_555 1_555
C44 C43 1_555 1_555
C45 C44 1_555 1_555
H40 C45 1_555 1_555
C46 C45 1_555 1_555
H41 C46 1_555 1_555
C47 N3 1_555 1_555
C48 C47 1_555 1_555
C49 C48 1_555 1_555
H42 C49 1_555 1_555
C50 C49 1_555 1_555
H43 C50 1_555 1_555
C51 C50 1_555 1_555
C52 C51 1_555 1_555
H44 C52 1_555 1_555
C53 C48 1_555 1_555
H45 C53 1_555 1_555
C54 C51 1_555 1_555
H46 C54 1_555 1_555
H47 C54 1_555 1_555
H48 C54 1_555 1_555
C5 C6 1_555 1_555
C13 C14 1_555 1_555
C15 C20 1_555 1_555
C19 C20 1_555 1_555
C25 C26 1_555 1_555
C32 C33 1_555 1_555
C40 C41 1_555 1_555
C42 C47 1_555 1_555
C46 C47 1_555 1_555
C52 C53 1_555 1_555

#END
