
#######################################################################
#
#                 Cambridge Crystallographic Data Centre
#                                CCDC 
#
#######################################################################
#
# If this CIF has been generated from an entry in the Cambridge 
# Structural Database, then it will include bibliographic, chemical, 
# crystal, experimental, refinement or atomic coordinate data resulting 
# from the CCDC's data processing and validation procedures.
#
#######################################################################

data_IDIGUY
_chemical_formula_moiety         'C2 H12 B10,C6 H19 N4 P1'
_chemical_name_systematic        
'1,7-Dicarba-closo-dodecaborane tris(dimethylamino)iminophosphorane'
_symmetry_cell_setting           monoclinic
_symmetry_space_group_name_H-M   'P 21/c'
_symmetry_Int_Tables_number      14
_space_group_name_Hall           '-P 2ybc'
loop_
_symmetry_equiv_pos_site_id
_symmetry_equiv_pos_as_xyz
1 x,y,z
2 -x,1/2+y,1/2-z
3 -x,-y,-z
4 x,1/2-y,1/2+z
_cell_length_a                   12.279(1)
_cell_length_b                   12.280(1)
_cell_length_c                   13.366(1)
_cell_angle_alpha                90
_cell_angle_beta                 99.21(1)
_cell_angle_gamma                90
_cell_volume                     1989.43
_exptl_crystal_colour            colorless
_cell_formula_units_Z            4
loop_
_atom_site_label
_atom_site_type_symbol
_atom_site_fract_x
_atom_site_fract_y
_atom_site_fract_z
P1 P 0.18737(2) 0.17285(2) 0.15292(2)
N1 N 0.26083(9) 0.25322(9) 0.22592(8)
H1 H 0.2236(16) 0.2800(16) 0.2645(15)
N2 N 0.13662(8) 0.06981(8) 0.21011(8)
N3 N 0.26782(8) 0.12595(8) 0.07493(7)
N4 N 0.07190(8) 0.21876(9) 0.08088(8)
C1 C 0.20101(12) 0.02311(12) 0.30140(10)
H2 H 0.2591(14) 0.0722(14) 0.3291(12)
H3 H 0.2314(14) -0.0484(16) 0.2871(13)
H4 H 0.1534(15) 0.0127(14) 0.3527(14)
C2 C 0.03949(11) 0.00520(13) 0.16921(13)
H5 H 0.0011(14) 0.0366(14) 0.1065(13)
H6 H -0.0139(15) 0.0066(14) 0.2186(14)
H7 H 0.0609(15) -0.0728(17) 0.1574(14)
C3 C 0.34849(11) 0.19568(14) 0.03605(11)
H8 H 0.3674(14) 0.2605(14) 0.0798(13)
H9 H 0.3223(14) 0.2162(14) -0.0306(13)
H10 H 0.4139(14) 0.1522(14) 0.0332(12)
C4 C 0.23801(14) 0.02925(14) 0.01357(13)
H11 H 0.1916(16) -0.0204(16) 0.0457(14)
H12 H 0.3064(16) -0.0139(16) 0.0058(14)
H13 H 0.1983(16) 0.0498(15) -0.0566(15)
C5 C 0.08237(14) 0.27775(14) -0.01177(12)
H14 H 0.1267(15) 0.2369(15) -0.0518(13)
H15 H 0.1131(17) 0.3552(18) 0.0032(16)
H16 H 0.0121(17) 0.2831(16) -0.0492(15)
C6 C -0.00844(15) 0.26980(19) 0.13658(17)
H17 H -0.0151(17) 0.2290(16) 0.2025(16)
H18 H -0.0782(19) 0.2690(17) 0.0925(16)
H19 H 0.0126(15) 0.3468(17) 0.1499(14)
C7 C 0.33166(10) 0.50509(9) 0.18757(10)
H20 H 0.3155(14) 0.4316(15) 0.2024(13)
B1 B 0.41810(12) 0.57157(12) 0.27879(11)
H21 H 0.4588(13) 0.5345(13) 0.3472(12)
B2 B 0.46007(11) 0.53068(11) 0.16319(11)
H22 H 0.5242(14) 0.4698(13) 0.1688(12)
B3 B 0.34492(12) 0.53857(12) 0.06636(11)
H23 H 0.3338(13) 0.4749(13) 0.0099(12)
B4 B 0.23111(11) 0.58489(11) 0.12133(11)
H24 H 0.1464(12) 0.5479(13) 0.0989(11)
B5 B 0.27655(12) 0.60508(13) 0.25329(11)
H25 H 0.2238(13) 0.5860(13) 0.3086(12)
C8 C 0.48008(9) 0.65947(9) 0.20835(9)
H26 H 0.5519(12) 0.6817(12) 0.2319(11)
B6 B 0.44519(11) 0.64272(12) 0.08025(11)
H27 H 0.5063(14) 0.6541(13) 0.0300(12)
B7 B 0.30286(12) 0.67704(12) 0.05358(11)
H28 H 0.2662(14) 0.7107(14) -0.0228(13)
B8 B 0.26054(12) 0.71784(12) 0.16944(12)
H29 H 0.1941(13) 0.7781(13) 0.1701(12)
B9 B 0.37709(12) 0.70962(12) 0.26746(11)
H30 H 0.3964(13) 0.7638(13) 0.3316(12)
B10 B 0.39344(12) 0.75347(11) 0.14373(12)
H31 H 0.4223(13) 0.8371(12) 0.1329(12)
loop_
_geom_bond_atom_site_label_1
_geom_bond_atom_site_label_2
_geom_bond_site_symmetry_1
_geom_bond_site_symmetry_2
P1 N1 1_555 1_555
N1 H1 1_555 1_555
N2 P1 1_555 1_555
N3 P1 1_555 1_555
N4 P1 1_555 1_555
C1 N2 1_555 1_555
H2 C1 1_555 1_555
H3 C1 1_555 1_555
H4 C1 1_555 1_555
C2 N2 1_555 1_555
H5 C2 1_555 1_555
H6 C2 1_555 1_555
H7 C2 1_555 1_555
C3 N3 1_555 1_555
H8 C3 1_555 1_555
H9 C3 1_555 1_555
H10 C3 1_555 1_555
C4 N3 1_555 1_555
H11 C4 1_555 1_555
H12 C4 1_555 1_555
H13 C4 1_555 1_555
C5 N4 1_555 1_555
H14 C5 1_555 1_555
H15 C5 1_555 1_555
H16 C5 1_555 1_555
C6 N4 1_555 1_555
H17 C6 1_555 1_555
H18 C6 1_555 1_555
H19 C6 1_555 1_555
C7 H20 1_555 1_555
B1 C7 1_555 1_555
H21 B1 1_555 1_555
B2 C7 1_555 1_555
H22 B2 1_555 1_555
B3 C7 1_555 1_555
H23 B3 1_555 1_555
B4 C7 1_555 1_555
H24 B4 1_555 1_555
B5 C7 1_555 1_555
H25 B5 1_555 1_555
C8 B1 1_555 1_555
H26 C8 1_555 1_555
B6 B2 1_555 1_555
H27 B6 1_555 1_555
B7 B3 1_555 1_555
H28 B7 1_555 1_555
B8 B4 1_555 1_555
H29 B8 1_555 1_555
B9 B1 1_555 1_555
H30 B9 1_555 1_555
B10 C8 1_555 1_555
H31 B10 1_555 1_555
B1 B2 1_555 1_555
B1 B5 1_555 1_555
B2 B3 1_555 1_555
B2 C8 1_555 1_555
B3 B4 1_555 1_555
B3 B6 1_555 1_555
B4 B5 1_555 1_555
B4 B7 1_555 1_555
B5 B8 1_555 1_555
B5 B9 1_555 1_555
C8 B6 1_555 1_555
C8 B9 1_555 1_555
B6 B7 1_555 1_555
B6 B10 1_555 1_555
B7 B8 1_555 1_555
B7 B10 1_555 1_555
B8 B9 1_555 1_555
B8 B10 1_555 1_555
B9 B10 1_555 1_555

#END
