
#######################################################################
#
#                 Cambridge Crystallographic Data Centre
#                                CCDC 
#
#######################################################################
#
# If this CIF has been generated from an entry in the Cambridge 
# Structural Database, then it will include bibliographic, chemical, 
# crystal, experimental, refinement or atomic coordinate data resulting 
# from the CCDC's data processing and validation procedures.
#
#######################################################################

data_IDIHIN
_chemical_formula_moiety         '2(C6 H20 N4 P1 1+),C2 H12 B10,2(C1 H1 O3 1-)'
_chemical_name_systematic        
'bis(tris(Dimethylamino)iminiophosphorane) 1,12-dicarba-closo-dodecaborane bis(bicarbonate)'
_symmetry_cell_setting           triclinic
_symmetry_space_group_name_H-M   'P -1'
_symmetry_Int_Tables_number      2
_space_group_name_Hall           '-P 1'
loop_
_symmetry_equiv_pos_site_id
_symmetry_equiv_pos_as_xyz
1 x,y,z
2 -x,-y,-z
_cell_length_a                   8.3370(7)
_cell_length_b                   8.7368(8)
_cell_length_c                   12.3056(11)
_cell_angle_alpha                83.04(1)
_cell_angle_beta                 73.35(1)
_cell_angle_gamma                81.32(1)
_cell_volume                     846.029
_exptl_crystal_colour            colorless
_exptl_crystal_description       Block
_cell_formula_units_Z            1
loop_
_atom_site_label
_atom_site_type_symbol
_atom_site_fract_x
_atom_site_fract_y
_atom_site_fract_z
P1 P 0.15496(4) 0.06405(4) 0.66165(3)
N1 N 0.29190(16) 0.00332(16) 0.54999(11)
H1 H 0.343(2) -0.087(2) 0.5466(16)
H2 H 0.331(2) 0.072(2) 0.4973(16)
N2 N 0.01836(15) -0.06002(14) 0.71327(11)
C1 C 0.0814(3) -0.2203(2) 0.74466(19)
H3 H 0.035(3) -0.288(3) 0.715(2)
H4 H 0.206(3) -0.244(3) 0.7140(19)
H5 H 0.050(2) -0.245(2) 0.8272(18)
C2 C -0.1646(2) -0.0229(2) 0.7490(2)
H6 H -0.211(2) -0.094(2) 0.7185(17)
H7 H -0.206(3) -0.039(3) 0.837(2)
H8 H -0.204(2) 0.094(2) 0.7279(16)
N3 N 0.24247(15) 0.08225(14) 0.76157(10)
C3 C 0.1392(2) 0.1055(2) 0.87798(14)
H9 H 0.188(2) 0.032(2) 0.9323(17)
H10 H 0.134(2) 0.217(2) 0.8966(16)
H11 H 0.030(3) 0.089(3) 0.8871(18)
C4 C 0.4193(2) 0.1074(2) 0.74046(16)
H12 H 0.464(3) 0.042(2) 0.7977(18)
H13 H 0.486(2) 0.081(2) 0.6660(18)
H14 H 0.428(3) 0.220(3) 0.744(2)
N4 N 0.05338(16) 0.22818(14) 0.62796(11)
C5 C 0.0731(2) 0.37824(18) 0.66106(16)
H15 H -0.038(3) 0.437(2) 0.6857(17)
H16 H 0.122(2) 0.365(2) 0.7244(17)
H17 H 0.144(3) 0.438(2) 0.5964(18)
C6 C -0.0202(3) 0.2426(2) 0.53056(19)
H18 H -0.131(3) 0.307(2) 0.5534(17)
H19 H 0.064(3) 0.296(2) 0.4571(19)
H20 H -0.044(2) 0.138(2) 0.5200(17)
C7 C 0.4428(2) 0.41335(18) 0.11809(14)
H21 H 0.408(2) 0.359(2) 0.1919(17)
B1 B 0.3936(3) 0.6099(2) 0.10831(17)
H22 H 0.329(2) 0.664(2) 0.1833(15)
B2 B 0.2919(3) 0.4866(2) 0.05143(17)
H23 H 0.155(3) 0.470(2) 0.0915(17)
B3 B 0.4386(3) 0.3238(2) 0.00323(16)
H24 H 0.397(2) 0.213(2) 0.0119(15)
B4 B 0.6320(3) 0.3456(2) 0.02981(17)
H25 H 0.702(2) 0.244(2) 0.0599(17)
B5 B 0.6046(2) 0.5223(2) 0.09496(16)
H26 H 0.662(2) 0.530(2) 0.1602(16)
C7A C 0.5572(2) 0.58665(18) -0.11809(14)
H21A H 0.592(2) 0.641(2) -0.1919(17)
B1A B 0.6064(3) 0.3901(2) -0.10831(17)
H22A H 0.671(2) 0.336(2) -0.1833(15)
B2A B 0.7081(3) 0.5134(2) -0.05143(17)
H23A H 0.845(3) 0.530(2) -0.0915(17)
B3A B 0.5614(3) 0.6762(2) -0.00323(16)
H24A H 0.603(2) 0.787(2) -0.0119(15)
B4A B 0.3680(3) 0.6544(2) -0.02981(17)
H25A H 0.298(2) 0.756(2) -0.0599(17)
B5A B 0.3954(2) 0.4777(2) -0.09496(16)
H26A H 0.338(2) 0.470(2) -0.1602(16)
C8 C 0.44354(19) 0.34321(17) 0.41712(13)
O1 O 0.38626(15) 0.49376(13) 0.39600(10)
H27 H 0.420(2) 0.552(2) 0.4347(16)
O2 O 0.53961(14) 0.31187(12) 0.48209(10)
O3 O 0.39648(15) 0.24599(12) 0.37015(9)
loop_
_geom_bond_atom_site_label_1
_geom_bond_atom_site_label_2
_geom_bond_site_symmetry_1
_geom_bond_site_symmetry_2
P1 N1 1_555 1_555
N1 H1 1_555 1_555
H2 N1 1_555 1_555
N2 P1 1_555 1_555
C1 N2 1_555 1_555
H3 C1 1_555 1_555
H4 C1 1_555 1_555
H5 C1 1_555 1_555
C2 N2 1_555 1_555
H6 C2 1_555 1_555
H7 C2 1_555 1_555
H8 C2 1_555 1_555
N3 P1 1_555 1_555
C3 N3 1_555 1_555
H9 C3 1_555 1_555
H10 C3 1_555 1_555
H11 C3 1_555 1_555
C4 N3 1_555 1_555
H12 C4 1_555 1_555
H13 C4 1_555 1_555
H14 C4 1_555 1_555
N4 P1 1_555 1_555
C5 N4 1_555 1_555
H15 C5 1_555 1_555
H16 C5 1_555 1_555
H17 C5 1_555 1_555
C6 N4 1_555 1_555
H18 C6 1_555 1_555
H19 C6 1_555 1_555
H20 C6 1_555 1_555
C7 H21 1_555 1_555
B1 C7 1_555 1_555
H22 B1 1_555 1_555
B2 C7 1_555 1_555
H23 B2 1_555 1_555
B3 C7 1_555 1_555
H24 B3 1_555 1_555
B4 C7 1_555 1_555
H25 B4 1_555 1_555
B5 C7 1_555 1_555
H26 B5 1_555 1_555
C8 O1 1_555 1_555
O1 H27 1_555 1_555
O2 C8 1_555 1_555
O3 C8 1_555 1_555
C7A H21A 1_555 1_555
B1A B3 1_555 1_555
H22A B1A 1_555 1_555
B2A B4 1_555 1_555
H23A B2A 1_555 1_555
B3A B1 1_555 1_555
H24A B3A 1_555 1_555
B4A B1 1_555 1_555
H25A B4A 1_555 1_555
B5A B2 1_555 1_555
H26A B5A 1_555 1_555
B1 B2 1_555 1_555
B1 B5 1_555 1_555
B2 B3 1_555 1_555
B2 B4A 1_555 1_555
B3 B4 1_555 1_555
B3 B5A 1_555 1_555
B4 B5 1_555 1_555
B4 B1A 1_555 1_555
B5 B2A 1_555 1_555
B5 B3A 1_555 1_555
C7A B1A 1_555 1_555
C7A B2A 1_555 1_555
C7A B3A 1_555 1_555
C7A B4A 1_555 1_555
C7A B5A 1_555 1_555
B1A B2A 1_555 1_555
B1A B5A 1_555 1_555
B2A B3A 1_555 1_555
B3A B4A 1_555 1_555
B4A B5A 1_555 1_555

#END
