
#######################################################################
#
#                 Cambridge Crystallographic Data Centre
#                                CCDC 
#
#######################################################################
#
# If this CIF has been generated from an entry in the Cambridge 
# Structural Database, then it will include bibliographic, chemical, 
# crystal, experimental, refinement or atomic coordinate data resulting 
# from the CCDC's data processing and validation procedures.
#
#######################################################################

data_IDIJAG
_chemical_name_common            
'4-(1,2-Dihydro-1,5-dimethyl-3-oxo-2-phenyl-3H-pyrazol-4-yliminomethyl)benzoic acid'
_chemical_formula_moiety         'C19 H17 N3 O3'
_chemical_name_systematic        '4-(Antipyrin-4-yliminomethyl)benzoic acid'
_symmetry_cell_setting           orthorhombic
_symmetry_space_group_name_H-M   'P b c a'
_symmetry_Int_Tables_number      61
_space_group_name_Hall           '-P 2ac 2ab'
loop_
_symmetry_equiv_pos_site_id
_symmetry_equiv_pos_as_xyz
1 x,y,z
2 1/2+x,y,1/2-z
3 x,1/2-y,1/2+z
4 1/2-x,1/2+y,z
5 -x,-y,-z
6 1/2-x,-y,1/2+z
7 -x,1/2+y,1/2-z
8 1/2+x,1/2-y,-z
_cell_length_a                   13.0859(14)
_cell_length_b                   11.4837(13)
_cell_length_c                   22.422(2)
_cell_angle_alpha                90
_cell_angle_beta                 90
_cell_angle_gamma                90
_cell_volume                     3369.46
_exptl_crystal_colour            yellow
_exptl_crystal_description       prism
_cell_formula_units_Z            8
_exptl_crystal_recrystallization_method acetonitrile
loop_
_atom_site_label
_atom_site_type_symbol
_atom_site_fract_x
_atom_site_fract_y
_atom_site_fract_z
C1 C 0.33395(16) 1.06156(18) 0.23355(9)
C2 C 0.25674(17) 0.99866(19) 0.20789(10)
H1 H 0.2067 0.9643 0.2315
C3 C 0.2538(2) 0.9867(2) 0.14697(12)
H2 H 0.2014 0.9444 0.1291
C4 C 0.3276(2) 1.0368(2) 0.11269(11)
H3 H 0.3262 1.0273 0.0715
C5 C 0.40325(19) 1.1005(2) 0.13826(11)
H4 H 0.4531 1.1349 0.1145
C6 C 0.40653(16) 1.1143(2) 0.19937(10)
H5 H 0.4576 1.1590 0.2170
C7 C 0.39880(16) 0.99487(18) 0.33258(9)
C8 C 0.35261(15) 1.00154(16) 0.38990(9)
C9 C 0.26972(15) 1.07502(18) 0.38594(9)
C10 C 0.45656(16) 0.88319(18) 0.44854(8)
H6 H 0.5025 0.8769 0.4171
C11 C 0.47756(16) 0.82356(17) 0.50478(8)
C12 C 0.56452(16) 0.75732(18) 0.51280(9)
H7 H 0.6110 0.7500 0.4817
C13 C 0.58365(15) 0.70187(17) 0.56612(9)
H8 H 0.6423 0.6569 0.5704
C14 C 0.51649(15) 0.71240(17) 0.61332(9)
C15 C 0.42974(16) 0.77912(18) 0.60565(9)
H9 H 0.3838 0.7877 0.6370
C16 C 0.41074(15) 0.83277(19) 0.55226(9)
H10 H 0.3514 0.8765 0.5478
C17 C 0.53889(18) 0.6524(2) 0.67018(9)
C18 C 0.19721(16) 1.2054(2) 0.30667(10)
H11 H 0.1499 1.2302 0.3368
H12 H 0.1601 1.1765 0.2728
H13 H 0.2388 1.2702 0.2947
C19 C 0.19754(15) 1.1105(2) 0.43377(9)
H14 H 0.1939 1.1940 0.4354
H15 H 0.2211 1.0811 0.4714
H16 H 0.1310 1.0795 0.4254
N1 N 0.34201(13) 1.06922(15) 0.29687(7)
N2 N 0.26160(12) 1.11428(15) 0.33023(8)
N3 N 0.37562(12) 0.94371(14) 0.44242(7)
O1 O 0.47157(11) 0.93502(12) 0.31377(5)
O2 O 0.61096(12) 0.58904(15) 0.67767(6)
O3 O 0.47082(10) 0.67435(12) 0.71210(6)
H17 H 0.4770 0.6319 0.7413
loop_
_geom_bond_atom_site_label_1
_geom_bond_atom_site_label_2
_geom_bond_site_symmetry_1
_geom_bond_site_symmetry_2
C1 C2 1_555 1_555
C2 H1 1_555 1_555
C3 C2 1_555 1_555
H2 C3 1_555 1_555
C4 C3 1_555 1_555
H3 C4 1_555 1_555
C5 C4 1_555 1_555
H4 C5 1_555 1_555
C6 C1 1_555 1_555
H5 C6 1_555 1_555
C7 C8 1_555 1_555
C8 C9 1_555 1_555
C9 C19 1_555 1_555
C10 H6 1_555 1_555
C11 C10 1_555 1_555
C12 C11 1_555 1_555
H7 C12 1_555 1_555
C13 C12 1_555 1_555
H8 C13 1_555 1_555
C14 C13 1_555 1_555
C15 C14 1_555 1_555
H9 C15 1_555 1_555
C16 C11 1_555 1_555
H10 C16 1_555 1_555
C17 C14 1_555 1_555
C18 H11 1_555 1_555
H12 C18 1_555 1_555
H13 C18 1_555 1_555
C19 H14 1_555 1_555
H15 C19 1_555 1_555
H16 C19 1_555 1_555
N1 C1 1_555 1_555
N2 C9 1_555 1_555
N3 C8 1_555 1_555
O1 C7 1_555 1_555
O2 C17 1_555 1_555
O3 C17 1_555 1_555
H17 O3 1_555 1_555
C5 C6 1_555 1_555
C7 N1 1_555 1_555
C10 N3 1_555 1_555
C15 C16 1_555 1_555
C18 N2 1_555 1_555
N1 N2 1_555 1_555

#END
