
#######################################################################
#
#                 Cambridge Crystallographic Data Centre
#                                CCDC 
#
#######################################################################
#
# If this CIF has been generated from an entry in the Cambridge 
# Structural Database, then it will include bibliographic, chemical, 
# crystal, experimental, refinement or atomic coordinate data resulting 
# from the CCDC's data processing and validation procedures.
#
#######################################################################

data_IDIKAH
_chemical_formula_moiety         'C18 H14 Cl1 N1 O4'
_chemical_name_systematic        
1-Acetyl-3-(2-chloro-2,3-dihydrobenzofuran-3-yl)-1,2-dihydro-3-hydroxy-2-oxo-3H-indole
_symmetry_cell_setting           triclinic
_symmetry_space_group_name_H-M   'P -1'
_symmetry_Int_Tables_number      2
_space_group_name_Hall           '-P 1'
loop_
_symmetry_equiv_pos_site_id
_symmetry_equiv_pos_as_xyz
1 x,y,z
2 -x,-y,-z
_cell_length_a                   7.86750(10)
_cell_length_b                   9.0796(2)
_cell_length_c                   12.4097(2)
_cell_angle_alpha                109.5410(10)
_cell_angle_beta                 97.2270(10)
_cell_angle_gamma                104.4270(10)
_cell_volume                     787.542
_exptl_crystal_colour            colorless
_exptl_crystal_description       block
_chemical_melting_point          406K
_cell_formula_units_Z            2
_exptl_crystal_recrystallization_method 'petroleum ether/acetone'
loop_
_atom_site_label
_atom_site_type_symbol
_atom_site_fract_x
_atom_site_fract_y
_atom_site_fract_z
Cl1 Cl 0.15018(10) 0.45538(11) 0.18958(8)
O1 O 1.2326(3) 0.9055(4) 0.2714(2)
O2 O 0.7094(3) 0.9129(3) 0.1841(2)
O3 O 0.5619(3) 0.8896(3) 0.3883(2)
H1 H 0.483(5) 0.885(4) 0.341(3)
O4 O 0.4294(3) 0.4021(3) 0.29140(18)
N1 N 0.9435(3) 0.8656(3) 0.2887(2)
C1 C 0.7844(3) 0.7563(3) 0.4039(2)
C2 C 0.7651(4) 0.7039(4) 0.4943(3)
H2 H 0.6532 0.6774 0.5125
C3 C 0.9147(5) 0.6907(4) 0.5588(3)
H3 H 0.9022 0.6508 0.6182
C4 C 1.0811(4) 0.7368(4) 0.5342(3)
H4 H 1.1800 0.7275 0.5780
C5 C 1.1059(4) 0.7965(3) 0.4468(2)
H5 H 1.2197 0.8309 0.4328
C6 C 0.9552(4) 0.8031(3) 0.3808(2)
C7 C 0.7660(4) 0.8651(3) 0.2562(3)
C8 C 0.6484(3) 0.7825(3) 0.3225(2)
C9 C 1.0879(4) 0.9188(4) 0.2399(3)
C10 C 1.0544(5) 0.9821(5) 0.1469(3)
H6 H 0.9487 0.9067 0.0882
H7 H 1.1562 0.9935 0.1116
H8 H 1.0365 1.0874 0.1804
C11 C 0.5070(3) 0.6266(3) 0.2298(2)
H9 H 0.4407 0.6557 0.1718
C12 C 0.5808(4) 0.4907(3) 0.1676(2)
C13 C 0.6819(4) 0.4727(4) 0.0829(2)
H10 H 0.7168 0.5546 0.0536
C14 C 0.7301(4) 0.3299(4) 0.0427(3)
H11 H 0.7975 0.3155 -0.0143
C15 C 0.6785(5) 0.2109(4) 0.0866(3)
H12 H 0.7122 0.1163 0.0588
C16 C 0.5778(5) 0.2260(4) 0.1712(3)
H13 H 0.5433 0.1444 0.2008
C17 C 0.5315(4) 0.3680(4) 0.2091(3)
C18 C 0.3736(4) 0.5357(4) 0.2845(3)
H14 H 0.3734 0.6096 0.3628
loop_
_geom_bond_atom_site_label_1
_geom_bond_atom_site_label_2
_geom_bond_site_symmetry_1
_geom_bond_site_symmetry_2
Cl1 C18 1_555 1_555
O1 C9 1_555 1_555
O2 C7 1_555 1_555
O3 H1 1_555 1_555
O4 C17 1_555 1_555
N1 C6 1_555 1_555
C1 C2 1_555 1_555
C2 H2 1_555 1_555
C3 C2 1_555 1_555
H3 C3 1_555 1_555
C4 C3 1_555 1_555
H4 C4 1_555 1_555
C5 C4 1_555 1_555
H5 C5 1_555 1_555
C6 C1 1_555 1_555
C7 N1 1_555 1_555
C8 O3 1_555 1_555
C9 N1 1_555 1_555
C10 C9 1_555 1_555
H6 C10 1_555 1_555
H7 C10 1_555 1_555
H8 C10 1_555 1_555
C11 C8 1_555 1_555
H9 C11 1_555 1_555
C12 C11 1_555 1_555
C13 C12 1_555 1_555
H10 C13 1_555 1_555
C14 C13 1_555 1_555
H11 C14 1_555 1_555
C15 C14 1_555 1_555
H12 C15 1_555 1_555
C16 C15 1_555 1_555
H13 C16 1_555 1_555
C17 C12 1_555 1_555
C18 O4 1_555 1_555
H14 C18 1_555 1_555
C1 C8 1_555 1_555
C5 C6 1_555 1_555
C7 C8 1_555 1_555
C11 C18 1_555 1_555
C16 C17 1_555 1_555

#END
