
#######################################################################
#
#                 Cambridge Crystallographic Data Centre
#                                CCDC 
#
#######################################################################
#
# If this CIF has been generated from an entry in the Cambridge 
# Structural Database, then it will include bibliographic, chemical, 
# crystal, experimental, refinement or atomic coordinate data resulting 
# from the CCDC's data processing and validation procedures.
#
#######################################################################

data_IDILIR
_chemical_formula_moiety         'C24 H27 N1 O5'
_chemical_name_systematic        
'Ethyl 2-amino-3-(1-ethoxycarbonyl-2-(2,5-dimethylphenyl)ethylidene)-2,3-dihydro-1-benzofuran-2-carboxylate'
_symmetry_cell_setting           monoclinic
_symmetry_space_group_name_H-M   'P 21/c'
_symmetry_Int_Tables_number      14
_space_group_name_Hall           '-P 2ybc'
loop_
_symmetry_equiv_pos_site_id
_symmetry_equiv_pos_as_xyz
1 x,y,z
2 -x,1/2+y,1/2-z
3 -x,-y,-z
4 x,1/2-y,1/2+z
_cell_length_a                   12.0151(9)
_cell_length_b                   11.4533(8)
_cell_length_c                   15.4885(11)
_cell_angle_alpha                90
_cell_angle_beta                 98.4690(10)
_cell_angle_gamma                90
_cell_volume                     2108.17
_exptl_crystal_colour            colorless
_exptl_crystal_description       block
_chemical_melting_point          175-176deg.C
_cell_formula_units_Z            4
_exptl_crystal_recrystallization_method dichloromethane/hexanes
loop_
_atom_site_label
_atom_site_type_symbol
_atom_site_fract_x
_atom_site_fract_y
_atom_site_fract_z
O1 O 0.82297(13) 0.31271(12) 0.03681(9)
O2 O 0.68985(14) 0.28814(14) 0.19276(11)
O3 O 0.62591(12) 0.41953(13) 0.08909(10)
O4 O 0.90659(13) 0.66397(14) 0.28443(10)
O5 O 0.76529(12) 0.53659(12) 0.24988(9)
N1 N 0.90653(17) 0.35341(17) 0.18445(13)
H1 H 0.974(2) 0.361(2) 0.1695(17)
H2 H 0.895(2) 0.286(2) 0.2003(17)
C1 C 0.82275(17) 0.38723(17) 0.11596(13)
C2 C 0.83960(15) 0.51195(16) 0.08358(13)
C3 C 0.83591(15) 0.50239(17) -0.01143(13)
C4 C 0.83606(17) 0.58413(18) -0.07862(13)
H3 H 0.8418 0.6652 -0.0658
C5 C 0.82773(18) 0.5453(2) -0.16438(14)
H4 H 0.8282 0.6002 -0.2103
C6 C 0.81866(18) 0.4266(2) -0.18348(14)
H5 H 0.8134 0.4017 -0.2424
C7 C 0.81709(18) 0.34410(19) -0.11813(15)
H6 H 0.8106 0.2631 -0.1311
C8 C 0.82537(16) 0.38466(18) -0.03340(13)
C9 C 0.70569(17) 0.36020(17) 0.13951(13)
C10 C 0.50994(18) 0.3942(2) 0.10171(16)
H7 H 0.5015 0.3093 0.1109
H8 H 0.4580 0.4168 0.0487
C11 C 0.4797(2) 0.4596(3) 0.17897(19)
H9 H 0.4020 0.4413 0.1864
H10 H 0.4869 0.5436 0.1695
H11 H 0.5306 0.4364 0.2316
C12 C 0.85845(15) 0.60563(17) 0.13577(13)
C13 C 0.88566(16) 0.72610(17) 0.10634(13)
H12 H 0.9124 0.7204 0.0490
H13 H 0.9477 0.7589 0.1485
C14 C 0.78585(17) 0.80909(17) 0.09832(12)
C15 C 0.67664(17) 0.76794(18) 0.09692(13)
H14 H 0.6645 0.6861 0.0992
C16 C 0.58445(19) 0.8429(2) 0.09223(14)
C17 C 0.4670(2) 0.7950(3) 0.09200(18)
H15 H 0.4131 0.8597 0.0883
H16 H 0.4642 0.7510 0.1459
H17 H 0.4476 0.7432 0.0416
C18 C 0.6044(2) 0.9617(2) 0.08862(15)
H18 H 0.5433 1.0148 0.0864
C19 C 0.7120(2) 1.0039(2) 0.08822(15)
H19 H 0.7231 1.0857 0.0841
C20 C 0.8044(2) 0.93001(18) 0.09369(13)
C21 C 0.9215(2) 0.9779(2) 0.09582(17)
H20 H 0.9183 1.0632 0.0920
H21 H 0.9544 0.9466 0.0464
H22 H 0.9680 0.9549 0.1505
C22 C 0.84936(16) 0.60392(17) 0.23135(13)
C23 C 0.7470(2) 0.5346(2) 0.34071(14)
H23 H 0.8199 0.5435 0.3793
H24 H 0.7139 0.4587 0.3539
C24 C 0.6692(2) 0.6319(2) 0.35758(15)
H25 H 0.6573 0.6297 0.4188
H26 H 0.5970 0.6224 0.3197
H27 H 0.7027 0.7069 0.3453
loop_
_geom_bond_atom_site_label_1
_geom_bond_atom_site_label_2
_geom_bond_site_symmetry_1
_geom_bond_site_symmetry_2
O1 C1 1_555 1_555
O2 C9 1_555 1_555
O3 C9 1_555 1_555
O4 C22 1_555 1_555
O5 C22 1_555 1_555
N1 H1 1_555 1_555
H2 N1 1_555 1_555
C1 N1 1_555 1_555
C2 C1 1_555 1_555
C3 C2 1_555 1_555
C4 C3 1_555 1_555
H3 C4 1_555 1_555
C5 C4 1_555 1_555
H4 C5 1_555 1_555
C6 C5 1_555 1_555
H5 C6 1_555 1_555
C7 C6 1_555 1_555
H6 C7 1_555 1_555
C8 O1 1_555 1_555
C9 C1 1_555 1_555
C10 O3 1_555 1_555
H7 C10 1_555 1_555
H8 C10 1_555 1_555
C11 C10 1_555 1_555
H9 C11 1_555 1_555
H10 C11 1_555 1_555
H11 C11 1_555 1_555
C12 C2 1_555 1_555
C13 C12 1_555 1_555
H12 C13 1_555 1_555
H13 C13 1_555 1_555
C14 C13 1_555 1_555
C15 C14 1_555 1_555
H14 C15 1_555 1_555
C16 C15 1_555 1_555
C17 C16 1_555 1_555
H15 C17 1_555 1_555
H16 C17 1_555 1_555
H17 C17 1_555 1_555
C18 C16 1_555 1_555
H18 C18 1_555 1_555
C19 C18 1_555 1_555
H19 C19 1_555 1_555
C20 C14 1_555 1_555
C21 C20 1_555 1_555
H20 C21 1_555 1_555
H21 C21 1_555 1_555
H22 C21 1_555 1_555
C22 C12 1_555 1_555
C23 O5 1_555 1_555
H23 C23 1_555 1_555
H24 C23 1_555 1_555
C24 C23 1_555 1_555
H25 C24 1_555 1_555
H26 C24 1_555 1_555
H27 C24 1_555 1_555
C3 C8 1_555 1_555
C7 C8 1_555 1_555
C19 C20 1_555 1_555

#END
