
#######################################################################
#
#                 Cambridge Crystallographic Data Centre
#                                CCDC 
#
#######################################################################
#
# If this CIF has been generated from an entry in the Cambridge 
# Structural Database, then it will include bibliographic, chemical, 
# crystal, experimental, refinement or atomic coordinate data resulting 
# from the CCDC's data processing and validation procedures.
#
#######################################################################

data_IDILEN
_chemical_formula_moiety         'C21 H21 N1 O5'
_chemical_name_systematic        
'Ethyl 2-amino-3-(1-methoxycarbonyl-2-phenylethylidene)-2,3-dihydro-1-benzofuran-2-carboxylate'
_symmetry_cell_setting           triclinic
_symmetry_space_group_name_H-M   'P -1'
_symmetry_Int_Tables_number      2
_space_group_name_Hall           '-P 1'
loop_
_symmetry_equiv_pos_site_id
_symmetry_equiv_pos_as_xyz
1 x,y,z
2 -x,-y,-z
_cell_length_a                   9.0560(5)
_cell_length_b                   10.2779(6)
_cell_length_c                   11.1313(7)
_cell_angle_alpha                78.6020(10)
_cell_angle_beta                 66.5910(10)
_cell_angle_gamma                79.6730(10)
_cell_volume                     926.173
_exptl_crystal_colour            colorless
_exptl_crystal_description       block
_chemical_melting_point          120-121deg.C
_cell_formula_units_Z            2
_exptl_crystal_recrystallization_method hexanes/dichloromethane
loop_
_atom_site_label
_atom_site_type_symbol
_atom_site_fract_x
_atom_site_fract_y
_atom_site_fract_z
O1 O 0.15547(15) 0.80826(14) 0.50403(13)
O2 O 0.04753(17) 0.63808(15) 0.35310(15)
O3 O 0.18661(15) 0.81318(13) 0.23862(13)
O4 O 0.59549(17) 0.42058(14) 0.28398(16)
O5 O 0.40744(16) 0.54004(13) 0.20889(13)
N1 N 0.2405(2) 0.57219(17) 0.49839(17)
H1 H 0.283(3) 0.569(2) 0.558(2)
H2 H 0.144(3) 0.545(2) 0.533(2)
C1 C 0.2443(2) 0.69933(18) 0.42270(17)
C2 C 0.4161(2) 0.74044(17) 0.35035(16)
C3 C 0.4077(2) 0.87650(18) 0.37550(17)
C4 C 0.5153(2) 0.97363(19) 0.32510(19)
H3 H 0.6217 0.9550 0.2626
C5 C 0.4640(3) 1.0980(2) 0.3681(2)
H4 H 0.5360 1.1648 0.3343
C6 C 0.3091(3) 1.1258(2) 0.4598(2)
H5 H 0.2773 1.2112 0.4885
C7 C 0.1998(3) 1.0314(2) 0.5103(2)
H6 H 0.0935 1.0503 0.5729
C8 C 0.2521(2) 0.90864(19) 0.46561(18)
C9 C 0.1480(2) 0.70950(18) 0.33346(18)
C10 C 0.1088(3) 0.8406(2) 0.1432(2)
H7 H 0.0523 0.9325 0.1440
H8 H 0.0277 0.7775 0.1668
C11 C 0.2326(3) 0.8261(3) 0.0101(2)
H9 H 0.1806 0.8448 -0.0546
H10 H 0.2873 0.7347 0.0096
H11 H 0.3122 0.8892 -0.0131
C12 C 0.5421(2) 0.65690(18) 0.28596(17)
C13 C 0.7170(2) 0.68525(19) 0.22458(17)
H12 H 0.7864 0.6041 0.2430
H13 H 0.7303 0.7570 0.2658
C14 C 0.7722(2) 0.72737(17) 0.07593(17)
C15 C 0.6730(2) 0.81491(19) 0.02013(18)
H14 H 0.5677 0.8478 0.0756
C16 C 0.7256(3) 0.8548(2) -0.11531(19)
H15 H 0.6568 0.9152 -0.1519
C17 C 0.8779(3) 0.8068(2) -0.19741(19)
H16 H 0.9140 0.8342 -0.2902
C18 C 0.9773(2) 0.7187(2) -0.1438(2)
H17 H 1.0819 0.6854 -0.1998
C19 C 0.9245(2) 0.6787(2) -0.00768(19)
H18 H 0.9932 0.6175 0.0284
C20 C 0.5183(2) 0.52476(19) 0.26366(18)
C21 C 0.3610(3) 0.4196(2) 0.1915(3)
H19 H 0.2797 0.4433 0.1511
H20 H 0.3156 0.3651 0.2777
H21 H 0.4564 0.3688 0.1340
loop_
_geom_bond_atom_site_label_1
_geom_bond_atom_site_label_2
_geom_bond_site_symmetry_1
_geom_bond_site_symmetry_2
O1 C1 1_555 1_555
O2 C9 1_555 1_555
O3 C9 1_555 1_555
O4 C20 1_555 1_555
O5 C20 1_555 1_555
N1 H1 1_555 1_555
H2 N1 1_555 1_555
C1 N1 1_555 1_555
C2 C1 1_555 1_555
C3 C2 1_555 1_555
C4 C3 1_555 1_555
H3 C4 1_555 1_555
C5 C4 1_555 1_555
H4 C5 1_555 1_555
C6 C5 1_555 1_555
H5 C6 1_555 1_555
C7 C6 1_555 1_555
H6 C7 1_555 1_555
C8 O1 1_555 1_555
C9 C1 1_555 1_555
C10 O3 1_555 1_555
H7 C10 1_555 1_555
H8 C10 1_555 1_555
C11 C10 1_555 1_555
H9 C11 1_555 1_555
H10 C11 1_555 1_555
H11 C11 1_555 1_555
C12 C2 1_555 1_555
C13 C12 1_555 1_555
H12 C13 1_555 1_555
H13 C13 1_555 1_555
C14 C13 1_555 1_555
C15 C14 1_555 1_555
H14 C15 1_555 1_555
C16 C15 1_555 1_555
H15 C16 1_555 1_555
C17 C16 1_555 1_555
H16 C17 1_555 1_555
C18 C17 1_555 1_555
H17 C18 1_555 1_555
C19 C14 1_555 1_555
H18 C19 1_555 1_555
C20 C12 1_555 1_555
C21 O5 1_555 1_555
H19 C21 1_555 1_555
H20 C21 1_555 1_555
H21 C21 1_555 1_555
C3 C8 1_555 1_555
C7 C8 1_555 1_555
C18 C19 1_555 1_555

#END
