
#######################################################################
#
#                 Cambridge Crystallographic Data Centre
#                                CCDC 
#
#######################################################################
#
# If this CIF has been generated from an entry in the Cambridge 
# Structural Database, then it will include bibliographic, chemical, 
# crystal, experimental, refinement or atomic coordinate data resulting 
# from the CCDC's data processing and validation procedures.
#
#######################################################################

data_IDIPAP
_chemical_formula_moiety         'C24 H22 O4'
_chemical_name_systematic        
7,8,9,10-tetradehydro-3,4,5,6,11,12,13,14-octahydronaphtho[2,3-c][1,6]dioxacyclooctadecine-1,16-dione
_symmetry_cell_setting           monoclinic
_symmetry_space_group_name_H-M   'P 21/c'
_symmetry_Int_Tables_number      14
_space_group_name_Hall           '-P 2ybc'
loop_
_symmetry_equiv_pos_site_id
_symmetry_equiv_pos_as_xyz
1 x,y,z
2 -x,1/2+y,1/2-z
3 -x,-y,-z
4 x,1/2-y,1/2+z
_cell_length_a                   23.7040(8)
_cell_length_b                   8.2676(3)
_cell_length_c                   9.7488(3)
_cell_angle_alpha                90
_cell_angle_beta                 97.091(2)
_cell_angle_gamma                90
_cell_volume                     1895.91
_exptl_crystal_colour            colorless
_exptl_crystal_description       rod
_cell_formula_units_Z            4
loop_
_atom_site_label
_atom_site_type_symbol
_atom_site_fract_x
_atom_site_fract_y
_atom_site_fract_z
C1 C 0.59662(6) 0.56337(18) 0.58232(14)
H1 H 0.569534 0.607348 0.636116
C2 C 0.58297(6) 0.55304(18) 0.43667(14)
C3 C 0.53085(6) 0.61166(19) 0.36736(15)
H2 H 0.504094 0.661206 0.419027
C4 C 0.51863(7) 0.5977(2) 0.22687(16)
H3 H 0.483417 0.636623 0.181825
C5 C 0.55837(7) 0.5254(2) 0.14867(15)
H4 H 0.549753 0.516670 0.051164
C6 C 0.60911(7) 0.4680(2) 0.21236(15)
H5 H 0.635238 0.418838 0.158673
C7 C 0.62314(6) 0.48104(18) 0.35783(14)
C8 C 0.67594(6) 0.42820(18) 0.42680(15)
H6 H 0.702904 0.380343 0.374771
C9 C 0.68907(6) 0.44453(17) 0.56726(14)
C10 C 0.64799(6) 0.51130(17) 0.64699(14)
C11 C 0.65981(6) 0.53802(18) 0.79990(14)
O1 O 0.62963(5) 0.49207(16) 0.88272(11)
O2 O 0.70663(4) 0.62894(12) 0.83109(10)
C12 C 0.72295(7) 0.66408(18) 0.97693(14)
H7 H 0.688508 0.689353 1.020886
H8 H 0.747957 0.760368 0.985935
C13 C 0.75373(6) 0.52253(17) 1.05104(14)
H9 H 0.783099 0.482164 0.995675
H10 H 0.726339 0.433771 1.059503
C14 C 0.78195(7) 0.57007(18) 1.19528(14)
H11 H 0.796170 0.470924 1.244985
H12 H 0.752837 0.618692 1.247196
C15 C 0.83177(7) 0.69054(19) 1.19493(16)
H13 H 0.816345 0.799112 1.169100
H14 H 0.852381 0.697808 1.289439
C16 C 0.87182(7) 0.64340(19) 1.09886(16)
C17 C 0.90074(7) 0.60020(19) 1.01245(16)
C18 C 0.93051(7) 0.5507(2) 0.90633(16)
C19 C 0.95319(7) 0.5071(2) 0.80866(16)
C20 C 0.97947(7) 0.4537(2) 0.68841(17)
H15 H 1.017341 0.407778 0.720975
H16 H 0.985415 0.549341 0.630827
C21 C 0.94527(7) 0.3274(2) 0.59753(16)
H17 H 0.940435 0.230302 0.654295
H18 H 0.967565 0.294964 0.522611
C22 C 0.88621(6) 0.3846(2) 0.53210(15)
H19 H 0.887137 0.502570 0.515057
H20 H 0.876139 0.329778 0.442126
C23 C 0.84180(6) 0.34742(18) 0.62599(15)
H21 H 0.839779 0.229254 0.641104
H22 H 0.851925 0.400435 0.716744
O3 O 0.78725(4) 0.40683(13) 0.56160(10)
C24 C 0.74414(6) 0.38489(16) 0.63845(14)
O4 O 0.75045(4) 0.32327(12) 0.75183(10)
loop_
_geom_bond_atom_site_label_1
_geom_bond_atom_site_label_2
_geom_bond_site_symmetry_1
_geom_bond_site_symmetry_2
C1 H1 1_555 1_555
C2 C1 1_555 1_555
C3 C2 1_555 1_555
H2 C3 1_555 1_555
C4 C3 1_555 1_555
H3 C4 1_555 1_555
C5 C4 1_555 1_555
H4 C5 1_555 1_555
C6 C5 1_555 1_555
H5 C6 1_555 1_555
C7 C2 1_555 1_555
C8 C7 1_555 1_555
H6 C8 1_555 1_555
C9 C8 1_555 1_555
C10 C1 1_555 1_555
C11 C10 1_555 1_555
O1 C11 1_555 1_555
O2 C11 1_555 1_555
C12 O2 1_555 1_555
H7 C12 1_555 1_555
H8 C12 1_555 1_555
C13 C12 1_555 1_555
H9 C13 1_555 1_555
H10 C13 1_555 1_555
C14 C13 1_555 1_555
H11 C14 1_555 1_555
H12 C14 1_555 1_555
C15 C14 1_555 1_555
H13 C15 1_555 1_555
H14 C15 1_555 1_555
C16 C15 1_555 1_555
C17 C16 1_555 1_555
C18 C17 1_555 1_555
C19 C18 1_555 1_555
C20 C19 1_555 1_555
H15 C20 1_555 1_555
H16 C20 1_555 1_555
C21 C20 1_555 1_555
H17 C21 1_555 1_555
H18 C21 1_555 1_555
C22 C21 1_555 1_555
H19 C22 1_555 1_555
H20 C22 1_555 1_555
C23 C22 1_555 1_555
H21 C23 1_555 1_555
H22 C23 1_555 1_555
O3 C23 1_555 1_555
C24 C9 1_555 1_555
O4 C24 1_555 1_555
C6 C7 1_555 1_555
C9 C10 1_555 1_555
O3 C24 1_555 1_555

#END
