
#######################################################################
#
#                 Cambridge Crystallographic Data Centre
#                                CCDC 
#
#######################################################################
#
# If this CIF has been generated from an entry in the Cambridge 
# Structural Database, then it will include bibliographic, chemical, 
# crystal, experimental, refinement or atomic coordinate data resulting 
# from the CCDC's data processing and validation procedures.
#
#######################################################################

data_IDISIZ
_chemical_formula_moiety         'C15 H14 Br1 N1'
_chemical_name_systematic        
N-[(E)-4-Bromobenzylidene]-3,4-dimethylaniline
_symmetry_cell_setting           orthorhombic
_symmetry_space_group_name_H-M   'P b c n'
_symmetry_Int_Tables_number      60
_space_group_name_Hall           '-P 2n 2ab'
loop_
_symmetry_equiv_pos_site_id
_symmetry_equiv_pos_as_xyz
1 x,y,z
2 1/2-x,1/2-y,1/2+z
3 1/2+x,1/2-y,-z
4 -x,y,1/2-z
5 -x,-y,-z
6 1/2+x,1/2+y,1/2-z
7 1/2-x,1/2+y,z
8 x,-y,1/2+z
_cell_length_a                   14.868(7)
_cell_length_b                   6.161(3)
_cell_length_c                   28.609(13)
_cell_angle_alpha                90
_cell_angle_beta                 90
_cell_angle_gamma                90
_cell_volume                     2620.63
_exptl_crystal_colour            yellow
_exptl_crystal_description       block
_cell_formula_units_Z            8
loop_
_atom_site_label
_atom_site_type_symbol
_atom_site_fract_x
_atom_site_fract_y
_atom_site_fract_z
Br1 Br 0.12941(5) 1.15486(14) 0.55818(2)
N1 N 0.1277(3) 0.5957(7) 0.76719(15)
C1 C 0.1549(3) 0.7560(9) 0.6734(2)
C2 C 0.1579(4) 0.8357(11) 0.6281(2)
C3 C 0.1256(3) 1.0405(10) 0.62021(17)
C4 C 0.0911(4) 1.1681(10) 0.65516(19)
C5 C 0.0907(4) 1.0843(9) 0.70019(19)
C6 C 0.1210(3) 0.8791(9) 0.70960(18)
C7 C 0.1164(3) 0.7919(9) 0.75771(19)
C8 C 0.1253(3) 0.5192(8) 0.81399(16)
C9 C 0.0878(3) 0.6300(8) 0.85173(18)
C10 C 0.0929(3) 0.5490(9) 0.89694(18)
C11 C 0.1357(3) 0.3504(9) 0.90483(19)
C12 C 0.1714(3) 0.2393(9) 0.8668(2)
C13 C 0.1656(3) 0.3213(8) 0.8222(2)
C14 C 0.0523(5) 0.6765(11) 0.93710(19)
C15 C 0.1459(4) 0.2609(11) 0.9540(2)
H1 H 0.17610 0.61680 0.67950
H2 H 0.18130 0.75260 0.60390
H3 H 0.06880 1.30610 0.64890
H4 H 0.06940 1.16980 0.72460
H5 H 0.10450 0.88760 0.78210
H6 H 0.05860 0.76120 0.84650
H7 H 0.19980 0.10660 0.87160
H8 H 0.18910 0.24250 0.79730
H9 H 0.00220 0.59760 0.94980
H10 H 0.03200 0.81510 0.92590
H11 H 0.09680 0.69750 0.96100
H12 H 0.17400 0.36800 0.97350
H13 H 0.18250 0.13260 0.95320
H14 H 0.08770 0.22570 0.96640
loop_
_geom_bond_atom_site_label_1
_geom_bond_atom_site_label_2
_geom_bond_site_symmetry_1
_geom_bond_site_symmetry_2
Br1 C3 1_555 1_555
N1 C7 1_555 1_555
C1 C2 1_555 1_555
C2 C3 1_555 1_555
C3 C4 1_555 1_555
C4 C5 1_555 1_555
C5 C6 1_555 1_555
C6 C1 1_555 1_555
C7 C6 1_555 1_555
C8 N1 1_555 1_555
C9 C8 1_555 1_555
C10 C9 1_555 1_555
C11 C10 1_555 1_555
C12 C11 1_555 1_555
C13 C8 1_555 1_555
C14 C10 1_555 1_555
C15 C11 1_555 1_555
H1 C1 1_555 1_555
H2 C2 1_555 1_555
H3 C4 1_555 1_555
H4 C5 1_555 1_555
H5 C7 1_555 1_555
H6 C9 1_555 1_555
H7 C12 1_555 1_555
H8 C13 1_555 1_555
H9 C14 1_555 1_555
H10 C14 1_555 1_555
H11 C14 1_555 1_555
H12 C15 1_555 1_555
H13 C15 1_555 1_555
H14 C15 1_555 1_555
C12 C13 1_555 1_555

#END
