
#######################################################################
#
#                 Cambridge Crystallographic Data Centre
#                                CCDC 
#
#######################################################################
#
# If this CIF has been generated from an entry in the Cambridge 
# Structural Database, then it will include bibliographic, chemical, 
# crystal, experimental, refinement or atomic coordinate data resulting 
# from the CCDC's data processing and validation procedures.
#
#######################################################################

data_IDIVOG
_chemical_name_common            'Org25969-rocuronium clathrate'
_chemical_formula_moiety         
'C72 H104 O48 S8 8-,C32 H53 N2 O4 1+,4(C3 H7 N1 O1),7(Na1 1+),10(H2 O1)'
_chemical_name_systematic        
'heptasodium rocuronium per-6-deoxy-per-6-carboxyethylsulfanyl-\g-cyclodextrin dimethylformamide solvate decahydrate'
_chemical_properties_biological  
'exhibits a novel concept of reversing neuromuscular block'
_symmetry_cell_setting           orthorhombic
_symmetry_space_group_name_H-M   'P 21 21 2'
_symmetry_Int_Tables_number      18
_space_group_name_Hall           'P 2 2ab'
loop_
_symmetry_equiv_pos_site_id
_symmetry_equiv_pos_as_xyz
1 x,y,z
2 -x,-y,z
3 1/2-x,1/2+y,-z
4 1/2+x,1/2-y,-z
_cell_length_a                   30.946(2)
_cell_length_b                   39.245(3)
_cell_length_c                   13.3952(9)
_cell_angle_alpha                90
_cell_angle_beta                 90
_cell_angle_gamma                90
_cell_volume                     16268.1
_exptl_crystal_colour            colorless
_exptl_crystal_description       lath
_cell_formula_units_Z            4
loop_
_atom_site_label
_atom_site_type_symbol
_atom_site_fract_x
_atom_site_fract_y
_atom_site_fract_z
C1 C 0.6717(3) 0.3297(3) 0.6900(8)
H1 H 0.6858 0.3072 0.6764
O1 O 0.7046(2) 0.35584(17) 0.6930(5)
C2 C 0.7361(3) 0.3506(3) 0.7722(8)
H2 H 0.7581 0.3693 0.7689
C3 C 0.7136(3) 0.3525(3) 0.8701(8)
H3 H 0.6979 0.3747 0.8745
C4 C 0.6814(3) 0.3242(3) 0.8758(8)
H4 H 0.6965 0.3018 0.8702
C5 C 0.6506(3) 0.3283(2) 0.7915(8)
H5 H 0.6340 0.3499 0.8019
C6 C 0.6418(3) 0.3375(3) 0.6079(7)
H6 H 0.6283 0.3599 0.6216
H7 H 0.6184 0.3203 0.6086
S1 S 0.66448(11) 0.33866(9) 0.4839(2)
C7 C 0.6823(5) 0.3815(3) 0.4724(15)
H8 H 0.6950 0.3893 0.5362
H9 H 0.7046 0.3832 0.4198
C8 C 0.6420(7) 0.4042(4) 0.4442(16)
C9 C 0.6501(8) 0.4440(5) 0.438(2)
O2 O 0.6874(6) 0.4549(4) 0.4360(15)
O3 O 0.6157(9) 0.4661(7) 0.448(3)
O4 O 0.75686(19) 0.31970(16) 0.7615(5)
O5 O 0.7456(2) 0.35122(19) 0.9476(5)
O6 O 0.6590(2) 0.32618(18) 0.9701(5)
C10 C 0.5410(3) 0.2769(2) 0.7017(8)
H10 H 0.5688 0.2690 0.6717
O7 O 0.5483(2) 0.30779(16) 0.7538(5)
C11 C 0.5789(3) 0.3056(3) 0.8289(8)
H11 H 0.5793 0.3279 0.8647
C12 C 0.5675(3) 0.2782(3) 0.9053(8)
H12 H 0.5401 0.2847 0.9396
C13 C 0.5609(3) 0.2446(2) 0.8527(7)
H13 H 0.5881 0.2384 0.8169
C14 C 0.5255(3) 0.2503(2) 0.7765(7)
H14 H 0.4991 0.2590 0.8112
C15 C 0.5080(4) 0.2836(3) 0.6165(8)
H15 H 0.4833 0.2967 0.6434
H16 H 0.4968 0.2616 0.5915
S2 S 0.5317(2) 0.30649(16) 0.5164(4)
C16 C 0.5010(7) 0.3239(7) 0.4274(16)
H17 H 0.4867 0.3059 0.3874
H18 H 0.4785 0.3385 0.4574
C17 C 0.5320(8) 0.3457(5) 0.3596(16)
H19 H 0.5194 0.3688 0.3523
H20 H 0.5600 0.3481 0.3943
C18 C 0.5406(16) 0.3308(9) 0.252(2)
O8 O 0.5341(17) 0.3492(11) 0.176(2)
O9 O 0.5499(14) 0.2968(8) 0.240(3)
O10 O 0.6203(2) 0.30010(15) 0.7912(5)
O11 O 0.6012(2) 0.27559(19) 0.9782(5)
H21 H 0.6074 0.2951 0.9992
O12 O 0.5498(2) 0.21779(16) 0.9202(5)
H22 H 0.5365 0.2259 0.9693
C19 C 0.4866(3) 0.1755(2) 0.5813(7)
H23 H 0.5178 0.1813 0.5912
O13 O 0.46099(19) 0.20182(15) 0.6245(5)
C20 C 0.4717(3) 0.2093(2) 0.7229(8)
H24 H 0.4535 0.2287 0.7471
C21 C 0.4633(3) 0.1782(2) 0.7870(8)
H25 H 0.4315 0.1737 0.7861
C22 C 0.4854(3) 0.1471(2) 0.7480(7)
H26 H 0.5172 0.1498 0.7580
C23 C 0.4768(3) 0.1430(2) 0.6373(8)
H27 H 0.4458 0.1365 0.6266
C24 C 0.4773(3) 0.1753(3) 0.4724(8)
H28 H 0.4469 0.1684 0.4602
H29 H 0.4965 0.1590 0.4378
S3 S 0.48670(8) 0.21854(6) 0.42659(19)
C25 C 0.5003(3) 0.2133(3) 0.2942(8)
H30 H 0.5262 0.1988 0.2861
H31 H 0.4760 0.2029 0.2572
C26 C 0.5088(4) 0.2488(3) 0.2576(8)
H32 H 0.5289 0.2605 0.3039
H33 H 0.4814 0.2619 0.2561
C27 C 0.5284(4) 0.2479(3) 0.1535(9)
O14 O 0.5602(3) 0.2672(3) 0.1419(6)
O15 O 0.5117(3) 0.2303(2) 0.0892(6)
O16 O 0.51560(18) 0.21831(15) 0.7297(5)
O17 O 0.47559(19) 0.18419(16) 0.8875(5)
O18 O 0.4718(3) 0.11693(17) 0.7973(6)
H34 H 0.4621 0.1031 0.7551
C28 C 0.5504(3) 0.0850(3) 0.4424(8)
H35 H 0.5646 0.1045 0.4773
O19 O 0.5041(2) 0.08923(16) 0.4472(5)
C29 C 0.4856(3) 0.0888(2) 0.5459(8)
H36 H 0.4535 0.0917 0.5424
C30 C 0.4969(4) 0.0566(3) 0.6007(9)
H37 H 0.4836 0.0374 0.5621
C31 C 0.5446(3) 0.0508(3) 0.5991(9)
H38 H 0.5586 0.0693 0.6391
C32 C 0.5622(3) 0.0523(3) 0.4952(9)
H39 H 0.5502 0.0327 0.4563
C33 C 0.5630(4) 0.0853(3) 0.3374(9)
H40 H 0.5454 0.0680 0.3022
H41 H 0.5935 0.0778 0.3334
S4 S 0.55830(9) 0.12505(7) 0.2696(2)
C34 C 0.5038(4) 0.1212(3) 0.2150(9)
H42 H 0.4960 0.0968 0.2085
H43 H 0.4824 0.1323 0.2593
C35 C 0.5031(3) 0.1381(3) 0.1127(8)
H44 H 0.5113 0.1623 0.1194
H45 H 0.5245 0.1269 0.0686
C36 C 0.4599(4) 0.1355(3) 0.0678(9)
O20 O 0.4325(2) 0.15776(18) 0.0912(5)
O21 O 0.4507(3) 0.1130(2) 0.0055(7)
O22 O 0.5046(2) 0.11586(16) 0.6013(5)
O23 O 0.4782(2) 0.05555(17) 0.6975(6)
O24 O 0.5530(2) 0.01911(17) 0.6473(6)
C37 C 0.6864(4) 0.0528(3) 0.3885(9)
H46 H 0.6752 0.0737 0.4224
O25 O 0.6502(2) 0.03067(17) 0.3686(6)
C38 C 0.6266(4) 0.0202(3) 0.4539(10)
H47 H 0.6034 0.0041 0.4325
C39 C 0.6559(4) 0.0021(3) 0.5303(10)
H48 H 0.6672 -0.0191 0.4982
C40 C 0.6939(4) 0.0247(3) 0.5528(10)
H49 H 0.6831 0.0457 0.5870
C41 C 0.7172(3) 0.0351(2) 0.4602(9)
H50 H 0.7289 0.0143 0.4269
C42 C 0.7050(4) 0.0633(3) 0.2914(9)
H51 H 0.7319 0.0763 0.3033
H52 H 0.6843 0.0786 0.2570
S5 S 0.71668(19) 0.02725(13) 0.2119(4)
C43 C 0.7527(6) 0.0443(8) 0.1240(17)
H53 H 0.7525 0.0304 0.0623
H54 H 0.7444 0.0679 0.1068
C44 C 0.7983(7) 0.0436(10) 0.173(2)
H55 H 0.7957 0.0359 0.2436
H56 H 0.8106 0.0669 0.1737
C45 C 0.8293(8) 0.0189(11) 0.115(3)
O26 O 0.8683(7) 0.0243(9) 0.132(2)
O27 O 0.8125(8) 0.0058(10) 0.029(2)
O28 O 0.6074(2) 0.04834(16) 0.5018(6)
O29 O 0.6331(3) -0.00742(18) 0.6146(7)
H57 H 0.6207 -0.0261 0.6043
O30 O 0.7219(3) 0.0063(2) 0.6216(7)
C46 C 0.8133(4) 0.1077(3) 0.4325(9)
H58 H 0.7850 0.1155 0.4603
O31 O 0.8075(2) 0.07608(18) 0.3847(6)
C47 C 0.7934(3) 0.0485(3) 0.4478(9)
H59 H 0.7918 0.0270 0.4082
C48 C 0.8250(4) 0.0443(3) 0.5328(10)
H60 H 0.8532 0.0363 0.5048
C49 C 0.8324(4) 0.0771(3) 0.5874(9)
H61 H 0.8050 0.0840 0.6214
C50 C 0.8453(3) 0.1042(3) 0.5169(8)
H62 H 0.8740 0.0980 0.4878
C51 C 0.8277(3) 0.1327(3) 0.3529(8)
H63 H 0.8518 0.1227 0.3141
H64 H 0.8383 0.1539 0.3849
S6 S 0.78352(10) 0.14288(11) 0.2698(3)
C52 C 0.8086(5) 0.1599(3) 0.1627(8)
H65 H 0.7888 0.1767 0.1319
H66 H 0.8351 0.1721 0.1834
C53 C 0.8207(5) 0.1333(4) 0.0845(9)
H67 H 0.7950 0.1190 0.0706
H68 H 0.8433 0.1182 0.1127
C54 C 0.8374(5) 0.1483(4) -0.0158(10)
O32 O 0.8426(3) 0.1281(3) -0.0866(7)
O33 O 0.8415(4) 0.1817(3) -0.0231(7)
O34 O 0.7523(2) 0.05671(16) 0.4854(6)
O35 O 0.8088(3) 0.01815(18) 0.6019(7)
O36 O 0.8646(3) 0.07005(18) 0.6616(6)
C55 C 0.8735(3) 0.2048(3) 0.5428(8)
H69 H 0.8425 0.1983 0.5341
O37 O 0.9008(2) 0.17624(17) 0.5234(5)
C56 C 0.8919(3) 0.1483(3) 0.5869(8)
H70 H 0.9133 0.1299 0.5717
C57 C 0.8984(4) 0.1590(3) 0.6931(8)
H71 H 0.9294 0.1654 0.7015
C58 C 0.8720(4) 0.1886(3) 0.7219(8)
H72 H 0.8406 0.1827 0.7194
C59 C 0.8819(3) 0.2168(2) 0.6498(8)
H73 H 0.9127 0.2240 0.6570
C60 C 0.8858(4) 0.2331(3) 0.4691(8)
H74 H 0.9169 0.2386 0.4768
H75 H 0.8690 0.2539 0.4847
S7 S 0.87543(13) 0.22054(8) 0.3425(2)
C61 C 0.8587(4) 0.2620(3) 0.2936(9)
H76 H 0.8291 0.2674 0.3169
H77 H 0.8785 0.2799 0.3184
C62 C 0.8596(4) 0.2612(3) 0.1830(8)
H78 H 0.8381 0.2445 0.1587
H79 H 0.8885 0.2536 0.1604
C63 C 0.8498(3) 0.2964(3) 0.1378(8)
O38 O 0.8711(2) 0.30523(18) 0.0634(6)
O39 O 0.8200(2) 0.3122(2) 0.1763(6)
O40 O 0.8500(2) 0.13505(16) 0.5699(5)
O41 O 0.8901(3) 0.12849(18) 0.7551(6)
H80 H 0.8642 0.1225 0.7488
O42 O 0.8836(3) 0.20129(19) 0.8208(5)
H81 H 0.8774 0.1865 0.8640
C64 C 0.8068(3) 0.3041(3) 0.6301(8)
H82 H 0.7921 0.2814 0.6289
O43 O 0.8512(2) 0.29925(16) 0.6069(5)
C65 C 0.8737(3) 0.2772(2) 0.6743(8)
H83 H 0.9045 0.2750 0.6529
C66 C 0.8718(3) 0.2914(3) 0.7801(8)
H84 H 0.8866 0.3141 0.7801
C67 C 0.8243(3) 0.2971(3) 0.8112(8)
H85 H 0.8092 0.2747 0.8169
C68 C 0.8018(3) 0.3192(3) 0.7332(8)
H86 H 0.8139 0.3429 0.7346
C69 C 0.7883(4) 0.3258(3) 0.5474(9)
H87 H 0.7568 0.3283 0.5587
H88 H 0.7922 0.3137 0.4833
S8 S 0.81144(11) 0.36752(7) 0.5359(3)
C70 C 0.8576(4) 0.3588(3) 0.4562(9)
H89 H 0.8834 0.3702 0.4843
H90 H 0.8632 0.3339 0.4560
C71 C 0.8513(4) 0.3704(3) 0.3521(9)
H91 H 0.8235 0.3614 0.3266
H92 H 0.8747 0.3611 0.3098
C72 C 0.8511(5) 0.4097(3) 0.3435(10)
O44 O 0.8303(4) 0.4218(2) 0.2689(7)
O45 O 0.8701(3) 0.4266(2) 0.4078(7)
O46 O 0.8538(2) 0.24483(15) 0.6738(5)
O47 O 0.8940(2) 0.27000(17) 0.8466(5)
O48 O 0.8219(2) 0.31489(17) 0.9041(5)
C73 C 0.6156(4) 0.0879(4) 0.8264(10)
H93 H 0.6202 0.0637 0.8088
H94 H 0.6109 0.1008 0.7637
C74 C 0.5761(4) 0.0911(4) 0.8919(11)
H95 H 0.5716 0.1153 0.9101
H96 H 0.5503 0.0832 0.8546
O49 O 0.5810(3) 0.0709(2) 0.9819(7)
C75 C 0.6186(4) 0.0843(4) 1.0358(11)
H97 H 0.6236 0.0707 1.0970
H98 H 0.6131 0.1082 1.0559
C76 C 0.6577(4) 0.0827(4) 0.9697(11)
H99 H 0.6827 0.0918 1.0071
H100 H 0.6638 0.0585 0.9544
N1 N 0.6539(3) 0.1011(3) 0.8772(8)
C77 C 0.6924(4) 0.0994(4) 0.8145(10)
H101 H 0.6999 0.0747 0.8079
C78 C 0.6880(4) 0.1131(3) 0.7092(10)
H102 H 0.6609 0.1040 0.6806
H103 H 0.7121 0.1038 0.6689
C79 C 0.6878(4) 0.1523(3) 0.6965(9)
C80 C 0.7271(4) 0.1670(3) 0.7472(10)
H104 H 0.7525 0.1568 0.7122
C81 C 0.7297(5) 0.1539(4) 0.8577(10)
H105 H 0.7559 0.1636 0.8891
H106 H 0.7043 0.1627 0.8947
C82 C 0.7310(4) 0.1164(4) 0.8689(11)
C83 C 0.6449(4) 0.1664(3) 0.7383(9)
H107 H 0.6206 0.1546 0.7065
H108 H 0.6430 0.1909 0.7241
H109 H 0.6438 0.1627 0.8106
O50 O 0.7696(3) 0.1019(3) 0.8223(8)
H110 H 0.7805 0.0872 0.8606
C84 C 0.6918(4) 0.1600(3) 0.5817(9)
H111 H 0.7194 0.1491 0.5597
C85 C 0.6976(4) 0.1990(3) 0.5621(9)
H112 H 0.6704 0.2109 0.5820
C86 C 0.7351(4) 0.2136(4) 0.6234(10)
H113 H 0.7355 0.2387 0.6152
H114 H 0.7626 0.2045 0.5969
C87 C 0.7319(4) 0.2051(4) 0.7350(10)
H115 H 0.7583 0.2130 0.7699
H116 H 0.7067 0.2169 0.7647
C88 C 0.6569(4) 0.1455(3) 0.5145(9)
H117 H 0.6287 0.1552 0.5349
H118 H 0.6555 0.1205 0.5244
C89 C 0.6639(4) 0.1528(3) 0.4042(9)
H119 H 0.6392 0.1439 0.3651
H120 H 0.6905 0.1412 0.3810
C90 C 0.6682(4) 0.1911(3) 0.3873(10)
C91 C 0.7043(4) 0.2038(3) 0.4500(9)
H121 H 0.7300 0.1896 0.4321
C92 C 0.6239(3) 0.2089(3) 0.4081(10)
H122 H 0.6013 0.1982 0.3674
H123 H 0.6260 0.2331 0.3910
H124 H 0.6165 0.2065 0.4789
C93 C 0.6840(3) 0.1998(3) 0.2829(9)
H125 H 0.7050 0.1819 0.2619
C94 C 0.7099(4) 0.2350(3) 0.2947(10)
H126 H 0.7399 0.2299 0.2709
C95 C 0.7144(4) 0.2412(3) 0.4087(9)
H127 H 0.6931 0.2581 0.4331
H128 H 0.7439 0.2487 0.4268
O51 O 0.6523(2) 0.2024(2) 0.2091(6)
C96 C 0.6533(4) 0.1770(3) 0.1364(10)
O52 O 0.6783(3) 0.1544(3) 0.1361(8)
C97 C 0.6180(4) 0.1838(3) 0.0607(11)
H129 H 0.6173 0.1653 0.0117
H130 H 0.6238 0.2054 0.0266
H131 H 0.5900 0.1852 0.0949
N2 N 0.6961(3) 0.2653(3) 0.2376(8)
C98 C 0.6521(4) 0.2799(3) 0.2585(10)
H132 H 0.6461 0.2793 0.3310
H133 H 0.6297 0.2664 0.2237
C99 C 0.6522(5) 0.3163(4) 0.2208(11)
H134 H 0.6365 0.3316 0.2671
H135 H 0.6390 0.3179 0.1536
C100 C 0.7039(5) 0.3252(4) 0.2176(12)
H136 H 0.7131 0.3303 0.1484
H137 H 0.7102 0.3453 0.2600
C101 C 0.7267(4) 0.2952(4) 0.2553(11)
H138 H 0.7331 0.2977 0.3273
H139 H 0.7542 0.2918 0.2188
C102 C 0.6969(4) 0.2591(4) 0.1233(10)
H140 H 0.6990 0.2815 0.0895
H141 H 0.6690 0.2488 0.1035
C103 C 0.7342(5) 0.2358(5) 0.0837(12)
H142 H 0.7349 0.2128 0.1053
C104 C 0.7616(5) 0.2452(5) 0.0281(12)
H143 H 0.7618 0.2682 0.0052
H144 H 0.7835 0.2299 0.0067
O53 O 0.8053(7) 0.4651(6) 1.078(2)
C105 C 0.8279(8) 0.4791(10) 1.017(2)
N3 N 0.8725(6) 0.4781(5) 1.0194(14)
C106 C 0.8976(7) 0.4874(6) 0.9339(18)
C107 C 0.8965(9) 0.4697(8) 1.111(2)
O54 O 0.3454(8) 0.1026(5) 0.1347(17)
C108 C 0.3702(8) 0.0996(6) 0.2000(18)
N4 N 0.3757(11) 0.0734(7) 0.2647(19)
C109 C 0.4039(11) 0.0725(9) 0.347(2)
C110 C 0.349(5) 0.042(3) 0.254(10)
O55 O 0.4426(3) 0.2680(2) -0.0468(7)
C111 C 0.4499(5) 0.2919(4) 0.0022(11)
N5 N 0.4519(4) 0.3243(3) -0.0368(10)
C112 C 0.4553(10) 0.3545(6) 0.024(2)
C113 C 0.4447(6) 0.3317(5) -0.1412(14)
O56 O 0.7392(6) 0.4379(5) 0.8831(14)
C114 C 0.7093(16) 0.447(2) 0.834(3)
N6 N 0.6974(10) 0.4428(9) 0.736(2)
C115 C 0.7274(12) 0.4412(10) 0.656(3)
C116 C 0.6565(14) 0.4584(17) 0.699(4)
Na1 Na 0.43710(12) 0.21268(10) 0.0195(3)
Na2 Na 0.5000 0.0000 0.7549(5)
Na3 Na 0.37081(14) 0.13718(11) 0.0061(4)
Na4 Na 0.7713(3) 0.4059(2) 1.0061(7)
Na5 Na 0.7076(4) -0.0292(3) -0.2467(11)
Na6 Na 0.5013(3) 0.0553(2) 0.0449(8)
Na7 Na 0.8472(4) 0.0197(3) 0.7524(9)
O57 O 0.8508(12) -0.0235(9) -0.153(3)
O58 O 0.7598(14) -0.0700(11) -0.218(4)
O59 O 0.406(3) 0.124(2) -0.147(7)
O60 O 0.5000 0.0000 0.1924(19)
O61 O 0.6648(7) 0.3888(6) 1.0729(18)
O62 O 0.7770(8) 0.0313(6) -0.1816(19)
O63 O 0.5000 0.0000 0.9170(12)
O64 O 0.3181(3) 0.1214(2) -0.1123(7)
O65 O 0.8731(7) 0.0576(5) 0.9076(17)
O66 O 0.9067(15) -0.0004(13) 0.681(4)
C117? C 0.6413(9) 0.4095(9) 0.3258(18)
O67? O 0.6762(11) 0.4075(11) 0.277(2)
O68? O 0.6040(10) 0.4204(9) 0.281(2)
C118? C 0.5320(8) 0.3457(5) 0.3596(16)
H145? H 0.5398 0.3325 0.2992
H146? H 0.5588 0.3509 0.3965
C119? C 0.5089(18) 0.3801(9) 0.328(3)
O69? O 0.4911(16) 0.3979(11) 0.394(3)
O70? O 0.5044(15) 0.3867(10) 0.228(3)
O71? O 0.3334(8) 0.0974(5) 0.1065(16)
C120? C 0.3317(8) 0.0791(7) 0.1797(17)
N7? N 0.3585(7) 0.0797(5) 0.2609(12)
C121? C 0.3544(12) 0.0570(9) 0.344(2)
C122? C 0.3959(8) 0.1025(7) 0.267(2)
Na8? Na 0.7761(13) -0.0161(10) -0.104(3)
loop_
_geom_bond_atom_site_label_1
_geom_bond_atom_site_label_2
_geom_bond_site_symmetry_1
_geom_bond_site_symmetry_2
C1 H1 1_555 1_555
O1 C1 1_555 1_555
C2 O1 1_555 1_555
H2 C2 1_555 1_555
C3 C2 1_555 1_555
H3 C3 1_555 1_555
C4 C3 1_555 1_555
H4 C4 1_555 1_555
C5 C1 1_555 1_555
H5 C5 1_555 1_555
C6 C1 1_555 1_555
H6 C6 1_555 1_555
H7 C6 1_555 1_555
S1 C6 1_555 1_555
C7 S1 1_555 1_555
H8 C7 1_555 1_555
H9 C7 1_555 1_555
C8 C7 1_555 1_555
C9 C8 1_555 1_555
O2 C9 1_555 1_555
O3 C9 1_555 1_555
O4 C2 1_555 1_555
O5 C3 1_555 1_555
O6 C4 1_555 1_555
C10 H10 1_555 1_555
O7 C10 1_555 1_555
C11 O7 1_555 1_555
H11 C11 1_555 1_555
C12 C11 1_555 1_555
H12 C12 1_555 1_555
C13 C12 1_555 1_555
H13 C13 1_555 1_555
C14 C10 1_555 1_555
H14 C14 1_555 1_555
C15 C10 1_555 1_555
H15 C15 1_555 1_555
H16 C15 1_555 1_555
S2 C15 1_555 1_555
C16 S2 1_555 1_555
H17 C16 1_555 1_555
H18 C16 1_555 1_555
C17 C16 1_555 1_555
H19 C17 1_555 1_555
H20 C17 1_555 1_555
C18 C17 1_555 1_555
O8 C18 1_555 1_555
O9 C18 1_555 1_555
O10 C5 1_555 1_555
O11 C12 1_555 1_555
H21 O11 1_555 1_555
O12 C13 1_555 1_555
H22 O12 1_555 1_555
C19 H23 1_555 1_555
O13 C19 1_555 1_555
C20 O13 1_555 1_555
H24 C20 1_555 1_555
C21 C20 1_555 1_555
H25 C21 1_555 1_555
C22 C21 1_555 1_555
H26 C22 1_555 1_555
C23 C19 1_555 1_555
H27 C23 1_555 1_555
C24 C19 1_555 1_555
H28 C24 1_555 1_555
H29 C24 1_555 1_555
S3 C24 1_555 1_555
C25 S3 1_555 1_555
H30 C25 1_555 1_555
H31 C25 1_555 1_555
C26 C25 1_555 1_555
H32 C26 1_555 1_555
H33 C26 1_555 1_555
C27 C26 1_555 1_555
O14 C27 1_555 1_555
O15 C27 1_555 1_555
O16 C14 1_555 1_555
O17 C21 1_555 1_555
O18 C22 1_555 1_555
H34 O18 1_555 1_555
C28 H35 1_555 1_555
O19 C28 1_555 1_555
C29 O19 1_555 1_555
H36 C29 1_555 1_555
C30 C29 1_555 1_555
H37 C30 1_555 1_555
C31 C30 1_555 1_555
H38 C31 1_555 1_555
C32 C28 1_555 1_555
H39 C32 1_555 1_555
C33 C28 1_555 1_555
H40 C33 1_555 1_555
H41 C33 1_555 1_555
S4 C33 1_555 1_555
C34 S4 1_555 1_555
H42 C34 1_555 1_555
H43 C34 1_555 1_555
C35 C34 1_555 1_555
H44 C35 1_555 1_555
H45 C35 1_555 1_555
C36 C35 1_555 1_555
O20 C36 1_555 1_555
O21 C36 1_555 1_555
O22 C23 1_555 1_555
O23 C30 1_555 1_555
O24 C31 1_555 1_555
C37 H46 1_555 1_555
O25 C37 1_555 1_555
C38 O25 1_555 1_555
H47 C38 1_555 1_555
C39 C38 1_555 1_555
H48 C39 1_555 1_555
C40 C39 1_555 1_555
H49 C40 1_555 1_555
C41 C37 1_555 1_555
H50 C41 1_555 1_555
C42 C37 1_555 1_555
H51 C42 1_555 1_555
H52 C42 1_555 1_555
S5 C42 1_555 1_555
C43 S5 1_555 1_555
H53 C43 1_555 1_555
H54 C43 1_555 1_555
C44 C43 1_555 1_555
H55 C44 1_555 1_555
H56 C44 1_555 1_555
C45 C44 1_555 1_555
O26 C45 1_555 1_555
O27 C45 1_555 1_555
O28 C32 1_555 1_555
O29 C39 1_555 1_555
H57 O29 1_555 1_555
O30 C40 1_555 1_555
C46 H58 1_555 1_555
O31 C46 1_555 1_555
C47 O31 1_555 1_555
H59 C47 1_555 1_555
C48 C47 1_555 1_555
H60 C48 1_555 1_555
C49 C48 1_555 1_555
H61 C49 1_555 1_555
C50 C46 1_555 1_555
H62 C50 1_555 1_555
C51 C46 1_555 1_555
H63 C51 1_555 1_555
H64 C51 1_555 1_555
S6 C51 1_555 1_555
C52 S6 1_555 1_555
H65 C52 1_555 1_555
H66 C52 1_555 1_555
C53 C52 1_555 1_555
H67 C53 1_555 1_555
H68 C53 1_555 1_555
C54 C53 1_555 1_555
O32 C54 1_555 1_555
O33 C54 1_555 1_555
O34 C41 1_555 1_555
O35 C48 1_555 1_555
O36 C49 1_555 1_555
C55 H69 1_555 1_555
O37 C55 1_555 1_555
C56 O37 1_555 1_555
H70 C56 1_555 1_555
C57 C56 1_555 1_555
H71 C57 1_555 1_555
C58 C57 1_555 1_555
H72 C58 1_555 1_555
C59 C55 1_555 1_555
H73 C59 1_555 1_555
C60 C55 1_555 1_555
H74 C60 1_555 1_555
H75 C60 1_555 1_555
S7 C60 1_555 1_555
C61 S7 1_555 1_555
H76 C61 1_555 1_555
H77 C61 1_555 1_555
C62 C61 1_555 1_555
H78 C62 1_555 1_555
H79 C62 1_555 1_555
C63 C62 1_555 1_555
O38 C63 1_555 1_555
O39 C63 1_555 1_555
O40 C50 1_555 1_555
O41 C57 1_555 1_555
H80 O41 1_555 1_555
O42 C58 1_555 1_555
H81 O42 1_555 1_555
C64 H82 1_555 1_555
O43 C64 1_555 1_555
C65 O43 1_555 1_555
H83 C65 1_555 1_555
C66 C65 1_555 1_555
H84 C66 1_555 1_555
C67 C66 1_555 1_555
H85 C67 1_555 1_555
C68 O4 1_555 1_555
H86 C68 1_555 1_555
C69 C64 1_555 1_555
H87 C69 1_555 1_555
H88 C69 1_555 1_555
S8 C69 1_555 1_555
C70 S8 1_555 1_555
H89 C70 1_555 1_555
H90 C70 1_555 1_555
C71 C70 1_555 1_555
H91 C71 1_555 1_555
H92 C71 1_555 1_555
C72 C71 1_555 1_555
O44 C72 1_555 1_555
O45 C72 1_555 1_555
O46 C59 1_555 1_555
O47 C66 1_555 1_555
O48 C67 1_555 1_555
C73 H93 1_555 1_555
H94 C73 1_555 1_555
C74 C73 1_555 1_555
H95 C74 1_555 1_555
H96 C74 1_555 1_555
O49 C74 1_555 1_555
C75 O49 1_555 1_555
H97 C75 1_555 1_555
H98 C75 1_555 1_555
C76 C75 1_555 1_555
H99 C76 1_555 1_555
H100 C76 1_555 1_555
N1 C73 1_555 1_555
C77 N1 1_555 1_555
H101 C77 1_555 1_555
C78 C77 1_555 1_555
H102 C78 1_555 1_555
H103 C78 1_555 1_555
C79 C78 1_555 1_555
C80 C79 1_555 1_555
H104 C80 1_555 1_555
C81 C80 1_555 1_555
H105 C81 1_555 1_555
H106 C81 1_555 1_555
C82 C77 1_555 1_555
C83 C79 1_555 1_555
H107 C83 1_555 1_555
H108 C83 1_555 1_555
H109 C83 1_555 1_555
O50 C82 1_555 1_555
H110 O50 1_555 1_555
C84 C79 1_555 1_555
H111 C84 1_555 1_555
C85 C84 1_555 1_555
H112 C85 1_555 1_555
C86 C85 1_555 1_555
H113 C86 1_555 1_555
H114 C86 1_555 1_555
C87 C80 1_555 1_555
H115 C87 1_555 1_555
H116 C87 1_555 1_555
C88 C84 1_555 1_555
H117 C88 1_555 1_555
H118 C88 1_555 1_555
C89 C88 1_555 1_555
H119 C89 1_555 1_555
H120 C89 1_555 1_555
C90 C89 1_555 1_555
C91 C85 1_555 1_555
H121 C91 1_555 1_555
C92 C90 1_555 1_555
H122 C92 1_555 1_555
H123 C92 1_555 1_555
H124 C92 1_555 1_555
C93 C90 1_555 1_555
H125 C93 1_555 1_555
C94 C93 1_555 1_555
H126 C94 1_555 1_555
C95 C91 1_555 1_555
H127 C95 1_555 1_555
H128 C95 1_555 1_555
O51 C93 1_555 1_555
C96 O51 1_555 1_555
O52 C96 1_555 1_555
C97 C96 1_555 1_555
H129 C97 1_555 1_555
H130 C97 1_555 1_555
H131 C97 1_555 1_555
N2 C94 1_555 1_555
C98 N2 1_555 1_555
H132 C98 1_555 1_555
H133 C98 1_555 1_555
C99 C98 1_555 1_555
H134 C99 1_555 1_555
H135 C99 1_555 1_555
C100 C99 1_555 1_555
H136 C100 1_555 1_555
H137 C100 1_555 1_555
C101 N2 1_555 1_555
H138 C101 1_555 1_555
H139 C101 1_555 1_555
C102 N2 1_555 1_555
H140 C102 1_555 1_555
H141 C102 1_555 1_555
C103 C102 1_555 1_555
H142 C103 1_555 1_555
C104 C103 1_555 1_555
H143 C104 1_555 1_555
H144 C104 1_555 1_555
O53 C105 1_555 1_555
C105 N3 1_555 1_555
N3 C106 1_555 1_555
C107 N3 1_555 1_555
O54 C108 1_555 1_555
C108 N4 1_555 1_555
N4 C109 1_555 1_555
C110 N4 1_555 1_555
O55 C111 1_555 1_555
C111 N5 1_555 1_555
N5 C112 1_555 1_555
C113 N5 1_555 1_555
O56 C114 1_555 1_555
C114 N6 1_555 1_555
N6 C115 1_555 1_555
C116 N6 1_555 1_555
C4 C5 1_555 1_555
C11 O10 1_555 1_555
C13 C14 1_555 1_555
C20 O16 1_555 1_555
C22 C23 1_555 1_555
C29 O22 1_555 1_555
C31 C32 1_555 1_555
C38 O28 1_555 1_555
C40 C41 1_555 1_555
C47 O34 1_555 1_555
C49 C50 1_555 1_555
C56 O40 1_555 1_555
C58 C59 1_555 1_555
C64 C68 1_555 1_555
C65 O46 1_555 1_555
C67 C68 1_555 1_555
C76 N1 1_555 1_555
C81 C82 1_555 1_555
C86 C87 1_555 1_555
C90 C91 1_555 1_555
C94 C95 1_555 1_555
C100 C101 1_555 1_555

#END
