
#######################################################################
#
#                 Cambridge Crystallographic Data Centre
#                                CCDC 
#
#######################################################################
#
# If this CIF has been generated from an entry in the Cambridge 
# Structural Database, then it will include bibliographic, chemical, 
# crystal, experimental, refinement or atomic coordinate data resulting 
# from the CCDC's data processing and validation procedures.
#
#######################################################################

data_IDIVEX
_chemical_formula_moiety         'C15 H15 N1 O4'
_chemical_name_systematic        
'(1R,5R,6R)-Ethyl 3-benzyl-2,4-dioxo-3-azabicyclo(3.1.0)hexane-6-carboxylate'
_symmetry_cell_setting           monoclinic
_symmetry_space_group_name_H-M   'P 21/c'
_symmetry_Int_Tables_number      14
_space_group_name_Hall           '-P 2ybc'
loop_
_symmetry_equiv_pos_site_id
_symmetry_equiv_pos_as_xyz
1 x,y,z
2 -x,1/2+y,1/2-z
3 -x,-y,-z
4 x,1/2-y,1/2+z
_cell_length_a                   14.185(3)
_cell_length_b                   5.2973(11)
_cell_length_c                   18.661(4)
_cell_angle_alpha                90
_cell_angle_beta                 101.26(3)
_cell_angle_gamma                90
_cell_volume                     1375.24
_exptl_crystal_colour            white
_exptl_crystal_description       column
_chemical_melting_point          '378 K'
_cell_formula_units_Z            4
_exptl_crystal_recrystallization_method 'diethyl ether'
loop_
_atom_site_label
_atom_site_type_symbol
_atom_site_fract_x
_atom_site_fract_y
_atom_site_fract_z
N1 N 0.03687(10) 1.1291(2) 0.36964(7)
O1 O 0.00980(10) 0.7968(2) 0.44246(7)
O2 O 0.02310(10) 1.4962(2) 0.30280(6)
O3 O -0.32059(10) 1.2282(4) 0.31697(9)
C1 C 0.20874(14) 1.3033(4) 0.47246(10)
H1 H 0.1573 1.4155 0.4641
C2 C 0.28458(18) 1.3407(5) 0.53104(12)
H2 H 0.2840 1.4788 0.5617
C3 C 0.36006(19) 1.1756(6) 0.54385(15)
H3 H 0.4106 1.2013 0.5831
C4 C 0.36104(19) 0.9725(6) 0.49877(18)
H4 H 0.4123 0.8599 0.5074
C5 C 0.28680(16) 0.9347(4) 0.44111(14)
H5 H 0.2880 0.7954 0.4110
C6 C 0.21006(12) 1.0993(3) 0.42672(10)
C7 C 0.13247(13) 1.0537(4) 0.36073(9)
H6 H 0.1485 1.1451 0.3197
H7 H 0.1314 0.8753 0.3489
C8 C -0.01192(12) 1.3366(3) 0.33575(8)
C9 C -0.01883(13) 0.9816(3) 0.40698(8)
C10 C -0.11681(12) 1.0924(3) 0.39298(9)
H8 H -0.1562 1.0916 0.4307
C11 C -0.11222(13) 1.3197(3) 0.34641(9)
H9 H -0.1487 1.4725 0.3528
C12 C -0.16284(12) 1.0850(3) 0.31219(9)
H10 H -0.1294 0.9862 0.2804
C13 C -0.26798(15) 1.0877(4) 0.29299(11)
O4 O -0.3032(3) 0.9645(16) 0.2359(4)
C14 C -0.4079(4) 0.958(3) 0.2127(6)
H11 H -0.4327 0.8258 0.2398
H12 H -0.4335 1.1171 0.2263
C15 C -0.4347(2) 0.9280(13) 0.15662(19)
H13 H -0.5036 0.9312 0.1473
H14 H -0.4132 0.7668 0.1426
H15 H -0.4115 1.0585 0.1288
O5? O -0.2937(2) 0.8539(13) 0.25371(19)
C16? C -0.3963(2) 0.8068(13) 0.23126(19)
H16? H -0.4109 0.6527 0.2550
H17? H -0.4300 0.9429 0.2504
C17? C -0.4332(2) 0.7851(13) 0.16094(19)
H18? H -0.5018 0.8008 0.1533
H19? H -0.4167 0.6231 0.1439
H20? H -0.4077 0.9157 0.1345
loop_
_geom_bond_atom_site_label_1
_geom_bond_atom_site_label_2
_geom_bond_site_symmetry_1
_geom_bond_site_symmetry_2
N1 C7 1_555 1_555
O1 C9 1_555 1_555
O2 C8 1_555 1_555
O3 C13 1_555 1_555
C1 H1 1_555 1_555
C2 C1 1_555 1_555
H2 C2 1_555 1_555
C3 C2 1_555 1_555
H3 C3 1_555 1_555
C4 C3 1_555 1_555
H4 C4 1_555 1_555
C5 C4 1_555 1_555
H5 C5 1_555 1_555
C6 C1 1_555 1_555
C7 C6 1_555 1_555
H6 C7 1_555 1_555
H7 C7 1_555 1_555
C8 N1 1_555 1_555
C9 N1 1_555 1_555
C10 C9 1_555 1_555
H8 C10 1_555 1_555
C11 C8 1_555 1_555
H9 C11 1_555 1_555
C12 C10 1_555 1_555
H10 C12 1_555 1_555
C13 C12 1_555 1_555
O4 C13 1_555 1_555
C14 O4 1_555 1_555
H11 C14 1_555 1_555
H12 C14 1_555 1_555
C15 C14 1_555 1_555
H13 C15 1_555 1_555
H14 C15 1_555 1_555
H15 C15 1_555 1_555
C5 C6 1_555 1_555
C10 C11 1_555 1_555
C11 C12 1_555 1_555

#END
