
#######################################################################
#
#                 Cambridge Crystallographic Data Centre
#                                CCDC 
#
#######################################################################
#
# If this CIF has been generated from an entry in the Cambridge 
# Structural Database, then it will include bibliographic, chemical, 
# crystal, experimental, refinement or atomic coordinate data resulting 
# from the CCDC's data processing and validation procedures.
#
#######################################################################

data_IDIWEY
_chemical_formula_moiety         'C12 H7 Br1 N2 O2 S1'
_chemical_name_systematic        N-(2-Bromothiazol-5-ylmethyl)phthalimide
_symmetry_cell_setting           triclinic
_symmetry_space_group_name_H-M   'P -1'
_symmetry_Int_Tables_number      2
_space_group_name_Hall           '-P 1'
loop_
_symmetry_equiv_pos_site_id
_symmetry_equiv_pos_as_xyz
1 x,y,z
2 -x,-y,-z
_cell_length_a                   7.3539(15)
_cell_length_b                   8.6315(17)
_cell_length_c                   9.794(2)
_cell_angle_alpha                108.16(3)
_cell_angle_beta                 93.79(3)
_cell_angle_gamma                96.41(3)
_cell_volume                     583.657
_exptl_crystal_colour            colorless
_exptl_crystal_description       block
_cell_formula_units_Z            2
_exptl_crystal_recrystallization_method methanol
loop_
_atom_site_label
_atom_site_type_symbol
_atom_site_fract_x
_atom_site_fract_y
_atom_site_fract_z
S1 S 0.94313(7) 0.43152(6) 0.23665(5)
Br1 Br 1.29782(3) 0.50119(3) 0.09808(2)
O1 O 0.5523(2) -0.13862(18) 0.14712(15)
O2 O 0.7628(2) 0.33948(17) 0.51216(15)
N1 N 0.6441(2) 0.1221(2) 0.30952(17)
N2 N 1.0169(3) 0.2322(2) -0.00235(18)
C1 C 0.6907(3) -0.2443(2) 0.4113(2)
H1 H 0.6440 -0.3410 0.3374
C2 C 0.7697(3) -0.2468(3) 0.5447(2)
H2 H 0.7763 -0.3472 0.5600
C3 C 0.8378(3) -0.1023(3) 0.6535(2)
H3 H 0.8908 -0.1077 0.7405
C4 C 0.8296(3) 0.0514(3) 0.6371(2)
H4 H 0.8745 0.1484 0.7111
C5 C 0.7512(3) 0.0524(2) 0.5049(2)
C6 C 0.6852(2) -0.0923(2) 0.3944(2)
C7 C 0.6168(3) -0.0498(2) 0.2658(2)
C8 C 0.7250(3) 0.1932(2) 0.4520(2)
C9 C 0.6123(3) 0.2170(3) 0.2121(2)
H5 H 0.5665 0.3176 0.2642
H6 H 0.5195 0.1536 0.1336
C10 C 0.7857(3) 0.2589(2) 0.1513(2)
C11 C 0.8500(3) 0.1702(3) 0.0292(2)
H7 H 0.7844 0.0714 -0.0310
C12 C 1.0777(3) 0.3684(2) 0.0982(2)
loop_
_geom_bond_atom_site_label_1
_geom_bond_atom_site_label_2
_geom_bond_site_symmetry_1
_geom_bond_site_symmetry_2
S1 C10 1_555 1_555
Br1 C12 1_555 1_555
O1 C7 1_555 1_555
O2 C8 1_555 1_555
N1 C7 1_555 1_555
N2 C11 1_555 1_555
C1 H1 1_555 1_555
C2 C1 1_555 1_555
H2 C2 1_555 1_555
C3 C2 1_555 1_555
H3 C3 1_555 1_555
C4 C3 1_555 1_555
H4 C4 1_555 1_555
C5 C4 1_555 1_555
C6 C1 1_555 1_555
C7 C6 1_555 1_555
C8 N1 1_555 1_555
C9 N1 1_555 1_555
H5 C9 1_555 1_555
H6 C9 1_555 1_555
C10 C9 1_555 1_555
C11 C10 1_555 1_555
H7 C11 1_555 1_555
C12 S1 1_555 1_555
N2 C12 1_555 1_555
C5 C6 1_555 1_555
C5 C8 1_555 1_555

#END
