
#######################################################################
#
#                 Cambridge Crystallographic Data Centre
#                                CCDC 
#
#######################################################################
#
# If this CIF has been generated from an entry in the Cambridge 
# Structural Database, then it will include bibliographic, chemical, 
# crystal, experimental, refinement or atomic coordinate data resulting 
# from the CCDC's data processing and validation procedures.
#
#######################################################################

data_IDIZIG
_chemical_formula_moiety         'C32 H22 N4,C2 H6 O1'
_chemical_name_systematic        
'N,N-Diphenyl-4-(1H-pyrrolo[1,2-phi][1,10]phenanthrolin-2-yl)aniline ethanol solvate'
_symmetry_cell_setting           monoclinic
_symmetry_space_group_name_H-M   'P 21/c'
_symmetry_Int_Tables_number      14
_space_group_name_Hall           '-P 2ybc'
loop_
_symmetry_equiv_pos_site_id
_symmetry_equiv_pos_as_xyz
1 x,y,z
2 -x,1/2+y,1/2-z
3 -x,-y,-z
4 x,1/2-y,1/2+z
_cell_length_a                   9.716(4)
_cell_length_b                   10.690(4)
_cell_length_c                   27.017(10)
_cell_angle_alpha                90
_cell_angle_beta                 92.317(4)
_cell_angle_gamma                90
_cell_volume                     2803.8
_exptl_crystal_colour            yellow
_exptl_crystal_description       block
_cell_formula_units_Z            4
loop_
_atom_site_label
_atom_site_type_symbol
_atom_site_fract_x
_atom_site_fract_y
_atom_site_fract_z
N1 N 0.4844(2) -0.1863(2) 0.29749(8)
N2 N 0.2262(2) -0.28229(19) 0.29875(7)
N3 N 0.3274(2) 0.04565(18) 0.14710(7)
N4 N 0.0133(2) 0.3171(2) -0.04486(8)
C1 C 0.6091(3) -0.1386(3) 0.29806(11)
C2 C 0.6544(3) -0.0539(3) 0.26334(12)
C3 C 0.5652(3) -0.0170(3) 0.22597(9)
C4 C 0.4309(2) -0.0651(2) 0.22369(8)
C5 C 0.3260(2) -0.0335(2) 0.18724(8)
C6 C 0.1942(2) -0.0808(2) 0.18772(8)
C7 C 0.1549(2) -0.1673(2) 0.22489(8)
C8 C 0.2546(2) -0.2019(2) 0.26137(8)
C9 C 0.3942(2) -0.1511(2) 0.26082(8)
C10 C 0.0223(3) -0.2189(3) 0.22706(10)
C11 C -0.0038(3) -0.3001(3) 0.26445(11)
C12 C 0.1002(3) -0.3279(3) 0.29922(10)
C13 C 0.11393(19) -0.03287(18) 0.14906(7)
C14 C 0.1974(2) 0.0425(2) 0.12546(8)
C15 C 0.1551(2) 0.1150(2) 0.08140(8)
C16 C 0.2373(3) 0.2055(3) 0.06061(10)
C17 C 0.1902(3) 0.2714(3) 0.01937(10)
C18 C 0.0619(3) 0.2493(2) -0.00245(9)
C19 C -0.0198(3) 0.1581(2) 0.01814(9)
C20 C 0.0266(2) 0.0926(2) 0.05941(9)
C21 C 0.10408(15) 0.33915(15) -0.08378(4)
C22 C 0.19694(16) 0.24825(19) -0.09791(7)
C23 C 0.28428(16) 0.2720(3) -0.13631(8)
C24 C 0.2788(2) 0.3867(3) -0.16057(7)
C25 C 0.1859(2) 0.4776(2) -0.14644(8)
C26 C 0.0986(2) 0.45382(15) -0.10804(7)
C27 C -0.12987(17) 0.34159(19) -0.05179(6)
C28 C -0.19577(14) 0.3242(2) -0.09755(8)
C29 C -0.3348(5) 0.3488(5) -0.10367(17)
C30 C -0.4097(5) 0.3866(5) -0.0651(2)
C31 C -0.3455(4) 0.4019(4) -0.01915(16)
C32 C -0.2059(4) 0.3818(3) -0.01277(12)
H1 H 0.67110 -0.16310 0.32340
H2 H 0.74390 -0.02300 0.26550
H3 H 0.59310 0.03960 0.20220
H4 H 0.404(3) 0.087(3) 0.1347(10)
H5 H -0.04630 -0.19810 0.20350
H6 H -0.09040 -0.33630 0.26660
H7 H 0.07980 -0.38260 0.32470
H8 H 0.32460 0.22180 0.07450
H9 H 0.24640 0.33210 0.00600
H10 H -0.10660 0.14110 0.00400
H11 H -0.02980 0.03200 0.07280
H12 H 0.20060 0.17150 -0.08170
H13 H 0.34640 0.21120 -0.14580
H14 H 0.33720 0.40260 -0.18630
H15 H 0.18220 0.55430 -0.16270
H16 H 0.03640 0.51460 -0.09860
H17 H -0.14650 0.29610 -0.12420
H18 H -0.37800 0.33920 -0.13480
H19 H -0.50350 0.40210 -0.06960
H20 H -0.39650 0.42580 0.00770
H21 H -0.16250 0.39550 0.01810
O1 O 0.55771(19) 0.1730(2) 0.11618(7)
C33 C 0.6124(4) 0.0588(5) 0.04600(15)
C34 C 0.6648(4) 0.1264(5) 0.08975(13)
H22 H 0.58880 0.21010 0.14080
H23 H 0.54660 -0.00260 0.05560
H24 H 0.68740 0.01800 0.03050
H25 H 0.56890 0.11660 0.02310
H26 H 0.72020 0.07050 0.11070
H27 H 0.72300 0.19470 0.07970
loop_
_geom_bond_atom_site_label_1
_geom_bond_atom_site_label_2
_geom_bond_site_symmetry_1
_geom_bond_site_symmetry_2
N1 C1 1_555 1_555
N2 C8 1_555 1_555
N3 C5 1_555 1_555
N4 C18 1_555 1_555
C1 C2 1_555 1_555
C2 C3 1_555 1_555
C3 C4 1_555 1_555
C4 C5 1_555 1_555
C5 C6 1_555 1_555
C6 C7 1_555 1_555
C7 C8 1_555 1_555
C8 C9 1_555 1_555
C9 N1 1_555 1_555
C10 C7 1_555 1_555
C11 C10 1_555 1_555
C12 N2 1_555 1_555
C13 C6 1_555 1_555
C14 N3 1_555 1_555
C15 C14 1_555 1_555
C16 C15 1_555 1_555
C17 C16 1_555 1_555
C18 C17 1_555 1_555
C19 C18 1_555 1_555
C20 C15 1_555 1_555
C21 N4 1_555 1_555
C22 C21 1_555 1_555
C23 C22 1_555 1_555
C24 C23 1_555 1_555
C25 C24 1_555 1_555
C26 C21 1_555 1_555
C27 N4 1_555 1_555
C28 C27 1_555 1_555
C29 C28 1_555 1_555
C30 C29 1_555 1_555
C31 C30 1_555 1_555
C32 C27 1_555 1_555
H1 C1 1_555 1_555
H2 C2 1_555 1_555
H3 C3 1_555 1_555
H4 N3 1_555 1_555
H5 C10 1_555 1_555
H6 C11 1_555 1_555
H7 C12 1_555 1_555
H8 C16 1_555 1_555
H9 C17 1_555 1_555
H10 C19 1_555 1_555
H11 C20 1_555 1_555
H12 C22 1_555 1_555
H13 C23 1_555 1_555
H14 C24 1_555 1_555
H15 C25 1_555 1_555
H16 C26 1_555 1_555
H17 C28 1_555 1_555
H18 C29 1_555 1_555
H19 C30 1_555 1_555
H20 C31 1_555 1_555
H21 C32 1_555 1_555
O1 C34 1_555 1_555
C33 C34 1_555 1_555
C34 H26 1_555 1_555
H22 O1 1_555 1_555
H23 C33 1_555 1_555
H24 C33 1_555 1_555
H25 C33 1_555 1_555
H27 C34 1_555 1_555
C4 C9 1_555 1_555
C11 C12 1_555 1_555
C13 C14 1_555 1_555
C19 C20 1_555 1_555
C25 C26 1_555 1_555
C31 C32 1_555 1_555

#END
