
#######################################################################
#
#                 Cambridge Crystallographic Data Centre
#                                CCDC 
#
#######################################################################
#
# If this CIF has been generated from an entry in the Cambridge 
# Structural Database, then it will include bibliographic, chemical, 
# crystal, experimental, refinement or atomic coordinate data resulting 
# from the CCDC's data processing and validation procedures.
#
#######################################################################

data_IDIZUS
_chemical_formula_moiety         'C23 H17 F1 O2'
_chemical_name_systematic        
4-(4-Fluorobenzoyl)-3-phenyl-3,4-dihydronaphthalen-1(2H)-one
_symmetry_cell_setting           monoclinic
_symmetry_space_group_name_H-M   'P 21/c'
_symmetry_Int_Tables_number      14
_space_group_name_Hall           '-P 2ybc'
loop_
_symmetry_equiv_pos_site_id
_symmetry_equiv_pos_as_xyz
1 x,y,z
2 -x,1/2+y,1/2-z
3 -x,-y,-z
4 x,1/2-y,1/2+z
_cell_length_a                   8.0063(6)
_cell_length_b                   10.6688(8)
_cell_length_c                   20.3796(15)
_cell_angle_alpha                90
_cell_angle_beta                 97.4580(10)
_cell_angle_gamma                90
_cell_volume                     1726.05
_exptl_crystal_colour            colorless
_exptl_crystal_description       block
_cell_formula_units_Z            4
_exptl_crystal_recrystallization_method 'ethyl acetate'
loop_
_atom_site_label
_atom_site_type_symbol
_atom_site_fract_x
_atom_site_fract_y
_atom_site_fract_z
C1 C 1.2122(2) 0.13272(15) 0.42049(7)
H1 H 1.1940 0.0940 0.4598
C2 C 1.3639(2) 0.18874(18) 0.41545(8)
H2 H 1.4479 0.1890 0.4515
C3 C 1.39238(19) 0.24486(16) 0.35687(8)
H3 H 1.4957 0.2826 0.3536
C4 C 1.26809(17) 0.24528(14) 0.30301(7)
H4 H 1.2892 0.2820 0.2635
C5 C 1.11203(16) 0.19136(12) 0.30728(6)
C6 C 1.08446(17) 0.13349(12) 0.36657(6)
C7 C 0.92053(19) 0.07364(12) 0.37339(6)
C8 C 0.78176(17) 0.08569(13) 0.31679(7)
H5 H 0.6749 0.0903 0.3343
H6 H 0.7800 0.0109 0.2896
C9 C 0.79881(15) 0.19977(12) 0.27346(6)
H7 H 0.7963 0.2734 0.3021
C10 C 0.97521(15) 0.19869(11) 0.24892(6)
H8 H 0.9888 0.2775 0.2255
C11 C 0.98542(16) 0.09084(11) 0.20047(6)
C12 C 0.92979(15) 0.11179(11) 0.12871(6)
C13 C 0.93535(19) 0.22788(13) 0.09884(7)
H9 H 0.9760 0.2966 0.1241
C14 C 0.8814(2) 0.24341(16) 0.03199(7)
H10 H 0.8879 0.3210 0.0117
C15 C 0.8189(2) 0.14184(17) -0.00295(7)
C16 C 0.8094(2) 0.02478(18) 0.02434(8)
H11 H 0.7648 -0.0426 -0.0011
C17 C 0.8681(2) 0.00996(14) 0.09066(7)
H12 H 0.8662 -0.0689 0.1100
C18 C 0.65496(16) 0.21523(12) 0.21773(6)
C19 C 0.62893(18) 0.33103(14) 0.18694(8)
H13 H 0.6977 0.3983 0.2016
C20 C 0.5021(2) 0.34751(17) 0.13476(8)
H14 H 0.4877 0.4252 0.1141
C21 C 0.3973(2) 0.24981(19) 0.11325(8)
H15 H 0.3120 0.2612 0.0782
C22 C 0.4193(2) 0.13585(18) 0.14369(9)
H16 H 0.3475 0.0698 0.1297
C23 C 0.54788(19) 0.11786(15) 0.19539(8)
H17 H 0.5624 0.0395 0.2153
F1 F 0.76491(16) 0.15640(12) -0.06863(5)
O1 O 0.89843(17) 0.01466(11) 0.42256(5)
O2 O 1.02932(15) -0.01260(9) 0.22076(5)
loop_
_geom_bond_atom_site_label_1
_geom_bond_atom_site_label_2
_geom_bond_site_symmetry_1
_geom_bond_site_symmetry_2
C1 H1 1_555 1_555
C2 C1 1_555 1_555
H2 C2 1_555 1_555
C3 C2 1_555 1_555
H3 C3 1_555 1_555
C4 C3 1_555 1_555
H4 C4 1_555 1_555
C5 C4 1_555 1_555
C6 C1 1_555 1_555
C7 C6 1_555 1_555
C8 C7 1_555 1_555
H5 C8 1_555 1_555
H6 C8 1_555 1_555
C9 C8 1_555 1_555
H7 C9 1_555 1_555
C10 C5 1_555 1_555
H8 C10 1_555 1_555
C11 C10 1_555 1_555
C12 C11 1_555 1_555
C13 C12 1_555 1_555
H9 C13 1_555 1_555
C14 C13 1_555 1_555
H10 C14 1_555 1_555
C15 C14 1_555 1_555
C16 C15 1_555 1_555
H11 C16 1_555 1_555
C17 C12 1_555 1_555
H12 C17 1_555 1_555
C18 C9 1_555 1_555
C19 C18 1_555 1_555
H13 C19 1_555 1_555
C20 C19 1_555 1_555
H14 C20 1_555 1_555
C21 C20 1_555 1_555
H15 C21 1_555 1_555
C22 C21 1_555 1_555
H16 C22 1_555 1_555
C23 C18 1_555 1_555
H17 C23 1_555 1_555
F1 C15 1_555 1_555
O1 C7 1_555 1_555
O2 C11 1_555 1_555
C5 C6 1_555 1_555
C9 C10 1_555 1_555
C16 C17 1_555 1_555
C22 C23 1_555 1_555

#END
