
#######################################################################
#
#                 Cambridge Crystallographic Data Centre
#                                CCDC 
#
#######################################################################
#
# If this CIF has been generated from an entry in the Cambridge 
# Structural Database, then it will include bibliographic, chemical, 
# crystal, experimental, refinement or atomic coordinate data resulting 
# from the CCDC's data processing and validation procedures.
#
#######################################################################

data_IDOBUZ
_chemical_formula_moiety         'C15 H15 Cl2 N1 O4'
_chemical_name_systematic        
3-(2,2-Dichloro-1-(4-ethoxyphenyl)cyclopropylcarbonyl)oxazolidin-2-one
_chemical_properties_biological  
'potential biological activity; cyclopropane derivative related to the insecticide cycloprothrin'
_symmetry_cell_setting           monoclinic
_symmetry_space_group_name_H-M   'P 21/c'
_symmetry_Int_Tables_number      14
_space_group_name_Hall           '-P 2ybc'
loop_
_symmetry_equiv_pos_site_id
_symmetry_equiv_pos_as_xyz
1 x,y,z
2 -x,1/2+y,1/2-z
3 -x,-y,-z
4 x,1/2-y,1/2+z
_cell_length_a                   10.131(4)
_cell_length_b                   15.345(8)
_cell_length_c                   10.505(4)
_cell_angle_alpha                90
_cell_angle_beta                 105.846(16)
_cell_angle_gamma                90
_cell_volume                     1571.05
_exptl_crystal_colour            colorless
_exptl_crystal_description       chunk
_chemical_melting_point          '428-430 K'
_cell_formula_units_Z            4
_exptl_crystal_recrystallization_method ethanol
loop_
_atom_site_label
_atom_site_type_symbol
_atom_site_fract_x
_atom_site_fract_y
_atom_site_fract_z
Cl1 Cl 0.23350(6) -0.03579(4) 0.29231(6)
Cl2 Cl 0.48355(6) 0.05429(4) 0.29066(6)
O1 O 0.20979(13) 0.06789(10) 0.53671(13)
O2 O -0.11496(16) 0.25781(11) 0.36991(18)
O3 O 0.06263(17) 0.27431(12) 0.2849(2)
O4 O 0.69686(12) 0.37293(9) 0.61830(12)
N1 N 0.05068(14) 0.15934(10) 0.42283(14)
C1 C 0.27287(18) 0.14195(12) 0.36444(18)
C2 C 0.3125(2) 0.06582(12) 0.2911(2)
C3 C 0.2279(2) 0.13606(13) 0.2152(2)
C4 C 0.17731(18) 0.11970(12) 0.44830(19)
C5 C -0.04418(19) 0.13247(13) 0.4985(2)
C6 C -0.1594(2) 0.1955(2) 0.4503(2)
C7 C 0.0061(2) 0.23437(14) 0.3514(2)
C8 C 0.38098(18) 0.20647(12) 0.43039(18)
C9 C 0.4717(2) 0.18726(12) 0.55224(19)
C10 C 0.5737(2) 0.24399(12) 0.61236(19)
C11 C 0.58968(19) 0.32202(12) 0.55235(19)
C12 C 0.4995(2) 0.34242(12) 0.4306(2)
C13 C 0.3960(2) 0.28533(12) 0.37279(19)
C14 C 0.7211(2) 0.45198(13) 0.5589(2)
C15 C 0.8399(2) 0.49670(19) 0.6481(2)
H1 H 0.1322 0.1254 0.1700
H2 H 0.2668 0.1754 0.1628
H3 H -0.0750 0.0730 0.4781
H4 H -0.0025 0.1380 0.5930
H5 H -0.1788 0.2248 0.5250
H6 H -0.2412 0.1656 0.3996
H7 H 0.4631 0.1347 0.5933
H8 H 0.6326 0.2302 0.6946
H9 H 0.5088 0.3947 0.3892
H10 H 0.3349 0.3000 0.2922
H11 H 0.7416 0.4396 0.4758
H12 H 0.6405 0.4890 0.5426
H13 H 0.8572 0.5505 0.6089
H14 H 0.8197 0.5085 0.7305
H15 H 0.9196 0.4601 0.6637
loop_
_geom_bond_atom_site_label_1
_geom_bond_atom_site_label_2
_geom_bond_site_symmetry_1
_geom_bond_site_symmetry_2
Cl1 C2 1_555 1_555
Cl2 C2 1_555 1_555
O1 C4 1_555 1_555
O2 C6 1_555 1_555
O3 C7 1_555 1_555
O4 C11 1_555 1_555
N1 C4 1_555 1_555
C1 C2 1_555 1_555
C2 C3 1_555 1_555
C3 C1 1_555 1_555
C4 C1 1_555 1_555
C5 N1 1_555 1_555
C6 C5 1_555 1_555
C7 O2 1_555 1_555
C8 C1 1_555 1_555
C9 C8 1_555 1_555
C10 C9 1_555 1_555
C11 C10 1_555 1_555
C12 C11 1_555 1_555
C13 C8 1_555 1_555
C14 O4 1_555 1_555
C15 C14 1_555 1_555
H1 C3 1_555 1_555
H2 C3 1_555 1_555
H3 C5 1_555 1_555
H4 C5 1_555 1_555
H5 C6 1_555 1_555
H6 C6 1_555 1_555
H7 C9 1_555 1_555
H8 C10 1_555 1_555
H9 C12 1_555 1_555
H10 C13 1_555 1_555
H11 C14 1_555 1_555
H12 C14 1_555 1_555
H13 C15 1_555 1_555
H14 C15 1_555 1_555
H15 C15 1_555 1_555
N1 C7 1_555 1_555
C12 C13 1_555 1_555

#END
