
#######################################################################
#
#                 Cambridge Crystallographic Data Centre
#                                CCDC 
#
#######################################################################
#
# If this CIF has been generated from an entry in the Cambridge 
# Structural Database, then it will include bibliographic, chemical, 
# crystal, experimental, refinement or atomic coordinate data resulting 
# from the CCDC's data processing and validation procedures.
#
#######################################################################

data_IDOCUA
_chemical_formula_moiety         'C34 H33 N1 O5,0.5(H2 O1)'
_chemical_name_systematic        
'7,8-Dihydro-7,7-dimethyl-5-p-tolyl-10-(3,4,5-trimethoxyphenyl)-5H-indeno(1,2-b)quinoline-9,11(6H,10H)-dione hemihydrate'
_symmetry_cell_setting           monoclinic
_symmetry_space_group_name_H-M   'C 2/c'
_symmetry_Int_Tables_number      15
_space_group_name_Hall           '-C 2yn'
loop_
_symmetry_equiv_pos_site_id
_symmetry_equiv_pos_as_xyz
1 x,y,z
2 1/2+x,1/2+y,z
3 -x,y,1/2-z
4 1/2-x,1/2+y,1/2-z
5 -x,-y,-z
6 1/2-x,1/2-y,-z
7 x,-y,1/2+z
8 1/2+x,1/2-y,1/2+z
_cell_length_a                   25.094(6)
_cell_length_b                   12.755(3)
_cell_length_c                   19.891(5)
_cell_angle_alpha                90
_cell_angle_beta                 103.926(4)
_cell_angle_gamma                90
_cell_volume                     6179.46
_exptl_crystal_colour            red
_exptl_crystal_description       block
_chemical_melting_point          '471-473 K'
_cell_formula_units_Z            8
_exptl_crystal_recrystallization_method '95% ethanol'
loop_
_atom_site_label
_atom_site_type_symbol
_atom_site_fract_x
_atom_site_fract_y
_atom_site_fract_z
N1 N 0.80371(13) 0.5195(3) 0.35946(16)
O1 O 0.61153(13) 0.5437(3) 0.33095(16)
O2 O 0.72996(12) 0.7576(3) 0.18020(15)
O3 O 0.71910(19) 0.3102(3) 0.08801(19)
O4 O 0.61106(17) 0.2947(3) 0.05068(18)
O5 O 0.54590(18) 0.4247(4) 0.1004(2)
C1 C 0.75220(17) 0.5035(3) 0.3699(2)
C2 C 0.73784(17) 0.4512(3) 0.43060(19)
C3 C 0.76821(19) 0.4018(4) 0.4890(2)
H3 H 0.8061 0.3951 0.4968
C4 C 0.7399(2) 0.3622(4) 0.5360(2)
H4 H 0.7598 0.3287 0.5756
C5 C 0.6847(2) 0.3704(4) 0.5265(2)
H5 H 0.6673 0.3440 0.5591
C6 C 0.6550(2) 0.4191(4) 0.4670(2)
H6 H 0.6170 0.4240 0.4588
C7 C 0.68140(17) 0.4599(3) 0.4207(2)
C8 C 0.65950(19) 0.5183(4) 0.3545(2)
C9 C 0.70627(16) 0.5402(3) 0.32543(19)
C10 C 0.70595(15) 0.5906(3) 0.25808(19)
H7 H 0.6823 0.6526 0.2534
C11 C 0.76404(16) 0.6276(3) 0.26144(19)
C12 C 0.77045(18) 0.7143(3) 0.2165(2)
C13 C 0.82681(16) 0.7531(3) 0.2176(2)
H8 H 0.8352 0.8117 0.2495
H9 H 0.8271 0.7790 0.1718
C14 C 0.87172(17) 0.6709(4) 0.2387(2)
C15 C 0.86603(16) 0.6208(4) 0.3067(2)
H10 H 0.8896 0.5596 0.3159
H11 H 0.8790 0.6703 0.3441
C16 C 0.80873(16) 0.5887(3) 0.30684(19)
C17 C 0.85150(16) 0.4813(4) 0.4101(2)
C18 C 0.87370(19) 0.5419(4) 0.4674(2)
H12 H 0.8596 0.6081 0.4725
C19 C 0.9173(2) 0.5022(5) 0.5170(2)
H13 H 0.9325 0.5430 0.5556
C20 C 0.9386(2) 0.4061(5) 0.5116(3)
C21 C 0.91634(19) 0.3479(4) 0.4535(3)
H14 H 0.9310 0.2822 0.4484
C22 C 0.87260(17) 0.3842(4) 0.4021(2)
H15 H 0.8580 0.3437 0.3631
C23 C 0.9854(2) 0.3631(6) 0.5680(3)
H16 H 0.9958 0.4142 0.6042
H17 H 1.0162 0.3478 0.5489
H18 H 0.9736 0.3001 0.5866
C24 C 0.68206(17) 0.5171(3) 0.1977(2)
C25 C 0.71465(19) 0.4507(4) 0.1701(2)
H19 H 0.7527 0.4537 0.1857
C26 C 0.6907(2) 0.3792(4) 0.1188(2)
C27 C 0.6344(2) 0.3732(4) 0.0966(2)
C28 C 0.6018(2) 0.4398(5) 0.1250(3)
C29 C 0.62586(18) 0.5123(4) 0.1736(2)
H20 H 0.6039 0.5592 0.1905
C30 C 0.7762(3) 0.3193(5) 0.1032(4)
H21 H 0.7909 0.2672 0.0778
H22 H 0.7910 0.3091 0.1519
H23 H 0.7860 0.3878 0.0902
C31 C 0.6057(18) 0.3174(16) -0.0213(10)
H24 H 0.5894 0.2584 -0.0487
H25 H 0.6413 0.3311 -0.0293
H26 H 0.5827 0.3778 -0.0341
C33 C 0.5112(3) 0.4824(7) 0.1355(4)
H30 H 0.4734 0.4668 0.1146
H31 H 0.5175 0.5562 0.1318
H32 H 0.5197 0.4626 0.1835
C34 C 0.86638(19) 0.5878(4) 0.1818(2)
H33 H 0.8310 0.5549 0.1740
H34 H 0.8946 0.5359 0.1959
H35 H 0.8702 0.6206 0.1397
C35 C 0.92793(18) 0.7216(4) 0.2511(3)
H36 H 0.9316 0.7735 0.2869
H37 H 0.9320 0.7545 0.2092
H38 H 0.9558 0.6691 0.2650
O6 O 1.0000 0.3007(10) 0.2500
H1 H 1.0087 0.3411 0.2204
H1B H 0.9913 0.3411 0.2796
O7? O 1.0000 0.448(3) 0.2500
H2? H 1.0025 0.4884 0.2169
C32? C 0.5779(19) 0.333(3) -0.0163(14)
H27? H 0.5632 0.2749 -0.0452
H28? H 0.6007 0.3746 -0.0386
H29? H 0.5484 0.3759 -0.0086
loop_
_geom_bond_atom_site_label_1
_geom_bond_atom_site_label_2
_geom_bond_site_symmetry_1
_geom_bond_site_symmetry_2
N1 C1 1_555 1_555
O1 C8 1_555 1_555
O2 C12 1_555 1_555
O3 C26 1_555 1_555
O4 C27 1_555 1_555
O5 C28 1_555 1_555
O6 H1 1_555 1_555
C1 C2 1_555 1_555
C2 C3 1_555 1_555
C3 H3 1_555 1_555
C4 C3 1_555 1_555
H4 C4 1_555 1_555
C5 C4 1_555 1_555
H5 C5 1_555 1_555
C6 C5 1_555 1_555
H6 C6 1_555 1_555
C7 C2 1_555 1_555
C8 C7 1_555 1_555
C9 C1 1_555 1_555
C10 C9 1_555 1_555
H7 C10 1_555 1_555
C11 C10 1_555 1_555
C12 C11 1_555 1_555
C13 C12 1_555 1_555
H8 C13 1_555 1_555
H9 C13 1_555 1_555
C14 C13 1_555 1_555
C15 C14 1_555 1_555
H10 C15 1_555 1_555
H11 C15 1_555 1_555
C16 N1 1_555 1_555
C17 N1 1_555 1_555
C18 C17 1_555 1_555
H12 C18 1_555 1_555
C19 C18 1_555 1_555
H13 C19 1_555 1_555
C20 C19 1_555 1_555
C21 C20 1_555 1_555
H14 C21 1_555 1_555
C22 C17 1_555 1_555
H15 C22 1_555 1_555
C23 C20 1_555 1_555
H16 C23 1_555 1_555
H17 C23 1_555 1_555
H18 C23 1_555 1_555
C24 C10 1_555 1_555
C25 C24 1_555 1_555
H19 C25 1_555 1_555
C26 C25 1_555 1_555
C27 C26 1_555 1_555
C28 C27 1_555 1_555
C29 C24 1_555 1_555
H20 C29 1_555 1_555
C30 O3 1_555 1_555
H21 C30 1_555 1_555
H22 C30 1_555 1_555
H23 C30 1_555 1_555
C31 O4 1_555 1_555
H24 C31 1_555 1_555
H25 C31 1_555 1_555
H26 C31 1_555 1_555
C33 O5 1_555 1_555
H30 C33 1_555 1_555
H31 C33 1_555 1_555
H32 C33 1_555 1_555
C34 C14 1_555 1_555
H33 C34 1_555 1_555
H34 C34 1_555 1_555
H35 C34 1_555 1_555
C35 C14 1_555 1_555
H36 C35 1_555 1_555
H37 C35 1_555 1_555
H38 C35 1_555 1_555
H1B O6 1_555 1_555
C6 C7 1_555 1_555
C8 C9 1_555 1_555
C11 C16 1_555 1_555
C15 C16 1_555 1_555
C21 C22 1_555 1_555
C28 C29 1_555 1_555

#END
