
#######################################################################
#
#                 Cambridge Crystallographic Data Centre
#                                CCDC 
#
#######################################################################
#
# If this CIF has been generated from an entry in the Cambridge 
# Structural Database, then it will include bibliographic, chemical, 
# crystal, experimental, refinement or atomic coordinate data resulting 
# from the CCDC's data processing and validation procedures.
#
#######################################################################

data_IDOFAJ
_chemical_compound_source        'roots of Zanthoxylum nitidum'
_chemical_name_common            8-Acetonyldihydronitidine
_chemical_formula_moiety         'C24 H23 N1 O5'
_chemical_name_systematic        
(RS)-13-Acetonyl-2,3-dimethoxy-12-methyl-12,13-dihydro-1,3-benzodioxolo(5,6-c)phenanthridine
_chemical_properties_biological  'antibacterial and antifungal activity'
_symmetry_cell_setting           monoclinic
_symmetry_space_group_name_H-M   'P 21/n'
_symmetry_Int_Tables_number      14
_space_group_name_Hall           '-P 2yn'
loop_
_symmetry_equiv_pos_site_id
_symmetry_equiv_pos_as_xyz
1 x,y,z
2 1/2-x,1/2+y,1/2-z
3 -x,-y,-z
4 1/2+x,1/2-y,1/2+z
_cell_length_a                   11.037(3)
_cell_length_b                   9.560(3)
_cell_length_c                   19.640(5)
_cell_angle_alpha                90
_cell_angle_beta                 93.54(2)
_cell_angle_gamma                90
_cell_volume                     2068.34
_exptl_crystal_colour            colorless
_exptl_crystal_description       prism
_chemical_melting_point          '438-440 K'
_cell_formula_units_Z            4
_exptl_crystal_recrystallization_method chloroform
loop_
_atom_site_label
_atom_site_type_symbol
_atom_site_fract_x
_atom_site_fract_y
_atom_site_fract_z
O1 O 0.99139(12) -0.03552(16) 0.08625(8)
O2 O 0.88969(14) -0.24542(15) 0.06793(8)
O3 O 0.24101(13) 0.71942(15) 0.16738(8)
O4 O 0.11721(11) 0.51546(15) 0.11098(7)
O5 O 0.83644(13) 0.26566(15) 0.25549(8)
N1 N 0.67718(12) 0.35889(14) 0.10856(7)
C1 C 0.42985(16) 0.59134(18) 0.16320(9)
H1 H 0.4742 0.6661 0.1820
C2 C 0.66236(16) 0.40563(19) 0.23037(9)
H2 H 0.6391 0.4761 0.2626
H3 H 0.6191 0.3202 0.2398
C3 C 0.30578(16) 0.60260(18) 0.15214(9)
C4 C 0.79710(17) 0.3795(2) 0.24022(9)
C5 C 0.23894(15) 0.49158(19) 0.12239(8)
C6 C 0.87930(17) 0.5004(2) 0.23138(10)
H4 H 0.8679 0.5682 0.2664
H5 H 0.8611 0.5422 0.1875
H6 H 0.9620 0.4688 0.2345
C7 C 0.42271(15) 0.35547(17) 0.11944(8)
C8 C 0.29721(15) 0.36966(18) 0.10656(8)
H7 H 0.2526 0.2958 0.0871
C9 C 0.48785(15) 0.22454(17) 0.10634(8)
C10 C 0.61296(15) 0.22871(17) 0.10260(8)
C11 C 0.48930(15) 0.46860(17) 0.14645(8)
C12 C 0.62546(14) 0.45448(17) 0.15801(8)
H8 H 0.6612 0.5471 0.1519
C13 C 0.42865(17) 0.09380(18) 0.09827(9)
H9 H 0.3451 0.0889 0.1017
C14 C 0.61861(16) -0.02323(18) 0.08235(8)
C15 C 0.49111(17) -0.02463(19) 0.08561(9)
H10 H 0.4492 -0.1084 0.0789
C16 C 0.68472(19) -0.1487(2) 0.07242(9)
H11 H 0.6453 -0.2340 0.0653
C17 C 0.80673(19) -0.1391(2) 0.07370(10)
C18 C 0.86786(17) -0.0131(2) 0.08445(9)
C19 C 0.68105(16) 0.10581(17) 0.09192(8)
C20 C 0.80971(16) 0.10982(19) 0.09308(9)
H12 H 0.8522 0.1932 0.0995
C21 C 1.0052(2) -0.1812(3) 0.07625(15)
H13 H 1.0500 -0.1976 0.0361
H14 H 1.0507 -0.2216 0.1152
C22 C 0.68845(17) 0.4232(2) 0.04164(9)
H15 H 0.7261 0.3583 0.0122
H16 H 0.7374 0.5061 0.0466
H17 H 0.6093 0.4475 0.0222
C23 C 0.2828(3) 0.8056(3) 0.21907(14)
H18 H 0.3018 0.7513 0.2594
H19 H 0.2215 0.8732 0.2281
H20 H 0.3545 0.8530 0.2061
C24 C 0.04591(18) 0.4040(2) 0.08388(12)
H21 H 0.0731 0.3783 0.0401
H22 H -0.0376 0.4326 0.0789
H23 H 0.0536 0.3253 0.1142
loop_
_geom_bond_atom_site_label_1
_geom_bond_atom_site_label_2
_geom_bond_site_symmetry_1
_geom_bond_site_symmetry_2
O1 C18 1_555 1_555
O2 C17 1_555 1_555
O3 C3 1_555 1_555
O4 C5 1_555 1_555
O5 C4 1_555 1_555
N1 C10 1_555 1_555
C1 H1 1_555 1_555
C2 H2 1_555 1_555
H3 C2 1_555 1_555
C3 C1 1_555 1_555
C4 C2 1_555 1_555
C5 C3 1_555 1_555
C6 C4 1_555 1_555
H4 C6 1_555 1_555
H5 C6 1_555 1_555
H6 C6 1_555 1_555
C7 C8 1_555 1_555
C8 C5 1_555 1_555
H7 C8 1_555 1_555
C9 C7 1_555 1_555
C10 C9 1_555 1_555
C11 C1 1_555 1_555
C12 N1 1_555 1_555
H8 C12 1_555 1_555
C13 C9 1_555 1_555
H9 C13 1_555 1_555
C14 C15 1_555 1_555
C15 C13 1_555 1_555
H10 C15 1_555 1_555
C16 C14 1_555 1_555
H11 C16 1_555 1_555
C17 C16 1_555 1_555
C18 C17 1_555 1_555
C19 C10 1_555 1_555
C20 C18 1_555 1_555
H12 C20 1_555 1_555
C21 O1 1_555 1_555
H13 C21 1_555 1_555
H14 C21 1_555 1_555
C22 N1 1_555 1_555
H15 C22 1_555 1_555
H16 C22 1_555 1_555
H17 C22 1_555 1_555
C23 O3 1_555 1_555
H18 C23 1_555 1_555
H19 C23 1_555 1_555
H20 C23 1_555 1_555
C24 O4 1_555 1_555
H21 C24 1_555 1_555
H22 C24 1_555 1_555
H23 C24 1_555 1_555
O2 C21 1_555 1_555
C2 C12 1_555 1_555
C7 C11 1_555 1_555
C11 C12 1_555 1_555
C14 C19 1_555 1_555
C19 C20 1_555 1_555

#END
