
#######################################################################
#
#                 Cambridge Crystallographic Data Centre
#                                CCDC 
#
#######################################################################
#
# If this CIF has been generated from an entry in the Cambridge 
# Structural Database, then it will include bibliographic, chemical, 
# crystal, experimental, refinement or atomic coordinate data resulting 
# from the CCDC's data processing and validation procedures.
#
#######################################################################

data_IDOHOB
_chemical_formula_moiety         'C8 H10 N4 O5 S1,C1 H4 O1'
_chemical_name_systematic        
'N-acetyl-S-(4-nitro-1H-imidazol-5-yl)cysteine methanol solvate'
_symmetry_cell_setting           monoclinic
_symmetry_space_group_name_H-M   'P 21'
_symmetry_Int_Tables_number      4
_space_group_name_Hall           'P 2yb'
loop_
_symmetry_equiv_pos_site_id
_symmetry_equiv_pos_as_xyz
1 x,y,z
2 -x,1/2+y,-z
_cell_length_a                   5.1334(3)
_cell_length_b                   9.7949(6)
_cell_length_c                   13.9511(8)
_cell_angle_alpha                90
_cell_angle_beta                 90.634(3)
_cell_angle_gamma                90
_cell_volume                     701.434
_cell_formula_units_Z            2
loop_
_atom_site_label
_atom_site_type_symbol
_atom_site_fract_x
_atom_site_fract_y
_atom_site_fract_z
S1 S 0.03021(12) 0.77457(6) 0.37997(4)
O1 O 0.0858(4) 0.29412(18) 0.39337(14)
O2 O -0.0896(4) 0.4673(2) 0.31949(16)
O3 O 0.4538(4) 0.8154(2) 0.06087(14)
O4 O 0.7747(4) 1.0115(2) 0.21938(16)
O5 O 0.5908(4) 0.64510(19) 0.15540(14)
H1 H 0.647068 0.614518 0.104973
N1 N 0.4327(5) 0.4560(2) 0.48455(17)
N2 N 0.4306(4) 0.6819(2) 0.49283(15)
H2 H 0.476128 0.762875 0.509876
N3 N 0.0662(5) 0.4178(2) 0.37702(16)
N4 N 0.3442(4) 0.9719(2) 0.22505(16)
H3 H 0.189065 1.005050 0.225942
C1 C 0.2352(5) 0.5082(2) 0.42860(18)
C2 C 0.5453(6) 0.5644(3) 0.52176(19)
H4 H 0.688037 0.560815 0.563341
C3 C 0.2299(5) 0.6497(2) 0.43192(17)
C4 C 0.1269(5) 0.7542(3) 0.25611(17)
H5 H 0.144289 0.657642 0.242276
H6 H -0.009726 0.790291 0.214730
C5 C 0.3831(5) 0.8258(2) 0.23257(18)
H7 H 0.509870 0.807416 0.283987
C6 C 0.4823(4) 0.7639(3) 0.13954(17)
C7 C 0.5506(5) 1.0563(3) 0.21663(18)
C8 C 0.4897(6) 1.2057(3) 0.2023(2)
H8 H 0.600682 1.259527 0.243213
H9 H 0.310881 1.222456 0.217949
H10 H 0.518721 1.230026 0.136632
O6 O -0.2046(5) 0.5346(3) 0.00957(17)
H11 H -0.295779 0.474098 -0.013655
C9 C 0.0456(8) 0.4820(6) 0.0310(4)
H12 H 0.171960 0.554030 0.027188
H13 H 0.087742 0.411739 -0.014222
H14 H 0.047206 0.444539 0.094581
loop_
_geom_bond_atom_site_label_1
_geom_bond_atom_site_label_2
_geom_bond_site_symmetry_1
_geom_bond_site_symmetry_2
S1 C3 1_555 1_555
O1 N3 1_555 1_555
O2 N3 1_555 1_555
O3 C6 1_555 1_555
O4 C7 1_555 1_555
O5 H1 1_555 1_555
N1 C1 1_555 1_555
N2 H2 1_555 1_555
N3 C1 1_555 1_555
N4 H3 1_555 1_555
C1 C3 1_555 1_555
C2 N1 1_555 1_555
H4 C2 1_555 1_555
C3 N2 1_555 1_555
C4 S1 1_555 1_555
H5 C4 1_555 1_555
H6 C4 1_555 1_555
C5 N4 1_555 1_555
H7 C5 1_555 1_555
C6 O5 1_555 1_555
C7 N4 1_555 1_555
C8 C7 1_555 1_555
H8 C8 1_555 1_555
H9 C8 1_555 1_555
H10 C8 1_555 1_555
O6 H11 1_555 1_555
C9 O6 1_555 1_555
H12 C9 1_555 1_555
H13 C9 1_555 1_555
H14 C9 1_555 1_555
N2 C2 1_555 1_555
C4 C5 1_555 1_555
C5 C6 1_555 1_555

#END
