
#######################################################################
#
#                 Cambridge Crystallographic Data Centre
#                                CCDC 
#
#######################################################################
#
# If this CIF has been generated from an entry in the Cambridge 
# Structural Database, then it will include bibliographic, chemical, 
# crystal, experimental, refinement or atomic coordinate data resulting 
# from the CCDC's data processing and validation procedures.
#
#######################################################################

data_IDOKIV
_chemical_formula_moiety         'C23 H28 O6'
_chemical_name_systematic        
7-(Benzyloxy)-5-(4-methoxyphenoxy)-2,2-dimethyltetrahydro-4H-furo[3,4-d][1,3]dioxine
_symmetry_cell_setting           monoclinic
_symmetry_space_group_name_H-M   'P 21'
_symmetry_Int_Tables_number      4
_space_group_name_Hall           'P 2yb'
loop_
_symmetry_equiv_pos_site_id
_symmetry_equiv_pos_as_xyz
1 x,y,z
2 -x,1/2+y,-z
_cell_length_a                   8.7115(9)
_cell_length_b                   22.447(1)
_cell_length_c                   5.508(2)
_cell_angle_alpha                90
_cell_angle_beta                 90.03(1)
_cell_angle_gamma                90
_cell_volume                     1077.07
_exptl_crystal_colour            colorless
_exptl_crystal_description       prismatic
_cell_formula_units_Z            2
_exptl_crystal_recrystallization_method hexane
loop_
_atom_site_label
_atom_site_type_symbol
_atom_site_fract_x
_atom_site_fract_y
_atom_site_fract_z
O1 O -0.0219(3) -0.0080(5) 0.1724(4)
O2 O -0.1321(3) -0.1198(5) 0.2220(5)
O3 O -0.2534(3) -0.3457(5) 0.5714(6)
O4 O 0.2985(3) -0.0866(5) -0.2267(4)
O5 O 0.2953(2) -0.0043(5) 0.0311(4)
O6 O -0.0309(3) 0.0889(5) 0.0181(5)
C1 C -0.0388(4) -0.0452(5) -0.0367(7)
C2 C 0.0728(4) -0.0212(5) -0.2306(6)
C3 C 0.1697(4) 0.0236(4) -0.0908(6)
C4 C 0.0624(4) 0.0433(5) 0.1111(7)
C5 C 0.1727(4) -0.0653(5) -0.3715(6)
C6 C 0.3895(4) -0.0411(5) -0.1195(7)
C7 C 0.4989(5) -0.0725(5) 0.0493(8)
C8 C 0.4738(5) -0.0043(5) -0.3096(8)
C9 C -0.0186(4) -0.1092(5) 0.0418(7)
C10 C -0.1524(4) -0.1769(5) 0.3078(7)
C11 C -0.2544(4) -0.1827(5) 0.4983(7)
C12 C -0.2889(4) -0.2377(5) 0.5941(7)
C13 C -0.2226(4) -0.2885(5) 0.4929(7)
C14 C -0.1200(4) -0.2828(5) 0.3068(7)
C15 C -0.0843(4) -0.2270(5) 0.2122(7)
C16 C -0.3584(5) -0.3530(5) 0.7665(9)
C17 C -0.1292(5) 0.1134(5) 0.2025(8)
C18 C -0.2165(4) 0.1650(5) 0.0964(7)
C19 C -0.2176(4) 0.2188(5) 0.2128(8)
C20 C -0.3035(6) 0.2660(5) 0.116(1)
C21 C -0.3852(7) 0.2577(5) -0.094(1)
C22 C -0.3796(6) 0.2057(6) -0.2065(10)
C23 C -0.2983(5) 0.1587(5) -0.1167(8)
H1 H -0.1422 -0.0419 -0.0974
H2 H 0.0126 0.0005 -0.3487
H3 H 0.2025 0.0562 -0.1886
H4 H 0.1224 0.0567 0.2521
H5 H 0.2114 -0.0470 -0.5152
H6 H 0.1101 -0.0990 -0.4211
H7 H 0.4404 -0.0966 0.1654
H8 H 0.5655 -0.0984 -0.0347
H9 H 0.5574 -0.0448 0.1426
H10 H 0.5415 -0.0300 -0.4027
H11 H 0.4033 0.0133 -0.4205
H12 H 0.5344 0.0257 -0.2365
H13 H 0.0831 -0.1152 0.1093
H14 H -0.0297 -0.1368 -0.0903
H15 H -0.3021 -0.1477 0.5626
H16 H -0.3565 -0.2414 0.7329
H17 H -0.0678 -0.3184 0.2493
H18 H -0.0136 -0.2234 0.0807
H19 H -0.3193 -0.3326 0.9093
H20 H -0.4556 -0.3363 0.7284
H21 H -0.3709 -0.3939 0.8079
H22 H -0.2010 0.0819 0.2548
H23 H -0.0717 0.1243 0.3419
H24 H -0.1578 0.2241 0.3612
H25 H -0.3083 0.3038 0.1959
H26 H -0.4428 0.2906 -0.1624
H27 H -0.4389 0.1988 -0.3605
H28 H -0.2928 0.1206 -0.2052
loop_
_geom_bond_atom_site_label_1
_geom_bond_atom_site_label_2
_geom_bond_site_symmetry_1
_geom_bond_site_symmetry_2
O1 C1 1_555 1_555
O2 C9 1_555 1_555
O3 C13 1_555 1_555
O4 C5 1_555 1_555
O5 C3 1_555 1_555
O6 C4 1_555 1_555
C1 C2 1_555 1_555
C2 C3 1_555 1_555
C3 C4 1_555 1_555
C4 O1 1_555 1_555
C5 C2 1_555 1_555
C6 O4 1_555 1_555
C7 C6 1_555 1_555
C8 C6 1_555 1_555
C9 C1 1_555 1_555
C10 O2 1_555 1_555
C11 C10 1_555 1_555
C12 C11 1_555 1_555
C13 C12 1_555 1_555
C14 C13 1_555 1_555
C15 C10 1_555 1_555
C16 O3 1_555 1_555
C17 O6 1_555 1_555
C18 C17 1_555 1_555
C19 C18 1_555 1_555
C20 C19 1_555 1_555
C21 C20 1_555 1_555
C22 C21 1_555 1_555
C23 C18 1_555 1_555
H1 C1 1_555 1_555
H2 C2 1_555 1_555
H3 C3 1_555 1_555
H4 C4 1_555 1_555
H5 C5 1_555 1_555
H6 C5 1_555 1_555
H7 C7 1_555 1_555
H8 C7 1_555 1_555
H9 C7 1_555 1_555
H10 C8 1_555 1_555
H11 C8 1_555 1_555
H12 C8 1_555 1_555
H13 C9 1_555 1_555
H14 C9 1_555 1_555
H15 C11 1_555 1_555
H16 C12 1_555 1_555
H17 C14 1_555 1_555
H18 C15 1_555 1_555
H19 C16 1_555 1_555
H20 C16 1_555 1_555
H21 C16 1_555 1_555
H22 C17 1_555 1_555
H23 C17 1_555 1_555
H24 C19 1_555 1_555
H25 C20 1_555 1_555
H26 C21 1_555 1_555
H27 C22 1_555 1_555
H28 C23 1_555 1_555
O5 C6 1_555 1_555
C14 C15 1_555 1_555
C22 C23 1_555 1_555

#END
