
#######################################################################
#
#                 Cambridge Crystallographic Data Centre
#                                CCDC 
#
#######################################################################
#
# If this CIF has been generated from an entry in the Cambridge 
# Structural Database, then it will include bibliographic, chemical, 
# crystal, experimental, refinement or atomic coordinate data resulting 
# from the CCDC's data processing and validation procedures.
#
#######################################################################

data_IDOMEV
_chemical_name_common            'Isopropyl 3-phenylisoxazole-5-carboxylate'
_chemical_formula_moiety         'C13 H13 N1 O3'
_chemical_name_systematic        'Isopropyl 3-phenyl-1,2-oxazole-5-carboxylate'
_symmetry_cell_setting           monoclinic
_symmetry_space_group_name_H-M   'P 21/n'
_symmetry_Int_Tables_number      14
_space_group_name_Hall           '-P 2yn'
loop_
_symmetry_equiv_pos_site_id
_symmetry_equiv_pos_as_xyz
1 x,y,z
2 1/2-x,1/2+y,1/2-z
3 -x,-y,-z
4 1/2+x,1/2-y,1/2+z
_cell_length_a                   4.6311(10)
_cell_length_b                   16.596(4)
_cell_length_c                   15.897(3)
_cell_angle_alpha                90
_cell_angle_beta                 98.321(4)
_cell_angle_gamma                90
_cell_volume                     1208.95
_exptl_crystal_colour            colorless
_exptl_crystal_description       block
_cell_formula_units_Z            4
loop_
_atom_site_label
_atom_site_type_symbol
_atom_site_fract_x
_atom_site_fract_y
_atom_site_fract_z
N1 N 1.1576(4) 0.66232(10) 0.15016(9)
O1 O 1.0131(3) 0.60739(8) 0.19660(7)
O2 O 0.4550(3) 0.46825(8) 0.12822(8)
O3 O 0.6627(3) 0.50549(7) 0.25802(7)
C1 C 0.9997(5) 0.69977(13) -0.07802(12)
H1 H 0.8549 0.6615 -0.0930
C2 C 1.0757(6) 0.75230(15) -0.13884(14)
H2 H 0.9802 0.7496 -0.1944
C3 C 1.2896(6) 0.80792(14) -0.11749(17)
H3 H 1.3391 0.8433 -0.1584
C4 C 1.4315(5) 0.81193(13) -0.03635(16)
H4 H 1.5793 0.8496 -0.0222
C5 C 1.3566(5) 0.76046(12) 0.02457(14)
H5 H 1.4541 0.7636 0.0799
C6 C 1.1380(4) 0.70408(10) 0.00457(11)
C7 C 1.0454(4) 0.65230(10) 0.07063(10)
C8 C 0.8306(4) 0.59153(11) 0.06221(10)
H6 H 0.7213 0.5728 0.0124
C9 C 0.8187(4) 0.56698(10) 0.14107(10)
C10 C 0.6272(4) 0.50799(11) 0.17418(11)
C11 C 0.4715(5) 0.45151(12) 0.29747(12)
H7 H 0.2788 0.4501 0.2627
C12 C 0.4454(7) 0.48786(17) 0.38172(15)
H8 H 0.6342 0.4896 0.4158
H9 H 0.3159 0.4558 0.4099
H10 H 0.3692 0.5416 0.3738
C13 C 0.6001(6) 0.36909(14) 0.30211(16)
H11 H 0.6165 0.3505 0.2458
H12 H 0.4765 0.3331 0.3280
H13 H 0.7901 0.3705 0.3355
loop_
_geom_bond_atom_site_label_1
_geom_bond_atom_site_label_2
_geom_bond_site_symmetry_1
_geom_bond_site_symmetry_2
N1 O1 1_555 1_555
O1 C9 1_555 1_555
O2 C10 1_555 1_555
O3 C10 1_555 1_555
C1 H1 1_555 1_555
C2 C1 1_555 1_555
H2 C2 1_555 1_555
C3 C2 1_555 1_555
H3 C3 1_555 1_555
C4 C3 1_555 1_555
H4 C4 1_555 1_555
C5 C4 1_555 1_555
H5 C5 1_555 1_555
C6 C1 1_555 1_555
C7 N1 1_555 1_555
C8 C7 1_555 1_555
H6 C8 1_555 1_555
C9 C8 1_555 1_555
C10 C9 1_555 1_555
C11 O3 1_555 1_555
H7 C11 1_555 1_555
C12 C11 1_555 1_555
H8 C12 1_555 1_555
H9 C12 1_555 1_555
H10 C12 1_555 1_555
C13 C11 1_555 1_555
H11 C13 1_555 1_555
H12 C13 1_555 1_555
H13 C13 1_555 1_555
C5 C6 1_555 1_555
C6 C7 1_555 1_555

#END
