
#######################################################################
#
#                 Cambridge Crystallographic Data Centre
#                                CCDC 
#
#######################################################################
#
# If this CIF has been generated from an entry in the Cambridge 
# Structural Database, then it will include bibliographic, chemical, 
# crystal, experimental, refinement or atomic coordinate data resulting 
# from the CCDC's data processing and validation procedures.
#
#######################################################################

data_IDOPUP
_chemical_formula_moiety         'C20 H17 F1 N4 O2'
_chemical_name_systematic        
1-benzyl-4-(((3-(4-fluorophenyl)-1,2-oxazol-5-yl)methoxy)methyl)-1H-1,2,3-triazole
_symmetry_cell_setting           monoclinic
_symmetry_space_group_name_H-M   'P 21/n'
_symmetry_Int_Tables_number      14
_space_group_name_Hall           '-P 2yn'
loop_
_symmetry_equiv_pos_site_id
_symmetry_equiv_pos_as_xyz
1 x,y,z
2 1/2-x,1/2+y,1/2-z
3 -x,-y,-z
4 1/2+x,1/2-y,1/2+z
_cell_length_a                   18.085(4)
_cell_length_b                   5.4817(11)
_cell_length_c                   18.683(4)
_cell_angle_alpha                90
_cell_angle_beta                 110.14(3)
_cell_angle_gamma                90
_cell_volume                     1738.92
_exptl_crystal_colour            colorless
_exptl_crystal_description       block
_cell_formula_units_Z            4
loop_
_atom_site_label
_atom_site_type_symbol
_atom_site_fract_x
_atom_site_fract_y
_atom_site_fract_z
F1 F -0.19465(8) 0.5438(3) -0.25471(8)
O1 O 0.35332(7) 0.3276(2) 0.08459(8)
O2 O 0.18948(8) 0.1608(2) 0.05538(9)
N1 N 0.58243(9) 0.1620(3) 0.06916(9)
N2 N 0.55784(9) -0.0541(3) 0.08715(9)
N3 N 0.50074(9) -0.0086(3) 0.11429(9)
N4 N 0.11296(9) 0.1439(3) 0.00112(11)
C1 C -0.12329(13) 0.4975(4) -0.20009(13)
C2 C -0.11446(12) 0.2906(4) -0.15760(14)
H1 H -0.1561 0.1819 -0.1658
C3 C -0.04249(12) 0.2461(4) -0.10222(13)
H2 H -0.0357 0.1058 -0.0727
C4 C 0.02015(11) 0.4068(3) -0.08958(11)
C5 C 0.00813(14) 0.6163(4) -0.13371(14)
H3 H 0.0490 0.7274 -0.1258
C6 C -0.06401(15) 0.6618(4) -0.18943(15)
H4 H -0.0719 0.8022 -0.2191
C7 C 0.09710(11) 0.3600(3) -0.03038(11)
C8 C 0.16163(11) 0.5220(4) 0.00037(12)
H5 H 0.1651 0.6838 -0.0131
C9 C 0.21630(11) 0.3911(3) 0.05294(12)
C10 C 0.29583(12) 0.4470(4) 0.10831(12)
H6 H 0.3047 0.6218 0.1106
H7 H 0.2997 0.3911 0.1587
C11 C 0.43026(11) 0.3547(4) 0.14099(12)
H8 H 0.4315 0.2793 0.1884
H9 H 0.4424 0.5266 0.1506
C12 C 0.48981(11) 0.2376(3) 0.11359(11)
C13 C 0.54193(11) 0.3462(3) 0.08534(11)
H10 H 0.5480 0.5122 0.0787
C14 C 0.64986(11) 0.1712(4) 0.04248(11)
H11 H 0.6468 0.3184 0.0128
H12 H 0.6478 0.0323 0.0097
C15 C 0.72666(11) 0.1682(3) 0.10855(11)
C16 C 0.77901(12) -0.0248(4) 0.11811(12)
H13 H 0.7669 -0.1527 0.0833
C17 C 0.84887(12) -0.0276(4) 0.17907(13)
H14 H 0.8836 -0.1575 0.1850
C18 C 0.86782(12) 0.1605(4) 0.23138(12)
H15 H 0.9151 0.1580 0.2722
C19 C 0.81596(12) 0.3527(4) 0.22258(12)
H16 H 0.8280 0.4789 0.2580
C20 C 0.74645(11) 0.3577(3) 0.16151(11)
H17 H 0.7123 0.4890 0.1555
loop_
_geom_bond_atom_site_label_1
_geom_bond_atom_site_label_2
_geom_bond_site_symmetry_1
_geom_bond_site_symmetry_2
F1 C1 1_555 1_555
O1 C10 1_555 1_555
O2 N4 1_555 1_555
N1 N2 1_555 1_555
N2 N3 1_555 1_555
N3 C12 1_555 1_555
N4 C7 1_555 1_555
C1 C2 1_555 1_555
C2 H1 1_555 1_555
C3 C2 1_555 1_555
H2 C3 1_555 1_555
C4 C3 1_555 1_555
C5 C4 1_555 1_555
H3 C5 1_555 1_555
C6 C1 1_555 1_555
H4 C6 1_555 1_555
C7 C4 1_555 1_555
C8 C7 1_555 1_555
H5 C8 1_555 1_555
C9 O2 1_555 1_555
C10 C9 1_555 1_555
H6 C10 1_555 1_555
H7 C10 1_555 1_555
C11 O1 1_555 1_555
H8 C11 1_555 1_555
H9 C11 1_555 1_555
C12 C11 1_555 1_555
C13 N1 1_555 1_555
H10 C13 1_555 1_555
C14 N1 1_555 1_555
H11 C14 1_555 1_555
H12 C14 1_555 1_555
C15 C14 1_555 1_555
C16 C15 1_555 1_555
H13 C16 1_555 1_555
C17 C16 1_555 1_555
H14 C17 1_555 1_555
C18 C17 1_555 1_555
H15 C18 1_555 1_555
C19 C18 1_555 1_555
H16 C19 1_555 1_555
C20 C15 1_555 1_555
H17 C20 1_555 1_555
C5 C6 1_555 1_555
C8 C9 1_555 1_555
C12 C13 1_555 1_555
C19 C20 1_555 1_555

#END
