
#######################################################################
#
#                 Cambridge Crystallographic Data Centre
#                                CCDC 
#
#######################################################################
#
# If this CIF has been generated from an entry in the Cambridge 
# Structural Database, then it will include bibliographic, chemical, 
# crystal, experimental, refinement or atomic coordinate data resulting 
# from the CCDC's data processing and validation procedures.
#
#######################################################################

data_IDOQAU
_chemical_formula_moiety         'C27 H26 Cl1 N3 O3'
_chemical_name_systematic        
(E)-4-(4-(4-Chlorobenzyloxy)-3-ethoxybenzylideneamino)-1,5-dimethyl-2-phenyl-1H-pyrazol-3(2H)-one
_symmetry_cell_setting           triclinic
_symmetry_space_group_name_H-M   'P -1'
_symmetry_Int_Tables_number      2
_space_group_name_Hall           '-P 1'
loop_
_symmetry_equiv_pos_site_id
_symmetry_equiv_pos_as_xyz
1 x,y,z
2 -x,-y,-z
_cell_length_a                   10.019(2)
_cell_length_b                   10.355(2)
_cell_length_c                   12.824(3)
_cell_angle_alpha                77.080(4)
_cell_angle_beta                 83.710(4)
_cell_angle_gamma                71.133(4)
_cell_volume                     1226.09
_exptl_crystal_colour            yellow
_exptl_crystal_description       block
_cell_formula_units_Z            2
_exptl_crystal_recrystallization_method ethanol
loop_
_atom_site_label
_atom_site_type_symbol
_atom_site_fract_x
_atom_site_fract_y
_atom_site_fract_z
Cl1 Cl 1.23717(13) 0.40173(14) -0.11388(13)
O1 O 0.6852(2) 0.1941(2) 0.0705(2)
O2 O 0.4924(2) 0.3470(3) 0.1787(3)
O3 O 0.1051(2) -0.2193(2) 0.39294(18)
N1 N 0.1251(3) 0.0816(3) 0.2981(2)
N2 N -0.2110(3) 0.0466(3) 0.3943(2)
N3 N -0.1281(3) -0.0929(3) 0.4246(2)
C1 C 0.9389(4) 0.2313(4) -0.1284(3)
H1 H 0.8933 0.2152 -0.1812
C2 C 1.0408(4) 0.2968(4) -0.1579(4)
H2 H 1.0645 0.3239 -0.2298
C3 C 1.1064(4) 0.3215(4) -0.0803(4)
C4 C 1.0729(4) 0.2805(4) 0.0257(3)
H3 H 1.1181 0.2975 0.0785
C5 C 0.9722(4) 0.2145(4) 0.0532(3)
H4 H 0.9503 0.1862 0.1253
C6 C 0.9030(3) 0.1890(3) -0.0222(3)
C7 C 0.7964(3) 0.1125(4) 0.0121(3)
H5 H 0.7603 0.0981 -0.0501
H6 H 0.8397 0.0223 0.0567
C8 C 0.5825(3) 0.1372(3) 0.1179(3)
C9 C 0.4754(3) 0.2219(3) 0.1760(3)
C10 C 0.3667(3) 0.1754(3) 0.2245(3)
H7 H 0.2956 0.2323 0.2620
C11 C 0.3596(3) 0.0448(3) 0.2193(2)
C12 C 0.4665(3) -0.0376(3) 0.1647(3)
H8 H 0.4650 -0.1261 0.1619
C13 C 0.5768(3) 0.0083(3) 0.1135(3)
H9 H 0.6474 -0.0488 0.0759
C14 C 0.3819(5) 0.4473(4) 0.2154(5)
H10 H 0.3531 0.4106 0.2877
H11 H 0.3021 0.4732 0.1702
C15 C 0.4249(4) 0.5706(4) 0.2146(4)
H12 H 0.5076 0.5435 0.2557
H13 H 0.3498 0.6373 0.2455
H14 H 0.4454 0.6114 0.1422
C16 C 0.2401(3) -0.0018(3) 0.2685(2)
H15 H 0.2482 -0.0958 0.2786
C17 C 0.0127(3) 0.0343(3) 0.3443(2)
C18 C -0.1220(3) 0.1215(3) 0.3544(2)
C19 C -0.1730(4) 0.2756(3) 0.3275(3)
H16 H -0.2530 0.3058 0.2832
H17 H -0.0990 0.3096 0.2897
H18 H -0.2000 0.3114 0.3922
C20 C -0.3380(3) 0.0988(4) 0.4605(3)
H19 H -0.3122 0.1247 0.5209
H20 H -0.3822 0.0273 0.4850
H21 H -0.4027 0.1787 0.4187
C21 C 0.0119(3) -0.1061(3) 0.3871(2)
C22 C -0.1927(3) -0.2007(3) 0.4409(3)
C23 C -0.3082(4) -0.1838(4) 0.3843(3)
H22 H -0.3457 -0.1017 0.3352
C24 C -0.3678(4) -0.2900(5) 0.4010(4)
H23 H -0.4476 -0.2782 0.3647
C25 C -0.3105(5) -0.4123(5) 0.4705(4)
H24 H -0.3501 -0.4841 0.4801
C26 C -0.1935(5) -0.4293(4) 0.5268(4)
H25 H -0.1540 -0.5129 0.5736
C27 C -0.1352(4) -0.3214(4) 0.5132(3)
H26 H -0.0587 -0.3308 0.5524
loop_
_geom_bond_atom_site_label_1
_geom_bond_atom_site_label_2
_geom_bond_site_symmetry_1
_geom_bond_site_symmetry_2
Cl1 C3 1_555 1_555
O1 C7 1_555 1_555
O2 C9 1_555 1_555
O3 C21 1_555 1_555
N1 C16 1_555 1_555
N2 N3 1_555 1_555
N3 C21 1_555 1_555
C1 H1 1_555 1_555
C2 C1 1_555 1_555
H2 C2 1_555 1_555
C3 C2 1_555 1_555
C4 C3 1_555 1_555
H3 C4 1_555 1_555
C5 C4 1_555 1_555
H4 C5 1_555 1_555
C6 C1 1_555 1_555
C7 C6 1_555 1_555
H5 C7 1_555 1_555
H6 C7 1_555 1_555
C8 O1 1_555 1_555
C9 C8 1_555 1_555
C10 C9 1_555 1_555
H7 C10 1_555 1_555
C11 C10 1_555 1_555
C12 C11 1_555 1_555
H8 C12 1_555 1_555
C13 C8 1_555 1_555
H9 C13 1_555 1_555
C14 O2 1_555 1_555
H10 C14 1_555 1_555
H11 C14 1_555 1_555
C15 C14 1_555 1_555
H12 C15 1_555 1_555
H13 C15 1_555 1_555
H14 C15 1_555 1_555
C16 C11 1_555 1_555
H15 C16 1_555 1_555
C17 N1 1_555 1_555
C18 N2 1_555 1_555
C19 C18 1_555 1_555
H16 C19 1_555 1_555
H17 C19 1_555 1_555
H18 C19 1_555 1_555
C20 N2 1_555 1_555
H19 C20 1_555 1_555
H20 C20 1_555 1_555
H21 C20 1_555 1_555
C21 C17 1_555 1_555
C22 N3 1_555 1_555
C23 C22 1_555 1_555
H22 C23 1_555 1_555
C24 C23 1_555 1_555
H23 C24 1_555 1_555
C25 C24 1_555 1_555
H24 C25 1_555 1_555
C26 C25 1_555 1_555
H25 C26 1_555 1_555
C27 C22 1_555 1_555
H26 C27 1_555 1_555
C5 C6 1_555 1_555
C12 C13 1_555 1_555
C17 C18 1_555 1_555
C26 C27 1_555 1_555

#END
