
#######################################################################
#
#                 Cambridge Crystallographic Data Centre
#                                CCDC 
#
#######################################################################
#
# If this CIF has been generated from an entry in the Cambridge 
# Structural Database, then it will include bibliographic, chemical, 
# crystal, experimental, refinement or atomic coordinate data resulting 
# from the CCDC's data processing and validation procedures.
#
#######################################################################

data_IDOQIE
_chemical_formula_moiety         'C19 H15 N1 O2'
_chemical_name_systematic        'methyl 4,6-diphenylpyridine-2-carboxylate'
_symmetry_cell_setting           monoclinic
_symmetry_space_group_name_H-M   'P 21'
_symmetry_Int_Tables_number      4
_space_group_name_Hall           'P 2yb'
loop_
_symmetry_equiv_pos_site_id
_symmetry_equiv_pos_as_xyz
1 x,y,z
2 -x,1/2+y,-z
_cell_length_a                   9.8509(3)
_cell_length_b                   13.4787(4)
_cell_length_c                   22.2482(7)
_cell_angle_alpha                90
_cell_angle_beta                 96.124(2)
_cell_angle_gamma                90
_cell_volume                     2937.2
_exptl_crystal_colour            colorless
_exptl_crystal_description       block
_cell_formula_units_Z            8
loop_
_atom_site_label
_atom_site_type_symbol
_atom_site_fract_x
_atom_site_fract_y
_atom_site_fract_z
O1 O -0.5514(11) 0.6556(6) -0.3330(3)
O2 O -0.7033(8) 0.6905(6) -0.4106(3)
N1 N -0.5880(11) 0.5726(7) -0.4895(4)
C1 C -0.5384(11) 0.5735(7) -0.4288(4)
C2 C -0.4352(10) 0.5151(6) -0.4036(3)
H1 H -0.4028 0.5208 -0.3620
C3 C -0.3802(10) 0.4490(7) -0.4392(4)
C4 C -0.4286(12) 0.4430(7) -0.5008(4)
H2 H -0.3900 0.3954 -0.5255
C5 C -0.5337(11) 0.5061(7) -0.5271(4)
C6 C -0.2689(12) 0.3819(8) -0.4106(5)
C7 C -0.2324(14) 0.3844(9) -0.3482(5)
H3 H -0.2786 0.4296 -0.3248
C8 C -0.1364(16) 0.3267(11) -0.3200(6)
H4 H -0.1134 0.3319 -0.2776
C9 C -0.0681(12) 0.2561(8) -0.3549(5)
H5 H -0.0009 0.2126 -0.3357
C10 C -0.1015(14) 0.2530(8) -0.4156(5)
H6 H -0.0556 0.2080 -0.4394
C11 C -0.2039(14) 0.3159(8) -0.4439(5)
H7 H -0.2274 0.3121 -0.4864
C12 C -0.5790(12) 0.4978(8) -0.5915(4)
C13 C -0.5785(10) 0.4054(8) -0.6229(5)
H8 H -0.5487 0.3465 -0.6021
C14 C -0.6226(11) 0.4030(9) -0.6848(5)
H9 H -0.6206 0.3417 -0.7057
C15 C -0.6682(12) 0.4853(10) -0.7160(5)
H10 H -0.6956 0.4819 -0.7582
C16 C -0.6741(10) 0.5739(10) -0.6853(5)
H11 H -0.7060 0.6318 -0.7067
C17 C -0.6342(10) 0.5798(9) -0.6239(5)
H12 H -0.6446 0.6406 -0.6033
C18 C -0.5963(12) 0.6433(7) -0.3858(5)
C19 C -0.7768(14) 0.7502(9) -0.3723(6)
H13 H -0.8545 0.7813 -0.3963
H14 H -0.7164 0.8017 -0.3534
H15 H -0.8099 0.7085 -0.3408
O3 O -0.1956(10) -0.1508(6) -0.1646(3)
O4 O -0.0550(9) -0.1932(6) -0.0855(3)
N2 N -0.3219(9) -0.0166(6) -0.0965(4)
C20 C -0.2248(10) -0.0726(7) -0.0708(4)
C21 C -0.1757(9) -0.0701(6) -0.0107(4)
H16 H -0.1040 -0.1130 0.0048
C22 C -0.2324(10) -0.0041(7) 0.0266(4)
C23 C -0.3332(10) 0.0583(7) 0.0018(4)
H17 H -0.3722 0.1055 0.0266
C24 C -0.3793(11) 0.0527(7) -0.0605(5)
C25 C -0.4844(10) 0.1167(7) -0.0894(4)
C26 C -0.5182(12) 0.1154(9) -0.1513(5)
H18 H -0.4722 0.0714 -0.1756
C27 C -0.6209(12) 0.1792(8) -0.1785(5)
H19 H -0.6399 0.1795 -0.2213
C28 C -0.6925(12) 0.2394(8) -0.1455(5)
H20 H -0.7640 0.2794 -0.1646
C29 C -0.6614(11) 0.2425(8) -0.0843(6)
H21 H -0.7101 0.2862 -0.0609
C30 C -0.5604(10) 0.1831(7) -0.0562(5)
H22 H -0.5407 0.1865 -0.0135
C31 C -0.1791(11) -0.0005(7) 0.0926(4)
C32 C -0.2637(9) 0.0325(7) 0.1354(4)
H23 H -0.3554 0.0509 0.1229
C33 C -0.2138(12) 0.0382(8) 0.1953(5)
H24 H -0.2719 0.0620 0.2236
C34 C -0.0823(11) 0.0106(8) 0.2158(5)
H25 H -0.0489 0.0140 0.2575
C35 C -0.0007(10) -0.0227(8) 0.1724(5)
H26 H 0.0907 -0.0419 0.1850
C36 C -0.0477(11) -0.0288(7) 0.1117(4)
H27 H 0.0105 -0.0525 0.0835
C37 C -0.1606(10) -0.1435(7) -0.1136(4)
C38 C 0.0238(12) -0.2519(8) -0.1255(6)
H28 H 0.1052 -0.2790 -0.1020
H29 H 0.0513 -0.2094 -0.1578
H30 H -0.0328 -0.3065 -0.1432
O5 O 0.4594(10) -0.2203(7) -0.0815(3)
O6 O 0.3474(8) -0.1410(5) -0.1598(3)
N3 N 0.2119(8) -0.0323(6) -0.0889(3)
C39 C 0.3096(10) -0.0858(7) -0.0634(4)
C40 C 0.3590(10) -0.0829(9) -0.0013(4)
H31 H 0.4312 -0.1246 0.0153
C41 C 0.2946(9) -0.0142(7) 0.0346(4)
C42 C 0.1919(10) 0.0422(7) 0.0064(4)
H32 H 0.1464 0.0881 0.0296
C43 C 0.1520(10) 0.0347(7) -0.0547(4)
C44 C 0.0433(8) 0.0977(6) -0.0873(4)
C45 C 0.0087(12) 0.0874(8) -0.1487(5)
H33 H 0.0530 0.0382 -0.1702
C46 C -0.0896(14) 0.1476(10) -0.1797(5)
H34 H -0.1099 0.1398 -0.2221
C47 C -0.1551(12) 0.2151(7) -0.1516(5)
H35 H -0.2214 0.2563 -0.1734
C48 C -0.1258(11) 0.2254(8) -0.0894(6)
H36 H -0.1738 0.2733 -0.0686
C49 C -0.0293(11) 0.1678(9) -0.0579(5)
H37 H -0.0114 0.1757 -0.0154
C50 C 0.3418(9) -0.0063(7) 0.1005(4)
C51 C 0.3346(10) 0.0827(7) 0.1309(4)
H38 H 0.3065 0.1407 0.1088
C52 C 0.3662(10) 0.0890(8) 0.1912(5)
H39 H 0.3568 0.1504 0.2113
C53 C 0.4124(12) 0.0063(8) 0.2238(4)
H40 H 0.4409 0.0115 0.2658
C54 C 0.4167(10) -0.0821(8) 0.1955(4)
H41 H 0.4426 -0.1400 0.2182
C55 C 0.3842(9) -0.0888(7) 0.1345(4)
H42 H 0.3906 -0.1511 0.1150
C56 C 0.3803(11) -0.1587(7) -0.1021(5)
C57 C 0.4211(11) -0.2039(9) -0.1987(5)
H43 H 0.3837 -0.1945 -0.2409
H44 H 0.4109 -0.2736 -0.1873
H45 H 0.5180 -0.1860 -0.1939
O7 O -0.2032(11) 0.7156(7) -0.4180(4)
O8 O -0.0898(10) 0.6390(6) -0.3406(3)
N4 N -0.0982(11) 0.5800(6) -0.4986(4)
C58 C -0.0560(10) 0.5826(7) -0.4389(4)
C59 C 0.0424(10) 0.5235(6) -0.4120(3)
C60 C 0.1027(10) 0.4589(6) -0.4461(4)
C61 C 0.0639(11) 0.4501(6) -0.5079(4)
H46 H 0.1078 0.4034 -0.5312
C62 C -0.0413(9) 0.5113(6) -0.5357(4)
C63 C -0.0834(10) 0.5026(7) -0.6004(4)
C64 C -0.2204(11) 0.5271(8) -0.6233(5)
H47 H -0.2811 0.5517 -0.5964
C65 C -0.2664(11) 0.5157(8) -0.6840(5)
H48 H -0.3583 0.5311 -0.6983
C66 C -0.1771(12) 0.4816(9) -0.7238(5)
H49 H -0.2079 0.4737 -0.7654
C67 C -0.0431(11) 0.4590(8) -0.7026(5)
H50 H 0.0178 0.4367 -0.7301
C68 C 0.0021(10) 0.4685(8) -0.6428(4)
H51 H 0.0939 0.4516 -0.6294
C69 C 0.2082(12) 0.3960(8) -0.4151(4)
C70 C 0.2845(11) 0.3269(7) -0.4445(4)
H52 H 0.2693 0.3210 -0.4873
C71 C 0.3820(12) 0.2666(8) -0.4127(5)
H53 H 0.4335 0.2208 -0.4335
C72 C 0.4027(13) 0.2741(9) -0.3515(5)
H54 H 0.4681 0.2326 -0.3294
C73 C 0.3269(10) 0.3436(9) -0.3202(5)
H55 H 0.3434 0.3492 -0.2774
C74 C 0.2297(12) 0.4029(9) -0.3517(4)
H56 H 0.1776 0.4481 -0.3308
C75 C -0.1270(12) 0.6528(8) -0.3983(4)
C76 C -0.1559(16) 0.6977(10) -0.3014(5)
H57 H -0.1611 0.6620 -0.2634
H58 H -0.2483 0.7130 -0.3199
H59 H -0.1049 0.7596 -0.2934
loop_
_geom_bond_atom_site_label_1
_geom_bond_atom_site_label_2
_geom_bond_site_symmetry_1
_geom_bond_site_symmetry_2
O1 C18 1_555 1_555
O2 C18 1_555 1_555
N1 C1 1_555 1_555
C1 C2 1_555 1_555
C2 H1 1_555 1_555
C3 C2 1_555 1_555
C4 C3 1_555 1_555
H2 C4 1_555 1_555
C5 N1 1_555 1_555
C6 C3 1_555 1_555
C7 C6 1_555 1_555
H3 C7 1_555 1_555
C8 C7 1_555 1_555
H4 C8 1_555 1_555
C9 C8 1_555 1_555
H5 C9 1_555 1_555
C10 C9 1_555 1_555
H6 C10 1_555 1_555
C11 C6 1_555 1_555
H7 C11 1_555 1_555
C12 C5 1_555 1_555
C13 C12 1_555 1_555
H8 C13 1_555 1_555
C14 C13 1_555 1_555
H9 C14 1_555 1_555
C15 C14 1_555 1_555
H10 C15 1_555 1_555
C16 C15 1_555 1_555
H11 C16 1_555 1_555
C17 C12 1_555 1_555
H12 C17 1_555 1_555
C18 C1 1_555 1_555
C19 O2 1_555 1_555
H13 C19 1_555 1_555
H14 C19 1_555 1_555
H15 C19 1_555 1_555
O3 C37 1_555 1_555
O4 C37 1_555 1_555
N2 C20 1_555 1_555
C20 C21 1_555 1_555
C21 H16 1_555 1_555
C22 C21 1_555 1_555
C23 C22 1_555 1_555
H17 C23 1_555 1_555
C24 N2 1_555 1_555
C25 C24 1_555 1_555
C26 C25 1_555 1_555
H18 C26 1_555 1_555
C27 C26 1_555 1_555
H19 C27 1_555 1_555
C28 C27 1_555 1_555
H20 C28 1_555 1_555
C29 C28 1_555 1_555
H21 C29 1_555 1_555
C30 C25 1_555 1_555
H22 C30 1_555 1_555
C31 C22 1_555 1_555
C32 C31 1_555 1_555
H23 C32 1_555 1_555
C33 C32 1_555 1_555
H24 C33 1_555 1_555
C34 C33 1_555 1_555
H25 C34 1_555 1_555
C35 C34 1_555 1_555
H26 C35 1_555 1_555
C36 C31 1_555 1_555
H27 C36 1_555 1_555
C37 C20 1_555 1_555
C38 O4 1_555 1_555
H28 C38 1_555 1_555
H29 C38 1_555 1_555
H30 C38 1_555 1_555
O5 C56 1_555 1_555
O6 C56 1_555 1_555
N3 C39 1_555 1_555
C39 C40 1_555 1_555
C40 H31 1_555 1_555
C41 C40 1_555 1_555
C42 C41 1_555 1_555
H32 C42 1_555 1_555
C43 N3 1_555 1_555
C44 C43 1_555 1_555
C45 C44 1_555 1_555
H33 C45 1_555 1_555
C46 C45 1_555 1_555
H34 C46 1_555 1_555
C47 C46 1_555 1_555
H35 C47 1_555 1_555
C48 C47 1_555 1_555
H36 C48 1_555 1_555
C49 C44 1_555 1_555
H37 C49 1_555 1_555
C50 C41 1_555 1_555
C51 C50 1_555 1_555
H38 C51 1_555 1_555
C52 C51 1_555 1_555
H39 C52 1_555 1_555
C53 C52 1_555 1_555
H40 C53 1_555 1_555
C54 C53 1_555 1_555
H41 C54 1_555 1_555
C55 C50 1_555 1_555
H42 C55 1_555 1_555
C56 C39 1_555 1_555
C57 O6 1_555 1_555
H43 C57 1_555 1_555
H44 C57 1_555 1_555
H45 C57 1_555 1_555
O7 C75 1_555 1_555
O8 C75 1_555 1_555
N4 C58 1_555 1_555
C58 C59 1_555 1_555
C59 C60 1_555 1_555
C60 C61 1_555 1_555
C61 H46 1_555 1_555
C62 N4 1_555 1_555
C63 C62 1_555 1_555
C64 C63 1_555 1_555
H47 C64 1_555 1_555
C65 C64 1_555 1_555
H48 C65 1_555 1_555
C66 C65 1_555 1_555
H49 C66 1_555 1_555
C67 C66 1_555 1_555
H50 C67 1_555 1_555
C68 C63 1_555 1_555
H51 C68 1_555 1_555
C69 C60 1_555 1_555
C70 C69 1_555 1_555
H52 C70 1_555 1_555
C71 C70 1_555 1_555
H53 C71 1_555 1_555
C72 C71 1_555 1_555
H54 C72 1_555 1_555
C73 C72 1_555 1_555
H55 C73 1_555 1_555
C74 C69 1_555 1_555
H56 C74 1_555 1_555
C75 C58 1_555 1_555
C76 O8 1_555 1_555
H57 C76 1_555 1_555
H58 C76 1_555 1_555
H59 C76 1_555 1_555
C4 C5 1_555 1_555
C10 C11 1_555 1_555
C16 C17 1_555 1_555
C23 C24 1_555 1_555
C29 C30 1_555 1_555
C35 C36 1_555 1_555
C42 C43 1_555 1_555
C48 C49 1_555 1_555
C54 C55 1_555 1_555
C61 C62 1_555 1_555
C67 C68 1_555 1_555
C73 C74 1_555 1_555

#END
