
#######################################################################
#
#                 Cambridge Crystallographic Data Centre
#                                CCDC 
#
#######################################################################
#
# If this CIF has been generated from an entry in the Cambridge 
# Structural Database, then it will include bibliographic, chemical, 
# crystal, experimental, refinement or atomic coordinate data resulting 
# from the CCDC's data processing and validation procedures.
#
#######################################################################

data_IDOROJ01
_chemical_formula_moiety         'C13 H10 Br1 N3 O1'
_chemical_name_systematic        
'(E)-N-isonicotinoyl 3-bromobenzaldehydehydrazone'
_symmetry_cell_setting           monoclinic
_symmetry_space_group_name_H-M   'P 21/n'
_symmetry_Int_Tables_number      14
_space_group_name_Hall           '-P 2yn'
loop_
_symmetry_equiv_pos_site_id
_symmetry_equiv_pos_as_xyz
1 x,y,z
2 1/2-x,1/2+y,1/2-z
3 -x,-y,-z
4 1/2+x,1/2-y,1/2+z
_cell_length_a                   7.4578(2)
_cell_length_b                   11.3264(3)
_cell_length_c                   14.3558(3)
_cell_angle_alpha                90
_cell_angle_beta                 101.119(2)
_cell_angle_gamma                90
_cell_volume                     1189.87
_exptl_crystal_colour            colorless
_exptl_crystal_description       plate
_chemical_melting_point          '481-482 K'
_cell_formula_units_Z            4
_exptl_crystal_recrystallization_method methanol
loop_
_atom_site_label
_atom_site_type_symbol
_atom_site_fract_x
_atom_site_fract_y
_atom_site_fract_z
N1 N 0.3372(2) 0.02360(14) 0.21574(11)
C1 C 0.2566(3) 0.12994(17) 0.20990(13)
C2 C 0.2756(3) 0.20922(16) 0.28486(13)
C3 C 0.3841(2) 0.17842(16) 0.37143(13)
C4 C 0.4734(3) 0.07005(17) 0.37751(13)
C5 C 0.4457(3) -0.00363(17) 0.29919(13)
C6 C 0.4060(3) 0.25088(16) 0.46118(13)
O1 O 0.4929(2) 0.21345(13) 0.53588(9)
N2 N 0.3190(2) 0.35760(14) 0.45373(10)
N3 N 0.3313(2) 0.42289(14) 0.53563(11)
C7 C 0.2438(3) 0.52064(17) 0.52817(13)
C8 C 0.2519(3) 0.59632(15) 0.61166(13)
C9 C 0.3607(3) 0.56599(17) 0.69924(13)
C10 C 0.3653(3) 0.64066(17) 0.77589(13)
Br1 Br 0.51223(3) 0.597016(19) 0.894103(14)
C11 C 0.2666(3) 0.74551(17) 0.76882(14)
C12 C 0.1616(3) 0.77495(18) 0.68193(14)
C13 C 0.1521(3) 0.70134(17) 0.60387(14)
H1 H 0.1823 0.1522 0.1511
H2 H 0.2154 0.2835 0.2771
H3 H 0.5523 0.0470 0.4347
H4 H 0.5068 -0.0776 0.3046
H5 H 0.2679 0.3898 0.3993
H6 H 0.1737 0.5441 0.4686
H7 H 0.4302 0.4952 0.7059
H8 H 0.2713 0.7955 0.8224
H9 H 0.0947 0.8468 0.6754
H10 H 0.0773 0.7225 0.5449
loop_
_geom_bond_atom_site_label_1
_geom_bond_atom_site_label_2
_geom_bond_site_symmetry_1
_geom_bond_site_symmetry_2
N1 C1 1_555 1_555
C1 C2 1_555 1_555
C2 C3 1_555 1_555
C3 C4 1_555 1_555
C4 C5 1_555 1_555
C5 N1 1_555 1_555
C6 C3 1_555 1_555
O1 C6 1_555 1_555
N2 C6 1_555 1_555
N3 N2 1_555 1_555
C7 N3 1_555 1_555
C8 C7 1_555 1_555
C9 C8 1_555 1_555
C10 C9 1_555 1_555
Br1 C10 1_555 1_555
C11 C10 1_555 1_555
C12 C11 1_555 1_555
C13 C8 1_555 1_555
H1 C1 1_555 1_555
H2 C2 1_555 1_555
H3 C4 1_555 1_555
H4 C5 1_555 1_555
H5 N2 1_555 1_555
H6 C7 1_555 1_555
H7 C9 1_555 1_555
H8 C11 1_555 1_555
H9 C12 1_555 1_555
H10 C13 1_555 1_555
C12 C13 1_555 1_555

#END
