
#######################################################################
#
#                 Cambridge Crystallographic Data Centre
#                                CCDC 
#
#######################################################################
#
# If this CIF has been generated from an entry in the Cambridge 
# Structural Database, then it will include bibliographic, chemical, 
# crystal, experimental, refinement or atomic coordinate data resulting 
# from the CCDC's data processing and validation procedures.
#
#######################################################################

data_IDOSOK
_chemical_formula_moiety         'C19 H17 N1 O1 S2'
_chemical_name_systematic        2,6-bis(phenylthiomethyl)pyridinium-4-olate
_symmetry_cell_setting           monoclinic
_symmetry_space_group_name_H-M   'P 21/c'
_symmetry_Int_Tables_number      14
_space_group_name_Hall           '-P 2ybc'
loop_
_symmetry_equiv_pos_site_id
_symmetry_equiv_pos_as_xyz
1 x,y,z
2 -x,1/2+y,1/2-z
3 -x,-y,-z
4 x,1/2-y,1/2+z
_cell_length_a                   15.321(6)
_cell_length_b                   6.654(2)
_cell_length_c                   16.792(5)
_cell_angle_alpha                90
_cell_angle_beta                 90.361(15)
_cell_angle_gamma                90
_cell_volume                     1711.84
_exptl_crystal_colour            colorless
_exptl_crystal_description       prism
_cell_formula_units_Z            4
_exptl_crystal_recrystallization_method ethanol
loop_
_atom_site_label
_atom_site_type_symbol
_atom_site_fract_x
_atom_site_fract_y
_atom_site_fract_z
C1 C 0.54529(9) 0.6284(2) 0.15671(8)
C2 C 0.54659(11) 0.4239(2) 0.15527(10)
H1 H 0.5899 0.3555 0.1833
C3 C 0.48295(11) 0.3129(2) 0.11175(11)
C4 C 0.41623(11) 0.4277(2) 0.07395(10)
H2 H 0.3719 0.3621 0.0462
C5 C 0.41623(9) 0.63165(19) 0.07767(8)
C6 C 0.61113(10) 0.7556(2) 0.19905(9)
H3 H 0.6409 0.6742 0.2387
H4 H 0.581 0.8629 0.2267
C7 C 0.76328(10) 0.6648(3) 0.11150(8)
C8 C 0.81331(12) 0.6858(3) 0.04318(10)
H5 H 0.8068 0.7993 0.0114
C9 C 0.87252(13) 0.5392(4) 0.02229(11)
H6 H 0.9063 0.5563 -0.023
C10 C 0.88223(13) 0.3696(4) 0.06705(12)
H7 H 0.9217 0.2707 0.052
C11 C 0.83341(12) 0.3466(3) 0.13421(12)
H8 H 0.8397 0.2311 0.1649
C12 C 0.77473(11) 0.4936(3) 0.15692(10)
H9 H 0.7426 0.4769 0.2033
C13 C 0.34894(10) 0.7630(2) 0.04005(9)
H10 H 0.3076 0.679 0.0115
H11 H 0.3772 0.8491 0.0014
C14 C 0.20064(10) 0.7658(3) 0.13913(9)
C15 C 0.21274(13) 0.5765(3) 0.17162(10)
H12 H 0.2688 0.5245 0.177
C16 C 0.14192(16) 0.4644(4) 0.19608(12)
H13 H 0.1504 0.3369 0.2174
C17 C 0.05952(17) 0.5403(5) 0.18901(13)
H14 H 0.0121 0.4639 0.2055
C18 C 0.04604(13) 0.7284(5) 0.15768(13)
H15 H -0.0103 0.7795 0.1535
C19 C 0.11694(12) 0.8430(4) 0.13217(11)
H16 H 0.108 0.9702 0.1106
N1 N 0.48122(8) 0.72789(17) 0.11763(7)
S1 S 0.69152(3) 0.86479(6) 0.13352(3)
S2 S 0.28902(3) 0.92065(6) 0.10980(3)
O1 O 0.48544(10) 0.12453(16) 0.10770(12)
H17 H 0.4814(10) 0.858(3) 0.1181(9)
loop_
_geom_bond_atom_site_label_1
_geom_bond_atom_site_label_2
_geom_bond_site_symmetry_1
_geom_bond_site_symmetry_2
C1 C2 1_555 1_555
C2 H1 1_555 1_555
C3 C2 1_555 1_555
C4 C3 1_555 1_555
H2 C4 1_555 1_555
C5 C4 1_555 1_555
C6 C1 1_555 1_555
H3 C6 1_555 1_555
H4 C6 1_555 1_555
C7 C8 1_555 1_555
C8 H5 1_555 1_555
C9 C8 1_555 1_555
H6 C9 1_555 1_555
C10 C9 1_555 1_555
H7 C10 1_555 1_555
C11 C10 1_555 1_555
H8 C11 1_555 1_555
C12 C7 1_555 1_555
H9 C12 1_555 1_555
C13 C5 1_555 1_555
H10 C13 1_555 1_555
H11 C13 1_555 1_555
C14 C15 1_555 1_555
C15 H12 1_555 1_555
C16 C15 1_555 1_555
H13 C16 1_555 1_555
C17 C16 1_555 1_555
H14 C17 1_555 1_555
C18 C17 1_555 1_555
H15 C18 1_555 1_555
C19 C14 1_555 1_555
H16 C19 1_555 1_555
N1 C1 1_555 1_555
S1 C6 1_555 1_555
S2 C13 1_555 1_555
O1 C3 1_555 1_555
H17 N1 1_555 1_555
C5 N1 1_555 1_555
C7 S1 1_555 1_555
C11 C12 1_555 1_555
C14 S2 1_555 1_555
C18 C19 1_555 1_555

#END
