
#######################################################################
#
#                 Cambridge Crystallographic Data Centre
#                                CCDC 
#
#######################################################################
#
# If this CIF has been generated from an entry in the Cambridge 
# Structural Database, then it will include bibliographic, chemical, 
# crystal, experimental, refinement or atomic coordinate data resulting 
# from the CCDC's data processing and validation procedures.
#
#######################################################################

data_IDOVII
_chemical_formula_moiety         'C12 H12 O3'
_chemical_name_systematic        3-Phenyltetrahydrofuro[3,2-b]furan-2(3H)-one
_symmetry_cell_setting           orthorhombic
_symmetry_space_group_name_H-M   'P 21 21 21'
_symmetry_Int_Tables_number      19
_space_group_name_Hall           'P 2ac 2ab'
loop_
_symmetry_equiv_pos_site_id
_symmetry_equiv_pos_as_xyz
1 x,y,z
2 1/2+x,1/2-y,-z
3 -x,1/2+y,1/2-z
4 1/2-x,-y,1/2+z
_cell_length_a                   7.1060(11)
_cell_length_b                   8.0350(13)
_cell_length_c                   17.275(3)
_cell_angle_alpha                90
_cell_angle_beta                 90
_cell_angle_gamma                90
_cell_volume                     986.346
_exptl_crystal_colour            colorless
_exptl_crystal_description       block
_cell_formula_units_Z            4
loop_
_atom_site_label
_atom_site_type_symbol
_atom_site_fract_x
_atom_site_fract_y
_atom_site_fract_z
O1 O 0.07700(14) 0.35168(13) 0.04328(5)
O2 O 0.34004(16) 0.46020(16) -0.00390(7)
O3 O -0.02709(14) 0.58527(11) 0.18686(5)
C1 C 0.19225(18) 0.48053(18) 0.02828(8)
C2 C 0.10896(16) 0.64253(17) 0.05708(7)
H1 H 0.0604 0.7046 0.0111
C3 C -0.06211(16) 0.58731(16) 0.10541(7)
H2 H -0.1745 0.6574 0.0932
C4 C -0.09592(18) 0.40511(17) 0.08134(7)
H3 H -0.2087 0.3926 0.0472
C5 C -0.1177(2) 0.31299(17) 0.15734(8)
H4 H -0.0702 0.1975 0.1535
H5 H -0.2506 0.3109 0.1745
C6 C 0.0030(2) 0.41677(17) 0.21140(7)
H6 H -0.0367 0.4015 0.2659
H7 H 0.1374 0.3859 0.2066
C7 C 0.24959(16) 0.75327(16) 0.09746(7)
C8 C 0.23552(18) 0.92559(16) 0.09107(7)
H8 H 0.1363 0.9733 0.0617
C9 C 0.36607(19) 1.02826(18) 0.12753(9)
H9 H 0.3561 1.1457 0.1224
C10 C 0.5105(2) 0.96030(18) 0.17127(8)
H10 H 0.5995 1.0307 0.1959
C11 C 0.52406(18) 0.78931(17) 0.17878(7)
H11 H 0.6220 0.7422 0.2091
C12 C 0.39491(17) 0.68620(16) 0.14206(7)
H12 H 0.4056 0.5689 0.1474
loop_
_geom_bond_atom_site_label_1
_geom_bond_atom_site_label_2
_geom_bond_site_symmetry_1
_geom_bond_site_symmetry_2
O1 C1 1_555 1_555
O2 C1 1_555 1_555
O3 C3 1_555 1_555
C1 C2 1_555 1_555
C2 H1 1_555 1_555
C3 C2 1_555 1_555
H2 C3 1_555 1_555
C4 O1 1_555 1_555
H3 C4 1_555 1_555
C5 C4 1_555 1_555
H4 C5 1_555 1_555
H5 C5 1_555 1_555
C6 O3 1_555 1_555
H6 C6 1_555 1_555
H7 C6 1_555 1_555
C7 C2 1_555 1_555
C8 C7 1_555 1_555
H8 C8 1_555 1_555
C9 C8 1_555 1_555
H9 C9 1_555 1_555
C10 C9 1_555 1_555
H10 C10 1_555 1_555
C11 C10 1_555 1_555
H11 C11 1_555 1_555
C12 C7 1_555 1_555
H12 C12 1_555 1_555
C3 C4 1_555 1_555
C5 C6 1_555 1_555
C11 C12 1_555 1_555

#END
