
#######################################################################
#
#                 Cambridge Crystallographic Data Centre
#                                CCDC 
#
#######################################################################
#
# If this CIF has been generated from an entry in the Cambridge 
# Structural Database, then it will include bibliographic, chemical, 
# crystal, experimental, refinement or atomic coordinate data resulting 
# from the CCDC's data processing and validation procedures.
#
#######################################################################

data_IDOVEF
_chemical_formula_moiety         'C20 H13 N1 O2'
_chemical_name_systematic        
7-((4-methoxyphenyl)ethynyl)-9H-pyrrolo[1,2-a]indol-9-one
_symmetry_cell_setting           monoclinic
_symmetry_space_group_name_H-M   'P 21/c'
_symmetry_Int_Tables_number      14
_space_group_name_Hall           '-P 2ybc'
loop_
_symmetry_equiv_pos_site_id
_symmetry_equiv_pos_as_xyz
1 x,y,z
2 -x,1/2+y,1/2-z
3 -x,-y,-z
4 x,1/2-y,1/2+z
_cell_length_a                   13.9596(15)
_cell_length_b                   12.2062(13)
_cell_length_c                   8.9381(10)
_cell_angle_alpha                90
_cell_angle_beta                 93.770(2)
_cell_angle_gamma                90
_cell_volume                     1519.7
_exptl_crystal_colour            red
_exptl_crystal_description       prismatic
_cell_formula_units_Z            4
loop_
_atom_site_label
_atom_site_type_symbol
_atom_site_fract_x
_atom_site_fract_y
_atom_site_fract_z
N1 N 0.51370(8) 0.18990(9) 0.12590(12)
O1 O 0.60336(8) 0.45000(8) 0.21750(13)
O2 O 1.19515(8) 0.05013(11) 1.06279(14)
C1 C 0.44278(10) 0.13985(12) 0.04032(16)
H1 H 0.4294 0.0652 0.0376
C2 C 0.39435(11) 0.22024(13) -0.04166(17)
H2 H 0.3425 0.2091 -0.1108
C3 C 0.43616(10) 0.32198(12) -0.00367(16)
H3 H 0.4174 0.3900 -0.0424
C4 C 0.51031(10) 0.30169(11) 0.10183(14)
C5 C 0.58602(10) 0.35252(11) 0.19950(15)
C6 C 0.63669(10) 0.25822(10) 0.27722(14)
C7 C 0.59099(9) 0.16122(11) 0.22878(14)
C8 C 0.62192(10) 0.05978(11) 0.27882(16)
H4 H 0.5912 -0.0042 0.2458
C9 C 0.70120(10) 0.05757(12) 0.38094(16)
H5 H 0.7242 -0.0098 0.4161
C10 C 0.74787(10) 0.15304(12) 0.43306(15)
C11 C 0.71482(10) 0.25550(11) 0.37965(15)
H6 H 0.7450 0.3199 0.4126
C12 C 0.82892(10) 0.14359(12) 0.54034(16)
C13 C 0.89583(10) 0.13072(12) 0.62959(16)
C14 C 0.97474(10) 0.11428(12) 0.73845(16)
C15 C 1.03222(12) 0.02078(14) 0.73497(18)
H7 H 1.0212 -0.0299 0.6581
C16 C 1.10493(12) 0.00268(15) 0.84382(19)
H8 H 1.1425 -0.0600 0.8398
C17 C 1.12244(10) 0.07693(14) 0.95896(17)
C18 C 1.06762(12) 0.17094(14) 0.96307(19)
H9 H 1.0798 0.2222 1.0389
C19 C 0.99430(12) 0.18841(13) 0.85333(18)
H10 H 0.9573 0.2516 0.8571
C20 C 1.20841(13) 0.11682(19) 1.1926(2)
H11 H 1.2251 0.1898 1.1638
H12 H 1.2591 0.0871 1.2582
H13 H 1.1500 0.1187 1.2437
loop_
_geom_bond_atom_site_label_1
_geom_bond_atom_site_label_2
_geom_bond_site_symmetry_1
_geom_bond_site_symmetry_2
N1 C1 1_555 1_555
O1 C5 1_555 1_555
O2 C17 1_555 1_555
C1 H1 1_555 1_555
C2 C1 1_555 1_555
H2 C2 1_555 1_555
C3 C2 1_555 1_555
H3 C3 1_555 1_555
C4 N1 1_555 1_555
C5 C4 1_555 1_555
C6 C5 1_555 1_555
C7 N1 1_555 1_555
C8 C7 1_555 1_555
H4 C8 1_555 1_555
C9 C8 1_555 1_555
H5 C9 1_555 1_555
C10 C9 1_555 1_555
C11 C6 1_555 1_555
H6 C11 1_555 1_555
C12 C10 1_555 1_555
C13 C12 1_555 1_555
C14 C13 1_555 1_555
C15 C14 1_555 1_555
H7 C15 1_555 1_555
C16 C15 1_555 1_555
H8 C16 1_555 1_555
C17 C16 1_555 1_555
C18 C17 1_555 1_555
H9 C18 1_555 1_555
C19 C14 1_555 1_555
H10 C19 1_555 1_555
C20 O2 1_555 1_555
H11 C20 1_555 1_555
H12 C20 1_555 1_555
H13 C20 1_555 1_555
C3 C4 1_555 1_555
C6 C7 1_555 1_555
C10 C11 1_555 1_555
C18 C19 1_555 1_555

#END
