
#######################################################################
#
#                 Cambridge Crystallographic Data Centre
#                                CCDC 
#
#######################################################################
#
# If this CIF has been generated from an entry in the Cambridge 
# Structural Database, then it will include bibliographic, chemical, 
# crystal, experimental, refinement or atomic coordinate data resulting 
# from the CCDC's data processing and validation procedures.
#
#######################################################################

data_IDOVIJ
_chemical_formula_moiety         'C20 H11 F2 N1 O2'
_chemical_name_systematic        
1,2-difluoro-7-((4-methoxyphenyl)ethynyl)-9H-pyrrolo[1,2-a]indol-9-one
_symmetry_cell_setting           triclinic
_symmetry_space_group_name_H-M   'P -1'
_symmetry_Int_Tables_number      2
_space_group_name_Hall           '-P 1'
loop_
_symmetry_equiv_pos_site_id
_symmetry_equiv_pos_as_xyz
1 x,y,z
2 -x,-y,-z
_cell_length_a                   8.1881(5)
_cell_length_b                   13.3441(9)
_cell_length_c                   15.3811(10)
_cell_angle_alpha                70.201(2)
_cell_angle_beta                 78.534(3)
_cell_angle_gamma                85.233(2)
_cell_volume                     1549.45
_exptl_crystal_colour            red
_exptl_crystal_description       Block
_cell_formula_units_Z            4
loop_
_atom_site_label
_atom_site_type_symbol
_atom_site_fract_x
_atom_site_fract_y
_atom_site_fract_z
N1 N 0.43973(18) 0.62240(12) 0.62950(11)
C1 C 0.5225(2) 0.71125(15) 0.62296(15)
F1 F 0.63476(15) 0.75952(10) 0.73677(9)
O1 O 0.61894(17) 0.86723(11) 0.49127(10)
O2 O 0.2989(2) 0.86190(12) -0.19996(10)
C2 C 0.4051(2) 0.62972(14) 0.54121(14)
C3 C 0.3227(2) 0.56128(14) 0.51595(14)
H1 H 0.2779 0.4983 0.5598
C4 C 0.4712(2) 0.72517(14) 0.47589(14)
C5 C 0.4573(2) 0.75263(15) 0.38387(14)
H2 H 0.5013 0.8161 0.3405
C6 C 0.3091(2) 0.59025(15) 0.42214(14)
H3 H 0.2534 0.5456 0.4031
C7 C 0.3759(2) 0.68381(15) 0.35556(14)
C8 C 0.5489(2) 0.78215(16) 0.52569(15)
F2 F 0.50241(19) 0.55099(11) 0.85936(9)
C9 C 0.3608(2) 0.71122(16) 0.25907(17)
C10 C 0.4210(2) 0.55067(16) 0.71733(15)
H4 H 0.3704 0.4847 0.7386
C11 C 0.4923(3) 0.59554(18) 0.76816(15)
C12 C 0.5547(2) 0.69436(17) 0.71082(16)
C13 C 0.2828(3) 0.70050(17) 0.04178(16)
H5 H 0.2540 0.6312 0.0793
C14 C 0.3493(3) 0.73606(17) 0.17812(17)
C15 C 0.3660(3) 0.90517(18) -0.07047(16)
H6 H 0.3944 0.9745 -0.1082
C16 C 0.3361(2) 0.76884(16) 0.08142(15)
C17 C 0.3140(2) 0.83663(17) -0.10823(14)
C18 C 0.3761(3) 0.87158(18) 0.02288(16)
H7 H 0.4108 0.9191 0.0477
C19 C 0.2722(3) 0.73348(17) -0.05094(16)
H8 H 0.2367 0.6865 -0.0761
C20 C 0.3494(4) 0.9654(2) -0.26142(18)
H9 H 0.2778 1.0180 -0.2427
H10 H 0.3421 0.9717 -0.3246
H11 H 0.4623 0.9763 -0.2584
N2 N 0.94474(18) 0.25346(13) 0.36889(12)
O3 O 1.12656(17) 0.35685(11) 0.50652(10)
C21 C 1.0298(2) 0.33466(15) 0.37602(14)
F3 F 1.13431(15) 0.50136(10) 0.26246(9)
O4 O 0.8202(2) -0.33785(12) 1.19081(11)
C22 C 0.9054(2) 0.17303(15) 0.45714(14)
F4 F 0.98449(18) 0.42512(11) 0.13879(9)
C23 C 1.0542(2) 0.30729(15) 0.47269(14)
C24 C 0.9168(2) 0.27548(17) 0.28033(15)
H12 H 0.8622 0.2331 0.2585
C25 C 0.9515(2) 0.13891(15) 0.61378(15)
H13 H 0.9961 0.1583 0.6567
C26 C 0.9709(2) 0.20256(15) 0.52174(14)
C27 C 0.7982(2) 0.01708(15) 0.57641(15)
H14 H 0.7394 -0.0458 0.5956
C28 C 0.8450(2) -0.02468(17) 0.73825(17)
C29 C 0.8357(3) -0.08067(17) 0.81799(17)
C30 C 0.8181(2) 0.08095(15) 0.48295(15)
H15 H 0.7741 0.0621 0.4395
C31 C 0.8634(2) 0.04398(15) 0.64259(14)
C32 C 1.0549(2) 0.40925(16) 0.28848(15)
C33 C 0.7732(3) -0.25013(17) 0.94850(16)
H16 H 0.7355 -0.2785 0.9087
C34 C 0.8253(2) -0.27046(17) 1.10093(15)
C35 C 0.8811(3) -0.10684(17) 0.97665(16)
H17 H 0.9181 -0.0372 0.9555
C36 C 0.8796(3) -0.16771(18) 1.06853(16)
H18 H 0.9154 -0.1393 1.1089
C37 C 0.8290(2) -0.14632(16) 0.91426(15)
C38 C 0.9850(3) 0.37233(18) 0.22989(15)
C39 C 0.7727(3) -0.31132(18) 1.03991(16)
H19 H 0.7367 -0.3812 1.0613
C40 C 0.8762(3) -0.2985(2) 1.25523(16)
H20 H 0.9902 -0.2772 1.2320
H21 H 0.8679 -0.3535 1.3153
H22 H 0.8083 -0.2384 1.2617
loop_
_geom_bond_atom_site_label_1
_geom_bond_atom_site_label_2
_geom_bond_site_symmetry_1
_geom_bond_site_symmetry_2
N1 C1 1_555 1_555
C1 C8 1_555 1_555
F1 C12 1_555 1_555
O1 C8 1_555 1_555
O2 C17 1_555 1_555
C2 N1 1_555 1_555
C3 C2 1_555 1_555
H1 C3 1_555 1_555
C4 C2 1_555 1_555
C5 C4 1_555 1_555
H2 C5 1_555 1_555
C6 C3 1_555 1_555
H3 C6 1_555 1_555
C7 C5 1_555 1_555
C8 C4 1_555 1_555
F2 C11 1_555 1_555
C9 C7 1_555 1_555
C10 N1 1_555 1_555
H4 C10 1_555 1_555
C11 C10 1_555 1_555
C12 C1 1_555 1_555
C13 H5 1_555 1_555
C14 C9 1_555 1_555
C15 H6 1_555 1_555
C16 C13 1_555 1_555
C17 C15 1_555 1_555
C18 C15 1_555 1_555
H7 C18 1_555 1_555
C19 C13 1_555 1_555
H8 C19 1_555 1_555
C20 O2 1_555 1_555
H9 C20 1_555 1_555
H10 C20 1_555 1_555
H11 C20 1_555 1_555
N2 C21 1_555 1_555
O3 C23 1_555 1_555
C21 C23 1_555 1_555
F3 C32 1_555 1_555
O4 C34 1_555 1_555
C22 N2 1_555 1_555
F4 C38 1_555 1_555
C23 C26 1_555 1_555
C24 N2 1_555 1_555
H12 C24 1_555 1_555
C25 H13 1_555 1_555
C26 C22 1_555 1_555
C27 H14 1_555 1_555
C28 C29 1_555 1_555
C29 C37 1_555 1_555
C30 C22 1_555 1_555
H15 C30 1_555 1_555
C31 C25 1_555 1_555
C32 C21 1_555 1_555
C33 H16 1_555 1_555
C34 C36 1_555 1_555
C35 H17 1_555 1_555
C36 C35 1_555 1_555
H18 C36 1_555 1_555
C37 C33 1_555 1_555
C38 C24 1_555 1_555
C39 C33 1_555 1_555
H19 C39 1_555 1_555
C40 O4 1_555 1_555
H20 C40 1_555 1_555
H21 C40 1_555 1_555
H22 C40 1_555 1_555
C6 C7 1_555 1_555
C11 C12 1_555 1_555
C14 C16 1_555 1_555
C16 C18 1_555 1_555
C17 C19 1_555 1_555
C25 C26 1_555 1_555
C27 C30 1_555 1_555
C27 C31 1_555 1_555
C28 C31 1_555 1_555
C32 C38 1_555 1_555
C34 C39 1_555 1_555
C35 C37 1_555 1_555

#END
