
#######################################################################
#
#                 Cambridge Crystallographic Data Centre
#                                CCDC 
#
#######################################################################
#
# If this CIF has been generated from an entry in the Cambridge 
# Structural Database, then it will include bibliographic, chemical, 
# crystal, experimental, refinement or atomic coordinate data resulting 
# from the CCDC's data processing and validation procedures.
#
#######################################################################

data_IDOVOO
_chemical_formula_moiety         'C12 H11 N1 O2 S2,0.5(H2 O1)'
_chemical_name_systematic        
'5-Hydroxy-7-phenyl-3,5,6,7-tetrahydro-2H-thiopyrano[2,3-d][1,3]thiazol-2-one hemihydrate'
_symmetry_cell_setting           monoclinic
_symmetry_space_group_name_H-M   'P 21'
_symmetry_Int_Tables_number      4
_space_group_name_Hall           'P 2yb'
loop_
_symmetry_equiv_pos_site_id
_symmetry_equiv_pos_as_xyz
1 x,y,z
2 -x,1/2+y,-z
_cell_length_a                   11.1316(3)
_cell_length_b                   7.8164(2)
_cell_length_c                   14.6890(4)
_cell_angle_alpha                90
_cell_angle_beta                 97.406(2)
_cell_angle_gamma                90
_cell_volume                     1267.41
_exptl_crystal_colour            yellow
_exptl_crystal_description       sheet
_cell_formula_units_Z            4
loop_
_atom_site_label
_atom_site_type_symbol
_atom_site_fract_x
_atom_site_fract_y
_atom_site_fract_z
S1 S 0.70772(8) 0.64170(12) 0.17954(6)
S2 S 0.72218(9) 1.16332(14) 0.09373(7)
N1 N 0.6034(3) 0.8599(5) 0.0679(2)
O1 O 0.5081(3) 0.5980(4) 0.0600(2)
O2 O 0.9632(3) 1.1153(5) 0.1110(2)
C1 C 0.5891(3) 0.6942(5) 0.0909(2)
C2 C 0.6988(3) 0.9475(5) 0.1182(2)
C3 C 0.7644(3) 0.8514(5) 0.1819(2)
C4 C 0.8755(3) 0.9026(6) 0.2462(2)
H1 H 0.9477 0.8592 0.2206
C5 C 0.8844(4) 1.0989(6) 0.2515(3)
H2 H 0.8199 1.1424 0.2847
H3 H 0.9621 1.1304 0.2866
C6 C 0.8744(4) 1.1835(6) 0.1589(3)
H4 H 0.8918 1.3068 0.1686
C7 C 0.8761(3) 0.8266(5) 0.3421(2)
C8 C 0.9714(4) 0.7249(6) 0.3809(3)
H5 H 1.0360 0.7003 0.3477
C9 C 0.9715(4) 0.6595(7) 0.4689(3)
H6 H 1.0361 0.5904 0.4949
C10 C 0.8787(4) 0.6950(6) 0.5178(3)
H7 H 0.8801 0.6515 0.5776
C11 C 0.7825(4) 0.7942(6) 0.4801(3)
H8 H 0.7182 0.8175 0.5139
C12 C 0.7812(3) 0.8592(5) 0.3924(3)
H9 H 0.7154 0.9263 0.3666
H10 H 0.550(3) 0.916(5) 0.035(2)
H11 H 0.949(4) 1.148(7) 0.053(4)
S3 S 0.72651(9) 0.90792(12) 0.72148(6)
S4 S 0.70967(9) 0.48218(13) 0.90072(6)
N2 N 0.7932(3) 0.8038(5) 0.8838(2)
O3 O 0.8772(3) 1.0642(4) 0.8516(2)
O4 O 0.7593(2) 0.3180(4) 0.7479(2)
C13 C 0.8115(4) 0.9379(5) 0.8299(3)
C14 C 0.7224(3) 0.6740(5) 0.8413(2)
C15 C 0.6767(3) 0.7072(5) 0.7540(2)
C16 C 0.6057(3) 0.5919(5) 0.6859(2)
H12 H 0.6610 0.5505 0.6430
C17 C 0.5613(3) 0.4348(5) 0.7354(3)
H13 H 0.4974 0.4704 0.7714
H14 H 0.5263 0.3516 0.6895
C18 C 0.6632(4) 0.3493(5) 0.7989(3)
H15 H 0.6334 0.2382 0.8194
C19 C 0.4978(3) 0.6770(5) 0.6289(2)
C20 C 0.4695(3) 0.6324(5) 0.5367(2)
H16 H 0.5195 0.5555 0.5098
C21 C 0.3678(4) 0.7010(5) 0.4842(3)
H17 H 0.3496 0.6707 0.4221
C22 C 0.2938(4) 0.8132(6) 0.5232(3)
H18 H 0.2241 0.8574 0.4882
C23 C 0.3228(4) 0.8605(6) 0.6142(3)
H19 H 0.2736 0.9393 0.6405
C24 C 0.4232(4) 0.7927(6) 0.6664(2)
H20 H 0.4415 0.8253 0.7283
H21 H 0.833(4) 0.801(7) 0.941(3)
H22 H 0.796(5) 0.235(6) 0.768(4)
O5 O 0.9721(3) 0.7802(5) 0.03819(18)
H23 H 1.001(6) 0.879(8) 0.072(5)
H24 H 1.006(4) 0.699(5) 0.084(3)
loop_
_geom_bond_atom_site_label_1
_geom_bond_atom_site_label_2
_geom_bond_site_symmetry_1
_geom_bond_site_symmetry_2
S1 C1 1_555 1_555
S2 C2 1_555 1_555
N1 C1 1_555 1_555
O1 C1 1_555 1_555
O2 C6 1_555 1_555
C2 N1 1_555 1_555
C3 S1 1_555 1_555
C4 C3 1_555 1_555
H1 C4 1_555 1_555
C5 C4 1_555 1_555
H2 C5 1_555 1_555
H3 C5 1_555 1_555
C6 S2 1_555 1_555
H4 C6 1_555 1_555
C7 C4 1_555 1_555
C8 C7 1_555 1_555
H5 C8 1_555 1_555
C9 C8 1_555 1_555
H6 C9 1_555 1_555
C10 C9 1_555 1_555
H7 C10 1_555 1_555
C11 C10 1_555 1_555
H8 C11 1_555 1_555
C12 C7 1_555 1_555
H9 C12 1_555 1_555
H10 N1 1_555 1_555
H11 O2 1_555 1_555
S3 C13 1_555 1_555
S4 C14 1_555 1_555
N2 C13 1_555 1_555
O3 C13 1_555 1_555
O4 C18 1_555 1_555
C14 N2 1_555 1_555
C15 S3 1_555 1_555
C16 C15 1_555 1_555
H12 C16 1_555 1_555
C17 C16 1_555 1_555
H13 C17 1_555 1_555
H14 C17 1_555 1_555
C18 S4 1_555 1_555
H15 C18 1_555 1_555
C19 C16 1_555 1_555
C20 C19 1_555 1_555
H16 C20 1_555 1_555
C21 C20 1_555 1_555
H17 C21 1_555 1_555
C22 C21 1_555 1_555
H18 C22 1_555 1_555
C23 C22 1_555 1_555
H19 C23 1_555 1_555
C24 C19 1_555 1_555
H20 C24 1_555 1_555
H21 N2 1_555 1_555
H22 O4 1_555 1_555
O5 H23 1_555 1_555
H24 O5 1_555 1_555
C2 C3 1_555 1_555
C5 C6 1_555 1_555
C11 C12 1_555 1_555
C14 C15 1_555 1_555
C17 C18 1_555 1_555
C23 C24 1_555 1_555

#END
