
#######################################################################
#
#                 Cambridge Crystallographic Data Centre
#                                CCDC 
#
#######################################################################
#
# If this CIF has been generated from an entry in the Cambridge 
# Structural Database, then it will include bibliographic, chemical, 
# crystal, experimental, refinement or atomic coordinate data resulting 
# from the CCDC's data processing and validation procedures.
#
#######################################################################

data_IDOVUU
_chemical_formula_moiety         'C21 H17 N1 O3 S1'
_chemical_name_systematic        
2,4-Dioxo-6,10-diphenyl-1-thia-3-azaspiro[4.5]dec-7-ene-7-carbaldehyde
_symmetry_cell_setting           tetragonal
_symmetry_space_group_name_H-M   'P 43'
_symmetry_Int_Tables_number      78
_space_group_name_Hall           'P 4cw'
loop_
_symmetry_equiv_pos_site_id
_symmetry_equiv_pos_as_xyz
1 x,y,z
2 -x,-y,1/2+z
3 -y,x,3/4+z
4 y,-x,1/4+z
_cell_length_a                   9.8991(10)
_cell_length_b                   9.8991(10)
_cell_length_c                   19.413(2)
_cell_angle_alpha                90
_cell_angle_beta                 90
_cell_angle_gamma                90
_cell_volume                     1902.32
_exptl_crystal_colour            colorless
_exptl_crystal_description       sheet
_cell_formula_units_Z            4
loop_
_atom_site_label
_atom_site_type_symbol
_atom_site_fract_x
_atom_site_fract_y
_atom_site_fract_z
S1 S 0.66675(6) 0.84605(8) 0.15267(3)
N1 N 0.6909(2) 1.0393(3) 0.06459(14)
H1 H 0.7275 1.0983 0.0380
O1 O 0.2423(2) 1.1678(2) 0.24431(12)
O2 O 0.8895(2) 0.9469(5) 0.1008(2)
O3 O 0.4770(2) 1.10648(18) 0.04173(10)
C1 C 0.5106(2) 0.7389(2) 0.02379(14)
C2 C 0.5395(3) 0.8038(3) -0.03784(15)
H2 H 0.5085 0.8914 -0.0449
C3 C 0.6135(3) 0.7406(4) -0.08910(17)
H3 H 0.6330 0.7860 -0.1298
C4 C 0.6577(3) 0.6108(4) -0.07940(18)
H4 H 0.7062 0.5675 -0.1140
C5 C 0.6309(4) 0.5451(4) -0.0195(2)
H5 H 0.6616 0.4572 -0.0133
C6 C 0.5579(3) 0.6082(3) 0.03260(19)
H6 H 0.5408 0.5626 0.0735
C7 C 0.4296(2) 0.8063(2) 0.08027(13)
H7 H 0.4091 0.7359 0.1142
C8 C 0.2943(3) 0.8581(3) 0.05375(15)
H8 H 0.3092 0.9078 0.0114
H9 H 0.2370 0.7814 0.0430
C9 C 0.2226(2) 0.9465(3) 0.10318(15)
H10 H 0.1312 0.9625 0.0957
C10 C 0.2802(2) 1.0048(2) 0.15754(14)
C11 C 0.1993(3) 1.0979(3) 0.19798(16)
H11 H 0.1078 1.1044 0.1876
C12 C 0.4255(2) 0.9843(2) 0.17877(12)
H12 H 0.4636 1.0744 0.1863
C13 C 0.5097(2) 0.9182(2) 0.11931(11)
C14 C 0.5546(2) 1.0313(2) 0.07081(12)
C15 C 0.7685(3) 0.9512(4) 0.1015(2)
C16 C 0.4360(2) 0.9094(2) 0.24716(12)
C17 C 0.3562(3) 0.7992(3) 0.26273(16)
H13 H 0.2928 0.7687 0.2310
C18 C 0.3701(4) 0.7335(4) 0.3255(2)
H14 H 0.3161 0.6589 0.3352
C19 C 0.4621(4) 0.7770(4) 0.37328(19)
H15 H 0.4708 0.7324 0.4152
C20 C 0.5408(4) 0.8862(4) 0.35884(16)
H16 H 0.6034 0.9160 0.3912
C21 C 0.5287(3) 0.9535(3) 0.29645(14)
H17 H 0.5825 1.0284 0.2874
loop_
_geom_bond_atom_site_label_1
_geom_bond_atom_site_label_2
_geom_bond_site_symmetry_1
_geom_bond_site_symmetry_2
S1 C13 1_555 1_555
N1 H1 1_555 1_555
O1 C11 1_555 1_555
O2 C15 1_555 1_555
O3 C14 1_555 1_555
C1 C2 1_555 1_555
C2 H2 1_555 1_555
C3 C2 1_555 1_555
H3 C3 1_555 1_555
C4 C3 1_555 1_555
H4 C4 1_555 1_555
C5 C4 1_555 1_555
H5 C5 1_555 1_555
C6 C1 1_555 1_555
H6 C6 1_555 1_555
C7 C1 1_555 1_555
H7 C7 1_555 1_555
C8 C7 1_555 1_555
H8 C8 1_555 1_555
H9 C8 1_555 1_555
C9 C8 1_555 1_555
H10 C9 1_555 1_555
C10 C9 1_555 1_555
C11 C10 1_555 1_555
H11 C11 1_555 1_555
C12 C10 1_555 1_555
H12 C12 1_555 1_555
C13 C7 1_555 1_555
C14 N1 1_555 1_555
C15 S1 1_555 1_555
C16 C12 1_555 1_555
C17 C16 1_555 1_555
H13 C17 1_555 1_555
C18 C17 1_555 1_555
H14 C18 1_555 1_555
C19 C18 1_555 1_555
H15 C19 1_555 1_555
C20 C19 1_555 1_555
H16 C20 1_555 1_555
C21 C16 1_555 1_555
H17 C21 1_555 1_555
N1 C15 1_555 1_555
C5 C6 1_555 1_555
C12 C13 1_555 1_555
C13 C14 1_555 1_555
C20 C21 1_555 1_555

#END
