
#######################################################################
#
#                 Cambridge Crystallographic Data Centre
#                                CCDC 
#
#######################################################################
#
# If this CIF has been generated from an entry in the Cambridge 
# Structural Database, then it will include bibliographic, chemical, 
# crystal, experimental, refinement or atomic coordinate data resulting 
# from the CCDC's data processing and validation procedures.
#
#######################################################################

data_IDOWII
_chemical_formula_moiety         'C28 H29 N3 O4'
_chemical_name_systematic        
(E)-4-(3-Ethoxy-4-(2-phenoxyethoxy)benzylideneamino)-1,5-dimethyl-2-phenyl-1H-pyrazol-3(2H)-one
_symmetry_cell_setting           triclinic
_symmetry_space_group_name_H-M   'P -1'
_symmetry_Int_Tables_number      2
_space_group_name_Hall           '-P 1'
loop_
_symmetry_equiv_pos_site_id
_symmetry_equiv_pos_as_xyz
1 x,y,z
2 -x,-y,-z
_cell_length_a                   9.804(6)
_cell_length_b                   10.226(7)
_cell_length_c                   13.055(8)
_cell_angle_alpha                99.985(11)
_cell_angle_beta                 90.178(11)
_cell_angle_gamma                106.223(10)
_cell_volume                     1235.85
_exptl_crystal_colour            yellow
_exptl_crystal_description       Block
_cell_formula_units_Z            2
_exptl_crystal_recrystallization_method ethanol
loop_
_atom_site_label
_atom_site_type_symbol
_atom_site_fract_x
_atom_site_fract_y
_atom_site_fract_z
O1 O -0.40014(17) 0.20489(18) 0.54329(12)
O2 O -0.16508(15) 0.16903(15) 0.40328(13)
O3 O 0.03020(16) 0.33787(15) 0.32225(15)
O4 O 0.40920(15) -0.21969(15) 0.09608(12)
N1 N 0.39721(18) 0.07544(18) 0.20346(13)
N2 N 0.72542(18) 0.04093(17) 0.10314(14)
N3 N 0.63994(18) -0.09564(17) 0.06898(14)
C1 C -0.5029(3) 0.3133(2) 0.68088(19)
H1 H -0.4390 0.2962 0.7260
C2 C -0.5999(3) 0.3796(3) 0.7194(2)
H2 H -0.6007 0.4085 0.7909
C3 C -0.6957(3) 0.4040(3) 0.6548(3)
H3 H -0.7623 0.4479 0.6820
C4 C -0.6930(3) 0.3629(3) 0.5486(3)
H4 H -0.7575 0.3803 0.5042
C5 C -0.5954(3) 0.2964(3) 0.5076(2)
H5 H -0.5940 0.2685 0.4360
C6 C -0.5001(2) 0.2718(2) 0.57439(18)
C7 C -0.4072(2) 0.1424(3) 0.43626(18)
H6 H -0.3930 0.2126 0.3930
H7 H -0.5000 0.0766 0.4171
C8 C -0.2941(2) 0.0699(2) 0.4197(2)
H8 H -0.2817 0.0302 0.4803
H9 H -0.3206 -0.0044 0.3597
C9 C -0.0571(2) 0.1180(2) 0.36551(16)
C10 C 0.0497(2) 0.2105(2) 0.32001(17)
C11 C 0.1379(3) 0.4388(3) 0.2841(3)
H10 H 0.1483 0.4081 0.2107
H11 H 0.2281 0.4534 0.3215
C12 C 0.0964(3) 0.5693(3) 0.2994(3)
H12 H 0.0073 0.5539 0.2618
H13 H 0.1682 0.6394 0.2741
H14 H 0.0867 0.5990 0.3722
C13 C 0.1607(2) 0.1681(2) 0.27683(17)
H15 H 0.2298 0.2284 0.2453
C14 C 0.1714(2) 0.0353(2) 0.27956(15)
C15 C 0.0676(2) -0.0528(2) 0.32631(17)
H16 H 0.0743 -0.1410 0.3294
C16 C -0.0464(2) -0.0117(2) 0.36874(17)
H17 H -0.1159 -0.0726 0.3995
C17 C 0.2900(2) -0.0093(2) 0.23359(16)
H18 H 0.2872 -0.1021 0.2261
C18 C 0.5066(2) 0.0289(2) 0.15583(16)
C19 C 0.6385(2) 0.1151(2) 0.14719(16)
C20 C 0.5039(2) -0.1088(2) 0.10672(16)
C21 C 0.6898(3) 0.2675(2) 0.1783(2)
H19 H 0.7752 0.2923 0.2221
H20 H 0.6182 0.3004 0.2158
H21 H 0.7091 0.3088 0.1173
C22 C 0.8387(2) 0.0966(3) 0.03654(19)
H22 H 0.8004 0.1318 -0.0170
H23 H 0.8786 0.0245 0.0052
H24 H 0.9116 0.1701 0.0777
C23 C 0.7046(2) -0.2051(2) 0.05040(16)
C24 C 0.8323(2) -0.1933(2) 0.10184(18)
H25 H 0.8784 -0.1122 0.1475
C25 C 0.8907(3) -0.3023(3) 0.0850(2)
H26 H 0.9775 -0.2941 0.1182
C26 C 0.8214(3) -0.4233(3) 0.0192(2)
H27 H 0.8604 -0.4974 0.0091
C27 C 0.6935(3) -0.4351(2) -0.0322(2)
H28 H 0.6465 -0.5170 -0.0766
C28 C 0.6361(2) -0.3251(2) -0.01732(18)
H29 H 0.5513 -0.3318 -0.0529
loop_
_geom_bond_atom_site_label_1
_geom_bond_atom_site_label_2
_geom_bond_site_symmetry_1
_geom_bond_site_symmetry_2
O1 C6 1_555 1_555
O2 C8 1_555 1_555
O3 C10 1_555 1_555
O4 C20 1_555 1_555
N1 C17 1_555 1_555
N2 N3 1_555 1_555
N3 C20 1_555 1_555
C1 H1 1_555 1_555
C2 C1 1_555 1_555
H2 C2 1_555 1_555
C3 C2 1_555 1_555
H3 C3 1_555 1_555
C4 C3 1_555 1_555
H4 C4 1_555 1_555
C5 C4 1_555 1_555
H5 C5 1_555 1_555
C6 C1 1_555 1_555
C7 O1 1_555 1_555
H6 C7 1_555 1_555
H7 C7 1_555 1_555
C8 C7 1_555 1_555
H8 C8 1_555 1_555
H9 C8 1_555 1_555
C9 O2 1_555 1_555
C10 C9 1_555 1_555
C11 O3 1_555 1_555
H10 C11 1_555 1_555
H11 C11 1_555 1_555
C12 C11 1_555 1_555
H12 C12 1_555 1_555
H13 C12 1_555 1_555
H14 C12 1_555 1_555
C13 C10 1_555 1_555
H15 C13 1_555 1_555
C14 C13 1_555 1_555
C15 C14 1_555 1_555
H16 C15 1_555 1_555
C16 C9 1_555 1_555
H17 C16 1_555 1_555
C17 C14 1_555 1_555
H18 C17 1_555 1_555
C18 N1 1_555 1_555
C19 N2 1_555 1_555
C20 C18 1_555 1_555
C21 C19 1_555 1_555
H19 C21 1_555 1_555
H20 C21 1_555 1_555
H21 C21 1_555 1_555
C22 N2 1_555 1_555
H22 C22 1_555 1_555
H23 C22 1_555 1_555
H24 C22 1_555 1_555
C23 N3 1_555 1_555
C24 C23 1_555 1_555
H25 C24 1_555 1_555
C25 C24 1_555 1_555
H26 C25 1_555 1_555
C26 C25 1_555 1_555
H27 C26 1_555 1_555
C27 C26 1_555 1_555
H28 C27 1_555 1_555
C28 C23 1_555 1_555
H29 C28 1_555 1_555
C5 C6 1_555 1_555
C15 C16 1_555 1_555
C18 C19 1_555 1_555
C27 C28 1_555 1_555

#END
