
#######################################################################
#
#                 Cambridge Crystallographic Data Centre
#                                CCDC 
#
#######################################################################
#
# If this CIF has been generated from an entry in the Cambridge 
# Structural Database, then it will include bibliographic, chemical, 
# crystal, experimental, refinement or atomic coordinate data resulting 
# from the CCDC's data processing and validation procedures.
#
#######################################################################

data_IDOXAB
_chemical_formula_moiety         'C26 H24 Cl1 N3 O3'
_chemical_name_systematic        
(E)-4-(4-(4-Chlorobenzyloxy)-3-methoxybenzylideneamino)-1,5-dimethyl-2-phenyl-1H-pyrazol-3(2H)-one
_symmetry_cell_setting           monoclinic
_symmetry_space_group_name_H-M   'P 21/c'
_symmetry_Int_Tables_number      14
_space_group_name_Hall           '-P 2ybc'
loop_
_symmetry_equiv_pos_site_id
_symmetry_equiv_pos_as_xyz
1 x,y,z
2 -x,1/2+y,1/2-z
3 -x,-y,-z
4 x,1/2-y,1/2+z
_cell_length_a                   16.831(3)
_cell_length_b                   7.4587(11)
_cell_length_c                   18.993(3)
_cell_angle_alpha                90
_cell_angle_beta                 99.099(3)
_cell_angle_gamma                90
_cell_volume                     2354.33
_exptl_crystal_colour            yellow
_exptl_crystal_description       Block
_cell_formula_units_Z            4
_exptl_crystal_recrystallization_method ethanol
loop_
_atom_site_label
_atom_site_type_symbol
_atom_site_fract_x
_atom_site_fract_y
_atom_site_fract_z
Cl1 Cl 1.47663(4) 0.78718(11) 1.03619(4)
O1 O 1.16542(8) 0.83051(19) 0.77232(7)
O2 O 1.14389(8) 1.10423(18) 0.69051(8)
O3 O 0.73314(9) 0.7469(2) 0.46936(8)
N1 N 0.87522(9) 1.0081(2) 0.52731(8)
N2 N 0.69518(10) 0.9904(2) 0.39524(9)
N3 N 0.73100(10) 1.1546(2) 0.38192(9)
C1 C 1.30875(14) 0.5857(3) 0.88680(13)
H1 H 1.2995 0.4778 0.8623
C2 C 1.37750(15) 0.6063(4) 0.93638(14)
H2 H 1.4141 0.5126 0.9455
C3 C 1.39130(13) 0.7644(3) 0.97175(12)
C4 C 1.33832(13) 0.9044(3) 0.95877(12)
H3 H 1.3485 1.0127 0.9828
C5 C 1.26936(13) 0.8815(3) 0.90924(12)
H4 H 1.2329 0.9755 0.9002
C6 C 1.25391(12) 0.7223(3) 0.87325(11)
C7 C 1.17592(13) 0.6919(3) 0.82412(12)
H5 H 1.1769 0.5764 0.8009
H6 H 1.1316 0.6926 0.8511
C8 C 1.09587(11) 0.8288(3) 0.72390(10)
C9 C 1.08498(11) 0.9777(3) 0.67810(10)
C10 C 1.01842(11) 0.9867(3) 0.62605(10)
H7 H 1.0120 1.0839 0.5950
C11 C 0.96002(11) 0.8509(3) 0.61912(10)
C12 C 0.97101(12) 0.7075(3) 0.66543(11)
H8 H 0.9324 0.6175 0.6618
C13 C 1.03873(12) 0.6951(3) 0.71740(10)
H9 H 1.0455 0.5967 0.7478
C14 C 1.12970(14) 1.2706(3) 0.65428(13)
H10 H 1.1236 1.2508 0.6038
H11 H 1.1744 1.3495 0.6687
H12 H 1.0815 1.3239 0.6659
C15 C 0.88824(12) 0.8658(3) 0.56460(10)
H13 H 0.8520 0.7710 0.5572
C16 C 0.80805(11) 1.0272(2) 0.47480(10)
C17 C 0.79560(11) 1.1773(3) 0.43336(10)
C18 C 0.84243(13) 1.3467(3) 0.44070(12)
H14 H 0.8657 1.3664 0.3984
H15 H 0.8844 1.3384 0.4811
H16 H 0.8074 1.4448 0.4473
C19 C 0.68134(14) 1.2968(3) 0.34546(13)
H17 H 0.6453 1.3409 0.3759
H18 H 0.6508 1.2504 0.3023
H19 H 0.7152 1.3927 0.3341
C20 C 0.74502(12) 0.9017(3) 0.45084(10)
C21 C 0.64583(12) 0.8972(3) 0.33912(11)
C22 C 0.66060(13) 0.9049(3) 0.26968(12)
H20 H 0.7023 0.9751 0.2579
C23 C 0.61241(16) 0.8065(4) 0.21794(14)
H21 H 0.6211 0.8124 0.1709
C24 C 0.55184(18) 0.7000(4) 0.23527(19)
H22 H 0.5202 0.6330 0.2002
C25 C 0.53817(16) 0.6928(4) 0.30462(18)
H23 H 0.4975 0.6198 0.3164
C26 C 0.58438(13) 0.7933(3) 0.35715(14)
H24 H 0.5741 0.7907 0.4038
loop_
_geom_bond_atom_site_label_1
_geom_bond_atom_site_label_2
_geom_bond_site_symmetry_1
_geom_bond_site_symmetry_2
Cl1 C3 1_555 1_555
O1 C7 1_555 1_555
O2 C9 1_555 1_555
O3 C20 1_555 1_555
N1 C15 1_555 1_555
N2 N3 1_555 1_555
N3 C17 1_555 1_555
C1 H1 1_555 1_555
C2 C1 1_555 1_555
H2 C2 1_555 1_555
C3 C2 1_555 1_555
C4 C3 1_555 1_555
H3 C4 1_555 1_555
C5 C4 1_555 1_555
H4 C5 1_555 1_555
C6 C1 1_555 1_555
C7 C6 1_555 1_555
H5 C7 1_555 1_555
H6 C7 1_555 1_555
C8 O1 1_555 1_555
C9 C8 1_555 1_555
C10 C9 1_555 1_555
H7 C10 1_555 1_555
C11 C10 1_555 1_555
C12 C11 1_555 1_555
H8 C12 1_555 1_555
C13 C8 1_555 1_555
H9 C13 1_555 1_555
C14 O2 1_555 1_555
H10 C14 1_555 1_555
H11 C14 1_555 1_555
H12 C14 1_555 1_555
C15 C11 1_555 1_555
H13 C15 1_555 1_555
C16 N1 1_555 1_555
C17 C16 1_555 1_555
C18 C17 1_555 1_555
H14 C18 1_555 1_555
H15 C18 1_555 1_555
H16 C18 1_555 1_555
C19 N3 1_555 1_555
H17 C19 1_555 1_555
H18 C19 1_555 1_555
H19 C19 1_555 1_555
C20 N2 1_555 1_555
C21 N2 1_555 1_555
C22 C21 1_555 1_555
H20 C22 1_555 1_555
C23 C22 1_555 1_555
H21 C23 1_555 1_555
C24 C23 1_555 1_555
H22 C24 1_555 1_555
C25 C24 1_555 1_555
H23 C25 1_555 1_555
C26 C21 1_555 1_555
H24 C26 1_555 1_555
C5 C6 1_555 1_555
C12 C13 1_555 1_555
C16 C20 1_555 1_555
C25 C26 1_555 1_555

#END
