
#######################################################################
#
#                 Cambridge Crystallographic Data Centre
#                                CCDC 
#
#######################################################################
#
# If this CIF has been generated from an entry in the Cambridge 
# Structural Database, then it will include bibliographic, chemical, 
# crystal, experimental, refinement or atomic coordinate data resulting 
# from the CCDC's data processing and validation procedures.
#
#######################################################################

data_IDOZOT
_chemical_formula_moiety         'C14 H10 N1 O1 P1 S2'
_chemical_name_systematic        
4-(phenylamino)-4H-phospholo[3,2-b:4,5-b']bisthiophen-4-one
_symmetry_cell_setting           monoclinic
_symmetry_space_group_name_H-M   'P 21/c'
_symmetry_Int_Tables_number      14
_space_group_name_Hall           '-P 2ybc'
loop_
_symmetry_equiv_pos_site_id
_symmetry_equiv_pos_as_xyz
1 x,y,z
2 -x,1/2+y,1/2-z
3 -x,-y,-z
4 x,1/2-y,1/2+z
_cell_length_a                   10.4486(2)
_cell_length_b                   12.7675(3)
_cell_length_c                   10.0696(2)
_cell_angle_alpha                90
_cell_angle_beta                 93.3880(10)
_cell_angle_gamma                90
_cell_volume                     1340.96
_exptl_crystal_colour            colorless
_exptl_crystal_description       block
_cell_formula_units_Z            4
loop_
_atom_site_label
_atom_site_type_symbol
_atom_site_fract_x
_atom_site_fract_y
_atom_site_fract_z
C1 C 0.5605(4) 0.6481(4) 0.5437(5)
H1 H 0.6167 0.6006 0.5907
C2 C 0.4338(4) 0.6300(3) 0.5179(4)
H2 H 0.3910 0.5685 0.5442
C3 C 0.3725(4) 0.7138(3) 0.4471(4)
C4 C 0.4552(4) 0.7934(3) 0.4213(4)
C5 C 0.3947(4) 0.8836(3) 0.3556(4)
C6 C 0.2648(4) 0.8727(3) 0.3234(4)
C7 C 0.2089(4) 0.9651(3) 0.2687(4)
H3 H 0.1207 0.9720 0.2416
C8 C 0.2974(5) 1.0433(3) 0.2594(4)
H4 H 0.2777 1.1108 0.2240
C9 C 0.1485(4) 0.5663(3) 0.2648(4)
C10 C 0.1345(4) 0.5142(3) 0.3850(4)
H5 H 0.1389 0.5526 0.4660
C11 C 0.1140(4) 0.4070(4) 0.3871(5)
H6 H 0.1050 0.3725 0.4696
C12 C 0.1067(4) 0.3495(4) 0.2702(5)
H7 H 0.0936 0.2759 0.2720
C13 C 0.1188(4) 0.4019(4) 0.1497(5)
H8 H 0.1129 0.3635 0.0688
C14 C 0.1393(4) 0.5085(3) 0.1464(5)
H9 H 0.1471 0.5429 0.0636
H10 H 0.175(8) 0.712(6) 0.177(5)
N1 N 0.1684(3) 0.6744(3) 0.2581(3)
O1 O 0.1204(3) 0.7523(2) 0.4934(3)
P1 P 0.21249(9) 0.74905(7) 0.38743(9)
S1 S 0.60863(10) 0.76650(9) 0.48187(12)
S2 S 0.44878(11) 1.00595(8) 0.31893(11)
loop_
_geom_bond_atom_site_label_1
_geom_bond_atom_site_label_2
_geom_bond_site_symmetry_1
_geom_bond_site_symmetry_2
C1 H1 1_555 1_555
C2 C1 1_555 1_555
H2 C2 1_555 1_555
C3 C2 1_555 1_555
C4 C3 1_555 1_555
C5 C4 1_555 1_555
C6 C5 1_555 1_555
C7 C6 1_555 1_555
H3 C7 1_555 1_555
C8 C7 1_555 1_555
H4 C8 1_555 1_555
C9 C10 1_555 1_555
C10 H5 1_555 1_555
C11 C10 1_555 1_555
H6 C11 1_555 1_555
C12 C11 1_555 1_555
H7 C12 1_555 1_555
C13 C12 1_555 1_555
H8 C13 1_555 1_555
C14 C9 1_555 1_555
H9 C14 1_555 1_555
H10 N1 1_555 1_555
N1 C9 1_555 1_555
O1 P1 1_555 1_555
P1 C3 1_555 1_555
S1 C1 1_555 1_555
S2 C5 1_555 1_555
C4 S1 1_555 1_555
C6 P1 1_555 1_555
C8 S2 1_555 1_555
C13 C14 1_555 1_555
N1 P1 1_555 1_555

#END
