
#######################################################################
#
#                 Cambridge Crystallographic Data Centre
#                                CCDC 
#
#######################################################################
#
# If this CIF has been generated from an entry in the Cambridge 
# Structural Database, then it will include bibliographic, chemical, 
# crystal, experimental, refinement or atomic coordinate data resulting 
# from the CCDC's data processing and validation procedures.
#
#######################################################################

data_IDUBUF
_chemical_formula_moiety         'C7 H6 O4,C10 H8 N2'
_chemical_name_systematic        "4,4'-Bipyridine 2,4-dihydroxybenzoic acid"
_symmetry_cell_setting           monoclinic
_symmetry_space_group_name_H-M   'P 21/c'
_symmetry_Int_Tables_number      14
_space_group_name_Hall           '-P 2ybc'
loop_
_symmetry_equiv_pos_site_id
_symmetry_equiv_pos_as_xyz
1 x,y,z
2 -x,1/2+y,1/2-z
3 -x,-y,-z
4 x,1/2-y,1/2+z
_cell_length_a                   6.6085(8)
_cell_length_b                   10.7724(12)
_cell_length_c                   20.809(2)
_cell_angle_alpha                90
_cell_angle_beta                 95.942(2)
_cell_angle_gamma                90
_cell_volume                     1473.42
_exptl_crystal_colour            colorless
_exptl_crystal_description       plate
_cell_formula_units_Z            4
loop_
_atom_site_label
_atom_site_type_symbol
_atom_site_fract_x
_atom_site_fract_y
_atom_site_fract_z
C1 C 0.5905(2) 0.63261(14) 0.17562(7)
C2 C 0.7047(2) 0.73227(15) 0.15548(7)
C3 C 0.8696(3) 0.71044(15) 0.11999(8)
H1 H 0.9451 0.7767 0.1066
C4 C 0.9199(2) 0.59049(16) 0.10484(7)
C5 C 0.8075(3) 0.49116(15) 0.12448(8)
H2 H 0.8414 0.4105 0.1139
C6 C 0.6461(2) 0.51229(15) 0.15958(7)
H3 H 0.5723 0.4452 0.1729
C7 C 0.4150(2) 0.65560(15) 0.21211(8)
O1 O 0.3646(2) 0.76133(11) 0.22696(6)
O2 O 0.31697(19) 0.55641(11) 0.22725(6)
H4 H 0.2164 0.5768 0.2448
O3 O 0.6629(2) 0.85092(10) 0.16904(7)
H5 H 0.5643 0.8533 0.1899
O4 O 1.0780(2) 0.56469(13) 0.07082(6)
H6 H 1.1204 0.6292 0.0561
C8 C 0.9597(3) 0.72219(17) 0.30444(8)
H7 H 1.0278 0.7849 0.2848
C9 C 0.8150(3) 0.75540(16) 0.34489(7)
H8 H 0.7863 0.8386 0.3518
C10 C 0.7138(2) 0.66310(15) 0.37493(7)
C11 C 0.7581(3) 0.54070(16) 0.36078(8)
H9 H 0.6905 0.4758 0.3789
C12 C 0.9036(3) 0.51665(16) 0.31944(8)
H10 H 0.9314 0.4344 0.3101
C13 C 0.5655(2) 0.69477(16) 0.42184(7)
C14 C 0.5974(3) 0.79666(17) 0.46202(8)
H11 H 0.7110 0.8469 0.4600
C15 C 0.4581(3) 0.82285(18) 0.50521(8)
H12 H 0.4832 0.8907 0.5325
C16 C 0.2615(3) 0.65878(18) 0.47114(9)
H13 H 0.1454 0.6111 0.4739
C17 C 0.3928(3) 0.62381(18) 0.42724(8)
H14 H 0.3662 0.5538 0.4016
N1 N 1.0059(2) 0.60501(13) 0.29241(6)
N2 N 0.2911(2) 0.75722(15) 0.51007(7)
loop_
_geom_bond_atom_site_label_1
_geom_bond_atom_site_label_2
_geom_bond_site_symmetry_1
_geom_bond_site_symmetry_2
C1 C2 1_555 1_555
C2 C3 1_555 1_555
C3 H1 1_555 1_555
C4 C3 1_555 1_555
C5 C4 1_555 1_555
H2 C5 1_555 1_555
C6 C1 1_555 1_555
H3 C6 1_555 1_555
C7 C1 1_555 1_555
O1 C7 1_555 1_555
O2 C7 1_555 1_555
H4 O2 1_555 1_555
O3 C2 1_555 1_555
H5 O3 1_555 1_555
O4 C4 1_555 1_555
H6 O4 1_555 1_555
C8 H7 1_555 1_555
C9 C8 1_555 1_555
H8 C9 1_555 1_555
C10 C9 1_555 1_555
C11 C10 1_555 1_555
H9 C11 1_555 1_555
C12 C11 1_555 1_555
H10 C12 1_555 1_555
C13 C10 1_555 1_555
C14 C13 1_555 1_555
H11 C14 1_555 1_555
C15 C14 1_555 1_555
H12 C15 1_555 1_555
C16 H13 1_555 1_555
C17 C13 1_555 1_555
H14 C17 1_555 1_555
N1 C8 1_555 1_555
N2 C15 1_555 1_555
C5 C6 1_555 1_555
C12 N1 1_555 1_555
C16 C17 1_555 1_555
C16 N2 1_555 1_555

#END
