
#######################################################################
#
#                 Cambridge Crystallographic Data Centre
#                                CCDC 
#
#######################################################################
#
# If this CIF has been generated from an entry in the Cambridge 
# Structural Database, then it will include bibliographic, chemical, 
# crystal, experimental, refinement or atomic coordinate data resulting 
# from the CCDC's data processing and validation procedures.
#
#######################################################################

data_IDUDOB01
_chemical_formula_moiety         'C13 H17 N1 O2 S1'
_chemical_name_systematic        
7-((4-methylphenyl)sulfonyl)-7-azabicyclo[4.1.0]heptane
_symmetry_cell_setting           monoclinic
_symmetry_space_group_name_H-M   'P 21/c'
_symmetry_Int_Tables_number      14
_space_group_name_Hall           '-P 2ybc'
loop_
_symmetry_equiv_pos_site_id
_symmetry_equiv_pos_as_xyz
1 x,y,z
2 -x,1/2+y,1/2-z
3 -x,-y,-z
4 x,1/2-y,1/2+z
_cell_length_a                   6.4489(10)
_cell_length_b                   17.846(3)
_cell_length_c                   11.2973(17)
_cell_angle_alpha                90
_cell_angle_beta                 94.265(2)
_cell_angle_gamma                90
_cell_volume                     1296.57
_exptl_crystal_colour            colorless
_exptl_crystal_description       rod
_cell_formula_units_Z            4
loop_
_atom_site_label
_atom_site_type_symbol
_atom_site_fract_x
_atom_site_fract_y
_atom_site_fract_z
N1 N 0.4980(4) 0.64404(12) 0.3141(2)
C1 C 0.5649(5) 0.71171(18) 0.3835(3)
H1 H 0.5299 0.7602 0.3465
C2 C 0.3912(5) 0.66714(19) 0.4192(3)
H2 H 0.2530 0.6893 0.4032
C3 C 0.4155(7) 0.6152(3) 0.5230(3)
H3 H 0.3151 0.6288 0.5792
H4 H 0.3840 0.5646 0.4959
C4 C 0.6242(10) 0.6161(5) 0.5843(6)
H5 H 0.6167 0.6467 0.6548
H6 H 0.6545 0.5654 0.6112
C5 C 0.7889(9) 0.6399(5) 0.5290(6)
H7 H 0.8352 0.5981 0.4829
H8 H 0.8991 0.6502 0.5900
C6 C 0.7738(5) 0.7060(2) 0.4491(4)
H9 H 0.8793 0.7023 0.3926
H10 H 0.8005 0.7511 0.4956
S1 S 0.37276(13) 0.65702(4) 0.18248(7)
O1 O 0.2381(4) 0.72060(12) 0.1814(2)
O2 O 0.5272(4) 0.65421(14) 0.0980(2)
C7 C 0.2206(4) 0.57553(15) 0.1706(2)
C8 C 0.2988(5) 0.51157(16) 0.1226(2)
H11 H 0.4310 0.5118 0.0950
C9 C 0.1809(5) 0.44725(16) 0.1156(3)
H12 H 0.2338 0.4044 0.0819
C10 C -0.0153(5) 0.44530(17) 0.1578(2)
C11 C -0.0910(5) 0.5103(2) 0.2047(3)
H13 H -0.2228 0.5101 0.2330
C12 C 0.0228(5) 0.57487(19) 0.2107(3)
H14 H -0.0322 0.6182 0.2416
C13 C -0.1436(7) 0.3747(2) 0.1513(4)
H15 H -0.0672 0.3355 0.1158
H16 H -0.2711 0.3836 0.1040
H17 H -0.1741 0.3600 0.2299
loop_
_geom_bond_atom_site_label_1
_geom_bond_atom_site_label_2
_geom_bond_site_symmetry_1
_geom_bond_site_symmetry_2
N1 C1 1_555 1_555
C1 H1 1_555 1_555
C2 N1 1_555 1_555
H2 C2 1_555 1_555
C3 C2 1_555 1_555
H3 C3 1_555 1_555
H4 C3 1_555 1_555
C4 C3 1_555 1_555
H5 C4 1_555 1_555
H6 C4 1_555 1_555
C5 C4 1_555 1_555
H7 C5 1_555 1_555
H8 C5 1_555 1_555
C6 C1 1_555 1_555
H9 C6 1_555 1_555
H10 C6 1_555 1_555
S1 N1 1_555 1_555
O1 S1 1_555 1_555
O2 S1 1_555 1_555
C7 S1 1_555 1_555
C8 C7 1_555 1_555
H11 C8 1_555 1_555
C9 C8 1_555 1_555
H12 C9 1_555 1_555
C10 C9 1_555 1_555
C11 C10 1_555 1_555
H13 C11 1_555 1_555
C12 C7 1_555 1_555
H14 C12 1_555 1_555
C13 C10 1_555 1_555
H15 C13 1_555 1_555
H16 C13 1_555 1_555
H17 C13 1_555 1_555
C1 C2 1_555 1_555
C5 C6 1_555 1_555
C11 C12 1_555 1_555

#END
