
#######################################################################
#
#                 Cambridge Crystallographic Data Centre
#                                CCDC 
#
#######################################################################
#
# If this CIF has been generated from an entry in the Cambridge 
# Structural Database, then it will include bibliographic, chemical, 
# crystal, experimental, refinement or atomic coordinate data resulting 
# from the CCDC's data processing and validation procedures.
#
#######################################################################

data_IDUHEV
_chemical_formula_moiety         'C17 H21 N1 O2'
_chemical_name_systematic        
4,4'-Dimethyl-2,2'-(N-methyliminodimethylene)diphenol
_symmetry_cell_setting           triclinic
_symmetry_space_group_name_H-M   'P -1'
_symmetry_Int_Tables_number      2
_space_group_name_Hall           '-P 1'
loop_
_symmetry_equiv_pos_site_id
_symmetry_equiv_pos_as_xyz
1 x,y,z
2 -x,-y,-z
_cell_length_a                   5.8024(9)
_cell_length_b                   10.8867(17)
_cell_length_c                   12.5346(19)
_cell_angle_alpha                93.980(3)
_cell_angle_beta                 90.847(3)
_cell_angle_gamma                100.955(3)
_cell_volume                     775.178
_exptl_crystal_colour            colorless
_exptl_crystal_description       block
_chemical_melting_point          '325 K'
_cell_formula_units_Z            2
_exptl_crystal_recrystallization_method 'ethyl acetate/petroleum ether'
loop_
_atom_site_label
_atom_site_type_symbol
_atom_site_fract_x
_atom_site_fract_y
_atom_site_fract_z
N1 N 0.3533(2) 0.25651(10) 0.55805(10)
O1 O 0.1354(2) 0.42854(11) 0.64974(9)
H1 H 0.177(4) 0.3796(17) 0.6036(13)
O2 O 0.1181(2) 0.40206(10) 0.41050(10)
H2 H 0.033(3) 0.4478(18) 0.3865(17)
C1 C 0.4075(3) 0.33426(14) 0.74673(13)
C2 C 0.4814(3) 0.30243(16) 0.84495(14)
H3 H 0.6079 0.2614 0.8470
C3 C 0.3768(3) 0.32853(15) 0.93997(13)
C4 C 0.1870(3) 0.38733(16) 0.93425(14)
H4 H 0.1109 0.4052 0.9966
C5 C 0.1074(3) 0.42020(16) 0.83819(14)
H5 H -0.0207 0.4600 0.8365
C6 C 0.2162(3) 0.39451(13) 0.74482(12)
C7 C 0.4652(4) 0.2919(2) 1.04508(15)
H6 H 0.4146 0.2033 1.0501
H7 H 0.4034 0.3366 1.1032
H8 H 0.6336 0.3125 1.0486
C8 C 0.5256(3) 0.30827(17) 0.64320(13)
H9 H 0.6209 0.3856 0.6222
H10 H 0.6287 0.2495 0.6540
C9 C 0.2360(4) 0.12917(16) 0.57710(15)
H11 H 0.3480 0.0746 0.5733
H12 H 0.1137 0.1004 0.5237
H13 H 0.1693 0.1289 0.6467
C10 C 0.4577(3) 0.26228(16) 0.45199(12)
H14 H 0.5726 0.2081 0.4471
H15 H 0.5389 0.3474 0.4436
C11 C 0.2774(3) 0.22288(13) 0.36344(12)
C12 C 0.2688(3) 0.11365(14) 0.29788(12)
H16 H 0.3820 0.0653 0.3086
C13 C 0.0997(3) 0.07340(15) 0.21726(13)
C14 C -0.0649(3) 0.14720(16) 0.20286(13)
H17 H -0.1807 0.1226 0.1495
C15 C -0.0622(3) 0.25694(15) 0.26582(13)
H18 H -0.1756 0.3050 0.2546
C16 C 0.1086(3) 0.29518(13) 0.34535(12)
C17 C 0.0997(5) -0.04558(19) 0.14717(17)
H19 H -0.0464 -0.0686 0.1072
H20 H 0.1185 -0.1119 0.1912
H21 H 0.2270 -0.0317 0.0987
loop_
_geom_bond_atom_site_label_1
_geom_bond_atom_site_label_2
_geom_bond_site_symmetry_1
_geom_bond_site_symmetry_2
N1 C8 1_555 1_555
O1 H1 1_555 1_555
O2 H2 1_555 1_555
C1 C2 1_555 1_555
C2 H3 1_555 1_555
C3 C2 1_555 1_555
C4 C3 1_555 1_555
H4 C4 1_555 1_555
C5 C4 1_555 1_555
H5 C5 1_555 1_555
C6 O1 1_555 1_555
C7 C3 1_555 1_555
H6 C7 1_555 1_555
H7 C7 1_555 1_555
H8 C7 1_555 1_555
C8 C1 1_555 1_555
H9 C8 1_555 1_555
H10 C8 1_555 1_555
C9 N1 1_555 1_555
H11 C9 1_555 1_555
H12 C9 1_555 1_555
H13 C9 1_555 1_555
C10 N1 1_555 1_555
H14 C10 1_555 1_555
H15 C10 1_555 1_555
C11 C10 1_555 1_555
C12 C11 1_555 1_555
H16 C12 1_555 1_555
C13 C12 1_555 1_555
C14 C13 1_555 1_555
H17 C14 1_555 1_555
C15 C14 1_555 1_555
H18 C15 1_555 1_555
C16 O2 1_555 1_555
C17 C13 1_555 1_555
H19 C17 1_555 1_555
H20 C17 1_555 1_555
H21 C17 1_555 1_555
C1 C6 1_555 1_555
C5 C6 1_555 1_555
C11 C16 1_555 1_555
C15 C16 1_555 1_555

#END
