
#######################################################################
#
#                 Cambridge Crystallographic Data Centre
#                                CCDC 
#
#######################################################################
#
# If this CIF has been generated from an entry in the Cambridge 
# Structural Database, then it will include bibliographic, chemical, 
# crystal, experimental, refinement or atomic coordinate data resulting 
# from the CCDC's data processing and validation procedures.
#
#######################################################################

data_IDUJOG
_chemical_formula_moiety         'C25 H32 N4 O2'
_chemical_name_systematic        
4-((4-(Octanoylpiperazin-1-yl)phenyl)diazenyl)benzaldehyde
_symmetry_cell_setting           orthorhombic
_symmetry_space_group_name_H-M   'P 21 21 21'
_symmetry_Int_Tables_number      19
_space_group_name_Hall           'P 2ac 2ab'
loop_
_symmetry_equiv_pos_site_id
_symmetry_equiv_pos_as_xyz
1 x,y,z
2 1/2-x,-y,1/2+z
3 -x,1/2+y,1/2-z
4 1/2+x,1/2-y,-z
_cell_length_a                   7.4709(7)
_cell_length_b                   11.2442(10)
_cell_length_c                   26.389(3)
_cell_angle_alpha                90
_cell_angle_beta                 90
_cell_angle_gamma                90
_cell_volume                     2216.79
_cell_formula_units_Z            4
_exptl_crystal_recrystallization_method dichloromethane/hexane
loop_
_atom_site_label
_atom_site_type_symbol
_atom_site_fract_x
_atom_site_fract_y
_atom_site_fract_z
O1 O 0.9129(4) 0.1442(2) 0.25846(9)
O2 O 1.1680(4) 0.7109(3) -0.34876(10)
N1 N 0.8749(4) 0.2906(2) 0.20084(10)
N2 N 0.8865(4) 0.3672(2) 0.09710(10)
N3 N 1.0170(4) 0.5143(3) -0.10301(10)
N4 N 1.0308(4) 0.6255(3) -0.11046(10)
C1 C 0.8967(5) 0.2512(3) 0.24899(14)
C2 C 0.9021(5) 0.3438(3) 0.29063(12)
H1 H 0.7852(5) 0.3852(3) 0.29151(12)
H2 H 0.9944(5) 0.4035(3) 0.28193(12)
C3 C 0.9420(5) 0.2955(3) 0.34364(12)
H3 H 0.8428(5) 0.2428(3) 0.35443(12)
H4 H 1.0529(5) 0.2474(3) 0.34253(12)
C4 C 0.9643(5) 0.3951(3) 0.38215(12)
H5 H 0.8562(5) 0.4460(3) 0.38121(12)
H6 H 1.0676(5) 0.4448(3) 0.37197(12)
C5 C 0.9933(5) 0.3529(3) 0.43647(12)
H7 H 0.8887(5) 0.3050(3) 0.44717(12)
H8 H 1.1000(5) 0.3006(3) 0.43749(12)
C6 C 1.0194(5) 0.4543(3) 0.47376(12)
H9 H 0.9137(5) 0.5073(3) 0.47216(12)
H10 H 1.1251(5) 0.5013(3) 0.46324(12)
C7 C 1.0456(5) 0.4141(3) 0.52825(12)
H11 H 1.1507(5) 0.3607(3) 0.53003(12)
H12 H 0.9392(5) 0.3683(3) 0.53917(12)
C8 C 1.0737(6) 0.5185(3) 0.56459(13)
H13 H 1.0898(6) 0.4882(3) 0.59911(13)
H14 H 0.9689(6) 0.5708(3) 0.56353(13)
H15 H 1.1803(6) 0.5632(3) 0.55439(13)
C9 C 0.8374(5) 0.2076(3) 0.15952(13)
H16 H 0.7063(5) 0.2028(3) 0.15447(13)
H17 H 0.8801(5) 0.1274(3) 0.16931(13)
C10 C 0.9244(5) 0.2427(3) 0.11027(12)
H18 H 1.0554(5) 0.2314(3) 0.11301(12)
H19 H 0.8801(5) 0.1903(3) 0.08286(12)
C11 C 0.9224(5) 0.4501(3) 0.13875(12)
H20 H 0.8814(5) 0.5307(3) 0.12906(12)
H21 H 1.0530(5) 0.4538(3) 0.14496(12)
C12 C 0.8284(5) 0.4121(3) 0.18677(13)
H22 H 0.8619(5) 0.4666(3) 0.21466(13)
H23 H 0.6973(5) 0.4178(3) 0.18180(13)
C13 C 0.9225(5) 0.4041(3) 0.04766(12)
C14 C 0.9324(5) 0.3243(3) 0.00712(13)
H24 H 0.9191(5) 0.2416(3) 0.01338(13)
C15 C 0.9611(5) 0.3631(3) -0.04164(13)
H25 H 0.9648(5) 0.3071(3) -0.06855(13)
C16 C 0.9847(5) 0.4836(3) -0.05205(12)
C17 C 0.9769(5) 0.5633(3) -0.01224(12)
H26 H 0.9923(5) 0.6458(3) -0.01873(12)
C18 C 0.9474(5) 0.5256(3) 0.03624(13)
H27 H 0.9437(5) 0.5824(3) 0.06286(13)
C19 C 1.0654(5) 0.6558(3) -0.16226(13)
C20 C 1.1109(5) 0.5743(3) -0.19977(13)
H28 H 1.1210(5) 0.4921(3) -0.19184(13)
C21 C 1.1413(5) 0.6137(3) -0.24883(12)
H29 H 1.1724(5) 0.5583(3) -0.27455(12)
C22 C 1.1264(5) 0.7337(3) -0.26054(13)
C23 C 1.0831(5) 0.8141(3) -0.22230(13)
H30 H 1.0744(5) 0.8964(3) -0.23003(13)
C24 C 1.0526(5) 0.7758(3) -0.17324(13)
H31 H 1.0232(5) 0.8312(3) -0.14739(13)
C25 C 1.1562(5) 0.7770(4) -0.31268(14)
H32 H 1.1666(5) 0.8603(4) -0.31816(14)
loop_
_geom_bond_atom_site_label_1
_geom_bond_atom_site_label_2
_geom_bond_site_symmetry_1
_geom_bond_site_symmetry_2
O1 C1 1_555 1_555
O2 C25 1_555 1_555
N1 C1 1_555 1_555
N2 C10 1_555 1_555
N3 N4 1_555 1_555
N4 C19 1_555 1_555
C1 C2 1_555 1_555
C2 H1 1_555 1_555
H2 C2 1_555 1_555
C3 C2 1_555 1_555
H3 C3 1_555 1_555
H4 C3 1_555 1_555
C4 C3 1_555 1_555
H5 C4 1_555 1_555
H6 C4 1_555 1_555
C5 C4 1_555 1_555
H7 C5 1_555 1_555
H8 C5 1_555 1_555
C6 C5 1_555 1_555
H9 C6 1_555 1_555
H10 C6 1_555 1_555
C7 C6 1_555 1_555
H11 C7 1_555 1_555
H12 C7 1_555 1_555
C8 C7 1_555 1_555
H13 C8 1_555 1_555
H14 C8 1_555 1_555
H15 C8 1_555 1_555
C9 N1 1_555 1_555
H16 C9 1_555 1_555
H17 C9 1_555 1_555
C10 C9 1_555 1_555
H18 C10 1_555 1_555
H19 C10 1_555 1_555
C11 N2 1_555 1_555
H20 C11 1_555 1_555
H21 C11 1_555 1_555
C12 N1 1_555 1_555
H22 C12 1_555 1_555
H23 C12 1_555 1_555
C13 N2 1_555 1_555
C14 C13 1_555 1_555
H24 C14 1_555 1_555
C15 C14 1_555 1_555
H25 C15 1_555 1_555
C16 N3 1_555 1_555
C17 C16 1_555 1_555
H26 C17 1_555 1_555
C18 C13 1_555 1_555
H27 C18 1_555 1_555
C19 C20 1_555 1_555
C20 H28 1_555 1_555
C21 C20 1_555 1_555
H29 C21 1_555 1_555
C22 C21 1_555 1_555
C23 C22 1_555 1_555
H30 C23 1_555 1_555
C24 C19 1_555 1_555
H31 C24 1_555 1_555
C25 C22 1_555 1_555
H32 C25 1_555 1_555
C11 C12 1_555 1_555
C15 C16 1_555 1_555
C17 C18 1_555 1_555
C23 C24 1_555 1_555

#END
