
#######################################################################
#
#                 Cambridge Crystallographic Data Centre
#                                CCDC 
#
#######################################################################
#
# If this CIF has been generated from an entry in the Cambridge 
# Structural Database, then it will include bibliographic, chemical, 
# crystal, experimental, refinement or atomic coordinate data resulting 
# from the CCDC's data processing and validation procedures.
#
#######################################################################

data_IDUJIA
_chemical_formula_moiety         'C29 H36 N1 O6 S1 1+,Cl1 O4 1-,C2 H3 N1,H2 O1'
_chemical_name_systematic        
'2-((1E,3E)-4-(2,3,5,6,8,9,11,12,14,15-Decahydro-1,4,7,10,13,16-benzohexaoxacyclo-octadecin-18-yl)buta-1,3-dienyl)-3-ethyl-1,3-benzothiazol-3-ium perchlorate acetonitrile solvate monohydrate'
_symmetry_cell_setting           monoclinic
_symmetry_space_group_name_H-M   'P 21/c'
_symmetry_Int_Tables_number      14
_space_group_name_Hall           '-P 2ybc'
loop_
_symmetry_equiv_pos_site_id
_symmetry_equiv_pos_as_xyz
1 x,y,z
2 x,1/2-y,1/2+z
3 -x,-y,-z
4 -x,1/2+y,1/2-z
_cell_length_a                   23.5124(8)
_cell_length_b                   7.9888(3)
_cell_length_c                   18.2442(6)
_cell_angle_alpha                90
_cell_angle_beta                 106.058(2)
_cell_angle_gamma                90
_cell_volume                     3293.2
_exptl_crystal_colour            red
_exptl_crystal_description       plate
_chemical_melting_point          165-167deg.C
_cell_formula_units_Z            4
loop_
_atom_site_label
_atom_site_type_symbol
_atom_site_fract_x
_atom_site_fract_y
_atom_site_fract_z
S1 S 0.65452(4) 0.61089(10) 0.12572(5)
N1 N 0.61105(11) 0.4537(3) 0.21921(15)
O1 O 0.22709(9) 0.8111(3) -0.11000(12)
O2 O 0.15768(9) 0.5093(3) -0.10177(12)
O3 O 0.08817(9) 0.3726(3) -0.25067(12)
O4 O 0.04710(10) 0.6499(3) -0.35643(12)
O5 O 0.12550(9) 0.9158(3) -0.37290(12)
O6 O 0.21755(9) 0.9833(3) -0.23335(12)
C1 C 0.23001(15) 0.7099(5) -0.0441(2)
C2 C 0.16878(16) 0.6458(4) -0.0497(2)
C3 C 0.09841(15) 0.4471(4) -0.1176(2)
C4 C 0.09119(17) 0.3083(4) -0.1763(2)
C5 C 0.02857(15) 0.4009(5) -0.2943(2)
C6 C 0.02747(18) 0.4796(5) -0.3689(2)
C7 C 0.04344(17) 0.7361(5) -0.4266(2)
C8 C 0.06341(15) 0.9133(5) -0.4079(2)
C9 C 0.14623(16) 1.0778(4) -0.3449(2)
C10 C 0.21137(15) 1.0680(4) -0.30454(19)
C11 C 0.27428(14) 0.9523(4) -0.19008(17)
C12 C 0.27949(14) 0.8593(4) -0.12261(17)
C13 C 0.33473(15) 0.8232(4) -0.07529(19)
C14 C 0.38676(13) 0.8746(4) -0.09371(17)
C15 C 0.38052(15) 0.9664(4) -0.16013(18)
C16 C 0.32484(15) 1.0039(4) -0.20832(19)
C17 C 0.44574(15) 0.8310(4) -0.04662(18)
C18 C 0.45995(15) 0.7321(4) 0.01575(18)
C19 C 0.51963(15) 0.6916(4) 0.05554(18)
C20 C 0.53471(14) 0.5891(4) 0.11716(18)
C21 C 0.59500(14) 0.5464(4) 0.15528(18)
C22 C 0.67234(13) 0.4386(4) 0.25012(17)
C23 C 0.70263(15) 0.3563(4) 0.31664(18)
C24 C 0.76380(15) 0.3556(4) 0.33587(19)
C25 C 0.79406(16) 0.4335(4) 0.2896(2)
C26 C 0.76527(15) 0.5139(4) 0.22430(19)
C27 C 0.70320(14) 0.5187(4) 0.20450(18)
C28 C 0.56872(16) 0.3691(4) 0.2546(2)
C29 C 0.55396(18) 0.4764(5) 0.3151(2)
H6 H 0.2423(14) 0.767(4) -0.0018(18)
H7 H 0.2590(14) 0.603(4) -0.0412(17)
H8 H 0.1395(17) 0.731(5) -0.068(2)
H9 H 0.1657(14) 0.606(4) 0.0030(19)
H10 H 0.0946(15) 0.397(4) -0.067(2)
H11 H 0.0699(14) 0.549(4) -0.1389(17)
H12 H 0.1292(14) 0.224(4) -0.1602(17)
H13 H 0.0533(14) 0.245(4) -0.1796(17)
H14 H 0.0053(17) 0.290(5) -0.299(2)
H15 H 0.0072(17) 0.480(5) -0.264(2)
H16 H -0.0149(16) 0.474(4) -0.400(2)
H17 H 0.0543(15) 0.419(4) -0.3927(18)
H18 H 0.0726(17) 0.674(4) -0.454(2)
H19 H 0.0012(15) 0.745(4) -0.4615(19)
H20 H 0.0443(15) 0.962(4) -0.3743(19)
H21 H 0.0524(14) 0.974(4) -0.4516(19)
H22 H 0.1397(14) 1.160(4) -0.3923(18)
H23 H 0.1209(13) 1.119(4) -0.3119(17)
H24 H 0.2276(14) 1.186(4) -0.2958(18)
H25 H 0.2318(13) 1.003(4) -0.3364(17)
H26 H 0.3383(12) 0.766(3) -0.0329(16)
H27 H 0.4154(13) 1.006(3) -0.1743(16)
H28 H 0.3217(12) 1.068(3) -0.2536(17)
H29 H 0.4779(14) 0.879(4) -0.0611(17)
H30 H 0.4296(16) 0.681(4) 0.0348(19)
H31 H 0.5497(13) 0.746(3) 0.0344(16)
H32 H 0.5013(15) 0.539(4) 0.1357(18)
H33 H 0.6840(14) 0.302(4) 0.3485(18)
H34 H 0.7837(13) 0.306(4) 0.3843(17)
H35 H 0.8317(14) 0.433(4) 0.3037(18)
H36 H 0.7843(14) 0.568(4) 0.1927(18)
H37 H 0.5349(14) 0.338(4) 0.2140(17)
H38 H 0.5869(13) 0.262(4) 0.2722(17)
H39 H 0.5333(13) 0.581(4) 0.2885(17)
H40 H 0.5928(17) 0.496(4) 0.356(2)
H41 H 0.5287(16) 0.414(4) 0.340(2)
Cl1 Cl 0.37614(4) 0.39340(10) 0.11841(4)
O7 O 0.33997(10) 0.2728(3) 0.14368(13)
O8 O 0.33989(12) 0.5329(3) 0.08324(15)
O9 O 0.40235(11) 0.3175(3) 0.06405(13)
O10 O 0.42230(10) 0.4537(3) 0.18256(13)
N2 N 0.13308(18) 1.0763(4) 0.0011(2)
C30 C 0.1783(2) 1.1196(5) -0.0033(2)
C31 C 0.23576(18) 1.1763(5) -0.0100(3)
H1 H 0.2408 1.1399 -0.0591
H2 H 0.2673 1.1283 0.0315
H3 H 0.2377 1.2987 -0.0069
O11 O 0.09977(12) 0.8398(3) -0.21225(15)
H4 H 0.150(3) 0.860(8) -0.200(4)
H5 H 0.083(3) 0.774(8) -0.270(4)
loop_
_geom_bond_atom_site_label_1
_geom_bond_atom_site_label_2
_geom_bond_site_symmetry_1
_geom_bond_site_symmetry_2
S1 C21 1_555 1_555
N1 C21 1_555 1_555
O1 C1 1_555 1_555
O2 C2 1_555 1_555
O3 C4 1_555 1_555
O4 C6 1_555 1_555
O5 C8 1_555 1_555
O6 C10 1_555 1_555
C1 C2 1_555 1_555
C2 H8 1_555 1_555
C3 O2 1_555 1_555
C4 C3 1_555 1_555
C5 O3 1_555 1_555
C6 C5 1_555 1_555
C7 O4 1_555 1_555
C8 C7 1_555 1_555
C9 O5 1_555 1_555
C10 C9 1_555 1_555
C11 O6 1_555 1_555
C12 O1 1_555 1_555
C13 C12 1_555 1_555
C14 C13 1_555 1_555
C15 C14 1_555 1_555
C16 C11 1_555 1_555
C17 C14 1_555 1_555
C18 C17 1_555 1_555
C19 C18 1_555 1_555
C20 C19 1_555 1_555
C21 C20 1_555 1_555
C22 N1 1_555 1_555
C23 C22 1_555 1_555
C24 C23 1_555 1_555
C25 C24 1_555 1_555
C26 C25 1_555 1_555
C27 S1 1_555 1_555
C28 N1 1_555 1_555
C29 C28 1_555 1_555
Cl1 O7 1_555 1_555
O8 Cl1 1_555 1_555
O9 Cl1 1_555 1_555
O10 Cl1 1_555 1_555
N2 C30 1_555 1_555
C30 C31 1_555 1_555
C31 H1 1_555 1_555
H2 C31 1_555 1_555
H3 C31 1_555 1_555
O11 H4 1_555 1_555
H5 O11 1_555 1_555
H6 C1 1_555 1_555
H7 C1 1_555 1_555
H9 C2 1_555 1_555
H10 C3 1_555 1_555
H11 C3 1_555 1_555
H12 C4 1_555 1_555
H13 C4 1_555 1_555
H14 C5 1_555 1_555
H15 C5 1_555 1_555
H16 C6 1_555 1_555
H17 C6 1_555 1_555
H18 C7 1_555 1_555
H19 C7 1_555 1_555
H20 C8 1_555 1_555
H21 C8 1_555 1_555
H22 C9 1_555 1_555
H23 C9 1_555 1_555
H24 C10 1_555 1_555
H25 C10 1_555 1_555
H26 C13 1_555 1_555
H27 C15 1_555 1_555
H28 C16 1_555 1_555
H29 C17 1_555 1_555
H30 C18 1_555 1_555
H31 C19 1_555 1_555
H32 C20 1_555 1_555
H33 C23 1_555 1_555
H34 C24 1_555 1_555
H35 C25 1_555 1_555
H36 C26 1_555 1_555
H37 C28 1_555 1_555
H38 C28 1_555 1_555
H39 C29 1_555 1_555
H40 C29 1_555 1_555
H41 C29 1_555 1_555
C11 C12 1_555 1_555
C15 C16 1_555 1_555
C22 C27 1_555 1_555
C26 C27 1_555 1_555

#END
