
#######################################################################
#
#                 Cambridge Crystallographic Data Centre
#                                CCDC 
#
#######################################################################
#
# If this CIF has been generated from an entry in the Cambridge 
# Structural Database, then it will include bibliographic, chemical, 
# crystal, experimental, refinement or atomic coordinate data resulting 
# from the CCDC's data processing and validation procedures.
#
#######################################################################

data_IDUJUP
_chemical_formula_moiety         'C27 H30 Cl1 N1 O1 S1'
_chemical_name_systematic        
5-[(4-chlorophenyl)methyl]-2-phenyl-5-(undeca-2,4-dien-1-yl)-1,3-thiazol-4(5H)-one
_symmetry_cell_setting           orthorhombic
_symmetry_space_group_name_H-M   'P 21 21 21'
_symmetry_Int_Tables_number      19
_space_group_name_Hall           'P 2ac 2ab'
loop_
_symmetry_equiv_pos_site_id
_symmetry_equiv_pos_as_xyz
1 x,y,z
2 1/2-x,-y,1/2+z
3 -x,1/2+y,1/2-z
4 1/2+x,1/2-y,-z
_cell_length_a                   5.9641(4)
_cell_length_b                   17.2956(13)
_cell_length_c                   24.3231(16)
_cell_angle_alpha                90
_cell_angle_beta                 90
_cell_angle_gamma                90
_cell_volume                     2508.99
_exptl_crystal_colour            colorless
_exptl_crystal_description       block
_cell_formula_units_Z            4
loop_
_atom_site_label
_atom_site_type_symbol
_atom_site_fract_x
_atom_site_fract_y
_atom_site_fract_z
Cl1 Cl 0.8373(4) 0.28420(13) 0.64088(9)
S1 S 0.9354(2) 0.67446(10) 0.63613(6)
O1 O 0.3992(8) 0.6509(3) 0.72067(18)
N1 N 0.5050(8) 0.6433(3) 0.6306(2)
C1 C 0.7887(10) 0.6703(4) 0.7016(3)
C2 C 0.5439(11) 0.6540(4) 0.6857(3)
C3 C 0.6861(10) 0.6540(4) 0.6021(3)
C4 C 0.6855(11) 0.6486(4) 0.5412(2)
C5 C 0.4977(12) 0.6189(4) 0.5148(3)
H1 H 0.373507 0.601313 0.535799
C6 C 0.4911(14) 0.6149(5) 0.4584(3)
H2 H 0.361522 0.595276 0.440530
C7 C 0.6717(14) 0.6394(5) 0.4278(3)
H3 H 0.667145 0.635016 0.388862
C8 C 0.8590(13) 0.6701(5) 0.4527(3)
H4 H 0.981273 0.688269 0.431251
C9 C 0.8659(11) 0.6741(4) 0.5101(3)
H5 H 0.994776 0.694421 0.527964
C10 C 0.8779(11) 0.6041(4) 0.7387(2)
H6 H 1.035857 0.615372 0.748340
H7 H 0.790467 0.603829 0.773337
C11 C 0.8663(11) 0.5243(4) 0.7133(2)
C12 C 0.6822(13) 0.4775(4) 0.7208(3)
H8 H 0.559680 0.496451 0.741853
C13 C 0.6694(13) 0.4042(5) 0.6989(3)
H9 H 0.539816 0.373300 0.704676
C14 C 0.8473(15) 0.3762(5) 0.6685(3)
C15 C 1.0353(14) 0.4220(5) 0.6600(3)
H10 H 1.156682 0.403117 0.638586
C16 C 1.0457(11) 0.4953(4) 0.6828(3)
H11 H 1.176013 0.526058 0.677640
C17 C 0.8046(13) 0.7474(4) 0.7324(3)
H12 H 0.728192 0.742137 0.768333
H13 H 0.964451 0.759002 0.739680
C18 C 0.7030(12) 0.8139(4) 0.7018(3)
H14 H 0.557473 0.806317 0.686889
C19 C 0.7965(14) 0.8816(4) 0.6937(3)
H15 H 0.943714 0.889365 0.707567
C20 C 0.6917(13) 0.9450(4) 0.6653(2)
H16 H 0.549196 0.935578 0.649242
C21 C 0.7768(13) 1.0161(5) 0.6596(3)
H17 H 0.923092 1.024621 0.673802
C22 C 0.6645(14) 1.0826(5) 0.6332(3)
H18 H 0.776580 1.110100 0.610436
H19 H 0.615599 1.118611 0.662450
C23 C 0.4636(14) 1.0643(5) 0.5973(3)
H20 H 0.510724 1.026966 0.568733
H21 H 0.348664 1.038623 0.620302
C24 C 0.3571(18) 1.1326(6) 0.5694(4)
H22 H 0.473929 1.163419 0.550545
H23 H 0.284225 1.165979 0.597206
C25 C 0.176(2) 1.1043(7) 0.5259(5)
H24 H 0.253278 1.073508 0.497336
H25 H 0.068672 1.069709 0.544808
C26 C 0.053(2) 1.1644(8) 0.4997(5)
H26 H 0.157412 1.200378 0.480956
H27 H -0.033867 1.193896 0.527202
C27 C -0.108(3) 1.1265(10) 0.4568(5)
H28 H -0.160578 1.165975 0.430832
H29 H -0.237386 1.103982 0.475899
H30 H -0.028535 1.085843 0.436656
loop_
_geom_bond_atom_site_label_1
_geom_bond_atom_site_label_2
_geom_bond_site_symmetry_1
_geom_bond_site_symmetry_2
Cl1 C14 1_555 1_555
S1 C1 1_555 1_555
O1 C2 1_555 1_555
N1 C2 1_555 1_555
C1 C2 1_555 1_555
C3 S1 1_555 1_555
C4 C3 1_555 1_555
C5 C4 1_555 1_555
H1 C5 1_555 1_555
C6 C5 1_555 1_555
H2 C6 1_555 1_555
C7 C6 1_555 1_555
H3 C7 1_555 1_555
C8 C7 1_555 1_555
H4 C8 1_555 1_555
C9 C4 1_555 1_555
H5 C9 1_555 1_555
C10 C1 1_555 1_555
H6 C10 1_555 1_555
H7 C10 1_555 1_555
C11 C10 1_555 1_555
C12 C11 1_555 1_555
H8 C12 1_555 1_555
C13 C12 1_555 1_555
H9 C13 1_555 1_555
C14 C13 1_555 1_555
C15 C14 1_555 1_555
H10 C15 1_555 1_555
C16 C11 1_555 1_555
H11 C16 1_555 1_555
C17 C1 1_555 1_555
H12 C17 1_555 1_555
H13 C17 1_555 1_555
C18 C17 1_555 1_555
H14 C18 1_555 1_555
C19 C18 1_555 1_555
H15 C19 1_555 1_555
C20 C19 1_555 1_555
H16 C20 1_555 1_555
C21 C20 1_555 1_555
H17 C21 1_555 1_555
C22 C21 1_555 1_555
H18 C22 1_555 1_555
H19 C22 1_555 1_555
C23 C22 1_555 1_555
H20 C23 1_555 1_555
H21 C23 1_555 1_555
C24 C23 1_555 1_555
H22 C24 1_555 1_555
H23 C24 1_555 1_555
C25 C24 1_555 1_555
H24 C25 1_555 1_555
H25 C25 1_555 1_555
C26 C25 1_555 1_555
H26 C26 1_555 1_555
H27 C26 1_555 1_555
C27 C26 1_555 1_555
H28 C27 1_555 1_555
H29 C27 1_555 1_555
H30 C27 1_555 1_555
N1 C3 1_555 1_555
C8 C9 1_555 1_555
C15 C16 1_555 1_555

#END
