
#######################################################################
#
#                 Cambridge Crystallographic Data Centre
#                                CCDC 
#
#######################################################################
#
# If this CIF has been generated from an entry in the Cambridge 
# Structural Database, then it will include bibliographic, chemical, 
# crystal, experimental, refinement or atomic coordinate data resulting 
# from the CCDC's data processing and validation procedures.
#
#######################################################################

data_IDUKAW
_chemical_formula_moiety         'C28 H26 N2 O5 S2'
_chemical_name_systematic        
5-(hexa-3,5-dien-2-yl)-2-(3-methylphenyl)-3-[(4-nitrophenyl)sulfonyl]-5-phenyl-1,3-thiazolidin-4-one
_symmetry_cell_setting           monoclinic
_symmetry_space_group_name_H-M   'P 21'
_symmetry_Int_Tables_number      4
_space_group_name_Hall           'P 2yb'
loop_
_symmetry_equiv_pos_site_id
_symmetry_equiv_pos_as_xyz
1 x,y,z
2 -x,1/2+y,-z
_cell_length_a                   11.1699(2)
_cell_length_b                   8.2022(2)
_cell_length_c                   14.7242(3)
_cell_angle_alpha                90
_cell_angle_beta                 101.5280(10)
_cell_angle_gamma                90
_cell_volume                     1321.79
_exptl_crystal_colour            colorless
_exptl_crystal_description       block
_cell_formula_units_Z            2
loop_
_atom_site_label
_atom_site_type_symbol
_atom_site_fract_x
_atom_site_fract_y
_atom_site_fract_z
S1 S 0.32261(4) 0.63963(7) 0.10005(4)
S2 S 0.56742(4) 0.25001(6) 0.19652(3)
O1 O 0.39912(14) 0.3626(2) 0.31237(10)
O2 O 0.51216(15) 0.1115(2) 0.22859(12)
O3 O 0.61736(14) 0.2404(2) 0.11546(10)
O4 O 0.9385(4) 0.5093(7) 0.5778(2)
O5 O 1.0463(4) 0.5619(8) 0.4790(3)
N1 N 0.46188(14) 0.3993(2) 0.17574(11)
N2 N 0.9561(3) 0.5082(6) 0.4998(3)
C1 C 0.27574(18) 0.5343(3) 0.19703(14)
C2 C 0.2566(2) 0.6573(3) 0.27330(16)
H1 H 0.238809 0.594003 0.325494
C3 C 0.3688(2) 0.7575(4) 0.30896(17)
H2 H 0.381649 0.848680 0.274632
C4 C 0.4507(3) 0.7267(4) 0.38506(17)
H3 H 0.437847 0.637590 0.420983
C5 C 0.5599(3) 0.8247(5) 0.4157(2)
H4 H 0.569580 0.917889 0.381883
C6 C 0.6463(4) 0.7898(6) 0.4885(3)
H5 H 0.639342 0.697444 0.523720
H6 H 0.713994 0.857530 0.504434
C7 C 0.1461(3) 0.7689(4) 0.2386(2)
H7 H 0.162171 0.835664 0.188790
H8 H 0.132407 0.837296 0.288418
H9 H 0.074936 0.703430 0.216856
C8 C 0.16233(18) 0.4254(3) 0.16742(14)
C9 C 0.0794(2) 0.4513(3) 0.08577(16)
H10 H 0.093629 0.533478 0.045754
C10 C -0.0249(2) 0.3564(4) 0.06257(18)
H11 H -0.079699 0.376014 0.007223
C11 C -0.0485(2) 0.2348(4) 0.11957(18)
H12 H -0.118322 0.171020 0.103233
C12 C 0.0332(3) 0.2077(4) 0.2023(2)
H13 H 0.017952 0.125665 0.242089
C13 C 0.1371(2) 0.3020(3) 0.22567(18)
H14 H 0.191218 0.282810 0.281379
C14 C 0.38420(18) 0.4248(3) 0.23642(14)
C15 C 0.45063(17) 0.5033(3) 0.09242(13)
H15 H 0.429311 0.435628 0.036679
C16 C 0.56555(18) 0.5986(3) 0.08944(14)
C17 C 0.61714(19) 0.7017(3) 0.16046(16)
H16 H 0.577009 0.718289 0.209279
C18 C 0.7275(2) 0.7819(3) 0.16157(19)
C19 C 0.7828(2) 0.7578(4) 0.0856(2)
H17 H 0.856239 0.810044 0.084080
C20 C 0.7314(2) 0.6590(4) 0.0133(2)
H18 H 0.769405 0.647168 -0.037065
C21 C 0.6228(2) 0.5762(3) 0.01434(16)
H19 H 0.589050 0.507098 -0.034142
C22 C 0.7862(3) 0.8848(4) 0.2433(3)
H20 H 0.725867 0.914588 0.278488
H21 H 0.819766 0.981586 0.221510
H22 H 0.850176 0.823816 0.281803
C23 C 0.68101(19) 0.3265(3) 0.28797(15)
C24 C 0.6699(2) 0.3053(4) 0.37936(17)
H23 H 0.602820 0.250931 0.393449
C25 C 0.7600(3) 0.3665(4) 0.44903(18)
H24 H 0.754204 0.355404 0.510866
C26 C 0.8585(3) 0.4441(4) 0.4254(2)
C27 C 0.8711(2) 0.4634(4) 0.3349(2)
H25 H 0.939783 0.514399 0.321309
C28 C 0.7807(2) 0.4060(3) 0.26514(18)
H26 H 0.786048 0.420232 0.203424
loop_
_geom_bond_atom_site_label_1
_geom_bond_atom_site_label_2
_geom_bond_site_symmetry_1
_geom_bond_site_symmetry_2
S1 C1 1_555 1_555
S2 O2 1_555 1_555
O1 C14 1_555 1_555
O3 S2 1_555 1_555
O4 N2 1_555 1_555
O5 N2 1_555 1_555
N1 S2 1_555 1_555
N2 C26 1_555 1_555
C1 C2 1_555 1_555
C2 H1 1_555 1_555
C3 C2 1_555 1_555
H2 C3 1_555 1_555
C4 C3 1_555 1_555
H3 C4 1_555 1_555
C5 C4 1_555 1_555
H4 C5 1_555 1_555
C6 C5 1_555 1_555
H5 C6 1_555 1_555
H6 C6 1_555 1_555
C7 C2 1_555 1_555
H7 C7 1_555 1_555
H8 C7 1_555 1_555
H9 C7 1_555 1_555
C8 C1 1_555 1_555
C9 C8 1_555 1_555
H10 C9 1_555 1_555
C10 C9 1_555 1_555
H11 C10 1_555 1_555
C11 C10 1_555 1_555
H12 C11 1_555 1_555
C12 C11 1_555 1_555
H13 C12 1_555 1_555
C13 C8 1_555 1_555
H14 C13 1_555 1_555
C14 N1 1_555 1_555
C15 S1 1_555 1_555
H15 C15 1_555 1_555
C16 C15 1_555 1_555
C17 C16 1_555 1_555
H16 C17 1_555 1_555
C18 C17 1_555 1_555
C19 C18 1_555 1_555
H17 C19 1_555 1_555
C20 C19 1_555 1_555
H18 C20 1_555 1_555
C21 C16 1_555 1_555
H19 C21 1_555 1_555
C22 C18 1_555 1_555
H20 C22 1_555 1_555
H21 C22 1_555 1_555
H22 C22 1_555 1_555
C23 S2 1_555 1_555
C24 C23 1_555 1_555
H23 C24 1_555 1_555
C25 C24 1_555 1_555
H24 C25 1_555 1_555
C26 C25 1_555 1_555
C27 C26 1_555 1_555
H25 C27 1_555 1_555
C28 C23 1_555 1_555
H26 C28 1_555 1_555
N1 C15 1_555 1_555
C1 C14 1_555 1_555
C12 C13 1_555 1_555
C20 C21 1_555 1_555
C27 C28 1_555 1_555

#END
