
#######################################################################
#
#                 Cambridge Crystallographic Data Centre
#                                CCDC 
#
#######################################################################
#
# If this CIF has been generated from an entry in the Cambridge 
# Structural Database, then it will include bibliographic, chemical, 
# crystal, experimental, refinement or atomic coordinate data resulting 
# from the CCDC's data processing and validation procedures.
#
#######################################################################

data_IDULUO
_chemical_formula_moiety         'C30 H34 N4 O4 S2'
_chemical_name_systematic        
N,N'-Di-p-tosyl-N,N'-bis(2-(2-pyridyl)ethyl)ethylenediamine
_symmetry_cell_setting           monoclinic
_symmetry_space_group_name_H-M   'P 21/c'
_symmetry_Int_Tables_number      14
_space_group_name_Hall           '-P 2ybc'
loop_
_symmetry_equiv_pos_site_id
_symmetry_equiv_pos_as_xyz
1 x,y,z
2 x,1/2-y,1/2+z
3 -x,-y,-z
4 -x,1/2+y,1/2-z
_cell_length_a                   11.4560(10)
_cell_length_b                   7.9900(10)
_cell_length_c                   15.804(2)
_cell_angle_alpha                90
_cell_angle_beta                 97.900(10)
_cell_angle_gamma                90
_cell_volume                     1432.87
_exptl_crystal_colour            colorless
_exptl_crystal_description       prism
_cell_formula_units_Z            2
_exptl_crystal_recrystallization_method ethanol
loop_
_atom_site_label
_atom_site_type_symbol
_atom_site_fract_x
_atom_site_fract_y
_atom_site_fract_z
S1 S 0.24934(8) 0.13935(12) 0.01885(6)
O1 O 0.3399(2) 0.1327(4) -0.03511(16)
N1 N 0.1629(2) -0.0204(4) -0.00665(16)
O2 O 0.1754(2) 0.2834(3) 0.01739(16)
C1 C 0.2641(3) 0.1647(4) 0.1929(2)
C2 C 0.3161(3) 0.1348(5) 0.2748(2)
C3 C 0.3168(3) 0.1076(4) 0.1246(2)
C4 C 0.4201(3) 0.0448(4) 0.2915(2)
C5 C 0.4214(3) 0.0176(5) 0.1406(3)
C6 C 0.0518(3) -0.0254(6) 0.0313(2)
C7 C 0.4706(3) -0.0132(5) 0.2231(3)
N2 N 0.0277(3) -0.2013(5) -0.2090(2)
C8 C 0.1376(3) -0.2223(4) -0.1703(2)
C9 C 0.0140(4) -0.1373(6) -0.2882(3)
C10 C 0.2162(4) -0.1133(6) -0.2907(3)
C11 C 0.2222(4) -0.1830(5) -0.0148(3)
C12 C 0.1515(4) -0.2951(5) -0.0815(3)
C13 C 0.2335(4) -0.1794(6) -0.2091(3)
C14 C 0.4754(6) 0.0133(9) 0.3821(3)
H1 H 0.461(6) -0.091(10) 0.392(4)
H2 H 0.459(5) 0.086(9) 0.415(4)
C15 C 0.1045(4) -0.0921(5) -0.3308(3)
H3 H 0.197(3) 0.221(4) 0.1839(19)
H4 H 0.452(3) -0.018(4) 0.097(2)
H5 H 0.042(3) -0.129(5) 0.046(2)
H6 H 0.285(3) 0.173(4) 0.318(2)
H7 H 0.062(2) 0.040(4) 0.079(2)
H8 H -0.077(4) -0.117(5) -0.317(3)
H9 H 0.239(3) -0.249(4) 0.043(2)
H10 H 0.310(3) -0.191(4) -0.178(2)
H11 H 0.198(3) -0.413(5) -0.078(2)
H12 H 0.536(3) -0.075(5) 0.233(2)
H13 H 0.552(6) -0.005(9) 0.384(4)
H14 H 0.077(3) -0.322(4) -0.062(2)
H15 H 0.303(4) -0.150(5) -0.027(2)
H16 H 0.286(4) -0.091(6) -0.321(3)
H17 H 0.086(3) -0.041(5) -0.383(3)
C6B C -0.0518(3) 0.0254(6) -0.0313(2)
N1B N -0.1629(2) 0.0204(4) 0.00665(16)
S1B S -0.24934(8) -0.13935(12) -0.01885(6)
O1B O -0.3399(2) -0.1327(4) 0.03511(16)
O2B O -0.1754(2) -0.2834(3) -0.01739(16)
C3B C -0.3168(3) -0.1076(4) -0.1246(2)
C1B C -0.2641(3) -0.1647(4) -0.1929(2)
C2B C -0.3161(3) -0.1348(5) -0.2748(2)
C4B C -0.4201(3) -0.0448(4) -0.2915(2)
C7B C -0.4706(3) 0.0132(5) -0.2231(3)
C5B C -0.4214(3) -0.0176(5) -0.1406(3)
H4B H -0.452(3) 0.018(4) -0.097(2)
H12B H -0.536(3) 0.075(5) -0.233(2)
C14B C -0.4754(6) -0.0133(9) -0.3821(3)
H1B H -0.461(6) 0.091(10) -0.392(4)
H2B H -0.459(5) -0.086(9) -0.415(4)
H13B H -0.552(6) 0.005(9) -0.384(4)
H6B H -0.285(3) -0.173(4) -0.318(2)
H3B H -0.197(3) -0.221(4) -0.1839(19)
C11B C -0.2222(4) 0.1830(5) 0.0148(3)
C12B C -0.1515(4) 0.2951(5) 0.0815(3)
C8B C -0.1376(3) 0.2223(4) 0.1703(2)
N2B N -0.0277(3) 0.2013(5) 0.2090(2)
C9B C -0.0140(4) 0.1373(6) 0.2882(3)
C15B C -0.1045(4) 0.0921(5) 0.3308(3)
C10B C -0.2162(4) 0.1133(6) 0.2907(3)
C13B C -0.2335(4) 0.1794(6) 0.2091(3)
H10B H -0.310(3) 0.191(4) 0.178(2)
H16B H -0.286(4) 0.091(6) 0.321(3)
H17B H -0.086(3) 0.041(5) 0.383(3)
H8B H 0.077(4) 0.117(5) 0.317(3)
H11B H -0.198(3) 0.413(5) 0.078(2)
H14B H -0.077(3) 0.322(4) 0.062(2)
H9B H -0.239(3) 0.249(4) -0.043(2)
H15B H -0.303(4) 0.150(5) 0.027(2)
H5B H -0.042(3) 0.129(5) -0.046(2)
H7B H -0.062(2) -0.040(4) -0.079(2)
loop_
_geom_bond_atom_site_label_1
_geom_bond_atom_site_label_2
_geom_bond_site_symmetry_1
_geom_bond_site_symmetry_2
S1 O1 1_555 1_555
N1 S1 1_555 1_555
O2 S1 1_555 1_555
C1 C2 1_555 1_555
C2 C4 1_555 1_555
C3 S1 1_555 1_555
C4 C7 1_555 1_555
C5 C3 1_555 1_555
C6 N1 1_555 1_555
C7 C5 1_555 1_555
N2 C8 1_555 1_555
C8 C12 1_555 1_555
C9 N2 1_555 1_555
C10 C13 1_555 1_555
C11 N1 1_555 1_555
C12 C11 1_555 1_555
C13 C8 1_555 1_555
C14 C4 1_555 1_555
H1 C14 1_555 1_555
H2 C14 1_555 1_555
C15 C9 1_555 1_555
H3 C1 1_555 1_555
H4 C5 1_555 1_555
H5 C6 1_555 1_555
H6 C2 1_555 1_555
H7 C6 1_555 1_555
H8 C9 1_555 1_555
H9 C11 1_555 1_555
H10 C13 1_555 1_555
H11 C12 1_555 1_555
H12 C7 1_555 1_555
H13 C14 1_555 1_555
H14 C12 1_555 1_555
H15 C11 1_555 1_555
H16 C10 1_555 1_555
H17 C15 1_555 1_555
C6B C6 1_555 1_555
N1B C6B 1_555 1_555
S1B N1B 1_555 1_555
O1B S1B 1_555 1_555
O2B S1B 1_555 1_555
C3B S1B 1_555 1_555
C1B C3B 1_555 1_555
C2B C1B 1_555 1_555
C4B C2B 1_555 1_555
C7B C4B 1_555 1_555
C5B C3B 1_555 1_555
H4B C5B 1_555 1_555
H12B C7B 1_555 1_555
C14B C4B 1_555 1_555
H1B C14B 1_555 1_555
H2B C14B 1_555 1_555
H13B C14B 1_555 1_555
H6B C2B 1_555 1_555
H3B C1B 1_555 1_555
C11B N1B 1_555 1_555
C12B C11B 1_555 1_555
C8B C12B 1_555 1_555
N2B C8B 1_555 1_555
C9B N2B 1_555 1_555
C15B C9B 1_555 1_555
C10B C15B 1_555 1_555
C13B C8B 1_555 1_555
H10B C13B 1_555 1_555
H16B C10B 1_555 1_555
H17B C15B 1_555 1_555
H8B C9B 1_555 1_555
H11B C12B 1_555 1_555
H14B C12B 1_555 1_555
H9B C11B 1_555 1_555
H15B C11B 1_555 1_555
H5B C6B 1_555 1_555
H7B C6B 1_555 1_555
C1 C3 1_555 1_555
C10 C15 1_555 1_555
C7B C5B 1_555 1_555
C10B C13B 1_555 1_555

#END
