
#######################################################################
#
#                 Cambridge Crystallographic Data Centre
#                                CCDC 
#
#######################################################################
#
# If this CIF has been generated from an entry in the Cambridge 
# Structural Database, then it will include bibliographic, chemical, 
# crystal, experimental, refinement or atomic coordinate data resulting 
# from the CCDC's data processing and validation procedures.
#
#######################################################################

data_IDUMAY
_chemical_formula_moiety         'C10 H10 Cl1 N1 O3'
_chemical_name_systematic        
4-{[(4-chlorophenyl)amino]methyl}-1,3-dioxolan-2-one
_symmetry_cell_setting           orthorhombic
_symmetry_space_group_name_H-M   'P 21 21 21'
_symmetry_Int_Tables_number      19
_space_group_name_Hall           'P 2ac 2ab'
loop_
_symmetry_equiv_pos_site_id
_symmetry_equiv_pos_as_xyz
1 x,y,z
2 1/2-x,-y,1/2+z
3 -x,1/2+y,1/2-z
4 1/2+x,1/2-y,-z
_cell_length_a                   6.0955(5)
_cell_length_b                   9.4177(8)
_cell_length_c                   17.5145(14)
_cell_angle_alpha                90
_cell_angle_beta                 90
_cell_angle_gamma                90
_cell_volume                     1005.43
_exptl_crystal_colour            colorless
_exptl_crystal_description       block
_cell_formula_units_Z            4
loop_
_atom_site_label
_atom_site_type_symbol
_atom_site_fract_x
_atom_site_fract_y
_atom_site_fract_z
C1 C 0.6268(3) 0.40435(18) 0.54810(10)
C2 C 0.8026(3) 0.4190(2) 0.49847(11)
H1 H 0.9299 0.3620 0.5047
C3 C 0.7914(3) 0.5179(2) 0.43951(11)
H2 H 0.9126 0.5286 0.4059
C4 C 0.6031(3) 0.60206(19) 0.42896(10)
C5 C 0.4261(3) 0.5834(2) 0.47872(11)
H3 H 0.2966 0.6382 0.4721
C6 C 0.4382(3) 0.4843(2) 0.53836(11)
H4 H 0.3174 0.4720 0.5720
C7 C 0.4521(3) 0.8201(2) 0.36766(11)
H5 H 0.5405 0.9074 0.3611
H6 H 0.3773 0.8262 0.4177
C8 C 0.2809(3) 0.81402(18) 0.30531(11)
H7 H 0.1866 0.9009 0.3072
C9 C 0.3722(3) 0.79388(19) 0.22498(10)
H8 H 0.2882 0.8504 0.1874
H9 H 0.5286 0.8220 0.2225
C10 C 0.2060(3) 0.5905(2) 0.26207(11)
Cl1 Cl 0.64304(8) 0.28336(5) 0.62327(3)
N1 N 0.5984(3) 0.69803(18) 0.36808(9)
H10 H 0.6864 0.6842 0.3289
O1 O 0.1464(2) 0.68773(14) 0.31435(8)
O2 O 0.1400(3) 0.47031(15) 0.26125(10)
O3 O 0.3466(3) 0.64361(14) 0.21100(8)
loop_
_geom_bond_atom_site_label_1
_geom_bond_atom_site_label_2
_geom_bond_site_symmetry_1
_geom_bond_site_symmetry_2
C1 C2 1_555 1_555
C2 H1 1_555 1_555
C3 C2 1_555 1_555
H2 C3 1_555 1_555
C4 C3 1_555 1_555
C5 C4 1_555 1_555
H3 C5 1_555 1_555
C6 C1 1_555 1_555
H4 C6 1_555 1_555
C7 H5 1_555 1_555
H6 C7 1_555 1_555
C8 C7 1_555 1_555
H7 C8 1_555 1_555
C9 C8 1_555 1_555
H8 C9 1_555 1_555
H9 C9 1_555 1_555
C10 O1 1_555 1_555
Cl1 C1 1_555 1_555
N1 C4 1_555 1_555
H10 N1 1_555 1_555
O1 C8 1_555 1_555
O2 C10 1_555 1_555
O3 C9 1_555 1_555
C5 C6 1_555 1_555
C7 N1 1_555 1_555
C10 O3 1_555 1_555

#END
