
#######################################################################
#
#                 Cambridge Crystallographic Data Centre
#                                CCDC 
#
#######################################################################
#
# If this CIF has been generated from an entry in the Cambridge 
# Structural Database, then it will include bibliographic, chemical, 
# crystal, experimental, refinement or atomic coordinate data resulting 
# from the CCDC's data processing and validation procedures.
#
#######################################################################

data_IDUMEC
_chemical_formula_moiety         'C10 H10 Cl1 N1 O3'
_chemical_name_systematic        
3-(4-chlorophenyl)-5-(hydroxymethyl)-1,3-oxazolidin-2-one
_symmetry_cell_setting           orthorhombic
_symmetry_space_group_name_H-M   'P 21 21 21'
_symmetry_Int_Tables_number      19
_space_group_name_Hall           'P 2ac 2ab'
loop_
_symmetry_equiv_pos_site_id
_symmetry_equiv_pos_as_xyz
1 x,y,z
2 1/2-x,-y,1/2+z
3 -x,1/2+y,1/2-z
4 1/2+x,1/2-y,-z
_cell_length_a                   7.1953(6)
_cell_length_b                   11.4298(8)
_cell_length_c                   11.6229(8)
_cell_angle_alpha                90
_cell_angle_beta                 90
_cell_angle_gamma                90
_cell_volume                     955.877
_exptl_crystal_colour            colorless
_exptl_crystal_description       cube
_cell_formula_units_Z            4
loop_
_atom_site_label
_atom_site_type_symbol
_atom_site_fract_x
_atom_site_fract_y
_atom_site_fract_z
C1 C 0.5963(2) 0.86832(11) 0.29952(11)
C2 C 0.6076(2) 0.74716(11) 0.31072(11)
H1 H 0.6177 0.6991 0.2443
C3 C 0.6039(2) 0.69690(11) 0.41975(11)
H2 H 0.6136 0.6144 0.4277
C4 C 0.58598(19) 0.76718(10) 0.51787(10)
C5 C 0.5724(2) 0.88887(11) 0.50452(12)
H3 H 0.5591 0.9373 0.5704
C6 C 0.5783(2) 0.93918(11) 0.39568(12)
H4 H 0.5700 1.0217 0.3872
C7 C 0.59148(19) 0.60562(10) 0.66101(12)
C8 C 0.5816(2) 0.79704(11) 0.73130(11)
H5 H 0.4768 0.8531 0.7293
H6 H 0.6999 0.8409 0.7374
C9 C 0.5602(2) 0.70979(11) 0.83011(11)
H7 H 0.4302 0.7128 0.8604
C10 C 0.6955(2) 0.73328(13) 0.92668(12)
H8 H 0.8235 0.7191 0.8988
H9 H 0.6864 0.8165 0.9495
Cl1 Cl 0.60327(5) 0.93328(3) 0.16424(3)
N1 N 0.58066(18) 0.72089(9) 0.63028(9)
O1 O 0.59681(19) 0.51981(9) 0.59925(9)
O2 O 0.59423(18) 0.59589(8) 0.77724(8)
O3 O 0.66184(19) 0.66192(10) 1.02443(10)
H10 H 0.7400 0.6074 1.0263
loop_
_geom_bond_atom_site_label_1
_geom_bond_atom_site_label_2
_geom_bond_site_symmetry_1
_geom_bond_site_symmetry_2
C1 C2 1_555 1_555
C2 H1 1_555 1_555
C3 C2 1_555 1_555
H2 C3 1_555 1_555
C4 C3 1_555 1_555
C5 C4 1_555 1_555
H3 C5 1_555 1_555
C6 C1 1_555 1_555
H4 C6 1_555 1_555
C7 N1 1_555 1_555
C8 H5 1_555 1_555
H6 C8 1_555 1_555
C9 C8 1_555 1_555
H7 C9 1_555 1_555
C10 C9 1_555 1_555
H8 C10 1_555 1_555
H9 C10 1_555 1_555
Cl1 C1 1_555 1_555
N1 C4 1_555 1_555
O1 C7 1_555 1_555
O2 C7 1_555 1_555
O3 C10 1_555 1_555
H10 O3 1_555 1_555
C5 C6 1_555 1_555
C8 N1 1_555 1_555
C9 O2 1_555 1_555

#END
