
#######################################################################
#
#                 Cambridge Crystallographic Data Centre
#                                CCDC 
#
#######################################################################
#
# If this CIF has been generated from an entry in the Cambridge 
# Structural Database, then it will include bibliographic, chemical, 
# crystal, experimental, refinement or atomic coordinate data resulting 
# from the CCDC's data processing and validation procedures.
#
#######################################################################

data_IDUNAX
_chemical_formula_moiety         'C22 H14 Cl3 N3 O3'
_chemical_name_systematic        
'2-(1H-1,2,3-Benzotriazol-1-yl)-1-(4-chlorobenzoyl)ethyl 2,4-dichlorobenzoate'
_symmetry_cell_setting           monoclinic
_symmetry_space_group_name_H-M   'P 21/c'
_symmetry_Int_Tables_number      14
_space_group_name_Hall           '-P 2ybc'
loop_
_symmetry_equiv_pos_site_id
_symmetry_equiv_pos_as_xyz
1 x,y,z
2 -x,1/2+y,1/2-z
3 -x,-y,-z
4 x,1/2-y,1/2+z
_cell_length_a                   11.941(3)
_cell_length_b                   25.588(6)
_cell_length_c                   13.780(3)
_cell_angle_alpha                90
_cell_angle_beta                 100.508(4)
_cell_angle_gamma                90
_cell_volume                     4139.82
_exptl_crystal_colour            colorless
_exptl_crystal_description       column
_cell_formula_units_Z            8
_exptl_crystal_recrystallization_method 'ethyl acetate'
loop_
_atom_site_label
_atom_site_type_symbol
_atom_site_fract_x
_atom_site_fract_y
_atom_site_fract_z
Cl1 Cl 0.18883(14) -0.09101(5) 0.10526(13)
Cl2 Cl 0.34957(8) 0.32425(4) 0.10189(9)
Cl3 Cl 0.03795(10) 0.46834(4) 0.13100(9)
O1 O -0.0020(2) 0.15242(10) 0.1399(2)
O2 O 0.14561(19) 0.21962(9) 0.24154(18)
O3 O 0.2353(2) 0.22153(10) 0.1129(2)
N1 N 0.0496(2) 0.14828(11) 0.3775(2)
N2 N -0.0050(3) 0.10196(11) 0.3760(2)
N3 N -0.1045(3) 0.10941(13) 0.3976(2)
C1 C 0.2261(3) 0.06074(14) 0.1595(3)
H1 H 0.2859 0.0845 0.1720
C2 C 0.2485(3) 0.00954(15) 0.1407(3)
H2 H 0.3224 -0.0010 0.1382
C3 C 0.1612(4) -0.02578(15) 0.1257(3)
C4 C 0.0506(4) -0.01005(18) 0.1252(3)
H3 H -0.0087 -0.0341 0.1136
C5 C 0.0296(3) 0.04127(17) 0.1418(3)
H4 H -0.0451 0.0520 0.1407
C6 C 0.1162(3) 0.07786(14) 0.1604(3)
C7 C 0.0878(3) 0.13301(13) 0.1781(3)
C8 C 0.1714(3) 0.16467(12) 0.2522(3)
H5 H 0.2491 0.1585 0.2410
C9 C 0.1640(3) 0.14984(13) 0.3572(3)
H6 H 0.1986 0.1157 0.3713
H7 H 0.2081 0.1747 0.4017
C10 C -0.0177(3) 0.18717(14) 0.4019(2)
C11 C -0.1170(3) 0.16142(16) 0.4145(3)
C12 C -0.2075(4) 0.18997(19) 0.4392(3)
H8 H -0.2751 0.1737 0.4463
C13 C -0.1936(4) 0.2417(2) 0.4524(3)
H9 H -0.2530 0.2613 0.4690
C14 C -0.0913(4) 0.26768(16) 0.4418(3)
H10 H -0.0849 0.3035 0.4524
C15 C -0.0018(3) 0.24083(14) 0.4162(3)
H11 H 0.0655 0.2574 0.4088
C16 C 0.1829(3) 0.24369(14) 0.1659(3)
C17 C 0.1478(3) 0.29951(13) 0.1587(2)
C18 C 0.2157(3) 0.33770(14) 0.1281(2)
C19 C 0.1817(3) 0.38916(14) 0.1194(3)
H12 H 0.2285 0.4143 0.0990
C20 C 0.0777(3) 0.40298(14) 0.1412(3)
C21 C 0.0072(3) 0.36609(15) 0.1714(3)
H13 H -0.0633 0.3755 0.1855
C22 C 0.0435(3) 0.31490(14) 0.1799(3)
H14 H -0.0034 0.2899 0.2007
Cl4 Cl 0.30406(13) 0.79449(4) 0.31734(10)
Cl5 Cl 0.15323(8) 0.37051(4) 0.42508(8)
Cl6 Cl 0.47418(10) 0.23021(4) 0.39448(9)
O4 O 0.4989(3) 0.54943(12) 0.3965(2)
O5 O 0.3632(2) 0.47731(10) 0.2932(2)
O6 O 0.2542(3) 0.47519(11) 0.4087(2)
N4 N 0.4568(2) 0.54481(11) 0.1501(2)
N5 N 0.5075(3) 0.59217(11) 0.1429(2)
N6 N 0.6075(3) 0.58423(13) 0.1212(2)
C23 C 0.4700(3) 0.65960(18) 0.3577(3)
H15 H 0.5453 0.6483 0.3708
C24 C 0.4469(4) 0.71155(19) 0.3493(3)
H16 H 0.5061 0.7356 0.3553
C25 C 0.3352(4) 0.72842(14) 0.3318(3)
C26 C 0.2473(3) 0.69359(15) 0.3251(3)
H17 H 0.1724 0.7053 0.3159
C27 C 0.2714(3) 0.64102(15) 0.3319(3)
H18 H 0.2120 0.6171 0.3264
C28 C 0.3827(3) 0.62320(15) 0.3469(3)
C29 C 0.4116(3) 0.56666(16) 0.3480(3)
C30 C 0.3334(3) 0.53129(14) 0.2762(3)
H19 H 0.2545 0.5365 0.2851
C31 C 0.3419(3) 0.54325(14) 0.1696(3)
H20 H 0.2993 0.5169 0.1275
H21 H 0.3059 0.5767 0.1517
C32 C 0.5269(3) 0.50557(14) 0.1315(2)
C33 C 0.6229(3) 0.53121(16) 0.1136(3)
C34 C 0.7153(3) 0.50336(19) 0.0908(3)
H22 H 0.7805 0.5204 0.0795
C35 C 0.7062(4) 0.45066(19) 0.0859(3)
H23 H 0.7664 0.4311 0.0709
C36 C 0.6073(4) 0.42477(16) 0.1030(3)
H24 H 0.6035 0.3885 0.0983
C37 C 0.5167(3) 0.45166(15) 0.1265(3)
H25 H 0.4517 0.4346 0.1385
C38 C 0.3182(3) 0.45311(15) 0.3655(3)
C39 C 0.3575(3) 0.39840(14) 0.3768(3)
C40 C 0.2895(3) 0.35862(14) 0.4027(3)
C41 C 0.3262(3) 0.30722(14) 0.4100(3)
H26 H 0.2800 0.2812 0.4284
C42 C 0.4318(3) 0.29507(15) 0.3898(3)
C43 C 0.5033(3) 0.33369(16) 0.3666(3)
H27 H 0.5760 0.3256 0.3559
C44 C 0.4645(3) 0.38449(16) 0.3597(3)
H28 H 0.5120 0.4105 0.3430
loop_
_geom_bond_atom_site_label_1
_geom_bond_atom_site_label_2
_geom_bond_site_symmetry_1
_geom_bond_site_symmetry_2
Cl1 C3 1_555 1_555
Cl2 C18 1_555 1_555
Cl3 C20 1_555 1_555
O1 C7 1_555 1_555
O2 C8 1_555 1_555
O3 C16 1_555 1_555
N1 N2 1_555 1_555
N2 N3 1_555 1_555
N3 C11 1_555 1_555
C1 H1 1_555 1_555
C2 C1 1_555 1_555
H2 C2 1_555 1_555
C3 C2 1_555 1_555
C4 C3 1_555 1_555
H3 C4 1_555 1_555
C5 C4 1_555 1_555
H4 C5 1_555 1_555
C6 C1 1_555 1_555
C7 C6 1_555 1_555
C8 C7 1_555 1_555
H5 C8 1_555 1_555
C9 N1 1_555 1_555
H6 C9 1_555 1_555
H7 C9 1_555 1_555
C10 N1 1_555 1_555
C11 C10 1_555 1_555
C12 C11 1_555 1_555
H8 C12 1_555 1_555
C13 C12 1_555 1_555
H9 C13 1_555 1_555
C14 C13 1_555 1_555
H10 C14 1_555 1_555
C15 C10 1_555 1_555
H11 C15 1_555 1_555
C16 O2 1_555 1_555
C17 C16 1_555 1_555
C18 C17 1_555 1_555
C19 C18 1_555 1_555
H12 C19 1_555 1_555
C20 C19 1_555 1_555
C21 C20 1_555 1_555
H13 C21 1_555 1_555
C22 C17 1_555 1_555
H14 C22 1_555 1_555
Cl4 C25 1_555 1_555
Cl5 C40 1_555 1_555
Cl6 C42 1_555 1_555
O4 C29 1_555 1_555
O5 C30 1_555 1_555
O6 C38 1_555 1_555
N4 N5 1_555 1_555
N5 N6 1_555 1_555
N6 C33 1_555 1_555
C23 H15 1_555 1_555
C24 C23 1_555 1_555
H16 C24 1_555 1_555
C25 C24 1_555 1_555
C26 C25 1_555 1_555
H17 C26 1_555 1_555
C27 C26 1_555 1_555
H18 C27 1_555 1_555
C28 C23 1_555 1_555
C29 C28 1_555 1_555
C30 C29 1_555 1_555
H19 C30 1_555 1_555
C31 N4 1_555 1_555
H20 C31 1_555 1_555
H21 C31 1_555 1_555
C32 N4 1_555 1_555
C33 C32 1_555 1_555
C34 C33 1_555 1_555
H22 C34 1_555 1_555
C35 C34 1_555 1_555
H23 C35 1_555 1_555
C36 C35 1_555 1_555
H24 C36 1_555 1_555
C37 C32 1_555 1_555
H25 C37 1_555 1_555
C38 O5 1_555 1_555
C39 C38 1_555 1_555
C40 C39 1_555 1_555
C41 C40 1_555 1_555
H26 C41 1_555 1_555
C42 C41 1_555 1_555
C43 C42 1_555 1_555
H27 C43 1_555 1_555
C44 C39 1_555 1_555
H28 C44 1_555 1_555
C5 C6 1_555 1_555
C8 C9 1_555 1_555
C14 C15 1_555 1_555
C21 C22 1_555 1_555
C27 C28 1_555 1_555
C30 C31 1_555 1_555
C36 C37 1_555 1_555
C43 C44 1_555 1_555

#END
