
#######################################################################
#
#                 Cambridge Crystallographic Data Centre
#                                CCDC 
#
#######################################################################
#
# If this CIF has been generated from an entry in the Cambridge 
# Structural Database, then it will include bibliographic, chemical, 
# crystal, experimental, refinement or atomic coordinate data resulting 
# from the CCDC's data processing and validation procedures.
#
#######################################################################

data_IDUPON
_chemical_formula_moiety         'C16 H15 N3 O1 S1'
_chemical_name_systematic        
3-(4-Methylphenoxymethyl)-4-phenyl-1H-1,2,4-triazole-5(4H)-thione
_chemical_properties_biological  'potential biological activity'
_symmetry_cell_setting           triclinic
_symmetry_space_group_name_H-M   'P -1'
_symmetry_Int_Tables_number      2
_space_group_name_Hall           '-P 1'
loop_
_symmetry_equiv_pos_site_id
_symmetry_equiv_pos_as_xyz
1 x,y,z
2 -x,-y,-z
_cell_length_a                   7.182(3)
_cell_length_b                   9.846(4)
_cell_length_c                   11.644(5)
_cell_angle_alpha                71.283(7)
_cell_angle_beta                 78.783(7)
_cell_angle_gamma                89.372(7)
_cell_volume                     763.777
_exptl_crystal_colour            colorless
_exptl_crystal_description       block
_cell_formula_units_Z            2
_exptl_crystal_recrystallization_method ethanol
loop_
_atom_site_label
_atom_site_type_symbol
_atom_site_fract_x
_atom_site_fract_y
_atom_site_fract_z
C1 C 0.2818(2) 0.96740(18) 0.38206(15)
C2 C 0.5206(2) 0.83767(19) 0.44447(15)
C3 C 0.7094(3) 0.7750(2) 0.43999(17)
H1 H 0.8082 0.8475 0.3891
H2 H 0.7361 0.7372 0.5226
C4 C 0.8744(2) 0.61585(18) 0.34325(17)
C5 C 0.8686(3) 0.5339(3) 0.2679(2)
H3 H 0.7532 0.5132 0.2505
C6 C 1.0333(3) 0.4826(3) 0.2180(2)
H4 H 1.0269 0.4280 0.1667
C7 C 1.2059(3) 0.5097(2) 0.24186(19)
C8 C 1.2079(3) 0.5879(2) 0.32009(19)
H5 H 1.3226 0.6053 0.3401
C9 C 1.0447(3) 0.6417(2) 0.37032(17)
H6 H 1.0509 0.6954 0.4224
C10 C 1.3856(4) 0.4557(3) 0.1839(3)
H7 H 1.4609 0.5349 0.1215
H8 H 1.3533 0.3873 0.1469
H9 H 1.4568 0.4105 0.2464
C11 C 0.5756(2) 0.9863(2) 0.21883(14)
C12 C 0.6092(3) 0.8974(3) 0.14753(18)
H10 H 0.5589 0.8031 0.1776
C13 C 0.7205(3) 0.9529(3) 0.02928(19)
H11 H 0.7461 0.8948 -0.0204
C14 C 0.7919(3) 1.0905(3) -0.01427(19)
H12 H 0.8646 1.1266 -0.0940
C15 C 0.7579(3) 1.1772(3) 0.0582(2)
H13 H 0.8085 1.2714 0.0278
C16 C 0.6481(3) 1.1246(2) 0.17689(18)
H14 H 0.6245 1.1827 0.2267
N1 N 0.46203(19) 0.93033(15) 0.34325(12)
N2 N 0.2445(2) 0.89431(17) 0.50347(13)
N3 N 0.3903(2) 0.81319(17) 0.54406(13)
O1 O 0.70311(17) 0.66276(14) 0.38825(14)
S1 S 0.14154(7) 1.07616(6) 0.29890(4)
H15 H 0.140(3) 0.898(2) 0.555(2)
loop_
_geom_bond_atom_site_label_1
_geom_bond_atom_site_label_2
_geom_bond_site_symmetry_1
_geom_bond_site_symmetry_2
C1 N1 1_555 1_555
C2 C3 1_555 1_555
C3 H1 1_555 1_555
H2 C3 1_555 1_555
C4 C5 1_555 1_555
C5 H3 1_555 1_555
C6 C5 1_555 1_555
H4 C6 1_555 1_555
C7 C6 1_555 1_555
C8 C7 1_555 1_555
H5 C8 1_555 1_555
C9 C4 1_555 1_555
H6 C9 1_555 1_555
C10 C7 1_555 1_555
H7 C10 1_555 1_555
H8 C10 1_555 1_555
H9 C10 1_555 1_555
C11 C12 1_555 1_555
C12 H10 1_555 1_555
C13 C12 1_555 1_555
H11 C13 1_555 1_555
C14 C13 1_555 1_555
H12 C14 1_555 1_555
C15 C14 1_555 1_555
H13 C15 1_555 1_555
C16 C11 1_555 1_555
H14 C16 1_555 1_555
N1 C2 1_555 1_555
N2 C1 1_555 1_555
N3 C2 1_555 1_555
O1 C3 1_555 1_555
S1 C1 1_555 1_555
H15 N2 1_555 1_555
C4 O1 1_555 1_555
C8 C9 1_555 1_555
C11 N1 1_555 1_555
C15 C16 1_555 1_555
N2 N3 1_555 1_555

#END
