
#######################################################################
#
#                 Cambridge Crystallographic Data Centre
#                                CCDC 
#
#######################################################################
#
# If this CIF has been generated from an entry in the Cambridge 
# Structural Database, then it will include bibliographic, chemical, 
# crystal, experimental, refinement or atomic coordinate data resulting 
# from the CCDC's data processing and validation procedures.
#
#######################################################################

data_IDUQAZ
_chemical_formula_moiety         'C11 H16 N5 O1 1+,F6 P1 1-'
_chemical_name_systematic        
'N-[(1H-Benzotriazol-1-yloxy)-(dimethylamino)methylene]-N-methylmethanaminium hexafluorophosphate'
_symmetry_cell_setting           monoclinic
_symmetry_space_group_name_H-M   'P 21/c'
_symmetry_Int_Tables_number      14
_space_group_name_Hall           '-P 2ybc'
loop_
_symmetry_equiv_pos_site_id
_symmetry_equiv_pos_as_xyz
1 x,y,z
2 x,1/2-y,1/2+z
3 -x,-y,-z
4 -x,1/2+y,1/2-z
_cell_length_a                   8.3999(13)
_cell_length_b                   28.799(4)
_cell_length_c                   7.0528(5)
_cell_angle_alpha                90
_cell_angle_beta                 109.857(9)
_cell_angle_gamma                90
_cell_volume                     1604.69
_exptl_crystal_colour            colorless
_exptl_crystal_description       plate
_cell_formula_units_Z            4
loop_
_atom_site_label
_atom_site_type_symbol
_atom_site_fract_x
_atom_site_fract_y
_atom_site_fract_z
P1 P 0.75025(8) 0.06961(3) 0.51418(11)
F1 F 0.730(2) 0.0707(5) 0.7145(18)
F2 F 0.787(2) 0.1227(3) 0.5278(17)
F3 F 0.9409(8) 0.0648(5) 0.6091(16)
F4 F 0.725(2) 0.0171(3) 0.5029(12)
F5 F 0.5672(7) 0.0802(6) 0.408(3)
F6 F 0.7709(16) 0.0708(6) 0.3056(16)
O1 O 1.1988(2) 0.14424(6) 0.8204(3)
N1 N 1.1954(5) 0.26204(9) 0.8614(5)
N2 N 1.1212(4) 0.2226(1) 0.8033(4)
N3 N 1.2320(3) 0.18901(7) 0.8972(4)
N4 N 1.1196(3) 0.12019(8) 1.0907(3)
N5 N 1.2738(3) 0.07313(8) 0.9459(4)
C1 C 1.3597(5) 0.2537(1) 0.9879(5)
C2 C 1.4929(8) 0.28430(13) 1.0857(7)
C3 C 1.6432(7) 0.26506(19) 1.1963(7)
C4 C 1.6686(5) 0.21664(16) 1.2175(6)
C5 C 1.5395(4) 0.18615(11) 1.1241(4)
C6 C 1.3875(4) 0.20625(9) 1.0090(4)
C7 C 1.1978(3) 0.11132(9) 0.9615(4)
C8 C 1.1740(5) 0.09971(15) 1.2929(5)
C9 C 0.9691(4) 0.15002(12) 1.0392(6)
C10 C 1.4000(4) 0.07052(12) 0.8428(5)
C11 C 1.2296(5) 0.02829(12) 1.0132(6)
H1 H 1.4783 0.3170 1.0746
H2 H 1.7353 0.2851 1.2623
H3 H 1.7762 0.2049 1.2973
H4 H 1.5537 0.1535 1.1377
H5 H 0.9440 0.1616 0.9061
H6 H 0.9902 0.1753 1.1312
H7 H 0.8757 0.1325 1.0471
H8 H 1.2715 0.0811 1.3120
H9 H 1.2000 0.1238 1.3909
H10 H 1.0854 0.0810 1.3068
H11 H 1.1483 0.0329 1.0776
H12 H 1.3283 0.0144 1.1054
H13 H 1.1837 0.0084 0.9001
H14 H 1.4215 0.1008 0.8042
H15 H 1.5020 0.0575 0.9317
H16 H 1.3574 0.0515 0.7263
F7? F 0.8588(15) 0.0298(5) 0.491(2)
F8? F 0.6146(17) 0.0337(4) 0.508(2)
F9? F 0.674(2) 0.0722(4) 0.2896(13)
F10? F 0.878(2) 0.1064(6) 0.533(2)
F11? F 0.8230(16) 0.0635(3) 0.7503(11)
F12? F 0.6357(15) 0.1083(3) 0.5416(17)
loop_
_geom_bond_atom_site_label_1
_geom_bond_atom_site_label_2
_geom_bond_site_symmetry_1
_geom_bond_site_symmetry_2
P1 F1 1_555 1_555
O1 N3 1_555 1_555
N1 N2 1_555 1_555
N2 N3 1_555 1_555
N3 C6 1_555 1_555
N4 C7 1_555 1_555
N5 C7 1_555 1_555
C1 N1 1_555 1_555
C2 C1 1_555 1_555
C3 C2 1_555 1_555
C4 C3 1_555 1_555
C5 C4 1_555 1_555
C6 C1 1_555 1_555
C7 O1 1_555 1_555
C8 N4 1_555 1_555
C9 N4 1_555 1_555
C10 N5 1_555 1_555
C11 N5 1_555 1_555
F2 P1 1_555 1_555
F3 P1 1_555 1_555
F4 P1 1_555 1_555
F5 P1 1_555 1_555
F6 P1 1_555 1_555
H1 C2 1_555 1_555
H2 C3 1_555 1_555
H3 C4 1_555 1_555
H4 C5 1_555 1_555
H5 C9 1_555 1_555
H6 C9 1_555 1_555
H7 C9 1_555 1_555
H8 C8 1_555 1_555
H9 C8 1_555 1_555
H10 C8 1_555 1_555
H11 C11 1_555 1_555
H12 C11 1_555 1_555
H13 C11 1_555 1_555
H14 C10 1_555 1_555
H15 C10 1_555 1_555
H16 C10 1_555 1_555
C5 C6 1_555 1_555

#END
