
#######################################################################
#
#                 Cambridge Crystallographic Data Centre
#                                CCDC 
#
#######################################################################
#
# If this CIF has been generated from an entry in the Cambridge 
# Structural Database, then it will include bibliographic, chemical, 
# crystal, experimental, refinement or atomic coordinate data resulting 
# from the CCDC's data processing and validation procedures.
#
#######################################################################

data_IDUROO
_chemical_formula_moiety         'C10 H19 Cl1 O1'
_chemical_name_systematic        3-Chloro-1,3,5,5-tetramethylcyclohexanol
_symmetry_cell_setting           monoclinic
_symmetry_space_group_name_H-M   'P 21/c'
_symmetry_Int_Tables_number      14
_space_group_name_Hall           '-P 2ybc'
loop_
_symmetry_equiv_pos_site_id
_symmetry_equiv_pos_as_xyz
1 x,y,z
2 x,1/2-y,1/2+z
3 -x,-y,-z
4 -x,1/2+y,1/2-z
_cell_length_a                   6.1793(10)
_cell_length_b                   10.5197(17)
_cell_length_c                   16.371(3)
_cell_angle_alpha                90
_cell_angle_beta                 96.793(3)
_cell_angle_gamma                90
_cell_volume                     1056.72
_exptl_crystal_colour            colorless
_exptl_crystal_description       prism
_cell_formula_units_Z            4
loop_
_atom_site_label
_atom_site_type_symbol
_atom_site_fract_x
_atom_site_fract_y
_atom_site_fract_z
C1 C 0.2279(8) 0.0445(4) 0.6195(3)
C2 C 0.2426(10) 0.0576(5) 0.7130(3)
H1 H 0.1639 -0.0150 0.7342
H2 H 0.3978 0.0493 0.7357
C3 C 0.1548(6) 0.1792(5) 0.7474(3)
C4 C 0.2308(8) 0.2975(5) 0.7038(3)
H3 H 0.3860 0.3126 0.7241
H4 H 0.1472 0.3715 0.7204
C5 C 0.2082(7) 0.2935(4) 0.6082(3)
C6 C 0.3016(8) 0.1669(4) 0.5810(3)
H5 H 0.2652 0.1598 0.5206
H6 H 0.4623 0.1716 0.5923
C7 C 0.3690(9) -0.0664(5) 0.5988(4)
H7 H 0.3690 -0.0715 0.5391
H8 H 0.3106 -0.1455 0.6190
H9 H 0.5183 -0.0537 0.6250
C8 C 0.2166(10) 0.1892(8) 0.8405(3)
H10 H 0.1485 0.2650 0.8612
H11 H 0.3753 0.1957 0.8527
H12 H 0.1655 0.1134 0.8673
C9 C -0.0277(13) 0.3188(9) 0.5649(6)
H13 H -0.0251 0.3225 0.5053
H14 H -0.0812 0.3998 0.5843
H15 H -0.1243 0.2499 0.5782
C10 C 0.3510(12) 0.4029(5) 0.5823(4)
H16 H 0.3558 0.3996 0.5227
H17 H 0.4989 0.3944 0.6107
H18 H 0.2890 0.4844 0.5969
Cl1 Cl -0.15534(17) 0.17251(16) 0.73375(10)
O1 O 0.0170(7) 0.0180(6) 0.5919(3)
H19 H 0.0063 0.0004 0.5415
C11? C 0.1136(18) 0.1837(14) 0.7506(8)
C12? C 0.200(3) 0.3012(15) 0.7107(8)
H20? H 0.1026 0.3727 0.7213
H21? H 0.3444 0.3204 0.7408
C13? C 0.2249(19) 0.3040(13) 0.6203(7)
C14? C 0.320(3) 0.1786(13) 0.5899(11)
H22? H 0.4788 0.1771 0.6067
H23? H 0.2956 0.1765 0.5291
C15? C 0.215(3) 0.0576(14) 0.6242(10)
C16? C 0.226(3) 0.0673(16) 0.7185(9)
H24? H 0.1585 -0.0100 0.7391
H25? H 0.3808 0.0681 0.7422
C17? C 0.180(4) 0.193(3) 0.8429(9)
H26? H 0.1141 0.1226 0.8706
H27? H 0.1297 0.2739 0.8633
H28? H 0.3391 0.1877 0.8544
C18? C 0.360(3) 0.4156(17) 0.5939(12)
H29? H 0.3349 0.4251 0.5340
H30? H 0.5149 0.3994 0.6108
H31? H 0.3163 0.4939 0.6200
C19? C -0.029(2) 0.0383(15) 0.5889(12)
H32? H -0.0635 -0.0527 0.5868
H33? H -0.0546 0.0741 0.5333
H34? H -0.1232 0.0814 0.6244
C20? C 0.345(3) -0.0571(18) 0.5995(14)
H35? H 0.3173 -0.1300 0.6342
H36? H 0.5006 -0.0369 0.6069
H37? H 0.2992 -0.0780 0.5417
Cl2? Cl -0.0575(12) 0.3251(8) 0.5639(6)
O2? O -0.1102(15) 0.1754(14) 0.7400(9)
H38? H -0.1520 0.1474 0.6927
C21? C 0.214(4) 0.3094(18) 0.6090(16)
C22? C 0.324(4) 0.1867(18) 0.5861(18)
H39? H 0.2937 0.1763 0.5257
H40? H 0.4837 0.1989 0.5988
C23? C 0.267(2) 0.0628(16) 0.6251(12)
C24? C 0.261(4) 0.077(2) 0.7188(11)
H41? H 0.4125 0.0830 0.7460
H42? H 0.1962 -0.0014 0.7395
C25? C 0.130(5) 0.194(2) 0.7441(14)
C26? C 0.205(6) 0.313(2) 0.7018(16)
H43? H 0.1073 0.3841 0.7132
H44? H 0.3528 0.3352 0.7284
C27? C 0.347(6) 0.421(2) 0.584(3)
H45? H 0.2503 0.4942 0.5709
H46? H 0.4157 0.3980 0.5348
H47? H 0.4592 0.4430 0.6286
C28? C 0.412(3) -0.050(2) 0.6071(18)
H48? H 0.4195 -0.1107 0.6527
H49? H 0.5591 -0.0191 0.6010
H50? H 0.3505 -0.0918 0.5561
C29? C -0.125(5) 0.179(4) 0.729(3)
H51? H -0.1947 0.2553 0.7479
H52? H -0.1699 0.1046 0.7586
H53? H -0.1706 0.1678 0.6696
C30? C 0.186(8) 0.208(3) 0.8377(13)
H54? H 0.1606 0.2959 0.8537
H55? H 0.3395 0.1860 0.8532
H56? H 0.0937 0.1508 0.8658
Cl3? Cl -0.012(2) 0.0150(17) 0.5772(8)
O3? O 0.009(4) 0.318(3) 0.568(2)
H57? H 0.0104 0.3700 0.5284
loop_
_geom_bond_atom_site_label_1
_geom_bond_atom_site_label_2
_geom_bond_site_symmetry_1
_geom_bond_site_symmetry_2
C1 C2 1_555 1_555
C2 H1 1_555 1_555
H2 C2 1_555 1_555
C3 C2 1_555 1_555
C4 C3 1_555 1_555
H3 C4 1_555 1_555
H4 C4 1_555 1_555
C5 C4 1_555 1_555
C6 C1 1_555 1_555
H5 C6 1_555 1_555
H6 C6 1_555 1_555
C7 C1 1_555 1_555
H7 C7 1_555 1_555
H8 C7 1_555 1_555
H9 C7 1_555 1_555
C8 C3 1_555 1_555
H10 C8 1_555 1_555
H11 C8 1_555 1_555
H12 C8 1_555 1_555
C9 C5 1_555 1_555
H13 C9 1_555 1_555
H14 C9 1_555 1_555
H15 C9 1_555 1_555
C10 C5 1_555 1_555
H16 C10 1_555 1_555
H17 C10 1_555 1_555
H18 C10 1_555 1_555
Cl1 C3 1_555 1_555
O1 C1 1_555 1_555
H19 O1 1_555 1_555
C5 C6 1_555 1_555

#END
