
#######################################################################
#
#                 Cambridge Crystallographic Data Centre
#                                CCDC 
#
#######################################################################
#
# If this CIF has been generated from an entry in the Cambridge 
# Structural Database, then it will include bibliographic, chemical, 
# crystal, experimental, refinement or atomic coordinate data resulting 
# from the CCDC's data processing and validation procedures.
#
#######################################################################

data_IDUSUW
_chemical_formula_moiety         'C25 H18 N2,0.5(H2 O1)'
_chemical_name_systematic        
"2',7'-Di-4-pyridylspiro(cyclopropane-1,9'-fluorene) hemihydrate"
_symmetry_cell_setting           monoclinic
_symmetry_space_group_name_H-M   'P 21/c'
_symmetry_Int_Tables_number      14
_space_group_name_Hall           '-P 2ybc'
loop_
_symmetry_equiv_pos_site_id
_symmetry_equiv_pos_as_xyz
1 x,y,z
2 -x,1/2+y,1/2-z
3 -x,-y,-z
4 x,1/2-y,1/2+z
_cell_length_a                   14.883(3)
_cell_length_b                   22.675(5)
_cell_length_c                   11.334(2)
_cell_angle_alpha                90
_cell_angle_beta                 105.817(9)
_cell_angle_gamma                90
_cell_volume                     3680.09
_exptl_crystal_colour            yellow
_exptl_crystal_description       block
_cell_formula_units_Z            8
_exptl_crystal_recrystallization_method 'ethyl acetate'
loop_
_atom_site_label
_atom_site_type_symbol
_atom_site_fract_x
_atom_site_fract_y
_atom_site_fract_z
O1 O -0.33015(8) 0.49929(5) 0.95868(10)
H1 H -0.2821 0.5023 0.9290
H2 H -0.3581 0.5323 0.9520
N1 N -0.16589(10) 0.53648(6) 0.89262(12)
N2 N 0.56745(9) 0.89276(6) 0.46406(11)
C1 C 0.14077(10) 0.68774(6) 0.70295(12)
C2 C 0.22586(10) 0.65765(6) 0.74020(12)
C3 C 0.29590(10) 0.69115(6) 0.69944(12)
C4 C 0.39010(10) 0.68080(6) 0.71395(12)
C5 C 0.44041(10) 0.72017(6) 0.66476(12)
C6 C 0.39914(10) 0.77026(6) 0.60129(12)
C7 C 0.30408(10) 0.78042(6) 0.58677(12)
C8 C 0.25312(10) 0.74126(6) 0.63610(12)
C9 C 0.15263(10) 0.74116(6) 0.63298(12)
C10 C 0.07849(11) 0.76099(8) 0.52138(16)
C11 C 0.09773(12) 0.79697(8) 0.63327(18)
C12 C 0.06232(10) 0.66557(6) 0.73103(12)
C13 C 0.06868(10) 0.61293(6) 0.79601(12)
C14 C 0.15400(10) 0.58354(6) 0.83188(12)
C15 C 0.23251(10) 0.60513(6) 0.80434(12)
C16 C -0.01395(10) 0.58740(6) 0.82705(12)
C17 C -0.08213(11) 0.62163(6) 0.85540(12)
C18 C -0.15515(11) 0.59426(9) 0.88731(14)
C19 C -0.10055(12) 0.50404(8) 0.86377(16)
C20 C -0.02548(11) 0.52703(6) 0.83051(13)
C21 C 0.45564(10) 0.81235(6) 0.55137(12)
C22 C 0.53338(10) 0.79429(6) 0.51431(12)
C23 C 0.58614(11) 0.83521(8) 0.47352(13)
C24 C 0.49156(11) 0.90944(6) 0.49676(12)
C25 C 0.43515(10) 0.87193(6) 0.54029(12)
H3 H 0.4184 0.6474 0.7556
H4 H 0.5038 0.7136 0.6751
H5 H 0.2748 0.8131 0.5434
H6 H 0.0205 0.7391 0.4944
H7 H 0.0965 0.7753 0.4505
H8 H 0.1281 0.8350 0.6362
H9 H 0.0521 0.7988 0.6801
H10 H 0.0059 0.6858 0.7066
H11 H 0.1576 0.5484 0.8751
H12 H 0.2890 0.5850 0.8283
H13 H -0.0784 0.6625 0.8528
H14 H -0.2002 0.6179 0.9066
H15 H -0.1066 0.4633 0.8659
H16 H 0.0181 0.5023 0.8107
H17 H 0.5493 0.7545 0.5184
H18 H 0.6374 0.8219 0.4490
H19 H 0.4757 0.9492 0.4882
H20 H 0.3838 0.8863 0.5630
N3 N 0.00484(12) 0.38626(8) 0.66003(18)
N4 N 0.79506(12) 0.74747(6) 0.36696(17)
C26 C 0.33735(11) 0.54373(6) 0.53883(12)
C27 C 0.42147(11) 0.52958(6) 0.62515(12)
C28 C 0.49728(11) 0.56238(6) 0.59639(12)
C29 C 0.59179(11) 0.56352(6) 0.65283(13)
C30 C 0.64846(11) 0.59915(6) 0.60540(13)
C31 C 0.61243(11) 0.63380(6) 0.50189(12)
C32 C 0.51689(11) 0.63224(6) 0.44458(12)
C33 C 0.45929(10) 0.59694(6) 0.49200(12)
C34 C 0.35681(11) 0.58736(6) 0.45057(12)
C35 C 0.30401(12) 0.58672(8) 0.31593(13)
C36 C 0.28905(12) 0.63574(8) 0.39395(13)
C37 C 0.25450(11) 0.51758(6) 0.54432(12)
C38 C 0.25514(12) 0.47658(6) 0.63721(13)
C39 C 0.33958(12) 0.46396(6) 0.72310(14)
C40 C 0.42256(11) 0.48970(6) 0.71780(13)
C41 C 0.16860(12) 0.44605(6) 0.64447(14)
C42 C 0.09223(13) 0.43926(8) 0.54490(17)
C43 C 0.01291(13) 0.41008(9) 0.55651(19)
C44 C 0.07856(16) 0.39290(9) 0.7554(2)
C45 C 0.15944(12) 0.42175(8) 0.75340(17)
C46 C 0.67614(11) 0.67218(6) 0.45574(13)
C47 C 0.75715(11) 0.69574(8) 0.53229(14)
C48 C 0.81229(12) 0.73277(8) 0.4843(2)
C49 C 0.71784(14) 0.72422(9) 0.29466(18)
C50 C 0.65745(12) 0.68761(6) 0.33334(14)
H21 H 0.6167 0.5405 0.7219
H22 H 0.7123 0.6004 0.6430
H23 H 0.4923 0.6552 0.3753
H24 H 0.2555 0.5576 0.2855
H25 H 0.3372 0.5938 0.2546
H26 H 0.3117 0.6750 0.3834
H27 H 0.2300 0.6387 0.4143
H28 H 0.1987 0.5275 0.4874
H29 H 0.3395 0.4374 0.7856
H30 H 0.4785 0.4804 0.7751
H31 H 0.0940 0.4545 0.4693
H32 H -0.0381 0.4068 0.4879
H33 H 0.0755 0.3768 0.8297
H34 H 0.2086 0.4256 0.8240
H35 H 0.7737 0.6865 0.6153
H36 H 0.8656 0.7487 0.5377
H37 H 0.7041 0.7329 0.2115
H38 H 0.6043 0.6728 0.2776
loop_
_geom_bond_atom_site_label_1
_geom_bond_atom_site_label_2
_geom_bond_site_symmetry_1
_geom_bond_site_symmetry_2
O1 H1 1_555 1_555
H2 O1 1_555 1_555
N1 C18 1_555 1_555
N2 C23 1_555 1_555
C1 C2 1_555 1_555
C2 C3 1_555 1_555
C3 C4 1_555 1_555
C4 C5 1_555 1_555
C5 C6 1_555 1_555
C6 C7 1_555 1_555
C7 C8 1_555 1_555
C8 C3 1_555 1_555
C9 C1 1_555 1_555
C10 C9 1_555 1_555
C11 C9 1_555 1_555
C12 C1 1_555 1_555
C13 C12 1_555 1_555
C14 C13 1_555 1_555
C15 C2 1_555 1_555
C16 C13 1_555 1_555
C17 C16 1_555 1_555
C18 C17 1_555 1_555
C19 N1 1_555 1_555
C20 C16 1_555 1_555
C21 C6 1_555 1_555
C22 C21 1_555 1_555
C23 C22 1_555 1_555
C24 N2 1_555 1_555
C25 C21 1_555 1_555
H3 C4 1_555 1_555
H4 C5 1_555 1_555
H5 C7 1_555 1_555
H6 C10 1_555 1_555
H7 C10 1_555 1_555
H8 C11 1_555 1_555
H9 C11 1_555 1_555
H10 C12 1_555 1_555
H11 C14 1_555 1_555
H12 C15 1_555 1_555
H13 C17 1_555 1_555
H14 C18 1_555 1_555
H15 C19 1_555 1_555
H16 C20 1_555 1_555
H17 C22 1_555 1_555
H18 C23 1_555 1_555
H19 C24 1_555 1_555
H20 C25 1_555 1_555
N3 C43 1_555 1_555
N4 C48 1_555 1_555
C26 C27 1_555 1_555
C27 C28 1_555 1_555
C28 C29 1_555 1_555
C29 C30 1_555 1_555
C30 C31 1_555 1_555
C31 C32 1_555 1_555
C32 C33 1_555 1_555
C33 C28 1_555 1_555
C34 C26 1_555 1_555
C35 C34 1_555 1_555
C36 C34 1_555 1_555
C37 C26 1_555 1_555
C38 C37 1_555 1_555
C39 C38 1_555 1_555
C40 C27 1_555 1_555
C41 C38 1_555 1_555
C42 C41 1_555 1_555
C43 C42 1_555 1_555
C44 N3 1_555 1_555
C45 C41 1_555 1_555
C46 C31 1_555 1_555
C47 C46 1_555 1_555
C48 C47 1_555 1_555
C49 N4 1_555 1_555
C50 C46 1_555 1_555
H21 C29 1_555 1_555
H22 C30 1_555 1_555
H23 C32 1_555 1_555
H24 C35 1_555 1_555
H25 C35 1_555 1_555
H26 C36 1_555 1_555
H27 C36 1_555 1_555
H28 C37 1_555 1_555
H29 C39 1_555 1_555
H30 C40 1_555 1_555
H31 C42 1_555 1_555
H32 C43 1_555 1_555
H33 C44 1_555 1_555
H34 C45 1_555 1_555
H35 C47 1_555 1_555
H36 C48 1_555 1_555
H37 C49 1_555 1_555
H38 C50 1_555 1_555
C8 C9 1_555 1_555
C10 C11 1_555 1_555
C14 C15 1_555 1_555
C19 C20 1_555 1_555
C24 C25 1_555 1_555
C33 C34 1_555 1_555
C35 C36 1_555 1_555
C39 C40 1_555 1_555
C44 C45 1_555 1_555
C49 C50 1_555 1_555

#END
