
#######################################################################
#
#                 Cambridge Crystallographic Data Centre
#                                CCDC 
#
#######################################################################
#
# If this CIF has been generated from an entry in the Cambridge 
# Structural Database, then it will include bibliographic, chemical, 
# crystal, experimental, refinement or atomic coordinate data resulting 
# from the CCDC's data processing and validation procedures.
#
#######################################################################

data_IDUTOT01
_chemical_formula_moiety         'C30 H32 N2 O2'
_chemical_name_systematic        
2,8-bis[butyl(methyl)amino]indeno[1,2-b]fluorene-6,12-dione
_symmetry_cell_setting           triclinic
_symmetry_space_group_name_H-M   'P -1'
_symmetry_Int_Tables_number      2
_space_group_name_Hall           '-P 1'
loop_
_symmetry_equiv_pos_site_id
_symmetry_equiv_pos_as_xyz
1 x,y,z
2 -x,-y,-z
_cell_length_a                   7.500(3)
_cell_length_b                   8.528(4)
_cell_length_c                   10.009(4)
_cell_angle_alpha                80.48(4)
_cell_angle_beta                 73.28(3)
_cell_angle_gamma                83.45(3)
_cell_volume                     603.167
_exptl_crystal_colour            'dark black'
_exptl_crystal_description       block
_cell_formula_units_Z            1
loop_
_atom_site_label
_atom_site_type_symbol
_atom_site_fract_x
_atom_site_fract_y
_atom_site_fract_z
O1 O -0.3378(4) 0.3837(4) 0.3232(4)
N1 N 0.1873(6) 0.2384(6) -0.1521(5)
C1 C 0.1985(6) 0.4940(6) 0.4523(5)
H1 H 0.3282 0.4894 0.4229
C2 C 0.0969(6) 0.4506(5) 0.3713(5)
C3 C -0.1000(6) 0.4552(6) 0.4208(5)
C4 C -0.1726(6) 0.4000(6) 0.3145(5)
C5 C -0.0091(6) 0.3623(5) 0.1979(5)
C6 C 0.1494(6) 0.3957(5) 0.2319(5)
C7 C 0.3228(6) 0.3719(6) 0.1356(5)
H2 H 0.4313 0.3912 0.1557
C8 C 0.3324(7) 0.3194(6) 0.0101(5)
H3 H 0.4487 0.3063 -0.0541
C9 C 0.0012(6) 0.3075(6) 0.0746(5)
H4 H -0.1074 0.2850 0.0564
C10 C 0.1737(7) 0.2849(6) -0.0245(5)
C11 C 0.0277(7) 0.1792(6) -0.1765(6)
H5 H -0.0074 0.0843 -0.1117
H6 H 0.0593 0.1551 -0.2713
H7 H -0.0748 0.2588 -0.1629
C12 C 0.3682(7) 0.2104(7) -0.2521(6)
H8 H 0.4456 0.2960 -0.2571
H9 H 0.3502 0.2139 -0.3447
C13 C 0.4698(10) 0.0539(8) -0.2155(7)
H10 H 0.4108 -0.0318 -0.2352
H11 H 0.4602 0.0375 -0.1155
C14 C 0.6878(10) 0.0474(9) -0.3033(10)
H12 H 0.7350 0.1517 -0.3161
H13 H 0.7592 -0.0275 -0.2510
C15 C 0.7095(13) 0.0006(11) -0.4343(9)
H14 H 0.8390 -0.0013 -0.4860
H15 H 0.6385 0.0748 -0.4857
H16 H 0.6659 -0.1039 -0.4214
O1A O 0.3378(4) 0.6163(4) 0.6768(4)
N1A N -0.1873(6) 0.7616(6) 1.1521(5)
C1A C -0.1985(6) 0.5060(6) 0.5477(5)
H1A H -0.3282 0.5106 0.5771
C2A C -0.0969(6) 0.5494(5) 0.6287(5)
C3A C 0.1000(6) 0.5448(6) 0.5792(5)
C4A C 0.1726(6) 0.6000(6) 0.6855(5)
C5A C 0.0091(6) 0.6377(5) 0.8021(5)
C6A C -0.1494(6) 0.6043(5) 0.7681(5)
C7A C -0.3228(6) 0.6281(6) 0.8644(5)
H2A H -0.4313 0.6088 0.8443
C8A C -0.3324(7) 0.6806(6) 0.9899(5)
H3A H -0.4487 0.6937 1.0541
C9A C -0.0012(6) 0.6925(6) 0.9254(5)
H4A H 0.1074 0.7150 0.9436
C10A C -0.1737(7) 0.7151(6) 1.0245(5)
C11A C -0.0277(7) 0.8208(6) 1.1765(6)
H5A H 0.0074 0.9157 1.1117
H6A H -0.0593 0.8449 1.2713
H7A H 0.0748 0.7412 1.1629
C12A C -0.3682(7) 0.7896(7) 1.2521(6)
H8A H -0.4456 0.7040 1.2571
H9A H -0.3502 0.7861 1.3447
C13A C -0.4698(10) 0.9461(8) 1.2155(7)
H10A H -0.4108 1.0318 1.2352
H11A H -0.4602 0.9625 1.1155
C14A C -0.6878(10) 0.9526(9) 1.3033(10)
H12A H -0.7350 0.8483 1.3161
H13A H -0.7592 1.0275 1.2510
C15A C -0.7095(13) 0.9994(11) 1.4343(9)
H14A H -0.8390 1.0013 1.4860
H15A H -0.6385 0.9252 1.4857
H16A H -0.6659 1.1039 1.4214
loop_
_geom_bond_atom_site_label_1
_geom_bond_atom_site_label_2
_geom_bond_site_symmetry_1
_geom_bond_site_symmetry_2
O1 C4 1_555 1_555
N1 C10 1_555 1_555
C1 H1 1_555 1_555
C2 C1 1_555 1_555
C3 C2 1_555 1_555
C4 C3 1_555 1_555
C5 C4 1_555 1_555
C6 C2 1_555 1_555
C7 C6 1_555 1_555
H2 C7 1_555 1_555
C8 C7 1_555 1_555
H3 C8 1_555 1_555
C9 C5 1_555 1_555
H4 C9 1_555 1_555
C10 C8 1_555 1_555
C11 N1 1_555 1_555
H5 C11 1_555 1_555
H6 C11 1_555 1_555
H7 C11 1_555 1_555
C12 N1 1_555 1_555
H8 C12 1_555 1_555
H9 C12 1_555 1_555
C13 C12 1_555 1_555
H10 C13 1_555 1_555
H11 C13 1_555 1_555
C14 C13 1_555 1_555
H12 C14 1_555 1_555
H13 C14 1_555 1_555
C15 C14 1_555 1_555
H14 C15 1_555 1_555
H15 C15 1_555 1_555
H16 C15 1_555 1_555
O1A C4A 1_555 1_555
N1A C10A 1_555 1_555
C1A C3 1_555 1_555
H1A C1A 1_555 1_555
C2A C1A 1_555 1_555
C3A C1 1_555 1_555
C4A C3A 1_555 1_555
C5A C4A 1_555 1_555
C6A C2A 1_555 1_555
C7A C6A 1_555 1_555
H2A C7A 1_555 1_555
C8A C7A 1_555 1_555
H3A C8A 1_555 1_555
C9A C5A 1_555 1_555
H4A C9A 1_555 1_555
C10A C8A 1_555 1_555
C11A N1A 1_555 1_555
H5A C11A 1_555 1_555
H6A C11A 1_555 1_555
H7A C11A 1_555 1_555
C12A N1A 1_555 1_555
H8A C12A 1_555 1_555
H9A C12A 1_555 1_555
C13A C12A 1_555 1_555
H10A C13A 1_555 1_555
H11A C13A 1_555 1_555
C14A C13A 1_555 1_555
H12A C14A 1_555 1_555
H13A C14A 1_555 1_555
C15A C14A 1_555 1_555
H14A C15A 1_555 1_555
H15A C15A 1_555 1_555
H16A C15A 1_555 1_555
C5 C6 1_555 1_555
C9 C10 1_555 1_555
C2A C3A 1_555 1_555
C5A C6A 1_555 1_555
C9A C10A 1_555 1_555

#END
