
#######################################################################
#
#                 Cambridge Crystallographic Data Centre
#                                CCDC 
#
#######################################################################
#
# If this CIF has been generated from an entry in the Cambridge 
# Structural Database, then it will include bibliographic, chemical, 
# crystal, experimental, refinement or atomic coordinate data resulting 
# from the CCDC's data processing and validation procedures.
#
#######################################################################

data_IDUVUB
_chemical_formula_moiety         'C28 H24'
_chemical_name_systematic        
12a,13,14,15,15a,16-hexahydro-12H-benzo[b]benzo[5,6]indeno[1,2-f]fluorene
_symmetry_cell_setting           orthorhombic
_symmetry_space_group_name_H-M   'P 21 21 21'
_symmetry_Int_Tables_number      19
_space_group_name_Hall           'P 2ac 2ab'
loop_
_symmetry_equiv_pos_site_id
_symmetry_equiv_pos_as_xyz
1 x,y,z
2 1/2-x,-y,1/2+z
3 -x,1/2+y,1/2-z
4 1/2+x,1/2-y,-z
_cell_length_a                   9.9333(9)
_cell_length_b                   11.0826(10)
_cell_length_c                   17.7523(17)
_cell_angle_alpha                90
_cell_angle_beta                 90
_cell_angle_gamma                90
_cell_volume                     1954.29
_exptl_crystal_colour            colorless
_exptl_crystal_description       prismatic
_cell_formula_units_Z            4
loop_
_atom_site_label
_atom_site_type_symbol
_atom_site_fract_x
_atom_site_fract_y
_atom_site_fract_z
C1 C 0.49658(16) 0.04806(16) 0.16852(10)
C2 C 0.60168(18) 0.11386(19) 0.20245(11)
H1 H 0.5996 0.1977 0.2013
C3 C 0.7064(2) 0.0566(2) 0.23687(13)
H2 H 0.7745 0.1017 0.2593
C4 C 0.7123(2) -0.0689(3) 0.23879(15)
H3 H 0.7848 -0.1071 0.2618
C5 C 0.6129(2) -0.1353(2) 0.20729(14)
H4 H 0.6177 -0.2191 0.2091
C6 C 0.50199(18) -0.07989(18) 0.17171(11)
C7 C 0.3944(2) -0.14719(17) 0.14105(12)
H5 H 0.3965 -0.2310 0.1431
C8 C 0.28789(18) -0.09042(16) 0.10863(11)
C9 C 0.28435(15) 0.03699(15) 0.10325(9)
C10 C 0.38536(16) 0.10447(16) 0.13287(9)
H6 H 0.3816 0.1882 0.1298
C11 C 0.15920(19) -0.14269(17) 0.07871(14)
H7 H 0.1263 -0.2068 0.1110
H8 H 0.1712 -0.1739 0.0281
C12 C 0.06324(18) -0.03442(16) 0.07920(12)
H9 H 0.0285 -0.0253 0.1306
C13 C 0.15525(16) 0.07446(15) 0.06271(10)
C14 C 0.18435(18) 0.09248(16) -0.02330(10)
H10 H 0.2542 0.0362 -0.0402
C15 C 0.0579(2) 0.07797(19) -0.07095(12)
H11 H -0.0017 0.1456 -0.0613
H12 H 0.0828 0.0804 -0.1238
C16 C -0.0174(2) -0.0380(2) -0.05558(14)
H13 H -0.0974 -0.0413 -0.0869
H14 H 0.0392 -0.1063 -0.0685
C17 C -0.0573(2) -0.04608(19) 0.02624(14)
H15 H -0.1014 -0.1229 0.0351
H16 H -0.1215 0.0174 0.0375
C18 C 0.23600(17) 0.22237(16) -0.02712(10)
H17 H 0.3310 0.2266 -0.0148
H18 H 0.2217 0.2569 -0.0767
C19 C 0.15239(15) 0.28504(15) 0.03110(10)
C20 C 0.10532(15) 0.19918(15) 0.08431(9)
C21 C 0.02316(16) 0.23403(16) 0.14170(10)
H19 H -0.0066 0.1776 0.1767
C22 C -0.01720(16) 0.35681(16) 0.14823(10)
C23 C 0.02965(16) 0.44165(15) 0.09480(11)
C24 C 0.11612(16) 0.40232(16) 0.03608(10)
H20 H 0.1480 0.4575 0.0009
C25 C -0.10693(19) 0.39714(19) 0.20421(11)
H21 H -0.1389 0.3429 0.2399
C26 C -0.1477(2) 0.5148(2) 0.20687(13)
H22 H -0.2079 0.5394 0.2440
C27 C -0.1003(2) 0.5984(2) 0.15457(14)
H23 H -0.1274 0.6786 0.1573
C28 C -0.01421(19) 0.56217(17) 0.09959(13)
H24 H 0.0163 0.6181 0.0644
loop_
_geom_bond_atom_site_label_1
_geom_bond_atom_site_label_2
_geom_bond_site_symmetry_1
_geom_bond_site_symmetry_2
C1 C2 1_555 1_555
C2 H1 1_555 1_555
C3 C2 1_555 1_555
H2 C3 1_555 1_555
C4 C3 1_555 1_555
H3 C4 1_555 1_555
C5 C4 1_555 1_555
H4 C5 1_555 1_555
C6 C1 1_555 1_555
C7 C6 1_555 1_555
H5 C7 1_555 1_555
C8 C7 1_555 1_555
C9 C8 1_555 1_555
C10 C1 1_555 1_555
H6 C10 1_555 1_555
C11 C8 1_555 1_555
H7 C11 1_555 1_555
H8 C11 1_555 1_555
C12 C11 1_555 1_555
H9 C12 1_555 1_555
C13 C9 1_555 1_555
C14 C13 1_555 1_555
H10 C14 1_555 1_555
C15 C14 1_555 1_555
H11 C15 1_555 1_555
H12 C15 1_555 1_555
C16 C15 1_555 1_555
H13 C16 1_555 1_555
H14 C16 1_555 1_555
C17 C12 1_555 1_555
H15 C17 1_555 1_555
H16 C17 1_555 1_555
C18 C14 1_555 1_555
H17 C18 1_555 1_555
H18 C18 1_555 1_555
C19 C18 1_555 1_555
C20 C13 1_555 1_555
C21 C20 1_555 1_555
H19 C21 1_555 1_555
C22 C21 1_555 1_555
C23 C22 1_555 1_555
C24 C19 1_555 1_555
H20 C24 1_555 1_555
C25 C22 1_555 1_555
H21 C25 1_555 1_555
C26 C25 1_555 1_555
H22 C26 1_555 1_555
C27 C26 1_555 1_555
H23 C27 1_555 1_555
C28 C23 1_555 1_555
H24 C28 1_555 1_555
C5 C6 1_555 1_555
C9 C10 1_555 1_555
C12 C13 1_555 1_555
C16 C17 1_555 1_555
C19 C20 1_555 1_555
C23 C24 1_555 1_555
C27 C28 1_555 1_555

#END
