
#######################################################################
#
#                 Cambridge Crystallographic Data Centre
#                                CCDC 
#
#######################################################################
#
# If this CIF has been generated from an entry in the Cambridge 
# Structural Database, then it will include bibliographic, chemical, 
# crystal, experimental, refinement or atomic coordinate data resulting 
# from the CCDC's data processing and validation procedures.
#
#######################################################################

data_IDUWAI
_chemical_formula_moiety         'C22 H24 N1 O2 P1'
_chemical_name_systematic        
N,N-dimethyl-1,2,3,4,15,15a-hexahydro-10H-4,5-methanobenzo[g]fluoreno[5,4a-de][1,3,2]dioxaphosphocin-10-amine
_symmetry_cell_setting           orthorhombic
_symmetry_space_group_name_H-M   'P 21 21 21'
_symmetry_Int_Tables_number      19
_space_group_name_Hall           'P 2ac 2ab'
loop_
_symmetry_equiv_pos_site_id
_symmetry_equiv_pos_as_xyz
1 x,y,z
2 1/2-x,-y,1/2+z
3 -x,1/2+y,1/2-z
4 1/2+x,1/2-y,-z
_cell_length_a                   11.4166(14)
_cell_length_b                   11.8782(15)
_cell_length_c                   13.8141(17)
_cell_angle_alpha                90
_cell_angle_beta                 90
_cell_angle_gamma                90
_cell_volume                     1873.31
_exptl_crystal_colour            colorless
_exptl_crystal_description       prismatic
_cell_formula_units_Z            4
loop_
_atom_site_label
_atom_site_type_symbol
_atom_site_fract_x
_atom_site_fract_y
_atom_site_fract_z
P1 P 0.51883(7) 1.16695(6) 1.11041(6)
N1 N 0.4951(3) 1.2590(2) 1.02359(19)
O1 O 0.62333(17) 1.09791(16) 1.05233(15)
O2 O 0.41334(17) 1.06923(16) 1.10765(15)
C1 C 0.6605(2) 1.0030(2) 1.1035(2)
C2 C 0.7377(3) 1.0153(3) 1.1797(2)
H1 H 0.7705 1.0854 1.1925
C3 C 0.7663(3) 0.9244(3) 1.2366(2)
H2 H 0.8206 0.9325 1.2863
C4 C 0.7146(2) 0.8215(3) 1.2200(2)
H3 H 0.7318 0.7604 1.2596
C5 C 0.6366(2) 0.8097(2) 1.1438(2)
C6 C 0.6118(2) 0.8987(2) 1.08259(19)
C7 C 0.5288(2) 0.8657(2) 1.00203(19)
C8 C 0.4737(2) 0.7553(2) 1.0460(2)
H4 H 0.4036 0.7768 1.0825
C9 C 0.5647(3) 0.7091(2) 1.1185(2)
H5 H 0.5266 0.6784 1.1754
H6 H 0.6125 0.6510 1.0889
C10 C 0.4376(2) 0.6704(2) 0.9705(2)
H7 H 0.3802 0.7043 0.9277
H8 H 0.4010 0.6066 1.0022
C11 C 0.5423(3) 0.6290(2) 0.9104(3)
H9 H 0.5744 0.5620 0.9405
H10 H 0.5151 0.6083 0.8463
C12 C 0.6393(3) 0.7170(2) 0.9007(2)
H11 H 0.6952 0.7071 0.9528
H12 H 0.6803 0.7055 0.8400
C13 C 0.5916(2) 0.8368(2) 0.90374(19)
H13 H 0.6569 0.8892 0.8948
C14 C 0.5004(3) 0.8587(3) 0.8241(2)
H14 H 0.5363 0.8949 0.7686
H15 H 0.4644 0.7889 0.8033
C15 C 0.4123(2) 0.9342(2) 0.8698(2)
C16 C 0.4358(2) 0.9491(2) 0.9684(2)
C17 C 0.3758(2) 1.0321(2) 1.0171(2)
C18 C 0.2821(3) 1.0870(3) 0.9735(3)
H16 H 0.2385 1.1392 1.0084
C19 C 0.2538(3) 1.0638(3) 0.8782(3)
H17 H 0.1893 1.0985 0.8500
C20 C 0.3196(3) 0.9908(3) 0.8254(3)
H18 H 0.3029 0.9786 0.7603
C21 C 0.5128(4) 1.2442(3) 0.9207(2)
H19 H 0.4385 1.2453 0.8883
H20 H 0.5508 1.1733 0.9092
H21 H 0.5610 1.3041 0.8964
C22 C 0.4346(4) 1.3620(3) 1.0510(4)
H22 H 0.4711 1.4251 1.0197
H23 H 0.4387 1.3715 1.1199
H24 H 0.3541 1.3574 1.0314
loop_
_geom_bond_atom_site_label_1
_geom_bond_atom_site_label_2
_geom_bond_site_symmetry_1
_geom_bond_site_symmetry_2
P1 N1 1_555 1_555
N1 C21 1_555 1_555
O1 P1 1_555 1_555
O2 P1 1_555 1_555
C1 O1 1_555 1_555
C2 C1 1_555 1_555
H1 C2 1_555 1_555
C3 C2 1_555 1_555
H2 C3 1_555 1_555
C4 C3 1_555 1_555
H3 C4 1_555 1_555
C5 C4 1_555 1_555
C6 C1 1_555 1_555
C7 C6 1_555 1_555
C8 C7 1_555 1_555
H4 C8 1_555 1_555
C9 C5 1_555 1_555
H5 C9 1_555 1_555
H6 C9 1_555 1_555
C10 C8 1_555 1_555
H7 C10 1_555 1_555
H8 C10 1_555 1_555
C11 C10 1_555 1_555
H9 C11 1_555 1_555
H10 C11 1_555 1_555
C12 C11 1_555 1_555
H11 C12 1_555 1_555
H12 C12 1_555 1_555
C13 C7 1_555 1_555
H13 C13 1_555 1_555
C14 C13 1_555 1_555
H14 C14 1_555 1_555
H15 C14 1_555 1_555
C15 C14 1_555 1_555
C16 C7 1_555 1_555
C17 O2 1_555 1_555
C18 C17 1_555 1_555
H16 C18 1_555 1_555
C19 C18 1_555 1_555
H17 C19 1_555 1_555
C20 C15 1_555 1_555
H18 C20 1_555 1_555
C21 H19 1_555 1_555
H20 C21 1_555 1_555
H21 C21 1_555 1_555
C22 N1 1_555 1_555
H22 C22 1_555 1_555
H23 C22 1_555 1_555
H24 C22 1_555 1_555
C5 C6 1_555 1_555
C8 C9 1_555 1_555
C12 C13 1_555 1_555
C15 C16 1_555 1_555
C16 C17 1_555 1_555
C19 C20 1_555 1_555

#END
