
#######################################################################
#
#                 Cambridge Crystallographic Data Centre
#                                CCDC 
#
#######################################################################
#
# If this CIF has been generated from an entry in the Cambridge 
# Structural Database, then it will include bibliographic, chemical, 
# crystal, experimental, refinement or atomic coordinate data resulting 
# from the CCDC's data processing and validation procedures.
#
#######################################################################

data_IDUWIQ
_chemical_formula_moiety         'C24 H26 O5'
_chemical_name_systematic        
2,6-bis[(2,5-dimethoxyphenyl)methylidene]cyclohexan-1-one
_symmetry_cell_setting           orthorhombic
_symmetry_space_group_name_H-M   'P n a 21'
_symmetry_Int_Tables_number      33
_space_group_name_Hall           'P 2c -2n'
loop_
_symmetry_equiv_pos_site_id
_symmetry_equiv_pos_as_xyz
1 x,y,z
2 -x,-y,1/2+z
3 1/2-x,1/2+y,1/2+z
4 1/2+x,1/2-y,z
_cell_length_a                   8.3744(9)
_cell_length_b                   25.699(3)
_cell_length_c                   9.3187(9)
_cell_angle_alpha                90
_cell_angle_beta                 90
_cell_angle_gamma                90
_cell_volume                     2005.51
_exptl_crystal_colour            yellow
_exptl_crystal_description       block
_cell_formula_units_Z            4
loop_
_atom_site_label
_atom_site_type_symbol
_atom_site_fract_x
_atom_site_fract_y
_atom_site_fract_z
O1 O -0.7113(3) -0.60207(9) -0.3411(2)
O2 O -0.8315(3) -0.45891(9) -0.6253(2)
O3 O -1.1571(3) -0.35660(14) -0.1970(3)
O4 O -0.2940(3) -0.70194(8) -0.2327(2)
O5 O -0.3513(3) -0.69367(9) 0.3570(3)
C1 C -0.6818(3) -0.57223(12) -0.2418(3)
C2 C -0.5810(3) -0.58929(11) -0.1178(3)
C3 C -0.5519(4) -0.55191(11) 0.0039(3)
H1 H -0.4491 -0.5592 0.0474
H2 H -0.6336 -0.5565 0.0766
C4 C -0.5547(4) -0.49619(12) -0.0495(3)
H3 H -0.4717 -0.4913 -0.1209
H4 H -0.5340 -0.4726 0.0297
C5 C -0.7166(3) -0.48409(12) -0.1150(3)
H5 H -0.7993 -0.4896 -0.0437
H6 H -0.7198 -0.4478 -0.1438
C6 C -0.7484(3) -0.51806(11) -0.2432(3)
C7 C -0.8269(3) -0.50294(12) -0.3603(3)
H7 H -0.8280 -0.5265 -0.4360
C8 C -0.9116(4) -0.45388(12) -0.3852(3)
C9 C -0.9940(4) -0.42815(14) -0.2767(4)
H8 H -0.9947 -0.4420 -0.1846
C10 C -1.0749(4) -0.38227(14) -0.3035(4)
C11 C -1.0803(4) -0.36232(13) -0.4395(4)
H9 H -1.1372 -0.3319 -0.4575
C12 C -1.0012(4) -0.38720(13) -0.5502(4)
H10 H -1.0049 -0.3735 -0.6426
C13 C -0.9168(4) -0.43233(12) -0.5236(3)
C14 C -0.8184(4) -0.43529(15) -0.7639(4)
H11 H -0.7771 -0.4006 -0.7539
H12 H -0.9218 -0.4340 -0.8082
H13 H -0.7474 -0.4555 -0.8227
C15 C -1.0696(5) -0.34150(16) -0.0770(4)
H14 H -1.1165 -0.3108 -0.0360
H15 H -0.9615 -0.3342 -0.1049
H16 H -1.0704 -0.3690 -0.0074
C16 C -0.5171(3) -0.63703(11) -0.1293(4)
H17 H -0.5398 -0.6544 -0.2145
C17 C -0.4171(3) -0.66598(11) -0.0281(3)
C18 C -0.3057(4) -0.70115(12) -0.0847(3)
C19 C -0.2144(4) -0.73153(12) 0.0050(4)
H18 H -0.1400 -0.7545 -0.0334
C20 C -0.2328(4) -0.72799(13) 0.1516(4)
H19 H -0.1714 -0.7489 0.2116
C21 C -0.3419(4) -0.69363(13) 0.2102(3)
C22 C -0.4342(4) -0.66279(12) 0.1209(3)
H20 H -0.5079 -0.6398 0.1603
C23 C -0.4667(4) -0.66119(14) 0.4227(4)
H21 H -0.4604 -0.6649 0.5250
H22 H -0.5713 -0.6710 0.3905
H23 H -0.4464 -0.6256 0.3970
C24 C -0.1926(5) -0.73970(15) -0.2956(4)
H24 H -0.0845 -0.7336 -0.2656
H25 H -0.1991 -0.7372 -0.3983
H26 H -0.2254 -0.7738 -0.2657
loop_
_geom_bond_atom_site_label_1
_geom_bond_atom_site_label_2
_geom_bond_site_symmetry_1
_geom_bond_site_symmetry_2
O1 C1 1_555 1_555
O2 C13 1_555 1_555
O3 C10 1_555 1_555
O4 C18 1_555 1_555
O5 C21 1_555 1_555
C1 C2 1_555 1_555
C2 C3 1_555 1_555
C3 H1 1_555 1_555
H2 C3 1_555 1_555
C4 C3 1_555 1_555
H3 C4 1_555 1_555
H4 C4 1_555 1_555
C5 C4 1_555 1_555
H5 C5 1_555 1_555
H6 C5 1_555 1_555
C6 C1 1_555 1_555
C7 C6 1_555 1_555
H7 C7 1_555 1_555
C8 C7 1_555 1_555
C9 C8 1_555 1_555
H8 C9 1_555 1_555
C10 C9 1_555 1_555
C11 C10 1_555 1_555
H9 C11 1_555 1_555
C12 C11 1_555 1_555
H10 C12 1_555 1_555
C13 C8 1_555 1_555
C14 O2 1_555 1_555
H11 C14 1_555 1_555
H12 C14 1_555 1_555
H13 C14 1_555 1_555
C15 O3 1_555 1_555
H14 C15 1_555 1_555
H15 C15 1_555 1_555
H16 C15 1_555 1_555
C16 C2 1_555 1_555
H17 C16 1_555 1_555
C17 C16 1_555 1_555
C18 C17 1_555 1_555
C19 C18 1_555 1_555
H18 C19 1_555 1_555
C20 C19 1_555 1_555
H19 C20 1_555 1_555
C21 C20 1_555 1_555
C22 C17 1_555 1_555
H20 C22 1_555 1_555
C23 O5 1_555 1_555
H21 C23 1_555 1_555
H22 C23 1_555 1_555
H23 C23 1_555 1_555
C24 O4 1_555 1_555
H24 C24 1_555 1_555
H25 C24 1_555 1_555
H26 C24 1_555 1_555
C5 C6 1_555 1_555
C12 C13 1_555 1_555
C21 C22 1_555 1_555

#END
