
#######################################################################
#
#                 Cambridge Crystallographic Data Centre
#                                CCDC 
#
#######################################################################
#
# If this CIF has been generated from an entry in the Cambridge 
# Structural Database, then it will include bibliographic, chemical, 
# crystal, experimental, refinement or atomic coordinate data resulting 
# from the CCDC's data processing and validation procedures.
#
#######################################################################

data_IDUWEK
_chemical_formula_moiety         'C18 H19 N1 O5'
_chemical_name_systematic        
'(E)-Dimethyl 4-(ethylamino)-5-styrylfuran-2,3-dicarboxylate'
_symmetry_cell_setting           triclinic
_symmetry_space_group_name_H-M   'P -1'
_symmetry_Int_Tables_number      2
_space_group_name_Hall           '-P 1'
loop_
_symmetry_equiv_pos_site_id
_symmetry_equiv_pos_as_xyz
1 x,y,z
2 -x,-y,-z
_cell_length_a                   7.765(4)
_cell_length_b                   9.043(4)
_cell_length_c                   13.044(11)
_cell_angle_alpha                70.17(3)
_cell_angle_beta                 82.36(3)
_cell_angle_gamma                75.52(3)
_cell_volume                     833.088
_exptl_crystal_colour            orange
_exptl_crystal_description       needle
_chemical_melting_point          '391-392 K'
_cell_formula_units_Z            2
_exptl_crystal_recrystallization_method EtOAc
loop_
_atom_site_label
_atom_site_type_symbol
_atom_site_fract_x
_atom_site_fract_y
_atom_site_fract_z
C1 C 0.4641(2) 0.0790(2) 0.62418(14)
C2 C 0.4491(2) -0.0730(2) 0.68415(14)
C3 C 0.5915(2) -0.1377(2) 0.75712(15)
C4 C 0.6854(2) -0.0196(2) 0.73558(15)
C5 C 0.8351(2) -0.0030(2) 0.78157(15)
H1 H 0.8893 -0.0913 0.8374
C6 C 0.9023(2) 0.1275(2) 0.75108(16)
H2 H 0.8488 0.2135 0.6936
C7 C 1.0501(2) 0.1523(2) 0.79683(15)
C8 C 1.1458(2) 0.0342(2) 0.88139(16)
H3 H 1.116 -0.0658 0.9111
C9 C 1.2843(3) 0.0638(3) 0.9215(2)
H4 H 1.3478 -0.0168 0.9777
C10 C 1.3300(3) 0.2103(3) 0.8799(2)
H5 H 1.4236 0.2294 0.9077
C11 C 1.2372(3) 0.3281(3) 0.7974(2)
H6 H 1.2674 0.428 0.7685
C12 C 1.0988(3) 0.2990(2) 0.75696(18)
H7 H 1.036 0.3806 0.701
C13 C 0.7820(3) -0.3771(2) 0.8814(2)
H8 H 0.812 -0.3242 0.9279
H9 H 0.8757 -0.3783 0.8243
C14 C 0.7739(3) -0.5465(3) 0.9474(2)
H10 H 0.6969 -0.5466 1.0114
H11 H 0.8912 -0.6071 0.9687
H12 H 0.7283 -0.5946 0.9046
C15 C 0.3199(2) -0.1663(2) 0.68137(16)
C16 C 0.1146(3) -0.2014(3) 0.5798(2)
H13 H 0.1741 -0.3125 0.594
H14 H 0.0733 -0.1584 0.5071
H15 H 0.015 -0.1931 0.6313
C17 C 0.3561(2) 0.2128(2) 0.54130(16)
C18 C 0.3410(3) 0.4695(2) 0.4141(2)
H16 H 0.3137 0.4367 0.3565
H17 H 0.4116 0.5492 0.3844
H18 H 0.2324 0.5143 0.4479
N1 N 0.6195(2) -0.2883(2) 0.83366(16)
O1 O 0.60740(14) 0.11333(13) 0.65328(10)
O2 O 0.20954(19) 0.21669(18) 0.52121(14)
O3 O 0.43951(17) 0.33142(14) 0.49437(12)
O4 O 0.2979(2) -0.28477(18) 0.75497(13)
O5 O 0.23681(16) -0.11152(15) 0.59040(11)
H19 H 0.537(3) -0.336(2) 0.8373(17)
loop_
_geom_bond_atom_site_label_1
_geom_bond_atom_site_label_2
_geom_bond_site_symmetry_1
_geom_bond_site_symmetry_2
C1 C2 1_555 1_555
C2 C3 1_555 1_555
C3 C4 1_555 1_555
C4 C5 1_555 1_555
C5 H1 1_555 1_555
C6 C5 1_555 1_555
H2 C6 1_555 1_555
C7 C6 1_555 1_555
C8 C7 1_555 1_555
H3 C8 1_555 1_555
C9 C8 1_555 1_555
H4 C9 1_555 1_555
C10 C9 1_555 1_555
H5 C10 1_555 1_555
C11 C10 1_555 1_555
H6 C11 1_555 1_555
C12 C7 1_555 1_555
H7 C12 1_555 1_555
C13 H8 1_555 1_555
H9 C13 1_555 1_555
C14 C13 1_555 1_555
H10 C14 1_555 1_555
H11 C14 1_555 1_555
H12 C14 1_555 1_555
C15 C2 1_555 1_555
C16 H13 1_555 1_555
H14 C16 1_555 1_555
H15 C16 1_555 1_555
C17 C1 1_555 1_555
C18 H16 1_555 1_555
H17 C18 1_555 1_555
H18 C18 1_555 1_555
N1 C3 1_555 1_555
O1 C1 1_555 1_555
O2 C17 1_555 1_555
O3 C17 1_555 1_555
O4 C15 1_555 1_555
O5 C15 1_555 1_555
H19 N1 1_555 1_555
C4 O1 1_555 1_555
C11 C12 1_555 1_555
C13 N1 1_555 1_555
C16 O5 1_555 1_555
C18 O3 1_555 1_555

#END
