
#######################################################################
#
#                 Cambridge Crystallographic Data Centre
#                                CCDC 
#
#######################################################################
#
# If this CIF has been generated from an entry in the Cambridge 
# Structural Database, then it will include bibliographic, chemical, 
# crystal, experimental, refinement or atomic coordinate data resulting 
# from the CCDC's data processing and validation procedures.
#
#######################################################################

data_IDUXIR
_chemical_formula_moiety         'C20 H18 Br2 O2,C5 H9 N1 O1'
_chemical_name_systematic        
'1,8-dibromo-9a,10,11,12,12a,13-hexahydro-9H-indeno[2,1-d]fluorene-4,5-diol 1-methylpyrrolidin-2-one solvate'
_symmetry_cell_setting           monoclinic
_symmetry_space_group_name_H-M   'P 21'
_symmetry_Int_Tables_number      4
_space_group_name_Hall           'P 2yb'
loop_
_symmetry_equiv_pos_site_id
_symmetry_equiv_pos_as_xyz
1 x,y,z
2 -x,1/2+y,-z
_cell_length_a                   9.5365(10)
_cell_length_b                   9.5132(10)
_cell_length_c                   12.9888(14)
_cell_angle_alpha                90
_cell_angle_beta                 97.298(2)
_cell_angle_gamma                90
_cell_volume                     1168.83
_exptl_crystal_colour            colorless
_exptl_crystal_description       prismatic
_cell_formula_units_Z            2
loop_
_atom_site_label
_atom_site_type_symbol
_atom_site_fract_x
_atom_site_fract_y
_atom_site_fract_z
Br1 Br 0.34897(7) 0.48379(6) 0.42112(5)
Br2 Br -0.33639(8) 1.28459(10) 0.22751(7)
O1 O -0.1325(4) 0.8039(5) 0.1823(3)
O2 O 0.2080(5) 1.0363(5) 0.1173(3)
H1 H 0.2286 1.0715 0.0636
C1 C 0.0821(5) 0.8030(5) 0.2966(4)
C2 C -0.0248(6) 0.7319(6) 0.2375(4)
C3 C -0.0214(6) 0.5852(6) 0.2336(5)
H2 H -0.0936 0.5367 0.1936
C4 C 0.0888(6) 0.5116(6) 0.2889(4)
H3 H 0.0910 0.4140 0.2865
C5 C 0.1945(6) 0.5844(6) 0.3472(4)
C6 C 0.1936(5) 0.7290(5) 0.3517(4)
C7 C 0.2973(6) 0.8266(6) 0.4078(4)
H4 H 0.3934 0.7965 0.4030
H5 H 0.2838 0.8340 0.4803
C8 C 0.2648(5) 0.9662(6) 0.3510(4)
H6 H 0.3095 0.9637 0.2871
C9 C 0.3172(7) 1.0983(7) 0.4109(5)
H7 H 0.4179 1.0900 0.4328
H8 H 0.3020 1.1793 0.3656
C10 C 0.2424(8) 1.1207(7) 0.5045(5)
H9 H 0.2766 1.2061 0.5399
H10 H 0.2619 1.0427 0.5523
C11 C 0.0851(7) 1.1319(7) 0.4717(4)
H11 H 0.0671 1.2156 0.4294
H12 H 0.0387 1.1444 0.5333
C12 C 0.0180(6) 1.0070(6) 0.4112(4)
H13 H 0.0085 0.9277 0.4580
C13 C 0.1025(5) 0.9608(5) 0.3195(4)
C14 C -0.1252(7) 1.0503(7) 0.3571(5)
H14 H -0.1872 0.9697 0.3436
H15 H -0.1699 1.1186 0.3978
C15 C -0.0893(6) 1.1140(6) 0.2574(4)
C16 C 0.0384(6) 1.0586(6) 0.2345(4)
C17 C 0.0878(6) 1.0976(6) 0.1429(4)
C18 C 0.0117(7) 1.1956(7) 0.0770(5)
H16 H 0.0450 1.2225 0.0157
C19 C -0.1122(7) 1.2521(7) 0.1031(5)
H17 H -0.1612 1.3192 0.0605
C20 C -0.1628(7) 1.2091(7) 0.1921(5)
H18 H -0.187(5) 0.754(5) 0.147(4)
N1 N 0.5134(5) 0.1196(6) 0.8711(4)
O3 O 0.3082(4) 0.1242(5) 0.9415(3)
C21 C 0.4322(6) 0.0839(7) 0.9402(4)
C22 C 0.5116(7) -0.0104(10) 1.0199(5)
H19 H 0.4615 -0.0983 1.0251
H20 H 0.5240 0.0346 1.0875
C23 C 0.6528(7) -0.0354(11) 0.9819(6)
H21 H 0.7295 -0.0101 1.0350
H22 H 0.6630 -0.1336 0.9639
C24 C 0.6539(7) 0.0556(10) 0.8883(6)
H23 H 0.7265 0.1273 0.9005
H24 H 0.6715 0.0000 0.8286
C25 C 0.4719(9) 0.2074(10) 0.7821(6)
H25 H 0.4510 0.1496 0.7215
H26 H 0.5476 0.2706 0.7724
H27 H 0.3894 0.2604 0.7930
loop_
_geom_bond_atom_site_label_1
_geom_bond_atom_site_label_2
_geom_bond_site_symmetry_1
_geom_bond_site_symmetry_2
Br1 C5 1_555 1_555
Br2 C20 1_555 1_555
O1 C2 1_555 1_555
O2 H1 1_555 1_555
C1 C2 1_555 1_555
C2 C3 1_555 1_555
C3 H2 1_555 1_555
C4 C3 1_555 1_555
H3 C4 1_555 1_555
C5 C4 1_555 1_555
C6 C1 1_555 1_555
C7 C6 1_555 1_555
H4 C7 1_555 1_555
H5 C7 1_555 1_555
C8 C7 1_555 1_555
H6 C8 1_555 1_555
C9 C8 1_555 1_555
H7 C9 1_555 1_555
H8 C9 1_555 1_555
C10 C9 1_555 1_555
H9 C10 1_555 1_555
H10 C10 1_555 1_555
C11 C10 1_555 1_555
H11 C11 1_555 1_555
H12 C11 1_555 1_555
C12 C11 1_555 1_555
H13 C12 1_555 1_555
C13 C1 1_555 1_555
C14 C12 1_555 1_555
H14 C14 1_555 1_555
H15 C14 1_555 1_555
C15 C14 1_555 1_555
C16 C13 1_555 1_555
C17 O2 1_555 1_555
C18 C17 1_555 1_555
H16 C18 1_555 1_555
C19 C18 1_555 1_555
H17 C19 1_555 1_555
C20 C15 1_555 1_555
H18 O1 1_555 1_555
N1 C21 1_555 1_555
O3 C21 1_555 1_555
C21 C22 1_555 1_555
C22 H19 1_555 1_555
H20 C22 1_555 1_555
C23 C22 1_555 1_555
H21 C23 1_555 1_555
H22 C23 1_555 1_555
C24 N1 1_555 1_555
H23 C24 1_555 1_555
H24 C24 1_555 1_555
C25 N1 1_555 1_555
H25 C25 1_555 1_555
H26 C25 1_555 1_555
H27 C25 1_555 1_555
C5 C6 1_555 1_555
C8 C13 1_555 1_555
C12 C13 1_555 1_555
C15 C16 1_555 1_555
C16 C17 1_555 1_555
C19 C20 1_555 1_555
C23 C24 1_555 1_555

#END
