
#######################################################################
#
#                 Cambridge Crystallographic Data Centre
#                                CCDC 
#
#######################################################################
#
# If this CIF has been generated from an entry in the Cambridge 
# Structural Database, then it will include bibliographic, chemical, 
# crystal, experimental, refinement or atomic coordinate data resulting 
# from the CCDC's data processing and validation procedures.
#
#######################################################################

data_IDUXUD
_chemical_formula_moiety         'C25 H27 N4 O3 1+,C1 H1 Cl3,Br1 1-'
_chemical_name_systematic        
'1-benzyl-3-(2,6-dimethoxyphenyl)-5-(2-oxo-1-azaspiro[4.4]non-6-en-6-yl)-1H-1,2,3-triazol-3-ium bromide chloroform solvate'
_symmetry_cell_setting           triclinic
_symmetry_space_group_name_H-M   'P 1'
_symmetry_Int_Tables_number      1
_space_group_name_Hall           'P 1'
loop_
_symmetry_equiv_pos_site_id
_symmetry_equiv_pos_as_xyz
1 x,y,z
_cell_length_a                   8.9983(11)
_cell_length_b                   9.3045(15)
_cell_length_c                   9.3473(10)
_cell_angle_alpha                110.886(12)
_cell_angle_beta                 93.340(10)
_cell_angle_gamma                100.809(12)
_cell_volume                     711.497
_exptl_crystal_colour            colorless
_cell_formula_units_Z            1
loop_
_atom_site_label
_atom_site_type_symbol
_atom_site_fract_x
_atom_site_fract_y
_atom_site_fract_z
Br1 Br -0.71925(6) -0.90077(6) -0.42675(6)
Cl1 Cl -0.1960(3) -1.2964(2) -0.2555(2)
Cl2 Cl -0.2016(4) -1.3550(4) 0.0270(3)
Cl3 Cl -0.4444(3) -1.5190(2) -0.2244(3)
C1 C -0.3093(9) -1.3393(9) -0.1252(8)
H1 H -0.3639 -1.2549 -0.0833
O1 O -0.5766(5) -1.1866(5) -0.2571(4)
O2 O -0.4195(5) -0.7332(5) 0.1871(4)
O3 O -0.1408(6) -1.3038(6) -0.5653(6)
N1 N -0.1461(5) -0.8711(5) -0.1281(5)
N2 N -0.2377(5) -0.9145(5) -0.0372(5)
N3 N -0.3758(5) -0.9181(5) -0.0966(4)
N4 N -0.0940(6) -1.0436(6) -0.5364(5)
H2 H 0.0039 -1.0277 -0.5222
C2 C -0.1855(8) -1.1855(8) -0.5633(7)
C3 C -0.3461(8) -1.1712(8) -0.5864(8)
H3 H -0.3967 -1.1726 -0.4980
H4 H -0.4026 -1.2571 -0.6782
C4 C -0.3352(7) -1.0150(8) -0.6045(6)
H5 H -0.4097 -0.9609 -0.5508
H6 H -0.3531 -1.0303 -0.7128
C5 C -0.1718(7) -0.9195(7) -0.5329(6)
C6 C -0.0969(8) -0.8142(8) -0.6127(7)
H7 H -0.1741 -0.7908 -0.6725
H8 H -0.0309 -0.8667 -0.6822
C7 C -0.0024(8) -0.6600(8) -0.4864(7)
H9 H 0.1060 -0.6581 -0.4819
H10 H -0.0203 -0.5681 -0.5049
C8 C -0.0596(7) -0.6654(7) -0.3423(7)
H11 H -0.0321 -0.5822 -0.2470
C9 C -0.1551(6) -0.8028(6) -0.3639(5)
C10 C -0.2236(6) -0.8457(6) -0.2441(6)
C11 C -0.3745(6) -0.8795(6) -0.2233(5)
H12 H -0.4586 -0.8765 -0.2841
C12 C 0.0181(6) -0.8506(7) -0.0900(6)
H13 H 0.0639 -0.8794 -0.1847
H14 H 0.0357 -0.9214 -0.0389
C13 C 0.0949(6) -0.6832(7) 0.0138(6)
C14 C 0.2376(8) -0.6197(8) -0.0095(7)
H15 H 0.2828 -0.6786 -0.0907
C15 C 0.3150(8) -0.4695(9) 0.0862(8)
H16 H 0.4125 -0.4288 0.0703
C16 C 0.2475(8) -0.3790(8) 0.2061(7)
H17 H 0.2980 -0.2774 0.2707
C17 C 0.1059(8) -0.4434(8) 0.2263(7)
H18 H 0.0593 -0.3840 0.3059
C18 C 0.0283(8) -0.5945(8) 0.1323(6)
H19 H -0.0684 -0.6356 0.1495
C19 C -0.5076(6) -0.9634(7) -0.0298(6)
C20 C -0.5280(7) -0.8667(7) 0.1182(6)
C21 C -0.6575(8) -0.9126(8) 0.1759(7)
H20 H -0.6752 -0.8500 0.2732
C22 C -0.7613(8) -1.0509(9) 0.0906(9)
H21 H -0.8468 -1.0809 0.1334
C23 C -0.7438(8) -1.1465(8) -0.0551(8)
H22 H -0.8167 -1.2383 -0.1110
C24 C -0.6134(7) -1.1020(7) -0.1175(7)
C25 C -0.4418(11) -0.6283(9) 0.3365(7)
H23 H -0.5348 -0.5940 0.3271
H24 H -0.3575 -0.5384 0.3751
H25 H -0.4481 -0.6828 0.4067
C26 C -0.6963(10) -1.3099(9) -0.3660(9)
H26 H -0.6603 -1.3508 -0.4641
H27 H -0.7835 -1.2676 -0.3781
H28 H -0.7245 -1.3932 -0.3283
loop_
_geom_bond_atom_site_label_1
_geom_bond_atom_site_label_2
_geom_bond_site_symmetry_1
_geom_bond_site_symmetry_2
Cl1 C1 1_555 1_555
Cl2 C1 1_555 1_555
Cl3 C1 1_555 1_555
C1 H1 1_555 1_555
O1 C24 1_555 1_555
O2 C20 1_555 1_555
O3 C2 1_555 1_555
N1 N2 1_555 1_555
N2 N3 1_555 1_555
N3 C11 1_555 1_555
N4 H2 1_555 1_555
C2 N4 1_555 1_555
C3 C2 1_555 1_555
H3 C3 1_555 1_555
H4 C3 1_555 1_555
C4 C3 1_555 1_555
H5 C4 1_555 1_555
H6 C4 1_555 1_555
C5 N4 1_555 1_555
C6 C5 1_555 1_555
H7 C6 1_555 1_555
H8 C6 1_555 1_555
C7 C6 1_555 1_555
H9 C7 1_555 1_555
H10 C7 1_555 1_555
C8 C7 1_555 1_555
H11 C8 1_555 1_555
C9 C5 1_555 1_555
C10 N1 1_555 1_555
C11 C10 1_555 1_555
H12 C11 1_555 1_555
C12 N1 1_555 1_555
H13 C12 1_555 1_555
H14 C12 1_555 1_555
C13 C12 1_555 1_555
C14 C13 1_555 1_555
H15 C14 1_555 1_555
C15 C14 1_555 1_555
H16 C15 1_555 1_555
C16 C15 1_555 1_555
H17 C16 1_555 1_555
C17 C16 1_555 1_555
H18 C17 1_555 1_555
C18 C13 1_555 1_555
H19 C18 1_555 1_555
C19 N3 1_555 1_555
C20 C19 1_555 1_555
C21 C20 1_555 1_555
H20 C21 1_555 1_555
C22 C21 1_555 1_555
H21 C22 1_555 1_555
C23 C22 1_555 1_555
H22 C23 1_555 1_555
C24 C19 1_555 1_555
C25 O2 1_555 1_555
H23 C25 1_555 1_555
H24 C25 1_555 1_555
H25 C25 1_555 1_555
C26 O1 1_555 1_555
H26 C26 1_555 1_555
H27 C26 1_555 1_555
H28 C26 1_555 1_555
C4 C5 1_555 1_555
C8 C9 1_555 1_555
C9 C10 1_555 1_555
C17 C18 1_555 1_555
C23 C24 1_555 1_555

#END
