
#######################################################################
#
#                 Cambridge Crystallographic Data Centre
#                                CCDC 
#
#######################################################################
#
# If this CIF has been generated from an entry in the Cambridge 
# Structural Database, then it will include bibliographic, chemical, 
# crystal, experimental, refinement or atomic coordinate data resulting 
# from the CCDC's data processing and validation procedures.
#
#######################################################################

data_IFABUP
_chemical_formula_moiety         'C20 H19 F2 N3 O1 S1'
_chemical_name_systematic        
4',4'-difluoro-1-methyl-5'-oxo-1'-isopropyl-2-(thiophen-2-yl)-1,2-dihydrospiro[indole-3,3'-pyrrolidine]-2-carbonitrile
_symmetry_cell_setting           monoclinic
_symmetry_space_group_name_H-M   'P 21/n'
_symmetry_Int_Tables_number      14
_space_group_name_Hall           '-P 2yn'
loop_
_symmetry_equiv_pos_site_id
_symmetry_equiv_pos_as_xyz
1 x,y,z
2 1/2-x,1/2+y,1/2-z
3 -x,-y,-z
4 1/2+x,1/2-y,1/2+z
_cell_length_a                   8.4452(9)
_cell_length_b                   17.7646(18)
_cell_length_c                   12.7463(13)
_cell_angle_alpha                90
_cell_angle_beta                 91.366(3)
_cell_angle_gamma                90
_cell_volume                     1911.73
_exptl_crystal_colour            colorless
_exptl_crystal_description       Prism
_cell_formula_units_Z            4
loop_
_atom_site_label
_atom_site_type_symbol
_atom_site_fract_x
_atom_site_fract_y
_atom_site_fract_z
S1 S 0.46354(5) 0.23514(2) 0.57891(4)
F1 F 0.37798(11) 0.44220(5) 0.72325(8)
F2 F 0.39779(12) 0.33079(6) 0.79396(8)
O1 O 0.23171(17) 0.42288(7) 0.93553(9)
N1 N 0.12957(13) 0.30544(6) 0.50250(8)
N2 N 0.21868(17) 0.48765(7) 0.46687(12)
N3 N 0.04267(16) 0.42264(7) 0.80120(10)
C1 C 0.12626(16) 0.27284(8) 0.67751(11)
C2 C 0.1012(2) 0.22569(9) 0.76146(12)
H1 H 0.1179 0.2428 0.8315
C3 C 0.0506(2) 0.15217(10) 0.74096(14)
H2 H 0.0340 0.1186 0.7977
C4 C 0.0244(2) 0.12775(9) 0.63932(14)
H3 H -0.0098 0.0775 0.6273
C5 C 0.04698(17) 0.17514(8) 0.55376(12)
H4 H 0.0282 0.1583 0.4838
C6 C 0.09783(15) 0.24771(7) 0.57475(10)
C7 C 0.16095(19) 0.28697(8) 0.39338(11)
H5 H 0.2506 0.2521 0.3907
H6 H 0.1863 0.3331 0.3551
H7 H 0.0670 0.2633 0.3611
C8 C 0.03491(17) 0.40759(8) 0.68823(11)
H8 H 0.0453 0.4547 0.6474
H9 H -0.0659 0.3826 0.6677
C9 C 0.17862(16) 0.35450(7) 0.67142(10)
C10 C 0.24408(15) 0.35559(7) 0.55769(10)
C11 C 0.23208(16) 0.43075(8) 0.50805(12)
C12 C 0.41451(16) 0.32777(7) 0.55221(11)
C13 C 0.54580(16) 0.36966(9) 0.52671(11)
H10 H 0.5433 0.4217 0.5094
C14 C 0.68657(17) 0.32430(9) 0.52970(12)
H11 H 0.7887 0.3433 0.5144
C15 C 0.65918(18) 0.25189(9) 0.55645(13)
H12 H 0.7395 0.2146 0.5621
C16 C 0.29129(18) 0.38196(8) 0.75825(12)
C17 C 0.1865(2) 0.41112(9) 0.84565(12)
C18 C -0.0815(2) 0.46524(9) 0.85456(12)
H13 H -0.0628 0.4604 0.9320
C19 C -0.0717(3) 0.54709(10) 0.82609(19)
H14 H 0.0358 0.5656 0.8411
H15 H -0.1473 0.5758 0.8674
H16 H -0.0972 0.5533 0.7512
C20 C -0.2449(3) 0.43375(11) 0.8273(2)
H17 H -0.2708 0.4437 0.7533
H18 H -0.3237 0.4579 0.8713
H19 H -0.2454 0.3793 0.8399
loop_
_geom_bond_atom_site_label_1
_geom_bond_atom_site_label_2
_geom_bond_site_symmetry_1
_geom_bond_site_symmetry_2
S1 C12 1_555 1_555
F1 C16 1_555 1_555
F2 C16 1_555 1_555
O1 C17 1_555 1_555
N1 C6 1_555 1_555
N2 C11 1_555 1_555
N3 C8 1_555 1_555
C1 C2 1_555 1_555
C2 H1 1_555 1_555
C3 C2 1_555 1_555
H2 C3 1_555 1_555
C4 C3 1_555 1_555
H3 C4 1_555 1_555
C5 C4 1_555 1_555
H4 C5 1_555 1_555
C6 C1 1_555 1_555
C7 N1 1_555 1_555
H5 C7 1_555 1_555
H6 C7 1_555 1_555
H7 C7 1_555 1_555
C8 H8 1_555 1_555
H9 C8 1_555 1_555
C9 C1 1_555 1_555
C10 N1 1_555 1_555
C11 C10 1_555 1_555
C12 C10 1_555 1_555
C13 C12 1_555 1_555
H10 C13 1_555 1_555
C14 C13 1_555 1_555
H11 C14 1_555 1_555
C15 S1 1_555 1_555
H12 C15 1_555 1_555
C16 C9 1_555 1_555
C17 N3 1_555 1_555
C18 N3 1_555 1_555
H13 C18 1_555 1_555
C19 C18 1_555 1_555
H14 C19 1_555 1_555
H15 C19 1_555 1_555
H16 C19 1_555 1_555
C20 C18 1_555 1_555
H17 C20 1_555 1_555
H18 C20 1_555 1_555
H19 C20 1_555 1_555
C5 C6 1_555 1_555
C8 C9 1_555 1_555
C9 C10 1_555 1_555
C14 C15 1_555 1_555
C16 C17 1_555 1_555

#END
