
#######################################################################
#
#                 Cambridge Crystallographic Data Centre
#                                CCDC 
#
#######################################################################
#
# If this CIF has been generated from an entry in the Cambridge 
# Structural Database, then it will include bibliographic, chemical, 
# crystal, experimental, refinement or atomic coordinate data resulting 
# from the CCDC's data processing and validation procedures.
#
#######################################################################

data_IFADAX
_chemical_formula_moiety         'C26 H20 Cl1 F1 N4 O4'
_chemical_name_systematic        
'dibenzyl 1-(6-chloro-2-fluoro-9H-purin-9-yl)cyclopent-3-ene-1,3-dicarboxylate'
_symmetry_cell_setting           monoclinic
_symmetry_space_group_name_H-M   'P 21/c'
_symmetry_Int_Tables_number      14
_space_group_name_Hall           '-P 2ybc'
loop_
_symmetry_equiv_pos_site_id
_symmetry_equiv_pos_as_xyz
1 x,y,z
2 -x,1/2+y,1/2-z
3 -x,-y,-z
4 x,1/2-y,1/2+z
_cell_length_a                   12.6697(1)
_cell_length_b                   25.2740(1)
_cell_length_c                   15.3192(1)
_cell_angle_alpha                90
_cell_angle_beta                 101.323(1)
_cell_angle_gamma                90
_cell_volume                     4809.94
_exptl_crystal_colour            colorless
_exptl_crystal_description       block
_cell_formula_units_Z            8
loop_
_atom_site_label
_atom_site_type_symbol
_atom_site_fract_x
_atom_site_fract_y
_atom_site_fract_z
Cl1 Cl 1.20430(5) 0.62570(3) 1.18980(5)
N1 N 0.86786(13) 0.55194(7) 1.01977(12)
O1 O 0.58663(16) 0.46812(8) 0.73880(12)
F1 F 0.89088(16) 0.59353(10) 1.31762(12)
O2 O 0.47994(17) 0.43636(9) 0.82749(13)
N2 N 1.03872(15) 0.57687(8) 1.01739(14)
O3 O 0.60276(16) 0.59602(8) 0.99499(15)
O4 O 0.74311(15) 0.63001(7) 0.9474(2)
N3 N 0.86376(16) 0.57183(9) 1.17404(13)
N4 N 1.03140(18) 0.60747(9) 1.25286(15)
C1 C 0.63513(17) 0.48153(8) 0.89407(14)
C2 C 0.75382(16) 0.53986(8) 0.98550(13)
C3 C 1.01661(17) 0.58452(8) 1.10131(15)
C4 C 0.73388(17) 0.51447(8) 0.89184(14)
H1 H 0.79417(17) 0.49267(8) 0.88359(14)
H2 H 0.72000(17) 0.54104(8) 0.84532(14)
C5 C 0.56751(18) 0.46117(9) 0.81166(15)
C6 C 0.91088(17) 0.56920(8) 1.10319(14)
C7 C 0.94842(17) 0.55836(9) 0.97153(15)
H3 H 0.93909(17) 0.55017(9) 0.91131(15)
C8 C 0.68986(17) 0.59190(9) 0.97821(16)
C9 C 1.07421(18) 0.60411(9) 1.18073(17)
C10 C 0.70600(19) 0.49993(10) 1.04336(15)
H4 H 0.76003(19) 0.47498(10) 1.07203(15)
H5 H 0.67498(19) 0.51780(10) 1.08839(15)
C11 C 0.62136(19) 0.47308(9) 0.97639(15)
H6 H 0.56580(19) 0.45291(9) 0.99075(15)
C12 C 0.75991(15) 0.72491(6) 0.96117(16)
C13 C 0.86001(17) 0.71824(8) 1.01644(18)
H7 H 0.88532(17) 0.68441(8) 1.03271(18)
C14 C 0.92229(17) 0.76215(11) 1.0474(2)
H8 H 0.98927(17) 0.75769(11) 1.0844(2)
C15 C 0.8845(2) 0.81273(8) 1.0231(2)
H9 H 0.9261(2) 0.84210(8) 1.0438(2)
C16 C 0.7844(2) 0.81939(6) 0.9678(2)
H10 H 0.7590(2) 0.85323(6) 0.9515(2)
C17 C 0.72208(17) 0.77548(8) 0.9369(2)
H11 H 0.65511(17) 0.77994(8) 0.8999(2)
C18 C 0.9310(2) 0.59038(12) 1.24370(17)
C19 C 0.4273(3) 0.35110(14) 0.7659(2)
C20 C 0.4099(3) 0.40945(14) 0.7540(2)
H12 H 0.3353(3) 0.41811(14) 0.7537(2)
H13 H 0.4269(3) 0.42065(14) 0.6977(2)
C21 C 0.6874(3) 0.68000(11) 0.9286(4)
H14 H 0.6617(3) 0.68345(11) 0.8649(4)
H15 H 0.6256(3) 0.68081(11) 0.9571(4)
C22 C 0.3526(4) 0.32267(17) 0.8019(3)
H16 H 0.3376(4) 0.33589(17) 0.8497(3)
C23 C 0.5135(4) 0.3283(2) 0.7393(4)
H17 H 0.5587(4) 0.3485(2) 0.7115(4)
C24 C 0.3692(6) 0.2683(2) 0.8178(5)
H18 H 0.3206(6) 0.2479(2) 0.8415(5)
C25 C 0.4625(6) 0.2462(2) 0.7963(5)
H19 H 0.4783(6) 0.2109(2) 0.8105(5)
C26 C 0.5327(5) 0.2751(2) 0.7542(5)
H20 H 0.5910(5) 0.2587(2) 0.7368(5)
Cl2 Cl 0.28830(5) 0.38251(3) 0.31587(6)
O5 O 0.75938(14) 0.36600(6) 0.51648(14)
O6 O 0.92422(15) 0.51920(7) 0.76658(11)
F2 F 0.59401(15) 0.41833(9) 0.17969(11)
N5 N 0.63349(14) 0.44824(7) 0.48269(12)
O7 O 0.90339(15) 0.40925(8) 0.49365(16)
O8 O 1.02088(16) 0.56157(9) 0.67997(13)
N6 N 0.62873(16) 0.43478(8) 0.32535(13)
N7 N 0.46347(16) 0.42402(9) 0.48855(14)
N8 N 0.45689(18) 0.40312(9) 0.24804(15)
C27 C 0.58538(17) 0.43494(8) 0.39824(14)
C28 C 0.86942(17) 0.51463(8) 0.61009(15)
C29 C 0.74841(16) 0.45970(8) 0.51270(13)
C30 C 0.93895(17) 0.53163(9) 0.69416(15)
C31 C 0.77552(18) 0.47805(9) 0.61131(14)
H21 H 0.79595(18) 0.44847(9) 0.65143(14)
H22 H 0.71553(18) 0.49664(9) 0.62806(14)
C32 C 0.48010(17) 0.42007(9) 0.40242(16)
C33 C 0.81366(17) 0.40924(9) 0.50557(15)
C34 C 0.87616(18) 0.52945(9) 0.52886(15)
H23 H 0.92845(18) 0.55233(9) 0.51584(15)
C35 C 0.78943(19) 0.50502(9) 0.46000(15)
H24 H 0.81811(19) 0.49141(9) 0.41021(15)
H25 H 0.73265(19) 0.53023(9) 0.43817(15)
C36 C 0.41849(19) 0.40394(9) 0.32214(18)
C37 C 0.55605(19) 0.44008(10) 0.53350(16)
H26 H 0.56896(19) 0.44559(10) 0.59469(16)
C38 C 0.5579(2) 0.41892(11) 0.25582(17)
C39 C 0.74449(15) 0.27129(6) 0.51776(17)
C40 C 1.08038(18) 0.64035(7) 0.76323(15)
C41 C 1.15603(17) 0.67460(10) 0.73979(18)
H27 H 1.21563(17) 0.66114(10) 0.72022(18)
C42 C 1.1426(3) 0.72899(10) 0.7456(2)
H28 H 1.1932(3) 0.75191(10) 0.7299(2)
C43 C 1.0535(3) 0.74912(7) 0.7749(2)
H29 H 1.0445(3) 0.78550(7) 0.7788(2)
C44 C 0.9779(2) 0.71486(11) 0.7983(2)
H30 H 0.9183(2) 0.72833(11) 0.8179(2)
C45 C 0.99131(18) 0.66048(10) 0.79249(17)
H31 H 0.94069(18) 0.63756(10) 0.80818(17)
C46 C 1.0954(2) 0.58250(13) 0.7569(2)
H32 H 1.0827(2) 0.56551(13) 0.8107(2)
H33 H 1.1689(2) 0.57501(13) 0.7512(2)
C47 C 0.8188(2) 0.31709(10) 0.5155(2)
H34 H 0.8491(2) 0.31536(10) 0.4622(2)
H35 H 0.8775(2) 0.31572(10) 0.5668(2)
C48 C 0.78448(15) 0.22071(7) 0.50947(19)
H36 H 0.85515(15) 0.21620(7) 0.50235(19)
C49 C 0.7189(2) 0.17688(6) 0.5118(2)
H37 H 0.7456(2) 0.14304(6) 0.5063(2)
C50 C 0.6132(2) 0.18362(8) 0.5225(2)
H38 H 0.5693(2) 0.15429(8) 0.5241(2)
C51 C 0.63887(17) 0.27803(7) 0.5284(2)
H39 H 0.61212(17) 0.31187(7) 0.5339(2)
C52 C 0.57324(16) 0.23420(10) 0.5308(3)
H40 H 0.50257(16) 0.23871(10) 0.5379(3)
loop_
_geom_bond_atom_site_label_1
_geom_bond_atom_site_label_2
_geom_bond_site_symmetry_1
_geom_bond_site_symmetry_2
Cl1 C9 1_555 1_555
N1 C2 1_555 1_555
O1 C5 1_555 1_555
F1 C18 1_555 1_555
O2 C5 1_555 1_555
N2 C3 1_555 1_555
O3 C8 1_555 1_555
O4 C8 1_555 1_555
N3 C6 1_555 1_555
N4 C9 1_555 1_555
C1 C4 1_555 1_555
C2 C4 1_555 1_555
C3 C6 1_555 1_555
C4 H1 1_555 1_555
H2 C4 1_555 1_555
C5 C1 1_555 1_555
C6 N1 1_555 1_555
C7 N1 1_555 1_555
H3 C7 1_555 1_555
C8 C2 1_555 1_555
C9 C3 1_555 1_555
C10 C2 1_555 1_555
H4 C10 1_555 1_555
H5 C10 1_555 1_555
C11 C1 1_555 1_555
H6 C11 1_555 1_555
C12 C13 1_555 1_555
C13 H7 1_555 1_555
C14 C13 1_555 1_555
H8 C14 1_555 1_555
C15 C14 1_555 1_555
H9 C15 1_555 1_555
C16 C15 1_555 1_555
H10 C16 1_555 1_555
C17 C12 1_555 1_555
H11 C17 1_555 1_555
C18 N3 1_555 1_555
C19 C20 1_555 1_555
C20 O2 1_555 1_555
H12 C20 1_555 1_555
H13 C20 1_555 1_555
C21 O4 1_555 1_555
H14 C21 1_555 1_555
H15 C21 1_555 1_555
C22 C19 1_555 1_555
H16 C22 1_555 1_555
C23 C19 1_555 1_555
H17 C23 1_555 1_555
C24 C22 1_555 1_555
H18 C24 1_555 1_555
C25 C24 1_555 1_555
H19 C25 1_555 1_555
C26 C23 1_555 1_555
H20 C26 1_555 1_555
Cl2 C36 1_555 1_555
O5 C33 1_555 1_555
O6 C30 1_555 1_555
F2 C38 1_555 1_555
N5 C27 1_555 1_555
O7 C33 1_555 1_555
O8 C30 1_555 1_555
N6 C27 1_555 1_555
N7 C32 1_555 1_555
N8 C36 1_555 1_555
C27 C32 1_555 1_555
C28 C30 1_555 1_555
C29 N5 1_555 1_555
C31 C28 1_555 1_555
H21 C31 1_555 1_555
H22 C31 1_555 1_555
C32 C36 1_555 1_555
C33 C29 1_555 1_555
C34 C28 1_555 1_555
H23 C34 1_555 1_555
C35 C29 1_555 1_555
H24 C35 1_555 1_555
H25 C35 1_555 1_555
C37 N5 1_555 1_555
H26 C37 1_555 1_555
C38 N6 1_555 1_555
C39 C47 1_555 1_555
C40 C41 1_555 1_555
C41 H27 1_555 1_555
C42 C41 1_555 1_555
H28 C42 1_555 1_555
C43 C42 1_555 1_555
H29 C43 1_555 1_555
C44 C43 1_555 1_555
H30 C44 1_555 1_555
C45 C40 1_555 1_555
H31 C45 1_555 1_555
C46 O8 1_555 1_555
H32 C46 1_555 1_555
H33 C46 1_555 1_555
C47 O5 1_555 1_555
H34 C47 1_555 1_555
H35 C47 1_555 1_555
C48 C39 1_555 1_555
H36 C48 1_555 1_555
C49 C48 1_555 1_555
H37 C49 1_555 1_555
C50 C49 1_555 1_555
H38 C50 1_555 1_555
C51 C39 1_555 1_555
H39 C51 1_555 1_555
C52 C50 1_555 1_555
H40 C52 1_555 1_555
N2 C7 1_555 1_555
N4 C18 1_555 1_555
C10 C11 1_555 1_555
C12 C21 1_555 1_555
C16 C17 1_555 1_555
C25 C26 1_555 1_555
N7 C37 1_555 1_555
N8 C38 1_555 1_555
C29 C31 1_555 1_555
C34 C35 1_555 1_555
C40 C46 1_555 1_555
C44 C45 1_555 1_555
C51 C52 1_555 1_555

#END
