
#######################################################################
#
#                 Cambridge Crystallographic Data Centre
#                                CCDC 
#
#######################################################################
#
# If this CIF has been generated from an entry in the Cambridge 
# Structural Database, then it will include bibliographic, chemical, 
# crystal, experimental, refinement or atomic coordinate data resulting 
# from the CCDC's data processing and validation procedures.
#
#######################################################################

data_IFADEB
_chemical_formula_moiety         'C17 H12 N2 O3'
_chemical_name_systematic        
3-(1H-benzimidazol-2-yl)-7-methoxy-2H-1-benzopyran-2-one
_symmetry_cell_setting           monoclinic
_symmetry_space_group_name_H-M   'P 21/c'
_symmetry_Int_Tables_number      14
_space_group_name_Hall           '-P 2ybc'
loop_
_symmetry_equiv_pos_site_id
_symmetry_equiv_pos_as_xyz
1 x,y,z
2 -x,1/2+y,1/2-z
3 -x,-y,-z
4 x,1/2-y,1/2+z
_cell_length_a                   13.2523(7)
_cell_length_b                   8.0408(4)
_cell_length_c                   12.7339(6)
_cell_angle_alpha                90
_cell_angle_beta                 91.040(4)
_cell_angle_gamma                90
_cell_volume                     1356.69
_exptl_crystal_colour            'metallic yellow'
_exptl_crystal_description       block
_cell_formula_units_Z            4
loop_
_atom_site_label
_atom_site_type_symbol
_atom_site_fract_x
_atom_site_fract_y
_atom_site_fract_z
O1 O 0.00695(10) 0.21898(18) 0.11740(10)
C1 C 0.06275(15) 0.1972(2) -0.08945(16)
H1 H 0.0810 0.1897 -0.1595
C2 C 0.12226(15) 0.1244(2) -0.01499(15)
C3 C -0.13680(15) 0.3790(3) 0.07593(16)
H2 H -0.1520 0.3829 0.1469
O2 O -0.28140(11) 0.5454(2) 0.02362(12)
C4 C -0.05277(15) 0.2944(2) 0.04152(15)
C5 C -0.09011(16) 0.3667(3) -0.13670(16)
H3 H -0.0750 0.3631 -0.2077
O3 O 0.13951(12) 0.0748(2) 0.16908(11)
C6 C -0.02682(15) 0.2847(2) -0.06385(15)
C7 C -0.19729(16) 0.4572(3) 0.00196(17)
N1 N 0.27642(13) -0.0407(2) 0.02938(14)
C8 C 0.09397(15) 0.1344(3) 0.09466(16)
C9 C 0.21498(16) 0.0383(3) -0.04266(16)
N2 N 0.24938(14) 0.0278(2) -0.13854(13)
H4 H 0.2223 0.0683 -0.1948
C10 C -0.17331(16) 0.4514(3) -0.10526(17)
H5 H -0.2143 0.5053 -0.1546
C11 C 0.35625(16) -0.1069(3) -0.02511(16)
C12 C 0.33808(16) -0.0617(3) -0.13013(17)
C13 C -0.31158(19) 0.5539(3) 0.13116(19)
H6 H -0.3740 0.6138 0.1354
H7 H -0.2605 0.6101 0.1720
H8 H -0.3205 0.4433 0.1580
C14 C 0.50707(18) -0.2429(3) -0.0710(2)
H9 H 0.5640 -0.3049 -0.0529
C15 C 0.44064(18) -0.1971(3) 0.00614(19)
H10 H 0.4521 -0.2256 0.0761
C16 C 0.40706(18) -0.1076(3) -0.20631(18)
H11 H 0.3969 -0.0777 -0.2763
C17 C 0.49043(19) -0.1980(3) -0.1753(2)
H12 H 0.5368 -0.2300 -0.2254
loop_
_geom_bond_atom_site_label_1
_geom_bond_atom_site_label_2
_geom_bond_site_symmetry_1
_geom_bond_site_symmetry_2
O1 C4 1_555 1_555
C1 H1 1_555 1_555
C2 C1 1_555 1_555
C3 H2 1_555 1_555
O2 C7 1_555 1_555
C4 C3 1_555 1_555
C5 H3 1_555 1_555
O3 C8 1_555 1_555
C6 C1 1_555 1_555
C7 C3 1_555 1_555
N1 C9 1_555 1_555
C8 O1 1_555 1_555
C9 C2 1_555 1_555
N2 C9 1_555 1_555
H4 N2 1_555 1_555
C10 C5 1_555 1_555
H5 C10 1_555 1_555
C11 N1 1_555 1_555
C12 N2 1_555 1_555
C13 O2 1_555 1_555
H6 C13 1_555 1_555
H7 C13 1_555 1_555
H8 C13 1_555 1_555
C14 H9 1_555 1_555
C15 C11 1_555 1_555
H10 C15 1_555 1_555
C16 C12 1_555 1_555
H11 C16 1_555 1_555
C17 C14 1_555 1_555
H12 C17 1_555 1_555
C2 C8 1_555 1_555
C4 C6 1_555 1_555
C5 C6 1_555 1_555
C7 C10 1_555 1_555
C11 C12 1_555 1_555
C14 C15 1_555 1_555
C16 C17 1_555 1_555

#END
