
#######################################################################
#
#                 Cambridge Crystallographic Data Centre
#                                CCDC 
#
#######################################################################
#
# If this CIF has been generated from an entry in the Cambridge 
# Structural Database, then it will include bibliographic, chemical, 
# crystal, experimental, refinement or atomic coordinate data resulting 
# from the CCDC's data processing and validation procedures.
#
#######################################################################

data_IFAFEB
_chemical_formula_moiety         'C14 H12 F2 N4 O4'
_chemical_name_systematic        
N-(2,6-Difluorobenzoyl)-N'-(4,6-dimethoxypyrimidin-2-yl)urea
_symmetry_cell_setting           monoclinic
_symmetry_space_group_name_H-M   'C c'
_symmetry_Int_Tables_number      9
_space_group_name_Hall           'C -2yc'
loop_
_symmetry_equiv_pos_site_id
_symmetry_equiv_pos_as_xyz
1 x,y,z
2 1/2+x,1/2+y,z
3 x,-y,1/2+z
4 1/2+x,1/2-y,1/2+z
_cell_length_a                   7.6870(8)
_cell_length_b                   31.097(3)
_cell_length_c                   6.7432(7)
_cell_angle_alpha                90
_cell_angle_beta                 110.371(2)
_cell_angle_gamma                90
_cell_volume                     1511.1
_exptl_crystal_colour            colorless
_exptl_crystal_description       block
_chemical_melting_point          '432-433 K'
_cell_formula_units_Z            4
_exptl_crystal_recrystallization_method acetonitrile/ethanol
loop_
_atom_site_label
_atom_site_type_symbol
_atom_site_fract_x
_atom_site_fract_y
_atom_site_fract_z
H1 H 0.6796 0.2996 0.1602
H2 H 0.7355 0.2533 0.4514
H3 H 0.5387 0.2505 0.6501
H4 H 0.0700 0.4087 0.2559
H5 H 0.4061 0.4783 0.3905
H6 H -0.0081 0.6586 0.1641
H7 H -0.1424 0.6268 0.2365
H8 H -0.1355 0.6248 -0.0042
H9 H -0.2488 0.5603 0.0598
H10 H -0.3142 0.4255 0.1618
H11 H -0.2913 0.4223 -0.0731
H12 H -0.4901 0.4292 -0.0523
F1 F 0.2445(5) 0.29571(11) 0.5686(6)
F2 F 0.4132(4) 0.35240(9) 0.0240(5)
N1 N 0.1678(3) 0.39627(9) 0.2471(5)
N2 N 0.3015(3) 0.46410(8) 0.3276(4)
N3 N 0.1810(3) 0.53158(8) 0.2666(4)
N4 N -0.0213(3) 0.47079(8) 0.1641(4)
O1 O 0.0018(3) 0.33619(8) 0.1626(6)
O2 O 0.4776(3) 0.40524(8) 0.4314(5)
O3 O 0.0784(3) 0.59901(7) 0.2153(4)
O4 O -0.3355(3) 0.48182(7) 0.0111(4)
C1 C 0.3254(4) 0.32529(10) 0.2968(6)
C2 C 0.4464(5) 0.32528(11) 0.1857(7)
C3 C 0.5986(6) 0.29892(13) 0.2371(9)
C4 C 0.6306(7) 0.27167(15) 0.4058(11)
C5 C 0.5146(8) 0.26973(16) 0.5202(10)
C6 C 0.3615(6) 0.29682(14) 0.4598(8)
C7 C 0.1527(5) 0.35227(11) 0.2319(6)
C8 C 0.3263(4) 0.42028(10) 0.3421(5)
C9 C 0.1452(4) 0.48979(9) 0.2484(5)
C10 C 0.0331(4) 0.55731(9) 0.1936(5)
C11 C -0.1461(4) 0.54186(9) 0.1053(4)
C12 C -0.1639(4) 0.49782(10) 0.0953(4)
C13 C -0.0678(5) 0.63017(11) 0.1399(7)
C14 C -0.3610(4) 0.43589(10) 0.0030(6)
loop_
_geom_bond_atom_site_label_1
_geom_bond_atom_site_label_2
_geom_bond_site_symmetry_1
_geom_bond_site_symmetry_2
H1 C3 1_555 1_555
H2 C4 1_555 1_555
H3 C5 1_555 1_555
H4 N1 1_555 1_555
H5 N2 1_555 1_555
H6 C13 1_555 1_555
H7 C13 1_555 1_555
H8 C13 1_555 1_555
H9 C11 1_555 1_555
H10 C14 1_555 1_555
H11 C14 1_555 1_555
H12 C14 1_555 1_555
F1 C6 1_555 1_555
F2 C2 1_555 1_555
N1 C7 1_555 1_555
N2 C8 1_555 1_555
N3 C9 1_555 1_555
N4 C9 1_555 1_555
O1 C7 1_555 1_555
O2 C8 1_555 1_555
O3 C10 1_555 1_555
O4 C12 1_555 1_555
C1 C2 1_555 1_555
C2 C3 1_555 1_555
C3 C4 1_555 1_555
C4 C5 1_555 1_555
C5 C6 1_555 1_555
C6 C1 1_555 1_555
C7 C1 1_555 1_555
C8 N1 1_555 1_555
C9 N2 1_555 1_555
C10 N3 1_555 1_555
C11 C10 1_555 1_555
C12 N4 1_555 1_555
C13 O3 1_555 1_555
C14 O4 1_555 1_555
C11 C12 1_555 1_555

#END
