
#######################################################################
#
#                 Cambridge Crystallographic Data Centre
#                                CCDC 
#
#######################################################################
#
# If this CIF has been generated from an entry in the Cambridge 
# Structural Database, then it will include bibliographic, chemical, 
# crystal, experimental, refinement or atomic coordinate data resulting 
# from the CCDC's data processing and validation procedures.
#
#######################################################################

data_IFAJIJ
_chemical_compound_source        
'roots of Peucedanum praeruptorum Dunn., Baihuaqianhu'
_chemical_name_common            Pd-Ib
_chemical_formula_moiety         'C19 H18 O6'
_chemical_name_systematic        
(+)-(3'R)-Angeloxyloxy-4'-oxo-3',4'-dihydroseselin
_chemical_properties_biological  
'source plant used in traditional Chinese medicine for treatment of diseases of the digestive and respiratory systems'
_symmetry_cell_setting           orthorhombic
_symmetry_space_group_name_H-M   'P 21 21 21'
_symmetry_Int_Tables_number      19
_space_group_name_Hall           'P 2ac 2ab'
loop_
_symmetry_equiv_pos_site_id
_symmetry_equiv_pos_as_xyz
1 x,y,z
2 1/2-x,-y,1/2+z
3 -x,1/2+y,1/2-z
4 1/2+x,1/2-y,-z
_cell_length_a                   7.218(2)
_cell_length_b                   12.896(3)
_cell_length_c                   18.531(5)
_cell_angle_alpha                90
_cell_angle_beta                 90
_cell_angle_gamma                90
_cell_volume                     1724.93
_exptl_crystal_colour            colorless
_exptl_crystal_description       needle
_chemical_melting_point          '488 K'
_cell_formula_units_Z            4
_exptl_crystal_recrystallization_method 'chloroform/ethyl acetate'
loop_
_atom_site_label
_atom_site_type_symbol
_atom_site_fract_x
_atom_site_fract_y
_atom_site_fract_z
O1 O 0.6285(5) 0.6927(2) 0.91192(17)
O2 O 0.2183(5) 0.4824(2) 0.8816(2)
O3 O 0.0403(5) 0.6289(2) 0.80230(16)
O4 O -0.2316(5) 0.5953(3) 0.7540(2)
O5 O 0.5337(5) 0.4221(2) 0.94943(15)
O6 O 0.5676(9) 0.3306(3) 0.8506(2)
C1 C 0.6175(7) 0.5988(3) 0.9561(2)
C2 C 0.5359(7) 0.5153(3) 0.9076(2)
H1 H 0.6168 0.5055 0.8657
C3 C 0.3459(7) 0.5439(3) 0.8823(2)
C4 C 0.3309(6) 0.6537(3) 0.8579(2)
C5 C 0.1841(7) 0.6936(3) 0.8181(2)
C6 C -0.1156(8) 0.6604(4) 0.7637(3)
C7 C -0.1185(8) 0.7667(4) 0.7396(3)
H2 H -0.2203 0.7914 0.7141
C8 C 0.0228(7) 0.8296(3) 0.7536(3)
H3 H 0.0188 0.8975 0.7367
C9 C 0.1804(7) 0.7959(3) 0.7937(2)
C10 C 0.3325(7) 0.8590(3) 0.8093(2)
H4 H 0.3335 0.9273 0.7932
C11 C 0.4786(7) 0.8226(3) 0.8477(2)
H5 H 0.5793 0.8655 0.8572
C12 C 0.4777(7) 0.7201(3) 0.8729(2)
C13 C 0.5026(10) 0.6203(4) 1.0225(2)
H6 H 0.5613 0.6733 1.0508
H7 H 0.4920 0.5581 1.0507
H8 H 0.3814 0.6431 1.0083
C14 C 0.8186(8) 0.5750(4) 0.9746(3)
H9 H 0.8731 0.6339 0.9981
H10 H 0.8858 0.5601 0.9311
H11 H 0.8238 0.5161 1.0062
C15 C 0.5618(8) 0.3326(4) 0.9146(3)
C16 C 0.5809(7) 0.2443(4) 0.9657(3)
C17 C 0.6064(9) 0.1504(5) 0.9394(4)
H12 H 0.6186 0.0986 0.9740
C18 C 0.6185(12) 0.1148(4) 0.8653(4)
H13 H 0.7380 0.0842 0.8572
H14 H 0.6020 0.1725 0.8332
H15 H 0.5237 0.0642 0.8565
C19 C 0.5814(9) 0.2679(5) 1.0463(3)
H16 H 0.4689 0.3030 1.0590
H17 H 0.6855 0.3113 1.0576
H18 H 0.5903 0.2042 1.0729
loop_
_geom_bond_atom_site_label_1
_geom_bond_atom_site_label_2
_geom_bond_site_symmetry_1
_geom_bond_site_symmetry_2
O1 C1 1_555 1_555
O2 C3 1_555 1_555
O3 C5 1_555 1_555
O4 C6 1_555 1_555
O5 C2 1_555 1_555
O6 C15 1_555 1_555
C1 C2 1_555 1_555
C2 H1 1_555 1_555
C3 C2 1_555 1_555
C4 C3 1_555 1_555
C5 C4 1_555 1_555
C6 O3 1_555 1_555
C7 C6 1_555 1_555
H2 C7 1_555 1_555
C8 C7 1_555 1_555
H3 C8 1_555 1_555
C9 C5 1_555 1_555
C10 C9 1_555 1_555
H4 C10 1_555 1_555
C11 C10 1_555 1_555
H5 C11 1_555 1_555
C12 O1 1_555 1_555
C13 C1 1_555 1_555
H6 C13 1_555 1_555
H7 C13 1_555 1_555
H8 C13 1_555 1_555
C14 C1 1_555 1_555
H9 C14 1_555 1_555
H10 C14 1_555 1_555
H11 C14 1_555 1_555
C15 O5 1_555 1_555
C16 C15 1_555 1_555
C17 C16 1_555 1_555
H12 C17 1_555 1_555
C18 C17 1_555 1_555
H13 C18 1_555 1_555
H14 C18 1_555 1_555
H15 C18 1_555 1_555
C19 C16 1_555 1_555
H16 C19 1_555 1_555
H17 C19 1_555 1_555
H18 C19 1_555 1_555
C4 C12 1_555 1_555
C8 C9 1_555 1_555
C11 C12 1_555 1_555

#END
