
#######################################################################
#
#                 Cambridge Crystallographic Data Centre
#                                CCDC 
#
#######################################################################
#
# If this CIF has been generated from an entry in the Cambridge 
# Structural Database, then it will include bibliographic, chemical, 
# crystal, experimental, refinement or atomic coordinate data resulting 
# from the CCDC's data processing and validation procedures.
#
#######################################################################

data_IFAKAE
_chemical_formula_moiety         '2(C48 H48 N12),10(C1 Cl4)'
_chemical_name_systematic        
'bis(5,8,16,19,27,30,38,41,46,49,54,57-dodecaazaheptacyclo[21.21.6.6^12,34^.1^3,43^.1^10,14^.1^21,25^.1^32,36^]hexaconta-1,3(51),4,8,10(60),11,13,15,19,21(59),22,24,26,30,32(52),33,35,37,41,43,45,49,53,57-tetracosaene) tetrachloromethane solvate'
_symmetry_cell_setting           cubic
_symmetry_space_group_name_H-M   'F 2 3'
_symmetry_Int_Tables_number      196
_space_group_name_Hall           'F 2 2 3'
loop_
_symmetry_equiv_pos_site_id
_symmetry_equiv_pos_as_xyz
1 x,y,z
2 -x,-y,z
3 -x,y,-z
4 x,-y,-z
5 z,x,y
6 z,-x,-y
7 -z,-x,y
8 -z,x,-y
9 y,z,x
10 -y,z,-x
11 y,-z,-x
12 -y,-z,x
13 x,1/2+y,1/2+z
14 -x,1/2-y,1/2+z
15 -x,1/2+y,1/2-z
16 x,1/2-y,1/2-z
17 z,1/2+x,1/2+y
18 z,1/2-x,1/2-y
19 -z,1/2-x,1/2+y
20 -z,1/2+x,1/2-y
21 y,1/2+z,1/2+x
22 -y,1/2+z,1/2-x
23 y,1/2-z,1/2-x
24 -y,1/2-z,1/2+x
25 1/2+x,y,1/2+z
26 1/2-x,-y,1/2+z
27 1/2-x,y,1/2-z
28 1/2+x,-y,1/2-z
29 1/2+z,x,1/2+y
30 1/2+z,-x,1/2-y
31 1/2-z,-x,1/2+y
32 1/2-z,x,1/2-y
33 1/2+y,z,1/2+x
34 1/2-y,z,1/2-x
35 1/2+y,-z,1/2-x
36 1/2-y,-z,1/2+x
37 1/2+x,1/2+y,z
38 1/2-x,1/2-y,z
39 1/2-x,1/2+y,-z
40 1/2+x,1/2-y,-z
41 1/2+z,1/2+x,y
42 1/2+z,1/2-x,-y
43 1/2-z,1/2-x,y
44 1/2-z,1/2+x,-y
45 1/2+y,1/2+z,x
46 1/2-y,1/2+z,-x
47 1/2+y,1/2-z,-x
48 1/2-y,1/2-z,x
_cell_length_a                   24.3478(5)
_cell_length_b                   24.3478(5)
_cell_length_c                   24.3478(5)
_cell_angle_alpha                90
_cell_angle_beta                 90
_cell_angle_gamma                90
_cell_volume                     14433.7
_exptl_crystal_colour            colorless
_cell_formula_units_Z            4
loop_
_atom_site_label
_atom_site_type_symbol
_atom_site_fract_x
_atom_site_fract_y
_atom_site_fract_z
N1 N 0.54672(15) 0.03613(15) 0.72804(13)
C1 C 0.55498(16) 0.13203(17) 0.61377(17)
H1 H 0.5241 0.1540 0.6231
C2 C 0.56802(17) 0.08664(17) 0.64576(18)
C3 C 0.53444(18) 0.07437(17) 0.69435(18)
H2 H 0.5024 0.0957 0.7009
C4 C 0.51058(19) 0.02940(18) 0.77527(17)
H3 H 0.4795 0.0554 0.7729
H4 H 0.5310 0.0369 0.8096
N1A N 0.45328(15) -0.03613(15) 0.72804(13)
C1A C 0.44502(16) -0.13203(17) 0.61377(17)
H1A H 0.4759 -0.1540 0.6231
C2A C 0.43198(17) -0.08664(17) 0.64576(18)
C3A C 0.46556(18) -0.07437(17) 0.69435(18)
H2A H 0.4976 -0.0957 0.7009
C4A C 0.48942(19) -0.02940(18) 0.77527(17)
H3A H 0.5205 -0.0554 0.7729
H4A H 0.4690 -0.0369 0.8096
N1P N 0.72804(13) 0.04672(15) 0.53613(15)
C1P C 0.61377(17) 0.05498(16) 0.63203(17)
H1P H 0.6231 0.0241 0.6540
C2P C 0.64576(18) 0.06802(17) 0.58664(17)
C3P C 0.69435(18) 0.03444(18) 0.57437(17)
H2P H 0.7009 0.0024 0.5957
C4P C 0.77527(17) 0.01058(19) 0.52940(18)
H3P H 0.7729 -0.0205 0.5554
H4P H 0.8096 0.0310 0.5369
N1RA N 0.53613(15) 0.22804(13) 0.54672(15)
C1RA C 0.63203(17) 0.11377(17) 0.55498(16)
H1RA H 0.6540 0.1231 0.5241
C2RA C 0.58664(17) 0.14576(18) 0.56802(17)
C3RA C 0.57437(17) 0.19435(18) 0.53444(18)
H2RA H 0.5957 0.2009 0.5024
C4RA C 0.52940(18) 0.27527(17) 0.51058(19)
H3RA H 0.5554 0.2729 0.4795
H4RA H 0.5369 0.3096 0.5310
N1Q N 0.72804(13) -0.04672(15) 0.46387(15)
C1Q C 0.61377(17) -0.05498(16) 0.36797(17)
H1Q H 0.6231 -0.0241 0.3460
C2Q C 0.64576(18) -0.06802(17) 0.41336(17)
C3Q C 0.69435(18) -0.03444(18) 0.42563(17)
H2Q H 0.7009 -0.0024 0.4043
C4Q C 0.77527(17) -0.01058(19) 0.47060(18)
H3Q H 0.7729 0.0205 0.4446
H4Q H 0.8096 -0.0310 0.4631
N1R N 0.27196(13) -0.04672(15) 0.53613(15)
C1R C 0.38623(17) -0.05498(16) 0.63203(17)
H1R H 0.3769 -0.0241 0.6540
C2R C 0.35424(18) -0.06802(17) 0.58664(17)
C3R C 0.30565(18) -0.03444(18) 0.57437(17)
H2R H 0.2991 -0.0024 0.5957
C4R C 0.22473(17) -0.01058(19) 0.52940(18)
H3R H 0.2271 0.0205 0.5554
H4R H 0.1904 -0.0310 0.5369
N1SA N 0.46387(15) 0.22804(13) 0.45328(15)
C1SA C 0.36797(17) 0.11377(17) 0.44502(16)
H1SA H 0.3460 0.1231 0.4759
C2SA C 0.41336(17) 0.14576(18) 0.43198(17)
C3SA C 0.42563(17) 0.19435(18) 0.46556(18)
H2SA H 0.4043 0.2009 0.4976
C4SA C 0.47060(18) 0.27527(17) 0.48942(19)
H3SA H 0.4446 0.2729 0.5205
H4SA H 0.4631 0.3096 0.4690
N1TA N 0.53613(15) -0.22804(13) 0.45328(15)
C1TA C 0.63203(17) -0.11377(17) 0.44502(16)
H1TA H 0.6540 -0.1231 0.4759
C2TA C 0.58664(17) -0.14576(18) 0.43198(17)
C3TA C 0.57437(17) -0.19435(18) 0.46556(18)
H2TA H 0.5957 -0.2009 0.4976
C4TA C 0.52940(18) -0.27527(17) 0.48942(19)
H3TA H 0.5554 -0.2729 0.5205
H4TA H 0.5369 -0.3096 0.4690
N1UA N 0.46387(15) -0.22804(13) 0.54672(15)
C1UA C 0.36797(17) -0.11377(17) 0.55498(16)
H1UA H 0.3460 -0.1231 0.5241
C2UA C 0.41336(17) -0.14576(18) 0.56802(17)
C3UA C 0.42563(17) -0.19435(18) 0.53444(18)
H2UA H 0.4043 -0.2009 0.5024
C4UA C 0.47060(18) -0.27527(17) 0.51058(19)
H3UA H 0.4446 -0.2729 0.4795
H4UA H 0.4631 -0.3096 0.5310
N1B N 0.45328(15) 0.03613(15) 0.27196(13)
C1B C 0.44502(16) 0.13203(17) 0.38623(17)
H1B H 0.4759 0.1540 0.3769
C2B C 0.43198(17) 0.08664(17) 0.35424(18)
C3B C 0.46556(18) 0.07437(17) 0.30565(18)
H2B H 0.4976 0.0957 0.2991
C4B C 0.48942(19) 0.02940(18) 0.22473(17)
H3B H 0.5205 0.0554 0.2271
H4B H 0.4690 0.0369 0.1904
N1C N 0.54672(15) -0.03613(15) 0.27196(13)
C1C C 0.55498(16) -0.13203(17) 0.38623(17)
H1C H 0.5241 -0.1540 0.3769
C2C C 0.56802(17) -0.08664(17) 0.35424(18)
C3C C 0.53444(18) -0.07437(17) 0.30565(18)
H2C H 0.5024 -0.0957 0.2991
C4C C 0.51058(19) -0.02940(18) 0.22473(17)
H3C H 0.4795 -0.0554 0.2271
H4C H 0.5310 -0.0369 0.1904
N1S N 0.27196(13) 0.04672(15) 0.46387(15)
C1S C 0.38623(17) 0.05498(16) 0.36797(17)
H1S H 0.3769 0.0241 0.3460
C2S C 0.35424(18) 0.06802(17) 0.41336(17)
C3S C 0.30565(18) 0.03444(18) 0.42563(17)
H2S H 0.2991 0.0024 0.4043
C4S C 0.22473(17) 0.01058(19) 0.47060(18)
H3S H 0.2271 -0.0205 0.4446
H4S H 0.1904 0.0310 0.4631
N2 N 0.52044(15) 0.20170(19) 0.7873(2)
C5 C 0.63543(18) 0.1949(2) 0.88248(19)
H5 H 0.6263 0.2260 0.9042
C6 C 0.60377(18) 0.18163(18) 0.83771(19)
C7 C 0.55560(17) 0.2157(2) 0.8239(2)
H6 H 0.5504 0.2494 0.8429
C8 C 0.47461(18) 0.2393(3) 0.7793(2)
H7 H 0.4778 0.2704 0.8053
H8 H 0.4396 0.2200 0.7869
N2O N 0.52044(15) 0.29830(19) 0.7127(2)
C5O C 0.63543(18) 0.3051(2) 0.61752(19)
H5O H 0.6263 0.2740 0.5958
C6O C 0.60377(18) 0.31837(18) 0.66229(19)
C7O C 0.55560(17) 0.2843(2) 0.6761(2)
H6O H 0.5504 0.2506 0.6571
C8O C 0.47461(18) 0.2607(3) 0.7207(2)
H7O H 0.4778 0.2296 0.6947
H8O H 0.4396 0.2800 0.7131
N2HA N 0.70170(19) 0.2127(2) 0.97956(15)
C5HA C 0.6949(2) 0.11752(19) 0.86457(18)
H5HA H 0.7260 0.0958 0.8737
C6HA C 0.68163(18) 0.16229(19) 0.89623(18)
C7HA C 0.7157(2) 0.1761(2) 0.94440(17)
H6HA H 0.7494 0.1571 0.9496
C8HA C 0.7393(3) 0.2207(2) 1.02539(18)
H7HA H 0.7704 0.1947 1.0222
H8HA H 0.7200 0.2131 1.0604
N2QA N 0.7127(2) 0.02044(15) 0.79830(19)
C5QA C 0.61752(19) 0.13543(18) 0.8051(2)
H5QA H 0.5958 0.1263 0.7740
C6QA C 0.66229(19) 0.10377(18) 0.81837(18)
C7QA C 0.6761(2) 0.05560(17) 0.7843(2)
H6QA H 0.6571 0.0504 0.7506
C8QA C 0.7207(2) -0.02539(18) 0.7607(3)
H7QA H 0.6947 -0.0222 0.7296
H8QA H 0.7131 -0.0604 0.7800
N2P N 0.7873(2) 0.02044(15) 0.70170(19)
C5P C 0.88248(19) 0.13543(18) 0.6949(2)
H5P H 0.9042 0.1263 0.7260
C6P C 0.83771(19) 0.10377(18) 0.68163(18)
C7P C 0.8239(2) 0.05560(17) 0.7157(2)
H6P H 0.8429 0.0504 0.7494
C8P C 0.7793(2) -0.02539(18) 0.7393(3)
H7P H 0.8053 -0.0222 0.7704
H8P H 0.7869 -0.0604 0.7200
N2U N 0.79830(19) 0.2873(2) 0.97956(15)
C5U C 0.8051(2) 0.38248(19) 0.86457(18)
H5U H 0.7740 0.4042 0.8737
C6U C 0.81837(18) 0.33771(19) 0.89623(18)
C7U C 0.7843(2) 0.3239(2) 0.94440(17)
H6U H 0.7506 0.3429 0.9496
C8U C 0.7607(3) 0.2793(2) 1.02539(18)
H7U H 0.7296 0.3053 1.0222
H8U H 0.7800 0.2869 1.0604
N2DA N 0.7127(2) 0.47956(15) 0.70170(19)
C5DA C 0.61752(19) 0.36457(18) 0.6949(2)
H5DA H 0.5958 0.3737 0.7260
C6DA C 0.66229(19) 0.39623(18) 0.68163(18)
C7DA C 0.6761(2) 0.44440(17) 0.7157(2)
H6DA H 0.6571 0.4496 0.7494
C8DA C 0.7207(2) 0.52539(18) 0.7393(3)
H7DA H 0.6947 0.5222 0.7704
H8DA H 0.7131 0.5604 0.7200
N2RA N 0.70170(19) 0.2873(2) 0.52044(15)
C5RA C 0.6949(2) 0.38248(19) 0.63543(18)
H5RA H 0.7260 0.4042 0.6263
C6RA C 0.68163(18) 0.33771(19) 0.60377(18)
C7RA C 0.7157(2) 0.3239(2) 0.55560(17)
H6RA H 0.7494 0.3429 0.5504
C8RA C 0.7393(3) 0.2793(2) 0.47461(18)
H7RA H 0.7704 0.3053 0.4778
H8RA H 0.7200 0.2869 0.4396
N2E N 0.7873(2) 0.47956(15) 0.79830(19)
C5E C 0.88248(19) 0.36457(18) 0.8051(2)
H5E H 0.9042 0.3737 0.7740
C6E C 0.83771(19) 0.39623(18) 0.81837(18)
C7E C 0.8239(2) 0.44440(17) 0.7843(2)
H6E H 0.8429 0.4496 0.7506
C8E C 0.7793(2) 0.52539(18) 0.7607(3)
H7E H 0.8053 0.5222 0.7296
H8E H 0.7869 0.5604 0.7800
N2K N 0.79830(19) 0.2127(2) 0.52044(15)
C5K C 0.8051(2) 0.11752(19) 0.63543(18)
H5K H 0.7740 0.0958 0.6263
C6K C 0.81837(18) 0.16229(19) 0.60377(18)
C7K C 0.7843(2) 0.1761(2) 0.55560(17)
H6K H 0.7506 0.1571 0.5504
C8K C 0.7607(3) 0.2207(2) 0.47461(18)
H7K H 0.7296 0.1947 0.4778
H8K H 0.7800 0.2131 0.4396
N2Z N 0.97956(15) 0.20170(19) 0.7127(2)
C5Z C 0.86457(18) 0.1949(2) 0.61752(19)
H5Z H 0.8737 0.2260 0.5958
C6Z C 0.89623(18) 0.18163(18) 0.66229(19)
C7Z C 0.94440(17) 0.2157(2) 0.6761(2)
H6Z H 0.9496 0.2494 0.6571
C8Z C 1.02539(18) 0.2393(3) 0.7207(2)
H7Z H 1.0222 0.2704 0.6947
H8Z H 1.0604 0.2200 0.7131
N2KA N 0.97956(15) 0.29830(19) 0.7873(2)
C5KA C 0.86457(18) 0.3051(2) 0.88248(19)
H5KA H 0.8737 0.2740 0.9042
C6KA C 0.89623(18) 0.31837(18) 0.83771(19)
C7KA C 0.94440(17) 0.2843(2) 0.8239(2)
H6KA H 0.9496 0.2506 0.8429
C8KA C 1.02539(18) 0.2607(3) 0.7793(2)
H7KA H 1.0222 0.2296 0.8053
H8KA H 1.0604 0.2800 0.7869
Cl1 Cl 0.70812(7) 0.29188(7) 0.79188(7)
C9 C 0.7500 0.2500 0.7500
Cl1E Cl 0.79188(7) 0.29188(7) 0.70812(7)
Cl1K Cl 0.70812(7) 0.20812(7) 0.70812(7)
Cl1P Cl 0.79188(7) 0.20812(7) 0.79188(7)
Cl2 Cl 0.45791(6) 0.04209(6) 0.54209(6)
C10 C 0.5000 0.0000 0.5000
Cl2A Cl 0.54209(6) -0.04209(6) 0.54209(6)
Cl2B Cl 0.54209(6) 0.04209(6) 0.45791(6)
Cl2C Cl 0.45791(6) -0.04209(6) 0.45791(6)
Cl3? Cl 0.3746(2) 0.04424(14) 0.86855(18)
Cl4? Cl 0.3973(6) 0.0280(12) 0.8861(12)
Cl5? Cl 0.37481(17) 0.1387(2) 0.7171(2)
Cl6? Cl 0.3880(2) 0.1021(4) 0.6828(3)
Cl7? Cl 0.4685(4) 0.0479(7) 0.9294(3)
Cl8? Cl 0.3661(7) 0.0697(15) 0.8556(7)
C11? C 0.4112(2) 0.0888(2) 0.9112(2)
Cl9? Cl 0.3100(4) 0.2268(3) 0.6740(4)
Cl10? Cl 0.3863(5) 0.1137(5) 0.6137(5)
C12? C 0.3409(4) 0.1591(4) 0.6591(4)
loop_
_geom_bond_atom_site_label_1
_geom_bond_atom_site_label_2
_geom_bond_site_symmetry_1
_geom_bond_site_symmetry_2
N1 C3 1_555 1_555
C1 H1 1_555 1_555
C2 C1 1_555 1_555
C3 C2 1_555 1_555
H2 C3 1_555 1_555
C4 N1 1_555 1_555
H3 C4 1_555 1_555
H4 C4 1_555 1_555
N2 C7 1_555 1_555
C5 H5 1_555 1_555
C6 C5 1_555 1_555
C7 C6 1_555 1_555
H6 C7 1_555 1_555
C8 N2 1_555 1_555
H7 C8 1_555 1_555
H8 C8 1_555 1_555
Cl1 C9 1_555 1_555
C9 Cl1E 1_555 1_555
Cl2 C10 1_555 1_555
C10 Cl2A 1_555 1_555
N1A C3A 1_555 1_555
C1A H1A 1_555 1_555
C2A C1A 1_555 1_555
C3A C2A 1_555 1_555
H2A C3A 1_555 1_555
C4A C4 1_555 1_555
H3A C4A 1_555 1_555
H4A C4A 1_555 1_555
N1P C3P 1_555 1_555
C1P C2 1_555 1_555
H1P C1P 1_555 1_555
C2P C1P 1_555 1_555
C3P C2P 1_555 1_555
H2P C3P 1_555 1_555
C4P N1P 1_555 1_555
H3P C4P 1_555 1_555
H4P C4P 1_555 1_555
N1RA C3RA 1_555 1_555
C1RA C2P 1_555 1_555
H1RA C1RA 1_555 1_555
C2RA C1 1_555 1_555
C3RA C2RA 1_555 1_555
H2RA C3RA 1_555 1_555
C4RA N1RA 1_555 1_555
H3RA C4RA 1_555 1_555
H4RA C4RA 1_555 1_555
N1Q C3Q 1_555 1_555
C1Q H1Q 1_555 1_555
C2Q C1Q 1_555 1_555
C3Q C2Q 1_555 1_555
H2Q C3Q 1_555 1_555
C4Q C4P 1_555 1_555
H3Q C4Q 1_555 1_555
H4Q C4Q 1_555 1_555
N1R C3R 1_555 1_555
C1R C2A 1_555 1_555
H1R C1R 1_555 1_555
C2R C1R 1_555 1_555
C3R C2R 1_555 1_555
H2R C3R 1_555 1_555
C4R N1R 1_555 1_555
H3R C4R 1_555 1_555
H4R C4R 1_555 1_555
N1SA C3SA 1_555 1_555
C1SA H1SA 1_555 1_555
C2SA C1SA 1_555 1_555
C3SA C2SA 1_555 1_555
H2SA C3SA 1_555 1_555
C4SA C4RA 1_555 1_555
H3SA C4SA 1_555 1_555
H4SA C4SA 1_555 1_555
N1TA C3TA 1_555 1_555
C1TA C2Q 1_555 1_555
H1TA C1TA 1_555 1_555
C2TA C1TA 1_555 1_555
C3TA C2TA 1_555 1_555
H2TA C3TA 1_555 1_555
C4TA N1TA 1_555 1_555
H3TA C4TA 1_555 1_555
H4TA C4TA 1_555 1_555
N1UA C3UA 1_555 1_555
C1UA C2R 1_555 1_555
H1UA C1UA 1_555 1_555
C2UA C1A 1_555 1_555
C3UA C2UA 1_555 1_555
H2UA C3UA 1_555 1_555
C4UA C4TA 1_555 1_555
H3UA C4UA 1_555 1_555
H4UA C4UA 1_555 1_555
N1B C3B 1_555 1_555
C1B C2SA 1_555 1_555
H1B C1B 1_555 1_555
C2B C1B 1_555 1_555
C3B C2B 1_555 1_555
H2B C3B 1_555 1_555
C4B N1B 1_555 1_555
H3B C4B 1_555 1_555
H4B C4B 1_555 1_555
N1C C3C 1_555 1_555
C1C C2TA 1_555 1_555
H1C C1C 1_555 1_555
C2C C1Q 1_555 1_555
C3C C2C 1_555 1_555
H2C C3C 1_555 1_555
C4C C4B 1_555 1_555
H3C C4C 1_555 1_555
H4C C4C 1_555 1_555
N1S C3S 1_555 1_555
C1S C2B 1_555 1_555
H1S C1S 1_555 1_555
C2S C1SA 1_555 1_555
C3S C2S 1_555 1_555
H2S C3S 1_555 1_555
C4S C4R 1_555 1_555
H3S C4S 1_555 1_555
H4S C4S 1_555 1_555
N2O C7O 1_555 1_555
C5O H5O 1_555 1_555
C6O C5O 1_555 1_555
C7O C6O 1_555 1_555
H6O C7O 1_555 1_555
C8O C8 1_555 1_555
H7O C8O 1_555 1_555
H8O C8O 1_555 1_555
N2HA C7HA 1_555 1_555
C5HA H5HA 1_555 1_555
C6HA C5 1_555 1_555
C7HA C6HA 1_555 1_555
H6HA C7HA 1_555 1_555
C8HA N2HA 1_555 1_555
H7HA C8HA 1_555 1_555
H8HA C8HA 1_555 1_555
N2QA C7QA 1_555 1_555
C5QA C6 1_555 1_555
H5QA C5QA 1_555 1_555
C6QA C5HA 1_555 1_555
C7QA C6QA 1_555 1_555
H6QA C7QA 1_555 1_555
C8QA N2QA 1_555 1_555
H7QA C8QA 1_555 1_555
H8QA C8QA 1_555 1_555
N2P C7P 1_555 1_555
C5P H5P 1_555 1_555
C6P C5P 1_555 1_555
C7P C6P 1_555 1_555
H6P C7P 1_555 1_555
C8P C8QA 1_555 1_555
H7P C8P 1_555 1_555
H8P C8P 1_555 1_555
N2U C7U 1_555 1_555
C5U H5U 1_555 1_555
C6U C5U 1_555 1_555
C7U C6U 1_555 1_555
H6U C7U 1_555 1_555
C8U C8HA 1_555 1_555
H7U C8U 1_555 1_555
H8U C8U 1_555 1_555
N2DA C7DA 1_555 1_555
C5DA C6O 1_555 1_555
H5DA C5DA 1_555 1_555
C6DA C5DA 1_555 1_555
C7DA C6DA 1_555 1_555
H6DA C7DA 1_555 1_555
C8DA N2DA 1_555 1_555
H7DA C8DA 1_555 1_555
H8DA C8DA 1_555 1_555
N2RA C7RA 1_555 1_555
C5RA C6DA 1_555 1_555
H5RA C5RA 1_555 1_555
C6RA C5O 1_555 1_555
C7RA C6RA 1_555 1_555
H6RA C7RA 1_555 1_555
C8RA N2RA 1_555 1_555
H7RA C8RA 1_555 1_555
H8RA C8RA 1_555 1_555
N2E C7E 1_555 1_555
C5E H5E 1_555 1_555
C6E C5U 1_555 1_555
C7E C6E 1_555 1_555
H6E C7E 1_555 1_555
C8E C8DA 1_555 1_555
H7E C8E 1_555 1_555
H8E C8E 1_555 1_555
N2K C7K 1_555 1_555
C5K C6P 1_555 1_555
H5K C5K 1_555 1_555
C6K C5K 1_555 1_555
C7K C6K 1_555 1_555
H6K C7K 1_555 1_555
C8K C8RA 1_555 1_555
H7K C8K 1_555 1_555
H8K C8K 1_555 1_555
N2Z C7Z 1_555 1_555
C5Z C6K 1_555 1_555
H5Z C5Z 1_555 1_555
C6Z C5P 1_555 1_555
C7Z C6Z 1_555 1_555
H6Z C7Z 1_555 1_555
C8Z N2Z 1_555 1_555
H7Z C8Z 1_555 1_555
H8Z C8Z 1_555 1_555
N2KA C7KA 1_555 1_555
C5KA C6U 1_555 1_555
H5KA C5KA 1_555 1_555
C6KA C5E 1_555 1_555
C7KA C6KA 1_555 1_555
H6KA C7KA 1_555 1_555
C8KA C8Z 1_555 1_555
H7KA C8KA 1_555 1_555
H8KA C8KA 1_555 1_555
Cl1K C9 1_555 1_555
Cl1P C9 1_555 1_555
Cl2B C10 1_555 1_555
Cl2C C10 1_555 1_555
N1A C4A 1_555 1_555
C1RA C2RA 1_555 1_555
N1Q C4Q 1_555 1_555
N1SA C4SA 1_555 1_555
N1UA C4UA 1_555 1_555
C1UA C2UA 1_555 1_555
N1C C4C 1_555 1_555
C1C C2C 1_555 1_555
N1S C4S 1_555 1_555
C1S C2S 1_555 1_555
N2O C8O 1_555 1_555
C5HA C6HA 1_555 1_555
C5QA C6QA 1_555 1_555
N2P C8P 1_555 1_555
N2U C8U 1_555 1_555
C5RA C6RA 1_555 1_555
N2E C8E 1_555 1_555
C5E C6E 1_555 1_555
N2K C8K 1_555 1_555
C5Z C6Z 1_555 1_555
N2KA C8KA 1_555 1_555
C5KA C6KA 1_555 1_555

#END
