
#######################################################################
#
#                 Cambridge Crystallographic Data Centre
#                                CCDC 
#
#######################################################################
#
# If this CIF has been generated from an entry in the Cambridge 
# Structural Database, then it will include bibliographic, chemical, 
# crystal, experimental, refinement or atomic coordinate data resulting 
# from the CCDC's data processing and validation procedures.
#
#######################################################################

data_IFAXOE
_chemical_formula_moiety         'C21 H24 N4 O1,H2 O1'
_chemical_name_systematic        
'1,3-Dimesityl-N-nitroso-1,3-dihydro-2H-imidazol-2-imine monohydrate'
_symmetry_cell_setting           monoclinic
_symmetry_space_group_name_H-M   'P 21/c'
_symmetry_Int_Tables_number      14
_space_group_name_Hall           '-P 2ybc'
loop_
_symmetry_equiv_pos_site_id
_symmetry_equiv_pos_as_xyz
1 x,y,z
2 -x,1/2+y,1/2-z
3 -x,-y,-z
4 x,1/2-y,1/2+z
_cell_length_a                   8.446(7)
_cell_length_b                   15.471(9)
_cell_length_c                   15.650(10)
_cell_angle_alpha                90
_cell_angle_beta                 99.33(3)
_cell_angle_gamma                90
_cell_volume                     2017.9
_exptl_crystal_colour            yellow
_exptl_crystal_description       prismatic
_cell_formula_units_Z            4
loop_
_atom_site_label
_atom_site_type_symbol
_atom_site_fract_x
_atom_site_fract_y
_atom_site_fract_z
O1 O 0.3335(2) 0.57639(14) 0.18404(12)
N1 N 0.3396(2) 0.32314(16) 0.13822(13)
N2 N 0.4790(3) 0.30598(17) 0.26631(13)
N3 N 0.4393(3) 0.45291(17) 0.22121(13)
N4 N 0.3157(3) 0.49656(17) 0.17868(14)
C1 C 0.4161(3) 0.3666(2) 0.20771(15)
C2 C 0.3536(3) 0.2352(2) 0.15435(17)
H1 H 0.3092 0.1904 0.1163
C3 C 0.4412(3) 0.2245(2) 0.23359(17)
H2 H 0.4712 0.1711 0.2615
C4 C 0.2765(3) 0.35770(19) 0.05334(15)
C5 C 0.1114(3) 0.3663(2) 0.02955(16)
C6 C 0.0536(3) 0.3937(2) -0.05462(17)
H3 H -0.0588 0.3996 -0.0728
C7 C 0.1578(3) 0.4124(2) -0.11243(16)
C8 C 0.3220(3) 0.4047(2) -0.08527(16)
H4 H 0.3932 0.4188 -0.1243
C9 C 0.3851(3) 0.3766(2) -0.00199(16)
C10 C -0.0018(3) 0.3488(2) 0.09287(18)
H5 H 0.0091 0.2884 0.1119
H6 H -0.1123 0.3595 0.0647
H7 H 0.0245 0.3870 0.1431
C11 C 0.0934(4) 0.4404(3) -0.20455(17)
H8 H -0.0231 0.4481 -0.2111
H9 H 0.1183 0.3961 -0.2451
H10 H 0.1435 0.4952 -0.2168
C12 C 0.5635(3) 0.3679(2) 0.02564(18)
H11 H 0.6178 0.3775 -0.0243
H12 H 0.5884 0.3096 0.0487
H13 H 0.6005 0.4107 0.0706
C13 C 0.5687(3) 0.3257(2) 0.35087(16)
C14 C 0.7346(3) 0.3178(2) 0.36372(16)
C15 C 0.8179(4) 0.3387(2) 0.44556(18)
H14 H 0.9312 0.3320 0.4567
C16 C 0.7394(4) 0.3694(2) 0.51179(18)
C17 C 0.5747(4) 0.3754(2) 0.49570(17)
H15 H 0.5206 0.3954 0.5406
C18 C 0.4838(3) 0.3531(2) 0.41595(17)
C19 C 0.8214(3) 0.2870(2) 0.29230(18)
H16 H 0.8010 0.2252 0.2822
H17 H 0.9370 0.2966 0.3092
H18 H 0.7827 0.3192 0.2391
C20 C 0.8340(4) 0.3943(3) 0.59874(19)
H19 H 0.9183 0.4355 0.5902
H20 H 0.8830 0.3426 0.6280
H21 H 0.7621 0.4211 0.6343
C21 C 0.3035(4) 0.3576(2) 0.4017(2)
H22 H 0.2679 0.3816 0.4533
H23 H 0.2591 0.2994 0.3907
H24 H 0.2660 0.3947 0.3517
O2 O 0.6639(3) 0.53987(17) 0.36218(15)
H25 H 0.594(4) 0.507(2) 0.3108(17)
H26 H 0.707(4) 0.4878(19) 0.4023(19)
loop_
_geom_bond_atom_site_label_1
_geom_bond_atom_site_label_2
_geom_bond_site_symmetry_1
_geom_bond_site_symmetry_2
O1 N4 1_555 1_555
N1 C1 1_555 1_555
N2 C1 1_555 1_555
N3 N4 1_555 1_555
C1 N3 1_555 1_555
C2 N1 1_555 1_555
H1 C2 1_555 1_555
C3 N2 1_555 1_555
H2 C3 1_555 1_555
C4 N1 1_555 1_555
C5 C4 1_555 1_555
C6 C5 1_555 1_555
H3 C6 1_555 1_555
C7 C6 1_555 1_555
C8 C7 1_555 1_555
H4 C8 1_555 1_555
C9 C4 1_555 1_555
C10 C5 1_555 1_555
H5 C10 1_555 1_555
H6 C10 1_555 1_555
H7 C10 1_555 1_555
C11 C7 1_555 1_555
H8 C11 1_555 1_555
H9 C11 1_555 1_555
H10 C11 1_555 1_555
C12 C9 1_555 1_555
H11 C12 1_555 1_555
H12 C12 1_555 1_555
H13 C12 1_555 1_555
C13 N2 1_555 1_555
C14 C13 1_555 1_555
C15 C14 1_555 1_555
H14 C15 1_555 1_555
C16 C15 1_555 1_555
C17 C16 1_555 1_555
H15 C17 1_555 1_555
C18 C13 1_555 1_555
C19 C14 1_555 1_555
H16 C19 1_555 1_555
H17 C19 1_555 1_555
H18 C19 1_555 1_555
C20 C16 1_555 1_555
H19 C20 1_555 1_555
H20 C20 1_555 1_555
H21 C20 1_555 1_555
C21 C18 1_555 1_555
H22 C21 1_555 1_555
H23 C21 1_555 1_555
H24 C21 1_555 1_555
O2 H25 1_555 1_555
H26 O2 1_555 1_555
C2 C3 1_555 1_555
C8 C9 1_555 1_555
C17 C18 1_555 1_555

#END
