
#######################################################################
#
#                 Cambridge Crystallographic Data Centre
#                                CCDC 
#
#######################################################################
#
# If this CIF has been generated from an entry in the Cambridge 
# Structural Database, then it will include bibliographic, chemical, 
# crystal, experimental, refinement or atomic coordinate data resulting 
# from the CCDC's data processing and validation procedures.
#
#######################################################################

data_IFAYIZ
_chemical_formula_moiety         'C9 H16 N4 O1'
_chemical_name_systematic        
1,3-Di-isopropyl-N-nitroso-1,3-dihydro-2H-imidazol-2-imine
_symmetry_cell_setting           monoclinic
_symmetry_space_group_name_H-M   'P 21/c'
_symmetry_Int_Tables_number      14
_space_group_name_Hall           '-P 2ybc'
loop_
_symmetry_equiv_pos_site_id
_symmetry_equiv_pos_as_xyz
1 x,y,z
2 -x,1/2+y,1/2-z
3 -x,-y,-z
4 x,1/2-y,1/2+z
_cell_length_a                   10.7327(8)
_cell_length_b                   11.2343(7)
_cell_length_c                   10.6356(7)
_cell_angle_alpha                90
_cell_angle_beta                 119.383(5)
_cell_angle_gamma                90
_cell_volume                     1117.41
_exptl_crystal_colour            yellow
_exptl_crystal_description       prismatic
_cell_formula_units_Z            4
loop_
_atom_site_label
_atom_site_type_symbol
_atom_site_fract_x
_atom_site_fract_y
_atom_site_fract_z
O1 O 0.78547(8) 0.07214(6) 0.81011(8)
N1 N 0.89065(8) -0.25421(7) 0.72467(8)
N2 N 0.68592(8) -0.24814(7) 0.52350(8)
N3 N 0.71860(8) -0.09374(7) 0.69175(8)
N4 N 0.82020(9) -0.01290(7) 0.75566(9)
C1 C 0.76771(9) -0.19104(8) 0.65000(10)
C2 C 0.88555(10) -0.35208(9) 0.64148(10)
H1 H 0.9618(14) -0.4071(12) 0.6723(14)
C3 C 0.75903(10) -0.34870(9) 0.51743(10)
H2 H 0.7209(13) -0.3996(12) 0.4345(14)
C4 C 1.00734(10) -0.23215(9) 0.87508(10)
H3 H 0.9740(12) -0.1667(11) 0.9106(12)
C5 C 1.14373(11) -0.19448(10) 0.87388(11)
H4 H 1.1761(14) -0.2587(12) 0.8342(15)
H5 H 1.2204(15) -0.1758(12) 0.9742(15)
H6 H 1.1257(14) -0.1220(12) 0.8137(14)
C6 C 1.02982(12) -0.34333(10) 0.96648(11)
H7 H 0.9385(15) -0.3686(13) 0.9609(15)
H8 H 1.1019(15) -0.3243(12) 1.0684(15)
H9 H 1.0652(15) -0.4103(13) 0.9326(15)
C7 C 0.54924(10) -0.19983(9) 0.40527(10)
H10 H 0.5045(13) -0.1580(11) 0.4540(13)
C8 C 0.45319(11) -0.30114(10) 0.31337(12)
H11 H 0.4951(16) -0.3412(13) 0.2598(16)
H12 H 0.3577(15) -0.2696(13) 0.2439(15)
H13 H 0.4389(15) -0.3608(13) 0.3735(16)
C9 C 0.58111(12) -0.11159(11) 0.31557(12)
H14 H 0.6462(16) -0.0464(14) 0.3776(16)
H15 H 0.4909(16) -0.0774(13) 0.2396(16)
H16 H 0.6314(16) -0.1531(14) 0.2698(16)
loop_
_geom_bond_atom_site_label_1
_geom_bond_atom_site_label_2
_geom_bond_site_symmetry_1
_geom_bond_site_symmetry_2
O1 N4 1_555 1_555
N1 C1 1_555 1_555
N2 C1 1_555 1_555
N3 N4 1_555 1_555
C1 N3 1_555 1_555
C2 N1 1_555 1_555
H1 C2 1_555 1_555
C3 N2 1_555 1_555
H2 C3 1_555 1_555
C4 N1 1_555 1_555
H3 C4 1_555 1_555
C5 C4 1_555 1_555
H4 C5 1_555 1_555
H5 C5 1_555 1_555
H6 C5 1_555 1_555
C6 C4 1_555 1_555
H7 C6 1_555 1_555
H8 C6 1_555 1_555
H9 C6 1_555 1_555
C7 N2 1_555 1_555
H10 C7 1_555 1_555
C8 C7 1_555 1_555
H11 C8 1_555 1_555
H12 C8 1_555 1_555
H13 C8 1_555 1_555
C9 C7 1_555 1_555
H14 C9 1_555 1_555
H15 C9 1_555 1_555
H16 C9 1_555 1_555
C2 C3 1_555 1_555

#END
