
#######################################################################
#
#                 Cambridge Crystallographic Data Centre
#                                CCDC 
#
#######################################################################
#
# If this CIF has been generated from an entry in the Cambridge 
# Structural Database, then it will include bibliographic, chemical, 
# crystal, experimental, refinement or atomic coordinate data resulting 
# from the CCDC's data processing and validation procedures.
#
#######################################################################

data_IFAYAR
_chemical_formula_moiety         'C19 H20 N4 O1'
_chemical_name_systematic        
1,3-bis(2,6-Dimethylphenyl)-N-nitroso-1,3-dihydro-2H-imidazol-2-imine
_symmetry_cell_setting           monoclinic
_symmetry_space_group_name_H-M   'P 21/n'
_symmetry_Int_Tables_number      14
_space_group_name_Hall           '-P 2yn'
loop_
_symmetry_equiv_pos_site_id
_symmetry_equiv_pos_as_xyz
1 x,y,z
2 1/2-x,1/2+y,1/2-z
3 -x,-y,-z
4 1/2+x,1/2-y,1/2+z
_cell_length_a                   8.2250(16)
_cell_length_b                   15.862(3)
_cell_length_c                   13.308(3)
_cell_angle_alpha                90
_cell_angle_beta                 100.57(3)
_cell_angle_gamma                90
_cell_volume                     1706.77
_exptl_crystal_colour            yellow
_exptl_crystal_description       prismatic
_cell_formula_units_Z            4
loop_
_atom_site_label
_atom_site_type_symbol
_atom_site_fract_x
_atom_site_fract_y
_atom_site_fract_z
O1 O 0.3471(4) 0.3532(2) 0.1812(2)
N1 N 0.3730(5) 0.1050(2) 0.1178(3)
N2 N 0.3223(4) 0.0785(2) 0.2703(3)
N3 N 0.3160(6) 0.2242(3) 0.2265(3)
N4 N 0.3674(6) 0.2768(3) 0.1675(3)
C1 C 0.3388(5) 0.1423(3) 0.2037(3)
C2 C 0.3754(6) 0.0173(3) 0.1330(4)
H1 H 0.3966 -0.0238 0.0850
C3 C 0.3430(6) 0.0008(3) 0.2259(3)
H2 H 0.3357 -0.0532 0.2556
C4 C 0.3960(6) 0.1435(3) 0.0221(3)
C5 C 0.5573(5) 0.1650(3) 0.0121(3)
C6 C 0.5799(6) 0.1969(3) -0.0816(3)
H3 H 0.6874 0.2132 -0.0906
C7 C 0.4465(6) 0.2054(3) -0.1624(3)
H4 H 0.4646 0.2258 -0.2266
C8 C 0.2888(6) 0.1843(3) -0.1500(3)
H5 H 0.1993 0.1914 -0.2056
C9 C 0.2576(6) 0.1528(3) -0.0570(3)
C10 C 0.7012(6) 0.1531(3) 0.1001(4)
H6 H 0.8016 0.1772 0.0817
H7 H 0.7180 0.0928 0.1144
H8 H 0.6771 0.1817 0.1610
C11 C 0.0857(6) 0.1311(4) -0.0416(4)
H9 H 0.0564 0.1665 0.0127
H10 H 0.0816 0.0716 -0.0222
H11 H 0.0070 0.1410 -0.1053
C12 C 0.2930(6) 0.0915(3) 0.3744(3)
C13 C 0.1315(5) 0.0826(3) 0.3922(3)
C14 C 0.1081(6) 0.0960(3) 0.4928(3)
H12 H 0.0005 0.0906 0.5086
C15 C 0.2406(7) 0.1171(3) 0.5698(3)
H13 H 0.2224 0.1260 0.6374
C16 C 0.3989(6) 0.1254(3) 0.5489(3)
H14 H 0.4878 0.1401 0.6022
C17 C 0.4288(6) 0.1122(3) 0.4503(3)
C18 C -0.0101(6) 0.0591(3) 0.3066(3)
H15 H -0.0027 0.0925 0.2456
H16 H -0.1156 0.0707 0.3281
H17 H -0.0033 -0.0010 0.2909
C19 C 0.6024(6) 0.1188(3) 0.4281(4)
H18 H 0.6803 0.1294 0.4920
H19 H 0.6076 0.1654 0.3804
H20 H 0.6316 0.0660 0.3977
loop_
_geom_bond_atom_site_label_1
_geom_bond_atom_site_label_2
_geom_bond_site_symmetry_1
_geom_bond_site_symmetry_2
O1 N4 1_555 1_555
N1 C1 1_555 1_555
N2 C1 1_555 1_555
N3 N4 1_555 1_555
C1 N3 1_555 1_555
C2 N1 1_555 1_555
H1 C2 1_555 1_555
C3 N2 1_555 1_555
H2 C3 1_555 1_555
C4 N1 1_555 1_555
C5 C4 1_555 1_555
C6 C5 1_555 1_555
H3 C6 1_555 1_555
C7 C6 1_555 1_555
H4 C7 1_555 1_555
C8 C7 1_555 1_555
H5 C8 1_555 1_555
C9 C4 1_555 1_555
C10 C5 1_555 1_555
H6 C10 1_555 1_555
H7 C10 1_555 1_555
H8 C10 1_555 1_555
C11 C9 1_555 1_555
H9 C11 1_555 1_555
H10 C11 1_555 1_555
H11 C11 1_555 1_555
C12 N2 1_555 1_555
C13 C12 1_555 1_555
C14 C13 1_555 1_555
H12 C14 1_555 1_555
C15 C14 1_555 1_555
H13 C15 1_555 1_555
C16 C15 1_555 1_555
H14 C16 1_555 1_555
C17 C12 1_555 1_555
C18 C13 1_555 1_555
H15 C18 1_555 1_555
H16 C18 1_555 1_555
H17 C18 1_555 1_555
C19 C17 1_555 1_555
H18 C19 1_555 1_555
H19 C19 1_555 1_555
H20 C19 1_555 1_555
C2 C3 1_555 1_555
C8 C9 1_555 1_555
C16 C17 1_555 1_555

#END
