
#######################################################################
#
#                 Cambridge Crystallographic Data Centre
#                                CCDC 
#
#######################################################################
#
# If this CIF has been generated from an entry in the Cambridge 
# Structural Database, then it will include bibliographic, chemical, 
# crystal, experimental, refinement or atomic coordinate data resulting 
# from the CCDC's data processing and validation procedures.
#
#######################################################################

data_IFAZEW
_chemical_formula_moiety         'C23 H28 N3 O1 1+,Cl1 1-'
_chemical_name_systematic        
'2-Acetamido-1,3-dimesityl-1H-imidazol-3-ium chloride'
_symmetry_cell_setting           monoclinic
_symmetry_space_group_name_H-M   'C 2/c'
_symmetry_Int_Tables_number      15
_space_group_name_Hall           '-C 2yn'
loop_
_symmetry_equiv_pos_site_id
_symmetry_equiv_pos_as_xyz
1 x,y,z
2 -x,y,1/2-z
3 1/2+x,1/2+y,z
4 1/2-x,1/2+y,1/2-z
5 -x,-y,-z
6 x,-y,1/2+z
7 1/2-x,1/2-y,-z
8 1/2+x,1/2-y,1/2+z
_cell_length_a                   32.108(3)
_cell_length_b                   8.7345(10)
_cell_length_c                   32.585(5)
_cell_angle_alpha                90
_cell_angle_beta                 94.530(10)
_cell_angle_gamma                90
_cell_volume                     9109.83
_exptl_crystal_colour            colorless
_exptl_crystal_description       prismatic
_cell_formula_units_Z            16
loop_
_atom_site_label
_atom_site_type_symbol
_atom_site_fract_x
_atom_site_fract_y
_atom_site_fract_z
Cl1 Cl 0.16754(4) 0.82977(12) 0.03183(4)
Cl2 Cl 0.16456(5) 0.66909(14) 0.21826(5)
O1 O 0.07442(12) 0.5102(5) -0.06453(14)
N1 N 0.12100(10) 0.3538(3) 0.03268(11)
N2 N 0.15162(10) 0.3210(4) -0.02369(11)
N3 N 0.12137(11) 0.5710(4) -0.01253(12)
H1 H 0.1341 0.6437 0.0012
C1 C 0.13069(11) 0.4225(4) -0.00197(13)
C2 C 0.13588(14) 0.2064(5) 0.03291(16)
H2 H 0.1332 0.1339 0.0534
C3 C 0.15492(14) 0.1862(5) -0.00173(16)
H3 H 0.1680 0.0971 -0.0096
C4 C 0.09687(12) 0.4223(4) 0.06377(14)
C5 C 0.05373(14) 0.4061(5) 0.05868(15)
C6 C 0.03125(16) 0.4708(6) 0.08941(18)
H4 H 0.0023 0.4619 0.0871
C7 C 0.04995(18) 0.5467(6) 0.12275(18)
C8 C 0.09262(17) 0.5576(5) 0.12603(15)
H5 H 0.1056 0.6098 0.1484
C9 C 0.11753(15) 0.4935(5) 0.09713(15)
C10 C 0.03209(16) 0.3220(6) 0.02302(18)
H6 H 0.0412 0.3618 -0.0022
H7 H 0.0024 0.3353 0.0233
H8 H 0.0388 0.2151 0.0252
C11 C 0.02370(19) 0.6157(7) 0.15474(19)
H9 H 0.0152 0.5365 0.1727
H10 H -0.0006 0.6636 0.1412
H11 H 0.0399 0.6908 0.1705
C12 C 0.16410(14) 0.5062(6) 0.10219(17)
H12 H 0.1763 0.4072 0.0987
H13 H 0.1725 0.5442 0.1292
H14 H 0.1734 0.5754 0.0819
C13 C 0.17069(13) 0.3520(5) -0.06136(14)
C14 C 0.20759(13) 0.4352(5) -0.05900(14)
C15 C 0.22596(14) 0.4614(5) -0.09572(17)
H15 H 0.2506 0.5179 -0.0950
C16 C 0.20904(16) 0.4066(6) -0.13328(16)
C17 C 0.17310(16) 0.3209(6) -0.13361(16)
H16 H 0.1618 0.2815 -0.1586
C18 C 0.15290(15) 0.2905(5) -0.09812(17)
C19 C 0.22755(14) 0.4933(5) -0.01873(16)
H17 H 0.2111 0.5756 -0.0090
H18 H 0.2552 0.5297 -0.0226
H19 H 0.2291 0.4118 0.0011
C20 C 0.22937(19) 0.4428(8) -0.17227(17)
H20 H 0.2516 0.3716 -0.1756
H21 H 0.2404 0.5450 -0.1707
H22 H 0.2090 0.4351 -0.1954
C21 C 0.11357(17) 0.1932(6) -0.10043(19)
H23 H 0.1166 0.1136 -0.0801
H24 H 0.1092 0.1484 -0.1273
H25 H 0.0900 0.2563 -0.0953
C22 C 0.09276(15) 0.6072(6) -0.04382(18)
C23 C 0.08517(16) 0.7773(5) -0.04877(19)
H26 H 0.0727 0.7978 -0.0760
H27 H 0.1113 0.8310 -0.0447
H28 H 0.0667 0.8112 -0.0288
O2 O 0.06533(15) 1.0046(5) 0.28981(16)
N4 N 0.11372(12) 1.1439(4) 0.20090(12)
N5 N 0.14696(12) 1.1743(4) 0.26044(12)
N6 N 0.11268(11) 0.9309(4) 0.24793(12)
H29 H 0.1255 0.8547 0.2380
C24 C 0.12389(13) 1.0758(5) 0.23717(14)
C25 C 0.13072(17) 1.2873(5) 0.20164(18)
H30 H 0.1284 1.3579 0.1802
C26 C 0.15118(18) 1.3083(5) 0.23847(17)
H31 H 0.1655 1.3960 0.2476
C27 C 0.08793(14) 1.0794(5) 0.16637(14)
C28 C 0.04560(16) 1.1052(6) 0.16450(16)
C29 C 0.02195(16) 1.0461(6) 0.13079(18)
H32 H -0.0068 1.0617 0.1286
C30 C 0.03996(17) 0.9641(6) 0.10004(17)
C31 C 0.08259(17) 0.9452(5) 0.10361(16)
H33 H 0.0950 0.8931 0.0829
C32 C 0.10820(14) 1.0010(5) 0.13712(15)
C33 C 0.02545(17) 1.1955(6) 0.19670(19)
H34 H 0.0298 1.1443 0.2228
H35 H -0.0040 1.2043 0.1892
H36 H 0.0377 1.2958 0.1988
C34 C 0.01370(19) 0.8979(7) 0.06399(18)
H37 H 0.0165 0.9603 0.0401
H38 H -0.0150 0.8956 0.0701
H39 H 0.0230 0.7958 0.0587
C35 C 0.15418(15) 0.9776(6) 0.13969(17)
H40 H 0.1617 0.9234 0.1157
H41 H 0.1626 0.9192 0.1639
H42 H 0.1680 1.0752 0.1411
C36 C 0.16589(14) 1.1509(5) 0.30220(14)
C37 C 0.20188(14) 1.0652(5) 0.30693(15)
C38 C 0.21963(14) 1.0478(6) 0.34684(16)
H43 H 0.2438 0.9894 0.3513
C39 C 0.20272(15) 1.1141(6) 0.38027(16)
C40 C 0.16782(15) 1.2020(6) 0.37374(16)
H44 H 0.1569 1.2495 0.3961
C41 C 0.14790(15) 1.2230(6) 0.33445(16)
C42 C 0.22238(17) 0.9964(6) 0.27113(17)
H45 H 0.2068 0.9084 0.2611
H46 H 0.2504 0.9663 0.2800
H47 H 0.2230 1.0708 0.2495
C43 C 0.22326(18) 1.0921(8) 0.42361(17)
H48 H 0.2483 1.1523 0.4270
H49 H 0.2301 0.9859 0.4279
H50 H 0.2043 1.1240 0.4433
C44 C 0.10908(18) 1.3219(7) 0.3282(2)
H51 H 0.1143 1.4050 0.3100
H52 H 0.1022 1.3620 0.3542
H53 H 0.0862 1.2613 0.3164
C45 C 0.08258(17) 0.9021(7) 0.27330(18)
C46 C 0.0729(2) 0.7353(6) 0.2790(2)
H54 H 0.0716 0.7140 0.3078
H55 H 0.0944 0.6740 0.2683
H56 H 0.0465 0.7114 0.2645
loop_
_geom_bond_atom_site_label_1
_geom_bond_atom_site_label_2
_geom_bond_site_symmetry_1
_geom_bond_site_symmetry_2
O1 C22 1_555 1_555
N1 C1 1_555 1_555
N2 C1 1_555 1_555
N3 H1 1_555 1_555
C1 N3 1_555 1_555
C2 N1 1_555 1_555
H2 C2 1_555 1_555
C3 N2 1_555 1_555
H3 C3 1_555 1_555
C4 N1 1_555 1_555
C5 C4 1_555 1_555
C6 C5 1_555 1_555
H4 C6 1_555 1_555
C7 C6 1_555 1_555
C8 C7 1_555 1_555
H5 C8 1_555 1_555
C9 C4 1_555 1_555
C10 C5 1_555 1_555
H6 C10 1_555 1_555
H7 C10 1_555 1_555
H8 C10 1_555 1_555
C11 C7 1_555 1_555
H9 C11 1_555 1_555
H10 C11 1_555 1_555
H11 C11 1_555 1_555
C12 C9 1_555 1_555
H12 C12 1_555 1_555
H13 C12 1_555 1_555
H14 C12 1_555 1_555
C13 N2 1_555 1_555
C14 C13 1_555 1_555
C15 C14 1_555 1_555
H15 C15 1_555 1_555
C16 C15 1_555 1_555
C17 C16 1_555 1_555
H16 C17 1_555 1_555
C18 C13 1_555 1_555
C19 C14 1_555 1_555
H17 C19 1_555 1_555
H18 C19 1_555 1_555
H19 C19 1_555 1_555
C20 C16 1_555 1_555
H20 C20 1_555 1_555
H21 C20 1_555 1_555
H22 C20 1_555 1_555
C21 C18 1_555 1_555
H23 C21 1_555 1_555
H24 C21 1_555 1_555
H25 C21 1_555 1_555
C22 N3 1_555 1_555
C23 C22 1_555 1_555
H26 C23 1_555 1_555
H27 C23 1_555 1_555
H28 C23 1_555 1_555
O2 C45 1_555 1_555
N4 C24 1_555 1_555
N5 C24 1_555 1_555
N6 H29 1_555 1_555
C24 N6 1_555 1_555
C25 N4 1_555 1_555
H30 C25 1_555 1_555
C26 N5 1_555 1_555
H31 C26 1_555 1_555
C27 N4 1_555 1_555
C28 C27 1_555 1_555
C29 C28 1_555 1_555
H32 C29 1_555 1_555
C30 C29 1_555 1_555
C31 C30 1_555 1_555
H33 C31 1_555 1_555
C32 C27 1_555 1_555
C33 C28 1_555 1_555
H34 C33 1_555 1_555
H35 C33 1_555 1_555
H36 C33 1_555 1_555
C34 C30 1_555 1_555
H37 C34 1_555 1_555
H38 C34 1_555 1_555
H39 C34 1_555 1_555
C35 C32 1_555 1_555
H40 C35 1_555 1_555
H41 C35 1_555 1_555
H42 C35 1_555 1_555
C36 N5 1_555 1_555
C37 C36 1_555 1_555
C38 C37 1_555 1_555
H43 C38 1_555 1_555
C39 C38 1_555 1_555
C40 C39 1_555 1_555
H44 C40 1_555 1_555
C41 C36 1_555 1_555
C42 C37 1_555 1_555
H45 C42 1_555 1_555
H46 C42 1_555 1_555
H47 C42 1_555 1_555
C43 C39 1_555 1_555
H48 C43 1_555 1_555
H49 C43 1_555 1_555
H50 C43 1_555 1_555
C44 C41 1_555 1_555
H51 C44 1_555 1_555
H52 C44 1_555 1_555
H53 C44 1_555 1_555
C45 N6 1_555 1_555
C46 C45 1_555 1_555
H54 C46 1_555 1_555
H55 C46 1_555 1_555
H56 C46 1_555 1_555
C2 C3 1_555 1_555
C8 C9 1_555 1_555
C17 C18 1_555 1_555
C25 C26 1_555 1_555
C31 C32 1_555 1_555
C40 C41 1_555 1_555

#END
