
#######################################################################
#
#                 Cambridge Crystallographic Data Centre
#                                CCDC 
#
#######################################################################
#
# If this CIF has been generated from an entry in the Cambridge 
# Structural Database, then it will include bibliographic, chemical, 
# crystal, experimental, refinement or atomic coordinate data resulting 
# from the CCDC's data processing and validation procedures.
#
#######################################################################

data_IFAZIA
_chemical_formula_moiety         'C40 H39 N4 O1 1+,B1 F4 1-,C1 H2 Cl2'
_chemical_name_systematic        
'1,3-Dimesityl-2-((trityloxy)diazenyl)-1H-imidazol-3-ium tetrafluoroborate dichloromethane solvate'
_symmetry_cell_setting           triclinic
_symmetry_space_group_name_H-M   'P -1'
_symmetry_Int_Tables_number      2
_space_group_name_Hall           '-P 1'
loop_
_symmetry_equiv_pos_site_id
_symmetry_equiv_pos_as_xyz
1 x,y,z
2 -x,-y,-z
_cell_length_a                   8.4745(11)
_cell_length_b                   15.689(2)
_cell_length_c                   15.702(3)
_cell_angle_alpha                79.949(13)
_cell_angle_beta                 80.705(13)
_cell_angle_gamma                89.136(13)
_cell_volume                     2028.47
_exptl_crystal_colour            yellow
_exptl_crystal_description       prismatic
_cell_formula_units_Z            2
loop_
_atom_site_label
_atom_site_type_symbol
_atom_site_fract_x
_atom_site_fract_y
_atom_site_fract_z
O1 O 0.34079(14) 0.39479(7) 0.27556(8)
N1 N 0.29084(17) 0.17002(9) 0.14226(9)
N2 N 0.34207(17) 0.12789(9) 0.27503(9)
N3 N 0.29869(17) 0.28547(9) 0.22014(9)
N4 N 0.36787(16) 0.30852(9) 0.27763(9)
C1 C 0.31463(19) 0.19786(10) 0.21573(10)
C2 C 0.3043(2) 0.08100(11) 0.15466(12)
H1 H 0.2940 0.0449 0.1131
C3 C 0.3349(2) 0.05489(11) 0.23713(12)
H2 H 0.3489 -0.0032 0.2642
C4 C 0.2471(2) 0.22357(10) 0.06440(10)
C5 C 0.3675(2) 0.26279(11) -0.00149(11)
C6 C 0.3196(2) 0.31014(12) -0.07699(11)
H3 H 0.3985 0.3387 -0.1225
C7 C 0.1590(2) 0.31657(11) -0.08722(11)
C8 C 0.0434(2) 0.27627(12) -0.01885(12)
H4 H -0.0661 0.2807 -0.0253
C9 C 0.0839(2) 0.22972(11) 0.05872(11)
C10 C 0.5425(2) 0.25358(15) 0.00706(13)
H5 H 0.5627 0.2785 0.0574
H6 H 0.6080 0.2842 -0.0464
H7 H 0.5701 0.1921 0.0157
C11 C 0.1113(2) 0.36396(13) -0.17114(12)
H8 H 0.1021 0.3228 -0.2104
H9 H 0.1926 0.4081 -0.1996
H10 H 0.0081 0.3918 -0.1580
C12 C -0.0416(2) 0.18895(14) 0.13362(13)
H11 H -0.1477 0.1975 0.1165
H12 H -0.0370 0.2160 0.1849
H13 H -0.0217 0.1268 0.1481
C13 C 0.36267(19) 0.12276(10) 0.36579(10)
C14 C 0.22731(19) 0.10280(10) 0.43057(11)
C15 C 0.2498(2) 0.09308(10) 0.51774(11)
H14 H 0.1609 0.0781 0.5630
C16 C 0.4005(2) 0.10483(10) 0.54000(11)
C17 C 0.5315(2) 0.12385(11) 0.47338(11)
H15 H 0.6340 0.1312 0.4885
C18 C 0.51630(19) 0.13249(10) 0.38481(11)
C19 C 0.0622(2) 0.09573(12) 0.40672(12)
H16 H -0.0169 0.0838 0.4603
H17 H 0.0602 0.0485 0.3734
H18 H 0.0367 0.1503 0.3710
C20 C 0.4178(2) 0.09894(12) 0.63528(12)
H19 H 0.5264 0.1168 0.6391
H20 H 0.3978 0.0391 0.6658
H21 H 0.3404 0.1371 0.6626
C21 C 0.6587(2) 0.15322(12) 0.31344(12)
H22 H 0.6609 0.2153 0.2893
H23 H 0.6510 0.1200 0.2668
H24 H 0.7570 0.1379 0.3377
C22 C 0.41121(18) 0.42939(10) 0.34494(10)
C23 C 0.29665(18) 0.40509(10) 0.43208(10)
C24 C 0.2556(2) 0.31781(11) 0.46610(11)
H25 H 0.3014 0.2738 0.4357
C25 C 0.1487(2) 0.29530(12) 0.54381(11)
H26 H 0.1201 0.2363 0.5654
C26 C 0.0835(2) 0.35908(12) 0.58995(11)
H27 H 0.0104 0.3437 0.6429
C27 C 0.1258(2) 0.44520(11) 0.55829(11)
H28 H 0.0833 0.4887 0.5903
C28 C 0.2308(2) 0.46816(11) 0.47939(11)
H29 H 0.2577 0.5274 0.4577
C29 C 0.58133(19) 0.39515(10) 0.34608(11)
C30 C 0.6339(2) 0.35638(11) 0.42327(12)
H30 H 0.5615 0.3472 0.4770
C31 C 0.7943(2) 0.33080(12) 0.42171(14)
H31 H 0.8296 0.3042 0.4743
C32 C 0.9005(2) 0.34432(13) 0.34379(16)
H32 H 1.0087 0.3275 0.3431
C33 C 0.8491(2) 0.38252(13) 0.26639(15)
H33 H 0.9221 0.3914 0.2129
C34 C 0.6902(2) 0.40789(11) 0.26736(13)
H34 H 0.6556 0.4340 0.2144
C35 C 0.41248(19) 0.52749(10) 0.31282(10)
C36 C 0.5235(2) 0.57935(11) 0.33775(11)
H35 H 0.6056 0.5530 0.3675
C37 C 0.5150(2) 0.66946(11) 0.31940(12)
H36 H 0.5912 0.7040 0.3367
C38 C 0.3952(2) 0.70905(11) 0.27574(12)
H37 H 0.3881 0.7704 0.2643
C39 C 0.2859(2) 0.65784(11) 0.24909(11)
H38 H 0.2061 0.6845 0.2177
C40 C 0.2928(2) 0.56771(11) 0.26819(11)
H39 H 0.2162 0.5334 0.2510
B1 B -0.0663(3) 0.11166(14) 0.73720(14)
F1 F -0.19645(15) 0.11014(8) 0.80400(8)
F2 F -0.12065(16) 0.12099(9) 0.65662(8)
F3 F 0.01599(14) 0.03279(8) 0.74982(9)
F4 F 0.03746(16) 0.17943(8) 0.73740(9)
C41 C -0.2201(3) -0.05815(15) 1.09825(14)
H40 H -0.1538 -0.1046 1.0761
H41 H -0.1788 -0.0447 1.1499
Cl1 Cl -0.42083(7) -0.09454(4) 1.12951(4)
Cl2 Cl -0.20535(7) 0.03598(4) 1.01527(4)
loop_
_geom_bond_atom_site_label_1
_geom_bond_atom_site_label_2
_geom_bond_site_symmetry_1
_geom_bond_site_symmetry_2
O1 N4 1_555 1_555
N1 C1 1_555 1_555
N2 C1 1_555 1_555
N3 N4 1_555 1_555
C1 N3 1_555 1_555
C2 N1 1_555 1_555
H1 C2 1_555 1_555
C3 N2 1_555 1_555
H2 C3 1_555 1_555
C4 N1 1_555 1_555
C5 C4 1_555 1_555
C6 C5 1_555 1_555
H3 C6 1_555 1_555
C7 C6 1_555 1_555
C8 C7 1_555 1_555
H4 C8 1_555 1_555
C9 C4 1_555 1_555
C10 C5 1_555 1_555
H5 C10 1_555 1_555
H6 C10 1_555 1_555
H7 C10 1_555 1_555
C11 C7 1_555 1_555
H8 C11 1_555 1_555
H9 C11 1_555 1_555
H10 C11 1_555 1_555
C12 C9 1_555 1_555
H11 C12 1_555 1_555
H12 C12 1_555 1_555
H13 C12 1_555 1_555
C13 N2 1_555 1_555
C14 C13 1_555 1_555
C15 C14 1_555 1_555
H14 C15 1_555 1_555
C16 C15 1_555 1_555
C17 C16 1_555 1_555
H15 C17 1_555 1_555
C18 C13 1_555 1_555
C19 C14 1_555 1_555
H16 C19 1_555 1_555
H17 C19 1_555 1_555
H18 C19 1_555 1_555
C20 C16 1_555 1_555
H19 C20 1_555 1_555
H20 C20 1_555 1_555
H21 C20 1_555 1_555
C21 C18 1_555 1_555
H22 C21 1_555 1_555
H23 C21 1_555 1_555
H24 C21 1_555 1_555
C22 O1 1_555 1_555
C23 C22 1_555 1_555
C24 C23 1_555 1_555
H25 C24 1_555 1_555
C25 C24 1_555 1_555
H26 C25 1_555 1_555
C26 C25 1_555 1_555
H27 C26 1_555 1_555
C27 C26 1_555 1_555
H28 C27 1_555 1_555
C28 C23 1_555 1_555
H29 C28 1_555 1_555
C29 C22 1_555 1_555
C30 C29 1_555 1_555
H30 C30 1_555 1_555
C31 C30 1_555 1_555
H31 C31 1_555 1_555
C32 C31 1_555 1_555
H32 C32 1_555 1_555
C33 C32 1_555 1_555
H33 C33 1_555 1_555
C34 C29 1_555 1_555
H34 C34 1_555 1_555
C35 C22 1_555 1_555
C36 C35 1_555 1_555
H35 C36 1_555 1_555
C37 C36 1_555 1_555
H36 C37 1_555 1_555
C38 C37 1_555 1_555
H37 C38 1_555 1_555
C39 C38 1_555 1_555
H38 C39 1_555 1_555
C40 C35 1_555 1_555
H39 C40 1_555 1_555
B1 F1 1_555 1_555
F2 B1 1_555 1_555
F3 B1 1_555 1_555
F4 B1 1_555 1_555
C41 H40 1_555 1_555
H41 C41 1_555 1_555
Cl1 C41 1_555 1_555
Cl2 C41 1_555 1_555
C2 C3 1_555 1_555
C8 C9 1_555 1_555
C17 C18 1_555 1_555
C27 C28 1_555 1_555
C33 C34 1_555 1_555
C39 C40 1_555 1_555

#END
