
#######################################################################
#
#                 Cambridge Crystallographic Data Centre
#                                CCDC 
#
#######################################################################
#
# If this CIF has been generated from an entry in the Cambridge 
# Structural Database, then it will include bibliographic, chemical, 
# crystal, experimental, refinement or atomic coordinate data resulting 
# from the CCDC's data processing and validation procedures.
#
#######################################################################

data_IFELEK
_chemical_formula_moiety         'C22 H20 N2'
_chemical_name_systematic        2-Cyano-3,4-diethyl-5,6-diphenylpyridine
_symmetry_cell_setting           monoclinic
_symmetry_space_group_name_H-M   'P 21/n'
_symmetry_Int_Tables_number      14
_space_group_name_Hall           '-P 2yn'
loop_
_symmetry_equiv_pos_site_id
_symmetry_equiv_pos_as_xyz
1 x,y,z
2 1/2-x,1/2+y,1/2-z
3 -x,-y,-z
4 1/2+x,1/2-y,1/2+z
_cell_length_a                   9.845(1)
_cell_length_b                   15.8651(7)
_cell_length_c                   11.185(2)
_cell_angle_alpha                90
_cell_angle_beta                 92.19(1)
_cell_angle_gamma                90
_cell_volume                     1745.73
_exptl_crystal_colour            colorless
_exptl_crystal_description       prism
_cell_formula_units_Z            4
loop_
_atom_site_label
_atom_site_type_symbol
_atom_site_fract_x
_atom_site_fract_y
_atom_site_fract_z
N1 N 0.7015(2) 0.0421(1) 0.1173(1)
N2 N 0.7324(2) -0.0530(2) 0.3856(2)
C1 C 0.6330(2) 0.0446(1) 0.2185(2)
C2 C 0.5199(2) 0.0940(1) 0.2389(2)
C3 C 0.4747(2) 0.1464(1) 0.1446(2)
C4 C 0.5484(2) 0.1482(1) 0.0393(2)
C5 C 0.6605(2) 0.0940(1) 0.0288(2)
C6 C 0.6885(2) -0.0101(1) 0.3122(2)
C7 C 0.4571(2) 0.0945(2) 0.3600(2)
C8 C 0.5178(4) 0.1638(2) 0.4402(3)
C9 C 0.3484(2) 0.1990(1) 0.1550(2)
C10 C 0.2219(3) 0.1502(2) 0.1112(3)
C11 C 0.5131(2) 0.2142(1) -0.0518(2)
C12 C 0.5811(2) 0.2909(1) -0.0423(2)
C13 C 0.5454(3) 0.3580(2) -0.1159(2)
C14 C 0.4432(3) 0.3489(2) -0.2009(2)
C15 C 0.3757(3) 0.2732(2) -0.2139(2)
C16 C 0.4100(2) 0.2050(2) -0.1383(2)
C17 C 0.7471(2) 0.0914(1) -0.0779(2)
C18 C 0.6931(2) 0.0890(1) -0.1949(2)
C19 C 0.7775(3) 0.0818(1) -0.2905(2)
C20 C 0.9168(3) 0.0778(1) -0.2717(2)
C21 C 0.9717(3) 0.0798(2) -0.1563(2)
C22 C 0.8875(2) 0.0864(1) -0.0604(2)
H1 H 0.469(3) 0.029(2) 0.403(3)
H2 H 0.354(3) 0.098(2) 0.347(3)
H3 H 0.624(4) 0.160(2) 0.450(3)
H4 H 0.338(3) 0.218(2) 0.242(2)
H5 H 0.364(2) 0.254(2) 0.107(2)
H6 H 0.206(4) 0.097(3) 0.168(3)
H7 H 0.660(3) 0.297(2) 0.023(3)
H8 H 0.603(3) 0.418(2) -0.109(3)
H9 H 0.414(3) 0.398(2) -0.250(3)
H10 H 0.302(4) 0.268(2) -0.271(3)
H11 H 0.363(2) 0.156(2) -0.141(2)
H12 H 0.595(3) 0.094(2) -0.209(2)
H13 H 0.726(3) 0.080(2) -0.373(2)
H14 H 0.979(3) 0.071(2) -0.338(3)
H15 H 1.071(3) 0.073(2) -0.144(2)
H16 H 0.929(3) 0.090(2) 0.018(3)
H17 H 0.505(4) 0.217(3) 0.400(4)
H18 H 0.479(3) 0.162(2) 0.518(3)
H19 H 0.146(3) 0.186(2) 0.110(3)
H20 H 0.234(3) 0.135(2) 0.027(3)
loop_
_geom_bond_atom_site_label_1
_geom_bond_atom_site_label_2
_geom_bond_site_symmetry_1
_geom_bond_site_symmetry_2
N1 C1 1_555 1_555
N2 C6 1_555 1_555
C1 C2 1_555 1_555
C2 C3 1_555 1_555
C3 C4 1_555 1_555
C4 C5 1_555 1_555
C5 N1 1_555 1_555
C6 C1 1_555 1_555
C7 C2 1_555 1_555
C8 C7 1_555 1_555
C9 C3 1_555 1_555
C10 C9 1_555 1_555
C11 C4 1_555 1_555
C12 C11 1_555 1_555
C13 C12 1_555 1_555
C14 C13 1_555 1_555
C15 C14 1_555 1_555
C16 C11 1_555 1_555
C17 C5 1_555 1_555
C18 C17 1_555 1_555
C19 C18 1_555 1_555
C20 C19 1_555 1_555
C21 C20 1_555 1_555
C22 C17 1_555 1_555
H1 C7 1_555 1_555
H2 C7 1_555 1_555
H3 C8 1_555 1_555
H4 C9 1_555 1_555
H5 C9 1_555 1_555
H6 C10 1_555 1_555
H7 C12 1_555 1_555
H8 C13 1_555 1_555
H9 C14 1_555 1_555
H10 C15 1_555 1_555
H11 C16 1_555 1_555
H12 C18 1_555 1_555
H13 C19 1_555 1_555
H14 C20 1_555 1_555
H15 C21 1_555 1_555
H16 C22 1_555 1_555
H17 C8 1_555 1_555
H18 C8 1_555 1_555
H19 C10 1_555 1_555
H20 C10 1_555 1_555
C15 C16 1_555 1_555
C21 C22 1_555 1_555

#END
