
#######################################################################
#
#                 Cambridge Crystallographic Data Centre
#                                CCDC 
#
#######################################################################
#
# If this CIF has been generated from an entry in the Cambridge 
# Structural Database, then it will include bibliographic, chemical, 
# crystal, experimental, refinement or atomic coordinate data resulting 
# from the CCDC's data processing and validation procedures.
#
#######################################################################

data_IFELIO
_chemical_formula_moiety         'C16 H24 N2 O4'
_chemical_name_systematic        
2,5-Diethyl-3,4-bis(methoxycarbonyl)-3,4-diazabicyclo(4.4.0)dec-1,5-diene
_symmetry_cell_setting           monoclinic
_symmetry_space_group_name_H-M   'P 21/n'
_symmetry_Int_Tables_number      14
_space_group_name_Hall           '-P 2yn'
loop_
_symmetry_equiv_pos_site_id
_symmetry_equiv_pos_as_xyz
1 x,y,z
2 1/2-x,1/2+y,1/2-z
3 -x,-y,-z
4 1/2+x,1/2-y,1/2+z
_cell_length_a                   8.9250(8)
_cell_length_b                   23.972(2)
_cell_length_c                   8.6109(6)
_cell_angle_alpha                90
_cell_angle_beta                 113.382(6)
_cell_angle_gamma                90
_cell_volume                     1691.01
_exptl_crystal_colour            colorless
_exptl_crystal_description       prism
_cell_formula_units_Z            4
loop_
_atom_site_label
_atom_site_type_symbol
_atom_site_fract_x
_atom_site_fract_y
_atom_site_fract_z
O1 O 0.9865(2) 0.16024(6) -0.1631(2)
O2 O 1.0077(2) 0.19327(6) 0.0901(2)
O3 O 0.5900(2) 0.16933(6) 0.2008(2)
O4 O 0.6197(2) 0.21629(5) -0.0112(2)
N1 N 0.7934(2) 0.14003(6) -0.0629(2)
N2 N 0.7602(2) 0.13759(5) 0.0830(2)
C1 C 0.7157(2) 0.09636(7) -0.1827(2)
C2 C 0.7052(2) 0.04647(7) -0.1165(2)
C3 C 0.6147(3) -0.00279(9) -0.2235(3)
C4 C 0.6882(4) -0.05879(10) -0.1462(4)
C5 C 0.7067(3) -0.06257(9) 0.0347(3)
C6 C 0.8242(3) -0.01811(8) 0.1393(3)
C7 C 0.7764(2) 0.03976(7) 0.0684(2)
C8 C 0.7962(2) 0.08478(7) 0.1675(2)
C9 C 0.6397(3) 0.1141(1) -0.3648(3)
C10 C 0.4744(4) 0.1395(2) -0.4102(4)
C11 C 0.9370(2) 0.16412(7) -0.0519(2)
C12 C 1.1598(4) 0.2199(1) 0.1108(5)
C13 C 0.8690(3) 0.08694(10) 0.3579(2)
C14 C 1.0526(3) 0.0903(1) 0.4299(3)
C15 C 0.6482(5) 0.17437(7) 0.0980(2)
C16 C 0.5038(6) 0.2573(2) -0.0060(7)
H1 H 0.618(3) 0.000(1) -0.334(3)
H2 H 0.490(3) -0.0027(10) -0.237(3)
H3 H 0.810(3) -0.060(1) -0.141(3)
H4 H 0.618(3) -0.088(1) -0.214(3)
H5 H 0.752(3) -0.098(1) 0.086(3)
H6 H 0.596(3) -0.0568(10) 0.041(3)
H7 H 0.943(3) -0.028(1) 0.146(3)
H8 H 0.833(3) -0.019(1) 0.259(3)
H9 H 0.704(3) 0.145(1) -0.392(3)
H10 H 0.631(3) 0.078(1) -0.440(3)
H11 H 0.477(3) 0.167(1) -0.334(3)
H12 H 0.426(4) 0.150(1) -0.528(5)
H13 H 0.409(5) 0.107(1) -0.390(4)
H14 H 1.186(4) 0.246(2) 0.200(4)
H15 H 1.135(4) 0.246(1) 0.020(4)
H16 H 1.245(4) 0.190(2) 0.102(4)
H17 H 0.828(3) 0.123(1) 0.403(3)
H18 H 0.828(3) 0.0542(10) 0.397(3)
H19 H 1.102(3) 0.098(1) 0.560(4)
H20 H 1.084(3) 0.121(1) 0.372(3)
H21 H 1.102(3) 0.054(1) 0.405(3)
H22 H 0.534(4) 0.266(1) 0.114(4)
H23 H 0.490(6) 0.283(2) -0.091(5)
H24 H 0.380(7) 0.236(2) -0.076(7)
loop_
_geom_bond_atom_site_label_1
_geom_bond_atom_site_label_2
_geom_bond_site_symmetry_1
_geom_bond_site_symmetry_2
O1 C11 1_555 1_555
O2 C11 1_555 1_555
O3 C15 1_555 1_555
O4 C15 1_555 1_555
N1 N2 1_555 1_555
N2 C8 1_555 1_555
C1 N1 1_555 1_555
C2 C1 1_555 1_555
C3 C2 1_555 1_555
C4 C3 1_555 1_555
C5 C4 1_555 1_555
C6 C5 1_555 1_555
C7 C2 1_555 1_555
C8 C7 1_555 1_555
C9 C1 1_555 1_555
C10 C9 1_555 1_555
C11 N1 1_555 1_555
C12 O2 1_555 1_555
C13 C8 1_555 1_555
C14 C13 1_555 1_555
C15 N2 1_555 1_555
C16 O4 1_555 1_555
H1 C3 1_555 1_555
H2 C3 1_555 1_555
H3 C4 1_555 1_555
H4 C4 1_555 1_555
H5 C5 1_555 1_555
H6 C5 1_555 1_555
H7 C6 1_555 1_555
H8 C6 1_555 1_555
H9 C9 1_555 1_555
H10 C9 1_555 1_555
H11 C10 1_555 1_555
H12 C10 1_555 1_555
H13 C10 1_555 1_555
H14 C12 1_555 1_555
H15 C12 1_555 1_555
H16 C12 1_555 1_555
H17 C13 1_555 1_555
H18 C13 1_555 1_555
H19 C14 1_555 1_555
H20 C14 1_555 1_555
H21 C14 1_555 1_555
H22 C16 1_555 1_555
H23 C16 1_555 1_555
H24 C16 1_555 1_555
C6 C7 1_555 1_555

#END
