
#######################################################################
#
#                 Cambridge Crystallographic Data Centre
#                                CCDC 
#
#######################################################################
#
# If this CIF has been generated from an entry in the Cambridge 
# Structural Database, then it will include bibliographic, chemical, 
# crystal, experimental, refinement or atomic coordinate data resulting 
# from the CCDC's data processing and validation procedures.
#
#######################################################################

data_IFEMIS
_chemical_formula_moiety         'C12 H16 N2 O2'
_chemical_name_systematic        2-(acetylamino)-N-(propan-2-yl)benzamide
_symmetry_cell_setting           monoclinic
_symmetry_space_group_name_H-M   'P 21/c'
_symmetry_Int_Tables_number      14
_space_group_name_Hall           '-P 2ybc'
loop_
_symmetry_equiv_pos_site_id
_symmetry_equiv_pos_as_xyz
1 x,y,z
2 -x,1/2+y,1/2-z
3 -x,-y,-z
4 x,1/2-y,1/2+z
_cell_length_a                   12.0574(11)
_cell_length_b                   4.9852(5)
_cell_length_c                   20.3920(18)
_cell_angle_alpha                90
_cell_angle_beta                 96.1010(10)
_cell_angle_gamma                90
_cell_volume                     1218.79
_cell_formula_units_Z            4
loop_
_atom_site_label
_atom_site_type_symbol
_atom_site_fract_x
_atom_site_fract_y
_atom_site_fract_z
N1 N 0.2642(3) 0.1206(5) 0.53602(13)
H1 H 0.2811 0.2829 0.5268
N2 N 0.2300(2) -0.3023(5) 0.36678(13)
H2 H 0.2197 -0.3847 0.4027
O1 O 0.2599(2) -0.3072(4) 0.50245(10)
O2 O 0.1714(3) -0.2874(5) 0.25732(14)
C1 C 0.2851(3) -0.0692(6) 0.49406(16)
C2 C 0.3395(3) 0.0150(6) 0.43517(15)
C3 C 0.3111(3) -0.0991(6) 0.37293(16)
C4 C 0.3637(3) -0.0120(7) 0.31955(17)
H3 H 0.3444 -0.0857 0.2780
C5 C 0.4451(4) 0.1853(8) 0.3281(2)
H4 H 0.4797 0.2441 0.2921
C6 C 0.4751(4) 0.2939(7) 0.3888(2)
H5 H 0.5305 0.4242 0.3943
C7 C 0.4232(3) 0.2103(6) 0.44130(18)
H6 H 0.4441 0.2854 0.4825
C8 C 0.1650(3) -0.3877(7) 0.3113(2)
C9 C 0.0911(3) -0.6176(7) 0.3218(2)
H7 H 0.0158 -0.5737 0.3051
H8 H 0.0946 -0.6564 0.3680
H9 H 0.1151 -0.7719 0.2988
C10 C 0.2145(4) 0.0731(7) 0.59704(18)
H10 H 0.2126 -0.1203 0.6055
C11 C 0.279(3) 0.233(7) 0.6525(11)
H11 H 0.3568 0.1831 0.6558
H12 H 0.2501 0.1951 0.6935
H13 H 0.2723 0.4213 0.6431
C12 C 0.092(2) 0.169(7) 0.5868(13)
H14 H 0.0903 0.3567 0.5764
H15 H 0.0576 0.1390 0.6264
H16 H 0.0529 0.0703 0.5511
H17? H 0.2432 -0.1007 0.6137
C13? C 0.252(5) 0.277(11) 0.650(2)
H18? H 0.3318 0.2904 0.6547
H19? H 0.2277 0.2203 0.6914
H20? H 0.2199 0.4486 0.6383
C14? C 0.089(3) 0.044(7) 0.5862(17)
H21? H 0.0578 0.1985 0.5631
H22? H 0.0601 0.0292 0.6280
H23? H 0.0706 -0.1141 0.5605
loop_
_geom_bond_atom_site_label_1
_geom_bond_atom_site_label_2
_geom_bond_site_symmetry_1
_geom_bond_site_symmetry_2
N1 H1 1_555 1_555
N2 H2 1_555 1_555
O1 C1 1_555 1_555
O2 C8 1_555 1_555
C1 N1 1_555 1_555
C2 C1 1_555 1_555
C3 N2 1_555 1_555
C4 C3 1_555 1_555
H3 C4 1_555 1_555
C5 C4 1_555 1_555
H4 C5 1_555 1_555
C6 C5 1_555 1_555
H5 C6 1_555 1_555
C7 C2 1_555 1_555
H6 C7 1_555 1_555
C8 N2 1_555 1_555
C9 C8 1_555 1_555
H7 C9 1_555 1_555
H8 C9 1_555 1_555
H9 C9 1_555 1_555
C10 N1 1_555 1_555
H10 C10 1_555 1_555
C11 C10 1_555 1_555
H11 C11 1_555 1_555
H12 C11 1_555 1_555
H13 C11 1_555 1_555
C12 C10 1_555 1_555
H14 C12 1_555 1_555
H15 C12 1_555 1_555
H16 C12 1_555 1_555
C2 C3 1_555 1_555
C6 C7 1_555 1_555

#END
