
#######################################################################
#
#                 Cambridge Crystallographic Data Centre
#                                CCDC 
#
#######################################################################
#
# If this CIF has been generated from an entry in the Cambridge 
# Structural Database, then it will include bibliographic, chemical, 
# crystal, experimental, refinement or atomic coordinate data resulting 
# from the CCDC's data processing and validation procedures.
#
#######################################################################

data_IFEMAJ
_chemical_name_common            
'cyclo[2](2,6-bis(1H-Imidazol-1-yl)pyridine)[2](2,6-dimethylenepyridinyl) bis(naphthalene-2,6-dicarboxylate) hydrate'
_chemical_formula_moiety         'C36 H32 N12 4+,2(C12 H6 O4 2-),13.5(H2 O1)'
_chemical_name_systematic        
'1,4,7,10(2,6)-Tetrapyridina-2,6,8,12(1,3)-tetraimidazolacyclododecaphane-2^3^,6^1^,8^3^,12^1^-tetra-ium bis(naphthalene-2,6-dicarboxylate) hydrate'
_symmetry_cell_setting           triclinic
_symmetry_space_group_name_H-M   'P -1'
_symmetry_Int_Tables_number      2
_space_group_name_Hall           '-P 1'
loop_
_symmetry_equiv_pos_site_id
_symmetry_equiv_pos_as_xyz
1 x,y,z
2 -x,-y,-z
_cell_length_a                   10.691(2)
_cell_length_b                   14.041(3)
_cell_length_c                   21.172(4)
_cell_angle_alpha                85.12(3)
_cell_angle_beta                 86.40(3)
_cell_angle_gamma                84.79(3)
_cell_volume                     3148.71
_exptl_crystal_colour            colorless
_exptl_crystal_description       block
_cell_formula_units_Z            2
loop_
_atom_site_label
_atom_site_type_symbol
_atom_site_fract_x
_atom_site_fract_y
_atom_site_fract_z
O1 O 0.2416(3) 0.3309(2) 0.36970(15)
O2 O 0.4425(3) 0.2734(2) 0.35980(16)
C1 C 0.3559(5) 0.3289(3) 0.3836(2)
C2 C 0.3243(5) 0.5203(4) 0.5034(2)
H1 H 0.2604 0.5580 0.5235
C3 C 0.2947(5) 0.4562(4) 0.4621(2)
H2 H 0.2109 0.4516 0.4545
C4 C 0.3897(5) 0.3973(3) 0.4310(2)
C5 C 0.5134(5) 0.4050(3) 0.4422(2)
H3 H 0.5759 0.3664 0.4217
C6 C 0.5486(5) 0.4709(3) 0.4846(2)
O1A O 0.7584(3) 0.6691(2) 0.63030(15)
O2A O 0.5575(3) 0.7266(2) 0.64020(16)
C1A C 0.6441(5) 0.6711(3) 0.6164(2)
C2A C 0.6757(5) 0.4797(4) 0.4966(2)
H1A H 0.7396 0.4420 0.4765
C3A C 0.7053(5) 0.5438(4) 0.5379(2)
H2A H 0.7891 0.5484 0.5455
C4A C 0.6103(5) 0.6027(3) 0.5690(2)
C5A C 0.4866(5) 0.5950(3) 0.5578(2)
H3A H 0.4241 0.6336 0.5783
C6A C 0.4514(5) 0.5291(3) 0.5154(2)
O3 O -0.4231(8) 0.5544(7) -0.0041(4)
O5 O -0.0810(8) 0.6650(5) 0.2232(4)
O7 O -0.1560(5) 0.3686(3) -0.0151(2)
O8 O -0.1940(4) 0.5015(3) 0.0373(2)
O9 O 0.0585(3) -0.0517(2) 0.32810(15)
O10 O 0.0202(3) 0.0783(2) 0.38251(14)
C7 C -0.1569(5) 0.4133(4) 0.0343(3)
C8 C -0.1141(5) 0.3574(4) 0.0953(2)
C9 C -0.0909(5) 0.2598(4) 0.0968(2)
H4 H -0.0973 0.2289 0.0602
C10 C -0.0566(4) 0.2042(3) 0.1545(2)
C11 C -0.0349(4) 0.1028(3) 0.1567(2)
H5 H -0.0402 0.0716 0.1200
C12 C -0.0061(4) 0.0504(3) 0.2123(2)
H6 H 0.0078 -0.0160 0.2132
C13 C 0.0026(4) 0.0975(3) 0.2693(2)
C14 C -0.0149(4) 0.1950(3) 0.2673(2)
H7 H -0.0078 0.2253 0.3042
C15 C -0.0443(4) 0.2528(3) 0.2095(2)
C16 C -0.0637(5) 0.3534(3) 0.2064(2)
H8 H -0.0530 0.3855 0.2421
C17 C -0.0982(5) 0.4049(4) 0.1512(2)
H9 H -0.1114 0.4714 0.1501
C18 C 0.0289(4) 0.0368(3) 0.3310(2)
O11 O -0.5055(10) 0.3075(7) -0.1364(6)
O13 O 0.0918(7) 0.0108(6) 0.5045(3)
O14 O -0.3941(8) 0.3398(6) -0.0615(4)
O15 O 0.6337(7) 0.8246(6) 0.0738(3)
O16 O 0.0026(4) 0.3727(3) 0.4184(3)
O17 O 0.2744(3) 0.8092(2) 0.14927(15)
O18 O 0.3804(3) 0.9184(2) 0.08954(14)
C19 C 0.2816(5) 0.8767(3) 0.1053(2)
C20 C 0.0513(4) 0.8642(3) 0.0839(2)
H10 H 0.0500 0.8117 0.1138
C21 C 0.1637(4) 0.9107(3) 0.0702(2)
C22 C 0.1658(4) 0.9878(3) 0.02542(19)
H11 H 0.2400 1.0172 0.0161
C23 C 0.0565(4) 1.0230(3) -0.00674(19)
C24 C 0.0560(4) 1.1031(3) -0.0529(2)
H12 H 0.1292 1.1339 -0.0623
O17A O -0.2744(3) 1.1908(2) -0.14927(15)
O18A O -0.3804(3) 1.0816(2) -0.08954(14)
C19A C -0.2816(5) 1.1233(3) -0.1053(2)
C20A C -0.0513(4) 1.1358(3) -0.0839(2)
H10A H -0.0500 1.1883 -0.1138
C21A C -0.1637(4) 1.0893(3) -0.0702(2)
C22A C -0.1658(4) 1.0122(3) -0.02542(19)
H11A H -0.2400 0.9828 -0.0161
C23A C -0.0565(4) 0.9770(3) 0.00674(19)
C24A C -0.0560(4) 0.8969(3) 0.0529(2)
H12A H -0.1292 0.8661 0.0623
O19 O 0.1190(4) 0.8104(3) 0.42321(17)
O20 O 0.6889(3) 0.2125(3) 0.34478(16)
O21 O -0.0916(5) 0.5476(4) 0.3588(4)
O22 O -0.0920(5) 0.6541(3) 0.0726(3)
O23 O -0.0588(7) 0.6809(5) 0.4443(4)
O24 O 0.7586(7) 0.6753(6) 0.1716(4)
O25 O 0.8627(3) 0.2138(3) 0.43923(17)
O26 O 0.0949(3) 0.7988(2) 0.25014(16)
N1 N 0.2088(4) 0.5393(3) 0.2465(2)
N2 N 0.2267(4) 0.4310(3) 0.17907(17)
N3 N 0.2759(3) 0.2675(3) 0.19887(16)
N4 N 0.3207(3) 0.1059(3) 0.23025(16)
N5 N 0.3309(4) 0.0382(3) 0.32536(16)
N6 N 0.5416(4) -0.0322(3) 0.39100(17)
N7 N 0.7488(4) -0.0610(3) 0.31006(19)
N8 N 0.6873(4) 0.0020(3) 0.21903(18)
N9 N 0.6326(4) 0.1622(3) 0.18936(18)
N10 N 0.5896(4) 0.3261(3) 0.16805(19)
N11 N 0.6169(4) 0.4393(3) 0.2274(2)
N12 N 0.4384(4) 0.5446(3) 0.29484(17)
C25 C 0.2258(4) 0.4451(3) 0.2409(2)
H13 H 0.2355 0.3976 0.2741
C26 C 0.2031(6) 0.5872(4) 0.1863(3)
H14 H 0.1944 0.6533 0.1769
C27 C 0.2124(5) 0.5192(4) 0.1438(3)
H15 H 0.2098 0.5296 0.0999
C28 C 0.2424(4) 0.3375(3) 0.1550(2)
C29 C 0.2249(5) 0.3246(3) 0.0923(2)
H16 H 0.2009 0.3758 0.0636
C30 C 0.2449(5) 0.2316(4) 0.0742(2)
H17 H 0.2357 0.2197 0.0323
C31 C 0.2787(4) 0.1557(3) 0.1185(2)
H18 H 0.2920 0.0927 0.1075
C32 C 0.2915(4) 0.1791(3) 0.1797(2)
C33 C 0.3101(4) 0.1220(3) 0.29186(19)
H19 H 0.2914 0.1813 0.3083
C34 C 0.3502(4) 0.0081(3) 0.2241(2)
H20 H 0.3630 -0.0220 0.1865
C35 C 0.3565(4) -0.0339(3) 0.2837(2)
H21 H 0.3746 -0.0990 0.2950
C36 C 0.3192(4) 0.0241(4) 0.39527(19)
H22 H 0.2417 -0.0049 0.4081
H23 H 0.3145 0.0861 0.4128
C37 C 0.4285(4) -0.0388(3) 0.42189(19)
C38 C 0.4113(5) -0.0985(3) 0.4769(2)
H24 H 0.3317 -0.1022 0.4968
C39 C 0.5149(5) -0.1526(3) 0.5017(2)
H25 H 0.5058 -0.1916 0.5391
C40 C 0.6322(5) -0.1478(3) 0.4698(2)
H26 H 0.7025 -0.1846 0.4848
C41 C 0.6412(4) -0.0864(3) 0.4149(2)
C42 C 0.7667(5) -0.0725(4) 0.3786(2)
H27 H 0.8011 -0.0161 0.3916
H28 H 0.8259 -0.1276 0.3882
C43 C 0.7102(4) 0.0211(4) 0.2787(2)
H29 H 0.7007 0.0811 0.2948
C44 C 0.7524(5) -0.1354(4) 0.2707(3)
H30 H 0.7756 -0.1999 0.2815
C45 C 0.7152(5) -0.0955(4) 0.2132(3)
H31 H 0.7097 -0.1275 0.1770
C46 C 0.6481(5) 0.0740(4) 0.1702(2)
C47 C 0.6291(5) 0.0500(5) 0.1095(2)
H32 H 0.6401 -0.0132 0.0987
C48 C 0.5925(5) 0.1255(5) 0.0653(2)
H33 H 0.5782 0.1131 0.0240
C49 C 0.5777(5) 0.2183(5) 0.0830(2)
H34 H 0.5546 0.2698 0.0542
C50 C 0.5987(5) 0.2318(4) 0.1454(2)
C51 C 0.6317(5) 0.3449(4) 0.2241(2)
H35 H 0.6650 0.3000 0.2548
C52 C 0.5475(5) 0.4121(4) 0.1353(3)
H36 H 0.5143 0.4193 0.0955
C53 C 0.5643(5) 0.4838(5) 0.1727(2)
H37 H 0.5445 0.5492 0.1636
C54 C 0.6594(5) 0.4897(4) 0.2795(3)
H38 H 0.7307 0.5247 0.2638
H39 H 0.6874 0.4428 0.3131
C55 C 0.5571(5) 0.5590(3) 0.3066(2)
C56 C 0.5870(5) 0.6302(4) 0.3430(2)
H40 H 0.6702 0.6374 0.3508
C57 C 0.4897(6) 0.6904(4) 0.3676(3)
H41 H 0.5070 0.7387 0.3924
C58 C 0.3668(5) 0.6787(4) 0.3554(3)
H42 H 0.3003 0.7190 0.3710
C59 C 0.3460(5) 0.6047(3) 0.3189(2)
C60 C 0.2125(5) 0.5842(4) 0.3073(2)
H43 H 0.1810 0.5416 0.3419
H44 H 0.1585 0.6436 0.3059
O4? O -0.4416(9) 0.5989(7) 0.0256(4)
O6? O -0.0828(7) 0.6665(6) 0.2697(4)
O12? O -0.5009(9) 0.2624(7) -0.1932(5)
loop_
_geom_bond_atom_site_label_1
_geom_bond_atom_site_label_2
_geom_bond_site_symmetry_1
_geom_bond_site_symmetry_2
O1 C1 1_555 1_555
O2 C1 1_555 1_555
C1 C4 1_555 1_555
C2 H1 1_555 1_555
C3 C2 1_555 1_555
H2 C3 1_555 1_555
C4 C3 1_555 1_555
C5 C4 1_555 1_555
H3 C5 1_555 1_555
C6 C5 1_555 1_555
O7 C7 1_555 1_555
O8 C7 1_555 1_555
O9 C18 1_555 1_555
O10 C18 1_555 1_555
C7 C8 1_555 1_555
C8 C9 1_555 1_555
C9 H4 1_555 1_555
C10 C9 1_555 1_555
C11 C10 1_555 1_555
H5 C11 1_555 1_555
C12 C11 1_555 1_555
H6 C12 1_555 1_555
C13 C12 1_555 1_555
C14 C13 1_555 1_555
H7 C14 1_555 1_555
C15 C10 1_555 1_555
C16 C15 1_555 1_555
H8 C16 1_555 1_555
C17 C8 1_555 1_555
H9 C17 1_555 1_555
C18 C13 1_555 1_555
O17 C19 1_555 1_555
O18 C19 1_555 1_555
C19 C21 1_555 1_555
C20 H10 1_555 1_555
C21 C20 1_555 1_555
C22 C21 1_555 1_555
H11 C22 1_555 1_555
C23 C22 1_555 1_555
C24 C23 1_555 1_555
H12 C24 1_555 1_555
N1 C25 1_555 1_555
N2 C25 1_555 1_555
N3 C28 1_555 1_555
N4 C32 1_555 1_555
N5 C33 1_555 1_555
N6 C37 1_555 1_555
N7 C42 1_555 1_555
N8 C43 1_555 1_555
N9 C46 1_555 1_555
N10 C50 1_555 1_555
N11 C51 1_555 1_555
N12 C55 1_555 1_555
C25 H13 1_555 1_555
C26 N1 1_555 1_555
H14 C26 1_555 1_555
C27 N2 1_555 1_555
H15 C27 1_555 1_555
C28 N2 1_555 1_555
C29 C28 1_555 1_555
H16 C29 1_555 1_555
C30 C29 1_555 1_555
H17 C30 1_555 1_555
C31 C30 1_555 1_555
H18 C31 1_555 1_555
C32 N3 1_555 1_555
C33 N4 1_555 1_555
H19 C33 1_555 1_555
C34 N4 1_555 1_555
H20 C34 1_555 1_555
C35 N5 1_555 1_555
H21 C35 1_555 1_555
C36 N5 1_555 1_555
H22 C36 1_555 1_555
H23 C36 1_555 1_555
C37 C36 1_555 1_555
C38 C37 1_555 1_555
H24 C38 1_555 1_555
C39 C38 1_555 1_555
H25 C39 1_555 1_555
C40 C39 1_555 1_555
H26 C40 1_555 1_555
C41 N6 1_555 1_555
C42 C41 1_555 1_555
H27 C42 1_555 1_555
H28 C42 1_555 1_555
C43 N7 1_555 1_555
H29 C43 1_555 1_555
C44 N7 1_555 1_555
H30 C44 1_555 1_555
C45 N8 1_555 1_555
H31 C45 1_555 1_555
C46 N8 1_555 1_555
C47 C46 1_555 1_555
H32 C47 1_555 1_555
C48 C47 1_555 1_555
H33 C48 1_555 1_555
C49 C48 1_555 1_555
H34 C49 1_555 1_555
C50 N9 1_555 1_555
C51 N10 1_555 1_555
H35 C51 1_555 1_555
C52 N10 1_555 1_555
H36 C52 1_555 1_555
C53 N11 1_555 1_555
H37 C53 1_555 1_555
C54 N11 1_555 1_555
H38 C54 1_555 1_555
H39 C54 1_555 1_555
C55 C54 1_555 1_555
C56 C55 1_555 1_555
H40 C56 1_555 1_555
C57 C56 1_555 1_555
H41 C57 1_555 1_555
C58 C57 1_555 1_555
H42 C58 1_555 1_555
C59 N12 1_555 1_555
C60 N1 1_555 1_555
H43 C60 1_555 1_555
H44 C60 1_555 1_555
O1A C1A 1_555 1_555
O2A C1A 1_555 1_555
C1A C4A 1_555 1_555
C2A C6 1_555 1_555
H1A C2A 1_555 1_555
C3A C2A 1_555 1_555
H2A C3A 1_555 1_555
C4A C3A 1_555 1_555
C5A C4A 1_555 1_555
H3A C5A 1_555 1_555
C6A C2 1_555 1_555
O17A C19A 1_555 1_555
O18A C19A 1_555 1_555
C19A C21A 1_555 1_555
C20A C24 1_555 1_555
H10A C20A 1_555 1_555
C21A C20A 1_555 1_555
C22A C21A 1_555 1_555
H11A C22A 1_555 1_555
C23A C23 1_555 1_555
C24A C20 1_555 1_555
H12A C24A 1_555 1_555
C6 C6A 1_555 1_555
C14 C15 1_555 1_555
C16 C17 1_555 1_555
C26 C27 1_555 1_555
C31 C32 1_555 1_555
C34 C35 1_555 1_555
C40 C41 1_555 1_555
C44 C45 1_555 1_555
C49 C50 1_555 1_555
C52 C53 1_555 1_555
C58 C59 1_555 1_555
C59 C60 1_555 1_555
C5A C6A 1_555 1_555
C22A C23A 1_555 1_555
C23A C24A 1_555 1_555

#END
