
#######################################################################
#
#                 Cambridge Crystallographic Data Centre
#                                CCDC 
#
#######################################################################
#
# If this CIF has been generated from an entry in the Cambridge 
# Structural Database, then it will include bibliographic, chemical, 
# crystal, experimental, refinement or atomic coordinate data resulting 
# from the CCDC's data processing and validation procedures.
#
#######################################################################

data_IFEMIR
_chemical_name_common            
'cyclo[2](2,6-bis(1H-Imidazol-1-yl)pyridine)[2](1,2-dimethylenebenzene) tetrakis(hexafluorophosphate)'
_chemical_formula_moiety         'C38 H34 N10 4+,4(F6 P1 1-)'
_chemical_name_systematic        
'1,7(2,6)-Dipyridina-2,6,8,12(1,3)-tetraimidazola-4,10(1,2)-dibenzenacyclododecaphane-2^3^,6^1^,8^3^,12^1^-tetra-ium tetrakis(hexafluorophosphate)'
_symmetry_cell_setting           triclinic
_symmetry_space_group_name_H-M   'P -1'
_symmetry_Int_Tables_number      2
_space_group_name_Hall           '-P 1'
loop_
_symmetry_equiv_pos_site_id
_symmetry_equiv_pos_as_xyz
1 x,y,z
2 -x,-y,-z
_cell_length_a                   8.8588(9)
_cell_length_b                   10.9908(10)
_cell_length_c                   12.6150(13)
_cell_angle_alpha                78.202(4)
_cell_angle_beta                 77.562(4)
_cell_angle_gamma                71.068(4)
_cell_volume                     1122.44
_exptl_crystal_colour            colorless
_exptl_crystal_description       plate
_cell_formula_units_Z            1
loop_
_atom_site_label
_atom_site_type_symbol
_atom_site_fract_x
_atom_site_fract_y
_atom_site_fract_z
P1 P 0.78508(12) 0.00472(9) 0.88227(8)
F1 F 0.6661(3) 0.0184(3) 0.99581(18)
F2 F 0.9314(3) -0.0754(2) 0.9476(2)
F3 F 0.9042(3) -0.0107(3) 0.76909(19)
F4 F 0.6362(3) 0.0827(2) 0.81853(18)
F5 F 0.8183(3) 0.1376(2) 0.88632(19)
F6 F 0.7508(3) -0.1280(2) 0.87792(18)
P2 P 0.20264(13) 0.62038(10) 0.47658(9)
F7 F 0.3036(3) 0.5073(3) 0.4055(2)
F8 F 0.3515(3) 0.5818(3) 0.5442(2)
F9 F 0.1101(3) 0.7351(2) 0.5484(2)
F10 F 0.0603(3) 0.6583(3) 0.4091(2)
F11 F 0.1311(4) 0.5226(3) 0.5638(3)
F12 F 0.2833(4) 0.7182(3) 0.3912(2)
N1 N 0.3432(3) 0.3237(3) 0.7740(2)
N2 N 0.2717(3) 0.2204(3) 0.6739(2)
N3 N 0.3799(3) 0.1895(3) 0.4950(2)
N4 N 0.5120(3) 0.1659(3) 0.3183(2)
N5 N 0.6985(4) 0.2507(3) 0.2264(2)
C1 C 0.2350(4) 0.5742(3) 0.9135(3)
C2 C 0.1592(5) 0.6179(4) 1.0129(3)
H1 H 0.0819 0.7013 1.0134
C3 C 0.1952(5) 0.5408(4) 1.1120(3)
H2 H 0.1434 0.5718 1.1796
C4 C 0.3062(5) 0.4196(4) 1.1112(3)
H3 H 0.3305 0.3664 1.1784
C5 C 0.3826(5) 0.3750(4) 1.0125(3)
H4 H 0.4591 0.2912 1.0127
C6 C 0.3485(4) 0.4517(3) 0.9130(3)
C7 C 0.4357(5) 0.3955(4) 0.8088(3)
H5 H 0.4520 0.4668 0.7496
H6 H 0.5434 0.3359 0.8210
C8 C 0.3641(4) 0.2951(3) 0.6746(3)
H7 H 0.4339 0.3232 0.6129
C9 C 0.1872(5) 0.2019(4) 0.7796(3)
H8 H 0.1111 0.1539 0.8032
C10 C 0.2328(5) 0.2638(4) 0.8413(3)
H9 H 0.1966 0.2668 0.9175
C11 C 0.2757(4) 0.1618(3) 0.5820(3)
C12 C 0.1848(4) 0.0795(3) 0.5871(3)
H10 H 0.1106 0.0633 0.6511
C13 C 0.2057(4) 0.0215(4) 0.4955(3)
H11 H 0.1465 -0.0369 0.4960
C14 C 0.3127(4) 0.0484(3) 0.4031(3)
H12 H 0.3287 0.0102 0.3390
C15 C 0.3948(4) 0.1330(3) 0.4084(3)
C16 C 0.5925(4) 0.2502(3) 0.3184(3)
H13 H 0.5764 0.3009 0.3748
C17 C 0.6855(5) 0.1651(3) 0.1654(3)
H14 H 0.7472 0.1471 0.0958
C18 C 0.5698(4) 0.1116(3) 0.2218(3)
H15 H 0.5345 0.0490 0.2000
C19 C 0.8069(4) 0.3355(3) 0.1904(3)
H16 H 0.9207 0.2809 0.1773
H17 H 0.7955 0.3872 0.2489
N1A N 0.6568(3) 0.6763(3) 0.2260(2)
N2A N 0.7283(3) 0.7796(3) 0.3261(2)
N3A N 0.6201(3) 0.8105(3) 0.5050(2)
N4A N 0.4880(3) 0.8341(3) 0.6817(2)
N5A N 0.3015(4) 0.7493(3) 0.7736(2)
C1A C 0.7650(4) 0.4258(3) 0.0865(3)
C2A C 0.8408(5) 0.3821(4) -0.0129(3)
H1A H 0.9181 0.2987 -0.0134
C3A C 0.8048(5) 0.4592(4) -0.1120(3)
H2A H 0.8566 0.4282 -0.1796
C4A C 0.6938(5) 0.5804(4) -0.1112(3)
H3A H 0.6695 0.6336 -0.1784
C5A C 0.6174(5) 0.6250(4) -0.0125(3)
H4A H 0.5409 0.7088 -0.0127
C6A C 0.6515(4) 0.5483(3) 0.0870(3)
C7A C 0.5643(5) 0.6045(4) 0.1912(3)
H5A H 0.5480 0.5332 0.2504
H6A H 0.4566 0.6641 0.1790
C8A C 0.6359(4) 0.7049(3) 0.3254(3)
H7A H 0.5661 0.6768 0.3871
C9A C 0.8128(5) 0.7981(4) 0.2204(3)
H8A H 0.8889 0.8461 0.1968
C10A C 0.7672(5) 0.7362(4) 0.1587(3)
H9A H 0.8034 0.7332 0.0825
C11A C 0.7243(4) 0.8382(3) 0.4180(3)
C12A C 0.8152(4) 0.9205(3) 0.4129(3)
H10A H 0.8894 0.9367 0.3489
C13A C 0.7943(4) 0.9785(4) 0.5045(3)
H11A H 0.8535 1.0369 0.5040
C14A C 0.6873(4) 0.9516(3) 0.5969(3)
H12A H 0.6713 0.9898 0.6610
C15A C 0.6052(4) 0.8670(3) 0.5916(3)
C16A C 0.4075(4) 0.7498(3) 0.6816(3)
H13A H 0.4236 0.6991 0.6252
C17A C 0.3145(5) 0.8349(3) 0.8346(3)
H14A H 0.2528 0.8529 0.9042
C18A C 0.4302(4) 0.8884(3) 0.7782(3)
H15A H 0.4655 0.9510 0.8000
C19A C 0.1931(4) 0.6645(3) 0.8096(3)
H16A H 0.0793 0.7191 0.8227
H17A H 0.2045 0.6128 0.7511
loop_
_geom_bond_atom_site_label_1
_geom_bond_atom_site_label_2
_geom_bond_site_symmetry_1
_geom_bond_site_symmetry_2
P1 F1 1_555 1_555
F2 P1 1_555 1_555
F3 P1 1_555 1_555
F4 P1 1_555 1_555
F5 P1 1_555 1_555
F6 P1 1_555 1_555
P2 F7 1_555 1_555
F8 P2 1_555 1_555
F9 P2 1_555 1_555
F10 P2 1_555 1_555
F11 P2 1_555 1_555
F12 P2 1_555 1_555
N1 C7 1_555 1_555
N2 C8 1_555 1_555
N3 C11 1_555 1_555
N4 C15 1_555 1_555
N5 C16 1_555 1_555
C1 C2 1_555 1_555
C2 H1 1_555 1_555
C3 C2 1_555 1_555
H2 C3 1_555 1_555
C4 C3 1_555 1_555
H3 C4 1_555 1_555
C5 C4 1_555 1_555
H4 C5 1_555 1_555
C6 C1 1_555 1_555
C7 C6 1_555 1_555
H5 C7 1_555 1_555
H6 C7 1_555 1_555
C8 N1 1_555 1_555
H7 C8 1_555 1_555
C9 N2 1_555 1_555
H8 C9 1_555 1_555
C10 N1 1_555 1_555
H9 C10 1_555 1_555
C11 N2 1_555 1_555
C12 C11 1_555 1_555
H10 C12 1_555 1_555
C13 C12 1_555 1_555
H11 C13 1_555 1_555
C14 C13 1_555 1_555
H12 C14 1_555 1_555
C15 N3 1_555 1_555
C16 N4 1_555 1_555
H13 C16 1_555 1_555
C17 N5 1_555 1_555
H14 C17 1_555 1_555
C18 N4 1_555 1_555
H15 C18 1_555 1_555
C19 N5 1_555 1_555
H16 C19 1_555 1_555
H17 C19 1_555 1_555
N1A C7A 1_555 1_555
N2A C8A 1_555 1_555
N3A C11A 1_555 1_555
N4A C15A 1_555 1_555
N5A C16A 1_555 1_555
C1A C19 1_555 1_555
C2A C1A 1_555 1_555
H1A C2A 1_555 1_555
C3A C2A 1_555 1_555
H2A C3A 1_555 1_555
C4A C3A 1_555 1_555
H3A C4A 1_555 1_555
C5A C4A 1_555 1_555
H4A C5A 1_555 1_555
C6A C1A 1_555 1_555
C7A C6A 1_555 1_555
H5A C7A 1_555 1_555
H6A C7A 1_555 1_555
C8A N1A 1_555 1_555
H7A C8A 1_555 1_555
C9A N2A 1_555 1_555
H8A C9A 1_555 1_555
C10A N1A 1_555 1_555
H9A C10A 1_555 1_555
C11A N2A 1_555 1_555
C12A C11A 1_555 1_555
H10A C12A 1_555 1_555
C13A C12A 1_555 1_555
H11A C13A 1_555 1_555
C14A C13A 1_555 1_555
H12A C14A 1_555 1_555
C15A N3A 1_555 1_555
C16A N4A 1_555 1_555
H13A C16A 1_555 1_555
C17A N5A 1_555 1_555
H14A C17A 1_555 1_555
C18A N4A 1_555 1_555
H15A C18A 1_555 1_555
C19A C1 1_555 1_555
H16A C19A 1_555 1_555
H17A C19A 1_555 1_555
C5 C6 1_555 1_555
C9 C10 1_555 1_555
C14 C15 1_555 1_555
C17 C18 1_555 1_555
N5A C19A 1_555 1_555
C5A C6A 1_555 1_555
C9A C10A 1_555 1_555
C14A C15A 1_555 1_555
C17A C18A 1_555 1_555

#END
