
#######################################################################
#
#                 Cambridge Crystallographic Data Centre
#                                CCDC 
#
#######################################################################
#
# If this CIF has been generated from an entry in the Cambridge 
# Structural Database, then it will include bibliographic, chemical, 
# crystal, experimental, refinement or atomic coordinate data resulting 
# from the CCDC's data processing and validation procedures.
#
#######################################################################

data_IFENAK
_chemical_name_common            
'cyclo[2](2,6-bis(1H-Imidazol-1-yl)pyridine)[2](2,6-dimethylenepyridinyl) tetrakis(hexafluorophosphate) acetonitrile solvate'
_chemical_formula_moiety         'C36 H32 N12 4+,4(F6 P1 1-),C2 H3 N1'
_chemical_name_systematic        
'1,4,7,10(2,6)-Tetrapyridina-2,6,8,12(1,3)-tetraimidazolacyclododecaphane-2^3^,6^1^,8^3^,12^1^-tetra-ium tetrakis(hexafluorophosphate) acetonitrile solvate'
_symmetry_cell_setting           monoclinic
_symmetry_space_group_name_H-M   'P 21/n'
_symmetry_Int_Tables_number      14
_space_group_name_Hall           '-P 2yn'
loop_
_symmetry_equiv_pos_site_id
_symmetry_equiv_pos_as_xyz
1 x,y,z
2 1/2-x,1/2+y,1/2-z
3 -x,-y,-z
4 1/2+x,1/2-y,1/2+z
_cell_length_a                   11.1850(2)
_cell_length_b                   9.3680(2)
_cell_length_c                   22.8280(5)
_cell_angle_alpha                90
_cell_angle_beta                 93.936(1)
_cell_angle_gamma                90
_cell_volume                     2386.3
_exptl_crystal_colour            colorless
_exptl_crystal_description       prism
_cell_formula_units_Z            2
loop_
_atom_site_label
_atom_site_type_symbol
_atom_site_fract_x
_atom_site_fract_y
_atom_site_fract_z
P3 P 0.77782(8) 0.37589(10) 0.58587(4)
F13 F 0.6890(2) 0.2728(2) 0.61762(10)
F14 F 0.67658(17) 0.4955(2) 0.58159(9)
F15 F 0.86680(19) 0.4796(3) 0.55461(10)
F16 F 0.8794(2) 0.2558(2) 0.59075(10)
F17 F 0.82638(19) 0.4356(2) 0.64873(9)
F18 F 0.7295(2) 0.3152(3) 0.52375(9)
N1 N 0.2749(2) 0.2154(3) 0.33356(11)
N2 N 0.3349(2) 0.1742(3) 0.46303(11)
N3 N 0.3243(2) 0.3266(3) 0.53305(11)
N4 N 0.3636(2) 0.4631(3) 0.61675(11)
N5 N 0.4203(2) 0.5901(3) 0.70055(11)
N6 N 0.5990(2) 0.6261(3) 0.73995(11)
C1 C 0.2096(3) 0.2739(3) 0.28890(14)
C2 C 0.0872(3) 0.2470(4) 0.27789(16)
H1 H 0.0433 0.2901 0.2454
C3 C 0.0319(3) 0.1570(4) 0.31500(17)
H2 H -0.0515 0.1378 0.3092
C4 C 0.0997(3) 0.0948(4) 0.36100(15)
H3 H 0.0640 0.0309 0.3870
C5 C 0.2194(3) 0.1266(3) 0.36867(14)
C6 C 0.2990(3) 0.0638(4) 0.41851(15)
H4 H 0.2557 -0.0140 0.4374
H5 H 0.3716 0.0225 0.4027
C7 C 0.2611(3) 0.2348(3) 0.49835(13)
H6 H 0.1776 0.2164 0.4990
C8 C 0.4430(3) 0.3213(4) 0.51888(13)
H7 H 0.5079 0.3747 0.5368
C9 C 0.4489(3) 0.2271(4) 0.47528(14)
H8 H 0.5187 0.2013 0.4562
C10 C 0.2788(3) 0.4097(3) 0.57940(13)
C11 C 0.1572(3) 0.4293(4) 0.58351(15)
H9 H 0.1002 0.3910 0.5550
C12 C 0.1223(3) 0.5065(4) 0.63050(16)
H10 H 0.0397 0.5223 0.6352
C13 C 0.2077(3) 0.5609(4) 0.67077(15)
H11 H 0.1859 0.6135 0.7040
C14 C 0.3251(3) 0.5361(3) 0.66096(13)
C15 C 0.5365(3) 0.5654(4) 0.69546(14)
H12 H 0.5691 0.5127 0.6648
C16 C 0.5195(3) 0.6954(4) 0.77468(15)
H13 H 0.5401 0.7491 0.8092
C17 C 0.4090(3) 0.6725(4) 0.75070(14)
H14 H 0.3364 0.7061 0.7651
C18 C 0.7287(3) 0.6232(4) 0.74981(15)
H15 H 0.7576 0.5254 0.7425
H16 H 0.7508 0.6469 0.7914
N1B N 0.7251(2) 0.7846(3) 0.66644(11)
N2B N 0.6651(2) 0.8258(3) 0.53697(11)
N3B N 0.6757(2) 0.6734(3) 0.46695(11)
N4B N 0.6364(2) 0.5369(3) 0.38325(11)
N5B N 0.5797(2) 0.4099(3) 0.29945(11)
N6B N 0.4010(2) 0.3739(3) 0.26005(11)
C1B C 0.7904(3) 0.7261(3) 0.71110(14)
C2B C 0.9128(3) 0.7530(4) 0.72211(16)
H1B H 0.9567 0.7099 0.7546
C3B C 0.9681(3) 0.8430(4) 0.68500(17)
H2B H 1.0515 0.8622 0.6908
C4B C 0.9003(3) 0.9052(4) 0.63900(15)
H3B H 0.9360 0.9691 0.6130
C5B C 0.7806(3) 0.8734(3) 0.63133(14)
C6B C 0.7010(3) 0.9362(4) 0.58149(15)
H4B H 0.7443 1.0140 0.5626
H5B H 0.6284 0.9775 0.5973
C7B C 0.7389(3) 0.7652(3) 0.50165(13)
H6B H 0.8224 0.7836 0.5010
C8B C 0.5570(3) 0.6787(4) 0.48112(13)
H7B H 0.4921 0.6253 0.4632
C9B C 0.5511(3) 0.7729(4) 0.52472(14)
H8B H 0.4813 0.7987 0.5438
C10B C 0.7212(3) 0.5903(3) 0.42060(13)
C11B C 0.8428(3) 0.5707(4) 0.41649(15)
H9B H 0.8998 0.6090 0.4450
C12B C 0.8777(3) 0.4935(4) 0.36950(16)
H10B H 0.9603 0.4777 0.3648
C13B C 0.7923(3) 0.4391(4) 0.32923(15)
H11B H 0.8141 0.3865 0.2960
C14B C 0.6749(3) 0.4639(3) 0.33904(13)
C15B C 0.4635(3) 0.4346(4) 0.30454(14)
H12B H 0.4309 0.4873 0.3352
C16B C 0.4805(3) 0.3046(4) 0.22532(15)
H13B H 0.4599 0.2509 0.1908
C17B C 0.5910(3) 0.3275(4) 0.24930(14)
H14B H 0.6636 0.2939 0.2349
C18B C 0.2713(3) 0.3768(4) 0.25019(15)
H15B H 0.2424 0.4746 0.2575
H16B H 0.2492 0.3531 0.2086
P1 P 0.6614(2) -0.0043(2) 0.35180(11)
F1 F 0.6689(3) -0.1583(3) 0.32174(17)
F2 F 0.7365(4) 0.0604(5) 0.30094(19)
F3 F 0.6529(4) 0.1519(3) 0.37926(15)
F4 F 0.5870(3) -0.0686(4) 0.40187(16)
F5 F 0.7837(4) -0.0357(5) 0.3894(2)
F6 F 0.5409(3) 0.0263(4) 0.31326(16)
P2? P 0.6868(6) 0.0160(8) 0.3630(3)
F7? F 0.7433(11) 0.0663(14) 0.3044(4)
F8? F 0.5672(7) 0.1010(10) 0.3445(4)
F9? F 0.6310(9) -0.0344(11) 0.4216(3)
F10? F 0.8057(8) -0.0708(12) 0.3815(6)
F11? F 0.7406(10) 0.1530(9) 0.3960(5)
F12? F 0.6333(10) -0.1219(10) 0.3295(5)
loop_
_geom_bond_atom_site_label_1
_geom_bond_atom_site_label_2
_geom_bond_site_symmetry_1
_geom_bond_site_symmetry_2
P1 F1 1_555 1_555
F2 P1 1_555 1_555
F3 P1 1_555 1_555
F4 P1 1_555 1_555
F5 P1 1_555 1_555
F6 P1 1_555 1_555
P3 F13 1_555 1_555
F14 P3 1_555 1_555
F15 P3 1_555 1_555
F16 P3 1_555 1_555
F17 P3 1_555 1_555
F18 P3 1_555 1_555
N1 C1 1_555 1_555
N2 C6 1_555 1_555
N3 C7 1_555 1_555
N4 C10 1_555 1_555
N5 C14 1_555 1_555
N6 C15 1_555 1_555
C1 C2 1_555 1_555
C2 H1 1_555 1_555
C3 C2 1_555 1_555
H2 C3 1_555 1_555
C4 C3 1_555 1_555
H3 C4 1_555 1_555
C5 N1 1_555 1_555
C6 C5 1_555 1_555
H4 C6 1_555 1_555
H5 C6 1_555 1_555
C7 N2 1_555 1_555
H6 C7 1_555 1_555
C8 N3 1_555 1_555
H7 C8 1_555 1_555
C9 N2 1_555 1_555
H8 C9 1_555 1_555
C10 N3 1_555 1_555
C11 C10 1_555 1_555
H9 C11 1_555 1_555
C12 C11 1_555 1_555
H10 C12 1_555 1_555
C13 C12 1_555 1_555
H11 C13 1_555 1_555
C14 N4 1_555 1_555
C15 N5 1_555 1_555
H12 C15 1_555 1_555
C16 N6 1_555 1_555
H13 C16 1_555 1_555
C17 N5 1_555 1_555
H14 C17 1_555 1_555
C18 N6 1_555 1_555
H15 C18 1_555 1_555
H16 C18 1_555 1_555
N1B C1B 1_555 1_555
N2B C6B 1_555 1_555
N3B C7B 1_555 1_555
N4B C10B 1_555 1_555
N5B C14B 1_555 1_555
N6B C15B 1_555 1_555
C1B C18 1_555 1_555
C2B C1B 1_555 1_555
H1B C2B 1_555 1_555
C3B C2B 1_555 1_555
H2B C3B 1_555 1_555
C4B C3B 1_555 1_555
H3B C4B 1_555 1_555
C5B N1B 1_555 1_555
C6B C5B 1_555 1_555
H4B C6B 1_555 1_555
H5B C6B 1_555 1_555
C7B N2B 1_555 1_555
H6B C7B 1_555 1_555
C8B N3B 1_555 1_555
H7B C8B 1_555 1_555
C9B N2B 1_555 1_555
H8B C9B 1_555 1_555
C10B N3B 1_555 1_555
C11B C10B 1_555 1_555
H9B C11B 1_555 1_555
C12B C11B 1_555 1_555
H10B C12B 1_555 1_555
C13B C12B 1_555 1_555
H11B C13B 1_555 1_555
C14B N4B 1_555 1_555
C15B N5B 1_555 1_555
H12B C15B 1_555 1_555
C16B N6B 1_555 1_555
H13B C16B 1_555 1_555
C17B N5B 1_555 1_555
H14B C17B 1_555 1_555
C18B C1 1_555 1_555
H15B C18B 1_555 1_555
H16B C18B 1_555 1_555
C4 C5 1_555 1_555
C8 C9 1_555 1_555
C13 C14 1_555 1_555
C16 C17 1_555 1_555
N6B C18B 1_555 1_555
C4B C5B 1_555 1_555
C8B C9B 1_555 1_555
C13B C14B 1_555 1_555
C16B C17B 1_555 1_555

#END
