
#######################################################################
#
#                 Cambridge Crystallographic Data Centre
#                                CCDC 
#
#######################################################################
#
# If this CIF has been generated from an entry in the Cambridge 
# Structural Database, then it will include bibliographic, chemical, 
# crystal, experimental, refinement or atomic coordinate data resulting 
# from the CCDC's data processing and validation procedures.
#
#######################################################################

data_IFEPEQ
_chemical_name_common            
'cyclo[2](2,6-bis(1H-Imidazol-1-yl)pyridine)[2](1,4-dimethylenebenzene) tetrakis(hexafluorophosphate) N,N-dimethylformamide solvate'
_chemical_formula_moiety         'C38 H34 N10 4+,4(F6 P1 1-),4(C3 H7 N1 O1)'
_chemical_name_systematic        
'1,7(2,6)-Dipyridina-2,6,8,12(1,3)-tetraimidazola-4,10(1,4)-dibenzenacyclododecaphane-2^3^,6^1^,8^3^,12^1^-tetra-ium tetrakis(hexafluorophosphate) N,N-dimethylformamide solvate'
_symmetry_cell_setting           triclinic
_symmetry_space_group_name_H-M   'P -1'
_symmetry_Int_Tables_number      2
_space_group_name_Hall           '-P 1'
loop_
_symmetry_equiv_pos_site_id
_symmetry_equiv_pos_as_xyz
1 x,y,z
2 -x,-y,-z
_cell_length_a                   10.014(2)
_cell_length_b                   13.054(3)
_cell_length_c                   13.797(3)
_cell_angle_alpha                67.11(3)
_cell_angle_beta                 77.01(3)
_cell_angle_gamma                84.97(3)
_cell_volume                     1619.04
_exptl_crystal_colour            colorless
_exptl_crystal_description       Prism
_cell_formula_units_Z            1
loop_
_atom_site_label
_atom_site_type_symbol
_atom_site_fract_x
_atom_site_fract_y
_atom_site_fract_z
P1 P 1.47002(16) 1.17149(13) 0.14178(13)
F1 F 1.3158(4) 1.1585(4) 0.2028(4)
F2 F 1.4577(5) 1.0707(3) 0.1079(4)
F3 F 1.4871(6) 1.2749(3) 0.1718(4)
F4 F 1.5146(5) 1.0872(3) 0.2499(3)
F5 F 1.4255(4) 1.2567(3) 0.0353(3)
F6 F 1.6253(4) 1.1849(3) 0.0809(3)
P2 P 1.20656(19) 1.49279(15) -0.28086(15)
F7 F 1.1582(6) 1.4135(7) -0.3214(7)
F8 F 1.2572(7) 1.5699(6) -0.2310(6)
F9 F 1.1542(7) 1.6008(6) -0.3613(4)
F10 F 1.2657(6) 1.3917(5) -0.1943(5)
F11 F 1.0660(5) 1.4797(4) -0.1969(4)
F12 F 1.3509(5) 1.5040(4) -0.3586(4)
N1 N 1.1354(4) 1.9074(4) -0.5623(3)
N2 N 1.1119(4) 1.8642(3) -0.3915(3)
N3 N 0.9618(4) 1.7364(3) -0.2542(3)
N4 N 0.8133(4) 1.5974(3) -0.1351(3)
N5 N 0.6785(5) 1.5042(4) -0.1740(4)
C1 C 1.1190(6) 1.9054(5) -0.6663(4)
H1 H 1.1553 1.9739 -0.7242
H2 H 1.0222 1.9021 -0.6649
C2 C 1.0726(6) 1.8386(5) -0.4662(4)
H3 H 1.0119 1.7824 -0.4529
C3 C 1.2153(6) 1.9807(5) -0.5489(5)
H4 H 1.2690 2.0379 -0.6036
C4 C 1.2010(6) 1.9541(5) -0.4432(5)
H5 H 1.2427 1.9891 -0.4105
C5 C 1.0671(5) 1.8030(4) -0.2780(4)
C6 C 1.1342(6) 1.8101(5) -0.2039(5)
H6 H 1.2088 1.8570 -0.2242
C7 C 1.0840(6) 1.7432(5) -0.0970(5)
H7 H 1.1245 1.7457 -0.0436
C8 C 0.9750(6) 1.6733(5) -0.0698(5)
H8 H 0.9401 1.6284 0.0014
C9 C 0.9192(5) 1.6724(4) -0.1525(4)
C10 C 0.7689(5) 1.5870(4) -0.2160(4)
H9 H 0.7966 1.6302 -0.2887
C11 C 0.7481(6) 1.5176(5) -0.0389(5)
H10 H 0.7599 1.5063 0.0295
C12 C 0.6647(6) 1.4598(5) -0.0629(5)
H11 H 0.6083 1.4009 -0.0142
C13 C 0.6077(6) 1.4664(5) -0.2366(5)
H12 H 0.6013 1.5279 -0.3034
H13 H 0.5152 1.4440 -0.1965
C14 C 0.6795(5) 1.3700(5) -0.2618(5)
C15 C 0.7968(6) 1.3863(5) -0.3417(5)
H14 H 0.8324 1.4577 -0.3799
C16 C 0.8617(6) 1.2993(5) -0.3658(5)
H15 H 0.9411 1.3121 -0.4190
C17 C 0.8087(5) 1.1924(4) -0.3110(4)
C18 C 0.6923(6) 1.1751(5) -0.2303(4)
H16 H 0.6568 1.1037 -0.1918
C19 C 0.6281(6) 1.2639(5) -0.2063(5)
H17 H 0.5497 1.2513 -0.1522
N1A N 0.8646(4) 1.0926(4) -0.4377(3)
N2A N 0.8881(4) 1.1358(3) -0.6085(3)
N3A N 1.0382(4) 1.2636(3) -0.7458(3)
N4A N 1.1867(4) 1.4026(3) -0.8649(3)
N5A N 1.3215(5) 1.4958(4) -0.8260(4)
C1A C 0.8810(6) 1.0946(5) -0.3337(4)
H1A H 0.8447 1.0261 -0.2758
H2A H 0.9778 1.0979 -0.3351
C2A C 0.9274(6) 1.1614(5) -0.5338(4)
H3A H 0.9881 1.2176 -0.5471
C3A C 0.7847(6) 1.0193(5) -0.4511(5)
H4A H 0.7310 0.9621 -0.3964
C4A C 0.7990(6) 1.0459(5) -0.5568(5)
H5A H 0.7573 1.0109 -0.5895
C5A C 0.9329(5) 1.1970(4) -0.7220(4)
C6A C 0.8658(6) 1.1899(5) -0.7961(5)
H6A H 0.7912 1.1430 -0.7758
C7A C 0.9160(6) 1.2568(5) -0.9030(5)
H7A H 0.8755 1.2543 -0.9564
C8A C 1.0250(6) 1.3267(5) -0.9302(5)
H8A H 1.0599 1.3716 -1.0014
C9A C 1.0808(5) 1.3276(4) -0.8475(4)
C10A C 1.2311(5) 1.4130(4) -0.7840(4)
H9A H 1.2034 1.3698 -0.7113
C11A C 1.2519(6) 1.4824(5) -0.9611(5)
H10A H 1.2401 1.4937 -1.0295
C12A C 1.3353(6) 1.5402(5) -0.9371(5)
H11A H 1.3917 1.5991 -0.9858
C13A C 1.3923(6) 1.5336(5) -0.7634(5)
H12A H 1.3987 1.4721 -0.6966
H13A H 1.4848 1.5560 -0.8035
C14A C 1.3205(5) 1.6300(5) -0.7382(5)
C15A C 1.2032(6) 1.6137(5) -0.6583(5)
H14A H 1.1676 1.5423 -0.6201
C16A C 1.1383(6) 1.7007(5) -0.6342(5)
H15A H 1.0589 1.6879 -0.5810
C17A C 1.1913(5) 1.8076(4) -0.6890(4)
C18A C 1.3077(6) 1.8249(5) -0.7697(4)
H16A H 1.3432 1.8963 -0.8082
C19A C 1.3719(6) 1.7361(5) -0.7937(5)
H17A H 1.4503 1.7487 -0.8478
N6 N 1.3959(5) 1.2605(4) -0.4933(4)
O1 O 1.1883(5) 1.2745(4) -0.5396(4)
C20 C 1.2643(6) 1.2833(5) -0.4828(5)
H18 H 1.2241 1.3082 -0.4283
C21 C 1.4720(8) 1.2690(7) -0.4189(7)
H19 H 1.4141 1.3000 -0.3715
H20 H 1.5501 1.3164 -0.4585
H21 H 1.5022 1.1964 -0.3776
C22 C 1.4657(8) 1.2159(7) -0.5713(6)
H22 H 1.4048 1.2155 -0.6159
H23 H 1.4949 1.1412 -0.5350
H24 H 1.5442 1.2610 -0.6152
N7 N 1.1703(6) 1.1069(4) -0.1237(5)
O2 O 1.1852(5) 1.0716(4) -0.2737(4)
C23 C 1.2327(8) 1.0732(5) -0.1991(6)
H25 H 1.3220 1.0477 -0.1968
C24 C 1.0328(9) 1.1514(8) -0.1227(7)
H26 H 0.9989 1.1446 -0.1797
H27 H 1.0338 1.2283 -0.1328
H28 H 0.9743 1.1107 -0.0549
C25 C 1.2402(9) 1.1089(7) -0.0411(6)
H29 H 1.3298 1.0767 -0.0504
H30 H 1.1879 1.0668 0.0290
H31 H 1.2484 1.1843 -0.0483
loop_
_geom_bond_atom_site_label_1
_geom_bond_atom_site_label_2
_geom_bond_site_symmetry_1
_geom_bond_site_symmetry_2
P1 F1 1_555 1_555
F2 P1 1_555 1_555
F3 P1 1_555 1_555
F4 P1 1_555 1_555
F5 P1 1_555 1_555
F6 P1 1_555 1_555
P2 F7 1_555 1_555
F8 P2 1_555 1_555
F9 P2 1_555 1_555
F10 P2 1_555 1_555
F11 P2 1_555 1_555
F12 P2 1_555 1_555
N1 C1 1_555 1_555
N2 C2 1_555 1_555
N3 C5 1_555 1_555
N4 C9 1_555 1_555
N5 C10 1_555 1_555
C1 H1 1_555 1_555
H2 C1 1_555 1_555
C2 N1 1_555 1_555
H3 C2 1_555 1_555
C3 N1 1_555 1_555
H4 C3 1_555 1_555
C4 N2 1_555 1_555
H5 C4 1_555 1_555
C5 N2 1_555 1_555
C6 C5 1_555 1_555
H6 C6 1_555 1_555
C7 C6 1_555 1_555
H7 C7 1_555 1_555
C8 C7 1_555 1_555
H8 C8 1_555 1_555
C9 N3 1_555 1_555
C10 N4 1_555 1_555
H9 C10 1_555 1_555
C11 N4 1_555 1_555
H10 C11 1_555 1_555
C12 N5 1_555 1_555
H11 C12 1_555 1_555
C13 N5 1_555 1_555
H12 C13 1_555 1_555
H13 C13 1_555 1_555
C14 C13 1_555 1_555
C15 C14 1_555 1_555
H14 C15 1_555 1_555
C16 C15 1_555 1_555
H15 C16 1_555 1_555
C17 C16 1_555 1_555
C18 C17 1_555 1_555
H16 C18 1_555 1_555
C19 C14 1_555 1_555
H17 C19 1_555 1_555
N6 C20 1_555 1_555
O1 C20 1_555 1_555
C20 H18 1_555 1_555
C21 N6 1_555 1_555
H19 C21 1_555 1_555
H20 C21 1_555 1_555
H21 C21 1_555 1_555
C22 N6 1_555 1_555
H22 C22 1_555 1_555
H23 C22 1_555 1_555
H24 C22 1_555 1_555
N7 C23 1_555 1_555
O2 C23 1_555 1_555
C23 H25 1_555 1_555
C24 N7 1_555 1_555
H26 C24 1_555 1_555
H27 C24 1_555 1_555
H28 C24 1_555 1_555
C25 N7 1_555 1_555
H29 C25 1_555 1_555
H30 C25 1_555 1_555
H31 C25 1_555 1_555
N1A C1A 1_555 1_555
N2A C2A 1_555 1_555
N3A C5A 1_555 1_555
N4A C9A 1_555 1_555
N5A C10A 1_555 1_555
C1A C17 1_555 1_555
H1A C1A 1_555 1_555
H2A C1A 1_555 1_555
C2A N1A 1_555 1_555
H3A C2A 1_555 1_555
C3A N1A 1_555 1_555
H4A C3A 1_555 1_555
C4A N2A 1_555 1_555
H5A C4A 1_555 1_555
C5A N2A 1_555 1_555
C6A C5A 1_555 1_555
H6A C6A 1_555 1_555
C7A C6A 1_555 1_555
H7A C7A 1_555 1_555
C8A C7A 1_555 1_555
H8A C8A 1_555 1_555
C9A N3A 1_555 1_555
C10A N4A 1_555 1_555
H9A C10A 1_555 1_555
C11A N4A 1_555 1_555
H10A C11A 1_555 1_555
C12A N5A 1_555 1_555
H11A C12A 1_555 1_555
C13A N5A 1_555 1_555
H12A C13A 1_555 1_555
H13A C13A 1_555 1_555
C14A C13A 1_555 1_555
C15A C14A 1_555 1_555
H14A C15A 1_555 1_555
C16A C15A 1_555 1_555
H15A C16A 1_555 1_555
C17A C1 1_555 1_555
C18A C17A 1_555 1_555
H16A C18A 1_555 1_555
C19A C14A 1_555 1_555
H17A C19A 1_555 1_555
C3 C4 1_555 1_555
C8 C9 1_555 1_555
C11 C12 1_555 1_555
C18 C19 1_555 1_555
C3A C4A 1_555 1_555
C8A C9A 1_555 1_555
C11A C12A 1_555 1_555
C16A C17A 1_555 1_555
C18A C19A 1_555 1_555

#END
