
#######################################################################
#
#                 Cambridge Crystallographic Data Centre
#                                CCDC 
#
#######################################################################
#
# If this CIF has been generated from an entry in the Cambridge 
# Structural Database, then it will include bibliographic, chemical, 
# crystal, experimental, refinement or atomic coordinate data resulting 
# from the CCDC's data processing and validation procedures.
#
#######################################################################

data_IFEPOB
_chemical_formula_moiety         'C28 H16 Cl2 N2 O1'
_chemical_name_systematic        
(4-chlorophenyl)[11-(4-chlorophenyl)indolo[1,2-b]cinnolin-12-yl]methanone
_symmetry_cell_setting           orthorhombic
_symmetry_space_group_name_H-M   'P n a 21'
_symmetry_Int_Tables_number      33
_space_group_name_Hall           'P 2c -2n'
loop_
_symmetry_equiv_pos_site_id
_symmetry_equiv_pos_as_xyz
1 x,y,z
2 -x,-y,1/2+z
3 1/2-x,1/2+y,1/2+z
4 1/2+x,1/2-y,z
_cell_length_a                   14.424(2)
_cell_length_b                   6.4604(10)
_cell_length_c                   23.064(3)
_cell_angle_alpha                90
_cell_angle_beta                 90
_cell_angle_gamma                90
_cell_volume                     2149.21
_cell_formula_units_Z            4
loop_
_atom_site_label
_atom_site_type_symbol
_atom_site_fract_x
_atom_site_fract_y
_atom_site_fract_z
N1 N -0.52491(13) -0.4551(3) -0.57474(8)
N2 N -0.55716(13) -0.6082(3) -0.60862(8)
C1 C -0.46625(16) -0.1735(4) -0.43990(10)
C2 C -0.44302(16) -0.3120(3) -0.39048(10)
C3 C -0.64024(15) -0.7235(3) -0.52247(10)
C4 C -0.70900(17) -0.8649(3) -0.50233(11)
H1 H -0.7324 -0.8514 -0.4640
C5 C -0.63155(15) -0.5279(3) -0.42769(10)
C6 C -0.53774(15) -0.4318(3) -0.51476(9)
O1 O -0.45769(14) 0.0139(2) -0.43320(8)
C7 C -0.39358(18) 0.0081(4) -0.55956(12)
H2 H -0.3767 0.0987 -0.5289
C8 C -0.47060(15) -0.2950(3) -0.59578(10)
C9 C -0.37771(16) -0.6269(4) -0.35208(11)
H3 H -0.3519 -0.7606 -0.3579
C10 C -0.60240(15) -0.5658(3) -0.48827(10)
C11 C -0.70807(19) -1.0432(4) -0.59395(12)
H4 H -0.7301 -1.1553 -0.6168
C12 C -0.44868(15) -0.1681(3) -0.54904(10)
C13 C -0.61730(17) -0.6719(3) -0.38386(10)
H5 H -0.5918 -0.8035 -0.3930
C14 C -0.61188(16) -0.7425(3) -0.58209(9)
C15 C -0.67143(17) -0.3404(4) -0.41323(10)
H6 H -0.6832 -0.2418 -0.4429
C16 C -0.38640(16) -0.5471(4) -0.29728(11)
C17 C -0.69456(17) -0.2930(4) -0.35658(10)
H7 H -0.7226 -0.1641 -0.3473
C18 C -0.40696(16) -0.5101(3) -0.39846(10)
H8 H -0.4025 -0.5653 -0.4365
C19 C -0.48771(15) -0.2558(3) -0.49725(10)
C20 C -0.42310(18) -0.3551(4) -0.28772(11)
H9 H -0.4297 -0.3041 -0.2493
C21 C -0.67630(16) -0.4356(4) -0.31399(10)
C22 C -0.74125(18) -1.0171(4) -0.53662(11)
H10 H -0.7872 -1.1088 -0.5221
C23 C -0.44136(17) -0.2620(4) -0.65238(11)
H11 H -0.4567 -0.3541 -0.6830
C24 C -0.63978(17) -0.6258(4) -0.32722(10)
H12 H -0.6300 -0.7253 -0.2975
C25 C -0.36495(19) 0.0450(4) -0.61542(13)
H13 H -0.3280 0.1635 -0.6232
C26 C -0.64570(18) -0.9107(4) -0.61638(11)
H14 H -0.6241 -0.9288 -0.6550
C27 C -0.38858(19) -0.0864(4) -0.66121(13)
H15 H -0.3679 -0.0543 -0.6993
C28 C -0.45025(17) -0.2369(4) -0.33405(10)
H16 H -0.4743 -0.1020 -0.3276
Cl1 Cl -0.69818(5) -0.37059(11) -0.24209(3)
Cl2 Cl -0.34811(6) -0.69377(13) -0.23852(3)
loop_
_geom_bond_atom_site_label_1
_geom_bond_atom_site_label_2
_geom_bond_site_symmetry_1
_geom_bond_site_symmetry_2
N1 N2 1_555 1_555
N2 C14 1_555 1_555
C1 C2 1_555 1_555
C2 C18 1_555 1_555
C3 C4 1_555 1_555
C4 H1 1_555 1_555
C5 C10 1_555 1_555
C6 N1 1_555 1_555
O1 C1 1_555 1_555
C7 H2 1_555 1_555
C8 N1 1_555 1_555
C9 H3 1_555 1_555
C10 C3 1_555 1_555
C11 H4 1_555 1_555
C12 C7 1_555 1_555
C13 C5 1_555 1_555
H5 C13 1_555 1_555
C14 C3 1_555 1_555
C15 C5 1_555 1_555
H6 C15 1_555 1_555
C16 C9 1_555 1_555
C17 C15 1_555 1_555
H7 C17 1_555 1_555
C18 C9 1_555 1_555
H8 C18 1_555 1_555
C19 C1 1_555 1_555
C20 C16 1_555 1_555
H9 C20 1_555 1_555
C21 C17 1_555 1_555
C22 C4 1_555 1_555
H10 C22 1_555 1_555
C23 C8 1_555 1_555
H11 C23 1_555 1_555
C24 C13 1_555 1_555
H12 C24 1_555 1_555
C25 C7 1_555 1_555
H13 C25 1_555 1_555
C26 C11 1_555 1_555
H14 C26 1_555 1_555
C27 C23 1_555 1_555
H15 C27 1_555 1_555
C28 C2 1_555 1_555
H16 C28 1_555 1_555
Cl1 C21 1_555 1_555
Cl2 C16 1_555 1_555
C6 C10 1_555 1_555
C6 C19 1_555 1_555
C8 C12 1_555 1_555
C11 C22 1_555 1_555
C12 C19 1_555 1_555
C14 C26 1_555 1_555
C20 C28 1_555 1_555
C21 C24 1_555 1_555
C25 C27 1_555 1_555

#END
