
#######################################################################
#
#                 Cambridge Crystallographic Data Centre
#                                CCDC 
#
#######################################################################
#
# If this CIF has been generated from an entry in the Cambridge 
# Structural Database, then it will include bibliographic, chemical, 
# crystal, experimental, refinement or atomic coordinate data resulting 
# from the CCDC's data processing and validation procedures.
#
#######################################################################

data_IFEROD
_chemical_formula_moiety         'C24 H19 I1 N2 O1 S1'
_chemical_name_systematic        
N-[6-(iodomethylidene)-3,4-diphenyl-1,3-thiazinan-2-ylidene]benzamide
_symmetry_cell_setting           triclinic
_symmetry_space_group_name_H-M   'P -1'
_symmetry_Int_Tables_number      2
_space_group_name_Hall           '-P 1'
loop_
_symmetry_equiv_pos_site_id
_symmetry_equiv_pos_as_xyz
1 x,y,z
2 -x,-y,-z
_cell_length_a                   8.6049(17)
_cell_length_b                   11.226(2)
_cell_length_c                   12.391(3)
_cell_angle_alpha                113.15(3)
_cell_angle_beta                 98.39(3)
_cell_angle_gamma                96.47(3)
_cell_volume                     1069.6
_cell_formula_units_Z            2
loop_
_atom_site_label
_atom_site_type_symbol
_atom_site_fract_x
_atom_site_fract_y
_atom_site_fract_z
I1 I 0.72473(3) 0.68682(3) 0.66593(2)
S1 S 0.54859(11) 0.82104(9) 0.36428(8)
O1 O 0.4326(4) 0.9553(3) 0.2489(3)
N1 N 0.7070(4) 0.6663(3) 0.2009(3)
N2 N 0.5544(4) 0.7877(3) 0.1367(3)
C1 C 0.6505(4) 0.7808(4) 0.5565(4)
H1 H 0.6352 0.8692 0.5942
C2 C 0.6236(4) 0.7247(4) 0.4382(3)
C3 C 0.6462(5) 0.5915(4) 0.3565(3)
H2 H 0.5428 0.5396 0.3027
H3 H 0.6849 0.5439 0.4044
C4 C 0.7677(4) 0.6066(3) 0.2819(3)
H4 H 0.7809 0.5157 0.2299
C5 C 0.9313(4) 0.6803(4) 0.3604(3)
C6 C 1.0261(5) 0.6169(4) 0.4138(4)
H5 H 0.9886 0.5278 0.3988
C7 C 1.1728(5) 0.6815(4) 0.4879(4)
H6 H 1.2366 0.6364 0.5223
C8 C 1.2281(5) 0.8130(5) 0.5124(4)
H7 H 1.3280 0.8586 0.5652
C9 C 1.1364(5) 0.8763(4) 0.4594(4)
H8 H 1.1742 0.9653 0.4745
C10 C 0.9897(5) 0.8107(4) 0.3845(4)
H9 H 0.9276 0.8556 0.3487
C11 C 0.7627(4) 0.6266(4) 0.0894(3)
C12 C 0.8715(5) 0.7146(4) 0.0721(4)
H10 H 0.9064 0.8025 0.1315
C13 C 0.9292(5) 0.6727(5) -0.0335(4)
H11 H 1.0050 0.7319 -0.0459
C14 C 0.8767(5) 0.5455(5) -0.1203(4)
H12 H 0.9147 0.5177 -0.1930
C15 C 0.7693(5) 0.4590(4) -0.1013(4)
H13 H 0.7349 0.3709 -0.1604
C16 C 0.7109(5) 0.4991(4) 0.0029(4)
H14 H 0.6356 0.4393 0.0150
C17 C 0.6075(4) 0.7547(3) 0.2241(3)
C18 C 0.4562(4) 0.8788(4) 0.1515(4)
C19 C 0.3758(4) 0.8796(4) 0.0370(4)
C20 C 0.4111(5) 0.8024(4) -0.0731(4)
H15 H 0.4901 0.7492 -0.0759
C21 C 0.3312(5) 0.8033(5) -0.1781(4)
H16 H 0.3552 0.7505 -0.2527
C22 C 0.2149(5) 0.8820(5) -0.1746(4)
H17 H 0.1593 0.8820 -0.2467
C23 C 0.1819(5) 0.9589(4) -0.0664(4)
H18 H 0.1042 1.0131 -0.0639
C24 C 0.2603(5) 0.9586(4) 0.0392(4)
H19 H 0.2357 1.0120 0.1134
loop_
_geom_bond_atom_site_label_1
_geom_bond_atom_site_label_2
_geom_bond_site_symmetry_1
_geom_bond_site_symmetry_2
I1 C1 1_555 1_555
S1 C2 1_555 1_555
O1 C18 1_555 1_555
N1 C4 1_555 1_555
N2 C17 1_555 1_555
C1 H1 1_555 1_555
C2 C1 1_555 1_555
C3 C2 1_555 1_555
H2 C3 1_555 1_555
H3 C3 1_555 1_555
C4 C3 1_555 1_555
H4 C4 1_555 1_555
C5 C4 1_555 1_555
C6 C5 1_555 1_555
H5 C6 1_555 1_555
C7 C6 1_555 1_555
H6 C7 1_555 1_555
C8 C7 1_555 1_555
H7 C8 1_555 1_555
C9 C8 1_555 1_555
H8 C9 1_555 1_555
C10 C5 1_555 1_555
H9 C10 1_555 1_555
C11 N1 1_555 1_555
C12 C11 1_555 1_555
H10 C12 1_555 1_555
C13 C12 1_555 1_555
H11 C13 1_555 1_555
C14 C13 1_555 1_555
H12 C14 1_555 1_555
C15 C14 1_555 1_555
H13 C15 1_555 1_555
C16 C11 1_555 1_555
H14 C16 1_555 1_555
C17 S1 1_555 1_555
C18 N2 1_555 1_555
C19 C18 1_555 1_555
C20 C19 1_555 1_555
H15 C20 1_555 1_555
C21 C20 1_555 1_555
H16 C21 1_555 1_555
C22 C21 1_555 1_555
H17 C22 1_555 1_555
C23 C22 1_555 1_555
H18 C23 1_555 1_555
C24 C19 1_555 1_555
H19 C24 1_555 1_555
N1 C17 1_555 1_555
C9 C10 1_555 1_555
C15 C16 1_555 1_555
C23 C24 1_555 1_555

#END
