
#######################################################################
#
#                 Cambridge Crystallographic Data Centre
#                                CCDC 
#
#######################################################################
#
# If this CIF has been generated from an entry in the Cambridge 
# Structural Database, then it will include bibliographic, chemical, 
# crystal, experimental, refinement or atomic coordinate data resulting 
# from the CCDC's data processing and validation procedures.
#
#######################################################################

data_IFESUK
_chemical_formula_moiety         '0.935(C58 H46 B2),0.065(C58 H44 B2 Br2)'
_chemical_name_systematic        
"5-(4-phenylbut-1-yn-1-yl)-7,17-bis(2,4,6-trimethylphenyl)-7H,17H-dinaphtho[1,8-de:1,2-e']naphtho[2,1-b:5,4-b'c']bisborinine 7-(3-bromo-2,4,6-trimethylphenyl)-5-(4-phenylbut-1-yn-1-yl)-17-(2,4,6-trimethylphenyl)-7H,17H-dinaphtho[1,8-de:1,2-e']naphtho[2,1-b:5,4-b'c']bisborinine unknown solvate"
_symmetry_cell_setting           monoclinic
_symmetry_space_group_name_H-M   'P 21/c'
_symmetry_Int_Tables_number      14
_space_group_name_Hall           '-P 2ybc'
loop_
_symmetry_equiv_pos_site_id
_symmetry_equiv_pos_as_xyz
1 x,y,z
2 -x,1/2+y,1/2-z
3 -x,-y,-z
4 x,1/2-y,1/2+z
_cell_length_a                   17.5450(17)
_cell_length_b                   12.6207(12)
_cell_length_c                   22.2518(14)
_cell_angle_alpha                90
_cell_angle_beta                 94.451(9)
_cell_angle_gamma                90
_cell_volume                     4912.36
_exptl_crystal_colour            yellow
_exptl_crystal_description       plate
_cell_formula_units_Z            4
_exptl_crystal_recrystallization_method dichloromethane
loop_
_atom_site_label
_atom_site_type_symbol
_atom_site_fract_x
_atom_site_fract_y
_atom_site_fract_z
C1 C 0.7063(3) 0.3160(5) 0.3471(2)
C2 C 0.6827(3) 0.2626(5) 0.2399(2)
C3 C 0.5167(3) 0.5151(5) 0.2046(3)
C4 C 0.5069(3) 0.5335(5) 0.3273(2)
C5 C 0.7185(3) 0.2455(5) 0.2989(2)
C6 C 0.6460(4) 0.3843(5) 0.3353(2)
H1 H 0.626431 0.418631 0.368846
C7 C 0.6376(3) 0.3560(5) 0.2289(2)
C8 C 0.5597(3) 0.4770(5) 0.1578(2)
C9 C 0.6856(3) 0.1779(5) 0.1976(3)
H2 H 0.658502 0.185560 0.159153
C10 C 0.8153(3) 0.1995(6) 0.4839(3)
H3 H 0.837882 0.133405 0.495439
C11 C 0.4565(4) 0.4736(5) 0.3588(3)
C12 C 0.5466(4) 0.5211(5) 0.0988(2)
C13 C 0.6193(3) 0.4004(5) 0.1684(2)
C14 C 0.7248(3) 0.0877(6) 0.2094(2)
H4 H 0.725721 0.033356 0.179967
C15 C 0.6106(3) 0.4080(5) 0.2781(2)
C16 C 0.7845(3) 0.2137(5) 0.4226(2)
C17 C 0.8131(3) 0.2776(6) 0.5257(3)
C18 C 0.4589(3) 0.5882(5) 0.1905(2)
H5 H 0.429536 0.613138 0.221704
C19 C 0.5287(4) 0.6347(6) 0.3500(3)
C20 C 0.7490(3) 0.3087(5) 0.4064(2)
C21 C 0.4536(4) 0.6078(6) 0.4364(3)
C22 C 0.6651(4) 0.3795(5) 0.1215(2)
H6 H 0.707283 0.332786 0.128926
C23 C 0.7641(3) 0.0756(5) 0.2659(3)
H7 H 0.794543 0.014081 0.273525
C24 C 0.5016(4) 0.6690(6) 0.4050(3)
H8 H 0.516985 0.736409 0.420587
C25 C 0.4867(4) 0.5954(5) 0.0886(3)
H9 H 0.477142 0.624910 0.049441
C26 C 0.8394(4) 0.0209(6) 0.3939(3)
C27 C 0.4428(4) 0.6258(6) 0.1324(3)
H10 H 0.401093 0.672768 0.123604
C28 C 0.7606(3) 0.1491(5) 0.3109(2)
C29 C 0.4317(4) 0.5124(6) 0.4119(3)
H11 H 0.397364 0.470140 0.432678
C30 C 0.7847(3) 0.3784(6) 0.5086(3)
C31 C 0.7544(3) 0.3970(6) 0.4471(2)
C32 C 0.9206(4) 0.0194(6) 0.4001(3)
C33 C 0.5945(4) 0.4918(6) 0.0532(3)
H12 H 0.585338 0.521226 0.013977
C34 C 0.7844(4) 0.4647(7) 0.5499(3)
H13 H 0.801099 0.453219 0.591045
C35 C 0.8424(3) 0.2592(6) 0.5874(3)
C36 C 0.6524(4) 0.4236(6) 0.0639(2)
H14 H 0.684341 0.405416 0.032929
C37 C 0.8689(4) 0.2442(6) 0.6371(3)
C38 C 0.9397(5) 0.0812(6) 0.7742(3)
C39 C 0.4295(4) 0.3668(6) 0.3346(3)
H15 H 0.452765 0.352234 0.296784
H16 H 0.444610 0.311605 0.364111
H17 H 0.373734 0.367447 0.327138
C40 C 0.4256(4) 0.6453(6) 0.4955(2)
H18 H 0.447352 0.715172 0.505558
H19 H 0.369651 0.650232 0.491585
H20 H 0.441564 0.594859 0.527456
C41 C 0.7368(4) 0.5053(6) 0.4312(3)
H21 H 0.723611 0.521973 0.390065
C42 C 0.9588(4) -0.0754(8) 0.4207(3)
H22 H 1.013072 -0.077496 0.424034
C43 C 0.9047(4) 0.2210(7) 0.6985(3)
H23 H 0.880832 0.265876 0.728301
H24 H 0.959849 0.238385 0.700202
C44 C 0.9492(5) 0.0760(7) 0.8822(3)
H25 H 0.927405 0.092336 0.918831
C45 C 0.9188(5) -0.1627(8) 0.4355(3)
B1 B 0.5438(4) 0.4885(6) 0.2705(3)
C46 C 0.8004(4) -0.0691(7) 0.4089(3)
C47 C 1.0172(5) 0.0286(7) 0.8833(3)
H26 H 1.043542 0.009294 0.920601
C48 C 0.5826(4) 0.7054(6) 0.3178(3)
H27 H 0.590772 0.771711 0.340235
H28 H 0.631612 0.669096 0.315270
H29 H 0.560075 0.720916 0.277037
C49 C 1.0098(5) 0.0345(7) 0.7762(3)
H30 H 1.032131 0.020029 0.739545
C50 C 0.8950(5) 0.1074(7) 0.7140(3)
H31 H 0.913559 0.062360 0.681769
H32 H 0.840109 0.091917 0.716947
B2 B 0.7948(4) 0.1269(6) 0.3758(3)
C51 C 0.7608(4) 0.5627(7) 0.5320(3)
H33 H 0.759509 0.617727 0.561040
C52 C 1.0489(5) 0.0079(7) 0.8297(4)
H34 H 1.097680 -0.024807 0.829914
C53 C 0.7384(4) 0.5843(6) 0.4722(3)
H35 H 0.724251 0.654248 0.460079
C54 C 0.9643(4) 0.1150(7) 0.3834(3)
H36 H 1.019197 0.101089 0.390342
H37 H 0.951797 0.131513 0.340749
H38 H 0.950474 0.175232 0.408169
C55 C 0.9103(4) 0.1014(7) 0.8276(3)
H39 H 0.861471 0.133899 0.827540
C56 C 0.8386(5) -0.1625(8) 0.4295(4)
H40 H 0.810528 -0.223781 0.438985
C57 C 0.7124(4) -0.0690(7) 0.4053(4)
H41 H 0.694103 -0.138562 0.417423
H42 H 0.694660 -0.014500 0.432321
H43 H 0.692427 -0.053825 0.363833
C58 C 0.9607(5) -0.2626(7) 0.4588(4)
H44 H 0.923283 -0.317235 0.467157
H45 H 0.993379 -0.288580 0.428180
H46 H 0.992233 -0.245906 0.495828
Br1? Br 0.5472(5) 0.7783(8) 0.4441(4)
Br2? Br 1.0637(9) -0.0291(16) 0.4247(8)
loop_
_geom_bond_atom_site_label_1
_geom_bond_atom_site_label_2
_geom_bond_site_symmetry_1
_geom_bond_site_symmetry_2
C1 C5 1_555 1_555
C2 C5 1_555 1_555
C3 C8 1_555 1_555
C4 C11 1_555 1_555
C5 C28 1_555 1_555
C6 C1 1_555 1_555
H1 C6 1_555 1_555
C7 C2 1_555 1_555
C8 C12 1_555 1_555
C9 C2 1_555 1_555
H2 C9 1_555 1_555
C10 H3 1_555 1_555
C11 C29 1_555 1_555
C12 C25 1_555 1_555
C13 C7 1_555 1_555
C14 C9 1_555 1_555
H4 C14 1_555 1_555
C15 C6 1_555 1_555
C16 C10 1_555 1_555
C17 C10 1_555 1_555
C18 C3 1_555 1_555
H5 C18 1_555 1_555
C19 C4 1_555 1_555
C20 C1 1_555 1_555
C21 C24 1_555 1_555
C22 C13 1_555 1_555
H6 C22 1_555 1_555
C23 C14 1_555 1_555
H7 C23 1_555 1_555
C24 C19 1_555 1_555
H8 C24 1_555 1_555
C25 H9 1_555 1_555
C26 C32 1_555 1_555
C27 C18 1_555 1_555
H10 C27 1_555 1_555
C28 C23 1_555 1_555
C29 C21 1_555 1_555
H11 C29 1_555 1_555
C30 C17 1_555 1_555
C31 C20 1_555 1_555
C32 C42 1_555 1_555
C33 C12 1_555 1_555
H12 C33 1_555 1_555
C34 C30 1_555 1_555
H13 C34 1_555 1_555
C35 C17 1_555 1_555
C36 C22 1_555 1_555
H14 C36 1_555 1_555
C37 C35 1_555 1_555
C38 C49 1_555 1_555
C39 C11 1_555 1_555
H15 C39 1_555 1_555
H16 C39 1_555 1_555
H17 C39 1_555 1_555
C40 C21 1_555 1_555
H18 C40 1_555 1_555
H19 C40 1_555 1_555
H20 C40 1_555 1_555
C41 C31 1_555 1_555
H21 C41 1_555 1_555
C42 H22 1_555 1_555
C43 C37 1_555 1_555
H23 C43 1_555 1_555
H24 C43 1_555 1_555
C44 H25 1_555 1_555
C45 C42 1_555 1_555
B1 C3 1_555 1_555
C46 C26 1_555 1_555
C47 C44 1_555 1_555
H26 C47 1_555 1_555
C48 C19 1_555 1_555
H27 C48 1_555 1_555
H28 C48 1_555 1_555
H29 C48 1_555 1_555
C49 H30 1_555 1_555
C50 C38 1_555 1_555
H31 C50 1_555 1_555
H32 C50 1_555 1_555
B2 C16 1_555 1_555
C51 C34 1_555 1_555
H33 C51 1_555 1_555
C52 C47 1_555 1_555
H34 C52 1_555 1_555
C53 C41 1_555 1_555
H35 C53 1_555 1_555
C54 C32 1_555 1_555
H36 C54 1_555 1_555
H37 C54 1_555 1_555
H38 C54 1_555 1_555
C55 C38 1_555 1_555
H39 C55 1_555 1_555
C56 C45 1_555 1_555
H40 C56 1_555 1_555
C57 C46 1_555 1_555
H41 C57 1_555 1_555
H42 C57 1_555 1_555
H43 C57 1_555 1_555
C58 C45 1_555 1_555
H44 C58 1_555 1_555
H45 C58 1_555 1_555
H46 C58 1_555 1_555
C4 B1 1_555 1_555
C7 C15 1_555 1_555
C8 C13 1_555 1_555
C15 B1 1_555 1_555
C16 C20 1_555 1_555
C25 C27 1_555 1_555
C26 B2 1_555 1_555
C28 B2 1_555 1_555
C30 C31 1_555 1_555
C33 C36 1_555 1_555
C43 C50 1_555 1_555
C44 C55 1_555 1_555
C46 C56 1_555 1_555
C49 C52 1_555 1_555
C51 C53 1_555 1_555

#END
