
#######################################################################
#
#                 Cambridge Crystallographic Data Centre
#                                CCDC 
#
#######################################################################
#
# If this CIF has been generated from an entry in the Cambridge 
# Structural Database, then it will include bibliographic, chemical, 
# crystal, experimental, refinement or atomic coordinate data resulting 
# from the CCDC's data processing and validation procedures.
#
#######################################################################

data_IFESAN
_chemical_formula_moiety         'C18 H18 N2 O2 2+,2(C1 N1 S1 1-)'
_chemical_name_systematic        
'1,4-bis(4-Pyridinium-methoxy)benzene dithiocyanate'
_symmetry_cell_setting           triclinic
_symmetry_space_group_name_H-M   'P -1'
_symmetry_Int_Tables_number      2
_space_group_name_Hall           '-P 1'
loop_
_symmetry_equiv_pos_site_id
_symmetry_equiv_pos_as_xyz
1 x,y,z
2 -x,-y,-z
_cell_length_a                   6.9115(14)
_cell_length_b                   8.6367(17)
_cell_length_c                   9.1352(18)
_cell_angle_alpha                84.03(3)
_cell_angle_beta                 78.65(3)
_cell_angle_gamma                81.87(3)
_cell_volume                     527.633
_cell_formula_units_Z            1
loop_
_atom_site_label
_atom_site_type_symbol
_atom_site_fract_x
_atom_site_fract_y
_atom_site_fract_z
S1 S 1.5982(1) 0.7402(1) -0.3564(1)
N1 N 1.2734(4) 0.5682(3) -0.2728(3)
C1 C 1.4091(1) 0.6394(3) -0.3087(3)
N2 N 0.9546(3) 0.4057(3) -0.2424(3)
O1 O 0.3217(3) 0.1718(2) -0.0748(2)
C2 C 0.7756(4) 0.2510(4) -0.3512(3)
C3 C 0.9336(5) 0.3334(4) -0.3599(4)
C4 C 0.8180(5) 0.4018(4) -0.1148(4)
C5 C 0.6579(4) 0.3189(4) -0.0999(3)
C6 C 0.6312(4) 0.2434(3) -0.2195(3)
C7 C 0.4605(4) 0.1503(4) -0.2119(3)
C8 C 0.1648(4) 0.0823(3) -0.0426(3)
C9 C 0.1195(4) -0.0131(4) -0.1413(3)
C10 C 0.0404(4) 0.0963(3) 0.0974(3)
C10A C -0.0404(4) -0.0963(3) -0.0974(3)
C8A C -0.1648(4) -0.0823(3) 0.0426(3)
O1A O -0.3217(3) -0.1718(2) 0.0748(2)
C7A C -0.4605(4) -0.1503(4) 0.2119(3)
C6A C -0.6312(4) -0.2434(3) 0.2195(3)
C2A C -0.7756(4) -0.2510(4) 0.3512(3)
C3A C -0.9336(5) -0.3334(4) 0.3599(4)
N2A N -0.9546(3) -0.4057(3) 0.2424(3)
C4A C -0.8180(5) -0.4018(4) 0.1148(4)
C5A C -0.6579(4) -0.3189(4) 0.0999(3)
C9A C -0.1195(4) 0.0131(4) 0.1413(3)
loop_
_geom_bond_atom_site_label_1
_geom_bond_atom_site_label_2
_geom_bond_site_symmetry_1
_geom_bond_site_symmetry_2
S1 C1 1_555 1_555
N1 C1 1_555 1_555
N2 C3 1_555 1_555
O1 C7 1_555 1_555
C2 C3 1_555 1_555
C4 N2 1_555 1_555
C5 C4 1_555 1_555
C6 C2 1_555 1_555
C7 C6 1_555 1_555
C8 O1 1_555 1_555
C9 C8 1_555 1_555
C10 C8 1_555 1_555
C10A C9 1_555 1_555
C8A C10A 1_555 1_555
O1A C8A 1_555 1_555
C7A O1A 1_555 1_555
C6A C7A 1_555 1_555
C2A C6A 1_555 1_555
C3A C2A 1_555 1_555
N2A C3A 1_555 1_555
C4A N2A 1_555 1_555
C5A C6A 1_555 1_555
C9A C10 1_555 1_555
C5 C6 1_555 1_555
C8A C9A 1_555 1_555
C4A C5A 1_555 1_555

#END
