
#######################################################################
#
#                 Cambridge Crystallographic Data Centre
#                                CCDC 
#
#######################################################################
#
# If this CIF has been generated from an entry in the Cambridge 
# Structural Database, then it will include bibliographic, chemical, 
# crystal, experimental, refinement or atomic coordinate data resulting 
# from the CCDC's data processing and validation procedures.
#
#######################################################################

data_IFESOE
_chemical_formula_moiety         '0.89(C39 H31 B1),0.11(C39 H30 B1 Br1)'
_chemical_name_systematic        
"9-(4-phenylbut-1-yn-1-yl)-7-(2,4,6-trimethylphenyl)-7H-dinaphtho[1,8-bc:1',2'-e]borinine 7-(3-bromo-2,4,6-trimethylphenyl)-9-(4-phenylbut-1-yn-1-yl)-7H-dinaphtho[1,8-bc:1',2'-e]borinine"
_symmetry_cell_setting           monoclinic
_symmetry_space_group_name_H-M   'P 21/n'
_symmetry_Int_Tables_number      14
_space_group_name_Hall           '-P 2yn'
loop_
_symmetry_equiv_pos_site_id
_symmetry_equiv_pos_as_xyz
1 x,y,z
2 1/2-x,1/2+y,1/2-z
3 -x,-y,-z
4 1/2+x,1/2-y,1/2+z
_cell_length_a                   10.71416(15)
_cell_length_b                   18.5823(3)
_cell_length_c                   14.07156(18)
_cell_angle_alpha                90
_cell_angle_beta                 95.4564(12)
_cell_angle_gamma                90
_cell_volume                     2788.87
_exptl_crystal_colour            yellow
_exptl_crystal_description       block
_cell_formula_units_Z            4
_exptl_crystal_recrystallization_method dichloromethane
loop_
_atom_site_label
_atom_site_type_symbol
_atom_site_fract_x
_atom_site_fract_y
_atom_site_fract_z
C1 C 0.33358(16) 0.65619(9) 0.84531(12)
C2 C 0.52233(16) 0.63866(10) 0.70938(12)
C3 C 0.28939(16) 0.66040(10) 0.74643(12)
C4 C 0.55037(16) 0.61988(10) 0.80547(12)
C5 C 0.61643(16) 0.63255(10) 0.64546(12)
H1 H 0.597424 0.646663 0.582336
C6 C 0.66415(16) 0.58008(10) 0.83206(13)
C7 C 0.75817(16) 0.57627(10) 0.76685(13)
C8 C 0.46256(16) 0.64075(10) 0.87581(12)
C9 C 0.73443(16) 0.60667(11) 0.67286(13)
C10 C 0.24877(17) 0.67105(10) 0.91511(12)
C11 C 0.16268(17) 0.67354(11) 0.72161(13)
H2 H 0.133555 0.676808 0.657355
C12 C 0.50339(18) 0.65220(11) 0.97120(13)
H3 H 0.588239 0.647134 0.991029
C13 C 0.82844(17) 0.60584(11) 0.60663(13)
C14 C 0.82611(18) 0.61708(11) 0.32855(14)
C15 C 0.12046(18) 0.68178(11) 0.88531(14)
H4 H 0.064199 0.688801 0.930869
C16 C 0.68525(18) 0.53939(11) 0.91776(13)
H5 H 0.623030 0.537705 0.959511
C17 C 0.07753(17) 0.68201(11) 0.79053(14)
H6 H -0.007530 0.687754 0.771974
C18 C 0.90128(17) 0.60558(13) 0.54735(14)
C19 C 0.29564(19) 0.67831(12) 1.01226(13)
H7 H 0.240898 0.687978 1.058125
C20 C 0.4208(2) 0.67116(12) 1.03864(13)
H8 H 0.451658 0.678916 1.101838
C21 C 0.87176(18) 0.53936(12) 0.79368(15)
H9 H 0.934696 0.539193 0.752494
C22 C 0.7950(2) 0.50261(12) 0.94032(15)
H10 H 0.806185 0.476483 0.996859
C23 C 0.8905(2) 0.50410(13) 0.87872(16)
H11 H 0.966336 0.481082 0.895889
B1 B 0.38545(18) 0.65732(11) 0.67164(13)
C24 C 0.98798(19) 0.60735(17) 0.47293(15)
H12 H 1.004408 0.558440 0.453513
H13 H 1.066878 0.628093 0.499263
C25 C 0.9381(2) 0.65067(16) 0.38512(17)
H14 H 0.915015 0.698326 0.405500
H15 H 1.004795 0.656257 0.343688
C26 C 0.8575(11) 0.5668(8) 0.2669(11)
H16 H 0.941433 0.556118 0.262139
C27 C 0.6414(14) 0.5485(7) 0.2146(7)
H17 H 0.579525 0.524779 0.175646
C28 C 0.7657(15) 0.5311(6) 0.2107(7)
H18 H 0.787642 0.494972 0.169744
C29 C 0.6092(11) 0.6017(8) 0.2769(9)
H19 H 0.525960 0.614499 0.280879
C30 C 0.708(2) 0.6359(14) 0.3347(17)
H20 H 0.689620 0.671866 0.377112
C31 C 0.3476(3) 0.66736(13) 0.56103(13)
C32 C 0.3284(3) 0.60642(13) 0.50235(16)
C33 C 0.2955(2) 0.61563(14) 0.40437(15)
H21 H 0.283046 0.575136 0.365803
C34 C 0.2809(2) 0.68302(15) 0.36318(14)
C35 C 0.3014(2) 0.74274(14) 0.42174(17)
H22 H 0.292818 0.788451 0.395013
C36 C 0.3345(3) 0.73605(13) 0.51968(16)
C37 C 0.3418(4) 0.53222(15) 0.5443(2)
H23 H 0.423430 0.527143 0.578096
H24 H 0.331508 0.497179 0.494035
H25 H 0.278878 0.524897 0.587593
C38 C 0.2454(2) 0.69180(18) 0.25759(15)
H26 H 0.248224 0.645829 0.226751
H27 H 0.303178 0.724072 0.231470
H28 H 0.162062 0.711101 0.247286
C39 C 0.3570(4) 0.80237(17) 0.5813(2)
H29 H 0.292260 0.806314 0.623692
H30 H 0.355934 0.844285 0.541307
H31 H 0.437032 0.798596 0.617839
C40? C 0.7051(18) 0.6421(15) 0.3496(19)
H32? H 0.701134 0.675984 0.397789
C41? C 0.8195(15) 0.5601(10) 0.2564(12)
H33? H 0.893660 0.538720 0.241419
C42? C 0.7079(19) 0.5368(5) 0.2099(7)
H34? H 0.707717 0.501096 0.163602
C43? C 0.5983(11) 0.6191(8) 0.3034(12)
H35? H 0.522999 0.638618 0.319232
C44? C 0.5955(15) 0.5668(8) 0.2321(10)
H36? H 0.519785 0.552316 0.200041
Br1? Br 0.2619(3) 0.56699(14) 0.31449(18)
Br2? Br 0.2650(7) 0.7947(5) 0.3613(6)
C45? C 0.347(4) 0.6782(11) 0.5639(6)
C46? C 0.324(3) 0.6228(11) 0.4977(12)
C47? C 0.296(2) 0.6433(7) 0.4026(10)
C48? C 0.293(3) 0.7132(9) 0.3717(10)
C49? C 0.319(3) 0.7660(9) 0.4405(11)
H37? H 0.319845 0.813847 0.421077
C50? C 0.342(4) 0.7504(11) 0.5376(11)
C51? C 0.330(4) 0.5458(12) 0.528(2)
H38? H 0.260781 0.519420 0.496937
H39? H 0.326501 0.543520 0.596127
H40? H 0.407291 0.525080 0.512157
C52? C 0.260(2) 0.7350(13) 0.2690(10)
H41? H 0.263328 0.786465 0.263788
H42? H 0.318447 0.713752 0.229753
H43? H 0.176681 0.718686 0.248177
C53? C 0.366(5) 0.8084(16) 0.6123(18)
H44? H 0.359118 0.854801 0.582254
H45? H 0.304759 0.804606 0.657818
H46? H 0.448326 0.802712 0.644463
C54? C 0.364(3) 0.6475(9) 0.5597(2)
C55? C 0.347(3) 0.7125(10) 0.5120(10)
C56? C 0.2972(16) 0.7056(8) 0.4178(10)
C57? C 0.276(4) 0.6430(10) 0.3694(16)
C58? C 0.305(4) 0.5797(10) 0.4202(14)
H47? H 0.293124 0.535653 0.389135
C59? C 0.351(5) 0.5808(10) 0.5169(13)
C60? C 0.369(6) 0.7834(13) 0.560(2)
H48? H 0.352223 0.821468 0.514865
H49? H 0.314315 0.788119 0.610338
H50? H 0.454622 0.786361 0.587382
C61? C 0.218(5) 0.638(2) 0.2676(18)
H51? H 0.164651 0.596764 0.259421
H52? H 0.168061 0.681064 0.255911
H53? H 0.280442 0.636304 0.223281
C62? C 0.383(5) 0.5125(13) 0.572(2)
H54? H 0.368278 0.471748 0.530687
H55? H 0.468998 0.513445 0.597575
H56? H 0.330260 0.508776 0.623800
loop_
_geom_bond_atom_site_label_1
_geom_bond_atom_site_label_2
_geom_bond_site_symmetry_1
_geom_bond_site_symmetry_2
C1 C3 1_555 1_555
C2 C4 1_555 1_555
C3 C11 1_555 1_555
C4 C6 1_555 1_555
C5 C2 1_555 1_555
H1 C5 1_555 1_555
C6 C7 1_555 1_555
C7 C9 1_555 1_555
C8 C1 1_555 1_555
C9 C5 1_555 1_555
C10 C1 1_555 1_555
C11 H2 1_555 1_555
C12 C8 1_555 1_555
H3 C12 1_555 1_555
C13 C9 1_555 1_555
C14 C25 1_555 1_555
C15 C10 1_555 1_555
H4 C15 1_555 1_555
C16 C6 1_555 1_555
H5 C16 1_555 1_555
C17 C11 1_555 1_555
H6 C17 1_555 1_555
C18 C13 1_555 1_555
C19 C10 1_555 1_555
H7 C19 1_555 1_555
C20 C12 1_555 1_555
H8 C20 1_555 1_555
C21 C7 1_555 1_555
H9 C21 1_555 1_555
C22 C16 1_555 1_555
H10 C22 1_555 1_555
C23 C21 1_555 1_555
H11 C23 1_555 1_555
B1 C2 1_555 1_555
C24 C18 1_555 1_555
H12 C24 1_555 1_555
H13 C24 1_555 1_555
C25 C24 1_555 1_555
H14 C25 1_555 1_555
H15 C25 1_555 1_555
C26 C14 1_555 1_555
H16 C26 1_555 1_555
C27 H17 1_555 1_555
C28 C26 1_555 1_555
H18 C28 1_555 1_555
C29 C27 1_555 1_555
H19 C29 1_555 1_555
C30 C14 1_555 1_555
H20 C30 1_555 1_555
C31 B1 1_555 1_555
C32 C31 1_555 1_555
C33 C32 1_555 1_555
H21 C33 1_555 1_555
C34 C33 1_555 1_555
C35 C34 1_555 1_555
H22 C35 1_555 1_555
C36 C31 1_555 1_555
C37 C32 1_555 1_555
H23 C37 1_555 1_555
H24 C37 1_555 1_555
H25 C37 1_555 1_555
C38 C34 1_555 1_555
H26 C38 1_555 1_555
H27 C38 1_555 1_555
H28 C38 1_555 1_555
C39 C36 1_555 1_555
H29 C39 1_555 1_555
H30 C39 1_555 1_555
H31 C39 1_555 1_555
C3 B1 1_555 1_555
C4 C8 1_555 1_555
C15 C17 1_555 1_555
C19 C20 1_555 1_555
C22 C23 1_555 1_555
C27 C28 1_555 1_555
C29 C30 1_555 1_555
C35 C36 1_555 1_555

#END
