
#######################################################################
#
#                 Cambridge Crystallographic Data Centre
#                                CCDC 
#
#######################################################################
#
# If this CIF has been generated from an entry in the Cambridge 
# Structural Database, then it will include bibliographic, chemical, 
# crystal, experimental, refinement or atomic coordinate data resulting 
# from the CCDC's data processing and validation procedures.
#
#######################################################################

data_IFEWUM
_chemical_formula_moiety         'C21 H26 Mg1 O9 2+,2(Cl1 O4 1-)'
_chemical_name_systematic        
'Diaqua-(1,8-(3,6,9-trioxaundecane-1,11-diyldioxy)xanthone)-magnesium diperchlorate'
_symmetry_cell_setting           triclinic
_symmetry_space_group_name_H-M   'P -1'
_symmetry_Int_Tables_number      2
_space_group_name_Hall           '-P 1'
loop_
_symmetry_equiv_pos_site_id
_symmetry_equiv_pos_as_xyz
1 x,y,z
2 -x,-y,-z
_cell_length_a                   13.402(3)
_cell_length_b                   14.290(3)
_cell_length_c                   15.951(3)
_cell_angle_alpha                100.64(3)
_cell_angle_beta                 97.21(3)
_cell_angle_gamma                112.76(3)
_cell_volume                     2702.39
_exptl_crystal_colour            yellow
_exptl_crystal_description       block
_cell_formula_units_Z            4
_exptl_crystal_recrystallization_method 'acetonitrile/diethyl ether'
loop_
_atom_site_label
_atom_site_type_symbol
_atom_site_fract_x
_atom_site_fract_y
_atom_site_fract_z
Mg1 Mg 0.30480(14) 0.60013(12) 0.30981(11)
O1 O 0.0329(4) 0.3602(3) -0.0410(2)
O2 O 0.1810(3) 0.4929(3) 0.2159(2)
O3 O -0.0170(3) 0.4567(3) 0.2509(3)
O4 O 0.1853(4) 0.6610(3) 0.3411(2)
O5 O 0.3765(4) 0.7065(3) 0.4347(2)
O6 O 0.4775(3) 0.6246(3) 0.3358(3)
O7 O 0.3613(3) 0.4875(3) 0.1808(2)
O8 O 0.3458(3) 0.7090(3) 0.2390(2)
H1 H 0.3225 0.7441 0.2348
H2 H 0.4197 0.7498 0.2583
O9 O 0.2681(3) 0.4913(2) 0.3814(2)
H3 H 0.2295 0.4308 0.3659
H4 H 0.3009 0.5150 0.4466
C1 C -0.0545(5) 0.4292(4) 0.1616(4)
C2 C -0.1626(5) 0.4093(5) 0.1259(6)
H9 H -0.2082 0.4202 0.1623
C3 C -0.2026(6) 0.3736(5) 0.0372(7)
H10 H -0.2754 0.3607 0.0145
C4 C -0.1383(6) 0.3563(4) -0.0189(5)
H11 H -0.1662 0.3312 -0.0789
C5 C -0.0288(4) 0.3781(4) 0.0181(4)
C6 C 0.1399(5) 0.3798(4) -0.0139(3)
C7 C 0.1922(6) 0.3564(4) -0.0780(4)
H12 H 0.1541 0.3270 -0.1360
C8 C 0.3007(7) 0.3772(5) -0.0547(5)
H13 H 0.3360 0.3604 -0.0978
C9 C 0.3612(5) 0.4222(4) 0.0300(5)
H14 H 0.4361 0.4367 0.0431
C10 C 0.3092(4) 0.4456(4) 0.0953(3)
C11 C 0.1950(4) 0.4245(3) 0.0738(3)
C12 C 0.1359(4) 0.4482(3) 0.1391(3)
C13 C 0.0172(4) 0.4162(3) 0.1075(3)
C14 C -0.0171(6) 0.5532(4) 0.2967(5)
H15 H -0.0160 0.5539 0.3578
H16 H -0.0843 0.5583 0.2722
C15 C 0.0841(5) 0.6472(4) 0.2896(4)
H17 H 0.0901 0.6384 0.2289
H18 H 0.0726 0.7104 0.3071
C16 C 0.2025(8) 0.7065(6) 0.4326(4)
H19 H 0.1761 0.6518 0.4630
H20 H 0.1622 0.7499 0.4416
C17 C 0.3222(9) 0.7708(5) 0.4662(4)
H21 H 0.3460 0.8336 0.4450
H22 H 0.3395 0.7913 0.5296
C18 C 0.4952(7) 0.7569(6) 0.4551(5)
H23 H 0.5231 0.7877 0.5175
H24 H 0.5215 0.8119 0.4250
C19 C 0.5320(6) 0.6748(6) 0.4257(5)
H25 H 0.6118 0.7052 0.4316
H26 H 0.5128 0.6242 0.4606
C20 C 0.5114(5) 0.5450(5) 0.3007(5)
H27 H 0.4764 0.4837 0.3224
H28 H 0.5911 0.5706 0.3195
C21 C 0.4800(4) 0.5161(5) 0.2046(4)
H29 H 0.5210 0.5748 0.1820
H30 H 0.4961 0.4573 0.1805
Mg2 Mg 0.84679(14) 0.12209(12) 0.26168(11)
O10 O 1.1471(3) 0.1478(3) 0.0212(2)
O11 O 0.9787(3) 0.1796(3) 0.2118(2)
O12 O 0.8053(3) 0.1308(3) 0.0902(2)
O13 O 0.6762(3) 0.0854(3) 0.2048(3)
O14 O 0.7562(3) 0.0869(3) 0.3632(2)
O15 O 0.9607(3) 0.1112(3) 0.3641(2)
O16 O 1.1704(3) 0.2726(2) 0.3286(2)
O17 O 0.8771(3) 0.2745(2) 0.3110(2)
H5 H 0.8517 0.3138 0.3464
H6 H 0.9376 0.3274 0.3036
O18 O 0.8103(3) -0.0303(3) 0.2071(2)
H7 H 0.7444 -0.0759 0.1675
H8 H 0.8290 -0.0614 0.2319
C22 C 0.8645(5) 0.1165(4) 0.0286(3)
C23 C 0.8200(5) 0.0843(4) -0.0597(4)
H31 H 0.7462 0.0698 -0.0804
C24 C 0.8860(7) 0.0738(5) -0.1172(4)
H32 H 0.8546 0.0514 -0.1768
C25 C 0.9939(6) 0.0943(4) -0.0914(4)
H33 H 1.0363 0.0866 -0.1318
C26 C 1.0396(5) 0.1278(4) -0.0014(3)
C27 C 1.2025(4) 0.1857(4) 0.1070(3)
C28 C 1.3127(5) 0.2027(4) 0.1219(4)
H34 H 1.3452 0.1892 0.0756
C29 C 1.3729(5) 0.2394(4) 0.2057(4)
H35 H 1.4468 0.2502 0.2167
C30 C 1.3237(5) 0.2613(4) 0.2761(4)
H36 H 1.3652 0.2872 0.3332
C31 C 1.2152(4) 0.2439(3) 0.2591(3)
C32 C 1.1492(4) 0.2039(3) 0.1743(3)
C33 C 1.0312(4) 0.1750(3) 0.1528(3)
C34 C 0.9772(4) 0.1406(3) 0.0608(3)
C35 C 0.6892(5) 0.1027(5) 0.0599(4)
H37 H 0.6498 0.0280 0.0330
H38 H 0.6787 0.1405 0.0174
C36 C 0.6480(5) 0.1322(5) 0.1387(5)
H39 H 0.6811 0.2079 0.1608
H40 H 0.5682 0.1082 0.1233
C37 C 0.6024(5) 0.0717(5) 0.2647(4)
H41 H 0.5266 0.0268 0.2337
H42 H 0.6058 0.1389 0.2943
C38 C 0.6406(5) 0.0227(4) 0.3283(4)
H43 H 0.5999 0.0190 0.3746
H44 H 0.6289 -0.0479 0.2996
C39 C 0.8052(6) 0.0483(5) 0.4258(4)
H45 H 0.7890 -0.0248 0.4018
H46 H 0.7763 0.0541 0.4783
C40 C 0.9269(5) 0.1138(5) 0.4460(3)
H47 H 0.9438 0.1853 0.4763
H48 H 0.9653 0.0858 0.4828
C41 C 1.0657(4) 0.1067(4) 0.3640(3)
H49 H 1.0655 0.0723 0.3055
H50 H 1.0753 0.0642 0.4026
C42 C 1.1629(5) 0.2131(4) 0.3928(3)
H51 H 1.1562 0.2524 0.4466
H52 H 1.2308 0.2039 0.4049
Cl1 Cl 0.51284(12) 0.78737(11) 0.07221(10)
O19 O 0.4892(7) 0.7160(7) 0.1171(7)
O20 O 0.4683(4) 0.7377(6) -0.0163(4)
O21 O 0.4633(5) 0.8552(4) 0.0956(4)
O22 O 0.6285(3) 0.8390(4) 0.0787(3)
Cl2 Cl 0.32003(13) 0.97526(11) 0.33531(10)
O23 O 0.3130(8) 0.8917(5) 0.2746(4)
O24 O 0.2205(5) 0.9448(8) 0.3557(5)
O25 O 0.3425(7) 1.0570(5) 0.2977(5)
O26 O 0.4018(5) 0.9985(4) 0.4090(5)
Cl3 Cl 0.83555(13) 0.78040(11) 0.33090(10)
O27 O 0.7346(6) 0.7405(9) 0.2763(5)
O28 O 0.8200(7) 0.8162(6) 0.4119(4)
O29 O 0.9018(5) 0.8602(5) 0.2994(5)
O30 O 0.8711(10) 0.7067(6) 0.3316(7)
Cl4 Cl 0.68909(13) 0.41001(12) 0.37278(9)
O31 O 0.6836(5) 0.4344(4) 0.2918(3)
O32 O 0.6871(9) 0.4831(6) 0.4369(4)
O33 O 0.5904(6) 0.3287(8) 0.3738(5)
O34 O 0.7666(7) 0.3769(8) 0.3934(5)
loop_
_geom_bond_atom_site_label_1
_geom_bond_atom_site_label_2
_geom_bond_site_symmetry_1
_geom_bond_site_symmetry_2
Mg1 O2 1_555 1_555
Mg2 O11 1_555 1_555
Cl1 O19 1_555 1_555
Cl2 O23 1_555 1_555
Cl3 O27 1_555 1_555
Cl4 O31 1_555 1_555
O1 C5 1_555 1_555
O2 C12 1_555 1_555
O3 C1 1_555 1_555
O4 Mg1 1_555 1_555
O5 Mg1 1_555 1_555
O6 Mg1 1_555 1_555
O7 C10 1_555 1_555
O8 Mg1 1_555 1_555
H1 O8 1_555 1_555
H2 O8 1_555 1_555
O9 Mg1 1_555 1_555
H3 O9 1_555 1_555
H4 O9 1_555 1_555
O10 C26 1_555 1_555
O11 C33 1_555 1_555
O12 C22 1_555 1_555
O13 Mg2 1_555 1_555
O14 Mg2 1_555 1_555
O15 Mg2 1_555 1_555
O16 C31 1_555 1_555
O17 Mg2 1_555 1_555
H5 O17 1_555 1_555
H6 O17 1_555 1_555
O18 Mg2 1_555 1_555
H7 O18 1_555 1_555
H8 O18 1_555 1_555
O20 Cl1 1_555 1_555
O21 Cl1 1_555 1_555
O22 Cl1 1_555 1_555
O24 Cl2 1_555 1_555
O25 Cl2 1_555 1_555
O26 Cl2 1_555 1_555
O28 Cl3 1_555 1_555
O29 Cl3 1_555 1_555
O30 Cl3 1_555 1_555
O32 Cl4 1_555 1_555
O33 Cl4 1_555 1_555
O34 Cl4 1_555 1_555
C1 C2 1_555 1_555
C2 H9 1_555 1_555
C3 C2 1_555 1_555
H10 C3 1_555 1_555
C4 C3 1_555 1_555
H11 C4 1_555 1_555
C5 C4 1_555 1_555
C6 O1 1_555 1_555
C7 C6 1_555 1_555
H12 C7 1_555 1_555
C8 C7 1_555 1_555
H13 C8 1_555 1_555
C9 C8 1_555 1_555
H14 C9 1_555 1_555
C10 C9 1_555 1_555
C11 C6 1_555 1_555
C12 C11 1_555 1_555
C13 C1 1_555 1_555
C14 O3 1_555 1_555
H15 C14 1_555 1_555
H16 C14 1_555 1_555
C15 O4 1_555 1_555
H17 C15 1_555 1_555
H18 C15 1_555 1_555
C16 O4 1_555 1_555
H19 C16 1_555 1_555
H20 C16 1_555 1_555
C17 O5 1_555 1_555
H21 C17 1_555 1_555
H22 C17 1_555 1_555
C18 O5 1_555 1_555
H23 C18 1_555 1_555
H24 C18 1_555 1_555
C19 O6 1_555 1_555
H25 C19 1_555 1_555
H26 C19 1_555 1_555
C20 O6 1_555 1_555
H27 C20 1_555 1_555
H28 C20 1_555 1_555
C21 O7 1_555 1_555
H29 C21 1_555 1_555
H30 C21 1_555 1_555
C22 C23 1_555 1_555
C23 H31 1_555 1_555
C24 C23 1_555 1_555
H32 C24 1_555 1_555
C25 C24 1_555 1_555
H33 C25 1_555 1_555
C26 C25 1_555 1_555
C27 O10 1_555 1_555
C28 C27 1_555 1_555
H34 C28 1_555 1_555
C29 C28 1_555 1_555
H35 C29 1_555 1_555
C30 C29 1_555 1_555
H36 C30 1_555 1_555
C31 C30 1_555 1_555
C32 C27 1_555 1_555
C33 C32 1_555 1_555
C34 C22 1_555 1_555
C35 O12 1_555 1_555
H37 C35 1_555 1_555
H38 C35 1_555 1_555
C36 O13 1_555 1_555
H39 C36 1_555 1_555
H40 C36 1_555 1_555
C37 O13 1_555 1_555
H41 C37 1_555 1_555
H42 C37 1_555 1_555
C38 O14 1_555 1_555
H43 C38 1_555 1_555
H44 C38 1_555 1_555
C39 O14 1_555 1_555
H45 C39 1_555 1_555
H46 C39 1_555 1_555
C40 O15 1_555 1_555
H47 C40 1_555 1_555
H48 C40 1_555 1_555
C41 O15 1_555 1_555
H49 C41 1_555 1_555
H50 C41 1_555 1_555
C42 O16 1_555 1_555
H51 C42 1_555 1_555
H52 C42 1_555 1_555
C5 C13 1_555 1_555
C10 C11 1_555 1_555
C12 C13 1_555 1_555
C14 C15 1_555 1_555
C16 C17 1_555 1_555
C18 C19 1_555 1_555
C20 C21 1_555 1_555
C26 C34 1_555 1_555
C31 C32 1_555 1_555
C33 C34 1_555 1_555
C35 C36 1_555 1_555
C37 C38 1_555 1_555
C39 C40 1_555 1_555
C41 C42 1_555 1_555

#END
