
#######################################################################
#
#                 Cambridge Crystallographic Data Centre
#                                CCDC 
#
#######################################################################
#
# If this CIF has been generated from an entry in the Cambridge 
# Structural Database, then it will include bibliographic, chemical, 
# crystal, experimental, refinement or atomic coordinate data resulting 
# from the CCDC's data processing and validation procedures.
#
#######################################################################

data_IFEXEZ
_chemical_formula_moiety         'C28 H17 Cl1 N2 O1'
_chemical_name_systematic        
(2-chloro-11-phenylindolo[1,2-b]cinnolin-12-yl)(phenyl)methanone
_symmetry_cell_setting           triclinic
_symmetry_space_group_name_H-M   'P -1'
_symmetry_Int_Tables_number      2
_space_group_name_Hall           '-P 1'
loop_
_symmetry_equiv_pos_site_id
_symmetry_equiv_pos_as_xyz
1 x,y,z
2 -x,-y,-z
_cell_length_a                   8.161(6)
_cell_length_b                   10.322(8)
_cell_length_c                   13.349(10)
_cell_angle_alpha                103.181(15)
_cell_angle_beta                 101.750(15)
_cell_angle_gamma                91.082(15)
_cell_volume                     1069.4
_exptl_crystal_colour            'dark purple'
_exptl_crystal_description       block
_cell_formula_units_Z            2
loop_
_atom_site_label
_atom_site_type_symbol
_atom_site_fract_x
_atom_site_fract_y
_atom_site_fract_z
C1 C 0.8484(7) 0.6003(5) 0.4535(4)
C2 C 0.9255(7) 0.7186(6) 0.5210(4)
H1 H 0.9252 0.7374 0.5925
C3 C 1.0020(7) 0.8069(6) 0.4789(5)
H2 H 1.0556 0.8865 0.5218
C4 C 0.9983(7) 0.7754(6) 0.3700(5)
C5 C 0.9247(7) 0.6583(6) 0.3033(4)
H3 H 0.9248 0.6414 0.2318
C6 C 0.8490(7) 0.5637(6) 0.3441(4)
C7 C 0.7540(7) 0.4389(5) 0.2991(4)
C8 C 0.6970(7) 0.3795(5) 0.1831(4)
C9 C 0.8262(7) 0.3627(5) 0.1178(4)
C10 C 0.7760(8) 0.3528(6) 0.0095(4)
H4 H 0.6649 0.3643 -0.0191
C11 C 0.8878(9) 0.3266(7) -0.0548(5)
H5 H 0.8517 0.3199 -0.1267
C12 C 1.0523(10) 0.3100(7) -0.0149(5)
H6 H 1.1270 0.2904 -0.0595
C13 C 1.1067(9) 0.3225(7) 0.0926(5)
H7 H 1.2184 0.3121 0.1205
C14 C 0.9931(8) 0.3507(6) 0.1589(5)
H8 H 1.0302 0.3614 0.2311
C15 C 0.6980(7) 0.3988(6) 0.3805(4)
C16 C 0.6062(7) 0.2848(5) 0.3902(4)
C17 C 0.5744(7) 0.2831(6) 0.4891(4)
C18 C 0.6376(7) 0.3962(6) 0.5772(4)
C19 C 0.6039(8) 0.3950(7) 0.6778(4)
H9 H 0.6423 0.4675 0.7343
C20 C 0.5175(8) 0.2907(8) 0.6925(5)
H10 H 0.4968 0.2923 0.7588
C21 C 0.4579(8) 0.1788(7) 0.6080(5)
H11 H 0.4005 0.1067 0.6195
C22 C 0.4838(7) 0.1758(6) 0.5102(5)
H12 H 0.4416 0.1021 0.4555
C23 C 0.5597(8) 0.1687(6) 0.2962(4)
C24 C 0.3931(8) 0.1256(7) 0.2528(5)
H13 H 0.3084 0.1664 0.2830
C25 C 0.3532(11) 0.0195(9) 0.1624(6)
H14 H 0.2416 -0.0087 0.1318
C26 C 0.4781(13) -0.0419(8) 0.1200(6)
H15 H 0.4510 -0.1110 0.0597
C27 C 0.6454(12) -0.0024(7) 0.1656(6)
H16 H 0.7300 -0.0464 0.1375
C28 C 0.6854(9) 0.1047(6) 0.2547(5)
H17 H 0.7970 0.1322 0.2856
Cl1 Cl 1.0926(2) 0.89368(16) 0.32016(13)
N1 N 0.7551(5) 0.4989(4) 0.4739(3)
N2 N 0.7292(6) 0.5014(5) 0.5724(3)
O1 O 0.5497(5) 0.3472(4) 0.1442(3)
loop_
_geom_bond_atom_site_label_1
_geom_bond_atom_site_label_2
_geom_bond_site_symmetry_1
_geom_bond_site_symmetry_2
C1 C2 1_555 1_555
C2 H1 1_555 1_555
C3 C2 1_555 1_555
H2 C3 1_555 1_555
C4 C3 1_555 1_555
C5 C4 1_555 1_555
H3 C5 1_555 1_555
C6 C1 1_555 1_555
C7 C6 1_555 1_555
C8 C7 1_555 1_555
C9 C8 1_555 1_555
C10 C9 1_555 1_555
H4 C10 1_555 1_555
C11 C10 1_555 1_555
H5 C11 1_555 1_555
C12 C11 1_555 1_555
H6 C12 1_555 1_555
C13 C12 1_555 1_555
H7 C13 1_555 1_555
C14 C9 1_555 1_555
H8 C14 1_555 1_555
C15 C7 1_555 1_555
C16 C15 1_555 1_555
C17 C16 1_555 1_555
C18 C17 1_555 1_555
C19 C18 1_555 1_555
H9 C19 1_555 1_555
C20 C19 1_555 1_555
H10 C20 1_555 1_555
C21 C20 1_555 1_555
H11 C21 1_555 1_555
C22 C17 1_555 1_555
H12 C22 1_555 1_555
C23 C16 1_555 1_555
C24 C23 1_555 1_555
H13 C24 1_555 1_555
C25 C24 1_555 1_555
H14 C25 1_555 1_555
C26 C25 1_555 1_555
H15 C26 1_555 1_555
C27 C26 1_555 1_555
H16 C27 1_555 1_555
C28 C23 1_555 1_555
H17 C28 1_555 1_555
Cl1 C4 1_555 1_555
N1 C1 1_555 1_555
N2 C18 1_555 1_555
O1 C8 1_555 1_555
C5 C6 1_555 1_555
C13 C14 1_555 1_555
C15 N1 1_555 1_555
C21 C22 1_555 1_555
C27 C28 1_555 1_555
N1 N2 1_555 1_555

#END
