
#######################################################################
#
#                 Cambridge Crystallographic Data Centre
#                                CCDC 
#
#######################################################################
#
# If this CIF has been generated from an entry in the Cambridge 
# Structural Database, then it will include bibliographic, chemical, 
# crystal, experimental, refinement or atomic coordinate data resulting 
# from the CCDC's data processing and validation procedures.
#
#######################################################################

data_IFEYAV
_chemical_formula_moiety         'C26 H23 Br1 N2 O1'
_chemical_name_systematic        
4-Benzyl-4-(3-(3-bromophenyl)prop-2-en-1-yl)-5-methyl-2-phenyl-2,4-dihydro-3H-pyrazol-3-one
_symmetry_cell_setting           monoclinic
_symmetry_space_group_name_H-M   'P 21'
_symmetry_Int_Tables_number      4
_space_group_name_Hall           'P 2yb'
loop_
_symmetry_equiv_pos_site_id
_symmetry_equiv_pos_as_xyz
1 x,y,z
2 -x,1/2+y,-z
_cell_length_a                   9.4592(8)
_cell_length_b                   7.7370(4)
_cell_length_c                   16.0848(14)
_cell_angle_alpha                90
_cell_angle_beta                 102.562(8)
_cell_angle_gamma                90
_cell_volume                     1149
_cell_formula_units_Z            2
loop_
_atom_site_label
_atom_site_type_symbol
_atom_site_fract_x
_atom_site_fract_y
_atom_site_fract_z
Br1 Br 1.42361(15) 1.26444(16) 0.10799(8)
C1 C 0.9925(6) 0.4237(7) 0.4409(4)
H1 H 1.0533 0.3305 0.4689
H2 H 1.0051 0.5206 0.4800
C2 C 1.2009(7) 0.5601(8) 0.3911(4)
H3 H 1.1915 0.6648 0.4227
H4 H 1.2617 0.4808 0.4299
O1 O 1.1300(5) 0.1926(5) 0.3254(3)
C3 C 1.3894(7) 0.8149(8) 0.2391(4)
C4 C 0.7899(7) 0.2158(7) 0.3794(4)
H5 H 0.8548 0.1512 0.3563
C5 C 0.8363(7) 0.3651(8) 0.4265(4)
C6 C 0.5971(8) 0.4028(9) 0.4482(5)
H6 H 0.5321 0.4660 0.4719
C7 C 1.4833(7) 0.7087(8) 0.2096(4)
H7 H 1.4948 0.5959 0.2299
C8 C 0.7384(8) 0.4570(8) 0.4608(4)
H8 H 0.7679 0.5560 0.4927
C9 C 1.0491(6) 0.4780(8) 0.3621(4)
C10 C 0.9310(6) 0.2574(10) 0.1538(4)
C11 C 1.3732(7) 0.9808(8) 0.2070(4)
H9 H 1.3105 1.0572 0.2252
N1 N 0.9672(5) 0.3591(6) 0.2275(3)
C12 C 0.9470(7) 0.5902(7) 0.3010(4)
C13 C 0.5505(7) 0.2606(14) 0.4024(5)
H10 H 0.4542 0.2265 0.3941
C14 C 0.8984(7) 0.7659(9) 0.3231(4)
H11 H 0.9811 0.8402 0.3394
H12 H 0.8500 0.7560 0.3695
H13 H 0.8331 0.8140 0.2745
C15 C 1.5433(8) 0.9289(10) 0.1196(4)
H14 H 1.5936 0.9695 0.0799
C16 C 1.0568(7) 0.3225(8) 0.3050(4)
C17 C 0.6471(9) 0.1652(9) 0.3675(5)
H15 H 0.6156 0.0665 0.3359
C18 C 0.9728(8) 0.0880(10) 0.1552(5)
H16 H 1.0258 0.0393 0.2053
C19 C 1.5628(7) 0.7621(12) 0.1506(5)
H17 H 1.6270 0.6873 0.1325
N2 N 0.9038(6) 0.5266(6) 0.2277(3)
C20 C 1.4485(8) 1.0320(8) 0.1490(5)
C21 C 0.8181(9) 0.2288(15) 0.0076(6)
H18 H 0.7631 0.2770 -0.0420
C22 C 0.8539(8) 0.3267(10) 0.0801(5)
H19 H 0.8253 0.4418 0.0788
C23 C 0.8622(10) 0.0625(16) 0.0078(7)
H20 H 0.8423 -0.0015 -0.0424
C24 C 0.9360(10) -0.0113(12) 0.0816(7)
H21 H 0.9615 -0.1275 0.0826
C25 C 1.2746(7) 0.6033(10) 0.3219(4)
H22 H 1.2991 0.5133 0.2894
C26 C 1.3069(7) 0.7585(12) 0.3037(4)
H23 H 1.2751 0.8462 0.3347
loop_
_geom_bond_atom_site_label_1
_geom_bond_atom_site_label_2
_geom_bond_site_symmetry_1
_geom_bond_site_symmetry_2
Br1 C20 1_555 1_555
C1 H1 1_555 1_555
H2 C1 1_555 1_555
C2 H3 1_555 1_555
H4 C2 1_555 1_555
O1 C16 1_555 1_555
C3 C7 1_555 1_555
C4 H5 1_555 1_555
C5 C1 1_555 1_555
C6 H6 1_555 1_555
C7 H7 1_555 1_555
C8 C5 1_555 1_555
H8 C8 1_555 1_555
C9 C1 1_555 1_555
C10 N1 1_555 1_555
C11 C3 1_555 1_555
H9 C11 1_555 1_555
N1 C16 1_555 1_555
C12 C9 1_555 1_555
C13 C6 1_555 1_555
H10 C13 1_555 1_555
C14 C12 1_555 1_555
H11 C14 1_555 1_555
H12 C14 1_555 1_555
H13 C14 1_555 1_555
C15 H14 1_555 1_555
C16 C9 1_555 1_555
C17 C4 1_555 1_555
H15 C17 1_555 1_555
C18 C10 1_555 1_555
H16 C18 1_555 1_555
C19 C7 1_555 1_555
H17 C19 1_555 1_555
N2 N1 1_555 1_555
C20 C11 1_555 1_555
C21 H18 1_555 1_555
C22 C10 1_555 1_555
H19 C22 1_555 1_555
C23 C21 1_555 1_555
H20 C23 1_555 1_555
C24 C18 1_555 1_555
H21 C24 1_555 1_555
C25 C2 1_555 1_555
H22 C25 1_555 1_555
C26 C3 1_555 1_555
H23 C26 1_555 1_555
C2 C9 1_555 1_555
C4 C5 1_555 1_555
C6 C8 1_555 1_555
C12 N2 1_555 1_555
C13 C17 1_555 1_555
C15 C19 1_555 1_555
C15 C20 1_555 1_555
C21 C22 1_555 1_555
C23 C24 1_555 1_555
C25 C26 1_555 1_555

#END
