
#######################################################################
#
#                 Cambridge Crystallographic Data Centre
#                                CCDC 
#
#######################################################################
#
# If this CIF has been generated from an entry in the Cambridge 
# Structural Database, then it will include bibliographic, chemical, 
# crystal, experimental, refinement or atomic coordinate data resulting 
# from the CCDC's data processing and validation procedures.
#
#######################################################################

data_IFICUY
_chemical_formula_moiety         'C15 H16 N2 O2'
_chemical_name_systematic        
'6-[(2,4,6-trimethylphenyl)amino]pyridine-3-carboxylic acid'
_symmetry_cell_setting           orthorhombic
_symmetry_space_group_name_H-M   'P b c a'
_symmetry_Int_Tables_number      61
_space_group_name_Hall           '-P 2ac 2ab'
loop_
_symmetry_equiv_pos_site_id
_symmetry_equiv_pos_as_xyz
1 x,y,z
2 1/2-x,-y,1/2+z
3 1/2+x,1/2-y,-z
4 -x,1/2+y,1/2-z
5 -x,-y,-z
6 1/2+x,y,1/2-z
7 1/2-x,1/2+y,z
8 x,1/2-y,1/2+z
_cell_length_a                   6.4750(1)
_cell_length_b                   13.6795(3)
_cell_length_c                   29.3965(8)
_cell_angle_alpha                90
_cell_angle_beta                 90
_cell_angle_gamma                90
_cell_volume                     2603.79
_exptl_crystal_colour            colorless
_exptl_crystal_description       plate
_cell_formula_units_Z            8
loop_
_atom_site_label
_atom_site_type_symbol
_atom_site_fract_x
_atom_site_fract_y
_atom_site_fract_z
N1 N 0.9565(3) 0.28846(12) 0.71873(5)
C1 C 0.9938(3) 0.37219(15) 0.74040(7)
H1 H 1.022767 0.369217 0.772051
C2 C 0.9930(3) 0.46319(15) 0.71983(7)
C3 C 0.9574(3) 0.46598(15) 0.67300(7)
H2 H 0.961699 0.526539 0.657216
C4 C 0.9163(3) 0.38125(15) 0.64984(7)
H3 H 0.891724 0.382617 0.617985
C5 C 0.9109(3) 0.29214(15) 0.67378(6)
N2 N 0.8649(3) 0.20465(13) 0.65442(6)
H4 H 0.899(4) 0.1519(17) 0.6707(7)
C6 C 0.7851(3) 0.18947(15) 0.60988(6)
C7 C 0.5965(4) 0.23147(16) 0.59660(7)
C8 C 0.5253(4) 0.21211(16) 0.55278(7)
H5 H 0.400976 0.242353 0.542950
C9 C 0.6275(4) 0.15095(16) 0.52308(7)
C10 C 0.8098(4) 0.10767(16) 0.53798(7)
H6 H 0.881178 0.064431 0.518167
C11 C 0.8910(4) 0.12581(16) 0.58106(7)
C12 C 1.0191(3) 0.55012(15) 0.74878(7)
O1 O 1.0292(2) 0.54374(10) 0.79039(5)
O2 O 1.0260(2) 0.63408(11) 0.72685(5)
H7 H 1.032(4) 0.6855(18) 0.7499(9)
C13 C 0.4654(4) 0.29059(17) 0.62902(7)
H8 H 0.450965 0.255120 0.657812
H9 H 0.328566 0.301121 0.615639
H10 H 0.531598 0.353867 0.634646
C14 C 0.5387(4) 0.13004(18) 0.47654(8)
H11 H 0.643711 0.098229 0.457641
H12 H 0.496045 0.191521 0.462232
H13 H 0.418772 0.086827 0.479566
C15 C 1.0876(4) 0.07615(18) 0.59631(8)
H14 H 1.183455 0.125161 0.608358
H15 H 1.151304 0.042764 0.570367
H16 H 1.055468 0.028311 0.620095
loop_
_geom_bond_atom_site_label_1
_geom_bond_atom_site_label_2
_geom_bond_site_symmetry_1
_geom_bond_site_symmetry_2
N1 C1 1_555 1_555
C1 H1 1_555 1_555
C2 C1 1_555 1_555
C3 C2 1_555 1_555
H2 C3 1_555 1_555
C4 C3 1_555 1_555
H3 C4 1_555 1_555
C5 N1 1_555 1_555
N2 C5 1_555 1_555
H4 N2 1_555 1_555
C6 N2 1_555 1_555
C7 C6 1_555 1_555
C8 C7 1_555 1_555
H5 C8 1_555 1_555
C9 C8 1_555 1_555
C10 C9 1_555 1_555
H6 C10 1_555 1_555
C11 C6 1_555 1_555
C12 C2 1_555 1_555
O1 C12 1_555 1_555
O2 C12 1_555 1_555
H7 O2 1_555 1_555
C13 C7 1_555 1_555
H8 C13 1_555 1_555
H9 C13 1_555 1_555
H10 C13 1_555 1_555
C14 C9 1_555 1_555
H11 C14 1_555 1_555
H12 C14 1_555 1_555
H13 C14 1_555 1_555
C15 C11 1_555 1_555
H14 C15 1_555 1_555
H15 C15 1_555 1_555
H16 C15 1_555 1_555
C4 C5 1_555 1_555
C10 C11 1_555 1_555

#END
