
#######################################################################
#
#                 Cambridge Crystallographic Data Centre
#                                CCDC 
#
#######################################################################
#
# If this CIF has been generated from an entry in the Cambridge 
# Structural Database, then it will include bibliographic, chemical, 
# crystal, experimental, refinement or atomic coordinate data resulting 
# from the CCDC's data processing and validation procedures.
#
#######################################################################

data_IFIFOS
_chemical_formula_moiety         'C14 H12 N2 O3'
_chemical_name_systematic        N-(2-Methoxyphenyl)-4-nitrobenzylideneamine
_symmetry_cell_setting           monoclinic
_symmetry_space_group_name_H-M   'P 21/c'
_symmetry_Int_Tables_number      14
_space_group_name_Hall           '-P 2ybc'
loop_
_symmetry_equiv_pos_site_id
_symmetry_equiv_pos_as_xyz
1 x,y,z
2 -x,1/2+y,1/2-z
3 -x,-y,-z
4 x,1/2-y,1/2+z
_cell_length_a                   7.2703(6)
_cell_length_b                   7.2963(8)
_cell_length_c                   24.086(3)
_cell_angle_alpha                90
_cell_angle_beta                 94.517(8)
_cell_angle_gamma                90
_cell_volume                     1273.7
_exptl_crystal_colour            yellow
_exptl_crystal_description       'square plate'
_chemical_melting_point          '430 K'
_cell_formula_units_Z            4
_exptl_crystal_recrystallization_method toluene
loop_
_atom_site_label
_atom_site_type_symbol
_atom_site_fract_x
_atom_site_fract_y
_atom_site_fract_z
O1 O 0.14736(15) 0.40162(15) 0.21935(4)
O2 O -0.22348(18) 1.44504(18) 0.01444(6)
O3 O -0.41247(19) 1.22499(18) -0.00185(7)
N1 N 0.21159(17) 0.62637(16) 0.13563(5)
N2 N -0.2667(2) 1.2858(2) 0.01814(6)
C1 C 0.3174(2) 0.38716(19) 0.19999(6)
C2 C 0.4523(3) 0.2662(2) 0.22012(7)
H1 H 0.4280 0.1839 0.2481
C3 C 0.6231(3) 0.2668(3) 0.19894(8)
H2 H 0.7132 0.1851 0.2130
C4 C 0.6620(3) 0.3858(3) 0.15748(8)
H3 H 0.7780 0.3861 0.1437
C5 C 0.5258(2) 0.5059(2) 0.13624(6)
H4 H 0.5500 0.5846 0.1073
C6 C 0.3551(2) 0.5101(2) 0.15747(6)
C7 C 0.2488(2) 0.7927(2) 0.12665(6)
H5 H 0.3667 0.8358 0.1373
C8 C 0.1131(2) 0.91969(19) 0.10013(6)
C9 C -0.0643(2) 0.8616(2) 0.08222(6)
H6 H -0.0986 0.7409 0.0882
C10 C -0.1890(2) 0.9804(2) 0.05583(6)
H7 H -0.3072 0.9413 0.0437
C11 C -0.1351(2) 1.1588(2) 0.04774(6)
C12 C 0.0377(2) 1.2217(2) 0.06513(6)
H8 H 0.0703 1.3431 0.0595
C13 C 0.1619(2) 1.10074(19) 0.09119(6)
H9 H 0.2800 1.1409 0.1030
C14 C 0.1085(3) 0.2874(3) 0.26450(9)
H10 H 0.1140 0.1614 0.2533
H11 H -0.0127 0.3144 0.2754
H12 H 0.1978 0.3090 0.2953
loop_
_geom_bond_atom_site_label_1
_geom_bond_atom_site_label_2
_geom_bond_site_symmetry_1
_geom_bond_site_symmetry_2
O1 C1 1_555 1_555
O2 N2 1_555 1_555
O3 N2 1_555 1_555
N1 C6 1_555 1_555
N2 C11 1_555 1_555
C1 C2 1_555 1_555
C2 H1 1_555 1_555
C3 C2 1_555 1_555
H2 C3 1_555 1_555
C4 C3 1_555 1_555
H3 C4 1_555 1_555
C5 C4 1_555 1_555
H4 C5 1_555 1_555
C6 C1 1_555 1_555
C7 N1 1_555 1_555
H5 C7 1_555 1_555
C8 C7 1_555 1_555
C9 C8 1_555 1_555
H6 C9 1_555 1_555
C10 C9 1_555 1_555
H7 C10 1_555 1_555
C11 C10 1_555 1_555
C12 C11 1_555 1_555
H8 C12 1_555 1_555
C13 C8 1_555 1_555
H9 C13 1_555 1_555
C14 O1 1_555 1_555
H10 C14 1_555 1_555
H11 C14 1_555 1_555
H12 C14 1_555 1_555
C5 C6 1_555 1_555
C12 C13 1_555 1_555

#END
