
#######################################################################
#
#                 Cambridge Crystallographic Data Centre
#                                CCDC 
#
#######################################################################
#
# If this CIF has been generated from an entry in the Cambridge 
# Structural Database, then it will include bibliographic, chemical, 
# crystal, experimental, refinement or atomic coordinate data resulting 
# from the CCDC's data processing and validation procedures.
#
#######################################################################

data_IFIMUG
_chemical_name_common            
'(2.4)Dibenzo-18-crown-6 2,4-dithiouracil clathrate'
_chemical_formula_moiety         'C20 H24 O6,C4 H4 N2 S2'
_chemical_name_systematic        
'6,7,9,10,12,13,20,21-Octahydrodibenzo(b,h)(1,4,7,10,13,16)hexaoxacyclooctadecine pyrimidine-2,4(1H,3H)-dithione clathrate'
_symmetry_cell_setting           monoclinic
_symmetry_space_group_name_H-M   'P 21/n'
_symmetry_Int_Tables_number      14
_space_group_name_Hall           '-P 2yn'
loop_
_symmetry_equiv_pos_site_id
_symmetry_equiv_pos_as_xyz
1 x,y,z
2 1/2-x,1/2+y,1/2-z
3 -x,-y,-z
4 1/2+x,1/2-y,1/2+z
_cell_length_a                   21.739(4)
_cell_length_b                   9.1700(18)
_cell_length_c                   25.360(5)
_cell_angle_alpha                90
_cell_angle_beta                 90.11(3)
_cell_angle_gamma                90
_cell_volume                     5055.42
_exptl_crystal_colour            yellow
_exptl_crystal_description       prism
_chemical_melting_point          '236-238 deg.C(dec.)'
_cell_formula_units_Z            8
loop_
_atom_site_label
_atom_site_type_symbol
_atom_site_fract_x
_atom_site_fract_y
_atom_site_fract_z
S1 S 0.40254(3) 0.86450(8) 0.74394(2)
S2 S 0.56583(3) 0.83986(11) 0.89756(3)
N1 N 0.47549(8) 0.8498(2) 0.82818(7)
H1 H 0.5032(9) 0.856(3) 0.8061(8)
N2 N 0.37301(8) 0.8370(2) 0.84516(7)
H2 H 0.3374(8) 0.832(3) 0.8345(9)
C21 C 0.41738(9) 0.8503(2) 0.80836(8)
C22 C 0.38496(11) 0.8204(3) 0.89760(9)
H27 H 0.3525 0.8093 0.9210
C23 C 0.44254(10) 0.8198(3) 0.91580(9)
H28 H 0.4499 0.8089 0.9517
C24 C 0.49232(10) 0.8358(3) 0.88059(8)
O1 O 0.24900(7) 0.72692(18) 0.82021(6)
O2 O 0.32841(7) 0.51395(19) 0.86801(6)
O3 O 0.35927(7) 0.52595(18) 0.96698(6)
O4 O 0.35083(7) 0.79550(19) 1.01725(6)
O5 O 0.28907(7) 1.02785(18) 0.95941(6)
O6 O 0.24867(7) 0.99516(18) 0.85309(6)
C1 C 0.24863(11) 0.5743(3) 0.80747(9)
H3 H 0.2346 0.5609 0.7715
H4 H 0.2205 0.5233 0.8307
C2 C 0.31154(12) 0.5128(3) 0.81348(8)
H5 H 0.3124 0.4137 0.8001
H6 H 0.3406 0.5705 0.7933
C3 C 0.37959(10) 0.4343(3) 0.88234(9)
C4 C 0.39515(10) 0.4382(3) 0.93641(9)
C5 C 0.37801(11) 0.5466(3) 1.02088(9)
H7 H 0.4210 0.5743 1.0223
H8 H 0.3729 0.4566 1.0404
C6 C 0.33939(12) 0.6634(3) 1.04455(8)
H9 H 0.2962 0.6377 1.0417
H10 H 0.3495 0.6748 1.0816
C7 C 0.32073(11) 0.9177(3) 1.03996(9)
H11 H 0.3384 0.9392 1.0743
H12 H 0.2773 0.8969 1.0445
C8 C 0.32877(11) 1.0452(3) 1.00398(10)
H13 H 0.3187 1.1347 1.0225
H14 H 0.3712 1.0511 0.9924
C9 C 0.30015(11) 1.1339(3) 0.91985(10)
H15 H 0.3384 1.1126 0.9018
H16 H 0.3035 1.2299 0.9357
C10 C 0.24764(12) 1.1305(3) 0.88155(10)
H17 H 0.2090 1.1400 0.9003
H18 H 0.2511 1.2114 0.8571
C11 C 0.19388(10) 0.9448(3) 0.83348(8)
C12 C 0.19350(10) 0.7995(3) 0.81677(8)
C13 C 0.13959(11) 0.7372(3) 0.79913(9)
H19 H 0.1391 0.6404 0.7882
C14 C 0.08582(12) 0.8200(4) 0.79775(12)
H20 H 0.0492 0.7774 0.7866
C15 C 0.08659(13) 0.9619(4) 0.81252(12)
H21 H 0.0506 1.0167 0.8109
C16 C 0.14048(11) 1.0260(3) 0.83005(10)
H22 H 0.1408 1.1239 0.8396
C17 C 0.41414(13) 0.3489(3) 0.84867(11)
H23 H 0.4053 0.3483 0.8128
C18 C 0.46225(13) 0.2637(3) 0.86811(14)
H24 H 0.4853 0.2062 0.8453
C19 C 0.47544(13) 0.2647(4) 0.92074(14)
H25 H 0.5069 0.2060 0.9337
C20 C 0.44275(11) 0.3517(3) 0.95495(11)
H26 H 0.4527 0.3524 0.9906
S3 S 0.59707(3) 0.86915(8) 0.75046(2)
S4 S 0.44231(3) 0.92996(15) 0.59151(3)
N3 N 0.52845(8) 0.8980(2) 0.66390(7)
H29 H 0.5005(8) 0.891(3) 0.6849(7)
N4 N 0.63162(8) 0.8876(2) 0.65026(7)
H30 H 0.6655(10) 0.875(2) 0.6637(9)
C45 C 0.58526(9) 0.8856(2) 0.68563(8)
C46 C 0.62270(11) 0.8967(3) 0.59718(9)
H55 H 0.6565 0.8943 0.5747
C47 C 0.56650(11) 0.9091(3) 0.57702(9)
H56 H 0.5612 0.9167 0.5407
C48 C 0.51432(11) 0.9110(3) 0.61081(9)
O7 O 0.67298(7) 0.57268(18) 0.62018(6)
O8 O 0.74961(6) 0.74995(18) 0.68417(6)
O9 O 0.76659(7) 1.02029(17) 0.65739(6)
O10 O 0.73549(7) 1.11874(18) 0.55500(6)
O11 O 0.67696(7) 0.91267(19) 0.48642(6)
O12 O 0.66105(7) 0.62381(19) 0.52014(6)
C25 C 0.68094(11) 0.5476(3) 0.67545(8)
H31 H 0.6757 0.4448 0.6832
H32 H 0.6504 0.6019 0.6952
C26 C 0.74378(11) 0.5955(3) 0.69108(9)
H33 H 0.7512 0.5705 0.7277
H34 H 0.7741 0.5457 0.6697
C27 C 0.80642(10) 0.8082(3) 0.69569(8)
C28 C 0.81571(10) 0.9529(3) 0.68135(8)
C29 C 0.77609(12) 1.1663(3) 0.63915(10)
H35 H 0.8160 1.1741 0.6224
H36 H 0.7751 1.2334 0.6687
C30 C 0.72662(12) 1.2038(3) 0.60072(10)
H37 H 0.6866 1.1835 0.6159
H38 H 0.7285 1.3067 0.5920
C31 C 0.69491(11) 1.1558(3) 0.51254(10)
H39 H 0.7042 1.2528 0.4996
H40 H 0.6526 1.1546 0.5246
C32 C 0.70361(10) 1.0463(3) 0.46974(9)
H41 H 0.6839 1.0796 0.4376
H42 H 0.7471 1.0328 0.4628
C33 C 0.69249(11) 0.7932(3) 0.45412(9)
H43 H 0.7350 0.7654 0.4603
H44 H 0.6881 0.8200 0.4173
C34 C 0.65118(12) 0.6685(3) 0.46650(9)
H45 H 0.6086 0.6975 0.4616
H46 H 0.6597 0.5879 0.4429
C35 C 0.62150(10) 0.5234(3) 0.54058(10)
C36 C 0.62535(10) 0.5008(3) 0.59555(10)
C37 C 0.58462(11) 0.4077(3) 0.61997(12)
H47 H 0.5855 0.3966 0.6564
C38 C 0.54189(12) 0.3299(3) 0.58977(15)
H48 H 0.5144 0.2668 0.6061
C39 C 0.54048(13) 0.3464(3) 0.53625(15)
H49 H 0.5131 0.2915 0.5163
C40 C 0.57935(11) 0.4437(3) 0.51157(12)
H50 H 0.5772 0.4557 0.4752
C41 C 0.85347(11) 0.7318(3) 0.71977(10)
H51 H 0.8473 0.6353 0.7297
C42 C 0.90999(13) 0.7978(4) 0.72935(12)
H52 H 0.9415 0.7457 0.7456
C43 C 0.91896(12) 0.9384(4) 0.71494(12)
H53 H 0.9568 0.9824 0.7212
C44 C 0.87194(11) 1.0177(3) 0.69083(10)
H54 H 0.8785 1.1143 0.6811
loop_
_geom_bond_atom_site_label_1
_geom_bond_atom_site_label_2
_geom_bond_site_symmetry_1
_geom_bond_site_symmetry_2
S1 C21 1_555 1_555
S2 C24 1_555 1_555
O1 C1 1_555 1_555
O2 C2 1_555 1_555
O3 C4 1_555 1_555
O4 C6 1_555 1_555
O5 C8 1_555 1_555
O6 C10 1_555 1_555
N1 H1 1_555 1_555
N2 H2 1_555 1_555
C1 H3 1_555 1_555
H4 C1 1_555 1_555
C2 C1 1_555 1_555
H5 C2 1_555 1_555
H6 C2 1_555 1_555
C3 O2 1_555 1_555
C4 C3 1_555 1_555
C5 O3 1_555 1_555
H7 C5 1_555 1_555
H8 C5 1_555 1_555
C6 C5 1_555 1_555
H9 C6 1_555 1_555
H10 C6 1_555 1_555
C7 O4 1_555 1_555
H11 C7 1_555 1_555
H12 C7 1_555 1_555
C8 C7 1_555 1_555
H13 C8 1_555 1_555
H14 C8 1_555 1_555
C9 O5 1_555 1_555
H15 C9 1_555 1_555
H16 C9 1_555 1_555
C10 C9 1_555 1_555
H17 C10 1_555 1_555
H18 C10 1_555 1_555
C11 O6 1_555 1_555
C12 O1 1_555 1_555
C13 C12 1_555 1_555
H19 C13 1_555 1_555
C14 C13 1_555 1_555
H20 C14 1_555 1_555
C15 C14 1_555 1_555
H21 C15 1_555 1_555
C16 C11 1_555 1_555
H22 C16 1_555 1_555
C17 C3 1_555 1_555
H23 C17 1_555 1_555
C18 C17 1_555 1_555
H24 C18 1_555 1_555
C19 C18 1_555 1_555
H25 C19 1_555 1_555
C20 C4 1_555 1_555
H26 C20 1_555 1_555
C21 N1 1_555 1_555
C22 N2 1_555 1_555
H27 C22 1_555 1_555
C23 C22 1_555 1_555
H28 C23 1_555 1_555
C24 N1 1_555 1_555
S3 C45 1_555 1_555
S4 C48 1_555 1_555
O7 C25 1_555 1_555
O8 C26 1_555 1_555
O9 C28 1_555 1_555
O10 C30 1_555 1_555
O11 C32 1_555 1_555
O12 C34 1_555 1_555
N3 H29 1_555 1_555
N4 H30 1_555 1_555
C25 H31 1_555 1_555
H32 C25 1_555 1_555
C26 C25 1_555 1_555
H33 C26 1_555 1_555
H34 C26 1_555 1_555
C27 O8 1_555 1_555
C28 C27 1_555 1_555
C29 O9 1_555 1_555
H35 C29 1_555 1_555
H36 C29 1_555 1_555
C30 C29 1_555 1_555
H37 C30 1_555 1_555
H38 C30 1_555 1_555
C31 O10 1_555 1_555
H39 C31 1_555 1_555
H40 C31 1_555 1_555
C32 C31 1_555 1_555
H41 C32 1_555 1_555
H42 C32 1_555 1_555
C33 O11 1_555 1_555
H43 C33 1_555 1_555
H44 C33 1_555 1_555
C34 C33 1_555 1_555
H45 C34 1_555 1_555
H46 C34 1_555 1_555
C35 O12 1_555 1_555
C36 O7 1_555 1_555
C37 C36 1_555 1_555
H47 C37 1_555 1_555
C38 C37 1_555 1_555
H48 C38 1_555 1_555
C39 C38 1_555 1_555
H49 C39 1_555 1_555
C40 C35 1_555 1_555
H50 C40 1_555 1_555
C41 C27 1_555 1_555
H51 C41 1_555 1_555
C42 C41 1_555 1_555
H52 C42 1_555 1_555
C43 C42 1_555 1_555
H53 C43 1_555 1_555
C44 C28 1_555 1_555
H54 C44 1_555 1_555
C45 N3 1_555 1_555
C46 N4 1_555 1_555
H55 C46 1_555 1_555
C47 C46 1_555 1_555
H56 C47 1_555 1_555
C48 N3 1_555 1_555
N2 C21 1_555 1_555
C11 C12 1_555 1_555
C15 C16 1_555 1_555
C19 C20 1_555 1_555
C23 C24 1_555 1_555
N4 C45 1_555 1_555
C35 C36 1_555 1_555
C39 C40 1_555 1_555
C43 C44 1_555 1_555
C47 C48 1_555 1_555

#END
