
#######################################################################
#
#                 Cambridge Crystallographic Data Centre
#                                CCDC 
#
#######################################################################
#
# If this CIF has been generated from an entry in the Cambridge 
# Structural Database, then it will include bibliographic, chemical, 
# crystal, experimental, refinement or atomic coordinate data resulting 
# from the CCDC's data processing and validation procedures.
#
#######################################################################

data_IFINAN
_chemical_name_common            
'Thia(1.5)dibenzo-18-crown-6 dithiouracil clathrate'
_chemical_formula_moiety         'C20 H24 O5 S1,C4 H4 N2 S2'
_chemical_name_systematic        
'6,7,9,10,12,13,15,16-Octahydrodibenzo(n,q)(1,4,7,10,13,16)pentaoxathiacyclooctadecine pyrimidine-2,4(1H,3H)-dithione clathrate'
_symmetry_cell_setting           monoclinic
_symmetry_space_group_name_H-M   'P 21/c'
_symmetry_Int_Tables_number      14
_space_group_name_Hall           '-P 2ybc'
loop_
_symmetry_equiv_pos_site_id
_symmetry_equiv_pos_as_xyz
1 x,y,z
2 -x,1/2+y,1/2-z
3 -x,-y,-z
4 x,1/2-y,1/2+z
_cell_length_a                   9.0864(18)
_cell_length_b                   17.611(3)
_cell_length_c                   16.400(4)
_cell_angle_alpha                90
_cell_angle_beta                 99.04(3)
_cell_angle_gamma                90
_cell_volume                     2591.74
_exptl_crystal_colour            yellow
_exptl_crystal_description       prism
_chemical_melting_point          '250-252 deg.C(dec.)'
_cell_formula_units_Z            4
loop_
_atom_site_label
_atom_site_type_symbol
_atom_site_fract_x
_atom_site_fract_y
_atom_site_fract_z
S1 S 0.06670(7) 0.10299(3) -0.04535(4)
O1 O 0.0229(2) 0.19216(10) 0.08966(12)
O2 O 0.2868(2) 0.16949(13) 0.20075(15)
O3 O 0.5768(4) 0.1404(2) 0.1746(2)
O5 O 0.5778(3) 0.13838(13) -0.00112(16)
O6 O 0.3131(2) 0.16542(11) -0.12153(13)
C1 C -0.0222(3) 0.19314(13) -0.05425(16)
C2 C -0.0350(3) 0.23029(14) 0.01953(17)
C3 C 0.0583(3) 0.23431(17) 0.16474(18)
H3 H -0.0323 0.2498 0.1845
H4 H 0.1146 0.2795 0.1556
C4 C 0.1485(3) 0.18394(19) 0.22633(19)
H5 H 0.1641 0.2083 0.2801
H6 H 0.0960 0.1365 0.2309
C5 C 0.3718(4) 0.1123(2) 0.2440(3)
H7 H 0.3068 0.0713 0.2553
H8 H 0.4207 0.1323 0.2964
C6 C 0.4848(6) 0.0825(3) 0.1974(4)
H11 H 0.5457 0.0454 0.2310
H12 H 0.4355 0.0571 0.1482
C8 C 0.6953(4) 0.1138(2) 0.1351(3)
H15 H 0.7440 0.0731 0.1688
H16 H 0.7670 0.1548 0.1369
C9 C 0.6667(4) 0.0858(2) 0.0490(3)
H19 H 0.7605 0.0788 0.0288
H20 H 0.6163 0.0371 0.0471
C10 C 0.5696(4) 0.1270(2) -0.0867(2)
H21 H 0.5359 0.0758 -0.1011
H22 H 0.6674 0.1336 -0.1024
C11 C 0.4645(3) 0.1824(2) -0.1311(2)
H23 H 0.4901 0.2330 -0.1101
H24 H 0.4732 0.1818 -0.1893
C12 C 0.2311(3) 0.11542(13) -0.17365(16)
C13 C 0.1024(3) 0.08638(13) -0.14742(17)
C14 C 0.0070(3) 0.04015(16) -0.2003(2)
H25 H -0.0789 0.0212 -0.1834
C15 C 0.0385(4) 0.02188(17) -0.2779(2)
H26 H -0.0265 -0.0086 -0.3133
C16 C 0.1663(4) 0.04916(17) -0.30211(18)
H27 H 0.1882 0.0366 -0.3540
C17 C 0.2628(3) 0.09497(16) -0.25056(18)
H28 H 0.3499 0.1123 -0.2676
C18 C -0.0799(3) 0.22673(16) -0.12854(19)
H29 H -0.0734 0.2019 -0.1779
C19 C -0.1477(4) 0.29754(19) -0.1298(2)
H30 H -0.1858 0.3202 -0.1798
C20 C -0.1583(4) 0.3340(2) -0.0568(2)
H31 H -0.2032 0.3815 -0.0580
C21 C -0.1033(4) 0.30118(17) 0.0179(2)
H32 H -0.1118 0.3261 0.0669
S2 S 0.28035(8) 0.46951(4) -0.05230(5)
S3 S 0.67301(8) 0.35517(5) 0.18595(5)
N1 N 0.4675(2) 0.39741(11) 0.06136(14)
H1 H 0.519(3) 0.4386(13) 0.0654(19)
N2 N 0.4592(2) 0.27304(12) 0.09723(16)
H2 H 0.496(3) 0.2342(18) 0.126(2)
C22 C 0.5287(3) 0.34053(14) 0.11185(16)
C23 C 0.3391(3) 0.26256(14) 0.03790(19)
H33 H 0.2972 0.2144 0.0301
C24 C 0.2794(3) 0.31997(14) -0.00965(17)
H34 H 0.1960 0.3119 -0.0495
C25 C 0.3445(3) 0.39317(13) 0.00132(16)
O4? O 0.5350(10) 0.1124(6) 0.1477(7)
H9? H 0.3346 0.0633 0.2230
H10? H 0.3608 0.1150 0.3018
C7? C 0.5325(15) 0.1184(9) 0.2367(9)
H13? H 0.5732 0.1666 0.2581
H14? H 0.5892 0.0776 0.2665
H17? H 0.7373 0.1646 0.1394
H18? H 0.7574 0.0796 0.1719
loop_
_geom_bond_atom_site_label_1
_geom_bond_atom_site_label_2
_geom_bond_site_symmetry_1
_geom_bond_site_symmetry_2
S1 C1 1_555 1_555
S2 C25 1_555 1_555
S3 C22 1_555 1_555
O1 C2 1_555 1_555
O2 C4 1_555 1_555
O3 C6 1_555 1_555
O5 C9 1_555 1_555
O6 C11 1_555 1_555
N1 H1 1_555 1_555
N2 H2 1_555 1_555
C1 C2 1_555 1_555
C2 C21 1_555 1_555
C3 O1 1_555 1_555
H3 C3 1_555 1_555
H4 C3 1_555 1_555
C4 C3 1_555 1_555
H5 C4 1_555 1_555
H6 C4 1_555 1_555
C5 O2 1_555 1_555
H7 C5 1_555 1_555
H8 C5 1_555 1_555
C6 C5 1_555 1_555
H11 C6 1_555 1_555
H12 C6 1_555 1_555
C8 O3 1_555 1_555
H15 C8 1_555 1_555
H16 C8 1_555 1_555
C9 C8 1_555 1_555
H19 C9 1_555 1_555
H20 C9 1_555 1_555
C10 O5 1_555 1_555
H21 C10 1_555 1_555
H22 C10 1_555 1_555
C11 C10 1_555 1_555
H23 C11 1_555 1_555
H24 C11 1_555 1_555
C12 O6 1_555 1_555
C13 S1 1_555 1_555
C14 C13 1_555 1_555
H25 C14 1_555 1_555
C15 C14 1_555 1_555
H26 C15 1_555 1_555
C16 C15 1_555 1_555
H27 C16 1_555 1_555
C17 C12 1_555 1_555
H28 C17 1_555 1_555
C18 C1 1_555 1_555
H29 C18 1_555 1_555
C19 C18 1_555 1_555
H30 C19 1_555 1_555
C20 C19 1_555 1_555
H31 C20 1_555 1_555
C21 C20 1_555 1_555
H32 C21 1_555 1_555
C22 N1 1_555 1_555
C23 N2 1_555 1_555
H33 C23 1_555 1_555
C24 C23 1_555 1_555
H34 C24 1_555 1_555
C25 N1 1_555 1_555
N2 C22 1_555 1_555
C12 C13 1_555 1_555
C16 C17 1_555 1_555
C24 C25 1_555 1_555

#END
