
#######################################################################
#
#                 Cambridge Crystallographic Data Centre
#                                CCDC 
#
#######################################################################
#
# If this CIF has been generated from an entry in the Cambridge 
# Structural Database, then it will include bibliographic, chemical, 
# crystal, experimental, refinement or atomic coordinate data resulting 
# from the CCDC's data processing and validation procedures.
#
#######################################################################

data_IFINER
_chemical_name_common            
'4-Nitrobenzo-18-crown-6 2,4-dithiouracil clathrate monohydrate'
_chemical_formula_moiety         'C16 H23 N1 O8,C4 H4 N2 S2,H2 O1'
_chemical_name_systematic        
'18-Nitro-2,3,5,6,8,9,11,12,14,15-decahydro-1,4,7,10,13,16-benzohexaoxacyclooctadecine pyrimidine-2,4(1H,3H)-dithione clathrate monohydrate'
_symmetry_cell_setting           triclinic
_symmetry_space_group_name_H-M   'P -1'
_symmetry_Int_Tables_number      2
_space_group_name_Hall           '-P 1'
loop_
_symmetry_equiv_pos_site_id
_symmetry_equiv_pos_as_xyz
1 x,y,z
2 -x,-y,-z
_cell_length_a                   7.2210(14)
_cell_length_b                   11.535(2)
_cell_length_c                   15.025(3)
_cell_angle_alpha                91.14(3)
_cell_angle_beta                 95.94(3)
_cell_angle_gamma                92.81(3)
_cell_volume                     1242.89
_exptl_crystal_colour            yellow
_exptl_crystal_description       prism
_chemical_melting_point          '253-254 deg.C(dec.)'
_cell_formula_units_Z            2
loop_
_atom_site_label
_atom_site_type_symbol
_atom_site_fract_x
_atom_site_fract_y
_atom_site_fract_z
S1 S -0.0331(2) 0.81489(8) 0.50159(6)
S2 S 0.07193(18) 1.14590(8) 0.74946(7)
N1 N 0.0265(4) 0.9652(2) 0.63950(17)
H1 H 0.024(5) 1.015(2) 0.5982(18)
N2 N 0.0215(5) 0.7734(2) 0.6753(2)
H2 H 0.010(6) 0.701(2) 0.655(3)
C1 C 0.0623(5) 1.0045(3) 0.7262(2)
C2 C 0.0853(6) 0.9150(3) 0.7898(2)
H3 H 0.1162 0.9339 0.8502
C3 C 0.0623(6) 0.8038(3) 0.7624(2)
H4 H 0.0749 0.7460 0.8046
C4 C 0.0064(5) 0.8521(3) 0.6093(2)
O1 O 0.6640(4) 0.8319(2) 0.85014(18)
C5 C 0.7124(7) 0.8881(4) 0.9347(3)
H5 H 0.6023 0.9178 0.9572
H6 H 0.8013 0.9527 0.9294
C6 C 0.7960(7) 0.8013(5) 0.9974(3)
H7 H 0.8020 0.8305 1.0586
H8 H 0.7202 0.7292 0.9921
O2 O 0.9763(4) 0.7819(2) 0.97488(17)
C7 C 1.0677(7) 0.6985(4) 1.0300(3)
H9 H 0.9828 0.6321 1.0364
H10 H 1.1060 0.7323 1.0890
C8 C 1.2335(6) 0.6607(4) 0.9884(3)
H11 H 1.3099 0.7281 0.9745
H12 H 1.3080 0.6141 1.0300
O3 O 1.1751(4) 0.5944(2) 0.90847(17)
C9 C 1.3235(6) 0.5468(4) 0.8680(3)
H13 H 1.3989 0.5036 0.9117
H14 H 1.4022 0.6088 0.8470
C10 C 1.2491(7) 0.4687(4) 0.7918(3)
H15 H 1.3455 0.4183 0.7768
H16 H 1.1459 0.4203 0.8092
O4 O 1.1879(4) 0.5317(2) 0.71606(18)
C11 C 1.1065(6) 0.4606(3) 0.6426(3)
H17 H 1.1656 0.3869 0.6438
H18 H 1.1295 0.4979 0.5872
C12 C 0.9035(6) 0.4392(3) 0.6443(3)
H19 H 0.8547 0.3842 0.5970
H20 H 0.8774 0.4073 0.7013
O5 O 0.8186(4) 0.54761(19) 0.63178(17)
C13 C 0.6246(6) 0.5383(3) 0.6317(3)
H21 H 0.5928 0.5089 0.6885
H22 H 0.5713 0.4841 0.5846
C14 C 0.5462(6) 0.6553(3) 0.6167(3)
H23 H 0.6032 0.6939 0.5689
H24 H 0.4126 0.6471 0.6002
O6 O 0.5865(4) 0.72221(19) 0.69980(16)
C15 C 0.5618(5) 0.8376(3) 0.6975(3)
C16 C 0.6065(5) 0.8974(3) 0.7780(3)
C17 C 0.5964(6) 1.0183(3) 0.7814(3)
H25 H 0.6278 1.0603 0.8348
C18 C 0.5395(6) 1.0728(3) 0.7048(4)
C19 C 0.4867(6) 1.0151(4) 0.6254(4)
H26 H 0.4437 1.0551 0.5749
C20 C 0.4983(6) 0.8962(3) 0.6217(3)
H27 H 0.4634 0.8552 0.5681
N3 N 0.5366(6) 1.2022(4) 0.7073(5)
O7 O 0.5746(6) 1.2508(3) 0.7814(4)
O8 O 0.4959(6) 1.2511(3) 0.6378(4)
O9 O 0.7725(6) 0.5606(4) 0.8563(3)
H28 H 0.8613 0.5635 0.8971
H29 H 0.8048 0.5599 0.7987
loop_
_geom_bond_atom_site_label_1
_geom_bond_atom_site_label_2
_geom_bond_site_symmetry_1
_geom_bond_site_symmetry_2
S1 C4 1_555 1_555
S2 C1 1_555 1_555
N1 H1 1_555 1_555
N2 H2 1_555 1_555
C1 N1 1_555 1_555
C2 C1 1_555 1_555
H3 C2 1_555 1_555
C3 N2 1_555 1_555
H4 C3 1_555 1_555
C4 N1 1_555 1_555
O1 C5 1_555 1_555
C5 H5 1_555 1_555
H6 C5 1_555 1_555
C6 C5 1_555 1_555
H7 C6 1_555 1_555
H8 C6 1_555 1_555
O2 C6 1_555 1_555
C7 O2 1_555 1_555
H9 C7 1_555 1_555
H10 C7 1_555 1_555
C8 C7 1_555 1_555
H11 C8 1_555 1_555
H12 C8 1_555 1_555
O3 C8 1_555 1_555
C9 O3 1_555 1_555
H13 C9 1_555 1_555
H14 C9 1_555 1_555
C10 C9 1_555 1_555
H15 C10 1_555 1_555
H16 C10 1_555 1_555
O4 C10 1_555 1_555
C11 O4 1_555 1_555
H17 C11 1_555 1_555
H18 C11 1_555 1_555
C12 C11 1_555 1_555
H19 C12 1_555 1_555
H20 C12 1_555 1_555
O5 C12 1_555 1_555
C13 O5 1_555 1_555
H21 C13 1_555 1_555
H22 C13 1_555 1_555
C14 C13 1_555 1_555
H23 C14 1_555 1_555
H24 C14 1_555 1_555
O6 C14 1_555 1_555
C15 O6 1_555 1_555
C16 O1 1_555 1_555
C17 C16 1_555 1_555
H25 C17 1_555 1_555
C18 C17 1_555 1_555
C19 C18 1_555 1_555
H26 C19 1_555 1_555
C20 C15 1_555 1_555
H27 C20 1_555 1_555
N3 C18 1_555 1_555
O7 N3 1_555 1_555
O8 N3 1_555 1_555
O9 H28 1_555 1_555
H29 O9 1_555 1_555
N2 C4 1_555 1_555
C2 C3 1_555 1_555
C15 C16 1_555 1_555
C19 C20 1_555 1_555

#END
