
#######################################################################
#
#                 Cambridge Crystallographic Data Centre
#                                CCDC 
#
#######################################################################
#
# If this CIF has been generated from an entry in the Cambridge 
# Structural Database, then it will include bibliographic, chemical, 
# crystal, experimental, refinement or atomic coordinate data resulting 
# from the CCDC's data processing and validation procedures.
#
#######################################################################

data_IFITUO
_chemical_formula_moiety         'C37 H38 N4 O2'
_chemical_name_systematic        
"Methyl 1-(2-(cyclohex-1-en-1-yl)ethyl)-2-(5'H-spiro[cyclohexane-1,6'-indolo[1,2-a]quinoxalin]-3'-yl)-1H-benzimidazole-5-carboxylate"
_symmetry_cell_setting           triclinic
_symmetry_space_group_name_H-M   'P -1'
_symmetry_Int_Tables_number      2
_space_group_name_Hall           '-P 1'
loop_
_symmetry_equiv_pos_site_id
_symmetry_equiv_pos_as_xyz
1 x,y,z
2 -x,-y,-z
_cell_length_a                   12.5922(8)
_cell_length_b                   12.7786(8)
_cell_length_c                   20.2689(12)
_cell_angle_alpha                82.6340(10)
_cell_angle_beta                 72.8850(10)
_cell_angle_gamma                75.9930(10)
_cell_volume                     3018.65
_cell_formula_units_Z            4
loop_
_atom_site_label
_atom_site_type_symbol
_atom_site_fract_x
_atom_site_fract_y
_atom_site_fract_z
C1 C 0.1741(2) 0.3135(2) 0.1549(1)
C2 C 0.2546(2) 0.2886(2) 0.2377(1)
C3 C 0.2803(2) 0.2804(2) 0.3008(1)
C4 C 0.3919(2) 0.2352(2) 0.3020(1)
C5 C 0.4764(2) 0.2013(2) 0.2415(1)
C6 C 0.4532(2) 0.2106(2) 0.1787(1)
C7 C 0.3405(2) 0.2534(2) 0.1782(1)
C8 C 0.4198(2) 0.2245(2) 0.3694(1)
C9 C 0.5574(2) 0.1507(2) 0.4296(1)
C10 C 0.3532(2) 0.2616(2) 0.0525(1)
C11 C 0.3938(2) 0.1458(2) 0.0304(1)
C12 C 0.4754(2) 0.1401(2) -0.0413(1)
C13 C 0.5923(2) 0.1577(3) -0.0483(1)
C14 C 0.6773(2) 0.1278(3) -0.1176(2)
C15 C 0.6244(2) 0.1682(3) -0.1753(1)
C16 C 0.5200(3) 0.1194(2) -0.1682(1)
C17 C 0.0873(2) 0.3395(2) 0.1166(1)
C18 C 0.0953(2) 0.2848(2) 0.0596(1)
C19 C 0.0076(2) 0.3092(2) 0.0280(1)
C20 C -0.0886(2) 0.3878(2) 0.0525(1)
C21 C -0.1834(2) 0.4110(2) -0.0455(1)
C22 C -0.0983(2) 0.3735(2) -0.1042(1)
C23 C -0.1266(2) 0.3818(2) -0.1658(1)
C24 C -0.2371(2) 0.4286(2) -0.1700(1)
C25 C -0.3208(2) 0.4680(2) -0.1125(1)
C26 C -0.2959(2) 0.4582(2) -0.0485(1)
C27 C -0.3605(2) 0.4922(2) 0.0190(1)
C28 C -0.2893(2) 0.4682(2) 0.0603(1)
C29 C -0.3065(2) 0.4832(2) 0.1355(1)
C30 C -0.1010(2) 0.4398(2) 0.1125(1)
C31 C -0.0121(2) 0.4161(2) 0.1432(1)
C32 C -0.4097(2) 0.5747(2) 0.1615(1)
C33 C -0.4433(2) 0.5827(2) 0.2402(1)
C34 C -0.4600(2) 0.4759(2) 0.2790(1)
C35 C -0.3536(2) 0.3873(2) 0.2561(1)
C36 C -0.3243(2) 0.3762(2) 0.1780(1)
C37 C 0.4449(2) 0.1213(2) -0.0951(1)
N1 N 0.1506(2) 0.3251(2) 0.2221(1)
N2 N 0.2884(2) 0.2705(2) 0.1254(1)
N3 N -0.1808(2) 0.4177(2) 0.0225(1)
N4 N -0.2022(2) 0.5136(2) 0.1387(1)
O1 O 0.3564(2) 0.2629(2) 0.4217(1)
O2 O 0.5255(1) 0.1654(1) 0.3658(1)
H1 H 0.2235 0.3049 0.3416
H2 H 0.5519 0.1709 0.2441
H3 H 0.5110 0.1891 0.1376
H4 H 0.5462 0.2214 0.4476
H5 H 0.6377 0.1138 0.4212
H6 H 0.5101 0.1070 0.4635
H7 H 0.4202 0.2941 0.0440
H8 H 0.3050 0.3037 0.0233
H9 H 0.4321 0.1004 0.0637
H10 H 0.3274 0.1167 0.0310
H11 H 0.6218 0.1141 -0.0109
H12 H 0.5863 0.2347 -0.0420
H13 H 0.7443 0.1595 -0.1242
H14 H 0.7036 0.0483 -0.1180
H15 H 0.6814 0.1493 -0.2198
H16 H 0.6003 0.2480 -0.1756
H17 H 0.4756 0.1612 -0.1996
H18 H 0.5464 0.0440 -0.1822
H19 H 0.1611 0.2307 0.0422
H20 H 0.0138 0.2714 -0.0109
H21 H -0.0227 0.3430 -0.1019
H22 H -0.0700 0.3551 -0.2061
H23 H -0.2546 0.4334 -0.2130
H24 H -0.3951 0.5017 -0.1160
H25 H -0.4391 0.5256 0.0324
H26 H -0.0188 0.4524 0.1828
H27 H -0.4752 0.5629 0.1481
H28 H -0.3923 0.6441 0.1385
H29 H -0.3831 0.6066 0.2530
H30 H -0.5147 0.6379 0.2542
H31 H -0.5255 0.4556 0.2703
H32 H -0.4772 0.4834 0.3293
H33 H -0.3667 0.3179 0.2812
H34 H -0.2890 0.4053 0.2675
H35 H -0.3867 0.3526 0.1676
H36 H -0.2542 0.3197 0.1638
H37 H 0.3709 0.1081 -0.0871
H38 H -0.2039 0.5739 0.1560
C38 C 0.7943(2) 0.7520(2) 0.2313(1)
C39 C 0.8146(2) 0.8042(2) 0.1655(1)
C40 C 0.7884(2) 0.9162(2) 0.1607(1)
C41 C 0.7379(2) 0.9752(2) 0.2201(1)
C42 C 0.7125(2) 0.9248(2) 0.2852(1)
C43 C 0.7436(2) 0.8120(2) 0.2899(1)
C44 C 0.8171(2) 0.9709(2) 0.0906(1)
C45 C 0.8282(3) 1.1357(2) 0.0255(2)
C46 C 0.7048(2) 0.7645(2) 0.4181(1)
C47 C 0.7874(1) 0.8251(1) 0.4300(1)
C48 C 0.7787(1) 0.5340(1) 0.3604(1)
C49 C 0.8720(1) 0.4473(1) 0.3424(1)
C50 C 0.8705(2) 0.3453(2) 0.3758(1)
C51 C 0.9344(2) 0.1509(2) 0.3638(1)
C52 C 0.8589(2) 0.1376(2) 0.4357(1)
C53 C 0.8443(2) 0.0479(2) 0.4783(1)
C54 C 0.7495(2) 0.0802(2) 0.5369(1)
C55 C 0.6938(2) 0.0227(2) 0.5949(1)
C56 C 0.6033(2) 0.0777(2) 0.6433(1)
C57 C 0.5687(2) 0.1901(2) 0.6362(1)
C58 C 0.6219(2) 0.2496(2) 0.5795(1)
C59 C 0.7105(2) 0.1934(2) 0.5283(1)
C60 C 0.7733(2) 0.3311(2) 0.4300(1)
C61 C 0.6793(2) 0.4163(2) 0.4462(1)
C62 C 0.6814(2) 0.5174(2) 0.4119(1)
C63 C 1.0439(2) 0.0630(2) 0.3526(1)
C64 C 1.1173(2) 0.0612(2) 0.2775(1)
C65 C 1.0511(2) 0.0552(2) 0.2267(1)
C66 C 0.9437(2) 0.1459(2) 0.2364(1)
C67 C 0.8699(2) 0.1422(2) 0.3110(1)
C68 C 0.7794(2) 0.6374(2) 0.3188(1)
N5 N 0.8158(2) 0.6424(2) 0.2506(1)
N6 N 0.7341(2) 0.7372(2) 0.3457(1)
N7 N 0.9620(2) 0.2583(2) 0.3576(1)
N8 N 0.7778(2) 0.2274(2) 0.4647(1)
O3 O 0.8618(2) 0.9242(1) 0.0378(1)
O4 O 0.7893(2) 1.0788(1) 0.0917(1)
C69 C 0.9072(8) 0.7655(5) 0.4129(4)
C70 C 0.9390(8) 0.6671(6) 0.4632(4)
C71 C 1.0689(6) 0.6313(6) 0.4531(4)
C72 C 1.1339(4) 0.6223(4) 0.3759(3)
C73 C 1.1120(5) 0.7346(4) 0.3377(3)
C74 C 0.9890(5) 0.7899(4) 0.3575(3)
H39 H 0.8454 0.7643 0.1252
H40 H 0.7210 1.0519 0.2152
H41 H 0.6754 0.9648 0.3251
H42 H 0.9112 1.1255 0.0131
H43 H 0.7934 1.2129 0.0287
H44 H 0.8063 1.1071 -0.0100
H45 H 0.7056 0.6973 0.4484
H46 H 0.6268 0.8098 0.4309
H47 H 0.7824 0.8943 0.4017
H48 H 0.7633 0.8423 0.4792
H49 H 0.9375 0.4583 0.3067
H50 H 0.8888 -0.0232 0.4707
H51 H 0.7182 -0.0534 0.6008
H52 H 0.5637 0.0388 0.6821
H53 H 0.5073 0.2265 0.6711
H54 H 0.5991 0.3261 0.5754
H55 H 0.6129 0.4052 0.4810
H56 H 0.6169 0.5751 0.4235
H57 H 1.0891 0.0746 0.3825
H58 H 1.0237 -0.0083 0.3670
H59 H 1.1487 0.1273 0.2656
H60 H 1.1821 -0.0018 0.2730
H61 H 1.0293 -0.0156 0.2339
H62 H 1.1000 0.0615 0.1789
H63 H 0.9657 0.2167 0.2246
H64 H 0.8997 0.1379 0.2049
H65 H 0.8432 0.0736 0.3213
H66 H 0.8021 0.2023 0.3162
H67 H 1.0327 0.2668 0.3433
H68 H 0.9014 0.6869 0.5115
H69 H 0.9100 0.6057 0.4553
H70 H 1.0949 0.6844 0.4728
H71 H 1.0861 0.5605 0.4784
H72 H 1.1075 0.5701 0.3556
H73 H 1.2164 0.5959 0.3708
H74 H 1.1572 0.7802 0.3486
H75 H 1.1378 0.7264 0.2872
H76 H 0.9661 0.8489 0.3275
C75? C 0.9120(40) 0.7450(30) 0.4251(19)
C76? C 0.9270(40) 0.6970(30) 0.4800(20)
C77? C 1.0330(30) 0.6120(30) 0.4560(20)
C78? C 1.1200(20) 0.6680(20) 0.4183(14)
C79? C 1.0980(30) 0.6970(20) 0.3498(15)
C80? C 0.9730(30) 0.7590(20) 0.3646(16)
H77? H 0.8616 0.6644 0.5054
H78? H 1.0540 0.5693 0.4967
H79? H 1.1962 0.6216 0.4140
H80? H 1.1090 0.6306 0.3255
H81? H 0.9448 0.8053 0.3303
H82? H 0.9376 0.7470 0.5096
H83? H 1.0212 0.5624 0.4267
H84? H 1.1138 0.7343 0.4412
H85? H 1.1496 0.7422 0.3208
loop_
_geom_bond_atom_site_label_1
_geom_bond_atom_site_label_2
_geom_bond_site_symmetry_1
_geom_bond_site_symmetry_2
C1 C17 1_555 1_555
C2 C3 1_555 1_555
C3 C4 1_555 1_555
C4 C5 1_555 1_555
C5 C6 1_555 1_555
C6 C7 1_555 1_555
C7 C2 1_555 1_555
C8 C4 1_555 1_555
C9 O2 1_555 1_555
C10 C11 1_555 1_555
C11 C12 1_555 1_555
C12 C13 1_555 1_555
C13 C14 1_555 1_555
C14 C15 1_555 1_555
C15 C16 1_555 1_555
C16 C37 1_555 1_555
C17 C18 1_555 1_555
C18 C19 1_555 1_555
C19 C20 1_555 1_555
C20 C30 1_555 1_555
C21 C22 1_555 1_555
C22 C23 1_555 1_555
C23 C24 1_555 1_555
C24 C25 1_555 1_555
C25 C26 1_555 1_555
C26 C21 1_555 1_555
C27 C26 1_555 1_555
C28 C27 1_555 1_555
C29 C28 1_555 1_555
C30 C31 1_555 1_555
C31 C17 1_555 1_555
C32 C29 1_555 1_555
C33 C32 1_555 1_555
C34 C33 1_555 1_555
C35 C34 1_555 1_555
C36 C29 1_555 1_555
C37 C12 1_555 1_555
N1 C1 1_555 1_555
N2 C1 1_555 1_555
N3 C20 1_555 1_555
N4 C29 1_555 1_555
O1 C8 1_555 1_555
O2 C8 1_555 1_555
H1 C3 1_555 1_555
H2 C5 1_555 1_555
H3 C6 1_555 1_555
H4 C9 1_555 1_555
H5 C9 1_555 1_555
H6 C9 1_555 1_555
H7 C10 1_555 1_555
H8 C10 1_555 1_555
H9 C11 1_555 1_555
H10 C11 1_555 1_555
H11 C13 1_555 1_555
H12 C13 1_555 1_555
H13 C14 1_555 1_555
H14 C14 1_555 1_555
H15 C15 1_555 1_555
H16 C15 1_555 1_555
H17 C16 1_555 1_555
H18 C16 1_555 1_555
H19 C18 1_555 1_555
H20 C19 1_555 1_555
H21 C22 1_555 1_555
H22 C23 1_555 1_555
H23 C24 1_555 1_555
H24 C25 1_555 1_555
H25 C27 1_555 1_555
H26 C31 1_555 1_555
H27 C32 1_555 1_555
H28 C32 1_555 1_555
H29 C33 1_555 1_555
H30 C33 1_555 1_555
H31 C34 1_555 1_555
H32 C34 1_555 1_555
H33 C35 1_555 1_555
H34 C35 1_555 1_555
H35 C36 1_555 1_555
H36 C36 1_555 1_555
H37 C37 1_555 1_555
H38 N4 1_555 1_555
C38 C39 1_555 1_555
C39 C40 1_555 1_555
C40 C41 1_555 1_555
C41 C42 1_555 1_555
C42 C43 1_555 1_555
C43 C38 1_555 1_555
C44 C40 1_555 1_555
C45 O4 1_555 1_555
C46 C47 1_555 1_555
C47 C69 1_555 1_555
C48 C49 1_555 1_555
C49 C50 1_555 1_555
C50 C60 1_555 1_555
C51 C52 1_555 1_555
C52 C53 1_555 1_555
C53 C54 1_555 1_555
C54 C55 1_555 1_555
C55 C56 1_555 1_555
C56 C57 1_555 1_555
C57 C58 1_555 1_555
C58 C59 1_555 1_555
C59 C54 1_555 1_555
C60 C61 1_555 1_555
C61 C62 1_555 1_555
C62 C48 1_555 1_555
C63 C51 1_555 1_555
C64 C63 1_555 1_555
C65 C64 1_555 1_555
C66 C65 1_555 1_555
C67 C51 1_555 1_555
C68 C48 1_555 1_555
N5 C38 1_555 1_555
N6 C43 1_555 1_555
N7 C50 1_555 1_555
N8 C52 1_555 1_555
O3 C44 1_555 1_555
O4 C44 1_555 1_555
C69 C70 1_555 1_555
C70 C71 1_555 1_555
C71 C72 1_555 1_555
C72 C73 1_555 1_555
C73 C74 1_555 1_555
C74 C69 1_555 1_555
H39 C39 1_555 1_555
H40 C41 1_555 1_555
H41 C42 1_555 1_555
H42 C45 1_555 1_555
H43 C45 1_555 1_555
H44 C45 1_555 1_555
H45 C46 1_555 1_555
H46 C46 1_555 1_555
H47 C47 1_555 1_555
H48 C47 1_555 1_555
H49 C49 1_555 1_555
H50 C53 1_555 1_555
H51 C55 1_555 1_555
H52 C56 1_555 1_555
H53 C57 1_555 1_555
H54 C58 1_555 1_555
H55 C61 1_555 1_555
H56 C62 1_555 1_555
H57 C63 1_555 1_555
H58 C63 1_555 1_555
H59 C64 1_555 1_555
H60 C64 1_555 1_555
H61 C65 1_555 1_555
H62 C65 1_555 1_555
H63 C66 1_555 1_555
H64 C66 1_555 1_555
H65 C67 1_555 1_555
H66 C67 1_555 1_555
H67 N7 1_555 1_555
H68 C70 1_555 1_555
H69 C70 1_555 1_555
H70 C71 1_555 1_555
H71 C71 1_555 1_555
H72 C72 1_555 1_555
H73 C72 1_555 1_555
H74 C73 1_555 1_555
H75 C73 1_555 1_555
H76 C74 1_555 1_555
C2 N1 1_555 1_555
C7 N2 1_555 1_555
C10 N2 1_555 1_555
C21 N3 1_555 1_555
C28 N3 1_555 1_555
C30 N4 1_555 1_555
C35 C36 1_555 1_555
C46 N6 1_555 1_555
C51 N7 1_555 1_555
C59 N8 1_555 1_555
C60 N8 1_555 1_555
C66 C67 1_555 1_555
C68 N5 1_555 1_555
C68 N6 1_555 1_555

#END
