
#######################################################################
#
#                 Cambridge Crystallographic Data Centre
#                                CCDC 
#
#######################################################################
#
# If this CIF has been generated from an entry in the Cambridge 
# Structural Database, then it will include bibliographic, chemical, 
# crystal, experimental, refinement or atomic coordinate data resulting 
# from the CCDC's data processing and validation procedures.
#
#######################################################################

data_IFIWOL
_chemical_formula_moiety         'C17 H16 O2'
_chemical_name_systematic        
3,6-Dimethyl-3-(4-methylphenyl)-1-benzofuran-2(3H)-one
_symmetry_cell_setting           monoclinic
_symmetry_space_group_name_H-M   'P 21'
_symmetry_Int_Tables_number      4
_space_group_name_Hall           'P 2yb'
loop_
_symmetry_equiv_pos_site_id
_symmetry_equiv_pos_as_xyz
1 x,y,z
2 -x,1/2+y,-z
_cell_length_a                   5.91330(10)
_cell_length_b                   11.6063(3)
_cell_length_c                   9.9179(2)
_cell_angle_alpha                90
_cell_angle_beta                 94.063(2)
_cell_angle_gamma                90
_cell_volume                     678.97
_cell_formula_units_Z            2
loop_
_atom_site_label
_atom_site_type_symbol
_atom_site_fract_x
_atom_site_fract_y
_atom_site_fract_z
O1 O 0.41236(16) 0.26814(11) 0.87372(10)
O2 O 0.58638(18) 0.11240(11) 0.80075(11)
C1 C 0.37630(19) 0.21435(11) 0.53142(12)
C2 C 0.4465(3) 0.32872(14) 0.33560(15)
H1 H 0.4143 0.3942 0.2837
C3 C 0.25880(19) 0.19261(11) 0.66183(13)
C4 C 0.5315(2) 0.13360(12) 0.48813(14)
H2 H 0.5593 0.0664 0.5376
C5 C 0.2178(2) 0.33067(13) 0.83177(13)
C6 C 0.1299(3) 0.41771(14) 0.90662(15)
H3 H 0.2019 0.4415 0.9883
C7 C 0.1214(2) 0.29199(11) 0.70965(13)
C8 C 0.1214(2) 0.07953(13) 0.65141(17)
H4 H 0.0123 0.0835 0.5751
H5 H 0.0443 0.0688 0.7325
H6 H 0.2222 0.0160 0.6402
C9 C -0.1718(2) 0.43089(15) 0.73190(16)
H7 H -0.3055 0.4656 0.6976
C10 C 0.6056(2) 0.25047(14) 0.29446(13)
C11 C 0.4398(2) 0.18255(13) 0.78120(13)
C12 C -0.0713(3) 0.46861(15) 0.85502(16)
C13 C -0.0787(2) 0.34285(13) 0.65833(15)
H8 H -0.1492 0.3186 0.5764
C14 C 0.3343(2) 0.31149(12) 0.45234(14)
H9 H 0.2298 0.3658 0.4777
C15 C -0.1820(4) 0.56235(18) 0.9335(2)
H10 H -0.2307 0.6236 0.8731
H11 H -0.0749 0.5917 1.0022
H12 H -0.3106 0.5312 0.9748
C16 C 0.7346(3) 0.2724(2) 0.17072(18)
H13 H 0.8861 0.2967 0.1982
H14 H 0.6596 0.3317 0.1168
H15 H 0.7400 0.2029 0.1186
C17 C 0.6440(2) 0.15267(14) 0.37247(15)
H16 H 0.7481 0.0983 0.3465
loop_
_geom_bond_atom_site_label_1
_geom_bond_atom_site_label_2
_geom_bond_site_symmetry_1
_geom_bond_site_symmetry_2
O1 C5 1_555 1_555
O2 C11 1_555 1_555
C1 C3 1_555 1_555
C2 H1 1_555 1_555
C3 C7 1_555 1_555
C4 C1 1_555 1_555
H2 C4 1_555 1_555
C5 C6 1_555 1_555
C6 H3 1_555 1_555
C7 C5 1_555 1_555
C8 C3 1_555 1_555
H4 C8 1_555 1_555
H5 C8 1_555 1_555
H6 C8 1_555 1_555
C9 H7 1_555 1_555
C10 C2 1_555 1_555
C11 O1 1_555 1_555
C12 C6 1_555 1_555
C13 C7 1_555 1_555
H8 C13 1_555 1_555
C14 C1 1_555 1_555
H9 C14 1_555 1_555
C15 C12 1_555 1_555
H10 C15 1_555 1_555
H11 C15 1_555 1_555
H12 C15 1_555 1_555
C16 C10 1_555 1_555
H13 C16 1_555 1_555
H14 C16 1_555 1_555
H15 C16 1_555 1_555
C17 C4 1_555 1_555
H16 C17 1_555 1_555
C2 C14 1_555 1_555
C3 C11 1_555 1_555
C9 C12 1_555 1_555
C9 C13 1_555 1_555
C10 C17 1_555 1_555

#END
