
#######################################################################
#
#                 Cambridge Crystallographic Data Centre
#                                CCDC 
#
#######################################################################
#
# If this CIF has been generated from an entry in the Cambridge 
# Structural Database, then it will include bibliographic, chemical, 
# crystal, experimental, refinement or atomic coordinate data resulting 
# from the CCDC's data processing and validation procedures.
#
#######################################################################

data_IFIYUU
_chemical_formula_moiety         'C37 H36 O4'
_chemical_name_systematic        
syn-4-(3,5-di-t-butyl-4-hydroxyphenyl)-2-phenyl-2H,4H-spiro[1-benzopyran-3,2'-indene]-1',3'-dione
_symmetry_cell_setting           monoclinic
_symmetry_space_group_name_H-M   'P 21/n'
_symmetry_Int_Tables_number      14
_space_group_name_Hall           '-P 2yn'
loop_
_symmetry_equiv_pos_site_id
_symmetry_equiv_pos_as_xyz
1 x,y,z
2 1/2-x,1/2+y,1/2-z
3 -x,-y,-z
4 1/2+x,1/2-y,1/2+z
_cell_length_a                   11.9079(6)
_cell_length_b                   20.1683(11)
_cell_length_c                   12.5382(7)
_cell_angle_alpha                90
_cell_angle_beta                 98.030(2)
_cell_angle_gamma                90
_cell_volume                     2981.68
_exptl_crystal_colour            red
_exptl_crystal_description       block
_cell_formula_units_Z            4
loop_
_atom_site_label
_atom_site_type_symbol
_atom_site_fract_x
_atom_site_fract_y
_atom_site_fract_z
O1 O 0.58789(10) 0.64545(6) 0.55523(9)
O2 O 0.53615(11) 0.53856(6) 0.84574(10)
O3 O 0.37931(10) 0.71554(6) 0.62519(10)
O4 O -0.01943(12) 0.53652(9) 0.75818(14)
H1 H -0.024489 0.568533 0.800100
C1 C 0.73257(15) 0.65448(10) 0.82453(14)
H2 H 0.742880 0.608640 0.840372
C2 C 0.79186(16) 0.70159(11) 0.89084(15)
H3 H 0.842810 0.687793 0.951934
C3 C 0.77731(16) 0.76828(10) 0.86866(15)
H4 H 0.818018 0.800283 0.914369
C4 C 0.70310(16) 0.78842(10) 0.77944(16)
H5 H 0.692749 0.834320 0.764149
C5 C 0.64394(15) 0.74175(9) 0.71246(15)
H6 H 0.593620 0.755760 0.651075
C6 C 0.65805(14) 0.67450(9) 0.73489(14)
C7 C 0.59075(14) 0.62343(9) 0.66434(13)
H7 H 0.632807 0.580412 0.672663
C8 C 0.47097(14) 0.61211(8) 0.69423(13)
C9 C 0.47924(14) 0.58571(9) 0.81020(14)
C10 C 0.40502(14) 0.62654(9) 0.86905(14)
C11 C 0.37777(16) 0.61758(10) 0.97263(15)
H8 H 0.409634 0.582276 1.017092
C12 C 0.30255(17) 0.66199(11) 1.00841(16)
H9 H 0.282278 0.656974 1.078602
C13 C 0.25594(17) 0.71402(11) 0.94317(17)
H10 H 0.204388 0.743683 0.969698
C14 C 0.28360(15) 0.72311(10) 0.84049(15)
H11 H 0.252295 0.758682 0.796326
C15 C 0.35875(14) 0.67840(9) 0.80421(14)
C16 C 0.39984(14) 0.67558(8) 0.69738(14)
C17 C 0.40869(14) 0.55959(8) 0.61516(13)
H12 H 0.449281 0.516561 0.631166
C18 C 0.42101(14) 0.57725(8) 0.50024(14)
C19 C 0.34661(15) 0.55247(9) 0.41278(14)
H13 H 0.284205 0.525903 0.426190
C20 C 0.36171(15) 0.56572(9) 0.30751(14)
H14 H 0.310618 0.548016 0.249534
C21 C 0.45214(16) 0.60511(9) 0.28704(15)
H15 H 0.462712 0.614616 0.214899
C22 C 0.52645(15) 0.63036(9) 0.37145(14)
H16 H 0.588215 0.657318 0.357553
C23 C 0.51079(14) 0.61628(9) 0.47721(14)
C24 C 0.28809(14) 0.54952(8) 0.63926(14)
C25 C 0.26894(15) 0.50128(9) 0.71313(14)
H17 H 0.328095 0.470926 0.737173
C26 C 0.16617(16) 0.49554(10) 0.75358(15)
C27 C 0.08153(15) 0.54110(11) 0.71528(16)
C28 C 0.09488(15) 0.58908(10) 0.63656(15)
C29 C 0.20048(14) 0.59201(9) 0.60075(14)
H18 H 0.212679 0.624195 0.548244
C30 C 0.15189(18) 0.44227(11) 0.83949(17)
C31 C 0.1369(2) 0.47646(13) 0.94581(18)
H19 H 0.206313 0.500627 0.973234
H20 H 0.121493 0.443019 0.998609
H21 H 0.073156 0.507579 0.933543
C32 C 0.2572(2) 0.39769(12) 0.8620(2)
H22 H 0.271693 0.376576 0.794900
H23 H 0.244119 0.363478 0.914428
H24 H 0.322923 0.424588 0.891171
C33 C 0.0502(3) 0.39715(15) 0.8017(2)
H25 H -0.019371 0.423698 0.791145
H26 H 0.044043 0.363068 0.856332
H27 H 0.061113 0.375879 0.733662
C34 C 0.00044(15) 0.63871(11) 0.59318(17)
C35 C -0.02510(19) 0.68580(13) 0.6837(2)
H28 H -0.046980 0.659731 0.743484
H29 H -0.087290 0.715655 0.655906
H30 H 0.042729 0.711921 0.709274
C36 C -0.10772(18) 0.60188(14) 0.5424(2)
H31 H -0.089009 0.571971 0.485869
H32 H -0.164425 0.634190 0.511141
H33 H -0.138329 0.576119 0.598050
C37 C 0.03717(18) 0.68281(13) 0.5046(2)
H34 H 0.103370 0.709116 0.534398
H35 H -0.025211 0.712555 0.476857
H36 H 0.056806 0.654932 0.445896
loop_
_geom_bond_atom_site_label_1
_geom_bond_atom_site_label_2
_geom_bond_site_symmetry_1
_geom_bond_site_symmetry_2
O1 C7 1_555 1_555
O2 C9 1_555 1_555
O3 C16 1_555 1_555
O4 H1 1_555 1_555
C1 H2 1_555 1_555
C2 C1 1_555 1_555
H3 C2 1_555 1_555
C3 C2 1_555 1_555
H4 C3 1_555 1_555
C4 C3 1_555 1_555
H5 C4 1_555 1_555
C5 C4 1_555 1_555
H6 C5 1_555 1_555
C6 C1 1_555 1_555
C7 C6 1_555 1_555
H7 C7 1_555 1_555
C8 C7 1_555 1_555
C9 C8 1_555 1_555
C10 C9 1_555 1_555
C11 C10 1_555 1_555
H8 C11 1_555 1_555
C12 C11 1_555 1_555
H9 C12 1_555 1_555
C13 C12 1_555 1_555
H10 C13 1_555 1_555
C14 C13 1_555 1_555
H11 C14 1_555 1_555
C15 C10 1_555 1_555
C16 C8 1_555 1_555
C17 C8 1_555 1_555
H12 C17 1_555 1_555
C18 C17 1_555 1_555
C19 C18 1_555 1_555
H13 C19 1_555 1_555
C20 C19 1_555 1_555
H14 C20 1_555 1_555
C21 C20 1_555 1_555
H15 C21 1_555 1_555
C22 C21 1_555 1_555
H16 C22 1_555 1_555
C23 O1 1_555 1_555
C24 C17 1_555 1_555
C25 C24 1_555 1_555
H17 C25 1_555 1_555
C26 C25 1_555 1_555
C27 O4 1_555 1_555
C28 C27 1_555 1_555
C29 C24 1_555 1_555
H18 C29 1_555 1_555
C30 C26 1_555 1_555
C31 C30 1_555 1_555
H19 C31 1_555 1_555
H20 C31 1_555 1_555
H21 C31 1_555 1_555
C32 C30 1_555 1_555
H22 C32 1_555 1_555
H23 C32 1_555 1_555
H24 C32 1_555 1_555
C33 C30 1_555 1_555
H25 C33 1_555 1_555
H26 C33 1_555 1_555
H27 C33 1_555 1_555
C34 C28 1_555 1_555
C35 C34 1_555 1_555
H28 C35 1_555 1_555
H29 C35 1_555 1_555
H30 C35 1_555 1_555
C36 C34 1_555 1_555
H31 C36 1_555 1_555
H32 C36 1_555 1_555
H33 C36 1_555 1_555
C37 C34 1_555 1_555
H34 C37 1_555 1_555
H35 C37 1_555 1_555
H36 C37 1_555 1_555
C5 C6 1_555 1_555
C14 C15 1_555 1_555
C15 C16 1_555 1_555
C18 C23 1_555 1_555
C22 C23 1_555 1_555
C26 C27 1_555 1_555
C28 C29 1_555 1_555

#END
