
#######################################################################
#
#                 Cambridge Crystallographic Data Centre
#                                CCDC 
#
#######################################################################
#
# If this CIF has been generated from an entry in the Cambridge 
# Structural Database, then it will include bibliographic, chemical, 
# crystal, experimental, refinement or atomic coordinate data resulting 
# from the CCDC's data processing and validation procedures.
#
#######################################################################

data_IFOLAT
_chemical_formula_moiety         'C22 H24 F1 N1 O2 S1'
_chemical_name_systematic        
4-fluoro-9,9-dimethyl-2-[(4-methylphenyl)sulfonyl]-1,2,3,9,10,10a-hexahydrobenzo[4,5]cyclohepta[1,2-c]pyrrole
_symmetry_cell_setting           triclinic
_symmetry_space_group_name_H-M   'P -1'
_symmetry_Int_Tables_number      2
_space_group_name_Hall           '-P 1'
loop_
_symmetry_equiv_pos_site_id
_symmetry_equiv_pos_as_xyz
1 x,y,z
2 -x,-y,-z
_cell_length_a                   6.2637(9)
_cell_length_b                   11.6536(11)
_cell_length_c                   13.7124(15)
_cell_angle_alpha                72.602(9)
_cell_angle_beta                 87.821(10)
_cell_angle_gamma                87.697(10)
_cell_volume                     954.014
_cell_formula_units_Z            2
loop_
_atom_site_label
_atom_site_type_symbol
_atom_site_fract_x
_atom_site_fract_y
_atom_site_fract_z
C1 C 0.3100(5) 0.4955(3) 0.8524(2)
H1 H 0.3949 0.4461 0.8167
H2 H 0.4068 0.5298 0.8912
C2 C -0.0488(5) 0.4253(3) 0.8602(2)
H3 H -0.1807 0.4408 0.8969
H4 H -0.0601 0.3477 0.8453
C3 C -0.0101(5) 0.5264(3) 0.7638(2)
C4 C -0.1181(5) 0.5374(3) 0.6804(3)
C5 C -0.1065(5) 0.6173(3) 0.5735(2)
C6 C -0.2385(6) 0.5884(4) 0.5052(3)
H5 H -0.3281 0.5214 0.5299
C7 C -0.2441(7) 0.6532(4) 0.4033(3)
H6 H -0.3374 0.6320 0.3589
C8 C -0.1140(8) 0.7481(5) 0.3674(3)
H7 H -0.1156 0.7935 0.2972
C9 C 0.0218(7) 0.7791(4) 0.4331(3)
H8 H 0.1127 0.8451 0.4061
C10 C 0.0294(5) 0.7167(3) 0.5372(2)
C11 C 0.1721(5) 0.7638(3) 0.6041(2)
C12 C 0.2987(5) 0.6603(3) 0.6810(2)
H9 H 0.3486 0.6012 0.6455
H10 H 0.4270 0.6943 0.7005
C13 C 0.1773(5) 0.5945(3) 0.7773(2)
H11 H 0.1264 0.6545 0.8128
C14 C 0.0263(6) 0.8338(3) 0.6613(3)
H12 H -0.0400 0.9037 0.6118
H13 H 0.1117 0.8609 0.7081
H14 H -0.0853 0.7812 0.7003
C15 C 0.3400(7) 0.8489(4) 0.5421(3)
H15 H 0.4300 0.8073 0.5025
H16 H 0.4290 0.8746 0.5886
H17 H 0.2690 0.9195 0.4955
C16 C 0.3100(5) 0.1995(3) 0.9454(2)
C17 C 0.5197(5) 0.2076(3) 0.9092(3)
H18 H 0.6108 0.2651 0.9211
C18 C 0.5941(5) 0.1300(3) 0.8553(3)
H19 H 0.7375 0.1358 0.8295
C19 C 0.4669(6) 0.0447(3) 0.8379(2)
C20 C 0.2604(6) 0.0360(3) 0.8775(2)
H20 H 0.1724 -0.0246 0.8690
C21 C 0.1789(5) 0.1145(3) 0.9295(2)
H21 H 0.0345 0.1099 0.9539
C22 C 0.5519(7) -0.0363(3) 0.7772(3)
H22 H 0.5243 0.0017 0.7046
H23 H 0.4807 -0.1134 0.8009
H24 H 0.7062 -0.0498 0.7866
F1 F -0.2758(3) 0.45445(19) 0.69375(15)
N1 N 0.1415(4) 0.4251(2) 0.91976(19)
O1 O 0.3748(4) 0.3298(2) 1.06354(18)
O2 O 0.0119(4) 0.2544(2) 1.06027(16)
S1 S 0.20610(14) 0.30192(8) 1.00842(6)
loop_
_geom_bond_atom_site_label_1
_geom_bond_atom_site_label_2
_geom_bond_site_symmetry_1
_geom_bond_site_symmetry_2
C1 H1 1_555 1_555
H2 C1 1_555 1_555
C2 H3 1_555 1_555
H4 C2 1_555 1_555
C3 C2 1_555 1_555
C4 C3 1_555 1_555
C5 C4 1_555 1_555
C6 C5 1_555 1_555
H5 C6 1_555 1_555
C7 C6 1_555 1_555
H6 C7 1_555 1_555
C8 C7 1_555 1_555
H7 C8 1_555 1_555
C9 C8 1_555 1_555
H8 C9 1_555 1_555
C10 C5 1_555 1_555
C11 C10 1_555 1_555
C12 C11 1_555 1_555
H9 C12 1_555 1_555
H10 C12 1_555 1_555
C13 C1 1_555 1_555
H11 C13 1_555 1_555
C14 C11 1_555 1_555
H12 C14 1_555 1_555
H13 C14 1_555 1_555
H14 C14 1_555 1_555
C15 C11 1_555 1_555
H15 C15 1_555 1_555
H16 C15 1_555 1_555
H17 C15 1_555 1_555
C16 C17 1_555 1_555
C17 H18 1_555 1_555
C18 C17 1_555 1_555
H19 C18 1_555 1_555
C19 C18 1_555 1_555
C20 C19 1_555 1_555
H20 C20 1_555 1_555
C21 C16 1_555 1_555
H21 C21 1_555 1_555
C22 C19 1_555 1_555
H22 C22 1_555 1_555
H23 C22 1_555 1_555
H24 C22 1_555 1_555
F1 C4 1_555 1_555
N1 C1 1_555 1_555
O1 S1 1_555 1_555
O2 S1 1_555 1_555
S1 C16 1_555 1_555
C2 N1 1_555 1_555
C3 C13 1_555 1_555
C9 C10 1_555 1_555
C12 C13 1_555 1_555
C20 C21 1_555 1_555
N1 S1 1_555 1_555

#END
