
#######################################################################
#
#                 Cambridge Crystallographic Data Centre
#                                CCDC 
#
#######################################################################
#
# If this CIF has been generated from an entry in the Cambridge 
# Structural Database, then it will include bibliographic, chemical, 
# crystal, experimental, refinement or atomic coordinate data resulting 
# from the CCDC's data processing and validation procedures.
#
#######################################################################

data_IFONAU
_chemical_formula_moiety         'C16 H36 Mg1 N3 O1 1+,C24 B1 F20 1-'
_chemical_name_systematic        
"Allyl-(N-(2-(dimethylamino)ethyl)-N,N',N'-trimethylethane-1,2-diamine)-tetrahydrofuran-magnesium tetrakis(pentafluorophenyl)borate"
_symmetry_cell_setting           monoclinic
_symmetry_space_group_name_H-M   'P 21/c'
_symmetry_Int_Tables_number      14
_space_group_name_Hall           '-P 2ybc'
loop_
_symmetry_equiv_pos_site_id
_symmetry_equiv_pos_as_xyz
1 x,y,z
2 -x,1/2+y,1/2-z
3 -x,-y,-z
4 x,1/2-y,1/2+z
_cell_length_a                   8.4208(11)
_cell_length_b                   16.265(2)
_cell_length_c                   30.417(4)
_cell_angle_alpha                90
_cell_angle_beta                 90.652(3)
_cell_angle_gamma                90
_cell_volume                     4165.77
_exptl_crystal_colour            colorless
_exptl_crystal_description       plate
_cell_formula_units_Z            4
loop_
_atom_site_label
_atom_site_type_symbol
_atom_site_fract_x
_atom_site_fract_y
_atom_site_fract_z
Mg1 Mg 0.56711(11) 0.15629(6) 0.11415(3)
O1 O 0.5741(2) 0.07247(12) 0.16782(7)
N1 N 0.6855(3) 0.25435(14) 0.15192(8)
N2 N 0.6636(3) 0.23398(15) 0.05739(8)
N3 N 0.6695(3) 0.05770(15) 0.07116(8)
C1 C 0.3126(4) 0.1811(2) 0.11245(12)
H1 H 0.274(4) 0.1797(19) 0.1416(11)
H2 H 0.301(3) 0.2377(19) 0.1021(9)
C2 C 0.2309(4) 0.1207(2) 0.08555(11)
H3 H 0.207(4) 0.069(2) 0.1014(10)
C3 C 0.1892(4) 0.1244(2) 0.04352(13)
H4 H 0.145(5) 0.077(2) 0.0286(12)
H5 H 0.207(4) 0.172(2) 0.0268(11)
C4 C 0.5860(4) 0.2756(2) 0.19063(10)
H6 H 0.5878 0.2299 0.2116
H7 H 0.4764 0.2857 0.1808
H8 H 0.6284 0.3251 0.2049
C5 C 0.8493(4) 0.2393(2) 0.16750(11)
H9 H 0.9136 0.2195 0.1430
H10 H 0.8485 0.1978 0.1909
H11 H 0.8947 0.2906 0.1790
C6 C 0.6859(4) 0.32455(18) 0.12108(10)
H12 H 0.7473 0.3705 0.1342
H13 H 0.5756 0.3437 0.1161
C7 C 0.7589(4) 0.30058(19) 0.07723(10)
H14 H 0.7603 0.3487 0.0573
H15 H 0.8697 0.2818 0.0819
C8 C 0.5350(4) 0.2706(2) 0.03099(11)
H16 H 0.4702 0.3060 0.0497
H17 H 0.4686 0.2269 0.0184
H18 H 0.5805 0.3035 0.0072
C9 C 0.7609(4) 0.17856(19) 0.02907(10)
H19 H 0.8694 0.1732 0.0416
H20 H 0.7691 0.2021 -0.0008
C10 C 0.6824(4) 0.09507(19) 0.02677(10)
H21 H 0.5751 0.1007 0.0135
H22 H 0.7453 0.0584 0.0077
C11 C 0.5655(4) -0.01570(19) 0.06821(11)
H23 H 0.4596 0.0008 0.0578
H24 H 0.5573 -0.0411 0.0973
H25 H 0.6109 -0.0553 0.0476
C12 C 0.8259(4) 0.0287(2) 0.08574(11)
H26 H 0.8701 -0.0079 0.0634
H27 H 0.8156 -0.0013 0.1135
H28 H 0.8968 0.0759 0.0901
C13 C 0.6979(4) 0.04458(19) 0.19706(10)
H29 H 0.6982 0.0765 0.2248
H30 H 0.8032 0.0498 0.1832
C14 C 0.6582(4) -0.04454(19) 0.20558(10)
H31 H 0.7047 -0.0634 0.2339
H32 H 0.6972 -0.0802 0.1816
C15 C 0.4776(4) -0.0446(2) 0.20701(11)
H33 H 0.4337 -0.0940 0.1923
H34 H 0.4403 -0.0433 0.2377
C16 C 0.4288(4) 0.0320(2) 0.18294(13)
H35 H 0.3594 0.0179 0.1575
H36 H 0.3695 0.0690 0.2027
F1 F 0.3041(2) 0.02008(10) 0.35923(6)
F2 F 0.0852(2) -0.01141(12) 0.29908(6)
F3 F 0.0306(2) 0.09785(13) 0.23302(6)
F4 F 0.2042(2) 0.23870(11) 0.22850(6)
F5 F 0.4254(2) 0.27084(10) 0.28690(5)
F6 F 0.7394(2) 0.14708(10) 0.43469(5)
F7 F 0.9617(2) 0.03293(11) 0.44617(6)
F8 F 0.9793(2) -0.09893(11) 0.39109(7)
F9 F 0.7828(2) -0.10789(11) 0.32115(7)
F10 F 0.5716(2) 0.00759(11) 0.30619(6)
F11 F 0.5857(2) 0.30552(10) 0.42694(5)
F12 F 0.8100(2) 0.41529(11) 0.41339(6)
F13 F 0.9841(2) 0.41610(11) 0.33731(6)
F14 F 0.9319(2) 0.29746(12) 0.27573(6)
F15 F 0.7118(2) 0.18239(10) 0.28946(5)
F16 F 0.4613(2) 0.04482(11) 0.44551(6)
F17 F 0.2447(2) 0.06429(12) 0.50729(6)
F18 F 0.0379(2) 0.19180(13) 0.50560(6)
F19 F 0.0663(2) 0.30765(11) 0.44074(6)
F20 F 0.2913(2) 0.29336(10) 0.37901(6)
B1 B 0.5111(4) 0.1594(2) 0.36580(11)
C17 C 0.3823(3) 0.14572(17) 0.32589(9)
C18 C 0.2856(4) 0.07646(18) 0.32698(10)
C19 C 0.1697(4) 0.05909(19) 0.29669(11)
C20 C 0.1422(4) 0.1140(2) 0.26348(10)
C21 C 0.2293(4) 0.18462(19) 0.26081(10)
C22 C 0.3476(3) 0.19862(18) 0.29198(10)
C23 C 0.6386(3) 0.08302(18) 0.37078(10)
C24 C 0.7462(3) 0.08471(18) 0.40529(10)
C25 C 0.8601(4) 0.02605(19) 0.41215(11)
C26 C 0.8713(4) -0.03993(19) 0.38438(11)
C27 C 0.7701(4) -0.04492(19) 0.34934(11)
C28 C 0.6607(4) 0.01657(18) 0.34315(10)
C29 C 0.6309(4) 0.23888(17) 0.35817(10)
C30 C 0.6648(4) 0.30004(18) 0.38801(9)
C31 C 0.7828(4) 0.35833(18) 0.38219(10)
C32 C 0.8721(4) 0.35839(18) 0.34407(11)
C33 C 0.8458(4) 0.2983(2) 0.31329(10)
C34 C 0.7283(4) 0.24094(18) 0.32089(10)
C35 C 0.3923(3) 0.16914(18) 0.40896(10)
C36 C 0.3702(4) 0.11331(18) 0.44247(10)
C37 C 0.2554(4) 0.1204(2) 0.47537(10)
C38 C 0.1524(4) 0.1853(2) 0.47465(10)
C39 C 0.1663(4) 0.2431(2) 0.44182(10)
C40 C 0.2840(4) 0.23435(18) 0.41044(10)
loop_
_geom_bond_atom_site_label_1
_geom_bond_atom_site_label_2
_geom_bond_site_symmetry_1
_geom_bond_site_symmetry_2
Mg1 O1 1_555 1_555
O1 C13 1_555 1_555
N1 Mg1 1_555 1_555
N2 Mg1 1_555 1_555
N3 Mg1 1_555 1_555
C1 Mg1 1_555 1_555
H1 C1 1_555 1_555
H2 C1 1_555 1_555
C2 C1 1_555 1_555
H3 C2 1_555 1_555
C3 C2 1_555 1_555
H4 C3 1_555 1_555
H5 C3 1_555 1_555
C4 N1 1_555 1_555
H6 C4 1_555 1_555
H7 C4 1_555 1_555
H8 C4 1_555 1_555
C5 N1 1_555 1_555
H9 C5 1_555 1_555
H10 C5 1_555 1_555
H11 C5 1_555 1_555
C6 N1 1_555 1_555
H12 C6 1_555 1_555
H13 C6 1_555 1_555
C7 N2 1_555 1_555
H14 C7 1_555 1_555
H15 C7 1_555 1_555
C8 N2 1_555 1_555
H16 C8 1_555 1_555
H17 C8 1_555 1_555
H18 C8 1_555 1_555
C9 N2 1_555 1_555
H19 C9 1_555 1_555
H20 C9 1_555 1_555
C10 N3 1_555 1_555
H21 C10 1_555 1_555
H22 C10 1_555 1_555
C11 N3 1_555 1_555
H23 C11 1_555 1_555
H24 C11 1_555 1_555
H25 C11 1_555 1_555
C12 N3 1_555 1_555
H26 C12 1_555 1_555
H27 C12 1_555 1_555
H28 C12 1_555 1_555
C13 H29 1_555 1_555
H30 C13 1_555 1_555
C14 C13 1_555 1_555
H31 C14 1_555 1_555
H32 C14 1_555 1_555
C15 C14 1_555 1_555
H33 C15 1_555 1_555
H34 C15 1_555 1_555
C16 O1 1_555 1_555
H35 C16 1_555 1_555
H36 C16 1_555 1_555
F1 C18 1_555 1_555
F2 C19 1_555 1_555
F3 C20 1_555 1_555
F4 C21 1_555 1_555
F5 C22 1_555 1_555
F6 C24 1_555 1_555
F7 C25 1_555 1_555
F8 C26 1_555 1_555
F9 C27 1_555 1_555
F10 C28 1_555 1_555
F11 C30 1_555 1_555
F12 C31 1_555 1_555
F13 C32 1_555 1_555
F14 C33 1_555 1_555
F15 C34 1_555 1_555
F16 C36 1_555 1_555
F17 C37 1_555 1_555
F18 C38 1_555 1_555
F19 C39 1_555 1_555
F20 C40 1_555 1_555
B1 C17 1_555 1_555
C17 C18 1_555 1_555
C18 C19 1_555 1_555
C19 C20 1_555 1_555
C20 C21 1_555 1_555
C21 C22 1_555 1_555
C22 C17 1_555 1_555
C23 B1 1_555 1_555
C24 C23 1_555 1_555
C25 C24 1_555 1_555
C26 C25 1_555 1_555
C27 C26 1_555 1_555
C28 C23 1_555 1_555
C29 B1 1_555 1_555
C30 C29 1_555 1_555
C31 C30 1_555 1_555
C32 C31 1_555 1_555
C33 C32 1_555 1_555
C34 C29 1_555 1_555
C35 B1 1_555 1_555
C36 C35 1_555 1_555
C37 C36 1_555 1_555
C38 C37 1_555 1_555
C39 C38 1_555 1_555
C40 C35 1_555 1_555
C6 C7 1_555 1_555
C9 C10 1_555 1_555
C15 C16 1_555 1_555
C27 C28 1_555 1_555
C33 C34 1_555 1_555
C39 C40 1_555 1_555

#END
