
#######################################################################
#
#                 Cambridge Crystallographic Data Centre
#                                CCDC 
#
#######################################################################
#
# If this CIF has been generated from an entry in the Cambridge 
# Structural Database, then it will include bibliographic, chemical, 
# crystal, experimental, refinement or atomic coordinate data resulting 
# from the CCDC's data processing and validation procedures.
#
#######################################################################

data_IFONIC
_chemical_formula_moiety         'C12 H20 Mg1 2-,2(C4 H8 O1),2(K1 1+)'
_chemical_name_systematic        
'di-potassium tetrakis(allyl)-magnesium tetrahydrofuran solvate'
_symmetry_cell_setting           monoclinic
_symmetry_space_group_name_H-M   'P 21/c'
_symmetry_Int_Tables_number      14
_space_group_name_Hall           '-P 2ybc'
loop_
_symmetry_equiv_pos_site_id
_symmetry_equiv_pos_as_xyz
1 x,y,z
2 -x,1/2+y,1/2-z
3 -x,-y,-z
4 x,1/2-y,1/2+z
_cell_length_a                   9.832(4)
_cell_length_b                   14.414(5)
_cell_length_c                   17.010(6)
_cell_angle_alpha                90
_cell_angle_beta                 91.683(6)
_cell_angle_gamma                90
_cell_volume                     2409.59
_exptl_crystal_colour            colorless
_exptl_crystal_description       block
_cell_formula_units_Z            4
loop_
_atom_site_label
_atom_site_type_symbol
_atom_site_fract_x
_atom_site_fract_y
_atom_site_fract_z
K1 K 0.76580(11) 0.67189(7) 0.13024(6)
K2 K 1.26936(12) 0.58460(7) 0.30020(7)
Mg1 Mg 0.78394(18) 0.74467(11) 0.32233(10)
C1 C 0.9700(6) 0.6651(4) 0.2877(3)
H1 H 1.0332 0.6622 0.3340
H2 H 0.9418 0.6007 0.2752
C2 C 1.0450(6) 0.7001(4) 0.2220(4)
H3 H 1.0760 0.7622 0.2277
C3 C 1.0769(6) 0.6600(5) 0.1559(4)
H4 H 1.0496 0.5979 0.1456
H5 H 1.1274 0.6931 0.1182
C4 C 0.5853(6) 0.6688(4) 0.3032(4)
H6 H 0.6047 0.6014 0.3030
H7 H 0.5278 0.6814 0.3488
C5 C 0.5065(8) 0.6910(6) 0.2320(5)
H8 H 0.4761 0.7534 0.2281
C6 C 0.4712(8) 0.6379(7) 0.1725(5)
H9 H 0.4979 0.5746 0.1722
H10 H 0.4189 0.6627 0.1296
C7 C 0.772(3) 0.8882(17) 0.2648(15)
H11 H 0.6839 0.8956 0.2848
H12 H 0.8491 0.8839 0.2999
C8 C 0.7915(11) 0.8833(5) 0.1764(7)
H13 H 0.8813 0.8759 0.1583
C9 C 0.687(5) 0.889(5) 0.121(4)
H14 H 0.5965 0.8963 0.1375
H15 H 0.7064 0.8853 0.0670
C10 C 0.8075(17) 0.7762(9) 0.4471(10)
H16 H 0.7624 0.7189 0.4553
H17 H 0.9010 0.7767 0.4346
C11 C 0.7340(12) 0.8622(8) 0.4534(5)
H18 H 0.7823 0.9182 0.4447
C12 C 0.599(2) 0.8690(15) 0.4710(13)
H19 H 0.5474 0.8144 0.4800
H20 H 0.5570 0.9282 0.4742
O1 O 0.8101(5) 0.4894(3) 0.1399(3)
C13 C 0.711(2) 0.4190(11) 0.1749(10)
H21 H 0.7330 0.4083 0.2313
H22 H 0.6159 0.4418 0.1696
C14 C 0.728(3) 0.332(2) 0.1292(13)
H23 H 0.7931 0.2898 0.1564
H24 H 0.6397 0.2996 0.1215
C15 C 0.781(2) 0.3635(18) 0.0528(13)
H25 H 0.7078 0.3885 0.0176
H26 H 0.8294 0.3132 0.0256
C16 C 0.8795(14) 0.4405(9) 0.0826(9)
H27 H 0.9641 0.4130 0.1053
H28 H 0.9036 0.4822 0.0389
O2 O 1.2481(5) 0.6207(2) 0.4557(2)
C17 C 1.1262(16) 0.5828(11) 0.4950(9)
H29 H 1.0584 0.6324 0.5032
H30 H 1.0831 0.5331 0.4628
C18 C 1.178(4) 0.5456(14) 0.571(2)
H31 H 1.2020 0.4792 0.5665
H32 H 1.1087 0.5523 0.6121
C19 C 1.304(2) 0.6041(11) 0.5915(13)
H33 H 1.2802 0.6616 0.6200
H34 H 1.3725 0.5687 0.6227
C20 C 1.351(3) 0.625(2) 0.5094(19)
H35 H 1.3926 0.6870 0.5084
H36 H 1.4217 0.5789 0.4954
C21? C 0.783(3) 0.8815(19) 0.2578(19)
H37? H 0.8770 0.8861 0.2481
H38? H 0.7524 0.8776 0.3102
C22? C 0.6825(18) 0.8804(8) 0.1912(10)
H39? H 0.5878 0.8758 0.2001
C23? C 0.726(7) 0.886(6) 0.122(6)
H40? H 0.8209 0.8902 0.1136
H41? H 0.6636 0.8850 0.0780
C24? C 0.810(4) 0.722(3) -0.039(2)
H42? H 0.8837 0.6795 -0.0418
H43? H 0.8259 0.7866 -0.0398
C25? C 0.6704(16) 0.6864(13) -0.0342(7)
H44? H 0.5996 0.7311 -0.0317
C26? C 0.634(3) 0.5977(18) -0.0329(18)
H45? H 0.7012 0.5506 -0.0353
H46? H 0.5407 0.5814 -0.0296
C27? C 0.7858(19) 0.4416(14) 0.2014(12)
H47? H 0.7357 0.4784 0.2402
H48? H 0.8708 0.4175 0.2264
C28? C 0.700(2) 0.365(2) 0.168(2)
H49? H 0.7049 0.3098 0.2023
H50? H 0.6042 0.3850 0.1616
C29? C 0.758(5) 0.345(2) 0.091(3)
H51? H 0.8277 0.2953 0.0953
H52? H 0.6862 0.3256 0.0522
C30? C 0.817(3) 0.430(2) 0.070(2)
H53? H 0.7649 0.4587 0.0250
H54? H 0.9121 0.4216 0.0544
C31? C 1.142(3) 0.6118(16) 0.495(2)
H55? H 1.0809 0.5661 0.4691
H56? H 1.0938 0.6719 0.4967
C32? C 1.174(6) 0.580(3) 0.578(3)
H57? H 1.1501 0.6285 0.6169
H58? H 1.1251 0.5222 0.5905
C33? C 1.317(3) 0.566(2) 0.5774(19)
H59? H 1.3605 0.5935 0.6252
H60? H 1.3366 0.4983 0.5782
C34? C 1.374(5) 0.606(3) 0.510(3)
H61? H 1.4402 0.5630 0.4861
H62? H 1.4201 0.6651 0.5231
loop_
_geom_bond_atom_site_label_1
_geom_bond_atom_site_label_2
_geom_bond_site_symmetry_1
_geom_bond_site_symmetry_2
Mg1 C1 1_555 1_555
C1 H1 1_555 1_555
H2 C1 1_555 1_555
C2 C1 1_555 1_555
H3 C2 1_555 1_555
C3 C2 1_555 1_555
H4 C3 1_555 1_555
H5 C3 1_555 1_555
C4 Mg1 1_555 1_555
H6 C4 1_555 1_555
H7 C4 1_555 1_555
C5 C4 1_555 1_555
H8 C5 1_555 1_555
C6 C5 1_555 1_555
H9 C6 1_555 1_555
H10 C6 1_555 1_555
C7 Mg1 1_555 1_555
H11 C7 1_555 1_555
H12 C7 1_555 1_555
C8 C7 1_555 1_555
H13 C8 1_555 1_555
C9 C8 1_555 1_555
H14 C9 1_555 1_555
H15 C9 1_555 1_555
C10 Mg1 1_555 1_555
H16 C10 1_555 1_555
H17 C10 1_555 1_555
C11 C10 1_555 1_555
H18 C11 1_555 1_555
C12 C11 1_555 1_555
H19 C12 1_555 1_555
H20 C12 1_555 1_555
O1 C13 1_555 1_555
C13 H21 1_555 1_555
H22 C13 1_555 1_555
C14 C13 1_555 1_555
H23 C14 1_555 1_555
H24 C14 1_555 1_555
C15 C14 1_555 1_555
H25 C15 1_555 1_555
H26 C15 1_555 1_555
C16 O1 1_555 1_555
H27 C16 1_555 1_555
H28 C16 1_555 1_555
O2 C17 1_555 1_555
C17 H29 1_555 1_555
H30 C17 1_555 1_555
C18 C17 1_555 1_555
H31 C18 1_555 1_555
H32 C18 1_555 1_555
C19 C18 1_555 1_555
H33 C19 1_555 1_555
H34 C19 1_555 1_555
C20 O2 1_555 1_555
H35 C20 1_555 1_555
H36 C20 1_555 1_555
C15 C16 1_555 1_555
C19 C20 1_555 1_555

#END
