
#######################################################################
#
#                 Cambridge Crystallographic Data Centre
#                                CCDC 
#
#######################################################################
#
# If this CIF has been generated from an entry in the Cambridge 
# Structural Database, then it will include bibliographic, chemical, 
# crystal, experimental, refinement or atomic coordinate data resulting 
# from the CCDC's data processing and validation procedures.
#
#######################################################################

data_IFONEY
_chemical_formula_moiety         'C13 H23 Mg1 O1 1-,K1 1+'
_chemical_name_systematic        'potassium tri-allyl-tetrahydrofuran-magnesium'
_symmetry_cell_setting           monoclinic
_symmetry_space_group_name_H-M   'P 21/m'
_symmetry_Int_Tables_number      11
_space_group_name_Hall           '-P 2yb'
loop_
_symmetry_equiv_pos_site_id
_symmetry_equiv_pos_as_xyz
1 x,y,z
2 -x,1/2+y,-z
3 -x,-y,-z
4 x,1/2-y,z
_cell_length_a                   6.5069(11)
_cell_length_b                   10.1418(17)
_cell_length_c                   11.965(2)
_cell_angle_alpha                90
_cell_angle_beta                 91.911(3)
_cell_angle_gamma                90
_cell_volume                     789.151
_exptl_crystal_colour            colorless
_exptl_crystal_description       block
_cell_formula_units_Z            2
loop_
_atom_site_label
_atom_site_type_symbol
_atom_site_fract_x
_atom_site_fract_y
_atom_site_fract_z
K1 K 0.55865(14) 0.7500 -0.10937(9)
Mg1 Mg 0.2270(2) 0.7500 0.16205(12)
O1 O 0.1086(5) 0.7500 0.3204(3)
C1 C -0.0579(7) 0.7500 0.0520(4)
H1 H -0.0747 0.6592 0.0688
H2 H -0.0953 0.8152 0.1046
C2 C 0.0253(9) 0.7893(7) -0.0546(5)
H3 H 0.0397 0.8811 -0.0682
C3 C 0.0833(9) 0.7064(9) -0.1351(6)
H4 H 0.0715 0.6139 -0.1248
H5 H 0.1362 0.7403 -0.2023
C4 C 0.3852(6) 0.9413(4) 0.1429(3)
C5 C 0.3794(16) 1.0107(10) 0.2474(8)
H6 H 0.2422 1.0281 0.2680
C6 C 0.5084(16) 1.0545(9) 0.3189(7)
H7 H 0.6513 1.0435 0.3082
H8 H 0.4627 1.0986 0.3836
C7 C 0.2411(12) 0.7674(14) 0.4217(6)
H9 H 0.3356 0.8433 0.4145
H10 H 0.3218 0.6869 0.4395
C8 C 0.073(2) 0.7945(18) 0.5116(15)
H11 H 0.0938 0.8831 0.5448
H12 H 0.0851 0.7283 0.5723
C9 C -0.1574(15) 0.7850(10) 0.4480(8)
H13 H -0.2184 0.6957 0.4513
H14 H -0.2552 0.8516 0.4751
C10 C -0.0812(16) 0.8158(10) 0.3421(9)
H15 H -0.0598 0.9123 0.3372
H16 H -0.1852 0.7908 0.2836
C7C C 0.2411(12) 0.7326(14) 0.4217(6)
H9C H 0.3356 0.6567 0.4145
H10C H 0.3218 0.8131 0.4395
C8C C 0.073(2) 0.7055(18) 0.5116(15)
H11C H 0.0938 0.6169 0.5448
H12C H 0.0851 0.7717 0.5723
C9C C -0.1574(15) 0.7150(10) 0.4480(8)
H13C H -0.2184 0.8043 0.4513
H14C H -0.2552 0.6484 0.4751
C10C C -0.0812(16) 0.6842(10) 0.3421(9)
H15C H -0.0598 0.5877 0.3372
H16C H -0.1852 0.7092 0.2836
H1C H -0.0747 0.8408 0.0688
H2C H -0.0953 0.6848 0.1046
C2C C 0.0253(9) 0.7107(7) -0.0546(5)
H3C H 0.0397 0.6189 -0.0682
C3C C 0.0833(9) 0.7936(9) -0.1351(6)
H4C H 0.0715 0.8861 -0.1248
H5C H 0.1362 0.7597 -0.2023
C4C C 0.3852(6) 0.5587(4) 0.1429(3)
C5C C 0.3794(16) 0.4893(10) 0.2474(8)
H6C H 0.2422 0.4719 0.2680
C6C C 0.5084(16) 0.4455(9) 0.3189(7)
H7C H 0.6513 0.4565 0.3082
H8C H 0.4627 0.4014 0.3836
C11? C 0.5056(17) 0.9830(11) 0.2363(9)
H17? H 0.6478 0.9637 0.2471
C12? C 0.376(3) 1.0657(17) 0.3210(15)
H18? H 0.2345 1.0817 0.3054
H19? H 0.4407 1.0994 0.3875
H20? H 0.5136 0.9179 0.1129
H21? H 0.2607 0.9188 0.1037
H22? H 0.2436 0.9638 0.1369
H23? H 0.4457 0.8906 0.0858
loop_
_geom_bond_atom_site_label_1
_geom_bond_atom_site_label_2
_geom_bond_site_symmetry_1
_geom_bond_site_symmetry_2
Mg1 O1 1_555 1_555
O1 C7 1_555 1_555
C1 Mg1 1_555 1_555
H1 C1 1_555 1_555
H2 C1 1_555 1_555
C2 C1 1_555 1_555
H3 C2 1_555 1_555
C3 C2 1_555 1_555
H4 C3 1_555 1_555
H5 C3 1_555 1_555
C4 Mg1 1_555 1_555
C5 C4 1_555 1_555
H6 C5 1_555 1_555
C6 C5 1_555 1_555
H7 C6 1_555 1_555
H8 C6 1_555 1_555
C7 H9 1_555 1_555
H9 C7C 1_555 1_555
H10 C7 1_555 1_555
C8 C7 1_555 1_555
H11 C8 1_555 1_555
H12 C8 1_555 1_555
C9 C8 1_555 1_555
H13 C9 1_555 1_555
H14 C9 1_555 1_555
C10 O1 1_555 1_555
H15 C10 1_555 1_555
H16 C10 1_555 1_555
C7C O1 1_555 1_555
H9C C7 1_555 1_555
H10C C7 1_555 1_555
C8C C7 1_555 1_555
H11C C8C 1_555 1_555
H12C C8 1_555 1_555
C9C C9 1_555 1_555
H13C C9C 1_555 1_555
H14C C9C 1_555 1_555
C10C O1 1_555 1_555
H15C C10C 1_555 1_555
H16C C10C 1_555 1_555
H1C C1 1_555 1_555
H2C C1 1_555 1_555
C2C C1 1_555 1_555
H3C C3 1_555 1_555
C3C C2 1_555 1_555
H4C C2 1_555 1_555
H5C C3 1_555 1_555
C4C Mg1 1_555 1_555
C5C C4C 1_555 1_555
H6C C5C 1_555 1_555
C6C C5C 1_555 1_555
H7C C6C 1_555 1_555
H8C C6C 1_555 1_555
C2 C2C 1_555 1_555
H3 C3C 1_555 1_555
C3 C2C 1_555 1_555
C3 C3C 1_555 1_555
H4 C2C 1_555 1_555
H5 C3C 1_555 1_555
H10 C7C 1_555 1_555
C8 C7C 1_555 1_555
C8 C8C 1_555 1_555
H12 C8C 1_555 1_555
C9 C10 1_555 1_555
C9 C10C 1_555 1_555
C10 C9C 1_555 1_555
C10 C10C 1_555 1_555
C7C H9C 1_555 1_555
C7C H10C 1_555 1_555
C7C C8C 1_555 1_555
C8C H12C 1_555 1_555
C8C C9C 1_555 1_555
C9C C10C 1_555 1_555
C2C H3C 1_555 1_555
C2C C3C 1_555 1_555
C3C H4C 1_555 1_555
C3C H5C 1_555 1_555

#END
