
#######################################################################
#
#                 Cambridge Crystallographic Data Centre
#                                CCDC 
#
#######################################################################
#
# If this CIF has been generated from an entry in the Cambridge 
# Structural Database, then it will include bibliographic, chemical, 
# crystal, experimental, refinement or atomic coordinate data resulting 
# from the CCDC's data processing and validation procedures.
#
#######################################################################

data_IFOQOL
_chemical_formula_moiety         'C27 H19 Cl1 F1 N3 O3'
_chemical_name_systematic        
"(S,S)-Methyl 5-chloro-9'-fluoro-1-methyl-2-oxo-5'-phenyl-1,2-dihydro-10b'H-spiro[indole-3,1'-pyrazolo[5,1-a]isoquinoline]-2'-carboxylate"
_symmetry_cell_setting           monoclinic
_symmetry_space_group_name_H-M   'C 2/c'
_symmetry_Int_Tables_number      15
_space_group_name_Hall           '-C 2yn'
loop_
_symmetry_equiv_pos_site_id
_symmetry_equiv_pos_as_xyz
1 x,y,z
2 -x,y,1/2-z
3 1/2+x,1/2+y,z
4 1/2-x,1/2+y,1/2-z
5 -x,-y,-z
6 x,-y,1/2+z
7 1/2-x,1/2-y,-z
8 1/2+x,1/2-y,1/2+z
_cell_length_a                   15.1203(3)
_cell_length_b                   21.1088(5)
_cell_length_c                   15.6334(3)
_cell_angle_alpha                90
_cell_angle_beta                 112.9770(10)
_cell_angle_gamma                90
_cell_volume                     4593.86
_exptl_crystal_colour            colorless
_exptl_crystal_description       Block
_cell_formula_units_Z            8
loop_
_atom_site_label
_atom_site_type_symbol
_atom_site_fract_x
_atom_site_fract_y
_atom_site_fract_z
C1 C -0.17222(12) 0.36693(8) 0.05994(11)
C2 C -0.13286(15) 0.42416(9) 0.09683(14)
H1 H -0.1682 0.4526 0.1162
C3 C -0.04086(15) 0.44005(9) 0.10548(14)
H2 H -0.0137 0.4788 0.1306
C4 C 0.00932(12) 0.39673(7) 0.07581(11)
C5 C -0.03056(11) 0.33864(7) 0.03903(9)
C6 C -0.12155(11) 0.32268(7) 0.03097(10)
H3 H -0.1483 0.2837 0.0070
C7 C 0.04406(10) 0.30004(7) 0.02057(9)
C8 C 0.13007(11) 0.34625(7) 0.04972(10)
C9 C 0.02260(11) 0.27304(7) -0.07765(10)
H4 H 0.0821 0.2753 -0.0885
C10 C -0.05599(11) 0.30133(7) -0.16069(10)
C11 C -0.06588(13) 0.36633(8) -0.17251(11)
H5 H -0.0280 0.3938 -0.1261
C12 C -0.13297(14) 0.38943(8) -0.25436(12)
C13 C -0.19128(13) 0.35141(9) -0.32462(12)
H6 H -0.2365 0.3687 -0.3787
C14 C -0.18089(11) 0.28690(8) -0.31272(11)
H7 H -0.2198 0.2603 -0.3598
C15 C -0.11317(10) 0.26033(7) -0.23147(10)
C16 C -0.09822(11) 0.19251(7) -0.22125(10)
H8 H -0.1288 0.1667 -0.2726
C17 C -0.04200(11) 0.16548(7) -0.14060(10)
C18 C -0.02320(12) 0.09669(7) -0.12735(11)
C19 C 0.06896(14) 0.07361(8) -0.08048(13)
H9 H 0.1201 0.1015 -0.0544
C20 C 0.08479(18) 0.00873(10) -0.07247(16)
H10 H 0.1468 -0.0066 -0.0413
C21 C 0.0103(2) -0.03290(10) -0.10988(17)
H11 H 0.0215 -0.0763 -0.1035
C22 C -0.0807(2) -0.01051(10) -0.15659(17)
H12 H -0.1313 -0.0389 -0.1824
C23 C -0.09844(15) 0.05428(9) -0.16584(13)
H13 H -0.1606 0.0691 -0.1978
C24 C 0.06465(10) 0.23823(7) 0.07479(10)
C25 C 0.10235(11) 0.23704(8) 0.17662(10)
C26 C 0.14650(18) 0.17390(11) 0.31036(13)
H14 H 0.2121 0.1879 0.3336
H15 H 0.1442 0.1306 0.3281
H16 H 0.1107 0.1998 0.3359
C27 C 0.16737(16) 0.45421(10) 0.11482(18)
H17 H 0.2259 0.4468 0.1060
H18 H 0.1814 0.4588 0.1799
H19 H 0.1375 0.4922 0.0828
N1 N 0.00398(10) 0.20592(6) -0.06590(8)
N2 N 0.03649(9) 0.18827(6) 0.02346(8)
N3 N 0.10284(10) 0.40106(6) 0.07812(10)
O1 O 0.20707(8) 0.33595(6) 0.04558(8)
O2 O 0.12795(11) 0.28419(6) 0.22236(8)
O3 O 0.10528(9) 0.17891(6) 0.21056(8)
Cl1 Cl -0.28762(4) 0.34823(3) 0.05025(4)
F1 F -0.13982(11) 0.45332(5) -0.26685(8)
loop_
_geom_bond_atom_site_label_1
_geom_bond_atom_site_label_2
_geom_bond_site_symmetry_1
_geom_bond_site_symmetry_2
C1 C2 1_555 1_555
C2 H1 1_555 1_555
C3 C2 1_555 1_555
H2 C3 1_555 1_555
C4 C3 1_555 1_555
C5 C4 1_555 1_555
C6 C1 1_555 1_555
H3 C6 1_555 1_555
C7 C5 1_555 1_555
C8 C7 1_555 1_555
C9 C7 1_555 1_555
H4 C9 1_555 1_555
C10 C9 1_555 1_555
C11 C10 1_555 1_555
H5 C11 1_555 1_555
C12 C11 1_555 1_555
C13 C12 1_555 1_555
H6 C13 1_555 1_555
C14 C13 1_555 1_555
H7 C14 1_555 1_555
C15 C10 1_555 1_555
C16 C15 1_555 1_555
H8 C16 1_555 1_555
C17 C16 1_555 1_555
C18 C17 1_555 1_555
C19 C18 1_555 1_555
H9 C19 1_555 1_555
C20 C19 1_555 1_555
H10 C20 1_555 1_555
C21 C20 1_555 1_555
H11 C21 1_555 1_555
C22 C21 1_555 1_555
H12 C22 1_555 1_555
C23 C18 1_555 1_555
H13 C23 1_555 1_555
C24 C7 1_555 1_555
C25 C24 1_555 1_555
C26 H14 1_555 1_555
H15 C26 1_555 1_555
H16 C26 1_555 1_555
C27 H17 1_555 1_555
H18 C27 1_555 1_555
H19 C27 1_555 1_555
N1 C9 1_555 1_555
N2 C24 1_555 1_555
N3 C4 1_555 1_555
O1 C8 1_555 1_555
O2 C25 1_555 1_555
O3 C25 1_555 1_555
Cl1 C1 1_555 1_555
F1 C12 1_555 1_555
C5 C6 1_555 1_555
C8 N3 1_555 1_555
C14 C15 1_555 1_555
C17 N1 1_555 1_555
C22 C23 1_555 1_555
C26 O3 1_555 1_555
C27 N3 1_555 1_555
N1 N2 1_555 1_555

#END
