
#######################################################################
#
#                 Cambridge Crystallographic Data Centre
#                                CCDC 
#
#######################################################################
#
# If this CIF has been generated from an entry in the Cambridge 
# Structural Database, then it will include bibliographic, chemical, 
# crystal, experimental, refinement or atomic coordinate data resulting 
# from the CCDC's data processing and validation procedures.
#
#######################################################################

data_IFOQIF
_chemical_formula_moiety         'C36 H30 N4 O3'
_chemical_name_systematic        
"Ethyl 1''-benzyl-1'-methyl-2''-oxo-1'',2''-dihydrodispiro[indeno[1,2-b]quinoxaline-11,3'-pyrrolidine-2',3''-indole]-4'-carboxylate"
_symmetry_cell_setting           triclinic
_symmetry_space_group_name_H-M   'P -1'
_symmetry_Int_Tables_number      2
_space_group_name_Hall           '-P 1'
loop_
_symmetry_equiv_pos_site_id
_symmetry_equiv_pos_as_xyz
1 x,y,z
2 -x,-y,-z
_cell_length_a                   11.1927(2)
_cell_length_b                   11.4535(3)
_cell_length_c                   12.1206(3)
_cell_angle_alpha                87.637(2)
_cell_angle_beta                 86.0480(10)
_cell_angle_gamma                70.564(2)
_cell_volume                     1461.5
_exptl_crystal_colour            colorless
_exptl_crystal_description       block
_cell_formula_units_Z            2
loop_
_atom_site_label
_atom_site_type_symbol
_atom_site_fract_x
_atom_site_fract_y
_atom_site_fract_z
C1 C 0.46495(16) 0.33734(15) 0.47540(12)
C2 C 0.58578(19) 0.2802(2) 0.51621(16)
H1 H 0.6504 0.2270 0.4717
C3 C 0.6081(2) 0.3030(2) 0.62131(18)
H2 H 0.6886 0.2662 0.6475
C4 C 0.5112(2) 0.3814(2) 0.69003(17)
H3 H 0.5276 0.3952 0.7617
C5 C 0.3943(2) 0.4369(2) 0.65289(15)
H4 H 0.3306 0.4882 0.6994
C6 C 0.36772(17) 0.41794(15) 0.54397(13)
C7 C 0.32937(13) 0.36757(13) 0.33956(11)
C8 C 0.23311(15) 0.45322(13) 0.40719(11)
C9 C 0.12264(14) 0.50836(13) 0.34192(12)
C10 C 0.00864(17) 0.59934(16) 0.36960(14)
H5 H -0.0093 0.6301 0.4409
C11 C -0.07808(18) 0.64365(17) 0.28945(16)
H6 H -0.1557 0.7039 0.3070
C12 C -0.05019(17) 0.59895(16) 0.18324(15)
H7 H -0.1084 0.6315 0.1295
C13 C 0.06289(15) 0.50652(14) 0.15560(13)
H8 H 0.0803 0.4767 0.0840
C14 C 0.15026(13) 0.45856(12) 0.23576(11)
C15 C 0.27707(13) 0.35239(12) 0.23015(11)
C16 C 0.25846(13) 0.21964(13) 0.22938(11)
C17 C 0.13440(14) 0.23436(13) 0.17136(12)
C18 C 0.22998(15) 0.16963(13) 0.34140(11)
C19 C 0.30797(18) 0.11634(15) 0.42594(13)
H9 H 0.3939 0.1070 0.4190
C20 C 0.2559(2) 0.07688(18) 0.52142(15)
H10 H 0.3072 0.0415 0.5794
C21 C 0.1297(2) 0.08966(19) 0.53107(15)
H11 H 0.0964 0.0642 0.5965
C22 C 0.0499(2) 0.13956(17) 0.44591(15)
H12 H -0.0355 0.1465 0.4524
C23 C 0.10286(15) 0.17842(13) 0.35109(12)
C24 C -0.08781(15) 0.25705(16) 0.23371(16)
H13 H -0.1076 0.3166 0.1727
H14 H -0.1353 0.2980 0.2993
C25 C -0.13298(14) 0.15082(14) 0.20920(12)
C26 C -0.25876(15) 0.16256(17) 0.23242(13)
H15 H -0.3132 0.2341 0.2656
C27 C -0.30515(17) 0.0699(2) 0.20724(15)
H16 H -0.3901 0.0790 0.2237
C28 C -0.2258(2) -0.0355(2) 0.15803(16)
H17 H -0.2569 -0.0980 0.1409
C29 C -0.1006(2) -0.04890(18) 0.13409(17)
H18 H -0.0470 -0.1204 0.1004
C30 C -0.05354(16) 0.04371(16) 0.15982(15)
H19 H 0.0317 0.0338 0.1439
C31 C 0.2604(3) 0.7740(2) 0.0863(2)
H20 H 0.2272 0.8468 0.0407
H21 H 0.3403 0.7718 0.1123
H22 H 0.2018 0.7759 0.1484
C32 C 0.2783(3) 0.6663(2) 0.02305(18)
H23 H 0.3364 0.6647 -0.0405
H24 H 0.1979 0.6682 -0.0036
C33 C 0.33704(16) 0.44973(16) 0.04707(12)
C34 C 0.37562(14) 0.34434(14) 0.12994(11)
H25 H 0.4544 0.3451 0.1601
C35 C 0.40247(16) 0.21799(15) 0.08010(13)
H26 H 0.3479 0.2227 0.0201
H27 H 0.4903 0.1840 0.0526
C36 C 0.37646(19) 0.02159(16) 0.14274(16)
H28 H 0.4566 -0.0218 0.1055
H29 H 0.3094 0.0299 0.0946
H30 H 0.3645 -0.0239 0.2084
N1 N 0.44398(12) 0.31244(12) 0.36901(10)
N2 N 0.24881(14) 0.47965(13) 0.50795(11)
N3 N 0.04620(12) 0.22332(12) 0.25098(11)
N4 N 0.37489(12) 0.14388(11) 0.17259(10)
O1 O 0.11649(12) 0.25347(11) 0.07356(9)
O2 O 0.32960(13) 0.55571(11) 0.09209(9)
O3 O 0.31436(17) 0.44125(14) -0.04700(10)
loop_
_geom_bond_atom_site_label_1
_geom_bond_atom_site_label_2
_geom_bond_site_symmetry_1
_geom_bond_site_symmetry_2
C1 C2 1_555 1_555
C2 H1 1_555 1_555
C3 C2 1_555 1_555
H2 C3 1_555 1_555
C4 C3 1_555 1_555
H3 C4 1_555 1_555
C5 C4 1_555 1_555
H4 C5 1_555 1_555
C6 C1 1_555 1_555
C7 C8 1_555 1_555
C8 C9 1_555 1_555
C9 C10 1_555 1_555
C10 H5 1_555 1_555
C11 C10 1_555 1_555
H6 C11 1_555 1_555
C12 C11 1_555 1_555
H7 C12 1_555 1_555
C13 C12 1_555 1_555
H8 C13 1_555 1_555
C14 C9 1_555 1_555
C15 C7 1_555 1_555
C16 C15 1_555 1_555
C17 C16 1_555 1_555
C18 C16 1_555 1_555
C19 C18 1_555 1_555
H9 C19 1_555 1_555
C20 C19 1_555 1_555
H10 C20 1_555 1_555
C21 C20 1_555 1_555
H11 C21 1_555 1_555
C22 C21 1_555 1_555
H12 C22 1_555 1_555
C23 C18 1_555 1_555
C24 H13 1_555 1_555
H14 C24 1_555 1_555
C25 C24 1_555 1_555
C26 C25 1_555 1_555
H15 C26 1_555 1_555
C27 C26 1_555 1_555
H16 C27 1_555 1_555
C28 C27 1_555 1_555
H17 C28 1_555 1_555
C29 C28 1_555 1_555
H18 C29 1_555 1_555
C30 C25 1_555 1_555
H19 C30 1_555 1_555
C31 H20 1_555 1_555
H21 C31 1_555 1_555
H22 C31 1_555 1_555
C32 C31 1_555 1_555
H23 C32 1_555 1_555
H24 C32 1_555 1_555
C33 C34 1_555 1_555
C34 C15 1_555 1_555
H25 C34 1_555 1_555
C35 C34 1_555 1_555
H26 C35 1_555 1_555
H27 C35 1_555 1_555
C36 H28 1_555 1_555
H29 C36 1_555 1_555
H30 C36 1_555 1_555
N1 C1 1_555 1_555
N2 C6 1_555 1_555
N3 C17 1_555 1_555
N4 C16 1_555 1_555
O1 C17 1_555 1_555
O2 C32 1_555 1_555
O3 C33 1_555 1_555
C5 C6 1_555 1_555
C7 N1 1_555 1_555
C8 N2 1_555 1_555
C13 C14 1_555 1_555
C14 C15 1_555 1_555
C22 C23 1_555 1_555
C23 N3 1_555 1_555
C24 N3 1_555 1_555
C29 C30 1_555 1_555
C33 O2 1_555 1_555
C35 N4 1_555 1_555
C36 N4 1_555 1_555

#END
