
#######################################################################
#
#                 Cambridge Crystallographic Data Centre
#                                CCDC 
#
#######################################################################
#
# If this CIF has been generated from an entry in the Cambridge 
# Structural Database, then it will include bibliographic, chemical, 
# crystal, experimental, refinement or atomic coordinate data resulting 
# from the CCDC's data processing and validation procedures.
#
#######################################################################

data_IFOSAZ
_chemical_name_common            15-Methoxy-14,15-dihydroandranginine
_chemical_formula_moiety         'C22 H26 N2 O3'
_chemical_name_systematic        
"Methyl 4-methoxy-2,5,6,9,14,14c-hexahydro-1H,4H-indolo[2',3':4,5]azepino[3,2,1-ij]quinoline-14b(8H)-carboxylate"
_symmetry_cell_setting           triclinic
_symmetry_space_group_name_H-M   'P -1'
_symmetry_Int_Tables_number      2
_space_group_name_Hall           '-P 1'
loop_
_symmetry_equiv_pos_site_id
_symmetry_equiv_pos_as_xyz
1 x,y,z
2 -x,-y,-z
_cell_length_a                   6.914(3)
_cell_length_b                   11.232(4)
_cell_length_c                   11.806(4)
_cell_angle_alpha                91.079(6)
_cell_angle_beta                 100.737(5)
_cell_angle_gamma                96.317(6)
_cell_volume                     894.584
_exptl_crystal_colour            colorless
_exptl_crystal_description       Prism
_cell_formula_units_Z            2
loop_
_atom_site_label
_atom_site_type_symbol
_atom_site_fract_x
_atom_site_fract_y
_atom_site_fract_z
O1 O 0.60683(16) 0.85999(9) 0.01190(9)
O2 O 0.46541(15) 0.48350(9) 0.27560(8)
O3 O 0.67895(15) 0.46849(9) 0.44057(8)
N1 N 1.00622(18) 0.69322(12) 0.50300(10)
N2 N 0.42553(17) 0.72717(10) 0.24809(9)
C1 C 0.8300(2) 0.71262(13) 0.43152(11)
C2 C 0.3346(2) 0.81220(14) 0.16762(12)
H1 H 0.4208 0.8895 0.1758
H2 H 0.2048 0.8269 0.1856
C3 C 0.4122(2) 0.75869(13) 0.36721(11)
H3 H 0.4215 0.6854 0.4123
H4 H 0.2793 0.7840 0.3669
C4 C 0.5671(2) 0.85711(13) 0.43018(12)
H5 H 0.5876 0.9223 0.3769
H6 H 0.5176 0.8911 0.4959
C5 C 0.7607(2) 0.81020(13) 0.47397(12)
C6 C 0.8993(2) 0.85448(13) 0.57542(12)
C7 C 0.9085(2) 0.95044(14) 0.65452(12)
H7 H 0.8069 1.0019 0.6457
C8 C 1.0671(2) 0.96896(14) 0.74531(13)
H8 H 1.0739 1.0336 0.7996
C9 C 1.2176(2) 0.89460(14) 0.75890(13)
H9 H 1.3261 0.9102 0.8217
C10 C 1.2125(2) 0.79874(14) 0.68306(12)
H10 H 1.3149 0.7478 0.6929
C11 C 1.0515(2) 0.77946(13) 0.59135(12)
C12 C 0.3065(2) 0.76125(15) 0.04513(12)
H11 H 0.2199 0.6841 0.0371
H12 H 0.2414 0.8173 -0.0092
C13 C 0.5046(2) 0.74198(14) 0.01609(12)
H13 H 0.4846 0.6994 -0.0611
C14 C 0.7451(2) 0.63502(12) 0.32228(11)
C15 C 0.9184(2) 0.59056(13) 0.27308(12)
H14 H 1.0106 0.6608 0.2605
H15 H 0.9920 0.5411 0.3308
C16 C 0.8514(2) 0.51737(14) 0.16040(12)
H16 H 0.9685 0.5019 0.1276
H17 H 0.7812 0.4392 0.1750
C17 C 0.7168(2) 0.58305(13) 0.07633(12)
H18 H 0.6987 0.5606 -0.0033
C18 C 0.6212(2) 0.67091(13) 0.10661(12)
C19 C 0.6292(2) 0.71353(12) 0.23085(11)
H19 H 0.7039 0.7957 0.2404
C20 C 0.7679(3) 0.86269(17) -0.04602(15)
H20 H 0.8327 0.9450 -0.0440
H21 H 0.7199 0.8342 -0.1264
H22 H 0.8632 0.8107 -0.0079
C21 C 0.6256(2) 0.52135(12) 0.35387(12)
C22 C 0.3361(2) 0.38405(13) 0.30607(13)
H23 H 0.2227 0.3645 0.2427
H24 H 0.2888 0.4061 0.3760
H25 H 0.4092 0.3142 0.3202
H26 H 1.078(2) 0.6370(16) 0.4959(14)
loop_
_geom_bond_atom_site_label_1
_geom_bond_atom_site_label_2
_geom_bond_site_symmetry_1
_geom_bond_site_symmetry_2
O1 C13 1_555 1_555
O2 C21 1_555 1_555
O3 C21 1_555 1_555
N1 C1 1_555 1_555
N2 C2 1_555 1_555
C1 C5 1_555 1_555
C2 H1 1_555 1_555
H2 C2 1_555 1_555
C3 N2 1_555 1_555
H3 C3 1_555 1_555
H4 C3 1_555 1_555
C4 C3 1_555 1_555
H5 C4 1_555 1_555
H6 C4 1_555 1_555
C5 C4 1_555 1_555
C6 C5 1_555 1_555
C7 C6 1_555 1_555
H7 C7 1_555 1_555
C8 C7 1_555 1_555
H8 C8 1_555 1_555
C9 C8 1_555 1_555
H9 C9 1_555 1_555
C10 C9 1_555 1_555
H10 C10 1_555 1_555
C11 N1 1_555 1_555
C12 C2 1_555 1_555
H11 C12 1_555 1_555
H12 C12 1_555 1_555
C13 C12 1_555 1_555
H13 C13 1_555 1_555
C14 C1 1_555 1_555
C15 C14 1_555 1_555
H14 C15 1_555 1_555
H15 C15 1_555 1_555
C16 C15 1_555 1_555
H16 C16 1_555 1_555
H17 C16 1_555 1_555
C17 C16 1_555 1_555
H18 C17 1_555 1_555
C18 C13 1_555 1_555
C19 N2 1_555 1_555
H19 C19 1_555 1_555
C20 O1 1_555 1_555
H20 C20 1_555 1_555
H21 C20 1_555 1_555
H22 C20 1_555 1_555
C21 C14 1_555 1_555
C22 O2 1_555 1_555
H23 C22 1_555 1_555
H24 C22 1_555 1_555
H25 C22 1_555 1_555
H26 N1 1_555 1_555
C6 C11 1_555 1_555
C10 C11 1_555 1_555
C14 C19 1_555 1_555
C17 C18 1_555 1_555
C18 C19 1_555 1_555

#END
