
#######################################################################
#
#                 Cambridge Crystallographic Data Centre
#                                CCDC 
#
#######################################################################
#
# If this CIF has been generated from an entry in the Cambridge 
# Structural Database, then it will include bibliographic, chemical, 
# crystal, experimental, refinement or atomic coordinate data resulting 
# from the CCDC's data processing and validation procedures.
#
#######################################################################

data_IFOSOO
_chemical_formula_moiety         'C42 H42 Br6 N6,2(C8 H10)'
_chemical_name_systematic        
'13,27,41,43,45,47-hexabromo-3,10,17,24,31,38-hexaazaheptacyclo[38.2.2.2^12,15^.2^26,29^.0^4,9^.0^18,23^.0^32,37^]octatetraconta-1(42),2,10,12,14,16,24,26,28,30,38,40,43,45,47-pentadecaene 1,2-dimethylbenzene solvate'
_symmetry_cell_setting           monoclinic
_symmetry_space_group_name_H-M   'P 21'
_symmetry_Int_Tables_number      4
_space_group_name_Hall           'P 2yb'
loop_
_symmetry_equiv_pos_site_id
_symmetry_equiv_pos_as_xyz
1 x,y,z
2 -x,1/2+y,-z
_cell_length_a                   14.7937(3)
_cell_length_b                   23.7155(6)
_cell_length_c                   16.0080(4)
_cell_angle_alpha                90
_cell_angle_beta                 94.574(2)
_cell_angle_gamma                90
_cell_volume                     5598.36
_exptl_crystal_colour            colorless
_exptl_crystal_description       plate
_cell_formula_units_Z            4
loop_
_atom_site_label
_atom_site_type_symbol
_atom_site_fract_x
_atom_site_fract_y
_atom_site_fract_z
Br1 Br 0.52531(11) 0.02560(7) 0.69619(10)
Br2 Br 0.22248(11) -0.01968(8) 0.38188(11)
Br3 Br 0.56452(12) 0.18116(7) 0.61484(11)
Br4 Br 0.24906(10) 0.34486(6) 0.43634(11)
Br5 Br 0.45378(11) 0.14734(8) 0.86880(15)
Br6 Br 0.02523(10) 0.09755(6) 0.75907(10)
N1 N 0.2332(9) -0.0300(5) 0.8456(8)
N2 N 0.2879(8) -0.0887(5) 0.7040(8)
N3 N 0.4821(8) 0.0657(5) 0.3600(8)
N4 N 0.4822(8) 0.1855(5) 0.3414(8)
N5 N 0.3300(8) 0.3348(5) 0.7116(8)
N6 N 0.2386(8) 0.2795(6) 0.8378(8)
C1 C 0.2118(9) -0.0882(6) 0.8339(9)
H1 H 0.1520 -0.0920 0.8005
C2 C 0.2861(10) -0.1154(6) 0.7866(10)
H2 H 0.3459 -0.1089 0.8189
C3 C 0.2721(10) -0.1786(6) 0.7755(11)
H3 H 0.3226 -0.1946 0.7460
H4 H 0.2150 -0.1855 0.7404
C4 C 0.2678(10) -0.2083(7) 0.8596(11)
H5 H 0.2543 -0.2488 0.8502
H6 H 0.3272 -0.2052 0.8923
C5 C 0.1949(11) -0.1818(7) 0.9083(11)
H7 H 0.1957 -0.1997 0.9642
H8 H 0.1348 -0.1890 0.8785
C6 C 0.2082(11) -0.1187(7) 0.9190(10)
H9 H 0.2654 -0.1117 0.9539
H10 H 0.1578 -0.1031 0.9488
C7 C 0.3524(10) -0.0547(6) 0.6954(10)
H11 H 0.3958 -0.0487 0.7415
C8 C 0.3629(9) -0.0238(6) 0.6164(9)
C9 C 0.4364(9) 0.0125(6) 0.6052(9)
C10 C 0.4481(9) 0.0378(6) 0.5298(9)
H12 H 0.4992 0.0615 0.5246
C11 C 0.3862(9) 0.0292(6) 0.4609(10)
C12 C 0.3113(9) -0.0054(6) 0.4723(8)
C13 C 0.2999(9) -0.0310(6) 0.5484(9)
H13 H 0.2481 -0.0540 0.5541
C14 C 0.4017(9) 0.0557(6) 0.3793(10)
H14 H 0.3514 0.0652 0.3413
C15 C 0.4901(9) 0.0925(6) 0.2782(9)
H15 H 0.4284 0.0987 0.2494
C16 C 0.5382(9) 0.1493(6) 0.2929(9)
H16 H 0.5978 0.1429 0.3256
C17 C 0.5545(11) 0.1777(6) 0.2116(10)
H17 H 0.5876 0.2134 0.2233
H18 H 0.4955 0.1868 0.1810
C18 C 0.6097(12) 0.1398(8) 0.1562(12)
H19 H 0.6158 0.1587 0.1018
H20 H 0.6713 0.1341 0.1838
C19 C 0.5640(11) 0.0830(7) 0.1412(10)
H21 H 0.6035 0.0582 0.1102
H22 H 0.5062 0.0882 0.1064
C20 C 0.5449(11) 0.0549(6) 0.2252(10)
H23 H 0.5116 0.0192 0.2136
H24 H 0.6033 0.0457 0.2568
C21 C 0.5028(9) 0.1901(5) 0.4183(10)
H25 H 0.5541 0.1698 0.4417
C22 C 0.4520(10) 0.2251(5) 0.4749(9)
C23 C 0.4700(9) 0.2279(6) 0.5603(11)
C24 C 0.4253(10) 0.2610(6) 0.6131(10)
H26 H 0.4406 0.2607 0.6718
C25 C 0.3543(9) 0.2961(5) 0.5764(9)
C26 C 0.3375(10) 0.2947(5) 0.4927(10)
C27 C 0.3813(9) 0.2599(5) 0.4405(9)
H27 H 0.3641 0.2593 0.3821
C28 C 0.3039(10) 0.3307(6) 0.6346(10)
H28 H 0.2507 0.3501 0.6135
C29 C 0.2737(10) 0.3669(6) 0.7661(10)
H29 H 0.2101 0.3688 0.7399
C30 C 0.2747(11) 0.3364(7) 0.8491(9)
H30 H 0.3389 0.3337 0.8735
C31 C 0.2191(13) 0.3690(7) 0.9116(11)
H31 H 0.1542 0.3688 0.8908
H32 H 0.2249 0.3498 0.9666
C32 C 0.2509(14) 0.4289(8) 0.9222(13)
H33 H 0.3122 0.4292 0.9519
H34 H 0.2096 0.4495 0.9573
C33 C 0.2539(13) 0.4598(7) 0.8366(13)
H35 H 0.1915 0.4641 0.8100
H36 H 0.2802 0.4979 0.8458
C34 C 0.3112(11) 0.4262(7) 0.7783(12)
H37 H 0.3108 0.4455 0.7234
H38 H 0.3748 0.4244 0.8029
C35 C 0.2946(10) 0.2397(6) 0.8429(9)
H39 H 0.3570 0.2481 0.8553
C36 C 0.2666(9) 0.1800(6) 0.8303(9)
C37 C 0.3269(9) 0.1351(6) 0.8407(10)
C38 C 0.2991(10) 0.0801(6) 0.8321(10)
H40 H 0.3422 0.0505 0.8405
C39 C 0.2095(10) 0.0673(6) 0.8114(9)
C40 C 0.1494(10) 0.1120(6) 0.7961(8)
C41 C 0.1767(9) 0.1672(6) 0.8069(9)
H41 H 0.1336 0.1967 0.7982
C42 C 0.1827(9) 0.0072(6) 0.8066(9)
H42 H 0.1286 -0.0038 0.7748
Br7 Br -0.01381(13) 0.28129(8) 0.29288(11)
Br8 Br 0.23222(12) 0.16014(7) 0.59982(10)
Br9 Br -0.06498(10) 0.42962(7) 0.38753(10)
Br10 Br 0.31698(9) 0.53688(6) 0.55260(10)
Br11 Br 0.04569(11) 0.39655(7) 0.10191(15)
Br12 Br 0.45604(11) 0.33290(7) 0.25555(12)
N7 N 0.2534(8) 0.2138(5) 0.1359(8)
N8 N 0.1847(9) 0.1436(5) 0.2636(8)
N9 N 0.0195(8) 0.2895(5) 0.6311(8)
N10 N 0.0429(8) 0.4070(5) 0.6530(8)
N11 N 0.1892(7) 0.5757(4) 0.2990(8)
N12 N 0.2655(8) 0.5201(5) 0.1647(8)
C43 C 0.2713(10) 0.1531(6) 0.1428(9)
H43 H 0.3252 0.1470 0.1835
C44 C 0.1890(11) 0.1253(6) 0.1771(9)
H44 H 0.1329 0.1379 0.1433
C45 C 0.1950(12) 0.0613(6) 0.1740(10)
H45 H 0.2446 0.0485 0.2148
H46 H 0.1376 0.0451 0.1911
C46 C 0.2120(12) 0.0390(7) 0.0877(11)
H47 H 0.1597 0.0481 0.0474
H48 H 0.2190 -0.0025 0.0898
C47 C 0.2980(13) 0.0659(7) 0.0588(11)
H49 H 0.3078 0.0522 0.0018
H50 H 0.3506 0.0541 0.0968
C48 C 0.2925(12) 0.1306(6) 0.0576(10)
H51 H 0.3510 0.1464 0.0425
H52 H 0.2447 0.1428 0.0146
C49 C 0.1245(11) 0.1784(6) 0.2786(10)
H53 H 0.0831 0.1906 0.2339
C50 C 0.1157(10) 0.2013(6) 0.3644(9)
C51 C 0.0547(10) 0.2441(6) 0.3816(10)
C52 C 0.0475(10) 0.2630(6) 0.4623(9)
H54 H 0.0059 0.2924 0.4720
C53 C 0.1000(9) 0.2398(6) 0.5303(10)
C54 C 0.1598(10) 0.1971(6) 0.5114(9)
C55 C 0.1688(9) 0.1785(6) 0.4312(10)
H55 H 0.2116 0.1499 0.4216
C56 C 0.0903(10) 0.2624(6) 0.6154(10)
H56 H 0.1372 0.2565 0.6585
C57 C 0.0165(9) 0.3149(6) 0.7131(9)
H57 H 0.0789 0.3157 0.7423
C58 C -0.0194(10) 0.3756(6) 0.7002(9)
H58 H -0.0796 0.3740 0.6670
C59 C -0.0317(11) 0.4041(7) 0.7839(10)
H59 H 0.0285 0.4100 0.8142
H60 H -0.0597 0.4417 0.7733
C60 C -0.0906(13) 0.3699(8) 0.8385(11)
H61 H -0.0904 0.3879 0.8943
H62 H -0.1538 0.3699 0.8130
C61 C -0.0579(13) 0.3102(7) 0.8489(10)
H63 H -0.1016 0.2886 0.8800
H64 H 0.0012 0.3100 0.8826
C62 C -0.0472(10) 0.2816(6) 0.7656(9)
H65 H -0.1073 0.2781 0.7341
H66 H -0.0227 0.2431 0.7757
C63 C 0.0179(8) 0.4173(5) 0.5782(8)
H67 H -0.0395 0.4036 0.5562
C64 C 0.0734(9) 0.4501(5) 0.5217(8)
C65 C 0.0476(9) 0.4588(6) 0.4370(9)
C66 C 0.0974(8) 0.4916(5) 0.3868(9)
H68 H 0.0764 0.4974 0.3298
C67 C 0.1786(9) 0.5164(5) 0.4187(9)
C68 C 0.2042(9) 0.5058(5) 0.5023(9)
C69 C 0.1561(9) 0.4736(6) 0.5543(9)
H69 H 0.1781 0.4673 0.6109
C70 C 0.2299(9) 0.5518(6) 0.3655(9)
H70 H 0.2929 0.5577 0.3790
C71 C 0.2478(8) 0.6061(6) 0.2439(8)
H71 H 0.3125 0.6030 0.2666
C72 C 0.2356(11) 0.5791(6) 0.1574(9)
H72 H 0.1699 0.5801 0.1371
C73 C 0.2890(11) 0.6105(6) 0.0963(9)
H73 H 0.2787 0.5928 0.0403
H74 H 0.3545 0.6073 0.1141
C74 C 0.2631(12) 0.6727(7) 0.0898(10)
H75 H 0.3026 0.6921 0.0518
H76 H 0.1996 0.6762 0.0658
C75 C 0.2731(11) 0.7005(6) 0.1757(10)
H77 H 0.2504 0.7398 0.1712
H78 H 0.3380 0.7017 0.1963
C76 C 0.2199(10) 0.6679(6) 0.2379(10)
H79 H 0.2300 0.6855 0.2939
H80 H 0.1543 0.6704 0.2203
C77 C 0.2045(9) 0.4834(6) 0.1623(8)
H81 H 0.1427 0.4945 0.1545
C78 C 0.2272(10) 0.4232(6) 0.1713(9)
C79 C 0.1676(9) 0.3801(6) 0.1465(9)
C80 C 0.1897(10) 0.3236(6) 0.1523(10)
H82 H 0.1457 0.2957 0.1357
C81 C 0.2762(9) 0.3078(6) 0.1825(9)
C82 C 0.3367(9) 0.3509(6) 0.2114(9)
C83 C 0.3121(10) 0.4069(6) 0.2052(10)
H83 H 0.3545 0.4349 0.2247
C84 C 0.2998(9) 0.2473(6) 0.1859(9)
H84 H 0.3476 0.2335 0.2238
C85 C 0.0791(11) 0.6242(6) 0.9250(10)
C86 C 0.0231(11) 0.6013(7) 0.9814(9)
C87 C -0.0358(11) 0.6359(6) 1.0204(10)
H85 H -0.0741 0.6201 1.0591
C88 C -0.0400(11) 0.6942(6) 1.0038(10)
H86 H -0.0800 0.7177 1.0317
C89 C 0.0140(12) 0.7164(7) 0.9470(12)
H87 H 0.0106 0.7555 0.9340
C90 C 0.0747(11) 0.6814(7) 0.9075(11)
H88 H 0.1130 0.6972 0.8686
C91 C 0.1434(14) 0.5877(10) 0.8833(13)
H89 H 0.1794 0.6108 0.8476
H90 H 0.1094 0.5594 0.8490
H91 H 0.1838 0.5687 0.9259
C92 C 0.0241(14) 0.5386(7) 0.9991(12)
H92 H -0.0166 0.5304 1.0429
H93 H 0.0859 0.5268 1.0180
H94 H 0.0038 0.5181 0.9479
C93 C 0.4823(12) 0.8952(8) 0.0074(13)
C94 C 0.4232(16) 0.8779(9) 0.0631(15)
C95 C 0.4136(19) 0.8221(9) 0.0849(17)
H95 H 0.3750 0.8115 0.1268
C96 C 0.462(2) 0.7813(12) 0.044(2)
H96 H 0.4519 0.7425 0.0542
C97 C 0.5251(19) 0.7962(11) -0.012(2)
H97 H 0.5615 0.7692 -0.0376
C98 C 0.531(2) 0.8548(12) -0.0285(18)
H98 H 0.5722 0.8666 -0.0675
C99 C 0.493(3) 0.9544(12) -0.019(3)
H99 H 0.5508 0.9587 -0.0445
H100 H 0.4922 0.9793 0.0296
H101 H 0.4431 0.9645 -0.0605
C100 C 0.371(2) 0.9208(12) 0.107(2)
H102 H 0.4103 0.9377 0.1523
H103 H 0.3189 0.9030 0.1295
H104 H 0.3503 0.9503 0.0667
C101 C 0.6323(15) 0.3481(9) 0.6048(15)
C102 C 0.6078(12) 0.3446(8) 0.5195(14)
C103 C 0.5308(15) 0.3744(8) 0.4897(15)
H105 H 0.5108 0.3719 0.4319
C104 C 0.4821(15) 0.4079(10) 0.542(3)
H106 H 0.4301 0.4279 0.5197
C105 C 0.506(2) 0.4118(11) 0.618(2)
H107 H 0.4723 0.4355 0.6519
C106 C 0.580(3) 0.3827(12) 0.6548(18)
H108 H 0.5961 0.3860 0.7133
C107 C 0.715(2) 0.3198(15) 0.646(3)
H109 H 0.7008 0.2802 0.6566
H110 H 0.7334 0.3388 0.6984
H111 H 0.7640 0.3218 0.6082
C108 C 0.659(2) 0.3098(10) 0.463(2)
H112 H 0.6889 0.2789 0.4948
H113 H 0.7045 0.3332 0.4384
H114 H 0.6170 0.2943 0.4183
C109 C 0.0928(13) 0.6436(8) 0.5204(11)
C110 C 0.1233(16) 0.6464(9) 0.6028(14)
C111 C 0.082(3) 0.6111(12) 0.6613(17)
H115 H 0.1036 0.6118 0.7188
C112 C 0.010(2) 0.5755(10) 0.635(2)
H116 H -0.0185 0.5527 0.6738
C113 C -0.0176(18) 0.5744(9) 0.553(2)
H117 H -0.0656 0.5497 0.5343
C114 C 0.0198(15) 0.6067(8) 0.4970(14)
H118 H -0.0031 0.6049 0.4399
C115 C 0.1334(14) 0.6787(9) 0.4550(15)
H119 H 0.1336 0.7184 0.4719
H120 H 0.0974 0.6742 0.4013
H121 H 0.1958 0.6663 0.4491
C116 C 0.201(2) 0.6845(12) 0.6324(19)
H122 H 0.2577 0.6697 0.6125
H123 H 0.2068 0.6858 0.6937
H124 H 0.1902 0.7225 0.6100
loop_
_geom_bond_atom_site_label_1
_geom_bond_atom_site_label_2
_geom_bond_site_symmetry_1
_geom_bond_site_symmetry_2
Br1 C9 1_555 1_555
Br2 C12 1_555 1_555
Br3 C23 1_555 1_555
Br4 C26 1_555 1_555
Br5 C37 1_555 1_555
Br6 C40 1_555 1_555
N1 C1 1_555 1_555
N2 C2 1_555 1_555
N3 C14 1_555 1_555
N4 C16 1_555 1_555
N5 C28 1_555 1_555
N6 C30 1_555 1_555
C1 H1 1_555 1_555
C2 C1 1_555 1_555
H2 C2 1_555 1_555
C3 C2 1_555 1_555
H3 C3 1_555 1_555
H4 C3 1_555 1_555
C4 C3 1_555 1_555
H5 C4 1_555 1_555
H6 C4 1_555 1_555
C5 C4 1_555 1_555
H7 C5 1_555 1_555
H8 C5 1_555 1_555
C6 C1 1_555 1_555
H9 C6 1_555 1_555
H10 C6 1_555 1_555
C7 N2 1_555 1_555
H11 C7 1_555 1_555
C8 C7 1_555 1_555
C9 C8 1_555 1_555
C10 C9 1_555 1_555
H12 C10 1_555 1_555
C11 C10 1_555 1_555
C12 C11 1_555 1_555
C13 C8 1_555 1_555
H13 C13 1_555 1_555
C14 C11 1_555 1_555
H14 C14 1_555 1_555
C15 N3 1_555 1_555
H15 C15 1_555 1_555
C16 C15 1_555 1_555
H16 C16 1_555 1_555
C17 C16 1_555 1_555
H17 C17 1_555 1_555
H18 C17 1_555 1_555
C18 C17 1_555 1_555
H19 C18 1_555 1_555
H20 C18 1_555 1_555
C19 C18 1_555 1_555
H21 C19 1_555 1_555
H22 C19 1_555 1_555
C20 C15 1_555 1_555
H23 C20 1_555 1_555
H24 C20 1_555 1_555
C21 N4 1_555 1_555
H25 C21 1_555 1_555
C22 C21 1_555 1_555
C23 C22 1_555 1_555
C24 C23 1_555 1_555
H26 C24 1_555 1_555
C25 C24 1_555 1_555
C26 C25 1_555 1_555
C27 C22 1_555 1_555
H27 C27 1_555 1_555
C28 C25 1_555 1_555
H28 C28 1_555 1_555
C29 N5 1_555 1_555
H29 C29 1_555 1_555
C30 C29 1_555 1_555
H30 C30 1_555 1_555
C31 C30 1_555 1_555
H31 C31 1_555 1_555
H32 C31 1_555 1_555
C32 C31 1_555 1_555
H33 C32 1_555 1_555
H34 C32 1_555 1_555
C33 C32 1_555 1_555
H35 C33 1_555 1_555
H36 C33 1_555 1_555
C34 C29 1_555 1_555
H37 C34 1_555 1_555
H38 C34 1_555 1_555
C35 N6 1_555 1_555
H39 C35 1_555 1_555
C36 C35 1_555 1_555
C37 C36 1_555 1_555
C38 C37 1_555 1_555
H40 C38 1_555 1_555
C39 C38 1_555 1_555
C40 C39 1_555 1_555
C41 C36 1_555 1_555
H41 C41 1_555 1_555
C42 N1 1_555 1_555
H42 C42 1_555 1_555
Br7 C51 1_555 1_555
Br8 C54 1_555 1_555
Br9 C65 1_555 1_555
Br10 C68 1_555 1_555
Br11 C79 1_555 1_555
Br12 C82 1_555 1_555
N7 C43 1_555 1_555
N8 C44 1_555 1_555
N9 C56 1_555 1_555
N10 C58 1_555 1_555
N11 C70 1_555 1_555
N12 C72 1_555 1_555
C43 H43 1_555 1_555
C44 C43 1_555 1_555
H44 C44 1_555 1_555
C45 C44 1_555 1_555
H45 C45 1_555 1_555
H46 C45 1_555 1_555
C46 C45 1_555 1_555
H47 C46 1_555 1_555
H48 C46 1_555 1_555
C47 C46 1_555 1_555
H49 C47 1_555 1_555
H50 C47 1_555 1_555
C48 C43 1_555 1_555
H51 C48 1_555 1_555
H52 C48 1_555 1_555
C49 N8 1_555 1_555
H53 C49 1_555 1_555
C50 C49 1_555 1_555
C51 C50 1_555 1_555
C52 C51 1_555 1_555
H54 C52 1_555 1_555
C53 C52 1_555 1_555
C54 C53 1_555 1_555
C55 C50 1_555 1_555
H55 C55 1_555 1_555
C56 C53 1_555 1_555
H56 C56 1_555 1_555
C57 N9 1_555 1_555
H57 C57 1_555 1_555
C58 C57 1_555 1_555
H58 C58 1_555 1_555
C59 C58 1_555 1_555
H59 C59 1_555 1_555
H60 C59 1_555 1_555
C60 C59 1_555 1_555
H61 C60 1_555 1_555
H62 C60 1_555 1_555
C61 C60 1_555 1_555
H63 C61 1_555 1_555
H64 C61 1_555 1_555
C62 C57 1_555 1_555
H65 C62 1_555 1_555
H66 C62 1_555 1_555
C63 N10 1_555 1_555
H67 C63 1_555 1_555
C64 C63 1_555 1_555
C65 C64 1_555 1_555
C66 C65 1_555 1_555
H68 C66 1_555 1_555
C67 C66 1_555 1_555
C68 C67 1_555 1_555
C69 C64 1_555 1_555
H69 C69 1_555 1_555
C70 C67 1_555 1_555
H70 C70 1_555 1_555
C71 N11 1_555 1_555
H71 C71 1_555 1_555
C72 C71 1_555 1_555
H72 C72 1_555 1_555
C73 C72 1_555 1_555
H73 C73 1_555 1_555
H74 C73 1_555 1_555
C74 C73 1_555 1_555
H75 C74 1_555 1_555
H76 C74 1_555 1_555
C75 C74 1_555 1_555
H77 C75 1_555 1_555
H78 C75 1_555 1_555
C76 C71 1_555 1_555
H79 C76 1_555 1_555
H80 C76 1_555 1_555
C77 N12 1_555 1_555
H81 C77 1_555 1_555
C78 C77 1_555 1_555
C79 C78 1_555 1_555
C80 C79 1_555 1_555
H82 C80 1_555 1_555
C81 C80 1_555 1_555
C82 C81 1_555 1_555
C83 C78 1_555 1_555
H83 C83 1_555 1_555
C84 N7 1_555 1_555
H84 C84 1_555 1_555
C85 C86 1_555 1_555
C86 C87 1_555 1_555
C87 H85 1_555 1_555
C88 C87 1_555 1_555
H86 C88 1_555 1_555
C89 C88 1_555 1_555
H87 C89 1_555 1_555
C90 C85 1_555 1_555
H88 C90 1_555 1_555
C91 C85 1_555 1_555
H89 C91 1_555 1_555
H90 C91 1_555 1_555
H91 C91 1_555 1_555
C92 C86 1_555 1_555
H92 C92 1_555 1_555
H93 C92 1_555 1_555
H94 C92 1_555 1_555
C93 C94 1_555 1_555
C94 C95 1_555 1_555
C95 H95 1_555 1_555
C96 C95 1_555 1_555
H96 C96 1_555 1_555
C97 C96 1_555 1_555
H97 C97 1_555 1_555
C98 C93 1_555 1_555
H98 C98 1_555 1_555
C99 C93 1_555 1_555
H99 C99 1_555 1_555
H100 C99 1_555 1_555
H101 C99 1_555 1_555
C100 C94 1_555 1_555
H102 C100 1_555 1_555
H103 C100 1_555 1_555
H104 C100 1_555 1_555
C101 C102 1_555 1_555
C102 C103 1_555 1_555
C103 H105 1_555 1_555
C104 C103 1_555 1_555
H106 C104 1_555 1_555
C105 C104 1_555 1_555
H107 C105 1_555 1_555
C106 C101 1_555 1_555
H108 C106 1_555 1_555
C107 C101 1_555 1_555
H109 C107 1_555 1_555
H110 C107 1_555 1_555
H111 C107 1_555 1_555
C108 C102 1_555 1_555
H112 C108 1_555 1_555
H113 C108 1_555 1_555
H114 C108 1_555 1_555
C109 C110 1_555 1_555
C110 C111 1_555 1_555
C111 H115 1_555 1_555
C112 C111 1_555 1_555
H116 C112 1_555 1_555
C113 C112 1_555 1_555
H117 C113 1_555 1_555
C114 C109 1_555 1_555
H118 C114 1_555 1_555
C115 C109 1_555 1_555
H119 C115 1_555 1_555
H120 C115 1_555 1_555
H121 C115 1_555 1_555
C116 C110 1_555 1_555
H122 C116 1_555 1_555
H123 C116 1_555 1_555
H124 C116 1_555 1_555
C5 C6 1_555 1_555
C12 C13 1_555 1_555
C19 C20 1_555 1_555
C26 C27 1_555 1_555
C33 C34 1_555 1_555
C39 C42 1_555 1_555
C40 C41 1_555 1_555
C47 C48 1_555 1_555
C54 C55 1_555 1_555
C61 C62 1_555 1_555
C68 C69 1_555 1_555
C75 C76 1_555 1_555
C81 C84 1_555 1_555
C82 C83 1_555 1_555
C89 C90 1_555 1_555
C97 C98 1_555 1_555
C105 C106 1_555 1_555
C113 C114 1_555 1_555

#END
