
#######################################################################
#
#                 Cambridge Crystallographic Data Centre
#                                CCDC 
#
#######################################################################
#
# If this CIF has been generated from an entry in the Cambridge 
# Structural Database, then it will include bibliographic, chemical, 
# crystal, experimental, refinement or atomic coordinate data resulting 
# from the CCDC's data processing and validation procedures.
#
#######################################################################

data_IFOSII
_chemical_formula_moiety         'C25 H22 N4 O6'
_chemical_name_systematic        
'methyl [2-(benzylcarbamoyl)-1-(4-nitrophenyl)-4-oxo-2-(pyridin-2-yl)azetidin-3-yl]acetate'
_symmetry_cell_setting           monoclinic
_symmetry_space_group_name_H-M   'P 21/c'
_symmetry_Int_Tables_number      14
_space_group_name_Hall           '-P 2ybc'
loop_
_symmetry_equiv_pos_site_id
_symmetry_equiv_pos_as_xyz
1 x,y,z
2 -x,1/2+y,1/2-z
3 -x,-y,-z
4 x,1/2-y,1/2+z
_cell_length_a                   7.6583(9)
_cell_length_b                   11.7333(12)
_cell_length_c                   25.007(2)
_cell_angle_alpha                90
_cell_angle_beta                 95.687(11)
_cell_angle_gamma                90
_cell_volume                     2236
_exptl_crystal_colour            colorless
_exptl_crystal_description       block
_cell_formula_units_Z            4
loop_
_atom_site_label
_atom_site_type_symbol
_atom_site_fract_x
_atom_site_fract_y
_atom_site_fract_z
O1 O 0.4116(4) 0.93597(18) 0.70332(9)
O2 O 0.3937(4) 0.80800(19) 0.76454(9)
O3 O 0.7727(4) 0.59010(19) 0.50705(9)
O4 O 0.9551(3) 0.16223(19) 0.54015(10)
O5 O 0.6929(3) 0.11664(18) 0.49737(9)
O6 O 1.0276(3) 0.49350(19) 0.64796(10)
N1 N 0.7119(4) 0.5116(2) 0.58974(10)
N2 N 0.4290(4) 0.8374(2) 0.71956(11)
N3 N 0.9795(4) 0.3147(2) 0.67656(10)
H1 H 0.9160 0.2544 0.6715
N4 N 0.6886(4) 0.2080(2) 0.63006(10)
C1 C 0.4971(5) 0.7525(3) 0.68525(12)
C2 C 0.5336(5) 0.6440(3) 0.70558(13)
H2 H 0.5094 0.6251 0.7402
C3 C 0.6057(5) 0.5654(3) 0.67373(13)
H3 H 0.6309 0.4925 0.6869
C4 C 0.6418(5) 0.5937(3) 0.62169(12)
C5 C 0.6037(5) 0.7033(2) 0.60150(13)
H4 H 0.6262 0.7224 0.5667
C6 C 0.5324(5) 0.7824(3) 0.63373(13)
H5 H 0.5080 0.8557 0.6210
C7 C 0.7760(5) 0.5159(3) 0.54037(13)
C8 C 0.8473(5) 0.3947(3) 0.54561(12)
H6 H 0.9756 0.3926 0.5474
C9 C 0.7791(5) 0.3959(3) 0.60359(13)
C10 C 0.7619(5) 0.3113(3) 0.50449(12)
H7 H 0.6354 0.3167 0.5040
H8 H 0.7929 0.3320 0.4691
C11 C 0.8180(5) 0.1902(3) 0.51657(13)
C12 C 0.7345(5) -0.0025(3) 0.50764(16)
H9 H 0.6398 -0.0491 0.4921
H10 H 0.7512 -0.0154 0.5457
H11 H 0.8401 -0.0217 0.4920
C13 C 0.6346(5) 0.3113(3) 0.61174(12)
C14 C 0.4600(5) 0.3360(3) 0.59717(13)
H12 H 0.4269 0.4082 0.5845
C15 C 0.3352(5) 0.2528(3) 0.60156(13)
H13 H 0.2173 0.2675 0.5914
C16 C 0.3893(5) 0.1466(3) 0.62144(13)
H14 H 0.3085 0.0888 0.6254
C17 C 0.5652(5) 0.1293(3) 0.63503(13)
H15 H 0.6008 0.0583 0.6486
C18 C 0.9397(5) 0.4059(3) 0.64615(13)
C19 C 1.1272(5) 0.3134(3) 0.71812(13)
H16 H 1.2126 0.3697 0.7094
H17 H 1.1831 0.2392 0.7184
C20 C 1.0730(5) 0.3381(3) 0.77330(13)
C21 C 1.0817(5) 0.4477(3) 0.79382(14)
H18 H 1.1238 0.5064 0.7737
C22 C 1.0285(5) 0.4710(3) 0.84390(14)
H19 H 1.0346 0.5449 0.8574
C23 C 0.9660(5) 0.3833(3) 0.87392(14)
H20 H 0.9290 0.3986 0.9075
C24 C 0.9586(5) 0.2733(3) 0.85420(13)
H21 H 0.9170 0.2145 0.8744
C25 C 1.0133(5) 0.2514(3) 0.80420(13)
H22 H 1.0099 0.1771 0.7911
loop_
_geom_bond_atom_site_label_1
_geom_bond_atom_site_label_2
_geom_bond_site_symmetry_1
_geom_bond_site_symmetry_2
O1 N2 1_555 1_555
O2 N2 1_555 1_555
O3 C7 1_555 1_555
O4 C11 1_555 1_555
O5 C11 1_555 1_555
O6 C18 1_555 1_555
N1 C4 1_555 1_555
N2 C1 1_555 1_555
N3 H1 1_555 1_555
N4 C13 1_555 1_555
C1 C2 1_555 1_555
C2 H2 1_555 1_555
C3 C2 1_555 1_555
H3 C3 1_555 1_555
C4 C3 1_555 1_555
C5 C4 1_555 1_555
H4 C5 1_555 1_555
C6 C1 1_555 1_555
H5 C6 1_555 1_555
C7 N1 1_555 1_555
C8 C7 1_555 1_555
H6 C8 1_555 1_555
C9 N1 1_555 1_555
C10 C8 1_555 1_555
H7 C10 1_555 1_555
H8 C10 1_555 1_555
C11 C10 1_555 1_555
C12 O5 1_555 1_555
H9 C12 1_555 1_555
H10 C12 1_555 1_555
H11 C12 1_555 1_555
C13 C9 1_555 1_555
C14 C13 1_555 1_555
H12 C14 1_555 1_555
C15 C14 1_555 1_555
H13 C15 1_555 1_555
C16 C15 1_555 1_555
H14 C16 1_555 1_555
C17 N4 1_555 1_555
H15 C17 1_555 1_555
C18 N3 1_555 1_555
C19 N3 1_555 1_555
H16 C19 1_555 1_555
H17 C19 1_555 1_555
C20 C19 1_555 1_555
C21 C20 1_555 1_555
H18 C21 1_555 1_555
C22 C21 1_555 1_555
H19 C22 1_555 1_555
C23 C22 1_555 1_555
H20 C23 1_555 1_555
C24 C23 1_555 1_555
H21 C24 1_555 1_555
C25 C20 1_555 1_555
H22 C25 1_555 1_555
C5 C6 1_555 1_555
C8 C9 1_555 1_555
C9 C18 1_555 1_555
C16 C17 1_555 1_555
C24 C25 1_555 1_555

#END
