
#######################################################################
#
#                 Cambridge Crystallographic Data Centre
#                                CCDC 
#
#######################################################################
#
# If this CIF has been generated from an entry in the Cambridge 
# Structural Database, then it will include bibliographic, chemical, 
# crystal, experimental, refinement or atomic coordinate data resulting 
# from the CCDC's data processing and validation procedures.
#
#######################################################################

data_IFOTUV
_chemical_formula_moiety         'C6 H2 N18 O4 2-,2(C1 H9 N6 1+)'
_chemical_name_systematic        
"bis[1,2,3-Triaminoguanidinium] 5,5'-{hydrazine-1,2-diylbis[(3-nitro-1H-1,2,4-triazole-5,1-diyl)]}bis(tetrazol-1-ide)"
_symmetry_cell_setting           monoclinic
_symmetry_space_group_name_H-M   'P 2'
_symmetry_Int_Tables_number      3
_space_group_name_Hall           'P 2y'
loop_
_symmetry_equiv_pos_site_id
_symmetry_equiv_pos_as_xyz
1 x,y,z
2 -x,y,-z
_cell_length_a                   11.727(2)
_cell_length_b                   7.3404(15)
_cell_length_c                   13.670(3)
_cell_angle_alpha                90
_cell_angle_beta                 90.36(3)
_cell_angle_gamma                90
_cell_volume                     1176.7
_exptl_crystal_colour            yellow
_exptl_crystal_description       block
_cell_formula_units_Z            2
loop_
_atom_site_label
_atom_site_type_symbol
_atom_site_fract_x
_atom_site_fract_y
_atom_site_fract_z
O1 O 0.6582(3) 0.0337(5) 0.7382(3)
O2 O 0.6404(3) 0.0481(6) 0.8970(3)
N1 N 0.6920(3) 0.0775(6) 0.8202(3)
N2 N 0.8386(3) 0.2284(5) 0.9161(3)
N3 N 0.8621(3) 0.2016(5) 0.7503(3)
N4 N 0.9532(3) 0.2899(5) 0.7920(3)
N5 N 1.0119(3) 0.3887(6) 0.9506(2)
H1 H 1.0660 0.4535 0.9285
N6 N 1.1327(3) 0.4397(6) 0.7786(3)
N7 N 1.2061(4) 0.4653(6) 0.7034(3)
N8 N 1.1629(4) 0.3903(6) 0.6233(3)
N9 N 1.0604(4) 0.3120(6) 0.6427(3)
C1 C 0.8001(4) 0.1725(6) 0.8278(3)
C2 C 0.9375(4) 0.3053(6) 0.8913(3)
C3 C 1.0476(4) 0.3469(6) 0.7373(3)
O1A O 1.3418(3) 0.0337(5) 1.2618(3)
O2A O 1.3596(3) 0.0481(6) 1.1030(3)
N1A N 1.3080(3) 0.0775(6) 1.1798(3)
N2A N 1.1614(3) 0.2284(5) 1.0839(3)
N3A N 1.1379(3) 0.2016(5) 1.2497(3)
N4A N 1.0468(3) 0.2899(5) 1.2080(3)
N5A N 0.9881(3) 0.3887(6) 1.0494(2)
H1A H 0.9340 0.4535 1.0715
N6A N 0.8673(3) 0.4397(6) 1.2214(3)
N7A N 0.7939(4) 0.4653(6) 1.2966(3)
N8A N 0.8371(4) 0.3903(6) 1.3767(3)
N9A N 0.9396(4) 0.3120(6) 1.3573(3)
C1A C 1.1999(4) 0.1725(6) 1.1722(3)
C2A C 1.0625(4) 0.3053(6) 1.1087(3)
C3A C 0.9524(4) 0.3469(6) 1.2627(3)
O3 O 1.0993(4) 0.9660(5) 0.8902(3)
O4 O 1.2141(3) 0.9863(6) 0.7662(3)
N10 N 1.1244(4) 0.9387(6) 0.8040(3)
N11 N 1.0659(3) 0.8143(5) 0.6469(3)
N12 N 0.9441(3) 0.7887(5) 0.7785(2)
N13 N 0.8994(3) 0.7076(5) 0.6966(2)
N14 N 0.9535(3) 0.6490(5) 0.5313(2)
H2 H 0.9004 0.5712 0.5241
N15 N 0.7487(3) 0.5479(6) 0.6170(3)
N16 N 0.6490(3) 0.4769(6) 0.6483(3)
N17 N 0.6371(4) 0.5082(6) 0.7426(3)
N18 N 0.7285(3) 0.6002(6) 0.7768(3)
C4 C 1.0422(4) 0.8469(6) 0.7419(3)
C5 C 0.9736(4) 0.7219(6) 0.6199(3)
C6 C 0.7922(4) 0.6207(6) 0.6974(3)
O3A O 0.9007(4) 0.9660(5) 0.1098(3)
O4A O 0.7859(3) 0.9863(6) 0.2338(3)
N10A N 0.8756(4) 0.9387(6) 0.1960(3)
N11A N 0.9341(3) 0.8143(5) 0.3531(3)
N12A N 1.0559(3) 0.7887(5) 0.2215(2)
N13A N 1.1006(3) 0.7076(5) 0.3034(2)
N14A N 1.0465(3) 0.6490(5) 0.4687(2)
H2A H 1.0996 0.5712 0.4759
N15A N 1.2513(3) 0.5479(6) 0.3830(3)
N16A N 1.3510(3) 0.4769(6) 0.3517(3)
N17A N 1.3629(4) 0.5082(6) 0.2574(3)
N18A N 1.2715(3) 0.6002(6) 0.2232(3)
C4A C 0.9578(4) 0.8469(6) 0.2581(3)
C5A C 1.0264(4) 0.7219(6) 0.3801(3)
C6A C 1.2078(4) 0.6207(6) 0.3026(3)
N19 N 0.4399(3) 0.5987(6) 0.8643(3)
H3 H 0.4891 0.5196 0.8477
N20 N 0.4559(4) 0.7837(6) 0.8434(3)
H4 H 0.4395 0.7993 0.7833
H5 H 0.5151 0.8271 0.8710
N21 N 0.2948(3) 0.6876(6) 0.9639(3)
H6 H 0.3245 0.7884 0.9470
N22 N 0.1927(3) 0.6476(6) 1.0151(3)
H7 H 0.1478 0.7340 0.9995
H8 H 0.2005 0.6513 1.0769
N23 N 0.3297(3) 0.3810(5) 0.9405(3)
H9 H 0.2830 0.3373 0.9816
N24 N 0.3830(4) 0.2470(6) 0.8817(3)
H10 H 0.3374 0.1768 0.8512
H11 H 0.4171 0.1876 0.9265
C7 C 0.3540(4) 0.5531(7) 0.9218(3)
N25 N 0.3342(4) 0.8213(5) 0.5451(3)
H12 H 0.2753 0.7914 0.5123
N26 N 0.3944(4) 0.7020(6) 0.6082(4)
H13 H 0.3533 0.6781 0.6575
H14 H 0.4093 0.6040 0.5777
N27 N 0.4336(3) 1.0546(6) 0.6139(3)
H15 H 0.4794 0.9736 0.6349
N28 N 0.4479(4) 1.2452(6) 0.6256(3)
H16 H 0.4384 1.2606 0.6867
H17 H 0.5049 1.2494 0.5876
N29 N 0.2863(3) 1.1157(6) 0.5075(3)
H18 H 0.2642 1.2175 0.5303
N30 N 0.1852(4) 1.0497(7) 0.4621(3)
H19 H 0.1678 1.0958 0.4070
H20 H 0.1286 1.0552 0.5006
C8 C 0.3498(4) 0.9981(6) 0.5565(3)
loop_
_geom_bond_atom_site_label_1
_geom_bond_atom_site_label_2
_geom_bond_site_symmetry_1
_geom_bond_site_symmetry_2
O1 N1 1_555 1_555
O2 N1 1_555 1_555
N1 C1 1_555 1_555
N2 C1 1_555 1_555
N3 N4 1_555 1_555
N4 C2 1_555 1_555
N5 H1 1_555 1_555
N6 N7 1_555 1_555
N7 N8 1_555 1_555
N8 N9 1_555 1_555
N9 C3 1_555 1_555
C1 N3 1_555 1_555
C2 N2 1_555 1_555
C3 N4 1_555 1_555
O3 N10 1_555 1_555
O4 N10 1_555 1_555
N10 C4 1_555 1_555
N11 C4 1_555 1_555
N12 N13 1_555 1_555
N13 C5 1_555 1_555
N14 H2 1_555 1_555
N15 N16 1_555 1_555
N16 N17 1_555 1_555
N17 N18 1_555 1_555
N18 C6 1_555 1_555
C4 N12 1_555 1_555
C5 N11 1_555 1_555
C6 N13 1_555 1_555
N19 H3 1_555 1_555
N20 N19 1_555 1_555
H4 N20 1_555 1_555
H5 N20 1_555 1_555
N21 H6 1_555 1_555
N22 N21 1_555 1_555
H7 N22 1_555 1_555
H8 N22 1_555 1_555
N23 H9 1_555 1_555
N24 N23 1_555 1_555
H10 N24 1_555 1_555
H11 N24 1_555 1_555
C7 N19 1_555 1_555
N25 H12 1_555 1_555
N26 N25 1_555 1_555
H13 N26 1_555 1_555
H14 N26 1_555 1_555
N27 H15 1_555 1_555
N28 N27 1_555 1_555
H16 N28 1_555 1_555
H17 N28 1_555 1_555
N29 H18 1_555 1_555
N30 N29 1_555 1_555
H19 N30 1_555 1_555
H20 N30 1_555 1_555
C8 N25 1_555 1_555
O1A N1A 1_555 1_555
O2A N1A 1_555 1_555
N1A C1A 1_555 1_555
N2A C1A 1_555 1_555
N3A N4A 1_555 1_555
N4A C2A 1_555 1_555
N5A N5 1_555 1_555
H1A N5A 1_555 1_555
N6A N7A 1_555 1_555
N7A N8A 1_555 1_555
N8A N9A 1_555 1_555
N9A C3A 1_555 1_555
C1A N3A 1_555 1_555
C2A N2A 1_555 1_555
C3A N4A 1_555 1_555
O3A N10A 1_555 1_555
O4A N10A 1_555 1_555
N10A C4A 1_555 1_555
N11A C4A 1_555 1_555
N12A N13A 1_555 1_555
N13A C5A 1_555 1_555
N14A N14 1_555 1_555
H2A N14A 1_555 1_555
N15A N16A 1_555 1_555
N16A N17A 1_555 1_555
N17A N18A 1_555 1_555
N18A C6A 1_555 1_555
C4A N12A 1_555 1_555
C5A N11A 1_555 1_555
C6A N13A 1_555 1_555
N5 C2 1_555 1_555
N6 C3 1_555 1_555
N14 C5 1_555 1_555
N15 C6 1_555 1_555
N21 C7 1_555 1_555
N23 C7 1_555 1_555
N27 C8 1_555 1_555
N29 C8 1_555 1_555
N5A C2A 1_555 1_555
N6A C3A 1_555 1_555
N14A C5A 1_555 1_555
N15A C6A 1_555 1_555

#END
