
#######################################################################
#
#                 Cambridge Crystallographic Data Centre
#                                CCDC 
#
#######################################################################
#
# If this CIF has been generated from an entry in the Cambridge 
# Structural Database, then it will include bibliographic, chemical, 
# crystal, experimental, refinement or atomic coordinate data resulting 
# from the CCDC's data processing and validation procedures.
#
#######################################################################

data_IFOVAB
_chemical_formula_moiety         '2(C32 H32 O8),4(C12 H10 N2),3(C15 H14 O1)'
_chemical_name_systematic        
'bis(2,8,14,20-Tetramethyl-4,6,10,12,16,18,22,24-octahydroxycalix[4]arene) tetrakis(1,2-bis(4-pyridyl)ethene) tris(dibenzylketone)'
_symmetry_cell_setting           triclinic
_symmetry_space_group_name_H-M   'P -1'
_symmetry_Int_Tables_number      2
_space_group_name_Hall           '-P 1'
loop_
_symmetry_equiv_pos_site_id
_symmetry_equiv_pos_as_xyz
1 x,y,z
2 -x,-y,-z
_cell_length_a                   13.4560(3)
_cell_length_b                   14.5443(3)
_cell_length_c                   33.3510(7)
_cell_angle_alpha                98.3182(7)
_cell_angle_beta                 92.9058(7)
_cell_angle_gamma                96.6452(8)
_cell_volume                     6399.89
_exptl_crystal_colour            yellow
_exptl_crystal_description       block
_cell_formula_units_Z            2
_exptl_crystal_recrystallization_method ethanol/water
loop_
_atom_site_label
_atom_site_type_symbol
_atom_site_fract_x
_atom_site_fract_y
_atom_site_fract_z
O1 O 1.01607(9) 1.52918(9) 0.63759(4)
H1 H 1.0301 1.4849 0.6217
O2 O 0.78343(9) 1.53498(9) 0.52487(4)
H2 H 0.8109 1.4894 0.5161
O3 O 0.55342(9) 1.70371(9) 0.50440(4)
H3 H 0.5112 1.6969 0.4853
O4 O 0.33021(9) 1.45421(9) 0.54439(4)
H4 H 0.2987 1.4599 0.5234
O5 O 0.57304(10) 1.30078(9) 0.56187(4)
O6 O 0.81050(9) 1.29753(9) 0.67340(4)
O7 O 0.82961(9) 1.44018(9) 0.80010(4)
H5 H 0.8739 1.4457 0.8184
O8 O 1.04970(9) 1.69144(9) 0.76048(4)
H6 H 1.0836 1.6823 0.7803
C1 C 0.91511(15) 1.77933(13) 0.70125(6)
H12 H 0.9426 1.7992 0.7287
H13 H 0.8434 1.7767 0.7005
H14 H 0.9415 1.8231 0.6843
C2 C 0.94358(13) 1.68199(12) 0.68577(5)
H15 H 1.0169 1.6880 0.6860
C3 C 0.90286(12) 1.64448(12) 0.64238(5)
C4 C 0.93908(12) 1.56733(12) 0.62053(5)
C5 C 0.89827(13) 1.52991(12) 0.58160(5)
H16 H 0.9216 1.4773 0.5678
C6 C 0.82284(12) 1.57046(12) 0.56323(5)
C7 C 0.78592(12) 1.64904(12) 0.58359(5)
C8 C 0.82709(12) 1.68286(12) 0.62291(5)
H17 H 0.8024 1.7343 0.6370
C9 C 0.68752(14) 1.78871(12) 0.58464(6)
H18 H 0.7503 1.8286 0.5874
H19 H 0.6638 1.7842 0.6110
H20 H 0.6393 1.8146 0.5688
C10 C 0.70219(13) 1.69102(12) 0.56338(5)
H21 H 0.7214 1.6981 0.5359
C11 C 0.60343(12) 1.62690(12) 0.55862(5)
C12 C 0.53097(13) 1.63577(12) 0.52843(5)
C13 C 0.43945(13) 1.57897(12) 0.52328(5)
H22 H 0.3917 1.5861 0.5032
C14 C 0.41967(12) 1.51153(12) 0.54829(5)
C15 C 0.49000(12) 1.50013(12) 0.57893(5)
C16 C 0.58062(12) 1.55894(12) 0.58332(5)
H23 H 0.6280 1.5525 0.6037
C17 C 0.39586(13) 1.46929(13) 0.63868(5)
H24 H 0.3392 1.4893 0.6252
H25 H 0.4328 1.5218 0.6561
H26 H 0.3729 1.4222 0.6546
C18 C 0.46380(12) 1.42876(12) 0.60698(5)
H27 H 0.4243 1.3743 0.5904
C19 C 0.55607(12) 1.39466(11) 0.62528(5)
C20 C 0.60829(13) 1.33213(12) 0.60139(5)
C21 C 0.69340(13) 1.30024(12) 0.61710(5)
H28 H 0.7282 1.2601 0.6005
C22 C 0.72653(12) 1.32836(12) 0.65772(5)
C23 C 0.67486(12) 1.38784(12) 0.68330(5)
C24 C 0.59154(12) 1.42069(12) 0.66589(5)
H29 H 0.5578 1.4623 0.6823
C25 C 0.62476(13) 1.43892(14) 0.75468(5)
H30 H 0.5689 1.3905 0.7492
H31 H 0.6042 1.4970 0.7489
H32 H 0.6482 1.4456 0.7827
C26 C 0.70932(13) 1.41294(12) 0.72790(5)
H33 H 0.7313 1.3563 0.7363
C27 C 0.79975(12) 1.48831(12) 0.73604(5)
C28 C 0.85710(13) 1.49949(12) 0.77299(5)
C29 C 0.93927(13) 1.56781(12) 0.78164(5)
H34 H 0.9757 1.5756 0.8066
C30 C 0.96713(12) 1.62455(12) 0.75303(5)
C31 C 0.91227(12) 1.61566(12) 0.71552(5)
C32 C 0.82944(12) 1.54713(12) 0.70815(5)
H35 H 0.7921 1.5403 0.6834
H146 H 0.829(2) 1.258(2) 0.6553(10)
H149 H 0.588(2) 1.245(2) 0.5547(9)
O9 O 0.58772(10) 0.30905(9) 0.06140(4)
O10 O 0.81531(10) 0.30966(9) 0.17672(4)
O11 O 0.84211(9) 0.45684(9) 0.29877(4)
H7 H 0.8860 0.4633 0.3173
O12 O 1.06091(9) 0.70849(8) 0.25917(4)
H8 H 1.0935 0.7007 0.2796
O13 O 1.02068(9) 0.54145(9) 0.13825(4)
O14 O 0.79222(9) 0.54372(9) 0.02375(4)
H9 H 0.8194 0.4975 0.0156
O15 O 0.56178(9) 0.71148(9) -0.00004(4)
H10 H 0.5174 0.7057 -0.0183
O16 O 0.33859(9) 0.46579(9) 0.04213(4)
H11 H 0.3078 0.4707 0.0208
C33 C 0.40612(13) 0.47965(13) 0.13682(5)
H36 H 0.3493 0.4996 0.1235
H37 H 0.4429 0.5321 0.1543
H38 H 0.3835 0.4321 0.1526
C34 C 0.47442(12) 0.43979(12) 0.10484(5)
H39 H 0.4353 0.3849 0.0884
C35 C 0.56660(12) 0.40625(12) 0.12373(5)
C36 C 0.61927(13) 0.34187(12) 0.10129(5)
C37 C 0.70283(13) 0.31001(12) 0.11873(5)
H40 H 0.7376 0.2677 0.1032
C38 C 0.73403(12) 0.34148(12) 0.15927(5)
C39 C 0.68358(12) 0.40530(12) 0.18307(5)
C40 C 0.60146(12) 0.43614(12) 0.16419(5)
H41 H 0.5677 0.4795 0.1796
C41 C 0.63335(14) 0.47543(16) 0.25244(5)
H42 H 0.5736 0.4313 0.2482
H43 H 0.6196 0.5332 0.2439
H44 H 0.6552 0.4867 0.2808
C42 C 0.71577(13) 0.43574(13) 0.22776(5)
H45 H 0.7314 0.3798 0.2388
C43 C 0.81028(12) 0.50658(12) 0.23508(5)
C44 C 0.86921(12) 0.51609(12) 0.27160(5)
C45 C 0.95217(12) 0.58386(12) 0.28007(5)
H46 H 0.9899 0.5904 0.3047
C46 C 0.97869(12) 0.64186(12) 0.25174(5)
C47 C 0.92255(12) 0.63415(12) 0.21457(5)
C48 C 0.83902(12) 0.56637(12) 0.20758(5)
H47 H 0.8004 0.5608 0.1832
C49 C 0.92442(15) 0.79669(13) 0.19857(6)
H48 H 0.9438 0.8377 0.1794
H49 H 0.9583 0.8210 0.2246
H50 H 0.8532 0.7926 0.2008
C50 C 0.95320(13) 0.69898(12) 0.18402(5)
H51 H 1.0265 0.7049 0.1839
C51 C 0.91075(12) 0.65882(12) 0.14108(5)
C52 C 0.83504(12) 0.69608(12) 0.12108(5)
H52 H 0.8107 0.7485 0.1346
C53 C 0.79349(12) 0.65950(12) 0.08206(5)
C54 C 0.82970(12) 0.58004(12) 0.06260(5)
C55 C 0.90440(13) 0.53995(12) 0.08157(5)
H53 H 0.9271 0.4863 0.0684
C56 C 0.94543(12) 0.57990(12) 0.12022(5)
C57 C 0.69135(14) 0.79699(13) 0.08303(6)
H54 H 0.6387 0.8199 0.0683
H55 H 0.7515 0.8403 0.0848
H56 H 0.6718 0.7906 0.1099
C58 C 0.71052(12) 0.70161(12) 0.06096(5)
H57 H 0.7314 0.7106 0.0339
C59 C 0.61230(12) 0.63675(12) 0.05521(5)
C60 C 0.53944(13) 0.64528(12) 0.02507(5)
C61 C 0.44751(13) 0.58951(12) 0.02071(5)
H58 H 0.3991 0.5967 0.0009
C62 C 0.42838(12) 0.52289(12) 0.04613(5)
C63 C 0.49910(12) 0.51120(12) 0.07660(5)
C64 C 0.58967(12) 0.56964(12) 0.08036(5)
H59 H 0.6374 0.5636 0.1007
H145 H 0.833(2) 0.264(2) 0.1628(10)
H147 H 0.620(2) 0.264(2) 0.0533(9)
H148 H 1.032(2) 0.492(2) 0.1247(9)
O17 O 0.40610(14) 0.94104(13) 0.35258(5)
C117 C 0.2784(2) 1.05237(18) 0.25348(9)
H100 H 0.2821 1.1158 0.2516
C118 C 0.36252(19) 1.01554(17) 0.26624(9)
H101 H 0.4226 1.0547 0.2728
C119 C 0.35926(16) 0.92177(15) 0.26944(6)
C120 C 0.26926(18) 0.86553(17) 0.25907(8)
H102 H 0.2653 0.8020 0.2607
C121 C 0.18451(18) 0.90211(19) 0.24617(9)
H103 H 0.1245 0.8631 0.2393
C122 C 0.18923(18) 0.99563(18) 0.24356(8)
H104 H 0.1324 1.0204 0.2351
C123 C 0.44846(17) 0.88215(17) 0.28592(7)
H105 H 0.5090 0.9142 0.2772
H106 H 0.4443 0.8165 0.2745
C124 C 0.45622(16) 0.89129(15) 0.33198(7)
C125 C 0.52594(16) 0.83285(17) 0.35096(7)
H107 H 0.4932 0.7689 0.3474
H108 H 0.5340 0.8553 0.3799
C126 C 0.62973(16) 0.83088(15) 0.33528(6)
C127 C 0.70473(17) 0.90628(16) 0.34689(7)
H109 H 0.6892 0.9608 0.3622
C128 C 0.80191(18) 0.90064(17) 0.33581(7)
H110 H 0.8515 0.9509 0.3439
C129 C 0.82528(18) 0.81938(18) 0.31247(8)
H111 H 0.8909 0.8149 0.3056
C130 C 0.75150(18) 0.74594(17) 0.29953(7)
H112 H 0.7665 0.6927 0.2831
C131 C 0.65435(17) 0.75181(15) 0.31111(7)
H113 H 0.6048 0.7017 0.3025
O18 O 0.86611(13) 0.11355(13) 0.32010(6)
C132 C 0.6265(4) 0.0067(4) 0.17263(13)
H114 H 0.5914 0.0316 0.1529
C133 C 0.5983(3) -0.0797(4) 0.17891(14)
H115 H 0.5456 -0.1160 0.1627
C134 C 0.6467(3) -0.1169(2) 0.20951(12)
H116 H 0.6247 -0.1767 0.2148
C135 C 0.7291(2) -0.06288(18) 0.23229(8)
H117 H 0.7620 -0.0867 0.2530
C136 C 0.76120(18) 0.02507(18) 0.22411(7)
C137 C 0.7053(3) 0.0591(3) 0.19435(9)
H118 H 0.7232 0.1199 0.1894
C138 C 0.8504(2) 0.0851(2) 0.24724(9)
H119 H 0.8746 0.1332 0.2315
H120 H 0.9037 0.0466 0.2504
C139 C 0.82715(18) 0.13145(17) 0.28885(8)
C140 C 0.75611(19) 0.20386(18) 0.28891(7)
H121 H 0.7098 0.1871 0.2650
H122 H 0.7941 0.2638 0.2870
C141 C 0.69681(17) 0.21451(16) 0.32602(7)
C142 C 0.6650(2) 0.29894(18) 0.39031(8)
H123 H 0.6810 0.3504 0.4106
C143 C 0.71999(18) 0.29107(16) 0.35625(7)
H124 H 0.7724 0.3371 0.3537
C144 C 0.5874(2) 0.23225(18) 0.39455(8)
H125 H 0.5507 0.2389 0.4175
C145 C 0.5636(2) 0.1553(2) 0.36494(9)
H126 H 0.5108 0.1099 0.3677
C146 C 0.6193(2) 0.1461(2) 0.33090(9)
H127 H 0.6045 0.0935 0.3112
N1 N 0.87936(13) 1.15406(12) 0.62712(5)
N2 N 1.16324(12) 0.62872(11) 0.50883(5)
C65 C 0.85661(19) 1.07444(16) 0.64223(7)
H60 H 0.8120 1.0742 0.6626
C66 C 0.89579(18) 0.99288(16) 0.62908(7)
H61 H 0.8783 0.9395 0.6408
C67 C 0.96056(17) 0.99053(15) 0.59867(7)
C68 C 0.98427(17) 1.07288(17) 0.58231(8)
H62 H 1.0277 1.0743 0.5615
C69 C 0.94216(17) 1.15281(15) 0.59745(7)
H63 H 0.9585 1.2074 0.5864
C70 C 1.00047(18) 0.90181(16) 0.58485(7)
H64 H 0.9795 0.8510 0.5977
C71 C 1.06243(17) 0.88793(16) 0.55627(8)
H65 H 1.0856 0.9390 0.5440
C72 C 1.09859(15) 0.79779(14) 0.54196(7)
C73 C 1.15239(18) 0.79039(15) 0.50739(7)
H66 H 1.1683 0.8426 0.4947
C74 C 1.18192(17) 0.70587(15) 0.49199(6)
H67 H 1.2168 0.7024 0.4686
C75 C 1.11406(17) 0.63619(15) 0.54278(7)
H68 H 1.1023 0.5836 0.5555
C76 C 1.07984(18) 0.71774(16) 0.55988(7)
H69 H 1.0446 0.7191 0.5832
N3 N 0.61046(13) 1.12794(12) 0.53023(5)
N4 N 0.90592(12) 0.60737(11) 0.41208(5)
C77 C 0.59286(18) 1.10797(16) 0.48999(7)
H70 H 0.5566 1.1470 0.4769
C78 C 0.62568(19) 1.03232(16) 0.46665(7)
H71 H 0.6114 1.0215 0.4387
C79 C 0.68008(16) 0.97258(14) 0.48519(6)
C80 C 0.69621(15) 0.99254(14) 0.52748(6)
H72 H 0.7312 0.9541 0.5414
C81 C 0.66025(15) 1.06917(14) 0.54842(6)
H73 H 0.6711 1.0806 0.5766
C82 C 0.71911(16) 0.89375(14) 0.46082(6)
H74 H 0.7050 0.8853 0.4329
C83 C 0.77244(15) 0.83412(14) 0.47541(6)
H75 H 0.7842 0.8424 0.5035
C84 C 0.81547(14) 0.75619(13) 0.45244(6)
C85 C 0.80157(15) 0.73004(14) 0.41027(6)
H76 H 0.7618 0.7619 0.3948
C86 C 0.84752(14) 0.65644(14) 0.39181(6)
H77 H 0.8374 0.6400 0.3638
C87 C 0.91708(14) 0.63125(13) 0.45249(6)
H78 H 0.9558 0.5970 0.4672
C88 C 0.87434(14) 0.70393(13) 0.47350(6)
H79 H 0.8849 0.7179 0.5016
N5 N 0.89188(14) 0.15163(13) 0.14341(5)
N6 N 1.12059(12) -0.39984(11) 0.01842(5)
C89 C 0.84884(18) 0.08614(16) 0.11353(7)
H80 H 0.7861 0.0930 0.1021
C90 C 0.8940(2) 0.00776(16) 0.09871(7)
H81 H 0.8626 -0.0352 0.0771
C91 C 0.98680(18) -0.00620(16) 0.11636(7)
C92 C 1.03047(19) 0.06146(17) 0.14697(7)
H82 H 1.0926 0.0558 0.1593
C93 C 0.98168(17) 0.13858(17) 0.15957(7)
H83 H 1.0130 0.1838 0.1804
C94 C 1.03871(19) -0.08805(17) 0.10223(7)
C95 C 0.99995(18) -0.15788(16) 0.07408(8)
H84 H 0.933(2) -0.1508(19) 0.0617(8)
H85 H 1.102(2) -0.0896(19) 0.1157(8)
C98 C 1.04666(16) -0.24117(14) 0.05772(7)
C99 C 1.13801(17) -0.26742(15) 0.07139(7)
H86 H 1.1756 -0.2322 0.0937
C100 C 1.17124(16) -0.34711(15) 0.05088(6)
H87 H 1.2316 -0.3646 0.0602
C101 C 1.03293(15) -0.37449(15) 0.00660(6)
H88 H 0.9959 -0.4112 -0.0155
C102 C 0.99431(16) -0.29759(15) 0.02512(6)
H89 H 0.9325 -0.2835 0.0156
N7 N 0.67268(13) 0.15440(12) 0.02960(5)
N8 N 0.93285(12) -0.38090(11) -0.09511(5)
C103 C 0.75908(17) 0.15163(16) 0.01179(7)
H90 H 0.7986 0.2078 0.0105
C104 C 0.79269(18) 0.06830(17) -0.00495(7)
H91 H 0.8535 0.0694 -0.0171
C105 C 0.73450(17) -0.01694(15) -0.00337(6)
C106 C 0.64525(17) -0.01308(15) 0.01524(6)
H92 H 0.6038 -0.0679 0.0170
C107 C 0.61810(16) 0.07225(15) 0.03114(6)
H93 H 0.5580 0.0729 0.0437
C108 C 0.7598(2) -0.10954(19) -0.02050(8)
C109 C 0.8464(2) -0.1233(2) -0.03836(9)
H94 H 0.711(2) -0.162(2) -0.0189(8)
H95 H 0.899(2) -0.069(2) -0.0389(8)
C112 C 0.87129(16) -0.21431(14) -0.05707(6)
C113 C 0.96565(17) -0.21726(15) -0.07156(7)
H96 H 1.0107 -0.1628 -0.0688
C114 C 0.99301(16) -0.30028(15) -0.09006(7)
H97 H 1.0568 -0.3001 -0.0995
C115 C 0.84245(14) -0.37971(14) -0.08028(6)
H98 H 0.8003 -0.4359 -0.0827
C116 C 0.80814(15) -0.29913(15) -0.06143(6)
H99 H 0.7443 -0.3014 -0.0519
C147 C 1.3808(2) -0.0999(2) 0.08751(8)
H128 H 1.3894 -0.0647 0.0665
C148 C 1.4064(2) -0.1888(3) 0.08295(10)
H129 H 1.4332 -0.2131 0.0591
C149 C 1.3928(2) -0.2432(2) 0.11341(11)
H130 H 1.4110 -0.3034 0.1103
C150 C 1.3518(3) -0.2068(2) 0.14873(10)
H131 H 1.3407 -0.2434 0.1691
C151 C 1.3270(2) -0.11484(18) 0.15368(8)
H132 H 1.3004 -0.0902 0.1775
C152 C 1.34210(19) -0.0610(2) 0.12316(7)
C153 C 1.3144(2) 0.0373(2) 0.12785(9)
C154 C 1.3958(6) 0.1065(6) 0.1183(3)
C155 C 1.3733(4) 0.2042(3) 0.12853(16)
H133 H 1.4207 0.2456 0.1164
H134 H 1.3066 0.2091 0.1172
O19 O 1.4685(2) 0.0841(3) 0.10153(10)
C156 C 1.3789(3) 0.2336(2) 0.17232(11)
C157 C 1.2957(2) 0.2679(3) 0.18928(16)
H135 H 1.2387 0.2710 0.1728
C158 C 1.2978(4) 0.2977(3) 0.23088(16)
H136 H 1.2422 0.3206 0.2422
C159 C 1.3830(4) 0.2931(3) 0.25551(12)
H137 H 1.3844 0.3129 0.2833
C160 C 1.4661(3) 0.2587(3) 0.23855(12)
H138 H 1.5231 0.2557 0.2550
C161 C 1.4641(2) 0.2290(3) 0.19695(12)
H139 H 1.5197 0.2060 0.1856
H150 H 1.291(2) 0.056(2) 0.1567(10)
H151 H 1.256(2) 0.039(2) 0.1069(9)
C96? C 0.9725(11) -0.1041(10) 0.0833(4)
C97? C 1.0486(10) -0.1502(10) 0.0935(4)
C110? C 0.8297(19) -0.0664(17) -0.0244(6)
C111? C 0.797(3) -0.142(2) -0.0333(8)
O20? O 1.4216(4) 0.1413(4) 0.09122(17)
C162? C 1.4402(4) 0.2155(4) 0.19841(12)
C163? C 1.3537(4) 0.2575(4) 0.19325(12)
H140? H 1.3230 0.2545 0.1674
C164? C 1.3130(3) 0.3038(4) 0.22675(16)
H141? H 1.2551 0.3319 0.2233
C165? C 1.3588(3) 0.3082(4) 0.26539(13)
H142? H 1.3315 0.3392 0.2878
C166? C 1.4453(3) 0.2662(3) 0.27055(11)
H143? H 1.4759 0.2691 0.2964
C167? C 1.4860(3) 0.2198(3) 0.23706(14)
H144? H 1.5438 0.1918 0.2405
C168? C 1.4832(5) 0.1697(5) 0.1598(2)
C169? C 1.402(3) 0.129(2) 0.1255(11)
loop_
_geom_bond_atom_site_label_1
_geom_bond_atom_site_label_2
_geom_bond_site_symmetry_1
_geom_bond_site_symmetry_2
O1 H1 1_555 1_555
O2 H2 1_555 1_555
O3 H3 1_555 1_555
O4 H4 1_555 1_555
O5 C20 1_555 1_555
O6 C22 1_555 1_555
O7 H5 1_555 1_555
O8 H6 1_555 1_555
O9 C36 1_555 1_555
O10 C38 1_555 1_555
O11 H7 1_555 1_555
O12 H8 1_555 1_555
O13 C56 1_555 1_555
O14 H9 1_555 1_555
O15 H10 1_555 1_555
O16 H11 1_555 1_555
O17 C124 1_555 1_555
O18 C139 1_555 1_555
N1 C65 1_555 1_555
N2 C74 1_555 1_555
N3 C77 1_555 1_555
N4 C86 1_555 1_555
N5 C89 1_555 1_555
N6 C100 1_555 1_555
N7 C103 1_555 1_555
N8 C114 1_555 1_555
C1 H12 1_555 1_555
H13 C1 1_555 1_555
H14 C1 1_555 1_555
C2 C1 1_555 1_555
H15 C2 1_555 1_555
C3 C2 1_555 1_555
C4 O1 1_555 1_555
C5 C4 1_555 1_555
H16 C5 1_555 1_555
C6 O2 1_555 1_555
C7 C6 1_555 1_555
C8 C3 1_555 1_555
H17 C8 1_555 1_555
C9 H18 1_555 1_555
H19 C9 1_555 1_555
H20 C9 1_555 1_555
C10 C7 1_555 1_555
H21 C10 1_555 1_555
C11 C10 1_555 1_555
C12 O3 1_555 1_555
C13 C12 1_555 1_555
H22 C13 1_555 1_555
C14 O4 1_555 1_555
C15 C14 1_555 1_555
C16 C11 1_555 1_555
H23 C16 1_555 1_555
C17 H24 1_555 1_555
H25 C17 1_555 1_555
H26 C17 1_555 1_555
C18 C15 1_555 1_555
H27 C18 1_555 1_555
C19 C18 1_555 1_555
C20 C19 1_555 1_555
C21 C20 1_555 1_555
H28 C21 1_555 1_555
C22 C21 1_555 1_555
C23 C22 1_555 1_555
C24 C19 1_555 1_555
H29 C24 1_555 1_555
C25 H30 1_555 1_555
H31 C25 1_555 1_555
H32 C25 1_555 1_555
C26 C23 1_555 1_555
H33 C26 1_555 1_555
C27 C26 1_555 1_555
C28 O7 1_555 1_555
C29 C28 1_555 1_555
H34 C29 1_555 1_555
C30 O8 1_555 1_555
C31 C2 1_555 1_555
C32 C27 1_555 1_555
H35 C32 1_555 1_555
C33 H36 1_555 1_555
H37 C33 1_555 1_555
H38 C33 1_555 1_555
C34 C33 1_555 1_555
H39 C34 1_555 1_555
C35 C34 1_555 1_555
C36 C35 1_555 1_555
C37 C36 1_555 1_555
H40 C37 1_555 1_555
C38 C37 1_555 1_555
C39 C38 1_555 1_555
C40 C35 1_555 1_555
H41 C40 1_555 1_555
C41 H42 1_555 1_555
H43 C41 1_555 1_555
H44 C41 1_555 1_555
C42 C39 1_555 1_555
H45 C42 1_555 1_555
C43 C42 1_555 1_555
C44 O11 1_555 1_555
C45 C44 1_555 1_555
H46 C45 1_555 1_555
C46 O12 1_555 1_555
C47 C46 1_555 1_555
C48 C43 1_555 1_555
H47 C48 1_555 1_555
C49 H48 1_555 1_555
H49 C49 1_555 1_555
H50 C49 1_555 1_555
C50 C47 1_555 1_555
H51 C50 1_555 1_555
C51 C50 1_555 1_555
C52 C51 1_555 1_555
H52 C52 1_555 1_555
C53 C52 1_555 1_555
C54 O14 1_555 1_555
C55 C54 1_555 1_555
H53 C55 1_555 1_555
C56 C51 1_555 1_555
C57 H54 1_555 1_555
H55 C57 1_555 1_555
H56 C57 1_555 1_555
C58 C53 1_555 1_555
H57 C58 1_555 1_555
C59 C58 1_555 1_555
C60 O15 1_555 1_555
C61 C60 1_555 1_555
H58 C61 1_555 1_555
C62 O16 1_555 1_555
C63 C34 1_555 1_555
C64 C59 1_555 1_555
H59 C64 1_555 1_555
C65 H60 1_555 1_555
C66 C65 1_555 1_555
H61 C66 1_555 1_555
C67 C66 1_555 1_555
C68 C67 1_555 1_555
H62 C68 1_555 1_555
C69 N1 1_555 1_555
H63 C69 1_555 1_555
C70 C67 1_555 1_555
H64 C70 1_555 1_555
C71 C70 1_555 1_555
H65 C71 1_555 1_555
C72 C71 1_555 1_555
C73 C72 1_555 1_555
H66 C73 1_555 1_555
C74 C73 1_555 1_555
H67 C74 1_555 1_555
C75 N2 1_555 1_555
H68 C75 1_555 1_555
C76 C72 1_555 1_555
H69 C76 1_555 1_555
C77 H70 1_555 1_555
C78 C77 1_555 1_555
H71 C78 1_555 1_555
C79 C78 1_555 1_555
C80 C79 1_555 1_555
H72 C80 1_555 1_555
C81 N3 1_555 1_555
H73 C81 1_555 1_555
C82 C79 1_555 1_555
H74 C82 1_555 1_555
C83 C82 1_555 1_555
H75 C83 1_555 1_555
C84 C83 1_555 1_555
C85 C84 1_555 1_555
H76 C85 1_555 1_555
C86 C85 1_555 1_555
H77 C86 1_555 1_555
C87 N4 1_555 1_555
H78 C87 1_555 1_555
C88 C84 1_555 1_555
H79 C88 1_555 1_555
C89 H80 1_555 1_555
C90 C89 1_555 1_555
H81 C90 1_555 1_555
C91 C90 1_555 1_555
C92 C91 1_555 1_555
H82 C92 1_555 1_555
C93 N5 1_555 1_555
H83 C93 1_555 1_555
C94 C91 1_555 1_555
C95 C94 1_555 1_555
H84 C95 1_555 1_555
H85 C94 1_555 1_555
C98 C95 1_555 1_555
C99 C98 1_555 1_555
H86 C99 1_555 1_555
C100 C99 1_555 1_555
H87 C100 1_555 1_555
C101 N6 1_555 1_555
H88 C101 1_555 1_555
C102 C98 1_555 1_555
H89 C102 1_555 1_555
C103 H90 1_555 1_555
C104 C103 1_555 1_555
H91 C104 1_555 1_555
C105 C104 1_555 1_555
C106 C105 1_555 1_555
H92 C106 1_555 1_555
C107 N7 1_555 1_555
H93 C107 1_555 1_555
C108 C105 1_555 1_555
C109 C108 1_555 1_555
H94 C108 1_555 1_555
H95 C109 1_555 1_555
C112 C109 1_555 1_555
C113 C112 1_555 1_555
H96 C113 1_555 1_555
C114 C113 1_555 1_555
H97 C114 1_555 1_555
C115 N8 1_555 1_555
H98 C115 1_555 1_555
C116 C112 1_555 1_555
H99 C116 1_555 1_555
C117 H100 1_555 1_555
C118 C117 1_555 1_555
H101 C118 1_555 1_555
C119 C118 1_555 1_555
C120 C119 1_555 1_555
H102 C120 1_555 1_555
C121 C120 1_555 1_555
H103 C121 1_555 1_555
C122 C117 1_555 1_555
H104 C122 1_555 1_555
C123 C119 1_555 1_555
H105 C123 1_555 1_555
H106 C123 1_555 1_555
C124 C123 1_555 1_555
C125 C124 1_555 1_555
H107 C125 1_555 1_555
H108 C125 1_555 1_555
C126 C125 1_555 1_555
C127 C126 1_555 1_555
H109 C127 1_555 1_555
C128 C127 1_555 1_555
H110 C128 1_555 1_555
C129 C128 1_555 1_555
H111 C129 1_555 1_555
C130 C129 1_555 1_555
H112 C130 1_555 1_555
C131 C126 1_555 1_555
H113 C131 1_555 1_555
C132 H114 1_555 1_555
C133 C132 1_555 1_555
H115 C133 1_555 1_555
C134 C133 1_555 1_555
H116 C134 1_555 1_555
C135 C134 1_555 1_555
H117 C135 1_555 1_555
C136 C135 1_555 1_555
C137 C132 1_555 1_555
H118 C137 1_555 1_555
C138 C136 1_555 1_555
H119 C138 1_555 1_555
H120 C138 1_555 1_555
C139 C138 1_555 1_555
C140 C139 1_555 1_555
H121 C140 1_555 1_555
H122 C140 1_555 1_555
C141 C140 1_555 1_555
C142 H123 1_555 1_555
C143 C141 1_555 1_555
H124 C143 1_555 1_555
C144 C142 1_555 1_555
H125 C144 1_555 1_555
C145 C144 1_555 1_555
H126 C145 1_555 1_555
C146 C141 1_555 1_555
H127 C146 1_555 1_555
C147 H128 1_555 1_555
C148 C147 1_555 1_555
H129 C148 1_555 1_555
C149 C148 1_555 1_555
H130 C149 1_555 1_555
C150 C149 1_555 1_555
H131 C150 1_555 1_555
C151 C150 1_555 1_555
H132 C151 1_555 1_555
C152 C147 1_555 1_555
C153 C152 1_555 1_555
C154 C153 1_555 1_555
C155 C154 1_555 1_555
H133 C155 1_555 1_555
H134 C155 1_555 1_555
O19 C154 1_555 1_555
C156 C155 1_555 1_555
C157 C156 1_555 1_555
H135 C157 1_555 1_555
C158 C157 1_555 1_555
H136 C158 1_555 1_555
C159 C158 1_555 1_555
H137 C159 1_555 1_555
C160 C159 1_555 1_555
H138 C160 1_555 1_555
C161 C156 1_555 1_555
H139 C161 1_555 1_555
H145 O10 1_555 1_555
H146 O6 1_555 1_555
H147 O9 1_555 1_555
H148 O13 1_555 1_555
H149 O5 1_555 1_555
H150 C153 1_555 1_555
H151 C153 1_555 1_555
C3 C4 1_555 1_555
C5 C6 1_555 1_555
C7 C8 1_555 1_555
C9 C10 1_555 1_555
C11 C12 1_555 1_555
C13 C14 1_555 1_555
C15 C16 1_555 1_555
C17 C18 1_555 1_555
C23 C24 1_555 1_555
C25 C26 1_555 1_555
C27 C28 1_555 1_555
C29 C30 1_555 1_555
C30 C31 1_555 1_555
C31 C32 1_555 1_555
C39 C40 1_555 1_555
C41 C42 1_555 1_555
C43 C44 1_555 1_555
C45 C46 1_555 1_555
C47 C48 1_555 1_555
C49 C50 1_555 1_555
C53 C54 1_555 1_555
C55 C56 1_555 1_555
C57 C58 1_555 1_555
C59 C60 1_555 1_555
C61 C62 1_555 1_555
C62 C63 1_555 1_555
C63 C64 1_555 1_555
C68 C69 1_555 1_555
C75 C76 1_555 1_555
C80 C81 1_555 1_555
C87 C88 1_555 1_555
C92 C93 1_555 1_555
C101 C102 1_555 1_555
C106 C107 1_555 1_555
C115 C116 1_555 1_555
C121 C122 1_555 1_555
C130 C131 1_555 1_555
C136 C137 1_555 1_555
C142 C143 1_555 1_555
C145 C146 1_555 1_555
C151 C152 1_555 1_555
C160 C161 1_555 1_555

#END
