
#######################################################################
#
#                 Cambridge Crystallographic Data Centre
#                                CCDC 
#
#######################################################################
#
# If this CIF has been generated from an entry in the Cambridge 
# Structural Database, then it will include bibliographic, chemical, 
# crystal, experimental, refinement or atomic coordinate data resulting 
# from the CCDC's data processing and validation procedures.
#
#######################################################################

data_IFOVOP
_chemical_formula_moiety         'C32 H32 O8,2(C12 H10 N2),C6 H6,2.5(H2 O1)'
_chemical_name_systematic        
'(2,8,14,20-Tetramethyl-4,6,10,12,16,18,22,24-octahydroxycalix[4]arene) bis(1,2-bis(4-pyridyl)ethene) benzene solvate hydrate'
_symmetry_cell_setting           orthorhombic
_symmetry_space_group_name_H-M   'P b c n'
_symmetry_Int_Tables_number      60
_space_group_name_Hall           '-P 2n 2ab'
loop_
_symmetry_equiv_pos_site_id
_symmetry_equiv_pos_as_xyz
1 x,y,z
2 1/2-x,1/2-y,1/2+z
3 -x,y,1/2-z
4 1/2+x,1/2-y,-z
5 -x,-y,-z
6 1/2+x,1/2+y,1/2-z
7 x,-y,1/2+z
8 1/2-x,1/2+y,z
_cell_length_a                   15.8302(6)
_cell_length_b                   14.1012(6)
_cell_length_c                   23.8997(9)
_cell_angle_alpha                90
_cell_angle_beta                 90
_cell_angle_gamma                90
_cell_volume                     5335.01
_exptl_crystal_colour            yellow
_exptl_crystal_description       block
_cell_formula_units_Z            4
_exptl_crystal_recrystallization_method ethanol
loop_
_atom_site_label
_atom_site_type_symbol
_atom_site_fract_x
_atom_site_fract_y
_atom_site_fract_z
O1 O 0.18786(9) 0.49782(10) 0.08812(6)
O2 O -0.11231(9) 0.50067(10) 0.06286(6)
O3 O 0.29567(9) 0.49971(10) 0.17524(6)
H1 H 0.2642 0.5001 0.1480
C13 C -0.04992(12) 0.38060(13) 0.12014(8)
C14 C -0.04102(12) 0.46092(14) 0.08591(8)
C15 C 0.03787(12) 0.49856(14) 0.07448(8)
H12 H 0.0428 0.5505 0.0507
C16 C 0.10957(12) 0.45921(14) 0.09827(8)
C17 C 0.10417(12) 0.37847(13) 0.13239(8)
C18 C 0.02390(12) 0.34180(13) 0.14223(8)
H13 H 0.0192 0.2884 0.1648
C19 C 0.18088(13) 0.22685(13) 0.16064(9)
H14 H 0.2322 0.2036 0.1770
H15 H 0.1749 0.2016 0.1235
H16 H 0.1337 0.2073 0.1831
C20 C 0.18376(12) 0.33534(13) 0.15790(9)
H17 H 0.2309 0.3522 0.1332
C21 C 0.20202(12) 0.38016(14) 0.21473(8)
C22 C 0.25444(12) 0.45997(14) 0.22008(9)
C23 C 0.26688(12) 0.50162(14) 0.27196(9)
H18 H 0.3012 0.5549 0.2749
C27 C 0.22893(12) 0.46501(14) 0.31949(9)
O4 O 0.24511(9) 0.51146(10) 0.36884(6)
H20 H 0.2038 0.5075 0.3894
C28 C 0.17793(12) 0.38365(13) 0.31642(8)
C29 C -0.13729(12) 0.33945(13) 0.13188(8)
C30 C 0.16554(12) 0.34539(13) 0.26337(8)
H21 H 0.1304 0.2928 0.2603
C31 C -0.13557(13) 0.23042(13) 0.13463(9)
H22 H -0.1096 0.2058 0.1014
H23 H -0.1923 0.2068 0.1375
H24 H -0.1037 0.2107 0.1668
H25 H -0.1736(14) 0.3558(16) 0.0993(10)
H26 H 0.1800(14) 0.5548(18) 0.0773(10)
H27 H -0.1017(14) 0.5595(18) 0.0531(10)
O1B O -0.18786(9) 0.49782(10) 0.41188(6)
O2B O 0.11231(9) 0.50067(10) 0.43714(6)
O3B O -0.29567(9) 0.49971(10) 0.32476(6)
H1B H -0.2642 0.5001 0.3520
C13B C 0.04992(12) 0.38060(13) 0.37986(8)
C14B C 0.04102(12) 0.46092(14) 0.41409(8)
C15B C -0.03787(12) 0.49856(14) 0.42552(8)
H12B H -0.0428 0.5505 0.4493
C16B C -0.10957(12) 0.45921(14) 0.40173(8)
C17B C -0.10417(12) 0.37847(13) 0.36761(8)
C18B C -0.02390(12) 0.34180(13) 0.35777(8)
H13B H -0.0192 0.2884 0.3352
C19B C -0.18088(13) 0.22685(13) 0.33936(9)
H14B H -0.2322 0.2036 0.3230
H15B H -0.1749 0.2016 0.3765
H16B H -0.1337 0.2073 0.3169
C20B C -0.18376(12) 0.33534(13) 0.34210(9)
H17B H -0.2309 0.3522 0.3668
C21B C -0.20202(12) 0.38016(14) 0.28527(8)
C22B C -0.25444(12) 0.45997(14) 0.27992(9)
C23B C -0.26688(12) 0.50162(14) 0.22804(9)
H18B H -0.3012 0.5549 0.2251
C27B C -0.22893(12) 0.46501(14) 0.18051(9)
O4B O -0.24511(9) 0.51146(10) 0.13116(6)
H20B H -0.2038 0.5075 0.1106
C28B C -0.17793(12) 0.38365(13) 0.18358(8)
C29B C 0.13729(12) 0.33945(13) 0.36812(8)
C30B C -0.16554(12) 0.34539(13) 0.23663(8)
H21B H -0.1304 0.2928 0.2397
C31B C 0.13557(13) 0.23042(13) 0.36537(9)
H22B H 0.1096 0.2058 0.3986
H23B H 0.1923 0.2068 0.3625
H24B H 0.1037 0.2107 0.3332
H25B H 0.1736(14) 0.3558(16) 0.4007(10)
H26B H -0.1800(14) 0.5548(18) 0.4227(10)
H27B H 0.1017(14) 0.5595(18) 0.4469(10)
N1 N -0.08924(11) 0.68600(12) 0.04608(7)
N2 N -0.16420(10) 1.31891(12) -0.06268(7)
C1 C -0.11996(13) 0.74402(15) 0.08563(9)
H2 H -0.1365 0.7180 0.1197
C2 C -0.12817(13) 0.84063(15) 0.07805(9)
H3 H -0.1491 0.8783 0.1068
C3 C -0.10508(12) 0.88151(14) 0.02727(9)
C4 C -0.06933(13) 0.82148(14) -0.01273(9)
H4 H -0.0499 0.8458 -0.0465
C5 C -0.06310(13) 0.72548(14) -0.00164(9)
H5 H -0.0395 0.6864 -0.0288
C6 C -0.12203(12) 0.98263(14) 0.01702(9)
H6 H -0.1400 1.0190 0.0472
C7 C -0.11359(12) 1.02589(14) -0.03193(9)
H7 H -0.0935 0.9902 -0.0618
C8 C -0.13367(12) 1.12612(14) -0.04257(9)
C9 C -0.09906(13) 1.17240(14) -0.08880(9)
H8 H -0.0653 1.1393 -0.1139
C10 C -0.11521(13) 1.26767(15) -0.09702(9)
H9 H -0.0910 1.2976 -0.1278
C11 C -0.19938(13) 1.27404(15) -0.01934(9)
H10 H -0.2343 1.3085 0.0045
C12 C -0.18654(13) 1.17894(15) -0.00806(9)
H11 H -0.2130 1.1505 0.0224
C24 C 0.0436(2) 0.7632(2) 0.25293(13)
C25 C 0.08674(18) 0.6787(2) 0.25594(11)
H19 H 0.1452 0.6786 0.2600
C26 C 0.04328(17) 0.59435(19) 0.25287(12)
H28 H 0.0770(15) 0.8191(17) 0.2530(9)
H29 H 0.0719(15) 0.5341(17) 0.2544(10)
C24B C -0.0436(2) 0.7632(2) 0.24707(13)
C25B C -0.08674(18) 0.6787(2) 0.24406(11)
H19B H -0.1452 0.6786 0.2400
C26B C -0.04328(17) 0.59435(19) 0.24713(12)
H28B H -0.0770(15) 0.8191(17) 0.2470(9)
H29B H -0.0719(15) 0.5341(17) 0.2456(10)
O5 O 0.5000 0.5505(3) 0.2500
O6? O 0.5227(3) 0.5129(3) 0.18793(19)
O7? O 0.4629(2) 0.5556(2) 0.15080(13)
loop_
_geom_bond_atom_site_label_1
_geom_bond_atom_site_label_2
_geom_bond_site_symmetry_1
_geom_bond_site_symmetry_2
O1 C16 1_555 1_555
O2 C14 1_555 1_555
O3 H1 1_555 1_555
N1 C1 1_555 1_555
N2 C10 1_555 1_555
C1 H2 1_555 1_555
C2 C1 1_555 1_555
H3 C2 1_555 1_555
C3 C2 1_555 1_555
C4 C3 1_555 1_555
H4 C4 1_555 1_555
C5 N1 1_555 1_555
H5 C5 1_555 1_555
C6 C3 1_555 1_555
H6 C6 1_555 1_555
C7 C6 1_555 1_555
H7 C7 1_555 1_555
C8 C7 1_555 1_555
C9 C8 1_555 1_555
H8 C9 1_555 1_555
C10 C9 1_555 1_555
H9 C10 1_555 1_555
C11 N2 1_555 1_555
H10 C11 1_555 1_555
C12 C8 1_555 1_555
H11 C12 1_555 1_555
C13 C14 1_555 1_555
C14 C15 1_555 1_555
C15 H12 1_555 1_555
C16 C15 1_555 1_555
C17 C16 1_555 1_555
C18 C13 1_555 1_555
H13 C18 1_555 1_555
C19 H14 1_555 1_555
H15 C19 1_555 1_555
H16 C19 1_555 1_555
C20 C17 1_555 1_555
H17 C20 1_555 1_555
C21 C20 1_555 1_555
C22 O3 1_555 1_555
C23 C22 1_555 1_555
H18 C23 1_555 1_555
C24 C25 1_555 1_555
C25 H19 1_555 1_555
C26 C25 1_555 1_555
C27 C23 1_555 1_555
O4 C27 1_555 1_555
H20 O4 1_555 1_555
C28 C27 1_555 1_555
C29 C13 1_555 1_555
C30 C21 1_555 1_555
H21 C30 1_555 1_555
C31 C29 1_555 1_555
H22 C31 1_555 1_555
H23 C31 1_555 1_555
H24 C31 1_555 1_555
H25 C29 1_555 1_555
H26 O1 1_555 1_555
H27 O2 1_555 1_555
H28 C24 1_555 1_555
H29 C26 1_555 1_555
O1B C16B 1_555 1_555
O2B C14B 1_555 1_555
O3B H1B 1_555 1_555
C13B C14B 1_555 1_555
C14B C15B 1_555 1_555
C15B H12B 1_555 1_555
C16B C15B 1_555 1_555
C17B C16B 1_555 1_555
C18B C13B 1_555 1_555
H13B C18B 1_555 1_555
C19B H14B 1_555 1_555
H15B C19B 1_555 1_555
H16B C19B 1_555 1_555
C20B C17B 1_555 1_555
H17B C20B 1_555 1_555
C21B C20B 1_555 1_555
C22B O3B 1_555 1_555
C23B C22B 1_555 1_555
H18B C23B 1_555 1_555
C24B C24 1_555 1_555
C25B C24B 1_555 1_555
H19B C25B 1_555 1_555
C26B C26 1_555 1_555
C27B C23B 1_555 1_555
O4B C27B 1_555 1_555
H20B O4B 1_555 1_555
C28B C29 1_555 1_555
C29B C28 1_555 1_555
C30B C21B 1_555 1_555
H21B C30B 1_555 1_555
C31B C29B 1_555 1_555
H22B C31B 1_555 1_555
H23B C31B 1_555 1_555
H24B C31B 1_555 1_555
H25B C29B 1_555 1_555
H26B O1B 1_555 1_555
H27B O2B 1_555 1_555
H28B C24B 1_555 1_555
H29B C26B 1_555 1_555
C4 C5 1_555 1_555
C11 C12 1_555 1_555
C17 C18 1_555 1_555
C19 C20 1_555 1_555
C21 C22 1_555 1_555
C28 C30 1_555 1_555
C13B C29B 1_555 1_555
C17B C18B 1_555 1_555
C19B C20B 1_555 1_555
C21B C22B 1_555 1_555
C25B C26B 1_555 1_555
C27B C28B 1_555 1_555
C28B C30B 1_555 1_555

#END
