
#######################################################################
#
#                 Cambridge Crystallographic Data Centre
#                                CCDC 
#
#######################################################################
#
# If this CIF has been generated from an entry in the Cambridge 
# Structural Database, then it will include bibliographic, chemical, 
# crystal, experimental, refinement or atomic coordinate data resulting 
# from the CCDC's data processing and validation procedures.
#
#######################################################################

data_IFUFOH
_chemical_formula_moiety         'C31 H40 N2 O5 Si1'
_chemical_name_systematic        
4-[1-(1,3-dioxo-1,3-dihydro-2H-isoindol-2-yl)propan-2-yl]-1-methyl-3,5'-dioxo-5-[(triethylsilyl)oxy]spiro[bicyclo[2.2.2]octane-2,1'-cyclopentane]-3'-carbonitrile
_symmetry_cell_setting           orthorhombic
_symmetry_space_group_name_H-M   'P 21 21 21'
_symmetry_Int_Tables_number      19
_space_group_name_Hall           'P 2ac 2ab'
loop_
_symmetry_equiv_pos_site_id
_symmetry_equiv_pos_as_xyz
1 x,y,z
2 1/2-x,-y,1/2+z
3 1/2+x,1/2-y,-z
4 -x,1/2+y,1/2-z
_cell_length_a                   7.9488(5)
_cell_length_b                   19.2338(14)
_cell_length_c                   19.7296(11)
_cell_angle_alpha                90
_cell_angle_beta                 90
_cell_angle_gamma                90
_cell_volume                     3016.37
_cell_formula_units_Z            4
loop_
_atom_site_label
_atom_site_type_symbol
_atom_site_fract_x
_atom_site_fract_y
_atom_site_fract_z
Si1 Si 1.0540(3) 0.50029(16) 0.12382(11)
O1 O 1.0430(6) 0.5145(3) 0.2054(2)
O2 O 1.2039(8) 0.7138(3) 0.2370(3)
O3 O 0.9326(5) 0.6271(2) 0.3267(3)
O4 O 0.6271(8) 0.3992(3) 0.2372(3)
O5 O 0.8432(11) 0.3146(4) 0.4328(3)
N1 N 0.7735(7) 0.3682(3) 0.3320(3)
N2 N 1.2179(17) 0.8071(5) 0.5171(5)
C1 C 1.1679(8) 0.5063(4) 0.2564(3)
H1 H 1.2107 0.4586 0.2547
C2 C 1.3171(9) 0.5575(4) 0.2437(4)
H2 H 1.4107 0.5324 0.2238
H3 H 1.2823 0.5932 0.2119
C3 C 1.3742(9) 0.5919(4) 0.3113(4)
C4 C 1.2284(8) 0.6385(4) 0.3359(3)
C5 C 1.2075(9) 0.7076(4) 0.2969(4)
C6 C 1.1893(15) 0.7674(4) 0.3450(4)
H4 H 1.0999 0.7985 0.3308
H5 H 1.2934 0.7935 0.3485
C7 C 1.1460(13) 0.7319(4) 0.4123(4)
H6 H 1.0254 0.7213 0.4132
C8 C 1.2448(9) 0.6643(4) 0.4103(3)
H7 H 1.1976 0.6306 0.4416
H8 H 1.3618 0.6722 0.4221
C9 C 1.0653(8) 0.5974(3) 0.3296(3)
C10 C 1.0887(8) 0.5194(3) 0.3270(3)
C11 C 1.2244(9) 0.4964(4) 0.3776(4)
H9 H 1.2392 0.4464 0.3745
H10 H 1.1876 0.5072 0.4232
C12 C 1.3942(9) 0.5326(4) 0.3638(4)
H11 H 1.4743 0.4987 0.3469
H12 H 1.4380 0.5515 0.4058
C13 C 1.5383(9) 0.6321(5) 0.2998(5)
H13 H 1.5288 0.6595 0.2592
H14 H 1.6298 0.5999 0.2951
H15 H 1.5589 0.6622 0.3377
C14 C 0.836(2) 0.4808(10) 0.0955(7)
H16 H 0.8358 0.4748 0.0467
H17 H 0.8003 0.4372 0.1157
C15 C 0.709(3) 0.5387(10) 0.1148(10)
H18 H 0.7358 0.5806 0.0907
H19 H 0.7143 0.5472 0.1627
H20 H 0.5970 0.5240 0.1030
C16 C 1.155(2) 0.4053(8) 0.1097(7)
H21 H 1.1200 0.3764 0.1475
H22 H 1.1043 0.3858 0.0693
C17 C 1.327(2) 0.3978(11) 0.1032(10)
H23 H 1.3647 0.4228 0.0640
H24 H 1.3540 0.3494 0.0983
H25 H 1.3813 0.4160 0.1429
C18 C 1.188(2) 0.5520(9) 0.0711(6)
H26 H 1.3036 0.5523 0.0871
H27 H 1.1849 0.5373 0.0241
C19 C 1.103(3) 0.6209(10) 0.0816(10)
H28 H 1.0169 0.6161 0.1154
H29 H 1.0535 0.6360 0.0397
H30 H 1.1843 0.6545 0.0964
C20 C 1.1892(17) 0.7751(5) 0.4725(5)
C21 C 0.9187(8) 0.4825(3) 0.3383(3)
H31 H 0.8362 0.5043 0.3082
C22 C 0.8566(10) 0.4914(4) 0.4101(3)
H32 H 0.9145 0.4595 0.4393
H33 H 0.7379 0.4824 0.4119
H34 H 0.8780 0.5382 0.4249
C23 C 0.9262(10) 0.4050(4) 0.3202(4)
H35 H 0.9557 0.4006 0.2727
H36 H 1.0152 0.3834 0.3464
C24 C 0.6380(11) 0.3684(4) 0.2894(4)
C25 C 0.5064(10) 0.3221(4) 0.3219(4)
C26 C 0.3502(13) 0.3036(4) 0.2986(5)
H37 H 0.3081 0.3193 0.2574
C27 C 0.2576(13) 0.2590(5) 0.3416(7)
H38 H 0.1505 0.2450 0.3283
C28 C 0.3192(18) 0.2360(6) 0.4011(7)
H39 H 0.2523 0.2081 0.4287
C29 C 0.4774(17) 0.2527(5) 0.4215(5)
H40 H 0.5215 0.2348 0.4615
C30 C 0.5717(12) 0.2974(4) 0.3810(4)
C31 C 0.7472(12) 0.3248(4) 0.3890(4)
loop_
_geom_bond_atom_site_label_1
_geom_bond_atom_site_label_2
_geom_bond_site_symmetry_1
_geom_bond_site_symmetry_2
Si1 O1 1_555 1_555
O1 C1 1_555 1_555
O2 C5 1_555 1_555
O3 C9 1_555 1_555
O4 C24 1_555 1_555
O5 C31 1_555 1_555
N1 C23 1_555 1_555
N2 C20 1_555 1_555
C1 H1 1_555 1_555
C2 C1 1_555 1_555
H2 C2 1_555 1_555
H3 C2 1_555 1_555
C3 C2 1_555 1_555
C4 C3 1_555 1_555
C5 C4 1_555 1_555
C6 C5 1_555 1_555
H4 C6 1_555 1_555
H5 C6 1_555 1_555
C7 C6 1_555 1_555
H6 C7 1_555 1_555
C8 C4 1_555 1_555
H7 C8 1_555 1_555
H8 C8 1_555 1_555
C9 C4 1_555 1_555
C10 C1 1_555 1_555
C11 C10 1_555 1_555
H9 C11 1_555 1_555
H10 C11 1_555 1_555
C12 C3 1_555 1_555
H11 C12 1_555 1_555
H12 C12 1_555 1_555
C13 C3 1_555 1_555
H13 C13 1_555 1_555
H14 C13 1_555 1_555
H15 C13 1_555 1_555
C14 Si1 1_555 1_555
H16 C14 1_555 1_555
H17 C14 1_555 1_555
C15 C14 1_555 1_555
H18 C15 1_555 1_555
H19 C15 1_555 1_555
H20 C15 1_555 1_555
C16 Si1 1_555 1_555
H21 C16 1_555 1_555
H22 C16 1_555 1_555
C17 C16 1_555 1_555
H23 C17 1_555 1_555
H24 C17 1_555 1_555
H25 C17 1_555 1_555
C18 Si1 1_555 1_555
H26 C18 1_555 1_555
H27 C18 1_555 1_555
C19 C18 1_555 1_555
H28 C19 1_555 1_555
H29 C19 1_555 1_555
H30 C19 1_555 1_555
C20 C7 1_555 1_555
C21 C10 1_555 1_555
H31 C21 1_555 1_555
C22 C21 1_555 1_555
H32 C22 1_555 1_555
H33 C22 1_555 1_555
H34 C22 1_555 1_555
C23 C21 1_555 1_555
H35 C23 1_555 1_555
H36 C23 1_555 1_555
C24 N1 1_555 1_555
C25 C24 1_555 1_555
C26 C25 1_555 1_555
H37 C26 1_555 1_555
C27 C26 1_555 1_555
H38 C27 1_555 1_555
C28 C27 1_555 1_555
H39 C28 1_555 1_555
C29 C28 1_555 1_555
H40 C29 1_555 1_555
C30 C25 1_555 1_555
C31 N1 1_555 1_555
C7 C8 1_555 1_555
C9 C10 1_555 1_555
C11 C12 1_555 1_555
C29 C30 1_555 1_555
C30 C31 1_555 1_555

#END
