
#######################################################################
#
#                 Cambridge Crystallographic Data Centre
#                                CCDC 
#
#######################################################################
#
# If this CIF has been generated from an entry in the Cambridge 
# Structural Database, then it will include bibliographic, chemical, 
# crystal, experimental, refinement or atomic coordinate data resulting 
# from the CCDC's data processing and validation procedures.
#
#######################################################################

data_IFUHEZ
_chemical_formula_moiety         'C15 H9 Cl1 N2 O2'
_chemical_name_systematic        
2-chloro-7-methyl-12H-[1]benzopyrano[2',3':4,5]imidazo[1,2-a]pyridin-12-one
_symmetry_cell_setting           monoclinic
_symmetry_space_group_name_H-M   'P 21/c'
_symmetry_Int_Tables_number      14
_space_group_name_Hall           '-P 2ybc'
loop_
_symmetry_equiv_pos_site_id
_symmetry_equiv_pos_as_xyz
1 x,y,z
2 -x,1/2+y,1/2-z
3 -x,-y,-z
4 x,1/2-y,1/2+z
_cell_length_a                   7.7771(3)
_cell_length_b                   21.9081(4)
_cell_length_c                   7.8071(2)
_cell_angle_alpha                90
_cell_angle_beta                 115.213(4)
_cell_angle_gamma                90
_cell_volume                     1203.46
_exptl_crystal_colour            'pale yellow'
_exptl_crystal_description       plate
_cell_formula_units_Z            4
loop_
_atom_site_label
_atom_site_type_symbol
_atom_site_fract_x
_atom_site_fract_y
_atom_site_fract_z
Cl1 Cl 0.60487(7) 0.25333(2) 0.40069(6)
O1 O 0.19553(19) 0.48720(6) 0.20523(15)
O2 O 0.4353(2) 0.43171(6) 0.77295(16)
N1 N 0.2058(2) 0.54947(6) 0.6219(2)
N2 N 0.0853(2) 0.57299(7) 0.30781(19)
C1 C 0.2570(3) 0.50252(8) 0.5334(2)
C2 C 0.1785(3) 0.52029(8) 0.3433(2)
C3 C 0.3788(3) 0.41277(8) 0.4502(2)
C4 C 0.3636(3) 0.44857(8) 0.6058(2)
C5 C 0.2936(3) 0.43274(8) 0.2610(2)
C6 C 0.0274(3) 0.64333(8) 0.5289(2)
C7 C 0.4749(3) 0.35704(8) 0.4913(2)
H1 H 0.532710 0.343004 0.615460
C8 C 0.1015(3) 0.59097(8) 0.4806(2)
C9 C 0.4839(3) 0.32301(8) 0.3474(2)
C10 C 0.1692(3) 0.60724(8) 0.8561(2)
H2 H 0.190946 0.613514 0.981550
C11 C 0.3031(3) 0.39782(9) 0.1166(2)
H3 H 0.246159 0.411502 -0.007998
C12 C 0.2397(3) 0.55696(8) 0.8087(2)
H4 H 0.309210 0.528230 0.899548
C13 C 0.3980(3) 0.34253(8) 0.1598(2)
H5 H 0.404416 0.318575 0.064367
C14 C 0.0625(3) 0.65043(8) 0.7165(2)
H6 H 0.014634 0.684596 0.752228
C15 C -0.0889(3) 0.68747(9) 0.3755(3)
H7 H -0.023082 0.696791 0.298908
H8 H -0.107932 0.724301 0.431762
H9 H -0.209819 0.669470 0.297893
loop_
_geom_bond_atom_site_label_1
_geom_bond_atom_site_label_2
_geom_bond_site_symmetry_1
_geom_bond_site_symmetry_2
Cl1 C9 1_555 1_555
O1 C2 1_555 1_555
O2 C4 1_555 1_555
N1 C1 1_555 1_555
N2 C2 1_555 1_555
C1 C2 1_555 1_555
C3 C4 1_555 1_555
C4 C1 1_555 1_555
C5 O1 1_555 1_555
C6 C8 1_555 1_555
C7 C3 1_555 1_555
H1 C7 1_555 1_555
C8 N1 1_555 1_555
C9 C7 1_555 1_555
C10 H2 1_555 1_555
C11 C5 1_555 1_555
H3 C11 1_555 1_555
C12 N1 1_555 1_555
H4 C12 1_555 1_555
C13 C9 1_555 1_555
H5 C13 1_555 1_555
C14 C6 1_555 1_555
H6 C14 1_555 1_555
C15 C6 1_555 1_555
H7 C15 1_555 1_555
H8 C15 1_555 1_555
H9 C15 1_555 1_555
N2 C8 1_555 1_555
C3 C5 1_555 1_555
C10 C12 1_555 1_555
C10 C14 1_555 1_555
C11 C13 1_555 1_555

#END
