
#######################################################################
#
#                 Cambridge Crystallographic Data Centre
#                                CCDC 
#
#######################################################################
#
# If this CIF has been generated from an entry in the Cambridge 
# Structural Database, then it will include bibliographic, chemical, 
# crystal, experimental, refinement or atomic coordinate data resulting 
# from the CCDC's data processing and validation procedures.
#
#######################################################################

data_IFUJEA
_chemical_formula_moiety         'C22 H19 N4 1+,Br1 1-'
_chemical_name_systematic        
'3-Benzyl-1-(4-(phenyldiazenyl)phenyl)-1H-imidazol-3-ium bromide'
_symmetry_cell_setting           monoclinic
_symmetry_space_group_name_H-M   'P 21/n'
_symmetry_Int_Tables_number      14
_space_group_name_Hall           '-P 2yn'
loop_
_symmetry_equiv_pos_site_id
_symmetry_equiv_pos_as_xyz
1 x,y,z
2 1/2-x,1/2+y,1/2-z
3 -x,-y,-z
4 1/2+x,1/2-y,1/2+z
_cell_length_a                   14.5077(15)
_cell_length_b                   9.0862(8)
_cell_length_c                   15.0053(15)
_cell_angle_alpha                90
_cell_angle_beta                 90.935(4)
_cell_angle_gamma                90
_cell_volume                     1977.73
_exptl_crystal_colour            orange
_exptl_crystal_description       prism
_cell_formula_units_Z            4
loop_
_atom_site_label
_atom_site_type_symbol
_atom_site_fract_x
_atom_site_fract_y
_atom_site_fract_z
Br1 Br 0.39695(2) 0.19632(3) 0.074923(17)
N1 N 0.57039(17) 0.7756(3) 0.43860(15)
N2 N 0.55367(16) 0.6610(2) 0.39750(15)
N3 N 0.39774(14) 0.7056(2) 0.05450(13)
N4 N 0.35155(18) 0.7992(2) -0.07003(14)
C1 C 0.7014(2) 0.7410(5) 0.6885(2)
H1 H 0.7295 0.7354 0.746
C2 C 0.6698(2) 0.8726(5) 0.6565(2)
H2 H 0.6766 0.9588 0.6918
C3 C 0.6280(2) 0.8817(4) 0.5735(2)
H3 H 0.6071 0.974 0.5513
C4 C 0.61658(19) 0.7557(3) 0.52249(18)
C5 C 0.51035(17) 0.6811(3) 0.31277(17)
C6 C 0.4884(2) 0.8162(3) 0.27564(18)
H4 H 0.4994 0.9038 0.3087
C7 C 0.4508(2) 0.8244(3) 0.19128(18)
H5 H 0.4354 0.9173 0.1661
C8 C 0.43532(17) 0.6958(2) 0.14262(16)
C9 C 0.3874(2) 0.8298(3) 0.00803(17)
H6 H 0.4037 0.9254 0.0285
C10 C 0.3275(3) 0.9139(3) -0.1367(2)
H7 H 0.3741 0.9935 -0.1331
H8 H 0.2671 0.957 -0.1217
C11 C 0.3229(2) 0.8574(3) -0.23021(17)
C12 C 0.3995(2) 0.8210(3) -0.2760(2)
H9 H 0.4589 0.8275 -0.2487
C13 C 0.3893(3) 0.7735(3) -0.3647(3)
H10 H 0.4419 0.7477 -0.3983
C14 C 0.3023(3) 0.7647(3) -0.4027(2)
H11 H 0.2952 0.7327 -0.4627
C15 C 0.4927(2) 0.5548(3) 0.26412(18)
H12 H 0.5063 0.4616 0.2899
C16 C 0.45588(19) 0.5612(3) 0.17911(17)
H13 H 0.4448 0.4736 0.1461
C17 C 0.2290(3) 0.8000(3) -0.3568(3)
H14 H 0.1694 0.7931 -0.3837
C18 C 0.2383(2) 0.8459(3) -0.2717(2)
H15 H 0.1847 0.8711 -0.2396
C19 C 0.3382(2) 0.6502(3) -0.07615(18)
H16 H 0.3132 0.5985 -0.126
C20 C 0.36685(19) 0.5911(3) 0.00078(17)
H17 H 0.3662 0.4896 0.0159
C21 C 0.6492(2) 0.6230(4) 0.5544(2)
H18 H 0.6421 0.5362 0.5197
C22 C 0.6921(2) 0.6167(5) 0.6370(2)
H19 H 0.7156 0.5256 0.6585
loop_
_geom_bond_atom_site_label_1
_geom_bond_atom_site_label_2
_geom_bond_site_symmetry_1
_geom_bond_site_symmetry_2
N1 N2 1_555 1_555
N2 C5 1_555 1_555
N3 C8 1_555 1_555
N4 C9 1_555 1_555
C1 H1 1_555 1_555
C2 C1 1_555 1_555
H2 C2 1_555 1_555
C3 C2 1_555 1_555
H3 C3 1_555 1_555
C4 N1 1_555 1_555
C5 C6 1_555 1_555
C6 H4 1_555 1_555
C7 C6 1_555 1_555
H5 C7 1_555 1_555
C8 C7 1_555 1_555
C9 N3 1_555 1_555
H6 C9 1_555 1_555
C10 N4 1_555 1_555
H7 C10 1_555 1_555
H8 C10 1_555 1_555
C11 C10 1_555 1_555
C12 C11 1_555 1_555
H9 C12 1_555 1_555
C13 C12 1_555 1_555
H10 C13 1_555 1_555
C14 C13 1_555 1_555
H11 C14 1_555 1_555
C15 C5 1_555 1_555
H12 C15 1_555 1_555
C16 C8 1_555 1_555
H13 C16 1_555 1_555
C17 C14 1_555 1_555
H14 C17 1_555 1_555
C18 C11 1_555 1_555
H15 C18 1_555 1_555
C19 N4 1_555 1_555
H16 C19 1_555 1_555
C20 N3 1_555 1_555
H17 C20 1_555 1_555
C21 C4 1_555 1_555
H18 C21 1_555 1_555
C22 C1 1_555 1_555
H19 C22 1_555 1_555
C3 C4 1_555 1_555
C15 C16 1_555 1_555
C17 C18 1_555 1_555
C19 C20 1_555 1_555
C21 C22 1_555 1_555

#END
