
#######################################################################
#
#                 Cambridge Crystallographic Data Centre
#                                CCDC 
#
#######################################################################
#
# If this CIF has been generated from an entry in the Cambridge 
# Structural Database, then it will include bibliographic, chemical, 
# crystal, experimental, refinement or atomic coordinate data resulting 
# from the CCDC's data processing and validation procedures.
#
#######################################################################

data_IFUJIE
_chemical_formula_moiety         'C22 H19 N4 1+,F6 P1 1-'
_chemical_name_systematic        
'1-Benzyl-3-(2-(phenyldiazenyl)phenyl)-1H-imidazol-3-ium hexafluorophosphate'
_symmetry_cell_setting           monoclinic
_symmetry_space_group_name_H-M   'C 2/c'
_symmetry_Int_Tables_number      15
_space_group_name_Hall           '-C 2yn'
loop_
_symmetry_equiv_pos_site_id
_symmetry_equiv_pos_as_xyz
1 x,y,z
2 -x,y,1/2-z
3 1/2+x,1/2+y,z
4 1/2-x,1/2+y,1/2-z
5 -x,-y,-z
6 x,-y,1/2+z
7 1/2-x,1/2-y,-z
8 1/2+x,1/2-y,1/2+z
_cell_length_a                   25.965(5)
_cell_length_b                   12.038(2)
_cell_length_c                   14.377(3)
_cell_angle_alpha                90
_cell_angle_beta                 105.212(7)
_cell_angle_gamma                90
_cell_volume                     4336.32
_exptl_crystal_colour            orange
_exptl_crystal_description       prism
_cell_formula_units_Z            8
loop_
_atom_site_label
_atom_site_type_symbol
_atom_site_fract_x
_atom_site_fract_y
_atom_site_fract_z
P1 P 0.68100(5) 0.55081(12) 0.00469(10)
F1 F 0.68700(12) 0.5420(3) 0.1168(2)
F2 F 0.67505(14) 0.5567(3) -0.1073(2)
F3 F 0.7259(2) 0.6353(5) 0.0214(3)
F4 F 0.63596(19) 0.6370(4) -0.0044(3)
F5 F 0.63623(13) 0.4578(3) -0.0156(3)
F6 F 0.72241(17) 0.4555(4) 0.0146(3)
N1 N 0.97199(17) 0.6798(4) 0.8551(3)
N2 N 0.87331(15) 0.7780(3) 0.7772(3)
C1 C 0.8558(2) 0.7028(4) 0.8282(4)
H1 H 0.8727 0.683 0.8922
N3 N 0.81084(16) 0.6595(3) 0.7753(3)
C2 C 1.0420(3) 0.3015(5) 0.8984(4)
H2 H 1.0485 0.2248 0.9066
C3 C 1.0831(2) 0.3723(5) 0.8954(4)
H3 H 1.1175 0.3444 0.9007
C4 C 1.0732(2) 0.4849(5) 0.8846(4)
H4 H 1.1011 0.5337 0.8826
C5 C 1.0231(2) 0.5258(5) 0.8766(3)
N4 N 1.01857(17) 0.6434(4) 0.8696(3)
C6 C 0.9693(2) 0.7975(4) 0.8511(3)
C7 C 0.9202(2) 0.8455(4) 0.8122(4)
C8 C 0.77754(19) 0.5753(4) 0.8075(4)
H5 H 0.7433 0.5686 0.7588
H6 H 0.7702 0.6004 0.8676
C9 C 0.80392(17) 0.4630(4) 0.8236(4)
C10 C 0.8217(2) 0.4214(5) 0.9145(4)
H7 H 0.8189 0.4647 0.9673
C11 C 0.8439(2) 0.3164(6) 0.9300(5)
H8 H 0.8562 0.289 0.9932
C12 C 0.8480(2) 0.2530(5) 0.8542(6)
H9 H 0.8628 0.1814 0.8648
C13 C 0.9917(2) 0.3421(5) 0.8896(4)
H10 H 0.9637 0.2931 0.8907
C14 C 0.9819(2) 0.4541(5) 0.8791(4)
H11 H 0.9474 0.4817 0.8736
C15 C 1.0131(2) 0.8665(5) 0.8857(4)
H12 H 1.0468 0.8357 0.9145
C16 C 1.0070(2) 0.9793(6) 0.8777(5)
H13 H 1.0367 1.0256 0.9017
C17 C 0.9582(3) 1.0260(5) 0.8351(5)
H14 H 0.9549 1.1035 0.8285
C18 C 0.9142(2) 0.9589(5) 0.8024(4)
H15 H 0.8806 0.9901 0.7737
C19 C 0.8304(2) 0.2934(6) 0.7626(5)
H16 H 0.8333 0.2498 0.71
C20 C 0.8084(2) 0.3986(5) 0.7471(4)
H17 H 0.7964 0.4263 0.6839
C21 C 0.7990(2) 0.7106(5) 0.6879(4)
H18 H 0.769 0.6967 0.6362
C22 C 0.8376(2) 0.7841(5) 0.6887(4)
H19 H 0.8398 0.8312 0.6378
loop_
_geom_bond_atom_site_label_1
_geom_bond_atom_site_label_2
_geom_bond_site_symmetry_1
_geom_bond_site_symmetry_2
P1 F1 1_555 1_555
F2 P1 1_555 1_555
F3 P1 1_555 1_555
F4 P1 1_555 1_555
F5 P1 1_555 1_555
F6 P1 1_555 1_555
N1 N4 1_555 1_555
N2 C1 1_555 1_555
C1 H1 1_555 1_555
N3 C1 1_555 1_555
C2 H2 1_555 1_555
C3 C2 1_555 1_555
H3 C3 1_555 1_555
C4 C3 1_555 1_555
H4 C4 1_555 1_555
C5 C4 1_555 1_555
N4 C5 1_555 1_555
C6 N1 1_555 1_555
C7 N2 1_555 1_555
C8 N3 1_555 1_555
H5 C8 1_555 1_555
H6 C8 1_555 1_555
C9 C8 1_555 1_555
C10 C9 1_555 1_555
H7 C10 1_555 1_555
C11 C10 1_555 1_555
H8 C11 1_555 1_555
C12 C11 1_555 1_555
H9 C12 1_555 1_555
C13 C2 1_555 1_555
H10 C13 1_555 1_555
C14 C5 1_555 1_555
H11 C14 1_555 1_555
C15 C6 1_555 1_555
H12 C15 1_555 1_555
C16 C15 1_555 1_555
H13 C16 1_555 1_555
C17 C16 1_555 1_555
H14 C17 1_555 1_555
C18 C7 1_555 1_555
H15 C18 1_555 1_555
C19 C12 1_555 1_555
H16 C19 1_555 1_555
C20 C9 1_555 1_555
H17 C20 1_555 1_555
C21 N3 1_555 1_555
H18 C21 1_555 1_555
C22 N2 1_555 1_555
H19 C22 1_555 1_555
C6 C7 1_555 1_555
C13 C14 1_555 1_555
C17 C18 1_555 1_555
C19 C20 1_555 1_555
C21 C22 1_555 1_555

#END
