
#######################################################################
#
#                 Cambridge Crystallographic Data Centre
#                                CCDC 
#
#######################################################################
#
# If this CIF has been generated from an entry in the Cambridge 
# Structural Database, then it will include bibliographic, chemical, 
# crystal, experimental, refinement or atomic coordinate data resulting 
# from the CCDC's data processing and validation procedures.
#
#######################################################################

data_IFULUT
_chemical_formula_moiety         'C13 H11 N2 1+,D2 O1,I1 1-'
_chemical_name_systematic        
'1-methylpyrido[3,2-g]quinolin-1-ium iodide dideuterium oxide'
_symmetry_cell_setting           triclinic
_symmetry_space_group_name_H-M   'P -1'
_symmetry_Int_Tables_number      2
_space_group_name_Hall           '-P 1'
loop_
_symmetry_equiv_pos_site_id
_symmetry_equiv_pos_as_xyz
1 x,y,z
2 -x,-y,-z
_cell_length_a                   8.0884(16)
_cell_length_b                   8.4974(17)
_cell_length_c                   9.6630(19)
_cell_angle_alpha                82.18(3)
_cell_angle_beta                 80.74(3)
_cell_angle_gamma                78.11(3)
_cell_volume                     637.772
_exptl_crystal_colour            yellow
_exptl_crystal_description       prism
_cell_formula_units_Z            2
loop_
_atom_site_label
_atom_site_type_symbol
_atom_site_fract_x
_atom_site_fract_y
_atom_site_fract_z
C1 C 0.1961(4) 0.5021(4) 0.6032(3)
H1 H 0.098030 0.585694 0.602514
N1 N 0.2739(3) 0.4552(3) 0.4812(3)
N2 N 0.7153(3) 0.0924(3) 0.2252(3)
C2 C 0.2482(4) 0.4366(4) 0.7356(3)
H2 H 0.185539 0.475511 0.819968
C3 C 0.3887(4) 0.3175(4) 0.7407(3)
H3 H 0.427228 0.273753 0.828227
C4 C 0.4772(4) 0.2593(3) 0.6120(3)
C5 C 0.6164(4) 0.1316(3) 0.6073(3)
H4 H 0.658066 0.082590 0.692425
C6 C 0.6958(3) 0.0742(3) 0.4796(3)
C7 C 0.8335(4) -0.0599(3) 0.4733(3)
H5 H 0.873175 -0.114524 0.557698
C8 C 0.9086(4) -0.1101(4) 0.3463(3)
H6 H 1.002080 -0.198552 0.341359
C9 C 0.8469(4) -0.0302(4) 0.2232(3)
H7 H 0.901259 -0.064952 0.134933
C10 C 0.6337(3) 0.1512(3) 0.3521(3)
C11 C 0.4950(4) 0.2782(3) 0.3543(3)
H8 H 0.455000 0.328363 0.268819
C12 C 0.4144(3) 0.3318(3) 0.4834(3)
C13 C 0.6607(4) 0.1730(5) 0.0907(3)
H9 H 0.676730 0.285553 0.078651
H10 H 0.539979 0.170635 0.091286
H11 H 0.729148 0.116517 0.012639
I1 I 1.13927(2) 0.22744(2) 0.12198(2)
O1 O 0.2142(3) 0.6196(3) 0.2033(3)
D1 D 0.210930 0.559390 0.277145
D2 D 0.203260 0.554700 0.151435
loop_
_geom_bond_atom_site_label_1
_geom_bond_atom_site_label_2
_geom_bond_site_symmetry_1
_geom_bond_site_symmetry_2
C1 H1 1_555 1_555
N1 C1 1_555 1_555
N2 C9 1_555 1_555
C2 C1 1_555 1_555
H2 C2 1_555 1_555
C3 C2 1_555 1_555
H3 C3 1_555 1_555
C4 C3 1_555 1_555
C5 C4 1_555 1_555
H4 C5 1_555 1_555
C6 C5 1_555 1_555
C7 C6 1_555 1_555
H5 C7 1_555 1_555
C8 C7 1_555 1_555
H6 C8 1_555 1_555
C9 C8 1_555 1_555
H7 C9 1_555 1_555
C10 N2 1_555 1_555
C11 C10 1_555 1_555
H8 C11 1_555 1_555
C12 N1 1_555 1_555
C13 N2 1_555 1_555
H9 C13 1_555 1_555
H10 C13 1_555 1_555
H11 C13 1_555 1_555
O1 D1 1_555 1_555
D2 O1 1_555 1_555
C4 C12 1_555 1_555
C6 C10 1_555 1_555
C11 C12 1_555 1_555

#END
