
#######################################################################
#
#                 Cambridge Crystallographic Data Centre
#                                CCDC 
#
#######################################################################
#
# If this CIF has been generated from an entry in the Cambridge 
# Structural Database, then it will include bibliographic, chemical, 
# crystal, experimental, refinement or atomic coordinate data resulting 
# from the CCDC's data processing and validation procedures.
#
#######################################################################

data_IFUPAB
_chemical_formula_moiety         'C14 H8 N2 O8 S2'
_chemical_name_systematic        "2,2'-Dinitro-5,5'-dithiodibenzoic acid"
_symmetry_cell_setting           triclinic
_symmetry_space_group_name_H-M   'P -1'
_symmetry_Int_Tables_number      2
_space_group_name_Hall           '-P 1'
loop_
_symmetry_equiv_pos_site_id
_symmetry_equiv_pos_as_xyz
1 x,y,z
2 -x,-y,-z
_cell_length_a                   7.875(2)
_cell_length_b                   14.695(4)
_cell_length_c                   15.116(5)
_cell_angle_alpha                111.480(5)
_cell_angle_beta                 101.182(5)
_cell_angle_gamma                90.572(5)
_cell_volume                     1590.58
_exptl_crystal_colour            colorless
_exptl_crystal_description       block
_cell_formula_units_Z            4
loop_
_atom_site_label
_atom_site_type_symbol
_atom_site_fract_x
_atom_site_fract_y
_atom_site_fract_z
S1 S -0.01726(16) 0.70300(8) 0.33908(9)
S2 S -0.04932(15) 0.59689(8) 0.39126(9)
N1 N 0.3900(5) 1.0562(3) 0.6593(3)
N2 N 0.5648(5) 0.3610(3) 0.3567(3)
O1 O 0.3554(4) 1.1261(2) 0.5124(3)
H1 H 0.3428 1.1749 0.4984
O2 O 0.1174(4) 1.0668(2) 0.3939(3)
O3 O 0.5428(5) 1.0529(3) 0.6900(3)
O4 O 0.3084(5) 1.1242(3) 0.6944(3)
O5 O 0.1194(4) 0.2278(2) 0.3491(3)
H2 H 0.1308 0.1771 0.3597
O6 O 0.3681(4) 0.2775(2) 0.4591(3)
O7 O 0.5385(5) 0.2744(2) 0.3064(3)
O8 O 0.7108(4) 0.4035(2) 0.3973(3)
C1 C 0.1118(5) 0.8035(3) 0.4363(3)
C2 C 0.1199(5) 0.8905(3) 0.4200(3)
H3 H 0.0591 0.8927 0.3617
C3 C 0.2177(5) 0.9741(3) 0.4898(3)
C4 C 0.2998(5) 0.9692(3) 0.5775(3)
C5 C 0.2940(5) 0.8827(3) 0.5935(3)
H4 H 0.3536 0.8807 0.6521
C6 C 0.2006(5) 0.7996(3) 0.5234(3)
H5 H 0.1969 0.7413 0.5342
C7 C 0.1340(5) 0.5290(3) 0.3762(3)
C8 C 0.1208(6) 0.4352(3) 0.3793(3)
H6 H 0.0154 0.4094 0.3831
C9 C 0.2633(5) 0.3803(3) 0.3768(3)
C10 C 0.4171(5) 0.4200(3) 0.3685(3)
C11 C 0.4336(6) 0.5117(3) 0.3644(3)
H7 H 0.5388 0.5362 0.3589
C12 C 0.2938(5) 0.5661(3) 0.3684(3)
H8 H 0.3041 0.6282 0.3660
C13 C 0.2281(5) 1.0620(3) 0.4637(3)
C14 C 0.2520(5) 0.2874(3) 0.3953(3)
S3 S 0.08887(17) 0.82074(8) 0.15577(9)
S4 S 0.02988(15) 0.67435(8) 0.09932(9)
N3 N 0.2790(5) 0.9447(3) -0.1503(3)
N4 N 0.6705(5) 0.4718(3) 0.1507(3)
O9 O 0.2018(4) 1.1464(2) 0.1163(2)
H9 H 0.2036 1.2030 0.1186
O10 O 0.3339(4) 1.1224(2) -0.0084(2)
O11 O 0.1633(5) 0.9729(3) -0.1961(3)
O12 O 0.4258(4) 0.9351(3) -0.1681(2)
O13 O 0.3935(5) 0.3091(2) 0.0261(3)
H10 H 0.3956 0.2535 0.0265
O14 O 0.2379(4) 0.3353(2) 0.1412(2)
O15 O 0.6680(4) 0.4104(2) 0.1883(3)
O16 O 0.7995(4) 0.4923(3) 0.1241(3)
C15 C 0.1522(6) 0.8507(3) 0.0627(3)
C16 C 0.1794(5) 0.9510(3) 0.0841(3)
H11 H 0.1671 0.9959 0.1441
C17 C 0.2250(5) 0.9841(3) 0.0158(3)
C18 C 0.2427(5) 0.9141(3) -0.0736(3)
C19 C 0.2196(6) 0.8161(3) -0.0944(4)
H12 H 0.2338 0.7712 -0.1540
C20 C 0.1747(6) 0.7836(3) -0.0259(3)
H13 H 0.1596 0.7166 -0.0394
C21 C 0.2267(6) 0.6214(3) 0.1214(3)
C22 C 0.2104(6) 0.5236(3) 0.1103(3)
H14 H 0.1002 0.4925 0.0981
C23 C 0.3533(5) 0.4716(3) 0.1167(3)
C24 C 0.5177(6) 0.5213(3) 0.1368(3)
C25 C 0.5381(6) 0.6202(3) 0.1518(3)
H15 H 0.6484 0.6521 0.1665
C26 C 0.3911(6) 0.6708(3) 0.1446(3)
H16 H 0.4023 0.7372 0.1552
C27 C 0.2575(6) 1.0908(3) 0.0403(4)
C28 C 0.3248(6) 0.3645(3) 0.0970(3)
loop_
_geom_bond_atom_site_label_1
_geom_bond_atom_site_label_2
_geom_bond_site_symmetry_1
_geom_bond_site_symmetry_2
S1 S2 1_555 1_555
S2 C7 1_555 1_555
N1 O3 1_555 1_555
N2 O7 1_555 1_555
O1 H1 1_555 1_555
O2 C13 1_555 1_555
O4 N1 1_555 1_555
O5 H2 1_555 1_555
O6 C14 1_555 1_555
O8 N2 1_555 1_555
C1 S1 1_555 1_555
C2 C1 1_555 1_555
H3 C2 1_555 1_555
C3 C2 1_555 1_555
C4 N1 1_555 1_555
C5 C4 1_555 1_555
H4 C5 1_555 1_555
C6 C1 1_555 1_555
H5 C6 1_555 1_555
C7 C8 1_555 1_555
C8 H6 1_555 1_555
C9 C8 1_555 1_555
C10 N2 1_555 1_555
C11 C10 1_555 1_555
H7 C11 1_555 1_555
C12 C7 1_555 1_555
H8 C12 1_555 1_555
C13 O1 1_555 1_555
C14 O5 1_555 1_555
S3 S4 1_555 1_555
S4 C21 1_555 1_555
N3 O11 1_555 1_555
N4 O15 1_555 1_555
O9 H9 1_555 1_555
O10 C27 1_555 1_555
O12 N3 1_555 1_555
O13 H10 1_555 1_555
O14 C28 1_555 1_555
O16 N4 1_555 1_555
C15 S3 1_555 1_555
C16 C15 1_555 1_555
H11 C16 1_555 1_555
C17 C16 1_555 1_555
C18 N3 1_555 1_555
C19 C18 1_555 1_555
H12 C19 1_555 1_555
C20 C15 1_555 1_555
H13 C20 1_555 1_555
C21 C22 1_555 1_555
C22 H14 1_555 1_555
C23 C22 1_555 1_555
C24 N4 1_555 1_555
C25 C24 1_555 1_555
H15 C25 1_555 1_555
C26 C21 1_555 1_555
H16 C26 1_555 1_555
C27 O9 1_555 1_555
C28 O13 1_555 1_555
C3 C4 1_555 1_555
C3 C13 1_555 1_555
C5 C6 1_555 1_555
C9 C10 1_555 1_555
C9 C14 1_555 1_555
C11 C12 1_555 1_555
C17 C18 1_555 1_555
C17 C27 1_555 1_555
C19 C20 1_555 1_555
C23 C24 1_555 1_555
C23 C28 1_555 1_555
C25 C26 1_555 1_555

#END
