
#######################################################################
#
#                 Cambridge Crystallographic Data Centre
#                                CCDC 
#
#######################################################################
#
# If this CIF has been generated from an entry in the Cambridge 
# Structural Database, then it will include bibliographic, chemical, 
# crystal, experimental, refinement or atomic coordinate data resulting 
# from the CCDC's data processing and validation procedures.
#
#######################################################################

data_IFUPUW
_chemical_formula_moiety         'C26 H35 N1 O6'
_chemical_name_systematic        
2-(Methoxymethyl)-1-(3-phenyl-1-(2,2,7,7-tetramethyltetrahydro-3aH-bis[1,3]dioxolo[4,5-b:4',5'-d]pyran-5-yl)prop-2-yn-1-yl)pyrrolidine
_symmetry_cell_setting           orthorhombic
_symmetry_space_group_name_H-M   'P 21 21 21'
_symmetry_Int_Tables_number      19
_space_group_name_Hall           'P 2ac 2ab'
loop_
_symmetry_equiv_pos_site_id
_symmetry_equiv_pos_as_xyz
1 x,y,z
2 1/2-x,-y,1/2+z
3 -x,1/2+y,1/2-z
4 1/2+x,1/2-y,-z
_cell_length_a                   10.8704(3)
_cell_length_b                   11.8068(3)
_cell_length_c                   19.7680(5)
_cell_angle_alpha                90
_cell_angle_beta                 90
_cell_angle_gamma                90
_cell_volume                     2537.12
_exptl_crystal_colour            colorless
_exptl_crystal_description       block
_cell_formula_units_Z            4
loop_
_atom_site_label
_atom_site_type_symbol
_atom_site_fract_x
_atom_site_fract_y
_atom_site_fract_z
O1 O 0.49664(8) 0.67864(7) 0.23343(5)
O2 O 0.68225(9) 0.65706(9) 0.17840(5)
O3 O 0.69823(9) 0.48061(7) 0.22093(5)
O4 O 0.53668(10) 0.54966(10) 0.37350(5)
O5 O 0.34808(10) 0.54358(10) 0.32587(5)
O6 O 0.00596(9) 0.83029(9) 0.13190(5)
N1 N 0.31092(10) 0.69605(9) 0.13653(5)
C1 C 0.43409(12) 0.57701(11) 0.21515(7)
H1 H 0.4801 0.5391 0.1790
C2 C 0.62313(13) 0.66180(12) 0.24166(7)
H2 H 0.6574 0.7247 0.2680
C3 C 0.65780(13) 0.54967(11) 0.27575(7)
H3 H 0.7259 0.5621 0.3074
C4 C 0.55394(13) 0.49024(13) 0.31152(6)
H4 H 0.5749 0.4108 0.3201
C5 C 0.42907(13) 0.49943(12) 0.27662(7)
H5 H 0.4013 0.4239 0.2628
C6 C 0.75291(14) 0.55488(13) 0.17300(8)
C7 C 0.73496(19) 0.50517(17) 0.10376(8)
H6 H 0.6488 0.4933 0.0958
H7 H 0.7776 0.4341 0.1009
H8 H 0.7671 0.5563 0.0704
C8 C 0.88493(15) 0.57854(16) 0.18974(10)
H9 H 0.8903 0.6099 0.2344
H10 H 0.9179 0.6315 0.1577
H11 H 0.9311 0.5093 0.1878
C9 C 0.40955(16) 0.56085(17) 0.38797(9)
C10 C 0.3875(2) 0.6822(2) 0.41079(15)
H12 H 0.4176 0.7334 0.3769
H13 H 0.4300 0.6955 0.4526
H14 H 0.3009 0.6942 0.4172
C11 C 0.3680(2) 0.4729(3) 0.43640(11)
H15 H 0.3853 0.3992 0.4182
H16 H 0.2810 0.4804 0.4438
H17 H 0.4106 0.4822 0.4786
C12 C 0.30576(14) 0.60831(12) 0.18872(7)
H18 H 0.2577 0.6379 0.2268
C13 C 0.24630(14) 0.50258(14) 0.16505(7)
C14 C 0.20278(15) 0.41714(13) 0.14364(8)
C15 C 0.15483(15) 0.31202(12) 0.11781(8)
C16 C 0.03484(19) 0.28047(16) 0.12829(15)
H19 H -0.0179 0.3280 0.1520
C17 C -0.0078(2) 0.17800(18) 0.10360(17)
H20 H -0.0891 0.1568 0.1110
C18 C 0.0688(2) 0.10801(17) 0.06840(12)
H21 H 0.0391 0.0407 0.0503
C19 C 0.1864(2) 0.13653(16) 0.06008(9)
H22 H 0.2391 0.0872 0.0377
C20 C 0.23086(19) 0.23780(14) 0.08409(8)
H23 H 0.3131 0.2564 0.0775
C21 C 0.38533(14) 0.66904(14) 0.07695(7)
H24 H 0.3674 0.5934 0.0606
H25 H 0.4724 0.6744 0.0871
C22 C 0.34798(17) 0.75678(17) 0.02604(8)
H26 H 0.4048 0.8201 0.0267
H27 H 0.3471 0.7247 -0.0191
C23 C 0.22304(17) 0.79431(16) 0.04578(8)
H28 H 0.1645 0.7769 0.0102
H29 H 0.2221 0.8754 0.0537
C24 C 0.19008(13) 0.73066(12) 0.11036(6)
H30 H 0.1419 0.6632 0.0989
C25 C 0.12019(13) 0.80115(14) 0.16017(7)
H31 H 0.1079 0.7589 0.2017
H32 H 0.1663 0.8692 0.1708
C26 C -0.07237(18) 0.88782(17) 0.17740(10)
H33 H -0.1484 0.9057 0.1552
H34 H -0.0334 0.9565 0.1921
H35 H -0.0885 0.8404 0.2158
loop_
_geom_bond_atom_site_label_1
_geom_bond_atom_site_label_2
_geom_bond_site_symmetry_1
_geom_bond_site_symmetry_2
O1 C1 1_555 1_555
O2 C2 1_555 1_555
O3 C3 1_555 1_555
O4 C4 1_555 1_555
O5 C5 1_555 1_555
O6 C25 1_555 1_555
N1 C12 1_555 1_555
C1 H1 1_555 1_555
C2 O1 1_555 1_555
H2 C2 1_555 1_555
C3 C2 1_555 1_555
H3 C3 1_555 1_555
C4 C3 1_555 1_555
H4 C4 1_555 1_555
C5 C1 1_555 1_555
H5 C5 1_555 1_555
C6 O2 1_555 1_555
C7 C6 1_555 1_555
H6 C7 1_555 1_555
H7 C7 1_555 1_555
H8 C7 1_555 1_555
C8 C6 1_555 1_555
H9 C8 1_555 1_555
H10 C8 1_555 1_555
H11 C8 1_555 1_555
C9 O4 1_555 1_555
C10 C9 1_555 1_555
H12 C10 1_555 1_555
H13 C10 1_555 1_555
H14 C10 1_555 1_555
C11 C9 1_555 1_555
H15 C11 1_555 1_555
H16 C11 1_555 1_555
H17 C11 1_555 1_555
C12 C1 1_555 1_555
H18 C12 1_555 1_555
C13 C12 1_555 1_555
C14 C13 1_555 1_555
C15 C14 1_555 1_555
C16 C15 1_555 1_555
H19 C16 1_555 1_555
C17 C16 1_555 1_555
H20 C17 1_555 1_555
C18 C17 1_555 1_555
H21 C18 1_555 1_555
C19 C18 1_555 1_555
H22 C19 1_555 1_555
C20 C15 1_555 1_555
H23 C20 1_555 1_555
C21 N1 1_555 1_555
H24 C21 1_555 1_555
H25 C21 1_555 1_555
C22 C21 1_555 1_555
H26 C22 1_555 1_555
H27 C22 1_555 1_555
C23 C22 1_555 1_555
H28 C23 1_555 1_555
H29 C23 1_555 1_555
C24 N1 1_555 1_555
H30 C24 1_555 1_555
C25 C24 1_555 1_555
H31 C25 1_555 1_555
H32 C25 1_555 1_555
C26 O6 1_555 1_555
H33 C26 1_555 1_555
H34 C26 1_555 1_555
H35 C26 1_555 1_555
O3 C6 1_555 1_555
O5 C9 1_555 1_555
C4 C5 1_555 1_555
C19 C20 1_555 1_555
C23 C24 1_555 1_555

#END
