
#######################################################################
#
#                 Cambridge Crystallographic Data Centre
#                                CCDC 
#
#######################################################################
#
# If this CIF has been generated from an entry in the Cambridge 
# Structural Database, then it will include bibliographic, chemical, 
# crystal, experimental, refinement or atomic coordinate data resulting 
# from the CCDC's data processing and validation procedures.
#
#######################################################################

data_IFUQEH
_chemical_formula_moiety         'C24 H30 Cl1 N1 O5'
_chemical_name_systematic        
1-(3-(4-Chlorophenyl)-1-(2,2,7,7-tetramethyltetrahydro-3aH-bis[1,3]dioxolo[4,5-b:4',5'-d]pyran-5-yl)prop-2-yn-1-yl)pyrrolidine
_symmetry_cell_setting           tetragonal
_symmetry_space_group_name_H-M   'P 43'
_symmetry_Int_Tables_number      78
_space_group_name_Hall           'P 4cw'
loop_
_symmetry_equiv_pos_site_id
_symmetry_equiv_pos_as_xyz
1 x,y,z
2 -x,-y,1/2+z
3 -y,x,3/4+z
4 y,-x,1/4+z
_cell_length_a                   10.9700(2)
_cell_length_b                   10.9700(2)
_cell_length_c                   39.8381(11)
_cell_angle_alpha                90
_cell_angle_beta                 90
_cell_angle_gamma                90
_cell_volume                     4794.15
_exptl_crystal_colour            colorless
_exptl_crystal_description       prism
_cell_formula_units_Z            8
loop_
_atom_site_label
_atom_site_type_symbol
_atom_site_fract_x
_atom_site_fract_y
_atom_site_fract_z
Cl1 Cl 1.07906(11) -0.34632(12) 0.08273(5)
O1 O 0.36180(17) 0.27481(17) 0.13538(5)
O2 O 0.39714(19) 0.43893(19) 0.10060(5)
O3 O 0.57685(18) 0.47446(19) 0.12616(5)
O4 O 0.4845(2) 0.3395(2) 0.20417(5)
O5 O 0.5092(3) 0.1463(2) 0.18633(5)
N1 N 0.3488(2) 0.0697(2) 0.09495(6)
C1 C 0.4711(3) 0.2082(3) 0.12998(7)
H1 H 0.5127 0.2415 0.1102
C2 C 0.3809(3) 0.4009(3) 0.13426(8)
H2 H 0.3100 0.4427 0.1438
C3 C 0.4962(3) 0.4439(3) 0.15226(8)
H3 H 0.4779 0.5166 0.1656
C4 C 0.5555(3) 0.3490(3) 0.17416(7)
H4 H 0.6391 0.3734 0.1796
C5 C 0.5543(3) 0.2199(2) 0.15998(8)
H5 H 0.6372 0.1947 0.1540
C6 C 0.5039(3) 0.5107(3) 0.09762(8)
C7 C 0.4705(4) 0.6432(3) 0.09934(11)
H6 H 0.4260 0.6586 0.1197
H7 H 0.4208 0.6640 0.0804
H8 H 0.5433 0.6917 0.0991
C8 C 0.5710(4) 0.4768(4) 0.06719(10)
H9 H 0.5896 0.3913 0.0678
H10 H 0.6454 0.5227 0.0660
H11 H 0.5220 0.4941 0.0478
C9 C 0.4916(4) 0.2177(3) 0.21550(9)
C10 C 0.5963(4) 0.1993(4) 0.23884(10)
H12 H 0.6709 0.2196 0.2275
H13 H 0.5989 0.1156 0.2459
H14 H 0.5866 0.2509 0.2581
C11 C 0.3703(4) 0.1837(5) 0.23090(12)
H15 H 0.3063 0.1983 0.2150
H16 H 0.3566 0.2321 0.2506
H17 H 0.3710 0.0989 0.2369
C12 C 0.4340(3) 0.0770(3) 0.12266(7)
H18 H 0.3926 0.0455 0.1427
C13 C 0.5451(3) 0.0024(3) 0.11744(7)
C14 C 0.6338(3) -0.0590(3) 0.11197(8)
C15 C 0.7418(3) -0.1279(3) 0.10504(8)
C16 C 0.8107(3) -0.1057(3) 0.07626(10)
H19 H 0.7869 -0.0442 0.0616
C17 C 0.9140(4) -0.1738(4) 0.06923(11)
H20 H 0.9598 -0.1581 0.0501
C18 C 0.9474(3) -0.2643(3) 0.09090(12)
C19 C 0.8806(4) -0.2896(4) 0.11807(13)
H21 H 0.9040 -0.3531 0.1321
C20 C 0.7774(3) -0.2228(3) 0.12561(10)
H22 H 0.7318 -0.2418 0.1446
C21 C 0.3924(3) 0.1110(3) 0.06225(8)
H23 H 0.4748 0.0826 0.0582
H24 H 0.3916 0.1993 0.0610
C22 C 0.3049(3) 0.0567(3) 0.03669(9)
H25 H 0.3492 0.0172 0.0186
H26 H 0.2527 0.1192 0.0272
C23 C 0.2301(3) -0.0362(3) 0.05658(9)
H27 H 0.1481 -0.0062 0.0604
H28 H 0.2254 -0.1131 0.0446
C24 C 0.2968(3) -0.0512(3) 0.08915(8)
H29 H 0.2415 -0.0740 0.1071
H30 H 0.3603 -0.1125 0.0873
Cl2 Cl 0.15423(12) 0.57935(12) -0.02552(5)
O6 O 0.77525(17) -0.13851(17) -0.07811(5)
O7 O 0.93987(19) -0.1024(2) -0.04351(6)
O8 O 0.9735(2) 0.07681(19) -0.06847(6)
O9 O 0.8398(2) -0.0146(2) -0.14667(5)
O10 O 0.64620(19) 0.0104(3) -0.12915(6)
N2 N 0.5696(2) -0.1512(2) -0.03759(6)
C25 C 0.7081(3) -0.0293(3) -0.07262(8)
H31 H 0.7416 0.0122 -0.0529
C26 C 0.9007(3) -0.1199(3) -0.07722(9)
H32 H 0.9422 -0.1910 -0.0867
C27 C 0.9441(3) -0.0040(3) -0.09539(9)
H33 H 1.0172 -0.0217 -0.1087
C28 C 0.8495(3) 0.0550(3) -0.11695(8)
H34 H 0.8739 0.1387 -0.1224
C29 C 0.7201(3) 0.0539(3) -0.10247(7)
H35 H 0.6955 0.1369 -0.0963
C30 C 1.0102(3) 0.0056(3) -0.04115(9)
C31 C 0.9772(4) 0.0698(4) -0.00848(9)
H36 H 0.8927 0.0927 -0.0089
H37 H 1.0266 0.1414 -0.0060
H38 H 0.9914 0.0158 0.0101
C32 C 1.1434(3) -0.0296(4) -0.04238(11)
H39 H 1.1605 -0.0695 -0.0633
H40 H 1.1614 -0.0840 -0.0242
H41 H 1.1928 0.0423 -0.0405
C33 C 0.7165(3) -0.0091(4) -0.15822(9)
C34 C 0.6844(5) -0.1294(4) -0.17323(13)
H42 H 0.6982 -0.1927 -0.1570
H43 H 0.7343 -0.1437 -0.1926
H44 H 0.6001 -0.1292 -0.1797
C35 C 0.6987(4) 0.0965(4) -0.18230(9)
H45 H 0.7208 0.1713 -0.1714
H46 H 0.6148 0.1002 -0.1891
H47 H 0.7493 0.0849 -0.2017
C36 C 0.5769(3) -0.0657(3) -0.06516(8)
H48 H 0.5458 -0.1075 -0.0851
C37 C 0.5018(3) 0.0457(3) -0.06049(8)
C38 C 0.4421(3) 0.1350(3) -0.05481(8)
C39 C 0.3719(3) 0.2423(3) -0.04792(9)
C40 C 0.3960(4) 0.3108(3) -0.01993(11)
H49 H 0.4589 0.2880 -0.0056
C41 C 0.3280(4) 0.4130(4) -0.01279(12)
H50 H 0.3453 0.4585 0.0063
C42 C 0.2364(3) 0.4479(3) -0.03331(12)
C43 C 0.2115(4) 0.3822(4) -0.06143(13)
H51 H 0.1500 0.4075 -0.0759
C44 C 0.2769(3) 0.2785(4) -0.06846(10)
H52 H 0.2571 0.2322 -0.0872
C45 C 0.6111(3) -0.1061(3) -0.00483(8)
H53 H 0.5820 -0.0239 -0.0009
H54 H 0.6995 -0.1063 -0.0036
C46 C 0.5572(3) -0.1941(3) 0.02054(9)
H55 H 0.5177 -0.1499 0.0386
H56 H 0.6203 -0.2456 0.0300
C47 C 0.4638(4) -0.2710(3) 0.00101(9)
H57 H 0.4943 -0.3529 -0.0028
H58 H 0.3871 -0.2760 0.0131
C48 C 0.4480(3) -0.2025(3) -0.03214(9)
H59 H 0.4252 -0.2574 -0.0502
H60 H 0.3870 -0.1389 -0.0302
loop_
_geom_bond_atom_site_label_1
_geom_bond_atom_site_label_2
_geom_bond_site_symmetry_1
_geom_bond_site_symmetry_2
Cl1 C18 1_555 1_555
O1 C1 1_555 1_555
O2 C2 1_555 1_555
O3 C3 1_555 1_555
O4 C4 1_555 1_555
O5 C5 1_555 1_555
N1 C12 1_555 1_555
C1 H1 1_555 1_555
C2 O1 1_555 1_555
H2 C2 1_555 1_555
C3 C2 1_555 1_555
H3 C3 1_555 1_555
C4 C3 1_555 1_555
H4 C4 1_555 1_555
C5 C1 1_555 1_555
H5 C5 1_555 1_555
C6 O2 1_555 1_555
C7 C6 1_555 1_555
H6 C7 1_555 1_555
H7 C7 1_555 1_555
H8 C7 1_555 1_555
C8 C6 1_555 1_555
H9 C8 1_555 1_555
H10 C8 1_555 1_555
H11 C8 1_555 1_555
C9 O4 1_555 1_555
C10 C9 1_555 1_555
H12 C10 1_555 1_555
H13 C10 1_555 1_555
H14 C10 1_555 1_555
C11 C9 1_555 1_555
H15 C11 1_555 1_555
H16 C11 1_555 1_555
H17 C11 1_555 1_555
C12 C1 1_555 1_555
H18 C12 1_555 1_555
C13 C12 1_555 1_555
C14 C13 1_555 1_555
C15 C14 1_555 1_555
C16 C15 1_555 1_555
H19 C16 1_555 1_555
C17 C16 1_555 1_555
H20 C17 1_555 1_555
C18 C17 1_555 1_555
C19 C18 1_555 1_555
H21 C19 1_555 1_555
C20 C15 1_555 1_555
H22 C20 1_555 1_555
C21 N1 1_555 1_555
H23 C21 1_555 1_555
H24 C21 1_555 1_555
C22 C21 1_555 1_555
H25 C22 1_555 1_555
H26 C22 1_555 1_555
C23 C22 1_555 1_555
H27 C23 1_555 1_555
H28 C23 1_555 1_555
C24 N1 1_555 1_555
H29 C24 1_555 1_555
H30 C24 1_555 1_555
Cl2 C42 1_555 1_555
O6 C25 1_555 1_555
O7 C26 1_555 1_555
O8 C27 1_555 1_555
O9 C28 1_555 1_555
O10 C29 1_555 1_555
N2 C36 1_555 1_555
C25 H31 1_555 1_555
C26 O6 1_555 1_555
H32 C26 1_555 1_555
C27 C26 1_555 1_555
H33 C27 1_555 1_555
C28 C27 1_555 1_555
H34 C28 1_555 1_555
C29 C25 1_555 1_555
H35 C29 1_555 1_555
C30 O7 1_555 1_555
C31 C30 1_555 1_555
H36 C31 1_555 1_555
H37 C31 1_555 1_555
H38 C31 1_555 1_555
C32 C30 1_555 1_555
H39 C32 1_555 1_555
H40 C32 1_555 1_555
H41 C32 1_555 1_555
C33 O9 1_555 1_555
C34 C33 1_555 1_555
H42 C34 1_555 1_555
H43 C34 1_555 1_555
H44 C34 1_555 1_555
C35 C33 1_555 1_555
H45 C35 1_555 1_555
H46 C35 1_555 1_555
H47 C35 1_555 1_555
C36 C25 1_555 1_555
H48 C36 1_555 1_555
C37 C36 1_555 1_555
C38 C37 1_555 1_555
C39 C38 1_555 1_555
C40 C39 1_555 1_555
H49 C40 1_555 1_555
C41 C40 1_555 1_555
H50 C41 1_555 1_555
C42 C41 1_555 1_555
C43 C42 1_555 1_555
H51 C43 1_555 1_555
C44 C39 1_555 1_555
H52 C44 1_555 1_555
C45 N2 1_555 1_555
H53 C45 1_555 1_555
H54 C45 1_555 1_555
C46 C45 1_555 1_555
H55 C46 1_555 1_555
H56 C46 1_555 1_555
C47 C46 1_555 1_555
H57 C47 1_555 1_555
H58 C47 1_555 1_555
C48 N2 1_555 1_555
H59 C48 1_555 1_555
H60 C48 1_555 1_555
O3 C6 1_555 1_555
O5 C9 1_555 1_555
C4 C5 1_555 1_555
C19 C20 1_555 1_555
C23 C24 1_555 1_555
O8 C30 1_555 1_555
O10 C33 1_555 1_555
C28 C29 1_555 1_555
C43 C44 1_555 1_555
C47 C48 1_555 1_555

#END
