
#######################################################################
#
#                 Cambridge Crystallographic Data Centre
#                                CCDC 
#
#######################################################################
#
# If this CIF has been generated from an entry in the Cambridge 
# Structural Database, then it will include bibliographic, chemical, 
# crystal, experimental, refinement or atomic coordinate data resulting 
# from the CCDC's data processing and validation procedures.
#
#######################################################################

data_IFURIL
_chemical_formula_moiety         'C10 H10 N2 O2,2(H2 O1)'
_chemical_name_systematic        '3-(Benzimidazolium-2-yl)propionate dihydrate'
_symmetry_cell_setting           monoclinic
_symmetry_space_group_name_H-M   'P 21/c'
_symmetry_Int_Tables_number      14
_space_group_name_Hall           '-P 2ybc'
loop_
_symmetry_equiv_pos_site_id
_symmetry_equiv_pos_as_xyz
1 x,y,z
2 -x,1/2+y,1/2-z
3 -x,-y,-z
4 x,1/2-y,1/2+z
_cell_length_a                   18.444(3)
_cell_length_b                   4.9730(8)
_cell_length_c                   11.9097(19)
_cell_angle_alpha                90
_cell_angle_beta                 94.530(5)
_cell_angle_gamma                90
_cell_volume                     1088.97
_exptl_crystal_colour            colorless
_exptl_crystal_description       prism
_cell_formula_units_Z            4
loop_
_atom_site_label
_atom_site_type_symbol
_atom_site_fract_x
_atom_site_fract_y
_atom_site_fract_z
O1 O 0.24941(9) 0.3021(3) 0.56604(13)
O2 O 0.31408(9) 0.3485(3) 0.41718(12)
N1 N 0.22255(10) 0.8913(4) 0.70511(15)
H1 H 0.2296 1.0021 0.6516
N2 N 0.23986(10) 0.5625(4) 0.82389(15)
H2 H 0.2595 0.4266 0.8591
C1 C 0.12302(14) 0.6171(5) 0.92071(19)
H3 H 0.1303 0.4775 0.9723
C2 C 0.06132(14) 0.7751(5) 0.9168(2)
H4 H 0.0264 0.7417 0.9673
C3 C 0.04988(14) 0.9848(5) 0.8385(2)
H5 H 0.0074 1.0858 0.8380
C4 C 0.09993(13) 1.0447(5) 0.7624(2)
H6 H 0.0924 1.1838 0.7107
C5 C 0.16226(13) 0.8870(5) 0.76689(18)
C6 C 0.17353(13) 0.6765(5) 0.84417(18)
C7 C 0.26826(13) 0.6960(5) 0.74162(18)
C8 C 0.34047(13) 0.6448(5) 0.69974(18)
H7 H 0.3582 0.4724 0.7285
H8 H 0.3741 0.7816 0.7299
C9 C 0.34097(13) 0.6433(5) 0.57180(18)
H9 H 0.3207 0.8115 0.5425
H10 H 0.3909 0.6334 0.5521
C10 C 0.29840(13) 0.4120(5) 0.51556(18)
O3 O 0.45721(11) 0.3587(4) 0.36594(15)
H11 H 0.4133(12) 0.352(7) 0.386(3)
H12 H 0.4755(16) 0.208(4) 0.384(3)
O4 O 0.52898(12) -0.1307(4) 0.37002(17)
H13 H 0.5341(16) -0.149(6) 0.3009(16)
H14 H 0.5073(19) -0.268(5) 0.387(3)
loop_
_geom_bond_atom_site_label_1
_geom_bond_atom_site_label_2
_geom_bond_site_symmetry_1
_geom_bond_site_symmetry_2
O1 C10 1_555 1_555
O2 C10 1_555 1_555
O3 H11 1_555 1_555
O4 H13 1_555 1_555
N1 H1 1_555 1_555
N2 H2 1_555 1_555
C1 H3 1_555 1_555
C2 C1 1_555 1_555
H4 C2 1_555 1_555
C3 C2 1_555 1_555
H5 C3 1_555 1_555
C4 C3 1_555 1_555
H6 C4 1_555 1_555
C5 N1 1_555 1_555
C6 N2 1_555 1_555
C7 N1 1_555 1_555
C8 C7 1_555 1_555
H7 C8 1_555 1_555
H8 C8 1_555 1_555
C9 C8 1_555 1_555
H9 C9 1_555 1_555
H10 C9 1_555 1_555
C10 C9 1_555 1_555
H12 O3 1_555 1_555
H14 O4 1_555 1_555
N2 C7 1_555 1_555
C1 C6 1_555 1_555
C4 C5 1_555 1_555
C5 C6 1_555 1_555

#END
