
#######################################################################
#
#                 Cambridge Crystallographic Data Centre
#                                CCDC 
#
#######################################################################
#
# If this CIF has been generated from an entry in the Cambridge 
# Structural Database, then it will include bibliographic, chemical, 
# crystal, experimental, refinement or atomic coordinate data resulting 
# from the CCDC's data processing and validation procedures.
#
#######################################################################

data_IFURUZ
_chemical_formula_moiety         'C9 H8 F2 N2'
_chemical_name_systematic        4-[(2,2-difluoroethyl)amino]benzonitrile
_symmetry_cell_setting           monoclinic
_symmetry_space_group_name_H-M   'P 21/n'
_symmetry_Int_Tables_number      14
_space_group_name_Hall           '-P 2yn'
loop_
_symmetry_equiv_pos_site_id
_symmetry_equiv_pos_as_xyz
1 x,y,z
2 1/2-x,1/2+y,1/2-z
3 -x,-y,-z
4 1/2+x,1/2-y,1/2+z
_cell_length_a                   4.3659(6)
_cell_length_b                   22.675(3)
_cell_length_c                   8.7400(12)
_cell_angle_alpha                90
_cell_angle_beta                 92.880(14)
_cell_angle_gamma                90
_cell_volume                     864.139
_exptl_crystal_colour            colorless
_exptl_crystal_description       block
_cell_formula_units_Z            4
loop_
_atom_site_label
_atom_site_type_symbol
_atom_site_fract_x
_atom_site_fract_y
_atom_site_fract_z
C1 C 1.2179(7) 0.06946(12) 0.0066(3)
C2 C 1.1445(5) 0.08246(10) 0.1604(3)
C3 C 0.9558(6) 0.13014(11) 0.1906(3)
H1 H 0.8773 0.1533 0.1099
C4 C 0.8843(6) 0.14348(11) 0.3372(3)
H2 H 0.7609 0.1759 0.3554
C5 C 0.9955(5) 0.10868(9) 0.4598(2)
C6 C 1.1884(6) 0.06134(11) 0.4288(3)
H3 H 1.2687 0.0383 0.5092
C7 C 1.2608(6) 0.04843(11) 0.2816(3)
H4 H 1.3886 0.0167 0.2630
C8 C 0.7103(6) 0.16218(13) 0.6574(3)
H5 H 0.5994 0.1458 0.7408
H6 H 0.5623 0.1703 0.5736
C9 C 0.8536(6) 0.21874(13) 0.7093(4)
H7 H 0.6951 0.2467 0.7380
F1 F 1.0582(4) 0.20963(9) 0.8299(2)
F2 F 1.0241(4) 0.24250(8) 0.5995(2)
N1 N 1.2742(7) 0.06010(13) -0.1179(3)
N2 N 0.9237(5) 0.11870(9) 0.6076(2)
H8 H 1.0139 0.0971 0.6772
loop_
_geom_bond_atom_site_label_1
_geom_bond_atom_site_label_2
_geom_bond_site_symmetry_1
_geom_bond_site_symmetry_2
C1 C2 1_555 1_555
C2 C3 1_555 1_555
C3 H1 1_555 1_555
C4 C3 1_555 1_555
H2 C4 1_555 1_555
C5 C4 1_555 1_555
C6 C5 1_555 1_555
H3 C6 1_555 1_555
C7 C2 1_555 1_555
H4 C7 1_555 1_555
C8 H5 1_555 1_555
H6 C8 1_555 1_555
C9 C8 1_555 1_555
H7 C9 1_555 1_555
F1 C9 1_555 1_555
F2 C9 1_555 1_555
N1 C1 1_555 1_555
N2 C5 1_555 1_555
H8 N2 1_555 1_555
C6 C7 1_555 1_555
C8 N2 1_555 1_555

#END
