
#######################################################################
#
#                 Cambridge Crystallographic Data Centre
#                                CCDC 
#
#######################################################################
#
# If this CIF has been generated from an entry in the Cambridge 
# Structural Database, then it will include bibliographic, chemical, 
# crystal, experimental, refinement or atomic coordinate data resulting 
# from the CCDC's data processing and validation procedures.
#
#######################################################################

data_IFUSUY
_chemical_formula_moiety         'C19 H15 O3 P1'
_chemical_name_systematic        '4-(Diphenylphosphinoyl)benzoic acid'
_symmetry_cell_setting           monoclinic
_symmetry_space_group_name_H-M   'C 2/c'
_symmetry_Int_Tables_number      15
_space_group_name_Hall           '-C 2yn'
loop_
_symmetry_equiv_pos_site_id
_symmetry_equiv_pos_as_xyz
1 x,y,z
2 1/2+x,1/2+y,z
3 -x,y,1/2-z
4 1/2-x,1/2+y,1/2-z
5 -x,-y,-z
6 1/2-x,1/2-y,-z
7 x,-y,1/2+z
8 1/2+x,1/2-y,1/2+z
_cell_length_a                   18.018(3)
_cell_length_b                   10.0921(18)
_cell_length_c                   18.028(4)
_cell_angle_alpha                90
_cell_angle_beta                 91.467(4)
_cell_angle_gamma                90
_cell_volume                     3277.13
_exptl_crystal_colour            white
_exptl_crystal_description       block
_cell_formula_units_Z            8
_exptl_crystal_recrystallization_method ethanol
loop_
_atom_site_label
_atom_site_type_symbol
_atom_site_fract_x
_atom_site_fract_y
_atom_site_fract_z
C1 C 0.10622(15) -0.1711(3) 0.17928(17)
C2 C 0.07579(16) -0.2100(3) 0.11102(17)
H1 H 0.0682 -0.1471 0.0738
C3 C 0.05660(16) -0.3408(3) 0.09760(17)
H2 H 0.0367 -0.3658 0.0516
C4 C 0.06720(16) -0.4344(3) 0.15324(17)
C5 C 0.09413(17) -0.3952(3) 0.22220(17)
H3 H 0.0994 -0.4572 0.2601
C6 C 0.11340(16) -0.2644(3) 0.23532(17)
H4 H 0.1313 -0.2390 0.2820
C7 C 0.05236(17) -0.5773(3) 0.13561(19)
C8 C 0.22186(16) 0.0143(3) 0.14358(16)
C9 C 0.27202(18) -0.0893(3) 0.13654(18)
H5 H 0.2615 -0.1718 0.1566
C10 C 0.33799(19) -0.0698(4) 0.0995(2)
H6 H 0.3713 -0.1396 0.0951
C11 C 0.35436(19) 0.0512(4) 0.06954(18)
H7 H 0.3986 0.0633 0.0449
C12 C 0.30524(19) 0.1546(4) 0.07603(19)
H8 H 0.3161 0.2369 0.0558
C13 C 0.23927(18) 0.1359(3) 0.11296(18)
H9 H 0.2063 0.2062 0.1172
C14 C 0.15618(17) 0.0219(3) 0.28792(17)
C15 C 0.22564(17) 0.0031(3) 0.32047(18)
H10 H 0.2650 -0.0225 0.2914
C16 C 0.2371(2) 0.0220(3) 0.3956(2)
H11 H 0.2843 0.0106 0.4168
C17 C 0.1788(2) 0.0578(3) 0.4395(2)
H12 H 0.1864 0.0706 0.4902
C18 C 0.1090(2) 0.0743(4) 0.4076(2)
H13 H 0.0692 0.0969 0.4370
C19 C 0.09794(19) 0.0576(3) 0.3324(2)
H14 H 0.0509 0.0704 0.3113
O1 O 0.07883(11) 0.09304(18) 0.16115(11)
O2 O 0.02276(13) -0.6151(2) 0.07916(13)
O3 O 0.07785(13) -0.6563(2) 0.18890(13)
H15 H 0.0690 -0.7336 0.1777
P1 P 0.13600(5) -0.00176(8) 0.19091(5)
loop_
_geom_bond_atom_site_label_1
_geom_bond_atom_site_label_2
_geom_bond_site_symmetry_1
_geom_bond_site_symmetry_2
C1 C2 1_555 1_555
C2 H1 1_555 1_555
C3 C2 1_555 1_555
H2 C3 1_555 1_555
C4 C3 1_555 1_555
C5 C4 1_555 1_555
H3 C5 1_555 1_555
C6 C1 1_555 1_555
H4 C6 1_555 1_555
C7 C4 1_555 1_555
C8 C9 1_555 1_555
C9 H5 1_555 1_555
C10 C9 1_555 1_555
H6 C10 1_555 1_555
C11 C10 1_555 1_555
H7 C11 1_555 1_555
C12 C11 1_555 1_555
H8 C12 1_555 1_555
C13 C8 1_555 1_555
H9 C13 1_555 1_555
C14 C15 1_555 1_555
C15 H10 1_555 1_555
C16 C15 1_555 1_555
H11 C16 1_555 1_555
C17 C16 1_555 1_555
H12 C17 1_555 1_555
C18 C17 1_555 1_555
H13 C18 1_555 1_555
C19 C14 1_555 1_555
H14 C19 1_555 1_555
O1 P1 1_555 1_555
O2 C7 1_555 1_555
O3 C7 1_555 1_555
H15 O3 1_555 1_555
P1 C1 1_555 1_555
C5 C6 1_555 1_555
C8 P1 1_555 1_555
C12 C13 1_555 1_555
C14 P1 1_555 1_555
C18 C19 1_555 1_555

#END
