
#######################################################################
#
#                 Cambridge Crystallographic Data Centre
#                                CCDC 
#
#######################################################################
#
# If this CIF has been generated from an entry in the Cambridge 
# Structural Database, then it will include bibliographic, chemical, 
# crystal, experimental, refinement or atomic coordinate data resulting 
# from the CCDC's data processing and validation procedures.
#
#######################################################################

data_IFUTUB01
_chemical_formula_moiety         'C44 H50 N2 O6'
_chemical_name_systematic        
2,7-bis[4-(nonyloxy)phenyl]benzo[lmn][3,8]phenanthroline-1,3,6,8(2H,7H)-tetrone
_symmetry_cell_setting           monoclinic
_symmetry_space_group_name_H-M   'P 21/n'
_symmetry_Int_Tables_number      14
_space_group_name_Hall           '-P 2yn'
loop_
_symmetry_equiv_pos_site_id
_symmetry_equiv_pos_as_xyz
1 x,y,z
2 1/2-x,1/2+y,1/2-z
3 -x,-y,-z
4 1/2+x,1/2-y,1/2+z
_cell_length_a                   4.362(3)
_cell_length_b                   51.35(4)
_cell_length_c                   8.268(5)
_cell_angle_alpha                90
_cell_angle_beta                 93.56(2)
_cell_angle_gamma                90
_cell_volume                     1848.36
_exptl_crystal_colour            orange
_cell_formula_units_Z            2
loop_
_atom_site_label
_atom_site_type_symbol
_atom_site_fract_x
_atom_site_fract_y
_atom_site_fract_z
C1 C 0.0099(6) 0.44230(5) 0.1258(3)
C2 C 0.3549(6) 0.47183(5) 0.2901(3)
C3 C 0.2581(6) 0.49372(4) 0.1837(3)
C4 C 0.0448(6) 0.48945(4) 0.0508(3)
C5 C 0.3708(6) 0.51827(5) 0.2145(3)
H1 H 0.5093 0.5210 0.3029
C6 C 0.2797(6) 0.53926(5) 0.1143(3)
H2 H 0.3570 0.5558 0.1371
C7 C 0.0760(6) 0.53547(4) -0.0178(3)
C8 C 0.2569(6) 0.42778(5) 0.3863(3)
C9 C 0.1336(6) 0.43121(5) 0.5341(3)
H3 H 0.0116 0.4457 0.5517
C10 C 0.1916(6) 0.41303(5) 0.6570(3)
H4 H 0.1096 0.4154 0.7572
C11 C 0.3707(6) 0.39164(5) 0.6297(3)
C12 C 0.4859(7) 0.38802(5) 0.4790(3)
H5 H 0.6006 0.3732 0.4592
C13 C 0.4317(6) 0.40620(5) 0.3582(3)
H6 H 0.5132 0.4039 0.2579
C14 C 0.3158(7) 0.37429(5) 0.8963(3)
H7 H 0.0934 0.3742 0.8817
H8 H 0.3793 0.3902 0.9518
C15 C 0.4264(7) 0.35089(5) 0.9938(3)
H9 H 0.6474 0.3521 1.0137
H10 H 0.3358 0.3513 1.0980
C16 C 0.3498(7) 0.32513(5) 0.9132(3)
H11 H 0.4470 0.3245 0.8109
H12 H 0.1295 0.3244 0.8890
C17 C 0.4465(7) 0.30118(5) 1.0107(3)
H13 H 0.6659 0.3021 1.0375
H14 H 0.3442 0.3014 1.1115
C18 C 0.3753(7) 0.27579(5) 0.9251(3)
H15 H 0.4760 0.2758 0.8238
H16 H 0.1557 0.2750 0.8987
C19 C 0.4696(7) 0.25151(5) 1.0177(3)
H17 H 0.6890 0.2523 1.0449
H18 H 0.3672 0.2514 1.1185
C20 C 0.3991(8) 0.22636(5) 0.9295(3)
H19 H 0.1795 0.2255 0.9030
H20 H 0.5002 0.2266 0.8283
C21 C 0.4953(8) 0.20215(5) 1.0214(4)
H21 H 0.7145 0.2031 1.0486
H22 H 0.3934 0.2020 1.1224
C22 C 0.4287(9) 0.17679(6) 0.9357(5)
H23 H 0.2116 0.1752 0.9107
H24 H 0.4980 0.1626 1.0044
H25 H 0.5341 0.1763 0.8372
N1 N 0.2031(5) 0.44791(4) 0.2635(2)
O1 O -0.0808(4) 0.42031(3) 0.0981(2)
O2 O 0.5587(5) 0.47379(3) 0.3967(2)
O3 O 0.4489(4) 0.37280(3) 0.7422(2)
C1B C -0.0099(6) 0.55770(5) -0.1258(3)
C2B C -0.3549(6) 0.52817(5) -0.2901(3)
C3B C -0.2581(6) 0.50628(4) -0.1837(3)
C4B C -0.0448(6) 0.51055(4) -0.0508(3)
C5B C -0.3708(6) 0.48173(5) -0.2145(3)
H1B H -0.5093 0.4790 -0.3029
C6B C -0.2797(6) 0.46074(5) -0.1143(3)
H2B H -0.3570 0.4442 -0.1371
C7B C -0.0760(6) 0.46453(4) 0.0178(3)
C8B C -0.2569(6) 0.57222(5) -0.3863(3)
C9B C -0.1336(6) 0.56879(5) -0.5341(3)
H3B H -0.0116 0.5543 -0.5517
C10B C -0.1916(6) 0.58697(5) -0.6570(3)
H4B H -0.1096 0.5846 -0.7572
C11B C -0.3707(6) 0.60836(5) -0.6297(3)
C12B C -0.4859(7) 0.61198(5) -0.4790(3)
H5B H -0.6006 0.6268 -0.4592
C13B C -0.4317(6) 0.59380(5) -0.3582(3)
H6B H -0.5132 0.5961 -0.2579
C14B C -0.3158(7) 0.62571(5) -0.8963(3)
H7B H -0.0934 0.6258 -0.8817
H8B H -0.3793 0.6098 -0.9518
C15B C -0.4264(7) 0.64911(5) -0.9938(3)
H9B H -0.6474 0.6479 -1.0137
H10B H -0.3358 0.6487 -1.0980
C16B C -0.3498(7) 0.67487(5) -0.9132(3)
H11B H -0.4470 0.6755 -0.8109
H12B H -0.1295 0.6756 -0.8890
C17B C -0.4465(7) 0.69882(5) -1.0107(3)
H13B H -0.6659 0.6979 -1.0375
H14B H -0.3442 0.6986 -1.1115
C18B C -0.3753(7) 0.72421(5) -0.9251(3)
H15B H -0.4760 0.7242 -0.8238
H16B H -0.1557 0.7250 -0.8987
C19B C -0.4696(7) 0.74849(5) -1.0177(3)
H17B H -0.6890 0.7477 -1.0449
H18B H -0.3672 0.7486 -1.1185
C20B C -0.3991(8) 0.77364(5) -0.9295(3)
H19B H -0.1795 0.7745 -0.9030
H20B H -0.5002 0.7734 -0.8283
C21B C -0.4953(8) 0.79785(5) -1.0214(4)
H21B H -0.7145 0.7969 -1.0486
H22B H -0.3934 0.7980 -1.1224
C22B C -0.4287(9) 0.82321(6) -0.9357(5)
H23B H -0.2116 0.8248 -0.9107
H24B H -0.4980 0.8374 -1.0044
H25B H -0.5341 0.8237 -0.8372
N1B N -0.2031(5) 0.55209(4) -0.2635(2)
O1B O 0.0808(4) 0.57969(3) -0.0981(2)
O2B O -0.5587(5) 0.52621(3) -0.3967(2)
O3B O -0.4489(4) 0.62720(3) -0.7422(2)
loop_
_geom_bond_atom_site_label_1
_geom_bond_atom_site_label_2
_geom_bond_site_symmetry_1
_geom_bond_site_symmetry_2
C1 N1 1_555 1_555
C2 C3 1_555 1_555
C3 C4 1_555 1_555
C4 C4B 1_555 1_555
C5 C3 1_555 1_555
H1 C5 1_555 1_555
C6 C5 1_555 1_555
H2 C6 1_555 1_555
C7 C6 1_555 1_555
C8 C9 1_555 1_555
C9 H3 1_555 1_555
C10 C9 1_555 1_555
H4 C10 1_555 1_555
C11 C10 1_555 1_555
C12 C11 1_555 1_555
H5 C12 1_555 1_555
C13 C8 1_555 1_555
H6 C13 1_555 1_555
C14 H7 1_555 1_555
H8 C14 1_555 1_555
C15 C14 1_555 1_555
H9 C15 1_555 1_555
H10 C15 1_555 1_555
C16 C15 1_555 1_555
H11 C16 1_555 1_555
H12 C16 1_555 1_555
C17 C16 1_555 1_555
H13 C17 1_555 1_555
H14 C17 1_555 1_555
C18 C17 1_555 1_555
H15 C18 1_555 1_555
H16 C18 1_555 1_555
C19 C18 1_555 1_555
H17 C19 1_555 1_555
H18 C19 1_555 1_555
C20 C19 1_555 1_555
H19 C20 1_555 1_555
H20 C20 1_555 1_555
C21 C20 1_555 1_555
H21 C21 1_555 1_555
H22 C21 1_555 1_555
C22 C21 1_555 1_555
H23 C22 1_555 1_555
H24 C22 1_555 1_555
H25 C22 1_555 1_555
N1 C2 1_555 1_555
O1 C1 1_555 1_555
O2 C2 1_555 1_555
O3 C11 1_555 1_555
C1B C7 1_555 1_555
C2B C3B 1_555 1_555
C3B C4B 1_555 1_555
C4B C7 1_555 1_555
C5B C3B 1_555 1_555
H1B C5B 1_555 1_555
C6B C5B 1_555 1_555
H2B C6B 1_555 1_555
C7B C1 1_555 1_555
C8B C9B 1_555 1_555
C9B H3B 1_555 1_555
C10B C9B 1_555 1_555
H4B C10B 1_555 1_555
C11B C10B 1_555 1_555
C12B C11B 1_555 1_555
H5B C12B 1_555 1_555
C13B C8B 1_555 1_555
H6B C13B 1_555 1_555
C14B H7B 1_555 1_555
H8B C14B 1_555 1_555
C15B C14B 1_555 1_555
H9B C15B 1_555 1_555
H10B C15B 1_555 1_555
C16B C15B 1_555 1_555
H11B C16B 1_555 1_555
H12B C16B 1_555 1_555
C17B C16B 1_555 1_555
H13B C17B 1_555 1_555
H14B C17B 1_555 1_555
C18B C17B 1_555 1_555
H15B C18B 1_555 1_555
H16B C18B 1_555 1_555
C19B C18B 1_555 1_555
H17B C19B 1_555 1_555
H18B C19B 1_555 1_555
C20B C19B 1_555 1_555
H19B C20B 1_555 1_555
H20B C20B 1_555 1_555
C21B C20B 1_555 1_555
H21B C21B 1_555 1_555
H22B C21B 1_555 1_555
C22B C21B 1_555 1_555
H23B C22B 1_555 1_555
H24B C22B 1_555 1_555
H25B C22B 1_555 1_555
N1B C1B 1_555 1_555
O1B C1B 1_555 1_555
O2B C2B 1_555 1_555
O3B C11B 1_555 1_555
C4 C7B 1_555 1_555
C8 N1 1_555 1_555
C12 C13 1_555 1_555
C14 O3 1_555 1_555
C2B N1B 1_555 1_555
C6B C7B 1_555 1_555
C8B N1B 1_555 1_555
C12B C13B 1_555 1_555
C14B O3B 1_555 1_555

#END
