
#######################################################################
#
#                 Cambridge Crystallographic Data Centre
#                                CCDC 
#
#######################################################################
#
# If this CIF has been generated from an entry in the Cambridge 
# Structural Database, then it will include bibliographic, chemical, 
# crystal, experimental, refinement or atomic coordinate data resulting 
# from the CCDC's data processing and validation procedures.
#
#######################################################################

data_IFUTAH01
_chemical_formula_moiety         'C40 H42 N2 O6'
_chemical_name_systematic        
2,7-bis[4-(heptyloxy)phenyl]benzo[lmn][3,8]phenanthroline-1,3,6,8(2H,7H)-tetrone
_symmetry_cell_setting           monoclinic
_symmetry_space_group_name_H-M   'P 21/n'
_symmetry_Int_Tables_number      14
_space_group_name_Hall           '-P 2yn'
loop_
_symmetry_equiv_pos_site_id
_symmetry_equiv_pos_as_xyz
1 x,y,z
2 1/2-x,1/2+y,1/2-z
3 -x,-y,-z
4 1/2+x,1/2-y,1/2+z
_cell_length_a                   4.3773(18)
_cell_length_b                   46.183(15)
_cell_length_c                   8.215(3)
_cell_angle_alpha                90
_cell_angle_beta                 93.759(6)
_cell_angle_gamma                90
_cell_volume                     1657.15
_exptl_crystal_colour            orange
_cell_formula_units_Z            2
loop_
_atom_site_label
_atom_site_type_symbol
_atom_site_fract_x
_atom_site_fract_y
_atom_site_fract_z
C1 C 0.0077(4) 0.56404(4) 0.1277(2)
C2 C 0.3577(4) 0.53153(4) 0.2913(2)
C3 C 0.2596(4) 0.50698(3) 0.18414(19)
C4 C 0.0448(4) 0.51177(3) 0.05140(18)
C5 C 0.3766(4) 0.47984(4) 0.2143(2)
H1 H 0.5174 0.4768 0.3025
C6 C 0.2850(4) 0.45656(4) 0.1130(2)
H2 H 0.3645 0.4382 0.1349
C7 C 0.0791(4) 0.46064(3) -0.01837(19)
C8 C 0.2550(4) 0.58018(4) 0.3891(2)
C9 C 0.1307(4) 0.57635(4) 0.5369(2)
H3 H 0.0090 0.5603 0.5539
C10 C 0.1867(4) 0.59644(4) 0.6608(2)
H4 H 0.1032 0.5938 0.7610
C11 C 0.3667(4) 0.62030(3) 0.6346(2)
C12 C 0.4853(5) 0.62416(4) 0.4837(2)
H5 H 0.6032 0.6404 0.4650
C13 C 0.4302(5) 0.60414(4) 0.3614(2)
H6 H 0.5110 0.6068 0.2605
C14 C 0.3106(5) 0.63919(4) 0.9021(2)
H7 H 0.3701 0.6212 0.9564
H8 H 0.0891 0.6397 0.8866
C15 C 0.4248(5) 0.66474(4) 1.0037(2)
H9 H 0.3354 0.6639 1.1086
H10 H 0.6451 0.6632 1.0234
C16 C 0.3501(5) 0.69369(4) 0.9257(2)
H11 H 0.1304 0.6949 0.9019
H12 H 0.4461 0.6947 0.8227
C17 C 0.4517(5) 0.71968(4) 1.0285(2)
H13 H 0.3496 0.7191 1.1297
H14 H 0.6701 0.7182 1.0557
C18 C 0.3867(6) 0.74857(4) 0.9470(3)
H15 H 0.4877 0.7491 0.8455
H16 H 0.1681 0.7501 0.9202
C19 C 0.4876(6) 0.77446(4) 1.0471(3)
H17 H 0.7061 0.7730 1.0739
H18 H 0.3866 0.7740 1.1487
C20 C 0.4225(7) 0.80313(5) 0.9661(4)
H19 H 0.5232 0.8040 0.8658
H20 H 0.4970 0.8184 1.0371
H21 H 0.2057 0.8053 0.9435
N1 N 0.2023(3) 0.55785(3) 0.26511(16)
O1 O -0.0870(3) 0.58834(3) 0.10073(15)
O2 O 0.5610(3) 0.52929(3) 0.39722(15)
O3 O 0.4437(3) 0.64103(3) 0.74832(15)
C1B C -0.0077(4) 0.43596(4) -0.1277(2)
C2B C -0.3577(4) 0.46847(4) -0.2913(2)
C3B C -0.2596(4) 0.49302(3) -0.18414(19)
C4B C -0.0448(4) 0.48823(3) -0.05140(18)
C5B C -0.3766(4) 0.52016(4) -0.2143(2)
H1B H -0.5174 0.5232 -0.3025
C6B C -0.2850(4) 0.54344(4) -0.1130(2)
H2B H -0.3645 0.5618 -0.1349
C7B C -0.0791(4) 0.53936(3) 0.01837(19)
C8B C -0.2550(4) 0.41982(4) -0.3891(2)
C9B C -0.1307(4) 0.42365(4) -0.5369(2)
H3B H -0.0090 0.4397 -0.5539
C10B C -0.1867(4) 0.40356(4) -0.6608(2)
H4B H -0.1032 0.4062 -0.7610
C11B C -0.3667(4) 0.37970(3) -0.6346(2)
C12B C -0.4853(5) 0.37584(4) -0.4837(2)
H5B H -0.6032 0.3596 -0.4650
C13B C -0.4302(5) 0.39586(4) -0.3614(2)
H6B H -0.5110 0.3932 -0.2605
C14B C -0.3106(5) 0.36081(4) -0.9021(2)
H7B H -0.3701 0.3788 -0.9564
H8B H -0.0891 0.3603 -0.8866
C15B C -0.4248(5) 0.33526(4) -1.0037(2)
H9B H -0.3354 0.3361 -1.1086
H10B H -0.6451 0.3368 -1.0234
C16B C -0.3501(5) 0.30631(4) -0.9257(2)
H11B H -0.1304 0.3051 -0.9019
H12B H -0.4461 0.3053 -0.8227
C17B C -0.4517(5) 0.28032(4) -1.0285(2)
H13B H -0.3496 0.2809 -1.1297
H14B H -0.6701 0.2818 -1.0557
C18B C -0.3867(6) 0.25143(4) -0.9470(3)
H15B H -0.4877 0.2509 -0.8455
H16B H -0.1681 0.2499 -0.9202
C19B C -0.4876(6) 0.22554(4) -1.0471(3)
H17B H -0.7061 0.2270 -1.0739
H18B H -0.3866 0.2260 -1.1487
C20B C -0.4225(7) 0.19687(5) -0.9661(4)
H19B H -0.5232 0.1960 -0.8658
H20B H -0.4970 0.1816 -1.0371
H21B H -0.2057 0.1947 -0.9435
N1B N -0.2023(3) 0.44215(3) -0.26511(16)
O1B O 0.0870(3) 0.41166(3) -0.10073(15)
O2B O -0.5610(3) 0.47071(3) -0.39722(15)
O3B O -0.4437(3) 0.35897(3) -0.74832(15)
loop_
_geom_bond_atom_site_label_1
_geom_bond_atom_site_label_2
_geom_bond_site_symmetry_1
_geom_bond_site_symmetry_2
C1 N1 1_555 1_555
C2 C3 1_555 1_555
C3 C4 1_555 1_555
C4 C4B 1_555 1_555
C5 C3 1_555 1_555
H1 C5 1_555 1_555
C6 C5 1_555 1_555
H2 C6 1_555 1_555
C7 C6 1_555 1_555
C8 C9 1_555 1_555
C9 H3 1_555 1_555
C10 C9 1_555 1_555
H4 C10 1_555 1_555
C11 C10 1_555 1_555
C12 C11 1_555 1_555
H5 C12 1_555 1_555
C13 C8 1_555 1_555
H6 C13 1_555 1_555
C14 H7 1_555 1_555
H8 C14 1_555 1_555
C15 C14 1_555 1_555
H9 C15 1_555 1_555
H10 C15 1_555 1_555
C16 C15 1_555 1_555
H11 C16 1_555 1_555
H12 C16 1_555 1_555
C17 C16 1_555 1_555
H13 C17 1_555 1_555
H14 C17 1_555 1_555
C18 C17 1_555 1_555
H15 C18 1_555 1_555
H16 C18 1_555 1_555
C19 C18 1_555 1_555
H17 C19 1_555 1_555
H18 C19 1_555 1_555
C20 C19 1_555 1_555
H19 C20 1_555 1_555
H20 C20 1_555 1_555
H21 C20 1_555 1_555
N1 C2 1_555 1_555
O1 C1 1_555 1_555
O2 C2 1_555 1_555
O3 C11 1_555 1_555
C1B C7 1_555 1_555
C2B C3B 1_555 1_555
C3B C4B 1_555 1_555
C4B C7 1_555 1_555
C5B C3B 1_555 1_555
H1B C5B 1_555 1_555
C6B C5B 1_555 1_555
H2B C6B 1_555 1_555
C7B C1 1_555 1_555
C8B C9B 1_555 1_555
C9B H3B 1_555 1_555
C10B C9B 1_555 1_555
H4B C10B 1_555 1_555
C11B C10B 1_555 1_555
C12B C11B 1_555 1_555
H5B C12B 1_555 1_555
C13B C8B 1_555 1_555
H6B C13B 1_555 1_555
C14B H7B 1_555 1_555
H8B C14B 1_555 1_555
C15B C14B 1_555 1_555
H9B C15B 1_555 1_555
H10B C15B 1_555 1_555
C16B C15B 1_555 1_555
H11B C16B 1_555 1_555
H12B C16B 1_555 1_555
C17B C16B 1_555 1_555
H13B C17B 1_555 1_555
H14B C17B 1_555 1_555
C18B C17B 1_555 1_555
H15B C18B 1_555 1_555
H16B C18B 1_555 1_555
C19B C18B 1_555 1_555
H17B C19B 1_555 1_555
H18B C19B 1_555 1_555
C20B C19B 1_555 1_555
H19B C20B 1_555 1_555
H20B C20B 1_555 1_555
H21B C20B 1_555 1_555
N1B C1B 1_555 1_555
O1B C1B 1_555 1_555
O2B C2B 1_555 1_555
O3B C11B 1_555 1_555
C4 C7B 1_555 1_555
C8 N1 1_555 1_555
C12 C13 1_555 1_555
C14 O3 1_555 1_555
C2B N1B 1_555 1_555
C6B C7B 1_555 1_555
C8B N1B 1_555 1_555
C12B C13B 1_555 1_555
C14B O3B 1_555 1_555

#END
