
#######################################################################
#
#                 Cambridge Crystallographic Data Centre
#                                CCDC 
#
#######################################################################
#
# If this CIF has been generated from an entry in the Cambridge 
# Structural Database, then it will include bibliographic, chemical, 
# crystal, experimental, refinement or atomic coordinate data resulting 
# from the CCDC's data processing and validation procedures.
#
#######################################################################

data_IFUTAF
_chemical_formula_moiety         'C22 H20 N2 O1'
_chemical_name_systematic        
4-(Ethyl((E)-4-(4-pyridylvinyl)phenyl)amino)benzaldehyde
_symmetry_cell_setting           triclinic
_symmetry_space_group_name_H-M   'P -1'
_symmetry_Int_Tables_number      2
_space_group_name_Hall           '-P 1'
loop_
_symmetry_equiv_pos_site_id
_symmetry_equiv_pos_as_xyz
1 x,y,z
2 -x,-y,-z
_cell_length_a                   8.8338(14)
_cell_length_b                   9.5747(18)
_cell_length_c                   10.472(2)
_cell_angle_alpha                86.621(2)
_cell_angle_beta                 84.2760(10)
_cell_angle_gamma                83.8860(10)
_cell_volume                     875.257
_exptl_crystal_colour            yellow
_exptl_crystal_description       block
_cell_formula_units_Z            2
loop_
_atom_site_label
_atom_site_type_symbol
_atom_site_fract_x
_atom_site_fract_y
_atom_site_fract_z
N1 N 0.6686(3) 0.5962(2) 0.8163(2)
N2 N 0.8199(3) -0.3738(3) 0.3196(3)
O1 O -0.0027(3) 0.9357(3) 0.8369(3)
C1 C 0.1224(4) 0.9637(3) 0.8579(3)
H1 H 0.1299 1.0540 0.8831
C2 C 0.2628(3) 0.8680(3) 0.8471(3)
C3 C 0.4016(4) 0.9124(3) 0.8714(3)
H2 H 0.4035 1.0041 0.8956
C4 C 0.5361(4) 0.8255(3) 0.8609(3)
H3 H 0.6269 0.8589 0.8774
C5 C 0.5362(3) 0.6866(3) 0.8254(3)
C6 C 0.3954(3) 0.6420(3) 0.8015(3)
H4 H 0.3921 0.5501 0.7787
C7 C 0.2630(3) 0.7309(3) 0.8109(2)
H5 H 0.1720 0.6989 0.7928
C8 C 0.6755(3) 0.4681(3) 0.7520(3)
C9 C 0.6535(3) 0.4731(3) 0.6235(3)
H6 H 0.6291 0.5594 0.5810
C10 C 0.6671(3) 0.3521(3) 0.5574(3)
H7 H 0.6499 0.3577 0.4710
C11 C 0.7055(3) 0.2228(3) 0.6162(3)
C12 C 0.7281(4) 0.2186(3) 0.7447(3)
H8 H 0.7544 0.1324 0.7867
C13 C 0.7127(4) 0.3398(3) 0.8128(3)
H9 H 0.7275 0.3343 0.8997
C14 C 0.7174(3) 0.0976(3) 0.5376(3)
H10 H 0.6689 0.1084 0.4622
C15 C 0.7878(3) -0.0247(3) 0.5623(3)
H11 H 0.8373 -0.0381 0.6371
C16 C 0.7031(4) -0.2750(3) 0.3192(3)
H12 H 0.6279 -0.2837 0.2649
C17 C 0.6865(3) -0.1606(3) 0.3941(3)
H13 H 0.6028 -0.0936 0.3882
C18 C 0.7943(3) -0.1442(3) 0.4789(3)
C19 C 0.9135(3) -0.2486(3) 0.4816(3)
H14 H 0.9882 -0.2458 0.5378
C20 C 0.9211(4) -0.3565(3) 0.4006(3)
H15 H 1.0050 -0.4238 0.4027
C21 C 0.8183(4) 0.6392(3) 0.8480(3)
H16 H 0.9010 0.5750 0.8106
H17 H 0.8313 0.7327 0.8102
C22 C 0.8276(5) 0.6394(4) 0.9886(4)
H18 H 0.7473 0.7045 1.0257
H19 H 0.9249 0.6671 1.0049
H20 H 0.8165 0.5467 1.0262
loop_
_geom_bond_atom_site_label_1
_geom_bond_atom_site_label_2
_geom_bond_site_symmetry_1
_geom_bond_site_symmetry_2
N1 C5 1_555 1_555
N2 C16 1_555 1_555
O1 C1 1_555 1_555
C1 H1 1_555 1_555
C2 C1 1_555 1_555
C3 C2 1_555 1_555
H2 C3 1_555 1_555
C4 C3 1_555 1_555
H3 C4 1_555 1_555
C5 C4 1_555 1_555
C6 C5 1_555 1_555
H4 C6 1_555 1_555
C7 C2 1_555 1_555
H5 C7 1_555 1_555
C8 N1 1_555 1_555
C9 C8 1_555 1_555
H6 C9 1_555 1_555
C10 C9 1_555 1_555
H7 C10 1_555 1_555
C11 C10 1_555 1_555
C12 C11 1_555 1_555
H8 C12 1_555 1_555
C13 C8 1_555 1_555
H9 C13 1_555 1_555
C14 C11 1_555 1_555
H10 C14 1_555 1_555
C15 C14 1_555 1_555
H11 C15 1_555 1_555
C16 H12 1_555 1_555
C17 C16 1_555 1_555
H13 C17 1_555 1_555
C18 C15 1_555 1_555
C19 C18 1_555 1_555
H14 C19 1_555 1_555
C20 N2 1_555 1_555
H15 C20 1_555 1_555
C21 N1 1_555 1_555
H16 C21 1_555 1_555
H17 C21 1_555 1_555
C22 C21 1_555 1_555
H18 C22 1_555 1_555
H19 C22 1_555 1_555
H20 C22 1_555 1_555
C6 C7 1_555 1_555
C12 C13 1_555 1_555
C17 C18 1_555 1_555
C19 C20 1_555 1_555

#END
