
#######################################################################
#
#                 Cambridge Crystallographic Data Centre
#                                CCDC 
#
#######################################################################
#
# If this CIF has been generated from an entry in the Cambridge 
# Structural Database, then it will include bibliographic, chemical, 
# crystal, experimental, refinement or atomic coordinate data resulting 
# from the CCDC's data processing and validation procedures.
#
#######################################################################

data_IFUVIP
_chemical_formula_moiety         'C15 H16 N2 O4'
_chemical_name_systematic        4-(3-(4-Nitrophenoxy)propoxy)aniline
_symmetry_cell_setting           orthorhombic
_symmetry_space_group_name_H-M   'P c c n'
_symmetry_Int_Tables_number      56
_space_group_name_Hall           '-P 2ab 2ac'
loop_
_symmetry_equiv_pos_site_id
_symmetry_equiv_pos_as_xyz
1 x,y,z
2 1/2-x,1/2-y,z
3 1/2+x,-y,1/2-z
4 -x,1/2+y,1/2-z
5 -x,-y,-z
6 1/2+x,1/2+y,-z
7 1/2-x,y,1/2+z
8 x,1/2-y,1/2+z
_cell_length_a                   10.808(8)
_cell_length_b                   34.79(3)
_cell_length_c                   7.596(6)
_cell_angle_alpha                90
_cell_angle_beta                 90
_cell_angle_gamma                90
_cell_volume                     2856.17
_exptl_crystal_colour            brown
_exptl_crystal_description       prism
_cell_formula_units_Z            8
loop_
_atom_site_label
_atom_site_type_symbol
_atom_site_fract_x
_atom_site_fract_y
_atom_site_fract_z
C1 C 0.3694(2) 0.52612(6) 0.2758(3)
C2 C 0.4692(2) 0.54418(6) 0.1976(3)
H1 H 0.5427 0.5308 0.1793
C3 C 0.2592(2) 0.54512(6) 0.3021(3)
H2 H 0.1926 0.5326 0.3541
C4 C 0.4590(2) 0.58237(6) 0.1467(3)
H3 H 0.5259 0.5949 0.0950
C5 C 0.2486(2) 0.58278(6) 0.2507(3)
H4 H 0.1743 0.5957 0.2676
C6 C 0.3483(2) 0.60180(6) 0.1735(3)
C7 C 0.4269(2) 0.66196(6) 0.0598(3)
H5 H 0.4487 0.6531 -0.0571
H6 H 0.4994 0.6600 0.1346
C8 C 0.3816(2) 0.70308(6) 0.0527(3)
H7 H 0.3102 0.7046 -0.0244
H8 H 0.3558 0.7110 0.1695
C9 C 0.4804(2) 0.73000(5) -0.0131(3)
H9 H 0.5580 0.7249 0.0468
H10 H 0.4929 0.7264 -0.1384
C10 C 0.5238(2) 0.79809(6) -0.0124(3)
C11 C 0.6378(2) 0.79332(6) -0.0955(3)
H11 H 0.6630 0.7690 -0.1311
C12 C 0.4878(2) 0.83474(6) 0.0389(3)
H12 H 0.4117 0.8383 0.0935
C13 C 0.7136(2) 0.82491(6) -0.1252(3)
H13 H 0.7894 0.8214 -0.1808
C14 C 0.5645(2) 0.86604(6) 0.0094(3)
H14 H 0.5393 0.8903 0.0455
C15 C 0.6788(2) 0.86171(6) -0.0736(3)
N1 N 0.3792(2) 0.48636(6) 0.3322(3)
N2 N 0.75855(17) 0.89324(5) -0.0993(3)
H15 H 0.8298 0.8898 -0.1474
H16 H 0.7361 0.9159 -0.0669
O1 O 0.29183(19) 0.47143(5) 0.4107(3)
O2 O 0.4737(2) 0.46834(5) 0.3007(4)
O3 O 0.32733(13) 0.63919(4) 0.1305(2)
O4 O 0.44110(13) 0.76862(4) 0.0214(2)
loop_
_geom_bond_atom_site_label_1
_geom_bond_atom_site_label_2
_geom_bond_site_symmetry_1
_geom_bond_site_symmetry_2
C1 C2 1_555 1_555
C2 H1 1_555 1_555
C3 C1 1_555 1_555
H2 C3 1_555 1_555
C4 C2 1_555 1_555
H3 C4 1_555 1_555
C5 C3 1_555 1_555
H4 C5 1_555 1_555
C6 C4 1_555 1_555
C7 H5 1_555 1_555
H6 C7 1_555 1_555
C8 C7 1_555 1_555
H7 C8 1_555 1_555
H8 C8 1_555 1_555
C9 C8 1_555 1_555
H9 C9 1_555 1_555
H10 C9 1_555 1_555
C10 C11 1_555 1_555
C11 H11 1_555 1_555
C12 C10 1_555 1_555
H12 C12 1_555 1_555
C13 C11 1_555 1_555
H13 C13 1_555 1_555
C14 C12 1_555 1_555
H14 C14 1_555 1_555
C15 C13 1_555 1_555
N1 C1 1_555 1_555
N2 C15 1_555 1_555
H15 N2 1_555 1_555
H16 N2 1_555 1_555
O1 N1 1_555 1_555
O2 N1 1_555 1_555
O3 C6 1_555 1_555
O4 C9 1_555 1_555
C5 C6 1_555 1_555
C7 O3 1_555 1_555
C10 O4 1_555 1_555
C14 C15 1_555 1_555

#END
