
#######################################################################
#
#                 Cambridge Crystallographic Data Centre
#                                CCDC 
#
#######################################################################
#
# If this CIF has been generated from an entry in the Cambridge 
# Structural Database, then it will include bibliographic, chemical, 
# crystal, experimental, refinement or atomic coordinate data resulting 
# from the CCDC's data processing and validation procedures.
#
#######################################################################

data_IFUVEN
_chemical_formula_moiety         'C22 H25 N1 O1'
_chemical_name_systematic        
(2-methyl-1,3-diphenylcyclopropyl)(piperidin-1-yl)methanone
_symmetry_cell_setting           monoclinic
_symmetry_space_group_name_H-M   'P 21/n'
_symmetry_Int_Tables_number      14
_space_group_name_Hall           '-P 2yn'
loop_
_symmetry_equiv_pos_site_id
_symmetry_equiv_pos_as_xyz
1 x,y,z
2 1/2-x,1/2+y,1/2-z
3 -x,-y,-z
4 1/2+x,1/2-y,1/2+z
_cell_length_a                   6.6234(2)
_cell_length_b                   18.9368(9)
_cell_length_c                   14.2130(6)
_cell_angle_alpha                90
_cell_angle_beta                 94.217(4)
_cell_angle_gamma                90
_cell_volume                     1777.85
_exptl_crystal_colour            'light colorless'
_exptl_crystal_description       prism
_cell_formula_units_Z            4
_exptl_crystal_recrystallization_method 
'Compound was recrystallized from EtOAc-Hex mixture'
loop_
_atom_site_label
_atom_site_type_symbol
_atom_site_fract_x
_atom_site_fract_y
_atom_site_fract_z
O1 O 1.02234(19) 0.34489(9) 0.37841(12)
N1 N 0.8311(2) 0.28156(8) 0.27068(11)
C1 C 0.6490(3) 0.39849(12) 0.46065(14)
H1 H 0.582584 0.391020 0.520808
C2 C 1.0088(3) 0.25436(12) 0.22772(14)
H2 H 1.132920 0.273493 0.261549
H3 H 1.005985 0.270086 0.161205
C3 C 0.6402(3) 0.25513(13) 0.22697(15)
H4 H 0.622515 0.271638 0.160788
H5 H 0.526619 0.273831 0.261077
C4 C 1.0134(4) 0.17502(14) 0.2316(2)
H6 H 1.029553 0.159416 0.298170
H7 H 1.130881 0.157446 0.199234
C5 C 0.8202(5) 0.14417(13) 0.18472(19)
H8 H 0.821751 0.092175 0.191930
H9 H 0.811392 0.155246 0.116463
C6 C 0.6372(4) 0.17463(14) 0.22929(18)
H10 H 0.637205 0.158334 0.295473
H11 H 0.511709 0.157275 0.194710
C7 C 0.4993(16) 0.42693(17) 0.2910(3)
C8 C 0.3139(12) 0.4587(3) 0.2659(4)
H12 H 0.201025 0.449650 0.301723
C9 C 0.2935(7) 0.5036(4) 0.1884(5)
H13 H 0.166785 0.525242 0.171288
C10 C 0.4586(10) 0.5167(4) 0.1360(5)
H14 H 0.444701 0.547425 0.083090
C11 C 0.6440(7) 0.4850(4) 0.1611(6)
H15 H 0.756859 0.494016 0.125327
C12 C 0.6644(10) 0.4401(2) 0.2386(6)
H16 H 0.791102 0.418423 0.255762
C13 C 0.6692(4) 0.32628(16) 0.4085(2)
C14 C 0.5050(4) 0.37966(19) 0.3783(2)
H17 H 0.367621 0.365833 0.396662
C15 C 0.7955(5) 0.45266(18) 0.4728(3)
H18 H 0.908149 0.436466 0.515963
H19 H 0.733886 0.494605 0.499112
H20 H 0.846012 0.464446 0.411588
C16 C 0.559(2) 0.2657(4) 0.4560(4)
C17 C 0.3774(15) 0.2292(4) 0.4597(7)
H21 H 0.253373 0.251091 0.438295
C18 C 0.3776(9) 0.1606(4) 0.4946(7)
H22 H 0.253669 0.135692 0.497176
C19 C 0.5591(14) 0.1286(4) 0.5259(7)
H23 H 0.559189 0.081748 0.549817
C20 C 0.7404(9) 0.1651(7) 0.5222(7)
H24 H 0.864415 0.143202 0.543578
C21 C 0.7402(14) 0.2337(7) 0.4872(6)
H25 H 0.864123 0.258601 0.484697
C22 C 0.8556(9) 0.3332(18) 0.3348(19)
H26? H 0.562759 0.441779 0.461709
C23? C 0.624(2) 0.2565(4) 0.4540(5)
C24? C 0.4253(16) 0.2322(5) 0.4458(7)
H27? H 0.320709 0.261256 0.417531
C25? C 0.3797(11) 0.1655(6) 0.4790(9)
H28? H 0.243959 0.148891 0.473382
C26? C 0.5327(16) 0.1230(4) 0.5203(9)
H29? H 0.501513 0.077365 0.543002
C27? C 0.7313(14) 0.1472(5) 0.5285(8)
H30? H 0.835820 0.118203 0.556771
C28? C 0.7769(12) 0.2140(6) 0.4953(7)
H31? H 0.912574 0.230568 0.500920
C29? C 0.8169(7) 0.4069(3) 0.5329(3)
H32? H 0.898764 0.363738 0.536354
H33? H 0.762811 0.415634 0.594185
H34? H 0.901240 0.446900 0.516445
C30? C 0.5257(6) 0.3423(3) 0.4218(3)
H35? H 0.380017 0.355388 0.408886
C31? C 0.6681(5) 0.3778(2) 0.3548(3)
C32? C 0.5841(19) 0.4247(2) 0.2748(5)
C33? C 0.3857(18) 0.4491(4) 0.2703(4)
H36? H 0.298290 0.435425 0.317176
C34? C 0.3153(11) 0.4936(6) 0.1973(6)
H37? H 0.179715 0.510255 0.194250
C35? C 0.4432(12) 0.5136(6) 0.1288(5)
H38? H 0.395083 0.543955 0.078865
C36? C 0.6416(10) 0.4891(5) 0.1333(6)
H39? H 0.729026 0.502824 0.086406
C37? C 0.7120(12) 0.4447(3) 0.2063(7)
H40? H 0.847605 0.427994 0.209332
C38? C 0.8534(15) 0.3139(11) 0.3579(17)
loop_
_geom_bond_atom_site_label_1
_geom_bond_atom_site_label_2
_geom_bond_site_symmetry_1
_geom_bond_site_symmetry_2
O1 C22 1_555 1_555
N1 C2 1_555 1_555
C1 H1 1_555 1_555
C2 H2 1_555 1_555
H3 C2 1_555 1_555
C3 N1 1_555 1_555
H4 C3 1_555 1_555
H5 C3 1_555 1_555
C4 C2 1_555 1_555
H6 C4 1_555 1_555
H7 C4 1_555 1_555
C5 C4 1_555 1_555
H8 C5 1_555 1_555
H9 C5 1_555 1_555
C6 C3 1_555 1_555
H10 C6 1_555 1_555
H11 C6 1_555 1_555
C7 C8 1_555 1_555
C8 H12 1_555 1_555
C9 C8 1_555 1_555
H13 C9 1_555 1_555
C10 C9 1_555 1_555
H14 C10 1_555 1_555
C11 C10 1_555 1_555
H15 C11 1_555 1_555
C12 C7 1_555 1_555
H16 C12 1_555 1_555
C13 C1 1_555 1_555
C14 C1 1_555 1_555
H17 C14 1_555 1_555
C15 C1 1_555 1_555
H18 C15 1_555 1_555
H19 C15 1_555 1_555
H20 C15 1_555 1_555
C16 C13 1_555 1_555
C17 C16 1_555 1_555
H21 C17 1_555 1_555
C18 C17 1_555 1_555
H22 C18 1_555 1_555
C19 C18 1_555 1_555
H23 C19 1_555 1_555
C20 C19 1_555 1_555
H24 C20 1_555 1_555
C21 C16 1_555 1_555
H25 C21 1_555 1_555
C22 N1 1_555 1_555
C5 C6 1_555 1_555
C7 C14 1_555 1_555
C11 C12 1_555 1_555
C13 C14 1_555 1_555
C13 C22 1_555 1_555
C20 C21 1_555 1_555

#END
