
#######################################################################
#
#                 Cambridge Crystallographic Data Centre
#                                CCDC 
#
#######################################################################
#
# If this CIF has been generated from an entry in the Cambridge 
# Structural Database, then it will include bibliographic, chemical, 
# crystal, experimental, refinement or atomic coordinate data resulting 
# from the CCDC's data processing and validation procedures.
#
#######################################################################

data_IFUVIR
_chemical_formula_moiety         'C22 H27 N1 O2'
_chemical_name_systematic        
N,N-diethyl-2-[hydroxy(phenyl)methyl]-3-methyl-1-phenylcyclopropane-1-carboxamide
_symmetry_cell_setting           monoclinic
_symmetry_space_group_name_H-M   'P 21/n'
_symmetry_Int_Tables_number      14
_space_group_name_Hall           '-P 2yn'
loop_
_symmetry_equiv_pos_site_id
_symmetry_equiv_pos_as_xyz
1 x,y,z
2 1/2-x,1/2+y,1/2-z
3 -x,-y,-z
4 1/2+x,1/2-y,1/2+z
_cell_length_a                   14.9999(2)
_cell_length_b                   7.56312(8)
_cell_length_c                   17.9960(3)
_cell_angle_alpha                90
_cell_angle_beta                 113.2748(18)
_cell_angle_gamma                90
_cell_volume                     1875.43
_exptl_crystal_colour            'light colorless'
_exptl_crystal_description       block
_cell_formula_units_Z            4
loop_
_atom_site_label
_atom_site_type_symbol
_atom_site_fract_x
_atom_site_fract_y
_atom_site_fract_z
O1 O 0.39243(5) 0.35417(10) 0.72848(4)
O2 O 0.50486(5) 0.09457(10) 0.69360(4)
N1 N 0.31769(7) 0.61015(12) 0.67428(5)
C1 C 0.36490(7) 0.41059(13) 0.58929(5)
C2 C 0.62893(7) 0.21645(13) 0.65647(6)
C3 C 0.45519(7) 0.31650(13) 0.58971(6)
H1 H 0.441976 0.235796 0.543972
C4 C 0.53560(7) 0.25386(13) 0.66716(6)
H2 H 0.547895 0.344946 0.708784
C5 C 0.36007(7) 0.45625(13) 0.66972(6)
C6 C 0.26838(7) 0.35243(13) 0.52666(6)
C7 C 0.43857(7) 0.50835(13) 0.56550(6)
H3 H 0.417316 0.529618 0.507306
C8 C 0.63218(8) 0.09673(14) 0.59874(6)
H4 H 0.576057 0.037465 0.565992
C9 C 0.71406(7) 0.30224(14) 0.70555(6)
H5 H 0.712956 0.381855 0.744566
C10 C 0.20953(8) 0.24186(15) 0.54991(6)
H6 H 0.230946 0.203492 0.603238
C11 C 0.23512(8) 0.40521(15) 0.44630(6)
H7 H 0.273282 0.479046 0.429651
C12 C 0.50164(8) 0.65250(15) 0.61842(7)
H8 H 0.468783 0.763995 0.603476
H9 H 0.561802 0.657567 0.611414
H10 H 0.514446 0.627603 0.674017
C13 C 0.80081(7) 0.26997(15) 0.69679(7)
H11 H 0.857332 0.327611 0.729912
C14 C 0.80268(8) 0.15223(16) 0.63882(7)
H12 H 0.860465 0.131176 0.632654
C15 C 0.71855(8) 0.06521(16) 0.58973(7)
H13 H 0.720008 -0.014245 0.550786
C16 C 0.11915(8) 0.18845(16) 0.49411(7)
H14 H 0.080010 0.116844 0.510657
C17 C 0.08706(8) 0.24117(17) 0.41409(7)
H15 H 0.026878 0.204407 0.376708
C18 C 0.31820(9) 0.66591(16) 0.75273(7)
H16 H 0.312779 0.562364 0.782483
H17 H 0.262243 0.740504 0.743625
C19 C 0.14535(9) 0.34885(17) 0.39043(7)
H18 H 0.124465 0.384068 0.336694
C20 C 0.27093(9) 0.73099(15) 0.60617(7)
H19 H 0.291753 0.701724 0.563029
H20 H 0.291670 0.850983 0.623486
C21 C 0.16085(10) 0.7218(2) 0.57385(9)
H21 H 0.133377 0.802685 0.529496
H22 H 0.139781 0.752994 0.616035
H23 H 0.139864 0.603761 0.555605
C22 C 0.4124(7) 0.7692(14) 0.8044(6)
H24 H 0.467254 0.691437 0.819111
H25 H 0.407010 0.813324 0.852530
H26 H 0.420797 0.866389 0.773526
H27 H 0.4590(12) 0.133(2) 0.7089(10)
H28? H 0.254425 0.709274 0.745468
H29? H 0.333478 0.565637 0.789271
C23? C 0.3880(13) 0.801(3) 0.7864(10)
H30? H 0.450175 0.760787 0.789678
H31? H 0.392098 0.829426 0.839680
H32? H 0.369188 0.904338 0.752827
loop_
_geom_bond_atom_site_label_1
_geom_bond_atom_site_label_2
_geom_bond_site_symmetry_1
_geom_bond_site_symmetry_2
O1 C5 1_555 1_555
O2 C4 1_555 1_555
N1 C5 1_555 1_555
C1 C3 1_555 1_555
C2 C4 1_555 1_555
C3 H1 1_555 1_555
C4 C3 1_555 1_555
H2 C4 1_555 1_555
C5 C1 1_555 1_555
C6 C1 1_555 1_555
C7 C1 1_555 1_555
H3 C7 1_555 1_555
C8 C2 1_555 1_555
H4 C8 1_555 1_555
C9 C2 1_555 1_555
H5 C9 1_555 1_555
C10 C6 1_555 1_555
H6 C10 1_555 1_555
C11 C6 1_555 1_555
H7 C11 1_555 1_555
C12 C7 1_555 1_555
H8 C12 1_555 1_555
H9 C12 1_555 1_555
H10 C12 1_555 1_555
C13 C9 1_555 1_555
H11 C13 1_555 1_555
C14 C13 1_555 1_555
H12 C14 1_555 1_555
C15 C8 1_555 1_555
H13 C15 1_555 1_555
C16 C10 1_555 1_555
H14 C16 1_555 1_555
C17 C16 1_555 1_555
H15 C17 1_555 1_555
C18 N1 1_555 1_555
H16 C18 1_555 1_555
H17 C18 1_555 1_555
C19 C11 1_555 1_555
H18 C19 1_555 1_555
C20 N1 1_555 1_555
H19 C20 1_555 1_555
H20 C20 1_555 1_555
C21 C20 1_555 1_555
H21 C21 1_555 1_555
H22 C21 1_555 1_555
H23 C21 1_555 1_555
C22 C18 1_555 1_555
H24 C22 1_555 1_555
H25 C22 1_555 1_555
H26 C22 1_555 1_555
H27 O2 1_555 1_555
C3 C7 1_555 1_555
C14 C15 1_555 1_555
C17 C19 1_555 1_555

#END
