
#######################################################################
#
#                 Cambridge Crystallographic Data Centre
#                                CCDC 
#
#######################################################################
#
# If this CIF has been generated from an entry in the Cambridge 
# Structural Database, then it will include bibliographic, chemical, 
# crystal, experimental, refinement or atomic coordinate data resulting 
# from the CCDC's data processing and validation procedures.
#
#######################################################################

data_IFUWUD
_chemical_formula_moiety         'C14 H20 Cl2 N1 O1 1+,Cl1 1-'
_chemical_name_systematic        
'4-[(1S)-1-(3,4-Dichlorophenyl)-2-methoxyethyl]piperidine hydrochloride'
_symmetry_cell_setting           monoclinic
_symmetry_space_group_name_H-M   'P 21'
_symmetry_Int_Tables_number      4
_space_group_name_Hall           'P 2yb'
loop_
_symmetry_equiv_pos_site_id
_symmetry_equiv_pos_as_xyz
1 x,y,z
2 -x,1/2+y,-z
_cell_length_a                   7.881(3)
_cell_length_b                   6.980(2)
_cell_length_c                   14.670(5)
_cell_angle_alpha                90
_cell_angle_beta                 91.81(2)
_cell_angle_gamma                90
_cell_volume                     806.585
_exptl_crystal_colour            colorless
_exptl_crystal_description       prism
_cell_formula_units_Z            2
loop_
_atom_site_label
_atom_site_type_symbol
_atom_site_fract_x
_atom_site_fract_y
_atom_site_fract_z
N1 N 0.8326(4) 0.8589(5) 0.5657(2)
C1 C 0.8926(4) 0.7957(6) 0.6578(2)
C2 C 0.7696(5) 0.8633(6) 0.7287(2)
C3 C 0.5893(4) 0.7949(5) 0.7104(2)
C4 C 0.5373(4) 0.8619(6) 0.6136(2)
C5 C 0.6573(4) 0.7941(6) 0.5424(2)
C6 C 0.5697(4) 0.5772(5) 0.7246(2)
C7 C 0.3844(4) 0.5124(7) 0.7176(2)
O1 O 0.3810(3) 0.3113(5) 0.7139(2)
C8 C 0.2170(5) 0.2349(8) 0.7099(3)
C9 C 0.6515(4) 0.5110(5) 0.8143(2)
C10 C 0.7814(4) 0.3796(5) 0.8159(2)
C11 C 0.8558(4) 0.3147(6) 0.8970(2)
C12 C 0.7991(4) 0.3833(6) 0.9785(2)
C13 C 0.6727(4) 0.5176(6) 0.9786(2)
C14 C 0.5967(4) 0.5806(6) 0.8971(2)
Cl1 Cl 0.8922(1) 0.3000 1.07998(6)
Cl2 Cl 0.5998(2) 0.6091(3) 1.07989(6)
H1 H 0.9033 0.8128 0.5240
H2 H 0.8363 0.9876 0.5630
H3 H 1.0045 0.8481 0.6715
H4 H 0.9008 0.6570 0.6594
H5 H 0.8084 0.8176 0.7882
H6 H 0.7703 1.0022 0.7303
H7 H 0.5161 0.8601 0.7533
H8 H 0.4241 0.8147 0.5984
H9 H 0.5330 1.0008 0.6127
H10 H 0.6546 0.6553 0.5389
H11 H 0.6218 0.8446 0.4832
H12 H 0.6295 0.5132 0.6756
H13 H 0.3240 0.5570 0.7701
H14 H 0.3295 0.5655 0.6631
H15 H 0.1456 0.3126 0.6706
H16 H 0.1722 0.2329 0.7700
H17 H 0.2205 0.1067 0.6863
H18 H 0.8204 0.3329 0.7610
H19 H 0.9434 0.2256 0.8964
H20 H 0.5090 0.6697 0.8980
Cl3 Cl 0.8409(1) 0.3001(2) 0.54637(6)
loop_
_geom_bond_atom_site_label_1
_geom_bond_atom_site_label_2
_geom_bond_site_symmetry_1
_geom_bond_site_symmetry_2
N1 C1 1_555 1_555
C1 C2 1_555 1_555
C2 C3 1_555 1_555
C3 C4 1_555 1_555
C4 C5 1_555 1_555
C5 N1 1_555 1_555
C6 C3 1_555 1_555
C7 C6 1_555 1_555
O1 C7 1_555 1_555
C8 O1 1_555 1_555
C9 C6 1_555 1_555
C10 C9 1_555 1_555
C11 C10 1_555 1_555
C12 C11 1_555 1_555
C13 C12 1_555 1_555
C14 C9 1_555 1_555
Cl1 C12 1_555 1_555
Cl2 C13 1_555 1_555
H1 N1 1_555 1_555
H2 N1 1_555 1_555
H3 C1 1_555 1_555
H4 C1 1_555 1_555
H5 C2 1_555 1_555
H6 C2 1_555 1_555
H7 C3 1_555 1_555
H8 C4 1_555 1_555
H9 C4 1_555 1_555
H10 C5 1_555 1_555
H11 C5 1_555 1_555
H12 C6 1_555 1_555
H13 C7 1_555 1_555
H14 C7 1_555 1_555
H15 C8 1_555 1_555
H16 C8 1_555 1_555
H17 C8 1_555 1_555
H18 C10 1_555 1_555
H19 C11 1_555 1_555
H20 C14 1_555 1_555
C13 C14 1_555 1_555

#END
