
#######################################################################
#
#                 Cambridge Crystallographic Data Centre
#                                CCDC 
#
#######################################################################
#
# If this CIF has been generated from an entry in the Cambridge 
# Structural Database, then it will include bibliographic, chemical, 
# crystal, experimental, refinement or atomic coordinate data resulting 
# from the CCDC's data processing and validation procedures.
#
#######################################################################

data_IFUXOZ
_chemical_formula_moiety         'C19 H15 Br1 Cl1 N1 O2'
_chemical_name_systematic        
5-bromo-12-chloro-3a-methyl-1,2,13b,13c-tetrahydrofuro[3,2-c]isoindolo[2,1-a]quinolin-9(3aH)-one
_symmetry_cell_setting           monoclinic
_symmetry_space_group_name_H-M   'C 2/c'
_symmetry_Int_Tables_number      15
_space_group_name_Hall           '-C 2yn'
loop_
_symmetry_equiv_pos_site_id
_symmetry_equiv_pos_as_xyz
1 x,y,z
2 -x,y,1/2-z
3 1/2+x,1/2+y,z
4 1/2-x,1/2+y,1/2-z
5 -x,-y,-z
6 x,-y,1/2+z
7 1/2-x,1/2-y,-z
8 1/2+x,1/2-y,1/2+z
_cell_length_a                   31.317(11)
_cell_length_b                   6.319(2)
_cell_length_c                   19.015(6)
_cell_angle_alpha                90
_cell_angle_beta                 116.170(8)
_cell_angle_gamma                90
_cell_volume                     3377.18
_exptl_crystal_colour            colorless
_exptl_crystal_description       block
_cell_formula_units_Z            8
loop_
_atom_site_label
_atom_site_type_symbol
_atom_site_fract_x
_atom_site_fract_y
_atom_site_fract_z
Br1 Br 0.05716(2) 0.78631(10) 1.23832(3)
Cl1 Cl 0.21163(6) 0.5628(3) 0.76082(9)
O1 O 0.02472(10) 0.6025(6) 0.93841(18)
O2 O 0.19393(11) 1.1348(5) 1.0515(2)
C1 C 0.08835(16) 0.8000(7) 1.1722(3)
C2 C 0.12663(17) 0.9279(8) 1.1912(3)
H1 H 0.1367 1.0141 1.2353
C3 C 0.15058(16) 0.9309(7) 1.1459(3)
H2 H 0.1775 1.0148 1.1603
C4 C 0.13444(14) 0.8081(6) 1.0781(3)
N1 N 0.15726(12) 0.8068(5) 1.0287(2)
C5 C 0.18359(14) 0.9668(7) 1.0172(3)
C6 C 0.19491(14) 0.8903(7) 0.9542(3)
C7 C 0.22162(15) 0.9882(8) 0.9212(3)
H3 H 0.2357 1.1195 0.9388
C8 C 0.22647(16) 0.8829(9) 0.8611(3)
H4 H 0.2436 0.9444 0.8369
C9 C 0.09368(15) 0.6806(6) 1.0567(2)
C10 C 0.07316(15) 0.5439(6) 0.9833(3)
C11 C 0.0216(2) 0.7569(10) 0.8829(4)
H5 H 0.0143 0.8936 0.8982
H6 H -0.0037 0.7205 0.8320
C12 C 0.06822(19) 0.7680(8) 0.8783(3)
H7 H 0.0838 0.9027 0.8977
H8 H 0.0637 0.7488 0.8248
C13 C 0.09697(15) 0.5868(6) 0.9303(2)
H9 H 0.0926 0.4621 0.8972
C14 C 0.14966(15) 0.6259(7) 0.9765(3)
H10 H 0.1650 0.5000 1.0074
C15 C 0.17528(15) 0.6940(7) 0.9301(3)
C16 C 0.17997(16) 0.5872(8) 0.8699(3)
H11 H 0.1663 0.4550 0.8526
C17 C 0.20591(17) 0.6873(8) 0.8374(3)
C18 C 0.0737(2) 0.3128(7) 1.0046(4)
H12 H 0.0547 0.2936 1.0322
H13 H 0.1058 0.2695 1.0373
H14 H 0.0609 0.2289 0.9577
C19 C 0.07103(16) 0.6792(7) 1.1051(3)
H15 H 0.0441 0.5964 1.0921
loop_
_geom_bond_atom_site_label_1
_geom_bond_atom_site_label_2
_geom_bond_site_symmetry_1
_geom_bond_site_symmetry_2
Br1 C1 1_555 1_555
Cl1 C17 1_555 1_555
O1 C10 1_555 1_555
O2 C5 1_555 1_555
C1 C2 1_555 1_555
C2 H1 1_555 1_555
C3 C2 1_555 1_555
H2 C3 1_555 1_555
C4 C3 1_555 1_555
N1 C4 1_555 1_555
C5 N1 1_555 1_555
C6 C5 1_555 1_555
C7 C6 1_555 1_555
H3 C7 1_555 1_555
C8 C7 1_555 1_555
H4 C8 1_555 1_555
C9 C4 1_555 1_555
C10 C9 1_555 1_555
C11 O1 1_555 1_555
H5 C11 1_555 1_555
H6 C11 1_555 1_555
C12 C11 1_555 1_555
H7 C12 1_555 1_555
H8 C12 1_555 1_555
C13 C10 1_555 1_555
H9 C13 1_555 1_555
C14 N1 1_555 1_555
H10 C14 1_555 1_555
C15 C6 1_555 1_555
C16 C15 1_555 1_555
H11 C16 1_555 1_555
C17 C8 1_555 1_555
C18 C10 1_555 1_555
H12 C18 1_555 1_555
H13 C18 1_555 1_555
H14 C18 1_555 1_555
C19 C1 1_555 1_555
H15 C19 1_555 1_555
C9 C19 1_555 1_555
C12 C13 1_555 1_555
C13 C14 1_555 1_555
C14 C15 1_555 1_555
C16 C17 1_555 1_555

#END
