
#######################################################################
#
#                 Cambridge Crystallographic Data Centre
#                                CCDC 
#
#######################################################################
#
# If this CIF has been generated from an entry in the Cambridge 
# Structural Database, then it will include bibliographic, chemical, 
# crystal, experimental, refinement or atomic coordinate data resulting 
# from the CCDC's data processing and validation procedures.
#
#######################################################################

data_IFUYUG
_chemical_compound_source        'leaves of Cleistocalyx operculatus'
_chemical_name_common            
2',4'-dihydroxy-3',5'-dimethyl-6'-methoxychalcone
_chemical_formula_moiety         'C18 H18 O4'
_chemical_name_systematic        
1-(2,4-dihydroxy-6-methoxy-3,5-dimethylphenyl)-3-phenylprop-2-en-1-one
_symmetry_cell_setting           monoclinic
_symmetry_space_group_name_H-M   'P 21/n'
_symmetry_Int_Tables_number      14
_space_group_name_Hall           '-P 2yn'
loop_
_symmetry_equiv_pos_site_id
_symmetry_equiv_pos_as_xyz
1 x,y,z
2 1/2-x,1/2+y,1/2-z
3 -x,-y,-z
4 1/2+x,1/2-y,1/2+z
_cell_length_a                   10.9193(3)
_cell_length_b                   24.6258(6)
_cell_length_c                   11.4467(3)
_cell_angle_alpha                90
_cell_angle_beta                 99.262(2)
_cell_angle_gamma                90
_cell_volume                     3037.85
_exptl_crystal_colour            orange
_exptl_crystal_description       blocks
_cell_formula_units_Z            8
loop_
_atom_site_label
_atom_site_type_symbol
_atom_site_fract_x
_atom_site_fract_y
_atom_site_fract_z
O1 O 0.45905(12) 0.64489(5) 0.45709(12)
O2 O 0.62952(14) 0.81489(6) 0.36433(13)
H1 H 0.660144 0.795134 0.319101
O3 O 0.36803(14) 0.81241(6) 0.64804(13)
H2 H 0.332983 0.791499 0.687606
O4 O 0.29047(14) 0.72460(6) 0.71465(13)
C1 C 0.47472(16) 0.70019(8) 0.47850(16)
C2 C 0.54975(17) 0.72781(8) 0.41304(16)
C3 C 0.55870(17) 0.78487(8) 0.42641(17)
C4 C 0.49759(17) 0.81306(8) 0.50495(17)
C5 C 0.42477(17) 0.78383(8) 0.57199(17)
C6 C 0.40969(17) 0.72621(8) 0.56112(17)
C7 C 0.33458(18) 0.69852(8) 0.63678(17)
C8 C 0.30852(18) 0.63964(8) 0.62910(18)
H3 H 0.301083 0.621685 0.556825
C9 C 0.29579(17) 0.61255(8) 0.72779(18)
H4 H 0.305792 0.632608 0.797520
C10 C 0.26799(17) 0.55509(8) 0.73780(18)
C11 C 0.2625(2) 0.51839(9) 0.6442(2)
H5 H 0.280386 0.530205 0.571626
C12 C 0.2309(2) 0.46471(9) 0.6580(2)
H6 H 0.228468 0.440701 0.594992
C13 C 0.2029(2) 0.44637(9) 0.7650(2)
H7 H 0.179808 0.410414 0.773369
C14 C 0.2096(2) 0.48204(10) 0.8593(2)
H8 H 0.191873 0.469865 0.931588
C15 C 0.2427(2) 0.53576(9) 0.8465(2)
H9 H 0.248073 0.559243 0.910752
C16 C 0.62244(18) 0.69910(8) 0.33035(17)
H10 H 0.709413 0.701169 0.361299
H11 H 0.606807 0.716111 0.253942
H12 H 0.597456 0.661715 0.323102
C17 C 0.5123(2) 0.87347(8) 0.5224(2)
H13 H 0.432217 0.889767 0.521068
H14 H 0.550775 0.888547 0.459959
H15 H 0.563276 0.880613 0.597254
C18 C 0.5526(2) 0.61125(8) 0.52329(19)
H16 H 0.551193 0.576046 0.487064
H17 H 0.536587 0.607604 0.602965
H18 H 0.632565 0.627559 0.524169
O5 O 0.47193(13) 0.63971(6) 0.98028(12)
O6 O 0.34394(14) 0.80781(6) 1.13006(14)
H19 H 0.313565 0.787354 1.174162
O7 O 0.63777(14) 0.81252(6) 0.87834(14)
H20 H 0.678458 0.792861 0.841289
O8 O 0.71806(14) 0.72643(6) 0.80472(13)
C19 C 0.48168(17) 0.69574(8) 0.98964(16)
C20 C 0.40812(17) 0.72150(8) 1.05981(17)
C21 C 0.41299(17) 0.77877(8) 1.06469(17)
C22 C 0.48844(18) 0.80905(8) 1.00205(18)
C23 C 0.56335(17) 0.78179(8) 0.93440(17)
C24 C 0.56219(17) 0.72381(8) 0.92442(17)
C25 C 0.64225(18) 0.69811(8) 0.85056(17)
C26 C 0.63839(19) 0.63939(9) 0.82460(18)
H21 H 0.564435 0.620536 0.823562
C27 C 0.73825(19) 0.61281(9) 0.80264(17)
H22 H 0.811243 0.632742 0.807555
C28 C 0.74485(19) 0.55536(8) 0.77151(18)
C29 C 0.6439(2) 0.51995(9) 0.76629(19)
H23 H 0.569611 0.532490 0.786188
C30 C 0.6535(2) 0.46627(9) 0.7317(2)
H24 H 0.585465 0.443269 0.728310
C31 C 0.7633(3) 0.44670(10) 0.7023(2)
H25 H 0.769301 0.410794 0.678722
C32 C 0.8636(2) 0.48114(11) 0.7084(2)
H26 H 0.937966 0.468169 0.689501
C33 C 0.8551(2) 0.53492(10) 0.7425(2)
H27 H 0.923765 0.557575 0.745902
C34 C 0.32582(19) 0.69024(8) 1.12943(18)
H28 H 0.314892 0.653946 1.098916
H29 H 0.246553 0.707849 1.122620
H30 H 0.363532 0.688988 1.211152
C35 C 0.4908(2) 0.87022(9) 1.0098(2)
H31 H 0.412062 0.883108 1.025359
H32 H 0.506961 0.885094 0.936222
H33 H 0.554964 0.881385 1.072628
C36 C 0.5577(2) 0.61086(9) 1.0658(2)
H34 H 0.557895 0.573174 1.044288
H35 H 0.533436 0.614375 1.142364
H36 H 0.639405 0.625644 1.067997
loop_
_geom_bond_atom_site_label_1
_geom_bond_atom_site_label_2
_geom_bond_site_symmetry_1
_geom_bond_site_symmetry_2
O1 C1 1_555 1_555
O2 H1 1_555 1_555
O3 H2 1_555 1_555
O4 C7 1_555 1_555
C1 C2 1_555 1_555
C2 C3 1_555 1_555
C3 O2 1_555 1_555
C4 C3 1_555 1_555
C5 O3 1_555 1_555
C6 C1 1_555 1_555
C7 C6 1_555 1_555
C8 C7 1_555 1_555
H3 C8 1_555 1_555
C9 C8 1_555 1_555
H4 C9 1_555 1_555
C10 C9 1_555 1_555
C11 C10 1_555 1_555
H5 C11 1_555 1_555
C12 C11 1_555 1_555
H6 C12 1_555 1_555
C13 C12 1_555 1_555
H7 C13 1_555 1_555
C14 C13 1_555 1_555
H8 C14 1_555 1_555
C15 C10 1_555 1_555
H9 C15 1_555 1_555
C16 C2 1_555 1_555
H10 C16 1_555 1_555
H11 C16 1_555 1_555
H12 C16 1_555 1_555
C17 C4 1_555 1_555
H13 C17 1_555 1_555
H14 C17 1_555 1_555
H15 C17 1_555 1_555
C18 O1 1_555 1_555
H16 C18 1_555 1_555
H17 C18 1_555 1_555
H18 C18 1_555 1_555
O5 C19 1_555 1_555
O6 H19 1_555 1_555
O7 H20 1_555 1_555
O8 C25 1_555 1_555
C19 C20 1_555 1_555
C20 C21 1_555 1_555
C21 O6 1_555 1_555
C22 C21 1_555 1_555
C23 O7 1_555 1_555
C24 C19 1_555 1_555
C25 C24 1_555 1_555
C26 C25 1_555 1_555
H21 C26 1_555 1_555
C27 C26 1_555 1_555
H22 C27 1_555 1_555
C28 C27 1_555 1_555
C29 C28 1_555 1_555
H23 C29 1_555 1_555
C30 C29 1_555 1_555
H24 C30 1_555 1_555
C31 C30 1_555 1_555
H25 C31 1_555 1_555
C32 C31 1_555 1_555
H26 C32 1_555 1_555
C33 C28 1_555 1_555
H27 C33 1_555 1_555
C34 C20 1_555 1_555
H28 C34 1_555 1_555
H29 C34 1_555 1_555
H30 C34 1_555 1_555
C35 C22 1_555 1_555
H31 C35 1_555 1_555
H32 C35 1_555 1_555
H33 C35 1_555 1_555
C36 O5 1_555 1_555
H34 C36 1_555 1_555
H35 C36 1_555 1_555
H36 C36 1_555 1_555
C4 C5 1_555 1_555
C5 C6 1_555 1_555
C14 C15 1_555 1_555
C22 C23 1_555 1_555
C23 C24 1_555 1_555
C32 C33 1_555 1_555

#END
