
#######################################################################
#
#                 Cambridge Crystallographic Data Centre
#                                CCDC 
#
#######################################################################
#
# If this CIF has been generated from an entry in the Cambridge 
# Structural Database, then it will include bibliographic, chemical, 
# crystal, experimental, refinement or atomic coordinate data resulting 
# from the CCDC's data processing and validation procedures.
#
#######################################################################

data_IFUZAN
_chemical_compound_source        'leaves of Cleistocalyx operculatus'
_chemical_name_common            'operculatol A'
_chemical_formula_moiety         'C28 H32 O4'
_chemical_name_systematic        
1-(6-hydroxy-8-methoxy-3,3,4a,5-tetramethyl-2,3,4,4a,9,9a-hexahydro-1H-2,4-methanoxanthen-7-yl)-3-phenylprop-2-en-1-one
_symmetry_cell_setting           triclinic
_symmetry_space_group_name_H-M   'P 1'
_symmetry_Int_Tables_number      1
_space_group_name_Hall           'P 1'
loop_
_symmetry_equiv_pos_site_id
_symmetry_equiv_pos_as_xyz
1 x,y,z
_cell_length_a                   10.2778(4)
_cell_length_b                   10.3228(5)
_cell_length_c                   12.3658(6)
_cell_angle_alpha                112.387(5)
_cell_angle_beta                 105.710(4)
_cell_angle_gamma                92.527(4)
_cell_volume                     1151.68
_exptl_crystal_colour            yellow
_exptl_crystal_description       block
_cell_formula_units_Z            2
loop_
_atom_site_label
_atom_site_type_symbol
_atom_site_fract_x
_atom_site_fract_y
_atom_site_fract_z
O1 O 0.2125(3) -0.0379(3) 0.2947(3)
O2 O 0.4746(3) 0.2710(3) 0.7061(3)
O3 O 0.5891(4) 0.3236(4) 0.3833(3)
H1 H 0.572497 0.284679 0.308483
O4 O 0.4628(4) 0.1649(4) 0.1670(3)
C1 C 0.3165(4) 0.0747(4) 0.3757(4)
C2 C 0.3395(5) 0.1154(5) 0.5003(4)
C3 C 0.4446(5) 0.2308(5) 0.5827(4)
C4 C 0.5268(5) 0.3021(5) 0.5434(4)
C5 C 0.5045(5) 0.2556(5) 0.4182(4)
C6 C 0.3969(5) 0.1429(5) 0.3283(4)
C7 C 0.3765(5) 0.1084(5) 0.1974(5)
C8 C 0.2562(5) 0.0097(5) 0.0971(5)
H2 H 0.179165 -0.016081 0.114760
C9 C 0.2596(5) -0.0421(5) -0.0192(5)
H3 H 0.340007 -0.014282 -0.031061
C10 C 0.1500(5) -0.1380(5) -0.1297(5)
C11 C 0.0243(5) -0.1920(5) -0.1256(4)
H4 H 0.007295 -0.165912 -0.050642
C12 C -0.0744(5) -0.2840(5) -0.2333(5)
H5 H -0.157365 -0.319116 -0.229753
C13 C -0.0511(6) -0.3243(6) -0.3457(5)
H6 H -0.117827 -0.386304 -0.417321
C14 C 0.0726(6) -0.2713(6) -0.3509(5)
H7 H 0.088933 -0.297882 -0.426162
C15 C 0.1716(5) -0.1791(5) -0.2440(5)
H8 H 0.253964 -0.143922 -0.248463
C16 C 0.2676(5) 0.0401(5) 0.5550(4)
H9 H 0.323330 -0.025010 0.576702
H10 H 0.181405 -0.015019 0.494458
C17 C 0.6360(5) 0.4275(5) 0.6329(5)
H11 H 0.721959 0.395460 0.653194
H12 H 0.611444 0.473898 0.706336
H13 H 0.644285 0.493091 0.596174
C18 C 0.2603(6) -0.1714(5) 0.2640(5)
H14 H 0.185369 -0.246260 0.207845
H15 H 0.297287 -0.186673 0.337419
H16 H 0.330277 -0.170837 0.226054
C19 C 0.3435(5) 0.3960(5) 0.8289(5)
H17 H 0.422577 0.462637 0.894626
C20 C 0.3733(5) 0.2481(5) 0.7642(4)
C21 C 0.2396(5) 0.1452(5) 0.6703(4)
H18 H 0.212720 0.087851 0.710589
C22 C 0.1165(5) 0.2190(6) 0.6382(5)
H19 H 0.102456 0.215301 0.556213
H20 H 0.034857 0.166914 0.636974
C23 C 0.1350(5) 0.3743(5) 0.7287(5)
H21 H 0.055032 0.421385 0.716143
C24 C 0.2077(5) 0.3969(5) 0.8645(5)
C25 C 0.2697(5) 0.4512(5) 0.7327(5)
H22 H 0.291735 0.413001 0.656254
H23 H 0.277129 0.553780 0.764259
C26 C 0.4497(5) 0.1900(5) 0.8536(5)
H24 H 0.471378 0.099377 0.809036
H25 H 0.393384 0.179173 0.901191
H26 H 0.532769 0.254584 0.907608
C27 C 0.2077(6) 0.5454(6) 0.9570(5)
H27 H 0.265887 0.559406 1.037106
H28 H 0.116085 0.555547 0.959555
H29 H 0.241273 0.614856 0.932691
C28 C 0.1617(5) 0.2927(6) 0.9133(5)
H30 H 0.141901 0.197829 0.850431
H31 H 0.080936 0.316768 0.936033
H32 H 0.233526 0.298212 0.984041
C29 C 0.8992(6) 0.5579(6) 0.1333(5)
H33 H 0.970743 0.567683 0.099295
H34 H 0.862759 0.459044 0.103477
H35 H 0.935646 0.597489 0.221456
O5 O 0.8042(3) 1.0115(3) 0.7160(3)
O6 O 0.5637(3) 0.7030(4) 0.3053(3)
O7 O 0.4042(4) 0.6700(4) 0.6186(3)
H36 H 0.421683 0.705174 0.693662
O8 O 0.5257(4) 0.8324(4) 0.8385(3)
C30 C 0.6970(5) 0.9029(5) 0.6350(4)
C31 C 0.6818(5) 0.8554(5) 0.5124(5)
C32 C 0.5749(5) 0.7443(5) 0.4263(4)
C33 C 0.4813(5) 0.6818(5) 0.4615(5)
C34 C 0.4965(5) 0.7329(5) 0.5875(4)
C35 C 0.6064(5) 0.8422(5) 0.6794(5)
C36 C 0.6179(5) 0.8833(5) 0.8094(5)
C37 C 0.7372(5) 0.9807(5) 0.9101(5)
H37 H 0.818534 0.995546 0.893833
C38 C 0.7309(5) 1.0476(5) 1.0234(5)
H38 H 0.647756 1.031769 1.036284
C39 C 0.8442(5) 1.1448(5) 1.1303(5)
C40 C 0.9695(5) 1.1896(6) 1.1220(5)
H39 H 0.984002 1.158576 1.045667
C41 C 1.0727(6) 1.2803(6) 1.2265(6)
H40 H 1.155610 1.310285 1.219617
C42 C 1.0538(6) 1.3265(6) 1.3412(5)
H41 H 1.123801 1.386897 1.410919
C43 C 0.9302(6) 1.2827(6) 1.3518(5)
H42 H 0.916728 1.313905 1.428470
C44 C 0.8257(5) 1.1913(5) 1.2464(5)
H43 H 0.743076 1.161060 1.253636
C45 C 0.7705(5) 0.9136(5) 0.4578(5)
H44 H 0.850954 0.975530 0.522755
H45 H 0.720332 0.969565 0.418487
C46 C 0.3671(5) 0.5619(5) 0.3702(5)
H46 H 0.380170 0.477958 0.385182
H47 H 0.367649 0.543613 0.288193
H48 H 0.280786 0.587698 0.379105
C47 C 0.7709(5) 1.1495(5) 0.7314(5)
H49 H 0.737038 1.152774 0.652230
H50 H 0.851506 1.219981 0.780381
H51 H 0.701874 1.168286 0.771827
C48 C 0.6582(5) 0.6490(5) 0.1430(5)
H52 H 0.576697 0.578431 0.086872
C49 C 0.6918(5) 0.6688(5) 0.2748(5)
C50 C 0.8156(5) 0.7928(5) 0.3621(4)
H53 H 0.883677 0.753432 0.407752
C51 C 0.8885(5) 0.8554(5) 0.2931(5)
H54 H 0.897377 0.958117 0.329815
H55 H 0.980161 0.831755 0.304156
C52 C 0.8133(5) 0.8012(5) 0.1566(5)
H56 H 0.850722 0.847279 0.112784
C53 C 0.7861(6) 0.6358(6) 0.0949(5)
C54 C 0.6574(6) 0.7975(6) 0.1371(5)
H57 H 0.604896 0.794666 0.057974
H58 H 0.634716 0.869144 0.204123
C55 C 0.7125(6) 0.5309(5) 0.2912(5)
H59 H 0.799321 0.507183 0.282106
H60 H 0.640417 0.455717 0.230091
H61 H 0.710747 0.543163 0.371731
C56 C 0.7385(6) 0.5795(7) -0.0459(5)
H62 H 0.814876 0.593245 -0.073264
H63 H 0.668845 0.629975 -0.071627
H64 H 0.702020 0.480051 -0.080850
loop_
_geom_bond_atom_site_label_1
_geom_bond_atom_site_label_2
_geom_bond_site_symmetry_1
_geom_bond_site_symmetry_2
O1 C1 1_555 1_555
O2 C3 1_555 1_555
O3 H1 1_555 1_555
O4 C7 1_555 1_555
C1 C2 1_555 1_555
C2 C3 1_555 1_555
C3 C4 1_555 1_555
C4 C5 1_555 1_555
C5 O3 1_555 1_555
C6 C1 1_555 1_555
C7 C6 1_555 1_555
C8 C7 1_555 1_555
H2 C8 1_555 1_555
C9 C8 1_555 1_555
H3 C9 1_555 1_555
C10 C9 1_555 1_555
C11 C10 1_555 1_555
H4 C11 1_555 1_555
C12 C11 1_555 1_555
H5 C12 1_555 1_555
C13 C12 1_555 1_555
H6 C13 1_555 1_555
C14 C13 1_555 1_555
H7 C14 1_555 1_555
C15 C10 1_555 1_555
H8 C15 1_555 1_555
C16 C2 1_555 1_555
H9 C16 1_555 1_555
H10 C16 1_555 1_555
C17 C4 1_555 1_555
H11 C17 1_555 1_555
H12 C17 1_555 1_555
H13 C17 1_555 1_555
C18 O1 1_555 1_555
H14 C18 1_555 1_555
H15 C18 1_555 1_555
H16 C18 1_555 1_555
C19 H17 1_555 1_555
C20 O2 1_555 1_555
C21 C16 1_555 1_555
H18 C21 1_555 1_555
C22 C21 1_555 1_555
H19 C22 1_555 1_555
H20 C22 1_555 1_555
C23 C22 1_555 1_555
H21 C23 1_555 1_555
C24 C19 1_555 1_555
C25 C19 1_555 1_555
H22 C25 1_555 1_555
H23 C25 1_555 1_555
C26 C20 1_555 1_555
H24 C26 1_555 1_555
H25 C26 1_555 1_555
H26 C26 1_555 1_555
C27 C24 1_555 1_555
H27 C27 1_555 1_555
H28 C27 1_555 1_555
H29 C27 1_555 1_555
C28 C24 1_555 1_555
H30 C28 1_555 1_555
H31 C28 1_555 1_555
H32 C28 1_555 1_555
C29 H33 1_555 1_555
H34 C29 1_555 1_555
H35 C29 1_555 1_555
O5 C30 1_555 1_555
O6 C32 1_555 1_555
O7 H36 1_555 1_555
O8 C36 1_555 1_555
C30 C31 1_555 1_555
C31 C32 1_555 1_555
C32 C33 1_555 1_555
C33 C34 1_555 1_555
C34 O7 1_555 1_555
C35 C30 1_555 1_555
C36 C35 1_555 1_555
C37 C36 1_555 1_555
H37 C37 1_555 1_555
C38 C37 1_555 1_555
H38 C38 1_555 1_555
C39 C38 1_555 1_555
C40 C39 1_555 1_555
H39 C40 1_555 1_555
C41 C40 1_555 1_555
H40 C41 1_555 1_555
C42 C41 1_555 1_555
H41 C42 1_555 1_555
C43 C42 1_555 1_555
H42 C43 1_555 1_555
C44 C39 1_555 1_555
H43 C44 1_555 1_555
C45 C31 1_555 1_555
H44 C45 1_555 1_555
H45 C45 1_555 1_555
C46 C33 1_555 1_555
H46 C46 1_555 1_555
H47 C46 1_555 1_555
H48 C46 1_555 1_555
C47 O5 1_555 1_555
H49 C47 1_555 1_555
H50 C47 1_555 1_555
H51 C47 1_555 1_555
C48 H52 1_555 1_555
C49 O6 1_555 1_555
C50 C45 1_555 1_555
H53 C50 1_555 1_555
C51 C50 1_555 1_555
H54 C51 1_555 1_555
H55 C51 1_555 1_555
C52 C51 1_555 1_555
H56 C52 1_555 1_555
C53 C29 1_555 1_555
C54 C48 1_555 1_555
H57 C54 1_555 1_555
H58 C54 1_555 1_555
C55 C49 1_555 1_555
H59 C55 1_555 1_555
H60 C55 1_555 1_555
H61 C55 1_555 1_555
C56 C53 1_555 1_555
H62 C56 1_555 1_555
H63 C56 1_555 1_555
H64 C56 1_555 1_555
C5 C6 1_555 1_555
C14 C15 1_555 1_555
C19 C20 1_555 1_555
C20 C21 1_555 1_555
C23 C24 1_555 1_555
C23 C25 1_555 1_555
C34 C35 1_555 1_555
C43 C44 1_555 1_555
C48 C49 1_555 1_555
C48 C53 1_555 1_555
C49 C50 1_555 1_555
C52 C53 1_555 1_555
C52 C54 1_555 1_555

#END
