
#######################################################################
#
#                 Cambridge Crystallographic Data Centre
#                                CCDC 
#
#######################################################################
#
# If this CIF has been generated from an entry in the Cambridge 
# Structural Database, then it will include bibliographic, chemical, 
# crystal, experimental, refinement or atomic coordinate data resulting 
# from the CCDC's data processing and validation procedures.
#
#######################################################################

data_IGACUR
_chemical_name_common            
1-({[4-(dimethylamino)phenyl]imino}methyl)naphthalen-2-ol
_chemical_formula_moiety         'C19 H18 N2 O1'
_chemical_name_systematic        
(E)-1-(4-(dimethylamino)phenyl)iminomethyl-2-hydroxyl-naphthalen
_symmetry_cell_setting           monoclinic
_symmetry_space_group_name_H-M   'P 21/c'
_symmetry_Int_Tables_number      14
_space_group_name_Hall           '-P 2ybc'
loop_
_symmetry_equiv_pos_site_id
_symmetry_equiv_pos_as_xyz
1 x,y,z
2 -x,1/2+y,1/2-z
3 -x,-y,-z
4 x,1/2-y,1/2+z
_cell_length_a                   5.2070(10)
_cell_length_b                   9.808(2)
_cell_length_c                   28.504(6)
_cell_angle_alpha                90
_cell_angle_beta                 92.70(3)
_cell_angle_gamma                90
_cell_volume                     1454.09
_exptl_crystal_colour            red
_exptl_crystal_description       needle
_cell_formula_units_Z            4
_exptl_crystal_recrystallization_method dichloromethane/hexane
_exptl_crystal_preparation       Luminescent
loop_
_atom_site_label
_atom_site_type_symbol
_atom_site_fract_x
_atom_site_fract_y
_atom_site_fract_z
O1 O 0.27642(17) 0.71730(9) 0.07833(3)
H1 H 0.168856 0.778333 0.078539
N1 N 0.03264(18) 0.91664(9) 0.10875(3)
C1 C 0.4165(2) 0.71841(11) 0.11880(4)
C2 C 0.6190(2) 0.62168(11) 0.12384(4)
H2 H 0.645283 0.559338 0.099958
C3 C -0.15239(19) 1.01832(11) 0.09856(4)
C4 C 0.7389(2) 0.71304(10) 0.20114(4)
C5 C 0.37075(19) 0.81146(10) 0.15488(4)
C6 C -0.50183(19) 1.22745(11) 0.07027(4)
C7 C 0.53405(19) 0.80911(10) 0.19699(4)
C8 C -0.2757(2) 1.09578(11) 0.13200(4)
H3 H -0.241042 1.079293 0.163797
C9 C 0.6693(2) 0.89716(11) 0.27417(4)
H4 H 0.645971 0.958318 0.298538
N2 N -0.65572(18) 1.33708(10) 0.05662(3)
C10 C 0.1723(2) 0.91351(10) 0.14758(4)
H5 H 0.144790 0.977362 0.170936
C11 C -0.2174(2) 1.04169(12) 0.05131(4)
H6 H -0.145900 0.986807 0.028747
C12 C 0.9058(2) 0.71243(11) 0.24177(4)
H7 H 1.039975 0.649857 0.244098
C13 C 0.8729(2) 0.80283(12) 0.27790(4)
H8 H 0.983799 0.801636 0.304441
C14 C 0.7750(2) 0.62008(11) 0.16366(4)
H9 H 0.907940 0.556830 0.166384
C15 C 0.5041(2) 0.90034(11) 0.23506(4)
H10 H 0.370525 0.963344 0.233512
C16 C -0.4494(2) 1.19699(11) 0.11816(4)
H11 H -0.532948 1.245750 0.140907
C17 C -0.3858(2) 1.14448(12) 0.03703(4)
H12 H -0.422498 1.158808 0.005160
C18 C -0.8468(2) 1.38469(12) 0.08834(4)
H13 H -0.964489 1.312065 0.094299
H14 H -0.939398 1.460104 0.074289
H15 H -0.762813 1.413367 0.117379
C19 C -0.7249(3) 1.35615(16) 0.00725(4)
H16 H -0.574237 1.347356 -0.010669
H17 H -0.797614 1.445304 0.002491
H18 H -0.848725 1.288414 -0.002796
loop_
_geom_bond_atom_site_label_1
_geom_bond_atom_site_label_2
_geom_bond_site_symmetry_1
_geom_bond_site_symmetry_2
O1 H1 1_555 1_555
N1 C3 1_555 1_555
C1 O1 1_555 1_555
C2 C1 1_555 1_555
H2 C2 1_555 1_555
C3 C8 1_555 1_555
C4 C7 1_555 1_555
C5 C1 1_555 1_555
C6 N2 1_555 1_555
C7 C5 1_555 1_555
C8 H3 1_555 1_555
C9 H4 1_555 1_555
N2 C18 1_555 1_555
C10 N1 1_555 1_555
H5 C10 1_555 1_555
C11 C3 1_555 1_555
H6 C11 1_555 1_555
C12 C4 1_555 1_555
H7 C12 1_555 1_555
C13 C9 1_555 1_555
H8 C13 1_555 1_555
C14 C2 1_555 1_555
H9 C14 1_555 1_555
C15 C7 1_555 1_555
H10 C15 1_555 1_555
C16 C6 1_555 1_555
H11 C16 1_555 1_555
C17 C6 1_555 1_555
H12 C17 1_555 1_555
C18 H13 1_555 1_555
H14 C18 1_555 1_555
H15 C18 1_555 1_555
C19 N2 1_555 1_555
H16 C19 1_555 1_555
H17 C19 1_555 1_555
H18 C19 1_555 1_555
C4 C14 1_555 1_555
C5 C10 1_555 1_555
C8 C16 1_555 1_555
C9 C15 1_555 1_555
C11 C17 1_555 1_555
C12 C13 1_555 1_555

#END
