
#######################################################################
#
#                 Cambridge Crystallographic Data Centre
#                                CCDC 
#
#######################################################################
#
# If this CIF has been generated from an entry in the Cambridge 
# Structural Database, then it will include bibliographic, chemical, 
# crystal, experimental, refinement or atomic coordinate data resulting 
# from the CCDC's data processing and validation procedures.
#
#######################################################################

data_IGACOK
_chemical_formula_moiety         'C26 H20 N6,3(H2 O1)'
_chemical_name_systematic        
"N,N,N',N'-tetrakis(pyridin-2-yl)benzene-1,3-diamine trihydrate"
_symmetry_cell_setting           monoclinic
_symmetry_space_group_name_H-M   'P 21/c'
_symmetry_Int_Tables_number      14
_space_group_name_Hall           '-P 2ybc'
loop_
_symmetry_equiv_pos_site_id
_symmetry_equiv_pos_as_xyz
1 x,y,z
2 -x,1/2+y,1/2-z
3 -x,-y,-z
4 x,1/2-y,1/2+z
_cell_length_a                   15.439(3)
_cell_length_b                   8.1148(18)
_cell_length_c                   20.524(5)
_cell_angle_alpha                90
_cell_angle_beta                 110.613(5)
_cell_angle_gamma                90
_cell_volume                     2406.72
_exptl_crystal_colour            colorless
_exptl_crystal_description       block
_cell_formula_units_Z            4
loop_
_atom_site_label
_atom_site_type_symbol
_atom_site_fract_x
_atom_site_fract_y
_atom_site_fract_z
N1 N 0.2856(2) 0.9695(5) 0.20280(16)
N2 N 0.1015(2) 0.9376(4) -0.04611(16)
C1 C 0.1947(3) 0.9535(5) 0.0783(2)
H1 H 0.1662 1.0527 0.0813
N3 N 0.2040(3) 1.1449(5) -0.0534(2)
C2 C 0.1710(3) 0.8713(6) 0.0153(2)
C3 C 0.2612(3) 0.8872(6) 0.1368(2)
C4 C -0.0068(3) 0.7354(5) -0.0390(2)
H2 H 0.0220 0.7351 0.0092
N4 N -0.0152(3) 0.8401(6) -0.1492(2)
N5 N 0.3737(3) 1.1539(6) 0.1667(2)
C5 C 0.0241(3) 0.8361(6) -0.0789(2)
C6 C 0.1155(3) 1.0900(6) -0.0733(2)
C7 C 0.3361(3) 1.1161(6) 0.2138(2)
N6 N 0.3475(3) 0.8788(6) 0.3192(2)
C8 C 0.2784(3) 0.8728(6) 0.2584(2)
C9 C 0.0440(3) 1.1777(6) -0.1160(2)
H3 H -0.0162 1.1388 -0.1275
C10 C -0.0800(3) 0.6352(6) -0.0699(3)
H4 H -0.1010 0.5650 -0.0429
C11 C 0.2125(3) 0.7239(6) 0.0109(2)
H5 H 0.1963 0.6689 -0.0314
C12 C 0.3038(3) 0.7410(6) 0.1324(2)
H6 H 0.3496 0.6985 0.1716
C13 C -0.1234(3) 0.6366(7) -0.1413(3)
H7 H -0.1739 0.5688 -0.1629
C14 C 0.1475(6) 1.3822(7) -0.1250(3)
H8 H 0.1587 1.4807 -0.1438
C15 C 0.2789(3) 0.6571(7) 0.0700(3)
H9 H 0.3063 0.5564 0.0674
C16 C 0.2177(4) 1.2943(7) -0.0798(3)
H10 H 0.2775 1.3366 -0.0662
C17 C 0.1980(5) 0.6767(8) 0.2980(4)
H11 H 0.1474 0.6073 0.2904
C18 C 0.0602(5) 1.3219(8) -0.1420(3)
H12 H 0.0108 1.3814 -0.1722
C19 C 0.2022(4) 0.7773(7) 0.2466(3)
H13 H 0.1538 0.7810 0.2040
C20 C 0.3443(4) 1.2177(7) 0.2698(3)
H14 H 0.3153 1.1918 0.3013
C21 C -0.0900(4) 0.7407(7) -0.1790(3)
H15 H -0.1194 0.7439 -0.2271
C22 C 0.3974(4) 1.3601(8) 0.2775(4)
H16 H 0.4052 1.4307 0.3148
C23 C 0.2663(6) 0.6775(8) 0.3595(4)
H17 H 0.2638 0.6090 0.3951
C24 C 0.4226(4) 1.2920(9) 0.1759(4)
H18 H 0.4481 1.3191 0.1424
C25 C 0.4380(4) 1.3953(9) 0.2298(5)
H19 H 0.4751 1.4881 0.2346
C26 C 0.3400(5) 0.7791(9) 0.3699(3)
H20 H 0.3869 0.7803 0.4134
O1 O 0.3917(4) 0.0379(10) 0.0433(3)
H21 H 0.4427 0.0753 0.0712
H22 H 0.4036 -0.0402 0.0201
O2 O 0.5173(6) 0.6959(18) 0.5301(4)
H23 H 0.5013 0.5994 0.5373
H24 H 0.5535 0.7520 0.5637
O3 O 0.5001(8) 0.9374(19) 0.5624(5)
H25 H 0.4872 0.9056 0.5974
H26 H 0.5459 1.0009 0.5680
loop_
_geom_bond_atom_site_label_1
_geom_bond_atom_site_label_2
_geom_bond_site_symmetry_1
_geom_bond_site_symmetry_2
N1 C3 1_555 1_555
N2 C2 1_555 1_555
C1 H1 1_555 1_555
N3 C6 1_555 1_555
C2 C1 1_555 1_555
C3 C1 1_555 1_555
C4 H2 1_555 1_555
N4 C5 1_555 1_555
N5 C7 1_555 1_555
C5 N2 1_555 1_555
C6 N2 1_555 1_555
C7 N1 1_555 1_555
N6 C8 1_555 1_555
C8 N1 1_555 1_555
C9 C6 1_555 1_555
H3 C9 1_555 1_555
C10 C4 1_555 1_555
H4 C10 1_555 1_555
C11 C2 1_555 1_555
H5 C11 1_555 1_555
C12 C3 1_555 1_555
H6 C12 1_555 1_555
C13 C10 1_555 1_555
H7 C13 1_555 1_555
C14 H8 1_555 1_555
C15 C11 1_555 1_555
H9 C15 1_555 1_555
C16 N3 1_555 1_555
H10 C16 1_555 1_555
C17 H11 1_555 1_555
C18 C9 1_555 1_555
H12 C18 1_555 1_555
C19 C8 1_555 1_555
H13 C19 1_555 1_555
C20 C7 1_555 1_555
H14 C20 1_555 1_555
C21 N4 1_555 1_555
H15 C21 1_555 1_555
C22 C20 1_555 1_555
H16 C22 1_555 1_555
C23 C17 1_555 1_555
H17 C23 1_555 1_555
C24 N5 1_555 1_555
H18 C24 1_555 1_555
C25 C22 1_555 1_555
H19 C25 1_555 1_555
C26 N6 1_555 1_555
H20 C26 1_555 1_555
O1 H21 1_555 1_555
H22 O1 1_555 1_555
O2 H23 1_555 1_555
H24 O2 1_555 1_555
O3 H25 1_555 1_555
H26 O3 1_555 1_555
C4 C5 1_555 1_555
C12 C15 1_555 1_555
C13 C21 1_555 1_555
C14 C16 1_555 1_555
C14 C18 1_555 1_555
C17 C19 1_555 1_555
C23 C26 1_555 1_555
C24 C25 1_555 1_555

#END
