
#######################################################################
#
#                 Cambridge Crystallographic Data Centre
#                                CCDC 
#
#######################################################################
#
# If this CIF has been generated from an entry in the Cambridge 
# Structural Database, then it will include bibliographic, chemical, 
# crystal, experimental, refinement or atomic coordinate data resulting 
# from the CCDC's data processing and validation procedures.
#
#######################################################################

data_IGACOL
_chemical_formula_moiety         'C27 H24 N4 O4'
_chemical_name_systematic        
"methyl 1-benzyl-1',2-dioxo-1,2,2',3'-tetrahydro-1'H-spiro[indole-3,5'-pyrazolo[1,2-c][1,3,4]benzotriazepine]-6'(11'H)-carboxylate"
_symmetry_cell_setting           monoclinic
_symmetry_space_group_name_H-M   'P 21/c'
_symmetry_Int_Tables_number      14
_space_group_name_Hall           '-P 2ybc'
loop_
_symmetry_equiv_pos_site_id
_symmetry_equiv_pos_as_xyz
1 x,y,z
2 -x,1/2+y,1/2-z
3 -x,-y,-z
4 x,1/2-y,1/2+z
_cell_length_a                   12.693(5)
_cell_length_b                   17.549(7)
_cell_length_c                   10.385(4)
_cell_angle_alpha                90
_cell_angle_beta                 103.635(11)
_cell_angle_gamma                90
_cell_volume                     2248.06
_exptl_crystal_colour            colorless
_exptl_crystal_description       block
_cell_formula_units_Z            4
loop_
_atom_site_label
_atom_site_type_symbol
_atom_site_fract_x
_atom_site_fract_y
_atom_site_fract_z
O1 O 0.73757(18) 0.50381(13) 0.9502(2)
O2 O 0.65054(18) 0.41045(13) 0.8153(2)
O3 O 0.82501(19) 0.30303(13) 0.7728(3)
O4 O 1.1630(2) 0.38024(15) 0.7025(3)
N1 N 0.7927(2) 0.47410(14) 0.7653(3)
N2 N 0.8928(2) 0.43724(15) 0.6081(3)
N3 N 0.6913(2) 0.31309(14) 0.5795(3)
N4 N 0.9884(2) 0.41010(15) 0.7044(3)
C1 C 0.7203(3) 0.45938(18) 0.8409(3)
C2 C 0.6982(3) 0.43998(18) 0.5313(3)
C3 C 0.7903(3) 0.42531(18) 0.6493(3)
C4 C 0.7720(3) 0.33968(18) 0.6810(4)
C5 C 1.0125(3) 0.44499(19) 0.8368(3)
H1 H 1.0915 0.4432 0.8759
H2 H 0.9756 0.4162 0.8954
C6 C 0.6452(3) 0.37200(18) 0.4912(3)
C7 C 0.5286(3) 0.23272(18) 0.5600(3)
C8 C 0.9743(3) 0.52660(19) 0.8265(3)
C9 C 0.6505(3) 0.23520(18) 0.5724(4)
H3 H 0.6877 0.2072 0.6532
H4 H 0.6675 0.2093 0.4951
C10 C 0.6667(3) 0.5065(2) 0.4630(4)
H5 H 0.7025 0.5532 0.4914
C11 C 1.0680(3) 0.39024(19) 0.6447(4)
C12 C 0.8629(3) 0.53976(18) 0.7897(3)
C13 C 0.8991(3) 0.3951(2) 0.4854(4)
H6 H 0.8660 0.4250 0.4052
H7 H 0.8621 0.3452 0.4808
C14 C 0.4794(3) 0.2824(2) 0.6324(4)
H8 H 0.5228 0.3157 0.6952
C15 C 0.4641(3) 0.18298(19) 0.4723(4)
H9 H 0.4967 0.1475 0.4243
C16 C 0.5298(3) 0.4348(2) 0.3105(4)
H10 H 0.4715 0.4339 0.2340
C17 C 1.0197(3) 0.3851(2) 0.4990(4)
H11 H 1.0354 0.3349 0.4640
H12 H 1.0486 0.4257 0.4508
C18 C 0.8206(3) 0.61324(18) 0.7731(4)
H13 H 0.7446 0.6214 0.7465
C19 C 0.8921(3) 0.6745(2) 0.7964(4)
H14 H 0.8645 0.7251 0.7871
C20 C 0.3686(3) 0.2837(2) 0.6138(4)
H15 H 0.3359 0.3184 0.6628
C21 C 0.5615(3) 0.3678(2) 0.3786(4)
H16 H 0.5272 0.3207 0.3492
C22 C 0.5812(3) 0.5035(2) 0.3513(4)
H17 H 0.5578 0.5487 0.3027
C23 C 1.0437(3) 0.5891(2) 0.8468(3)
H18 H 1.1199 0.5812 0.8703
C24 C 0.3044(3) 0.2350(2) 0.5244(4)
H19 H 0.2278 0.2362 0.5118
C25 C 0.3518(3) 0.1846(2) 0.4537(4)
H20 H 0.3079 0.1508 0.3921
C26 C 1.0030(3) 0.6625(2) 0.8330(4)
H21 H 1.0512 0.7048 0.8487
C27 C 0.6683(3) 0.4877(2) 1.0386(4)
H22 H 0.5938 0.5031 0.9968
H23 H 0.6938 0.5161 1.1213
H24 H 0.6700 0.4330 1.0578
loop_
_geom_bond_atom_site_label_1
_geom_bond_atom_site_label_2
_geom_bond_site_symmetry_1
_geom_bond_site_symmetry_2
O1 C1 1_555 1_555
O2 C1 1_555 1_555
O3 C4 1_555 1_555
O4 C11 1_555 1_555
N1 C1 1_555 1_555
N2 N4 1_555 1_555
N3 C4 1_555 1_555
N4 C5 1_555 1_555
C2 C3 1_555 1_555
C3 N1 1_555 1_555
C4 C3 1_555 1_555
C5 H1 1_555 1_555
H2 C5 1_555 1_555
C6 N3 1_555 1_555
C7 C9 1_555 1_555
C8 C5 1_555 1_555
C9 N3 1_555 1_555
H3 C9 1_555 1_555
H4 C9 1_555 1_555
C10 C2 1_555 1_555
H5 C10 1_555 1_555
C11 N4 1_555 1_555
C12 N1 1_555 1_555
C13 N2 1_555 1_555
H6 C13 1_555 1_555
H7 C13 1_555 1_555
C14 C7 1_555 1_555
H8 C14 1_555 1_555
C15 C7 1_555 1_555
H9 C15 1_555 1_555
C16 H10 1_555 1_555
C17 C11 1_555 1_555
H11 C17 1_555 1_555
H12 C17 1_555 1_555
C18 C12 1_555 1_555
H13 C18 1_555 1_555
C19 C18 1_555 1_555
H14 C19 1_555 1_555
C20 C14 1_555 1_555
H15 C20 1_555 1_555
C21 C6 1_555 1_555
H16 C21 1_555 1_555
C22 C10 1_555 1_555
H17 C22 1_555 1_555
C23 C8 1_555 1_555
H18 C23 1_555 1_555
C24 C20 1_555 1_555
H19 C24 1_555 1_555
C25 C15 1_555 1_555
H20 C25 1_555 1_555
C26 C19 1_555 1_555
H21 C26 1_555 1_555
C27 O1 1_555 1_555
H22 C27 1_555 1_555
H23 C27 1_555 1_555
H24 C27 1_555 1_555
N2 C3 1_555 1_555
C2 C6 1_555 1_555
C8 C12 1_555 1_555
C13 C17 1_555 1_555
C16 C21 1_555 1_555
C16 C22 1_555 1_555
C23 C26 1_555 1_555
C24 C25 1_555 1_555

#END
