
#######################################################################
#
#                 Cambridge Crystallographic Data Centre
#                                CCDC 
#
#######################################################################
#
# If this CIF has been generated from an entry in the Cambridge 
# Structural Database, then it will include bibliographic, chemical, 
# crystal, experimental, refinement or atomic coordinate data resulting 
# from the CCDC's data processing and validation procedures.
#
#######################################################################

data_IGADOL
_chemical_formula_moiety         'C46 H54 N2 Si2'
_chemical_name_systematic        
10,15-bis((triisopropylsilyl)ethynyl)tribenzo[a,c,i]phenazine
_symmetry_cell_setting           triclinic
_symmetry_space_group_name_H-M   'P -1'
_symmetry_Int_Tables_number      2
_space_group_name_Hall           '-P 1'
loop_
_symmetry_equiv_pos_site_id
_symmetry_equiv_pos_as_xyz
1 x,y,z
2 -x,-y,-z
_cell_length_a                   14.8061(10)
_cell_length_b                   16.0206(11)
_cell_length_c                   17.5296(11)
_cell_angle_alpha                97.524(4)
_cell_angle_beta                 98.064(4)
_cell_angle_gamma                90.635(4)
_cell_volume                     4079.67
_exptl_crystal_colour            red
_exptl_crystal_description       rod
_cell_formula_units_Z            4
loop_
_atom_site_label
_atom_site_type_symbol
_atom_site_fract_x
_atom_site_fract_y
_atom_site_fract_z
C1 C 0.1519(3) 0.9371(3) 0.6315(3)
C2 C 0.1056(3) 1.0106(3) 0.6643(3)
C3 C 0.0896(4) 1.0185(3) 0.7415(3)
H1 H 0.1083 0.9764 0.7716
C4 C 0.0467(4) 1.0876(3) 0.7742(3)
H2 H 0.0361 1.0920 0.8256
C5 C 0.0194(4) 1.1505(3) 0.7287(4)
H3 H -0.0094 1.1975 0.7499
C6 C 0.0349(4) 1.1433(3) 0.6531(3)
H4 H 0.0161 1.1859 0.6237
C7 C 0.0781(3) 1.0740(3) 0.6184(3)
C8 C 0.0944(3) 1.0650(3) 0.5368(3)
C9 C 0.0708(3) 1.1273(3) 0.4874(3)
H5 H 0.0436 1.1759 0.5071
C10 C 0.0866(4) 1.1182(3) 0.4123(3)
H6 H 0.0697 1.1603 0.3818
C11 C 0.1276(4) 1.0472(3) 0.3807(3)
H7 H 0.1393 1.0414 0.3295
C12 C 0.1508(3) 0.9849(3) 0.4274(3)
H8 H 0.1766 0.9360 0.4064
C13 C 0.1365(3) 0.9938(3) 0.5044(3)
C14 C 0.1649(3) 0.9270(3) 0.5519(3)
C15 C 0.2343(3) 0.8013(3) 0.5660(2)
C16 C 0.2782(3) 0.7304(3) 0.5339(2)
C17 C 0.3055(3) 0.6669(3) 0.5805(2)
C18 C 0.3455(3) 0.5919(3) 0.5487(3)
H9 H 0.3539 0.5848 0.4967
C19 C 0.3713(3) 0.5310(3) 0.5933(3)
H10 H 0.3959 0.4818 0.5716
C20 C 0.3610(3) 0.5421(3) 0.6728(3)
H11 H 0.3794 0.5001 0.7031
C21 C 0.3246(3) 0.6129(3) 0.7058(2)
H12 H 0.3187 0.6191 0.7583
C22 C 0.2953(3) 0.6781(3) 0.6603(2)
C23 C 0.2566(3) 0.7511(3) 0.6934(2)
C24 C 0.2237(3) 0.8118(3) 0.6456(2)
C25 C 0.2508(3) 0.7698(3) 0.7751(3)
C26 C 0.2476(3) 0.7928(3) 0.8427(3)
C27 C 0.3465(4) 0.9278(3) 0.9507(3)
H13 H 0.4011 0.8971 0.9397
C28 C 0.3713(4) 0.9789(3) 1.0319(3)
H14 H 0.4209 1.0177 1.0312
H15 H 0.3891 0.9413 1.0693
H16 H 0.3193 1.0095 1.0457
C29 C 0.3285(4) 0.9883(3) 0.8891(3)
H17 H 0.3791 1.0278 0.8947
H18 H 0.2738 1.0182 0.8960
H19 H 0.3215 0.9566 0.8381
C30 C 0.1404(4) 0.8973(3) 0.9537(3)
H20 H 0.1444 0.9525 0.9358
C31 C 0.1226(4) 0.9152(4) 1.0390(3)
H21 H 0.0642 0.9401 1.0407
H22 H 0.1694 0.9531 1.0683
H23 H 0.1233 0.8633 1.0610
C32 C 0.0574(4) 0.8519(4) 0.9039(3)
H24 H 0.0035 0.8821 0.9131
H25 H 0.0519 0.7959 0.9171
H26 H 0.0644 0.8488 0.8500
C33 C 0.2805(4) 0.7658(3) 1.0091(3)
H27 H 0.2796 0.7933 1.0623
C34 C 0.3758(4) 0.7326(3) 1.0046(3)
H28 H 0.3885 0.6922 1.0403
H29 H 0.4198 0.7786 1.0180
H30 H 0.3792 0.7062 0.9527
C35 C 0.2090(4) 0.6927(3) 0.9938(3)
H31 H 0.2254 0.6528 1.0294
H32 H 0.2068 0.6653 0.9414
H33 H 0.1501 0.7143 1.0010
C36 C 0.2979(3) 0.7267(3) 0.4556(3)
C37 C 0.3181(3) 0.7298(3) 0.3915(3)
C38 C 0.3379(4) 0.8706(3) 0.3004(3)
H34 H 0.2719 0.8783 0.2948
C39 C 0.3721(4) 0.9007(3) 0.2302(3)
H35 H 0.3603 0.9595 0.2299
H36 H 0.3410 0.8692 0.1833
H37 H 0.4366 0.8924 0.2331
C40 C 0.3799(4) 0.9246(3) 0.3749(3)
H38 H 0.3671 0.9826 0.3712
H39 H 0.4448 0.9179 0.3825
H40 H 0.3545 0.9075 0.4181
C41 C 0.4817(3) 0.7314(3) 0.3050(3)
H41 H 0.5151 0.7838 0.3284
C42 C 0.5092(4) 0.7100(3) 0.2238(3)
H42 H 0.5736 0.7004 0.2284
H43 H 0.4953 0.7560 0.1945
H44 H 0.4762 0.6601 0.1975
C43 C 0.5148(3) 0.6641(3) 0.3568(3)
H45 H 0.5790 0.6567 0.3565
H46 H 0.4825 0.6117 0.3372
H47 H 0.5036 0.6818 0.4090
C44 C 0.2848(3) 0.6909(3) 0.2178(3)
H48 H 0.3090 0.7009 0.1704
C45 C 0.2884(4) 0.5954(3) 0.2228(3)
H49 H 0.2509 0.5653 0.1784
H50 H 0.2663 0.5839 0.2694
H51 H 0.3502 0.5777 0.2236
C46 C 0.1849(3) 0.7183(3) 0.2098(3)
H52 H 0.1501 0.6848 0.1659
H53 H 0.1825 0.7766 0.2025
H54 H 0.1598 0.7106 0.2561
N1 N 0.1808(3) 0.8806(2) 0.6777(2)
N2 N 0.2060(3) 0.8616(2) 0.5200(2)
Si1 Si 0.25272(11) 0.84690(8) 0.94223(7)
Si2 Si 0.35727(10) 0.75419(8) 0.30206(7)
C47 C 0.1474(3) 0.4604(3) 0.6050(3)
C48 C 0.1075(3) 0.5391(3) 0.6351(3)
C49 C 0.1002(3) 0.5562(3) 0.7139(3)
H55 H 0.1212 0.5178 0.7472
C50 C 0.0619(3) 0.6296(3) 0.7432(3)
H56 H 0.0562 0.6402 0.7957
C51 C 0.0323(3) 0.6872(3) 0.6937(3)
H57 H 0.0073 0.7371 0.7133
C52 C 0.0392(4) 0.6715(3) 0.6164(3)
H58 H 0.0180 0.7108 0.5840
C53 C 0.0778(3) 0.5974(3) 0.5843(3)
C54 C 0.0870(3) 0.5801(3) 0.5017(3)
C55 C 0.0569(3) 0.6362(3) 0.4487(3)
H59 H 0.0308 0.6862 0.4666
C56 C 0.0650(4) 0.6188(3) 0.3713(3)
H60 H 0.0436 0.6568 0.3376
C57 C 0.1045(3) 0.5456(3) 0.3426(3)
H61 H 0.1105 0.5344 0.2902
C58 C 0.1349(3) 0.4894(3) 0.3935(3)
H62 H 0.1611 0.4397 0.3750
C59 C 0.1268(3) 0.5065(3) 0.4720(3)
C60 C 0.1581(3) 0.4445(3) 0.5245(3)
C61 C 0.2253(3) 0.3192(3) 0.5455(2)
C62 C 0.2707(3) 0.2473(3) 0.5172(2)
C63 C 0.2958(3) 0.1859(3) 0.5666(2)
C64 C 0.3394(3) 0.1109(3) 0.5399(3)
H63 H 0.3525 0.1023 0.4892
C65 C 0.3620(3) 0.0516(3) 0.5876(3)
H64 H 0.3892 0.0025 0.5688
C66 C 0.3447(3) 0.0636(3) 0.6649(3)
H65 H 0.3617 0.0230 0.6971
C67 C 0.3033(3) 0.1343(3) 0.6932(3)
H66 H 0.2908 0.1408 0.7442
C68 C 0.2787(3) 0.1988(3) 0.6453(2)
C69 C 0.2370(3) 0.2728(3) 0.6747(2)
C70 C 0.2112(3) 0.3337(3) 0.6247(2)
C71 C 0.2271(3) 0.2916(3) 0.7549(3)
C72 C 0.2231(4) 0.3094(3) 0.8230(3)
C73 C 0.1375(6) 0.4231(7) 0.9448(5)
H67 H 0.1488 0.4787 0.9297
C74 C 0.0515(8) 0.3797(8) 0.8960(7)
H68 H 0.0009 0.4164 0.8993
H69 H 0.0384 0.3283 0.9155
H70 H 0.0613 0.3674 0.8428
C75 C 0.1237(8) 0.4301(8) 1.0303(6)
H71 H 0.1222 0.4884 1.0513
H72 H 0.1730 0.4039 1.0589
H73 H 0.0670 0.4023 1.0342
C76 C 0.3404(7) 0.4285(6) 0.9401(6)
H74 H 0.3924 0.3917 0.9360
C77 C 0.3414(5) 0.4810(5) 0.8858(4)
H75 H 0.3337 0.4487 0.8350
H76 H 0.3987 0.5118 0.8945
H77 H 0.2926 0.5196 0.8893
C78 C 0.3515(6) 0.4736(4) 1.0269(3)
H78 H 0.3497 0.4321 1.0615
H79 H 0.3026 0.5117 1.0328
H80 H 0.4088 0.5044 1.0390
C79 C 0.2608(4) 0.2697(3) 0.9874(3)
H81 H 0.2639 0.2953 1.0416
C80 C 0.3547(4) 0.2367(3) 0.9766(3)
H82 H 0.3702 0.1950 1.0106
H83 H 0.3991 0.2823 0.9888
H84 H 0.3541 0.2118 0.9237
C81 C 0.1915(4) 0.1966(4) 0.9740(3)
H85 H 0.2111 0.1560 1.0080
H86 H 0.1863 0.1706 0.9210
H87 H 0.1332 0.2171 0.9845
C82 C 0.2926(3) 0.2388(3) 0.4397(3)
C83 C 0.3156(3) 0.2354(2) 0.3758(3)
C84 C 0.2613(3) 0.2242(3) 0.2039(3)
H88 H 0.2847 0.2302 0.1553
C85 C 0.1896(4) 0.2901(3) 0.2145(3)
H89 H 0.1405 0.2800 0.1721
H90 H 0.2165 0.3451 0.2154
H91 H 0.1666 0.2868 0.2626
C86 C 0.2182(4) 0.1351(3) 0.1955(3)
H92 H 0.1684 0.1287 0.1535
H93 H 0.1961 0.1267 0.2429
H94 H 0.2633 0.0942 0.1847
C87 C 0.4199(4) 0.3459(3) 0.2920(3)
H95 H 0.4828 0.3395 0.3162
C88 C 0.4259(4) 0.3737(3) 0.2124(3)
H96 H 0.4580 0.4271 0.2194
H97 H 0.3655 0.3787 0.1856
H98 H 0.4580 0.3326 0.1824
C89 C 0.3800(4) 0.4169(3) 0.3443(3)
H99 H 0.4147 0.4682 0.3460
H100 H 0.3830 0.4020 0.3959
H101 H 0.3176 0.4246 0.3235
C90 C 0.4424(3) 0.1532(3) 0.2758(3)
H102 H 0.4069 0.1002 0.2711
C91 C 0.4899(4) 0.1499(4) 0.2033(3)
H103 H 0.5298 0.1031 0.2013
H104 H 0.5249 0.2013 0.2056
H105 H 0.4449 0.1434 0.1577
C92 C 0.5143(3) 0.1556(3) 0.3484(3)
H106 H 0.5543 0.1093 0.3415
H107 H 0.4845 0.1515 0.3930
H108 H 0.5492 0.2077 0.3560
N3 N 0.1716(3) 0.4054(2) 0.65387(19)
N4 N 0.1971(3) 0.3765(2) 0.49560(19)
Si3 Si 0.22775(15) 0.35320(9) 0.92523(8)
Si4 Si 0.36069(9) 0.24040(8) 0.28481(7)
C93? C 0.0958(6) 0.3675(8) 0.9311(6)
H109? H 0.0684 0.3109 0.9147
C94? C 0.0476(8) 0.4223(7) 0.8703(6)
H110? H -0.0168 0.4221 0.8725
H111? H 0.0583 0.3993 0.8191
H112? H 0.0719 0.4791 0.8822
C95? C 0.0667(8) 0.3942(8) 1.0111(6)
H113? H 0.0696 0.4546 1.0223
H114? H 0.1070 0.3708 1.0501
H115? H 0.0054 0.3742 1.0110
C96? C 0.2778(8) 0.4556(5) 0.9471(5)
H116? H 0.2291 0.4963 0.9503
loop_
_geom_bond_atom_site_label_1
_geom_bond_atom_site_label_2
_geom_bond_site_symmetry_1
_geom_bond_site_symmetry_2
C1 C2 1_555 1_555
C2 C3 1_555 1_555
C3 H1 1_555 1_555
C4 C3 1_555 1_555
H2 C4 1_555 1_555
C5 C4 1_555 1_555
H3 C5 1_555 1_555
C6 C5 1_555 1_555
H4 C6 1_555 1_555
C7 C2 1_555 1_555
C8 C7 1_555 1_555
C9 C8 1_555 1_555
H5 C9 1_555 1_555
C10 C9 1_555 1_555
H6 C10 1_555 1_555
C11 C10 1_555 1_555
H7 C11 1_555 1_555
C12 C11 1_555 1_555
H8 C12 1_555 1_555
C13 C8 1_555 1_555
C14 C1 1_555 1_555
C15 C16 1_555 1_555
C16 C17 1_555 1_555
C17 C18 1_555 1_555
C18 H9 1_555 1_555
C19 C18 1_555 1_555
H10 C19 1_555 1_555
C20 C19 1_555 1_555
H11 C20 1_555 1_555
C21 C20 1_555 1_555
H12 C21 1_555 1_555
C22 C17 1_555 1_555
C23 C22 1_555 1_555
C24 C15 1_555 1_555
C25 C23 1_555 1_555
C26 C25 1_555 1_555
C27 H13 1_555 1_555
C28 C27 1_555 1_555
H14 C28 1_555 1_555
H15 C28 1_555 1_555
H16 C28 1_555 1_555
C29 C27 1_555 1_555
H17 C29 1_555 1_555
H18 C29 1_555 1_555
H19 C29 1_555 1_555
C30 H20 1_555 1_555
C31 C30 1_555 1_555
H21 C31 1_555 1_555
H22 C31 1_555 1_555
H23 C31 1_555 1_555
C32 C30 1_555 1_555
H24 C32 1_555 1_555
H25 C32 1_555 1_555
H26 C32 1_555 1_555
C33 H27 1_555 1_555
C34 C33 1_555 1_555
H28 C34 1_555 1_555
H29 C34 1_555 1_555
H30 C34 1_555 1_555
C35 C33 1_555 1_555
H31 C35 1_555 1_555
H32 C35 1_555 1_555
H33 C35 1_555 1_555
C36 C16 1_555 1_555
C37 C36 1_555 1_555
C38 H34 1_555 1_555
C39 C38 1_555 1_555
H35 C39 1_555 1_555
H36 C39 1_555 1_555
H37 C39 1_555 1_555
C40 C38 1_555 1_555
H38 C40 1_555 1_555
H39 C40 1_555 1_555
H40 C40 1_555 1_555
C41 H41 1_555 1_555
C42 C41 1_555 1_555
H42 C42 1_555 1_555
H43 C42 1_555 1_555
H44 C42 1_555 1_555
C43 C41 1_555 1_555
H45 C43 1_555 1_555
H46 C43 1_555 1_555
H47 C43 1_555 1_555
C44 H48 1_555 1_555
C45 C44 1_555 1_555
H49 C45 1_555 1_555
H50 C45 1_555 1_555
H51 C45 1_555 1_555
C46 C44 1_555 1_555
H52 C46 1_555 1_555
H53 C46 1_555 1_555
H54 C46 1_555 1_555
N1 C1 1_555 1_555
N2 C14 1_555 1_555
Si1 C26 1_555 1_555
Si2 C37 1_555 1_555
C47 C48 1_555 1_555
C48 C49 1_555 1_555
C49 H55 1_555 1_555
C50 C49 1_555 1_555
H56 C50 1_555 1_555
C51 C50 1_555 1_555
H57 C51 1_555 1_555
C52 C51 1_555 1_555
H58 C52 1_555 1_555
C53 C48 1_555 1_555
C54 C53 1_555 1_555
C55 C54 1_555 1_555
H59 C55 1_555 1_555
C56 C55 1_555 1_555
H60 C56 1_555 1_555
C57 C56 1_555 1_555
H61 C57 1_555 1_555
C58 C57 1_555 1_555
H62 C58 1_555 1_555
C59 C54 1_555 1_555
C60 C47 1_555 1_555
C61 C62 1_555 1_555
C62 C63 1_555 1_555
C63 C64 1_555 1_555
C64 H63 1_555 1_555
C65 C64 1_555 1_555
H64 C65 1_555 1_555
C66 C65 1_555 1_555
H65 C66 1_555 1_555
C67 C66 1_555 1_555
H66 C67 1_555 1_555
C68 C63 1_555 1_555
C69 C68 1_555 1_555
C70 C61 1_555 1_555
C71 C69 1_555 1_555
C72 C71 1_555 1_555
C73 H67 1_555 1_555
C74 C73 1_555 1_555
H68 C74 1_555 1_555
H69 C74 1_555 1_555
H70 C74 1_555 1_555
C75 C73 1_555 1_555
H71 C75 1_555 1_555
H72 C75 1_555 1_555
H73 C75 1_555 1_555
C76 H74 1_555 1_555
C77 C76 1_555 1_555
H75 C77 1_555 1_555
H76 C77 1_555 1_555
H77 C77 1_555 1_555
C78 C76 1_555 1_555
H78 C78 1_555 1_555
H79 C78 1_555 1_555
H80 C78 1_555 1_555
C79 H81 1_555 1_555
C80 C79 1_555 1_555
H82 C80 1_555 1_555
H83 C80 1_555 1_555
H84 C80 1_555 1_555
C81 C79 1_555 1_555
H85 C81 1_555 1_555
H86 C81 1_555 1_555
H87 C81 1_555 1_555
C82 C62 1_555 1_555
C83 C82 1_555 1_555
C84 H88 1_555 1_555
C85 C84 1_555 1_555
H89 C85 1_555 1_555
H90 C85 1_555 1_555
H91 C85 1_555 1_555
C86 C84 1_555 1_555
H92 C86 1_555 1_555
H93 C86 1_555 1_555
H94 C86 1_555 1_555
C87 H95 1_555 1_555
C88 C87 1_555 1_555
H96 C88 1_555 1_555
H97 C88 1_555 1_555
H98 C88 1_555 1_555
C89 C87 1_555 1_555
H99 C89 1_555 1_555
H100 C89 1_555 1_555
H101 C89 1_555 1_555
C90 H102 1_555 1_555
C91 C90 1_555 1_555
H103 C91 1_555 1_555
H104 C91 1_555 1_555
H105 C91 1_555 1_555
C92 C90 1_555 1_555
H106 C92 1_555 1_555
H107 C92 1_555 1_555
H108 C92 1_555 1_555
N3 C47 1_555 1_555
N4 C60 1_555 1_555
Si3 C72 1_555 1_555
Si4 C83 1_555 1_555
C6 C7 1_555 1_555
C12 C13 1_555 1_555
C13 C14 1_555 1_555
C15 N2 1_555 1_555
C21 C22 1_555 1_555
C23 C24 1_555 1_555
C24 N1 1_555 1_555
C27 Si1 1_555 1_555
C30 Si1 1_555 1_555
C33 Si1 1_555 1_555
C38 Si2 1_555 1_555
C41 Si2 1_555 1_555
C44 Si2 1_555 1_555
C52 C53 1_555 1_555
C58 C59 1_555 1_555
C59 C60 1_555 1_555
C61 N4 1_555 1_555
C67 C68 1_555 1_555
C69 C70 1_555 1_555
C70 N3 1_555 1_555
C73 Si3 1_555 1_555
C76 Si3 1_555 1_555
C79 Si3 1_555 1_555
C84 Si4 1_555 1_555
C87 Si4 1_555 1_555
C90 Si4 1_555 1_555

#END
