
#######################################################################
#
#                 Cambridge Crystallographic Data Centre
#                                CCDC 
#
#######################################################################
#
# If this CIF has been generated from an entry in the Cambridge 
# Structural Database, then it will include bibliographic, chemical, 
# crystal, experimental, refinement or atomic coordinate data resulting 
# from the CCDC's data processing and validation procedures.
#
#######################################################################

data_IGAFAY
_chemical_formula_moiety         'C11 H14 N2 O4'
_chemical_name_systematic        
"(E)-Methyl N'-(3,4-dimethoxybenzylidene)hydrazinecarboxylate"
_symmetry_cell_setting           triclinic
_symmetry_space_group_name_H-M   'P 1'
_symmetry_Int_Tables_number      1
_space_group_name_Hall           'P 1'
loop_
_symmetry_equiv_pos_site_id
_symmetry_equiv_pos_as_xyz
1 x,y,z
_cell_length_a                   8.5276(11)
_cell_length_b                   8.5517(11)
_cell_length_c                   8.6259(11)
_cell_angle_alpha                92.919(5)
_cell_angle_beta                 94.209(4)
_cell_angle_gamma                94.146(5)
_cell_volume                     624.709
_exptl_crystal_colour            colorless
_exptl_crystal_description       block
_chemical_melting_point          468-470K
_cell_formula_units_Z            2
_exptl_crystal_recrystallization_method ethanol
loop_
_atom_site_label
_atom_site_type_symbol
_atom_site_fract_x
_atom_site_fract_y
_atom_site_fract_z
C1 C -0.1778(4) 0.3653(5) 0.7975(4)
H1 H -0.2261 0.2682 0.8289
H2 H -0.2577 0.4272 0.7539
H3 H -0.1225 0.4220 0.8864
C2 C 0.1762(4) 0.2088(4) 0.3329(3)
H4 H 0.2870 0.2400 0.3409
H5 H 0.1272 0.2484 0.2407
H6 H 0.1609 0.0962 0.3274
C3 C 0.0551(3) 0.2502(3) 0.7257(3)
C4 C 0.0913(3) 0.1979(3) 0.8721(3)
H7 H 0.0267 0.2187 0.9518
C5 C 0.2224(3) 0.1151(3) 0.9009(3)
H8 H 0.2446 0.0798 0.9998
C6 C 0.3208(3) 0.0839(3) 0.7857(2)
C7 C 0.2846(3) 0.1357(3) 0.6355(2)
H9 H 0.3497 0.1150 0.5562
C8 C 0.1542(3) 0.2161(3) 0.6063(2)
C9 C 0.4603(3) -0.0029(3) 0.8201(3)
H10 H 0.4750 -0.0452 0.9168
C10 C 0.8018(3) -0.1300(3) 0.6745(3)
C11 C 1.0411(4) -0.2537(4) 0.6641(4)
H11 H 1.0612 -0.1752 0.5909
H12 H 1.0213 -0.3547 0.6096
H13 H 1.1313 -0.2552 0.7374
O1 O -0.0693(2) 0.3330(2) 0.6835(2)
O2 O 0.1079(2) 0.2698(2) 0.46445(18)
O3 O 0.8131(2) -0.0794(2) 0.5477(2)
O4 O 0.9058(2) -0.2180(3) 0.7456(2)
N1 N 0.5617(2) -0.0216(2) 0.7210(2)
N2 N 0.6856(3) -0.1066(3) 0.7687(2)
H14 H 0.6889 -0.1449 0.8591
C12 C 0.8912(4) 0.8997(4) 0.1431(4)
H15 H 0.8874 0.9151 0.2538
H16 H 0.8869 0.9989 0.0963
H17 H 0.9876 0.8546 0.1209
C13 C 0.4029(4) 0.5264(5) -0.1260(4)
H18 H 0.4310 0.4251 -0.1626
H19 H 0.3617 0.5814 -0.2124
H20 H 0.3243 0.5137 -0.0525
C14 C 0.6174(3) 0.5505(3) 0.0681(2)
C15 C 0.7418(3) 0.6523(3) 0.1397(2)
C16 C 0.5874(3) 0.4031(3) 0.1205(3)
H21 H 0.5047 0.3365 0.0728
C17 C 0.8352(3) 0.6017(3) 0.2610(3)
H22 H 0.9194 0.6672 0.3073
C18 C 0.6816(3) 0.3529(3) 0.2460(3)
C19 C 0.8042(3) 0.4530(3) 0.3147(3)
H23 H 0.8669 0.4205 0.3980
C20 C 0.6530(3) 0.1995(3) 0.3102(3)
H24 H 0.7189 0.1738 0.3944
C21 C 0.4159(3) -0.1482(3) 0.2941(3)
C22 C 0.3184(5) -0.3964(4) 0.3679(5)
H25 H 0.3118 -0.4332 0.2604
H26 H 0.2171 -0.3659 0.3945
H27 H 0.3501 -0.4787 0.4321
O5 O 0.7603(2) 0.7965(2) 0.08141(19)
O6 O 0.5370(2) 0.6126(2) -0.0536(2)
O7 O 0.3145(3) -0.1471(3) 0.1902(3)
O8 O 0.4310(3) -0.2649(2) 0.3923(3)
N3 N 0.5424(3) 0.0995(2) 0.2565(2)
N4 N 0.5318(3) -0.0368(3) 0.3347(2)
H28 H 0.6002 -0.0504 0.4102
loop_
_geom_bond_atom_site_label_1
_geom_bond_atom_site_label_2
_geom_bond_site_symmetry_1
_geom_bond_site_symmetry_2
C1 H1 1_555 1_555
H2 C1 1_555 1_555
H3 C1 1_555 1_555
C2 H4 1_555 1_555
H5 C2 1_555 1_555
H6 C2 1_555 1_555
C3 C4 1_555 1_555
C4 H7 1_555 1_555
C5 C4 1_555 1_555
H8 C5 1_555 1_555
C6 C5 1_555 1_555
C7 C6 1_555 1_555
H9 C7 1_555 1_555
C8 C3 1_555 1_555
C9 C6 1_555 1_555
H10 C9 1_555 1_555
C10 O3 1_555 1_555
C11 H11 1_555 1_555
H12 C11 1_555 1_555
H13 C11 1_555 1_555
O1 C1 1_555 1_555
O2 C2 1_555 1_555
O4 C10 1_555 1_555
N1 C9 1_555 1_555
N2 C10 1_555 1_555
H14 N2 1_555 1_555
C12 H15 1_555 1_555
H16 C12 1_555 1_555
H17 C12 1_555 1_555
C13 H18 1_555 1_555
H19 C13 1_555 1_555
H20 C13 1_555 1_555
C14 C15 1_555 1_555
C15 C17 1_555 1_555
C16 C14 1_555 1_555
H21 C16 1_555 1_555
C17 H22 1_555 1_555
C18 C16 1_555 1_555
C19 C17 1_555 1_555
H23 C19 1_555 1_555
C20 C18 1_555 1_555
H24 C20 1_555 1_555
C21 O7 1_555 1_555
C22 H25 1_555 1_555
H26 C22 1_555 1_555
H27 C22 1_555 1_555
O5 C12 1_555 1_555
O6 C13 1_555 1_555
O8 C21 1_555 1_555
N3 C20 1_555 1_555
N4 C21 1_555 1_555
H28 N4 1_555 1_555
C3 O1 1_555 1_555
C7 C8 1_555 1_555
C8 O2 1_555 1_555
C11 O4 1_555 1_555
N1 N2 1_555 1_555
C14 O6 1_555 1_555
C15 O5 1_555 1_555
C18 C19 1_555 1_555
C22 O8 1_555 1_555
N3 N4 1_555 1_555

#END
