
#######################################################################
#
#                 Cambridge Crystallographic Data Centre
#                                CCDC 
#
#######################################################################
#
# If this CIF has been generated from an entry in the Cambridge 
# Structural Database, then it will include bibliographic, chemical, 
# crystal, experimental, refinement or atomic coordinate data resulting 
# from the CCDC's data processing and validation procedures.
#
#######################################################################

data_IGAGII
_chemical_formula_moiety         'C24 H37 N1 O5'
_chemical_name_systematic        
'Di-t-butyl (2-((2,2-dimethylpropanoyl)amino)-4,5-dimethylphenyl)malonate'
_symmetry_cell_setting           monoclinic
_symmetry_space_group_name_H-M   'P 21'
_symmetry_Int_Tables_number      4
_space_group_name_Hall           'P 2yb'
loop_
_symmetry_equiv_pos_site_id
_symmetry_equiv_pos_as_xyz
1 x,y,z
2 -x,1/2+y,-z
_cell_length_a                   9.8535(3)
_cell_length_b                   12.5734(4)
_cell_length_c                   10.7133(3)
_cell_angle_alpha                90
_cell_angle_beta                 103.496(2)
_cell_angle_gamma                90
_cell_volume                     1290.64
_exptl_crystal_colour            colorless
_exptl_crystal_description       PLATE
_cell_formula_units_Z            2
loop_
_atom_site_label
_atom_site_type_symbol
_atom_site_fract_x
_atom_site_fract_y
_atom_site_fract_z
O1 O 0.19527(18) 0.57751(11) 0.83213(11)
O2 O 0.51217(14) 0.56883(12) 0.53704(13)
O3 O 0.56619(11) 0.43957(11) 0.68545(10)
O4 O 0.20610(13) 0.50859(13) 0.37371(10)
O5 O 0.36235(11) 0.42680(11) 0.28353(9)
N1 N 0.21086(13) 0.52678(10) 0.63488(12)
H1 H 0.2166 0.5496 0.5606
C1 C 0.21824(14) 0.41551(12) 0.65311(13)
C2 C 0.14445(16) 0.36488(13) 0.73132(15)
H2 H 0.0916 0.4058 0.7747
C3 C 0.14653(16) 0.25541(14) 0.74726(16)
C4 C 0.22706(18) 0.19344(14) 0.68294(17)
C5 C 0.30128(16) 0.24504(14) 0.60609(15)
H3 H 0.3554 0.2041 0.5639
C6 C 0.29953(15) 0.35422(13) 0.58840(13)
C7 C 0.38920(15) 0.40144(14) 0.50505(14)
H4 H 0.4422 0.3425 0.4800
C8 C 0.49590(16) 0.48152(17) 0.57619(15)
C9 C 0.67976(18) 0.49611(18) 0.77431(19)
C10 C 0.6223(3) 0.5942(3) 0.8227(3)
H5 H 0.5963 0.6446 0.7539
H6 H 0.6921 0.6250 0.8908
H7 H 0.5418 0.5759 0.8542
C11 C 0.7222(3) 0.4163(2) 0.8816(2)
H8 H 0.6458 0.4047 0.9215
H9 H 0.8010 0.4431 0.9441
H10 H 0.7469 0.3504 0.8475
C12 C 0.7957(2) 0.5175(3) 0.7082(3)
H11 H 0.7646 0.5677 0.6400
H12 H 0.8219 0.4523 0.6734
H13 H 0.8748 0.5460 0.7689
C13 C 0.30705(17) 0.45200(15) 0.38146(14)
C14 C 0.30687(17) 0.47250(16) 0.15292(14)
C15 C 0.3270(2) 0.59128(19) 0.15910(19)
H14 H 0.2672 0.6221 0.2083
H15 H 0.3043 0.6201 0.0738
H16 H 0.4225 0.6073 0.1992
C16 C 0.3981(2) 0.4202(2) 0.07568(17)
H17 H 0.4930 0.4427 0.1074
H18 H 0.3668 0.4403 -0.0128
H19 H 0.3925 0.3444 0.0833
C17 C 0.1567(2) 0.4393(2) 0.10317(17)
H20 H 0.0994 0.4745 0.1517
H21 H 0.1489 0.3637 0.1119
H22 H 0.1263 0.4586 0.0143
C18 C 0.19560(16) 0.60173(14) 0.72236(15)
C19 C 0.17757(17) 0.71643(14) 0.67677(16)
C20 C 0.0571(7) 0.7229(5) 0.5635(5)
H23 H -0.0284 0.7150 0.5911
H24 H 0.0641 0.6673 0.5040
H25 H 0.0577 0.7907 0.5225
C21 C 0.1560(10) 0.7809(5) 0.7892(6)
H26 H 0.1492 0.7340 0.8582
H27 H 0.0715 0.8215 0.7637
H28 H 0.2336 0.8282 0.8172
C22 C 0.3038(5) 0.7549(4) 0.6338(8)
H29 H 0.3783 0.7684 0.7076
H30 H 0.2812 0.8193 0.5853
H31 H 0.3325 0.7016 0.5812
C23 C 0.0626(2) 0.20453(18) 0.8318(2)
H32 H 0.0152 0.2587 0.8685
H33 H 0.1237 0.1656 0.8993
H34 H -0.0047 0.1569 0.7817
C24 C 0.2304(3) 0.07472(17) 0.6941(3)
H35 H 0.2898 0.0461 0.6430
H36 H 0.1377 0.0470 0.6642
H37 H 0.2658 0.0549 0.7822
C25? C 0.0334(4) 0.7519(4) 0.6734(5)
H38? H 0.0159 0.7456 0.7576
H39? H -0.0317 0.7084 0.6144
H40? H 0.0224 0.8248 0.6461
C26? C 0.2854(6) 0.7793(6) 0.7672(6)
H41? H 0.2766 0.7674 0.8535
H42? H 0.2726 0.8535 0.7469
H43? H 0.3765 0.7576 0.7596
C27? C 0.1980(6) 0.7333(4) 0.5393(5)
H44? H 0.1960 0.6658 0.4971
H45? H 0.2863 0.7672 0.5435
H46? H 0.1244 0.7776 0.4919
loop_
_geom_bond_atom_site_label_1
_geom_bond_atom_site_label_2
_geom_bond_site_symmetry_1
_geom_bond_site_symmetry_2
O1 C18 1_555 1_555
O2 C8 1_555 1_555
O3 C8 1_555 1_555
O4 C13 1_555 1_555
O5 C13 1_555 1_555
N1 H1 1_555 1_555
C1 N1 1_555 1_555
C2 C1 1_555 1_555
H2 C2 1_555 1_555
C3 C2 1_555 1_555
C4 C3 1_555 1_555
C5 C4 1_555 1_555
H3 C5 1_555 1_555
C6 C1 1_555 1_555
C7 C6 1_555 1_555
H4 C7 1_555 1_555
C8 C7 1_555 1_555
C9 O3 1_555 1_555
C10 C9 1_555 1_555
H5 C10 1_555 1_555
H6 C10 1_555 1_555
H7 C10 1_555 1_555
C11 C9 1_555 1_555
H8 C11 1_555 1_555
H9 C11 1_555 1_555
H10 C11 1_555 1_555
C12 C9 1_555 1_555
H11 C12 1_555 1_555
H12 C12 1_555 1_555
H13 C12 1_555 1_555
C13 C7 1_555 1_555
C14 O5 1_555 1_555
C15 C14 1_555 1_555
H14 C15 1_555 1_555
H15 C15 1_555 1_555
H16 C15 1_555 1_555
C16 C14 1_555 1_555
H17 C16 1_555 1_555
H18 C16 1_555 1_555
H19 C16 1_555 1_555
C17 C14 1_555 1_555
H20 C17 1_555 1_555
H21 C17 1_555 1_555
H22 C17 1_555 1_555
C18 N1 1_555 1_555
C19 C18 1_555 1_555
C20 C19 1_555 1_555
H23 C20 1_555 1_555
H24 C20 1_555 1_555
H25 C20 1_555 1_555
C21 C19 1_555 1_555
H26 C21 1_555 1_555
H27 C21 1_555 1_555
H28 C21 1_555 1_555
C22 C19 1_555 1_555
H29 C22 1_555 1_555
H30 C22 1_555 1_555
H31 C22 1_555 1_555
C23 C3 1_555 1_555
H32 C23 1_555 1_555
H33 C23 1_555 1_555
H34 C23 1_555 1_555
C24 C4 1_555 1_555
H35 C24 1_555 1_555
H36 C24 1_555 1_555
H37 C24 1_555 1_555
C5 C6 1_555 1_555

#END
