
#######################################################################
#
#                 Cambridge Crystallographic Data Centre
#                                CCDC 
#
#######################################################################
#
# If this CIF has been generated from an entry in the Cambridge 
# Structural Database, then it will include bibliographic, chemical, 
# crystal, experimental, refinement or atomic coordinate data resulting 
# from the CCDC's data processing and validation procedures.
#
#######################################################################

data_IGAGON
_chemical_name_common            
(2,4-Dinitrophenyl)(1-methyl-1-nitroethyl)diazene
_chemical_formula_moiety         'C9 H9 N5 O6'
_chemical_name_systematic        
1-(2,4-Dinitrophenyl)-2-(2-nitro-2-propanyl)diazene
_symmetry_cell_setting           monoclinic
_symmetry_space_group_name_H-M   'C 2/c'
_symmetry_Int_Tables_number      15
_space_group_name_Hall           '-C 2yn'
loop_
_symmetry_equiv_pos_site_id
_symmetry_equiv_pos_as_xyz
1 x,y,z
2 1/2+x,1/2+y,z
3 -x,y,1/2-z
4 1/2-x,1/2+y,1/2-z
5 -x,-y,-z
6 1/2-x,1/2-y,-z
7 x,-y,1/2+z
8 1/2+x,1/2-y,1/2+z
_cell_length_a                   13.495(4)
_cell_length_b                   12.847(4)
_cell_length_c                   14.362(3)
_cell_angle_alpha                90
_cell_angle_beta                 92.18(3)
_cell_angle_gamma                90
_cell_volume                     2488.14
_exptl_crystal_colour            yellow
_exptl_crystal_description       prism
_cell_formula_units_Z            8
loop_
_atom_site_label
_atom_site_type_symbol
_atom_site_fract_x
_atom_site_fract_y
_atom_site_fract_z
O1 O 0.4199(4) 0.4172(3) 0.3171(2)
O2 O 0.3274(3) 0.4313(2) 0.1933(2)
O3 O 0.2968(2) 0.1231(3) 0.00469(19)
O4 O 0.2871(3) -0.0239(4) 0.0731(3)
O5 O 0.4965(3) 0.1031(3) 0.6134(3)
O6 O 0.5905(3) 0.2187(3) 0.6742(2)
N1 N 0.3952(2) 0.2560(2) 0.42044(18)
N2 N 0.4630(2) 0.2226(2) 0.46842(17)
N3 N 0.3672(3) 0.3804(3) 0.2542(3)
N4 N 0.3057(2) 0.0686(4) 0.0723(2)
N5 N 0.5245(3) 0.1903(4) 0.6209(2)
C1 C 0.3831(2) 0.2084(3) 0.33028(19)
C2 C 0.3611(2) 0.2680(3) 0.2510(2)
C3 C 0.3345(2) 0.2222(3) 0.1672(2)
H1 H 0.3181 0.2624 0.1150
C4 C 0.3330(2) 0.1171(3) 0.1629(2)
C5 C 0.3567(3) 0.0556(3) 0.2382(2)
H2 H 0.3564 -0.0166 0.2327
C6 C 0.3809(2) 0.1023(3) 0.3226(2)
H3 H 0.3959 0.0613 0.3746
C7 C 0.4696(3) 0.2740(3) 0.5614(2)
C8 C 0.3722(3) 0.2914(4) 0.6046(2)
H4 H 0.3377 0.3472 0.5729
H5 H 0.3829 0.3091 0.6691
H6 H 0.3331 0.2290 0.5996
C9 C 0.5338(5) 0.3655(4) 0.5534(3)
H7 H 0.5940 0.3458 0.5246
H8 H 0.5492 0.3931 0.6144
H9 H 0.5001 0.4175 0.5161
loop_
_geom_bond_atom_site_label_1
_geom_bond_atom_site_label_2
_geom_bond_site_symmetry_1
_geom_bond_site_symmetry_2
O1 N3 1_555 1_555
O2 N3 1_555 1_555
O3 N4 1_555 1_555
O4 N4 1_555 1_555
O5 N5 1_555 1_555
O6 N5 1_555 1_555
N1 N2 1_555 1_555
N2 C7 1_555 1_555
N3 C2 1_555 1_555
N4 C4 1_555 1_555
N5 C7 1_555 1_555
C1 N1 1_555 1_555
C2 C1 1_555 1_555
C3 C2 1_555 1_555
H1 C3 1_555 1_555
C4 C3 1_555 1_555
C5 C4 1_555 1_555
H2 C5 1_555 1_555
C6 C1 1_555 1_555
H3 C6 1_555 1_555
C7 C8 1_555 1_555
C8 H4 1_555 1_555
H5 C8 1_555 1_555
H6 C8 1_555 1_555
C9 C7 1_555 1_555
H7 C9 1_555 1_555
H8 C9 1_555 1_555
H9 C9 1_555 1_555
C5 C6 1_555 1_555

#END
