
#######################################################################
#
#                 Cambridge Crystallographic Data Centre
#                                CCDC 
#
#######################################################################
#
# If this CIF has been generated from an entry in the Cambridge 
# Structural Database, then it will include bibliographic, chemical, 
# crystal, experimental, refinement or atomic coordinate data resulting 
# from the CCDC's data processing and validation procedures.
#
#######################################################################

data_IGAHIK
_chemical_formula_moiety         'C20 H22 Cl1 N1 O2'
_chemical_name_systematic        
4-chloro-3-[2,6-bis(propan-2-yl)phenyl]-3,4-dihydro-2H-1,3-benzoxazin-2-one
_symmetry_cell_setting           monoclinic
_symmetry_space_group_name_H-M   'P 21/c'
_symmetry_Int_Tables_number      14
_space_group_name_Hall           '-P 2ybc'
loop_
_symmetry_equiv_pos_site_id
_symmetry_equiv_pos_as_xyz
1 x,y,z
2 -x,1/2+y,1/2-z
3 -x,-y,-z
4 x,1/2-y,1/2+z
_cell_length_a                   8.2180(16)
_cell_length_b                   13.401(3)
_cell_length_c                   15.362(3)
_cell_angle_alpha                90
_cell_angle_beta                 90.57(3)
_cell_angle_gamma                90
_cell_volume                     1691.72
_exptl_crystal_colour            colorless
_exptl_crystal_description       block
_cell_formula_units_Z            4
_chemical_properties_physical    Air-sensitive,Moisture-sensitive
_exptl_crystal_recrystallization_method toluene
loop_
_atom_site_label
_atom_site_type_symbol
_atom_site_fract_x
_atom_site_fract_y
_atom_site_fract_z
Cl1 Cl 0.49241(3) 0.23401(2) 0.37887(2)
C1 C 0.67429(13) 0.31278(8) 0.39932(7)
H1 H 0.6561 0.3519 0.4538
C2 C 0.81620(14) 0.24614(8) 0.41381(7)
C3 C 0.84627(15) 0.19720(9) 0.49256(7)
H2 H 0.7758 0.2073 0.5404
C4 C 0.97932(16) 0.13363(9) 0.50100(8)
H3 H 1.0006 0.1009 0.5548
C5 C 1.08132(15) 0.11810(9) 0.43037(8)
H4 H 1.1712 0.0739 0.4361
C6 C 1.05336(14) 0.16633(9) 0.35171(8)
H5 H 1.1232 0.1560 0.3037
C7 C 0.92028(14) 0.23024(8) 0.34500(7)
C8 C 0.80047(13) 0.36215(8) 0.26063(7)
C9 C 0.60148(13) 0.47146(8) 0.32796(7)
C10 C 0.64497(13) 0.54805(8) 0.38634(7)
C11 C 0.54219(15) 0.63080(9) 0.39134(7)
H6 H 0.5676 0.6832 0.4308
C12 C 0.40324(15) 0.63746(9) 0.33929(8)
H7 H 0.3329 0.6934 0.3445
C13 C 0.36694(14) 0.56280(9) 0.27980(8)
H8 H 0.2735 0.5693 0.2433
C14 C 0.46496(13) 0.47809(8) 0.27233(7)
C15 C 0.80486(14) 0.54542(9) 0.43778(7)
H9 H 0.8310 0.4740 0.4507
C16 C 0.94205(15) 0.58756(10) 0.38146(8)
H10 H 1.0447 0.5859 0.4145
H11 H 0.9525 0.5471 0.3287
H12 H 0.9165 0.6566 0.3653
C17 C 0.79606(16) 0.60113(10) 0.52431(8)
H13 H 0.9016 0.5970 0.5544
H14 H 0.7689 0.6713 0.5134
H15 H 0.7120 0.5709 0.5606
C18 C 0.42035(14) 0.39996(9) 0.20469(7)
H16 H 0.4952 0.3418 0.2126
C19 C 0.44390(17) 0.44146(10) 0.11225(8)
H17 H 0.4146 0.3901 0.0694
H18 H 0.3741 0.5000 0.1038
H19 H 0.5580 0.4606 0.1047
C20 C 0.24559(15) 0.36312(10) 0.21631(9)
H20 H 0.2203 0.3129 0.1718
H21 H 0.2344 0.3335 0.2743
H22 H 0.1702 0.4194 0.2103
N1 N 0.70073(11) 0.38178(7) 0.32943(6)
O1 O 0.81079(11) 0.41394(7) 0.19673(5)
O2 O 0.89372(10) 0.27775(6) 0.26578(5)
loop_
_geom_bond_atom_site_label_1
_geom_bond_atom_site_label_2
_geom_bond_site_symmetry_1
_geom_bond_site_symmetry_2
Cl1 C1 1_555 1_555
C1 H1 1_555 1_555
C2 C1 1_555 1_555
C3 C2 1_555 1_555
H2 C3 1_555 1_555
C4 C3 1_555 1_555
H3 C4 1_555 1_555
C5 C4 1_555 1_555
H4 C5 1_555 1_555
C6 C5 1_555 1_555
H5 C6 1_555 1_555
C7 C2 1_555 1_555
C8 N1 1_555 1_555
C9 C10 1_555 1_555
C10 C11 1_555 1_555
C11 H6 1_555 1_555
C12 C11 1_555 1_555
H7 C12 1_555 1_555
C13 C12 1_555 1_555
H8 C13 1_555 1_555
C14 C9 1_555 1_555
C15 C10 1_555 1_555
H9 C15 1_555 1_555
C16 C15 1_555 1_555
H10 C16 1_555 1_555
H11 C16 1_555 1_555
H12 C16 1_555 1_555
C17 C15 1_555 1_555
H13 C17 1_555 1_555
H14 C17 1_555 1_555
H15 C17 1_555 1_555
C18 C14 1_555 1_555
H16 C18 1_555 1_555
C19 C18 1_555 1_555
H17 C19 1_555 1_555
H18 C19 1_555 1_555
H19 C19 1_555 1_555
C20 C18 1_555 1_555
H20 C20 1_555 1_555
H21 C20 1_555 1_555
H22 C20 1_555 1_555
N1 C1 1_555 1_555
O1 C8 1_555 1_555
O2 C7 1_555 1_555
C6 C7 1_555 1_555
C8 O2 1_555 1_555
C9 N1 1_555 1_555
C13 C14 1_555 1_555

#END
