
#######################################################################
#
#                 Cambridge Crystallographic Data Centre
#                                CCDC 
#
#######################################################################
#
# If this CIF has been generated from an entry in the Cambridge 
# Structural Database, then it will include bibliographic, chemical, 
# crystal, experimental, refinement or atomic coordinate data resulting 
# from the CCDC's data processing and validation procedures.
#
#######################################################################

data_IGAJAE
_chemical_formula_moiety         'C25 H30 N2 O2'
_chemical_name_systematic        
4-[(t-butylimino)methylidene]-3-[2,6-bis(propan-2-yl)phenyl]-3,4-dihydro-2H-1,3-benzoxazin-2-one
_symmetry_cell_setting           monoclinic
_symmetry_space_group_name_H-M   'P 21/c'
_symmetry_Int_Tables_number      14
_space_group_name_Hall           '-P 2ybc'
loop_
_symmetry_equiv_pos_site_id
_symmetry_equiv_pos_as_xyz
1 x,y,z
2 -x,1/2+y,1/2-z
3 -x,-y,-z
4 x,1/2-y,1/2+z
_cell_length_a                   10.0373(8)
_cell_length_b                   13.5909(9)
_cell_length_c                   16.1414(12)
_cell_angle_alpha                90
_cell_angle_beta                 99.399(3)
_cell_angle_gamma                90
_cell_volume                     2172.38
_exptl_crystal_colour            'light yellow'
_exptl_crystal_description       block
_cell_formula_units_Z            4
_exptl_crystal_recrystallization_method pentane
loop_
_atom_site_label
_atom_site_type_symbol
_atom_site_fract_x
_atom_site_fract_y
_atom_site_fract_z
O1 O 0.9535(2) 0.35965(14) 0.17574(13)
O2 O 1.0396(2) 0.24089(15) 0.26223(14)
N1 N 0.8127(2) 0.24050(17) 0.21876(15)
N2 N 0.4874(3) 0.17929(18) 0.11773(16)
C1 C 0.9393(3) 0.2765(2) 0.22220(19)
C2 C 0.6965(3) 0.2821(2) 0.16657(18)
C3 C 0.7127(3) 0.3838(2) 0.14110(18)
C4 C 0.6061(3) 0.4468(2) 0.10999(18)
H1 H 0.5157 0.4237 0.1045
C5 C 0.6308(3) 0.5423(2) 0.08714(19)
H2 H 0.5578 0.5844 0.0655
C6 C 0.7624(3) 0.5763(2) 0.09596(19)
H3 H 0.7792 0.6421 0.0808
C7 C 0.8698(3) 0.5156(2) 0.12651(19)
H4 H 0.9601 0.5389 0.1327
C8 C 0.8422(3) 0.4204(2) 0.14783(18)
C9 C 0.7926(3) 0.1561(2) 0.27035(19)
C10 C 0.7775(3) 0.1729(2) 0.35370(18)
C11 C 0.7578(3) 0.0910(2) 0.40158(19)
H5 H 0.7470 0.0996 0.4585
C12 C 0.7535(3) -0.0027(2) 0.36834(19)
H6 H 0.7395 -0.0575 0.4024
C13 C 0.7695(3) -0.0172(2) 0.28558(19)
H7 H 0.7674 -0.0820 0.2635
C14 C 0.7887(3) 0.0625(2) 0.23444(18)
C15 C 0.7867(3) 0.2748(2) 0.39399(19)
H8 H 0.7916 0.3245 0.3489
C16 C 0.9167(4) 0.2819(3) 0.4578(2)
H9 H 0.9137 0.2342 0.5030
H10 H 0.9255 0.3485 0.4815
H11 H 0.9943 0.2677 0.4300
C17 C 0.6626(4) 0.2979(2) 0.4342(2)
H12 H 0.5816 0.2962 0.3911
H13 H 0.6724 0.3635 0.4597
H14 H 0.6544 0.2488 0.4775
C18 C 0.8109(3) 0.0454(2) 0.14457(19)
H15 H 0.7980 0.1097 0.1142
C19 C 0.7112(4) -0.0279(3) 0.0977(2)
H16 H 0.7255 -0.0927 0.1243
H17 H 0.7251 -0.0323 0.0392
H18 H 0.6187 -0.0059 0.0996
C20 C 0.9564(4) 0.0121(3) 0.1446(2)
H19 H 0.9690 -0.0541 0.1687
H20 H 1.0185 0.0579 0.1783
H21 H 0.9750 0.0112 0.0869
C21 C 0.5870(3) 0.2288(2) 0.14482(18)
C22 C 0.3688(3) 0.1684(2) 0.16286(19)
C23 C 0.3571(3) 0.0584(2) 0.1786(2)
H22 H 0.3427 0.0234 0.1248
H23 H 0.2806 0.0463 0.2080
H24 H 0.4404 0.0349 0.2131
C24 C 0.2467(3) 0.2059(2) 0.1021(2)
H25 H 0.2606 0.2751 0.0888
H26 H 0.1655 0.1998 0.1282
H27 H 0.2356 0.1668 0.0505
C25 C 0.3885(3) 0.2250(2) 0.2451(2)
H28 H 0.4640 0.1964 0.2838
H29 H 0.3060 0.2210 0.2701
H30 H 0.4083 0.2940 0.2345
loop_
_geom_bond_atom_site_label_1
_geom_bond_atom_site_label_2
_geom_bond_site_symmetry_1
_geom_bond_site_symmetry_2
O1 C1 1_555 1_555
O2 C1 1_555 1_555
N1 C1 1_555 1_555
N2 C21 1_555 1_555
C2 N1 1_555 1_555
C3 C2 1_555 1_555
C4 C3 1_555 1_555
H1 C4 1_555 1_555
C5 C4 1_555 1_555
H2 C5 1_555 1_555
C6 C5 1_555 1_555
H3 C6 1_555 1_555
C7 C6 1_555 1_555
H4 C7 1_555 1_555
C8 O1 1_555 1_555
C9 N1 1_555 1_555
C10 C9 1_555 1_555
C11 C10 1_555 1_555
H5 C11 1_555 1_555
C12 C11 1_555 1_555
H6 C12 1_555 1_555
C13 C12 1_555 1_555
H7 C13 1_555 1_555
C14 C9 1_555 1_555
C15 C10 1_555 1_555
H8 C15 1_555 1_555
C16 C15 1_555 1_555
H9 C16 1_555 1_555
H10 C16 1_555 1_555
H11 C16 1_555 1_555
C17 C15 1_555 1_555
H12 C17 1_555 1_555
H13 C17 1_555 1_555
H14 C17 1_555 1_555
C18 C14 1_555 1_555
H15 C18 1_555 1_555
C19 C18 1_555 1_555
H16 C19 1_555 1_555
H17 C19 1_555 1_555
H18 C19 1_555 1_555
C20 C18 1_555 1_555
H19 C20 1_555 1_555
H20 C20 1_555 1_555
H21 C20 1_555 1_555
C21 C2 1_555 1_555
C22 N2 1_555 1_555
C23 C22 1_555 1_555
H22 C23 1_555 1_555
H23 C23 1_555 1_555
H24 C23 1_555 1_555
C24 C22 1_555 1_555
H25 C24 1_555 1_555
H26 C24 1_555 1_555
H27 C24 1_555 1_555
C25 C22 1_555 1_555
H28 C25 1_555 1_555
H29 C25 1_555 1_555
H30 C25 1_555 1_555
C3 C8 1_555 1_555
C7 C8 1_555 1_555
C13 C14 1_555 1_555

#END
