
#######################################################################
#
#                 Cambridge Crystallographic Data Centre
#                                CCDC 
#
#######################################################################
#
# If this CIF has been generated from an entry in the Cambridge 
# Structural Database, then it will include bibliographic, chemical, 
# crystal, experimental, refinement or atomic coordinate data resulting 
# from the CCDC's data processing and validation procedures.
#
#######################################################################

data_IGAJIM
_chemical_formula_moiety         'C24 H38 N2 O2 Si2'
_chemical_name_systematic        
4-[bis(trimethylsilyl)amino]-3-(tricyclo[3.3.1.1^3,7^]decan-1-yl)-3,4-dihydro-2H-1,3-benzoxazin-2-one
_symmetry_cell_setting           orthorhombic
_symmetry_space_group_name_H-M   'F d d 2'
_symmetry_Int_Tables_number      43
_space_group_name_Hall           'F 2 -2d'
loop_
_symmetry_equiv_pos_site_id
_symmetry_equiv_pos_as_xyz
1 x,y,z
2 -x,-y,z
3 1/4+x,1/4-y,1/4+z
4 1/4-x,1/4+y,1/4+z
5 x,1/2+y,1/2+z
6 -x,1/2-y,1/2+z
7 1/4+x,3/4-y,3/4+z
8 1/4-x,3/4+y,3/4+z
9 1/2+x,y,1/2+z
10 1/2-x,-y,1/2+z
11 3/4+x,1/4-y,3/4+z
12 3/4-x,1/4+y,3/4+z
13 1/2+x,1/2+y,z
14 1/2-x,1/2-y,z
15 3/4+x,3/4-y,1/4+z
16 3/4-x,3/4+y,1/4+z
_cell_length_a                   18.042(5)
_cell_length_b                   36.611(9)
_cell_length_c                   15.215(5)
_cell_angle_alpha                90
_cell_angle_beta                 90
_cell_angle_gamma                90
_cell_volume                     10050.1
_exptl_crystal_colour            colorless
_exptl_crystal_description       block
_cell_formula_units_Z            16
_exptl_crystal_recrystallization_method ether/pentane
loop_
_atom_site_label
_atom_site_type_symbol
_atom_site_fract_x
_atom_site_fract_y
_atom_site_fract_z
Si1 Si 0.16982(6) 0.54248(3) 0.48347(8)
Si2 Si 0.30226(7) 0.50533(3) 0.56815(9)
O1 O 0.21525(15) 0.64325(7) 0.4993(2)
O2 O 0.26895(15) 0.64916(7) 0.37133(19)
N1 N 0.31079(14) 0.60297(7) 0.46044(17)
N2 N 0.26189(15) 0.54452(7) 0.52055(19)
C1 C 0.2673(2) 0.63196(9) 0.4387(3)
C2 C 0.29848(19) 0.58000(8) 0.5392(2)
H1 H 0.3475 0.5743 0.5634
C3 C 0.2585(2) 0.60159(10) 0.6074(2)
C4 C 0.2604(2) 0.59172(12) 0.6955(3)
H2 H 0.2879 0.5715 0.7131
C5 C 0.2219(3) 0.61172(17) 0.7570(3)
H3 H 0.2239 0.6051 0.8160
C6 C 0.1804(3) 0.64138(16) 0.7318(4)
H4 H 0.1532 0.6543 0.7734
C7 C 0.1789(2) 0.65198(13) 0.6457(4)
H5 H 0.1519 0.6724 0.6284
C8 C 0.2182(2) 0.63186(11) 0.5848(3)
C9 C 0.37477(16) 0.59493(8) 0.3991(2)
C10 C 0.42177(17) 0.56340(9) 0.4348(2)
H6 H 0.3912 0.5418 0.4413
H7 H 0.4412 0.5698 0.4922
C11 C 0.42545(18) 0.62827(9) 0.3930(2)
H8 H 0.3976 0.6491 0.3714
H9 H 0.4443 0.6343 0.4509
C12 C 0.34673(18) 0.58378(10) 0.3081(2)
H10 H 0.3170 0.5618 0.3129
H11 H 0.3157 0.6030 0.2842
C13 C 0.48605(18) 0.55526(9) 0.3719(2)
H12 H 0.5150 0.5348 0.3953
C14 C 0.48981(19) 0.62032(10) 0.3313(3)
H13 H 0.5213 0.6420 0.3269
C15 C 0.4120(2) 0.57688(10) 0.2468(2)
H14 H 0.3933 0.5707 0.1882
C16 C 0.4572(2) 0.54511(10) 0.2822(2)
H15 H 0.4264 0.5234 0.2863
H16 H 0.4982 0.5399 0.2430
C17 C 0.53548(19) 0.58859(10) 0.3659(3)
H17 H 0.5767 0.5838 0.3266
H18 H 0.5552 0.5945 0.4235
C18 C 0.4596(2) 0.61086(10) 0.2407(3)
H19 H 0.4303 0.6311 0.2184
H20 H 0.5003 0.6066 0.2003
C19 C 0.1499(3) 0.49599(15) 0.4396(4)
H21 H 0.1799 0.4916 0.3885
H22 H 0.0985 0.4943 0.4239
H23 H 0.1611 0.4781 0.4837
C20 C 0.1021(2) 0.55169(14) 0.5727(3)
H24 H 0.1125 0.5361 0.6219
H25 H 0.0528 0.5469 0.5518
H26 H 0.1059 0.5768 0.5906
C21 C 0.1485(2) 0.57327(14) 0.3906(3)
H27 H 0.1482 0.5981 0.4109
H28 H 0.1007 0.5673 0.3670
H29 H 0.1855 0.5705 0.3458
C22 C 0.2394(3) 0.48402(14) 0.6507(4)
H30 H 0.1928 0.4783 0.6235
H31 H 0.2315 0.5007 0.6984
H32 H 0.2616 0.4620 0.6727
C23 C 0.3248(3) 0.47046(11) 0.4831(4)
H33 H 0.2812 0.4565 0.4697
H34 H 0.3627 0.4545 0.5049
H35 H 0.3420 0.4824 0.4308
C24 C 0.3899(3) 0.51517(15) 0.6297(3)
H36 H 0.4277 0.5226 0.5891
H37 H 0.4058 0.4936 0.6601
H38 H 0.3812 0.5344 0.6714
loop_
_geom_bond_atom_site_label_1
_geom_bond_atom_site_label_2
_geom_bond_site_symmetry_1
_geom_bond_site_symmetry_2
Si1 N2 1_555 1_555
Si2 N2 1_555 1_555
O1 C1 1_555 1_555
O2 C1 1_555 1_555
N1 C1 1_555 1_555
N2 C2 1_555 1_555
C2 N1 1_555 1_555
H1 C2 1_555 1_555
C3 C2 1_555 1_555
C4 C3 1_555 1_555
H2 C4 1_555 1_555
C5 C4 1_555 1_555
H3 C5 1_555 1_555
C6 C5 1_555 1_555
H4 C6 1_555 1_555
C7 C6 1_555 1_555
H5 C7 1_555 1_555
C8 O1 1_555 1_555
C9 N1 1_555 1_555
C10 C9 1_555 1_555
H6 C10 1_555 1_555
H7 C10 1_555 1_555
C11 C9 1_555 1_555
H8 C11 1_555 1_555
H9 C11 1_555 1_555
C12 C9 1_555 1_555
H10 C12 1_555 1_555
H11 C12 1_555 1_555
C13 C10 1_555 1_555
H12 C13 1_555 1_555
C14 C11 1_555 1_555
H13 C14 1_555 1_555
C15 C12 1_555 1_555
H14 C15 1_555 1_555
C16 C13 1_555 1_555
H15 C16 1_555 1_555
H16 C16 1_555 1_555
C17 C13 1_555 1_555
H17 C17 1_555 1_555
H18 C17 1_555 1_555
C18 C14 1_555 1_555
H19 C18 1_555 1_555
H20 C18 1_555 1_555
C19 Si1 1_555 1_555
H21 C19 1_555 1_555
H22 C19 1_555 1_555
H23 C19 1_555 1_555
C20 Si1 1_555 1_555
H24 C20 1_555 1_555
H25 C20 1_555 1_555
H26 C20 1_555 1_555
C21 Si1 1_555 1_555
H27 C21 1_555 1_555
H28 C21 1_555 1_555
H29 C21 1_555 1_555
C22 Si2 1_555 1_555
H30 C22 1_555 1_555
H31 C22 1_555 1_555
H32 C22 1_555 1_555
C23 Si2 1_555 1_555
H33 C23 1_555 1_555
H34 C23 1_555 1_555
H35 C23 1_555 1_555
C24 Si2 1_555 1_555
H36 C24 1_555 1_555
H37 C24 1_555 1_555
H38 C24 1_555 1_555
C3 C8 1_555 1_555
C7 C8 1_555 1_555
C14 C17 1_555 1_555
C15 C16 1_555 1_555
C15 C18 1_555 1_555

#END
