
#######################################################################
#
#                 Cambridge Crystallographic Data Centre
#                                CCDC 
#
#######################################################################
#
# If this CIF has been generated from an entry in the Cambridge 
# Structural Database, then it will include bibliographic, chemical, 
# crystal, experimental, refinement or atomic coordinate data resulting 
# from the CCDC's data processing and validation procedures.
#
#######################################################################

data_IGAJOQ
_chemical_formula_moiety         'C12 H10 N2 O3'
_chemical_name_systematic        N'-(2-Furylmethylene)-2-hydroxybenzohydrazide
_symmetry_cell_setting           monoclinic
_symmetry_space_group_name_H-M   'P 21/n'
_symmetry_Int_Tables_number      14
_space_group_name_Hall           '-P 2yn'
loop_
_symmetry_equiv_pos_site_id
_symmetry_equiv_pos_as_xyz
1 x,y,z
2 1/2-x,1/2+y,1/2-z
3 -x,-y,-z
4 1/2+x,1/2-y,1/2+z
_cell_length_a                   4.9898(5)
_cell_length_b                   20.662(2)
_cell_length_c                   10.6994(11)
_cell_angle_alpha                90
_cell_angle_beta                 101.421(2)
_cell_angle_gamma                90
_cell_volume                     1081.26
_exptl_crystal_colour            orange
_exptl_crystal_description       block
_cell_formula_units_Z            4
_exptl_crystal_recrystallization_method tetrahydrofuran
loop_
_atom_site_label
_atom_site_type_symbol
_atom_site_fract_x
_atom_site_fract_y
_atom_site_fract_z
O1 O 0.2921(2) 0.22463(6) 0.59528(10)
H1 H 0.3615 0.2261 0.5320
O2 O 0.2021(2) 0.22907(5) 0.97330(9)
O3 O -0.6276(3) 0.42331(7) 0.68440(12)
N1 N 0.0370(2) 0.26559(6) 0.77544(11)
H2 H 0.0365 0.2638 0.6951
N2 N -0.1342(2) 0.30720(6) 0.82213(11)
C1 C 0.4351(3) 0.18305(7) 0.68139(14)
C2 C 0.3961(3) 0.18397(7) 0.80733(13)
C3 C 0.5525(3) 0.14165(7) 0.89334(15)
H3 H 0.5312 0.1417 0.9778
C4 C 0.7373(3) 0.09972(8) 0.85745(16)
H4 H 0.8409 0.0723 0.9171
C5 C 0.7674(3) 0.09876(8) 0.73201(16)
H5 H 0.8892 0.0699 0.7065
C6 C 0.6191(3) 0.14000(8) 0.64527(15)
H6 H 0.6417 0.1392 0.5611
C7 C 0.2058(3) 0.22765(7) 0.85884(13)
C8 C -0.2876(3) 0.34231(7) 0.74000(15)
H7 H -0.2834 0.3378 0.6539
C9 C -0.4676(3) 0.38898(7) 0.77975(14)
C10 C -0.5197(3) 0.40836(8) 0.89143(17)
H8 H -0.4375 0.3928 0.9714
C11 C -0.7221(4) 0.45682(9) 0.8659(2)
H9 H -0.7991 0.4793 0.9254
C12 C -0.7803(4) 0.46390(9) 0.7418(2)
H10 H -0.9090 0.4928 0.6988
loop_
_geom_bond_atom_site_label_1
_geom_bond_atom_site_label_2
_geom_bond_site_symmetry_1
_geom_bond_site_symmetry_2
O1 H1 1_555 1_555
O2 C7 1_555 1_555
O3 C9 1_555 1_555
N1 H2 1_555 1_555
N2 N1 1_555 1_555
C1 O1 1_555 1_555
C2 C1 1_555 1_555
C3 C2 1_555 1_555
H3 C3 1_555 1_555
C4 C3 1_555 1_555
H4 C4 1_555 1_555
C5 C4 1_555 1_555
H5 C5 1_555 1_555
C6 C1 1_555 1_555
H6 C6 1_555 1_555
C7 N1 1_555 1_555
C8 N2 1_555 1_555
H7 C8 1_555 1_555
C9 C8 1_555 1_555
C10 C9 1_555 1_555
H8 C10 1_555 1_555
C11 C10 1_555 1_555
H9 C11 1_555 1_555
C12 O3 1_555 1_555
H10 C12 1_555 1_555
C2 C7 1_555 1_555
C5 C6 1_555 1_555
C11 C12 1_555 1_555

#END
