
#######################################################################
#
#                 Cambridge Crystallographic Data Centre
#                                CCDC 
#
#######################################################################
#
# If this CIF has been generated from an entry in the Cambridge 
# Structural Database, then it will include bibliographic, chemical, 
# crystal, experimental, refinement or atomic coordinate data resulting 
# from the CCDC's data processing and validation procedures.
#
#######################################################################

data_IGAJEI
_chemical_formula_moiety         'C20 H21 N1 O2 S1'
_chemical_name_systematic        
3-[2,6-bis(propan-2-yl)phenyl]-4-sulfanylidene-3,4-dihydro-2H-1,3-benzoxazin-2-one
_symmetry_cell_setting           monoclinic
_symmetry_space_group_name_H-M   'P c'
_symmetry_Int_Tables_number      7
_space_group_name_Hall           'P -2yc'
loop_
_symmetry_equiv_pos_site_id
_symmetry_equiv_pos_as_xyz
1 x,y,z
2 x,-y,1/2+z
_cell_length_a                   18.6127(17)
_cell_length_b                   9.5930(7)
_cell_length_c                   15.4693(15)
_cell_angle_alpha                90
_cell_angle_beta                 101.652(3)
_cell_angle_gamma                90
_cell_volume                     2705.15
_exptl_crystal_colour            'light orange'
_exptl_crystal_description       block
_cell_formula_units_Z            6
_exptl_crystal_recrystallization_method ether/pentane
loop_
_atom_site_label
_atom_site_type_symbol
_atom_site_fract_x
_atom_site_fract_y
_atom_site_fract_z
S1 S 0.91385(16) 0.3836(3) 0.9112(2)
O1 O 0.6930(3) 0.4733(6) 0.7477(4)
O2 O 0.7153(4) 0.6961(7) 0.7712(5)
N1 N 0.8052(4) 0.5451(7) 0.8375(5)
C1 C 0.7350(6) 0.5821(10) 0.7840(7)
C2 C 0.8322(6) 0.4106(9) 0.8525(6)
C3 C 0.7812(5) 0.3009(9) 0.8137(7)
C4 C 0.7969(6) 0.1604(9) 0.8253(7)
H1 H 0.8439 0.1327 0.8571
C5 C 0.7469(8) 0.0614(11) 0.7923(8)
H2 H 0.7580 -0.0345 0.8026
C6 C 0.6805(7) 0.1012(11) 0.7442(8)
H3 H 0.6460 0.0317 0.7199
C7 C 0.6627(6) 0.2355(10) 0.7304(7)
H4 H 0.6159 0.2614 0.6974
C8 C 0.7132(6) 0.3349(9) 0.7646(7)
C9 C 0.8450(5) 0.6647(8) 0.8824(6)
C10 C 0.8309(6) 0.6977(9) 0.9654(7)
C11 C 0.8650(6) 0.8151(10) 1.0055(7)
H5 H 0.8543 0.8451 1.0600
C12 C 0.9136(6) 0.8893(11) 0.9691(8)
H6 H 0.9389 0.9660 1.0003
C13 C 0.9266(6) 0.8537(10) 0.8867(8)
H7 H 0.9593 0.9085 0.8610
C14 C 0.8929(5) 0.7409(9) 0.8419(7)
C15 C 0.7817(6) 0.6116(9) 1.0099(7)
H8 H 0.7673 0.5270 0.9726
C16 C 0.8213(7) 0.5618(11) 1.0999(7)
H9 H 0.8657 0.5108 1.0939
H10 H 0.7890 0.5001 1.1252
H11 H 0.8349 0.6422 1.1388
C17 C 0.7112(6) 0.6901(11) 1.0155(8)
H12 H 0.7233 0.7722 1.0533
H13 H 0.6786 0.6287 1.0405
H14 H 0.6866 0.7196 0.9562
C18 C 0.9068(6) 0.7014(10) 0.7516(8)
H15 H 0.8842 0.6078 0.7359
C19 C 0.9891(6) 0.6898(11) 0.7515(8)
H16 H 0.9957 0.6545 0.6942
H17 H 1.0122 0.6257 0.7982
H18 H 1.0119 0.7820 0.7620
C20 C 0.8713(6) 0.8031(11) 0.6814(7)
H19 H 0.8185 0.8072 0.6800
H20 H 0.8796 0.7724 0.6237
H21 H 0.8928 0.8958 0.6948
S2 S 0.49762(15) 0.5226(2) 0.37214(17)
O3 O 0.4608(3) 0.9462(5) 0.2520(4)
O4 O 0.4610(4) 1.0278(6) 0.3833(4)
N2 N 0.4769(4) 0.7944(7) 0.3738(5)
C21 C 0.4653(5) 0.9330(10) 0.3408(6)
C22 C 0.4816(5) 0.6753(9) 0.3252(6)
C23 C 0.4752(5) 0.6994(8) 0.2297(6)
C24 C 0.4813(5) 0.5925(9) 0.1737(6)
H22 H 0.4863 0.4994 0.1949
C25 C 0.4802(5) 0.6204(8) 0.0865(6)
H23 H 0.4848 0.5457 0.0476
C26 C 0.4727(4) 0.7542(8) 0.0542(6)
H24 H 0.4724 0.7707 -0.0064
C27 C 0.4655(5) 0.8647(9) 0.1088(6)
H25 H 0.4601 0.9576 0.0872
C28 C 0.4664(4) 0.8339(8) 0.1977(6)
C29 C 0.4890(5) 0.7842(8) 0.4713(6)
C30 C 0.4285(5) 0.7604(8) 0.5091(6)
C31 C 0.4403(5) 0.7537(8) 0.6004(6)
H26 H 0.4000 0.7411 0.6287
C32 C 0.5100(6) 0.7653(8) 0.6499(6)
H27 H 0.5174 0.7596 0.7124
C33 C 0.5695(5) 0.7850(8) 0.6105(6)
H28 H 0.6174 0.7918 0.6459
C34 C 0.5595(5) 0.7951(8) 0.5193(6)
C35 C 0.3508(5) 0.7459(8) 0.4544(6)
H29 H 0.3540 0.7496 0.3906
C36 C 0.3170(5) 0.6063(9) 0.4712(7)
H30 H 0.3496 0.5305 0.4610
H31 H 0.2693 0.5959 0.4310
H32 H 0.3102 0.6027 0.5324
C37 C 0.3025(5) 0.8669(9) 0.4724(7)
H33 H 0.2978 0.8646 0.5344
H34 H 0.2539 0.8585 0.4342
H35 H 0.3249 0.9554 0.4603
C38 C 0.6261(5) 0.8211(9) 0.4776(6)
H36 H 0.6087 0.8170 0.4121
C39 C 0.6827(6) 0.7090(13) 0.5022(8)
H37 H 0.7011 0.7102 0.5662
H38 H 0.7234 0.7256 0.4721
H39 H 0.6605 0.6181 0.4846
C40 C 0.6575(6) 0.9657(12) 0.4997(9)
H40 H 0.6184 1.0351 0.4844
H41 H 0.6958 0.9841 0.4659
H42 H 0.6787 0.9712 0.5629
S3 S 0.07733(15) 1.0952(3) 0.0789(2)
O5 O 0.2960(3) 1.0117(6) 0.2507(4)
O6 O 0.2737(4) 0.7899(7) 0.2333(5)
N3 N 0.1834(4) 0.9361(7) 0.1659(5)
C41 C 0.2533(6) 0.9028(10) 0.2169(6)
C42 C 0.1564(5) 1.0700(9) 0.1421(7)
C43 C 0.2071(6) 1.1815(9) 0.1808(7)
C44 C 0.1890(6) 1.3221(9) 0.1668(7)
H43 H 0.1428 1.3476 0.1320
C45 C 0.2377(6) 1.4230(10) 0.2029(8)
H44 H 0.2250 1.5182 0.1919
C46 C 0.3046(7) 1.3899(10) 0.2548(8)
H45 H 0.3373 1.4621 0.2796
C47 C 0.3248(6) 1.2503(9) 0.2713(7)
H46 H 0.3707 1.2252 0.3071
C48 C 0.2742(6) 1.1498(8) 0.2328(7)
C49 C 0.1397(5) 0.8151(8) 0.1282(7)
C50 C 0.0939(5) 0.7544(9) 0.1787(7)
C51 C 0.0527(5) 0.6399(9) 0.1419(8)
H47 H 0.0198 0.5964 0.1731
C52 C 0.0595(6) 0.5897(10) 0.0614(8)
H48 H 0.0313 0.5109 0.0376
C53 C 0.1060(6) 0.6506(9) 0.0137(7)
H49 H 0.1100 0.6131 -0.0419
C54 C 0.1473(5) 0.7666(8) 0.0466(6)
C55 C 0.0873(7) 0.8049(11) 0.2691(9)
H50 H 0.1211 0.8861 0.2847
C56 C 0.0097(8) 0.8540(12) 0.2706(10)
H51 H -0.0065 0.9197 0.2221
H52 H 0.0092 0.9003 0.3269
H53 H -0.0234 0.7736 0.2637
C57 C 0.1093(6) 0.6937(13) 0.3397(8)
H54 H 0.0725 0.6193 0.3311
H55 H 0.1126 0.7354 0.3982
H56 H 0.1571 0.6548 0.3352
C58 C 0.1983(5) 0.8323(9) -0.0062(6)
H57 H 0.2151 0.9233 0.0225
C59 C 0.1612(6) 0.8631(11) -0.1009(7)
H58 H 0.1499 0.7753 -0.1332
H59 H 0.1940 0.9190 -0.1292
H60 H 0.1157 0.9148 -0.1016
C60 C 0.2666(6) 0.7413(10) -0.0023(8)
H61 H 0.2929 0.7327 0.0591
H62 H 0.2988 0.7844 -0.0376
H63 H 0.2517 0.6486 -0.0260
loop_
_geom_bond_atom_site_label_1
_geom_bond_atom_site_label_2
_geom_bond_site_symmetry_1
_geom_bond_site_symmetry_2
S1 C2 1_555 1_555
O1 C1 1_555 1_555
O2 C1 1_555 1_555
N1 C1 1_555 1_555
C2 N1 1_555 1_555
C3 C2 1_555 1_555
C4 C3 1_555 1_555
H1 C4 1_555 1_555
C5 C4 1_555 1_555
H2 C5 1_555 1_555
C6 C5 1_555 1_555
H3 C6 1_555 1_555
C7 C6 1_555 1_555
H4 C7 1_555 1_555
C8 O1 1_555 1_555
C9 N1 1_555 1_555
C10 C9 1_555 1_555
C11 C10 1_555 1_555
H5 C11 1_555 1_555
C12 C11 1_555 1_555
H6 C12 1_555 1_555
C13 C12 1_555 1_555
H7 C13 1_555 1_555
C14 C9 1_555 1_555
C15 C10 1_555 1_555
H8 C15 1_555 1_555
C16 C15 1_555 1_555
H9 C16 1_555 1_555
H10 C16 1_555 1_555
H11 C16 1_555 1_555
C17 C15 1_555 1_555
H12 C17 1_555 1_555
H13 C17 1_555 1_555
H14 C17 1_555 1_555
C18 C14 1_555 1_555
H15 C18 1_555 1_555
C19 C18 1_555 1_555
H16 C19 1_555 1_555
H17 C19 1_555 1_555
H18 C19 1_555 1_555
C20 C18 1_555 1_555
H19 C20 1_555 1_555
H20 C20 1_555 1_555
H21 C20 1_555 1_555
S2 C22 1_555 1_555
O3 C21 1_555 1_555
O4 C21 1_555 1_555
N2 C21 1_555 1_555
C22 N2 1_555 1_555
C23 C22 1_555 1_555
C24 C23 1_555 1_555
H22 C24 1_555 1_555
C25 C24 1_555 1_555
H23 C25 1_555 1_555
C26 C25 1_555 1_555
H24 C26 1_555 1_555
C27 C26 1_555 1_555
H25 C27 1_555 1_555
C28 O3 1_555 1_555
C29 N2 1_555 1_555
C30 C29 1_555 1_555
C31 C30 1_555 1_555
H26 C31 1_555 1_555
C32 C31 1_555 1_555
H27 C32 1_555 1_555
C33 C32 1_555 1_555
H28 C33 1_555 1_555
C34 C29 1_555 1_555
C35 C30 1_555 1_555
H29 C35 1_555 1_555
C36 C35 1_555 1_555
H30 C36 1_555 1_555
H31 C36 1_555 1_555
H32 C36 1_555 1_555
C37 C35 1_555 1_555
H33 C37 1_555 1_555
H34 C37 1_555 1_555
H35 C37 1_555 1_555
C38 C34 1_555 1_555
H36 C38 1_555 1_555
C39 C38 1_555 1_555
H37 C39 1_555 1_555
H38 C39 1_555 1_555
H39 C39 1_555 1_555
C40 C38 1_555 1_555
H40 C40 1_555 1_555
H41 C40 1_555 1_555
H42 C40 1_555 1_555
S3 C42 1_555 1_555
O5 C41 1_555 1_555
O6 C41 1_555 1_555
N3 C41 1_555 1_555
C42 N3 1_555 1_555
C43 C42 1_555 1_555
C44 C43 1_555 1_555
H43 C44 1_555 1_555
C45 C44 1_555 1_555
H44 C45 1_555 1_555
C46 C45 1_555 1_555
H45 C46 1_555 1_555
C47 C46 1_555 1_555
H46 C47 1_555 1_555
C48 O5 1_555 1_555
C49 N3 1_555 1_555
C50 C49 1_555 1_555
C51 C50 1_555 1_555
H47 C51 1_555 1_555
C52 C51 1_555 1_555
H48 C52 1_555 1_555
C53 C52 1_555 1_555
H49 C53 1_555 1_555
C54 C49 1_555 1_555
C55 C50 1_555 1_555
H50 C55 1_555 1_555
C56 C55 1_555 1_555
H51 C56 1_555 1_555
H52 C56 1_555 1_555
H53 C56 1_555 1_555
C57 C55 1_555 1_555
H54 C57 1_555 1_555
H55 C57 1_555 1_555
H56 C57 1_555 1_555
C58 C54 1_555 1_555
H57 C58 1_555 1_555
C59 C58 1_555 1_555
H58 C59 1_555 1_555
H59 C59 1_555 1_555
H60 C59 1_555 1_555
C60 C58 1_555 1_555
H61 C60 1_555 1_555
H62 C60 1_555 1_555
H63 C60 1_555 1_555
C3 C8 1_555 1_555
C7 C8 1_555 1_555
C13 C14 1_555 1_555
C23 C28 1_555 1_555
C27 C28 1_555 1_555
C33 C34 1_555 1_555
C43 C48 1_555 1_555
C47 C48 1_555 1_555
C53 C54 1_555 1_555

#END
