
#######################################################################
#
#                 Cambridge Crystallographic Data Centre
#                                CCDC 
#
#######################################################################
#
# If this CIF has been generated from an entry in the Cambridge 
# Structural Database, then it will include bibliographic, chemical, 
# crystal, experimental, refinement or atomic coordinate data resulting 
# from the CCDC's data processing and validation procedures.
#
#######################################################################

data_IGALAG
_chemical_compound_source        
'isolated from the marinederived fungus Aspergillus versicolor'
_chemical_name_common            'Asperversiamide D unknown solvate'
_chemical_formula_moiety         'C26 H29 N3 O3'
_chemical_name_systematic        
'2,2,13,13-tetramethyl-2,6,10,11,12,12a,13,14-octahydro-7H,9H-6a,11a-(epiminomethano)indolizino[7,6-b]pyrano[3,2-h]carbazole-7,16-dione unknown solvate'
_symmetry_cell_setting           tetragonal
_symmetry_space_group_name_H-M   'P 43 21 2'
_symmetry_Int_Tables_number      96
_space_group_name_Hall           'P 4nw 2abw'
loop_
_symmetry_equiv_pos_site_id
_symmetry_equiv_pos_as_xyz
1 x,y,z
2 -x,-y,1/2+z
3 1/2-y,1/2+x,3/4+z
4 1/2+y,1/2-x,1/4+z
5 1/2-x,1/2+y,3/4-z
6 1/2+x,1/2-y,1/4-z
7 y,x,-z
8 -y,-x,1/2-z
_cell_length_a                   11.02750(10)
_cell_length_b                   11.02750(10)
_cell_length_c                   38.1512(5)
_cell_angle_alpha                90
_cell_angle_beta                 90
_cell_angle_gamma                90
_cell_volume                     4639.41
_cell_formula_units_Z            8
loop_
_atom_site_label
_atom_site_type_symbol
_atom_site_fract_x
_atom_site_fract_y
_atom_site_fract_z
O1 O 0.72842(15) 0.86446(15) 0.31115(4)
O2 O 0.05429(16) 0.71642(17) 0.53824(4)
O3 O 0.15534(17) 0.91756(16) 0.42621(4)
N1 N 0.39855(18) 0.63815(18) 0.36566(5)
H1 H 0.377950 0.586430 0.349877
N2 N 0.20459(18) 0.74868(18) 0.49782(5)
H2 H 0.258653 0.770971 0.512729
N3 N 0.02603(19) 0.77953(19) 0.45060(5)
C1 C 0.6619(2) 0.9035(2) 0.37056(6)
C2 C 0.6536(2) 0.8348(2) 0.33920(6)
C3 C 0.5811(2) 0.8803(2) 0.39786(6)
H3 H 0.585506 0.925054 0.418480
C4 C 0.0912(2) 0.7176(2) 0.50814(6)
C5 C 0.4897(2) 0.7216(2) 0.36262(6)
C6 C 0.5701(2) 0.7433(2) 0.33483(6)
H4 H 0.567003 0.697832 0.314316
C7 C 0.3993(2) 0.7422(2) 0.41624(6)
C8 C 0.2330(2) 0.5809(2) 0.40887(6)
C9 C 0.4940(2) 0.7899(2) 0.39417(5)
C10 C 0.3445(2) 0.6505(2) 0.39843(6)
C11 C 0.8510(2) 0.9004(2) 0.32068(6)
C12 C 0.1354(2) 0.8241(2) 0.44310(6)
C13 C 0.3608(2) 0.7855(2) 0.45201(5)
H5 H 0.364158 0.873305 0.452880
H6 H 0.415848 0.753814 0.469609
C14 C 0.8465(2) 0.9950(2) 0.34925(6)
H7 H 0.906335 1.054244 0.350428
C15 C 0.1296(2) 0.6197(2) 0.38433(6)
H8 H 0.116701 0.705478 0.386458
H9 H 0.056739 0.577395 0.390635
H10 H 0.150829 0.600500 0.360565
C16 C 0.2112(2) 0.6082(2) 0.44840(6)
H11 H 0.270329 0.559473 0.461415
C17 C 0.7571(2) 0.9941(2) 0.37286(6)
H12 H 0.755745 1.051360 0.390737
C18 C 0.0848(2) 0.5679(2) 0.46128(6)
H13 H 0.039053 0.533200 0.442014
H14 H 0.093117 0.506684 0.479392
C19 C 0.2317(2) 0.7427(2) 0.45984(5)
C20 C 0.2510(2) 0.4431(2) 0.40562(6)
H15 H 0.267145 0.422667 0.381612
H16 H 0.178831 0.402220 0.413265
H17 H 0.318154 0.418476 0.419947
C21 C 0.9065(2) 0.9536(2) 0.28746(6)
H18 H 0.911957 0.891659 0.269850
H19 H 0.986078 0.984103 0.292554
H20 H 0.856297 1.018535 0.279055
C22 C 0.0183(2) 0.6788(2) 0.47590(6)
C23 C -0.0932(2) 0.8249(3) 0.43981(6)
H21 H -0.094551 0.845511 0.415102
H22 H -0.117293 0.894996 0.453483
C24 C 0.9208(2) 0.7887(2) 0.33291(6)
H23 H 0.881684 0.754879 0.353159
H24 H 1.002302 0.811394 0.338802
H25 H 0.922224 0.729501 0.314463
C25 C -0.1179(2) 0.6617(2) 0.48123(6)
H26 H -0.145910 0.704816 0.501866
H27 H -0.138349 0.576515 0.483560
C26 C -0.1731(2) 0.7159(3) 0.44759(7)
H28 H -0.170575 0.657866 0.428498
H29 H -0.256549 0.740524 0.451411
loop_
_geom_bond_atom_site_label_1
_geom_bond_atom_site_label_2
_geom_bond_site_symmetry_1
_geom_bond_site_symmetry_2
O1 C2 1_555 1_555
O2 C4 1_555 1_555
O3 C12 1_555 1_555
N1 H1 1_555 1_555
N2 H2 1_555 1_555
N3 C12 1_555 1_555
C1 C2 1_555 1_555
C2 C6 1_555 1_555
C3 C1 1_555 1_555
H3 C3 1_555 1_555
C4 N2 1_555 1_555
C5 N1 1_555 1_555
C6 C5 1_555 1_555
H4 C6 1_555 1_555
C7 C9 1_555 1_555
C8 C10 1_555 1_555
C9 C3 1_555 1_555
C10 N1 1_555 1_555
C11 O1 1_555 1_555
C12 C19 1_555 1_555
C13 C7 1_555 1_555
H5 C13 1_555 1_555
H6 C13 1_555 1_555
C14 C11 1_555 1_555
H7 C14 1_555 1_555
C15 C8 1_555 1_555
H8 C15 1_555 1_555
H9 C15 1_555 1_555
H10 C15 1_555 1_555
C16 C8 1_555 1_555
H11 C16 1_555 1_555
C17 C1 1_555 1_555
H12 C17 1_555 1_555
C18 C16 1_555 1_555
H13 C18 1_555 1_555
H14 C18 1_555 1_555
C19 N2 1_555 1_555
C20 C8 1_555 1_555
H15 C20 1_555 1_555
H16 C20 1_555 1_555
H17 C20 1_555 1_555
C21 C11 1_555 1_555
H18 C21 1_555 1_555
H19 C21 1_555 1_555
H20 C21 1_555 1_555
C22 N3 1_555 1_555
C23 N3 1_555 1_555
H21 C23 1_555 1_555
H22 C23 1_555 1_555
C24 C11 1_555 1_555
H23 C24 1_555 1_555
H24 C24 1_555 1_555
H25 C24 1_555 1_555
C25 C22 1_555 1_555
H26 C25 1_555 1_555
H27 C25 1_555 1_555
C26 C23 1_555 1_555
H28 C26 1_555 1_555
H29 C26 1_555 1_555
C4 C22 1_555 1_555
C5 C9 1_555 1_555
C7 C10 1_555 1_555
C13 C19 1_555 1_555
C14 C17 1_555 1_555
C16 C19 1_555 1_555
C18 C22 1_555 1_555
C25 C26 1_555 1_555

#END
