
#######################################################################
#
#                 Cambridge Crystallographic Data Centre
#                                CCDC 
#
#######################################################################
#
# If this CIF has been generated from an entry in the Cambridge 
# Structural Database, then it will include bibliographic, chemical, 
# crystal, experimental, refinement or atomic coordinate data resulting 
# from the CCDC's data processing and validation procedures.
#
#######################################################################

data_IGAQAJ
_chemical_formula_moiety         'C20 H18 N2 O1'
_chemical_name_systematic        
(E)-3-(4-Methylphenyl)-3-(3-(4-methylphenyl)-1H-pyrazol-1-yl)-2-propenal
_symmetry_cell_setting           triclinic
_symmetry_space_group_name_H-M   'P -1'
_symmetry_Int_Tables_number      2
_space_group_name_Hall           '-P 1'
loop_
_symmetry_equiv_pos_site_id
_symmetry_equiv_pos_as_xyz
1 x,y,z
2 -x,-y,-z
_cell_length_a                   10.0560(9)
_cell_length_b                   10.0786(8)
_cell_length_c                   10.3176(9)
_cell_angle_alpha                62.040(4)
_cell_angle_beta                 79.356(4)
_cell_angle_gamma                63.038(4)
_cell_volume                     822.726
_exptl_crystal_colour            colorless
_exptl_crystal_description       block
_cell_formula_units_Z            2
_exptl_crystal_recrystallization_method dichloromethane
loop_
_atom_site_label
_atom_site_type_symbol
_atom_site_fract_x
_atom_site_fract_y
_atom_site_fract_z
O1 O 0.67828(17) 0.53579(18) 0.72181(16)
N1 N 0.60777(16) 0.58095(17) 0.26253(16)
N2 N 0.68095(16) 0.41223(17) 0.31521(16)
C1 C 0.69279(19) 0.3841(2) 0.19979(19)
C2 C 0.6304(2) 0.5334(2) 0.0717(2)
H1 H 0.6267 0.5457 -0.0229
C3 C 0.5774(2) 0.6543(2) 0.1158(2)
H2 H 0.5288 0.7675 0.0565
C4 C 0.57725(18) 0.6542(2) 0.35731(19)
C5 C 0.45725(19) 0.8246(2) 0.30619(18)
C6 C 0.3162(2) 0.8596(2) 0.2667(2)
H3 H 0.2986 0.7771 0.2657
C7 C 0.2021(2) 1.0156(2) 0.2292(2)
H4 H 0.1077 1.0364 0.2051
C8 C 0.2255(2) 1.1425(2) 0.2264(2)
C9 C 0.3665(2) 1.1077(2) 0.2624(2)
H5 H 0.3847 1.1916 0.2597
C10 C 0.4818(2) 0.9513(2) 0.3023(2)
H6 H 0.5759 0.9308 0.3267
C11 C 0.1000(3) 1.3122(3) 0.1849(3)
H7 H 0.1319 1.3799 0.2011
H8 H 0.0158 1.3034 0.2439
H9 H 0.0719 1.3618 0.0831
C12 C 0.65218(19) 0.5672(2) 0.48724(19)
H10 H 0.7338 0.4666 0.5039
C13 C 0.6144(2) 0.6193(2) 0.6020(2)
H11 H 0.5367 0.7228 0.5837
C14 C 0.75914(19) 0.2135(2) 0.21612(19)
C15 C 0.8059(2) 0.0785(2) 0.3526(2)
H12 H 0.7965 0.0953 0.4357
C16 C 0.8664(2) -0.0813(3) 0.3660(2)
H13 H 0.8978 -0.1702 0.4583
C17 C 0.8812(2) -0.1120(3) 0.2463(3)
C18 C 0.8340(2) 0.0235(3) 0.1112(3)
H14 H 0.8430 0.0064 0.0284
C19 C 0.7740(2) 0.1837(3) 0.0956(2)
H15 H 0.7432 0.2722 0.0029
C20 C 0.9457(3) -0.2851(3) 0.2607(3)
H16 H 0.9448 -0.3606 0.3615
H17 H 1.0465 -0.3148 0.2285
H18 H 0.8869 -0.2905 0.2013
loop_
_geom_bond_atom_site_label_1
_geom_bond_atom_site_label_2
_geom_bond_site_symmetry_1
_geom_bond_site_symmetry_2
O1 C13 1_555 1_555
N1 N2 1_555 1_555
N2 C1 1_555 1_555
C1 C2 1_555 1_555
C2 H1 1_555 1_555
C3 N1 1_555 1_555
H2 C3 1_555 1_555
C4 N1 1_555 1_555
C5 C4 1_555 1_555
C6 C5 1_555 1_555
H3 C6 1_555 1_555
C7 C6 1_555 1_555
H4 C7 1_555 1_555
C8 C7 1_555 1_555
C9 C8 1_555 1_555
H5 C9 1_555 1_555
C10 C5 1_555 1_555
H6 C10 1_555 1_555
C11 C8 1_555 1_555
H7 C11 1_555 1_555
H8 C11 1_555 1_555
H9 C11 1_555 1_555
C12 C4 1_555 1_555
H10 C12 1_555 1_555
C13 C12 1_555 1_555
H11 C13 1_555 1_555
C14 C1 1_555 1_555
C15 C14 1_555 1_555
H12 C15 1_555 1_555
C16 C15 1_555 1_555
H13 C16 1_555 1_555
C17 C16 1_555 1_555
C18 C17 1_555 1_555
H14 C18 1_555 1_555
C19 C14 1_555 1_555
H15 C19 1_555 1_555
C20 C17 1_555 1_555
H16 C20 1_555 1_555
H17 C20 1_555 1_555
H18 C20 1_555 1_555
C2 C3 1_555 1_555
C9 C10 1_555 1_555
C18 C19 1_555 1_555

#END
