
#######################################################################
#
#                 Cambridge Crystallographic Data Centre
#                                CCDC 
#
#######################################################################
#
# If this CIF has been generated from an entry in the Cambridge 
# Structural Database, then it will include bibliographic, chemical, 
# crystal, experimental, refinement or atomic coordinate data resulting 
# from the CCDC's data processing and validation procedures.
#
#######################################################################

data_IGAQEP
_chemical_formula_moiety         'C20 H28 O2'
_chemical_name_systematic        
5-methoxy-3a,5a-dimethyl-3-(propan-2-yl)-2,3,3a,5a,8a,9-hexahydro-1H-dicyclopenta[a,d]pentalen-7(8H)-one
_symmetry_cell_setting           triclinic
_symmetry_space_group_name_H-M   'P -1'
_symmetry_Int_Tables_number      2
_space_group_name_Hall           '-P 1'
loop_
_symmetry_equiv_pos_site_id
_symmetry_equiv_pos_as_xyz
1 x,y,z
2 -x,-y,-z
_cell_length_a                   7.2762(10)
_cell_length_b                   12.9325(17)
_cell_length_c                   18.580(2)
_cell_angle_alpha                93.304(4)
_cell_angle_beta                 91.641(4)
_cell_angle_gamma                104.115(4)
_cell_volume                     1691.12
_exptl_crystal_colour            colorless
_exptl_crystal_description       block
_cell_formula_units_Z            4
loop_
_atom_site_label
_atom_site_type_symbol
_atom_site_fract_x
_atom_site_fract_y
_atom_site_fract_z
O1 O 0.2174(2) 0.50094(14) 0.67721(9)
O2 O 0.1957(2) 0.11619(12) 0.81019(8)
C1 C 0.1924(3) 0.46216(18) 0.73552(12)
C2 C 0.2510(3) 0.52296(18) 0.80940(12)
H1 H 0.3809 0.5696 0.8093
H2 H 0.1621 0.5672 0.8228
C3 C 0.2417(3) 0.43417(16) 0.86123(11)
H3 H 0.3724 0.4253 0.8716
C4 C 0.1264(3) 0.33653(16) 0.81877(11)
C5 C 0.0992(3) 0.35123(17) 0.74910(11)
H4 H 0.0307 0.2985 0.7140
C6 C 0.1346(3) 0.42871(16) 0.93100(11)
H5 H 0.0193 0.4557 0.9249
H6 H 0.2160 0.4716 0.9711
C7 C 0.0811(3) 0.30847(16) 0.94612(10)
C8 C 0.0542(3) 0.24820(16) 0.86795(10)
C9 C -0.0916(3) 0.28229(19) 0.99433(11)
H7 H -0.1609 0.3393 0.9942
H8 H -0.1798 0.2136 0.9772
C10 C -0.0087(3) 0.27519(19) 1.06950(11)
H9 H -0.1069 0.2372 1.1010
H10 H 0.0513 0.3470 1.0924
C11 C 0.1381(3) 0.21160(17) 1.05393(11)
H11 H 0.0671 0.1379 1.0360
C12 C 0.2645(3) 0.2001(2) 1.11929(12)
H12 H 0.3449 0.2725 1.1355
C13 C 0.1439(4) 0.1558(3) 1.18206(14)
H13 H 0.0674 0.2053 1.1971
H14 H 0.2272 0.1478 1.2227
H15 H 0.0601 0.0861 1.1665
C14 C 0.3956(4) 0.1269(2) 1.10056(13)
H16 H 0.3196 0.0575 1.0803
H17 H 0.4659 0.1169 1.1443
H18 H 0.4851 0.1596 1.0651
C15 C 0.2412(3) 0.26686(16) 0.98812(10)
C16 C 0.4159(3) 0.35555(17) 1.01433(11)
H19 H 0.4694 0.3952 0.9733
H20 H 0.5112 0.3237 1.0363
H21 H 0.3786 0.4044 1.0501
C17 C 0.2929(3) 0.18930(17) 0.93323(11)
H22 H 0.3875 0.1517 0.9420
C18 C 0.1927(3) 0.17910(16) 0.87165(10)
C19 C -0.1464(3) 0.18424(18) 0.84405(12)
H23 H -0.2346 0.2304 0.8491
H24 H -0.1850 0.1236 0.8742
H25 H -0.1480 0.1578 0.7935
C20 C 0.3242(3) 0.04903(18) 0.81397(13)
H26 H 0.4539 0.0932 0.8225
H27 H 0.3156 0.0057 0.7684
H28 H 0.2915 0.0020 0.8536
O3 O 0.7082(3) 0.48596(15) 0.83242(9)
O4 O 0.6786(2) 0.10374(12) 0.65571(8)
C21 C 0.7423(3) 0.51484(19) 0.70386(12)
H29 H 0.8719 0.5616 0.7116
H30 H 0.6531 0.5594 0.6933
C22 C 0.6838(3) 0.45096(19) 0.76965(12)
C23 C 0.5894(3) 0.34057(18) 0.74261(11)
H31 H 0.5189 0.2867 0.7706
C24 C 0.6193(3) 0.32892(17) 0.67236(11)
C25 C 0.7347(3) 0.42901(17) 0.64261(11)
H32 H 0.8657 0.4211 0.6340
C26 C 0.6284(3) 0.42793(16) 0.57041(11)
H33 H 0.7107 0.4724 0.5366
H34 H 0.5138 0.4553 0.5771
C27 C 0.5733(3) 0.30899(16) 0.54167(10)
C28 C 0.5455(3) 0.24423(17) 0.61240(10)
C29 C 0.3427(3) 0.18172(19) 0.62572(12)
H35 H 0.3394 0.1528 0.6734
H36 H 0.3019 0.1229 0.5886
H37 H 0.2571 0.2295 0.6237
C30 C 0.6789(3) 0.17190(16) 0.60229(11)
C31 C 0.8057(4) 0.03599(19) 0.64681(13)
H38 H 0.7702 -0.0097 0.6022
H39 H 0.7988 -0.0088 0.6879
H40 H 0.9355 0.0799 0.6442
C32 C 0.7770(3) 0.18503(17) 0.54300(11)
H41 H 0.8664 0.1451 0.5303
C33 C 0.7325(3) 0.26949(16) 0.49783(10)
C34 C 0.9122(3) 0.35770(17) 0.48792(11)
H42 H 1.0059 0.3267 0.4636
H43 H 0.9651 0.3907 0.5352
H44 H 0.8803 0.4120 0.4586
C35 C 0.6335(3) 0.22445(16) 0.42225(10)
H45 H 0.5639 0.1486 0.4275
C36 C 0.7617(3) 0.22418(17) 0.35796(11)
H46 H 0.8476 0.2973 0.3569
C37 C 0.8852(3) 0.14484(19) 0.36534(12)
H47 H 0.9682 0.1652 0.4089
H48 H 0.9626 0.1455 0.3230
H49 H 0.8039 0.0729 0.3688
C38 C 0.6441(4) 0.1990(2) 0.28668(11)
H50 H 0.5502 0.1306 0.2884
H51 H 0.7279 0.1947 0.2469
H52 H 0.5789 0.2558 0.2792
C39 C 0.4844(3) 0.28843(18) 0.41372(11)
H53 H 0.5429 0.3625 0.4017
H54 H 0.3864 0.2541 0.3759
C40 C 0.4015(3) 0.28625(18) 0.48809(11)
H55 H 0.3159 0.2155 0.4947
H56 H 0.3293 0.3416 0.4947
loop_
_geom_bond_atom_site_label_1
_geom_bond_atom_site_label_2
_geom_bond_site_symmetry_1
_geom_bond_site_symmetry_2
O1 C1 1_555 1_555
O2 C18 1_555 1_555
C1 C2 1_555 1_555
C2 H1 1_555 1_555
H2 C2 1_555 1_555
C3 C2 1_555 1_555
H3 C3 1_555 1_555
C4 C3 1_555 1_555
C5 C1 1_555 1_555
H4 C5 1_555 1_555
C6 C3 1_555 1_555
H5 C6 1_555 1_555
H6 C6 1_555 1_555
C7 C6 1_555 1_555
C8 C4 1_555 1_555
C9 C7 1_555 1_555
H7 C9 1_555 1_555
H8 C9 1_555 1_555
C10 C9 1_555 1_555
H9 C10 1_555 1_555
H10 C10 1_555 1_555
C11 C10 1_555 1_555
H11 C11 1_555 1_555
C12 C11 1_555 1_555
H12 C12 1_555 1_555
C13 C12 1_555 1_555
H13 C13 1_555 1_555
H14 C13 1_555 1_555
H15 C13 1_555 1_555
C14 C12 1_555 1_555
H16 C14 1_555 1_555
H17 C14 1_555 1_555
H18 C14 1_555 1_555
C15 C7 1_555 1_555
C16 C15 1_555 1_555
H19 C16 1_555 1_555
H20 C16 1_555 1_555
H21 C16 1_555 1_555
C17 C15 1_555 1_555
H22 C17 1_555 1_555
C18 C8 1_555 1_555
C19 C8 1_555 1_555
H23 C19 1_555 1_555
H24 C19 1_555 1_555
H25 C19 1_555 1_555
C20 O2 1_555 1_555
H26 C20 1_555 1_555
H27 C20 1_555 1_555
H28 C20 1_555 1_555
O3 C22 1_555 1_555
O4 C30 1_555 1_555
C21 H29 1_555 1_555
H30 C21 1_555 1_555
C22 C21 1_555 1_555
C23 C22 1_555 1_555
H31 C23 1_555 1_555
C24 C23 1_555 1_555
C25 C21 1_555 1_555
H32 C25 1_555 1_555
C26 C25 1_555 1_555
H33 C26 1_555 1_555
H34 C26 1_555 1_555
C27 C26 1_555 1_555
C28 C24 1_555 1_555
C29 C28 1_555 1_555
H35 C29 1_555 1_555
H36 C29 1_555 1_555
H37 C29 1_555 1_555
C30 C28 1_555 1_555
C31 O4 1_555 1_555
H38 C31 1_555 1_555
H39 C31 1_555 1_555
H40 C31 1_555 1_555
C32 C30 1_555 1_555
H41 C32 1_555 1_555
C33 C27 1_555 1_555
C34 C33 1_555 1_555
H42 C34 1_555 1_555
H43 C34 1_555 1_555
H44 C34 1_555 1_555
C35 C33 1_555 1_555
H45 C35 1_555 1_555
C36 C35 1_555 1_555
H46 C36 1_555 1_555
C37 C36 1_555 1_555
H47 C37 1_555 1_555
H48 C37 1_555 1_555
H49 C37 1_555 1_555
C38 C36 1_555 1_555
H50 C38 1_555 1_555
H51 C38 1_555 1_555
H52 C38 1_555 1_555
C39 C35 1_555 1_555
H53 C39 1_555 1_555
H54 C39 1_555 1_555
C40 C27 1_555 1_555
H55 C40 1_555 1_555
H56 C40 1_555 1_555
C4 C5 1_555 1_555
C7 C8 1_555 1_555
C11 C15 1_555 1_555
C17 C18 1_555 1_555
C24 C25 1_555 1_555
C27 C28 1_555 1_555
C32 C33 1_555 1_555
C39 C40 1_555 1_555

#END
