
#######################################################################
#
#                 Cambridge Crystallographic Data Centre
#                                CCDC 
#
#######################################################################
#
# If this CIF has been generated from an entry in the Cambridge 
# Structural Database, then it will include bibliographic, chemical, 
# crystal, experimental, refinement or atomic coordinate data resulting 
# from the CCDC's data processing and validation procedures.
#
#######################################################################

data_IGARUD
_chemical_formula_moiety         'C12 H18 O3'
_chemical_name_systematic        
cis-1,8-Dihydroxy-11-methylbicyclo(6.3.0)undeca-10-en-9-one
_symmetry_cell_setting           monoclinic
_symmetry_space_group_name_H-M   'P 21/a'
_symmetry_Int_Tables_number      14
_space_group_name_Hall           '-P 2yab'
loop_
_symmetry_equiv_pos_site_id
_symmetry_equiv_pos_as_xyz
1 x,y,z
2 1/2+x,1/2-y,z
3 -x,-y,-z
4 1/2-x,1/2+y,-z
_cell_length_a                   13.6482(4)
_cell_length_b                   6.7864(2)
_cell_length_c                   13.6775(2)
_cell_angle_alpha                90
_cell_angle_beta                 119.8996(14)
_cell_angle_gamma                90
_cell_volume                     1098.22
_exptl_crystal_colour            colorless
_exptl_crystal_description       prism
_cell_formula_units_Z            4
loop_
_atom_site_label
_atom_site_type_symbol
_atom_site_fract_x
_atom_site_fract_y
_atom_site_fract_z
O1 O 0.22383(10) -0.01429(16) 0.96818(9)
O2 O 0.32971(9) 0.29168(15) 0.88679(9)
H1 H 0.3036(18) 0.347(3) 0.921(2)
O3 O 0.38717(9) 0.16186(16) 0.74739(10)
H2 H 0.412(2) 0.249(4) 0.813(2)
C1 C 0.25655(10) 0.13175(17) 0.82428(11)
C2 C 0.27217(11) -0.02407(19) 0.91317(11)
C3 C 0.35494(12) -0.1676(2) 0.92224(13)
H3 H 0.3868(16) -0.263(3) 0.9781(17)
C4 C 0.38166(11) -0.1363(2) 0.84200(12)
C5 C 0.31403(10) 0.03165(18) 0.76203(11)
C6 C 0.23209(13) -0.0608(2) 0.64579(12)
H4 H 0.2760(15) -0.178(3) 0.6358(15)
H5 H 0.1664(16) -0.124(3) 0.6513(16)
C7 C 0.18964(15) 0.0686(2) 0.54039(13)
H6 H 0.1610(19) -0.025(4) 0.476(2)
H7 H 0.257(2) 0.133(3) 0.5406(18)
C8 C 0.10344(15) 0.2297(2) 0.51984(13)
H8 H 0.0750(17) 0.280(3) 0.4382(18)
H9 H 0.0406(17) 0.172(3) 0.5220(18)
C9 C 0.14695(13) 0.4015(2) 0.60365(13)
H10 H 0.2401(17) 0.399(3) 0.6415(18)
H11 H 0.1205(16) 0.536(3) 0.5626(17)
C10 C 0.11164(14) 0.3940(2) 0.69344(14)
H12 H 0.1542(18) 0.503(3) 0.7471(18)
H13 H 0.0230(19) 0.410(4) 0.6543(19)
C11 C 0.13396(12) 0.1990(2) 0.75772(13)
H14 H 0.0918(13) 0.090(3) 0.7121(14)
H15 H 0.1100(14) 0.215(3) 0.8114(15)
C12 C 0.46648(17) -0.2484(3) 0.82625(17)
H16 H 0.439(3) -0.304(5) 0.755(3)
H17 H 0.500(2) -0.343(4) 0.879(2)
H18 H 0.512(3) -0.166(5) 0.821(3)
loop_
_geom_bond_atom_site_label_1
_geom_bond_atom_site_label_2
_geom_bond_site_symmetry_1
_geom_bond_site_symmetry_2
O1 C2 1_555 1_555
O2 H1 1_555 1_555
O3 H2 1_555 1_555
C1 O2 1_555 1_555
C2 C1 1_555 1_555
C3 C2 1_555 1_555
H3 C3 1_555 1_555
C4 C3 1_555 1_555
C5 O3 1_555 1_555
C6 C5 1_555 1_555
H4 C6 1_555 1_555
H5 C6 1_555 1_555
C7 C6 1_555 1_555
H6 C7 1_555 1_555
H7 C7 1_555 1_555
C8 C7 1_555 1_555
H8 C8 1_555 1_555
H9 C8 1_555 1_555
C9 C8 1_555 1_555
H10 C9 1_555 1_555
H11 C9 1_555 1_555
C10 C9 1_555 1_555
H12 C10 1_555 1_555
H13 C10 1_555 1_555
C11 C1 1_555 1_555
H14 C11 1_555 1_555
H15 C11 1_555 1_555
C12 C4 1_555 1_555
H16 C12 1_555 1_555
H17 C12 1_555 1_555
H18 C12 1_555 1_555
C1 C5 1_555 1_555
C4 C5 1_555 1_555
C10 C11 1_555 1_555

#END
