
#######################################################################
#
#                 Cambridge Crystallographic Data Centre
#                                CCDC 
#
#######################################################################
#
# If this CIF has been generated from an entry in the Cambridge 
# Structural Database, then it will include bibliographic, chemical, 
# crystal, experimental, refinement or atomic coordinate data resulting 
# from the CCDC's data processing and validation procedures.
#
#######################################################################

data_IGASAK
_chemical_formula_moiety         'C11 H16 O3'
_chemical_name_systematic        
2,8-Dimethyl-1,6-dihydroxybicyclo(4.3.0)non-8-en-7-one
_symmetry_cell_setting           monoclinic
_symmetry_space_group_name_H-M   'P 21/c'
_symmetry_Int_Tables_number      14
_space_group_name_Hall           '-P 2ybc'
loop_
_symmetry_equiv_pos_site_id
_symmetry_equiv_pos_as_xyz
1 x,y,z
2 x,1/2-y,1/2+z
3 -x,-y,-z
4 -x,1/2+y,1/2-z
_cell_length_a                   7.4179(2)
_cell_length_b                   14.8192(3)
_cell_length_c                   9.7852(3)
_cell_angle_alpha                90
_cell_angle_beta                 108.4509(12)
_cell_angle_gamma                90
_cell_volume                     1020.37
_exptl_crystal_colour            colorless
_exptl_crystal_description       prism
_cell_formula_units_Z            4
loop_
_atom_site_label
_atom_site_type_symbol
_atom_site_fract_x
_atom_site_fract_y
_atom_site_fract_z
O1 O 0.21034(9) 0.47148(5) 0.99717(7)
H1 H 0.329(2) 0.4742(10) 1.0592(18)
O2 O -0.09163(10) 0.37451(5) 0.86760(8)
H2 H -0.075(3) 0.4169(13) 0.932(2)
O3 O 0.43469(9) 0.52780(5) 0.79218(8)
C1 C 0.22684(11) 0.42574(6) 0.87205(9)
C2 C 0.37242(14) 0.35025(7) 0.91555(12)
H3 H 0.5036(19) 0.3769(9) 0.9472(16)
H4 H 0.3512(19) 0.3198(9) 0.9955(16)
C3 C 0.35528(15) 0.28237(8) 0.79529(14)
H5 H 0.3866(19) 0.3109(9) 0.7150(16)
H6 H 0.451(2) 0.2328(11) 0.8309(17)
C4 C 0.15288(16) 0.24628(7) 0.74210(15)
H7 H 0.140(2) 0.1981(10) 0.6711(16)
H8 H 0.122(2) 0.2233(11) 0.8258(19)
C5 C 0.01192(14) 0.32129(7) 0.67363(12)
H9 H 0.0507(18) 0.3476(9) 0.5953(15)
C6 C 0.01930(12) 0.39990(6) 0.78031(10)
C7 C -0.04992(12) 0.48698(6) 0.69525(10)
C8 C 0.09601(13) 0.53957(7) 0.69193(11)
H10 H 0.088(2) 0.5976(10) 0.6440(17)
C9 C 0.27453(12) 0.50166(6) 0.78238(10)
C10 C -0.18812(17) 0.28236(10) 0.60825(19)
H11 H -0.188(2) 0.2335(12) 0.5321(18)
H12 H -0.283(3) 0.3260(12) 0.565(2)
H13 H -0.225(2) 0.2565(12) 0.6841(19)
C11 C -0.25472(14) 0.50671(9) 0.62087(13)
H14 H -0.275(3) 0.5704(15) 0.607(2)
H15 H -0.301(3) 0.4763(12) 0.524(2)
H16 H -0.332(3) 0.4813(12) 0.674(2)
loop_
_geom_bond_atom_site_label_1
_geom_bond_atom_site_label_2
_geom_bond_site_symmetry_1
_geom_bond_site_symmetry_2
O1 H1 1_555 1_555
O2 H2 1_555 1_555
O3 C9 1_555 1_555
C1 O1 1_555 1_555
C2 C1 1_555 1_555
H3 C2 1_555 1_555
H4 C2 1_555 1_555
C3 C2 1_555 1_555
H5 C3 1_555 1_555
H6 C3 1_555 1_555
C4 C3 1_555 1_555
H7 C4 1_555 1_555
H8 C4 1_555 1_555
C5 C4 1_555 1_555
H9 C5 1_555 1_555
C6 O2 1_555 1_555
C7 C6 1_555 1_555
C8 C7 1_555 1_555
H10 C8 1_555 1_555
C9 C1 1_555 1_555
C10 C5 1_555 1_555
H11 C10 1_555 1_555
H12 C10 1_555 1_555
H13 C10 1_555 1_555
C11 C7 1_555 1_555
H14 C11 1_555 1_555
H15 C11 1_555 1_555
H16 C11 1_555 1_555
C1 C6 1_555 1_555
C5 C6 1_555 1_555
C8 C9 1_555 1_555

#END
