
#######################################################################
#
#                 Cambridge Crystallographic Data Centre
#                                CCDC 
#
#######################################################################
#
# If this CIF has been generated from an entry in the Cambridge 
# Structural Database, then it will include bibliographic, chemical, 
# crystal, experimental, refinement or atomic coordinate data resulting 
# from the CCDC's data processing and validation procedures.
#
#######################################################################

data_IGASOZ
_chemical_formula_moiety         'C19 H22 Cl2 N2 O2'
_chemical_name_systematic        
1,3-bis(4-Chlorophenyl)-4,5-diethoxyimidazolidine
_symmetry_cell_setting           monoclinic
_symmetry_space_group_name_H-M   'P 21/c'
_symmetry_Int_Tables_number      14
_space_group_name_Hall           '-P 2ybc'
loop_
_symmetry_equiv_pos_site_id
_symmetry_equiv_pos_as_xyz
1 x,y,z
2 -x,1/2+y,1/2-z
3 -x,-y,-z
4 x,1/2-y,1/2+z
_cell_length_a                   10.928(2)
_cell_length_b                   11.123(2)
_cell_length_c                   16.006(3)
_cell_angle_alpha                90
_cell_angle_beta                 94.480(15)
_cell_angle_gamma                90
_cell_volume                     1939.62
_exptl_crystal_colour            colorless
_exptl_crystal_description       block
_chemical_melting_point          '445-446 K'
_cell_formula_units_Z            4
_exptl_crystal_recrystallization_method ethanol
loop_
_atom_site_label
_atom_site_type_symbol
_atom_site_fract_x
_atom_site_fract_y
_atom_site_fract_z
Cl1 Cl 0.87517(6) -0.07126(6) 0.61089(5)
Cl2 Cl 0.24717(6) 0.95415(6) 0.65343(4)
O1 O 0.92261(12) 0.55731(13) 0.57515(9)
O2 O 0.66798(11) 0.63533(12) 0.42946(8)
N1 N 0.73769(14) 0.43816(15) 0.56395(10)
N2 N 0.63188(15) 0.61147(15) 0.57001(10)
C1 C 0.69410(19) 0.23950(19) 0.61290(13)
H1 H 0.6210 0.2672 0.6320
C2 C 0.7256(2) 0.1204(2) 0.62321(13)
H2 H 0.6740 0.0681 0.6493
C3 C 0.8326(2) 0.07892(19) 0.59514(14)
C4 C 0.9094(2) 0.1553(2) 0.55715(14)
H3 H 0.9820 0.1264 0.5380
C5 C 0.8794(2) 0.2745(2) 0.54722(13)
H4 H 0.9325 0.3263 0.5222
C6 C 0.76964(18) 0.31880(19) 0.57444(12)
C7 C 0.81176(18) 0.52749(18) 0.52714(12)
H5 H 0.8327 0.4979 0.4724
C8 C 0.72362(17) 0.63322(18) 0.51288(12)
H6 H 0.7660 0.7093 0.5262
C9 C 0.62711(17) 0.48661(18) 0.59411(12)
H7 H 0.6272 0.4782 0.6544
H8 H 0.5548 0.4474 0.5677
C10 C 0.54049(18) 0.6921(2) 0.58676(12)
C11 C 0.44177(18) 0.6556(2) 0.63022(13)
H9 H 0.4354 0.5755 0.6458
C12 C 0.3535(2) 0.7359(2) 0.65051(14)
H10 H 0.2884 0.7096 0.6798
C13 C 0.3603(2) 0.8540(2) 0.62809(13)
C14 C 0.4559(2) 0.8919(2) 0.58461(13)
H11 H 0.4610 0.9723 0.5692
C15 C 0.54485(19) 0.8117(2) 0.56344(13)
H12 H 0.6087 0.8385 0.5331
C16 C 0.9094(2) 0.5868(2) 0.66041(14)
H13 H 0.8870 0.5157 0.6908
H14 H 0.8450 0.6462 0.6639
C17 C 1.0262(2) 0.6350(3) 0.69752(16)
H15 H 1.0183 0.6549 0.7552
H16 H 1.0473 0.7058 0.6676
H17 H 1.0894 0.5757 0.6941
C18 C 0.7407(2) 0.6940(2) 0.37180(15)
H18 H 0.8159 0.6493 0.3665
H19 H 0.7624 0.7741 0.3919
C19 C 0.6704(2) 0.7017(3) 0.29006(15)
H20 H 0.7187 0.7417 0.2509
H21 H 0.5962 0.7461 0.2957
H22 H 0.6504 0.6221 0.2701
loop_
_geom_bond_atom_site_label_1
_geom_bond_atom_site_label_2
_geom_bond_site_symmetry_1
_geom_bond_site_symmetry_2
Cl1 C3 1_555 1_555
Cl2 C13 1_555 1_555
O1 C7 1_555 1_555
O2 C8 1_555 1_555
N1 C6 1_555 1_555
N2 C8 1_555 1_555
C1 H1 1_555 1_555
C2 C1 1_555 1_555
H2 C2 1_555 1_555
C3 C2 1_555 1_555
C4 C3 1_555 1_555
H3 C4 1_555 1_555
C5 C4 1_555 1_555
H4 C5 1_555 1_555
C6 C1 1_555 1_555
C7 N1 1_555 1_555
H5 C7 1_555 1_555
C8 C7 1_555 1_555
H6 C8 1_555 1_555
C9 N1 1_555 1_555
H7 C9 1_555 1_555
H8 C9 1_555 1_555
C10 N2 1_555 1_555
C11 C10 1_555 1_555
H9 C11 1_555 1_555
C12 C11 1_555 1_555
H10 C12 1_555 1_555
C13 C12 1_555 1_555
C14 C13 1_555 1_555
H11 C14 1_555 1_555
C15 C10 1_555 1_555
H12 C15 1_555 1_555
C16 O1 1_555 1_555
H13 C16 1_555 1_555
H14 C16 1_555 1_555
C17 C16 1_555 1_555
H15 C17 1_555 1_555
H16 C17 1_555 1_555
H17 C17 1_555 1_555
C18 O2 1_555 1_555
H18 C18 1_555 1_555
H19 C18 1_555 1_555
C19 C18 1_555 1_555
H20 C19 1_555 1_555
H21 C19 1_555 1_555
H22 C19 1_555 1_555
N2 C9 1_555 1_555
C5 C6 1_555 1_555
C14 C15 1_555 1_555

#END
