
#######################################################################
#
#                 Cambridge Crystallographic Data Centre
#                                CCDC 
#
#######################################################################
#
# If this CIF has been generated from an entry in the Cambridge 
# Structural Database, then it will include bibliographic, chemical, 
# crystal, experimental, refinement or atomic coordinate data resulting 
# from the CCDC's data processing and validation procedures.
#
#######################################################################

data_IGAVOE
_chemical_formula_moiety         'C17 H12 Br1 N1'
_chemical_name_systematic        2-[2-(4-bromophenyl)ethenyl]quinoline
_symmetry_cell_setting           triclinic
_symmetry_space_group_name_H-M   'P -1'
_symmetry_Int_Tables_number      2
_space_group_name_Hall           '-P 1'
loop_
_symmetry_equiv_pos_site_id
_symmetry_equiv_pos_as_xyz
1 x,y,z
2 -x,-y,-z
_cell_length_a                   6.009(5)
_cell_length_b                   14.525(5)
_cell_length_c                   15.188(5)
_cell_angle_alpha                93.823(5)
_cell_angle_beta                 98.208(5)
_cell_angle_gamma                90.308(5)
_cell_volume                     1308.97
_exptl_crystal_colour            colorless
_exptl_crystal_description       plate
_cell_formula_units_Z            4
loop_
_atom_site_label
_atom_site_type_symbol
_atom_site_fract_x
_atom_site_fract_y
_atom_site_fract_z
Br1 Br 0.98752(15) 0.07570(6) -0.40206(6)
N1 N 0.5673(11) 0.1047(4) 0.1678(5)
C1 C 0.2340(13) 0.1582(5) 0.0793(6)
H1 H 0.158205 0.167651 0.021373
C2 C 0.1298(13) 0.1773(5) 0.1523(6)
H2 H -0.018756 0.200463 0.145943
C3 C 0.4574(13) 0.1240(5) 0.0905(6)
C4 C 0.5371(14) 0.1456(6) -0.2276(6)
H3 H 0.393988 0.173718 -0.231285
C5 C 0.4640(13) 0.1238(5) 0.2412(6)
C6 C 0.5210(14) 0.1332(5) -0.0683(6)
H4 H 0.382918 0.165138 -0.077386
C7 C 0.6380(14) 0.1183(6) -0.1473(6)
C8 C 0.9500(14) 0.0622(6) -0.2190(6)
H5 H 1.091721 0.033005 -0.216205
C9 C 0.4864(15) 0.1271(6) 0.4000(6)
H6 H 0.568254 0.115096 0.456259
C10 C 0.8482(13) 0.0753(6) -0.1424(6)
H7 H 0.920134 0.055355 -0.087289
C11 C 0.1553(14) 0.1827(5) 0.3167(6)
H8 H 0.010287 0.209082 0.313996
C12 C 0.2460(12) 0.1622(5) 0.2375(6)
C13 C 0.6380(14) 0.1333(6) -0.3028(6)
H9 H 0.565486 0.153428 -0.357768
C14 C 0.5838(14) 0.1081(5) 0.0126(6)
H10 H 0.722479 0.076777 0.022964
C15 C 0.2727(15) 0.1654(6) 0.3972(7)
H11 H 0.210532 0.179032 0.450546
C16 C 0.5797(14) 0.1067(6) 0.3264(6)
H12 H 0.725017 0.080413 0.331266
C17 C 0.8457(14) 0.0914(6) -0.2990(7)
Br2 Br 1.47574(17) 0.36563(7) -0.40500(7)
N2 N 1.0669(12) 0.4157(5) 0.1629(6)
C18 C 0.6787(15) 0.3583(6) 0.3202(7)
H13 H 0.535985 0.330132 0.320736
C19 C 1.3449(15) 0.4057(6) -0.1459(7)
H14 H 1.416051 0.434504 -0.091007
C20 C 0.9752(13) 0.4079(5) 0.2376(6)
C21 C 0.9526(16) 0.3874(6) 0.0850(7)
C22 C 0.6348(14) 0.3448(6) 0.1555(8)
H15 H 0.485378 0.321342 0.150721
C23 C 1.3371(14) 0.3663(6) -0.3005(7)
C24 C 1.1053(14) 0.4364(6) 0.3216(7)
H16 H 1.250541 0.463197 0.323272
C25 C 1.4503(15) 0.4075(6) -0.2193(7)
H17 H 1.594809 0.435464 -0.216060
C26 C 1.0148(17) 0.3571(7) -0.0708(7)
H18 H 0.877165 0.323001 -0.079270
C27 C 0.7538(14) 0.3710(6) 0.2412(6)
C28 C 1.0300(15) 0.3228(6) -0.2309(7)
H19 H 0.887162 0.293297 -0.234756
C29 C 1.1322(16) 0.3621(7) -0.1489(8)
C30 C 0.7305(16) 0.3524(6) 0.0790(7)
H20 H 0.647549 0.334167 0.022413
C31 C 1.0786(16) 0.3936(6) 0.0061(7)
H21 H 1.216418 0.427563 0.015430
C32 C 0.8074(18) 0.3858(7) 0.3969(8)
H22 H 0.751687 0.378433 0.451493
C33 C 1.1290(15) 0.3255(6) -0.3053(7)
H23 H 1.054574 0.299223 -0.360784
C34 C 1.0216(16) 0.4252(6) 0.3992(7)
H24 H 1.108600 0.444051 0.454737
loop_
_geom_bond_atom_site_label_1
_geom_bond_atom_site_label_2
_geom_bond_site_symmetry_1
_geom_bond_site_symmetry_2
Br1 C17 1_555 1_555
N1 C3 1_555 1_555
C1 H1 1_555 1_555
C2 C1 1_555 1_555
H2 C2 1_555 1_555
C3 C1 1_555 1_555
C4 H3 1_555 1_555
C5 N1 1_555 1_555
C6 H4 1_555 1_555
C7 C4 1_555 1_555
C8 H5 1_555 1_555
C9 H6 1_555 1_555
C10 C7 1_555 1_555
H7 C10 1_555 1_555
C11 H8 1_555 1_555
C12 C2 1_555 1_555
C13 C4 1_555 1_555
H9 C13 1_555 1_555
C14 C3 1_555 1_555
H10 C14 1_555 1_555
C15 C9 1_555 1_555
H11 C15 1_555 1_555
C16 C5 1_555 1_555
H12 C16 1_555 1_555
C17 C8 1_555 1_555
Br2 C23 1_555 1_555
N2 C20 1_555 1_555
C18 H13 1_555 1_555
C19 H14 1_555 1_555
C20 C24 1_555 1_555
C21 N2 1_555 1_555
C22 H15 1_555 1_555
C23 C25 1_555 1_555
C24 H16 1_555 1_555
C25 C19 1_555 1_555
H17 C25 1_555 1_555
C26 H18 1_555 1_555
C27 C18 1_555 1_555
C28 H19 1_555 1_555
C29 C19 1_555 1_555
C30 C21 1_555 1_555
H20 C30 1_555 1_555
C31 C21 1_555 1_555
H21 C31 1_555 1_555
C32 C18 1_555 1_555
H22 C32 1_555 1_555
C33 C23 1_555 1_555
H23 C33 1_555 1_555
C34 C24 1_555 1_555
H24 C34 1_555 1_555
C5 C12 1_555 1_555
C6 C7 1_555 1_555
C6 C14 1_555 1_555
C8 C10 1_555 1_555
C9 C16 1_555 1_555
C11 C12 1_555 1_555
C11 C15 1_555 1_555
C13 C17 1_555 1_555
C20 C27 1_555 1_555
C22 C27 1_555 1_555
C22 C30 1_555 1_555
C26 C29 1_555 1_555
C26 C31 1_555 1_555
C28 C29 1_555 1_555
C28 C33 1_555 1_555
C32 C34 1_555 1_555

#END
