
#######################################################################
#
#                 Cambridge Crystallographic Data Centre
#                                CCDC 
#
#######################################################################
#
# If this CIF has been generated from an entry in the Cambridge 
# Structural Database, then it will include bibliographic, chemical, 
# crystal, experimental, refinement or atomic coordinate data resulting 
# from the CCDC's data processing and validation procedures.
#
#######################################################################

data_IGEBON
_chemical_formula_moiety         'C30 H36 B1 N1'
_chemical_name_systematic        
3-t-butyl-2-(2,6-diisopropylphenyl)-1-phenyl-1,2-dihydro-2,1-benzazaborinine
_symmetry_cell_setting           monoclinic
_symmetry_space_group_name_H-M   'P 21/c'
_symmetry_Int_Tables_number      14
_space_group_name_Hall           '-P 2ybc'
loop_
_symmetry_equiv_pos_site_id
_symmetry_equiv_pos_as_xyz
1 x,y,z
2 -x,1/2+y,1/2-z
3 -x,-y,-z
4 x,1/2-y,1/2+z
_cell_length_a                   12.188(3)
_cell_length_b                   12.090(3)
_cell_length_c                   16.690(4)
_cell_angle_alpha                90
_cell_angle_beta                 95.644(5)
_cell_angle_gamma                90
_cell_volume                     2447.4
_exptl_crystal_colour            colorless
_exptl_crystal_description       prism
_cell_formula_units_Z            4
loop_
_atom_site_label
_atom_site_type_symbol
_atom_site_fract_x
_atom_site_fract_y
_atom_site_fract_z
B1 B 0.32170(10) 0.30285(10) 0.15993(7)
N1 N 0.22709(7) 0.24695(7) 0.18655(5)
C1 C 0.25019(8) 0.15412(8) 0.24140(6)
C2 C 0.27948(8) 0.05102(8) 0.21120(6)
C3 C 0.30551(9) -0.03313(9) 0.26672(7)
H1 H 0.3250 -0.1040 0.2480
C4 C 0.30369(9) -0.01613(9) 0.34828(7)
H2 H 0.3212 -0.0751 0.3849
C5 C 0.27653(9) 0.08646(9) 0.37683(7)
H3 H 0.2764 0.0976 0.4332
C6 C 0.24936(8) 0.17386(9) 0.32420(6)
C7 C 0.28417(9) 0.02716(9) 0.12203(7)
H4 H 0.2774 0.0991 0.0923
C8 C 0.39424(10) -0.02575(9) 0.10663(8)
H5 H 0.4549 0.0166 0.1348
H6 H 0.4017 -0.0257 0.0487
H7 H 0.3966 -0.1020 0.1266
C9 C 0.18953(10) -0.04826(10) 0.08791(8)
H8 H 0.1930 -0.1184 0.1175
H9 H 0.1963 -0.0625 0.0308
H10 H 0.1188 -0.0120 0.0937
C10 C 0.22142(9) 0.28690(9) 0.35719(7)
H11 H 0.1753 0.3270 0.3136
C11 C 0.32604(10) 0.35529(10) 0.37824(7)
H12 H 0.3763 0.3146 0.4171
H13 H 0.3065 0.4260 0.4018
H14 H 0.3623 0.3690 0.3293
C12 C 0.15485(11) 0.28004(11) 0.43026(8)
H15 H 0.0907 0.2321 0.4175
H16 H 0.1300 0.3542 0.4438
H17 H 0.2013 0.2494 0.4762
C13 C 0.44046(8) 0.24912(8) 0.16719(6)
C14 C 0.50076(9) 0.20813(9) 0.23674(7)
H18 H 0.4694 0.2113 0.2866
C15 C 0.60536(9) 0.16297(9) 0.23443(8)
H19 H 0.6449 0.1366 0.2825
C16 C 0.65190(9) 0.15633(9) 0.16263(8)
H20 H 0.7232 0.1251 0.1612
C17 C 0.59497(9) 0.19504(9) 0.09284(8)
H21 H 0.6266 0.1897 0.0432
C18 C 0.49126(9) 0.24183(8) 0.09531(7)
H22 H 0.4535 0.2697 0.0470
C19 C 0.11847(8) 0.28783(9) 0.16951(6)
C20 C 0.10529(9) 0.38770(9) 0.13225(7)
H23 H 0.0321 0.4147 0.1214
C21 C 0.19227(9) 0.45528(9) 0.10816(6)
C22 C 0.30163(8) 0.41545(8) 0.11899(6)
C23 C 0.38610(9) 0.48433(9) 0.09456(6)
H24 H 0.4605 0.4599 0.1024
C24 C 0.36305(10) 0.58587(9) 0.05972(7)
H25 H 0.4210 0.6303 0.0432
C25 C 0.25428(10) 0.62354(9) 0.04869(7)
H26 H 0.2386 0.6936 0.0245
C26 C 0.16989(10) 0.56018(9) 0.07250(7)
H27 H 0.0962 0.5868 0.0650
C27 C 0.01089(8) 0.22373(9) 0.18294(7)
C28 C 0.01757(9) 0.11525(9) 0.23073(7)
H28 H 0.0502 0.1295 0.2858
H29 H 0.0634 0.0622 0.2047
H30 H -0.0567 0.0847 0.2322
C29 C -0.06527(10) 0.30035(10) 0.22641(8)
H31 H -0.1333 0.2608 0.2351
H32 H -0.0832 0.3661 0.1933
H33 H -0.0277 0.3229 0.2784
C30 C -0.04487(9) 0.19608(11) 0.09838(7)
H34 H 0.0042 0.1492 0.0700
H35 H -0.0601 0.2647 0.0681
H36 H -0.1142 0.1568 0.1034
loop_
_geom_bond_atom_site_label_1
_geom_bond_atom_site_label_2
_geom_bond_site_symmetry_1
_geom_bond_site_symmetry_2
B1 N1 1_555 1_555
N1 C1 1_555 1_555
C1 C2 1_555 1_555
C2 C3 1_555 1_555
C3 H1 1_555 1_555
C4 C3 1_555 1_555
H2 C4 1_555 1_555
C5 C4 1_555 1_555
H3 C5 1_555 1_555
C6 C1 1_555 1_555
C7 C2 1_555 1_555
H4 C7 1_555 1_555
C8 C7 1_555 1_555
H5 C8 1_555 1_555
H6 C8 1_555 1_555
H7 C8 1_555 1_555
C9 C7 1_555 1_555
H8 C9 1_555 1_555
H9 C9 1_555 1_555
H10 C9 1_555 1_555
C10 C6 1_555 1_555
H11 C10 1_555 1_555
C11 C10 1_555 1_555
H12 C11 1_555 1_555
H13 C11 1_555 1_555
H14 C11 1_555 1_555
C12 C10 1_555 1_555
H15 C12 1_555 1_555
H16 C12 1_555 1_555
H17 C12 1_555 1_555
C13 B1 1_555 1_555
C14 C13 1_555 1_555
H18 C14 1_555 1_555
C15 C14 1_555 1_555
H19 C15 1_555 1_555
C16 C15 1_555 1_555
H20 C16 1_555 1_555
C17 C16 1_555 1_555
H21 C17 1_555 1_555
C18 C13 1_555 1_555
H22 C18 1_555 1_555
C19 N1 1_555 1_555
C20 C19 1_555 1_555
H23 C20 1_555 1_555
C21 C20 1_555 1_555
C22 B1 1_555 1_555
C23 C22 1_555 1_555
H24 C23 1_555 1_555
C24 C23 1_555 1_555
H25 C24 1_555 1_555
C25 C24 1_555 1_555
H26 C25 1_555 1_555
C26 C21 1_555 1_555
H27 C26 1_555 1_555
C27 C19 1_555 1_555
C28 C27 1_555 1_555
H28 C28 1_555 1_555
H29 C28 1_555 1_555
H30 C28 1_555 1_555
C29 C27 1_555 1_555
H31 C29 1_555 1_555
H32 C29 1_555 1_555
H33 C29 1_555 1_555
C30 C27 1_555 1_555
H34 C30 1_555 1_555
H35 C30 1_555 1_555
H36 C30 1_555 1_555
C5 C6 1_555 1_555
C17 C18 1_555 1_555
C21 C22 1_555 1_555
C25 C26 1_555 1_555

#END
