
#######################################################################
#
#                 Cambridge Crystallographic Data Centre
#                                CCDC 
#
#######################################################################
#
# If this CIF has been generated from an entry in the Cambridge 
# Structural Database, then it will include bibliographic, chemical, 
# crystal, experimental, refinement or atomic coordinate data resulting 
# from the CCDC's data processing and validation procedures.
#
#######################################################################

data_IGEBIH
_chemical_formula_moiety         'C24 H31 B1 Br1 N1'
_chemical_name_systematic        
1-bromo-3-t-butyl-2-(2,6-diisopropylphenyl)-1,2-dihydro-2,1-benzazaborinine
_symmetry_cell_setting           monoclinic
_symmetry_space_group_name_H-M   'P 21/c'
_symmetry_Int_Tables_number      14
_space_group_name_Hall           '-P 2ybc'
loop_
_symmetry_equiv_pos_site_id
_symmetry_equiv_pos_as_xyz
1 x,y,z
2 -x,1/2+y,1/2-z
3 -x,-y,-z
4 x,1/2-y,1/2+z
_cell_length_a                   34.465(5)
_cell_length_b                   16.955(2)
_cell_length_c                   15.653(2)
_cell_angle_alpha                90
_cell_angle_beta                 103.019(2)
_cell_angle_gamma                90
_cell_volume                     8911.78
_exptl_crystal_colour            colorless
_exptl_crystal_description       prism
_cell_formula_units_Z            16
loop_
_atom_site_label
_atom_site_type_symbol
_atom_site_fract_x
_atom_site_fract_y
_atom_site_fract_z
B1 B 0.16291(9) 0.62560(19) 0.5581(2)
Br1 Br 0.158170(10) 0.736171(19) 0.51945(2)
N1 N 0.14876(6) 0.56435(13) 0.49608(14)
C1 C 0.18159(8) 0.60722(17) 0.65314(18)
C2 C 0.19610(9) 0.6631(2) 0.7200(2)
H1 H 0.1943 0.7178 0.7064
C3 C 0.21278(10) 0.6392(2) 0.8041(2)
H2 H 0.2221 0.6773 0.8485
C4 C 0.21599(10) 0.5589(2) 0.8243(2)
H3 H 0.2280 0.5428 0.8824
C5 C 0.20208(9) 0.5029(2) 0.7619(2)
H4 H 0.2044 0.4485 0.7767
C6 C 0.18412(8) 0.52656(18) 0.67500(18)
C7 C 0.16810(8) 0.46886(17) 0.60978(19)
H5 H 0.1697 0.4152 0.6276
C8 C 0.15080(8) 0.48444(16) 0.52435(18)
C9 C 0.13404(9) 0.41255(18) 0.4652(2)
C10 C 0.16843(14) 0.3522(2) 0.4725(3)
H6 H 0.1587 0.3055 0.4373
H7 H 0.1781 0.3368 0.5339
H8 H 0.1902 0.3762 0.4508
C11 C 0.10120(13) 0.3762(2) 0.5033(3)
H9 H 0.0791 0.4137 0.4977
H10 H 0.1117 0.3639 0.5654
H11 H 0.0917 0.3277 0.4714
C12 C 0.11721(11) 0.4246(2) 0.3667(2)
H12 H 0.1071 0.3743 0.3398
H13 H 0.1383 0.4441 0.3394
H14 H 0.0955 0.4631 0.3579
C13 C 0.13385(8) 0.58787(16) 0.40528(17)
C14 C 0.09447(8) 0.61421(18) 0.37810(19)
C15 C 0.08235(9) 0.64326(18) 0.2928(2)
H15 H 0.0556 0.6600 0.2722
C16 C 0.10829(10) 0.64817(18) 0.2376(2)
H16 H 0.0997 0.6699 0.1805
C17 C 0.14721(9) 0.62111(18) 0.26599(19)
H17 H 0.1649 0.6238 0.2275
C18 C 0.16056(8) 0.59028(17) 0.34954(18)
C19 C 0.06491(9) 0.6122(2) 0.4370(2)
H18 H 0.0791 0.5912 0.4954
C20 C 0.04909(12) 0.6936(3) 0.4514(3)
H19 H 0.0713 0.7281 0.4780
H20 H 0.0306 0.6894 0.4906
H21 H 0.0351 0.7156 0.3950
C21 C 0.02932(10) 0.5573(3) 0.4005(3)
H22 H 0.0119 0.5551 0.4420
H23 H 0.0392 0.5042 0.3923
H24 H 0.0143 0.5777 0.3441
C22 C 0.20326(8) 0.5600(2) 0.3788(2)
H25 H 0.2048 0.5275 0.4329
C23 C 0.23250(10) 0.6278(3) 0.4026(3)
H26 H 0.2315 0.6610 0.3509
H27 H 0.2595 0.6069 0.4230
H28 H 0.2254 0.6594 0.4493
C24 C 0.21575(9) 0.5077(2) 0.3106(2)
H29 H 0.1971 0.4635 0.2961
H30 H 0.2426 0.4873 0.3342
H31 H 0.2155 0.5386 0.2576
B2 B 0.33715(9) 0.3762(2) 0.9005(2)
Br2 Br 0.344313(10) 0.264261(19) 0.87619(2)
N2 N 0.34775(6) 0.43514(13) 0.84520(14)
C25 C 0.31967(8) 0.39834(17) 0.97795(17)
C26 C 0.31080(9) 0.3460(2) 1.0414(2)
H32 H 0.3164 0.2914 1.0378
C27 C 0.29433(10) 0.3727(2) 1.1079(2)
H33 H 0.2889 0.3368 1.1503
C28 C 0.28555(10) 0.4527(2) 1.1135(2)
H34 H 0.2736 0.4709 1.1589
C29 C 0.29414(9) 0.5051(2) 1.0537(2)
H35 H 0.2878 0.5593 1.0575
C30 C 0.31233(8) 0.47901(18) 0.98656(18)
C31 C 0.32405(9) 0.53421(18) 0.92811(19)
H36 H 0.3190 0.5884 0.9368
C32 C 0.34180(8) 0.51628(17) 0.86122(19)
C33 C 0.35517(10) 0.58686(19) 0.8109(2)
C34 C 0.38596(15) 0.6346(3) 0.8786(3)
H37 H 0.4084 0.6004 0.9050
H38 H 0.3734 0.6545 0.9245
H39 H 0.3956 0.6790 0.8492
C35 C 0.31802(14) 0.6381(3) 0.7759(3)
H40 H 0.3249 0.6812 0.7404
H41 H 0.3084 0.6600 0.8253
H42 H 0.2971 0.6056 0.7397
C36 C 0.37398(11) 0.5715(2) 0.7326(2)
H43 H 0.3974 0.5376 0.7510
H44 H 0.3820 0.6217 0.7108
H45 H 0.3546 0.5453 0.6858
C37 C 0.36384(8) 0.40932(16) 0.77165(17)
C38 C 0.40455(8) 0.39001(17) 0.78575(18)
C39 C 0.41867(9) 0.36054(18) 0.71565(19)
H46 H 0.4461 0.3483 0.7235
C40 C 0.39330(9) 0.34868(17) 0.63445(19)
H47 H 0.4033 0.3276 0.5875
C41 C 0.35326(9) 0.36751(17) 0.62171(18)
H48 H 0.3361 0.3591 0.5658
C42 C 0.33762(8) 0.39854(17) 0.68908(18)
C43 C 0.43341(9) 0.4010(2) 0.8747(2)
H49 H 0.4181 0.4227 0.9167
C44 C 0.46697(10) 0.4599(2) 0.8689(2)
H50 H 0.4830 0.4386 0.8299
H51 H 0.4839 0.4681 0.9275
H52 H 0.4552 0.5103 0.8456
C45 C 0.45180(11) 0.3223(2) 0.9109(2)
H53 H 0.4306 0.2859 0.9178
H54 H 0.4700 0.3309 0.9680
H55 H 0.4666 0.2996 0.8701
C46 C 0.29329(8) 0.41808(19) 0.67252(19)
H56 H 0.2886 0.4481 0.7242
C47 C 0.26887(10) 0.3420(2) 0.6642(3)
H57 H 0.2708 0.3143 0.6104
H58 H 0.2409 0.3548 0.6620
H59 H 0.2792 0.3081 0.7150
C48 C 0.27911(10) 0.4690(2) 0.5905(2)
H60 H 0.2957 0.5164 0.5948
H61 H 0.2513 0.4844 0.5858
H62 H 0.2813 0.4388 0.5384
B3 B 0.39163(9) 0.8622(2) 0.6932(2)
Br3 Br 0.434646(10) 0.83938(2) 0.63508(2)
N3 N 0.39867(6) 0.91135(13) 0.76877(14)
C49 C 0.35072(8) 0.82632(16) 0.65703(18)
C50 C 0.34040(9) 0.77967(18) 0.5813(2)
H63 H 0.3602 0.7661 0.5502
C51 C 0.30184(10) 0.7533(2) 0.5513(2)
H64 H 0.2950 0.7224 0.4995
C52 C 0.27268(10) 0.7726(2) 0.5978(2)
H65 H 0.2461 0.7545 0.5771
C53 C 0.28206(9) 0.81685(18) 0.6724(2)
H66 H 0.2622 0.8287 0.7037
C54 C 0.32135(8) 0.84524(16) 0.70333(18)
C55 C 0.33155(8) 0.89365(16) 0.77979(18)
H67 H 0.3112 0.9036 0.8104
C56 C 0.36783(8) 0.92685(16) 0.81291(17)
C57 C 0.37140(8) 0.97900(17) 0.89620(18)
C58 C 0.36139(10) 0.9266(2) 0.9690(2)
H68 H 0.3804 0.8829 0.9817
H69 H 0.3344 0.9055 0.9493
H70 H 0.3630 0.9582 1.0221
C59 C 0.33999(9) 1.0458(2) 0.8729(2)
H71 H 0.3134 1.0227 0.8546
H72 H 0.3457 1.0778 0.8250
H73 H 0.3411 1.0793 0.9245
C60 C 0.41099(8) 1.02013(19) 0.93687(18)
H74 H 0.4082 1.0496 0.9890
H75 H 0.4179 1.0565 0.8940
H76 H 0.4320 0.9805 0.9535
C61 C 0.43849(7) 0.94536(16) 0.79765(16)
C62 C 0.46794(8) 0.90169(17) 0.85442(17)
C63 C 0.50561(8) 0.93552(18) 0.88013(18)
H77 H 0.5260 0.9078 0.9197
C64 C 0.51391(8) 1.00844(18) 0.84928(19)
H78 H 0.5398 1.0305 0.8679
C65 C 0.48455(8) 1.04952(18) 0.79116(19)
H79 H 0.4906 1.0994 0.7698
C66 C 0.44617(8) 1.01879(17) 0.76357(17)
C67 C 0.46054(9) 0.82048(18) 0.8888(2)
H80 H 0.4318 0.8072 0.8658
C68 C 0.48569(11) 0.75716(19) 0.8559(2)
H81 H 0.4804 0.7589 0.7917
H82 H 0.4787 0.7050 0.8747
H83 H 0.5140 0.7673 0.8803
C69 C 0.46899(12) 0.8181(2) 0.9887(2)
H84 H 0.4969 0.8318 1.0128
H85 H 0.4637 0.7649 1.0079
H86 H 0.4517 0.8560 1.0095
C70 C 0.41514(8) 1.06540(18) 0.69846(19)
H87 H 0.3888 1.0389 0.6934
C71 C 0.42477(11) 1.0652(2) 0.6078(2)
H88 H 0.4516 1.0865 0.6122
H89 H 0.4053 1.0979 0.5677
H90 H 0.4236 1.0111 0.5855
C72 C 0.41123(11) 1.1507(2) 0.7279(3)
H91 H 0.4068 1.1510 0.7876
H92 H 0.3887 1.1761 0.6880
H93 H 0.4357 1.1797 0.7269
B4 B 0.10755(10) 0.1469(2) 0.3008(2)
Br4 Br 0.063506(10) 0.17528(2) 0.20535(2)
N4 N 0.10160(6) 0.09213(14) 0.36583(15)
C73 C 0.14807(9) 0.18486(17) 0.3057(2)
C74 C 0.15745(10) 0.23853(19) 0.2449(2)
H94 H 0.1375 0.2536 0.1953
C75 C 0.19501(11) 0.2694(2) 0.2563(3)
H95 H 0.2009 0.3056 0.2146
C76 C 0.22485(10) 0.2477(2) 0.3295(3)
H96 H 0.2508 0.2696 0.3373
C77 C 0.21686(9) 0.1958(2) 0.3889(3)
H97 H 0.2373 0.1811 0.4378
C78 C 0.17811(9) 0.16313(18) 0.3789(2)
C79 C 0.16925(9) 0.10839(19) 0.4411(2)
H98 H 0.1904 0.0952 0.4894
C80 C 0.13358(8) 0.07352(17) 0.43800(18)
C81 C 0.13088(9) 0.01782(19) 0.51555(19)
C82 C 0.14029(13) 0.0680(2) 0.6005(2)
H99 H 0.1219 0.1128 0.5942
H100 H 0.1677 0.0875 0.6108
H101 H 0.1372 0.0355 0.6503
C83 C 0.16329(11) -0.0465(2) 0.5219(2)
H102 H 0.1626 -0.0817 0.5712
H103 H 0.1895 -0.0215 0.5311
H104 H 0.1583 -0.0770 0.4673
C84 C 0.09223(11) -0.0260(2) 0.5162(2)
H105 H 0.0956 -0.0569 0.5703
H106 H 0.0857 -0.0614 0.4655
H107 H 0.0706 0.0121 0.5133
C85 C 0.06255(8) 0.05561(17) 0.35406(17)
C86 C 0.03248(8) 0.09579(18) 0.38408(18)
C87 C -0.00460(9) 0.0598(2) 0.3719(2)
H108 H -0.0253 0.0853 0.3924
C88 C -0.01191(9) -0.0126(2) 0.3304(2)
H109 H -0.0374 -0.0364 0.3231
C89 C 0.01774(9) -0.05028(19) 0.2996(2)
H110 H 0.0124 -0.0999 0.2711
C90 C 0.05546(8) -0.01648(17) 0.30971(18)
C91 C 0.03864(9) 0.17624(19) 0.4282(2)
H111 H 0.0667 0.1930 0.4306
C92 C 0.01090(10) 0.2385(2) 0.3758(2)
H112 H -0.0168 0.2246 0.3745
H113 H 0.0148 0.2406 0.3158
H114 H 0.0170 0.2902 0.4037
C93 C 0.03285(13) 0.1740(2) 0.5216(2)
H115 H 0.0053 0.1592 0.5210
H116 H 0.0385 0.2262 0.5484
H117 H 0.0510 0.1352 0.5557
C94 C 0.08692(9) -0.05805(18) 0.2718(2)
H118 H 0.1129 -0.0306 0.2940
C95 C 0.07647(11) -0.0523(2) 0.1716(2)
H119 H 0.0511 -0.0794 0.1485
H120 H 0.0975 -0.0772 0.1481
H121 H 0.0740 0.0033 0.1541
C96 C 0.09226(12) -0.1455(2) 0.2980(3)
H122 H 0.0992 -0.1499 0.3620
H123 H 0.1136 -0.1683 0.2739
H124 H 0.0674 -0.1739 0.2747
loop_
_geom_bond_atom_site_label_1
_geom_bond_atom_site_label_2
_geom_bond_site_symmetry_1
_geom_bond_site_symmetry_2
B1 Br1 1_555 1_555
N1 B1 1_555 1_555
C1 B1 1_555 1_555
C2 C1 1_555 1_555
H1 C2 1_555 1_555
C3 C2 1_555 1_555
H2 C3 1_555 1_555
C4 C3 1_555 1_555
H3 C4 1_555 1_555
C5 C4 1_555 1_555
H4 C5 1_555 1_555
C6 C1 1_555 1_555
C7 C6 1_555 1_555
H5 C7 1_555 1_555
C8 N1 1_555 1_555
C9 C8 1_555 1_555
C10 C9 1_555 1_555
H6 C10 1_555 1_555
H7 C10 1_555 1_555
H8 C10 1_555 1_555
C11 C9 1_555 1_555
H9 C11 1_555 1_555
H10 C11 1_555 1_555
H11 C11 1_555 1_555
C12 C9 1_555 1_555
H12 C12 1_555 1_555
H13 C12 1_555 1_555
H14 C12 1_555 1_555
C13 N1 1_555 1_555
C14 C13 1_555 1_555
C15 C14 1_555 1_555
H15 C15 1_555 1_555
C16 C15 1_555 1_555
H16 C16 1_555 1_555
C17 C16 1_555 1_555
H17 C17 1_555 1_555
C18 C13 1_555 1_555
C19 C14 1_555 1_555
H18 C19 1_555 1_555
C20 C19 1_555 1_555
H19 C20 1_555 1_555
H20 C20 1_555 1_555
H21 C20 1_555 1_555
C21 C19 1_555 1_555
H22 C21 1_555 1_555
H23 C21 1_555 1_555
H24 C21 1_555 1_555
C22 C18 1_555 1_555
H25 C22 1_555 1_555
C23 C22 1_555 1_555
H26 C23 1_555 1_555
H27 C23 1_555 1_555
H28 C23 1_555 1_555
C24 C22 1_555 1_555
H29 C24 1_555 1_555
H30 C24 1_555 1_555
H31 C24 1_555 1_555
B2 Br2 1_555 1_555
N2 B2 1_555 1_555
C25 B2 1_555 1_555
C26 C25 1_555 1_555
H32 C26 1_555 1_555
C27 C26 1_555 1_555
H33 C27 1_555 1_555
C28 C27 1_555 1_555
H34 C28 1_555 1_555
C29 C28 1_555 1_555
H35 C29 1_555 1_555
C30 C25 1_555 1_555
C31 C30 1_555 1_555
H36 C31 1_555 1_555
C32 N2 1_555 1_555
C33 C32 1_555 1_555
C34 C33 1_555 1_555
H37 C34 1_555 1_555
H38 C34 1_555 1_555
H39 C34 1_555 1_555
C35 C33 1_555 1_555
H40 C35 1_555 1_555
H41 C35 1_555 1_555
H42 C35 1_555 1_555
C36 C33 1_555 1_555
H43 C36 1_555 1_555
H44 C36 1_555 1_555
H45 C36 1_555 1_555
C37 N2 1_555 1_555
C38 C37 1_555 1_555
C39 C38 1_555 1_555
H46 C39 1_555 1_555
C40 C39 1_555 1_555
H47 C40 1_555 1_555
C41 C40 1_555 1_555
H48 C41 1_555 1_555
C42 C37 1_555 1_555
C43 C38 1_555 1_555
H49 C43 1_555 1_555
C44 C43 1_555 1_555
H50 C44 1_555 1_555
H51 C44 1_555 1_555
H52 C44 1_555 1_555
C45 C43 1_555 1_555
H53 C45 1_555 1_555
H54 C45 1_555 1_555
H55 C45 1_555 1_555
C46 C42 1_555 1_555
H56 C46 1_555 1_555
C47 C46 1_555 1_555
H57 C47 1_555 1_555
H58 C47 1_555 1_555
H59 C47 1_555 1_555
C48 C46 1_555 1_555
H60 C48 1_555 1_555
H61 C48 1_555 1_555
H62 C48 1_555 1_555
B3 Br3 1_555 1_555
N3 B3 1_555 1_555
C49 B3 1_555 1_555
C50 C49 1_555 1_555
H63 C50 1_555 1_555
C51 C50 1_555 1_555
H64 C51 1_555 1_555
C52 C51 1_555 1_555
H65 C52 1_555 1_555
C53 C52 1_555 1_555
H66 C53 1_555 1_555
C54 C49 1_555 1_555
C55 C54 1_555 1_555
H67 C55 1_555 1_555
C56 N3 1_555 1_555
C57 C56 1_555 1_555
C58 C57 1_555 1_555
H68 C58 1_555 1_555
H69 C58 1_555 1_555
H70 C58 1_555 1_555
C59 C57 1_555 1_555
H71 C59 1_555 1_555
H72 C59 1_555 1_555
H73 C59 1_555 1_555
C60 C57 1_555 1_555
H74 C60 1_555 1_555
H75 C60 1_555 1_555
H76 C60 1_555 1_555
C61 N3 1_555 1_555
C62 C61 1_555 1_555
C63 C62 1_555 1_555
H77 C63 1_555 1_555
C64 C63 1_555 1_555
H78 C64 1_555 1_555
C65 C64 1_555 1_555
H79 C65 1_555 1_555
C66 C61 1_555 1_555
C67 C62 1_555 1_555
H80 C67 1_555 1_555
C68 C67 1_555 1_555
H81 C68 1_555 1_555
H82 C68 1_555 1_555
H83 C68 1_555 1_555
C69 C67 1_555 1_555
H84 C69 1_555 1_555
H85 C69 1_555 1_555
H86 C69 1_555 1_555
C70 C66 1_555 1_555
H87 C70 1_555 1_555
C71 C70 1_555 1_555
H88 C71 1_555 1_555
H89 C71 1_555 1_555
H90 C71 1_555 1_555
C72 C70 1_555 1_555
H91 C72 1_555 1_555
H92 C72 1_555 1_555
H93 C72 1_555 1_555
B4 Br4 1_555 1_555
N4 B4 1_555 1_555
C73 B4 1_555 1_555
C74 C73 1_555 1_555
H94 C74 1_555 1_555
C75 C74 1_555 1_555
H95 C75 1_555 1_555
C76 C75 1_555 1_555
H96 C76 1_555 1_555
C77 C76 1_555 1_555
H97 C77 1_555 1_555
C78 C73 1_555 1_555
C79 C78 1_555 1_555
H98 C79 1_555 1_555
C80 N4 1_555 1_555
C81 C80 1_555 1_555
C82 C81 1_555 1_555
H99 C82 1_555 1_555
H100 C82 1_555 1_555
H101 C82 1_555 1_555
C83 C81 1_555 1_555
H102 C83 1_555 1_555
H103 C83 1_555 1_555
H104 C83 1_555 1_555
C84 C81 1_555 1_555
H105 C84 1_555 1_555
H106 C84 1_555 1_555
H107 C84 1_555 1_555
C85 N4 1_555 1_555
C86 C85 1_555 1_555
C87 C86 1_555 1_555
H108 C87 1_555 1_555
C88 C87 1_555 1_555
H109 C88 1_555 1_555
C89 C88 1_555 1_555
H110 C89 1_555 1_555
C90 C85 1_555 1_555
C91 C86 1_555 1_555
H111 C91 1_555 1_555
C92 C91 1_555 1_555
H112 C92 1_555 1_555
H113 C92 1_555 1_555
H114 C92 1_555 1_555
C93 C91 1_555 1_555
H115 C93 1_555 1_555
H116 C93 1_555 1_555
H117 C93 1_555 1_555
C94 C90 1_555 1_555
H118 C94 1_555 1_555
C95 C94 1_555 1_555
H119 C95 1_555 1_555
H120 C95 1_555 1_555
H121 C95 1_555 1_555
C96 C94 1_555 1_555
H122 C96 1_555 1_555
H123 C96 1_555 1_555
H124 C96 1_555 1_555
C5 C6 1_555 1_555
C7 C8 1_555 1_555
C17 C18 1_555 1_555
C29 C30 1_555 1_555
C31 C32 1_555 1_555
C41 C42 1_555 1_555
C53 C54 1_555 1_555
C55 C56 1_555 1_555
C65 C66 1_555 1_555
C77 C78 1_555 1_555
C79 C80 1_555 1_555
C89 C90 1_555 1_555

#END
