
#######################################################################
#
#                 Cambridge Crystallographic Data Centre
#                                CCDC 
#
#######################################################################
#
# If this CIF has been generated from an entry in the Cambridge 
# Structural Database, then it will include bibliographic, chemical, 
# crystal, experimental, refinement or atomic coordinate data resulting 
# from the CCDC's data processing and validation procedures.
#
#######################################################################

data_IGECOO
_chemical_formula_moiety         'C10 H14 B10 N2 S1'
_chemical_name_systematic        
1-(5-(2,2-dicyanovinyl)thien-2-yl)-1,2-dicarba-closo-dodecaborane(11)
_symmetry_cell_setting           monoclinic
_symmetry_space_group_name_H-M   'P 21/c'
_symmetry_Int_Tables_number      14
_space_group_name_Hall           '-P 2ybc'
loop_
_symmetry_equiv_pos_site_id
_symmetry_equiv_pos_as_xyz
1 x,y,z
2 -x,1/2+y,1/2-z
3 -x,-y,-z
4 x,1/2-y,1/2+z
_cell_length_a                   18.348(6)
_cell_length_b                   7.522(2)
_cell_length_c                   12.006(4)
_cell_angle_alpha                90
_cell_angle_beta                 104.643(6)
_cell_angle_gamma                90
_cell_volume                     1603.17
_exptl_crystal_colour            colorless
_exptl_crystal_description       block
_cell_formula_units_Z            4
loop_
_atom_site_label
_atom_site_type_symbol
_atom_site_fract_x
_atom_site_fract_y
_atom_site_fract_z
S1 S 0.19363(5) 0.63274(10) 0.09231(7)
N1 N -0.0286(2) 0.0971(5) -0.1294(3)
N2 N 0.0984(2) 0.3306(5) 0.1991(3)
B1 B 0.2592(2) 1.0411(5) 0.2518(3)
H1 H 0.2012 1.0425 0.2616
B2 B 0.3140(2) 0.8495(5) 0.2813(3)
H2 H 0.2929 0.7251 0.3098
B3 B 0.3733(2) 0.8524(5) 0.1887(3)
H3 H 0.3914 0.7277 0.1561
B4 B 0.3543(2) 1.0378(5) 0.1026(4)
H4 H 0.3596 1.0361 0.0134
B5 B 0.3772(3) 1.2268(6) 0.1901(4)
H5 H 0.3981 1.3503 0.1602
B6 B 0.3169(3) 1.2288(6) 0.2840(4)
H6 H 0.2981 1.3539 0.3153
B7 B 0.3357(3) 1.0350(7) 0.3714(4)
H7 H 0.3291 1.0333 0.4599
B8 B 0.4084(3) 0.9155(7) 0.3313(4)
H8 H 0.4497 0.8355 0.3935
B9 B 0.4336(3) 1.0327(7) 0.2191(4)
H9 H 0.4912 1.0295 0.2079
B10 B 0.4100(3) 1.1501(7) 0.3339(4)
H10 H 0.4523 1.2240 0.3985
C1 C 0.28440(18) 0.9326(4) 0.1450(3)
C2 C 0.2827(2) 1.1591(5) 0.1401(4)
H11 H 0.2413 1.2373 0.0767
C3 C 0.22645(18) 0.8334(4) 0.0589(3)
C4 C 0.1920(2) 0.8840(5) -0.0520(3)
H12 H 0.2022 0.9901 -0.0850
C5 C 0.1402(2) 0.7585(5) -0.1094(3)
H13 H 0.1126 0.7720 -0.1854
C6 C 0.13365(19) 0.6138(4) -0.0439(3)
C7 C 0.08504(19) 0.4651(4) -0.0837(3)
H14 H 0.0659 0.4581 -0.1630
C8 C 0.06310(19) 0.3345(4) -0.0229(3)
C9 C 0.0125(2) 0.1995(5) -0.0809(3)
C10 C 0.0838(2) 0.3288(4) 0.1014(3)
loop_
_geom_bond_atom_site_label_1
_geom_bond_atom_site_label_2
_geom_bond_site_symmetry_1
_geom_bond_site_symmetry_2
S1 C3 1_555 1_555
N1 C9 1_555 1_555
N2 C10 1_555 1_555
B1 H1 1_555 1_555
B2 B1 1_555 1_555
H2 B2 1_555 1_555
B3 B2 1_555 1_555
H3 B3 1_555 1_555
B4 B3 1_555 1_555
H4 B4 1_555 1_555
B5 B4 1_555 1_555
H5 B5 1_555 1_555
B6 B1 1_555 1_555
H6 B6 1_555 1_555
B7 B1 1_555 1_555
H7 B7 1_555 1_555
B8 B2 1_555 1_555
H8 B8 1_555 1_555
B9 B3 1_555 1_555
H9 B9 1_555 1_555
B10 B5 1_555 1_555
H10 B10 1_555 1_555
C1 B1 1_555 1_555
C2 B1 1_555 1_555
H11 C2 1_555 1_555
C3 C1 1_555 1_555
C4 C3 1_555 1_555
H12 C4 1_555 1_555
C5 C4 1_555 1_555
H13 C5 1_555 1_555
C6 S1 1_555 1_555
C7 C6 1_555 1_555
H14 C7 1_555 1_555
C8 C7 1_555 1_555
C9 C8 1_555 1_555
C10 C8 1_555 1_555
B2 B7 1_555 1_555
B2 C1 1_555 1_555
B3 B8 1_555 1_555
B3 C1 1_555 1_555
B4 B9 1_555 1_555
B4 C1 1_555 1_555
B4 C2 1_555 1_555
B5 B6 1_555 1_555
B5 B9 1_555 1_555
B5 C2 1_555 1_555
B6 B7 1_555 1_555
B6 B10 1_555 1_555
B6 C2 1_555 1_555
B7 B8 1_555 1_555
B7 B10 1_555 1_555
B8 B9 1_555 1_555
B8 B10 1_555 1_555
B9 B10 1_555 1_555
C1 C2 1_555 1_555
C5 C6 1_555 1_555

#END
