
#######################################################################
#
#                 Cambridge Crystallographic Data Centre
#                                CCDC 
#
#######################################################################
#
# If this CIF has been generated from an entry in the Cambridge 
# Structural Database, then it will include bibliographic, chemical, 
# crystal, experimental, refinement or atomic coordinate data resulting 
# from the CCDC's data processing and validation procedures.
#
#######################################################################

data_IGECUU
_chemical_formula_moiety         'C18 H16 B10 N4 S2'
_chemical_name_systematic        
1,2-bis(5-(2,2-dicyanovinyl)thien-2-yl)-1,2-dicarba-closo-dodecaborane(10)
_symmetry_cell_setting           monoclinic
_symmetry_space_group_name_H-M   'C 2/c'
_symmetry_Int_Tables_number      15
_space_group_name_Hall           '-C 2yn'
loop_
_symmetry_equiv_pos_site_id
_symmetry_equiv_pos_as_xyz
1 x,y,z
2 -x,y,1/2-z
3 1/2+x,1/2+y,z
4 1/2-x,1/2+y,1/2-z
5 -x,-y,-z
6 x,-y,1/2+z
7 1/2-x,1/2-y,-z
8 1/2+x,1/2-y,1/2+z
_cell_length_a                   15.986(8)
_cell_length_b                   11.333(6)
_cell_length_c                   14.165(7)
_cell_angle_alpha                90
_cell_angle_beta                 114.529(8)
_cell_angle_gamma                90
_cell_volume                     2334.66
_exptl_crystal_colour            colorless
_exptl_crystal_description       block
_cell_formula_units_Z            4
loop_
_atom_site_label
_atom_site_type_symbol
_atom_site_fract_x
_atom_site_fract_y
_atom_site_fract_z
S1 S 0.42260(12) 0.20520(14) 0.09418(13)
N1 N 0.3101(5) -0.2707(5) -0.0825(5)
N2 N 0.4185(6) 0.0648(6) -0.1259(6)
B1 B 0.3876(6) 0.5335(6) 0.2275(5)
H1 H 0.3145 0.5324 0.2132
B2 B 0.4223(5) 0.5343(6) 0.1238(5)
H2 H 0.3720 0.5343 0.0423
B3 B 0.5284(5) 0.4548(6) 0.1662(5)
H3 H 0.5467 0.4013 0.1129
B4 B 0.4416(7) 0.6603(6) 0.2044(6)
H4 H 0.4040 0.7432 0.1751
B5 B 0.4714(6) 0.6109(6) 0.3342(6)
H5 H 0.4525 0.6610 0.3890
C1 C 0.4434(4) 0.4164(5) 0.2048(4)
C2 C 0.3963(4) 0.3017(5) 0.1713(4)
C3 C 0.3283(5) 0.2584(6) 0.1964(5)
H6 H 0.3035 0.2996 0.2355
C4 C 0.3001(5) 0.1451(6) 0.1566(5)
H7 H 0.2556 0.1025 0.1684
C5 C 0.3437(5) 0.1036(5) 0.0996(5)
C6 C 0.3285(5) -0.0125(5) 0.0534(5)
H8 H 0.2990 -0.0653 0.0796
C7 C 0.3505(5) -0.0558(6) -0.0215(5)
C8 C 0.3281(5) -0.1766(6) -0.0548(5)
C9 C 0.3898(6) 0.0123(6) -0.0782(6)
S1A S 0.57740(12) 0.20520(14) 0.40582(13)
N1A N 0.6899(5) -0.2707(5) 0.5825(5)
N2A N 0.5815(6) 0.0648(6) 0.6259(6)
B1A B 0.6124(6) 0.5335(6) 0.2725(5)
H1A H 0.6855 0.5324 0.2868
B2A B 0.5777(5) 0.5343(6) 0.3762(5)
H2A H 0.6280 0.5343 0.4577
B3A B 0.4716(5) 0.4548(6) 0.3338(5)
H3A H 0.4533 0.4013 0.3871
B4A B 0.5584(7) 0.6603(6) 0.2956(6)
H4A H 0.5960 0.7432 0.3249
B5A B 0.5286(6) 0.6109(6) 0.1658(6)
H5A H 0.5475 0.6610 0.1110
C1A C 0.5566(4) 0.4164(5) 0.2952(4)
C2A C 0.6037(4) 0.3017(5) 0.3287(4)
C3A C 0.6717(5) 0.2584(6) 0.3036(5)
H6A H 0.6965 0.2996 0.2645
C4A C 0.6999(5) 0.1451(6) 0.3434(5)
H7A H 0.7444 0.1025 0.3316
C5A C 0.6563(5) 0.1036(5) 0.4004(5)
C6A C 0.6715(5) -0.0125(5) 0.4466(5)
H8A H 0.7010 -0.0653 0.4204
C7A C 0.6495(5) -0.0558(6) 0.5215(5)
C8A C 0.6719(5) -0.1766(6) 0.5548(5)
C9A C 0.6102(6) 0.0123(6) 0.5782(6)
loop_
_geom_bond_atom_site_label_1
_geom_bond_atom_site_label_2
_geom_bond_site_symmetry_1
_geom_bond_site_symmetry_2
S1 C2 1_555 1_555
N1 C8 1_555 1_555
N2 C9 1_555 1_555
B1 H1 1_555 1_555
B2 B1 1_555 1_555
H2 B2 1_555 1_555
B3 B2 1_555 1_555
H3 B3 1_555 1_555
B4 B1 1_555 1_555
H4 B4 1_555 1_555
B5 B1 1_555 1_555
H5 B5 1_555 1_555
C1 B1 1_555 1_555
C2 C1 1_555 1_555
C3 C2 1_555 1_555
H6 C3 1_555 1_555
C4 C3 1_555 1_555
H7 C4 1_555 1_555
C5 S1 1_555 1_555
C6 C5 1_555 1_555
H8 C6 1_555 1_555
C7 C6 1_555 1_555
C8 C7 1_555 1_555
C9 C7 1_555 1_555
S1A C2A 1_555 1_555
N1A C8A 1_555 1_555
N2A C9A 1_555 1_555
B1A B3 1_555 1_555
H1A B1A 1_555 1_555
B2A B5 1_555 1_555
H2A B2A 1_555 1_555
B3A B1 1_555 1_555
H3A B3A 1_555 1_555
B4A B4 1_555 1_555
H4A B4A 1_555 1_555
B5A B2 1_555 1_555
H5A B5A 1_555 1_555
C1A B3 1_555 1_555
C2A C1A 1_555 1_555
C3A C2A 1_555 1_555
H6A C3A 1_555 1_555
C4A C3A 1_555 1_555
H7A C4A 1_555 1_555
C5A S1A 1_555 1_555
C6A C5A 1_555 1_555
H8A C6A 1_555 1_555
C7A C6A 1_555 1_555
C8A C7A 1_555 1_555
C9A C7A 1_555 1_555
B2 B4 1_555 1_555
B2 C1 1_555 1_555
B3 C1 1_555 1_555
B3 B5A 1_555 1_555
B4 B5 1_555 1_555
B4 B5A 1_555 1_555
B5 B3A 1_555 1_555
B5 B4A 1_555 1_555
C1 B3A 1_555 1_555
C1 C1A 1_555 1_555
C4 C5 1_555 1_555
B1A B2A 1_555 1_555
B1A B4A 1_555 1_555
B1A B5A 1_555 1_555
B1A C1A 1_555 1_555
B2A B3A 1_555 1_555
B2A B4A 1_555 1_555
B2A C1A 1_555 1_555
B3A C1A 1_555 1_555
B4A B5A 1_555 1_555
C4A C5A 1_555 1_555

#END
