
#######################################################################
#
#                 Cambridge Crystallographic Data Centre
#                                CCDC 
#
#######################################################################
#
# If this CIF has been generated from an entry in the Cambridge 
# Structural Database, then it will include bibliographic, chemical, 
# crystal, experimental, refinement or atomic coordinate data resulting 
# from the CCDC's data processing and validation procedures.
#
#######################################################################

data_IGEDEF
_chemical_formula_moiety         'C15 H18 N2 O1'
_chemical_name_systematic        
8,9-dimethyl-6a,7,8,9,9a,10-hexahydro-2H-pyrrolo[2',3':6,7]oxepino[4,3,2-cd]indole
_symmetry_cell_setting           orthorhombic
_symmetry_space_group_name_H-M   'P 21 21 21'
_symmetry_Int_Tables_number      19
_space_group_name_Hall           'P 2ac 2ab'
loop_
_symmetry_equiv_pos_site_id
_symmetry_equiv_pos_as_xyz
1 x,y,z
2 1/2-x,-y,1/2+z
3 -x,1/2+y,1/2-z
4 1/2+x,1/2-y,-z
_cell_length_a                   7.2130(3)
_cell_length_b                   12.9671(5)
_cell_length_c                   14.1141(6)
_cell_angle_alpha                90
_cell_angle_beta                 90
_cell_angle_gamma                90
_cell_volume                     1320.12
_exptl_crystal_colour            colorless
_exptl_crystal_description       block
_cell_formula_units_Z            4
loop_
_atom_site_label
_atom_site_type_symbol
_atom_site_fract_x
_atom_site_fract_y
_atom_site_fract_z
O1 O -0.06560(16) 0.78569(10) 0.68735(8)
N1 N 0.34488(19) 0.80387(11) 0.82320(9)
N2 N 0.1366(3) 1.03375(13) 0.46686(11)
H1 H 0.1426 1.0740 0.4186
C1 C 0.2269(3) 0.72459(14) 0.86800(12)
H2 H 0.2513 0.7232 0.9363
C2 C 0.0337(3) 0.76797(18) 0.85042(13)
H3 H -0.0047 0.8117 0.9026
H4 H -0.0558 0.7127 0.8432
C3 C 0.0497(2) 0.83078(14) 0.75857(11)
H5 H 0.0108 0.9021 0.7702
C4 C -0.0896(2) 0.84267(13) 0.60594(12)
C5 C -0.2495(3) 0.82280(16) 0.55513(14)
H6 H -0.3326 0.7733 0.5767
C6 C -0.2874(3) 0.87671(18) 0.47132(15)
H7 H -0.3965 0.8628 0.4386
C7 C -0.1683(3) 0.94919(17) 0.43640(14)
H8 H -0.1951 0.9852 0.3811
C8 C -0.0053(3) 0.96733(14) 0.48668(12)
C9 C 0.0385(2) 0.91595(13) 0.57272(11)
C10 C 0.2675(3) 1.02563(15) 0.53640(14)
H9 H 0.3775 1.0630 0.5380
C11 C 0.2154(2) 0.95561(13) 0.60303(12)
C12 C 0.3220(2) 0.92969(14) 0.69088(13)
H10 H 0.3061 0.9843 0.7372
H11 H 0.4529 0.9247 0.6759
C13 C 0.2560(2) 0.82849(12) 0.73255(11)
H12 H 0.2789 0.7726 0.6873
C14 C 0.5406(3) 0.77725(17) 0.81570(14)
H13 H 0.5549 0.7197 0.7736
H14 H 0.5876 0.7593 0.8772
H15 H 0.6083 0.8352 0.7914
C15 C 0.2473(4) 0.61632(16) 0.82798(17)
H16 H 0.2122 0.6163 0.7624
H17 H 0.1687 0.5699 0.8625
H18 H 0.3740 0.5944 0.8338
loop_
_geom_bond_atom_site_label_1
_geom_bond_atom_site_label_2
_geom_bond_site_symmetry_1
_geom_bond_site_symmetry_2
O1 C3 1_555 1_555
N1 C1 1_555 1_555
N2 H1 1_555 1_555
C1 H2 1_555 1_555
C2 C1 1_555 1_555
H3 C2 1_555 1_555
H4 C2 1_555 1_555
C3 C2 1_555 1_555
H5 C3 1_555 1_555
C4 O1 1_555 1_555
C5 C4 1_555 1_555
H6 C5 1_555 1_555
C6 C5 1_555 1_555
H7 C6 1_555 1_555
C7 C6 1_555 1_555
H8 C7 1_555 1_555
C8 N2 1_555 1_555
C9 C4 1_555 1_555
C10 N2 1_555 1_555
H9 C10 1_555 1_555
C11 C9 1_555 1_555
C12 C11 1_555 1_555
H10 C12 1_555 1_555
H11 C12 1_555 1_555
C13 N1 1_555 1_555
H12 C13 1_555 1_555
C14 N1 1_555 1_555
H13 C14 1_555 1_555
H14 C14 1_555 1_555
H15 C14 1_555 1_555
C15 C1 1_555 1_555
H16 C15 1_555 1_555
H17 C15 1_555 1_555
H18 C15 1_555 1_555
C3 C13 1_555 1_555
C7 C8 1_555 1_555
C8 C9 1_555 1_555
C10 C11 1_555 1_555
C12 C13 1_555 1_555

#END
