
#######################################################################
#
#                 Cambridge Crystallographic Data Centre
#                                CCDC 
#
#######################################################################
#
# If this CIF has been generated from an entry in the Cambridge 
# Structural Database, then it will include bibliographic, chemical, 
# crystal, experimental, refinement or atomic coordinate data resulting 
# from the CCDC's data processing and validation procedures.
#
#######################################################################

data_IGEDIJ
_chemical_formula_moiety         'C19 H24 N2 O5'
_chemical_name_systematic        
't-butyl 2-methyl-7-nitro-1,3a,6,11a-tetrahydro[1]benzoxocino[3,2-b]pyrrole-3(2H)-carboxylate'
_symmetry_cell_setting           orthorhombic
_symmetry_space_group_name_H-M   'P 21 21 21'
_symmetry_Int_Tables_number      19
_space_group_name_Hall           'P 2ac 2ab'
loop_
_symmetry_equiv_pos_site_id
_symmetry_equiv_pos_as_xyz
1 x,y,z
2 1/2-x,-y,1/2+z
3 -x,1/2+y,1/2-z
4 1/2+x,1/2-y,-z
_cell_length_a                   8.7785(9)
_cell_length_b                   13.8258(13)
_cell_length_c                   15.4586(17)
_cell_angle_alpha                90
_cell_angle_beta                 90
_cell_angle_gamma                90
_cell_volume                     1876.21
_exptl_crystal_colour            colorless
_exptl_crystal_description       block
_cell_formula_units_Z            4
loop_
_atom_site_label
_atom_site_type_symbol
_atom_site_fract_x
_atom_site_fract_y
_atom_site_fract_z
O1 O 0.0150(4) 0.2735(2) 0.2945(2)
O2 O 0.5688(5) 0.3780(3) 0.3635(3)
O3 O 0.5679(5) 0.5122(3) 0.2923(3)
O4 O -0.0390(4) -0.0736(3) 0.5073(3)
O5 O 0.1603(4) -0.0549(2) 0.4144(2)
N1 N -0.0137(4) 0.0604(3) 0.4238(3)
N2 N 0.5004(6) 0.4428(3) 0.3247(3)
C1 C -0.1674(6) 0.0998(3) 0.4413(3)
H1 H -0.1725 0.1237 0.5009
C2 C -0.1726(6) 0.1854(4) 0.3780(3)
H2 H -0.2092 0.1648 0.3217
H3 H -0.2387 0.2361 0.3997
C3 C -0.0125(6) 0.2195(3) 0.3726(3)
H4 H 0.0103 0.2603 0.4228
C4 C 0.1010(6) 0.3569(3) 0.3052(3)
C5 C 0.0258(7) 0.4434(3) 0.3101(3)
H5 H -0.08 0.4445 0.3066
C6 C 0.1045(7) 0.5288(4) 0.3203(4)
H6 H 0.0523 0.5872 0.3246
C7 C 0.2618(6) 0.5269(3) 0.3241(3)
H7 H 0.3171 0.5838 0.3307
C8 C 0.3351(6) 0.4392(3) 0.3179(3)
C9 C 0.2605(6) 0.3506(3) 0.3078(3)
C10 C 0.3353(6) 0.2526(3) 0.2987(3)
H8 H 0.2773 0.2136 0.2583
H9 H 0.437 0.2608 0.2753
C11 C 0.3456(6) 0.2003(3) 0.3839(3)
H10 H 0.4352 0.2077 0.4153
C12 C 0.2389(5) 0.1447(3) 0.4184(4)
H11 H 0.259 0.1148 0.471
C13 C 0.0860(5) 0.1274(3) 0.3763(3)
H12 H 0.1016 0.1029 0.3175
C14 C -0.2938(6) 0.0274(4) 0.4257(4)
H13 H -0.2809 -0.0017 0.3698
H14 H -0.3905 0.0598 0.4281
H15 H -0.2902 -0.0218 0.4695
C15 C 0.0308(6) -0.0271(3) 0.4537(3)
C16 C 0.2447(6) -0.1401(3) 0.4445(3)
C17 C 0.1516(8) -0.2295(4) 0.4313(5)
H16 H 0.0623 -0.2267 0.4671
H17 H 0.2109 -0.2853 0.4466
H18 H 0.1218 -0.2339 0.3716
C18 C 0.2925(9) -0.1255(6) 0.5372(4)
H19 H 0.204 -0.125 0.5737
H20 H 0.3453 -0.065 0.5426
H21 H 0.3588 -0.1773 0.5545
C19 C 0.3783(7) -0.1425(5) 0.3846(5)
H22 H 0.4499 -0.1902 0.4042
H23 H 0.4264 -0.0801 0.3837
H24 H 0.3445 -0.1588 0.3274
loop_
_geom_bond_atom_site_label_1
_geom_bond_atom_site_label_2
_geom_bond_site_symmetry_1
_geom_bond_site_symmetry_2
O1 C3 1_555 1_555
O2 N2 1_555 1_555
O3 N2 1_555 1_555
O4 C15 1_555 1_555
O5 C15 1_555 1_555
N1 C1 1_555 1_555
N2 C8 1_555 1_555
C1 H1 1_555 1_555
C2 C1 1_555 1_555
H2 C2 1_555 1_555
H3 C2 1_555 1_555
C3 C2 1_555 1_555
H4 C3 1_555 1_555
C4 O1 1_555 1_555
C5 C4 1_555 1_555
H5 C5 1_555 1_555
C6 C5 1_555 1_555
H6 C6 1_555 1_555
C7 C6 1_555 1_555
H7 C7 1_555 1_555
C8 C7 1_555 1_555
C9 C4 1_555 1_555
C10 C9 1_555 1_555
H8 C10 1_555 1_555
H9 C10 1_555 1_555
C11 C10 1_555 1_555
H10 C11 1_555 1_555
C12 C11 1_555 1_555
H11 C12 1_555 1_555
C13 N1 1_555 1_555
H12 C13 1_555 1_555
C14 C1 1_555 1_555
H13 C14 1_555 1_555
H14 C14 1_555 1_555
H15 C14 1_555 1_555
C15 N1 1_555 1_555
C16 O5 1_555 1_555
C17 C16 1_555 1_555
H16 C17 1_555 1_555
H17 C17 1_555 1_555
H18 C17 1_555 1_555
C18 C16 1_555 1_555
H19 C18 1_555 1_555
H20 C18 1_555 1_555
H21 C18 1_555 1_555
C19 C16 1_555 1_555
H22 C19 1_555 1_555
H23 C19 1_555 1_555
H24 C19 1_555 1_555
C3 C13 1_555 1_555
C8 C9 1_555 1_555
C12 C13 1_555 1_555

#END
