
#######################################################################
#
#                 Cambridge Crystallographic Data Centre
#                                CCDC 
#
#######################################################################
#
# If this CIF has been generated from an entry in the Cambridge 
# Structural Database, then it will include bibliographic, chemical, 
# crystal, experimental, refinement or atomic coordinate data resulting 
# from the CCDC's data processing and validation procedures.
#
#######################################################################

data_IGEDAB
_chemical_formula_moiety         'C16 H16 N2 O2'
_chemical_name_systematic        
N-(1-oxidopyridin-2-yl)-2-phenylcyclobutanecarboxamide
_symmetry_cell_setting           triclinic
_symmetry_space_group_name_H-M   'P -1'
_symmetry_Int_Tables_number      2
_space_group_name_Hall           '-P 1'
loop_
_symmetry_equiv_pos_site_id
_symmetry_equiv_pos_as_xyz
1 x,y,z
2 -x,-y,-z
_cell_length_a                   7.7983(6)
_cell_length_b                   8.4361(8)
_cell_length_c                   10.6779(9)
_cell_angle_alpha                97.918(7)
_cell_angle_beta                 106.530(7)
_cell_angle_gamma                90.609(7)
_cell_volume                     666.098
_cell_formula_units_Z            2
loop_
_atom_site_label
_atom_site_type_symbol
_atom_site_fract_x
_atom_site_fract_y
_atom_site_fract_z
O1 O 0.13979(12) 0.44578(11) 0.92822(9)
O2 O 0.45739(13) 0.70175(14) 1.34590(10)
N1 N 0.26498(14) 0.55929(13) 0.94759(11)
N2 N 0.23154(15) 0.62667(13) 1.15653(11)
H1 H 0.1238 0.5855 1.1255
C1 C 0.33961(19) 0.57797(19) 0.84974(14)
H2 H 0.2996 0.5112 0.7692
C2 C 0.4721(2) 0.6928(2) 0.86754(16)
H3 H 0.5222 0.7042 0.7997
C3 C 0.5313(2) 0.7921(2) 0.98702(17)
H4 H 0.6221 0.8704 1.0003
C4 C 0.45539(19) 0.77467(17) 1.08656(15)
H5 H 0.4942 0.8419 1.1670
C5 C 0.32116(17) 0.65679(16) 1.06665(13)
C6 C 0.30152(18) 0.65746(16) 1.29156(13)
C7 C 0.16651(19) 0.63405(17) 1.36485(13)
H6 H 0.0680 0.5562 1.3161
C8 C 0.2493(2) 0.61034(19) 1.51026(14)
H7 H 0.1753 0.5422 1.5424
H8 H 0.3710 0.5756 1.5292
C9 C 0.2374(2) 0.7907(2) 1.55408(15)
H9 H 0.3488 0.8529 1.5700
H10 H 0.1877 0.8138 1.6278
C10 C 0.10211(19) 0.80062(17) 1.41878(13)
H11 H -0.0190 0.7836 1.4260
C11 C 0.10425(18) 0.94179(16) 1.34750(13)
C12 C 0.2218(2) 1.07489(18) 1.40084(15)
H12 H 0.3039 1.0779 1.4837
C13 C 0.2180(2) 1.20334(19) 1.33203(17)
H13 H 0.2969 1.2920 1.3693
C14 C 0.0976(2) 1.20033(18) 1.20806(17)
H14 H 0.0960 1.2860 1.1616
C15 C -0.0201(2) 1.06904(18) 1.15417(15)
H15 H -0.1019 1.0666 1.0712
C16 C -0.0171(2) 0.94073(18) 1.22282(14)
H16 H -0.0969 0.8528 1.1854
loop_
_geom_bond_atom_site_label_1
_geom_bond_atom_site_label_2
_geom_bond_site_symmetry_1
_geom_bond_site_symmetry_2
O1 N1 1_555 1_555
O2 C6 1_555 1_555
N1 C1 1_555 1_555
N2 H1 1_555 1_555
C1 H2 1_555 1_555
C2 C1 1_555 1_555
H3 C2 1_555 1_555
C3 C2 1_555 1_555
H4 C3 1_555 1_555
C4 C3 1_555 1_555
H5 C4 1_555 1_555
C5 N1 1_555 1_555
C6 N2 1_555 1_555
C7 C6 1_555 1_555
H6 C7 1_555 1_555
C8 C7 1_555 1_555
H7 C8 1_555 1_555
H8 C8 1_555 1_555
C9 C8 1_555 1_555
H9 C9 1_555 1_555
H10 C9 1_555 1_555
C10 C7 1_555 1_555
H11 C10 1_555 1_555
C11 C10 1_555 1_555
C12 C11 1_555 1_555
H12 C12 1_555 1_555
C13 C12 1_555 1_555
H13 C13 1_555 1_555
C14 C13 1_555 1_555
H14 C14 1_555 1_555
C15 C14 1_555 1_555
H15 C15 1_555 1_555
C16 C11 1_555 1_555
H16 C16 1_555 1_555
N2 C5 1_555 1_555
C4 C5 1_555 1_555
C9 C10 1_555 1_555
C15 C16 1_555 1_555

#END
