
#######################################################################
#
#                 Cambridge Crystallographic Data Centre
#                                CCDC 
#
#######################################################################
#
# If this CIF has been generated from an entry in the Cambridge 
# Structural Database, then it will include bibliographic, chemical, 
# crystal, experimental, refinement or atomic coordinate data resulting 
# from the CCDC's data processing and validation procedures.
#
#######################################################################

data_IGEFUX
_chemical_formula_moiety         'C22 H19 N1 O4'
_chemical_name_systematic        
'ethyl 7-((4-(dimethylamino)phenyl)ethynyl)-2-oxo-2H-chromene-3-carboxylate'
_symmetry_cell_setting           triclinic
_symmetry_space_group_name_H-M   'P -1'
_symmetry_Int_Tables_number      2
_space_group_name_Hall           '-P 1'
loop_
_symmetry_equiv_pos_site_id
_symmetry_equiv_pos_as_xyz
1 x,y,z
2 -x,-y,-z
_cell_length_a                   6.648(2)
_cell_length_b                   7.314(3)
_cell_length_c                   20.372(7)
_cell_angle_alpha                85.053(5)
_cell_angle_beta                 86.533(4)
_cell_angle_gamma                70.707(4)
_cell_volume                     930.907
_cell_formula_units_Z            2
loop_
_atom_site_label
_atom_site_type_symbol
_atom_site_fract_x
_atom_site_fract_y
_atom_site_fract_z
O1 O 0.2980(3) 0.3677(3) 0.68669(9)
C1 C 0.5022(4) 0.3894(3) 0.77804(12)
C2 C 0.6986(4) 0.1202(4) 0.30222(14)
H1 H 0.8383 0.1011 0.3131
C3 C 0.5049(5) 0.4294(4) 0.84832(14)
C4 C 0.4494(4) 0.1276(4) 0.21993(13)
O2 O 0.7031(3) 0.3637(3) 0.86953(9)
C5 C 0.4570(4) 0.2924(4) 0.58192(13)
H2 H 0.3246 0.3001 0.5672
O3 O 0.3534(3) 0.5105(3) 0.88225(10)
C6 C 0.6567(4) 0.0988(4) 0.23844(13)
H3 H 0.7684 0.0647 0.2073
C7 C 0.8493(4) 0.2734(4) 0.62653(13)
H4 H 0.9811 0.2683 0.6411
C8 C 0.2994(4) 0.3946(4) 0.75312(14)
O4 O 0.1334(3) 0.4171(3) 0.78363(10)
C9 C 0.6727(4) 0.3166(3) 0.67027(12)
C10 C 0.8317(5) 0.2385(4) 0.56249(14)
H5 H 0.9516 0.2085 0.5343
C11 C 0.6341(5) 0.2476(4) 0.53924(13)
C12 C 0.6777(4) 0.3518(3) 0.73793(12)
H6 H 0.8058 0.3486 0.7548
C13 C 0.7239(6) 0.3998(6) 0.93793(16)
H7 H 0.6968 0.5375 0.9413
H8 H 0.6189 0.3618 0.9659
C14 C 0.6113(5) 0.2135(4) 0.47233(14)
C15 C 0.5760(5) 0.0339(5) 0.10851(14)
H9 H 0.6599 0.1190 0.1021
H10 H 0.5173 0.0255 0.0674
H11 H 0.6645 -0.0929 0.1243
N1 N 0.4047(4) 0.1095(4) 0.15626(11)
C16 C 0.2874(4) 0.1783(4) 0.26877(13)
H12 H 0.1472 0.1994 0.2580
C17 C 0.4781(4) 0.3254(3) 0.64618(12)
C18 C 0.5379(5) 0.1696(4) 0.35075(13)
C19 C 0.1892(5) 0.1354(5) 0.13879(15)
H13 H 0.0973 0.2613 0.1501
H14 H 0.1415 0.0371 0.1624
H15 H 0.1854 0.1252 0.0922
C20 C 0.5800(5) 0.1922(4) 0.41709(14)
C21 C 0.3318(4) 0.1975(4) 0.33222(13)
H16 H 0.2208 0.2301 0.3637
C22 C 0.9237(7) 0.2976(6) 0.95908(18)
H17 H 0.9350 0.3241 1.0038
H18 H 1.0275 0.3356 0.9315
H19 H 0.9491 0.1612 0.9568
loop_
_geom_bond_atom_site_label_1
_geom_bond_atom_site_label_2
_geom_bond_site_symmetry_1
_geom_bond_site_symmetry_2
O1 C8 1_555 1_555
C1 C3 1_555 1_555
C2 H1 1_555 1_555
C3 O2 1_555 1_555
C4 C6 1_555 1_555
O2 C13 1_555 1_555
C5 H2 1_555 1_555
O3 C3 1_555 1_555
C6 C2 1_555 1_555
H3 C6 1_555 1_555
C7 H4 1_555 1_555
C8 C1 1_555 1_555
O4 C8 1_555 1_555
C9 C7 1_555 1_555
C10 C7 1_555 1_555
H5 C10 1_555 1_555
C11 C5 1_555 1_555
C12 C1 1_555 1_555
H6 C12 1_555 1_555
C13 H7 1_555 1_555
H8 C13 1_555 1_555
C14 C11 1_555 1_555
C15 H9 1_555 1_555
H10 C15 1_555 1_555
H11 C15 1_555 1_555
N1 C4 1_555 1_555
C16 C4 1_555 1_555
H12 C16 1_555 1_555
C17 O1 1_555 1_555
C18 C2 1_555 1_555
C19 N1 1_555 1_555
H13 C19 1_555 1_555
H14 C19 1_555 1_555
H15 C19 1_555 1_555
C20 C14 1_555 1_555
C21 C16 1_555 1_555
H16 C21 1_555 1_555
C22 C13 1_555 1_555
H17 C22 1_555 1_555
H18 C22 1_555 1_555
H19 C22 1_555 1_555
C5 C17 1_555 1_555
C9 C12 1_555 1_555
C9 C17 1_555 1_555
C10 C11 1_555 1_555
C15 N1 1_555 1_555
C18 C20 1_555 1_555
C18 C21 1_555 1_555

#END
