
#######################################################################
#
#                 Cambridge Crystallographic Data Centre
#                                CCDC 
#
#######################################################################
#
# If this CIF has been generated from an entry in the Cambridge 
# Structural Database, then it will include bibliographic, chemical, 
# crystal, experimental, refinement or atomic coordinate data resulting 
# from the CCDC's data processing and validation procedures.
#
#######################################################################

data_IGEGEI
_chemical_formula_moiety         'C21 H16 O5'
_chemical_name_systematic        
'ethyl 7-((4-methoxyphenyl)ethynyl)-2-oxo-2H-chromene-3-carboxylate'
_symmetry_cell_setting           monoclinic
_symmetry_space_group_name_H-M   'I a'
_symmetry_Int_Tables_number      9
_space_group_name_Hall           'I -2ya'
loop_
_symmetry_equiv_pos_site_id
_symmetry_equiv_pos_as_xyz
1 x,y,z
2 1/2+x,-y,z
3 1/2+x,1/2+y,1/2+z
4 x,1/2-y,1/2+z
_cell_length_a                   6.8676(4)
_cell_length_b                   19.5592(10)
_cell_length_c                   13.2959(10)
_cell_angle_alpha                90
_cell_angle_beta                 102.771(6)
_cell_angle_gamma                90
_cell_volume                     1741.79
_cell_formula_units_Z            4
loop_
_atom_site_label
_atom_site_type_symbol
_atom_site_fract_x
_atom_site_fract_y
_atom_site_fract_z
C1 C 0.6130(9) 0.94544(19) 0.7043(4)
H1 H 0.5246 0.9267 0.7439
H2 H 0.6280 0.9937 0.7171
H3 H 0.7409 0.9236 0.7239
C2 C 0.5294(6) 0.93374(15) 0.5941(3)
H4 H 0.4009 0.9563 0.5731
H5 H 0.6183 0.9519 0.5532
C3 C 0.4546(3) 0.83886(13) 0.4819(2)
C4 C 0.4350(3) 0.76338(12) 0.47798(19)
C5 C 0.3967(4) 0.72988(12) 0.3787(2)
C6 C 0.4062(3) 0.62144(12) 0.4680(2)
C7 C 0.4382(3) 0.65351(11) 0.56351(19)
C8 C 0.4514(3) 0.72635(11) 0.56538(19)
H6 H 0.4719 0.7490 0.6284
C9 C 0.3979(4) 0.55146(13) 0.4581(2)
H7 H 0.3760 0.5312 0.3932
C10 C 0.4227(3) 0.51142(11) 0.5462(2)
C11 C 0.4519(4) 0.54259(13) 0.6431(2)
H8 H 0.4672 0.5158 0.7021
C12 C 0.4581(4) 0.61259(13) 0.6513(2)
H9 H 0.4756 0.6329 0.7159
C13 C 0.4224(4) 0.43817(12) 0.5364(3)
C14 C 0.4267(4) 0.37806(13) 0.5259(3)
C15 C 0.4358(3) 0.30512(13) 0.5130(2)
C16 C 0.3947(4) 0.27671(14) 0.4152(3)
H10 H 0.3603 0.3051 0.3579
C17 C 0.4039(4) 0.20676(14) 0.4010(2)
H11 H 0.3747 0.1884 0.3349
C18 C 0.4567(4) 0.16463(13) 0.4857(2)
C19 C 0.5003(4) 0.19227(13) 0.5840(2)
H12 H 0.5369 0.1638 0.6411
C20 C 0.4897(4) 0.26212(13) 0.5971(2)
H13 H 0.5190 0.2804 0.6633
C21 C 0.4352(6) 0.06474(16) 0.3809(3)
H14 H 0.3021 0.0756 0.3443
H15 H 0.4498 0.0160 0.3874
H16 H 0.5293 0.0823 0.3437
O1 O 0.5069(3) 0.86104(9) 0.57896(17)
O2 O 0.4298(4) 0.87676(11) 0.40906(18)
O3 O 0.3744(4) 0.75549(11) 0.29488(16)
O4 O 0.3835(3) 0.65893(10) 0.37887(14)
O5 O 0.4717(3) 0.09490(9) 0.48096(17)
loop_
_geom_bond_atom_site_label_1
_geom_bond_atom_site_label_2
_geom_bond_site_symmetry_1
_geom_bond_site_symmetry_2
C1 H1 1_555 1_555
H2 C1 1_555 1_555
H3 C1 1_555 1_555
C2 C1 1_555 1_555
H4 C2 1_555 1_555
H5 C2 1_555 1_555
C3 C4 1_555 1_555
C4 C5 1_555 1_555
C5 O3 1_555 1_555
C6 C7 1_555 1_555
C7 C8 1_555 1_555
C8 C4 1_555 1_555
H6 C8 1_555 1_555
C9 C6 1_555 1_555
H7 C9 1_555 1_555
C10 C9 1_555 1_555
C11 C10 1_555 1_555
H8 C11 1_555 1_555
C12 C7 1_555 1_555
H9 C12 1_555 1_555
C13 C10 1_555 1_555
C14 C13 1_555 1_555
C15 C14 1_555 1_555
C16 C15 1_555 1_555
H10 C16 1_555 1_555
C17 C16 1_555 1_555
H11 C17 1_555 1_555
C18 C17 1_555 1_555
C19 C18 1_555 1_555
H12 C19 1_555 1_555
C20 C15 1_555 1_555
H13 C20 1_555 1_555
C21 H14 1_555 1_555
H15 C21 1_555 1_555
H16 C21 1_555 1_555
O1 C2 1_555 1_555
O2 C3 1_555 1_555
O4 C5 1_555 1_555
O5 C18 1_555 1_555
C3 O1 1_555 1_555
C6 O4 1_555 1_555
C11 C12 1_555 1_555
C19 C20 1_555 1_555
C21 O5 1_555 1_555

#END
