
#######################################################################
#
#                 Cambridge Crystallographic Data Centre
#                                CCDC 
#
#######################################################################
#
# If this CIF has been generated from an entry in the Cambridge 
# Structural Database, then it will include bibliographic, chemical, 
# crystal, experimental, refinement or atomic coordinate data resulting 
# from the CCDC's data processing and validation procedures.
#
#######################################################################

data_IGEGIM
_chemical_formula_moiety         'C20 H18 Br1 N1 O2'
_chemical_name_systematic        
6-(4-bromophenyl)-2-methyl-4-oxo-N-phenylcyclohex-2-ene-1-carboxamide
_symmetry_cell_setting           monoclinic
_symmetry_space_group_name_H-M   'P 21'
_symmetry_Int_Tables_number      4
_space_group_name_Hall           'P 2yb'
loop_
_symmetry_equiv_pos_site_id
_symmetry_equiv_pos_as_xyz
1 x,y,z
2 -x,1/2+y,-z
_cell_length_a                   5.082(12)
_cell_length_b                   9.83(2)
_cell_length_c                   18.00(4)
_cell_angle_alpha                90
_cell_angle_beta                 94.98(5)
_cell_angle_gamma                90
_cell_volume                     895.815
_exptl_crystal_colour            colorless
_exptl_crystal_description       prismatic
_cell_formula_units_Z            2
loop_
_atom_site_label
_atom_site_type_symbol
_atom_site_fract_x
_atom_site_fract_y
_atom_site_fract_z
Br1 Br 1.0453(3) -0.27146(18) 0.29725(7)
N1 N 0.7172(15) 0.3926(11) 0.2967(5)
O1 O 0.2678(13) 0.3940(10) 0.2737(4)
O2 O -0.0271(18) 0.2921(10) -0.0081(5)
C1 C 0.493(2) 0.3821(12) 0.2521(6)
C2 C 0.529(2) 0.3515(12) 0.1698(6)
H1 H 0.7186 0.3463 0.1633
C3 C 0.4012(19) 0.2106(12) 0.1515(5)
H2 H 0.2297 0.2093 0.1725
C4 C 0.348(2) 0.1955(12) 0.0656(6)
H3 H 0.5128 0.2022 0.0422
H4 H 0.2692 0.1076 0.0533
C5 C 0.159(2) 0.3110(12) 0.0375(6)
C6 C 0.233(2) 0.4470(13) 0.0662(6)
H5 H 0.1507 0.5218 0.0425
C7 C 0.4090(19) 0.4700(11) 0.1235(6)
C8 C 0.509(3) 0.6114(12) 0.1425(6)
H6 H 0.6569 0.6314 0.1145
H7 H 0.5634 0.6166 0.1949
H8 H 0.3709 0.6763 0.1302
C9 C 0.563(2) 0.0941(11) 0.1861(6)
C10 C 0.530(2) 0.0534(14) 0.2597(6)
H9 H 0.4064 0.0995 0.2856
C11 C 0.667(2) -0.0491(14) 0.2945(6)
H10 H 0.6415 -0.0739 0.3432
C12 C 0.852(2) -0.1169(11) 0.2533(6)
C13 C 0.892(2) -0.0818(12) 0.1814(7)
H11 H 1.0134 -0.1286 0.1553
C14 C 0.746(2) 0.0255(12) 0.1484(6)
H12 H 0.7725 0.0512 0.0999
C15 C 0.7212(19) 0.4142(13) 0.3764(6)
C16 C 0.569(3) 0.5084(17) 0.4097(8)
H13 H 0.4487 0.5605 0.3799
C17 C 0.588(3) 0.5280(19) 0.4859(8)
H14 H 0.4832 0.5931 0.5065
C18 C 0.757(3) 0.454(2) 0.5300(7)
H15 H 0.7692 0.4651 0.5815
C19 C 0.915(3) 0.359(2) 0.4969(7)
H16 H 1.0411 0.3105 0.5267
C20 C 0.889(3) 0.3366(18) 0.4223(7)
H17 H 0.9865 0.2677 0.4021
H18 H 0.860(7) 0.396(8) 0.278(3)
loop_
_geom_bond_atom_site_label_1
_geom_bond_atom_site_label_2
_geom_bond_site_symmetry_1
_geom_bond_site_symmetry_2
Br1 C12 1_555 1_555
N1 C1 1_555 1_555
O1 C1 1_555 1_555
O2 C5 1_555 1_555
C1 C2 1_555 1_555
C2 H1 1_555 1_555
C3 C2 1_555 1_555
H2 C3 1_555 1_555
C4 C3 1_555 1_555
H3 C4 1_555 1_555
H4 C4 1_555 1_555
C5 C4 1_555 1_555
C6 C5 1_555 1_555
H5 C6 1_555 1_555
C7 C2 1_555 1_555
C8 C7 1_555 1_555
H6 C8 1_555 1_555
H7 C8 1_555 1_555
H8 C8 1_555 1_555
C9 C3 1_555 1_555
C10 C9 1_555 1_555
H9 C10 1_555 1_555
C11 C10 1_555 1_555
H10 C11 1_555 1_555
C12 C11 1_555 1_555
C13 C12 1_555 1_555
H11 C13 1_555 1_555
C14 C9 1_555 1_555
H12 C14 1_555 1_555
C15 N1 1_555 1_555
C16 C15 1_555 1_555
H13 C16 1_555 1_555
C17 C16 1_555 1_555
H14 C17 1_555 1_555
C18 C17 1_555 1_555
H15 C18 1_555 1_555
C19 C18 1_555 1_555
H16 C19 1_555 1_555
C20 C15 1_555 1_555
H17 C20 1_555 1_555
H18 N1 1_555 1_555
C6 C7 1_555 1_555
C13 C14 1_555 1_555
C19 C20 1_555 1_555

#END
