
#######################################################################
#
#                 Cambridge Crystallographic Data Centre
#                                CCDC 
#
#######################################################################
#
# If this CIF has been generated from an entry in the Cambridge 
# Structural Database, then it will include bibliographic, chemical, 
# crystal, experimental, refinement or atomic coordinate data resulting 
# from the CCDC's data processing and validation procedures.
#
#######################################################################

data_IGEGUY
_chemical_formula_moiety         'C25 H20 O3'
_chemical_name_systematic        
'2-(5-oxo-1,5-diphenylpent-1-yn-3-yl)phenyl acetate'
_symmetry_cell_setting           triclinic
_symmetry_space_group_name_H-M   'P -1'
_symmetry_Int_Tables_number      2
_space_group_name_Hall           '-P 1'
loop_
_symmetry_equiv_pos_site_id
_symmetry_equiv_pos_as_xyz
1 x,y,z
2 -x,-y,-z
_cell_length_a                   9.9590(14)
_cell_length_b                   9.9943(14)
_cell_length_c                   11.4282(16)
_cell_angle_alpha                74.080(2)
_cell_angle_beta                 77.755(2)
_cell_angle_gamma                64.1820(10)
_cell_volume                     979.017
_exptl_crystal_colour            colorless
_exptl_crystal_description       block
_cell_formula_units_Z            2
loop_
_atom_site_label
_atom_site_type_symbol
_atom_site_fract_x
_atom_site_fract_y
_atom_site_fract_z
C1 C 0.20842(13) 0.14097(12) 0.27728(10)
O1 O 0.50678(12) 0.25588(11) 0.09743(10)
C2 C 0.05689(14) 0.21866(15) 0.26164(12)
H1 H -0.0136 0.2295 0.3302
O2 O 0.46271(9) 0.04625(9) 0.18648(7)
C3 C 0.00865(16) 0.28019(17) 0.14626(14)
H2 H -0.0933 0.3323 0.1379
O3 O 0.43786(11) -0.15419(11) 0.58644(9)
C4 C 0.11131(18) 0.26446(18) 0.04375(13)
H3 H 0.0787 0.3054 -0.0338
C5 C 0.26279(16) 0.18777(16) 0.05626(12)
H4 H 0.3328 0.1766 -0.0126
C6 C 0.30921(13) 0.12780(13) 0.17207(10)
C7 C 0.55208(14) 0.12508(14) 0.14802(10)
C8 C 0.70838(15) 0.02606(18) 0.17741(13)
H5 H 0.7552 -0.0453 0.1244
H6 H 0.7068 -0.0279 0.2610
H7 H 0.7640 0.0875 0.1658
C9 C 0.26443(13) 0.06536(12) 0.40314(10)
H8 H 0.3624 0.0677 0.4006
C10 C 0.16119(14) 0.14316(13) 0.49949(11)
C11 C 0.07648(14) 0.20005(14) 0.57985(11)
C12 C -0.02761(13) 0.26012(13) 0.67968(10)
C13 C -0.08732(16) 0.16762(15) 0.76738(12)
H9 H -0.0565 0.0668 0.7629
C14 C -0.19204(18) 0.22458(19) 0.86105(14)
H10 H -0.2326 0.1622 0.9184
C15 C -0.23683(17) 0.3719(2) 0.87046(14)
H11 H -0.3074 0.4096 0.9339
C16 C -0.17688(17) 0.46312(17) 0.78567(15)
H12 H -0.2065 0.5630 0.7923
C17 C -0.07295(15) 0.40888(15) 0.69034(13)
H13 H -0.0334 0.4723 0.6332
C18 C 0.28384(14) -0.10148(13) 0.43278(10)
H14 H 0.1854 -0.1041 0.4465
H15 H 0.3377 -0.1460 0.3622
C19 C 0.36673(13) -0.19778(13) 0.54313(10)
C20 C 0.35930(12) -0.34863(13) 0.59753(11)
C21 C 0.41142(16) -0.42621(16) 0.71106(12)
H16 H 0.4500 -0.3837 0.7514
C22 C 0.4062(2) -0.56569(18) 0.76393(15)
H17 H 0.4399 -0.6166 0.8403
C23 C 0.35092(19) -0.62965(17) 0.70365(16)
H18 H 0.3474 -0.7237 0.7396
C24 C 0.30093(16) -0.55548(16) 0.59078(15)
H19 H 0.2650 -0.6000 0.5501
C25 C 0.30404(13) -0.41442(14) 0.53756(12)
H20 H 0.2691 -0.3637 0.4616
loop_
_geom_bond_atom_site_label_1
_geom_bond_atom_site_label_2
_geom_bond_site_symmetry_1
_geom_bond_site_symmetry_2
C1 C2 1_555 1_555
O1 C7 1_555 1_555
C2 H1 1_555 1_555
O2 C6 1_555 1_555
C3 C2 1_555 1_555
H2 C3 1_555 1_555
O3 C19 1_555 1_555
C4 C3 1_555 1_555
H3 C4 1_555 1_555
C5 C4 1_555 1_555
H4 C5 1_555 1_555
C6 C1 1_555 1_555
C7 O2 1_555 1_555
C8 C7 1_555 1_555
H5 C8 1_555 1_555
H6 C8 1_555 1_555
H7 C8 1_555 1_555
C9 C1 1_555 1_555
H8 C9 1_555 1_555
C10 C9 1_555 1_555
C11 C10 1_555 1_555
C12 C11 1_555 1_555
C13 C12 1_555 1_555
H9 C13 1_555 1_555
C14 C13 1_555 1_555
H10 C14 1_555 1_555
C15 C14 1_555 1_555
H11 C15 1_555 1_555
C16 C15 1_555 1_555
H12 C16 1_555 1_555
C17 C12 1_555 1_555
H13 C17 1_555 1_555
C18 C9 1_555 1_555
H14 C18 1_555 1_555
H15 C18 1_555 1_555
C19 C18 1_555 1_555
C20 C19 1_555 1_555
C21 C20 1_555 1_555
H16 C21 1_555 1_555
C22 C21 1_555 1_555
H17 C22 1_555 1_555
C23 C22 1_555 1_555
H18 C23 1_555 1_555
C24 C23 1_555 1_555
H19 C24 1_555 1_555
C25 C20 1_555 1_555
H20 C25 1_555 1_555
C5 C6 1_555 1_555
C16 C17 1_555 1_555
C24 C25 1_555 1_555

#END
