
#######################################################################
#
#                 Cambridge Crystallographic Data Centre
#                                CCDC 
#
#######################################################################
#
# If this CIF has been generated from an entry in the Cambridge 
# Structural Database, then it will include bibliographic, chemical, 
# crystal, experimental, refinement or atomic coordinate data resulting 
# from the CCDC's data processing and validation procedures.
#
#######################################################################

data_IGEJOV
_chemical_formula_moiety         'C26 H21 N1 O2'
_chemical_name_systematic        
'1-(1,3-dihydronaphtho[2,3-c]furan-4-yl)-N-(4-methoxyphenyl)-1-phenylmethanimine unknown solvate'
_symmetry_cell_setting           monoclinic
_symmetry_space_group_name_H-M   'C 2/c'
_symmetry_Int_Tables_number      15
_space_group_name_Hall           '-C 2yn'
loop_
_symmetry_equiv_pos_site_id
_symmetry_equiv_pos_as_xyz
1 x,y,z
2 -x,y,1/2-z
3 1/2+x,1/2+y,z
4 1/2-x,1/2+y,1/2-z
5 -x,-y,-z
6 x,-y,1/2+z
7 1/2-x,1/2-y,-z
8 1/2+x,1/2-y,1/2+z
_cell_length_a                   18.8047(12)
_cell_length_b                   12.8679(9)
_cell_length_c                   18.8388(13)
_cell_angle_alpha                90
_cell_angle_beta                 99.556(7)
_cell_angle_gamma                90
_cell_volume                     4495.3
_exptl_crystal_colour            yellow
_exptl_crystal_description       block
_cell_formula_units_Z            8
loop_
_atom_site_label
_atom_site_type_symbol
_atom_site_fract_x
_atom_site_fract_y
_atom_site_fract_z
O1 O 0.10375(13) 0.8926(2) -0.13845(12)
O2 O 0.22740(11) 1.19356(15) 0.18845(12)
N1 N 0.19643(11) 0.77679(16) 0.10950(11)
C1 C 0.00525(14) 0.7419(2) 0.13214(13)
H1 H 0.0453 0.7084 0.1578
C2 C -0.05738(15) 0.7442(3) 0.15940(15)
H2 H -0.0597 0.7117 0.2030
C3 C -0.11771(16) 0.7944(3) 0.12268(17)
H3 H -0.1602 0.7958 0.1419
C4 C -0.11492(15) 0.8416(2) 0.05869(16)
H4 H -0.1556 0.8754 0.0348
C5 C -0.05127(12) 0.84022(19) 0.02761(13)
C6 C 0.01060(12) 0.78947(18) 0.06577(12)
C7 C 0.07549(12) 0.78755(18) 0.03554(12)
C8 C 0.07534(13) 0.83290(19) -0.03072(13)
C9 C 0.01324(14) 0.8823(2) -0.06820(13)
C10 C -0.04817(14) 0.8864(2) -0.04010(14)
H5 H -0.0886 0.9196 -0.0652
C11 C 0.03053(17) 0.9191(3) -0.13855(15)
H6 H -0.0004 0.8853 -0.1782
H7 H 0.0237 0.9936 -0.1433
C12 C 0.13406(16) 0.8395(3) -0.07506(15)
H8 H 0.1751 0.8775 -0.0495
H9 H 0.1499 0.7706 -0.0864
C13 C 0.14174(12) 0.73236(19) 0.07321(12)
C14 C 0.14552(12) 0.61741(18) 0.06495(13)
C15 C 0.09792(14) 0.5639(2) 0.01342(14)
H10 H 0.0618 0.5997 -0.0166
C16 C 0.10414(17) 0.4569(2) 0.00666(16)
H11 H 0.0724 0.4215 -0.0282
C17 C 0.15656(18) 0.4034(2) 0.05084(17)
H12 H 0.1606 0.3318 0.0457
C18 C 0.20330(16) 0.4552(2) 0.10284(18)
H13 H 0.2387 0.4186 0.1331
C19 C 0.19786(14) 0.5613(2) 0.11022(14)
H14 H 0.2294 0.5957 0.1458
C20 C 0.19779(13) 0.88489(19) 0.12605(13)
C21 C 0.16217(13) 0.9238(2) 0.17892(14)
H15 H 0.1315 0.8806 0.1994
C22 C 0.17120(14) 1.0258(2) 0.20204(13)
H16 H 0.1476 1.0501 0.2384
C23 C 0.21538(14) 1.0911(2) 0.17103(14)
C24 C 0.25103(15) 1.0528(2) 0.11772(15)
H17 H 0.2806 1.0967 0.0962
C25 C 0.24312(15) 0.9506(2) 0.09629(15)
H18 H 0.2685 0.9255 0.0615
C26 C 0.18154(18) 1.2420(2) 0.23046(17)
H19 H 0.1326 1.2377 0.2061
H20 H 0.1950 1.3137 0.2377
H21 H 0.1858 1.2078 0.2762
loop_
_geom_bond_atom_site_label_1
_geom_bond_atom_site_label_2
_geom_bond_site_symmetry_1
_geom_bond_site_symmetry_2
O1 C11 1_555 1_555
O2 C23 1_555 1_555
N1 C13 1_555 1_555
C1 H1 1_555 1_555
C2 C1 1_555 1_555
H2 C2 1_555 1_555
C3 C2 1_555 1_555
H3 C3 1_555 1_555
C4 C3 1_555 1_555
H4 C4 1_555 1_555
C5 C4 1_555 1_555
C6 C1 1_555 1_555
C7 C6 1_555 1_555
C8 C7 1_555 1_555
C9 C8 1_555 1_555
C10 C5 1_555 1_555
H5 C10 1_555 1_555
C11 C9 1_555 1_555
H6 C11 1_555 1_555
H7 C11 1_555 1_555
C12 O1 1_555 1_555
H8 C12 1_555 1_555
H9 C12 1_555 1_555
C13 C7 1_555 1_555
C14 C13 1_555 1_555
C15 C14 1_555 1_555
H10 C15 1_555 1_555
C16 C15 1_555 1_555
H11 C16 1_555 1_555
C17 C16 1_555 1_555
H12 C17 1_555 1_555
C18 C17 1_555 1_555
H13 C18 1_555 1_555
C19 C14 1_555 1_555
H14 C19 1_555 1_555
C20 N1 1_555 1_555
C21 C20 1_555 1_555
H15 C21 1_555 1_555
C22 C21 1_555 1_555
H16 C22 1_555 1_555
C23 C22 1_555 1_555
C24 C23 1_555 1_555
H17 C24 1_555 1_555
C25 C20 1_555 1_555
H18 C25 1_555 1_555
C26 O2 1_555 1_555
H19 C26 1_555 1_555
H20 C26 1_555 1_555
H21 C26 1_555 1_555
C5 C6 1_555 1_555
C8 C12 1_555 1_555
C9 C10 1_555 1_555
C18 C19 1_555 1_555
C24 C25 1_555 1_555

#END
