
#######################################################################
#
#                 Cambridge Crystallographic Data Centre
#                                CCDC 
#
#######################################################################
#
# If this CIF has been generated from an entry in the Cambridge 
# Structural Database, then it will include bibliographic, chemical, 
# crystal, experimental, refinement or atomic coordinate data resulting 
# from the CCDC's data processing and validation procedures.
#
#######################################################################

data_IGEKOW
_chemical_formula_moiety         'C16 H18 N2 O5'
_chemical_name_systematic        
'methyl 2-methyl-9-methylene-8-nitro-2,3,3a,9,10,10a-hexahydro-1H-[1]benzoxepino[3,2-b]pyrrole-1-carboxylate'
_symmetry_cell_setting           monoclinic
_symmetry_space_group_name_H-M   'P 21'
_symmetry_Int_Tables_number      4
_space_group_name_Hall           'P 2yb'
loop_
_symmetry_equiv_pos_site_id
_symmetry_equiv_pos_as_xyz
1 x,y,z
2 -x,1/2+y,-z
_cell_length_a                   7.5978(2)
_cell_length_b                   8.3479(2)
_cell_length_c                   12.4229(3)
_cell_angle_alpha                90
_cell_angle_beta                 97.7471(12)
_cell_angle_gamma                90
_cell_volume                     780.739
_cell_formula_units_Z            2
loop_
_atom_site_label
_atom_site_type_symbol
_atom_site_fract_x
_atom_site_fract_y
_atom_site_fract_z
O1 O 1.0978(2) 0.5888(2) 0.94684(14)
O2 O 0.6255(3) 0.8076(3) 1.18093(18)
O3 O 0.6965(3) 0.6403(5) 1.3095(2)
O4 O 0.5048(3) 0.7479(4) 0.68379(17)
O5 O 0.6741(3) 0.8618(3) 0.57088(16)
N1 N 0.8052(3) 0.7286(3) 0.71429(16)
N2 N 0.7254(3) 0.7118(3) 1.22881(16)
C1 C 0.9780(3) 0.7395(4) 0.6706(2)
H1 H 1.0044 0.8518 0.6563
C2 C 1.1108(3) 0.6767(4) 0.7632(2)
H2 H 1.1410 0.5660 0.7507
H3 H 1.2186 0.7403 0.7713
C3 C 1.0168(3) 0.6914(3) 0.86264(19)
H4 H 1.0221 0.8026 0.8881
C4 C 1.0719(3) 0.6311(3) 1.05041(18)
C5 C 1.2237(3) 0.6478(3) 1.1254(2)
H5 H 1.3349 0.6386 1.1026
C6 C 1.2116(3) 0.6777(4) 1.2330(2)
H6 H 1.3140 0.6864 1.2829
C7 C 1.0467(3) 0.6947(4) 1.2666(2)
H7 H 1.0360 0.7148 1.3390
C8 C 0.8980(3) 0.6813(3) 1.18985(18)
C9 C 0.9017(3) 0.6461(3) 1.08064(18)
C10 C 0.7375(3) 0.6075(3) 1.00407(18)
C11 C 0.6967(3) 0.6980(3) 0.89847(18)
H8 H 0.7081 0.8121 0.9121
H9 H 0.5755 0.6764 0.8664
C12 C 0.8245(3) 0.6470(3) 0.81984(18)
H10 H 0.8158 0.5310 0.8084
C13 C 0.6328(3) 0.4901(3) 1.0291(2)
H11 H 0.6618 0.4330 1.0933
H12 H 0.5305 0.4647 0.9824
C14 C 0.6491(4) 0.7762(3) 0.6595(2)
C15 C 0.5160(6) 0.9134(6) 0.5035(3)
H13 H 0.4437 0.8219 0.4809
H14 H 0.5477 0.9676 0.4408
H15 H 0.4508 0.9850 0.5439
C16 C 0.9814(5) 0.6416(8) 0.5682(3)
H16 H 0.9491 0.5329 0.5814
H17 H 1.0987 0.6440 0.5476
H18 H 0.8985 0.6858 0.5107
loop_
_geom_bond_atom_site_label_1
_geom_bond_atom_site_label_2
_geom_bond_site_symmetry_1
_geom_bond_site_symmetry_2
O1 C3 1_555 1_555
O2 N2 1_555 1_555
O3 N2 1_555 1_555
O4 C14 1_555 1_555
O5 C14 1_555 1_555
N1 C1 1_555 1_555
N2 C8 1_555 1_555
C1 H1 1_555 1_555
C2 C1 1_555 1_555
H2 C2 1_555 1_555
H3 C2 1_555 1_555
C3 C2 1_555 1_555
H4 C3 1_555 1_555
C4 O1 1_555 1_555
C5 C4 1_555 1_555
H5 C5 1_555 1_555
C6 C5 1_555 1_555
H6 C6 1_555 1_555
C7 C6 1_555 1_555
H7 C7 1_555 1_555
C8 C7 1_555 1_555
C9 C4 1_555 1_555
C10 C9 1_555 1_555
C11 C10 1_555 1_555
H8 C11 1_555 1_555
H9 C11 1_555 1_555
C12 N1 1_555 1_555
H10 C12 1_555 1_555
C13 C10 1_555 1_555
H11 C13 1_555 1_555
H12 C13 1_555 1_555
C14 N1 1_555 1_555
C15 O5 1_555 1_555
H13 C15 1_555 1_555
H14 C15 1_555 1_555
H15 C15 1_555 1_555
C16 C1 1_555 1_555
H16 C16 1_555 1_555
H17 C16 1_555 1_555
H18 C16 1_555 1_555
C3 C12 1_555 1_555
C8 C9 1_555 1_555
C11 C12 1_555 1_555

#END
