
#######################################################################
#
#                 Cambridge Crystallographic Data Centre
#                                CCDC 
#
#######################################################################
#
# If this CIF has been generated from an entry in the Cambridge 
# Structural Database, then it will include bibliographic, chemical, 
# crystal, experimental, refinement or atomic coordinate data resulting 
# from the CCDC's data processing and validation procedures.
#
#######################################################################

data_IGENAL
_chemical_formula_moiety         'C15 H18 Cl1 N5 O5 S1'
_chemical_name_systematic        
'cyclohexyl (3-((2-chloro-1,3-thiazol-5-yl)methyl)-2-(nitroimino)imidazolidin-1-yl)(oxo)acetate'
_symmetry_cell_setting           monoclinic
_symmetry_space_group_name_H-M   'P 21/c'
_symmetry_Int_Tables_number      14
_space_group_name_Hall           '-P 2ybc'
loop_
_symmetry_equiv_pos_site_id
_symmetry_equiv_pos_as_xyz
1 x,y,z
2 -x,1/2+y,1/2-z
3 -x,-y,-z
4 x,1/2-y,1/2+z
_cell_length_a                   15.483(3)
_cell_length_b                   9.7003(19)
_cell_length_c                   12.484(3)
_cell_angle_alpha                90
_cell_angle_beta                 102.53(3)
_cell_angle_gamma                90
_cell_volume                     1830.31
_cell_formula_units_Z            4
loop_
_atom_site_label
_atom_site_type_symbol
_atom_site_fract_x
_atom_site_fract_y
_atom_site_fract_z
Cl1 Cl 0.09435(5) 0.37413(10) -0.00876(6)
S1 S 0.26663(4) 0.41715(7) 0.14769(5)
O1 O 0.46279(11) 0.49999(16) 0.20470(13)
O2 O 0.56796(11) 0.64630(16) 0.26922(14)
O3 O 0.63943(11) 0.12179(16) 0.52032(13)
O4 O 0.63231(11) 0.26214(16) 0.27902(13)
O5 O 0.73904(10) 0.31889(17) 0.42672(13)
N1 N 0.11577(15) 0.4646(3) 0.1947(2)
N2 N 0.40384(12) 0.38314(19) 0.39063(15)
N3 N 0.52582(12) 0.26657(19) 0.45482(15)
N4 N 0.54599(13) 0.47822(19) 0.37759(15)
N5 N 0.52262(13) 0.54469(19) 0.27944(15)
C1 C 0.15335(18) 0.4230(3) 0.1182(2)
C2 C 0.18039(17) 0.4937(3) 0.2848(2)
H1 H 0.1665 0.5257 0.3493
C3 C 0.26527(16) 0.4745(2) 0.27742(19)
C4 C 0.34638(15) 0.5039(2) 0.36421(18)
H2 H 0.3794 0.5778 0.3394
H3 H 0.3287 0.5350 0.4301
C5 C 0.37383(16) 0.2641(2) 0.4460(2)
H4 H 0.3345 0.2059 0.3939
H5 H 0.3433 0.2940 0.5021
C6 C 0.45893(16) 0.1882(2) 0.49672(19)
H6 H 0.4705 0.1909 0.5762
H7 H 0.4567 0.0929 0.4727
C7 C 0.49001(15) 0.3818(2) 0.39919(17)
C8 C 0.60952(15) 0.2152(2) 0.45944(18)
C9 C 0.66003(16) 0.2723(2) 0.3764(2)
C10 C 0.79581(16) 0.3678(3) 0.3548(2)
H8 H 0.7833 0.3143 0.2866
C11 C 0.77678(18) 0.5173(3) 0.3287(2)
H9 H 0.7862 0.5704 0.3961
H10 H 0.7156 0.5285 0.2906
C12 C 0.83769(18) 0.5696(3) 0.2569(2)
H11 H 0.8245 0.5215 0.1871
H12 H 0.8270 0.6671 0.2425
C13 C 0.93418(18) 0.5477(3) 0.3117(2)
H13 H 0.9712 0.5758 0.2620
H14 H 0.9492 0.6045 0.3770
C14 C 0.95233(19) 0.3978(3) 0.3429(3)
H15 H 1.0131 0.3882 0.3829
H16 H 0.9449 0.3426 0.2767
C15 C 0.89038(18) 0.3441(3) 0.4136(3)
H17 H 0.9005 0.2464 0.4275
H18 H 0.9021 0.3917 0.4836
loop_
_geom_bond_atom_site_label_1
_geom_bond_atom_site_label_2
_geom_bond_site_symmetry_1
_geom_bond_site_symmetry_2
Cl1 C1 1_555 1_555
S1 C1 1_555 1_555
O1 N5 1_555 1_555
O2 N5 1_555 1_555
O3 C8 1_555 1_555
O4 C9 1_555 1_555
O5 C9 1_555 1_555
N1 C1 1_555 1_555
N2 C4 1_555 1_555
N3 C6 1_555 1_555
N4 N5 1_555 1_555
C2 N1 1_555 1_555
H1 C2 1_555 1_555
C3 S1 1_555 1_555
C4 C3 1_555 1_555
H2 C4 1_555 1_555
H3 C4 1_555 1_555
C5 N2 1_555 1_555
H4 C5 1_555 1_555
H5 C5 1_555 1_555
C6 C5 1_555 1_555
H6 C6 1_555 1_555
H7 C6 1_555 1_555
C7 N2 1_555 1_555
C8 N3 1_555 1_555
C9 C8 1_555 1_555
C10 O5 1_555 1_555
H8 C10 1_555 1_555
C11 C10 1_555 1_555
H9 C11 1_555 1_555
H10 C11 1_555 1_555
C12 C11 1_555 1_555
H11 C12 1_555 1_555
H12 C12 1_555 1_555
C13 C12 1_555 1_555
H13 C13 1_555 1_555
H14 C13 1_555 1_555
C14 C13 1_555 1_555
H15 C14 1_555 1_555
H16 C14 1_555 1_555
C15 C10 1_555 1_555
H17 C15 1_555 1_555
H18 C15 1_555 1_555
N3 C7 1_555 1_555
N4 C7 1_555 1_555
C2 C3 1_555 1_555
C14 C15 1_555 1_555

#END
