
#######################################################################
#
#                 Cambridge Crystallographic Data Centre
#                                CCDC 
#
#######################################################################
#
# If this CIF has been generated from an entry in the Cambridge 
# Structural Database, then it will include bibliographic, chemical, 
# crystal, experimental, refinement or atomic coordinate data resulting 
# from the CCDC's data processing and validation procedures.
#
#######################################################################

data_IGESAQ
_chemical_formula_moiety         'C12 H9 N2 1+,C11 H8 O3,C11 H7 O3 1-'
_chemical_name_systematic        
'1,10-phenanthrolin-1-ium 3-hydroxy-2-naphthoic acid 3-hydroxy-2-naphthoate'
_symmetry_cell_setting           monoclinic
_symmetry_space_group_name_H-M   'P 21/c'
_symmetry_Int_Tables_number      14
_space_group_name_Hall           '-P 2ybc'
loop_
_symmetry_equiv_pos_site_id
_symmetry_equiv_pos_as_xyz
1 x,y,z
2 -x,1/2+y,1/2-z
3 -x,-y,-z
4 x,1/2-y,1/2+z
_cell_length_a                   16.4090(10)
_cell_length_b                   11.6515(4)
_cell_length_c                   15.1195(10)
_cell_angle_alpha                90
_cell_angle_beta                 114.910(7)
_cell_angle_gamma                90
_cell_volume                     2621.77
_exptl_crystal_colour            'light colorless'
_exptl_crystal_description       plate
_cell_formula_units_Z            4
loop_
_atom_site_label
_atom_site_type_symbol
_atom_site_fract_x
_atom_site_fract_y
_atom_site_fract_z
N1 N 0.10784(10) 0.79182(12) 0.01230(11)
N2 N -0.00737(9) 0.92242(12) -0.13781(11)
C1 C 0.06131(11) 0.97583(13) -0.06507(12)
C2 C 0.12176(11) 0.90681(13) 0.01314(12)
C3 C 0.07700(12) 1.09512(14) -0.06153(14)
C4 C -0.06178(13) 0.98807(16) -0.20992(15)
C5 C 0.19484(12) 0.95502(15) 0.09158(13)
C6 C 0.01688(14) 1.16014(16) -0.14026(16)
C7 C 0.23316(13) 0.76632(18) 0.16131(15)
C8 C 0.16011(12) 0.72219(16) 0.08283(14)
C9 C 0.15092(15) 1.14268(17) 0.01945(16)
C10 C 0.25066(13) 0.88159(18) 0.16543(15)
C11 C -0.05177(14) 1.10686(16) -0.21413(16)
C12 C 0.20720(15) 1.07681(17) 0.09195(16)
H1 H -0.1128(13) 0.9489(15) -0.2626(14)
H2 H 0.0262(12) 1.2397(16) -0.1413(13)
H3 H 0.1427(12) 0.6409(16) 0.0739(13)
H4 H 0.2701(13) 0.7149(16) 0.2102(15)
H5 H 0.3033(14) 0.9130(17) 0.2205(16)
H6 H -0.0948(13) 1.1484(16) -0.2708(15)
H7 H 0.1583(13) 1.2246(17) 0.0210(14)
H8 H 0.0595(13) 0.7619(16) -0.0392(14)
H9 H 0.2596(15) 1.1074(17) 0.1472(16)
O1 O 0.00474(8) 0.96113(10) -0.38680(10)
O2 O 0.02302(8) 1.15055(10) -0.38663(9)
C13 C 0.15976(11) 0.93546(14) -0.21821(12)
C14 C 0.13396(11) 1.04111(13) -0.26178(12)
O3 O 0.16615(10) 1.24525(10) -0.25480(11)
C15 C 0.23915(11) 0.91983(13) -0.13250(12)
C16 C 0.04850(11) 1.05441(14) -0.35126(12)
C17 C 0.18859(12) 1.13827(13) -0.21738(13)
C18 C 0.26644(12) 1.12512(16) -0.13438(14)
C19 C 0.26533(13) 0.81163(16) -0.08665(14)
C20 C 0.29392(11) 1.01701(15) -0.09034(13)
C21 C 0.37367(13) 1.00099(19) -0.00367(16)
C22 C 0.34198(14) 0.80001(18) -0.00352(15)
C23 C 0.39649(15) 0.8958(2) 0.03806(17)
H10 H 0.1209(11) 0.8707(13) -0.2473(12)
H11 H 0.3001(12) 1.1909(15) -0.1044(14)
H12 H 0.3593(13) 0.7253(16) 0.0262(14)
H13 H 0.2293(12) 0.7474(16) -0.1145(13)
H14 H 0.4090(13) 1.0666(17) 0.0222(15)
H15 H 0.4504(15) 0.8865(18) 0.0966(17)
H16 H 0.1085(17) 1.238(2) -0.3078(19)
H17 H -0.0511(9) 0.968(2) -0.4313(16)
O4 O 0.15181(8) 1.45169(10) 0.01620(10)
C24 C 0.30350(11) 1.41437(13) 0.04563(13)
C25 C 0.39654(11) 1.28375(14) 0.17472(13)
O5 O 0.20800(9) 1.54241(11) -0.07527(11)
C26 C 0.31849(11) 1.35075(14) 0.12758(13)
C27 C 0.46095(11) 1.28250(15) 0.13456(14)
C28 C 0.21552(12) 1.47452(14) -0.00844(14)
O6 O 0.35987(11) 1.48190(15) -0.06899(12)
C29 C 0.54399(15) 1.1369(2) 0.25197(19)
C30 C 0.37111(12) 1.41705(16) 0.00991(14)
C31 C 0.41015(14) 1.21263(17) 0.25580(15)
C32 C 0.44704(13) 1.35230(18) 0.05343(16)
C33 C 0.48150(15) 1.14006(19) 0.29282(18)
C34 C 0.53518(14) 1.2067(2) 0.17676(18)
H18 H 0.2728(12) 1.3505(14) 0.1520(13)
H19 H 0.3663(13) 1.2151(16) 0.2819(14)
H20 H 0.4902(14) 1.3509(16) 0.0295(15)
H21 H 0.5945(16) 1.0860(19) 0.2784(17)
H22 H 0.5738(14) 1.2041(16) 0.1455(15)
H23 H 0.4854(15) 1.0894(19) 0.3439(18)
H24 H 0.303(2) 1.519(2) -0.087(2)
loop_
_geom_bond_atom_site_label_1
_geom_bond_atom_site_label_2
_geom_bond_site_symmetry_1
_geom_bond_site_symmetry_2
N1 C2 1_555 1_555
N2 C1 1_555 1_555
C1 C2 1_555 1_555
C2 C5 1_555 1_555
C3 C1 1_555 1_555
C4 N2 1_555 1_555
C5 C10 1_555 1_555
C6 C3 1_555 1_555
C7 C8 1_555 1_555
C8 N1 1_555 1_555
C9 C3 1_555 1_555
C10 C7 1_555 1_555
C11 C4 1_555 1_555
C12 C5 1_555 1_555
H1 C4 1_555 1_555
H2 C6 1_555 1_555
H3 C8 1_555 1_555
H4 C7 1_555 1_555
H5 C10 1_555 1_555
H6 C11 1_555 1_555
H7 C9 1_555 1_555
H8 N1 1_555 1_555
H9 C12 1_555 1_555
O1 C16 1_555 1_555
O2 C16 1_555 1_555
C13 C14 1_555 1_555
C14 C16 1_555 1_555
O3 C17 1_555 1_555
C15 C13 1_555 1_555
C17 C14 1_555 1_555
C18 C17 1_555 1_555
C19 C15 1_555 1_555
C20 C15 1_555 1_555
C21 C20 1_555 1_555
C22 C19 1_555 1_555
C23 C21 1_555 1_555
H10 C13 1_555 1_555
H11 C18 1_555 1_555
H12 C22 1_555 1_555
H13 C19 1_555 1_555
H14 C21 1_555 1_555
H15 C23 1_555 1_555
H16 O3 1_555 1_555
H17 O1 1_555 1_555
O4 C28 1_555 1_555
C24 C26 1_555 1_555
C25 C26 1_555 1_555
O5 C28 1_555 1_555
C26 H18 1_555 1_555
C27 C25 1_555 1_555
C28 C24 1_555 1_555
O6 C30 1_555 1_555
C29 C33 1_555 1_555
C30 C24 1_555 1_555
C31 C25 1_555 1_555
C32 C27 1_555 1_555
C33 C31 1_555 1_555
C34 C27 1_555 1_555
H19 C31 1_555 1_555
H20 C32 1_555 1_555
H21 C29 1_555 1_555
H22 C34 1_555 1_555
H23 C33 1_555 1_555
H24 O6 1_555 1_555
C6 C11 1_555 1_555
C9 C12 1_555 1_555
C18 C20 1_555 1_555
C22 C23 1_555 1_555
C29 C34 1_555 1_555
C30 C32 1_555 1_555

#END
