
#######################################################################
#
#                 Cambridge Crystallographic Data Centre
#                                CCDC 
#
#######################################################################
#
# If this CIF has been generated from an entry in the Cambridge 
# Structural Database, then it will include bibliographic, chemical, 
# crystal, experimental, refinement or atomic coordinate data resulting 
# from the CCDC's data processing and validation procedures.
#
#######################################################################

data_IGEYIE
_chemical_formula_moiety         'C20 H33 B11'
_chemical_name_systematic        
1-(bis(2,4,6-trimethylphenyl)boranyl)-1,2-dicarba-closo-dodecaborane(11)
_symmetry_cell_setting           orthorhombic
_symmetry_space_group_name_H-M   'P n a 21'
_symmetry_Int_Tables_number      33
_space_group_name_Hall           'P 2c -2n'
loop_
_symmetry_equiv_pos_site_id
_symmetry_equiv_pos_as_xyz
1 x,y,z
2 -x,-y,1/2+z
3 1/2-x,1/2+y,1/2+z
4 1/2+x,1/2-y,z
_cell_length_a                   9.1171(8)
_cell_length_b                   19.3834(13)
_cell_length_c                   13.2464(9)
_cell_angle_alpha                90
_cell_angle_beta                 90
_cell_angle_gamma                90
_cell_volume                     2340.91
_exptl_crystal_colour            colorless
_cell_formula_units_Z            4
loop_
_atom_site_label
_atom_site_type_symbol
_atom_site_fract_x
_atom_site_fract_y
_atom_site_fract_z
C1 C 0.6823(2) 0.86279(9) 0.34799(15)
C2 C 0.7935(2) 0.82861(10) 0.40246(15)
C3 C 0.7674(2) 0.80759(10) 0.50216(16)
H1 H 0.8431 0.7841 0.5375
C4 C 0.6359(2) 0.81978(9) 0.55101(16)
C5 C 0.5277(2) 0.85515(9) 0.49806(16)
H2 H 0.4374 0.8652 0.5307
C6 C 0.5483(2) 0.87623(9) 0.39808(16)
C7 C 0.9436(2) 0.81072(10) 0.36041(17)
H3 H 1.0196 0.8328 0.4016
H4 H 0.9510 0.8273 0.2907
H5 H 0.9571 0.7606 0.3617
C8 C 0.6086(3) 0.79613(12) 0.65798(17)
H6 H 0.6987 0.7761 0.6857
H7 H 0.5307 0.7613 0.6583
H8 H 0.5786 0.8356 0.6993
C9 C 0.4244(2) 0.91446(10) 0.34750(16)
H9 H 0.3404 0.9169 0.3935
H10 H 0.3958 0.8901 0.2858
H11 H 0.4566 0.9613 0.3304
C10 C 0.6116(2) 0.85026(9) 0.14343(15)
C11 C 0.6429(2) 0.77832(10) 0.12754(15)
C12 C 0.5820(2) 0.74323(10) 0.04609(16)
H12 H 0.6083 0.6963 0.0357
C13 C 0.4845(2) 0.77380(10) -0.02053(16)
C14 C 0.4490(2) 0.84273(10) -0.00363(16)
H13 H 0.3812 0.8647 -0.0475
C15 C 0.5096(2) 0.88041(10) 0.07540(15)
C16 C 0.7429(2) 0.73633(10) 0.19461(16)
H14 H 0.7335 0.6873 0.1775
H15 H 0.7153 0.7433 0.2654
H16 H 0.8446 0.7511 0.1845
C17 C 0.4150(3) 0.73317(11) -0.10497(18)
H17 H 0.4918 0.7150 -0.1494
H18 H 0.3497 0.7633 -0.1438
H19 H 0.3584 0.6948 -0.0766
C18 C 0.4490(2) 0.95303(10) 0.08593(16)
H20 H 0.5002 0.9838 0.0391
H21 H 0.4637 0.9692 0.1553
H22 H 0.3439 0.9529 0.0703
C19 C 0.7783(2) 0.96113(10) 0.21551(15)
C20 C 0.9266(2) 0.96958(10) 0.28946(16)
H23 H 0.942(3) 0.9346(12) 0.3416(18)
B1 B 0.6881(2) 0.88933(10) 0.23406(17)
B2 B 0.7836(3) 1.02290(11) 0.31239(17)
H24 H 0.718(3) 1.0119(12) 0.374(2)
B3 B 0.9700(3) 1.05214(12) 0.31834(18)
H25 H 1.020(3) 1.0617(15) 0.389(2)
B4 B 1.0718(3) 1.00406(12) 0.22800(19)
H26 H 1.182(3) 0.9859(14) 0.247(2)
B5 B 0.9500(3) 0.94618(12) 0.16468(18)
H27 H 0.980(3) 0.8964(14) 0.148(2)
B6 B 0.8174(3) 0.99618(11) 0.09885(18)
H28 H 0.766(3) 0.9739(13) 0.034(2)
B7 B 0.7148(3) 1.04368(11) 0.19035(18)
H29 H 0.605(3) 1.0534(13) 0.183(2)
B8 B 0.8365(3) 1.10118(11) 0.25332(19)
H30 H 0.792(3) 1.1513(12) 0.283(2)
B9 B 1.0160(3) 1.08966(12) 0.2001(2)
H31 H 1.091(3) 1.1311(12) 0.1956(19)
B10 B 1.0040(3) 1.02435(12) 0.10492(19)
H32 H 1.073(3) 1.0226(13) 0.041(2)
B11 B 0.8581(3) 1.08493(11) 0.12068(18)
H33 H 0.833(3) 1.1246(14) 0.064(2)
loop_
_geom_bond_atom_site_label_1
_geom_bond_atom_site_label_2
_geom_bond_site_symmetry_1
_geom_bond_site_symmetry_2
C1 C2 1_555 1_555
C2 C3 1_555 1_555
C3 H1 1_555 1_555
C4 C3 1_555 1_555
C5 C4 1_555 1_555
H2 C5 1_555 1_555
C6 C1 1_555 1_555
C7 C2 1_555 1_555
H3 C7 1_555 1_555
H4 C7 1_555 1_555
H5 C7 1_555 1_555
C8 C4 1_555 1_555
H6 C8 1_555 1_555
H7 C8 1_555 1_555
H8 C8 1_555 1_555
C9 C6 1_555 1_555
H9 C9 1_555 1_555
H10 C9 1_555 1_555
H11 C9 1_555 1_555
C10 C11 1_555 1_555
C11 C12 1_555 1_555
C12 H12 1_555 1_555
C13 C12 1_555 1_555
C14 C13 1_555 1_555
H13 C14 1_555 1_555
C15 C10 1_555 1_555
C16 C11 1_555 1_555
H14 C16 1_555 1_555
H15 C16 1_555 1_555
H16 C16 1_555 1_555
C17 C13 1_555 1_555
H17 C17 1_555 1_555
H18 C17 1_555 1_555
H19 C17 1_555 1_555
C18 C15 1_555 1_555
H20 C18 1_555 1_555
H21 C18 1_555 1_555
H22 C18 1_555 1_555
C19 C20 1_555 1_555
C20 H23 1_555 1_555
B1 C1 1_555 1_555
B2 C19 1_555 1_555
H24 B2 1_555 1_555
B3 C20 1_555 1_555
H25 B3 1_555 1_555
B4 C20 1_555 1_555
H26 B4 1_555 1_555
B5 C19 1_555 1_555
H27 B5 1_555 1_555
B6 C19 1_555 1_555
H28 B6 1_555 1_555
B7 C19 1_555 1_555
H29 B7 1_555 1_555
B8 B2 1_555 1_555
H30 B8 1_555 1_555
B9 B3 1_555 1_555
H31 B9 1_555 1_555
B10 B4 1_555 1_555
H32 B10 1_555 1_555
B11 B6 1_555 1_555
H33 B11 1_555 1_555
C5 C6 1_555 1_555
C10 B1 1_555 1_555
C14 C15 1_555 1_555
C19 B1 1_555 1_555
C20 B2 1_555 1_555
C20 B5 1_555 1_555
B2 B3 1_555 1_555
B2 B7 1_555 1_555
B3 B4 1_555 1_555
B3 B8 1_555 1_555
B4 B5 1_555 1_555
B4 B9 1_555 1_555
B5 B6 1_555 1_555
B5 B10 1_555 1_555
B6 B7 1_555 1_555
B6 B10 1_555 1_555
B7 B8 1_555 1_555
B7 B11 1_555 1_555
B8 B9 1_555 1_555
B8 B11 1_555 1_555
B9 B10 1_555 1_555
B9 B11 1_555 1_555
B10 B11 1_555 1_555

#END
