
#######################################################################
#
#                 Cambridge Crystallographic Data Centre
#                                CCDC 
#
#######################################################################
#
# If this CIF has been generated from an entry in the Cambridge 
# Structural Database, then it will include bibliographic, chemical, 
# crystal, experimental, refinement or atomic coordinate data resulting 
# from the CCDC's data processing and validation procedures.
#
#######################################################################

data_IGICIM
_chemical_formula_moiety         'C22 H23 Cl1 N4 O2'
_chemical_name_systematic        
2-(3-(6-chloro-2-methyl-4-oxo-1,2,3,4-tetrahydroquinazolin-2-yl)-2,2-dimethylpropyl)quinazolin-4(3H)-one
_symmetry_cell_setting           triclinic
_symmetry_space_group_name_H-M   'P -1'
_symmetry_Int_Tables_number      2
_space_group_name_Hall           '-P 1'
loop_
_symmetry_equiv_pos_site_id
_symmetry_equiv_pos_as_xyz
1 x,y,z
2 -x,-y,-z
_cell_length_a                   6.923(7)
_cell_length_b                   7.831(8)
_cell_length_c                   19.363(19)
_cell_angle_alpha                93.252(12)
_cell_angle_beta                 91.234(12)
_cell_angle_gamma                95.479(12)
_cell_volume                     1042.88
_cell_formula_units_Z            2
loop_
_atom_site_label
_atom_site_type_symbol
_atom_site_fract_x
_atom_site_fract_y
_atom_site_fract_z
Cl1 Cl 0.52886(14) 0.18944(13) 1.14460(4)
N1 N 0.4678(3) 0.3229(3) 0.67862(11)
N2 N 0.6023(3) 0.3069(3) 0.82306(11)
N3 N 0.8933(3) 0.2295(3) 0.87202(11)
O1 O 0.3577(3) 0.1698(3) 0.47549(9)
N4 N 0.4862(3) 0.1324(3) 0.58194(11)
O2 O 0.3209(3) 0.2846(3) 0.87988(11)
C1 C 0.3911(4) 0.2254(3) 0.53596(13)
C2 C 0.8108(3) 0.2279(3) 0.93631(13)
C3 C 0.3782(4) 0.4320(3) 0.63611(13)
C4 C 0.8404(3) 0.1103(3) 0.70951(12)
C5 C 0.8879(4) 0.2888(3) 0.74804(13)
H1 H 0.9647 0.3722 0.7261
C6 C 0.8148(3) 0.3362(3) 0.82088(13)
C7 C 0.3379(3) 0.3892(3) 0.56545(13)
C8 C 0.6205(4) 0.0592(3) 0.69375(13)
H2 H 0.6057 -0.0538 0.6699
H3 H 0.5549 0.0504 0.7373
C9 C 0.6152(4) 0.2554(3) 0.94331(13)
C10 C 0.5288(4) 0.2445(4) 1.00771(14)
H4 H 0.3991 0.2638 1.0124
C11 C 0.2460(4) 0.5024(4) 0.52518(14)
H5 H 0.2196 0.4743 0.4784
C12 C 0.3226(4) 0.5872(4) 0.66508(15)
H6 H 0.3461 0.6162 0.7119
C13 C 0.8284(4) 0.1753(4) 1.05793(14)
H7 H 0.8983 0.1455 1.0962
C14 C 0.4998(4) 0.2849(4) 0.88068(14)
C15 C 0.9162(4) 0.1896(4) 0.99516(14)
H8 H 1.0472 0.1737 0.9917
C16 C 0.5207(3) 0.1803(3) 0.65089(12)
C17 C 0.6357(4) 0.2054(4) 1.06376(14)
C18 C 0.2339(4) 0.6965(4) 0.62471(16)
H9 H 0.1995 0.8000 0.6444
C19 C 0.1946(4) 0.6549(4) 0.55475(16)
H10 H 0.1338 0.7301 0.5280
C20 C 0.9461(4) 0.1182(4) 0.64034(14)
H11 H 1.0820 0.1506 0.6492
H12 H 0.8932 0.2015 0.6128
H13 H 0.9289 0.0074 0.6159
C21 C 0.9147(4) -0.0351(4) 0.74988(14)
H14 H 1.0506 -0.0087 0.7608
H15 H 0.8952 -0.1411 0.7221
H16 H 0.8446 -0.0461 0.7919
C22 C 0.8806(5) 0.5265(4) 0.83812(17)
H17 H 0.8374 0.5599 0.8832
H18 H 0.8261 0.5947 0.8044
H19 H 1.0197 0.5442 0.8375
H20 H 0.538(3) 0.327(3) 0.7852(9)
H21 H 1.0209(15) 0.240(4) 0.8738(14)
H22 H 0.528(3) 0.0337(19) 0.5688(12)
loop_
_geom_bond_atom_site_label_1
_geom_bond_atom_site_label_2
_geom_bond_site_symmetry_1
_geom_bond_site_symmetry_2
Cl1 C17 1_555 1_555
N1 C3 1_555 1_555
N2 C6 1_555 1_555
N3 C2 1_555 1_555
O1 C1 1_555 1_555
N4 C1 1_555 1_555
O2 C14 1_555 1_555
C1 C7 1_555 1_555
C2 C9 1_555 1_555
C3 C7 1_555 1_555
C4 C5 1_555 1_555
C5 H1 1_555 1_555
C6 N3 1_555 1_555
C7 C11 1_555 1_555
C8 C4 1_555 1_555
H2 C8 1_555 1_555
H3 C8 1_555 1_555
C9 C10 1_555 1_555
C10 H4 1_555 1_555
C11 H5 1_555 1_555
C12 C3 1_555 1_555
H6 C12 1_555 1_555
C13 H7 1_555 1_555
C14 N2 1_555 1_555
C15 C2 1_555 1_555
H8 C15 1_555 1_555
C16 N1 1_555 1_555
C17 C10 1_555 1_555
C18 C12 1_555 1_555
H9 C18 1_555 1_555
C19 C11 1_555 1_555
H10 C19 1_555 1_555
C20 C4 1_555 1_555
H11 C20 1_555 1_555
H12 C20 1_555 1_555
H13 C20 1_555 1_555
C21 C4 1_555 1_555
H14 C21 1_555 1_555
H15 C21 1_555 1_555
H16 C21 1_555 1_555
C22 C6 1_555 1_555
H17 C22 1_555 1_555
H18 C22 1_555 1_555
H19 C22 1_555 1_555
H20 N2 1_555 1_555
H21 N3 1_555 1_555
H22 N4 1_555 1_555
N4 C16 1_555 1_555
C5 C6 1_555 1_555
C8 C16 1_555 1_555
C9 C14 1_555 1_555
C13 C15 1_555 1_555
C13 C17 1_555 1_555
C18 C19 1_555 1_555

#END
