
#######################################################################
#
#                 Cambridge Crystallographic Data Centre
#                                CCDC 
#
#######################################################################
#
# If this CIF has been generated from an entry in the Cambridge 
# Structural Database, then it will include bibliographic, chemical, 
# crystal, experimental, refinement or atomic coordinate data resulting 
# from the CCDC's data processing and validation procedures.
#
#######################################################################

data_IGOCOY
_chemical_formula_moiety         'C20 H16 B1 F2 N3 S1,0.5(C6 H14)'
_chemical_name_systematic        
'difluoro(6-methyl-2-(methylsulfanyl)-3-((1H-pyrrol-2-yl)(2H-pyrrol-2-ylidene)methyl)quinolinato)borate hexane solvate'
_symmetry_cell_setting           monoclinic
_symmetry_space_group_name_H-M   'P 21/n'
_symmetry_Int_Tables_number      14
_space_group_name_Hall           '-P 2yn'
loop_
_symmetry_equiv_pos_site_id
_symmetry_equiv_pos_as_xyz
1 x,y,z
2 1/2-x,1/2+y,1/2-z
3 -x,-y,-z
4 1/2+x,1/2-y,1/2+z
_cell_length_a                   16.3271(10)
_cell_length_b                   8.3270(4)
_cell_length_c                   16.9926(8)
_cell_angle_alpha                90
_cell_angle_beta                 109.759(3)
_cell_angle_gamma                90
_cell_volume                     2174.22
_exptl_crystal_colour            colorless
_exptl_crystal_description       plate
_cell_formula_units_Z            4
loop_
_atom_site_label
_atom_site_type_symbol
_atom_site_fract_x
_atom_site_fract_y
_atom_site_fract_z
C1 C 0.83590(14) 0.9667(2) 0.81309(11)
H1 H 0.8594 0.9205 0.7757
C2 C 0.75314(15) 0.9376(3) 0.81389(12)
H2 H 0.7118 0.8704 0.7778
C3 C 0.74304(13) 1.0269(3) 0.87825(11)
H3 H 0.6937 1.0308 0.8939
C4 C 0.82108(11) 1.1108(2) 0.91592(10)
C5 C 0.84793(11) 1.2129(2) 0.98515(9)
C6 C 0.93244(11) 1.27044(19) 1.01501(9)
C7 C 0.97796(11) 1.3612(2) 1.08708(10)
H4 H 0.9545 1.4044 1.1253
C8 C 1.06195(12) 1.3738(2) 1.09025(11)
H5 H 1.1068 1.4260 1.1312
C9 C 1.06821(11) 1.2934(2) 1.02035(10)
H6 H 1.1189 1.2847 1.0072
C10 C 0.78577(11) 1.2571(2) 1.02872(10)
C11 C 0.71745(10) 1.3696(2) 0.99177(9)
C12 C 0.66350(10) 1.3436(2) 1.09983(10)
C13 C 0.60068(11) 1.3869(2) 1.13547(11)
H7 H 0.5544 1.4525 1.1060
C14 C 0.60743(12) 1.3327(2) 1.21338(11)
H8 H 0.5653 1.3624 1.2362
C15 C 0.67628(13) 1.2336(2) 1.25972(11)
C16 C 0.73602(13) 1.1856(2) 1.22450(11)
H9 H 0.7807 1.1167 1.2540
C17 C 0.73123(11) 1.2390(2) 1.14367(10)
C18 C 0.79217(11) 1.1948(2) 1.10473(10)
H10 H 0.8367 1.1232 1.1311
C19 C 0.63283(16) 1.6093(3) 0.88473(15)
H11 H 0.6264 1.6714 0.8354
H12 H 0.6471 1.6792 0.9324
H13 H 0.5793 1.5545 0.8785
C20 C 0.68326(17) 1.1827(3) 1.34745(13)
H14 H 0.6309 1.1283 1.3458
H15 H 0.6913 1.2759 1.3825
H16 H 0.7320 1.1117 1.3695
N1 N 0.87795(10) 1.07052(18) 0.87360(8)
N2 N 0.99180(9) 1.23117(16) 0.97511(8)
N3 N 0.65784(8) 1.40853(18) 1.02391(8)
B1 B 0.96639(13) 1.1525(2) 0.88764(11)
F1 F 0.95626(8) 1.26965(12) 0.82669(6)
F2 F 1.02823(7) 1.04393(13) 0.88344(7)
S1 S 0.71723(3) 1.46668(7) 0.89929(3)
C21 C 0.5136(2) 0.0172(4) 0.96201(17)
H17 H 0.5723 0.0602 0.9815
H18 H 0.5151 -0.0835 0.9339
C22 C 0.4567(2) 0.1308(5) 0.9003(2)
H19 H 0.4547 0.2316 0.9281
H20 H 0.3981 0.0875 0.8797
C23 C 0.4869(3) 0.1633(5) 0.8258(2)
H21 H 0.4469 0.2353 0.7876
H22 H 0.4891 0.0641 0.7978
H23 H 0.5438 0.2110 0.8453
C21B C 0.4864(2) -0.0172(4) 1.03799(17)
H17B H 0.4277 -0.0602 1.0185
H18B H 0.4849 0.0835 1.0661
C22B C 0.5433(2) -0.1308(5) 1.0997(2)
H19B H 0.5453 -0.2316 1.0719
H20B H 0.6019 -0.0875 1.1203
C23B C 0.5131(3) -0.1633(5) 1.1742(2)
H21B H 0.5531 -0.2353 1.2124
H22B H 0.5109 -0.0641 1.2022
H23B H 0.4562 -0.2110 1.1547
loop_
_geom_bond_atom_site_label_1
_geom_bond_atom_site_label_2
_geom_bond_site_symmetry_1
_geom_bond_site_symmetry_2
C1 H1 1_555 1_555
C2 C1 1_555 1_555
H2 C2 1_555 1_555
C3 C2 1_555 1_555
H3 C3 1_555 1_555
C4 C3 1_555 1_555
C5 C4 1_555 1_555
C6 C5 1_555 1_555
C7 C6 1_555 1_555
H4 C7 1_555 1_555
C8 C7 1_555 1_555
H5 C8 1_555 1_555
C9 C8 1_555 1_555
H6 C9 1_555 1_555
C10 C5 1_555 1_555
C11 C10 1_555 1_555
C12 C13 1_555 1_555
C13 H7 1_555 1_555
C14 C13 1_555 1_555
H8 C14 1_555 1_555
C15 C14 1_555 1_555
C16 C15 1_555 1_555
H9 C16 1_555 1_555
C17 C12 1_555 1_555
C18 C10 1_555 1_555
H10 C18 1_555 1_555
C19 H11 1_555 1_555
H12 C19 1_555 1_555
H13 C19 1_555 1_555
C20 C15 1_555 1_555
H14 C20 1_555 1_555
H15 C20 1_555 1_555
H16 C20 1_555 1_555
N1 C1 1_555 1_555
N2 C6 1_555 1_555
N3 C11 1_555 1_555
B1 N1 1_555 1_555
F1 B1 1_555 1_555
F2 B1 1_555 1_555
S1 C11 1_555 1_555
C21 H17 1_555 1_555
H18 C21 1_555 1_555
C22 C21 1_555 1_555
H19 C22 1_555 1_555
H20 C22 1_555 1_555
C23 C22 1_555 1_555
H21 C23 1_555 1_555
H22 C23 1_555 1_555
H23 C23 1_555 1_555
C21B C21 1_555 1_555
H17B C21B 1_555 1_555
H18B C21B 1_555 1_555
C22B C21B 1_555 1_555
H19B C22B 1_555 1_555
H20B C22B 1_555 1_555
C23B C22B 1_555 1_555
H21B C23B 1_555 1_555
H22B C23B 1_555 1_555
H23B C23B 1_555 1_555
C4 N1 1_555 1_555
C9 N2 1_555 1_555
C12 N3 1_555 1_555
C16 C17 1_555 1_555
C17 C18 1_555 1_555
C19 S1 1_555 1_555
N2 B1 1_555 1_555

#END
