
#######################################################################
#
#                 Cambridge Crystallographic Data Centre
#                                CCDC 
#
#######################################################################
#
# If this CIF has been generated from an entry in the Cambridge 
# Structural Database, then it will include bibliographic, chemical, 
# crystal, experimental, refinement or atomic coordinate data resulting 
# from the CCDC's data processing and validation procedures.
#
#######################################################################

data_IGOCUE
_chemical_formula_moiety         'C20 H16 B1 F2 N3 O1 S1'
_chemical_name_systematic        
difluoro(6-methoxy-2-(methylsulfanyl)-3-((1H-pyrrol-2-yl)(2H-pyrrol-2-ylidene)methyl)quinolinato)borate
_symmetry_cell_setting           monoclinic
_symmetry_space_group_name_H-M   'P 21/c'
_symmetry_Int_Tables_number      14
_space_group_name_Hall           '-P 2ybc'
loop_
_symmetry_equiv_pos_site_id
_symmetry_equiv_pos_as_xyz
1 x,y,z
2 -x,1/2+y,1/2-z
3 -x,-y,-z
4 x,1/2-y,1/2+z
_cell_length_a                   10.5497(15)
_cell_length_b                   19.995(3)
_cell_length_c                   9.2865(15)
_cell_angle_alpha                90
_cell_angle_beta                 104.898(15)
_cell_angle_gamma                90
_cell_volume                     1893.06
_exptl_crystal_colour            orange
_exptl_crystal_description       needle
_cell_formula_units_Z            4
loop_
_atom_site_label
_atom_site_type_symbol
_atom_site_fract_x
_atom_site_fract_y
_atom_site_fract_z
S1 S 0.95425(10) 0.20703(5) 0.89993(10)
F1 F 0.3815(2) 0.09940(10) 0.5336(2)
F2 F 0.4724(2) 0.05368(10) 0.7593(3)
O1 O 0.7943(3) 0.56973(12) 0.5158(3)
N1 N 0.4718(3) 0.17436(14) 0.7374(3)
N2 N 0.9714(3) 0.33178(14) 0.8041(3)
N3 N 0.6160(3) 0.10478(14) 0.6259(3)
C1 C 0.8946(3) 0.27947(16) 0.7934(3)
C2 C 0.7609(3) 0.27856(16) 0.7029(3)
C3 C 0.5598(3) 0.22699(16) 0.7470(3)
C4 C 0.9223(3) 0.38900(17) 0.7270(4)
C5 C 0.6735(3) 0.22001(16) 0.6963(3)
C6 C 0.7008(3) 0.15875(17) 0.6371(4)
C7 C 0.7929(3) 0.39334(16) 0.6354(4)
C8 C 0.7136(3) 0.33589(16) 0.6261(3)
H1 H 0.6278 0.3368 0.5671
C9 C 0.5124(4) 0.28121(18) 0.8144(4)
H2 H 0.5516 0.3230 0.8342
C10 C 0.8275(4) 0.50808(18) 0.5796(4)
C11 C 0.8041(4) 0.14021(18) 0.5736(4)
H3 H 0.8747 0.1667 0.5663
C12 C 0.3750(4) 0.1950(2) 0.7969(4)
H4 H 0.3037 0.1692 0.8046
C13 C 1.1039(4) 0.2370(2) 1.0229(4)
H5 H 1.1455 0.2013 1.0870
H6 H 1.0846 0.2731 1.0820
H7 H 1.1616 0.2526 0.9652
C14 C 0.7481(4) 0.45376(17) 0.5602(4)
H8 H 0.6639 0.4562 0.4973
C15 C 0.3977(4) 0.2611(2) 0.8455(4)
H9 H 0.3451 0.2868 0.8905
C16 C 0.7797(4) 0.07534(19) 0.5249(4)
H10 H 0.8310 0.0498 0.4780
C17 C 0.6654(4) 0.05506(19) 0.5583(4)
H11 H 0.6277 0.0130 0.5371
C18 C 1.0038(4) 0.44596(19) 0.7433(4)
H12 H 1.0893 0.4439 0.8030
C19 C 0.9572(4) 0.50406(19) 0.6717(4)
H13 H 1.0113 0.5415 0.6834
B1 B 0.4820(5) 0.1056(2) 0.6636(5)
C20 C 0.6697(5) 0.5747(2) 0.4100(5)
H14 H 0.6568 0.6197 0.3729
H15 H 0.6016 0.5633 0.4573
H16 H 0.6669 0.5446 0.3289
loop_
_geom_bond_atom_site_label_1
_geom_bond_atom_site_label_2
_geom_bond_site_symmetry_1
_geom_bond_site_symmetry_2
S1 C1 1_555 1_555
F1 B1 1_555 1_555
F2 B1 1_555 1_555
O1 C10 1_555 1_555
N1 C3 1_555 1_555
N2 C1 1_555 1_555
N3 C6 1_555 1_555
C1 C2 1_555 1_555
C2 C5 1_555 1_555
C3 C5 1_555 1_555
C4 N2 1_555 1_555
C5 C6 1_555 1_555
C6 C11 1_555 1_555
C7 C4 1_555 1_555
C8 C2 1_555 1_555
H1 C8 1_555 1_555
C9 C3 1_555 1_555
H2 C9 1_555 1_555
C10 C14 1_555 1_555
C11 H3 1_555 1_555
C12 N1 1_555 1_555
H4 C12 1_555 1_555
C13 S1 1_555 1_555
H5 C13 1_555 1_555
H6 C13 1_555 1_555
H7 C13 1_555 1_555
C14 C7 1_555 1_555
H8 C14 1_555 1_555
C15 C9 1_555 1_555
H9 C15 1_555 1_555
C16 C11 1_555 1_555
H10 C16 1_555 1_555
C17 N3 1_555 1_555
H11 C17 1_555 1_555
C18 C4 1_555 1_555
H12 C18 1_555 1_555
C19 C10 1_555 1_555
H13 C19 1_555 1_555
B1 N1 1_555 1_555
C20 O1 1_555 1_555
H14 C20 1_555 1_555
H15 C20 1_555 1_555
H16 C20 1_555 1_555
N3 B1 1_555 1_555
C7 C8 1_555 1_555
C12 C15 1_555 1_555
C16 C17 1_555 1_555
C18 C19 1_555 1_555

#END
