
#######################################################################
#
#                 Cambridge Crystallographic Data Centre
#                                CCDC 
#
#######################################################################
#
# If this CIF has been generated from an entry in the Cambridge 
# Structural Database, then it will include bibliographic, chemical, 
# crystal, experimental, refinement or atomic coordinate data resulting 
# from the CCDC's data processing and validation procedures.
#
#######################################################################

data_IGOGES
_chemical_formula_moiety         '2(C14 H12 N3 1+),C8 H6 O4,C8 H4 O4 2-'
_chemical_name_systematic        
'bis(4-(2-(1H-benzimidazol-2-yl)ethenyl)pyridin-1-ium) terephthalic acid terephthalate'
_symmetry_cell_setting           triclinic
_symmetry_space_group_name_H-M   'P -1'
_symmetry_Int_Tables_number      2
_space_group_name_Hall           '-P 1'
loop_
_symmetry_equiv_pos_site_id
_symmetry_equiv_pos_as_xyz
1 x,y,z
2 -x,-y,-z
_cell_length_a                   7.313(4)
_cell_length_b                   11.117(6)
_cell_length_c                   12.031(6)
_cell_angle_alpha                96.141(3)
_cell_angle_beta                 100.827(6)
_cell_angle_gamma                107.509(6)
_cell_volume                     902.12
_exptl_crystal_colour            red
_exptl_crystal_description       prism
_cell_formula_units_Z            1
loop_
_atom_site_label
_atom_site_type_symbol
_atom_site_fract_x
_atom_site_fract_y
_atom_site_fract_z
C1 C -0.1767(3) -0.57939(16) 0.67785(15)
H1 H -0.2664 -0.6610 0.6481
C2 C -0.1410(2) -0.49103(15) 0.60636(14)
H2 H -0.2082 -0.5125 0.5295
C3 C -0.0044(2) -0.36941(13) 0.64868(12)
C4 C 0.0909(3) -0.34425(15) 0.76418(14)
H3 H 0.1859 -0.2650 0.7959
C5 C 0.0454(3) -0.43575(16) 0.83134(14)
H4 H 0.1081 -0.4168 0.9089
C6 C 0.0322(2) -0.27669(14) 0.57168(13)
H5 H -0.0402 -0.3025 0.4959
C7 C 0.1602(2) -0.15840(14) 0.60060(13)
H6 H 0.2312 -0.1303 0.6765
C8 C 0.1948(2) -0.07115(13) 0.52010(12)
C9 C 0.3196(2) 0.10851(14) 0.45890(13)
C10 C 0.4141(2) 0.23225(15) 0.44366(15)
H7 H 0.4880 0.2967 0.5058
C11 C 0.3935(3) 0.25488(17) 0.33289(16)
H8 H 0.4572 0.3361 0.3194
C12 C 0.2789(3) 0.15862(17) 0.23986(15)
H9 H 0.2697 0.1769 0.1658
C13 C 0.1793(3) 0.03740(16) 0.25516(13)
H10 H 0.1003 -0.0255 0.1930
C14 C 0.2007(2) 0.01217(13) 0.36696(12)
N1 N -0.0862(2) -0.55109(12) 0.78845(11)
H11 H -0.1126 -0.6072 0.8322
N2 N 0.12190(18) -0.09943(11) 0.40731(10)
N3 N 0.31414(18) 0.05250(11) 0.55490(11)
H12 H 0.3750 0.0889 0.6243
C15 C 0.2903(2) 0.36121(14) 0.77165(13)
C16 C 0.4001(2) 0.43024(13) 0.89083(12)
C17 C 0.3383(2) 0.39116(15) 0.98711(13)
H13 H 0.2298 0.3181 0.9790
C18 C 0.5622(2) 0.53928(15) 0.90477(13)
H14 H 0.6046 0.5660 0.8405
O1 O 0.15201(17) 0.25306(11) 0.77170(10)
H15 H 0.064(3) 0.213(2) 0.697(2)
O2 O 0.32229(19) 0.40322(12) 0.68624(9)
C15A C 0.7097(2) 0.63879(14) 1.22835(13)
C16A C 0.5999(2) 0.56976(13) 1.10917(12)
C17A C 0.6617(2) 0.60884(15) 1.01289(13)
H13A H 0.7702 0.6819 1.0210
C18A C 0.4378(2) 0.46072(15) 1.09523(13)
H14A H 0.3954 0.4340 1.1595
O1A O 0.84799(17) 0.74694(11) 1.22830(10)
H15A H 0.936(3) 0.787(2) 1.303(2)
O2A O 0.67771(19) 0.59678(12) 1.31376(9)
C19 C 0.3525(2) 0.80904(14) 0.13589(12)
C20 C 0.4275(2) 0.90756(13) 0.06458(12)
C21 C 0.6287(2) 0.96917(14) 0.08268(13)
H16 H 0.7156 0.9486 0.1383
C22 C 0.7009(2) 1.06078(14) 0.01883(13)
H17 H 0.8361 1.1016 0.0316
O3 O 0.45078(17) 0.81113(11) 0.23112(9)
O4 O 0.18326(17) 0.72490(11) 0.08941(9)
C19A C 0.6475(2) 1.19096(14) -0.13589(12)
C20A C 0.5725(2) 1.09244(13) -0.06458(12)
C21A C 0.3713(2) 1.03083(14) -0.08268(13)
H16A H 0.2844 1.0514 -0.1383
C22A C 0.2991(2) 0.93922(14) -0.01883(13)
H17A H 0.1639 0.8984 -0.0316
O3A O 0.54922(17) 1.18887(11) -0.23112(9)
O4A O 0.81674(17) 1.27510(11) -0.08941(9)
loop_
_geom_bond_atom_site_label_1
_geom_bond_atom_site_label_2
_geom_bond_site_symmetry_1
_geom_bond_site_symmetry_2
C1 H1 1_555 1_555
C2 C1 1_555 1_555
H2 C2 1_555 1_555
C3 C2 1_555 1_555
C4 C3 1_555 1_555
H3 C4 1_555 1_555
C5 C4 1_555 1_555
H4 C5 1_555 1_555
C6 C3 1_555 1_555
H5 C6 1_555 1_555
C7 C6 1_555 1_555
H6 C7 1_555 1_555
C8 C7 1_555 1_555
C9 C10 1_555 1_555
C10 H7 1_555 1_555
C11 C10 1_555 1_555
H8 C11 1_555 1_555
C12 C11 1_555 1_555
H9 C12 1_555 1_555
C13 C12 1_555 1_555
H10 C13 1_555 1_555
C14 C9 1_555 1_555
N1 C1 1_555 1_555
H11 N1 1_555 1_555
N2 C8 1_555 1_555
N3 C8 1_555 1_555
H12 N3 1_555 1_555
C15 C16 1_555 1_555
C16 C17 1_555 1_555
C17 H13 1_555 1_555
C18 C16 1_555 1_555
H14 C18 1_555 1_555
O1 C15 1_555 1_555
H15 O1 1_555 1_555
O2 C15 1_555 1_555
C19 C20 1_555 1_555
C20 C21 1_555 1_555
C21 H16 1_555 1_555
C22 C21 1_555 1_555
H17 C22 1_555 1_555
O3 C19 1_555 1_555
O4 C19 1_555 1_555
C15A C16A 1_555 1_555
C16A C17A 1_555 1_555
C17A C18 1_555 1_555
H13A C17A 1_555 1_555
C18A C17 1_555 1_555
H14A C18A 1_555 1_555
O1A C15A 1_555 1_555
H15A O1A 1_555 1_555
O2A C15A 1_555 1_555
C19A C20A 1_555 1_555
C20A C22 1_555 1_555
C21A C20A 1_555 1_555
H16A C21A 1_555 1_555
C22A C20 1_555 1_555
H17A C22A 1_555 1_555
O3A C19A 1_555 1_555
O4A C19A 1_555 1_555
C5 N1 1_555 1_555
C9 N3 1_555 1_555
C13 C14 1_555 1_555
C14 N2 1_555 1_555
C16A C18A 1_555 1_555
C21A C22A 1_555 1_555

#END
