
#######################################################################
#
#                 Cambridge Crystallographic Data Centre
#                                CCDC 
#
#######################################################################
#
# If this CIF has been generated from an entry in the Cambridge 
# Structural Database, then it will include bibliographic, chemical, 
# crystal, experimental, refinement or atomic coordinate data resulting 
# from the CCDC's data processing and validation procedures.
#
#######################################################################

data_IGOGIW
_chemical_formula_moiety         'C11 H7 O3 1-,C6 H10 N3 O2 1+'
_chemical_name_systematic        
'2-amino-4,6-dimethoxypyrimidin-1-ium 3-hydroxy-2-naphthoate'
_symmetry_cell_setting           triclinic
_symmetry_space_group_name_H-M   'P -1'
_symmetry_Int_Tables_number      2
_space_group_name_Hall           '-P 1'
loop_
_symmetry_equiv_pos_site_id
_symmetry_equiv_pos_as_xyz
1 x,y,z
2 -x,-y,-z
_cell_length_a                   7.8075(6)
_cell_length_b                   9.3259(5)
_cell_length_c                   12.6323(10)
_cell_angle_alpha                97.038(6)
_cell_angle_beta                 107.168(7)
_cell_angle_gamma                109.563(6)
_cell_volume                     802.649
_exptl_crystal_colour            colorless
_exptl_crystal_description       block
_cell_formula_units_Z            2
loop_
_atom_site_label
_atom_site_type_symbol
_atom_site_fract_x
_atom_site_fract_y
_atom_site_fract_z
O1 O 0.3521(2) 0.76022(13) 0.02143(10)
H1 H 0.3142 0.6679 0.0240
O2 O 0.2338(2) 0.52416(12) 0.10178(11)
C1 C 0.3076(2) 0.78098(16) 0.20316(14)
C2 C 0.4495(2) 1.10751(16) 0.23285(14)
C3 C 0.3210(2) 0.87531(17) 0.29883(14)
H2 H 0.2821 0.8294 0.3536
C4 C 0.3642(3) 0.84986(17) 0.11753(14)
O3 O 0.1757(2) 0.55243(12) 0.26275(11)
C5 C 0.3921(2) 1.04108(17) 0.31823(14)
C6 C 0.4116(3) 1.14014(19) 0.41827(16)
H3 H 0.3738 1.0964 0.4742
C7 C 0.2335(3) 0.60641(18) 0.18749(15)
C8 C 0.4318(3) 1.01050(18) 0.13379(15)
H4 H 0.4662 1.0552 0.0774
C9 C 0.5395(3) 1.3651(2) 0.34963(19)
H5 H 0.5873 1.4736 0.3604
C10 C 0.4849(3) 1.2988(2) 0.43444(18)
H6 H 0.4987 1.3631 0.5014
C11 C 0.5238(3) 1.27423(18) 0.25282(17)
H7 H 0.5620 1.3211 0.1982
N1 N 0.0293(2) 0.25238(14) 0.24648(11)
N2 N -0.07593(19) -0.01078(13) 0.14357(11)
O4 O 0.01816(18) 0.32430(12) 0.41769(10)
C12 C -0.1270(2) -0.05322(17) 0.22939(14)
C13 C -0.0217(2) 0.20495(17) 0.33326(14)
O5 O -0.20835(19) -0.20577(12) 0.22503(11)
N3 N 0.0638(2) 0.19895(17) 0.07464(13)
C14 C -0.1028(2) 0.04810(18) 0.32752(15)
H8 H -0.1394 0.0117 0.3860
C15 C 0.0051(2) 0.14639(16) 0.15503(14)
C16 C -0.2390(3) -0.31938(18) 0.12571(18)
H9 H -0.3118 -0.2982 0.0581
H10 H -0.3103 -0.4229 0.1306
H11 H -0.1154 -0.3126 0.1223
C17 C -0.0331(3) 0.2892(2) 0.51433(15)
H12 H -0.1696 0.2248 0.4890
H13 H -0.0051 0.3851 0.5665
H14 H 0.0409 0.2342 0.5522
H15 H 0.117(3) 0.297(2) 0.0819(15)
H16 H 0.059(3) 0.133(2) 0.0096(18)
H17 H 0.094(3) 0.377(3) 0.2540(19)
loop_
_geom_bond_atom_site_label_1
_geom_bond_atom_site_label_2
_geom_bond_site_symmetry_1
_geom_bond_site_symmetry_2
O1 H1 1_555 1_555
O2 C7 1_555 1_555
C1 C3 1_555 1_555
C2 C5 1_555 1_555
C3 H2 1_555 1_555
C4 O1 1_555 1_555
O3 C7 1_555 1_555
C5 C3 1_555 1_555
C6 C5 1_555 1_555
H3 C6 1_555 1_555
C7 C1 1_555 1_555
C8 C2 1_555 1_555
H4 C8 1_555 1_555
C9 H5 1_555 1_555
C10 C6 1_555 1_555
H6 C10 1_555 1_555
C11 C2 1_555 1_555
H7 C11 1_555 1_555
N1 C13 1_555 1_555
N2 C12 1_555 1_555
O4 C13 1_555 1_555
C12 O5 1_555 1_555
C13 C14 1_555 1_555
O5 C16 1_555 1_555
N3 C15 1_555 1_555
C14 C12 1_555 1_555
H8 C14 1_555 1_555
C15 N1 1_555 1_555
C16 H9 1_555 1_555
H10 C16 1_555 1_555
H11 C16 1_555 1_555
C17 O4 1_555 1_555
H12 C17 1_555 1_555
H13 C17 1_555 1_555
H14 C17 1_555 1_555
H15 N3 1_555 1_555
H16 N3 1_555 1_555
H17 N1 1_555 1_555
C1 C4 1_555 1_555
C4 C8 1_555 1_555
C9 C10 1_555 1_555
C9 C11 1_555 1_555
N2 C15 1_555 1_555

#END
