
#######################################################################
#
#                 Cambridge Crystallographic Data Centre
#                                CCDC 
#
#######################################################################
#
# If this CIF has been generated from an entry in the Cambridge 
# Structural Database, then it will include bibliographic, chemical, 
# crystal, experimental, refinement or atomic coordinate data resulting 
# from the CCDC's data processing and validation procedures.
#
#######################################################################

data_IGOTAB
_chemical_formula_moiety         'C45 H42 S6,C1 H1 Cl3'
_chemical_name_systematic        
'2,2,13,13,24,24-hexaethyl-5,10,16,21,27,32-hexathiadecacyclo[29.2.1.1^3,6^.1^9,12^.1^14,17^.1^20,23^.1^25,28^.0^4,33^.0^11,15^.0^22,26^]nonatriaconta-1(33),3,6(39),7,9(38),11,14,17(37),18,20(36),22,25,28(35),29,31(34)-pentadecaene chloroform solvate'
_symmetry_cell_setting           orthorhombic
_symmetry_space_group_name_H-M   'P b c a'
_symmetry_Int_Tables_number      61
_space_group_name_Hall           '-P 2ac 2ab'
loop_
_symmetry_equiv_pos_site_id
_symmetry_equiv_pos_as_xyz
1 x,y,z
2 1/2-x,-y,1/2+z
3 -x,1/2+y,1/2-z
4 1/2+x,1/2-y,-z
5 -x,-y,-z
6 1/2+x,y,1/2-z
7 x,1/2-y,1/2+z
8 1/2-x,1/2+y,z
_cell_length_a                   9.4165(4)
_cell_length_b                   19.7949(7)
_cell_length_c                   45.5880(19)
_cell_angle_alpha                90
_cell_angle_beta                 90
_cell_angle_gamma                90
_cell_volume                     8497.54
_exptl_crystal_colour            colorless
_exptl_crystal_description       prism
_cell_formula_units_Z            8
_exptl_crystal_recrystallization_method 'chloroform/diethyl ether'
loop_
_atom_site_label
_atom_site_type_symbol
_atom_site_fract_x
_atom_site_fract_y
_atom_site_fract_z
C1 C -0.3616(6) 0.4992(2) 0.08124(12)
C2 C -0.4406(6) 0.5204(2) 0.10485(12)
H1 H -0.5332 0.5362 0.1032
C3 C -0.3679(6) 0.5158(2) 0.13171(12)
C4 C -0.2317(6) 0.4931(2) 0.12778(12)
C5 C -0.1636(6) 0.4844(2) 0.15605(12)
C6 C -0.2611(6) 0.4991(2) 0.17771(12)
C7 C -0.4021(6) 0.5252(3) 0.16456(12)
C8 C -0.4222(7) 0.6014(3) 0.17182(14)
H2 H -0.3471 0.6265 0.1622
H3 H -0.5115 0.6161 0.1634
C9 C -0.4221(8) 0.6200(3) 0.20387(16)
H4 H -0.4339 0.6680 0.2059
H5 H -0.3335 0.6067 0.2126
H6 H -0.4987 0.5973 0.2136
C10 C -0.5309(7) 0.4851(3) 0.17361(16)
H7 H -0.5426 0.4894 0.1947
H8 H -0.6138 0.5050 0.1644
C11 C -0.5276(9) 0.4152(4) 0.1665(2)
H9 H -0.6142 0.3942 0.1728
H10 H -0.4485 0.3942 0.1762
H11 H -0.5177 0.4099 0.1457
C12 C -0.2096(6) 0.4819(2) 0.20623(12)
H12 H -0.2594 0.4890 0.2236
C13 C -0.0731(6) 0.4529(2) 0.20459(11)
C14 C 0.0105(6) 0.4302(2) 0.22962(12)
H13 H -0.0076 0.4541 0.2468
C15 C 0.1087(6) 0.3814(2) 0.23279(12)
H14 H 0.1498 0.3808 0.2513
C16 C 0.1646(6) 0.3291(2) 0.21337(11)
C17 C 0.2841(5) 0.2896(2) 0.21870(12)
H15 H 0.3406 0.2935 0.2354
C18 C 0.3096(6) 0.2431(2) 0.19591(11)
C19 C 0.2089(5) 0.2473(2) 0.17431(11)
C20 C 0.2466(5) 0.2033(2) 0.15054(11)
C21 C 0.3672(5) 0.1687(2) 0.15761(11)
C22 C 0.4254(6) 0.1918(2) 0.18734(11)
C23 C 0.4413(6) 0.1342(3) 0.21004(12)
H16 H 0.5105 0.1020 0.2028
H17 H 0.4783 0.1530 0.2281
C24 C 0.3080(7) 0.0979(3) 0.21656(15)
H18 H 0.3263 0.0626 0.2305
H19 H 0.2708 0.0787 0.1988
H20 H 0.2400 0.1290 0.2246
C25 C 0.5692(6) 0.2257(3) 0.18194(13)
H21 H 0.6327 0.1924 0.1735
H22 H 0.5559 0.2610 0.1675
C26 C 0.6416(7) 0.2564(3) 0.20841(15)
H23 H 0.7305 0.2759 0.2026
H24 H 0.6585 0.2218 0.2228
H25 H 0.5819 0.2907 0.2167
C27 C 0.4121(6) 0.1278(2) 0.13434(11)
H26 H 0.4907 0.0995 0.1355
C28 C 0.3291(5) 0.1331(2) 0.10950(12)
C29 C 0.3489(5) 0.0993(2) 0.08155(12)
H27 H 0.4047 0.0606 0.0821
C30 C 0.2995(5) 0.1157(2) 0.05574(12)
H28 H 0.3148 0.0853 0.0405
C31 C 0.2210(5) 0.1786(2) 0.04862(11)
C32 C 0.2734(5) 0.2428(2) 0.04632(10)
H29 H 0.3688 0.2535 0.0489
C33 C 0.1689(5) 0.2912(2) 0.03970(11)
C34 C 0.0360(5) 0.2632(2) 0.03692(10)
C35 C -0.0681(5) 0.3171(2) 0.03317(11)
C36 C 0.0029(5) 0.3782(2) 0.03393(10)
C37 C 0.1621(5) 0.3682(2) 0.03704(11)
C38 C 0.2390(6) 0.3935(3) 0.00931(12)
H30 H 0.2335 0.4425 0.0089
H31 H 0.3386 0.3814 0.0108
C39 C 0.1824(7) 0.3666(3) -0.01954(13)
H32 H 0.2372 0.3848 -0.0354
H33 H 0.0848 0.3797 -0.0218
H34 H 0.1892 0.3182 -0.0197
C40 C 0.2241(6) 0.4036(2) 0.06395(12)
H35 H 0.3257 0.3955 0.0643
H36 H 0.2100 0.4518 0.0617
C41 C 0.1642(7) 0.3829(3) 0.09307(13)
H37 H 0.2110 0.4076 0.1084
H38 H 0.1791 0.3354 0.0959
H39 H 0.0643 0.3925 0.0935
C42 C -0.0899(6) 0.4335(2) 0.03129(11)
H40 H -0.0596 0.4782 0.0309
C43 C -0.2304(5) 0.4147(2) 0.02927(11)
C44 C -0.3615(5) 0.4552(2) 0.02927(12)
H41 H -0.4139 0.4553 0.0120
C45 C -0.4127(5) 0.4914(2) 0.05131(11)
H42 H -0.4945 0.5157 0.0469
S1 S -0.19077(15) 0.47590(6) 0.09219(3)
S2 S -0.00858(16) 0.45274(7) 0.16887(3)
S3 S 0.08183(16) 0.30631(6) 0.18092(3)
S4 S 0.18807(15) 0.18882(6) 0.11553(3)
S5 S 0.03881(14) 0.17720(5) 0.04184(3)
S6 S -0.24721(14) 0.32681(6) 0.02901(3)
C46 C 0.7309(8) 0.2722(4) 0.10210(16)
H43 H 0.7764 0.2921 0.0848
Cl1 Cl 0.7424(3) 0.18543(13) 0.09854(6)
Cl2 Cl 0.8213(2) 0.30102(11) 0.13241(5)
Cl3 Cl 0.5534(2) 0.29845(13) 0.10209(5)
loop_
_geom_bond_atom_site_label_1
_geom_bond_atom_site_label_2
_geom_bond_site_symmetry_1
_geom_bond_site_symmetry_2
C1 C2 1_555 1_555
C2 H1 1_555 1_555
C3 C2 1_555 1_555
C4 C3 1_555 1_555
C5 C4 1_555 1_555
C6 C5 1_555 1_555
C7 C3 1_555 1_555
C8 C7 1_555 1_555
H2 C8 1_555 1_555
H3 C8 1_555 1_555
C9 C8 1_555 1_555
H4 C9 1_555 1_555
H5 C9 1_555 1_555
H6 C9 1_555 1_555
C10 C7 1_555 1_555
H7 C10 1_555 1_555
H8 C10 1_555 1_555
C11 C10 1_555 1_555
H9 C11 1_555 1_555
H10 C11 1_555 1_555
H11 C11 1_555 1_555
C12 C6 1_555 1_555
H12 C12 1_555 1_555
C13 C12 1_555 1_555
C14 C13 1_555 1_555
H13 C14 1_555 1_555
C15 C14 1_555 1_555
H14 C15 1_555 1_555
C16 C15 1_555 1_555
C17 C16 1_555 1_555
H15 C17 1_555 1_555
C18 C17 1_555 1_555
C19 C18 1_555 1_555
C20 C19 1_555 1_555
C21 C20 1_555 1_555
C22 C18 1_555 1_555
C23 C22 1_555 1_555
H16 C23 1_555 1_555
H17 C23 1_555 1_555
C24 C23 1_555 1_555
H18 C24 1_555 1_555
H19 C24 1_555 1_555
H20 C24 1_555 1_555
C25 C22 1_555 1_555
H21 C25 1_555 1_555
H22 C25 1_555 1_555
C26 C25 1_555 1_555
H23 C26 1_555 1_555
H24 C26 1_555 1_555
H25 C26 1_555 1_555
C27 C21 1_555 1_555
H26 C27 1_555 1_555
C28 C27 1_555 1_555
C29 C28 1_555 1_555
H27 C29 1_555 1_555
C30 C29 1_555 1_555
H28 C30 1_555 1_555
C31 C30 1_555 1_555
C32 C31 1_555 1_555
H29 C32 1_555 1_555
C33 C32 1_555 1_555
C34 C33 1_555 1_555
C35 C34 1_555 1_555
C36 C35 1_555 1_555
C37 C33 1_555 1_555
C38 C37 1_555 1_555
H30 C38 1_555 1_555
H31 C38 1_555 1_555
C39 C38 1_555 1_555
H32 C39 1_555 1_555
H33 C39 1_555 1_555
H34 C39 1_555 1_555
C40 C37 1_555 1_555
H35 C40 1_555 1_555
H36 C40 1_555 1_555
C41 C40 1_555 1_555
H37 C41 1_555 1_555
H38 C41 1_555 1_555
H39 C41 1_555 1_555
C42 C36 1_555 1_555
H40 C42 1_555 1_555
C43 C42 1_555 1_555
C44 C43 1_555 1_555
H41 C44 1_555 1_555
C45 C1 1_555 1_555
H42 C45 1_555 1_555
S1 C1 1_555 1_555
S2 C5 1_555 1_555
S3 C16 1_555 1_555
S4 C20 1_555 1_555
S5 C31 1_555 1_555
S6 C35 1_555 1_555
C46 H43 1_555 1_555
Cl1 C46 1_555 1_555
Cl2 C46 1_555 1_555
Cl3 C46 1_555 1_555
C4 S1 1_555 1_555
C6 C7 1_555 1_555
C13 S2 1_555 1_555
C19 S3 1_555 1_555
C21 C22 1_555 1_555
C28 S4 1_555 1_555
C34 S5 1_555 1_555
C36 C37 1_555 1_555
C43 S6 1_555 1_555
C44 C45 1_555 1_555

#END
