
#######################################################################
#
#                 Cambridge Crystallographic Data Centre
#                                CCDC 
#
#######################################################################
#
# If this CIF has been generated from an entry in the Cambridge 
# Structural Database, then it will include bibliographic, chemical, 
# crystal, experimental, refinement or atomic coordinate data resulting 
# from the CCDC's data processing and validation procedures.
#
#######################################################################

data_IGUQIK
_chemical_formula_moiety         'C30 H12 F18 N2 O4'
_chemical_name_systematic        
1^3^,1^5^,5^3^,5^5^-Tetrafluoro-1^4^,5^4^-diperfluoropropyl-3^3^,7^3^-dimethyl-2,4,6,8-tetraoxa-3,7(1,3)-dibenzena-1,5(2,6)-dipyridinaoctaphane
_symmetry_cell_setting           monoclinic
_symmetry_space_group_name_H-M   'C c'
_symmetry_Int_Tables_number      9
_space_group_name_Hall           'C -2yc'
loop_
_symmetry_equiv_pos_site_id
_symmetry_equiv_pos_as_xyz
1 x,y,z
2 x,-y,1/2+z
3 1/2+x,1/2+y,z
4 1/2+x,1/2-y,1/2+z
_cell_length_a                   13.473(3)
_cell_length_b                   23.261(5)
_cell_length_c                   11.079(2)
_cell_angle_alpha                90
_cell_angle_beta                 113.78(3)
_cell_angle_gamma                90
_cell_volume                     3177.33
_exptl_crystal_colour            colorless
_exptl_crystal_description       plate
_cell_formula_units_Z            4
loop_
_atom_site_label
_atom_site_type_symbol
_atom_site_fract_x
_atom_site_fract_y
_atom_site_fract_z
O1 O 0.8676(4) 0.8924(2) 0.4069(5)
O2 O 1.0025(6) 0.7507(2) 0.1959(7)
O3 O 1.1385(5) 0.8909(3) 0.0061(6)
O4 O 0.9668(5) 1.0316(3) 0.1763(6)
N1 N 0.9165(5) 0.9628(3) 0.2904(6)
N2 N 1.0697(6) 0.8216(3) 0.1005(6)
C1 C 0.9541(6) 0.8590(3) 0.4038(7)
C2 C 1.0543(7) 0.8662(3) 0.4992(8)
H1 H 1.0651 0.8937 0.5667
C3 C 1.1430(7) 0.8341(4) 0.5011(9)
C4 C 1.1217(8) 0.7964(4) 0.3959(9)
H2 H 1.1795 0.7745 0.3910
C5 C 1.0187(8) 0.7902(3) 0.2986(8)
C6 C 0.9339(8) 0.8207(3) 0.2997(8)
H3 H 0.8632 0.8163 0.2322
C7 C 1.2584(9) 0.8416(5) 0.6116(14)
H4 H 1.2560 0.8698 0.6761
H5 H 1.3079 0.8551 0.5728
H6 H 1.2840 0.8047 0.6555
C8 C 1.0254(7) 0.7683(4) 0.0959(10)
C9 C 1.0063(8) 0.7340(4) -0.0107(9)
C10 C 1.0310(9) 0.7489(5) -0.1185(10)
C11 C 1.0736(9) 0.8023(5) -0.1077(8)
C12 C 1.0927(7) 0.8378(4) -0.0006(8)
C13 C 1.1393(7) 0.9291(4) 0.1042(8)
C14 C 1.2396(7) 0.9392(5) 0.2091(9)
H7 H 1.3022 0.9188 0.2142
C15 C 1.2474(7) 0.9796(5) 0.3070(10)
C16 C 1.1542(7) 1.0100(4) 0.2943(9)
H8 H 1.1581 1.0387 0.3571
C17 C 1.0568(6) 0.9984(3) 0.1909(8)
C18 C 1.0468(6) 0.9580(3) 0.0943(7)
H9 H 0.9788 0.9506 0.0238
C19 C 1.3524(16) 0.9908(10) 0.4211(19)
H10 H 1.3419 1.0203 0.4779
H11 H 1.4062 1.0041 0.3887
H12 H 1.3780 0.9552 0.4717
C20 C 0.9034(6) 1.0135(3) 0.2397(7)
C21 C 0.8283(7) 1.0529(4) 0.2476(8)
C22 C 0.7638(6) 1.0380(4) 0.3116(8)
C23 C 0.7778(6) 0.9823(3) 0.3650(8)
C24 C 0.8560(6) 0.9457(3) 0.3530(7)
C25 C 0.6777(9) 1.0785(5) 0.3232(11)
C26 C 0.5790(18) 1.0502(9) 0.318(2)
F1 F 0.5840(11) 1.0428(6) 0.4342(14)
C28 C 0.7286(15) 1.1189(8) 0.441(2)
F3 F 0.7717(9) 1.0898(5) 0.5411(11)
C30 C 1.0132(11) 0.7108(6) -0.2368(14)
C31 C 0.9042(10) 0.7197(5) -0.3448(12)
C32 C 1.0935(16) 0.6932(9) -0.277(2)
F5 F 1.0773(12) 0.6412(6) -0.3303(14)
F6 F 1.1877(11) 0.7024(6) -0.1781(14)
F7 F 1.0795(14) 0.7328(7) -0.373(2)
F11 F 0.9740(11) 0.6477(6) -0.2041(13)
F13 F 0.8231(4) 1.1061(2) 0.1969(5)
F14 F 0.7197(4) 0.9621(2) 0.4312(5)
F15 F 0.6373(11) 1.1170(6) 0.1958(14)
F17 F 0.4975(9) 1.0995(5) 0.2507(11)
F18 F 0.5402(7) 1.0128(4) 0.2319(9)
F19 F 0.6609(6) 1.1580(3) 0.4488(7)
F20 F 0.8135(6) 1.1477(3) 0.4349(8)
F21 F 1.1029(6) 0.8252(3) -0.2037(7)
F22 F 0.9619(6) 0.6802(3) -0.0077(7)
F23 F 0.8294(7) 0.7093(4) -0.2963(9)
F24 F 0.8832(7) 0.6853(4) -0.4469(9)
F25 F 0.8919(6) 0.7744(3) -0.3864(8)
C27? C 0.573(2) 1.0673(11) 0.230(3)
F2? F 0.5836(10) 1.0773(6) 0.1096(13)
C29? C 0.7133(17) 1.1347(9) 0.374(2)
F4? F 0.6916(12) 1.1662(6) 0.2615(15)
C33? C 1.0689(11) 0.6543(6) -0.2045(13)
F8? F 1.1146(10) 0.6335(5) -0.2824(12)
F9? F 1.1551(8) 0.6535(4) -0.0824(10)
F10? F 0.9977(10) 0.6207(6) -0.1936(12)
F12? F 1.0993(11) 0.7381(6) -0.2984(15)
F16? F 0.6761(11) 1.0555(6) 0.4645(14)
loop_
_geom_bond_atom_site_label_1
_geom_bond_atom_site_label_2
_geom_bond_site_symmetry_1
_geom_bond_site_symmetry_2
O1 C1 1_555 1_555
O2 C5 1_555 1_555
O3 C12 1_555 1_555
O4 C17 1_555 1_555
N1 C20 1_555 1_555
N2 C8 1_555 1_555
C1 C2 1_555 1_555
C2 H1 1_555 1_555
C3 C2 1_555 1_555
C4 C3 1_555 1_555
H2 C4 1_555 1_555
C5 C4 1_555 1_555
C6 C1 1_555 1_555
H3 C6 1_555 1_555
C7 C3 1_555 1_555
H4 C7 1_555 1_555
H5 C7 1_555 1_555
H6 C7 1_555 1_555
C8 O2 1_555 1_555
C9 C8 1_555 1_555
C10 C9 1_555 1_555
C11 C10 1_555 1_555
C12 N2 1_555 1_555
C13 O3 1_555 1_555
C14 C13 1_555 1_555
H7 C14 1_555 1_555
C15 C14 1_555 1_555
C16 C15 1_555 1_555
H8 C16 1_555 1_555
C17 C16 1_555 1_555
C18 C13 1_555 1_555
H9 C18 1_555 1_555
C19 C15 1_555 1_555
H10 C19 1_555 1_555
H11 C19 1_555 1_555
H12 C19 1_555 1_555
C20 O4 1_555 1_555
C21 C20 1_555 1_555
C22 C21 1_555 1_555
C23 C22 1_555 1_555
C24 O1 1_555 1_555
C25 C22 1_555 1_555
C26 C25 1_555 1_555
F1 C26 1_555 1_555
C28 C25 1_555 1_555
F3 C28 1_555 1_555
C30 C10 1_555 1_555
C31 C30 1_555 1_555
C32 C30 1_555 1_555
F5 C32 1_555 1_555
F6 C32 1_555 1_555
F7 C32 1_555 1_555
F11 C30 1_555 1_555
F13 C21 1_555 1_555
F14 C23 1_555 1_555
F15 C25 1_555 1_555
F17 C26 1_555 1_555
F18 C26 1_555 1_555
F19 C28 1_555 1_555
F20 C28 1_555 1_555
F21 C11 1_555 1_555
F22 C9 1_555 1_555
F23 C31 1_555 1_555
F24 C31 1_555 1_555
F25 C31 1_555 1_555
N1 C24 1_555 1_555
C5 C6 1_555 1_555
C11 C12 1_555 1_555
C17 C18 1_555 1_555
C23 C24 1_555 1_555

#END
