
#######################################################################
#
#                 Cambridge Crystallographic Data Centre
#                                CCDC 
#
#######################################################################
#
# If this CIF has been generated from an entry in the Cambridge 
# Structural Database, then it will include bibliographic, chemical, 
# crystal, experimental, refinement or atomic coordinate data resulting 
# from the CCDC's data processing and validation procedures.
#
#######################################################################

data_IGUQEG
_chemical_formula_moiety         'C24 H16 F18 N2 O6'
_chemical_name_systematic        
1^3^,1^5^,9^3^,9^5^-Tetrafluoro-1^4^,9^4^-diperfluoropropyl-2,5,8,10,13,16-hexaoxa-1,9(2,6)-pyridinahexadecaphane
_symmetry_cell_setting           monoclinic
_symmetry_space_group_name_H-M   'P 21/c'
_symmetry_Int_Tables_number      14
_space_group_name_Hall           '-P 2ybc'
loop_
_symmetry_equiv_pos_site_id
_symmetry_equiv_pos_as_xyz
1 x,y,z
2 x,1/2-y,1/2+z
3 -x,-y,-z
4 -x,1/2+y,1/2-z
_cell_length_a                   11.0542(4)
_cell_length_b                   14.1784(5)
_cell_length_c                   18.7552(6)
_cell_angle_alpha                90
_cell_angle_beta                 102.960(1)
_cell_angle_gamma                90
_cell_volume                     2864.64
_exptl_crystal_colour            colorless
_exptl_crystal_description       cube
_cell_formula_units_Z            4
loop_
_atom_site_label
_atom_site_type_symbol
_atom_site_fract_x
_atom_site_fract_y
_atom_site_fract_z
O1 O 0.48760(11) 0.76539(8) 0.74768(6)
O2 O 0.35690(12) 0.89455(8) 0.64123(6)
O3 O 0.53169(10) 1.02018(9) 0.59030(6)
O4 O 0.53814(10) 1.04922(8) 0.83950(6)
O5 O 0.36114(11) 0.94170(8) 0.89712(6)
O6 O 0.44361(10) 0.77572(8) 0.98759(6)
N1 N 0.46588(11) 0.76563(9) 0.86756(7)
N2 N 0.53081(11) 1.03696(9) 0.71465(7)
C1 C 0.51619(13) 0.76964(10) 0.93832(8)
C2 C 0.64472(14) 0.76690(11) 0.96466(8)
C3 C 0.72434(14) 0.76541(10) 0.91597(8)
C4 C 0.66775(14) 0.76437(11) 0.84202(9)
C5 C 0.53788(14) 0.76491(10) 0.82000(8)
C6 C 0.35375(15) 0.77534(11) 0.72732(9)
C7 C 0.32086(17) 0.79951(11) 0.64716(9)
C8 C 0.34161(15) 0.92707(11) 0.56829(8)
C9 C 0.39744(14) 1.02432(11) 0.57111(8)
C10 C 0.59070(14) 1.02072(10) 0.66162(8)
C11 C 0.71835(14) 1.00603(11) 0.67671(8)
C12 C 0.78915(14) 1.00865(11) 0.74811(8)
C13 C 0.72341(14) 1.02335(11) 0.80249(8)
C14 C 0.59473(13) 1.03607(10) 0.78351(8)
C15 C 0.40503(14) 1.06492(11) 0.82142(8)
C16 C 0.35793(15) 1.04136(11) 0.88869(9)
C17 C 0.30437(15) 0.91082(12) 0.95400(9)
C18 C 0.31528(14) 0.80475(12) 0.95924(9)
C19 C 0.86583(14) 0.76127(12) 0.94186(9)
C20 C 0.90869(15) 0.65787(13) 0.95844(11)
C21 C 0.92244(16) 0.82770(15) 1.00734(10)
C22 C 0.93074(15) 1.00575(13) 0.76479(9)
C23 C 0.97940(16) 1.10486(15) 0.74927(10)
C24 C 0.98814(17) 0.92548(15) 0.72592(11)
F1 F 0.69087(9) 0.76533(7) 1.03735(5)
F2 F 0.73234(9) 0.76170(8) 0.78907(5)
F3 F 0.92073(9) 0.79072(8) 0.88668(6)
F4 F 0.87407(10) 0.60705(8) 0.89798(7)
F5 F 0.85953(10) 0.61926(9) 1.01001(7)
F6 F 1.03264(10) 0.65294(9) 0.98023(8)
F7 F 0.92754(11) 0.78674(11) 1.07173(6)
F8 F 1.03866(10) 0.85008(10) 1.00506(7)
F9 F 0.85722(11) 0.90689(9) 1.00431(7)
F10 F 0.77263(9) 0.99142(8) 0.61993(5)
F11 F 0.77984(9) 1.02945(9) 0.87399(5)
F12 F 0.97752(10) 0.99085(9) 0.83840(6)
F13 F 0.94403(12) 1.16757(9) 0.79374(7)
F14 F 0.93412(10) 1.13259(8) 0.68103(6)
F15 F 1.10310(10) 1.10597(11) 0.76198(7)
F16 F 1.00778(11) 0.95127(9) 0.66115(6)
F17 F 0.91492(12) 0.85006(9) 0.71639(8)
F18 F 1.09814(12) 0.90045(12) 0.76757(8)
H1 H 0.3290(18) 0.8260(14) 0.7543(10)
H2 H 0.319(2) 0.7170(16) 0.7368(11)
H3 H 0.363(2) 0.7566(15) 0.6194(12)
H4 H 0.231(2) 0.7907(15) 0.6296(11)
H5 H 0.3824(19) 0.8862(15) 0.5394(11)
H6 H 0.252(2) 0.9302(16) 0.5435(13)
H7 H 0.3660(18) 1.0632(14) 0.6046(10)
H8 H 0.3780(18) 1.0532(14) 0.5224(11)
H9 H 0.366(2) 1.0249(15) 0.7820(12)
H10 H 0.3877(19) 1.1291(16) 0.8077(11)
H11 H 0.2732(18) 1.0648(13) 0.8835(10)
H12 H 0.408(2) 1.0724(16) 0.9322(12)
H13 H 0.3428(19) 0.9396(14) 0.9999(11)
H14 H 0.2190(19) 0.9270(14) 0.9434(11)
H15 H 0.2826(18) 0.7751(14) 0.9118(11)
H16 H 0.2731(19) 0.7809(15) 0.9943(11)
loop_
_geom_bond_atom_site_label_1
_geom_bond_atom_site_label_2
_geom_bond_site_symmetry_1
_geom_bond_site_symmetry_2
O1 C5 1_555 1_555
O2 C7 1_555 1_555
O3 C9 1_555 1_555
O4 C14 1_555 1_555
O5 C16 1_555 1_555
O6 C1 1_555 1_555
N1 C1 1_555 1_555
N2 C10 1_555 1_555
C1 C2 1_555 1_555
C2 C3 1_555 1_555
C3 C4 1_555 1_555
C4 C5 1_555 1_555
C5 N1 1_555 1_555
C6 O1 1_555 1_555
C7 C6 1_555 1_555
C8 O2 1_555 1_555
C9 C8 1_555 1_555
C10 O3 1_555 1_555
C11 C10 1_555 1_555
C12 C11 1_555 1_555
C13 C12 1_555 1_555
C14 N2 1_555 1_555
C15 O4 1_555 1_555
C16 C15 1_555 1_555
C17 O5 1_555 1_555
C18 O6 1_555 1_555
C19 C3 1_555 1_555
C20 C19 1_555 1_555
C21 C19 1_555 1_555
C22 C12 1_555 1_555
C23 C22 1_555 1_555
C24 C22 1_555 1_555
F1 C2 1_555 1_555
F2 C4 1_555 1_555
F3 C19 1_555 1_555
F4 C20 1_555 1_555
F5 C20 1_555 1_555
F6 C20 1_555 1_555
F7 C21 1_555 1_555
F8 C21 1_555 1_555
F9 C21 1_555 1_555
F10 C11 1_555 1_555
F11 C13 1_555 1_555
F12 C22 1_555 1_555
F13 C23 1_555 1_555
F14 C23 1_555 1_555
F15 C23 1_555 1_555
F16 C24 1_555 1_555
F17 C24 1_555 1_555
F18 C24 1_555 1_555
H1 C6 1_555 1_555
H2 C6 1_555 1_555
H3 C7 1_555 1_555
H4 C7 1_555 1_555
H5 C8 1_555 1_555
H6 C8 1_555 1_555
H7 C9 1_555 1_555
H8 C9 1_555 1_555
H9 C15 1_555 1_555
H10 C15 1_555 1_555
H11 C16 1_555 1_555
H12 C16 1_555 1_555
H13 C17 1_555 1_555
H14 C17 1_555 1_555
H15 C18 1_555 1_555
H16 C18 1_555 1_555
C13 C14 1_555 1_555
C17 C18 1_555 1_555

#END
