
#######################################################################
#
#                 Cambridge Crystallographic Data Centre
#                                CCDC 
#
#######################################################################
#
# If this CIF has been generated from an entry in the Cambridge 
# Structural Database, then it will include bibliographic, chemical, 
# crystal, experimental, refinement or atomic coordinate data resulting 
# from the CCDC's data processing and validation procedures.
#
#######################################################################

data_IGUQAE
_chemical_formula_moiety         'C21 H17 Cl2 F3 N2 O1 S1'
_chemical_name_systematic        
2-(2,6-Dichlorobenzyl)-2-methyl-N-(quinolin-8-yl)-3-((trifluoromethyl)sulfanyl)propanamide
_symmetry_cell_setting           monoclinic
_symmetry_space_group_name_H-M   'P 21/n'
_symmetry_Int_Tables_number      14
_space_group_name_Hall           '-P 2yn'
loop_
_symmetry_equiv_pos_site_id
_symmetry_equiv_pos_as_xyz
1 x,y,z
2 1/2-x,1/2+y,1/2-z
3 -x,-y,-z
4 1/2+x,1/2-y,1/2+z
_cell_length_a                   13.5783(19)
_cell_length_b                   12.2811(17)
_cell_length_c                   13.771(2)
_cell_angle_alpha                90
_cell_angle_beta                 112.448(2)
_cell_angle_gamma                90
_cell_volume                     2122.4
_exptl_crystal_colour            colorless
_exptl_crystal_description       prism
_cell_formula_units_Z            4
loop_
_atom_site_label
_atom_site_type_symbol
_atom_site_fract_x
_atom_site_fract_y
_atom_site_fract_z
C1 C 0.48133(17) 0.56915(16) -0.12999(15)
C2 C 0.6151(3) 0.4435(2) -0.0925(2)
H1 H 0.6871 0.4267 -0.0716
C3 C 0.5414(3) 0.3578(2) -0.1152(2)
H2 H 0.565 0.2861 -0.109
C4 C 0.4364(3) 0.3792(2) -0.1460(2)
H3 H 0.3875 0.3225 -0.1611
C5 C 0.4014(2) 0.48761(18) -0.15502(16)
C6 C 0.2943(2) 0.5193(2) -0.18618(19)
H4 H 0.2411 0.4666 -0.2033
C7 C 0.26823(18) 0.6252(2) -0.19133(19)
H5 H 0.1969 0.6444 -0.2119
C8 C 0.34553(16) 0.70778(19) -0.16655(17)
H6 H 0.3255 0.7806 -0.1703
C9 C 0.45061(16) 0.68019(17) -0.13683(15)
C10 C 0.53193(15) 0.86371(16) -0.11405(16)
C11 C 0.63858(15) 0.92155(15) -0.09419(16)
C12 C 0.70212(15) 0.92107(17) 0.02827(16)
H7 H 0.6811 0.9847 0.0574
H8 H 0.6805 0.8575 0.057
C13 C 0.82174(15) 0.92052(17) 0.06549(15)
C14 C 0.88380(18) 1.0142(2) 0.08671(17)
C15 C 0.99414(19) 1.0119(3) 0.12329(19)
H9 H 1.0328 1.0765 0.1367
C16 C 1.0454(2) 0.9142(3) 0.1395(2)
H10 H 1.1194 0.9122 0.1636
C17 C 0.9887(2) 0.8191(3) 0.12044(19)
H11 H 1.0239 0.7525 0.1315
C18 C 0.87893(18) 0.8227(2) 0.08475(16)
C19 C 0.61160(17) 1.03951(17) -0.13068(19)
H12 H 0.6767 1.0769 -0.1244
H13 H 0.583 1.0756 -0.0845
C20 C 0.5937(3) 1.1188(4) -0.3247(3)
C21 C 0.69979(15) 0.86738(18) -0.15439(16)
H14 H 0.656 0.8662 -0.228
H15 H 0.718 0.7942 -0.1296
H16 H 0.7637 0.9078 -0.1433
F1 F 0.67582(18) 1.0651(2) -0.3258(2)
F2 F 0.5326(2) 1.1430(3) -0.4221(2)
F3 F 0.6344(3) 1.2125(2) -0.2792(3)
N1 N 0.53528(12) 0.75425(14) -0.11318(14)
H17 H 0.5976 0.7259 -0.0958
N2 N 0.58686(16) 0.54685(15) -0.09959(15)
O1 O 0.45142(12) 0.91601(13) -0.12917(16)
S1 S 0.51614(5) 1.05161(6) -0.26515(6)
Cl1 Cl 0.81167(6) 0.69921(5) 0.06608(6)
Cl2 Cl 0.82492(6) 1.14138(6) 0.07006(6)
loop_
_geom_bond_atom_site_label_1
_geom_bond_atom_site_label_2
_geom_bond_site_symmetry_1
_geom_bond_site_symmetry_2
C1 C5 1_555 1_555
C2 H1 1_555 1_555
C3 C2 1_555 1_555
H2 C3 1_555 1_555
C4 C3 1_555 1_555
H3 C4 1_555 1_555
C5 C4 1_555 1_555
C6 C5 1_555 1_555
H4 C6 1_555 1_555
C7 C6 1_555 1_555
H5 C7 1_555 1_555
C8 C7 1_555 1_555
H6 C8 1_555 1_555
C9 C1 1_555 1_555
C10 C11 1_555 1_555
C11 C12 1_555 1_555
C12 H7 1_555 1_555
H8 C12 1_555 1_555
C13 C12 1_555 1_555
C14 C13 1_555 1_555
C15 C14 1_555 1_555
H9 C15 1_555 1_555
C16 C15 1_555 1_555
H10 C16 1_555 1_555
C17 C16 1_555 1_555
H11 C17 1_555 1_555
C18 C13 1_555 1_555
C19 C11 1_555 1_555
H12 C19 1_555 1_555
H13 C19 1_555 1_555
C20 F1 1_555 1_555
C21 C11 1_555 1_555
H14 C21 1_555 1_555
H15 C21 1_555 1_555
H16 C21 1_555 1_555
F2 C20 1_555 1_555
F3 C20 1_555 1_555
N1 C9 1_555 1_555
H17 N1 1_555 1_555
N2 C1 1_555 1_555
O1 C10 1_555 1_555
S1 C19 1_555 1_555
Cl1 C18 1_555 1_555
Cl2 C14 1_555 1_555
C2 N2 1_555 1_555
C8 C9 1_555 1_555
C10 N1 1_555 1_555
C17 C18 1_555 1_555
C20 S1 1_555 1_555

#END
