
#######################################################################
#
#                 Cambridge Crystallographic Data Centre
#                                CCDC 
#
#######################################################################
#
# If this CIF has been generated from an entry in the Cambridge 
# Structural Database, then it will include bibliographic, chemical, 
# crystal, experimental, refinement or atomic coordinate data resulting 
# from the CCDC's data processing and validation procedures.
#
#######################################################################

data_IGUROS
_chemical_name_common            '13-Deacetyl-1-deoxybaccatin VI'
_chemical_formula_moiety         'C35 H44 O12'
_chemical_name_systematic        
'4,7,9,10-Tetra-acetoxy-13-hydroxy-5,20-epoxytax-11-en-2-yl benzoate'
_symmetry_cell_setting           orthorhombic
_symmetry_space_group_name_H-M   'P 21 21 21'
_symmetry_Int_Tables_number      19
_space_group_name_Hall           'P 2ac 2ab'
loop_
_symmetry_equiv_pos_site_id
_symmetry_equiv_pos_as_xyz
1 x,y,z
2 1/2-x,-y,1/2+z
3 -x,1/2+y,1/2-z
4 1/2+x,1/2-y,-z
_cell_length_a                   10.906(4)
_cell_length_b                   15.056(2)
_cell_length_c                   20.363(5)
_cell_angle_alpha                90
_cell_angle_beta                 90
_cell_angle_gamma                90
_cell_volume                     3343.62
_exptl_crystal_colour            colorless
_exptl_crystal_description       block
_chemical_melting_point          282-284deg.C
_cell_formula_units_Z            4
_exptl_crystal_recrystallization_method 'ethyl acetate/hexane'
loop_
_atom_site_label
_atom_site_type_symbol
_atom_site_fract_x
_atom_site_fract_y
_atom_site_fract_z
O1 O 0.1272(3) 0.9236(2) 0.11222(16)
O2 O 0.2839(4) 0.8330(3) 0.1362(3)
O3 O -0.0379(3) 1.0393(2) 0.05896(17)
O4 O -0.1074(3) 1.1762(3) 0.08252(19)
O5 O 0.1623(4) 1.0944(3) -0.04562(18)
O6 O 0.2877(3) 1.3107(2) 0.09299(18)
O7 O 0.1459(5) 1.4080(3) 0.1241(3)
O8 O 0.4236(3) 1.2232(2) 0.17640(18)
O9 O 0.5539(4) 1.1146(3) 0.2069(3)
O10 O 0.3249(3) 1.2181(3) 0.29338(19)
O11 O 0.2729(7) 1.3607(4) 0.2868(5)
O12 O -0.1696(3) 1.1000(3) 0.2217(2)
H1 H -0.2311 1.0893 0.2435
C1 C 0.1275(5) 0.9792(3) 0.2218(2)
H2 H 0.1466 0.9172 0.2321
C2 C 0.1787(5) 0.9953(3) 0.1524(2)
H3 H 0.2680 0.9887 0.1537
C3 C 0.1470(5) 1.0845(3) 0.1172(2)
H4 H 0.0849 1.1129 0.1449
C4 C 0.0854(5) 1.0728(4) 0.0496(3)
C5 C 0.0918(5) 1.1496(4) 0.0003(3)
H5 H 0.0101 1.1615 -0.0177
C6 C 0.1541(5) 1.2361(4) 0.0185(3)
H6 H 0.2234 1.2452 -0.0105
H7 H 0.0969 1.2845 0.0114
C7 C 0.1982(5) 1.2396(3) 0.0882(3)
H8 H 0.1285 1.2541 0.1166
C8 C 0.2580(4) 1.1542(3) 0.1135(3)
C9 C 0.3200(5) 1.1631(3) 0.1819(3)
H9 H 0.3518 1.1045 0.1942
C10 C 0.2408(5) 1.1978(4) 0.2399(3)
H10 H 0.1981 1.2521 0.2264
C11 C 0.1489(5) 1.1297(3) 0.2608(2)
C12 C 0.0283(5) 1.1480(3) 0.2556(3)
C13 C -0.0630(5) 1.0725(4) 0.2573(3)
H11 H -0.0859 1.0606 0.3030
C14 C -0.0144(5) 0.9869(4) 0.2261(3)
H12 H -0.0478 0.9821 0.1821
H13 H -0.0451 0.9369 0.2512
C15 C 0.1868(5) 1.0344(4) 0.2767(3)
C16 C 0.1373(6) 1.0068(4) 0.3455(2)
H14 H 0.1831 1.0369 0.3790
H15 H 0.1460 0.9438 0.3509
H16 H 0.0523 1.0227 0.3489
C17 C 0.3267(5) 1.0125(4) 0.2834(3)
H17 H 0.3602 0.9998 0.2409
H18 H 0.3371 0.9618 0.3115
H19 H 0.3686 1.0626 0.3021
C18 C -0.0242(5) 1.2383(3) 0.2448(3)
H20 H 0.0349 1.2824 0.2575
H21 H -0.0970 1.2451 0.2708
H22 H -0.0441 1.2456 0.1992
C19 C 0.3613(5) 1.1232(4) 0.0665(3)
H23 H 0.3298 1.1196 0.0226
H24 H 0.3902 1.0658 0.0800
H25 H 0.4277 1.1649 0.0678
C20 C 0.1472(5) 1.0181(4) -0.0042(3)
H26 H 0.2243 0.9920 0.0095
H27 H 0.0939 0.9733 -0.0230
C21 C 0.1853(6) 0.8454(4) 0.1127(3)
C22 C 0.1094(6) 0.7759(4) 0.0802(3)
C23 C 0.1563(7) 0.6903(4) 0.0773(3)
H28 H 0.2342 0.6790 0.0939
C24 C 0.0909(8) 0.6231(5) 0.0506(4)
H29 H 0.1233 0.5660 0.0499
C25 C -0.0215(10) 0.6385(5) 0.0247(4)
H30 H -0.0649 0.5923 0.0053
C26 C -0.0715(7) 0.7224(6) 0.0272(4)
H31 H -0.1490 0.7325 0.0096
C27 C -0.0074(6) 0.7917(5) 0.0554(4)
H32 H -0.0418 0.8481 0.0578
C28 C -0.1262(5) 1.0978(4) 0.0737(3)
C29 C -0.2497(5) 1.0549(4) 0.0762(3)
H33 H -0.3084 1.0963 0.0936
H34 H -0.2462 1.0034 0.1039
H35 H -0.2739 1.0376 0.0327
C30 C 0.2508(7) 1.3897(4) 0.1141(3)
C31 C 0.3565(6) 1.4522(4) 0.1247(3)
H36 H 0.3503 1.5010 0.0945
H37 H 0.4322 1.4212 0.1173
H38 H 0.3546 1.4742 0.1689
C32 C 0.5350(5) 1.1903(5) 0.1927(3)
C33 C 0.6291(5) 1.2639(4) 0.1900(4)
H39 H 0.6164 1.3038 0.2261
H40 H 0.6206 1.2959 0.1494
H41 H 0.7099 1.2390 0.1926
C34 C 0.3309(7) 1.3026(7) 0.3133(5)
C35 C 0.4173(7) 1.3117(7) 0.3696(5)
H42 H 0.4988 1.3215 0.3534
H43 H 0.4158 1.2583 0.3954
H44 H 0.3929 1.3611 0.3964
loop_
_geom_bond_atom_site_label_1
_geom_bond_atom_site_label_2
_geom_bond_site_symmetry_1
_geom_bond_site_symmetry_2
O1 C2 1_555 1_555
O2 C21 1_555 1_555
O3 C4 1_555 1_555
O4 C28 1_555 1_555
O5 C5 1_555 1_555
O6 C7 1_555 1_555
O7 C30 1_555 1_555
O8 C9 1_555 1_555
O9 C32 1_555 1_555
O10 C10 1_555 1_555
O11 C34 1_555 1_555
O12 H1 1_555 1_555
C1 H2 1_555 1_555
C2 C1 1_555 1_555
H3 C2 1_555 1_555
C3 C2 1_555 1_555
H4 C3 1_555 1_555
C4 C3 1_555 1_555
C5 C4 1_555 1_555
H5 C5 1_555 1_555
C6 C5 1_555 1_555
H6 C6 1_555 1_555
H7 C6 1_555 1_555
C7 C6 1_555 1_555
H8 C7 1_555 1_555
C8 C3 1_555 1_555
C9 C8 1_555 1_555
H9 C9 1_555 1_555
C10 C9 1_555 1_555
H10 C10 1_555 1_555
C11 C10 1_555 1_555
C12 C11 1_555 1_555
C13 O12 1_555 1_555
H11 C13 1_555 1_555
C14 C1 1_555 1_555
H12 C14 1_555 1_555
H13 C14 1_555 1_555
C15 C1 1_555 1_555
C16 C15 1_555 1_555
H14 C16 1_555 1_555
H15 C16 1_555 1_555
H16 C16 1_555 1_555
C17 C15 1_555 1_555
H17 C17 1_555 1_555
H18 C17 1_555 1_555
H19 C17 1_555 1_555
C18 C12 1_555 1_555
H20 C18 1_555 1_555
H21 C18 1_555 1_555
H22 C18 1_555 1_555
C19 C8 1_555 1_555
H23 C19 1_555 1_555
H24 C19 1_555 1_555
H25 C19 1_555 1_555
C20 O5 1_555 1_555
H26 C20 1_555 1_555
H27 C20 1_555 1_555
C21 O1 1_555 1_555
C22 C21 1_555 1_555
C23 C22 1_555 1_555
H28 C23 1_555 1_555
C24 C23 1_555 1_555
H29 C24 1_555 1_555
C25 C24 1_555 1_555
H30 C25 1_555 1_555
C26 C25 1_555 1_555
H31 C26 1_555 1_555
C27 C22 1_555 1_555
H32 C27 1_555 1_555
C28 O3 1_555 1_555
C29 C28 1_555 1_555
H33 C29 1_555 1_555
H34 C29 1_555 1_555
H35 C29 1_555 1_555
C30 O6 1_555 1_555
C31 C30 1_555 1_555
H36 C31 1_555 1_555
H37 C31 1_555 1_555
H38 C31 1_555 1_555
C32 O8 1_555 1_555
C33 C32 1_555 1_555
H39 C33 1_555 1_555
H40 C33 1_555 1_555
H41 C33 1_555 1_555
C34 O10 1_555 1_555
C35 C34 1_555 1_555
H42 C35 1_555 1_555
H43 C35 1_555 1_555
H44 C35 1_555 1_555
C4 C20 1_555 1_555
C7 C8 1_555 1_555
C11 C15 1_555 1_555
C12 C13 1_555 1_555
C13 C14 1_555 1_555
C26 C27 1_555 1_555

#END
