
#######################################################################
#
#                 Cambridge Crystallographic Data Centre
#                                CCDC 
#
#######################################################################
#
# If this CIF has been generated from an entry in the Cambridge 
# Structural Database, then it will include bibliographic, chemical, 
# crystal, experimental, refinement or atomic coordinate data resulting 
# from the CCDC's data processing and validation procedures.
#
#######################################################################

data_IGUYOA
_chemical_formula_moiety         'C16 H14 O3'
_chemical_name_systematic        
3',4'-dihydro-3H-spiro[1-benzofuran-2,2'-chromen]-3-ol
_symmetry_cell_setting           orthorhombic
_symmetry_space_group_name_H-M   'P 21 21 21'
_symmetry_Int_Tables_number      19
_space_group_name_Hall           'P 2ac 2ab'
loop_
_symmetry_equiv_pos_site_id
_symmetry_equiv_pos_as_xyz
1 x,y,z
2 1/2-x,-y,1/2+z
3 1/2+x,1/2-y,-z
4 -x,1/2+y,1/2-z
_cell_length_a                   11.5731(4)
_cell_length_b                   20.5327(8)
_cell_length_c                   38.4094(14)
_cell_angle_alpha                90
_cell_angle_beta                 90
_cell_angle_gamma                90
_cell_volume                     9127.11
_exptl_crystal_colour            'light colorless'
_exptl_crystal_description       block
_cell_formula_units_Z            28
loop_
_atom_site_label
_atom_site_type_symbol
_atom_site_fract_x
_atom_site_fract_y
_atom_site_fract_z
O1 O -0.3370(3) -0.58400(16) -0.67956(8)
O2 O -0.2225(3) -0.67611(16) -0.67897(9)
O3 O -0.1642(3) -0.50872(15) -0.69668(8)
H1 H -0.1873 -0.4940 -0.7153
C1 C -0.4535(4) -0.5953(2) -0.68470(12)
C2 C -0.5271(4) -0.5581(3) -0.66432(13)
H2 H -0.4972 -0.5277 -0.6488
C3 C -0.6447(5) -0.5662(3) -0.66725(16)
H3 H -0.6945 -0.5413 -0.6536
C4 C -0.6883(5) -0.6108(3) -0.69026(17)
H4 H -0.7677 -0.6167 -0.6920
C5 C -0.6147(5) -0.6470(3) -0.71077(14)
H5 H -0.6454 -0.6765 -0.7267
C6 C -0.4953(4) -0.6404(3) -0.70816(13)
C7 C -0.4126(4) -0.6791(3) -0.72979(13)
H6 H -0.4459 -0.6872 -0.7526
H7 H -0.3977 -0.7207 -0.7187
C8 C -0.3004(4) -0.6414(2) -0.73363(12)
H8 H -0.2433 -0.6689 -0.7448
H9 H -0.3133 -0.6039 -0.7485
C9 C -0.2544(4) -0.6190(2) -0.69914(12)
C10 C -0.1446(4) -0.5763(2) -0.70005(12)
H10 H -0.1023 -0.5847 -0.7217
C11 C -0.0770(4) -0.6022(2) -0.67005(12)
C12 C 0.0190(4) -0.5786(3) -0.65267(14)
H11 H 0.0512 -0.5387 -0.6588
C13 C 0.0663(5) -0.6155(3) -0.62598(15)
H12 H 0.1305 -0.6001 -0.6139
C14 C 0.0192(5) -0.6745(3) -0.61722(15)
H13 H 0.0537 -0.6993 -0.5998
C15 C -0.0792(5) -0.6982(3) -0.63378(13)
H14 H -0.1125 -0.7377 -0.6275
C16 C -0.1248(4) -0.6603(2) -0.65993(13)
O4 O -0.3714(3) -0.57407(16) -0.53948(8)
O5 O -0.2722(3) -0.67219(17) -0.53892(10)
O6 O -0.1861(3) -0.50844(16) -0.55648(8)
H15 H -0.2005 -0.4932 -0.5757
C17 C -0.4889(4) -0.5868(3) -0.54240(13)
C18 C -0.5591(5) -0.5500(3) -0.52079(14)
H16 H -0.5275 -0.5178 -0.5067
C19 C -0.6779(5) -0.5618(3) -0.52041(16)
H17 H -0.7259 -0.5381 -0.5057
C20 C -0.7232(5) -0.6086(4) -0.54193(17)
H18 H -0.8022 -0.6170 -0.5416
C21 C -0.6529(5) -0.6430(3) -0.56396(15)
H19 H -0.6853 -0.6740 -0.5787
C22 C -0.5344(5) -0.6328(3) -0.56487(13)
C23 C -0.4557(5) -0.6686(3) -0.58934(13)
H20 H -0.4929 -0.6732 -0.6118
H21 H -0.4402 -0.7119 -0.5803
C24 C -0.3435(4) -0.6319(3) -0.59348(12)
H22 H -0.2883 -0.6589 -0.6059
H23 H -0.3568 -0.5930 -0.6072
C25 C -0.2945(4) -0.6133(2) -0.55899(12)
C26 C -0.1769(4) -0.5771(2) -0.55899(12)
H24 H -0.1338 -0.5885 -0.5801
C27 C -0.1178(5) -0.6052(3) -0.52806(13)
C28 C -0.0226(5) -0.5860(3) -0.50926(16)
H25 H 0.0161 -0.5477 -0.5149
C29 C 0.0151(6) -0.6243(4) -0.48194(18)
H26 H 0.0789 -0.6117 -0.4689
C30 C -0.0419(8) -0.6809(4) -0.47422(19)
H27 H -0.0142 -0.7069 -0.4562
C31 C -0.1391(7) -0.7009(3) -0.49216(17)
H28 H -0.1783 -0.7390 -0.4865
C32 C -0.1744(5) -0.6610(3) -0.51888(15)
O7 O -0.4252(3) -0.60065(16) -0.39541(8)
O8 O -0.3099(3) -0.68888(17) -0.40868(9)
O9 O -0.2587(3) -0.51675(16) -0.41076(9)
H29 H -0.2539 -0.4959 -0.4289
C33 C -0.5414(4) -0.6189(2) -0.39791(13)
C34 C -0.6100(4) -0.5978(3) -0.37090(13)
H30 H -0.5790 -0.5730 -0.3529
C35 C -0.7259(5) -0.6142(3) -0.37101(16)
H31 H -0.7732 -0.6008 -0.3528
C36 C -0.7718(5) -0.6504(3) -0.39790(18)
H32 H -0.8497 -0.6615 -0.3979
C37 C -0.7017(5) -0.6697(3) -0.42462(15)
H33 H -0.7333 -0.6937 -0.4428
C38 C -0.5845(4) -0.6546(3) -0.42551(13)
C39 C -0.5068(5) -0.6747(3) -0.45475(13)
H34 H -0.5481 -0.6715 -0.4767
H35 H -0.4833 -0.7197 -0.4516
C40 C -0.4006(5) -0.6312(3) -0.45573(12)
H36 H -0.3446 -0.6491 -0.4719
H37 H -0.4224 -0.5883 -0.4640
C41 C -0.3471(4) -0.6253(2) -0.42038(12)
C42 C -0.2370(4) -0.5831(2) -0.41756(12)
H38 H -0.1926 -0.5869 -0.4392
C43 C -0.1734(4) -0.6174(3) -0.38884(13)
C44 C -0.0842(4) -0.5987(3) -0.36753(15)
H39 H -0.0547 -0.5566 -0.3687
C45 C -0.0385(5) -0.6437(4) -0.34419(17)
H40 H 0.0221 -0.6319 -0.3296
C46 C -0.0833(6) -0.7052(4) -0.34297(17)
H41 H -0.0512 -0.7350 -0.3275
C47 C -0.1744(6) -0.7251(3) -0.36374(16)
H42 H -0.2046 -0.7670 -0.3625
C48 C -0.2177(5) -0.6792(3) -0.38634(13)
O10 O -0.4103(3) -0.60167(17) -0.24813(8)
O11 O -0.2868(3) -0.68951(17) -0.25448(9)
O12 O -0.2520(3) -0.51790(16) -0.26640(8)
H43 H -0.2663 -0.5008 -0.2852
C49 C -0.5273(4) -0.6128(2) -0.25304(13)
C50 C -0.5992(5) -0.5774(3) -0.23151(14)
H44 H -0.5687 -0.5485 -0.2153
C51 C -0.7166(5) -0.5857(4) -0.23438(17)
H45 H -0.7661 -0.5615 -0.2204
C52 C -0.7612(5) -0.6296(4) -0.25787(18)
H46 H -0.8407 -0.6356 -0.2594
C53 C -0.6884(5) -0.6644(3) -0.27905(16)
H47 H -0.7193 -0.6941 -0.2948
C54 C -0.5700(5) -0.6561(3) -0.27734(13)
C55 C -0.4875(5) -0.6901(3) -0.30131(13)
H48 H -0.5236 -0.6971 -0.3238
H49 H -0.4664 -0.7321 -0.2917
C56 C -0.3808(4) -0.6484(2) -0.30557(12)
H50 H -0.3237 -0.6719 -0.3191
H51 H -0.4008 -0.6090 -0.3182
C57 C -0.3301(4) -0.6305(2) -0.27082(12)
C58 C -0.2244(4) -0.5842(2) -0.27157(12)
H52 H -0.1833 -0.5893 -0.2937
C59 C -0.1521(4) -0.6107(3) -0.24265(12)
C60 C -0.0605(4) -0.5850(3) -0.22420(15)
H53 H -0.0352 -0.5427 -0.2283
C61 C -0.0070(5) -0.6240(4) -0.19933(15)
H54 H 0.0548 -0.6078 -0.1865
C62 C -0.0451(6) -0.6862(4) -0.19370(17)
H55 H -0.0067 -0.7119 -0.1774
C63 C -0.1380(6) -0.7124(3) -0.21120(15)
H56 H -0.1641 -0.7545 -0.2069
C64 C -0.1902(5) -0.6725(3) -0.23536(13)
O13 O -0.1858(4) -0.31043(18) -0.61080(10)
O14 O -0.0790(3) -0.40437(18) -0.60772(8)
O15 O -0.2547(3) -0.47730(16) -0.62668(8)
H57 H -0.2360 -0.4933 -0.6454
C65 C -0.2868(5) -0.3226(3) -0.59277(15)
C66 C -0.3350(7) -0.2811(3) -0.56845(17)
H58 H -0.3007 -0.2415 -0.5630
C67 C -0.4362(7) -0.3010(4) -0.55266(18)
H59 H -0.4717 -0.2736 -0.5366
C68 C -0.4859(5) -0.3601(4) -0.56013(18)
H60 H -0.5532 -0.3727 -0.5488
C69 C -0.4353(5) -0.4012(3) -0.58474(16)
H61 H -0.4671 -0.4418 -0.5896
C70 C -0.3373(5) -0.3802(3) -0.60172(14)
C71 C -0.2690(4) -0.4099(2) -0.63058(13)
H62 H -0.3084 -0.4013 -0.6527
C72 C -0.1550(5) -0.3697(2) -0.62938(13)
C73 C -0.1045(5) -0.3512(3) -0.66374(13)
H63 H -0.1575 -0.3225 -0.6759
H64 H -0.0942 -0.3899 -0.6778
C74 C 0.0110(5) -0.3172(3) -0.65931(14)
H65 H 0.0460 -0.3097 -0.6819
H66 H -0.0001 -0.2753 -0.6481
C75 C 0.0884(5) -0.3590(3) -0.63758(13)
C76 C 0.2076(6) -0.3592(4) -0.64037(16)
H67 H 0.2427 -0.3318 -0.6565
C77 C 0.2251(5) -0.4399(4) -0.59655(17)
H68 H 0.2709 -0.4671 -0.5829
C78 C 0.2758(6) -0.3987(4) -0.62002(18)
H69 H 0.3558 -0.3974 -0.6222
C79 C 0.1060(5) -0.4414(3) -0.59293(13)
H70 H 0.0714 -0.4694 -0.5770
C80 C 0.0394(4) -0.4007(3) -0.61345(13)
O16 O -0.1587(3) -0.31575(17) -0.47436(9)
O17 O -0.1033(3) -0.41867(18) -0.45751(8)
O18 O -0.2867(3) -0.47359(17) -0.48498(9)
H71 H -0.2804 -0.4954 -0.5028
C81 C -0.2695(5) -0.3102(3) -0.46182(13)
C82 C -0.3109(6) -0.2580(3) -0.44274(14)
H72 H -0.2642 -0.2227 -0.4371
C83 C -0.4256(7) -0.2610(3) -0.43242(15)
H73 H -0.4570 -0.2260 -0.4203
C84 C -0.4941(6) -0.3137(4) -0.43954(16)
H74 H -0.5693 -0.3153 -0.4311
C85 C -0.4508(5) -0.3650(3) -0.45948(15)
H75 H -0.4974 -0.4003 -0.4652
C86 C -0.3385(5) -0.3624(3) -0.47039(12)
C87 C -0.2688(4) -0.4071(2) -0.49296(13)
H76 H -0.2887 -0.3993 -0.5174
C88 C -0.1446(4) -0.3824(2) -0.48603(12)
C89 C -0.0636(4) -0.3825(3) -0.51659(12)
H77 H -0.0929 -0.3532 -0.5344
H78 H -0.0601 -0.4259 -0.5265
C90 C 0.0573(4) -0.3612(3) -0.50604(14)
H79 H 0.1105 -0.3689 -0.5251
H80 H 0.0573 -0.3149 -0.5010
C91 C 0.0963(5) -0.3980(3) -0.47470(14)
C92 C 0.2118(5) -0.4086(4) -0.46707(18)
H81 H 0.2683 -0.3921 -0.4819
C93 C 0.2439(6) -0.4429(4) -0.4382(2)
H82 H 0.3219 -0.4491 -0.4333
C94 C 0.1616(6) -0.4684(4) -0.4161(2)
H83 H 0.1839 -0.4916 -0.3964
C95 C 0.0463(5) -0.4592(3) -0.42337(16)
H84 H -0.0100 -0.4762 -0.4087
C96 C 0.0153(4) -0.4247(3) -0.45255(14)
O19 O -0.1971(3) -0.41282(18) -0.31932(8)
O20 O -0.3270(3) -0.32774(16) -0.32185(8)
O21 O -0.3512(3) -0.49799(16) -0.33967(9)
H85 H -0.3296 -0.5115 -0.3587
C97 C -0.4209(4) -0.3492(2) -0.30284(13)
C98 C -0.4765(5) -0.3138(3) -0.27773(13)
H86 H -0.4533 -0.2718 -0.2721
C99 C -0.5692(5) -0.3433(3) -0.26099(14)
H87 H -0.6095 -0.3203 -0.2440
C100 C -0.6022(4) -0.4056(3) -0.26903(14)
H88 H -0.6629 -0.4248 -0.2569
C101 C -0.5462(4) -0.4402(3) -0.29506(14)
H89 H -0.5683 -0.4826 -0.3005
C102 C -0.4568(4) -0.4102(2) -0.31259(12)
C103 C -0.3831(4) -0.4317(2) -0.34258(12)
H90 H -0.4254 -0.4251 -0.3644
C104 C -0.2815(4) -0.3834(2) -0.34074(12)
C105 C -0.2337(4) -0.3608(3) -0.37506(12)
H91 H -0.2924 -0.3362 -0.3873
H92 H -0.2140 -0.3985 -0.3891
C106 C -0.1272(5) -0.3187(3) -0.37035(14)
H93 H -0.0933 -0.3089 -0.3928
H94 H -0.1481 -0.2780 -0.3592
C107 C -0.0427(5) -0.3547(3) -0.34840(14)
C108 C 0.0771(6) -0.3466(3) -0.35159(17)
H95 H 0.1061 -0.3169 -0.3676
C109 C 0.1527(6) -0.3821(4) -0.3313(2)
H96 H 0.2319 -0.3753 -0.3332
C110 C 0.1113(6) -0.4270(4) -0.30850(19)
H97 H 0.1629 -0.4515 -0.2953
C111 C -0.0054(5) -0.4369(3) -0.30456(15)
H98 H -0.0332 -0.4676 -0.2888
C112 C -0.0812(4) -0.4000(3) -0.32460(13)
loop_
_geom_bond_atom_site_label_1
_geom_bond_atom_site_label_2
_geom_bond_site_symmetry_1
_geom_bond_site_symmetry_2
O1 C1 1_555 1_555
O2 C9 1_555 1_555
O3 H1 1_555 1_555
C1 C2 1_555 1_555
C2 H2 1_555 1_555
C3 C2 1_555 1_555
H3 C3 1_555 1_555
C4 C3 1_555 1_555
H4 C4 1_555 1_555
C5 C4 1_555 1_555
H5 C5 1_555 1_555
C6 C1 1_555 1_555
C7 C6 1_555 1_555
H6 C7 1_555 1_555
H7 C7 1_555 1_555
C8 C7 1_555 1_555
H8 C8 1_555 1_555
H9 C8 1_555 1_555
C9 O1 1_555 1_555
C10 O3 1_555 1_555
H10 C10 1_555 1_555
C11 C10 1_555 1_555
C12 C11 1_555 1_555
H11 C12 1_555 1_555
C13 C12 1_555 1_555
H12 C13 1_555 1_555
C14 C13 1_555 1_555
H13 C14 1_555 1_555
C15 C14 1_555 1_555
H14 C15 1_555 1_555
C16 O2 1_555 1_555
O4 C17 1_555 1_555
O5 C25 1_555 1_555
O6 H15 1_555 1_555
C17 C18 1_555 1_555
C18 H16 1_555 1_555
C19 C18 1_555 1_555
H17 C19 1_555 1_555
C20 C19 1_555 1_555
H18 C20 1_555 1_555
C21 C20 1_555 1_555
H19 C21 1_555 1_555
C22 C17 1_555 1_555
C23 C22 1_555 1_555
H20 C23 1_555 1_555
H21 C23 1_555 1_555
C24 C23 1_555 1_555
H22 C24 1_555 1_555
H23 C24 1_555 1_555
C25 O4 1_555 1_555
C26 O6 1_555 1_555
H24 C26 1_555 1_555
C27 C26 1_555 1_555
C28 C27 1_555 1_555
H25 C28 1_555 1_555
C29 C28 1_555 1_555
H26 C29 1_555 1_555
C30 C29 1_555 1_555
H27 C30 1_555 1_555
C31 C30 1_555 1_555
H28 C31 1_555 1_555
C32 O5 1_555 1_555
O7 C33 1_555 1_555
O8 C41 1_555 1_555
O9 H29 1_555 1_555
C33 C34 1_555 1_555
C34 H30 1_555 1_555
C35 C34 1_555 1_555
H31 C35 1_555 1_555
C36 C35 1_555 1_555
H32 C36 1_555 1_555
C37 C36 1_555 1_555
H33 C37 1_555 1_555
C38 C33 1_555 1_555
C39 C38 1_555 1_555
H34 C39 1_555 1_555
H35 C39 1_555 1_555
C40 C39 1_555 1_555
H36 C40 1_555 1_555
H37 C40 1_555 1_555
C41 O7 1_555 1_555
C42 O9 1_555 1_555
H38 C42 1_555 1_555
C43 C42 1_555 1_555
C44 C43 1_555 1_555
H39 C44 1_555 1_555
C45 C44 1_555 1_555
H40 C45 1_555 1_555
C46 C45 1_555 1_555
H41 C46 1_555 1_555
C47 C46 1_555 1_555
H42 C47 1_555 1_555
C48 O8 1_555 1_555
O10 C49 1_555 1_555
O11 C57 1_555 1_555
O12 H43 1_555 1_555
C49 C50 1_555 1_555
C50 H44 1_555 1_555
C51 C50 1_555 1_555
H45 C51 1_555 1_555
C52 C51 1_555 1_555
H46 C52 1_555 1_555
C53 C52 1_555 1_555
H47 C53 1_555 1_555
C54 C49 1_555 1_555
C55 C54 1_555 1_555
H48 C55 1_555 1_555
H49 C55 1_555 1_555
C56 C55 1_555 1_555
H50 C56 1_555 1_555
H51 C56 1_555 1_555
C57 O10 1_555 1_555
C58 O12 1_555 1_555
H52 C58 1_555 1_555
C59 C58 1_555 1_555
C60 C59 1_555 1_555
H53 C60 1_555 1_555
C61 C60 1_555 1_555
H54 C61 1_555 1_555
C62 C61 1_555 1_555
H55 C62 1_555 1_555
C63 C62 1_555 1_555
H56 C63 1_555 1_555
C64 O11 1_555 1_555
O13 C65 1_555 1_555
O14 C72 1_555 1_555
O15 H57 1_555 1_555
C65 C66 1_555 1_555
C66 H58 1_555 1_555
C67 C66 1_555 1_555
H59 C67 1_555 1_555
C68 C67 1_555 1_555
H60 C68 1_555 1_555
C69 C68 1_555 1_555
H61 C69 1_555 1_555
C70 C65 1_555 1_555
C71 O15 1_555 1_555
H62 C71 1_555 1_555
C72 O13 1_555 1_555
C73 C72 1_555 1_555
H63 C73 1_555 1_555
H64 C73 1_555 1_555
C74 C73 1_555 1_555
H65 C74 1_555 1_555
H66 C74 1_555 1_555
C75 C74 1_555 1_555
C76 C75 1_555 1_555
H67 C76 1_555 1_555
C77 H68 1_555 1_555
C78 C76 1_555 1_555
H69 C78 1_555 1_555
C79 C77 1_555 1_555
H70 C79 1_555 1_555
C80 O14 1_555 1_555
O16 C81 1_555 1_555
O17 C88 1_555 1_555
O18 H71 1_555 1_555
C81 C82 1_555 1_555
C82 H72 1_555 1_555
C83 C82 1_555 1_555
H73 C83 1_555 1_555
C84 C83 1_555 1_555
H74 C84 1_555 1_555
C85 C84 1_555 1_555
H75 C85 1_555 1_555
C86 C81 1_555 1_555
C87 O18 1_555 1_555
H76 C87 1_555 1_555
C88 O16 1_555 1_555
C89 C88 1_555 1_555
H77 C89 1_555 1_555
H78 C89 1_555 1_555
C90 C89 1_555 1_555
H79 C90 1_555 1_555
H80 C90 1_555 1_555
C91 C90 1_555 1_555
C92 C91 1_555 1_555
H81 C92 1_555 1_555
C93 C92 1_555 1_555
H82 C93 1_555 1_555
C94 C93 1_555 1_555
H83 C94 1_555 1_555
C95 C94 1_555 1_555
H84 C95 1_555 1_555
C96 O17 1_555 1_555
O19 C104 1_555 1_555
O20 C97 1_555 1_555
O21 H85 1_555 1_555
C97 C98 1_555 1_555
C98 H86 1_555 1_555
C99 C98 1_555 1_555
H87 C99 1_555 1_555
C100 C99 1_555 1_555
H88 C100 1_555 1_555
C101 C100 1_555 1_555
H89 C101 1_555 1_555
C102 C97 1_555 1_555
C103 O21 1_555 1_555
H90 C103 1_555 1_555
C104 O20 1_555 1_555
C105 C104 1_555 1_555
H91 C105 1_555 1_555
H92 C105 1_555 1_555
C106 C105 1_555 1_555
H93 C106 1_555 1_555
H94 C106 1_555 1_555
C107 C106 1_555 1_555
C108 C107 1_555 1_555
H95 C108 1_555 1_555
C109 C108 1_555 1_555
H96 C109 1_555 1_555
C110 C109 1_555 1_555
H97 C110 1_555 1_555
C111 C110 1_555 1_555
H98 C111 1_555 1_555
C112 O19 1_555 1_555
C5 C6 1_555 1_555
C8 C9 1_555 1_555
C9 C10 1_555 1_555
C11 C16 1_555 1_555
C15 C16 1_555 1_555
C21 C22 1_555 1_555
C24 C25 1_555 1_555
C25 C26 1_555 1_555
C27 C32 1_555 1_555
C31 C32 1_555 1_555
C37 C38 1_555 1_555
C40 C41 1_555 1_555
C41 C42 1_555 1_555
C43 C48 1_555 1_555
C47 C48 1_555 1_555
C53 C54 1_555 1_555
C56 C57 1_555 1_555
C57 C58 1_555 1_555
C59 C64 1_555 1_555
C63 C64 1_555 1_555
C69 C70 1_555 1_555
C70 C71 1_555 1_555
C71 C72 1_555 1_555
C75 C80 1_555 1_555
C77 C78 1_555 1_555
C79 C80 1_555 1_555
C85 C86 1_555 1_555
C86 C87 1_555 1_555
C87 C88 1_555 1_555
C91 C96 1_555 1_555
C95 C96 1_555 1_555
C101 C102 1_555 1_555
C102 C103 1_555 1_555
C103 C104 1_555 1_555
C107 C112 1_555 1_555
C111 C112 1_555 1_555

#END
