
#######################################################################
#
#                 Cambridge Crystallographic Data Centre
#                                CCDC 
#
#######################################################################
#
# If this CIF has been generated from an entry in the Cambridge 
# Structural Database, then it will include bibliographic, chemical, 
# crystal, experimental, refinement or atomic coordinate data resulting 
# from the CCDC's data processing and validation procedures.
#
#######################################################################

data_IGUZAN
_chemical_formula_moiety         'C11 H11 Br1 O3'
_chemical_name_systematic        
5-bromo-2-(2-methoxyethylidene)-2,3-dihydro-1-benzofuran-3-ol
_symmetry_cell_setting           monoclinic
_symmetry_space_group_name_H-M   'P 21/n'
_symmetry_Int_Tables_number      14
_space_group_name_Hall           '-P 2yn'
loop_
_symmetry_equiv_pos_site_id
_symmetry_equiv_pos_as_xyz
1 x,y,z
2 1/2-x,1/2+y,1/2-z
3 -x,-y,-z
4 1/2+x,1/2-y,1/2+z
_cell_length_a                   11.7748(8)
_cell_length_b                   5.8863(3)
_cell_length_c                   17.0638(10)
_cell_angle_alpha                90
_cell_angle_beta                 110.044(7)
_cell_angle_gamma                90
_cell_volume                     1111.06
_exptl_crystal_colour            'light colorless'
_exptl_crystal_description       needle
_cell_formula_units_Z            4
loop_
_atom_site_label
_atom_site_type_symbol
_atom_site_fract_x
_atom_site_fract_y
_atom_site_fract_z
Br1 Br -0.93278(4) -0.75900(6) -0.06790(2)
O1 O -1.09115(16) -1.5625(3) -0.29332(13)
O2 O -0.85112(18) -1.3176(4) -0.33381(15)
H1 H -0.9085 -1.2487 -0.3664
O3 O -1.07507(19) -2.1220(4) -0.43134(13)
C1 C -1.0632(2) -1.3769(5) -0.24064(18)
C2 C -1.1409(3) -1.2828(5) -0.2055(2)
H2 H -1.2183 -1.3405 -0.2162
C3 C -1.0992(3) -1.0988(5) -0.15350(19)
H3 H -1.1485 -1.0314 -0.1277
C4 C -0.9849(3) -1.0144(5) -0.13962(17)
C5 C -0.9076(3) -1.1086(5) -0.17602(18)
H4 H -0.8310 -1.0486 -0.1666
C6 C -0.9483(2) -1.2948(4) -0.22685(17)
C7 C -0.8904(2) -1.4392(5) -0.27553(19)
H5 H -0.8217 -1.5212 -0.2366
C8 C -0.9913(2) -1.6063(5) -0.31725(19)
C9 C -0.9957(3) -1.7669(5) -0.3717(2)
H6 H -0.9257 -1.7983 -0.3833
C10 C -1.1063(3) -1.9017(6) -0.4159(3)
H7 H -1.1578 -1.9080 -0.3821
H8 H -1.1511 -1.8284 -0.4683
C11 C -1.1782(4) -2.2518(6) -0.4759(3)
H9 H -1.2288 -2.2698 -0.4425
H10 H -1.1533 -2.3986 -0.4884
H11 H -1.2226 -2.1753 -0.5268
loop_
_geom_bond_atom_site_label_1
_geom_bond_atom_site_label_2
_geom_bond_site_symmetry_1
_geom_bond_site_symmetry_2
Br1 C4 1_555 1_555
O1 C1 1_555 1_555
O2 H1 1_555 1_555
O3 C10 1_555 1_555
C1 C2 1_555 1_555
C2 H2 1_555 1_555
C3 C2 1_555 1_555
H3 C3 1_555 1_555
C4 C3 1_555 1_555
C5 C4 1_555 1_555
H4 C5 1_555 1_555
C6 C1 1_555 1_555
C7 O2 1_555 1_555
H5 C7 1_555 1_555
C8 O1 1_555 1_555
C9 C8 1_555 1_555
H6 C9 1_555 1_555
C10 C9 1_555 1_555
H7 C10 1_555 1_555
H8 C10 1_555 1_555
C11 O3 1_555 1_555
H9 C11 1_555 1_555
H10 C11 1_555 1_555
H11 C11 1_555 1_555
C5 C6 1_555 1_555
C6 C7 1_555 1_555
C7 C8 1_555 1_555

#END
