
#######################################################################
#
#                 Cambridge Crystallographic Data Centre
#                                CCDC 
#
#######################################################################
#
# If this CIF has been generated from an entry in the Cambridge 
# Structural Database, then it will include bibliographic, chemical, 
# crystal, experimental, refinement or atomic coordinate data resulting 
# from the CCDC's data processing and validation procedures.
#
#######################################################################

data_IHABEA
_chemical_formula_moiety         'C33 H30 O10,4(C2 H3 N1)'
_chemical_name_systematic        
'5,6,9-trihydroxy-14-(3-hydroxy-2,4-dimethoxyphenyl)-18-(4-hydroxy-2-methoxybenzyl)-16-oxapentacyclo[7.7.1.1^2,15^.0^1,12^.0^3,8^]octadeca-3,5,7,11,13-pentaen-10-one acetonitrile solvate'
_symmetry_cell_setting           triclinic
_symmetry_space_group_name_H-M   'P -1'
_symmetry_Int_Tables_number      2
_space_group_name_Hall           '-P 1'
loop_
_symmetry_equiv_pos_site_id
_symmetry_equiv_pos_as_xyz
1 x,y,z
2 -x,-y,-z
_cell_length_a                   9.8048(5)
_cell_length_b                   12.7143(6)
_cell_length_c                   16.7032(8)
_cell_angle_alpha                106.8877(16)
_cell_angle_beta                 104.7533(15)
_cell_angle_gamma                95.3189(16)
_cell_volume                     1895.24
_exptl_crystal_colour            yellow
_exptl_crystal_description       block
_cell_formula_units_Z            2
loop_
_atom_site_label
_atom_site_type_symbol
_atom_site_fract_x
_atom_site_fract_y
_atom_site_fract_z
C1 C 0.42066(14) 0.77064(11) 0.50710(9)
H1 H 0.4751 0.8010 0.4731
C2 C 0.40304(14) 0.64459(12) 0.47979(9)
C3 C 0.36710(14) 0.59941(12) 0.53725(9)
H2 H 0.3583 0.5210 0.5260
C4 C 0.34195(14) 0.66952(12) 0.61578(9)
C5 C 0.28640(15) 0.62592(12) 0.66812(9)
H3 H 0.2640 0.5470 0.6530
C6 C 0.25975(14) 0.69606(12) 0.74695(9)
C7 C 0.27961(14) 0.82185(12) 0.75955(9)
C8 C 0.41499(14) 0.85409(12) 0.73529(9)
H4 H 0.4381 0.9361 0.7494
H5 H 0.4978 0.8290 0.7678
C9 C 0.38081(14) 0.79583(12) 0.63769(9)
C10 C 0.13980(14) 0.83551(11) 0.69865(9)
C11 C 0.01638(14) 0.83669(11) 0.72627(9)
H6 H 0.0217 0.8346 0.7834
C12 C -0.11346(14) 0.84085(11) 0.67089(9)
C13 C -0.12339(14) 0.84034(11) 0.58578(9)
C14 C -0.00150(14) 0.83878(11) 0.55792(9)
H7 H -0.0079 0.8387 0.5002
C15 C 0.13019(14) 0.83726(11) 0.61401(9)
C16 C 0.26592(14) 0.84797(11) 0.58922(9)
H8 H 0.3050 0.9299 0.6102
C17 C 0.26871(14) 0.80449(11) 0.49402(9)
H9 H 0.1932 0.7362 0.4612
C18 C 0.41262(14) 0.58299(12) 0.39254(9)
C19 C 0.34301(14) 0.47109(12) 0.34574(9)
C20 C 0.35686(15) 0.41463(12) 0.26435(9)
C21 C 0.43735(15) 0.46971(12) 0.22501(9)
C22 C 0.50374(15) 0.57987(12) 0.26873(10)
H10 H 0.5576 0.6181 0.2425
C23 C 0.49174(15) 0.63450(12) 0.35099(9)
H11 H 0.5392 0.7099 0.3802
C24 C 0.11769(15) 0.43543(13) 0.36726(11)
H12 H 0.0664 0.4118 0.3046
H13 H 0.1231 0.5160 0.3932
H14 H 0.0664 0.3953 0.3960
C25 C 0.5169(2) 0.46242(15) 0.10058(11)
H15 H 0.5070 0.4114 0.0419
H16 H 0.6187 0.4851 0.1342
H17 H 0.4763 0.5287 0.0956
C26 C 0.24903(15) 0.89021(12) 0.44537(9)
H18 H 0.1569 0.9158 0.4463
H19 H 0.3271 0.9559 0.4762
C27 C 0.24999(15) 0.84230(12) 0.35163(9)
C28 C 0.14100(15) 0.75423(12) 0.29087(10)
C29 C 0.14555(16) 0.70428(13) 0.20623(10)
H20 H 0.0713 0.6449 0.1663
C30 C 0.25943(17) 0.74156(13) 0.18003(10)
C31 C 0.36684(16) 0.82906(13) 0.23752(10)
H21 H 0.4440 0.8552 0.2194
C32 C 0.36029(16) 0.87824(13) 0.32236(10)
H22 H 0.4340 0.9385 0.3615
C33 C -0.07474(17) 0.62740(14) 0.26562(11)
H23 H -0.1254 0.6409 0.2119
H24 H -0.1435 0.6123 0.2962
H25 H -0.0274 0.5629 0.2507
O1 O 0.49361(10) 0.81706(8) 0.60093(6)
O2 O 0.21894(11) 0.66039(9) 0.79901(7)
O3 O 0.29978(11) 0.88484(9) 0.84834(6)
H26 H 0.252(2) 0.8440(16) 0.8659(12)
O4 O -0.23161(10) 0.84385(8) 0.70053(7)
H27 H -0.306(2) 0.8359(15) 0.6582(12)
O5 O -0.25540(10) 0.84117(9) 0.53453(7)
H28 H -0.247(2) 0.8471(16) 0.4862(13)
O6 O 0.26048(10) 0.41070(8) 0.37902(6)
O7 O 0.29374(12) 0.30595(9) 0.21936(7)
H29 H 0.268(2) 0.2730(16) 0.2551(13)
O8 O 0.44190(12) 0.40697(9) 0.14452(7)
O9 O 0.03072(11) 0.72410(9) 0.32129(7)
O10 O 0.25665(14) 0.68816(11) 0.09536(7)
H30 H 0.325(2) 0.7254(19) 0.0820(14)
C34 C 0.21583(16) 0.13301(12) 0.68835(10)
C35 C 0.1742(2) 0.11843(15) 0.76267(12)
H31 H 0.0719 0.0863 0.7438
H32 H 0.1925 0.1911 0.8085
H33 H 0.2303 0.0681 0.7857
N1 N 0.24812(14) 0.14348(11) 0.63001(9)
C36 C 0.45699(19) 0.16132(15) -0.01636(11)
C37 C 0.36547(19) 0.12236(15) 0.02865(11)
H34 H 0.2746 0.0794 -0.0140
H35 H 0.3467 0.1866 0.0710
H36 H 0.4131 0.0747 0.0594
N2 N 0.52888(19) 0.19244(16) -0.05143(11)
C38 C 0.90368(19) 0.09872(14) -0.02991(11)
C39 C 0.9158(3) 0.05753(18) -0.11810(12)
H37 H 0.8283 0.0049 -0.1566
H38 H 0.9984 0.0195 -0.1174
H39 H 0.9289 0.1204 -0.1398
N3 N 0.8957(2) 0.13062(14) 0.03950(11)
C40 C 0.1341(3) 0.35317(19) 0.00446(15)
C41 C 0.0741(3) 0.39780(18) 0.07486(14)
H40 H -0.0239 0.4082 0.0506
H41 H 0.1329 0.4699 0.1138
H42 H 0.0725 0.3457 0.1080
N4 N 0.1790(3) 0.3183(2) -0.05172(14)
loop_
_geom_bond_atom_site_label_1
_geom_bond_atom_site_label_2
_geom_bond_site_symmetry_1
_geom_bond_site_symmetry_2
C1 H1 1_555 1_555
C2 C1 1_555 1_555
C3 C2 1_555 1_555
H2 C3 1_555 1_555
C4 C3 1_555 1_555
C5 C4 1_555 1_555
H3 C5 1_555 1_555
C6 C5 1_555 1_555
C7 C6 1_555 1_555
C8 C7 1_555 1_555
H4 C8 1_555 1_555
H5 C8 1_555 1_555
C9 C4 1_555 1_555
C10 C7 1_555 1_555
C11 C10 1_555 1_555
H6 C11 1_555 1_555
C12 C11 1_555 1_555
C13 C12 1_555 1_555
C14 C13 1_555 1_555
H7 C14 1_555 1_555
C15 C10 1_555 1_555
C16 C9 1_555 1_555
H8 C16 1_555 1_555
C17 C1 1_555 1_555
H9 C17 1_555 1_555
C18 C2 1_555 1_555
C19 C18 1_555 1_555
C20 C19 1_555 1_555
C21 C20 1_555 1_555
C22 C21 1_555 1_555
H10 C22 1_555 1_555
C23 C18 1_555 1_555
H11 C23 1_555 1_555
C24 H12 1_555 1_555
H13 C24 1_555 1_555
H14 C24 1_555 1_555
C25 H15 1_555 1_555
H16 C25 1_555 1_555
H17 C25 1_555 1_555
C26 C17 1_555 1_555
H18 C26 1_555 1_555
H19 C26 1_555 1_555
C27 C26 1_555 1_555
C28 C27 1_555 1_555
C29 C28 1_555 1_555
H20 C29 1_555 1_555
C30 C29 1_555 1_555
C31 C30 1_555 1_555
H21 C31 1_555 1_555
C32 C27 1_555 1_555
H22 C32 1_555 1_555
C33 H23 1_555 1_555
H24 C33 1_555 1_555
H25 C33 1_555 1_555
O1 C1 1_555 1_555
O2 C6 1_555 1_555
O3 C7 1_555 1_555
H26 O3 1_555 1_555
O4 C12 1_555 1_555
H27 O4 1_555 1_555
O5 C13 1_555 1_555
H28 O5 1_555 1_555
O6 C19 1_555 1_555
O7 C20 1_555 1_555
H29 O7 1_555 1_555
O8 C21 1_555 1_555
O9 C28 1_555 1_555
O10 C30 1_555 1_555
H30 O10 1_555 1_555
C34 C35 1_555 1_555
C35 H31 1_555 1_555
H32 C35 1_555 1_555
H33 C35 1_555 1_555
N1 C34 1_555 1_555
C36 C37 1_555 1_555
C37 H34 1_555 1_555
H35 C37 1_555 1_555
H36 C37 1_555 1_555
N2 C36 1_555 1_555
C38 C39 1_555 1_555
C39 H37 1_555 1_555
H38 C39 1_555 1_555
H39 C39 1_555 1_555
N3 C38 1_555 1_555
C40 C41 1_555 1_555
C41 H40 1_555 1_555
H41 C41 1_555 1_555
H42 C41 1_555 1_555
N4 C40 1_555 1_555
C8 C9 1_555 1_555
C9 O1 1_555 1_555
C14 C15 1_555 1_555
C15 C16 1_555 1_555
C16 C17 1_555 1_555
C22 C23 1_555 1_555
C24 O6 1_555 1_555
C25 O8 1_555 1_555
C31 C32 1_555 1_555
C33 O9 1_555 1_555

#END
