
#######################################################################
#
#                 Cambridge Crystallographic Data Centre
#                                CCDC 
#
#######################################################################
#
# If this CIF has been generated from an entry in the Cambridge 
# Structural Database, then it will include bibliographic, chemical, 
# crystal, experimental, refinement or atomic coordinate data resulting 
# from the CCDC's data processing and validation procedures.
#
#######################################################################

data_IHAGAA
_chemical_formula_moiety         'C19 H19 N3 O4'
_chemical_name_systematic        
'Ethyl methyl (1H-benzotriazol-1-yl(phenyl)methyl)malonate'
_symmetry_cell_setting           triclinic
_symmetry_space_group_name_H-M   'P -1'
_symmetry_Int_Tables_number      2
_space_group_name_Hall           '-P 1'
loop_
_symmetry_equiv_pos_site_id
_symmetry_equiv_pos_as_xyz
1 x,y,z
2 -x,-y,-z
_cell_length_a                   9.835(6)
_cell_length_b                   10.548(6)
_cell_length_c                   10.569(6)
_cell_angle_alpha                116.706(7)
_cell_angle_beta                 96.249(7)
_cell_angle_gamma                98.382(7)
_cell_volume                     949.954
_exptl_crystal_colour            colorless
_exptl_crystal_description       prism
_cell_formula_units_Z            2
loop_
_atom_site_label
_atom_site_type_symbol
_atom_site_fract_x
_atom_site_fract_y
_atom_site_fract_z
O1 O 0.3731(3) 0.6517(4) 1.0213(4)
O2 O 0.4352(5) 0.5396(5) 0.6903(5)
O3 O 0.4219(5) 0.7503(5) 0.6983(5)
O4 O 0.3285(8) 0.8471(8) 1.0041(9)
C1 C 0.1814(13) 0.8454(9) 1.0823(9)
H1 H 0.1266 0.7477 1.0392
H2 H 0.1259 0.9066 1.0666
H3 H 0.2108 0.8809 1.1842
N1 N 0.8607(5) 0.7694(5) 0.7373(6)
N2 N 0.7598(5) 0.7883(5) 0.8084(6)
N3 N 0.7434(4) 0.6917(4) 0.8588(4)
C2 C 0.9141(4) 0.6587(5) 0.7444(5)
C3 C 1.0256(5) 0.5980(6) 0.6891(6)
H4 H 1.0776 0.6316 0.6375
C4 C 1.0547(5) 0.4891(6) 0.7134(6)
H5 H 1.1287 0.4474 0.6787
C5 C 0.9769(5) 0.4380(6) 0.7888(6)
H6 H 0.9992 0.3614 0.8018
C6 C 0.8684(5) 0.4961(5) 0.8450(5)
H7 H 0.8174 0.4623 0.8970
C7 C 0.8388(4) 0.6077(5) 0.8202(5)
C8 C 0.6426(4) 0.6971(5) 0.9509(5)
H8 H 0.6046 0.5969 0.9298
C9 C 0.7089(5) 0.7798(5) 1.1060(6)
C10 C 0.6891(6) 0.7226(6) 1.2001(7)
H9 H 0.6372 0.6281 1.1633
C11 C 0.7429(7) 0.8001(8) 1.3432(8)
H10 H 0.7225 0.7611 1.4041
C12 C 0.8278(7) 0.9363(10) 1.3993(9)
H11 H 0.8656 0.9906 1.4976
C13 C 0.8557(8) 0.9913(9) 1.3031(10)
H12 H 0.9159 1.0815 1.3376
C14 C 0.7970(7) 0.9157(7) 1.1639(8)
H13 H 0.8157 0.9553 1.1032
C15 C 0.5215(5) 0.7562(5) 0.9126(6)
H14 H 0.5565 0.8573 0.9349
C16 C 0.4552(5) 0.6672(6) 0.7529(6)
C17 C 0.3669(8) 0.6776(11) 0.5409(8)
H15 H 0.4024 0.5902 0.4937
H16 H 0.2653 0.6501 0.5217
C18 C 0.4099(11) 0.7752(11) 0.4856(10)
H17 H 0.3890 0.8678 0.5439
H18 H 0.3607 0.7360 0.3878
H19 H 0.5090 0.7872 0.4879
C19 C 0.4096(5) 0.7512(5) 0.9993(6)
C20? C 0.2771(9) 0.9054(8) 1.1975(12)
H20? H 0.1822 0.8703 1.1443
H21? H 0.2910 1.0062 1.2666
H22? H 0.2948 0.8505 1.2469
O5? O 0.3891(7) 0.8863(7) 1.0816(8)
loop_
_geom_bond_atom_site_label_1
_geom_bond_atom_site_label_2
_geom_bond_site_symmetry_1
_geom_bond_site_symmetry_2
O1 C19 1_555 1_555
O2 C16 1_555 1_555
O3 C16 1_555 1_555
O4 C1 1_555 1_555
C1 H1 1_555 1_555
H2 C1 1_555 1_555
H3 C1 1_555 1_555
N1 N2 1_555 1_555
N2 N3 1_555 1_555
N3 C7 1_555 1_555
C2 N1 1_555 1_555
C3 C2 1_555 1_555
H4 C3 1_555 1_555
C4 C3 1_555 1_555
H5 C4 1_555 1_555
C5 C4 1_555 1_555
H6 C5 1_555 1_555
C6 C5 1_555 1_555
H7 C6 1_555 1_555
C7 C2 1_555 1_555
C8 N3 1_555 1_555
H8 C8 1_555 1_555
C9 C8 1_555 1_555
C10 C9 1_555 1_555
H9 C10 1_555 1_555
C11 C10 1_555 1_555
H10 C11 1_555 1_555
C12 C11 1_555 1_555
H11 C12 1_555 1_555
C13 C12 1_555 1_555
H12 C13 1_555 1_555
C14 C9 1_555 1_555
H13 C14 1_555 1_555
C15 C8 1_555 1_555
H14 C15 1_555 1_555
C16 C15 1_555 1_555
C17 O3 1_555 1_555
H15 C17 1_555 1_555
H16 C17 1_555 1_555
C18 C17 1_555 1_555
H17 C18 1_555 1_555
H18 C18 1_555 1_555
H19 C18 1_555 1_555
C19 O4 1_555 1_555
C6 C7 1_555 1_555
C13 C14 1_555 1_555
C15 C19 1_555 1_555

#END
