
#######################################################################
#
#                 Cambridge Crystallographic Data Centre
#                                CCDC 
#
#######################################################################
#
# If this CIF has been generated from an entry in the Cambridge 
# Structural Database, then it will include bibliographic, chemical, 
# crystal, experimental, refinement or atomic coordinate data resulting 
# from the CCDC's data processing and validation procedures.
#
#######################################################################

data_IHALAG
_chemical_formula_moiety         'C54 H72 N4 O4 Si2'
_chemical_name_systematic        
2,4-bis(1,3-bis(2,6-diisopropylphenyl)-1H-imidazol-3-ium-2-yl)-1,3,2,4-dioxadisiletane-2,4-diolate
_symmetry_cell_setting           monoclinic
_symmetry_space_group_name_H-M   'P 21/n'
_symmetry_Int_Tables_number      14
_space_group_name_Hall           '-P 2yn'
loop_
_symmetry_equiv_pos_site_id
_symmetry_equiv_pos_as_xyz
1 x,y,z
2 1/2-x,1/2+y,1/2-z
3 -x,-y,-z
4 1/2+x,1/2-y,1/2+z
_cell_length_a                   12.5012(14)
_cell_length_b                   14.7851(16)
_cell_length_c                   14.6395(16)
_cell_angle_alpha                90
_cell_angle_beta                 107.1488(17)
_cell_angle_gamma                90
_cell_volume                     2585.54
_exptl_crystal_colour            yellow
_exptl_crystal_description       plate
_cell_formula_units_Z            2
loop_
_atom_site_label
_atom_site_type_symbol
_atom_site_fract_x
_atom_site_fract_y
_atom_site_fract_z
Si1 Si 0.98230(6) 0.07404(5) 0.98811(5)
O1 O 0.91682(16) 0.14183(12) 0.91290(13)
O2 O 1.0797(2) 0.0087(2) 0.9683(2)
N1 N 1.01544(15) 0.15683(13) 1.17749(13)
N2 N 1.16460(15) 0.16955(12) 1.13462(13)
C1 C 1.05827(18) 0.13777(15) 1.10506(16)
C2 C 1.0936(2) 0.20089(17) 1.25006(18)
H1 H 1.0834 0.2213 1.3070
C3 C 1.1870(2) 0.20907(17) 1.22361(17)
H2 H 1.2538 0.2361 1.2584
C4 C 1.23904(19) 0.17461(17) 1.07463(17)
C5 C 1.2347(2) 0.25306(18) 1.0215(2)
C6 C 1.3075(3) 0.2584(2) 0.9651(2)
H3 H 1.3072 0.3095 0.9280
C7 C 1.3795(3) 0.1883(2) 0.9642(3)
H4 H 1.4283 0.1929 0.9273
C8 C 1.3802(2) 0.1114(2) 1.0173(2)
H5 H 1.4289 0.0646 1.0147
C9 C 1.31028(19) 0.10197(17) 1.07431(18)
C10 C 1.3122(2) 0.01827(17) 1.13389(19)
H6 H 1.2360 0.0089 1.1376
C11 C 1.3460(3) -0.0669(2) 1.0911(2)
H7 H 1.2976 -0.0750 1.0272
H8 H 1.3397 -0.1182 1.1293
H9 H 1.4220 -0.0612 1.0897
C12 C 1.3879(3) 0.0319(2) 1.2355(2)
H10 H 1.3655 0.0855 1.2620
H11 H 1.4640 0.0382 1.2347
H12 H 1.3818 -0.0194 1.2738
C13 C 1.1557(2) 0.33069(19) 1.0220(2)
H13 H 1.1128 0.3140 1.0657
C14 C 1.0724(3) 0.3448(3) 0.9241(3)
H14 H 1.0338 0.2891 0.9023
H15 H 1.1114 0.3639 0.8799
H16 H 1.0193 0.3904 0.9281
C15 C 1.2180(3) 0.4178(2) 1.0597(3)
H17 H 1.2691 0.4072 1.1221
H18 H 1.1653 0.4637 1.0638
H19 H 1.2589 0.4374 1.0172
C16 C 0.89874(19) 0.14530(17) 1.17457(16)
C17 C 0.8242(2) 0.21397(18) 1.13174(17)
C18 C 0.7148(2) 0.2044(2) 1.1351(2)
H20 H 0.6624 0.2488 1.1079
C19 C 0.6826(2) 0.1316(2) 1.1773(2)
H21 H 0.6092 0.1274 1.1793
C20 C 0.7570(3) 0.0646(2) 1.2167(2)
H22 H 0.7328 0.0147 1.2439
C21 C 0.8687(2) 0.06925(19) 1.21694(19)
C22 C 0.9506(3) -0.0036(2) 1.2648(2)
H23 H 1.0194 0.0057 1.2468
C23 C 0.9074(3) -0.0991(2) 1.2329(3)
H24 H 0.8907 -0.1039 1.1648
H25 H 0.8408 -0.1104 1.2510
H26 H 0.9637 -0.1427 1.2631
C24 C 0.9799(3) 0.0057(3) 1.3734(3)
H27 H 1.0076 0.0656 1.3920
H28 H 1.0363 -0.0378 1.4034
H29 H 0.9142 -0.0047 1.3930
C25 C 0.8575(2) 0.29581(18) 1.0850(2)
H30 H 0.9320 0.2838 1.0786
C26 C 0.8673(3) 0.3787(2) 1.1475(3)
H31 H 0.9174 0.3663 1.2098
H32 H 0.7949 0.3942 1.1529
H33 H 0.8959 0.4283 1.1193
C27 C 0.7804(3) 0.3140(2) 0.9860(2)
H34 H 0.7760 0.2610 0.9471
H35 H 0.8091 0.3636 0.9580
H36 H 0.7072 0.3288 0.9899
Si1B Si 1.01770(6) -0.07404(5) 1.01189(5)
O1B O 1.08318(16) -0.14183(12) 1.08710(13)
O2B O 0.9203(2) -0.0087(2) 1.0317(2)
N1B N 0.98456(15) -0.15683(13) 0.82251(13)
N2B N 0.83540(15) -0.16955(12) 0.86538(13)
C1B C 0.94173(18) -0.13777(15) 0.89494(16)
C2B C 0.9064(2) -0.20089(17) 0.74994(18)
H1B H 0.9166 -0.2213 0.6930
C3B C 0.8130(2) -0.20907(17) 0.77639(17)
H2B H 0.7462 -0.2361 0.7416
C4B C 0.76096(19) -0.17461(17) 0.92537(17)
C5B C 0.7653(2) -0.25306(18) 0.9785(2)
C6B C 0.6925(3) -0.2584(2) 1.0349(2)
H3B H 0.6928 -0.3095 1.0720
C7B C 0.6205(3) -0.1883(2) 1.0358(3)
H4B H 0.5717 -0.1929 1.0727
C8B C 0.6198(2) -0.1114(2) 0.9827(2)
H5B H 0.5711 -0.0646 0.9853
C9B C 0.68972(19) -0.10197(17) 0.92569(18)
C10B C 0.6878(2) -0.01827(17) 0.86611(19)
H6B H 0.7640 -0.0089 0.8624
C11B C 0.6540(3) 0.0669(2) 0.9089(2)
H7B H 0.7024 0.0750 0.9728
H8B H 0.6603 0.1182 0.8707
H9B H 0.5780 0.0612 0.9103
C12B C 0.6121(3) -0.0319(2) 0.7645(2)
H10B H 0.6345 -0.0855 0.7380
H11B H 0.5360 -0.0382 0.7653
H12B H 0.6182 0.0194 0.7262
C13B C 0.8443(2) -0.33069(19) 0.9780(2)
H13B H 0.8872 -0.3140 0.9343
C14B C 0.9276(3) -0.3448(3) 1.0759(3)
H14B H 0.9662 -0.2891 1.0977
H15B H 0.8886 -0.3639 1.1201
H16B H 0.9807 -0.3904 1.0719
C15B C 0.7820(3) -0.4178(2) 0.9403(3)
H17B H 0.7309 -0.4072 0.8779
H18B H 0.8347 -0.4637 0.9362
H19B H 0.7411 -0.4374 0.9828
C16B C 1.10126(19) -0.14530(17) 0.82543(16)
C17B C 1.1758(2) -0.21397(18) 0.86826(17)
C18B C 1.2852(2) -0.2044(2) 0.8649(2)
H20B H 1.3376 -0.2488 0.8921
C19B C 1.3174(2) -0.1316(2) 0.8227(2)
H21B H 1.3908 -0.1274 0.8207
C20B C 1.2430(3) -0.0646(2) 0.7833(2)
H22B H 1.2672 -0.0147 0.7561
C21B C 1.1313(2) -0.06925(19) 0.78306(19)
C22B C 1.0494(3) 0.0036(2) 0.7352(2)
H23B H 0.9806 -0.0057 0.7532
C23B C 1.0926(3) 0.0991(2) 0.7671(3)
H24B H 1.1093 0.1039 0.8352
H25B H 1.1592 0.1104 0.7490
H26B H 1.0363 0.1427 0.7369
C24B C 1.0201(3) -0.0057(3) 0.6266(3)
H27B H 0.9924 -0.0656 0.6080
H28B H 0.9637 0.0378 0.5966
H29B H 1.0858 0.0047 0.6070
C25B C 1.1425(2) -0.29581(18) 0.9150(2)
H30B H 1.0680 -0.2838 0.9214
C26B C 1.1327(3) -0.3787(2) 0.8525(3)
H31B H 1.0826 -0.3663 0.7902
H32B H 1.2051 -0.3942 0.8471
H33B H 1.1041 -0.4283 0.8807
C27B C 1.2196(3) -0.3140(2) 1.0140(2)
H34B H 1.2240 -0.2610 1.0529
H35B H 1.1909 -0.3636 1.0420
H36B H 1.2928 -0.3288 1.0101
loop_
_geom_bond_atom_site_label_1
_geom_bond_atom_site_label_2
_geom_bond_site_symmetry_1
_geom_bond_site_symmetry_2
Si1 O1 1_555 1_555
O2 Si1 1_555 1_555
N1 C1 1_555 1_555
N2 C1 1_555 1_555
C1 Si1 1_555 1_555
C2 N1 1_555 1_555
H1 C2 1_555 1_555
C3 N2 1_555 1_555
H2 C3 1_555 1_555
C4 N2 1_555 1_555
C5 C4 1_555 1_555
C6 C5 1_555 1_555
H3 C6 1_555 1_555
C7 C6 1_555 1_555
H4 C7 1_555 1_555
C8 C7 1_555 1_555
H5 C8 1_555 1_555
C9 C4 1_555 1_555
C10 C9 1_555 1_555
H6 C10 1_555 1_555
C11 C10 1_555 1_555
H7 C11 1_555 1_555
H8 C11 1_555 1_555
H9 C11 1_555 1_555
C12 C10 1_555 1_555
H10 C12 1_555 1_555
H11 C12 1_555 1_555
H12 C12 1_555 1_555
C13 C5 1_555 1_555
H13 C13 1_555 1_555
C14 C13 1_555 1_555
H14 C14 1_555 1_555
H15 C14 1_555 1_555
H16 C14 1_555 1_555
C15 C13 1_555 1_555
H17 C15 1_555 1_555
H18 C15 1_555 1_555
H19 C15 1_555 1_555
C16 N1 1_555 1_555
C17 C16 1_555 1_555
C18 C17 1_555 1_555
H20 C18 1_555 1_555
C19 C18 1_555 1_555
H21 C19 1_555 1_555
C20 C19 1_555 1_555
H22 C20 1_555 1_555
C21 C16 1_555 1_555
C22 C21 1_555 1_555
H23 C22 1_555 1_555
C23 C22 1_555 1_555
H24 C23 1_555 1_555
H25 C23 1_555 1_555
H26 C23 1_555 1_555
C24 C22 1_555 1_555
H27 C24 1_555 1_555
H28 C24 1_555 1_555
H29 C24 1_555 1_555
C25 C17 1_555 1_555
H30 C25 1_555 1_555
C26 C25 1_555 1_555
H31 C26 1_555 1_555
H32 C26 1_555 1_555
H33 C26 1_555 1_555
C27 C25 1_555 1_555
H34 C27 1_555 1_555
H35 C27 1_555 1_555
H36 C27 1_555 1_555
Si1B O2 1_555 1_555
O1B Si1B 1_555 1_555
O2B Si1 1_555 1_555
N1B C1B 1_555 1_555
N2B C1B 1_555 1_555
C1B Si1B 1_555 1_555
C2B N1B 1_555 1_555
H1B C2B 1_555 1_555
C3B N2B 1_555 1_555
H2B C3B 1_555 1_555
C4B N2B 1_555 1_555
C5B C4B 1_555 1_555
C6B C5B 1_555 1_555
H3B C6B 1_555 1_555
C7B C6B 1_555 1_555
H4B C7B 1_555 1_555
C8B C7B 1_555 1_555
H5B C8B 1_555 1_555
C9B C4B 1_555 1_555
C10B C9B 1_555 1_555
H6B C10B 1_555 1_555
C11B C10B 1_555 1_555
H7B C11B 1_555 1_555
H8B C11B 1_555 1_555
H9B C11B 1_555 1_555
C12B C10B 1_555 1_555
H10B C12B 1_555 1_555
H11B C12B 1_555 1_555
H12B C12B 1_555 1_555
C13B C5B 1_555 1_555
H13B C13B 1_555 1_555
C14B C13B 1_555 1_555
H14B C14B 1_555 1_555
H15B C14B 1_555 1_555
H16B C14B 1_555 1_555
C15B C13B 1_555 1_555
H17B C15B 1_555 1_555
H18B C15B 1_555 1_555
H19B C15B 1_555 1_555
C16B N1B 1_555 1_555
C17B C16B 1_555 1_555
C18B C17B 1_555 1_555
H20B C18B 1_555 1_555
C19B C18B 1_555 1_555
H21B C19B 1_555 1_555
C20B C19B 1_555 1_555
H22B C20B 1_555 1_555
C21B C16B 1_555 1_555
C22B C21B 1_555 1_555
H23B C22B 1_555 1_555
C23B C22B 1_555 1_555
H24B C23B 1_555 1_555
H25B C23B 1_555 1_555
H26B C23B 1_555 1_555
C24B C22B 1_555 1_555
H27B C24B 1_555 1_555
H28B C24B 1_555 1_555
H29B C24B 1_555 1_555
C25B C17B 1_555 1_555
H30B C25B 1_555 1_555
C26B C25B 1_555 1_555
H31B C26B 1_555 1_555
H32B C26B 1_555 1_555
H33B C26B 1_555 1_555
C27B C25B 1_555 1_555
H34B C27B 1_555 1_555
H35B C27B 1_555 1_555
H36B C27B 1_555 1_555
C2 C3 1_555 1_555
C8 C9 1_555 1_555
C20 C21 1_555 1_555
Si1B O2B 1_555 1_555
C2B C3B 1_555 1_555
C8B C9B 1_555 1_555
C20B C21B 1_555 1_555

#END
