
#######################################################################
#
#                 Cambridge Crystallographic Data Centre
#                                CCDC 
#
#######################################################################
#
# If this CIF has been generated from an entry in the Cambridge 
# Structural Database, then it will include bibliographic, chemical, 
# crystal, experimental, refinement or atomic coordinate data resulting 
# from the CCDC's data processing and validation procedures.
#
#######################################################################

data_IHAPAK
_chemical_formula_moiety         'C44 H36 O4,1.5(C1 H1 Cl3)'
_chemical_name_systematic        
'9,10-bis(bis(4-methoxyphenyl)methylene)-9,10-dihydroanthracene chloroform solvate'
_symmetry_cell_setting           monoclinic
_symmetry_space_group_name_H-M   'P 21/c'
_symmetry_Int_Tables_number      14
_space_group_name_Hall           '-P 2ybc'
loop_
_symmetry_equiv_pos_site_id
_symmetry_equiv_pos_as_xyz
1 x,y,z
2 -x,1/2+y,1/2-z
3 -x,-y,-z
4 x,1/2-y,1/2+z
_cell_length_a                   19.089(2)
_cell_length_b                   10.2565(13)
_cell_length_c                   21.225(3)
_cell_angle_alpha                90
_cell_angle_beta                 91.282(2)
_cell_angle_gamma                90
_cell_volume                     4154.52
_exptl_crystal_colour            colorless
_exptl_crystal_description       block
_cell_formula_units_Z            4
loop_
_atom_site_label
_atom_site_type_symbol
_atom_site_fract_x
_atom_site_fract_y
_atom_site_fract_z
C1 C 0.77408(19) 0.0329(4) 0.40192(18)
C2 C 0.74207(19) 0.0912(3) 0.35201(18)
C3 C 0.71196(18) 0.3328(4) 0.29936(17)
C4 C 0.71987(19) 0.4637(4) 0.30477(18)
C5 C 0.73818(18) 0.0168(4) 0.46348(18)
C6 C 0.7130(2) 0.1245(4) 0.49475(18)
H1 H 0.7189 0.2085 0.4768
C7 C 0.6792(2) 0.1133(4) 0.55182(19)
H2 H 0.6625 0.1889 0.5726
C8 C 0.66998(19) -0.0087(4) 0.57821(19)
C9 C 0.6970(2) -0.1180(4) 0.5483(2)
H3 H 0.6923 -0.2016 0.5670
C10 C 0.7305(2) -0.1058(4) 0.4916(2)
H4 H 0.7484 -0.1811 0.4714
C11 C 0.6072(2) 0.0791(5) 0.6641(2)
H5 H 0.6452 0.1389 0.6763
H6 H 0.5827 0.0509 0.7019
H7 H 0.5742 0.1238 0.6355
C12 C 0.84929(19) -0.0058(4) 0.40250(17)
C13 C 0.8710(2) -0.1357(4) 0.39764(18)
H8 H 0.8371 -0.2024 0.3909
C14 C 0.9413(2) -0.1678(4) 0.40249(19)
H9 H 0.9552 -0.2564 0.3991
C15 C 0.99159(19) -0.0727(4) 0.41218(17)
C16 C 0.9714(2) 0.0571(4) 0.41682(19)
H10 H 1.0056 0.1234 0.4233
C17 C 0.9010(2) 0.0885(4) 0.4119(2)
H11 H 0.8875 0.1774 0.4151
C18 C 1.1128(2) -0.0188(5) 0.4243(2)
H12 H 1.1126 0.0379 0.3872
H13 H 1.1586 -0.0615 0.4289
H14 H 1.1040 0.0336 0.4620
C19 C 0.7810(2) 0.5362(4) 0.2787(2)
C20 C 0.8476(2) 0.5213(5) 0.3037(2)
H15 H 0.8554 0.4609 0.3371
C21 C 0.9051(2) 0.5939(5) 0.2807(2)
H16 H 0.9507 0.5836 0.2990
C22 C 0.8938(2) 0.6786(4) 0.2321(2)
C23 C 0.8281(2) 0.6943(5) 0.2051(2)
H17 H 0.8211 0.7533 0.1710
C24 C 0.7723(2) 0.6237(4) 0.2278(2)
H18 H 0.7272 0.6344 0.2088
C25 C 1.0136(2) 0.7433(7) 0.2322(3)
H19 H 1.0132 0.7696 0.2766
H20 H 1.0455 0.8000 0.2093
H21 H 1.0295 0.6527 0.2292
C26 C 0.6689(2) 0.5455(4) 0.33955(19)
C27 C 0.6297(2) 0.6419(4) 0.3091(2)
H22 H 0.6355 0.6555 0.2653
C28 C 0.5825(2) 0.7186(4) 0.3408(2)
H23 H 0.5565 0.7840 0.3188
C29 C 0.5731(2) 0.6997(4) 0.40478(19)
C30 C 0.6112(2) 0.6045(4) 0.43639(19)
H24 H 0.6053 0.5912 0.4802
C31 C 0.6584(2) 0.5285(4) 0.40355(19)
H25 H 0.6842 0.4629 0.4255
C32 C 0.5101(3) 0.7600(6) 0.4964(2)
H26 H 0.4929 0.6708 0.5020
H27 H 0.4742 0.8220 0.5095
H28 H 0.5528 0.7726 0.5221
C33 C 0.77720(19) 0.1245(4) 0.29224(17)
C34 C 0.8203(2) 0.0381(4) 0.26054(18)
H29 H 0.8308 -0.0445 0.2787
C35 C 0.8480(2) 0.0709(4) 0.2031(2)
H30 H 0.8767 0.0105 0.1816
C36 C 0.8339(2) 0.1925(4) 0.17702(19)
H31 H 0.8536 0.2160 0.1379
C37 C 0.7911(2) 0.2798(4) 0.20780(18)
H32 H 0.7810 0.3623 0.1894
C38 C 0.76251(18) 0.2471(4) 0.26590(17)
C39 C 0.65222(19) 0.2576(4) 0.32485(17)
C40 C 0.58263(19) 0.2985(4) 0.32128(18)
H33 H 0.5716 0.3812 0.3035
C41 C 0.5294(2) 0.2201(4) 0.34333(19)
H34 H 0.4822 0.2490 0.3406
C42 C 0.5453(2) 0.0995(4) 0.3694(2)
H35 H 0.5088 0.0457 0.3846
C43 C 0.6140(2) 0.0574(4) 0.37321(18)
H36 H 0.6244 -0.0254 0.3911
C44 C 0.66800(18) 0.1346(4) 0.35127(17)
O1 O 0.63574(15) -0.0323(3) 0.63309(14)
O2 O 1.05943(14) -0.1153(3) 0.41702(14)
O3 O 0.94550(16) 0.7541(4) 0.20580(18)
O4 O 0.52521(16) 0.7810(3) 0.43173(14)
C45 C 0.8996(4) 0.5443(8) 0.5075(4)
H37 H 0.9328 0.5749 0.4749
Cl1 Cl 0.81342(13) 0.5515(2) 0.47168(13)
Cl2 Cl 0.91949(11) 0.3801(2) 0.52198(11)
Cl3 Cl 0.91147(15) 0.6418(2) 0.56989(11)
C46 C 0.6546(3) 0.0283(5) 0.1639(3)
H38 H 0.6799 0.1004 0.1866
Cl4 Cl 0.65996(15) -0.1099(3) 0.21187(19)
Cl5 Cl 0.57076(18) 0.0766(3) 0.1525(3)
Cl6 Cl 0.6991(2) -0.0004(4) 0.09271(13)
Cl7? Cl 0.6696(3) -0.1369(6) 0.1761(6)
Cl8? Cl 0.5726(4) 0.0648(10) 0.2007(7)
Cl9? Cl 0.6407(10) 0.0444(8) 0.0831(3)
loop_
_geom_bond_atom_site_label_1
_geom_bond_atom_site_label_2
_geom_bond_site_symmetry_1
_geom_bond_site_symmetry_2
C1 C2 1_555 1_555
C2 C33 1_555 1_555
C3 C4 1_555 1_555
C4 C19 1_555 1_555
C5 C1 1_555 1_555
C6 C5 1_555 1_555
H1 C6 1_555 1_555
C7 C6 1_555 1_555
H2 C7 1_555 1_555
C8 C7 1_555 1_555
C9 C8 1_555 1_555
H3 C9 1_555 1_555
C10 C5 1_555 1_555
H4 C10 1_555 1_555
C11 H5 1_555 1_555
H6 C11 1_555 1_555
H7 C11 1_555 1_555
C12 C1 1_555 1_555
C13 C12 1_555 1_555
H8 C13 1_555 1_555
C14 C13 1_555 1_555
H9 C14 1_555 1_555
C15 C14 1_555 1_555
C16 C15 1_555 1_555
H10 C16 1_555 1_555
C17 C12 1_555 1_555
H11 C17 1_555 1_555
C18 H12 1_555 1_555
H13 C18 1_555 1_555
H14 C18 1_555 1_555
C19 C20 1_555 1_555
C20 H15 1_555 1_555
C21 C20 1_555 1_555
H16 C21 1_555 1_555
C22 C21 1_555 1_555
C23 C22 1_555 1_555
H17 C23 1_555 1_555
C24 C19 1_555 1_555
H18 C24 1_555 1_555
C25 H19 1_555 1_555
H20 C25 1_555 1_555
H21 C25 1_555 1_555
C26 C4 1_555 1_555
C27 C26 1_555 1_555
H22 C27 1_555 1_555
C28 C27 1_555 1_555
H23 C28 1_555 1_555
C29 C28 1_555 1_555
C30 C29 1_555 1_555
H24 C30 1_555 1_555
C31 C26 1_555 1_555
H25 C31 1_555 1_555
C32 H26 1_555 1_555
H27 C32 1_555 1_555
H28 C32 1_555 1_555
C33 C34 1_555 1_555
C34 H29 1_555 1_555
C35 C34 1_555 1_555
H30 C35 1_555 1_555
C36 C35 1_555 1_555
H31 C36 1_555 1_555
C37 C36 1_555 1_555
H32 C37 1_555 1_555
C38 C3 1_555 1_555
C39 C3 1_555 1_555
C40 C39 1_555 1_555
H33 C40 1_555 1_555
C41 C40 1_555 1_555
H34 C41 1_555 1_555
C42 C41 1_555 1_555
H35 C42 1_555 1_555
C43 C42 1_555 1_555
H36 C43 1_555 1_555
C44 C2 1_555 1_555
O1 C8 1_555 1_555
O2 C15 1_555 1_555
O3 C22 1_555 1_555
O4 C29 1_555 1_555
C45 H37 1_555 1_555
Cl1 C45 1_555 1_555
Cl2 C45 1_555 1_555
Cl3 C45 1_555 1_555
C46 H38 1_555 1_555
Cl4 C46 1_555 1_555
Cl5 C46 1_555 1_555
Cl6 C46 1_555 1_555
C9 C10 1_555 1_555
C11 O1 1_555 1_555
C16 C17 1_555 1_555
C18 O2 1_555 1_555
C23 C24 1_555 1_555
C25 O3 1_555 1_555
C30 C31 1_555 1_555
C32 O4 1_555 1_555
C33 C38 1_555 1_555
C37 C38 1_555 1_555
C39 C44 1_555 1_555
C43 C44 1_555 1_555

#END
