
#######################################################################
#
#                 Cambridge Crystallographic Data Centre
#                                CCDC 
#
#######################################################################
#
# If this CIF has been generated from an entry in the Cambridge 
# Structural Database, then it will include bibliographic, chemical, 
# crystal, experimental, refinement or atomic coordinate data resulting 
# from the CCDC's data processing and validation procedures.
#
#######################################################################

data_IHAWIZ
_chemical_formula_moiety         'C19 H30 O7 S1'
_chemical_name_systematic        
"2-(4',6',11',15'-tetraoxaspiro[cyclohexane-1,5'-tetracyclo[6.6.1.0^1,10^.0^3,7^]pentadecan]-12'-yl)ethyl methanesulfonate"
_symmetry_cell_setting           orthorhombic
_symmetry_space_group_name_H-M   'P 21 21 21'
_symmetry_Int_Tables_number      19
_space_group_name_Hall           'P 2ac 2ab'
loop_
_symmetry_equiv_pos_site_id
_symmetry_equiv_pos_as_xyz
1 x,y,z
2 1/2-x,-y,1/2+z
3 -x,1/2+y,1/2-z
4 1/2+x,1/2-y,-z
_cell_length_a                   9.603(2)
_cell_length_b                   12.080(3)
_cell_length_c                   16.637(4)
_cell_angle_alpha                90
_cell_angle_beta                 90
_cell_angle_gamma                90
_cell_volume                     1929.96
_exptl_crystal_colour            colorless
_exptl_crystal_description       chunk
_cell_formula_units_Z            4
loop_
_atom_site_label
_atom_site_type_symbol
_atom_site_fract_x
_atom_site_fract_y
_atom_site_fract_z
S1 S 1.02773(9) 1.44953(7) 0.95256(5)
O1 O 0.9353(3) 1.4166(3) 0.89000(19)
O2 O 0.9858(3) 1.5307(3) 1.00960(18)
O3 O 1.0668(3) 1.3458(2) 1.00427(14)
O4 O 0.9122(2) 0.98268(17) 0.92981(12)
O5 O 1.0684(3) 0.7360(2) 0.84255(15)
O6 O 0.7768(5) 0.6888(4) 0.7218(2)
O7 O 0.6381(4) 0.7410(3) 0.8228(3)
C1 C 0.6302(14) 0.6853(13) 0.7431(8)
C2 C 0.5481(6) 0.7457(5) 0.6882(4)
H1 H 0.5620 0.7154 0.6348
H2 H 0.5802 0.8218 0.6875
C3 C 0.387(4) 0.745(4) 0.708(2)
H3 H 0.3694 0.7687 0.7623
H4 H 0.3357 0.7910 0.6706
C4 C 0.354(2) 0.6271(17) 0.6967(7)
H5 H 0.3102 0.6185 0.6445
H6 H 0.2850 0.6067 0.7368
C5 C 0.4756(9) 0.5443(7) 0.7023(5)
H7 H 0.4363 0.4732 0.7171
H8 H 0.5132 0.5361 0.6485
C6 C 0.5913(9) 0.5642(7) 0.7552(5)
H9 H 0.6690 0.5164 0.7415
H10 H 0.5650 0.5505 0.8106
C7 C 0.8465(5) 0.6815(3) 0.7979(2)
C8 C 0.7693(4) 0.7042(3) 0.8759(3)
H11 H 0.7539 0.6392 0.9100
O8 O 0.6956(6) 0.6999(4) 0.7591(3)
O9 O 0.6347(5) 0.6657(4) 0.8894(3)
C9 C 0.5887(7) 0.6683(6) 0.8087(4)
C10 C 0.4657(8) 0.7470(6) 0.7984(5)
H12 H 0.3958 0.7318 0.8390
H13 H 0.4967 0.8229 0.8049
C11 C 0.405(4) 0.732(4) 0.717(2)
H14 H 0.4754 0.7392 0.6756
H15 H 0.3313 0.7854 0.7071
C12 C 0.3470(17) 0.6140(15) 0.7203(7)
H16 H 0.2505 0.6143 0.7374
H17 H 0.3530 0.5790 0.6679
C13 C 0.4357(8) 0.5547(7) 0.7798(5)
H18 H 0.4077 0.5840 0.8316
H19 H 0.4029 0.4788 0.7787
C14 C 0.5425(11) 0.5486(7) 0.7830(5)
H20 H 0.5819 0.5286 0.7313
H21 H 0.5705 0.4942 0.8227
H22 H 0.8198 0.6528 0.9109
C15 C 0.7992(3) 0.8114(3) 0.92103(19)
H23 H 0.7171 0.8581 0.9181
H24 H 0.8147 0.7938 0.9772
C16 C 0.9231(3) 0.8772(2) 0.89060(17)
C17 C 1.0619(4) 0.8184(3) 0.9058(2)
H25 H 1.0601 0.7819 0.9584
C18 C 0.9638(4) 0.7612(3) 0.78333(19)
H26 H 1.0010 0.7528 0.7288
C19 C 1.1858(3) 0.8953(3) 0.9008(3)
H27 H 1.2676 0.8580 0.9217
H28 H 1.2035 0.9138 0.8449
C20 C 1.1608(4) 0.9997(3) 0.9476(3)
H29 H 1.2388 1.0497 0.9402
H30 H 1.1543 0.9822 1.0044
C21 C 1.0279(3) 1.0558(3) 0.92046(19)
H31 H 1.0369 1.0750 0.8635
C22 C 0.9910(4) 1.1595(3) 0.9672(2)
H32 H 0.9733 1.1402 1.0229
H33 H 0.9067 1.1917 0.9452
C23 C 1.1080(4) 1.2437(3) 0.9632(2)
H34 H 1.1908 1.2135 0.9885
H35 H 1.1299 1.2597 0.9075
C24 C 1.1859(3) 1.4919(3) 0.9113(2)
H36 H 1.2180 1.4371 0.8738
H37 H 1.2535 1.5005 0.9534
H38 H 1.1735 1.5612 0.8840
C25 C 0.9197(4) 0.8795(3) 0.79854(17)
H39 H 0.8271 0.8947 0.7779
H40 H 0.9854 0.9324 0.7765
H41? H 0.8870 0.6072 0.8019
H42? H 0.8770 0.6042 0.7939
loop_
_geom_bond_atom_site_label_1
_geom_bond_atom_site_label_2
_geom_bond_site_symmetry_1
_geom_bond_site_symmetry_2
S1 O1 1_555 1_555
O2 S1 1_555 1_555
O3 S1 1_555 1_555
O4 C16 1_555 1_555
O5 C17 1_555 1_555
O6 C1 1_555 1_555
O7 C1 1_555 1_555
C1 C2 1_555 1_555
C2 H1 1_555 1_555
H2 C2 1_555 1_555
C3 C2 1_555 1_555
H3 C3 1_555 1_555
H4 C3 1_555 1_555
C4 C3 1_555 1_555
H5 C4 1_555 1_555
H6 C4 1_555 1_555
C5 C4 1_555 1_555
H7 C5 1_555 1_555
H8 C5 1_555 1_555
C6 C1 1_555 1_555
H9 C6 1_555 1_555
H10 C6 1_555 1_555
C7 O6 1_555 1_555
C8 O7 1_555 1_555
H11 C8 1_555 1_555
O8 O6 1_555 1_555
O9 O7 1_555 1_555
C9 O7 1_555 1_555
C10 O7 1_555 1_555
H12 C10 1_555 1_555
H13 C10 1_555 1_555
C11 C2 1_555 1_555
H14 C2 1_555 1_555
H15 C3 1_555 1_555
C12 C3 1_555 1_555
H16 C4 1_555 1_555
H17 C4 1_555 1_555
C13 C5 1_555 1_555
H18 C13 1_555 1_555
H19 C13 1_555 1_555
C14 C6 1_555 1_555
H20 C5 1_555 1_555
H21 C14 1_555 1_555
H22 C8 1_555 1_555
C15 C8 1_555 1_555
H23 C15 1_555 1_555
H24 C15 1_555 1_555
C16 C15 1_555 1_555
C17 C16 1_555 1_555
H25 C17 1_555 1_555
C18 O5 1_555 1_555
H26 C18 1_555 1_555
C19 C17 1_555 1_555
H27 C19 1_555 1_555
H28 C19 1_555 1_555
C20 C19 1_555 1_555
H29 C20 1_555 1_555
H30 C20 1_555 1_555
C21 O4 1_555 1_555
H31 C21 1_555 1_555
C22 C21 1_555 1_555
H32 C22 1_555 1_555
H33 C22 1_555 1_555
C23 O3 1_555 1_555
H34 C23 1_555 1_555
H35 C23 1_555 1_555
C24 S1 1_555 1_555
H36 C24 1_555 1_555
H37 C24 1_555 1_555
H38 C24 1_555 1_555
C25 C16 1_555 1_555
H39 C25 1_555 1_555
H40 C25 1_555 1_555
O7 O8 1_555 1_555
C1 O8 1_555 1_555
C1 C9 1_555 1_555
C3 C10 1_555 1_555
C3 H14 1_555 1_555
H3 C10 1_555 1_555
H3 C11 1_555 1_555
H4 C11 1_555 1_555
C4 C11 1_555 1_555
H5 C12 1_555 1_555
H6 C12 1_555 1_555
C5 C6 1_555 1_555
C5 C12 1_555 1_555
C6 C9 1_555 1_555
C6 C13 1_555 1_555
C6 H20 1_555 1_555
H10 C13 1_555 1_555
C7 C8 1_555 1_555
C7 O8 1_555 1_555
C7 C18 1_555 1_555
C8 O9 1_555 1_555
H11 O9 1_555 1_555
O8 C9 1_555 1_555
O9 C9 1_555 1_555
C9 C10 1_555 1_555
C9 C14 1_555 1_555
C10 C11 1_555 1_555
C11 H14 1_555 1_555
C11 H15 1_555 1_555
C11 C12 1_555 1_555
C12 H16 1_555 1_555
C12 H17 1_555 1_555
C12 C13 1_555 1_555
C13 C14 1_555 1_555
C14 H20 1_555 1_555
C18 C25 1_555 1_555
C20 C21 1_555 1_555
C22 C23 1_555 1_555

#END
