
#######################################################################
#
#                 Cambridge Crystallographic Data Centre
#                                CCDC 
#
#######################################################################
#
# If this CIF has been generated from an entry in the Cambridge 
# Structural Database, then it will include bibliographic, chemical, 
# crystal, experimental, refinement or atomic coordinate data resulting 
# from the CCDC's data processing and validation procedures.
#
#######################################################################

data_IHEDOP
_chemical_formula_moiety         'C30 H50 N2 Si2'
_chemical_name_systematic        
1,4-bis(2,6-Di-isopropylphenyl)-2,2,5,5-tetramethyl-1,4,2,5-diazadisilinane
_symmetry_cell_setting           monoclinic
_symmetry_space_group_name_H-M   'P 21/n'
_symmetry_Int_Tables_number      14
_space_group_name_Hall           '-P 2yn'
loop_
_symmetry_equiv_pos_site_id
_symmetry_equiv_pos_as_xyz
1 x,y,z
2 1/2-x,1/2+y,1/2-z
3 -x,-y,-z
4 1/2+x,1/2-y,1/2+z
_cell_length_a                   8.49170(10)
_cell_length_b                   11.2259(2)
_cell_length_c                   16.2409(2)
_cell_angle_alpha                90
_cell_angle_beta                 98.4080(10)
_cell_angle_gamma                90
_cell_volume                     1531.56
_cell_formula_units_Z            2
_exptl_crystal_recrystallization_method hexane
loop_
_atom_site_label
_atom_site_type_symbol
_atom_site_fract_x
_atom_site_fract_y
_atom_site_fract_z
Si1 Si 0.43394(4) 0.61428(3) 0.05489(2)
N1 N 0.63385(12) 0.58241(9) 0.05631(6)
C1 C 0.32175(15) 0.54234(12) -0.04083(9)
H1 H 0.2091 0.5445 -0.0365
H2 H 0.3377 0.5898 -0.0888
C2 C 0.76048(14) 0.65672(11) 0.09679(8)
C3 C 0.82539(16) 0.74483(12) 0.05021(9)
C4 C 0.82303(17) 0.64021(13) 0.18142(8)
C5 C 0.4001(2) 0.77752(14) 0.04739(12)
H3 H 0.4658 0.8166 0.0926
H4 H 0.2902 0.7943 0.0503
H5 H 0.4268 0.8061 -0.0045
C6 C 0.94902(19) 0.71257(15) 0.21632(10)
H6 H 0.9909 0.7025 0.2721
C7 C 0.7597(2) 0.54789(14) 0.23589(9)
H7 H 0.6653 0.5117 0.2035
C8 C 0.95106(18) 0.81374(14) 0.08881(11)
H8 H 0.9943 0.8721 0.0581
C9 C 1.0127(2) 0.79790(16) 0.17082(11)
H9 H 1.0971 0.8447 0.1954
C10 C 0.77002(19) 0.76322(15) -0.04202(10)
H10 H 0.6694 0.7203 -0.0567
C11 C 0.8810(3) 0.44886(17) 0.25970(13)
H11 H 0.9081 0.4124 0.2102
H12 H 0.8361 0.3900 0.2924
H13 H 0.9751 0.4818 0.2916
C12 C 0.7081(4) 0.6045(2) 0.31344(13)
H14 H 0.7995 0.6364 0.3482
H15 H 0.6588 0.5452 0.3438
H16 H 0.6334 0.6674 0.2970
C13 C 0.8910(3) 0.7095(3) -0.09230(13)
H17 H 0.9886 0.7537 -0.0819
H18 H 0.8496 0.7130 -0.1505
H19 H 0.9107 0.6280 -0.0761
C14 C 0.7401(3) 0.89437(19) -0.06483(17)
H20 H 0.6623 0.9263 -0.0335
H21 H 0.7016 0.9009 -0.1232
H22 H 0.8377 0.9382 -0.0521
C15 C 0.3495(2) 0.5572(2) 0.14712(11)
H23 H 0.3729 0.4738 0.1542
H24 H 0.2363 0.5687 0.1387
H25 H 0.3959 0.5997 0.1960
Si1B Si 0.56606(4) 0.38572(3) -0.05489(2)
N1B N 0.36615(12) 0.41759(9) -0.05631(6)
C1B C 0.67825(15) 0.45766(12) 0.04083(9)
H1B H 0.7909 0.4555 0.0365
H2B H 0.6623 0.4102 0.0888
C2B C 0.23952(14) 0.34328(11) -0.09679(8)
C3B C 0.17461(16) 0.25517(12) -0.05021(9)
C4B C 0.17697(17) 0.35979(13) -0.18142(8)
C5B C 0.5999(2) 0.22248(14) -0.04739(12)
H3B H 0.5342 0.1834 -0.0926
H4B H 0.7098 0.2057 -0.0503
H5B H 0.5732 0.1939 0.0045
C6B C 0.05098(19) 0.28743(15) -0.21632(10)
H6B H 0.0091 0.2975 -0.2721
C7B C 0.2403(2) 0.45211(14) -0.23589(9)
H7B H 0.3347 0.4883 -0.2035
C8B C 0.04894(18) 0.18626(14) -0.08881(11)
H8B H 0.0057 0.1279 -0.0581
C9B C -0.0127(2) 0.20210(16) -0.17082(11)
H9B H -0.0971 0.1553 -0.1954
C10B C 0.22998(19) 0.23678(15) 0.04202(10)
H10B H 0.3306 0.2797 0.0567
C11B C 0.1190(3) 0.55114(17) -0.25970(13)
H11B H 0.0919 0.5876 -0.2102
H12B H 0.1639 0.6100 -0.2924
H13B H 0.0249 0.5182 -0.2916
C12B C 0.2919(4) 0.3955(2) -0.31344(13)
H14B H 0.2005 0.3636 -0.3482
H15B H 0.3412 0.4548 -0.3438
H16B H 0.3666 0.3326 -0.2970
C13B C 0.1090(3) 0.2905(3) 0.09230(13)
H17B H 0.0114 0.2463 0.0819
H18B H 0.1504 0.2870 0.1505
H19B H 0.0893 0.3720 0.0761
C14B C 0.2599(3) 0.10563(19) 0.06483(17)
H20B H 0.3377 0.0737 0.0335
H21B H 0.2984 0.0991 0.1232
H22B H 0.1623 0.0618 0.0521
C15B C 0.6505(2) 0.4428(2) -0.14712(11)
H23B H 0.6271 0.5262 -0.1542
H24B H 0.7637 0.4313 -0.1387
H25B H 0.6041 0.4003 -0.1960
loop_
_geom_bond_atom_site_label_1
_geom_bond_atom_site_label_2
_geom_bond_site_symmetry_1
_geom_bond_site_symmetry_2
Si1 N1 1_555 1_555
N1 C2 1_555 1_555
C1 Si1 1_555 1_555
H1 C1 1_555 1_555
H2 C1 1_555 1_555
C2 C3 1_555 1_555
C3 C8 1_555 1_555
C4 C2 1_555 1_555
C5 Si1 1_555 1_555
H3 C5 1_555 1_555
H4 C5 1_555 1_555
H5 C5 1_555 1_555
C6 C4 1_555 1_555
H6 C6 1_555 1_555
C7 C4 1_555 1_555
H7 C7 1_555 1_555
C8 H8 1_555 1_555
C9 C6 1_555 1_555
H9 C9 1_555 1_555
C10 C3 1_555 1_555
H10 C10 1_555 1_555
C11 C7 1_555 1_555
H11 C11 1_555 1_555
H12 C11 1_555 1_555
H13 C11 1_555 1_555
C12 C7 1_555 1_555
H14 C12 1_555 1_555
H15 C12 1_555 1_555
H16 C12 1_555 1_555
C13 C10 1_555 1_555
H17 C13 1_555 1_555
H18 C13 1_555 1_555
H19 C13 1_555 1_555
C14 C10 1_555 1_555
H20 C14 1_555 1_555
H21 C14 1_555 1_555
H22 C14 1_555 1_555
C15 Si1 1_555 1_555
H23 C15 1_555 1_555
H24 C15 1_555 1_555
H25 C15 1_555 1_555
Si1B N1B 1_555 1_555
N1B C1 1_555 1_555
C1B N1 1_555 1_555
H1B C1B 1_555 1_555
H2B C1B 1_555 1_555
C2B N1B 1_555 1_555
C3B C2B 1_555 1_555
C4B C2B 1_555 1_555
C5B Si1B 1_555 1_555
H3B C5B 1_555 1_555
H4B C5B 1_555 1_555
H5B C5B 1_555 1_555
C6B C4B 1_555 1_555
H6B C6B 1_555 1_555
C7B C4B 1_555 1_555
H7B C7B 1_555 1_555
C8B C3B 1_555 1_555
H8B C8B 1_555 1_555
C9B C6B 1_555 1_555
H9B C9B 1_555 1_555
C10B C3B 1_555 1_555
H10B C10B 1_555 1_555
C11B C7B 1_555 1_555
H11B C11B 1_555 1_555
H12B C11B 1_555 1_555
H13B C11B 1_555 1_555
C12B C7B 1_555 1_555
H14B C12B 1_555 1_555
H15B C12B 1_555 1_555
H16B C12B 1_555 1_555
C13B C10B 1_555 1_555
H17B C13B 1_555 1_555
H18B C13B 1_555 1_555
H19B C13B 1_555 1_555
C14B C10B 1_555 1_555
H20B C14B 1_555 1_555
H21B C14B 1_555 1_555
H22B C14B 1_555 1_555
C15B Si1B 1_555 1_555
H23B C15B 1_555 1_555
H24B C15B 1_555 1_555
H25B C15B 1_555 1_555
C8 C9 1_555 1_555
Si1B C1B 1_555 1_555
C8B C9B 1_555 1_555

#END
