
#######################################################################
#
#                 Cambridge Crystallographic Data Centre
#                                CCDC 
#
#######################################################################
#
# If this CIF has been generated from an entry in the Cambridge 
# Structural Database, then it will include bibliographic, chemical, 
# crystal, experimental, refinement or atomic coordinate data resulting 
# from the CCDC's data processing and validation procedures.
#
#######################################################################

data_IHEDUW
_chemical_formula_moiety         'C19 H28 O6'
_chemical_name_systematic        
"methyl 4',6',9',14'-tetraoxaspiro[cyclohexane-1,5'-tetracyclo[6.6.1.0^1,10^.0^3,7^]pentadecan]-13'-ylacetate"
_symmetry_cell_setting           orthorhombic
_symmetry_space_group_name_H-M   'P 21 21 21'
_symmetry_Int_Tables_number      19
_space_group_name_Hall           'P 2ac 2ab'
loop_
_symmetry_equiv_pos_site_id
_symmetry_equiv_pos_as_xyz
1 x,y,z
2 1/2-x,-y,1/2+z
3 -x,1/2+y,1/2-z
4 1/2+x,1/2-y,-z
_cell_length_a                   6.5921(18)
_cell_length_b                   12.676(3)
_cell_length_c                   21.594(6)
_cell_angle_alpha                90
_cell_angle_beta                 90
_cell_angle_gamma                90
_cell_volume                     1804.43
_exptl_crystal_colour            colorless
_exptl_crystal_description       needle
_cell_formula_units_Z            4
loop_
_atom_site_label
_atom_site_type_symbol
_atom_site_fract_x
_atom_site_fract_y
_atom_site_fract_z
O1 O 0.9050(2) 0.32205(11) 0.05537(7)
O2 O 0.4096(2) 0.39476(10) 0.11547(6)
O3 O 0.6208(2) 0.48479(12) -0.09046(7)
O4 O 0.8417(2) 0.57201(11) -0.02669(6)
O5 O -0.0168(2) 0.47761(12) 0.23233(7)
O6 O 0.3043(3) 0.52783(13) 0.24634(8)
C1 C 0.6652(3) 0.41800(17) -0.03830(9)
H1 H 0.6820 0.3434 -0.0525
C2 C 0.8677(3) 0.46126(16) -0.01694(10)
H2 H 0.9788 0.4340 -0.0441
C3 C 0.9145(3) 0.43655(16) 0.05019(10)
H3 H 1.0504 0.4644 0.0627
C4 C 0.7478(3) 0.47536(16) 0.09299(9)
H4 H 0.7073 0.5488 0.0835
H5 H 0.7870 0.4698 0.1371
C5 C 0.5817(3) 0.39605(15) 0.07577(9)
C6 C 0.5004(3) 0.42351(16) 0.01147(9)
H6 H 0.4427 0.4956 0.0123
H7 H 0.3899 0.3740 0.0007
C7 C 0.7027(3) 0.29201(16) 0.07388(10)
H8 H 0.6431 0.2445 0.0417
C8 C 0.7128(3) 0.23387(17) 0.13512(10)
H9 H 0.8152 0.2679 0.1621
H10 H 0.7563 0.1602 0.1277
C9 C 0.5083(3) 0.23378(16) 0.16790(10)
H11 H 0.4082 0.1934 0.1433
H12 H 0.5213 0.1999 0.2090
C10 C 0.4379(3) 0.34632(16) 0.17534(9)
H13 H 0.5409 0.3871 0.1995
C11 C 0.2333(3) 0.35497(16) 0.20656(10)
H14 H 0.1271 0.3332 0.1767
H15 H 0.2292 0.3050 0.2418
C12 C 0.1836(4) 0.46323(17) 0.22997(9)
C13 C -0.0868(4) 0.57846(19) 0.25501(11)
H16 H -0.0529 0.5852 0.2990
H17 H -0.2341 0.5834 0.2497
H18 H -0.0208 0.6352 0.2317
C14 C 0.7288(3) 0.58249(18) -0.08297(10)
C15 C 0.8711(4) 0.5990(2) -0.13717(11)
H19 H 0.7937 0.5959 -0.1764
H20 H 0.9742 0.5423 -0.1379
C16 C 0.9759(5) 0.7064(3) -0.13152(13)
H21 H 1.0638 0.7066 -0.0943
H22 H 1.0632 0.7180 -0.1682
C17 C 0.8237(6) 0.7950(2) -0.12669(16)
H23 H 0.8961 0.8629 -0.1215
H24 H 0.7433 0.7988 -0.1653
C18 C 0.6839(5) 0.7778(2) -0.07256(15)
H25 H 0.5803 0.8343 -0.0718
H26 H 0.7627 0.7820 -0.0336
C19 C 0.5797(4) 0.6718(2) -0.07626(12)
H27 H 0.4981 0.6608 -0.0383
H28 H 0.4861 0.6715 -0.1121
loop_
_geom_bond_atom_site_label_1
_geom_bond_atom_site_label_2
_geom_bond_site_symmetry_1
_geom_bond_site_symmetry_2
O1 C3 1_555 1_555
O2 C5 1_555 1_555
O3 C1 1_555 1_555
O4 C2 1_555 1_555
O5 C12 1_555 1_555
O6 C12 1_555 1_555
C1 H1 1_555 1_555
C2 C1 1_555 1_555
H2 C2 1_555 1_555
C3 C2 1_555 1_555
H3 C3 1_555 1_555
C4 C3 1_555 1_555
H4 C4 1_555 1_555
H5 C4 1_555 1_555
C5 C4 1_555 1_555
C6 C1 1_555 1_555
H6 C6 1_555 1_555
H7 C6 1_555 1_555
C7 O1 1_555 1_555
H8 C7 1_555 1_555
C8 C7 1_555 1_555
H9 C8 1_555 1_555
H10 C8 1_555 1_555
C9 C8 1_555 1_555
H11 C9 1_555 1_555
H12 C9 1_555 1_555
C10 O2 1_555 1_555
H13 C10 1_555 1_555
C11 C10 1_555 1_555
H14 C11 1_555 1_555
H15 C11 1_555 1_555
C12 C11 1_555 1_555
C13 O5 1_555 1_555
H16 C13 1_555 1_555
H17 C13 1_555 1_555
H18 C13 1_555 1_555
C14 O3 1_555 1_555
C15 C14 1_555 1_555
H19 C15 1_555 1_555
H20 C15 1_555 1_555
C16 C15 1_555 1_555
H21 C16 1_555 1_555
H22 C16 1_555 1_555
C17 C16 1_555 1_555
H23 C17 1_555 1_555
H24 C17 1_555 1_555
C18 C17 1_555 1_555
H25 C18 1_555 1_555
H26 C18 1_555 1_555
C19 C14 1_555 1_555
H27 C19 1_555 1_555
H28 C19 1_555 1_555
O4 C14 1_555 1_555
C5 C6 1_555 1_555
C5 C7 1_555 1_555
C9 C10 1_555 1_555
C18 C19 1_555 1_555

#END
