
#######################################################################
#
#                 Cambridge Crystallographic Data Centre
#                                CCDC 
#
#######################################################################
#
# If this CIF has been generated from an entry in the Cambridge 
# Structural Database, then it will include bibliographic, chemical, 
# crystal, experimental, refinement or atomic coordinate data resulting 
# from the CCDC's data processing and validation procedures.
#
#######################################################################

data_IHEQOD
_chemical_formula_moiety         'C21 H19 N1 O3 S1'
_chemical_name_systematic        
N-(2-(2-methylphenyl)-2-oxo-1-phenylethyl)benzenesulfonamide
_symmetry_cell_setting           triclinic
_symmetry_space_group_name_H-M   'P -1'
_symmetry_Int_Tables_number      2
_space_group_name_Hall           '-P 1'
loop_
_symmetry_equiv_pos_site_id
_symmetry_equiv_pos_as_xyz
1 x,y,z
2 -x,-y,-z
_cell_length_a                   9.102(4)
_cell_length_b                   9.947(4)
_cell_length_c                   11.614(5)
_cell_angle_alpha                74.814(6)
_cell_angle_beta                 72.826(6)
_cell_angle_gamma                68.998(7)
_cell_volume                     923.401
_exptl_crystal_colour            colorless
_exptl_crystal_description       block
_cell_formula_units_Z            2
loop_
_atom_site_label
_atom_site_type_symbol
_atom_site_fract_x
_atom_site_fract_y
_atom_site_fract_z
C1 C 0.0334(3) 0.7027(2) 0.1297(2)
C2 C 0.1010(4) 0.7366(3) 0.0067(3)
H1 H 0.0857 0.6955 -0.0504
C3 C 0.1913(4) 0.8318(4) -0.0301(3)
H2 H 0.2381 0.8547 -0.1126
C4 C 0.2125(4) 0.8929(4) 0.0541(3)
H3 H 0.2715 0.9589 0.0281
C5 C 0.1485(4) 0.8582(3) 0.1746(3)
H4 H 0.1665 0.8984 0.2311
C6 C 0.0559(3) 0.7628(3) 0.2148(3)
H5 H 0.0102 0.7401 0.2976
C7 C 0.2523(3) 0.4057(2) 0.2912(2)
C8 C 0.3750(3) 0.4252(3) 0.1916(2)
H6 H 0.3863 0.3928 0.1204
C9 C 0.4822(3) 0.4930(3) 0.1968(3)
H7 H 0.5642 0.5065 0.1289
C10 C 0.4668(4) 0.5395(3) 0.3017(3)
H8 H 0.5373 0.5860 0.3051
C11 C 0.3451(4) 0.5172(3) 0.4036(3)
H9 H 0.3350 0.5477 0.4755
C12 C 0.2396(3) 0.4496(3) 0.3977(2)
H10 H 0.1593 0.4336 0.4661
C13 C 0.2676(3) 0.0688(3) 0.3691(2)
C14 C 0.4152(3) -0.0424(3) 0.3507(3)
C15 C 0.4552(4) -0.1468(3) 0.4514(3)
H11 H 0.5537 -0.2203 0.4416
C16 C 0.3545(5) -0.1448(4) 0.5641(3)
H12 H 0.3837 -0.2173 0.6296
C17 C 0.2110(5) -0.0367(4) 0.5813(3)
H13 H 0.1425 -0.0353 0.6586
C18 C 0.1671(4) 0.0706(3) 0.4842(3)
H14 H 0.0692 0.1446 0.4963
C19 C 0.5333(4) -0.0515(4) 0.2291(3)
H15 H 0.4898 0.0274 0.1685
H16 H 0.5524 -0.1431 0.2058
H17 H 0.6331 -0.0447 0.2354
C20 C 0.2170(3) 0.1813(3) 0.2634(2)
C21 C 0.1297(3) 0.3395(2) 0.2834(2)
H18 H 0.0483 0.3399 0.3605
O1 O -0.1639(2) 0.5878(2) 0.30179(16)
O2 O -0.1611(2) 0.59622(19) 0.08716(16)
O3 O 0.2478(3) 0.1531(2) 0.16239(18)
S1 S -0.07621(6) 0.57617(6) 0.17898(5)
N1 N 0.0490(2) 0.4137(2) 0.18197(19)
H19 H 0.106(4) 0.398(3) 0.110(3)
loop_
_geom_bond_atom_site_label_1
_geom_bond_atom_site_label_2
_geom_bond_site_symmetry_1
_geom_bond_site_symmetry_2
C1 C2 1_555 1_555
C2 H1 1_555 1_555
C3 C2 1_555 1_555
H2 C3 1_555 1_555
C4 C3 1_555 1_555
H3 C4 1_555 1_555
C5 C4 1_555 1_555
H4 C5 1_555 1_555
C6 C1 1_555 1_555
H5 C6 1_555 1_555
C7 C8 1_555 1_555
C8 H6 1_555 1_555
C9 C8 1_555 1_555
H7 C9 1_555 1_555
C10 C9 1_555 1_555
H8 C10 1_555 1_555
C11 C10 1_555 1_555
H9 C11 1_555 1_555
C12 C7 1_555 1_555
H10 C12 1_555 1_555
C13 C14 1_555 1_555
C14 C15 1_555 1_555
C15 H11 1_555 1_555
C16 C15 1_555 1_555
H12 C16 1_555 1_555
C17 C16 1_555 1_555
H13 C17 1_555 1_555
C18 C13 1_555 1_555
H14 C18 1_555 1_555
C19 C14 1_555 1_555
H15 C19 1_555 1_555
H16 C19 1_555 1_555
H17 C19 1_555 1_555
C20 C13 1_555 1_555
C21 C7 1_555 1_555
H18 C21 1_555 1_555
O1 S1 1_555 1_555
O2 S1 1_555 1_555
O3 C20 1_555 1_555
S1 C1 1_555 1_555
N1 C21 1_555 1_555
H19 N1 1_555 1_555
C5 C6 1_555 1_555
C11 C12 1_555 1_555
C17 C18 1_555 1_555
C20 C21 1_555 1_555
S1 N1 1_555 1_555

#END
