
#######################################################################
#
#                 Cambridge Crystallographic Data Centre
#                                CCDC 
#
#######################################################################
#
# If this CIF has been generated from an entry in the Cambridge 
# Structural Database, then it will include bibliographic, chemical, 
# crystal, experimental, refinement or atomic coordinate data resulting 
# from the CCDC's data processing and validation procedures.
#
#######################################################################

data_IHIDOU
_chemical_formula_moiety         'C20 H21 N1 O3 S1'
_chemical_name_systematic        
'Methyl 1-methyl-3-(2-methylphenyl)-1,9b-dihydro-3H-thiochromeno[4,3-c][1,2]oxazole-3a(4H)-carboxylate'
_symmetry_cell_setting           orthorhombic
_symmetry_space_group_name_H-M   'P b c a'
_symmetry_Int_Tables_number      61
_space_group_name_Hall           '-P 2ac 2ab'
loop_
_symmetry_equiv_pos_site_id
_symmetry_equiv_pos_as_xyz
1 x,y,z
2 1/2-x,-y,1/2+z
3 1/2+x,1/2-y,-z
4 -x,1/2+y,1/2-z
5 -x,-y,-z
6 1/2+x,y,1/2-z
7 1/2-x,1/2+y,z
8 x,1/2-y,1/2+z
_cell_length_a                   11.2629(11)
_cell_length_b                   13.2117(11)
_cell_length_c                   24.041(3)
_cell_angle_alpha                90
_cell_angle_beta                 90
_cell_angle_gamma                90
_cell_volume                     3577.35
_exptl_crystal_colour            colorless
_exptl_crystal_description       block
_cell_formula_units_Z            8
loop_
_atom_site_label
_atom_site_type_symbol
_atom_site_fract_x
_atom_site_fract_y
_atom_site_fract_z
C1 C 0.1021(2) 0.96898(18) 0.15232(10)
C2 C 0.1663(3) 1.0558(2) 0.16587(11)
H1 H 0.2488 1.0549 0.1644
C3 C 0.1082(4) 1.1428(2) 0.18133(13)
H2 H 0.1516 1.2001 0.1908
C4 C -0.0133(4) 1.1458(2) 0.18285(13)
H3 H -0.0524 1.2051 0.1928
C5 C -0.0774(3) 1.0602(2) 0.16959(11)
H4 H -0.1599 1.0627 0.1704
C6 C -0.0216(2) 0.96998(17) 0.15496(9)
C7 C -0.0973(2) 0.87834(17) 0.14347(9)
H5 H -0.1701 0.8994 0.1244
C8 C -0.0406(2) 0.79039(17) 0.11168(9)
C9 C 0.0803(2) 0.76400(18) 0.13613(10)
H6 H 0.1108 0.7038 0.1179
H7 H 0.0713 0.7489 0.1754
C10 C -0.0283(2) 0.80429(18) 0.04923(10)
C11 C -0.1085(4) 0.8784(3) -0.03165(13)
H8 H -0.0351 0.9079 -0.0439
H9 H -0.1734 0.9211 -0.0425
H10 H -0.1179 0.8128 -0.0483
C12 C -0.1353(2) 0.70812(18) 0.12471(10)
H11 H -0.2058 0.7209 0.1019
C13 C -0.0373(2) 0.5505(2) 0.15990(12)
H12 H -0.0221 0.5846 0.1930
C14 C 0.0011(3) 0.4518(2) 0.15331(15)
H13 H 0.0427 0.4197 0.1817
C15 C -0.0226(3) 0.4015(2) 0.10480(16)
H14 H 0.0041 0.3355 0.1000
C16 C -0.0850(3) 0.4478(2) 0.06366(14)
H15 H -0.1015 0.4122 0.0312
C17 C -0.1248(2) 0.5466(2) 0.06874(12)
C18 C -0.1961(3) 0.5916(3) 0.02205(13)
H16 H -0.1985 0.5450 -0.0086
H17 H -0.1600 0.6538 0.0102
H18 H -0.2755 0.6048 0.0347
C19 C -0.0983(2) 0.59892(18) 0.11741(10)
C20 C -0.2337(3) 0.8711(2) 0.22232(12)
H19 H -0.2966 0.8737 0.1954
H20 H -0.2167 0.9382 0.2353
H21 H -0.2576 0.8295 0.2531
N1 N -0.12874(18) 0.82867(15) 0.19689(8)
O1 O -0.1645(2) 0.72567(14) 0.18158(8)
O2 O 0.04071(18) 0.75906(16) 0.02133(8)
O3 O -0.1069(2) 0.86808(17) 0.02891(7)
S1 S 0.18494(6) 0.86516(5) 0.12793(3)
loop_
_geom_bond_atom_site_label_1
_geom_bond_atom_site_label_2
_geom_bond_site_symmetry_1
_geom_bond_site_symmetry_2
C1 C2 1_555 1_555
C2 H1 1_555 1_555
C3 C2 1_555 1_555
H2 C3 1_555 1_555
C4 C3 1_555 1_555
H3 C4 1_555 1_555
C5 C4 1_555 1_555
H4 C5 1_555 1_555
C6 C1 1_555 1_555
C7 C6 1_555 1_555
H5 C7 1_555 1_555
C8 C7 1_555 1_555
C9 C8 1_555 1_555
H6 C9 1_555 1_555
H7 C9 1_555 1_555
C10 C8 1_555 1_555
C11 H8 1_555 1_555
H9 C11 1_555 1_555
H10 C11 1_555 1_555
C12 C8 1_555 1_555
H11 C12 1_555 1_555
C13 H12 1_555 1_555
C14 C13 1_555 1_555
H13 C14 1_555 1_555
C15 C14 1_555 1_555
H14 C15 1_555 1_555
C16 C15 1_555 1_555
H15 C16 1_555 1_555
C17 C16 1_555 1_555
C18 C17 1_555 1_555
H16 C18 1_555 1_555
H17 C18 1_555 1_555
H18 C18 1_555 1_555
C19 C12 1_555 1_555
C20 H19 1_555 1_555
H20 C20 1_555 1_555
H21 C20 1_555 1_555
N1 C7 1_555 1_555
O1 C12 1_555 1_555
O2 C10 1_555 1_555
O3 C10 1_555 1_555
S1 C1 1_555 1_555
C5 C6 1_555 1_555
C9 S1 1_555 1_555
C11 O3 1_555 1_555
C13 C19 1_555 1_555
C17 C19 1_555 1_555
C20 N1 1_555 1_555
N1 O1 1_555 1_555

#END
