
#######################################################################
#
#                 Cambridge Crystallographic Data Centre
#                                CCDC 
#
#######################################################################
#
# If this CIF has been generated from an entry in the Cambridge 
# Structural Database, then it will include bibliographic, chemical, 
# crystal, experimental, refinement or atomic coordinate data resulting 
# from the CCDC's data processing and validation procedures.
#
#######################################################################

data_IHIKAN
_chemical_name_common            'Brocapyrone A'
_chemical_formula_moiety         'C16 H20 O6'
_chemical_name_systematic        
3,6,8-Trihydroxy-3-((6-methyltetrahydro-2H-pyran-2-yl)methyl)-3,4-dihydro-1H-isochromen-1-one
_chemical_properties_biological  
'culture of marine derived fungus Penicillium brocae MA-192'
_symmetry_cell_setting           orthorhombic
_symmetry_space_group_name_H-M   'P 21 21 21'
_symmetry_Int_Tables_number      19
_space_group_name_Hall           'P 2ac 2ab'
loop_
_symmetry_equiv_pos_site_id
_symmetry_equiv_pos_as_xyz
1 x,y,z
2 1/2-x,-y,1/2+z
3 -x,1/2+y,1/2-z
4 1/2+x,1/2-y,-z
_cell_length_a                   9.0904(11)
_cell_length_b                   11.7580(14)
_cell_length_c                   14.2487(16)
_cell_angle_alpha                90
_cell_angle_beta                 90
_cell_angle_gamma                90
_cell_volume                     1522.97
_exptl_crystal_colour            colorless
_exptl_crystal_description       prismatic
_chemical_melting_point          '166-168 deg.C'
_cell_formula_units_Z            4
_exptl_crystal_recrystallization_method methanol
loop_
_atom_site_label
_atom_site_type_symbol
_atom_site_fract_x
_atom_site_fract_y
_atom_site_fract_z
O1 O 0.84662(18) 0.68558(14) 0.57604(11)
O2 O 0.9473(2) 0.53621(15) 0.63988(11)
O3 O 0.9001(2) 0.33023(17) 0.57168(13)
H1 H 0.9314 0.3769 0.6095
O4 O 0.6315(2) 0.30134(15) 0.29264(13)
H2 H 0.5877 0.3403 0.2539
O5 O 0.59322(18) 0.69724(15) 0.57091(12)
H3 H 0.5796 0.7388 0.6163
O6 O 0.61338(19) 0.88962(13) 0.66791(11)
C1 C 0.8694(3) 0.5732(2) 0.57601(16)
C2 C 0.8059(3) 0.5040(2) 0.50253(16)
C3 C 0.8241(3) 0.3843(2) 0.50374(17)
C4 C 0.7622(3) 0.3187(2) 0.43342(17)
H4 H 0.7720 0.2400 0.4350
C5 C 0.6862(3) 0.3694(2) 0.36116(18)
C6 C 0.6680(3) 0.4881(2) 0.35860(17)
H5 H 0.6157 0.5219 0.3099
C7 C 0.7276(3) 0.5535(2) 0.42826(15)
C8 C 0.7174(3) 0.6810(2) 0.42628(16)
H6 H 0.6273 0.7031 0.3947
H7 H 0.7993 0.7112 0.3905
C9 C 0.7192(3) 0.7320(2) 0.52345(15)
C10 C 0.7417(3) 0.8597(2) 0.52317(17)
H8 H 0.6631 0.8937 0.4866
H9 H 0.8332 0.8758 0.4908
C11 C 0.7462(3) 0.91863(19) 0.61783(17)
H10 H 0.8313 0.8907 0.6532
C12 C 0.7583(3) 1.0470(2) 0.60732(19)
H11 H 0.8514 1.0659 0.5779
H12 H 0.6798 1.0742 0.5671
C13 C 0.7484(3) 1.1055(2) 0.7022(2)
H13 H 0.7445 1.1872 0.6934
H14 H 0.8352 1.0878 0.7390
C14 C 0.6117(3) 1.0660(2) 0.7542(2)
H15 H 0.6106 1.0989 0.8166
H16 H 0.5247 1.0919 0.7212
C15 C 0.6092(3) 0.9379(2) 0.76146(16)
H17 H 0.6963 0.9126 0.7962
C16 C 0.4739(3) 0.8921(3) 0.8091(2)
H18 H 0.4783 0.8106 0.8107
H19 H 0.3880 0.9156 0.7750
H20 H 0.4689 0.9210 0.8720
loop_
_geom_bond_atom_site_label_1
_geom_bond_atom_site_label_2
_geom_bond_site_symmetry_1
_geom_bond_site_symmetry_2
O1 C1 1_555 1_555
O2 C1 1_555 1_555
O3 H1 1_555 1_555
O4 H2 1_555 1_555
O5 H3 1_555 1_555
O6 C11 1_555 1_555
C1 C2 1_555 1_555
C2 C3 1_555 1_555
C3 O3 1_555 1_555
C4 C3 1_555 1_555
H4 C4 1_555 1_555
C5 O4 1_555 1_555
C6 C5 1_555 1_555
H5 C6 1_555 1_555
C7 C2 1_555 1_555
C8 C7 1_555 1_555
H6 C8 1_555 1_555
H7 C8 1_555 1_555
C9 O1 1_555 1_555
C10 C9 1_555 1_555
H8 C10 1_555 1_555
H9 C10 1_555 1_555
C11 C10 1_555 1_555
H10 C11 1_555 1_555
C12 C11 1_555 1_555
H11 C12 1_555 1_555
H12 C12 1_555 1_555
C13 C12 1_555 1_555
H13 C13 1_555 1_555
H14 C13 1_555 1_555
C14 C13 1_555 1_555
H15 C14 1_555 1_555
H16 C14 1_555 1_555
C15 O6 1_555 1_555
H17 C15 1_555 1_555
C16 C15 1_555 1_555
H18 C16 1_555 1_555
H19 C16 1_555 1_555
H20 C16 1_555 1_555
O5 C9 1_555 1_555
C4 C5 1_555 1_555
C6 C7 1_555 1_555
C8 C9 1_555 1_555
C14 C15 1_555 1_555

#END
