
#######################################################################
#
#                 Cambridge Crystallographic Data Centre
#                                CCDC 
#
#######################################################################
#
# If this CIF has been generated from an entry in the Cambridge 
# Structural Database, then it will include bibliographic, chemical, 
# crystal, experimental, refinement or atomic coordinate data resulting 
# from the CCDC's data processing and validation procedures.
#
#######################################################################

data_IHIMUJ
_chemical_formula_moiety         'C2 H6 N5 1+,N1 O3 1-'
_chemical_name_systematic        
'4-amino-2,4-dihydro-3H-1,2,4-triazol-3-iminium nitrate'
_symmetry_cell_setting           monoclinic
_symmetry_space_group_name_H-M   'P 21/c'
_symmetry_Int_Tables_number      14
_space_group_name_Hall           '-P 2ybc'
loop_
_symmetry_equiv_pos_site_id
_symmetry_equiv_pos_as_xyz
1 x,y,z
2 -x,1/2+y,1/2-z
3 -x,-y,-z
4 x,1/2-y,1/2+z
_cell_length_a                   8.5269(7)
_cell_length_b                   6.2650(4)
_cell_length_c                   12.7601(11)
_cell_angle_alpha                90
_cell_angle_beta                 112.003(2)
_cell_angle_gamma                90
_cell_volume                     632.009
_exptl_crystal_colour            yellow
_exptl_crystal_description       block
_cell_formula_units_Z            4
loop_
_atom_site_label
_atom_site_type_symbol
_atom_site_fract_x
_atom_site_fract_y
_atom_site_fract_z
H1 H 0.7984 0.5841 0.4469
H2 H 0.8941 0.1630 0.4725
N1 N 0.5525(7) 0.6219(8) 0.3865(5)
C1 C 0.506(3) 0.270(2) 0.3774(19)
N2 N 0.432(3) 0.461(2) 0.3586(16)
H3 H 0.3245 0.4818 0.3327
C2 C 0.6926(8) 0.5192(10) 0.4214(5)
N3 N 0.6685(8) 0.3044(10) 0.4166(5)
N4 N 0.430(2) 0.086(2) 0.3591(13)
H4 H 0.4882 -0.0299 0.3732
H5 H 0.3210 0.0796 0.3330
N5 N 0.7876(8) 0.1354(9) 0.4470(5)
H6 H 0.7533 0.0051 0.4399
O1 O 0.8362(4) 0.2526(4) 0.2093(4)
O2 O 1.0732(6) 0.2503(6) 0.3504(4)
O3 O 1.0733(6) 0.2602(6) 0.1863(4)
N6 N 0.9945(5) 0.2539(4) 0.2492(4)
N7? N 0.5539(15) 0.8787(19) 0.3908(9)
C3? C 0.495(8) 1.224(7) 0.371(5)
N8? N 0.427(4) 1.039(5) 0.357(2)
H7? H 0.3195 1.0148 0.3318
C4? C 0.6881(17) 0.980(2) 0.4234(11)
H8? H 0.7936 0.9140 0.4498
N9? N 0.668(2) 1.191(3) 0.4175(12)
N10? N 0.427(7) 1.411(5) 0.350(4)
H9? H 0.3185 1.4230 0.3222
H10? H 0.4895 1.5229 0.3637
N11? N 0.7883(17) 1.3657(19) 0.4459(10)
H11? H 0.8951 1.3398 0.4721
H12? H 0.7527 1.4954 0.4366
loop_
_geom_bond_atom_site_label_1
_geom_bond_atom_site_label_2
_geom_bond_site_symmetry_1
_geom_bond_site_symmetry_2
H1 C2 1_555 1_555
H2 N5 1_555 1_555
N1 N2 1_555 1_555
C1 N2 1_555 1_555
N2 H3 1_555 1_555
C2 N1 1_555 1_555
N3 C1 1_555 1_555
N4 C1 1_555 1_555
H4 N4 1_555 1_555
H5 N4 1_555 1_555
N5 N3 1_555 1_555
H6 N5 1_555 1_555
O1 N6 1_555 1_555
O2 N6 1_555 1_555
O3 N6 1_555 1_555
C2 N3 1_555 1_555

#END
