
#######################################################################
#
#                 Cambridge Crystallographic Data Centre
#                                CCDC 
#
#######################################################################
#
# If this CIF has been generated from an entry in the Cambridge 
# Structural Database, then it will include bibliographic, chemical, 
# crystal, experimental, refinement or atomic coordinate data resulting 
# from the CCDC's data processing and validation procedures.
#
#######################################################################

data_IHISEZ
_chemical_formula_moiety         'C21 H23 N1 O2 S1'
_chemical_name_systematic        
'methyl 1-methyl-3-(2-methylphenyl)-1,2,3,9b-tetrahydrothiochromeno[4,3-b]pyrrole-3a(4H)-carboxylate'
_symmetry_cell_setting           triclinic
_symmetry_space_group_name_H-M   'P -1'
_symmetry_Int_Tables_number      2
_space_group_name_Hall           '-P 1'
loop_
_symmetry_equiv_pos_site_id
_symmetry_equiv_pos_as_xyz
1 x,y,z
2 -x,-y,-z
_cell_length_a                   8.1882(3)
_cell_length_b                   10.4987(4)
_cell_length_c                   10.9594(4)
_cell_angle_alpha                104.5540(10)
_cell_angle_beta                 90.9830(10)
_cell_angle_gamma                90.1340(10)
_cell_volume                     911.742
_exptl_crystal_colour            colorless
_exptl_crystal_description       block
_cell_formula_units_Z            2
loop_
_atom_site_label
_atom_site_type_symbol
_atom_site_fract_x
_atom_site_fract_y
_atom_site_fract_z
C1 C 0.1321(2) 0.62046(16) 0.33099(15)
C2 C 0.0560(3) 0.6916(2) 0.43961(18)
H1 H -0.0253 0.6509 0.4748
C3 C 0.0976(3) 0.8203(2) 0.4965(2)
H2 H 0.0434 0.8661 0.5679
C4 C 0.2199(4) 0.8801(2) 0.4468(2)
H3 H 0.2487 0.9670 0.4845
C5 C 0.2994(3) 0.81250(19) 0.3421(2)
H4 H 0.3836 0.8534 0.3102
C6 C 0.2560(2) 0.68236(17) 0.28217(16)
C7 C 0.2650(2) 0.45327(17) 0.09015(16)
H5 H 0.1727 0.4687 0.0392
H6 H 0.3373 0.3921 0.0356
C8 C 0.20327(18) 0.39039(15) 0.19172(15)
C9 C 0.07923(18) 0.48030(16) 0.27409(15)
H7 H 0.0487 0.4408 0.3426
C10 C -0.2119(2) 0.5208(2) 0.2449(2)
H8 H -0.3002 0.4990 0.1844
H9 H -0.2028 0.6148 0.2747
H10 H -0.2328 0.4835 0.3146
C11 C -0.0773(2) 0.3283(2) 0.1264(2)
H11 H -0.1131 0.3147 0.0392
H12 H -0.1569 0.2884 0.1702
C12 C 0.0921(2) 0.26691(17) 0.13364(18)
H13 H 0.0856 0.2166 0.1976
C13 C 0.1522(2) 0.17354(16) 0.01548(17)
C14 C 0.1305(3) 0.2006(2) -0.10163(19)
H14 H 0.0742 0.2760 -0.1067
C15 C 0.1898(3) 0.1190(2) -0.2106(2)
H15 H 0.1722 0.1387 -0.2878
C16 C 0.2745(3) 0.0093(2) -0.2041(2)
H16 H 0.3181 -0.0447 -0.2767
C17 C 0.2953(3) -0.02130(19) -0.0912(2)
H17 H 0.3519 -0.0972 -0.0884
C18 C 0.2343(2) 0.05785(17) 0.02048(19)
C19 C 0.2546(3) 0.0131(2) 0.1378(2)
H18 H 0.3050 -0.0719 0.1187
H19 H 0.1495 0.0075 0.1738
H20 H 0.3223 0.0748 0.1969
C20 C 0.3469(2) 0.34856(16) 0.26130(16)
C21 C 0.4427(3) 0.3058(3) 0.4510(2)
H21 H 0.4697 0.2173 0.4077
H22 H 0.4048 0.3074 0.5338
H23 H 0.5379 0.3609 0.4579
N1 N -0.06074(15) 0.46851(14) 0.18600(14)
O1 O 0.47275(15) 0.30893(14) 0.21352(13)
O2 O 0.31503(18) 0.35417(16) 0.38084(13)
S1 S 0.37215(5) 0.60605(5) 0.15186(5)
loop_
_geom_bond_atom_site_label_1
_geom_bond_atom_site_label_2
_geom_bond_site_symmetry_1
_geom_bond_site_symmetry_2
C1 C2 1_555 1_555
C2 H1 1_555 1_555
C3 C2 1_555 1_555
H2 C3 1_555 1_555
C4 C3 1_555 1_555
H3 C4 1_555 1_555
C5 C4 1_555 1_555
H4 C5 1_555 1_555
C6 C1 1_555 1_555
C7 H5 1_555 1_555
H6 C7 1_555 1_555
C8 C7 1_555 1_555
C9 C1 1_555 1_555
H7 C9 1_555 1_555
C10 H8 1_555 1_555
H9 C10 1_555 1_555
H10 C10 1_555 1_555
C11 H11 1_555 1_555
H12 C11 1_555 1_555
C12 C8 1_555 1_555
H13 C12 1_555 1_555
C13 C12 1_555 1_555
C14 C13 1_555 1_555
H14 C14 1_555 1_555
C15 C14 1_555 1_555
H15 C15 1_555 1_555
C16 C15 1_555 1_555
H16 C16 1_555 1_555
C17 C16 1_555 1_555
H17 C17 1_555 1_555
C18 C13 1_555 1_555
C19 C18 1_555 1_555
H18 C19 1_555 1_555
H19 C19 1_555 1_555
H20 C19 1_555 1_555
C20 C8 1_555 1_555
C21 H21 1_555 1_555
H22 C21 1_555 1_555
H23 C21 1_555 1_555
N1 C9 1_555 1_555
O1 C20 1_555 1_555
O2 C20 1_555 1_555
S1 C6 1_555 1_555
C5 C6 1_555 1_555
C7 S1 1_555 1_555
C8 C9 1_555 1_555
C10 N1 1_555 1_555
C11 C12 1_555 1_555
C11 N1 1_555 1_555
C17 C18 1_555 1_555
C21 O2 1_555 1_555

#END
