
#######################################################################
#
#                 Cambridge Crystallographic Data Centre
#                                CCDC 
#
#######################################################################
#
# If this CIF has been generated from an entry in the Cambridge 
# Structural Database, then it will include bibliographic, chemical, 
# crystal, experimental, refinement or atomic coordinate data resulting 
# from the CCDC's data processing and validation procedures.
#
#######################################################################

data_IHODUF
_chemical_formula_moiety         'C32 H32 N4 S1 2+,2(Br1 1-),0.78(H2 O1)'
_chemical_name_systematic        
'1,5-bis(1-Benzyl-1H-benzimidazol-3-ium-3-yl)-3-thiapentane dibromide hydrate'
_symmetry_cell_setting           triclinic
_symmetry_space_group_name_H-M   'P -1'
_symmetry_Int_Tables_number      2
_space_group_name_Hall           '-P 1'
loop_
_symmetry_equiv_pos_site_id
_symmetry_equiv_pos_as_xyz
1 x,y,z
2 -x,-y,-z
_cell_length_a                   11.504(3)
_cell_length_b                   11.595(3)
_cell_length_c                   12.552(3)
_cell_angle_alpha                96.355(5)
_cell_angle_beta                 99.264(5)
_cell_angle_gamma                98.275(5)
_cell_volume                     1619.82
_exptl_crystal_colour            colorless
_exptl_crystal_description       block
_cell_formula_units_Z            2
_exptl_crystal_recrystallization_method methanol
loop_
_atom_site_label
_atom_site_type_symbol
_atom_site_fract_x
_atom_site_fract_y
_atom_site_fract_z
Br1 Br 0.32434(7) 0.05854(7) 0.59741(6)
Br2 Br 0.97315(17) 0.7496(2) 0.93994(18)
S1 S 0.43091(19) 0.33401(17) 0.35575(16)
N1 N 0.3507(4) 0.1612(4) 0.0055(4)
N2 N 0.4091(5) 0.1175(4) 0.1688(4)
N3 N 0.0665(5) 0.3462(5) 0.6666(5)
N4 N 0.1539(5) 0.3534(5) 0.5230(5)
C1 C 0.3167(6) 0.1396(5) 0.0990(5)
H1 H 0.2392 0.1399 0.1137
C2 C 0.4717(5) 0.1536(5) 0.0134(5)
C3 C 0.5502(6) 0.1680(5) -0.0612(5)
H2 H 0.5252 0.1865 -0.1314
C4 C 0.6667(6) 0.1532(6) -0.0245(6)
H3 H 0.7224 0.1618 -0.0714
C5 C 0.7042(6) 0.1257(6) 0.0806(6)
H4 H 0.7843 0.1170 0.1017
C6 C 0.6279(6) 0.1111(5) 0.1538(6)
H5 H 0.6540 0.0927 0.2238
C7 C 0.5089(5) 0.1249(5) 0.1185(5)
C8 C 0.2728(6) 0.1898(5) -0.0915(5)
H6 H 0.1893 0.1752 -0.0818
H7 H 0.2803 0.1382 -0.1564
C9 C 0.3061(5) 0.3180(5) -0.1084(5)
C10 C 0.2927(8) 0.4081(6) -0.0315(6)
H8 H 0.2638 0.3906 0.0318
C11 C 0.3221(9) 0.5252(7) -0.0484(7)
H9 H 0.3126 0.5866 0.0033
C12 C 0.3652(8) 0.5508(7) -0.1409(6)
H10 H 0.3861 0.6295 -0.1515
C13 C 0.3776(6) 0.4606(6) -0.2183(6)
H11 H 0.4065 0.4786 -0.2814
C14 C 0.3475(6) 0.3436(6) -0.2034(6)
H12 H 0.3550 0.2825 -0.2564
C15 C 0.4039(7) 0.0908(6) 0.2818(6)
H13 H 0.4354 0.0177 0.2916
H14 H 0.3205 0.0784 0.2916
C16 C 0.4747(7) 0.1886(7) 0.3675(6)
H15 H 0.5595 0.1941 0.3628
H16 H 0.4653 0.1679 0.4396
C17 C 0.1057(6) 0.2834(7) 0.5884(7)
H17 H 0.1004 0.2011 0.5801
C18 C 0.0897(6) 0.4670(6) 0.6534(6)
C19 C 0.0683(6) 0.5663(7) 0.7116(6)
H18 H 0.0308 0.5624 0.7727
C20 C 0.1042(6) 0.6730(7) 0.6766(6)
H19 H 0.0916 0.7431 0.7149
C21 C 0.1600(6) 0.6779(7) 0.5833(6)
H20 H 0.1823 0.7512 0.5607
C22 C 0.1819(6) 0.5782(7) 0.5257(6)
H21 H 0.2202 0.5816 0.4651
C23 C 0.1445(6) 0.4705(6) 0.5616(5)
C24 C 0.0084(6) 0.2970(8) 0.7547(7)
H22 H 0.0433 0.3448 0.8250
H23 H 0.0242 0.2167 0.7592
C25 C -0.1263(6) 0.2958(7) 0.7323(6)
C26 C -0.1794(6) 0.3851(7) 0.7793(6)
H24 H -0.1325 0.4475 0.8291
C27 C -0.3015(7) 0.3805(8) 0.7518(6)
H25 H -0.3371 0.4415 0.7818
C28 C -0.3726(6) 0.2872(7) 0.6806(6)
H26 H -0.4555 0.2856 0.6634
C29 C -0.3232(6) 0.1978(7) 0.6354(6)
H27 H -0.3722 0.1347 0.5879
C30 C -0.1992(6) 0.1997(6) 0.6595(6)
H28 H -0.1648 0.1386 0.6281
C31 C 0.2135(6) 0.3168(7) 0.4309(6)
H29 H 0.1845 0.3533 0.3672
H30 H 0.1951 0.2312 0.4111
C32 C 0.3479(6) 0.3555(7) 0.4661(6)
H31 H 0.3769 0.3111 0.5241
H32 H 0.3638 0.4390 0.4963
O1 O 0.0406(12) 0.9711(16) 0.5980(16)
H33 H 0.003(18) 0.98(3) 0.650(14)
H34 H 0.112(7) 0.99(3) 0.632(17)
Br3? Br 0.9596(2) 0.9630(3) 0.8034(3)
loop_
_geom_bond_atom_site_label_1
_geom_bond_atom_site_label_2
_geom_bond_site_symmetry_1
_geom_bond_site_symmetry_2
S1 C16 1_555 1_555
N1 C1 1_555 1_555
N2 C1 1_555 1_555
N3 C17 1_555 1_555
N4 C17 1_555 1_555
C1 H1 1_555 1_555
C2 N1 1_555 1_555
C3 C2 1_555 1_555
H2 C3 1_555 1_555
C4 C3 1_555 1_555
H3 C4 1_555 1_555
C5 C4 1_555 1_555
H4 C5 1_555 1_555
C6 C5 1_555 1_555
H5 C6 1_555 1_555
C7 N2 1_555 1_555
C8 N1 1_555 1_555
H6 C8 1_555 1_555
H7 C8 1_555 1_555
C9 C8 1_555 1_555
C10 C9 1_555 1_555
H8 C10 1_555 1_555
C11 C10 1_555 1_555
H9 C11 1_555 1_555
C12 C11 1_555 1_555
H10 C12 1_555 1_555
C13 C12 1_555 1_555
H11 C13 1_555 1_555
C14 C9 1_555 1_555
H12 C14 1_555 1_555
C15 N2 1_555 1_555
H13 C15 1_555 1_555
H14 C15 1_555 1_555
C16 C15 1_555 1_555
H15 C16 1_555 1_555
H16 C16 1_555 1_555
C17 H17 1_555 1_555
C18 N3 1_555 1_555
C19 C18 1_555 1_555
H18 C19 1_555 1_555
C20 C19 1_555 1_555
H19 C20 1_555 1_555
C21 C20 1_555 1_555
H20 C21 1_555 1_555
C22 C21 1_555 1_555
H21 C22 1_555 1_555
C23 N4 1_555 1_555
C24 N3 1_555 1_555
H22 C24 1_555 1_555
H23 C24 1_555 1_555
C25 C24 1_555 1_555
C26 C25 1_555 1_555
H24 C26 1_555 1_555
C27 C26 1_555 1_555
H25 C27 1_555 1_555
C28 C27 1_555 1_555
H26 C28 1_555 1_555
C29 C28 1_555 1_555
H27 C29 1_555 1_555
C30 C25 1_555 1_555
H28 C30 1_555 1_555
C31 N4 1_555 1_555
H29 C31 1_555 1_555
H30 C31 1_555 1_555
C32 S1 1_555 1_555
H31 C32 1_555 1_555
H32 C32 1_555 1_555
O1 H33 1_555 1_555
H34 O1 1_555 1_555
C2 C7 1_555 1_555
C6 C7 1_555 1_555
C13 C14 1_555 1_555
C18 C23 1_555 1_555
C22 C23 1_555 1_555
C29 C30 1_555 1_555
C31 C32 1_555 1_555

#END
