
#######################################################################
#
#                 Cambridge Crystallographic Data Centre
#                                CCDC 
#
#######################################################################
#
# If this CIF has been generated from an entry in the Cambridge 
# Structural Database, then it will include bibliographic, chemical, 
# crystal, experimental, refinement or atomic coordinate data resulting 
# from the CCDC's data processing and validation procedures.
#
#######################################################################

data_IHOHOC
_chemical_formula_moiety         'C24 H26 O5'
_chemical_name_systematic        
2-((2S*,3R*,4R*,5R*)-4-Benzoyl-5-((1R*)-1-acetoxyethyl)-2-methyltetrahydro-3-furanyl)-1-phenyl-1-ethanone
_symmetry_cell_setting           monoclinic
_symmetry_space_group_name_H-M   'P 21/c'
_symmetry_Int_Tables_number      14
_space_group_name_Hall           '-P 2ybc'
loop_
_symmetry_equiv_pos_site_id
_symmetry_equiv_pos_as_xyz
1 x,y,z
2 x,1/2-y,1/2+z
3 -x,-y,-z
4 -x,1/2+y,1/2-z
_cell_length_a                   11.5612(11)
_cell_length_b                   10.9672(11)
_cell_length_c                   17.5001(18)
_cell_angle_alpha                90
_cell_angle_beta                 108.290(2)
_cell_angle_gamma                90
_cell_volume                     2106.81
_exptl_crystal_colour            colorless
_exptl_crystal_description       block
_chemical_melting_point          '99-100 deg.C'
_cell_formula_units_Z            4
loop_
_atom_site_label
_atom_site_type_symbol
_atom_site_fract_x
_atom_site_fract_y
_atom_site_fract_z
O1 O 0.17694(12) 0.27013(14) 0.65321(9)
O2 O 0.19563(14) 0.31617(13) 0.50249(11)
O3 O 0.1857(2) 0.51213(17) 0.47083(17)
O4 O -0.03984(13) 0.02043(13) 0.61910(9)
O5 O -0.21658(16) 0.17598(15) 0.70752(12)
C1 C 0.08276(16) 0.23457(17) 0.58212(12)
H1 H 0.0994 0.1512 0.5666
C2 C -0.03842(16) 0.23440(16) 0.60351(11)
H2 H -0.0944 0.2972 0.5715
C3 C 0.00271(16) 0.26942(18) 0.69370(11)
H3 H 0.0194 0.1945 0.7270
C4 C 0.12197(17) 0.3370(2) 0.70333(13)
H4 H 0.1039 0.4211 0.6825
C5 C 0.07538(18) 0.32166(17) 0.51350(13)
H5 H 0.0593 0.4054 0.5287
C6 C 0.2388(2) 0.41771(19) 0.48079(13)
C7 C 0.3592(2) 0.3986(3) 0.46875(16)
H6 H 0.3835 0.3141 0.4797
H7 H 0.4193 0.4510 0.5051
H8 H 0.3533 0.4182 0.4136
C8 C -0.0189(2) 0.2863(2) 0.43506(14)
H9 H -0.0189 0.3457 0.3940
H10 H -0.0988 0.2843 0.4422
H11 H 0.0003 0.2064 0.4187
C9 C -0.09823(16) 0.10936(16) 0.58679(11)
C10 C -0.22265(16) 0.09483(17) 0.52836(11)
C11 C -0.26462(19) -0.02369(18) 0.50768(12)
H12 H -0.2154 -0.0902 0.5318
C12 C -0.3774(2) -0.0443(2) 0.45237(15)
H13 H -0.4049 -0.1246 0.4391
C13 C -0.4502(2) 0.0530(3) 0.41633(15)
H14 H -0.5271 0.0389 0.3785
C14 C -0.4102(2) 0.1704(2) 0.43582(15)
H15 H -0.4599 0.2362 0.4109
C15 C -0.29708(18) 0.1926(2) 0.49199(14)
H16 H -0.2707 0.2731 0.5055
C16 C -0.08793(17) 0.34871(19) 0.71789(12)
H17 H -0.0492 0.3781 0.7729
H18 H -0.1071 0.4201 0.6824
C17 C -0.20567(18) 0.28557(19) 0.71443(12)
C18 C -0.31029(17) 0.36435(19) 0.71718(12)
C19 C -0.29491(19) 0.4838(2) 0.74544(13)
H19 H -0.2162 0.5168 0.7661
C20 C -0.3956(2) 0.5543(2) 0.74323(15)
H20 H -0.3849 0.6347 0.7627
C21 C -0.5121(2) 0.5063(3) 0.71236(16)
H21 H -0.5801 0.5549 0.7098
C22 C -0.5282(2) 0.3872(3) 0.68542(14)
H22 H -0.6071 0.3545 0.6652
C23 C -0.42792(19) 0.3159(2) 0.68812(13)
H23 H -0.4391 0.2345 0.6703
C24 C 0.2100(2) 0.3410(3) 0.78770(16)
H24 H 0.2826 0.3854 0.7878
H25 H 0.2321 0.2586 0.8068
H26 H 0.1719 0.3817 0.8228
loop_
_geom_bond_atom_site_label_1
_geom_bond_atom_site_label_2
_geom_bond_site_symmetry_1
_geom_bond_site_symmetry_2
O1 C1 1_555 1_555
O2 C5 1_555 1_555
O3 C6 1_555 1_555
O4 C9 1_555 1_555
O5 C17 1_555 1_555
C1 H1 1_555 1_555
C2 C1 1_555 1_555
H2 C2 1_555 1_555
C3 C2 1_555 1_555
H3 C3 1_555 1_555
C4 O1 1_555 1_555
H4 C4 1_555 1_555
C5 C1 1_555 1_555
H5 C5 1_555 1_555
C6 O2 1_555 1_555
C7 C6 1_555 1_555
H6 C7 1_555 1_555
H7 C7 1_555 1_555
H8 C7 1_555 1_555
C8 C5 1_555 1_555
H9 C8 1_555 1_555
H10 C8 1_555 1_555
H11 C8 1_555 1_555
C9 C2 1_555 1_555
C10 C9 1_555 1_555
C11 C10 1_555 1_555
H12 C11 1_555 1_555
C12 C11 1_555 1_555
H13 C12 1_555 1_555
C13 C12 1_555 1_555
H14 C13 1_555 1_555
C14 C13 1_555 1_555
H15 C14 1_555 1_555
C15 C10 1_555 1_555
H16 C15 1_555 1_555
C16 C3 1_555 1_555
H17 C16 1_555 1_555
H18 C16 1_555 1_555
C17 C16 1_555 1_555
C18 C17 1_555 1_555
C19 C18 1_555 1_555
H19 C19 1_555 1_555
C20 C19 1_555 1_555
H20 C20 1_555 1_555
C21 C20 1_555 1_555
H21 C21 1_555 1_555
C22 C21 1_555 1_555
H22 C22 1_555 1_555
C23 C18 1_555 1_555
H23 C23 1_555 1_555
C24 C4 1_555 1_555
H24 C24 1_555 1_555
H25 C24 1_555 1_555
H26 C24 1_555 1_555
C3 C4 1_555 1_555
C14 C15 1_555 1_555
C22 C23 1_555 1_555

#END
