
#######################################################################
#
#                 Cambridge Crystallographic Data Centre
#                                CCDC 
#
#######################################################################
#
# If this CIF has been generated from an entry in the Cambridge 
# Structural Database, then it will include bibliographic, chemical, 
# crystal, experimental, refinement or atomic coordinate data resulting 
# from the CCDC's data processing and validation procedures.
#
#######################################################################

data_IHOHUI
_chemical_formula_moiety         'C16 H14 Br1 N1 O2'
_chemical_name_systematic        
(S,S)-2-(2'-Bromophenyl-4,5-dihydro-oxazol-4-yl)(phenyl)methanol
_symmetry_cell_setting           monoclinic
_symmetry_space_group_name_H-M   'P 21'
_symmetry_Int_Tables_number      4
_space_group_name_Hall           'P 2yb'
loop_
_symmetry_equiv_pos_site_id
_symmetry_equiv_pos_as_xyz
1 x,y,z
2 -x,1/2+y,-z
_cell_length_a                   12.624(2)
_cell_length_b                   8.817(2)
_cell_length_c                   14.573(2)
_cell_angle_alpha                90
_cell_angle_beta                 113.260(10)
_cell_angle_gamma                90
_cell_volume                     1490.22
_chemical_melting_point          '79.3-81.9 deg.C'
_cell_formula_units_Z            4
_exptl_crystal_recrystallization_method 'dichloromethane/petroleum ether'
loop_
_atom_site_label
_atom_site_type_symbol
_atom_site_fract_x
_atom_site_fract_y
_atom_site_fract_z
Br1 Br 0.78906(7) 0.69971(10) 0.27062(5)
O1 O 0.6705(3) 0.4439(4) 0.3395(3)
O2 O 0.4044(3) 0.2391(5) 0.3943(2)
H1 H 0.3952 0.1643 0.4238
N1 N 0.6187(4) 0.5464(5) 0.4578(3)
C1 C 0.8630(5) 0.6716(7) 0.4102(4)
C2 C 0.9738(6) 0.7302(8) 0.4578(6)
H2 H 1.0097 0.7761 0.4202
C3 C 1.0302(5) 0.7208(8) 0.5591(7)
H3 H 1.1037 0.7617 0.5905
C4 C 0.9768(5) 0.6494(7) 0.6154(5)
H4 H 1.0138 0.6431 0.6846
C5 C 0.8693(5) 0.5892(7) 0.5667(5)
H5 H 0.8337 0.5408 0.6037
C6 C 0.8119(5) 0.5980(6) 0.4644(4)
C7 C 0.6943(5) 0.5307(6) 0.4212(4)
C8 C 0.5473(4) 0.4080(7) 0.3061(3)
H6 H 0.5330 0.3015 0.2890
H7 H 0.5016 0.4688 0.2486
C9 C 0.5203(4) 0.4473(6) 0.3959(4)
H8 H 0.4492 0.5073 0.3731
C10 C 0.5079(4) 0.3164(6) 0.4565(4)
H9 H 0.4981 0.3558 0.5155
C11 C 0.6111(4) 0.2090(7) 0.4905(4)
C12 C 0.7003(5) 0.2302(7) 0.5834(4)
H10 H 0.6980 0.3094 0.6247
C13 C 0.7943(6) 0.1291(10) 0.6137(6)
H11 H 0.8535 0.1403 0.6765
C14 C 0.8000(7) 0.0161(10) 0.5530(8)
H12 H 0.8645 -0.0466 0.5728
C15 C 0.7129(8) -0.0055(8) 0.4645(7)
H13 H 0.7163 -0.0860 0.4246
C16 C 0.6168(5) 0.0899(8) 0.4308(5)
H14 H 0.5573 0.0736 0.3688
Br2 Br 0.97551(6) 0.39335(10) 0.82382(5)
O3 O 1.1745(3) 0.6269(4) 0.8762(3)
O4 O 1.4753(3) 0.8302(5) 0.9039(2)
H15 H 1.5327 0.8815 0.9343
N2 N 1.3390(4) 0.5078(5) 0.9708(3)
C17 C 1.0576(5) 0.4018(8) 0.9631(4)
C18 C 1.0068(5) 0.3406(8) 1.0234(6)
H16 H 0.9322 0.3023 0.9942
C19 C 1.0633(6) 0.3353(8) 1.1236(6)
H17 H 1.0272 0.2957 1.1629
C20 C 1.1729(6) 0.3879(9) 1.1668(4)
H18 H 1.2130 0.3819 1.2356
C21 C 1.2251(5) 0.4509(7) 1.1076(5)
H19 H 1.2999 0.4881 1.1379
C22 C 1.1694(4) 0.4597(6) 1.0060(4)
C23 C 1.2325(5) 0.5282(7) 0.9493(4)
C24 C 1.2553(4) 0.6658(7) 0.8315(4)
H20 H 1.2556 0.7743 0.8205
H21 H 1.2358 0.6140 0.7682
C25 C 1.3719(4) 0.6130(7) 0.9072(4)
H22 H 1.4120 0.5563 0.8727
C26 C 1.4514(4) 0.7364(7) 0.9715(4)
H23 H 1.5238 0.6879 1.0148
C27 C 1.4062(5) 0.8240(7) 1.0370(4)
C28 C 1.3330(5) 0.9428(8) 1.0016(5)
H24 H 1.3084 0.9694 0.9346
C29 C 1.2935(8) 1.0269(13) 1.0640(8)
H25 H 1.2452 1.1103 1.0403
C30 C 1.3283(9) 0.9814(13) 1.1576(11)
H26 H 1.2985 1.0320 1.1981
C31 C 1.4029(8) 0.8688(13) 1.1993(5)
H27 H 1.4289 0.8477 1.2672
C32 C 1.4401(5) 0.7835(7) 1.1360(5)
H28 H 1.4877 0.6998 1.1609
loop_
_geom_bond_atom_site_label_1
_geom_bond_atom_site_label_2
_geom_bond_site_symmetry_1
_geom_bond_site_symmetry_2
Br1 C1 1_555 1_555
O1 C7 1_555 1_555
O2 H1 1_555 1_555
N1 C7 1_555 1_555
C1 C2 1_555 1_555
C2 H2 1_555 1_555
C3 C2 1_555 1_555
H3 C3 1_555 1_555
C4 C3 1_555 1_555
H4 C4 1_555 1_555
C5 C4 1_555 1_555
H5 C5 1_555 1_555
C6 C1 1_555 1_555
C7 C6 1_555 1_555
C8 O1 1_555 1_555
H6 C8 1_555 1_555
H7 C8 1_555 1_555
C9 N1 1_555 1_555
H8 C9 1_555 1_555
C10 O2 1_555 1_555
H9 C10 1_555 1_555
C11 C10 1_555 1_555
C12 C11 1_555 1_555
H10 C12 1_555 1_555
C13 C12 1_555 1_555
H11 C13 1_555 1_555
C14 C13 1_555 1_555
H12 C14 1_555 1_555
C15 C14 1_555 1_555
H13 C15 1_555 1_555
C16 C11 1_555 1_555
H14 C16 1_555 1_555
Br2 C17 1_555 1_555
O3 C23 1_555 1_555
O4 H15 1_555 1_555
N2 C23 1_555 1_555
C17 C18 1_555 1_555
C18 H16 1_555 1_555
C19 C18 1_555 1_555
H17 C19 1_555 1_555
C20 C19 1_555 1_555
H18 C20 1_555 1_555
C21 C20 1_555 1_555
H19 C21 1_555 1_555
C22 C17 1_555 1_555
C23 C22 1_555 1_555
C24 O3 1_555 1_555
H20 C24 1_555 1_555
H21 C24 1_555 1_555
C25 N2 1_555 1_555
H22 C25 1_555 1_555
C26 O4 1_555 1_555
H23 C26 1_555 1_555
C27 C26 1_555 1_555
C28 C27 1_555 1_555
H24 C28 1_555 1_555
C29 C28 1_555 1_555
H25 C29 1_555 1_555
C30 C29 1_555 1_555
H26 C30 1_555 1_555
C31 C30 1_555 1_555
H27 C31 1_555 1_555
C32 C27 1_555 1_555
H28 C32 1_555 1_555
C5 C6 1_555 1_555
C8 C9 1_555 1_555
C9 C10 1_555 1_555
C15 C16 1_555 1_555
C21 C22 1_555 1_555
C24 C25 1_555 1_555
C25 C26 1_555 1_555
C31 C32 1_555 1_555

#END
