
#######################################################################
#
#                 Cambridge Crystallographic Data Centre
#                                CCDC 
#
#######################################################################
#
# If this CIF has been generated from an entry in the Cambridge 
# Structural Database, then it will include bibliographic, chemical, 
# crystal, experimental, refinement or atomic coordinate data resulting 
# from the CCDC's data processing and validation procedures.
#
#######################################################################

data_IHOHES
_chemical_formula_moiety         'C32 H25 N3 O8,C1 H2 Cl2'
_chemical_name_systematic        
'2-Cyano-1,3-diphenyl-1,4-bis(4-nitrobenzoyloxy)pentane dichloromethane solvate'
_symmetry_cell_setting           monoclinic
_symmetry_space_group_name_H-M   'P 21/n'
_symmetry_Int_Tables_number      14
_space_group_name_Hall           '-P 2yn'
loop_
_symmetry_equiv_pos_site_id
_symmetry_equiv_pos_as_xyz
1 x,y,z
2 1/2+x,1/2-y,1/2+z
3 -x,-y,-z
4 1/2-x,1/2+y,1/2-z
_cell_length_a                   13.157(3)
_cell_length_b                   10.260(4)
_cell_length_c                   24.519(4)
_cell_angle_alpha                90
_cell_angle_beta                 90.46(2)
_cell_angle_gamma                90
_cell_volume                     3309.73
_exptl_crystal_colour            colorless
_exptl_crystal_description       plate
_cell_formula_units_Z            4
loop_
_atom_site_label
_atom_site_type_symbol
_atom_site_fract_x
_atom_site_fract_y
_atom_site_fract_z
Cl1 Cl 0.5898(6) 0.0201(5) 0.4359(3)
Cl2 Cl 0.7117(6) -0.0958(7) 0.3512(4)
C33 C 0.679(2) 0.039(2) 0.392(2)
H26 H 0.6609 0.1080 0.3689
H27 H 0.7395 0.0625 0.4124
O1 O 0.6023(5) -0.1384(6) 0.1109(2)
O2 O 0.6607(8) -0.2552(8) 0.1800(4)
O3 O 0.3045(9) -0.636(1) 0.0203(5)
O4 O 0.3166(8) -0.727(1) 0.1025(5)
O5 O 0.8931(5) 0.0235(6) 0.0806(2)
O6 O 0.9380(7) -0.1188(9) 0.1458(4)
O7 O 1.2180(8) 0.4787(9) 0.1884(4)
O8 O 1.2618(8) 0.3516(9) 0.2517(3)
N1 N 0.505(1) 0.154(1) 0.0422(4)
N2 N 0.338(1) -0.644(1) 0.0647(8)
N3 N 1.2116(9) 0.374(1) 0.2127(4)
C1 C 0.6575(8) -0.0237(9) 0.1301(4)
C2 C 0.6775(9) 0.0606(9) 0.0797(4)
C3 C 0.7367(8) -0.0092(9) 0.0317(4)
C4 C 0.8330(8) -0.0770(9) 0.0529(4)
C5 C 0.893(1) -0.135(1) 0.0116(4)
C6 C 0.580(1) 0.116(1) 0.0594(4)
C7 C 0.6018(9) 0.047(1) 0.1732(4)
C8 C 0.654(1) 0.124(1) 0.2091(5)
C9 C 0.600(1) 0.197(1) 0.2486(6)
C10 C 0.498(1) 0.188(1) 0.2537(5)
C11 C 0.444(1) 0.112(1) 0.2178(6)
C12 C 0.495(1) 0.040(1) 0.1780(4)
C13 C 0.7546(8) 0.083(1) -0.0143(4)
C14 C 0.8000(9) 0.207(1) -0.0050(4)
C15 C 0.822(1) 0.284(1) -0.0525(7)
C16 C 0.799(1) 0.238(2) -0.1046(5)
C17 C 0.754(1) 0.122(1) -0.1118(5)
C18 C 0.732(1) 0.046(1) -0.0664(5)
C19 C 0.609(1) -0.247(1) 0.1408(4)
C20 C 0.5377(9) -0.348(1) 0.1207(4)
C21 C 0.485(1) -0.335(1) 0.0719(4)
C22 C 0.423(1) -0.430(1) 0.0542(5)
C23 C 0.411(1) -0.545(1) 0.0884(6)
C24 C 0.464(1) -0.555(1) 0.1345(6)
C25 C 0.527(1) -0.461(1) 0.1521(5)
C26 C 0.944(1) -0.010(1) 0.1256(5)
C27 C 1.0095(9) 0.093(1) 0.1492(4)
C28 C 1.020(1) 0.215(1) 0.1215(4)
C29 C 1.086(1) 0.307(1) 0.1434(4)
C30 C 1.1367(9) 0.278(1) 0.1908(4)
C31 C 1.132(1) 0.164(1) 0.2173(4)
C32 C 1.065(1) 0.071(1) 0.1974(4)
H1 H 0.7212 -0.0514 0.1448
H2 H 0.7185 0.1320 0.0914
H3 H 0.6932 -0.0758 0.0180
H4 H 0.8144 -0.1420 0.0786
H5 H 0.8542 -0.2004 -0.0065
H6 H 0.9124 -0.0702 -0.0139
H7 H 0.9517 -0.1730 0.0276
H8 H 0.7261 0.1293 0.2076
H9 H 0.6366 0.2541 0.2721
H10 H 0.4646 0.2338 0.2821
H11 H 0.3715 0.1079 0.2198
H12 H 0.4572 -0.0148 0.1538
H13 H 0.8152 0.2372 0.0308
H14 H 0.8519 0.3676 -0.0484
H15 H 0.8157 0.2888 -0.1355
H16 H 0.7376 0.0929 -0.1475
H17 H 0.6987 -0.0359 -0.0721
H18 H 0.4933 -0.2584 0.0507
H19 H 0.3869 -0.4227 0.0204
H20 H 0.4569 -0.6316 0.1558
H21 H 0.5638 -0.4706 0.1854
H22 H 0.9829 0.2321 0.0887
H23 H 1.0954 0.3891 0.1259
H24 H 1.1721 0.1480 0.2489
H25 H 1.0571 -0.0092 0.2165
loop_
_geom_bond_atom_site_label_1
_geom_bond_atom_site_label_2
_geom_bond_site_symmetry_1
_geom_bond_site_symmetry_2
Cl1 C33 1_555 1_555
Cl2 C33 1_555 1_555
O1 C1 1_555 1_555
O2 C19 1_555 1_555
O3 N2 1_555 1_555
O4 N2 1_555 1_555
O5 C4 1_555 1_555
O6 C26 1_555 1_555
O7 N3 1_555 1_555
O8 N3 1_555 1_555
N1 C6 1_555 1_555
N2 C23 1_555 1_555
N3 C30 1_555 1_555
C1 C2 1_555 1_555
C2 C3 1_555 1_555
C3 C4 1_555 1_555
C4 C5 1_555 1_555
C5 H5 1_555 1_555
C6 C2 1_555 1_555
C7 C1 1_555 1_555
C8 C7 1_555 1_555
C9 C8 1_555 1_555
C10 C9 1_555 1_555
C11 C10 1_555 1_555
C12 C7 1_555 1_555
C13 C3 1_555 1_555
C14 C13 1_555 1_555
C15 C14 1_555 1_555
C16 C15 1_555 1_555
C17 C16 1_555 1_555
C18 C13 1_555 1_555
C19 O1 1_555 1_555
C20 C19 1_555 1_555
C21 C20 1_555 1_555
C22 C21 1_555 1_555
C23 C22 1_555 1_555
C24 C23 1_555 1_555
C25 C20 1_555 1_555
C26 O5 1_555 1_555
C27 C26 1_555 1_555
C28 C27 1_555 1_555
C29 C28 1_555 1_555
C30 C29 1_555 1_555
C31 C30 1_555 1_555
C32 C27 1_555 1_555
C33 H26 1_555 1_555
H1 C1 1_555 1_555
H2 C2 1_555 1_555
H3 C3 1_555 1_555
H4 C4 1_555 1_555
H6 C5 1_555 1_555
H7 C5 1_555 1_555
H8 C8 1_555 1_555
H9 C9 1_555 1_555
H10 C10 1_555 1_555
H11 C11 1_555 1_555
H12 C12 1_555 1_555
H13 C14 1_555 1_555
H14 C15 1_555 1_555
H15 C16 1_555 1_555
H16 C17 1_555 1_555
H17 C18 1_555 1_555
H18 C21 1_555 1_555
H19 C22 1_555 1_555
H20 C24 1_555 1_555
H21 C25 1_555 1_555
H22 C28 1_555 1_555
H23 C29 1_555 1_555
H24 C31 1_555 1_555
H25 C32 1_555 1_555
H27 C33 1_555 1_555
C11 C12 1_555 1_555
C17 C18 1_555 1_555
C24 C25 1_555 1_555
C31 C32 1_555 1_555

#END
