
#######################################################################
#
#                 Cambridge Crystallographic Data Centre
#                                CCDC 
#
#######################################################################
#
# If this CIF has been generated from an entry in the Cambridge 
# Structural Database, then it will include bibliographic, chemical, 
# crystal, experimental, refinement or atomic coordinate data resulting 
# from the CCDC's data processing and validation procedures.
#
#######################################################################

data_IHOJAQ
_chemical_formula_moiety         'C17 H17 N1 O2'
_chemical_name_systematic        
(S,S)-(2-(4'-Methylphenyl)-4,5-dihydro-oxazol-4-yl)(phenyl)methanol
_symmetry_cell_setting           monoclinic
_symmetry_space_group_name_H-M   'P 21'
_symmetry_Int_Tables_number      4
_space_group_name_Hall           'P 2yb'
loop_
_symmetry_equiv_pos_site_id
_symmetry_equiv_pos_as_xyz
1 x,y,z
2 -x,1/2+y,-z
_cell_length_a                   7.778(2)
_cell_length_b                   9.602(3)
_cell_length_c                   9.977(2)
_cell_angle_alpha                90
_cell_angle_beta                 97.20(2)
_cell_angle_gamma                90
_cell_volume                     739.25
_chemical_melting_point          '105.8-106.7 deg.C'
_cell_formula_units_Z            2
_exptl_crystal_recrystallization_method 'dichloromethane/petroleum ether'
loop_
_atom_site_label
_atom_site_type_symbol
_atom_site_fract_x
_atom_site_fract_y
_atom_site_fract_z
O1 O 0.4811(2) 0.7253(2) 0.85916(17)
O2 O 0.6740(2) 0.4841(2) 0.56023(19)
H1 H 0.6634 0.4276 0.4981
N1 N 0.4106(3) 0.7809(2) 0.6399(2)
C1 C -0.2383(4) 1.0363(4) 0.9283(4)
H2 H -0.2919 1.0981 0.8598
H3 H -0.2107 1.0867 1.0113
H4 H -0.3166 0.9617 0.9416
C2 C -0.0757(4) 0.9777(3) 0.8850(3)
C3 C -0.0668(4) 0.9444(3) 0.7510(3)
H5 H -0.1619 0.9622 0.6870
C4 C 0.0783(4) 0.8860(3) 0.7104(3)
H6 H 0.0805 0.8644 0.6197
C5 C 0.2221(4) 0.8587(3) 0.8031(3)
C6 C 0.2159(4) 0.8949(3) 0.9366(3)
H7 H 0.3117 0.8798 1.0006
C7 C 0.0676(4) 0.9533(3) 0.9747(3)
H8 H 0.0655 0.9768 1.0649
C8 C 0.3742(4) 0.7890(3) 0.7608(3)
C9 C 0.6207(3) 0.6678(3) 0.7943(3)
H9 H 0.6368 0.5697 0.8156
H10 H 0.7284 0.7167 0.8222
C10 C 0.5628(4) 0.6885(3) 0.6433(3)
H11 H 0.6545 0.7364 0.6023
C11 C 0.5145(3) 0.5529(3) 0.5657(3)
H12 H 0.4651 0.5769 0.4734
C12 C 0.3853(3) 0.4644(3) 0.6280(3)
C13 C 0.4392(4) 0.3479(3) 0.7040(3)
H13 H 0.5560 0.3241 0.7169
C14 C 0.3212(6) 0.2676(4) 0.7604(4)
H14 H 0.3594 0.1896 0.8109
C15 C 0.1508(6) 0.2994(5) 0.7439(4)
H15 H 0.0725 0.2448 0.7838
C16 C 0.0939(4) 0.4139(5) 0.6673(4)
H16 H -0.0235 0.4358 0.6539
C17 C 0.2115(3) 0.4964(4) 0.6104(3)
H17 H 0.1727 0.5741 0.5597
loop_
_geom_bond_atom_site_label_1
_geom_bond_atom_site_label_2
_geom_bond_site_symmetry_1
_geom_bond_site_symmetry_2
O1 C8 1_555 1_555
O2 H1 1_555 1_555
N1 C8 1_555 1_555
C1 H2 1_555 1_555
H3 C1 1_555 1_555
H4 C1 1_555 1_555
C2 C1 1_555 1_555
C3 C2 1_555 1_555
H5 C3 1_555 1_555
C4 C3 1_555 1_555
H6 C4 1_555 1_555
C5 C4 1_555 1_555
C6 C5 1_555 1_555
H7 C6 1_555 1_555
C7 C2 1_555 1_555
H8 C7 1_555 1_555
C8 C5 1_555 1_555
C9 O1 1_555 1_555
H9 C9 1_555 1_555
H10 C9 1_555 1_555
C10 N1 1_555 1_555
H11 C10 1_555 1_555
C11 O2 1_555 1_555
H12 C11 1_555 1_555
C12 C11 1_555 1_555
C13 C12 1_555 1_555
H13 C13 1_555 1_555
C14 C13 1_555 1_555
H14 C14 1_555 1_555
C15 C14 1_555 1_555
H15 C15 1_555 1_555
C16 C15 1_555 1_555
H16 C16 1_555 1_555
C17 C12 1_555 1_555
H17 C17 1_555 1_555
C6 C7 1_555 1_555
C9 C10 1_555 1_555
C10 C11 1_555 1_555
C16 C17 1_555 1_555

#END
