
#######################################################################
#
#                 Cambridge Crystallographic Data Centre
#                                CCDC 
#
#######################################################################
#
# If this CIF has been generated from an entry in the Cambridge 
# Structural Database, then it will include bibliographic, chemical, 
# crystal, experimental, refinement or atomic coordinate data resulting 
# from the CCDC's data processing and validation procedures.
#
#######################################################################

data_IHOQIH
_chemical_formula_moiety         'C13 H4 N2 O3'
_chemical_name_systematic        
4-oxo-4H-furo[3,2-c]chromene-2,3-dicarbonitrile
_symmetry_cell_setting           orthorhombic
_symmetry_space_group_name_H-M   'C m c a'
_symmetry_Int_Tables_number      64
_space_group_name_Hall           '-C 2ac 2'
loop_
_symmetry_equiv_pos_site_id
_symmetry_equiv_pos_as_xyz
1 x,y,z
2 -x,1/2-y,1/2+z
3 1/2+x,1/2+y,z
4 1/2-x,-y,1/2+z
5 x,-y,-z
6 -x,1/2+y,1/2-z
7 1/2+x,1/2-y,-z
8 1/2-x,y,1/2-z
9 -x,-y,-z
10 x,1/2+y,1/2-z
11 1/2-x,1/2-y,-z
12 1/2+x,y,1/2-z
13 -x,y,z
14 x,1/2-y,1/2+z
15 1/2-x,1/2+y,z
16 1/2+x,-y,1/2+z
_cell_length_a                   6.3900(7)
_cell_length_b                   9.8310(11)
_cell_length_c                   32.790(3)
_cell_angle_alpha                90
_cell_angle_beta                 90
_cell_angle_gamma                90
_cell_volume                     2059.87
_exptl_crystal_colour            colorless
_exptl_crystal_description       plate
_cell_formula_units_Z            8
loop_
_atom_site_label
_atom_site_type_symbol
_atom_site_fract_x
_atom_site_fract_y
_atom_site_fract_z
O1 O 0.0000 0.36247(10) 0.19566(3)
O2 O 0.0000 0.14062(11) 0.18004(3)
O3 O 0.0000 0.45299(11) 0.07421(3)
N1 N 0.0000 -0.03383(15) 0.07859(5)
N2 N 0.0000 0.30383(16) -0.02030(5)
C1 C 0.0000 0.25665(15) 0.16761(4)
C2 C 0.0000 0.30058(15) 0.12545(4)
C3 C 0.0000 0.43564(15) 0.11531(4)
C4 C 0.0000 0.54413(14) 0.14429(4)
C5 C 0.0000 0.50010(15) 0.18503(4)
C6 C 0.0000 0.59293(17) 0.21696(4)
H1 H 0.0000 0.5629 0.2445
C7 C 0.0000 0.73132(17) 0.20764(5)
H2 H 0.0000 0.7959 0.2292
C8 C 0.0000 0.77722(16) 0.16732(5)
H3 H 0.0000 0.8720 0.1617
C9 C 0.0000 0.68431(15) 0.13537(4)
H4 H 0.0000 0.7149 0.1079
C10 C 0.0000 0.22688(15) 0.08784(4)
C11 C 0.0000 0.32407(15) 0.05793(4)
C12 C 0.0000 0.08280(17) 0.08210(4)
C13 C 0.0000 0.31415(16) 0.01455(5)
loop_
_geom_bond_atom_site_label_1
_geom_bond_atom_site_label_2
_geom_bond_site_symmetry_1
_geom_bond_site_symmetry_2
O1 C1 1_555 1_555
O2 C1 1_555 1_555
O3 C3 1_555 1_555
N1 C12 1_555 1_555
N2 C13 1_555 1_555
C1 C2 1_555 1_555
C2 C3 1_555 1_555
C3 C4 1_555 1_555
C4 C5 1_555 1_555
C5 O1 1_555 1_555
C6 C5 1_555 1_555
H1 C6 1_555 1_555
C7 C6 1_555 1_555
H2 C7 1_555 1_555
C8 C7 1_555 1_555
H3 C8 1_555 1_555
C9 C4 1_555 1_555
H4 C9 1_555 1_555
C10 C2 1_555 1_555
C11 O3 1_555 1_555
C12 C10 1_555 1_555
C13 C11 1_555 1_555
C8 C9 1_555 1_555
C10 C11 1_555 1_555

#END
