
#######################################################################
#
#                 Cambridge Crystallographic Data Centre
#                                CCDC 
#
#######################################################################
#
# If this CIF has been generated from an entry in the Cambridge 
# Structural Database, then it will include bibliographic, chemical, 
# crystal, experimental, refinement or atomic coordinate data resulting 
# from the CCDC's data processing and validation procedures.
#
#######################################################################

data_IHOQED
_chemical_formula_moiety         
'3(C48 H80 O40),35(H2 O1),2(Na1 1+),B12 Br12 2-'
_chemical_name_systematic        
'di-sodium tris(\g-cyclodextrin) dodecabromo-closo-dodecaborate unknown solvate pentatricontahydrate'
_symmetry_cell_setting           tetragonal
_symmetry_space_group_name_H-M   'I 4 2 2'
_symmetry_Int_Tables_number      97
_space_group_name_Hall           'I 4 2'
loop_
_symmetry_equiv_pos_site_id
_symmetry_equiv_pos_as_xyz
1 x,y,z
2 -y,x,z
3 x,-y,-z
4 -x,-y,z
5 -y,-x,-z
6 y,x,-z
7 y,-x,z
8 -x,y,-z
9 1/2+x,1/2+y,1/2+z
10 1/2-y,1/2+x,1/2+z
11 1/2+x,1/2-y,1/2-z
12 1/2-x,1/2-y,1/2+z
13 1/2-y,1/2-x,1/2-z
14 1/2+y,1/2+x,1/2-z
15 1/2+y,1/2-x,1/2+z
16 1/2-x,1/2+y,1/2-z
_cell_length_a                   23.7594(5)
_cell_length_b                   23.7594(5)
_cell_length_c                   56.732(2)
_cell_angle_alpha                90
_cell_angle_beta                 90
_cell_angle_gamma                90
_cell_volume                     32025.7
_exptl_crystal_colour            colorless
_exptl_crystal_description       plate
_cell_formula_units_Z            4
loop_
_atom_site_label
_atom_site_type_symbol
_atom_site_fract_x
_atom_site_fract_y
_atom_site_fract_z
Na1 Na 0.1632(8) 0.6839(8) 0.7408(4)
Na2 Na 0.1389(12) 0.6389(12) 0.7500
O11 O 0.2647(4) 0.5775(3) 0.57431(16)
O12 O 0.2475(4) 0.6562(4) 0.61183(15)
H21 H 0.2325 0.6243 0.6104
O13 O 0.3226(4) 0.7509(4) 0.60993(16)
H22 H 0.3041 0.7755 0.6150
O14 O 0.3905(3) 0.7204(4) 0.57433(15)
O15 O 0.3165(4) 0.7099(4) 0.54762(16)
O16 O 0.2469(6) 0.6414(5) 0.5187(2)
H23 H 0.2300 0.6200 0.5081
O17 O 0.4322(4) 0.7894(4) 0.61133(16)
H24 H 0.4087 0.8117 0.6053
O18 O 0.5514(4) 0.8089(5) 0.61023(16)
H25 H 0.5302 0.8116 0.6221
O19 O 0.5191(4) 0.7790(5) 0.54721(16)
O20 O 0.4221(5) 0.7817(6) 0.5195(2)
H26 H 0.4438 0.8073 0.5151
C13 C 0.2682(6) 0.6373(4) 0.5701(2)
H27 H 0.2309 0.6531 0.5654
C14 C 0.2897(5) 0.6639(5) 0.5932(2)
H28 H 0.3261 0.6462 0.5980
C15 C 0.2979(5) 0.7272(5) 0.5891(2)
H29 H 0.2604 0.7451 0.5864
C16 C 0.3360(4) 0.7390(6) 0.5681(2)
H30 H 0.3368 0.7804 0.5649
C17 C 0.3132(7) 0.6488(5) 0.5511(2)
H31 H 0.3505 0.6348 0.5569
C18 C 0.3009(8) 0.6226(7) 0.5268(3)
H32 H 0.3304 0.6339 0.5154
H33 H 0.3012 0.5810 0.5281
C19 C 0.4366(5) 0.7599(7) 0.5699(2)
H34 H 0.4209 0.7972 0.5649
C20 C 0.4683(5) 0.7664(7) 0.5928(2)
H35 H 0.4826 0.7287 0.5979
C21 C 0.5163(5) 0.8037(7) 0.5885(2)
H36 H 0.5012 0.8419 0.5847
C22 C 0.5518(5) 0.7847(7) 0.5682(2)
H37 H 0.5816 0.8136 0.5653
C23 C 0.4736(5) 0.7377(7) 0.5514(2)
H38 H 0.4899 0.7008 0.5564
C24 C 0.4458(6) 0.7321(8) 0.5266(3)
H39 H 0.4746 0.7204 0.5150
H40 H 0.4165 0.7025 0.5271
O11A O 0.4225(3) 0.2647(4) 0.57431(16)
O12A O 0.3438(4) 0.2475(4) 0.61183(15)
H21A H 0.3757 0.2325 0.6104
O13A O 0.2491(4) 0.3226(4) 0.60993(16)
H22A H 0.2245 0.3041 0.6150
O14A O 0.2796(4) 0.3905(3) 0.57433(15)
O15A O 0.2901(4) 0.3165(4) 0.54762(16)
O16A O 0.3586(5) 0.2469(6) 0.5187(2)
H23A H 0.3800 0.2300 0.5081
O17A O 0.2106(4) 0.4322(4) 0.61133(16)
H24A H 0.1883 0.4087 0.6053
O18A O 0.1911(5) 0.5514(4) 0.61023(16)
H25A H 0.1884 0.5302 0.6221
O19A O 0.2210(5) 0.5191(4) 0.54721(16)
O20A O 0.2183(6) 0.4221(5) 0.5195(2)
H26A H 0.1927 0.4438 0.5151
C13A C 0.3627(4) 0.2682(6) 0.5701(2)
H27A H 0.3469 0.2309 0.5654
C14A C 0.3361(5) 0.2897(5) 0.5932(2)
H28A H 0.3538 0.3261 0.5980
C15A C 0.2728(5) 0.2979(5) 0.5891(2)
H29A H 0.2549 0.2604 0.5864
C16A C 0.2610(6) 0.3360(4) 0.5681(2)
H30A H 0.2196 0.3368 0.5649
C17A C 0.3512(5) 0.3132(7) 0.5511(2)
H31A H 0.3652 0.3505 0.5569
C18A C 0.3774(7) 0.3009(8) 0.5268(3)
H32A H 0.3661 0.3304 0.5154
H33A H 0.4190 0.3012 0.5281
C19A C 0.2401(7) 0.4366(5) 0.5699(2)
H34A H 0.2028 0.4209 0.5649
C20A C 0.2336(7) 0.4683(5) 0.5928(2)
H35A H 0.2713 0.4826 0.5979
C21A C 0.1963(7) 0.5163(5) 0.5885(2)
H36A H 0.1581 0.5012 0.5847
C22A C 0.2153(7) 0.5518(5) 0.5682(2)
H37A H 0.1864 0.5816 0.5653
C23A C 0.2623(7) 0.4736(5) 0.5514(2)
H38A H 0.2992 0.4899 0.5564
C24A C 0.2679(8) 0.4458(6) 0.5266(3)
H39A H 0.2796 0.4746 0.5150
H40A H 0.2975 0.4165 0.5271
O11F O 0.5775(3) 0.7353(4) 0.57431(16)
O12F O 0.6562(4) 0.7525(4) 0.61183(15)
H21F H 0.6243 0.7675 0.6104
O13F O 0.7509(4) 0.6774(4) 0.60993(16)
H22F H 0.7755 0.6959 0.6150
O14F O 0.7204(4) 0.6095(3) 0.57433(15)
O15F O 0.7099(4) 0.6835(4) 0.54762(16)
O16F O 0.6414(5) 0.7531(6) 0.5187(2)
H23F H 0.6200 0.7700 0.5081
O17F O 0.7894(4) 0.5678(4) 0.61133(16)
H24F H 0.8117 0.5913 0.6053
O18F O 0.8089(5) 0.4486(4) 0.61023(16)
H25F H 0.8116 0.4698 0.6221
O19F O 0.7790(5) 0.4809(4) 0.54721(16)
O20F O 0.7817(6) 0.5779(5) 0.5195(2)
H26F H 0.8073 0.5562 0.5151
C13F C 0.6373(4) 0.7318(6) 0.5701(2)
H27F H 0.6531 0.7691 0.5654
C14F C 0.6639(5) 0.7103(5) 0.5932(2)
H28F H 0.6462 0.6739 0.5980
C15F C 0.7272(5) 0.7021(5) 0.5891(2)
H29F H 0.7451 0.7396 0.5864
C16F C 0.7390(6) 0.6640(4) 0.5681(2)
H30F H 0.7804 0.6632 0.5649
C17F C 0.6488(5) 0.6868(7) 0.5511(2)
H31F H 0.6348 0.6495 0.5569
C18F C 0.6226(7) 0.6991(8) 0.5268(3)
H32F H 0.6339 0.6696 0.5154
H33F H 0.5810 0.6988 0.5281
C19F C 0.7599(7) 0.5634(5) 0.5699(2)
H34F H 0.7972 0.5791 0.5649
C20F C 0.7664(7) 0.5317(5) 0.5928(2)
H35F H 0.7287 0.5174 0.5979
C21F C 0.8037(7) 0.4837(5) 0.5885(2)
H36F H 0.8419 0.4988 0.5847
C22F C 0.7847(7) 0.4482(5) 0.5682(2)
H37F H 0.8136 0.4184 0.5653
C23F C 0.7377(7) 0.5264(5) 0.5514(2)
H38F H 0.7008 0.5101 0.5564
C24F C 0.7321(8) 0.5542(6) 0.5266(3)
H39F H 0.7204 0.5254 0.5150
H40F H 0.7025 0.5835 0.5271
O11C O 0.7353(4) 0.4225(3) 0.57431(16)
O12C O 0.7525(4) 0.3438(4) 0.61183(15)
H21C H 0.7675 0.3757 0.6104
O13C O 0.6774(4) 0.2491(4) 0.60993(16)
H22C H 0.6959 0.2245 0.6150
O14C O 0.6095(3) 0.2796(4) 0.57433(15)
O15C O 0.6835(4) 0.2901(4) 0.54762(16)
O16C O 0.7531(6) 0.3586(5) 0.5187(2)
H23C H 0.7700 0.3800 0.5081
O17C O 0.5678(4) 0.2106(4) 0.61133(16)
H24C H 0.5913 0.1883 0.6053
O18C O 0.4486(4) 0.1911(5) 0.61023(16)
H25C H 0.4698 0.1884 0.6221
O19C O 0.4809(4) 0.2210(5) 0.54721(16)
O20C O 0.5779(5) 0.2183(6) 0.5195(2)
H26C H 0.5562 0.1927 0.5151
C13C C 0.7318(6) 0.3627(4) 0.5701(2)
H27C H 0.7691 0.3469 0.5654
C14C C 0.7103(5) 0.3361(5) 0.5932(2)
H28C H 0.6739 0.3538 0.5980
C15C C 0.7021(5) 0.2728(5) 0.5891(2)
H29C H 0.7396 0.2549 0.5864
C16C C 0.6640(4) 0.2610(6) 0.5681(2)
H30C H 0.6632 0.2196 0.5649
C17C C 0.6868(7) 0.3512(5) 0.5511(2)
H31C H 0.6495 0.3652 0.5569
C18C C 0.6991(8) 0.3774(7) 0.5268(3)
H32C H 0.6696 0.3661 0.5154
H33C H 0.6988 0.4190 0.5281
C19C C 0.5634(5) 0.2401(7) 0.5699(2)
H34C H 0.5791 0.2028 0.5649
C20C C 0.5317(5) 0.2336(7) 0.5928(2)
H35C H 0.5174 0.2713 0.5979
C21C C 0.4837(5) 0.1963(7) 0.5885(2)
H36C H 0.4988 0.1581 0.5847
C22C C 0.4482(5) 0.2153(7) 0.5682(2)
H37C H 0.4184 0.1864 0.5653
C23C C 0.5264(5) 0.2623(7) 0.5514(2)
H38C H 0.5101 0.2992 0.5564
C24C C 0.5542(6) 0.2679(8) 0.5266(3)
H39C H 0.5254 0.2796 0.5150
H40C H 0.5835 0.2975 0.5271
O21 O 0.4895(3) 0.7488(4) 0.84359(17)
O22 O 0.4379(4) 0.8070(4) 0.87894(19)
H41 H 0.4267 0.8411 0.8810
O23 O 0.3339(3) 0.7440(4) 0.88095(17)
H42 H 0.3092 0.7184 0.8776
O24 O 0.3193(3) 0.6664(3) 0.84410(16)
O25 O 0.4169(3) 0.7678(4) 0.81664(17)
O26 O 0.3283(4) 0.7420(4) 0.78727(17)
H43 H 0.3443 0.7736 0.7873
O27 O 0.2385(4) 0.6712(4) 0.87913(18)
H44 H 0.2151 0.6953 0.8813
O28 O 0.2030(5) 0.5543(4) 0.87885(19)
H45 H 0.1697 0.5620 0.8793
O29 O 0.2548(4) 0.6310(4) 0.81657(18)
O30 O 0.2032(6) 0.5509(8) 0.7879(3)
H46 H 0.1820 0.5486 0.7997
C25 C 0.4463(5) 0.7867(5) 0.8368(3)
H47 H 0.4632 0.8244 0.8335
C26 C 0.4057(5) 0.7916(5) 0.8580(3)
H48 H 0.3775 0.8218 0.8547
C27 C 0.3754(5) 0.7372(5) 0.8623(3)
H49 H 0.4030 0.7074 0.8668
C28 C 0.3452(5) 0.7204(5) 0.8390(2)
H50 H 0.3165 0.7490 0.8343
C29 C 0.3909(5) 0.7128(5) 0.8197(2)
H51 H 0.4194 0.6840 0.8245
C30 C 0.3668(5) 0.6995(5) 0.7960(2)
H52 H 0.3980 0.6952 0.7846
H53 H 0.3467 0.6631 0.7969
C31 C 0.2622(5) 0.6627(5) 0.8379(3)
H54 H 0.2485 0.7018 0.8349
C32 C 0.2279(6) 0.6392(5) 0.8579(3)
H55 H 0.1871 0.6424 0.8539
C33 C 0.2419(6) 0.5779(5) 0.8622(3)
H56 H 0.2813 0.5743 0.8682
C34 C 0.2357(6) 0.5462(5) 0.8388(3)
H57 H 0.1954 0.5473 0.8338
C35 C 0.2707(7) 0.5730(5) 0.8205(3)
H58 H 0.3109 0.5720 0.8257
C36 C 0.2665(8) 0.5456(7) 0.7960(3)
H59 H 0.2778 0.5055 0.7968
H60 H 0.2916 0.5651 0.7847
O21A O 0.2512(4) 0.4895(3) 0.84359(17)
O22A O 0.1930(4) 0.4379(4) 0.87894(19)
H41A H 0.1589 0.4267 0.8810
O23A O 0.2560(4) 0.3339(3) 0.88095(17)
H42A H 0.2816 0.3092 0.8776
O24A O 0.3336(3) 0.3193(3) 0.84410(16)
O25A O 0.2322(4) 0.4169(3) 0.81664(17)
O26A O 0.2580(4) 0.3283(4) 0.78727(17)
H43A H 0.2264 0.3443 0.7873
O27A O 0.3288(4) 0.2385(4) 0.87913(18)
H44A H 0.3047 0.2151 0.8813
O28A O 0.4457(4) 0.2030(5) 0.87885(19)
H45A H 0.4380 0.1697 0.8793
O29A O 0.3690(4) 0.2548(4) 0.81657(18)
O30A O 0.4491(8) 0.2032(6) 0.7879(3)
H46A H 0.4514 0.1820 0.7997
C25A C 0.2133(5) 0.4463(5) 0.8368(3)
H47A H 0.1756 0.4632 0.8335
C26A C 0.2084(5) 0.4057(5) 0.8580(3)
H48A H 0.1782 0.3775 0.8547
C27A C 0.2628(5) 0.3754(5) 0.8623(3)
H49A H 0.2926 0.4030 0.8668
C28A C 0.2796(5) 0.3452(5) 0.8390(2)
H50A H 0.2510 0.3165 0.8343
C29A C 0.2872(5) 0.3909(5) 0.8197(2)
H51A H 0.3160 0.4194 0.8245
C30A C 0.3005(5) 0.3668(5) 0.7960(2)
H52A H 0.3048 0.3980 0.7846
H53A H 0.3369 0.3467 0.7969
C31A C 0.3373(5) 0.2622(5) 0.8379(3)
H54A H 0.2982 0.2485 0.8349
C32A C 0.3608(5) 0.2279(6) 0.8579(3)
H55A H 0.3576 0.1871 0.8539
C33A C 0.4221(5) 0.2419(6) 0.8622(3)
H56A H 0.4257 0.2813 0.8682
C34A C 0.4538(5) 0.2357(6) 0.8388(3)
H57A H 0.4527 0.1954 0.8338
C35A C 0.4270(5) 0.2707(7) 0.8205(3)
H58A H 0.4280 0.3109 0.8257
C36A C 0.4544(7) 0.2665(8) 0.7960(3)
H59A H 0.4945 0.2778 0.7968
H60A H 0.4349 0.2916 0.7847
O21F O 0.7488(4) 0.5105(3) 0.84359(17)
O22F O 0.8070(4) 0.5621(4) 0.87894(19)
H41F H 0.8411 0.5733 0.8810
O23F O 0.7440(4) 0.6661(3) 0.88095(17)
H42F H 0.7184 0.6908 0.8776
O24F O 0.6664(3) 0.6807(3) 0.84410(16)
O25F O 0.7678(4) 0.5831(3) 0.81664(17)
O26F O 0.7420(4) 0.6717(4) 0.78727(17)
H43F H 0.7736 0.6557 0.7873
O27F O 0.6712(4) 0.7615(4) 0.87913(18)
H44F H 0.6953 0.7849 0.8813
O28F O 0.5543(4) 0.7970(5) 0.87885(19)
H45F H 0.5620 0.8303 0.8793
O29F O 0.6310(4) 0.7452(4) 0.81657(18)
O30F O 0.5509(8) 0.7968(6) 0.7879(3)
H46F H 0.5486 0.8180 0.7997
C25F C 0.7867(5) 0.5537(5) 0.8368(3)
H47F H 0.8244 0.5368 0.8335
C26F C 0.7916(5) 0.5943(5) 0.8580(3)
H48F H 0.8218 0.6225 0.8547
C27F C 0.7372(5) 0.6246(5) 0.8623(3)
H49F H 0.7074 0.5970 0.8668
C28F C 0.7204(5) 0.6548(5) 0.8390(2)
H50F H 0.7490 0.6835 0.8343
C29F C 0.7128(5) 0.6091(5) 0.8197(2)
H51F H 0.6840 0.5806 0.8245
C30F C 0.6995(5) 0.6332(5) 0.7960(2)
H52F H 0.6952 0.6020 0.7846
H53F H 0.6631 0.6533 0.7969
C31F C 0.6627(5) 0.7378(5) 0.8379(3)
H54F H 0.7018 0.7515 0.8349
C32F C 0.6392(5) 0.7721(6) 0.8579(3)
H55F H 0.6424 0.8129 0.8539
C33F C 0.5779(5) 0.7581(6) 0.8622(3)
H56F H 0.5743 0.7187 0.8682
C34F C 0.5462(5) 0.7643(6) 0.8388(3)
H57F H 0.5473 0.8046 0.8338
C35F C 0.5730(5) 0.7293(7) 0.8205(3)
H58F H 0.5720 0.6891 0.8257
C36F C 0.5456(7) 0.7335(8) 0.7960(3)
H59F H 0.5055 0.7222 0.7968
H60F H 0.5651 0.7084 0.7847
O21C O 0.5105(3) 0.2512(4) 0.84359(17)
O22C O 0.5621(4) 0.1930(4) 0.87894(19)
H41C H 0.5733 0.1589 0.8810
O23C O 0.6661(3) 0.2560(4) 0.88095(17)
H42C H 0.6908 0.2816 0.8776
O24C O 0.6807(3) 0.3336(3) 0.84410(16)
O25C O 0.5831(3) 0.2322(4) 0.81664(17)
O26C O 0.6717(4) 0.2580(4) 0.78727(17)
H43C H 0.6557 0.2264 0.7873
O27C O 0.7615(4) 0.3288(4) 0.87913(18)
H44C H 0.7849 0.3047 0.8813
O28C O 0.7970(5) 0.4457(4) 0.87885(19)
H45C H 0.8303 0.4380 0.8793
O29C O 0.7452(4) 0.3690(4) 0.81657(18)
O30C O 0.7968(6) 0.4491(8) 0.7879(3)
H46C H 0.8180 0.4514 0.7997
C25C C 0.5537(5) 0.2133(5) 0.8368(3)
H47C H 0.5368 0.1756 0.8335
C26C C 0.5943(5) 0.2084(5) 0.8580(3)
H48C H 0.6225 0.1782 0.8547
C27C C 0.6246(5) 0.2628(5) 0.8623(3)
H49C H 0.5970 0.2926 0.8668
C28C C 0.6548(5) 0.2796(5) 0.8390(2)
H50C H 0.6835 0.2510 0.8343
C29C C 0.6091(5) 0.2872(5) 0.8197(2)
H51C H 0.5806 0.3160 0.8245
C30C C 0.6332(5) 0.3005(5) 0.7960(2)
H52C H 0.6020 0.3048 0.7846
H53C H 0.6533 0.3369 0.7969
C31C C 0.7378(5) 0.3373(5) 0.8379(3)
H54C H 0.7515 0.2982 0.8349
C32C C 0.7721(6) 0.3608(5) 0.8579(3)
H55C H 0.8129 0.3576 0.8539
C33C C 0.7581(6) 0.4221(5) 0.8622(3)
H56C H 0.7187 0.4257 0.8682
C34C C 0.7643(6) 0.4538(5) 0.8388(3)
H57C H 0.8046 0.4527 0.8338
C35C C 0.7293(7) 0.4270(5) 0.8205(3)
H58C H 0.6891 0.4280 0.8257
C36C C 0.7335(8) 0.4544(7) 0.7960(3)
H59C H 0.7222 0.4945 0.7968
H60C H 0.7084 0.4349 0.7847
Br1 Br 0.4735(2) 0.57644(18) 0.57935(8)
Br2 Br 0.3826(2) 0.5982(3) 0.63418(10)
Br3 Br 0.3781(2) 0.4565(3) 0.66797(10)
B1 B 0.4866(16) 0.5367(17) 0.6082(6)
B2 B 0.440(3) 0.550(3) 0.6335(12)
B3 B 0.453(3) 0.479(3) 0.6487(10)
Br1A Br 0.42356(18) 0.4735(2) 0.57935(8)
Br2A Br 0.4018(3) 0.3826(2) 0.63418(10)
Br3A Br 0.5435(3) 0.3781(2) 0.66797(10)
B1A B 0.4633(17) 0.4866(16) 0.6082(6)
B2A B 0.450(3) 0.440(3) 0.6335(12)
B3A B 0.521(3) 0.453(3) 0.6487(10)
Br1C Br 0.5265(2) 0.42356(18) 0.57935(8)
Br2C Br 0.6174(2) 0.4018(3) 0.63418(10)
Br3C Br 0.6219(2) 0.5435(3) 0.66797(10)
B1C B 0.5134(16) 0.4633(17) 0.6082(6)
B2C B 0.560(3) 0.450(3) 0.6335(12)
B3C B 0.547(3) 0.521(3) 0.6487(10)
Br1F Br 0.57644(18) 0.5265(2) 0.57935(8)
Br2F Br 0.5982(3) 0.6174(2) 0.63418(10)
Br3F Br 0.4565(3) 0.6219(2) 0.66797(10)
B1F B 0.5367(17) 0.5134(16) 0.6082(6)
B2F B 0.550(3) 0.560(3) 0.6335(12)
B3F B 0.479(3) 0.547(3) 0.6487(10)
O31 O 0.5708(19) 0.929(3) 0.6592(9)
H61 H 0.5884 0.9508 0.6693
H62 H 0.5780 0.9373 0.6442
O32 O 0.0916(7) 0.5829(6) 0.8871(3)
H63 H 0.0756 0.6146 0.8896
H64 H 0.0934 0.5646 0.9015
O33 O 0.3330(4) 0.8859(4) 0.73122(19)
H65 H 0.3327 0.9022 0.7441
H66 H 0.3613 0.8931 0.7233
O34 O 0.2384(8) 0.7616(8) 0.5000
O35 O 0.305(4) 0.699(4) 0.9573(14)
H67 H 0.2728 0.6933 0.9497
H68 H 0.3216 0.6695 0.9633
O36 O 0.4113(6) 0.9031(6) 0.6097(3)
H69 H 0.4081 0.9155 0.5941
H70 H 0.4505 0.9112 0.6118
O37 O 0.5125(14) 0.9063(12) 0.7260(6)
H71 H 0.5406 0.9188 0.7179
H72 H 0.5124 0.9120 0.7404
O38 O 0.4562(12) 0.9160(15) 0.6590(6)
H73 H 0.4472 0.9240 0.6725
H74 H 0.4299 0.9121 0.6497
O39 O 0.4179(7) 0.9345(7) 0.7041(3)
H75 H 0.4122 0.9733 0.7045
H76 H 0.4466 0.9274 0.7113
O40 O 0.579(2) 0.9516(17) 0.5628(7)
H77 H 0.5923 0.9859 0.5579
H78 H 0.5419 0.9512 0.5663
O41 O 0.249(3) 0.613(3) 0.9290(11)
O42 O 0.409(3) 0.935(3) 0.5600(14)
O43 O 0.5000 0.8499(10) 0.5000
O44 O 0.3771(18) 0.781(2) 0.9256(7)
O45 O 0.472(2) 0.606(3) 0.7606(10)
O1 O 0.2536(4) 0.5361(3) 0.69189(16)
O2 O 0.1975(4) 0.5976(4) 0.65766(17)
H1 H 0.2045 0.6169 0.6462
O3 O 0.2789(4) 0.6901(3) 0.65623(14)
H2 H 0.2728 0.6748 0.6431
O4 O 0.3557(3) 0.6987(3) 0.69284(15)
O5 O 0.2469(5) 0.6102(3) 0.71996(17)
O6 O 0.2824(5) 0.6958(4) 0.74663(19)
H3 H 0.2962 0.7149 0.7577
O7 O 0.3547(4) 0.7830(4) 0.65791(16)
H4 H 0.3506 0.7493 0.6538
O8 O 0.4849(4) 0.7976(5) 0.74760(18)
H5 H 0.5091 0.8004 0.7583
O9 O 0.3968(3) 0.7597(4) 0.71965(16)
O10 O 0.4771(4) 0.7989(5) 0.65638(17)
H6 H 0.4611 0.7968 0.6432
C1 C 0.2217(7) 0.5842(5) 0.6991(2)
H7 H 0.1823 0.5724 0.7028
C2 C 0.2212(6) 0.6251(5) 0.6788(2)
H8 H 0.1961 0.6573 0.6831
C3 C 0.2806(6) 0.6487(5) 0.6740(2)
H9 H 0.3069 0.6176 0.6694
C4 C 0.2998(5) 0.6760(5) 0.6967(2)
H10 H 0.2731 0.7064 0.7015
C5 C 0.3035(7) 0.6295(6) 0.7163(3)
H11 H 0.3284 0.5978 0.7111
C6 C 0.3220(7) 0.6522(6) 0.7397(2)
H12 H 0.3225 0.6218 0.7516
H13 H 0.3604 0.6681 0.7385
C7 C 0.3617(5) 0.7558(5) 0.6993(2)
H14 H 0.3240 0.7727 0.7026
C8 C 0.3889(5) 0.7855(6) 0.6782(2)
H15 H 0.3922 0.8261 0.6825
C9 C 0.4470(5) 0.7653(6) 0.6731(2)
H16 H 0.4460 0.7251 0.6678
C10 C 0.4819(4) 0.7705(8) 0.6969(2)
H17 H 0.4858 0.8109 0.7016
C11 C 0.4812(6) 0.7399(7) 0.7400(2)
H18 H 0.4591 0.7178 0.7516
H19 H 0.5194 0.7233 0.7390
C12 C 0.4530(5) 0.7377(7) 0.7161(2)
H20 H 0.4500 0.6974 0.7111
O1A O 0.4639(3) 0.2536(4) 0.69189(16)
O2A O 0.4024(4) 0.1975(4) 0.65766(17)
H1A H 0.3831 0.2045 0.6462
O3A O 0.3099(3) 0.2789(4) 0.65623(14)
H2A H 0.3252 0.2728 0.6431
O4A O 0.3013(3) 0.3557(3) 0.69284(15)
O5A O 0.3898(3) 0.2469(5) 0.71996(17)
O6A O 0.3042(4) 0.2824(5) 0.74663(19)
H3A H 0.2851 0.2962 0.7577
O7A O 0.2170(4) 0.3547(4) 0.65791(16)
H4A H 0.2507 0.3506 0.6538
O8A O 0.2024(5) 0.4849(4) 0.74760(18)
H5A H 0.1996 0.5091 0.7583
O9A O 0.2403(4) 0.3968(3) 0.71965(16)
O10A O 0.2011(5) 0.4771(4) 0.65638(17)
H6A H 0.2032 0.4611 0.6432
C1A C 0.4158(5) 0.2217(7) 0.6991(2)
H7A H 0.4276 0.1823 0.7028
C2A C 0.3749(5) 0.2212(6) 0.6788(2)
H8A H 0.3427 0.1961 0.6831
C3A C 0.3513(5) 0.2806(6) 0.6740(2)
H9A H 0.3824 0.3069 0.6694
C4A C 0.3240(5) 0.2998(5) 0.6967(2)
H10A H 0.2936 0.2731 0.7015
C5A C 0.3705(6) 0.3035(7) 0.7163(3)
H11A H 0.4022 0.3284 0.7111
C6A C 0.3478(6) 0.3220(7) 0.7397(2)
H12A H 0.3782 0.3225 0.7516
H13A H 0.3319 0.3604 0.7385
C7A C 0.2442(5) 0.3617(5) 0.6993(2)
H14A H 0.2273 0.3240 0.7026
C8A C 0.2145(6) 0.3889(5) 0.6782(2)
H15A H 0.1739 0.3922 0.6825
C9A C 0.2347(6) 0.4470(5) 0.6731(2)
H16A H 0.2749 0.4460 0.6678
C10A C 0.2295(8) 0.4819(4) 0.6969(2)
H17A H 0.1891 0.4858 0.7016
C11A C 0.2601(7) 0.4812(6) 0.7400(2)
H18A H 0.2822 0.4591 0.7516
H19A H 0.2767 0.5194 0.7390
C12A C 0.2623(7) 0.4530(5) 0.7161(2)
H20A H 0.3026 0.4500 0.7111
O1F O 0.5361(3) 0.7464(4) 0.69189(16)
O2F O 0.5976(4) 0.8025(4) 0.65766(17)
H1F H 0.6169 0.7955 0.6462
O3F O 0.6901(3) 0.7211(4) 0.65623(14)
H2F H 0.6748 0.7272 0.6431
O4F O 0.6987(3) 0.6443(3) 0.69284(15)
O5F O 0.6102(3) 0.7531(5) 0.71996(17)
O6F O 0.6958(4) 0.7176(5) 0.74663(19)
H3F H 0.7149 0.7038 0.7577
O7F O 0.7830(4) 0.6453(4) 0.65791(16)
H4F H 0.7493 0.6494 0.6538
O8F O 0.7976(5) 0.5151(4) 0.74760(18)
H5F H 0.8004 0.4909 0.7583
O9F O 0.7597(4) 0.6032(3) 0.71965(16)
O10F O 0.7989(5) 0.5229(4) 0.65638(17)
H6F H 0.7968 0.5389 0.6432
C1F C 0.5842(5) 0.7783(7) 0.6991(2)
H7F H 0.5724 0.8177 0.7028
C2F C 0.6251(5) 0.7788(6) 0.6788(2)
H8F H 0.6573 0.8039 0.6831
C3F C 0.6487(5) 0.7194(6) 0.6740(2)
H9F H 0.6176 0.6931 0.6694
C4F C 0.6760(5) 0.7002(5) 0.6967(2)
H10F H 0.7064 0.7269 0.7015
C5F C 0.6295(6) 0.6965(7) 0.7163(3)
H11F H 0.5978 0.6716 0.7111
C6F C 0.6522(6) 0.6780(7) 0.7397(2)
H12F H 0.6218 0.6775 0.7516
H13F H 0.6681 0.6396 0.7385
C7F C 0.7558(5) 0.6383(5) 0.6993(2)
H14F H 0.7727 0.6760 0.7026
C8F C 0.7855(6) 0.6111(5) 0.6782(2)
H15F H 0.8261 0.6078 0.6825
C9F C 0.7653(6) 0.5530(5) 0.6731(2)
H16F H 0.7251 0.5540 0.6678
C10F C 0.7705(8) 0.5181(4) 0.6969(2)
H17F H 0.8109 0.5142 0.7016
C11F C 0.7399(7) 0.5188(6) 0.7400(2)
H18F H 0.7178 0.5409 0.7516
H19F H 0.7233 0.4806 0.7390
C12F C 0.7377(7) 0.5470(5) 0.7161(2)
H20F H 0.6974 0.5500 0.7111
O1C O 0.7464(4) 0.4639(3) 0.69189(16)
O2C O 0.8025(4) 0.4024(4) 0.65766(17)
H1C H 0.7955 0.3831 0.6462
O3C O 0.7211(4) 0.3099(3) 0.65623(14)
H2C H 0.7272 0.3252 0.6431
O4C O 0.6443(3) 0.3013(3) 0.69284(15)
O5C O 0.7531(5) 0.3898(3) 0.71996(17)
O6C O 0.7176(5) 0.3042(4) 0.74663(19)
H3C H 0.7038 0.2851 0.7577
O7C O 0.6453(4) 0.2170(4) 0.65791(16)
H4C H 0.6494 0.2507 0.6538
O8C O 0.5151(4) 0.2024(5) 0.74760(18)
H5C H 0.4909 0.1996 0.7583
O9C O 0.6032(3) 0.2403(4) 0.71965(16)
O10C O 0.5229(4) 0.2011(5) 0.65638(17)
H6C H 0.5389 0.2032 0.6432
C1C C 0.7783(7) 0.4158(5) 0.6991(2)
H7C H 0.8177 0.4276 0.7028
C2C C 0.7788(6) 0.3749(5) 0.6788(2)
H8C H 0.8039 0.3427 0.6831
C3C C 0.7194(6) 0.3513(5) 0.6740(2)
H9C H 0.6931 0.3824 0.6694
C4C C 0.7002(5) 0.3240(5) 0.6967(2)
H10C H 0.7269 0.2936 0.7015
C5C C 0.6965(7) 0.3705(6) 0.7163(3)
H11C H 0.6716 0.4022 0.7111
C6C C 0.6780(7) 0.3478(6) 0.7397(2)
H12C H 0.6775 0.3782 0.7516
H13C H 0.6396 0.3319 0.7385
C7C C 0.6383(5) 0.2442(5) 0.6993(2)
H14C H 0.6760 0.2273 0.7026
C8C C 0.6111(5) 0.2145(6) 0.6782(2)
H15C H 0.6078 0.1739 0.6825
C9C C 0.5530(5) 0.2347(6) 0.6731(2)
H16C H 0.5540 0.2749 0.6678
C10C C 0.5181(4) 0.2295(8) 0.6969(2)
H17C H 0.5142 0.1891 0.7016
C11C C 0.5188(6) 0.2601(7) 0.7400(2)
H18C H 0.5409 0.2822 0.7516
H19C H 0.4806 0.2767 0.7390
C12C C 0.5470(5) 0.2623(7) 0.7161(2)
H20C H 0.5500 0.3026 0.7111
O46? O 0.6017(9) 0.9485(11) 0.6979(5)
H79? H 0.5807 0.9352 0.7100
H80? H 0.5827 0.9456 0.6842
O47? O 0.491(4) 0.597(2) 0.7363(15)
Br4? Br 0.537(3) 0.577(3) 0.5789(11)
Br5? Br 0.4255(16) 0.6360(15) 0.6281(6)
Br6? Br 0.4320(14) 0.5336(17) 0.6839(8)
B4? B 0.506(13) 0.545(10) 0.608(2)
B5? B 0.451(9) 0.557(3) 0.630(3)
B6? B 0.483(9) 0.559(13) 0.658(2)
Br7? Br 0.4572(2) 0.6226(2) 0.59974(10)
Br8? Br 0.35077(15) 0.5352(2) 0.63343(8)
Br9? Br 0.42396(18) 0.4740(3) 0.68833(8)
B7? B 0.4801(15) 0.5589(14) 0.6207(6)
B8? B 0.438(2) 0.520(3) 0.6377(10)
B9? B 0.4657(16) 0.4877(17) 0.6609(6)
loop_
_geom_bond_atom_site_label_1
_geom_bond_atom_site_label_2
_geom_bond_site_symmetry_1
_geom_bond_site_symmetry_2
O1 C1 1_555 1_555
O2 H1 1_555 1_555
O3 H2 1_555 1_555
O4 C4 1_555 1_555
O5 C1 1_555 1_555
O6 H3 1_555 1_555
O7 H4 1_555 1_555
O8 H5 1_555 1_555
O9 C7 1_555 1_555
O10 H6 1_555 1_555
C1 H7 1_555 1_555
C2 O2 1_555 1_555
H8 C2 1_555 1_555
C3 O3 1_555 1_555
H9 C3 1_555 1_555
C4 C3 1_555 1_555
H10 C4 1_555 1_555
C5 O5 1_555 1_555
H11 C5 1_555 1_555
C6 O6 1_555 1_555
H12 C6 1_555 1_555
H13 C6 1_555 1_555
C7 O4 1_555 1_555
H14 C7 1_555 1_555
C8 O7 1_555 1_555
H15 C8 1_555 1_555
C9 O10 1_555 1_555
H16 C9 1_555 1_555
C10 C9 1_555 1_555
H17 C10 1_555 1_555
C11 O8 1_555 1_555
H18 C11 1_555 1_555
H19 C11 1_555 1_555
C12 O9 1_555 1_555
H20 C12 1_555 1_555
O11 C13 1_555 1_555
O12 H21 1_555 1_555
O13 H22 1_555 1_555
O14 C16 1_555 1_555
O15 C16 1_555 1_555
O16 H23 1_555 1_555
O17 H24 1_555 1_555
O18 H25 1_555 1_555
O19 C22 1_555 1_555
O20 H26 1_555 1_555
C13 H27 1_555 1_555
C14 O12 1_555 1_555
H28 C14 1_555 1_555
C15 O13 1_555 1_555
H29 C15 1_555 1_555
C16 C15 1_555 1_555
H30 C16 1_555 1_555
C17 O15 1_555 1_555
H31 C17 1_555 1_555
C18 O16 1_555 1_555
H32 C18 1_555 1_555
H33 C18 1_555 1_555
C19 O14 1_555 1_555
H34 C19 1_555 1_555
C20 O17 1_555 1_555
H35 C20 1_555 1_555
C21 O18 1_555 1_555
H36 C21 1_555 1_555
C22 C21 1_555 1_555
H37 C22 1_555 1_555
C23 O19 1_555 1_555
H38 C23 1_555 1_555
C24 O20 1_555 1_555
H39 C24 1_555 1_555
H40 C24 1_555 1_555
O21 C25 1_555 1_555
O22 H41 1_555 1_555
O23 H42 1_555 1_555
O24 C28 1_555 1_555
O25 C25 1_555 1_555
O26 H43 1_555 1_555
O27 H44 1_555 1_555
O28 H45 1_555 1_555
O29 C31 1_555 1_555
O30 H46 1_555 1_555
C25 H47 1_555 1_555
C26 O22 1_555 1_555
H48 C26 1_555 1_555
C27 O23 1_555 1_555
H49 C27 1_555 1_555
C28 C27 1_555 1_555
H50 C28 1_555 1_555
C29 O25 1_555 1_555
H51 C29 1_555 1_555
C30 O26 1_555 1_555
H52 C30 1_555 1_555
H53 C30 1_555 1_555
C31 O24 1_555 1_555
H54 C31 1_555 1_555
C32 O27 1_555 1_555
H55 C32 1_555 1_555
C33 O28 1_555 1_555
H56 C33 1_555 1_555
C34 C33 1_555 1_555
H57 C34 1_555 1_555
C35 O29 1_555 1_555
H58 C35 1_555 1_555
C36 O30 1_555 1_555
H59 C36 1_555 1_555
H60 C36 1_555 1_555
Br1 B1 1_555 1_555
Br2 B2 1_555 1_555
Br3 B3 1_555 1_555
B1 B2 1_555 1_555
B2 B3 1_555 1_555
B3 B1A 1_555 1_555
O31 H61 1_555 1_555
H62 O31 1_555 1_555
O32 H63 1_555 1_555
H64 O32 1_555 1_555
O33 H65 1_555 1_555
H66 O33 1_555 1_555
O35 H67 1_555 1_555
H68 O35 1_555 1_555
O36 H69 1_555 1_555
H70 O36 1_555 1_555
O37 H71 1_555 1_555
H72 O37 1_555 1_555
O38 H73 1_555 1_555
H74 O38 1_555 1_555
O39 H75 1_555 1_555
H76 O39 1_555 1_555
O40 H77 1_555 1_555
H78 O40 1_555 1_555
O1A C1A 1_555 1_555
O2A H1A 1_555 1_555
O3A H2A 1_555 1_555
O4A C4A 1_555 1_555
O5A C1A 1_555 1_555
O6A H3A 1_555 1_555
O7A H4A 1_555 1_555
O8A H5A 1_555 1_555
O9A C7A 1_555 1_555
O10A H6A 1_555 1_555
C1A H7A 1_555 1_555
C2A O2A 1_555 1_555
H8A C2A 1_555 1_555
C3A O3A 1_555 1_555
H9A C3A 1_555 1_555
C4A C3A 1_555 1_555
H10A C4A 1_555 1_555
C5A O5A 1_555 1_555
H11A C5A 1_555 1_555
C6A O6A 1_555 1_555
H12A C6A 1_555 1_555
H13A C6A 1_555 1_555
C7A O4A 1_555 1_555
H14A C7A 1_555 1_555
C8A O7A 1_555 1_555
H15A C8A 1_555 1_555
C9A O10A 1_555 1_555
H16A C9A 1_555 1_555
C10A O1 1_555 1_555
H17A C10A 1_555 1_555
C11A O8A 1_555 1_555
H18A C11A 1_555 1_555
H19A C11A 1_555 1_555
C12A O9A 1_555 1_555
H20A C12A 1_555 1_555
O1F C10 1_555 1_555
O2F H1F 1_555 1_555
O3F H2F 1_555 1_555
O4F C4F 1_555 1_555
O5F C1F 1_555 1_555
O6F H3F 1_555 1_555
O7F H4F 1_555 1_555
O8F H5F 1_555 1_555
O9F C7F 1_555 1_555
O10F H6F 1_555 1_555
C1F O1F 1_555 1_555
H7F C1F 1_555 1_555
C2F O2F 1_555 1_555
H8F C2F 1_555 1_555
C3F O3F 1_555 1_555
H9F C3F 1_555 1_555
C4F C3F 1_555 1_555
H10F C4F 1_555 1_555
C5F O5F 1_555 1_555
H11F C5F 1_555 1_555
C6F O6F 1_555 1_555
H12F C6F 1_555 1_555
H13F C6F 1_555 1_555
C7F O4F 1_555 1_555
H14F C7F 1_555 1_555
C8F O7F 1_555 1_555
H15F C8F 1_555 1_555
C9F O10F 1_555 1_555
H16F C9F 1_555 1_555
C10F C9F 1_555 1_555
H17F C10F 1_555 1_555
C11F O8F 1_555 1_555
H18F C11F 1_555 1_555
H19F C11F 1_555 1_555
C12F O9F 1_555 1_555
H20F C12F 1_555 1_555
O1C C10F 1_555 1_555
O2C H1C 1_555 1_555
O3C H2C 1_555 1_555
O4C C4C 1_555 1_555
O5C C1C 1_555 1_555
O6C H3C 1_555 1_555
O7C H4C 1_555 1_555
O8C H5C 1_555 1_555
O9C C7C 1_555 1_555
O10C H6C 1_555 1_555
C1C O1C 1_555 1_555
H7C C1C 1_555 1_555
C2C O2C 1_555 1_555
H8C C2C 1_555 1_555
C3C O3C 1_555 1_555
H9C C3C 1_555 1_555
C4C C3C 1_555 1_555
H10C C4C 1_555 1_555
C5C O5C 1_555 1_555
H11C C5C 1_555 1_555
C6C O6C 1_555 1_555
H12C C6C 1_555 1_555
H13C C6C 1_555 1_555
C7C O4C 1_555 1_555
H14C C7C 1_555 1_555
C8C O7C 1_555 1_555
H15C C8C 1_555 1_555
C9C O10C 1_555 1_555
H16C C9C 1_555 1_555
C10C O1A 1_555 1_555
H17C C10C 1_555 1_555
C11C O8C 1_555 1_555
H18C C11C 1_555 1_555
H19C C11C 1_555 1_555
C12C O9C 1_555 1_555
H20C C12C 1_555 1_555
O11A C13A 1_555 1_555
O12A H21A 1_555 1_555
O13A H22A 1_555 1_555
O14A C16A 1_555 1_555
O15A C16A 1_555 1_555
O16A H23A 1_555 1_555
O17A H24A 1_555 1_555
O18A H25A 1_555 1_555
O19A C22A 1_555 1_555
O20A H26A 1_555 1_555
C13A H27A 1_555 1_555
C14A O12A 1_555 1_555
H28A C14A 1_555 1_555
C15A O13A 1_555 1_555
H29A C15A 1_555 1_555
C16A C15A 1_555 1_555
H30A C16A 1_555 1_555
C17A O15A 1_555 1_555
H31A C17A 1_555 1_555
C18A O16A 1_555 1_555
H32A C18A 1_555 1_555
H33A C18A 1_555 1_555
C19A O14A 1_555 1_555
H34A C19A 1_555 1_555
C20A O17A 1_555 1_555
H35A C20A 1_555 1_555
C21A O18A 1_555 1_555
H36A C21A 1_555 1_555
C22A O11 1_555 1_555
H37A C22A 1_555 1_555
C23A O19A 1_555 1_555
H38A C23A 1_555 1_555
C24A O20A 1_555 1_555
H39A C24A 1_555 1_555
H40A C24A 1_555 1_555
O11F C22 1_555 1_555
O12F H21F 1_555 1_555
O13F H22F 1_555 1_555
O14F C16F 1_555 1_555
O15F C16F 1_555 1_555
O16F H23F 1_555 1_555
O17F H24F 1_555 1_555
O18F H25F 1_555 1_555
O19F C22F 1_555 1_555
O20F H26F 1_555 1_555
C13F O11F 1_555 1_555
H27F C13F 1_555 1_555
C14F O12F 1_555 1_555
H28F C14F 1_555 1_555
C15F O13F 1_555 1_555
H29F C15F 1_555 1_555
C16F C15F 1_555 1_555
H30F C16F 1_555 1_555
C17F O15F 1_555 1_555
H31F C17F 1_555 1_555
C18F O16F 1_555 1_555
H32F C18F 1_555 1_555
H33F C18F 1_555 1_555
C19F O14F 1_555 1_555
H34F C19F 1_555 1_555
C20F O17F 1_555 1_555
H35F C20F 1_555 1_555
C21F O18F 1_555 1_555
H36F C21F 1_555 1_555
C22F C21F 1_555 1_555
H37F C22F 1_555 1_555
C23F O19F 1_555 1_555
H38F C23F 1_555 1_555
C24F O20F 1_555 1_555
H39F C24F 1_555 1_555
H40F C24F 1_555 1_555
O11C C22F 1_555 1_555
O12C H21C 1_555 1_555
O13C H22C 1_555 1_555
O14C C16C 1_555 1_555
O15C C16C 1_555 1_555
O16C H23C 1_555 1_555
O17C H24C 1_555 1_555
O18C H25C 1_555 1_555
O19C C22C 1_555 1_555
O20C H26C 1_555 1_555
C13C O11C 1_555 1_555
H27C C13C 1_555 1_555
C14C O12C 1_555 1_555
H28C C14C 1_555 1_555
C15C O13C 1_555 1_555
H29C C15C 1_555 1_555
C16C C15C 1_555 1_555
H30C C16C 1_555 1_555
C17C O15C 1_555 1_555
H31C C17C 1_555 1_555
C18C O16C 1_555 1_555
H32C C18C 1_555 1_555
H33C C18C 1_555 1_555
C19C O14C 1_555 1_555
H34C C19C 1_555 1_555
C20C O17C 1_555 1_555
H35C C20C 1_555 1_555
C21C O18C 1_555 1_555
H36C C21C 1_555 1_555
C22C O11A 1_555 1_555
H37C C22C 1_555 1_555
C23C O19C 1_555 1_555
H38C C23C 1_555 1_555
C24C O20C 1_555 1_555
H39C C24C 1_555 1_555
H40C C24C 1_555 1_555
O21A C34 1_555 1_555
O22A H41A 1_555 1_555
O23A H42A 1_555 1_555
O24A C28A 1_555 1_555
O25A C25A 1_555 1_555
O26A H43A 1_555 1_555
O27A H44A 1_555 1_555
O28A H45A 1_555 1_555
O29A C31A 1_555 1_555
O30A H46A 1_555 1_555
C25A O21A 1_555 1_555
H47A C25A 1_555 1_555
C26A O22A 1_555 1_555
H48A C26A 1_555 1_555
C27A O23A 1_555 1_555
H49A C27A 1_555 1_555
C28A C27A 1_555 1_555
H50A C28A 1_555 1_555
C29A O25A 1_555 1_555
H51A C29A 1_555 1_555
C30A O26A 1_555 1_555
H52A C30A 1_555 1_555
H53A C30A 1_555 1_555
C31A O24A 1_555 1_555
H54A C31A 1_555 1_555
C32A O27A 1_555 1_555
H55A C32A 1_555 1_555
C33A O28A 1_555 1_555
H56A C33A 1_555 1_555
C34A C33A 1_555 1_555
H57A C34A 1_555 1_555
C35A O29A 1_555 1_555
H58A C35A 1_555 1_555
C36A O30A 1_555 1_555
H59A C36A 1_555 1_555
H60A C36A 1_555 1_555
O21F C25F 1_555 1_555
O22F H41F 1_555 1_555
O23F H42F 1_555 1_555
O24F C28F 1_555 1_555
O25F C25F 1_555 1_555
O26F H43F 1_555 1_555
O27F H44F 1_555 1_555
O28F H45F 1_555 1_555
O29F C31F 1_555 1_555
O30F H46F 1_555 1_555
C25F H47F 1_555 1_555
C26F O22F 1_555 1_555
H48F C26F 1_555 1_555
C27F O23F 1_555 1_555
H49F C27F 1_555 1_555
C28F C27F 1_555 1_555
H50F C28F 1_555 1_555
C29F O25F 1_555 1_555
H51F C29F 1_555 1_555
C30F O26F 1_555 1_555
H52F C30F 1_555 1_555
H53F C30F 1_555 1_555
C31F O24F 1_555 1_555
H54F C31F 1_555 1_555
C32F O27F 1_555 1_555
H55F C32F 1_555 1_555
C33F O28F 1_555 1_555
H56F C33F 1_555 1_555
C34F O21 1_555 1_555
H57F C34F 1_555 1_555
C35F O29F 1_555 1_555
H58F C35F 1_555 1_555
C36F O30F 1_555 1_555
H59F C36F 1_555 1_555
H60F C36F 1_555 1_555
O21C C34A 1_555 1_555
O22C H41C 1_555 1_555
O23C H42C 1_555 1_555
O24C C28C 1_555 1_555
O25C C25C 1_555 1_555
O26C H43C 1_555 1_555
O27C H44C 1_555 1_555
O28C H45C 1_555 1_555
O29C C31C 1_555 1_555
O30C H46C 1_555 1_555
C25C O21C 1_555 1_555
H47C C25C 1_555 1_555
C26C O22C 1_555 1_555
H48C C26C 1_555 1_555
C27C O23C 1_555 1_555
H49C C27C 1_555 1_555
C28C C27C 1_555 1_555
H50C C28C 1_555 1_555
C29C O25C 1_555 1_555
H51C C29C 1_555 1_555
C30C O26C 1_555 1_555
H52C C30C 1_555 1_555
H53C C30C 1_555 1_555
C31C O24C 1_555 1_555
H54C C31C 1_555 1_555
C32C O27C 1_555 1_555
H55C C32C 1_555 1_555
C33C O28C 1_555 1_555
H56C C33C 1_555 1_555
C34C O21F 1_555 1_555
H57C C34C 1_555 1_555
C35C O29C 1_555 1_555
H58C C35C 1_555 1_555
C36C O30C 1_555 1_555
H59C C36C 1_555 1_555
H60C C36C 1_555 1_555
Br1A B1A 1_555 1_555
Br2A B2A 1_555 1_555
Br3A B3A 1_555 1_555
B1A B1 1_555 1_555
B2A B3 1_555 1_555
B3A B3 1_555 1_555
Br1C B1C 1_555 1_555
Br2C B2C 1_555 1_555
Br3C B3C 1_555 1_555
B1C B1 1_555 1_555
B2C B3A 1_555 1_555
B3C B3 1_555 1_555
Br1F B1F 1_555 1_555
Br2F B2F 1_555 1_555
Br3F B3F 1_555 1_555
B1F B1 1_555 1_555
B2F B1 1_555 1_555
B3F B1 1_555 1_555
C1 C2 1_555 1_555
C2 C3 1_555 1_555
C4 C5 1_555 1_555
C5 C6 1_555 1_555
C7 C8 1_555 1_555
C8 C9 1_555 1_555
C10 C12 1_555 1_555
C11 C12 1_555 1_555
C13 C14 1_555 1_555
C13 C17 1_555 1_555
C14 C15 1_555 1_555
C17 C18 1_555 1_555
C19 C20 1_555 1_555
C19 C23 1_555 1_555
C20 C21 1_555 1_555
C23 C24 1_555 1_555
C25 C26 1_555 1_555
C26 C27 1_555 1_555
C28 C29 1_555 1_555
C29 C30 1_555 1_555
C31 C32 1_555 1_555
C32 C33 1_555 1_555
C34 C35 1_555 1_555
C35 C36 1_555 1_555
B2 B1A 1_555 1_555
B2 B3F 1_555 1_555
B3 B3F 1_555 1_555
C1A C2A 1_555 1_555
C2A C3A 1_555 1_555
C4A C5A 1_555 1_555
C5A C6A 1_555 1_555
C7A C8A 1_555 1_555
C8A C9A 1_555 1_555
C9A C10A 1_555 1_555
C10A C12A 1_555 1_555
C11A C12A 1_555 1_555
C1F C2F 1_555 1_555
C2F C3F 1_555 1_555
C4F C5F 1_555 1_555
C5F C6F 1_555 1_555
C7F C8F 1_555 1_555
C8F C9F 1_555 1_555
C10F C12F 1_555 1_555
C11F C12F 1_555 1_555
C1C C2C 1_555 1_555
C2C C3C 1_555 1_555
C4C C5C 1_555 1_555
C5C C6C 1_555 1_555
C7C C8C 1_555 1_555
C8C C9C 1_555 1_555
C9C C10C 1_555 1_555
C10C C12C 1_555 1_555
C11C C12C 1_555 1_555
C13A C14A 1_555 1_555
C13A C17A 1_555 1_555
C14A C15A 1_555 1_555
C17A C18A 1_555 1_555
C19A C20A 1_555 1_555
C19A C23A 1_555 1_555
C20A C21A 1_555 1_555
C21A C22A 1_555 1_555
C23A C24A 1_555 1_555
C13F C14F 1_555 1_555
C13F C17F 1_555 1_555
C14F C15F 1_555 1_555
C17F C18F 1_555 1_555
C19F C20F 1_555 1_555
C19F C23F 1_555 1_555
C20F C21F 1_555 1_555
C23F C24F 1_555 1_555
C13C C14C 1_555 1_555
C13C C17C 1_555 1_555
C14C C15C 1_555 1_555
C17C C18C 1_555 1_555
C19C C20C 1_555 1_555
C19C C23C 1_555 1_555
C20C C21C 1_555 1_555
C21C C22C 1_555 1_555
C23C C24C 1_555 1_555
C25A C26A 1_555 1_555
C26A C27A 1_555 1_555
C28A C29A 1_555 1_555
C29A C30A 1_555 1_555
C31A C32A 1_555 1_555
C32A C33A 1_555 1_555
C34A C35A 1_555 1_555
C35A C36A 1_555 1_555
C25F C26F 1_555 1_555
C26F C27F 1_555 1_555
C28F C29F 1_555 1_555
C29F C30F 1_555 1_555
C31F C32F 1_555 1_555
C32F C33F 1_555 1_555
C33F C34F 1_555 1_555
C34F C35F 1_555 1_555
C35F C36F 1_555 1_555
C25C C26C 1_555 1_555
C26C C27C 1_555 1_555
C28C C29C 1_555 1_555
C29C C30C 1_555 1_555
C31C C32C 1_555 1_555
C32C C33C 1_555 1_555
C33C C34C 1_555 1_555
C34C C35C 1_555 1_555
C35C C36C 1_555 1_555
B1A B2A 1_555 1_555
B1A B1C 1_555 1_555
B1A B1F 1_555 1_555
B2A B3A 1_555 1_555
B2A B1C 1_555 1_555
B3A B1C 1_555 1_555
B3A B3C 1_555 1_555
B3A B3F 1_555 1_555
B1C B2C 1_555 1_555
B1C B1F 1_555 1_555
B2C B3C 1_555 1_555
B2C B1F 1_555 1_555
B3C B1F 1_555 1_555
B3C B2F 1_555 1_555
B3C B3F 1_555 1_555
B1F B2F 1_555 1_555
B2F B3F 1_555 1_555

#END
