
#######################################################################
#
#                 Cambridge Crystallographic Data Centre
#                                CCDC 
#
#######################################################################
#
# If this CIF has been generated from an entry in the Cambridge 
# Structural Database, then it will include bibliographic, chemical, 
# crystal, experimental, refinement or atomic coordinate data resulting 
# from the CCDC's data processing and validation procedures.
#
#######################################################################

data_IHOZAI
_chemical_formula_moiety         'C56 H46 N2'
_chemical_name_systematic        
N,N'-acenaphthylene-1,2-diylbis(4-butylidene-2,6-diphenylcyclohexa-2,5-dien-1-imine)
_symmetry_cell_setting           triclinic
_symmetry_space_group_name_H-M   'P -1'
_symmetry_Int_Tables_number      2
_space_group_name_Hall           '-P 1'
loop_
_symmetry_equiv_pos_site_id
_symmetry_equiv_pos_as_xyz
1 x,y,z
2 -x,-y,-z
_cell_length_a                   10.619(3)
_cell_length_b                   13.655(4)
_cell_length_c                   16.696(4)
_cell_angle_alpha                70.038(3)
_cell_angle_beta                 73.119(4)
_cell_angle_gamma                73.108(4)
_cell_volume                     2127.56
_cell_formula_units_Z            2
loop_
_atom_site_label
_atom_site_type_symbol
_atom_site_fract_x
_atom_site_fract_y
_atom_site_fract_z
C1 C 0.5828(7) 0.2186(5) 0.2497(6)
H1 H 0.6573 0.2038 0.2739
C2 C 0.5984(6) 0.2479(4) 0.1615(5)
H2 H 0.6839 0.2517 0.1267
C3 C 0.4887(7) 0.2726(4) 0.1214(4)
H3 H 0.5017 0.2926 0.0609
C4 C 0.3630(6) 0.2668(4) 0.1726(4)
C5 C 0.3472(7) 0.2355(4) 0.2642(5)
C6 C 0.4555(8) 0.2104(4) 0.3050(5)
C7 C 0.2913(9) 0.1757(5) 0.4414(4)
H4 H 0.2721 0.1553 0.5021
C8 C 0.4210(8) 0.1805(5) 0.3980(5)
H5 H 0.4874 0.1641 0.4293
C9 C 0.1865(6) 0.2003(5) 0.3982(5)
H6 H 0.0992 0.1965 0.4298
C10 C 0.2136(7) 0.2297(4) 0.3099(4)
C11 C 0.2286(6) 0.2842(4) 0.1550(4)
C12 C 0.1317(7) 0.2593(4) 0.2433(4)
C13 C -0.0788(6) 0.2361(7) 0.3333(4)
C14 C -0.1067(6) 0.1333(6) 0.3666(5)
C15 C -0.1905(7) 0.1089(6) 0.4498(5)
H7 H -0.2080 0.0407 0.4736
C16 C -0.2481(7) 0.1811(8) 0.4981(5)
C17 C -0.2216(6) 0.2813(7) 0.4611(5)
H8 H -0.2604 0.3312 0.4926
C18 C -0.1396(6) 0.3128(6) 0.3790(5)
C19 C -0.1167(6) 0.4245(7) 0.3411(6)
C20 C -0.1299(6) 0.4824(8) 0.2606(7)
H9 H -0.1470 0.4509 0.2245
C21 C -0.1191(9) 0.5882(11) 0.2288(6)
H10 H -0.1324 0.6277 0.1731
C22 C -0.0885(12) 0.6342(9) 0.2800(11)
H11 H -0.0787 0.7046 0.2589
C23 C -0.0726(11) 0.5753(12) 0.3629(9)
H12 H -0.0530 0.6057 0.3987
C24 C -0.0861(8) 0.4701(9) 0.3929(6)
H13 H -0.0743 0.4299 0.4487
C25 C -0.3358(10) 0.1542(8) 0.5883(5)
H14 H -0.3106 0.1646 0.6332
C26 C -0.4367(11) 0.1201(10) 0.6061(6)
H15 H -0.4106 0.0585 0.5837
H16 H -0.4969 0.1738 0.5710
C27 C -0.5241(8) 0.0860(7) 0.6987(4)
H17 H -0.4821 0.0153 0.7297
H18 H -0.5305 0.1351 0.7309
C28 C -0.6582(8) 0.0854(7) 0.6937(5)
H19 H -0.7023 0.1565 0.6671
H20 H -0.7094 0.0597 0.7513
H21 H -0.6514 0.0396 0.6593
C29 C -0.0481(5) 0.0490(7) 0.3204(5)
C30 C -0.0470(6) 0.0722(6) 0.2334(7)
H22 H -0.0777 0.1419 0.2021
C31 C 0.0000(8) -0.0086(11) 0.1921(5)
H23 H 0.0026 0.0076 0.1329
C32 C 0.0423(8) -0.1116(11) 0.2386(10)
H24 H 0.0719 -0.1657 0.2113
C33 C -0.0052(7) -0.0531(9) 0.3654(5)
H25 H -0.0066 -0.0687 0.4244
C34 C 0.2647(6) -0.0007(9) -0.0346(7)
H26 H 0.2350 -0.0263 -0.0693
C35 C 0.3004(7) -0.0674(6) 0.0429(7)
H27 H 0.2996 -0.1395 0.0594
C36 C 0.3367(6) -0.0265(7) 0.0951(5)
H28 H 0.3561 -0.0697 0.1486
C37 C 0.3444(5) 0.0811(7) 0.0671(6)
H29 H 0.3720 0.1082 0.1018
C38 C 0.2748(6) 0.1059(7) -0.0590(5)
H30 H 0.2546 0.1509 -0.1119
C39 C 0.3133(5) 0.1449(6) -0.0075(5)
C40 C 0.3360(6) 0.2577(5) -0.0447(5)
C41 C 0.4159(6) 0.2882(6) -0.1278(5)
H31 H 0.4559 0.2369 -0.1577
C42 C 0.4392(7) 0.3896(7) -0.1684(5)
C43 C 0.3764(7) 0.4637(5) -0.1214(5)
H32 H 0.3893 0.5331 -0.1468
C44 C 0.5258(11) 0.4103(7) -0.2584(6)
H33 H 0.5464 0.3574 -0.2863
C45 C 0.5685(16) 0.4834(12) -0.2957(7)
H34 H 0.5980 0.4992 -0.2525
H35 H 0.4903 0.5394 -0.3084
C46 C 0.6026(16) 0.5529(14) -0.4401(11)
H36 H 0.5628 0.4995 -0.4425
H37 H 0.6539 0.5821 -0.4968
H38 H 0.5329 0.6086 -0.4217
C47 C 0.684(2) 0.5087(16) -0.3831(9)
H39 H 0.7327 0.5584 -0.3824
H40 H 0.7467 0.4445 -0.3936
C48 C 0.1175(7) 0.6009(6) -0.0279(4)
H41 H 0.0804 0.5859 -0.0654
C49 C 0.2282(6) 0.5305(5) 0.0009(4)
C50 C 0.2827(6) 0.5535(6) 0.0543(4)
H42 H 0.3580 0.5067 0.0736
C51 C 0.0602(6) 0.6935(6) -0.0025(4)
H43 H -0.0152 0.7399 -0.0221
C52 C 0.1165(8) 0.7157(5) 0.0521(5)
H44 H 0.0794 0.7777 0.0695
C53 C 0.2280(8) 0.6462(7) 0.0811(4)
H45 H 0.2662 0.6609 0.1180
C54 C 0.2958(5) 0.4395(6) -0.0391(4)
C55 C 0.2777(5) 0.3348(6) 0.0011(4)
C56 C 0.0411(8) -0.1352(7) 0.3259(9)
H46 H 0.0707 -0.2048 0.3578
N1 N 0.0085(6) 0.2613(3) 0.2494(3)
N2 N 0.1879(4) 0.3122(3) 0.0836(4)
loop_
_geom_bond_atom_site_label_1
_geom_bond_atom_site_label_2
_geom_bond_site_symmetry_1
_geom_bond_site_symmetry_2
C1 H1 1_555 1_555
C2 C1 1_555 1_555
H2 C2 1_555 1_555
C3 C2 1_555 1_555
H3 C3 1_555 1_555
C4 C3 1_555 1_555
C5 C4 1_555 1_555
C6 C1 1_555 1_555
C7 H4 1_555 1_555
C8 C6 1_555 1_555
H5 C8 1_555 1_555
C9 C7 1_555 1_555
H6 C9 1_555 1_555
C10 C5 1_555 1_555
C11 C4 1_555 1_555
C12 C10 1_555 1_555
C13 C14 1_555 1_555
C14 C15 1_555 1_555
C15 H7 1_555 1_555
C16 C15 1_555 1_555
C17 C16 1_555 1_555
H8 C17 1_555 1_555
C18 C13 1_555 1_555
C19 C18 1_555 1_555
C20 C19 1_555 1_555
H9 C20 1_555 1_555
C21 C20 1_555 1_555
H10 C21 1_555 1_555
C22 C21 1_555 1_555
H11 C22 1_555 1_555
C23 C22 1_555 1_555
H12 C23 1_555 1_555
C24 C19 1_555 1_555
H13 C24 1_555 1_555
C25 C16 1_555 1_555
H14 C25 1_555 1_555
C26 C25 1_555 1_555
H15 C26 1_555 1_555
H16 C26 1_555 1_555
C27 C26 1_555 1_555
H17 C27 1_555 1_555
H18 C27 1_555 1_555
C28 C27 1_555 1_555
H19 C28 1_555 1_555
H20 C28 1_555 1_555
H21 C28 1_555 1_555
C29 C14 1_555 1_555
C30 C29 1_555 1_555
H22 C30 1_555 1_555
C31 C30 1_555 1_555
H23 C31 1_555 1_555
C32 C31 1_555 1_555
H24 C32 1_555 1_555
C33 C29 1_555 1_555
H25 C33 1_555 1_555
C34 H26 1_555 1_555
C35 C34 1_555 1_555
H27 C35 1_555 1_555
C36 C35 1_555 1_555
H28 C36 1_555 1_555
C37 C36 1_555 1_555
H29 C37 1_555 1_555
C38 C34 1_555 1_555
H30 C38 1_555 1_555
C39 C37 1_555 1_555
C40 C39 1_555 1_555
C41 C40 1_555 1_555
H31 C41 1_555 1_555
C42 C41 1_555 1_555
C43 C42 1_555 1_555
H32 C43 1_555 1_555
C44 C42 1_555 1_555
H33 C44 1_555 1_555
C45 C44 1_555 1_555
H34 C45 1_555 1_555
H35 C45 1_555 1_555
C46 H36 1_555 1_555
H37 C46 1_555 1_555
H38 C46 1_555 1_555
C47 C45 1_555 1_555
H39 C47 1_555 1_555
H40 C47 1_555 1_555
C48 H41 1_555 1_555
C49 C48 1_555 1_555
C50 C49 1_555 1_555
H42 C50 1_555 1_555
C51 C48 1_555 1_555
H43 C51 1_555 1_555
C52 C51 1_555 1_555
H44 C52 1_555 1_555
C53 C50 1_555 1_555
H45 C53 1_555 1_555
C54 C43 1_555 1_555
C55 C40 1_555 1_555
C56 C32 1_555 1_555
H46 C56 1_555 1_555
N1 C12 1_555 1_555
N2 C11 1_555 1_555
C5 C6 1_555 1_555
C7 C8 1_555 1_555
C9 C10 1_555 1_555
C11 C12 1_555 1_555
C13 N1 1_555 1_555
C17 C18 1_555 1_555
C23 C24 1_555 1_555
C33 C56 1_555 1_555
C38 C39 1_555 1_555
C46 C47 1_555 1_555
C49 C54 1_555 1_555
C52 C53 1_555 1_555
C54 C55 1_555 1_555
C55 N2 1_555 1_555

#END
