
#######################################################################
#
#                 Cambridge Crystallographic Data Centre
#                                CCDC 
#
#######################################################################
#
# If this CIF has been generated from an entry in the Cambridge 
# Structural Database, then it will include bibliographic, chemical, 
# crystal, experimental, refinement or atomic coordinate data resulting 
# from the CCDC's data processing and validation procedures.
#
#######################################################################

data_IHUBEU
_chemical_formula_moiety         'C26 H26 N2 S1'
_chemical_name_systematic        
6,6-diphenyl-2-(1-phenylethyl)hexahydro-3H-pyrrolo[1,2-c]imidazole-3-thione
_symmetry_cell_setting           orthorhombic
_symmetry_space_group_name_H-M   'P 21 21 21'
_symmetry_Int_Tables_number      19
_space_group_name_Hall           'P 2ac 2ab'
loop_
_symmetry_equiv_pos_site_id
_symmetry_equiv_pos_as_xyz
1 x,y,z
2 1/2-x,-y,1/2+z
3 -x,1/2+y,1/2-z
4 1/2+x,1/2-y,-z
_cell_length_a                   10.3976(13)
_cell_length_b                   10.5896(14)
_cell_length_c                   19.263(3)
_cell_angle_alpha                90
_cell_angle_beta                 90
_cell_angle_gamma                90
_cell_volume                     2120.98
_exptl_crystal_colour            colorless
_exptl_crystal_description       polyhedral
_cell_formula_units_Z            4
loop_
_atom_site_label
_atom_site_type_symbol
_atom_site_fract_x
_atom_site_fract_y
_atom_site_fract_z
S1 S 1.11481(7) 0.89283(8) 0.20881(4)
N1 N 1.0363(2) 0.7667(2) 0.32315(11)
N2 N 0.8823(2) 0.8042(2) 0.24643(10)
C1 C 1.0080(3) 0.8197(2) 0.26003(13)
C2 C 0.8136(2) 0.7414(3) 0.30275(12)
H1 H 0.7867 0.6552 0.2893
H2 H 0.7370 0.7904 0.3171
C3 C 0.9144(2) 0.7380(2) 0.36000(12)
H3 H 0.9182 0.6524 0.3818
C4 C 0.9118(2) 0.8403(2) 0.41533(13)
H4 H 0.8518 0.8185 0.4534
H5 H 0.8873 0.9231 0.3955
C5 C 1.0534(2) 0.8404(2) 0.44065(13)
C6 C 1.1269(3) 0.8296(3) 0.37059(12)
H6 H 1.1506 0.9142 0.3529
H7 H 1.2061 0.7787 0.3762
C7 C 0.8180(3) 0.8356(3) 0.18105(13)
H8 H 0.8824 0.8800 0.1512
C8 C 0.7777(3) 0.7170(3) 0.14288(15)
H9 H 0.8534 0.6640 0.1345
H10 H 0.7385 0.7401 0.0984
H11 H 0.7153 0.6703 0.1710
C9 C 0.7108(3) 0.9295(3) 0.19636(13)
C10 C 0.7425(3) 1.0445(3) 0.22711(14)
H12 H 0.8297 1.0622 0.2381
C11 C 0.6489(3) 1.1332(3) 0.24187(16)
H13 H 0.6721 1.2117 0.2622
C12 C 0.5223(3) 1.1076(3) 0.22702(15)
H14 H 0.4578 1.1684 0.2373
C13 C 0.4885(3) 0.9940(3) 0.19721(17)
H15 H 0.4009 0.9763 0.1871
C14 C 0.5830(3) 0.9057(3) 0.18209(14)
H16 H 0.5593 0.8275 0.1616
C15 C 1.0966(3) 0.9587(2) 0.47875(12)
C16 C 1.0166(3) 1.0605(2) 0.49216(15)
H17 H 0.9293 1.0577 0.4776
C17 C 1.0623(3) 1.1664(3) 0.52647(14)
H18 H 1.0066 1.2361 0.5344
C18 C 1.1874(3) 1.1714(3) 0.54910(14)
H19 H 1.2177 1.2434 0.5735
C19 C 1.2688(3) 1.0718(3) 0.53628(14)
H20 H 1.3557 1.0752 0.5515
C20 C 1.2240(3) 0.9665(3) 0.50119(15)
H21 H 1.2810 0.8983 0.4922
C21 C 1.0709(2) 0.7245(2) 0.48772(13)
C22 C 1.1223(3) 0.6107(3) 0.46433(13)
H22 H 1.1540 0.6047 0.4182
C23 C 1.1276(3) 0.5061(3) 0.50746(15)
H23 H 1.1626 0.4291 0.4906
C24 C 1.0825(3) 0.5130(3) 0.57478(15)
H24 H 1.0866 0.4412 0.6043
C25 C 1.0313(3) 0.6251(3) 0.59887(14)
H25 H 1.0000 0.6305 0.6451
C26 C 1.0253(3) 0.7298(3) 0.55576(14)
H26 H 0.9897 0.8064 0.5728
loop_
_geom_bond_atom_site_label_1
_geom_bond_atom_site_label_2
_geom_bond_site_symmetry_1
_geom_bond_site_symmetry_2
S1 C1 1_555 1_555
N1 C1 1_555 1_555
N2 C1 1_555 1_555
C2 N2 1_555 1_555
H1 C2 1_555 1_555
H2 C2 1_555 1_555
C3 N1 1_555 1_555
H3 C3 1_555 1_555
C4 C3 1_555 1_555
H4 C4 1_555 1_555
H5 C4 1_555 1_555
C5 C4 1_555 1_555
C6 N1 1_555 1_555
H6 C6 1_555 1_555
H7 C6 1_555 1_555
C7 N2 1_555 1_555
H8 C7 1_555 1_555
C8 C7 1_555 1_555
H9 C8 1_555 1_555
H10 C8 1_555 1_555
H11 C8 1_555 1_555
C9 C7 1_555 1_555
C10 C9 1_555 1_555
H12 C10 1_555 1_555
C11 C10 1_555 1_555
H13 C11 1_555 1_555
C12 C11 1_555 1_555
H14 C12 1_555 1_555
C13 C12 1_555 1_555
H15 C13 1_555 1_555
C14 C9 1_555 1_555
H16 C14 1_555 1_555
C15 C5 1_555 1_555
C16 C15 1_555 1_555
H17 C16 1_555 1_555
C17 C16 1_555 1_555
H18 C17 1_555 1_555
C18 C17 1_555 1_555
H19 C18 1_555 1_555
C19 C18 1_555 1_555
H20 C19 1_555 1_555
C20 C15 1_555 1_555
H21 C20 1_555 1_555
C21 C5 1_555 1_555
C22 C21 1_555 1_555
H22 C22 1_555 1_555
C23 C22 1_555 1_555
H23 C23 1_555 1_555
C24 C23 1_555 1_555
H24 C24 1_555 1_555
C25 C24 1_555 1_555
H25 C25 1_555 1_555
C26 C21 1_555 1_555
H26 C26 1_555 1_555
C2 C3 1_555 1_555
C5 C6 1_555 1_555
C13 C14 1_555 1_555
C19 C20 1_555 1_555
C25 C26 1_555 1_555

#END
