
#######################################################################
#
#                 Cambridge Crystallographic Data Centre
#                                CCDC 
#
#######################################################################
#
# If this CIF has been generated from an entry in the Cambridge 
# Structural Database, then it will include bibliographic, chemical, 
# crystal, experimental, refinement or atomic coordinate data resulting 
# from the CCDC's data processing and validation procedures.
#
#######################################################################

data_IHUGID
_chemical_formula_moiety         'C16 H15 N1 O3'
_chemical_name_systematic        
1,2,3,9b,9c,10a-hexahydro-4H,10H-6,8-dioxa-3a-azacyclopenta[g]cyclopropa[3,3a]pentaleno[1,6-ab]naphthalen-10-one
_symmetry_cell_setting           monoclinic
_symmetry_space_group_name_H-M   'P 21/c'
_symmetry_Int_Tables_number      14
_space_group_name_Hall           '-P 2ybc'
loop_
_symmetry_equiv_pos_site_id
_symmetry_equiv_pos_as_xyz
1 x,y,z
2 -x,1/2+y,1/2-z
3 -x,-y,-z
4 x,1/2-y,1/2+z
_cell_length_a                   10.3180(11)
_cell_length_b                   12.8037(14)
_cell_length_c                   10.6038(11)
_cell_angle_alpha                90
_cell_angle_beta                 112.7060(10)
_cell_angle_gamma                90
_cell_volume                     1292.28
_exptl_crystal_colour            colorless
_exptl_crystal_description       irregular
_cell_formula_units_Z            4
loop_
_atom_site_label
_atom_site_type_symbol
_atom_site_fract_x
_atom_site_fract_y
_atom_site_fract_z
C1 C 0.37763(16) 0.15151(14) 0.41147(18)
H1 H 0.3046 0.0987 0.3854
H2 H 0.3390 0.2144 0.3597
C2 C 0.60897(14) 0.12726(11) 0.50273(14)
C3 C 0.56778(14) 0.16081(11) 0.60524(15)
C4 C 0.66293(15) 0.17542(11) 0.73616(15)
H3 H 0.6344 0.1986 0.8045
C5 C 0.80529(14) 0.15436(10) 0.76418(13)
C6 C 0.84655(13) 0.12162(9) 0.65943(12)
C7 C 0.74628(14) 0.10804(11) 0.52580(14)
H4 H 0.7727 0.0866 0.4554
C8 C 0.99888(13) 0.10156(10) 0.68672(12)
H5 H 1.0224 0.1379 0.6170
C9 C 1.09737(13) 0.13911(10) 0.82620(13)
H6 H 1.1194 0.2137 0.8280
C10 C 0.91284(14) 0.16815(11) 0.90859(14)
H7 H 0.9353 0.2416 0.9264
H8 H 0.8743 0.1434 0.9733
C11 C 1.04027(14) -0.01392(11) 0.68850(13)
C12 C 1.18681(14) -0.02720(11) 0.78667(15)
H9 H 1.2168 -0.0956 0.8296
C13 C 1.22686(14) 0.07056(11) 0.87571(14)
C14 C 1.29821(15) 0.04952(13) 0.78141(17)
H10 H 1.3956 0.0274 0.8210
H11 H 1.2743 0.0935 0.7011
C15 C 1.15676(16) 0.11622(13) 1.05885(14)
H12 H 1.1385 0.0746 1.1267
H13 H 1.1743 0.1879 1.0907
C16 C 1.28196(16) 0.07186(13) 1.03086(15)
H14 H 1.3639 0.1165 1.0692
H15 H 1.3060 0.0021 1.0682
N1 N 1.03889(11) 0.11034(9) 0.92611(10)
O1 O 0.42412(11) 0.17266(10) 0.55442(12)
O2 O 0.49283(11) 0.11593(10) 0.38237(11)
O3 O 0.96187(11) -0.08266(8) 0.62355(11)
loop_
_geom_bond_atom_site_label_1
_geom_bond_atom_site_label_2
_geom_bond_site_symmetry_1
_geom_bond_site_symmetry_2
C1 H1 1_555 1_555
H2 C1 1_555 1_555
C2 C3 1_555 1_555
C3 C4 1_555 1_555
C4 H3 1_555 1_555
C5 C4 1_555 1_555
C6 C5 1_555 1_555
C7 C2 1_555 1_555
H4 C7 1_555 1_555
C8 C6 1_555 1_555
H5 C8 1_555 1_555
C9 C8 1_555 1_555
H6 C9 1_555 1_555
C10 C5 1_555 1_555
H7 C10 1_555 1_555
H8 C10 1_555 1_555
C11 C8 1_555 1_555
C12 C11 1_555 1_555
H9 C12 1_555 1_555
C13 C9 1_555 1_555
C14 C12 1_555 1_555
H10 C14 1_555 1_555
H11 C14 1_555 1_555
C15 H12 1_555 1_555
H13 C15 1_555 1_555
C16 C13 1_555 1_555
H14 C16 1_555 1_555
H15 C16 1_555 1_555
N1 C9 1_555 1_555
O1 C1 1_555 1_555
O2 C1 1_555 1_555
O3 C11 1_555 1_555
C2 O2 1_555 1_555
C3 O1 1_555 1_555
C6 C7 1_555 1_555
C10 N1 1_555 1_555
C12 C13 1_555 1_555
C13 C14 1_555 1_555
C15 C16 1_555 1_555
C15 N1 1_555 1_555

#END
