
#######################################################################
#
#                 Cambridge Crystallographic Data Centre
#                                CCDC 
#
#######################################################################
#
# If this CIF has been generated from an entry in the Cambridge 
# Structural Database, then it will include bibliographic, chemical, 
# crystal, experimental, refinement or atomic coordinate data resulting 
# from the CCDC's data processing and validation procedures.
#
#######################################################################

data_IHUJIG
_chemical_formula_moiety         'C28 H37 N3 O6'
_chemical_name_systematic        
3,4,6-trimethoxy-5,13-dimethyl-12-(2,4,5-trimethoxy-3-methylbenzyl)-11,13-diazatricyclo[7.3.1.0^2,7^]trideca-2,4,6-triene-10-carbonitrile
_symmetry_cell_setting           triclinic
_symmetry_space_group_name_H-M   'P -1'
_symmetry_Int_Tables_number      2
_space_group_name_Hall           '-P 1'
loop_
_symmetry_equiv_pos_site_id
_symmetry_equiv_pos_as_xyz
1 x,y,z
2 -x,-y,-z
_cell_length_a                   9.04383(16)
_cell_length_b                   11.1268(2)
_cell_length_c                   13.8750(3)
_cell_angle_alpha                77.1619(7)
_cell_angle_beta                 84.8804(7)
_cell_angle_gamma                85.3053(7)
_cell_volume                     1353.12
_exptl_crystal_colour            colorless
_exptl_crystal_description       block
_chemical_melting_point          '168-169 K'
_cell_formula_units_Z            2
loop_
_atom_site_label
_atom_site_type_symbol
_atom_site_fract_x
_atom_site_fract_y
_atom_site_fract_z
O1 O 0.06793(11) 0.64461(9) 0.85300(8)
O2 O 0.16855(11) 0.87429(9) 0.78696(8)
O3 O 0.60734(11) 0.70759(9) 0.63118(7)
O4 O 1.16080(10) 0.25167(8) 0.81871(7)
O5 O 0.98010(11) 0.28324(10) 0.49969(7)
O6 O 0.68721(11) 0.26609(9) 0.58905(7)
N1 N 0.61797(13) 0.15616(10) 0.89640(8)
N2 N 0.63760(13) 0.41255(11) 0.86956(8)
N3 N 0.37600(16) 0.32146(13) 1.06189(10)
C1 C 0.62362(15) 0.23602(12) 0.79580(9)
C2 C 0.71197(15) 0.20438(12) 0.95877(10)
C3 C 0.64373(16) 0.33280(13) 0.96802(10)
C4 C 0.29252(15) 0.55260(12) 0.77959(10)
C5 C 0.20327(15) 0.65304(13) 0.79951(10)
C6 C 0.25146(16) 0.77280(13) 0.76462(10)
C7 C 0.38654(16) 0.79147(13) 0.70894(10)
C8 C 0.47564(15) 0.68842(13) 0.69095(10)
C9 C 0.43133(15) 0.56868(12) 0.72617(9)
C10 C 0.52908(15) 0.45653(12) 0.70908(10)
C11 C 0.54860(15) 0.36216(12) 0.80633(10)
C12 C 0.87644(15) 0.21019(13) 0.91909(10)
C13 C 0.90041(15) 0.23770(12) 0.80686(10)
C14 C 1.04352(15) 0.24955(12) 0.76065(10)
C15 C 1.07286(15) 0.26636(12) 0.65797(10)
C16 C 0.95148(16) 0.27138(12) 0.60089(10)
C17 C 0.80807(15) 0.25984(12) 0.64542(10)
C18 C 0.78088(15) 0.24486(12) 0.74804(10)
C19 C 0.49337(17) 0.32236(13) 1.02279(10)
C20 C 0.00212(16) 0.52828(14) 0.87111(11)
C21 C 0.03139(19) 0.90418(16) 0.73971(15)
C22 C 0.43262(18) 0.92083(13) 0.66689(11)
C23 C 0.73035(17) 0.72474(17) 0.68394(12)
C24 C 1.23704(17) 0.13305(13) 0.85031(12)
C25 C 1.22819(16) 0.27958(15) 0.60930(11)
C26 C 0.9073(2) 0.38876(16) 0.43884(12)
C27 C 0.68022(19) 0.15998(15) 0.54792(12)
C28 C 0.65463(17) 0.02612(13) 0.89567(10)
H1 H 0.5631 0.2000 0.7536
H2 H 0.7071 0.1490 1.0263
H3 H 0.7098 0.3690 1.0067
H4 H 0.6039 0.4908 0.8728
H5 H 0.2591 0.4717 0.8025
H6 H 0.6277 0.4830 0.6788
H7 H 0.4834 0.4177 0.6623
H8 H 0.4479 0.3480 0.8413
H9 H 0.9210 0.2747 0.9440
H10 H 0.9298 0.1302 0.9461
H11 H 0.0631 0.4658 0.9145
H12 H -0.0036 0.5035 0.8081
H13 H -0.0982 0.5359 0.9032
H14 H -0.0065 0.9879 0.7445
H15 H -0.0417 0.8451 0.7725
H16 H 0.0487 0.9000 0.6698
H17 H 0.4752 0.9521 0.7184
H18 H 0.3455 0.9743 0.6438
H19 H 0.5071 0.9203 0.6112
H20 H 0.8159 0.7481 0.6368
H21 H 0.7566 0.6476 0.7307
H22 H 0.7028 0.7902 0.7204
H23 H 1.3233 0.1420 0.8856
H24 H 1.2706 0.0986 0.7923
H25 H 1.1694 0.0775 0.8946
H26 H 1.2269 0.3467 0.5501
H27 H 1.2651 0.2022 0.5904
H28 H 1.2936 0.2985 0.6558
H29 H 0.9729 0.4198 0.3800
H30 H 0.8843 0.4535 0.4766
H31 H 0.8149 0.3650 0.4184
H32 H 0.5859 0.1649 0.5171
H33 H 0.6867 0.0852 0.6007
H34 H 0.7632 0.1571 0.4979
H35 H 0.7582 0.0154 0.8698
H36 H 0.5887 -0.0008 0.8534
H37 H 0.6417 -0.0235 0.9633
loop_
_geom_bond_atom_site_label_1
_geom_bond_atom_site_label_2
_geom_bond_site_symmetry_1
_geom_bond_site_symmetry_2
O1 C5 1_555 1_555
O2 C6 1_555 1_555
O3 C8 1_555 1_555
O4 C14 1_555 1_555
O5 C16 1_555 1_555
O6 C17 1_555 1_555
N1 C1 1_555 1_555
N2 C3 1_555 1_555
N3 C19 1_555 1_555
C1 C11 1_555 1_555
C2 N1 1_555 1_555
C3 C2 1_555 1_555
C4 C5 1_555 1_555
C5 C6 1_555 1_555
C6 C7 1_555 1_555
C7 C8 1_555 1_555
C8 C9 1_555 1_555
C9 C4 1_555 1_555
C10 C9 1_555 1_555
C11 N2 1_555 1_555
C12 C2 1_555 1_555
C13 C12 1_555 1_555
C14 C13 1_555 1_555
C15 C14 1_555 1_555
C16 C15 1_555 1_555
C17 C16 1_555 1_555
C18 C1 1_555 1_555
C19 C3 1_555 1_555
C20 O1 1_555 1_555
C21 O2 1_555 1_555
C22 C7 1_555 1_555
C23 O3 1_555 1_555
C24 O4 1_555 1_555
C25 C15 1_555 1_555
C26 O5 1_555 1_555
C27 O6 1_555 1_555
C28 N1 1_555 1_555
H1 C1 1_555 1_555
H2 C2 1_555 1_555
H3 C3 1_555 1_555
H4 N2 1_555 1_555
H5 C4 1_555 1_555
H6 C10 1_555 1_555
H7 C10 1_555 1_555
H8 C11 1_555 1_555
H9 C12 1_555 1_555
H10 C12 1_555 1_555
H11 C20 1_555 1_555
H12 C20 1_555 1_555
H13 C20 1_555 1_555
H14 C21 1_555 1_555
H15 C21 1_555 1_555
H16 C21 1_555 1_555
H17 C22 1_555 1_555
H18 C22 1_555 1_555
H19 C22 1_555 1_555
H20 C23 1_555 1_555
H21 C23 1_555 1_555
H22 C23 1_555 1_555
H23 C24 1_555 1_555
H24 C24 1_555 1_555
H25 C24 1_555 1_555
H26 C25 1_555 1_555
H27 C25 1_555 1_555
H28 C25 1_555 1_555
H29 C26 1_555 1_555
H30 C26 1_555 1_555
H31 C26 1_555 1_555
H32 C27 1_555 1_555
H33 C27 1_555 1_555
H34 C27 1_555 1_555
H35 C28 1_555 1_555
H36 C28 1_555 1_555
H37 C28 1_555 1_555
C10 C11 1_555 1_555
C13 C18 1_555 1_555
C17 C18 1_555 1_555

#END
