
#######################################################################
#
#                 Cambridge Crystallographic Data Centre
#                                CCDC 
#
#######################################################################
#
# If this CIF has been generated from an entry in the Cambridge 
# Structural Database, then it will include bibliographic, chemical, 
# crystal, experimental, refinement or atomic coordinate data resulting 
# from the CCDC's data processing and validation procedures.
#
#######################################################################

data_IHUJAW
_chemical_formula_moiety         'C29 H28 O5'
_chemical_name_systematic        
'(+-)-((2S,3S,4S)-3-Benzoyl-3-methyl-4-((1S)-1-methyl-2-oxo-2-phenylethyl)tetrahydro-2-furanyl)methyl benzoate'
_symmetry_cell_setting           monoclinic
_symmetry_space_group_name_H-M   'P 21/c'
_symmetry_Int_Tables_number      14
_space_group_name_Hall           '-P 2ybc'
loop_
_symmetry_equiv_pos_site_id
_symmetry_equiv_pos_as_xyz
1 x,y,z
2 -x,1/2+y,1/2-z
3 -x,-y,-z
4 x,1/2-y,1/2+z
_cell_length_a                   9.8981(8)
_cell_length_b                   21.4305(18)
_cell_length_c                   11.5763(10)
_cell_angle_alpha                90
_cell_angle_beta                 106.849(2)
_cell_angle_gamma                90
_cell_volume                     2350.17
_exptl_crystal_colour            colorless
_exptl_crystal_description       plate
_chemical_melting_point          '405-408 K'
_cell_formula_units_Z            4
_exptl_crystal_recrystallization_method dichloromethane/hexane
loop_
_atom_site_label
_atom_site_type_symbol
_atom_site_fract_x
_atom_site_fract_y
_atom_site_fract_z
O1 O -0.01355(15) 0.39953(7) 0.06633(12)
O2 O 0.22187(14) 0.46749(6) 0.01356(11)
O3 O 0.33230(14) 0.55877(6) 0.06790(12)
O4 O 0.33237(15) 0.40278(7) 0.42987(13)
O5 O 0.10105(15) 0.30361(8) 0.48136(12)
C1 C 0.1295(2) 0.40461(9) 0.14152(16)
H1 H 0.1889 0.3725 0.1167
C2 C 0.12046(19) 0.38919(8) 0.27078(16)
C3 C 0.00468(18) 0.33726(8) 0.24278(15)
H2 H 0.0530 0.2958 0.2519
C4 C -0.0737(2) 0.34706(9) 0.10706(16)
H3 H -0.0635 0.3096 0.0603
H4 H -0.1755 0.3542 0.0960
C5 C 0.1831(2) 0.46849(9) 0.12486(16)
H5 H 0.1087 0.5001 0.1202
H6 H 0.2660 0.4790 0.1936
C6 C 0.29736(18) 0.51662(9) -0.00342(16)
C7 C 0.33286(18) 0.51354(9) -0.11934(16)
C8 C 0.2903(2) 0.46473(10) -0.20042(18)
H7 H 0.2366 0.4313 -0.1824
C9 C 0.3257(3) 0.46458(11) -0.3075(2)
H8 H 0.2957 0.4313 -0.3631
C10 C 0.4044(2) 0.51258(12) -0.3336(2)
H9 H 0.4294 0.5122 -0.4069
C11 C 0.4469(2) 0.56114(11) -0.2533(2)
H10 H 0.5006 0.5944 -0.2719
C12 C 0.4122(2) 0.56205(10) -0.14590(19)
H11 H 0.4423 0.5956 -0.0907
C13 C 0.2653(2) 0.36767(9) 0.35137(16)
C14 C 0.33222(18) 0.30591(9) 0.33672(16)
C15 C 0.4408(2) 0.28554(11) 0.43589(19)
H12 H 0.4673 0.3103 0.5070
C16 C 0.5100(2) 0.23027(12) 0.4324(2)
H13 H 0.5833 0.2173 0.5012
C17 C 0.4746(2) 0.19332(11) 0.3303(2)
H14 H 0.5215 0.1548 0.3286
C18 C 0.3699(2) 0.21356(10) 0.2314(2)
H15 H 0.3466 0.1894 0.1595
C19 C 0.2976(2) 0.26858(9) 0.23443(17)
H16 H 0.2235 0.2809 0.1657
C20 C 0.0739(2) 0.44769(9) 0.32547(18)
H17 H -0.0184 0.4614 0.2741
H18 H 0.1433 0.4810 0.3309
H19 H 0.0672 0.4380 0.4064
C21 C -0.0141(2) 0.32860(9) 0.45453(16)
C22 C -0.09546(19) 0.33736(9) 0.32173(16)
H20 H -0.1466 0.3781 0.3117
C23 C -0.2037(2) 0.28425(10) 0.28502(19)
H21 H -0.2574 0.2889 0.1999
H22 H -0.2685 0.2859 0.3350
H23 H -0.1544 0.2441 0.2968
C24 C -0.0777(2) 0.34895(9) 0.55051(17)
C25 C 0.0078(2) 0.34813(10) 0.66997(18)
H24 H 0.1033 0.3349 0.6879
C26 C -0.0461(3) 0.36659(11) 0.7624(2)
H25 H 0.0129 0.3666 0.8433
C27 C -0.1839(3) 0.38474(10) 0.7376(2)
H26 H -0.2208 0.3963 0.8017
C28 C -0.2696(3) 0.38633(10) 0.6205(2)
H27 H -0.3651 0.3993 0.6036
C29 C -0.2157(2) 0.36884(10) 0.5271(2)
H28 H -0.2744 0.3706 0.4461
loop_
_geom_bond_atom_site_label_1
_geom_bond_atom_site_label_2
_geom_bond_site_symmetry_1
_geom_bond_site_symmetry_2
O1 C1 1_555 1_555
O2 C5 1_555 1_555
O3 C6 1_555 1_555
O4 C13 1_555 1_555
O5 C21 1_555 1_555
C1 H1 1_555 1_555
C2 C1 1_555 1_555
C3 C2 1_555 1_555
H2 C3 1_555 1_555
C4 O1 1_555 1_555
H3 C4 1_555 1_555
H4 C4 1_555 1_555
C5 C1 1_555 1_555
H5 C5 1_555 1_555
H6 C5 1_555 1_555
C6 O2 1_555 1_555
C7 C6 1_555 1_555
C8 C7 1_555 1_555
H7 C8 1_555 1_555
C9 C8 1_555 1_555
H8 C9 1_555 1_555
C10 C9 1_555 1_555
H9 C10 1_555 1_555
C11 C10 1_555 1_555
H10 C11 1_555 1_555
C12 C7 1_555 1_555
H11 C12 1_555 1_555
C13 C2 1_555 1_555
C14 C13 1_555 1_555
C15 C14 1_555 1_555
H12 C15 1_555 1_555
C16 C15 1_555 1_555
H13 C16 1_555 1_555
C17 C16 1_555 1_555
H14 C17 1_555 1_555
C18 C17 1_555 1_555
H15 C18 1_555 1_555
C19 C14 1_555 1_555
H16 C19 1_555 1_555
C20 C2 1_555 1_555
H17 C20 1_555 1_555
H18 C20 1_555 1_555
H19 C20 1_555 1_555
C21 C22 1_555 1_555
C22 C3 1_555 1_555
H20 C22 1_555 1_555
C23 C22 1_555 1_555
H21 C23 1_555 1_555
H22 C23 1_555 1_555
H23 C23 1_555 1_555
C24 C21 1_555 1_555
C25 C24 1_555 1_555
H24 C25 1_555 1_555
C26 C25 1_555 1_555
H25 C26 1_555 1_555
C27 C26 1_555 1_555
H26 C27 1_555 1_555
C28 C27 1_555 1_555
H27 C28 1_555 1_555
C29 C24 1_555 1_555
H28 C29 1_555 1_555
C3 C4 1_555 1_555
C11 C12 1_555 1_555
C18 C19 1_555 1_555
C28 C29 1_555 1_555

#END
