
#######################################################################
#
#                 Cambridge Crystallographic Data Centre
#                                CCDC 
#
#######################################################################
#
# If this CIF has been generated from an entry in the Cambridge 
# Structural Database, then it will include bibliographic, chemical, 
# crystal, experimental, refinement or atomic coordinate data resulting 
# from the CCDC's data processing and validation procedures.
#
#######################################################################

data_IHULIH
_chemical_formula_moiety         'C20 H19 N3 O5'
_chemical_name_systematic        
'Methyl 3-(1-(4-methoxyphenyl)-1H-imidazol-2-yl)-2-(4-nitrophenyl)propanoate'
_symmetry_cell_setting           monoclinic
_symmetry_space_group_name_H-M   'P 21/c'
_symmetry_Int_Tables_number      14
_space_group_name_Hall           '-P 2ybc'
loop_
_symmetry_equiv_pos_site_id
_symmetry_equiv_pos_as_xyz
1 x,y,z
2 -x,1/2+y,1/2-z
3 -x,-y,-z
4 x,1/2-y,1/2+z
_cell_length_a                   6.7751(9)
_cell_length_b                   38.829(5)
_cell_length_c                   7.5838(11)
_cell_angle_alpha                90
_cell_angle_beta                 110.005(3)
_cell_angle_gamma                90
_cell_volume                     1874.7
_exptl_crystal_colour            colorless
_exptl_crystal_description       prismatic
_cell_formula_units_Z            4
loop_
_atom_site_label
_atom_site_type_symbol
_atom_site_fract_x
_atom_site_fract_y
_atom_site_fract_z
N1 N 0.9161(4) 0.16917(5) 0.0720(3)
N2 N 1.1628(4) 0.13391(5) 0.2503(3)
N3 N 0.3248(5) -0.03034(7) 0.2152(4)
O1 O 0.8166(3) 0.12538(5) 0.5395(3)
O2 O 1.0794(3) 0.08752(5) 0.6379(3)
O3 O 0.1388(4) -0.02538(6) 0.1801(5)
O4 O 0.4000(4) -0.05888(6) 0.2248(4)
O5 O 0.1331(3) 0.22580(4) -0.3180(3)
C1 C 1.1074(5) 0.18538(7) 0.1056(4)
H1 H 1.1305 0.2070 0.0632
C2 C 1.2530(5) 0.16344(7) 0.2123(5)
H2 H 1.3968 0.1677 0.2551
C3 C 0.9595(4) 0.13820(6) 0.1632(4)
C4 C 0.7919(4) 0.11276(6) 0.1619(4)
H3 H 0.7419 0.1011 0.0416
H4 H 0.6741 0.1249 0.1783
C5 C 0.8760(4) 0.08617(6) 0.3185(4)
H5 H 1.0095 0.0774 0.3131
C6 C 0.9188(4) 0.10239(6) 0.5086(4)
C7 C 1.1304(5) 0.09955(8) 0.8283(4)
H6 H 1.1334 0.1243 0.8299
H7 H 1.2656 0.0908 0.9035
H8 H 1.0261 0.0916 0.8782
C8 C 0.7283(4) 0.05570(6) 0.2959(4)
C9 C 0.8036(4) 0.02252(6) 0.3016(4)
H9 H 0.9457 0.0192 0.3224
C10 C 0.6733(5) -0.00586(7) 0.2771(4)
H10 H 0.7261 -0.0281 0.2818
C11 C 0.4660(5) -0.00037(7) 0.2461(4)
C12 C 0.3832(4) 0.03206(7) 0.2397(4)
H11 H 0.2404 0.0352 0.2166
C13 C 0.5173(4) 0.06015(6) 0.2683(4)
H12 H 0.4646 0.0822 0.2690
C14 C 0.7156(4) 0.18327(6) -0.0330(4)
C15 C 0.5804(5) 0.16611(7) -0.1862(4)
H13 H 0.6218 0.1453 -0.2231
C16 C 0.3854(5) 0.17929(7) -0.2852(4)
H14 H 0.2950 0.1673 -0.3869
C17 C 0.3242(5) 0.21080(6) -0.2319(4)
C18 C 0.4611(5) 0.22848(7) -0.0817(4)
H15 H 0.4224 0.2498 -0.0483
C19 C 0.6542(5) 0.21484(7) 0.0191(4)
H16 H 0.7438 0.2267 0.1220
C20 C -0.0213(5) 0.20664(8) -0.4555(5)
H17 H 0.0274 0.2014 -0.5573
H18 H -0.1485 0.2199 -0.5014
H19 H -0.0481 0.1856 -0.4012
loop_
_geom_bond_atom_site_label_1
_geom_bond_atom_site_label_2
_geom_bond_site_symmetry_1
_geom_bond_site_symmetry_2
N1 C1 1_555 1_555
N2 C2 1_555 1_555
N3 O3 1_555 1_555
O1 C6 1_555 1_555
O2 C6 1_555 1_555
O4 N3 1_555 1_555
O5 C17 1_555 1_555
C1 H1 1_555 1_555
C2 C1 1_555 1_555
H2 C2 1_555 1_555
C3 N1 1_555 1_555
C4 C3 1_555 1_555
H3 C4 1_555 1_555
H4 C4 1_555 1_555
C5 C4 1_555 1_555
H5 C5 1_555 1_555
C6 C5 1_555 1_555
C7 O2 1_555 1_555
H6 C7 1_555 1_555
H7 C7 1_555 1_555
H8 C7 1_555 1_555
C8 C5 1_555 1_555
C9 C8 1_555 1_555
H9 C9 1_555 1_555
C10 C9 1_555 1_555
H10 C10 1_555 1_555
C11 N3 1_555 1_555
C12 C11 1_555 1_555
H11 C12 1_555 1_555
C13 C8 1_555 1_555
H12 C13 1_555 1_555
C14 N1 1_555 1_555
C15 C14 1_555 1_555
H13 C15 1_555 1_555
C16 C15 1_555 1_555
H14 C16 1_555 1_555
C17 C16 1_555 1_555
C18 C17 1_555 1_555
H15 C18 1_555 1_555
C19 C14 1_555 1_555
H16 C19 1_555 1_555
C20 O5 1_555 1_555
H17 C20 1_555 1_555
H18 C20 1_555 1_555
H19 C20 1_555 1_555
N2 C3 1_555 1_555
C10 C11 1_555 1_555
C12 C13 1_555 1_555
C18 C19 1_555 1_555

#END
