
#######################################################################
#
#                 Cambridge Crystallographic Data Centre
#                                CCDC 
#
#######################################################################
#
# If this CIF has been generated from an entry in the Cambridge 
# Structural Database, then it will include bibliographic, chemical, 
# crystal, experimental, refinement or atomic coordinate data resulting 
# from the CCDC's data processing and validation procedures.
#
#######################################################################

data_IHULED
_chemical_formula_moiety         'C23 H17 Cl2 N3 O4'
_chemical_name_systematic        
2-((3,4-Dichlorophenyl)(4-nitrophenoxy)methyl)-1-(4-methoxyphenyl)-1H-imidazole
_symmetry_cell_setting           triclinic
_symmetry_space_group_name_H-M   'P -1'
_symmetry_Int_Tables_number      2
_space_group_name_Hall           '-P 1'
loop_
_symmetry_equiv_pos_site_id
_symmetry_equiv_pos_as_xyz
1 x,y,z
2 -x,-y,-z
_cell_length_a                   7.9059(9)
_cell_length_b                   8.3874(9)
_cell_length_c                   16.7866(19)
_cell_angle_alpha                88.497(2)
_cell_angle_beta                 88.371(2)
_cell_angle_gamma                73.100(2)
_cell_volume                     1064.43
_exptl_crystal_colour            yellow
_exptl_crystal_description       prismatic
_cell_formula_units_Z            2
loop_
_atom_site_label
_atom_site_type_symbol
_atom_site_fract_x
_atom_site_fract_y
_atom_site_fract_z
Cl1 Cl 0.81070(7) 1.42198(7) 0.51305(3)
Cl2 Cl 1.14661(7) 1.21422(7) 0.41632(3)
N1 N 0.5401(2) 0.6940(2) 0.34438(10)
N2 N 0.51650(19) 0.90065(19) 0.25614(9)
N3 N 1.1108(2) 0.2130(2) 0.09031(12)
O1 O 0.91760(16) 0.78858(16) 0.27094(7)
O2 O 0.6519(2) 1.40825(17) 0.06720(8)
O3 O 1.1654(3) 0.2268(2) 0.02248(11)
O4 O 1.0945(2) 0.0823(2) 0.11861(10)
C1 C 0.7944(2) 0.8088(2) 0.33789(11)
H1 H 0.8412 0.7161 0.3755
C2 C 0.6170(2) 0.8011(2) 0.31313(11)
C3 C 0.3819(3) 0.7269(3) 0.30630(13)
H2 H 0.2978 0.6707 0.3165
C4 C 0.3650(2) 0.8511(3) 0.25229(12)
H3 H 0.2701 0.8951 0.2189
C5 C 0.5514(2) 1.0338(2) 0.20863(11)
C6 C 0.6387(3) 1.0012(3) 0.13575(11)
H4 H 0.6768 0.8924 0.1176
C7 C 0.6695(3) 1.1281(3) 0.09005(12)
H5 H 0.7280 1.1051 0.0410
C8 C 0.6138(2) 1.2905(2) 0.11663(11)
C9 C 0.5262(3) 1.3234(3) 0.18939(12)
H6 H 0.4883 1.4320 0.2078
C10 C 0.4954(3) 1.1952(3) 0.23455(12)
H7 H 0.4356 1.2180 0.2834
C11 C 0.7961(2) 0.9677(2) 0.37816(10)
C12 C 0.6487(2) 1.0591(3) 0.42177(11)
H8 H 0.5459 1.0262 0.4232
C13 C 0.6541(3) 1.1979(3) 0.46286(12)
H9 H 0.5550 1.2578 0.4918
C14 C 0.8048(3) 1.2482(2) 0.46125(11)
C15 C 0.9519(2) 1.1575(2) 0.41819(11)
C16 C 0.9471(2) 1.0185(2) 0.37702(11)
H10 H 1.0465 0.9586 0.3483
C17 C 0.9609(2) 0.6411(2) 0.23067(11)
C18 C 1.0405(2) 0.6477(3) 0.15623(11)
H11 H 1.0602 0.7463 0.1376
C19 C 1.0902(3) 0.5068(3) 0.11011(12)
H12 H 1.1433 0.5096 0.0602
C20 C 1.0600(2) 0.3625(2) 0.13914(11)
C21 C 0.9814(3) 0.3548(3) 0.21269(12)
H13 H 0.9629 0.2556 0.2312
C22 C 0.9301(3) 0.4953(3) 0.25882(12)
H14 H 0.8754 0.4920 0.3084
C23 C 0.5864(3) 1.5782(3) 0.09056(14)
H15 H 0.4604 1.6071 0.0982
H16 H 0.6150 1.6489 0.0497
H17 H 0.6398 1.5926 0.1395
loop_
_geom_bond_atom_site_label_1
_geom_bond_atom_site_label_2
_geom_bond_site_symmetry_1
_geom_bond_site_symmetry_2
Cl1 C14 1_555 1_555
Cl2 C15 1_555 1_555
N1 C2 1_555 1_555
N2 C2 1_555 1_555
N3 O3 1_555 1_555
O1 C1 1_555 1_555
O2 C8 1_555 1_555
O4 N3 1_555 1_555
C1 H1 1_555 1_555
C2 C1 1_555 1_555
C3 N1 1_555 1_555
H2 C3 1_555 1_555
C4 N2 1_555 1_555
H3 C4 1_555 1_555
C5 N2 1_555 1_555
C6 C5 1_555 1_555
H4 C6 1_555 1_555
C7 C6 1_555 1_555
H5 C7 1_555 1_555
C8 C7 1_555 1_555
C9 C8 1_555 1_555
H6 C9 1_555 1_555
C10 C5 1_555 1_555
H7 C10 1_555 1_555
C11 C1 1_555 1_555
C12 C11 1_555 1_555
H8 C12 1_555 1_555
C13 C12 1_555 1_555
H9 C13 1_555 1_555
C14 C13 1_555 1_555
C15 C14 1_555 1_555
C16 C11 1_555 1_555
H10 C16 1_555 1_555
C17 O1 1_555 1_555
C18 C17 1_555 1_555
H11 C18 1_555 1_555
C19 C18 1_555 1_555
H12 C19 1_555 1_555
C20 N3 1_555 1_555
C21 C20 1_555 1_555
H13 C21 1_555 1_555
C22 C17 1_555 1_555
H14 C22 1_555 1_555
C23 O2 1_555 1_555
H15 C23 1_555 1_555
H16 C23 1_555 1_555
H17 C23 1_555 1_555
C3 C4 1_555 1_555
C9 C10 1_555 1_555
C15 C16 1_555 1_555
C19 C20 1_555 1_555
C21 C22 1_555 1_555

#END
