
#######################################################################
#
#                 Cambridge Crystallographic Data Centre
#                                CCDC 
#
#######################################################################
#
# If this CIF has been generated from an entry in the Cambridge 
# Structural Database, then it will include bibliographic, chemical, 
# crystal, experimental, refinement or atomic coordinate data resulting 
# from the CCDC's data processing and validation procedures.
#
#######################################################################

data_IHUMAB
_chemical_formula_moiety         'C5 H8 N3 1+,C7 H4 Cl1 O2 1-'
_chemical_name_systematic        '2,6-diaminopyridin-1-ium 2-chlorobenzoate'
_symmetry_cell_setting           monoclinic
_symmetry_space_group_name_H-M   'P 21/c'
_symmetry_Int_Tables_number      14
_space_group_name_Hall           '-P 2ybc'
loop_
_symmetry_equiv_pos_site_id
_symmetry_equiv_pos_as_xyz
1 x,y,z
2 -x,1/2+y,1/2-z
3 -x,-y,-z
4 x,1/2-y,1/2+z
_cell_length_a                   4.0040(4)
_cell_length_b                   25.717(3)
_cell_length_c                   11.6860(9)
_cell_angle_alpha                90
_cell_angle_beta                 91.9820(10)
_cell_angle_gamma                90
_cell_volume                     1202.6
_exptl_crystal_colour            colorless
_exptl_crystal_description       block
_cell_formula_units_Z            4
loop_
_atom_site_label
_atom_site_type_symbol
_atom_site_fract_x
_atom_site_fract_y
_atom_site_fract_z
Cl1 Cl 1.30852(19) 0.58996(3) -0.00394(5)
O1 O 0.9757(5) 0.68975(6) 0.07552(14)
O2 O 1.1849(5) 0.70095(6) 0.25161(13)
C1 C 1.0644(6) 0.67339(9) 0.17145(19)
C2 C 1.0223(6) 0.61621(8) 0.19676(18)
C3 C 1.1197(6) 0.57668(9) 0.12414(18)
C4 C 1.0733(6) 0.52477(9) 0.1513(2)
H1 H 1.1455 0.4988 0.1026
C5 C 0.9201(7) 0.51197(10) 0.2506(2)
H2 H 0.8835 0.4772 0.2683
C6 C 0.8199(7) 0.55044(10) 0.3244(2)
H3 H 0.7161 0.5417 0.3917
C7 C 0.8749(7) 0.60163(9) 0.2975(2)
H4 H 0.8113 0.6273 0.3484
N1 N 0.3944(5) 0.70298(7) 0.68092(14)
H5 H 0.3296 0.7342 0.6939
N2 N 0.1591(6) 0.71192(8) 0.50027(16)
H6 H 0.1055 0.7432 0.5181
H7 H 0.1081 0.7000 0.4331
N3 N 0.6256(6) 0.70341(8) 0.86305(16)
H8 H 0.5575 0.7350 0.8692
H9 H 0.7327 0.6888 0.9194
C8 C 0.3212(6) 0.68192(9) 0.57657(18)
C9 C 0.4218(6) 0.63139(9) 0.5558(2)
H10 H 0.3736 0.6157 0.4854
C10 C 0.5939(6) 0.60491(10) 0.6409(2)
H11 H 0.6613 0.5709 0.6274
C11 C 0.6696(6) 0.62707(9) 0.7457(2)
H12 H 0.7893 0.6086 0.8019
C12 C 0.5650(6) 0.67712(9) 0.76590(19)
loop_
_geom_bond_atom_site_label_1
_geom_bond_atom_site_label_2
_geom_bond_site_symmetry_1
_geom_bond_site_symmetry_2
Cl1 C3 1_555 1_555
O1 C1 1_555 1_555
O2 C1 1_555 1_555
C1 C2 1_555 1_555
C2 C3 1_555 1_555
C3 C4 1_555 1_555
C4 H1 1_555 1_555
C5 C4 1_555 1_555
H2 C5 1_555 1_555
C6 C5 1_555 1_555
H3 C6 1_555 1_555
C7 C2 1_555 1_555
H4 C7 1_555 1_555
N1 H5 1_555 1_555
N2 H6 1_555 1_555
H7 N2 1_555 1_555
N3 H8 1_555 1_555
H9 N3 1_555 1_555
C8 N1 1_555 1_555
C9 C8 1_555 1_555
H10 C9 1_555 1_555
C10 C9 1_555 1_555
H11 C10 1_555 1_555
C11 C10 1_555 1_555
H12 C11 1_555 1_555
C12 N1 1_555 1_555
C6 C7 1_555 1_555
N2 C8 1_555 1_555
N3 C12 1_555 1_555
C11 C12 1_555 1_555

#END
