
#######################################################################
#
#                 Cambridge Crystallographic Data Centre
#                                CCDC 
#
#######################################################################
#
# If this CIF has been generated from an entry in the Cambridge 
# Structural Database, then it will include bibliographic, chemical, 
# crystal, experimental, refinement or atomic coordinate data resulting 
# from the CCDC's data processing and validation procedures.
#
#######################################################################

data_IHUMOP
_chemical_formula_moiety         'C8 H4 N1 O6 1-,C5 H8 N3 1+'
_chemical_name_systematic        
'2,6-diaminopyridin-1-ium 2-carboxy-4-nitrobenzoate'
_symmetry_cell_setting           monoclinic
_symmetry_space_group_name_H-M   'P 21/c'
_symmetry_Int_Tables_number      14
_space_group_name_Hall           '-P 2ybc'
loop_
_symmetry_equiv_pos_site_id
_symmetry_equiv_pos_as_xyz
1 x,y,z
2 -x,1/2+y,1/2-z
3 -x,-y,-z
4 x,1/2-y,1/2+z
_cell_length_a                   14.7104(12)
_cell_length_b                   3.8489(2)
_cell_length_c                   24.8192(19)
_cell_angle_alpha                90
_cell_angle_beta                 92.9900(10)
_cell_angle_gamma                90
_cell_volume                     1403.32
_exptl_crystal_colour            colorless
_exptl_crystal_description       block
_cell_formula_units_Z            4
loop_
_atom_site_label
_atom_site_type_symbol
_atom_site_fract_x
_atom_site_fract_y
_atom_site_fract_z
N1 N 0.17908(14) 0.5682(6) 0.37234(9)
H1 H 0.2000 0.6429 0.4032
N2 N 0.31370(15) 0.7643(7) 0.33847(9)
H2 H 0.3298 0.8355 0.3704
H3 H 0.3494 0.7936 0.3125
N3 N 0.05077(17) 0.3936(9) 0.41614(11)
H4 H 0.0764 0.4701 0.4457
H5 H -0.0025 0.3015 0.4161
C1 C 0.23245(19) 0.6063(8) 0.32914(11)
C2 C 0.1989(2) 0.4809(8) 0.27891(11)
H6 H 0.2329 0.5006 0.2485
C3 C 0.1133(2) 0.3266(9) 0.27582(13)
H7 H 0.0908 0.2429 0.2426
C4 C 0.0604(2) 0.2916(8) 0.31971(14)
H8 H 0.0035 0.1862 0.3162
C5 C 0.0942(2) 0.4183(8) 0.36958(13)
N4 N 0.4334(2) 0.6512(7) 0.68499(10)
O1 O 0.35774(16) 0.0259(7) 0.44848(8)
O2 O 0.22179(14) -0.1244(7) 0.47462(8)
O3 O 0.12518(14) -0.0548(8) 0.54976(10)
H9 H 0.1565 -0.0579 0.5234
O4 O 0.13811(16) 0.0978(9) 0.63437(10)
O5 O 0.38151(17) 0.6812(7) 0.72196(9)
O6 O 0.51148(17) 0.7608(7) 0.68643(9)
C6 C 0.3008(2) 0.0149(8) 0.48279(11)
C7 C 0.1722(2) 0.0769(9) 0.59085(14)
C8 C 0.32613(17) 0.1667(7) 0.53937(10)
C9 C 0.27058(17) 0.1987(7) 0.58472(11)
C10 C 0.30841(18) 0.3563(7) 0.63148(11)
H10 H 0.2730 0.3818 0.6612
C11 C 0.39736(18) 0.4753(7) 0.63450(10)
C12 C 0.45299(18) 0.4403(8) 0.59195(11)
H11 H 0.5131 0.5165 0.5946
C13 C 0.41647(18) 0.2875(7) 0.54498(11)
H12 H 0.4534 0.2639 0.5159
loop_
_geom_bond_atom_site_label_1
_geom_bond_atom_site_label_2
_geom_bond_site_symmetry_1
_geom_bond_site_symmetry_2
N1 H1 1_555 1_555
N2 H2 1_555 1_555
H3 N2 1_555 1_555
N3 H4 1_555 1_555
H5 N3 1_555 1_555
C1 N1 1_555 1_555
C2 C1 1_555 1_555
H6 C2 1_555 1_555
C3 C2 1_555 1_555
H7 C3 1_555 1_555
C4 C3 1_555 1_555
H8 C4 1_555 1_555
C5 N1 1_555 1_555
N4 O5 1_555 1_555
O1 C6 1_555 1_555
O2 C6 1_555 1_555
O3 H9 1_555 1_555
O4 C7 1_555 1_555
O6 N4 1_555 1_555
C6 C8 1_555 1_555
C7 O3 1_555 1_555
C8 C9 1_555 1_555
C9 C7 1_555 1_555
C10 C9 1_555 1_555
H10 C10 1_555 1_555
C11 N4 1_555 1_555
C12 C11 1_555 1_555
H11 C12 1_555 1_555
C13 C8 1_555 1_555
H12 C13 1_555 1_555
N2 C1 1_555 1_555
N3 C5 1_555 1_555
C4 C5 1_555 1_555
C10 C11 1_555 1_555
C12 C13 1_555 1_555

#END
