
#######################################################################
#
#                 Cambridge Crystallographic Data Centre
#                                CCDC 
#
#######################################################################
#
# If this CIF has been generated from an entry in the Cambridge 
# Structural Database, then it will include bibliographic, chemical, 
# crystal, experimental, refinement or atomic coordinate data resulting 
# from the CCDC's data processing and validation procedures.
#
#######################################################################

data_IHUVOY
_chemical_formula_moiety         'C16 H16 Br1 N1 O2'
_chemical_name_systematic        
3a-bromo-3a,4,5,7,12b,12c-hexahydro-3H-[1,3]dioxolo[4,5-j]pyrrolo[3,2,1-de]phenanthridine
_symmetry_cell_setting           triclinic
_symmetry_space_group_name_H-M   'P -1'
_symmetry_Int_Tables_number      2
_space_group_name_Hall           '-P 1'
loop_
_symmetry_equiv_pos_site_id
_symmetry_equiv_pos_as_xyz
1 x,y,z
2 -x,-y,-z
_cell_length_a                   7.7674(11)
_cell_length_b                   9.4798(13)
_cell_length_c                   9.7608(14)
_cell_angle_alpha                103.452(2)
_cell_angle_beta                 95.382(2)
_cell_angle_gamma                93.343(2)
_cell_volume                     693.534
_exptl_crystal_colour            colorless
_exptl_crystal_description       block
_cell_formula_units_Z            2
loop_
_atom_site_label
_atom_site_type_symbol
_atom_site_fract_x
_atom_site_fract_y
_atom_site_fract_z
Br1 Br -0.02783(4) 0.74339(4) 0.99851(4)
O1 O 0.7055(3) 1.2730(3) 0.6266(3)
O2 O 0.4187(3) 1.3267(2) 0.5944(3)
N1 N 0.4166(3) 0.7382(2) 0.8096(2)
C1 C 0.3385(4) 0.9995(3) 0.7343(3)
C2 C 0.2956(4) 1.1209(3) 0.6814(3)
H1 H 0.1816 1.1444 0.6707
C3 C 0.4281(4) 1.2025(3) 0.6456(3)
C4 C 0.5922(5) 1.3595(4) 0.5660(4)
H2 H 0.5980 1.3403 0.4646
H3 H 0.6276 1.4617 0.6069
C5 C 0.5975(4) 1.1698(4) 0.6626(3)
C6 C 0.6425(4) 1.0534(4) 0.7127(3)
H4 H 0.7576 1.0317 0.7223
C7 C 0.5097(4) 0.9661(3) 0.7488(3)
C8 C 0.5627(4) 0.8414(3) 0.8103(3)
H5 H 0.6483 0.7913 0.7555
H6 H 0.6163 0.8791 0.9068
C9 C 0.2686(3) 0.8112(3) 0.8671(3)
H7 H 0.3057 0.8700 0.9631
C10 C 0.1936(4) 0.9082(3) 0.7772(3)
H8 H 0.1272 0.9766 0.8384
C11 C 0.0682(4) 0.8258(4) 0.6546(3)
H9 H 0.0300 0.8746 0.5866
C12 C 0.0093(4) 0.6886(4) 0.6366(4)
H10 H -0.0746 0.6488 0.5610
C13 C 0.0678(4) 0.5941(3) 0.7311(4)
H11 H -0.0310 0.5331 0.7439
H12 H 0.1499 0.5308 0.6854
C14 C 0.1531(4) 0.6778(3) 0.8753(3)
C15 C 0.2811(4) 0.5902(4) 0.9433(4)
H13 H 0.2830 0.6141 1.0455
H14 H 0.2502 0.4869 0.9068
C16 C 0.4559(4) 0.6350(4) 0.8983(4)
H15 H 0.5367 0.6811 0.9805
H16 H 0.5055 0.5509 0.8444
loop_
_geom_bond_atom_site_label_1
_geom_bond_atom_site_label_2
_geom_bond_site_symmetry_1
_geom_bond_site_symmetry_2
Br1 C14 1_555 1_555
O1 C4 1_555 1_555
O2 C3 1_555 1_555
N1 C8 1_555 1_555
C1 C2 1_555 1_555
C2 H1 1_555 1_555
C3 C2 1_555 1_555
C4 O2 1_555 1_555
H2 C4 1_555 1_555
H3 C4 1_555 1_555
C5 O1 1_555 1_555
C6 C5 1_555 1_555
H4 C6 1_555 1_555
C7 C1 1_555 1_555
C8 C7 1_555 1_555
H5 C8 1_555 1_555
H6 C8 1_555 1_555
C9 N1 1_555 1_555
H7 C9 1_555 1_555
C10 C1 1_555 1_555
H8 C10 1_555 1_555
C11 C10 1_555 1_555
H9 C11 1_555 1_555
C12 C11 1_555 1_555
H10 C12 1_555 1_555
C13 C12 1_555 1_555
H11 C13 1_555 1_555
H12 C13 1_555 1_555
C14 C9 1_555 1_555
C15 C14 1_555 1_555
H13 C15 1_555 1_555
H14 C15 1_555 1_555
C16 N1 1_555 1_555
H15 C16 1_555 1_555
H16 C16 1_555 1_555
C3 C5 1_555 1_555
C6 C7 1_555 1_555
C9 C10 1_555 1_555
C13 C14 1_555 1_555
C15 C16 1_555 1_555

#END
