
#######################################################################
#
#                 Cambridge Crystallographic Data Centre
#                                CCDC 
#
#######################################################################
#
# If this CIF has been generated from an entry in the Cambridge 
# Structural Database, then it will include bibliographic, chemical, 
# crystal, experimental, refinement or atomic coordinate data resulting 
# from the CCDC's data processing and validation procedures.
#
#######################################################################

data_IJABEC
_chemical_compound_source        'fungus Eurotium rubrum MA-150'
_chemical_name_common            'Rubrumazine A'
_chemical_formula_moiety         'C25 H33 N3 O4'
_chemical_name_systematic        
3-((7-(2-Hydroxy-3-methoxy-3-methylbutyl)-2-(2-methylbut-3-en-2-yl)-1H-indol-3-yl)methylene)-6-methylpiperazine-2,5-dione
_chemical_properties_biological  
'compound exhibits brine shrimp (Artemia salina) lethality'
_symmetry_cell_setting           orthorhombic
_symmetry_space_group_name_H-M   'P 21 21 21'
_symmetry_Int_Tables_number      19
_space_group_name_Hall           'P 2ac 2ab'
loop_
_symmetry_equiv_pos_site_id
_symmetry_equiv_pos_as_xyz
1 x,y,z
2 1/2-x,-y,1/2+z
3 -x,1/2+y,1/2-z
4 1/2+x,1/2-y,-z
_cell_length_a                   6.0367(5)
_cell_length_b                   19.1261(15)
_cell_length_c                   20.5025(18)
_cell_angle_alpha                90
_cell_angle_beta                 90
_cell_angle_gamma                90
_cell_volume                     2367.19
_chemical_melting_point          '236-238 deg.C'
_cell_formula_units_Z            4
loop_
_atom_site_label
_atom_site_type_symbol
_atom_site_fract_x
_atom_site_fract_y
_atom_site_fract_z
N1 N 0.3072(16) 0.5697(5) 0.6405(4)
H1 H 0.2275 0.5465 0.6133
N2 N 0.6045(16) 0.6413(5) 0.8535(4)
H2 H 0.4744 0.6286 0.8411
N3 N 1.0163(16) 0.6543(5) 0.9063(4)
H3 H 1.1272 0.6465 0.9316
O1 O 0.4543(14) 0.7000(5) 0.9382(4)
O2 O 1.1663(13) 0.5870(4) 0.8280(4)
O3 O 0.0258(16) 0.7259(5) 0.4930(5)
H4 H -0.1047 0.7377 0.4912
O4 O 0.0213(15) 0.5386(5) 0.5100(4)
C1 C 0.497(2) 0.5438(7) 0.6719(5)
C2 C 0.573(2) 0.5949(6) 0.7142(6)
C3 C 0.432(2) 0.6541(6) 0.7062(5)
C4 C 0.424(2) 0.7216(7) 0.7312(5)
H5 H 0.5332 0.7369 0.7598
C5 C 0.253(2) 0.7662(7) 0.7137(6)
H6 H 0.2452 0.8101 0.7332
C6 C 0.094(2) 0.7481(7) 0.6683(5)
H7 H -0.0125 0.7807 0.6565
C7 C 0.091(2) 0.6819(7) 0.6399(5)
C8 C 0.266(2) 0.6391(7) 0.6596(5)
C9 C 0.552(2) 0.4676(8) 0.6600(6)
C10 C 0.429(2) 0.4197(7) 0.7023(6)
H8 H 0.4509 0.3725 0.6936
C11 C 0.295(2) 0.4328(7) 0.7498(7)
H9 H 0.2646 0.4788 0.7615
H10 H 0.2284 0.3962 0.7725
C12 C 0.803(2) 0.4562(7) 0.6724(7)
H11 H 0.8364 0.4656 0.7173
H12 H 0.8873 0.4873 0.6451
H13 H 0.8419 0.4087 0.6623
C13 C 0.512(3) 0.4461(7) 0.5880(6)
H14 H 0.5552 0.3982 0.5821
H15 H 0.5989 0.4754 0.5599
H16 H 0.3581 0.4513 0.5776
C14 C 0.767(2) 0.5935(6) 0.7567(6)
H17 H 0.8946 0.5742 0.7385
C15 C 0.616(2) 0.6842(7) 0.9065(6)
C16 C 0.787(2) 0.6155(6) 0.8167(6)
C17 C 1.001(2) 0.6190(7) 0.8509(6)
C18 C 0.8499(19) 0.7062(7) 0.9259(6)
H18 H 0.8540 0.7099 0.9736
C19 C 0.896(2) 0.7779(7) 0.8984(6)
H19 H 0.9205 0.7745 0.8522
H20 H 1.0262 0.7970 0.9189
H21 H 0.7722 0.8080 0.9067
C20 C -0.064(2) 0.6586(6) 0.5887(5)
H22 H -0.1923 0.6890 0.5888
H23 H -0.1136 0.6116 0.5988
C21 C 0.042(2) 0.6590(6) 0.5199(5)
H24 H 0.2000 0.6505 0.5265
C22 C -0.037(2) 0.6031(7) 0.4752(6)
C23 C -0.294(2) 0.6023(7) 0.4663(6)
H25 H -0.3349 0.5641 0.4384
H26 H -0.3410 0.6455 0.4469
H27 H -0.3637 0.5967 0.5080
C24 C 0.072(3) 0.6078(8) 0.4100(5)
H28 H 0.2258 0.5959 0.4141
H29 H 0.0584 0.6546 0.3936
H30 H 0.0014 0.5759 0.3804
C25 C 0.006(3) 0.4751(7) 0.4751(7)
H31 H -0.1440 0.4686 0.4605
H32 H 0.0470 0.4371 0.5031
H33 H 0.1032 0.4766 0.4382
loop_
_geom_bond_atom_site_label_1
_geom_bond_atom_site_label_2
_geom_bond_site_symmetry_1
_geom_bond_site_symmetry_2
N1 H1 1_555 1_555
N2 H2 1_555 1_555
N3 H3 1_555 1_555
O1 C15 1_555 1_555
O2 C17 1_555 1_555
O3 H4 1_555 1_555
O4 C22 1_555 1_555
C1 N1 1_555 1_555
C2 C1 1_555 1_555
C3 C2 1_555 1_555
C4 C3 1_555 1_555
H5 C4 1_555 1_555
C5 C4 1_555 1_555
H6 C5 1_555 1_555
C6 C5 1_555 1_555
H7 C6 1_555 1_555
C7 C6 1_555 1_555
C8 N1 1_555 1_555
C9 C1 1_555 1_555
C10 C9 1_555 1_555
H8 C10 1_555 1_555
C11 C10 1_555 1_555
H9 C11 1_555 1_555
H10 C11 1_555 1_555
C12 C9 1_555 1_555
H11 C12 1_555 1_555
H12 C12 1_555 1_555
H13 C12 1_555 1_555
C13 C9 1_555 1_555
H14 C13 1_555 1_555
H15 C13 1_555 1_555
H16 C13 1_555 1_555
C14 C2 1_555 1_555
H17 C14 1_555 1_555
C15 N2 1_555 1_555
C16 N2 1_555 1_555
C17 N3 1_555 1_555
C18 N3 1_555 1_555
H18 C18 1_555 1_555
C19 C18 1_555 1_555
H19 C19 1_555 1_555
H20 C19 1_555 1_555
H21 C19 1_555 1_555
C20 C7 1_555 1_555
H22 C20 1_555 1_555
H23 C20 1_555 1_555
C21 O3 1_555 1_555
H24 C21 1_555 1_555
C22 C21 1_555 1_555
C23 C22 1_555 1_555
H25 C23 1_555 1_555
H26 C23 1_555 1_555
H27 C23 1_555 1_555
C24 C22 1_555 1_555
H28 C24 1_555 1_555
H29 C24 1_555 1_555
H30 C24 1_555 1_555
C25 O4 1_555 1_555
H31 C25 1_555 1_555
H32 C25 1_555 1_555
H33 C25 1_555 1_555
C3 C8 1_555 1_555
C7 C8 1_555 1_555
C14 C16 1_555 1_555
C15 C18 1_555 1_555
C16 C17 1_555 1_555
C20 C21 1_555 1_555

#END
