
#######################################################################
#
#                 Cambridge Crystallographic Data Centre
#                                CCDC 
#
#######################################################################
#
# If this CIF has been generated from an entry in the Cambridge 
# Structural Database, then it will include bibliographic, chemical, 
# crystal, experimental, refinement or atomic coordinate data resulting 
# from the CCDC's data processing and validation procedures.
#
#######################################################################

data_IJACAX
_chemical_formula_moiety         'C15 H18 Li1 N3 O3,H2 O1'
_chemical_name_systematic        
'Aqua-(N,N-di-(2-pyridylmethyl)alaninato)-lithium monohydrate'
_symmetry_cell_setting           orthorhombic
_symmetry_space_group_name_H-M   'P 21 21 21'
_symmetry_Int_Tables_number      19
_space_group_name_Hall           'P 2ac 2ab'
loop_
_symmetry_equiv_pos_site_id
_symmetry_equiv_pos_as_xyz
1 x,y,z
2 1/2-x,-y,1/2+z
3 -x,1/2+y,1/2-z
4 1/2+x,1/2-y,-z
_cell_length_a                   10.0823(3)
_cell_length_b                   15.4110(4)
_cell_length_c                   22.1081(6)
_cell_angle_alpha                90
_cell_angle_beta                 90
_cell_angle_gamma                90
_cell_volume                     3435.12
_exptl_crystal_colour            colorless
_exptl_crystal_description       'rectangular thin rods'
_cell_formula_units_Z            8
_exptl_crystal_recrystallization_method 2-propanol
loop_
_atom_site_label
_atom_site_type_symbol
_atom_site_fract_x
_atom_site_fract_y
_atom_site_fract_z
Li1 Li 0.1651(3) 0.3445(2) 0.0976(2)
O1 O 0.30929(14) 0.33036(9) 0.03789(7)
O2 O 0.50736(15) 0.37348(10) 0.00427(8)
O3 O 0.0189(2) 0.26680(10) 0.07240(8)
H1 H 0.0185(27) 0.2178(13) 0.0513(12)
H2 H -0.0569(22) 0.2903(16) 0.0644(13)
C1 C 0.4081(2) 0.38066(12) 0.03805(10)
C2 C 0.4008(2) 0.45867(13) 0.08122(10)
H3 H 0.3488(2) 0.50293(13) 0.05999(10)
C3 C 0.5361(2) 0.5006(2) 0.09434(14)
H4 H 0.5244(2) 0.5487(2) 0.12146(14)
H5 H 0.5746(2) 0.5208(2) 0.05720(14)
H6 H 0.5939(2) 0.4586(2) 0.11257(14)
C4 C 0.3947(2) 0.38276(15) 0.17944(11)
H7 H 0.4411(2) 0.42124(15) 0.20697(11)
H8 H 0.4604(2) 0.34764(15) 0.15876(11)
C5 C 0.2502(2) 0.50739(14) 0.16237(10)
H9 H 0.3094(2) 0.55662(14) 0.16652(10)
H10 H 0.2201(2) 0.49101(14) 0.20246(10)
N1 N 0.3220(2) 0.43458(10) 0.13494(8)
N2 N 0.2022(2) 0.28963(12) 0.18421(8)
C6 C 0.3034(2) 0.32416(14) 0.21529(10)
C7 C 0.3256(3) 0.3042(2) 0.27569(12)
H11 H 0.3952(3) 0.3298(2) 0.29675(12)
C8 C 0.2425(4) 0.2457(2) 0.30386(14)
H12 H 0.2558(4) 0.2314(2) 0.34428(14)
C9 C 0.1401(3) 0.2084(2) 0.27215(13)
H13 H 0.0843(3) 0.1679(2) 0.29015(13)
C10 C 0.1229(2) 0.2331(2) 0.21291(11)
H14 H 0.0523(2) 0.2093(2) 0.19152(11)
N3 N 0.0550(2) 0.46759(10) 0.10469(8)
C11 C 0.1313(2) 0.53324(12) 0.12385(9)
C12 C 0.1024(2) 0.61849(13) 0.11045(11)
H15 H 0.1590(2) 0.66269(13) 0.12288(11)
C13 C -0.0116(2) 0.63762(13) 0.07833(11)
H16 H -0.0324(2) 0.69478(13) 0.06879(11)
C14 C -0.0932(2) 0.57137(14) 0.06079(10)
H17 H -0.1723(2) 0.58253(14) 0.04058(10)
C15 C -0.0550(2) 0.48780(13) 0.07386(10)
H18 H -0.1088(2) 0.44267(13) 0.06052(10)
Li2 Li -0.3101(3) 0.3511(2) 0.40014(15)
O4 O -0.15686(13) 0.33817(9) 0.45498(7)
O5 O 0.05981(14) 0.35788(10) 0.46973(7)
O6 O -0.4325(2) 0.25647(11) 0.42683(7)
H19 H -0.4238(27) 0.2168(15) 0.4532(11)
H20 H -0.5140(20) 0.2733(17) 0.4260(13)
C16 C -0.0441(2) 0.36545(12) 0.43937(10)
C17 C -0.0344(2) 0.40706(13) 0.37602(10)
H21 H -0.0204(2) 0.35917(13) 0.34756(10)
C18 C 0.0852(2) 0.4677(2) 0.36881(14)
H22 H 0.0858(2) 0.4915(2) 0.32866(14)
H23 H 0.1655(2) 0.4357(2) 0.37549(14)
H24 H 0.0791(2) 0.5140(2) 0.39775(14)
C19 C -0.1886(2) 0.45080(14) 0.29495(10)
H25 H -0.1087(2) 0.47021(14) 0.27461(10)
H26 H -0.2577(2) 0.49324(14) 0.28735(10)
C20 C -0.1910(2) 0.52657(12) 0.39243(11)
H27 H -0.1535(2) 0.57467(12) 0.36988(11)
H28 H -0.1480(2) 0.52483(12) 0.43167(11)
N4 N -0.16366(15) 0.44565(10) 0.36022(7)
N5 N -0.3010(2) 0.31285(11) 0.30566(7)
C21 C -0.2306(2) 0.36386(14) 0.26920(9)
C22 C -0.2030(3) 0.3396(2) 0.20958(11)
H29 H -0.1528(3) 0.3755(2) 0.18467(11)
C23 C -0.2514(3) 0.2615(2) 0.18824(12)
H30 H -0.2339(3) 0.2442(2) 0.14873(12)
C24 C -0.3246(3) 0.2101(2) 0.22528(12)
H31 H -0.3590(3) 0.1577(2) 0.21153(12)
C25 C -0.3467(2) 0.23738(14) 0.28343(10)
H32 H -0.3959(2) 0.20172(14) 0.30889(10)
N6 N -0.4148(2) 0.47105(10) 0.40696(8)
C26 C -0.3383(2) 0.54188(12) 0.40115(9)
C27 C -0.3879(2) 0.62475(13) 0.40675(11)
H33 H -0.3326(2) 0.67244(13) 0.40138(11)
C28 C -0.5201(3) 0.6365(2) 0.42037(11)
H34 H -0.5547(3) 0.6920(2) 0.42527(11)
C29 C -0.5992(2) 0.5650(2) 0.42654(12)
H35 H -0.6888(2) 0.5711(2) 0.43555(12)
C30 C -0.5444(2) 0.48381(15) 0.41922(11)
H36 H -0.5992(2) 0.43558(15) 0.42290(11)
O7 O -0.2461(2) 0.30331(11) 0.04138(8)
H37 H -0.2300(27) 0.2614(14) 0.0159(12)
H38 H -0.3153(23) 0.3308(16) 0.0295(13)
O8 O -0.6988(2) 0.27375(13) 0.44974(8)
H39 H -0.6853(28) 0.2369(15) 0.4785(11)
H40 H -0.7633(23) 0.3076(15) 0.4575(13)
loop_
_geom_bond_atom_site_label_1
_geom_bond_atom_site_label_2
_geom_bond_site_symmetry_1
_geom_bond_site_symmetry_2
Li1 O1 1_555 1_555
O1 C1 1_555 1_555
O2 C1 1_555 1_555
O3 Li1 1_555 1_555
H1 O3 1_555 1_555
H2 O3 1_555 1_555
C1 C2 1_555 1_555
C2 H3 1_555 1_555
C3 C2 1_555 1_555
H4 C3 1_555 1_555
H5 C3 1_555 1_555
H6 C3 1_555 1_555
C4 H7 1_555 1_555
H8 C4 1_555 1_555
C5 H9 1_555 1_555
H10 C5 1_555 1_555
N1 Li1 1_555 1_555
N2 Li1 1_555 1_555
C6 C4 1_555 1_555
C7 C6 1_555 1_555
H11 C7 1_555 1_555
C8 C7 1_555 1_555
H12 C8 1_555 1_555
C9 C8 1_555 1_555
H13 C9 1_555 1_555
C10 N2 1_555 1_555
H14 C10 1_555 1_555
N3 Li1 1_555 1_555
C11 C5 1_555 1_555
C12 C11 1_555 1_555
H15 C12 1_555 1_555
C13 C12 1_555 1_555
H16 C13 1_555 1_555
C14 C13 1_555 1_555
H17 C14 1_555 1_555
C15 N3 1_555 1_555
H18 C15 1_555 1_555
Li2 O4 1_555 1_555
O4 C16 1_555 1_555
O5 C16 1_555 1_555
O6 Li2 1_555 1_555
H19 O6 1_555 1_555
H20 O6 1_555 1_555
C16 C17 1_555 1_555
C17 H21 1_555 1_555
C18 C17 1_555 1_555
H22 C18 1_555 1_555
H23 C18 1_555 1_555
H24 C18 1_555 1_555
C19 H25 1_555 1_555
H26 C19 1_555 1_555
C20 H27 1_555 1_555
H28 C20 1_555 1_555
N4 Li2 1_555 1_555
N5 Li2 1_555 1_555
C21 C19 1_555 1_555
C22 C21 1_555 1_555
H29 C22 1_555 1_555
C23 C22 1_555 1_555
H30 C23 1_555 1_555
C24 C23 1_555 1_555
H31 C24 1_555 1_555
C25 N5 1_555 1_555
H32 C25 1_555 1_555
N6 Li2 1_555 1_555
C26 C20 1_555 1_555
C27 C26 1_555 1_555
H33 C27 1_555 1_555
C28 C27 1_555 1_555
H34 C28 1_555 1_555
C29 C28 1_555 1_555
H35 C29 1_555 1_555
C30 N6 1_555 1_555
H36 C30 1_555 1_555
O7 H37 1_555 1_555
H38 O7 1_555 1_555
O8 H39 1_555 1_555
H40 O8 1_555 1_555
C2 N1 1_555 1_555
C4 N1 1_555 1_555
C5 N1 1_555 1_555
N2 C6 1_555 1_555
C9 C10 1_555 1_555
N3 C11 1_555 1_555
C14 C15 1_555 1_555
C17 N4 1_555 1_555
C19 N4 1_555 1_555
C20 N4 1_555 1_555
N5 C21 1_555 1_555
C24 C25 1_555 1_555
N6 C26 1_555 1_555
C29 C30 1_555 1_555

#END
