
#######################################################################
#
#                 Cambridge Crystallographic Data Centre
#                                CCDC 
#
#######################################################################
#
# If this CIF has been generated from an entry in the Cambridge 
# Structural Database, then it will include bibliographic, chemical, 
# crystal, experimental, refinement or atomic coordinate data resulting 
# from the CCDC's data processing and validation procedures.
#
#######################################################################

data_IJACIH
_chemical_formula_moiety         'C17 H14 N2 O1'
_chemical_name_systematic        
(5-methyl-4-phenyl-1H-pyrazol-3-yl)(phenyl)methanone
_symmetry_cell_setting           monoclinic
_symmetry_space_group_name_H-M   'C 2'
_symmetry_Int_Tables_number      5
_space_group_name_Hall           'C 2y'
loop_
_symmetry_equiv_pos_site_id
_symmetry_equiv_pos_as_xyz
1 x,y,z
2 -x,y,-z
3 1/2+x,1/2+y,z
4 1/2-x,1/2+y,-z
_cell_length_a                   19.207(3)
_cell_length_b                   7.2361(11)
_cell_length_c                   11.5815(17)
_cell_angle_alpha                90
_cell_angle_beta                 121.316(2)
_cell_angle_gamma                90
_cell_volume                     1375.14
_exptl_crystal_description       block
_cell_formula_units_Z            4
loop_
_atom_site_label
_atom_site_type_symbol
_atom_site_fract_x
_atom_site_fract_y
_atom_site_fract_z
C1 C 0.44817(9) 0.6739(2) 0.18478(16)
N1 N 0.62596(7) 0.91111(17) 0.20433(14)
N2 N 0.56986(8) 1.04441(17) 0.17034(14)
H1 H 0.5785 1.1580 0.1597
C2 C 0.58726(9) 0.75787(19) 0.20847(15)
C3 C 0.71898(9) 0.5677(2) 0.31684(16)
C4 C 0.62850(9) 0.5768(2) 0.23205(16)
C5 C 0.50741(8) 0.7968(2) 0.17830(15)
O1 O 0.58733(8) 0.43770(15) 0.18229(15)
C6 C 0.47028(10) 0.5732(2) 0.30121(17)
H2 H 0.5238 0.5765 0.3736
C7 C 0.49872(9) 0.9843(2) 0.15427(16)
C8 C 0.36771(10) 0.6648(3) 0.07722(19)
H3 H 0.3519 0.7306 -0.0016
C9 C 0.41272(12) 0.4679(3) 0.3098(2)
H4 H 0.4280 0.4018 0.3883
C10 C 0.76314(11) 0.6904(2) 0.42294(16)
H5 H 0.7366 0.7856 0.4388
C11 C 0.43081(12) 1.1139(3) 0.1218(2)
H6 H 0.4501 1.2388 0.1331
H7 H 0.4110 1.0911 0.1814
H8 H 0.3875 1.0953 0.0300
C12 C 0.75922(11) 0.4275(3) 0.2929(2)
H9 H 0.7300 0.3445 0.2225
C13 C 0.84674(12) 0.6702(3) 0.50482(19)
H10 H 0.8761 0.7506 0.5769
C14 C 0.88686(12) 0.5323(4) 0.4806(2)
H11 H 0.9431 0.5205 0.5356
C15 C 0.31104(11) 0.5578(4) 0.0874(2)
H12 H 0.2576 0.5521 0.0149
C16 C 0.84344(13) 0.4117(4) 0.3745(3)
H13 H 0.8706 0.3193 0.3574
C17 C 0.33316(13) 0.4604(3) 0.2031(2)
H14 H 0.2948 0.3900 0.2096
loop_
_geom_bond_atom_site_label_1
_geom_bond_atom_site_label_2
_geom_bond_site_symmetry_1
_geom_bond_site_symmetry_2
C1 C5 1_555 1_555
N1 N2 1_555 1_555
N2 H1 1_555 1_555
C2 N1 1_555 1_555
C3 C4 1_555 1_555
C4 C2 1_555 1_555
C5 C2 1_555 1_555
O1 C4 1_555 1_555
C6 C1 1_555 1_555
H2 C6 1_555 1_555
C7 N2 1_555 1_555
C8 C1 1_555 1_555
H3 C8 1_555 1_555
C9 C6 1_555 1_555
H4 C9 1_555 1_555
C10 C3 1_555 1_555
H5 C10 1_555 1_555
C11 C7 1_555 1_555
H6 C11 1_555 1_555
H7 C11 1_555 1_555
H8 C11 1_555 1_555
C12 C3 1_555 1_555
H9 C12 1_555 1_555
C13 C10 1_555 1_555
H10 C13 1_555 1_555
C14 C13 1_555 1_555
H11 C14 1_555 1_555
C15 C8 1_555 1_555
H12 C15 1_555 1_555
C16 C12 1_555 1_555
H13 C16 1_555 1_555
C17 C9 1_555 1_555
H14 C17 1_555 1_555
C5 C7 1_555 1_555
C14 C16 1_555 1_555
C15 C17 1_555 1_555

#END
