
#######################################################################
#
#                 Cambridge Crystallographic Data Centre
#                                CCDC 
#
#######################################################################
#
# If this CIF has been generated from an entry in the Cambridge 
# Structural Database, then it will include bibliographic, chemical, 
# crystal, experimental, refinement or atomic coordinate data resulting 
# from the CCDC's data processing and validation procedures.
#
#######################################################################

data_IJACED
_chemical_formula_moiety         'C24 H20 N2 O3'
_chemical_name_systematic        
(4,5-bis(4-methoxyphenyl)-1H-pyrazol-3-yl)(phenyl)methanone
_symmetry_cell_setting           orthorhombic
_symmetry_space_group_name_H-M   'P 21 21 21'
_symmetry_Int_Tables_number      19
_space_group_name_Hall           'P 2ac 2ab'
loop_
_symmetry_equiv_pos_site_id
_symmetry_equiv_pos_as_xyz
1 x,y,z
2 1/2+x,1/2-y,-z
3 -x,1/2+y,1/2-z
4 1/2-x,-y,1/2+z
_cell_length_a                   6.1686(13)
_cell_length_b                   16.856(4)
_cell_length_c                   18.745(4)
_cell_angle_alpha                90
_cell_angle_beta                 90
_cell_angle_gamma                90
_cell_volume                     1949.07
_exptl_crystal_colour            yellow
_exptl_crystal_description       block
_cell_formula_units_Z            4
loop_
_atom_site_label
_atom_site_type_symbol
_atom_site_fract_x
_atom_site_fract_y
_atom_site_fract_z
C1 C 1.1127(9) 0.5507(3) 0.3381(2)
H1 H 0.9644 0.5533 0.3567
H2 H 1.2145 0.5685 0.3749
H3 H 1.1466 0.4959 0.3246
C2 C -0.2987(5) 0.66158(18) -0.20690(14)
H4 H -0.4441 0.6592 -0.2235
C3 C 0.9647(5) 0.59662(16) 0.22920(15)
C4 C 0.7777(6) 0.55228(16) 0.23650(14)
H5 H 0.7558 0.5207 0.2779
C5 C 0.6199(5) 0.55411(15) 0.18230(13)
H6 H 0.4926 0.5228 0.1866
C6 C 0.6497(4) 0.60138(12) 0.12291(11)
C7 C 0.8421(5) 0.64534(14) 0.11873(13)
H7 H 0.8659 0.6780 0.0782
C8 C 0.9977(5) 0.64288(15) 0.17123(15)
H8 H 1.1267 0.6733 0.1668
C9 C 0.4825(4) 0.60893(12) 0.06713(11)
C10 C 0.3316(4) 0.55722(11) 0.03935(10)
C11 C 0.2122(4) 0.60283(12) -0.01010(11)
C12 C 0.0262(4) 0.57913(13) -0.05504(12)
C13 C -0.0314(4) 0.62610(12) -0.11983(11)
C14 C 0.1217(5) 0.66714(15) -0.15940(12)
H9 H 0.2676 0.6695 -0.1433
C15 C 0.0633(5) 0.70484(18) -0.22257(14)
H10 H 0.1686 0.7332 -0.2494
C16 C -0.1463(5) 0.70085(18) -0.24571(13)
H11 H -0.1861 0.7257 -0.2893
C17 C -0.2428(5) 0.62521(15) -0.14344(14)
H12 H -0.3511 0.5994 -0.1159
C18 C 0.3125(4) 0.47102(12) 0.05610(11)
C19 C 0.1284(4) 0.44016(13) 0.08894(12)
H13 H 0.0105 0.4742 0.1001
C20 C 0.1159(5) 0.36055(14) 0.10545(13)
H14 H -0.0091 0.3403 0.1288
C21 C 0.2852(5) 0.30998(13) 0.08803(11)
C22 C 0.4681(5) 0.33948(13) 0.05547(14)
H15 H 0.5846 0.3051 0.0435
C23 C 0.4808(4) 0.41990(13) 0.04027(13)
H16 H 0.6082 0.4403 0.0185
C24 C 0.4209(6) 0.17707(15) 0.08889(18)
H17 H 0.4422 0.1766 0.0371
H18 H 0.3783 0.1240 0.1050
H19 H 0.5563 0.1926 0.1124
N1 N 0.4456(3) 0.67976(10) 0.03484(10)
H20 H 0.5215 0.7228 0.0440
N2 N 0.2828(4) 0.67785(10) -0.01219(10)
O1 O 1.1301(4) 0.59844(13) 0.27974(12)
O2 O -0.0817(3) 0.52059(11) -0.04030(10)
O3 O 0.2563(4) 0.23193(9) 0.10646(11)
loop_
_geom_bond_atom_site_label_1
_geom_bond_atom_site_label_2
_geom_bond_site_symmetry_1
_geom_bond_site_symmetry_2
C1 H1 1_555 1_555
H2 C1 1_555 1_555
H3 C1 1_555 1_555
C2 H4 1_555 1_555
C3 C4 1_555 1_555
C4 H5 1_555 1_555
C5 C4 1_555 1_555
H6 C5 1_555 1_555
C6 C5 1_555 1_555
C7 C6 1_555 1_555
H7 C7 1_555 1_555
C8 C3 1_555 1_555
H8 C8 1_555 1_555
C9 C6 1_555 1_555
C10 C9 1_555 1_555
C11 C10 1_555 1_555
C12 C11 1_555 1_555
C13 C12 1_555 1_555
C14 C13 1_555 1_555
H9 C14 1_555 1_555
C15 C14 1_555 1_555
H10 C15 1_555 1_555
C16 C2 1_555 1_555
H11 C16 1_555 1_555
C17 C2 1_555 1_555
H12 C17 1_555 1_555
C18 C10 1_555 1_555
C19 C18 1_555 1_555
H13 C19 1_555 1_555
C20 C19 1_555 1_555
H14 C20 1_555 1_555
C21 C20 1_555 1_555
C22 C21 1_555 1_555
H15 C22 1_555 1_555
C23 C18 1_555 1_555
H16 C23 1_555 1_555
C24 H17 1_555 1_555
H18 C24 1_555 1_555
H19 C24 1_555 1_555
N1 C9 1_555 1_555
H20 N1 1_555 1_555
N2 C11 1_555 1_555
O1 C1 1_555 1_555
O2 C12 1_555 1_555
O3 C21 1_555 1_555
C3 O1 1_555 1_555
C7 C8 1_555 1_555
C13 C17 1_555 1_555
C15 C16 1_555 1_555
C22 C23 1_555 1_555
C24 O3 1_555 1_555
N1 N2 1_555 1_555

#END
