
#######################################################################
#
#                 Cambridge Crystallographic Data Centre
#                                CCDC 
#
#######################################################################
#
# If this CIF has been generated from an entry in the Cambridge 
# Structural Database, then it will include bibliographic, chemical, 
# crystal, experimental, refinement or atomic coordinate data resulting 
# from the CCDC's data processing and validation procedures.
#
#######################################################################

data_IJAGAB
_chemical_formula_moiety         'C18 H30 O8'
_chemical_name_systematic        
(2R*,3aS*,5R*,7aS*,2'S*,3'aR*,5'S*,7'aS*)-5,7a,5',7'a-tetramethoxydodecahydro(2,2')bi(furano(3,2-b)pyran)
_symmetry_cell_setting           monoclinic
_symmetry_space_group_name_H-M   'C 2/c'
_symmetry_Int_Tables_number      15
_space_group_name_Hall           '-C 2yn'
loop_
_symmetry_equiv_pos_site_id
_symmetry_equiv_pos_as_xyz
1 x,y,z
2 1/2+x,1/2+y,z
3 x,-y,1/2+z
4 1/2+x,1/2-y,1/2+z
5 -x,-y,-z
6 1/2-x,1/2-y,-z
7 -x,y,1/2-z
8 1/2-x,1/2+y,1/2-z
_cell_length_a                   17.7588(10)
_cell_length_b                   7.8904(4)
_cell_length_c                   13.1044(7)
_cell_angle_alpha                90
_cell_angle_beta                 91.161(3)
_cell_angle_gamma                90
_cell_volume                     1835.86
_exptl_crystal_colour            colorless
_exptl_crystal_description       plate
_cell_formula_units_Z            4
loop_
_atom_site_label
_atom_site_type_symbol
_atom_site_fract_x
_atom_site_fract_y
_atom_site_fract_z
O1 O 0.19530(7) 0.14872(16) 0.77883(9)
O2 O 0.03543(7) 0.28536(15) 0.52660(9)
O3 O 0.15796(7) 0.34740(15) 0.47545(9)
O4 O 0.09292(7) 0.32349(16) 0.73500(9)
C1 C 0.11320(10) 0.2735(2) 0.55278(13)
C2 C 0.00914(10) 0.4553(2) 0.54987(13)
H1 H -0.0398(10) 0.443(2) 0.5917(14)
C3 C 0.11710(10) 0.1569(2) 0.75927(14)
H2 H 0.0907 0.1194 0.8220
C4 C 0.07268(10) 0.5405(2) 0.61277(13)
H3 H 0.1000 0.6242 0.5711
H4 H 0.0526 0.5981 0.6735
C5 C 0.21832(12) 0.2482(3) 0.86465(16)
H5 H 0.2730 0.2387 0.8749
H6 H 0.1930 0.2074 0.9257
H7 H 0.2049 0.3671 0.8524
C6 C 0.12372(10) 0.3932(2) 0.64364(13)
H8 H 0.1774 0.4292 0.6536
C7 C 0.15267(12) 0.2640(3) 0.37893(14)
H9 H 0.1849 0.3221 0.3302
H10 H 0.1003 0.2666 0.3538
H11 H 0.1692 0.1460 0.3866
C8 C 0.09825(11) 0.0332(2) 0.67415(14)
H12 H 0.0429 0.0244 0.6657
H13 H 0.1180 -0.0803 0.6926
C9 C 0.13201(10) 0.0897(2) 0.57370(13)
H14 H 0.1874 0.0751 0.5771
H15 H 0.1118 0.0183 0.5174
C2D C -0.00914(10) 0.5447(2) 0.45013(13)
O2D O -0.03543(7) 0.71464(15) 0.47340(9)
C1D C -0.11320(10) 0.7265(2) 0.44722(13)
O3D O -0.15796(7) 0.65260(15) 0.52455(9)
C7D C -0.15267(12) 0.7360(3) 0.62107(14)
H9D H -0.1849 0.6779 0.6698
H10D H -0.1003 0.7334 0.6462
H11D H -0.1692 0.8540 0.6134
C6D C -0.12372(10) 0.6068(2) 0.35636(13)
O4D O -0.09292(7) 0.67651(16) 0.26500(9)
C3D C -0.11710(10) 0.8431(2) 0.24073(14)
O1D O -0.19530(7) 0.85128(16) 0.22117(9)
C5D C -0.21832(12) 0.7518(3) 0.13535(16)
H5D H -0.2730 0.7613 0.1251
H6D H -0.1930 0.7926 0.0743
H7D H -0.2049 0.6329 0.1476
H2D H -0.0907 0.8806 0.1780
C8D C -0.09825(11) 0.9668(2) 0.32585(14)
H12D H -0.0429 0.9756 0.3343
H13D H -0.1180 1.0803 0.3074
C9D C -0.13201(10) 0.9103(2) 0.42630(13)
H14D H -0.1874 0.9249 0.4229
H15D H -0.1118 0.9817 0.4826
C4D C -0.07268(10) 0.4595(2) 0.38723(13)
H1D H 0.0398(10) 0.557(2) 0.4083(14)
H3D H -0.1000 0.3758 0.4289
H4D H -0.0526 0.4019 0.3265
H8D H -0.1774 0.5708 0.3464
loop_
_geom_bond_atom_site_label_1
_geom_bond_atom_site_label_2
_geom_bond_site_symmetry_1
_geom_bond_site_symmetry_2
O1 C3 1_555 1_555
O2 C1 1_555 1_555
O3 C1 1_555 1_555
O4 C3 1_555 1_555
C1 C6 1_555 1_555
C2 O2 1_555 1_555
H1 C2 1_555 1_555
C3 H2 1_555 1_555
C4 C2 1_555 1_555
H3 C4 1_555 1_555
H4 C4 1_555 1_555
C5 O1 1_555 1_555
H5 C5 1_555 1_555
H6 C5 1_555 1_555
H7 C5 1_555 1_555
C6 O4 1_555 1_555
H8 C6 1_555 1_555
C7 O3 1_555 1_555
H9 C7 1_555 1_555
H10 C7 1_555 1_555
H11 C7 1_555 1_555
C8 C3 1_555 1_555
H12 C8 1_555 1_555
H13 C8 1_555 1_555
C9 C1 1_555 1_555
H14 C9 1_555 1_555
H15 C9 1_555 1_555
C2D C2 1_555 1_555
O2D C2D 1_555 1_555
C1D O2D 1_555 1_555
O3D C1D 1_555 1_555
C7D O3D 1_555 1_555
H9D C7D 1_555 1_555
H10D C7D 1_555 1_555
H11D C7D 1_555 1_555
C6D C1D 1_555 1_555
O4D C6D 1_555 1_555
C3D O4D 1_555 1_555
O1D C3D 1_555 1_555
C5D O1D 1_555 1_555
H5D C5D 1_555 1_555
H6D C5D 1_555 1_555
H7D C5D 1_555 1_555
H2D C3D 1_555 1_555
C8D C3D 1_555 1_555
H12D C8D 1_555 1_555
H13D C8D 1_555 1_555
C9D C1D 1_555 1_555
H14D C9D 1_555 1_555
H15D C9D 1_555 1_555
C4D C2D 1_555 1_555
H1D C2D 1_555 1_555
H3D C4D 1_555 1_555
H4D C4D 1_555 1_555
H8D C6D 1_555 1_555
C4 C6 1_555 1_555
C8 C9 1_555 1_555
C6D C4D 1_555 1_555
C8D C9D 1_555 1_555

#END
