
#######################################################################
#
#                 Cambridge Crystallographic Data Centre
#                                CCDC 
#
#######################################################################
#
# If this CIF has been generated from an entry in the Cambridge 
# Structural Database, then it will include bibliographic, chemical, 
# crystal, experimental, refinement or atomic coordinate data resulting 
# from the CCDC's data processing and validation procedures.
#
#######################################################################

data_IJAGOQ
_chemical_formula_moiety         'C34 H36 N4 O2,2(C2 H3 N1)'
_chemical_name_systematic        
"N,N'-(Cyclohexane-1,1-diylbis(2,6-dimethyl-4,1-phenylene))diisonicotinamide acetonitrile solvate"
_symmetry_cell_setting           monoclinic
_symmetry_space_group_name_H-M   'P 21/c'
_symmetry_Int_Tables_number      14
_space_group_name_Hall           '-P 2ybc'
loop_
_symmetry_equiv_pos_site_id
_symmetry_equiv_pos_as_xyz
1 x,y,z
2 -x,1/2+y,1/2-z
3 -x,-y,-z
4 x,1/2-y,1/2+z
_cell_length_a                   19.450(6)
_cell_length_b                   19.151(6)
_cell_length_c                   18.222(5)
_cell_angle_alpha                90
_cell_angle_beta                 95.250(10)
_cell_angle_gamma                90
_cell_volume                     6758.98
_exptl_crystal_colour            colorless
_exptl_crystal_description       prism
_chemical_melting_point          '185 deg.C'
_cell_formula_units_Z            8
_exptl_crystal_recrystallization_method acetonitrile
loop_
_atom_site_label
_atom_site_type_symbol
_atom_site_fract_x
_atom_site_fract_y
_atom_site_fract_z
N1 N 0.38827(11) 0.34911(12) 0.21679(12)
H1 H 0.3532 0.3267 0.2330
O1 O 0.49154(9) 0.39886(12) 0.25102(11)
O2 O 0.02231(10) 0.36591(12) -0.22398(11)
C1 C 0.35207(13) 0.36327(14) -0.09891(14)
C2 C 0.37370(12) 0.36052(13) -0.01504(14)
C3 C 0.39073(12) 0.35399(14) 0.13883(14)
C4 C 0.37012(13) 0.42044(14) 0.02800(14)
H3 H 0.3619 0.4641 0.0040
C6 C 0.41601(13) 0.38093(13) 0.34440(14)
C8 C 0.38952(12) 0.29765(14) 0.02149(14)
H5 H 0.3946 0.2565 -0.0067
C10 C 0.38265(13) 0.30283(14) -0.14189(15)
H7 H 0.3709 0.2580 -0.1191
H8 H 0.3608 0.3031 -0.1931
C15 C 0.45368(14) 0.43759(14) -0.13529(15)
H10 H 0.4755 0.4391 -0.0841
H11 H 0.4649 0.4817 -0.1599
C16 C 0.34759(14) 0.38258(14) 0.36125(15)
H12 H 0.3107 0.3775 0.3237
C17 C 0.27261(13) 0.35725(14) -0.10547(14)
N4 N 0.38345(14) 0.39955(13) 0.48934(14)
C20 C 0.39812(12) 0.29351(14) 0.09807(14)
C22 C 0.37807(13) 0.41873(14) 0.10459(14)
N6 N 0.05581(11) 0.33859(14) -0.10530(13)
H16 H 0.0413 0.3249 -0.0633
C24 C 0.43519(13) 0.37606(14) 0.26664(14)
C25 C 0.37553(13) 0.43166(14) -0.13419(14)
H17 H 0.3538 0.4346 -0.1854
H18 H 0.3588 0.4718 -0.1066
C30 C 0.46100(14) 0.30698(15) -0.14365(15)
H25 H 0.4835 0.3018 -0.0930
H26 H 0.4767 0.2680 -0.1737
C33 C 0.00822(14) 0.35232(16) -0.16116(16)
C34 C 0.41058(15) 0.22425(15) 0.13640(16)
H31 H 0.4146 0.2314 0.1899
H32 H 0.4534 0.2036 0.1218
H33 H 0.3718 0.1928 0.1225
C37 C 0.12882(14) 0.34460(16) -0.10931(15)
C40 C 0.36913(15) 0.48382(15) 0.14927(15)
H36 H 0.3606 0.5238 0.1161
H37 H 0.4111 0.4922 0.1821
H38 H 0.3298 0.4778 0.1787
C41 C 0.15758(14) 0.40941(15) -0.12248(16)
C42 C 0.48292(14) 0.37612(15) -0.17577(16)
H39 H 0.4662 0.3784 -0.2287
H40 H 0.5339 0.3791 -0.1716
C43 C 0.22948(14) 0.41401(15) -0.12173(16)
H41 H 0.2495 0.4576 -0.1328
C45 C 0.44898(17) 0.39803(17) 0.47173(16)
H43 H 0.4848 0.4036 0.5104
C48 C 0.46763(15) 0.38894(15) 0.40139(15)
H44 H 0.5149 0.3882 0.3921
C49 C -0.11801(15) 0.35669(18) -0.19818(16)
H45 H -0.1077 0.3569 -0.2481
C50 C 0.33463(16) 0.39185(15) 0.43395(17)
H46 H 0.2879 0.3928 0.4450
C51 C 0.16972(15) 0.28597(16) -0.09505(18)
C52 C 0.24127(14) 0.29406(16) -0.09165(17)
H47 H 0.2697 0.2547 -0.0794
C53 C 0.11405(16) 0.47434(18) -0.1356(2)
H48 H 0.1440 0.5142 -0.1438
H49 H 0.0887 0.4834 -0.0925
H50 H 0.0812 0.4675 -0.1791
C56 C -0.18561(16) 0.3603(2) -0.18148(18)
H51 H -0.2208 0.3640 -0.2211
C59 C -0.06572(14) 0.35285(18) -0.14261(16)
N8 N -0.20426(16) 0.3590(3) -0.11402(18)
C62 C -0.0837(2) 0.3525(4) -0.0720(2)
H64 H -0.0493 0.3509 -0.0315
C63 C -0.1532(2) 0.3546(5) -0.0608(2)
H65 H -0.1651 0.3526 -0.0114
C66 C 0.13871(18) 0.2148(2) -0.0847(3)
H68 H 0.1758 0.1804 -0.0753
H69 H 0.1096 0.2018 -0.1293
H70 H 0.1106 0.2161 -0.0427
N2 N 0.63844(11) 0.38777(13) 0.26485(12)
H2 H 0.5944 0.3921 0.2495
C5 C 0.69141(12) 0.36465(14) 0.49348(14)
N3 N 0.61129(12) 0.37956(13) -0.01516(13)
C7 C 0.58695(13) 0.37883(14) 0.11177(15)
H4 H 0.5535 0.3753 0.1464
C9 C 0.70274(13) 0.39246(14) 0.08131(15)
H6 H 0.7507 0.3987 0.0948
C11 C 0.71090(13) 0.35341(13) 0.57659(14)
C12 C 0.66538(13) 0.31328(15) 0.37184(15)
C13 C 0.67787(14) 0.38816(14) 0.00825(15)
H9 H 0.7101 0.3915 -0.0278
C14 C 0.65732(12) 0.38030(15) 0.34222(14)
C18 C 0.66537(14) 0.43933(15) 0.38635(15)
C19 C 0.65644(13) 0.38745(13) 0.13526(14)
N5 N 1.00160(11) 0.29535(14) 0.63392(13)
H13 H 1.0204 0.3166 0.6736
C21 C 0.66683(13) 0.29428(14) 0.60622(15)
H14 H 0.6720 0.2517 0.5764
H15 H 0.6846 0.2836 0.6576
C23 C 0.78856(13) 0.33498(14) 0.58770(14)
C26 C 0.68251(14) 0.43022(14) 0.46162(15)
H19 H 0.6883 0.4703 0.4922
C27 C 0.69857(13) 0.41916(14) 0.62346(14)
H20 H 0.7194 0.4112 0.6744
H21 H 0.7227 0.4593 0.6031
C28 C 0.62250(14) 0.43804(14) 0.62609(16)
H22 H 0.6188 0.4777 0.6603
H23 H 0.6032 0.4532 0.5765
C29 C 0.68256(13) 0.30685(14) 0.44703(15)
H24 H 0.6885 0.2615 0.4677
C31 C 0.59051(14) 0.31263(15) 0.60431(17)
H27 H 0.5649 0.2728 0.6234
H28 H 0.5718 0.3214 0.5528
O3 O 0.74719(11) 0.38873(18) 0.23139(12)
C32 C 0.58023(15) 0.37736(15) 0.65091(17)
H29 H 0.5307 0.3903 0.6465
H30 H 0.5943 0.3669 0.7033
C35 C 0.92942(13) 0.30719(16) 0.61322(15)
C36 C 0.56757(14) 0.37545(15) 0.03717(15)
H34 H 0.5199 0.3698 0.0219
C38 C 0.81199(13) 0.27098(15) 0.61476(15)
H35 H 0.7792 0.2363 0.6246
C39 C 0.68479(13) 0.38842(16) 0.21454(15)
C44 C 0.83778(14) 0.38447(16) 0.57196(16)
H42 H 0.8226 0.4283 0.5522
C46 C 0.90831(14) 0.37173(16) 0.58433(16)
C47 C 0.88246(14) 0.25560(15) 0.62813(16)
C54 C 1.04191(15) 0.25433(19) 0.59720(18)
C55 C 1.11450(15) 0.24290(19) 0.63221(18)
O4 O 1.02223(12) 0.22707(19) 0.53813(15)
C57 C 0.65499(18) 0.24955(17) 0.32370(18)
H52 H 0.6435 0.2640 0.2724
H53 H 0.6172 0.2214 0.3400
H54 H 0.6975 0.2218 0.3273
C58 C 0.6533(2) 0.51109(17) 0.35338(17)
H55 H 0.6422 0.5070 0.3000
H56 H 0.6951 0.5394 0.3634
H57 H 0.6148 0.5335 0.3753
N7 N 1.24970(13) 0.21616(18) 0.69100(16)
C60 C 0.96027(17) 0.4264(2) 0.5671(2)
H58 H 0.9360 0.4681 0.5471
H59 H 0.9896 0.4079 0.5306
H60 H 0.9890 0.4387 0.6122
C61 C 0.90520(16) 0.18594(18) 0.6596(2)
H61 H 0.8646 0.1569 0.6654
H62 H 0.9312 0.1927 0.7077
H63 H 0.9347 0.1628 0.6262
C64 C 1.2241(2) 0.1905(4) 0.6288(3)
H66 H 1.2533 0.1623 0.6021
C65 C 1.1570(2) 0.2011(4) 0.5982(3)
H67 H 1.1411 0.1789 0.5533
C67 C 1.2062(2) 0.2493(4) 0.7234(3)
H71 H 1.2208 0.2657 0.7715
C68 C 1.1391(2) 0.2648(4) 0.6968(2)
H72 H 1.1107 0.2916 0.7260
C69 C 0.1533(2) 0.6682(4) 0.6174(3)
H73 H 0.1528 0.7107 0.5874
H74 H 0.1732 0.6297 0.5908
H75 H 0.1814 0.6762 0.6641
N9 N 0.0306(3) 0.6418(5) 0.6428(4)
C70 C 0.0849(2) 0.6509(4) 0.6317(3)
C71 C 0.1445(3) 0.4555(3) 0.2618(3)
C72 C 0.0700(3) 0.4597(4) 0.2582(4)
H76 H 0.0562 0.5081 0.2667
H77 H 0.0531 0.4295 0.2961
H78 H 0.0502 0.4445 0.2095
N10 N 0.2021(3) 0.4529(3) 0.2603(3)
N11 N 0.1748(3) 0.4428(3) 0.5365(3)
C73 C 0.1673(3) 0.4527(3) 0.5961(4)
C74 C 0.1581(4) 0.4660(6) 0.6724(4)
H79 H 0.1668 0.4230 0.7009
H80 H 0.1107 0.4817 0.6768
H81 H 0.1905 0.5022 0.6914
N12 N 0.0512(4) 0.4487(6) 0.0653(5)
C75 C 0.1106(5) 0.4581(7) 0.0635(5)
C76 C 0.1846(4) 0.4699(7) 0.0613(6)
H82 H 0.1957 0.5183 0.0753
H83 H 0.1975 0.4613 0.0114
H84 H 0.2104 0.4381 0.0959
loop_
_geom_bond_atom_site_label_1
_geom_bond_atom_site_label_2
_geom_bond_site_symmetry_1
_geom_bond_site_symmetry_2
N1 H1 1_555 1_555
O1 C24 1_555 1_555
O2 C33 1_555 1_555
N2 H2 1_555 1_555
C1 C2 1_555 1_555
C2 C4 1_555 1_555
C3 N1 1_555 1_555
C4 H3 1_555 1_555
C5 C11 1_555 1_555
N3 C13 1_555 1_555
C6 C16 1_555 1_555
C7 H4 1_555 1_555
C8 C2 1_555 1_555
H5 C8 1_555 1_555
C9 H6 1_555 1_555
C10 C1 1_555 1_555
H7 C10 1_555 1_555
H8 C10 1_555 1_555
C11 C21 1_555 1_555
C12 C14 1_555 1_555
C13 C9 1_555 1_555
H9 C13 1_555 1_555
C14 N2 1_555 1_555
C15 H10 1_555 1_555
H11 C15 1_555 1_555
C16 H12 1_555 1_555
C17 C1 1_555 1_555
C18 C14 1_555 1_555
C19 C7 1_555 1_555
N4 C45 1_555 1_555
C20 C3 1_555 1_555
N5 H13 1_555 1_555
C21 H14 1_555 1_555
H15 C21 1_555 1_555
C22 C3 1_555 1_555
N6 H16 1_555 1_555
C23 C11 1_555 1_555
C24 N1 1_555 1_555
C25 C1 1_555 1_555
H17 C25 1_555 1_555
H18 C25 1_555 1_555
C26 C5 1_555 1_555
H19 C26 1_555 1_555
C27 C11 1_555 1_555
H20 C27 1_555 1_555
H21 C27 1_555 1_555
C28 C27 1_555 1_555
H22 C28 1_555 1_555
H23 C28 1_555 1_555
C29 C5 1_555 1_555
H24 C29 1_555 1_555
C30 C10 1_555 1_555
H25 C30 1_555 1_555
H26 C30 1_555 1_555
C31 C21 1_555 1_555
H27 C31 1_555 1_555
H28 C31 1_555 1_555
O3 C39 1_555 1_555
C32 C28 1_555 1_555
H29 C32 1_555 1_555
H30 C32 1_555 1_555
C33 N6 1_555 1_555
C34 C20 1_555 1_555
H31 C34 1_555 1_555
H32 C34 1_555 1_555
H33 C34 1_555 1_555
C35 N5 1_555 1_555
C36 N3 1_555 1_555
H34 C36 1_555 1_555
C37 N6 1_555 1_555
C38 C23 1_555 1_555
H35 C38 1_555 1_555
C39 N2 1_555 1_555
C40 C22 1_555 1_555
H36 C40 1_555 1_555
H37 C40 1_555 1_555
H38 C40 1_555 1_555
C41 C37 1_555 1_555
C42 C15 1_555 1_555
H39 C42 1_555 1_555
H40 C42 1_555 1_555
C43 C17 1_555 1_555
H41 C43 1_555 1_555
C44 C23 1_555 1_555
H42 C44 1_555 1_555
C45 H43 1_555 1_555
C46 C35 1_555 1_555
C47 C35 1_555 1_555
C48 C6 1_555 1_555
H44 C48 1_555 1_555
C49 H45 1_555 1_555
C50 C16 1_555 1_555
H46 C50 1_555 1_555
C51 C37 1_555 1_555
C52 C17 1_555 1_555
H47 C52 1_555 1_555
C53 C41 1_555 1_555
H48 C53 1_555 1_555
H49 C53 1_555 1_555
H50 C53 1_555 1_555
C54 N5 1_555 1_555
C55 C54 1_555 1_555
O4 C54 1_555 1_555
C56 C49 1_555 1_555
H51 C56 1_555 1_555
C57 C12 1_555 1_555
H52 C57 1_555 1_555
H53 C57 1_555 1_555
H54 C57 1_555 1_555
C58 C18 1_555 1_555
H55 C58 1_555 1_555
H56 C58 1_555 1_555
H57 C58 1_555 1_555
C59 C33 1_555 1_555
N7 C64 1_555 1_555
N8 C56 1_555 1_555
C60 C46 1_555 1_555
H58 C60 1_555 1_555
H59 C60 1_555 1_555
H60 C60 1_555 1_555
C61 C47 1_555 1_555
H61 C61 1_555 1_555
H62 C61 1_555 1_555
H63 C61 1_555 1_555
C62 C59 1_555 1_555
H64 C62 1_555 1_555
C63 N8 1_555 1_555
H65 C63 1_555 1_555
C64 H66 1_555 1_555
C65 C55 1_555 1_555
H67 C65 1_555 1_555
C66 C51 1_555 1_555
H68 C66 1_555 1_555
H69 C66 1_555 1_555
H70 C66 1_555 1_555
C67 N7 1_555 1_555
H71 C67 1_555 1_555
C68 C55 1_555 1_555
H72 C68 1_555 1_555
C69 H73 1_555 1_555
H74 C69 1_555 1_555
H75 C69 1_555 1_555
N9 C70 1_555 1_555
C70 C69 1_555 1_555
C71 C72 1_555 1_555
C72 H76 1_555 1_555
H77 C72 1_555 1_555
H78 C72 1_555 1_555
N10 C71 1_555 1_555
N11 C73 1_555 1_555
C73 C74 1_555 1_555
C74 H79 1_555 1_555
H80 C74 1_555 1_555
H81 C74 1_555 1_555
N12 C75 1_555 1_555
C75 C76 1_555 1_555
C76 H82 1_555 1_555
H83 C76 1_555 1_555
H84 C76 1_555 1_555
C4 C22 1_555 1_555
C6 C24 1_555 1_555
C7 C36 1_555 1_555
C8 C20 1_555 1_555
C9 C19 1_555 1_555
C12 C29 1_555 1_555
C15 C25 1_555 1_555
C18 C26 1_555 1_555
C19 C39 1_555 1_555
N4 C50 1_555 1_555
C30 C42 1_555 1_555
C31 C32 1_555 1_555
C38 C47 1_555 1_555
C41 C43 1_555 1_555
C44 C46 1_555 1_555
C45 C48 1_555 1_555
C49 C59 1_555 1_555
C51 C52 1_555 1_555
C62 C63 1_555 1_555
C64 C65 1_555 1_555
C67 C68 1_555 1_555

#END
