
#######################################################################
#
#                 Cambridge Crystallographic Data Centre
#                                CCDC 
#
#######################################################################
#
# If this CIF has been generated from an entry in the Cambridge 
# Structural Database, then it will include bibliographic, chemical, 
# crystal, experimental, refinement or atomic coordinate data resulting 
# from the CCDC's data processing and validation procedures.
#
#######################################################################

data_IJAXEX
_chemical_formula_moiety         'C32 H58 Li2 N4 Si2'
_chemical_name_systematic        
bis(\m~2~-N-((Dimethylamino)dimethylsilyl)-2,6-di-isopropyl-benzenimino)-di-lithium
_symmetry_cell_setting           monoclinic
_symmetry_space_group_name_H-M   'P 21/c'
_symmetry_Int_Tables_number      14
_space_group_name_Hall           '-P 2ybc'
loop_
_symmetry_equiv_pos_site_id
_symmetry_equiv_pos_as_xyz
1 x,y,z
2 -x,1/2+y,1/2-z
3 -x,-y,-z
4 x,1/2-y,1/2+z
_cell_length_a                   11.181(5)
_cell_length_b                   15.887(7)
_cell_length_c                   11.274(5)
_cell_angle_alpha                90
_cell_angle_beta                 118.051(4)
_cell_angle_gamma                90
_cell_volume                     1767.38
_exptl_crystal_colour            colorless
_exptl_crystal_description       monoclinic
_cell_formula_units_Z            2
loop_
_atom_site_label
_atom_site_type_symbol
_atom_site_fract_x
_atom_site_fract_y
_atom_site_fract_z
Li1 Li 0.4331(6) 0.5498(3) -0.0874(5)
N1 N 0.3823(3) 0.49558(16) 0.0446(3)
N2 N 0.4064(3) 0.54000(18) -0.2869(3)
Si1 Si 0.42489(9) 0.50003(6) 0.20929(9)
C1 C 0.2503(3) 0.47890(19) -0.0586(3)
C2 C 0.1576(3) 0.5452(2) -0.1251(3)
C3 C 0.0338(4) 0.5273(2) -0.2363(4)
H1 H -0.0266 0.5709 -0.2798
C4 C -0.0010(4) 0.4466(3) -0.2832(4)
H2 H -0.0825 0.4362 -0.3599
C5 C 0.0852(4) 0.3809(2) -0.2165(4)
H3 H 0.0596 0.3261 -0.2469
C6 C 0.2098(3) 0.3952(2) -0.1044(3)
C7 C 0.3015(4) 0.3214(2) -0.0327(4)
H4 H 0.3603 0.3393 0.0601
C8 C 0.2248(4) 0.2431(3) -0.0259(5)
H5 H 0.1746 0.2195 -0.1142
H6 H 0.1634 0.2586 0.0078
H7 H 0.2882 0.2023 0.0329
C9 C 0.3933(4) 0.2993(3) -0.0931(5)
H8 H 0.3393 0.2808 -0.1841
H9 H 0.4541 0.2551 -0.0415
H10 H 0.4446 0.3481 -0.0919
C10 C 0.1868(4) 0.6351(2) -0.0725(4)
H11 H 0.2760 0.6350 0.0074
C11 C 0.1938(5) 0.6965(3) -0.1721(5)
H12 H 0.2697 0.6827 -0.1863
H13 H 0.2044 0.7527 -0.1371
H14 H 0.1117 0.6931 -0.2558
C12 C 0.0839(5) 0.6653(3) -0.0283(5)
H15 H -0.0037 0.6703 -0.1055
H16 H 0.1114 0.7191 0.0149
H17 H 0.0794 0.6254 0.0335
C13 C 0.3126(4) 0.4355(3) 0.2547(4)
H18 H 0.2231 0.4593 0.2136
H19 H 0.3483 0.4351 0.3506
H20 H 0.3085 0.3789 0.2232
C14 C 0.4295(4) 0.6065(3) 0.2834(4)
H21 H 0.4770 0.6452 0.2551
H22 H 0.4753 0.6025 0.3797
H23 H 0.3386 0.6261 0.2534
C15 C 0.3825(4) 0.6201(3) -0.3588(4)
H24 H 0.2928 0.6398 -0.3828
H25 H 0.4477 0.6609 -0.3020
H26 H 0.3913 0.6122 -0.4388
C16 C 0.2947(4) 0.4823(3) -0.3664(4)
H27 H 0.2924 0.4719 -0.4513
H28 H 0.3080 0.4302 -0.3187
H29 H 0.2105 0.5072 -0.3812
Li1B Li 0.5669(6) 0.4502(3) 0.0874(5)
N1B N 0.6177(3) 0.50442(16) -0.0446(3)
N2B N 0.5936(3) 0.46000(18) 0.2869(3)
Si1B Si 0.57511(9) 0.49997(6) -0.20929(9)
C1B C 0.7497(3) 0.52110(19) 0.0586(3)
C2B C 0.8424(3) 0.4548(2) 0.1251(3)
C3B C 0.9662(4) 0.4727(2) 0.2363(4)
H1B H 1.0266 0.4291 0.2798
C4B C 1.0010(4) 0.5534(3) 0.2832(4)
H2B H 1.0825 0.5638 0.3599
C5B C 0.9148(4) 0.6191(2) 0.2165(4)
H3B H 0.9404 0.6739 0.2469
C6B C 0.7902(3) 0.6048(2) 0.1044(3)
C7B C 0.6985(4) 0.6786(2) 0.0327(4)
H4B H 0.6397 0.6607 -0.0601
C8B C 0.7752(4) 0.7569(3) 0.0259(5)
H5B H 0.8254 0.7805 0.1142
H6B H 0.8366 0.7414 -0.0078
H7B H 0.7118 0.7977 -0.0329
C9B C 0.6067(4) 0.7007(3) 0.0931(5)
H8B H 0.6607 0.7192 0.1841
H9B H 0.5459 0.7449 0.0415
H10B H 0.5554 0.6519 0.0919
C10B C 0.8132(4) 0.3649(2) 0.0725(4)
H11B H 0.7240 0.3650 -0.0074
C11B C 0.8062(5) 0.3035(3) 0.1721(5)
H12B H 0.7303 0.3173 0.1863
H13B H 0.7956 0.2473 0.1371
H14B H 0.8883 0.3069 0.2558
C12B C 0.9161(5) 0.3347(3) 0.0283(5)
H15B H 1.0037 0.3297 0.1055
H16B H 0.8886 0.2809 -0.0149
H17B H 0.9206 0.3746 -0.0335
C13B C 0.6874(4) 0.5645(3) -0.2547(4)
H18B H 0.7769 0.5407 -0.2136
H19B H 0.6517 0.5649 -0.3506
H20B H 0.6915 0.6211 -0.2232
C14B C 0.5705(4) 0.3935(3) -0.2834(4)
H21B H 0.5230 0.3548 -0.2551
H22B H 0.5247 0.3975 -0.3797
H23B H 0.6614 0.3739 -0.2534
C15B C 0.6175(4) 0.3799(3) 0.3588(4)
H24B H 0.7072 0.3602 0.3828
H25B H 0.5523 0.3391 0.3020
H26B H 0.6087 0.3878 0.4388
C16B C 0.7053(4) 0.5177(3) 0.3664(4)
H27B H 0.7076 0.5281 0.4513
H28B H 0.6920 0.5698 0.3187
H29B H 0.7895 0.4928 0.3812
loop_
_geom_bond_atom_site_label_1
_geom_bond_atom_site_label_2
_geom_bond_site_symmetry_1
_geom_bond_site_symmetry_2
Li1 N1 1_555 1_555
N1 Si1 1_555 1_555
N2 Li1 1_555 1_555
Si1 C13 1_555 1_555
C1 N1 1_555 1_555
C2 C1 1_555 1_555
C3 C2 1_555 1_555
H1 C3 1_555 1_555
C4 C3 1_555 1_555
H2 C4 1_555 1_555
C5 C4 1_555 1_555
H3 C5 1_555 1_555
C6 C1 1_555 1_555
C7 C6 1_555 1_555
H4 C7 1_555 1_555
C8 C7 1_555 1_555
H5 C8 1_555 1_555
H6 C8 1_555 1_555
H7 C8 1_555 1_555
C9 C7 1_555 1_555
H8 C9 1_555 1_555
H9 C9 1_555 1_555
H10 C9 1_555 1_555
C10 C2 1_555 1_555
H11 C10 1_555 1_555
C11 C10 1_555 1_555
H12 C11 1_555 1_555
H13 C11 1_555 1_555
H14 C11 1_555 1_555
C12 C10 1_555 1_555
H15 C12 1_555 1_555
H16 C12 1_555 1_555
H17 C12 1_555 1_555
C13 H18 1_555 1_555
H19 C13 1_555 1_555
H20 C13 1_555 1_555
C14 Si1 1_555 1_555
H21 C14 1_555 1_555
H22 C14 1_555 1_555
H23 C14 1_555 1_555
C15 N2 1_555 1_555
H24 C15 1_555 1_555
H25 C15 1_555 1_555
H26 C15 1_555 1_555
C16 N2 1_555 1_555
H27 C16 1_555 1_555
H28 C16 1_555 1_555
H29 C16 1_555 1_555
Li1B N1 1_555 1_555
N1B Li1 1_555 1_555
N2B Si1 1_555 1_555
Si1B N2 1_555 1_555
C1B N1B 1_555 1_555
C2B C1B 1_555 1_555
C3B C2B 1_555 1_555
H1B C3B 1_555 1_555
C4B C3B 1_555 1_555
H2B C4B 1_555 1_555
C5B C4B 1_555 1_555
H3B C5B 1_555 1_555
C6B C1B 1_555 1_555
C7B C6B 1_555 1_555
H4B C7B 1_555 1_555
C8B C7B 1_555 1_555
H5B C8B 1_555 1_555
H6B C8B 1_555 1_555
H7B C8B 1_555 1_555
C9B C7B 1_555 1_555
H8B C9B 1_555 1_555
H9B C9B 1_555 1_555
H10B C9B 1_555 1_555
C10B C2B 1_555 1_555
H11B C10B 1_555 1_555
C11B C10B 1_555 1_555
H12B C11B 1_555 1_555
H13B C11B 1_555 1_555
H14B C11B 1_555 1_555
C12B C10B 1_555 1_555
H15B C12B 1_555 1_555
H16B C12B 1_555 1_555
H17B C12B 1_555 1_555
C13B Si1B 1_555 1_555
H18B C13B 1_555 1_555
H19B C13B 1_555 1_555
H20B C13B 1_555 1_555
C14B Si1B 1_555 1_555
H21B C14B 1_555 1_555
H22B C14B 1_555 1_555
H23B C14B 1_555 1_555
C15B N2B 1_555 1_555
H24B C15B 1_555 1_555
H25B C15B 1_555 1_555
H26B C15B 1_555 1_555
C16B N2B 1_555 1_555
H27B C16B 1_555 1_555
H28B C16B 1_555 1_555
H29B C16B 1_555 1_555
C5 C6 1_555 1_555
Li1B N1B 1_555 1_555
Li1B N2B 1_555 1_555
N1B Si1B 1_555 1_555
C5B C6B 1_555 1_555

#END
