
#######################################################################
#
#                 Cambridge Crystallographic Data Centre
#                                CCDC 
#
#######################################################################
#
# If this CIF has been generated from an entry in the Cambridge 
# Structural Database, then it will include bibliographic, chemical, 
# crystal, experimental, refinement or atomic coordinate data resulting 
# from the CCDC's data processing and validation procedures.
#
#######################################################################

data_IJAXAT
_chemical_formula_moiety         'C32 H56 Li2 N2 O2'
_chemical_name_systematic        
'bis((\m~2~-2,6-Di-isopropylbenzenamido)-(diethyl ether-O))-di-lithium'
_symmetry_cell_setting           monoclinic
_symmetry_space_group_name_H-M   'P 21/c'
_symmetry_Int_Tables_number      14
_space_group_name_Hall           '-P 2ybc'
loop_
_symmetry_equiv_pos_site_id
_symmetry_equiv_pos_as_xyz
1 x,y,z
2 -x,1/2+y,1/2-z
3 -x,-y,-z
4 x,1/2-y,1/2+z
_cell_length_a                   9.834(2)
_cell_length_b                   10.759(2)
_cell_length_c                   32.409(7)
_cell_angle_alpha                90
_cell_angle_beta                 94.53(3)
_cell_angle_gamma                90
_cell_volume                     3418.29
_exptl_crystal_colour            colorless
_exptl_crystal_description       plate
_cell_formula_units_Z            4
loop_
_atom_site_label
_atom_site_type_symbol
_atom_site_fract_x
_atom_site_fract_y
_atom_site_fract_z
N1 N 0.0700(3) 0.8710(2) 0.38283(9)
N2 N 0.2842(3) 0.6785(2) 0.35249(9)
C1 C -0.0828(3) 1.0542(3) 0.38794(9)
C2 C -0.1686(3) 1.1409(3) 0.36705(10)
H1 H -0.2132 1.2009 0.3827
C3 C -0.0156(3) 0.9615(3) 0.36491(9)
O1 O 0.3670(2) 1.0075(2) 0.37237(8)
O2 O -0.0593(2) 0.5860(2) 0.37118(8)
C4 C 0.3716(3) 0.5876(3) 0.36966(9)
C5 C 0.5254(3) 0.4093(3) 0.36544(10)
H2 H 0.5696 0.3506 0.3492
C6 C -0.0384(3) 0.9655(3) 0.32071(10)
C7 C 0.4385(3) 0.4974(3) 0.34558(9)
C8 C -0.1910(3) 1.1424(3) 0.32435(10)
H3 H -0.2505 1.2018 0.3108
C9 C -0.0639(3) 1.0576(3) 0.43504(10)
H4 H 0.0245 1.0149 0.4432
C10 C 0.4141(3) 0.4980(3) 0.29864(10)
H5 H 0.3169 0.5229 0.2919
C11 C -0.1245(3) 1.0552(3) 0.30182(10)
H6 H -0.1381 1.0566 0.2725
C12 C 0.5487(3) 0.4051(3) 0.40777(11)
H7 H 0.6098 0.3458 0.4206
C13 C 0.3940(3) 0.5784(3) 0.41360(10)
C14 C 0.4814(4) 0.4886(4) 0.43118(11)
H8 H 0.4956 0.4845 0.4605
C15 C 0.0318(4) 0.8739(3) 0.29353(10)
H9 H 0.0854 0.8158 0.3126
C16 C 0.5651(4) 0.9036(4) 0.35091(14)
H10 H 0.6596 0.9162 0.3442
H11 H 0.5114 0.8706 0.3266
H12 H 0.5632 0.8445 0.3739
C17 C 0.4333(4) 0.3715(3) 0.27845(12)
H13 H 0.4162 0.3792 0.2484
H14 H 0.3691 0.3117 0.2888
H15 H 0.5269 0.3425 0.2852
C18 C 0.5063(4) 1.0242(4) 0.36312(14)
H16 H 0.5602 1.0576 0.3877
H17 H 0.5106 1.0849 0.3403
C19 C -0.1797(3) 0.6392(4) 0.38739(14)
H18 H -0.2621 0.5977 0.3744
H19 H -0.1854 0.7286 0.3802
C20 C 0.3068(4) 1.1186(3) 0.38876(14)
H20 H 0.2065 1.1148 0.3832
H21 H 0.3399 1.1924 0.3743
C21 C 0.0641(4) 0.4039(4) 0.35379(14)
H22 H 0.0554 0.3145 0.3485
H23 H 0.1306 0.4181 0.3775
H24 H 0.0950 0.4453 0.3293
C22 C -0.0712(4) 0.4556(3) 0.36313(13)
H25 H -0.1387 0.4411 0.3393
H26 H -0.1036 0.4128 0.3876
C23 C 0.3208(5) 0.6644(4) 0.44199(11)
H27 H 0.2591 0.7190 0.4239
C24 C 0.5030(5) 0.5946(4) 0.27882(13)
H28 H 0.4843 0.5925 0.2487
H29 H 0.5995 0.5757 0.2860
H30 H 0.4822 0.6776 0.2891
C25 C -0.0524(5) 1.1891(4) 0.45300(13)
H31 H 0.0193 1.2346 0.4401
H32 H -0.0297 1.1844 0.4830
H33 H -0.1396 1.2325 0.4475
C26 C 0.4193(6) 0.7495(4) 0.46761(14)
H34 H 0.4745 0.7964 0.4491
H35 H 0.4791 0.6992 0.4866
H36 H 0.3672 0.8076 0.4836
C27 C 0.2311(4) 0.5909(6) 0.46976(15)
H37 H 0.1679 0.5384 0.4526
H38 H 0.1791 0.6487 0.4858
H39 H 0.2887 0.5385 0.4887
Li1 Li 0.2650(5) 0.8575(5) 0.36783(18)
C28 C 0.3410(5) 1.1327(5) 0.43435(15)
H40 H 0.2988 1.2087 0.4440
H41 H 0.4402 1.1379 0.4400
H42 H 0.3064 1.0608 0.4488
C29 C -0.1740(5) 0.9845(5) 0.45425(12)
H43 H -0.1784 0.9004 0.4426
H44 H -0.2621 1.0260 0.4483
H45 H -0.1529 0.9798 0.4843
C30 C -0.0691(5) 0.7950(4) 0.26724(16)
H46 H -0.1328 0.7555 0.2850
H47 H -0.0198 0.7307 0.2530
H48 H -0.1200 0.8476 0.2467
C31 C 0.1329(5) 0.9363(5) 0.26715(15)
H49 H 0.1973 0.9860 0.2849
H50 H 0.0838 0.9903 0.2467
H51 H 0.1829 0.8727 0.2529
Li2 Li 0.0908(5) 0.6925(5) 0.36763(18)
C32 C -0.1761(5) 0.6246(5) 0.43372(16)
H52 H -0.2583 0.6616 0.4438
H53 H -0.0952 0.6665 0.4467
H54 H -0.1724 0.5360 0.4408
H55 H 0.065(3) 0.874(3) 0.4084(10)
H56 H 0.286(4) 0.676(3) 0.3258(12)
loop_
_geom_bond_atom_site_label_1
_geom_bond_atom_site_label_2
_geom_bond_site_symmetry_1
_geom_bond_site_symmetry_2
N1 C3 1_555 1_555
N2 C4 1_555 1_555
C1 C2 1_555 1_555
C2 H1 1_555 1_555
C3 C1 1_555 1_555
O1 C18 1_555 1_555
O2 C19 1_555 1_555
C4 C7 1_555 1_555
C5 H2 1_555 1_555
C6 C3 1_555 1_555
C7 C5 1_555 1_555
C8 C2 1_555 1_555
H3 C8 1_555 1_555
C9 C1 1_555 1_555
H4 C9 1_555 1_555
C10 C7 1_555 1_555
H5 C10 1_555 1_555
C11 C6 1_555 1_555
H6 C11 1_555 1_555
C12 C5 1_555 1_555
H7 C12 1_555 1_555
C13 C4 1_555 1_555
C14 C12 1_555 1_555
H8 C14 1_555 1_555
C15 C6 1_555 1_555
H9 C15 1_555 1_555
C16 H10 1_555 1_555
H11 C16 1_555 1_555
H12 C16 1_555 1_555
C17 C10 1_555 1_555
H13 C17 1_555 1_555
H14 C17 1_555 1_555
H15 C17 1_555 1_555
C18 C16 1_555 1_555
H16 C18 1_555 1_555
H17 C18 1_555 1_555
C19 H18 1_555 1_555
H19 C19 1_555 1_555
C20 O1 1_555 1_555
H20 C20 1_555 1_555
H21 C20 1_555 1_555
C21 H22 1_555 1_555
H23 C21 1_555 1_555
H24 C21 1_555 1_555
C22 O2 1_555 1_555
H25 C22 1_555 1_555
H26 C22 1_555 1_555
C23 C13 1_555 1_555
H27 C23 1_555 1_555
C24 C10 1_555 1_555
H28 C24 1_555 1_555
H29 C24 1_555 1_555
H30 C24 1_555 1_555
C25 C9 1_555 1_555
H31 C25 1_555 1_555
H32 C25 1_555 1_555
H33 C25 1_555 1_555
C26 C23 1_555 1_555
H34 C26 1_555 1_555
H35 C26 1_555 1_555
H36 C26 1_555 1_555
C27 C23 1_555 1_555
H37 C27 1_555 1_555
H38 C27 1_555 1_555
H39 C27 1_555 1_555
Li1 N1 1_555 1_555
C28 C20 1_555 1_555
H40 C28 1_555 1_555
H41 C28 1_555 1_555
H42 C28 1_555 1_555
C29 C9 1_555 1_555
H43 C29 1_555 1_555
H44 C29 1_555 1_555
H45 C29 1_555 1_555
C30 C15 1_555 1_555
H46 C30 1_555 1_555
H47 C30 1_555 1_555
H48 C30 1_555 1_555
C31 C15 1_555 1_555
H49 C31 1_555 1_555
H50 C31 1_555 1_555
H51 C31 1_555 1_555
Li2 N1 1_555 1_555
C32 C19 1_555 1_555
H52 C32 1_555 1_555
H53 C32 1_555 1_555
H54 C32 1_555 1_555
H55 N1 1_555 1_555
H56 N2 1_555 1_555
N2 Li1 1_555 1_555
N2 Li2 1_555 1_555
O1 Li1 1_555 1_555
O2 Li2 1_555 1_555
C8 C11 1_555 1_555
C13 C14 1_555 1_555
C21 C22 1_555 1_555

#END
