
#######################################################################
#
#                 Cambridge Crystallographic Data Centre
#                                CCDC 
#
#######################################################################
#
# If this CIF has been generated from an entry in the Cambridge 
# Structural Database, then it will include bibliographic, chemical, 
# crystal, experimental, refinement or atomic coordinate data resulting 
# from the CCDC's data processing and validation procedures.
#
#######################################################################

data_IJEDEI
_chemical_formula_moiety         'C110 H86 N12,2.96(C7 H8)'
_chemical_name_systematic        
"tris(2,9-di-t-butylpyrazino[2',3':9,10]phenanthro[4,5-abc]phenazino)[5,6:b,5,6:d,5,6:g]triptycene toluene solvate"
_symmetry_cell_setting           triclinic
_symmetry_space_group_name_H-M   'P -1'
_symmetry_Int_Tables_number      2
_space_group_name_Hall           '-P 1'
loop_
_symmetry_equiv_pos_site_id
_symmetry_equiv_pos_as_xyz
1 x,y,z
2 -x,-y,-z
_cell_length_a                   20.9478(3)
_cell_length_b                   21.6942(3)
_cell_length_c                   22.7090(3)
_cell_angle_alpha                90.1401(10)
_cell_angle_beta                 90.7000(11)
_cell_angle_gamma                90.7868(11)
_cell_volume                     10318.2
_exptl_crystal_colour            yellow
_exptl_crystal_description       irregular
_cell_formula_units_Z            4
loop_
_atom_site_label
_atom_site_type_symbol
_atom_site_fract_x
_atom_site_fract_y
_atom_site_fract_z
N1 N 0.42599(14) 0.33377(13) 0.03170(13)
N2 N 0.49145(15) 0.59285(14) -0.15733(13)
N3 N 0.41100(16) 0.66700(15) -0.08836(15)
N4 N 0.34599(14) 0.40771(13) 0.10106(12)
N5 N 0.10188(15) 0.09883(14) 0.15992(13)
N6 N -0.17068(16) -0.08850(15) 0.07139(14)
N7 N -0.09336(15) -0.15288(14) -0.00801(13)
N8 N 0.17995(14) 0.03019(13) 0.08427(13)
N9 N 0.41048(14) 0.16580(13) 0.40068(12)
N10 N 0.57958(15) 0.07688(14) 0.66482(13)
N11 N 0.65235(14) -0.00598(14) 0.59869(13)
N12 N 0.48460(14) 0.08452(13) 0.33380(12)
C1 C 0.34366(17) 0.18921(16) 0.25469(15)
C2 C 0.35196(17) 0.19363(16) 0.31392(15)
H1 H 0.3254 0.2196 0.3364
C3 C 0.40054(17) 0.15918(16) 0.34193(15)
C4 C 0.43851(17) 0.11846(15) 0.30784(15)
C5 C 0.42840(17) 0.11506(16) 0.24601(15)
H2 H 0.4533 0.0882 0.2228
C6 C 0.38292(17) 0.15047(16) 0.22005(15)
C7 C 0.36679(17) 0.15395(16) 0.15456(15)
H3 H 0.3949 0.1278 0.1299
C8 C 0.29620(17) 0.13567(16) 0.14914(15)
C9 C 0.27116(17) 0.08996(16) 0.11491(15)
H4 H 0.2978 0.0669 0.0897
C10 C 0.20452(18) 0.07694(16) 0.11713(15)
C11 C 0.16488(17) 0.11208(16) 0.15472(15)
C12 C 0.19248(17) 0.16095(16) 0.18798(15)
H5 H 0.1664 0.1857 0.2121
C13 C 0.25659(17) 0.17254(16) 0.18544(15)
C14 C 0.29314(17) 0.22223(16) 0.21860(15)
H6 H 0.2650 0.2484 0.2433
C15 C 0.32850(17) 0.25909(16) 0.17233(15)
C16 C 0.32171(17) 0.32010(16) 0.16146(15)
H7 H 0.2950 0.3444 0.1855
C17 C 0.35509(17) 0.34728(16) 0.11362(15)
C18 C 0.39596(17) 0.31048(16) 0.07888(15)
C19 C 0.40322(17) 0.24676(16) 0.09266(15)
H8 H 0.4315 0.2220 0.0706
C20 C 0.36942(17) 0.22187(16) 0.13747(15)
C21 C 0.41602(17) 0.39295(16) 0.01894(15)
C22 C 0.44565(16) 0.41830(16) -0.03348(15)
C23 C 0.47765(18) 0.38073(17) -0.07254(16)
H9 H 0.4823 0.3383 -0.0633
C24 C 0.50323(18) 0.40297(18) -0.12480(16)
C25 C 0.5318(2) 0.36064(18) -0.17118(17)
C26 C 0.5434(3) 0.2959(2) -0.1469(2)
H10 H 0.5031 0.2783 -0.1327
H11 H 0.5600 0.2697 -0.1782
H12 H 0.5744 0.2983 -0.1144
C27 C 0.4836(3) 0.3563(3) -0.2222(2)
H13 H 0.4430 0.3395 -0.2079
H14 H 0.4769 0.3975 -0.2386
H15 H 0.5002 0.3292 -0.2528
C28 C 0.5950(2) 0.3866(2) -0.1929(2)
H16 H 0.6124 0.3588 -0.2225
H17 H 0.5881 0.4273 -0.2104
H18 H 0.6251 0.3905 -0.1597
C29 C 0.49842(18) 0.46611(17) -0.13569(16)
H19 H 0.5171 0.4828 -0.1701
C30 C 0.46689(17) 0.50510(17) -0.09731(16)
C31 C 0.46047(17) 0.57043(17) -0.11104(15)
C32 C 0.48151(19) 0.65313(18) -0.17093(17)
C33 C 0.5114(2) 0.67834(19) -0.22115(18)
H20 H 0.5384 0.6536 -0.2445
C34 C 0.5012(2) 0.7383(2) -0.23576(19)
H21 H 0.5211 0.7551 -0.2696
C35 C 0.4617(2) 0.7757(2) -0.2013(2)
H22 H 0.4555 0.8175 -0.2121
C36 C 0.4321(2) 0.7526(2) -0.1526(2)
H23 H 0.4056 0.7781 -0.1296
C37 C 0.44133(19) 0.68986(19) -0.13656(18)
C38 C 0.42012(17) 0.60824(17) -0.07579(16)
C39 C 0.38687(17) 0.58129(17) -0.02550(16)
C40 C 0.34204(18) 0.61523(17) 0.00533(17)
H24 H 0.3351 0.6569 -0.0056
C41 C 0.30705(18) 0.59014(17) 0.05166(16)
C42 C 0.25181(19) 0.62601(17) 0.07743(17)
C43 C 0.2008(2) 0.6308(2) 0.0292(2)
H25 H 0.1643 0.6537 0.0442
H26 H 0.2186 0.6524 -0.0048
H27 H 0.1866 0.5893 0.0172
C44 C 0.2733(2) 0.69123(18) 0.0971(2)
H28 H 0.2369 0.7131 0.1135
H29 H 0.3070 0.6881 0.1273
H30 H 0.2898 0.7140 0.0632
C45 C 0.2228(2) 0.5938(2) 0.1311(2)
H31 H 0.1876 0.6184 0.1461
H32 H 0.2066 0.5529 0.1195
H33 H 0.2556 0.5895 0.1619
C46 C 0.32089(18) 0.53000(17) 0.06837(16)
H34 H 0.2993 0.5124 0.1010
C47 C 0.36557(16) 0.49491(16) 0.03857(15)
C48 C 0.37588(17) 0.43012(16) 0.05448(15)
C49 C 0.39805(16) 0.51953(16) -0.01012(15)
C50 C 0.43775(17) 0.48155(16) -0.04630(15)
C51 C 0.07843(17) 0.05222(16) 0.12800(15)
C52 C 0.01146(18) 0.03465(16) 0.13466(15)
C53 C -0.02581(19) 0.06235(18) 0.17739(16)
H35 H -0.0076 0.0946 0.2007
C54 C -0.0888(2) 0.04440(18) 0.18710(18)
C55 C -0.1256(2) 0.0702(2) 0.23923(19)
C56 C -0.1191(4) 0.0156(4) 0.2888(4)
H36 H -0.1413 -0.0218 0.2746
H37 H -0.1383 0.0292 0.3257
H38 H -0.0739 0.0066 0.2956
C57 C -0.0887(4) 0.1232(4) 0.2724(4)
H39 H -0.0459 0.1091 0.2834
H40 H -0.1119 0.1343 0.3080
H41 H -0.0851 0.1592 0.2466
C58 C -0.1925(4) 0.0816(5) 0.2307(6)
H42 H -0.1979 0.1167 0.2041
H43 H -0.2119 0.0910 0.2687
H44 H -0.2134 0.0450 0.2135
C59 C -0.1152(2) -0.00099(18) 0.14993(17)
H45 H -0.1585 -0.0135 0.1551
C60 C -0.08007(18) -0.02832(17) 0.10565(16)
C61 C -0.10879(18) -0.07599(17) 0.06707(16)
C62 C -0.19499(18) -0.13404(17) 0.03700(16)
C63 C -0.2605(2) -0.1506(2) 0.04135(19)
H46 H -0.2873 -0.1281 0.0668
C64 C -0.2851(2) -0.1985(2) 0.00929(18)
H47 H -0.3289 -0.2093 0.0127
C65 C -0.2460(2) -0.23237(19) -0.02915(17)
H48 H -0.2637 -0.2661 -0.0509
C66 C -0.1831(2) -0.21689(18) -0.03508(17)
H49 H -0.1574 -0.2396 -0.0613
C67 C -0.15613(18) -0.16739(17) -0.00251(16)
C68 C -0.06931(18) -0.10852(17) 0.02616(16)
C69 C -0.00139(17) -0.09427(16) 0.02302(15)
C70 C 0.03902(19) -0.12984(17) -0.01108(16)
H50 H 0.0211 -0.1624 -0.0342
C71 C 0.10450(19) -0.11942(17) -0.01243(17)
C72 C 0.1500(2) -0.16293(19) -0.0432(2)
C73 C 0.1166(3) -0.1998(4) -0.0910(4)
H51 H 0.0807 -0.2230 -0.0742
H52 H 0.1006 -0.1719 -0.1215
H53 H 0.1467 -0.2286 -0.1085
C74 C 0.1789(4) -0.2040(3) 0.0041(3)
H54 H 0.2001 -0.1784 0.0343
H55 H 0.1450 -0.2288 0.0222
H56 H 0.2101 -0.2314 -0.0137
C75 C 0.2048(2) -0.1282(2) -0.0719(2)
H57 H 0.2279 -0.1036 -0.0420
H58 H 0.2340 -0.1577 -0.0895
H59 H 0.1880 -0.1010 -0.1025
C76 C 0.12905(19) -0.06931(17) 0.01952(17)
H60 H 0.1734 -0.0598 0.0176
C77 C 0.09009(18) -0.03291(16) 0.05412(15)
C78 C 0.11806(17) 0.01798(16) 0.08922(15)
C79 C 0.02436(18) -0.04570(16) 0.05744(15)
C80 C -0.01524(18) -0.01242(16) 0.09857(15)
C81 C 0.45547(16) 0.13254(16) 0.42537(15)
C82 C 0.46843(17) 0.14015(16) 0.48827(15)
C83 C 0.43834(18) 0.18647(16) 0.51995(15)
H61 H 0.4078 0.2114 0.5005
C84 C 0.45191(18) 0.19716(17) 0.57937(15)
C85 C 0.42589(19) 0.25351(17) 0.61201(16)
C86 C 0.4037(2) 0.23692(19) 0.67442(17)
H62 H 0.3684 0.2068 0.6719
H63 H 0.4393 0.2192 0.6968
H64 H 0.3891 0.2742 0.6944
C87 C 0.4807(2) 0.30040(19) 0.61631(19)
H65 H 0.5170 0.2820 0.6372
H66 H 0.4938 0.3125 0.5766
H67 H 0.4667 0.3369 0.6379
C88 C 0.3696(2) 0.2825(2) 0.57948(18)
H68 H 0.3343 0.2526 0.5766
H69 H 0.3557 0.3190 0.6011
H70 H 0.3828 0.2946 0.5398
C89 C 0.49469(18) 0.15769(17) 0.60714(16)
H71 H 0.5033 0.1630 0.6480
C90 C 0.52524(17) 0.11086(16) 0.57706(15)
C91 C 0.57132(17) 0.07136(16) 0.60711(15)
C92 C 0.62523(18) 0.04229(17) 0.69057(16)
C93 C 0.6376(2) 0.04803(18) 0.75184(17)
H72 H 0.6119 0.0742 0.7750
C94 C 0.6861(2) 0.01624(19) 0.77774(17)
H73 H 0.6945 0.0209 0.8187
C95 C 0.72386(19) -0.02370(18) 0.74368(17)
H74 H 0.7578 -0.0453 0.7621
C96 C 0.71253(18) -0.03170(18) 0.68531(17)
H75 H 0.7379 -0.0592 0.6632
C97 C 0.66250(18) 0.00125(16) 0.65720(15)
C98 C 0.60794(17) 0.02839(16) 0.57371(15)
C99 C 0.59791(17) 0.02386(16) 0.50980(15)
C100 C 0.63832(18) -0.01287(17) 0.47575(16)
H76 H 0.6704 -0.0363 0.4949
C101 C 0.63230(18) -0.01557(17) 0.41495(16)
C102 C 0.68236(19) -0.04984(18) 0.37904(16)
C103 C 0.7436(2) -0.0101(2) 0.3793(2)
H77 H 0.7576 -0.0026 0.4201
H78 H 0.7771 -0.0318 0.3582
H79 H 0.7351 0.0293 0.3599
C104 C 0.6980(2) -0.11210(19) 0.40726(18)
H80 H 0.7127 -0.1055 0.4480
H81 H 0.6597 -0.1385 0.4070
H82 H 0.7317 -0.1320 0.3849
C105 C 0.6599(3) -0.0621(2) 0.31603(18)
H83 H 0.6208 -0.0874 0.3164
H84 H 0.6512 -0.0228 0.2965
H85 H 0.6932 -0.0838 0.2947
C106 C 0.58319(17) 0.01677(17) 0.38829(16)
H86 H 0.5769 0.0133 0.3469
C107 C 0.54270(17) 0.05436(16) 0.42073(15)
C108 C 0.49299(16) 0.09039(16) 0.39142(15)
C109 C 0.55064(16) 0.05903(15) 0.48250(15)
C110 C 0.51388(17) 0.10252(16) 0.51618(15)
N13 N -0.36476(13) 0.61233(13) -0.42806(12)
N14 N -0.63999(14) 0.54347(13) -0.61212(13)
N15 N -0.56057(14) 0.48529(14) -0.69434(13)
N16 N -0.28599(13) 0.54758(13) -0.50664(12)
N17 N -0.11424(14) 0.56280(14) -0.13160(12)
N18 N -0.04744(14) 0.39101(14) 0.13239(13)
N19 N 0.02045(14) 0.30408(14) 0.06583(13)
N20 N -0.04456(14) 0.47798(13) -0.19922(12)
N21 N -0.05912(14) 0.86122(13) -0.37770(12)
N22 N 0.10566(14) 1.13705(13) -0.46827(13)
N23 N 0.19245(15) 1.06621(14) -0.53294(13)
N24 N 0.02476(14) 0.78819(13) -0.44342(12)
C111 C -0.09803(16) 0.58554(16) -0.31230(14)
C112 C -0.06677(16) 0.53746(16) -0.28654(15)
H87 H -0.0417 0.5108 -0.3098
C113 C -0.07197(16) 0.52752(16) -0.22461(15)
C114 C -0.10821(16) 0.56953(16) -0.19024(15)
C115 C -0.14023(16) 0.61864(16) -0.21832(15)
H88 H -0.1644 0.6468 -0.1958
C116 C -0.13627(16) 0.62534(16) -0.27755(15)
C117 C -0.17178(16) 0.67223(16) -0.31396(15)
H89 H -0.1995 0.6991 -0.2895
C118 C -0.12183(17) 0.70869(16) -0.34732(14)
C119 C -0.11519(17) 0.77111(16) -0.34677(14)
H90 H -0.1435 0.7957 -0.3246
C120 C -0.06556(17) 0.79904(16) -0.37962(15)
C121 C -0.02384(17) 0.76213(16) -0.41247(15)
C122 C -0.03293(17) 0.69701(16) -0.41338(15)
H91 H -0.0058 0.6718 -0.4361
C123 C -0.08089(17) 0.67100(16) -0.38127(14)
C124 C -0.09953(16) 0.60277(16) -0.37754(14)
H92 H -0.0718 0.5759 -0.4020
C125 C -0.16982(16) 0.59971(15) -0.39674(15)
C126 C -0.19506(16) 0.56916(15) -0.44417(15)
H93 H -0.1685 0.5452 -0.4687
C127 C -0.26159(17) 0.57342(15) -0.45676(15)
C128 C -0.30105(17) 0.60780(15) -0.41815(15)
C129 C -0.27359(16) 0.63906(16) -0.36961(14)
H94 H -0.2997 0.6617 -0.3436
C130 C -0.20916(16) 0.63673(15) -0.36013(14)
C131 C -0.38839(16) 0.58576(15) -0.47657(14)
C132 C -0.45678(16) 0.59045(15) -0.48874(15)
C133 C -0.49534(17) 0.62539(16) -0.45211(16)
H95 H -0.4767 0.6444 -0.4182
C134 C -0.56021(17) 0.63335(17) -0.46355(15)
C135 C -0.59857(18) 0.67822(17) -0.42672(16)
C136 C -0.5821(2) 0.6722(2) -0.36102(18)
H96 H -0.5361 0.6784 -0.3550
H97 H -0.6052 0.7034 -0.3387
H98 H -0.5946 0.6310 -0.3473
C137 C -0.5795(3) 0.7435(2) -0.4458(2)
H99 H -0.5334 0.7494 -0.4406
H100 H -0.5911 0.7492 -0.4874
H101 H -0.6020 0.7736 -0.4217
C138 C -0.6701(2) 0.6685(2) -0.4346(2)
H102 H -0.6928 0.6982 -0.4102
H103 H -0.6819 0.6744 -0.4761
H104 H -0.6818 0.6265 -0.4227
C139 C -0.58654(18) 0.60278(16) -0.51222(15)
H105 H -0.6311 0.6055 -0.5198
C140 C -0.54903(17) 0.56797(16) -0.55043(15)
C141 C -0.57731(17) 0.54006(16) -0.60347(15)
C142 C -0.66423(17) 0.51834(16) -0.66216(15)
C143 C -0.73021(18) 0.52256(17) -0.67473(16)
H106 H -0.7574 0.5416 -0.6471
C144 C -0.75516(18) 0.49961(17) -0.72586(16)
H107 H -0.7995 0.5032 -0.7340
C145 C -0.71518(18) 0.47038(17) -0.76711(16)
H108 H -0.7330 0.4549 -0.8029
C146 C -0.65149(18) 0.46431(17) -0.75587(16)
H109 H -0.6254 0.4437 -0.7834
C147 C -0.62440(17) 0.48854(16) -0.70358(15)
C148 C -0.53691(17) 0.51092(16) -0.64565(15)
C149 C -0.46793(17) 0.51077(16) -0.63565(15)
C150 C -0.42661(18) 0.49039(17) -0.67961(16)
H110 H -0.4442 0.4758 -0.7159
C151 C -0.36081(18) 0.49091(18) -0.67173(16)
C152 C -0.31570(19) 0.4757(2) -0.72187(17)
C153 C -0.3486(3) 0.4447(4) -0.7728(3)
H111 H -0.3833 0.4706 -0.7873
H112 H -0.3179 0.4382 -0.8044
H113 H -0.3661 0.4048 -0.7602
C154 C -0.2853(3) 0.5373(3) -0.7415(3)
H114 H -0.2639 0.5572 -0.7077
H115 H -0.2540 0.5295 -0.7723
H116 H -0.3186 0.5643 -0.7569
C155 C -0.2621(3) 0.4348(4) -0.7001(2)
H117 H -0.2402 0.4547 -0.6666
H118 H -0.2799 0.3949 -0.6877
H119 H -0.2317 0.4284 -0.7319
C156 C -0.33649(18) 0.51052(17) -0.61735(16)
H120 H -0.2917 0.5096 -0.6106
C157 C -0.37538(16) 0.53129(16) -0.57274(15)
C158 C -0.34815(17) 0.55448(15) -0.51722(15)
C159 C -0.44215(17) 0.53351(15) -0.58197(15)
C160 C -0.48279(16) 0.56283(15) -0.53941(15)
C161 C -0.08644(16) 0.51452(16) -0.10704(15)
C162 C -0.09361(16) 0.50615(16) -0.04362(15)
C163 C -0.13297(17) 0.54453(17) -0.01166(15)
H121 H -0.1528 0.5781 -0.0310
C164 C -0.14411(18) 0.53509(18) 0.04807(16)
C165 C -0.19450(19) 0.57076(19) 0.08151(16)
C166 C -0.2145(3) 0.6291(2) 0.0482(2)
H122 H -0.2468 0.6508 0.0709
H123 H -0.1772 0.6561 0.0430
H124 H -0.2324 0.6175 0.0096
C167 C -0.2532(2) 0.5283(3) 0.0879(2)
H125 H -0.2864 0.5500 0.1093
H126 H -0.2694 0.5164 0.0488
H127 H -0.2411 0.4912 0.1098
C168 C -0.1698(2) 0.5899(2) 0.14267(17)
H128 H -0.2029 0.6127 0.1632
H129 H -0.1589 0.5530 0.1653
H130 H -0.1317 0.6162 0.1387
C169 C -0.11149(17) 0.48730(17) 0.07548(15)
H131 H -0.1167 0.4812 0.1166
C170 C -0.07163(16) 0.44822(17) 0.04494(15)
C171 C -0.04147(17) 0.39633(17) 0.07459(15)
C172 C -0.02075(17) 0.34103(17) 0.15823(15)
C173 C -0.02825(19) 0.33129(18) 0.21932(16)
H132 H -0.0504 0.3606 0.2423
C174 C -0.00386(18) 0.28021(18) 0.24533(16)
H133 H -0.0097 0.2737 0.2863
C175 C 0.03011(18) 0.23668(17) 0.21187(16)
H134 H 0.0467 0.2011 0.2306
C176 C 0.03927(18) 0.24516(17) 0.15318(16)
H135 H 0.0626 0.2159 0.1313
C177 C 0.01401(17) 0.29749(16) 0.12478(15)
C178 C -0.00688(17) 0.35197(16) 0.04056(15)
C179 C -0.00394(17) 0.35841(17) -0.02354(15)
C180 C 0.02062(18) 0.31137(17) -0.05763(16)
H136 H 0.0378 0.2762 -0.0387
C181 C 0.02083(19) 0.31430(17) -0.11889(16)
C182 C 0.0424(2) 0.2578(2) -0.15413(17)
C183 C -0.0043(3) 0.2045(2) -0.1414(2)
H137 H -0.0049 0.1966 -0.0989
H138 H -0.0473 0.2155 -0.1550
H139 H 0.0093 0.1674 -0.1621
C184 C 0.1095(3) 0.2394(2) -0.1345(2)
H140 H 0.1100 0.2318 -0.0919
H141 H 0.1217 0.2018 -0.1553
H142 H 0.1398 0.2727 -0.1436
C185 C 0.0426(3) 0.2694(2) -0.22017(19)
H143 H -0.0002 0.2812 -0.2333
H144 H 0.0731 0.3026 -0.2290
H145 H 0.0550 0.2317 -0.2407
C186 C -0.00162(18) 0.36783(18) -0.14532(16)
H146 H 0.0001 0.3716 -0.1869
C187 C -0.02644(16) 0.41588(16) -0.11256(15)
C188 C -0.05218(16) 0.47098(16) -0.14136(15)
C189 C -0.02977(16) 0.41091(16) -0.05079(15)
C190 C -0.06356(16) 0.45620(16) -0.01626(15)
C191 C -0.01203(17) 0.88609(16) -0.40840(15)
C192 C -0.00376(17) 0.95302(16) -0.40561(15)
C193 C -0.04149(18) 0.98781(17) -0.36847(16)
H147 H -0.0741 0.9678 -0.3467
C194 C -0.03263(18) 1.05122(17) -0.36240(16)
C195 C -0.06816(19) 1.08659(17) -0.31520(17)
C196 C -0.1342(2) 1.0577(2) -0.3046(2)
H148 H -0.1560 1.0812 -0.2741
H149 H -0.1593 1.0585 -0.3412
H150 H -0.1293 1.0150 -0.2916
C197 C -0.0292(3) 1.0832(2) -0.25799(19)
H151 H -0.0511 1.1057 -0.2269
H152 H -0.0246 1.0400 -0.2464
H153 H 0.0131 1.1018 -0.2640
C198 C -0.0760(2) 1.15480(19) -0.3315(2)
H154 H -0.0990 1.1759 -0.3002
H155 H -0.0338 1.1741 -0.3362
H156 H -0.1002 1.1578 -0.3686
C199 C 0.01365(18) 1.07938(17) -0.39753(16)
H157 H 0.0191 1.1229 -0.3958
C200 C 0.05211(17) 1.04561(16) -0.43509(15)
C201 C 0.10149(17) 1.07620(16) -0.46982(15)
C202 C 0.15451(17) 1.16402(16) -0.49776(15)
C203 C 0.16352(19) 1.22894(17) -0.49400(17)
H158 H 0.1334 1.2533 -0.4738
C204 C 0.21493(19) 1.25606(18) -0.51913(16)
H159 H 0.2208 1.2995 -0.5163
C205 C 0.26022(19) 1.22036(17) -0.54963(16)
H160 H 0.2968 1.2399 -0.5659
C206 C 0.25177(18) 1.15824(17) -0.55576(16)
H161 H 0.2816 1.1349 -0.5774
C207 C 0.19828(18) 1.12844(17) -0.52977(15)
C208 C 0.14534(17) 1.04033(17) -0.50321(15)
C209 C 0.13938(17) 0.97263(16) -0.50300(16)
C210 C 0.18498(18) 0.93623(17) -0.52978(17)
H162 H 0.2193 0.9558 -0.5497
C211 C 0.18194(18) 0.87177(17) -0.52841(18)
C212 C 0.2375(2) 0.83414(18) -0.5534(2)
C213 C 0.2219(2) 0.76551(19) -0.5541(2)
H163 H 0.1842 0.7578 -0.5791
H164 H 0.2583 0.7430 -0.5697
H165 H 0.2133 0.7516 -0.5139
C214 C 0.2963(2) 0.8451(2) -0.5142(2)
H166 H 0.3069 0.8893 -0.5134
H167 H 0.2874 0.8309 -0.4742
H168 H 0.3324 0.8223 -0.5300
C215 C 0.2537(2) 0.8545(2) -0.6160(2)
H169 H 0.2639 0.8987 -0.6161
H170 H 0.2906 0.8315 -0.6298
H171 H 0.2170 0.8463 -0.6422
C216 C 0.13003(18) 0.84480(17) -0.50089(16)
H172 H 0.1258 0.8011 -0.5010
C217 C 0.08371(17) 0.87944(16) -0.47297(15)
C218 C 0.03065(17) 0.84927(16) -0.44154(15)
C219 C 0.08895(17) 0.94452(16) -0.47218(15)
C220 C 0.04504(17) 0.98142(16) -0.43869(15)
C221 C -0.43342(17) -0.06639(15) 0.18858(18)
C222 C -0.37835(19) -0.06589(18) 0.15504(18)
H173 H -0.3653 -0.1024 0.1358
C223 C -0.34241(17) -0.0119(2) 0.14970(19)
H174 H -0.3048 -0.0116 0.1268
C224 C -0.36154(19) 0.04159(17) 0.1779(2)
H175 H -0.3370 0.0785 0.1742
C225 C -0.4166(2) 0.04108(15) 0.2114(2)
H176 H -0.4297 0.0776 0.2307
C226 C -0.45256(16) -0.01291(17) 0.21676(18)
H177 H -0.4902 -0.0132 0.2397
C227 C -0.4723(3) -0.1223(3) 0.1967(3)
H178 H -0.5088 -0.1129 0.2216
H179 H -0.4878 -0.1372 0.1583
H180 H -0.4464 -0.1541 0.2156
C228 C -0.2801(3) 0.1909(3) 0.3235(3)
C229 C -0.2293(3) 0.1955(3) 0.3633(2)
H181 H -0.2277 0.1690 0.3965
C230 C -0.1808(3) 0.2388(3) 0.3545(3)
H182 H -0.1461 0.2419 0.3817
C231 C -0.1832(3) 0.2775(3) 0.3058(4)
H183 H -0.1501 0.3071 0.2998
C232 C -0.2340(4) 0.2730(3) 0.2661(3)
H184 H -0.2356 0.2994 0.2328
C233 C -0.2824(3) 0.2296(3) 0.2749(2)
H185 H -0.3172 0.2265 0.2477
C234 C -0.3323(5) 0.1474(5) 0.3295(5)
H186 H -0.3625 0.1524 0.2965
H187 H -0.3158 0.1054 0.3292
H188 H -0.3541 0.1550 0.3667
C235 C 0.2410(2) 1.2194(3) -0.23968(19)
C236 C 0.2092(3) 1.1629(2) -0.2438(3)
H189 H 0.2174 1.1317 -0.2155
C237 C 0.1654(3) 1.1520(3) -0.2892(3)
H190 H 0.1437 1.1133 -0.2920
C238 C 0.1533(2) 1.1977(4) -0.3305(3)
H191 H 0.1234 1.1902 -0.3616
C239 C 0.1851(3) 1.2542(3) -0.3265(2)
H192 H 0.1769 1.2854 -0.3547
C240 C 0.2289(2) 1.2651(2) -0.2810(2)
H193 H 0.2506 1.3037 -0.2782
C241 C 0.2883(4) 1.2341(5) -0.1936(3)
H194 H 0.3046 1.2763 -0.1991
H195 H 0.2684 1.2307 -0.1549
H196 H 0.3237 1.2052 -0.1959
C242 C -0.0389(2) 0.6520(2) -0.6052(2)
C243 C -0.0911(3) 0.6285(2) -0.57491(19)
H197 H -0.1005 0.6438 -0.5368
C244 C -0.1296(2) 0.5829(3) -0.6004(2)
H198 H -0.1653 0.5669 -0.5798
C245 C -0.1159(3) 0.5606(3) -0.6563(3)
H199 H -0.1422 0.5294 -0.6737
C246 C -0.0636(3) 0.5840(3) -0.68654(19)
H200 H -0.0543 0.5688 -0.7247
C247 C -0.0252(2) 0.6297(3) -0.6610(2)
H201 H 0.0105 0.6457 -0.6817
C248 C 0.0021(5) 0.7008(4) -0.5808(5)
H202 H 0.0359 0.7108 -0.6088
H203 H -0.0234 0.7376 -0.5737
H204 H 0.0212 0.6870 -0.5436
C249 C 0.2232(4) 0.7127(4) -0.7302(4)
C250 C 0.2331(6) 0.7652(4) -0.7640(3)
H205 H 0.1995 0.7806 -0.7880
C251 C 0.2922(7) 0.7953(3) -0.7626(4)
H206 H 0.2990 0.8312 -0.7857
C252 C 0.3413(5) 0.7728(5) -0.7274(5)
H207 H 0.3817 0.7933 -0.7264
C253 C 0.3314(5) 0.7202(5) -0.6936(4)
H208 H 0.3650 0.7048 -0.6696
C254 C 0.2724(5) 0.6902(3) -0.6950(4)
H209 H 0.2656 0.6543 -0.6719
C255 C 0.1628(6) 0.6788(6) -0.7297(7)
H210 H 0.1662 0.6435 -0.7031
H211 H 0.1289 0.7060 -0.7163
H212 H 0.1525 0.6640 -0.7696
C256 C 0.5174(5) 0.1475(5) 0.0047(4)
C257 C 0.4583(5) 0.1310(5) -0.0193(3)
H213 H 0.4405 0.1545 -0.0505
C258 C 0.4251(4) 0.0802(6) 0.0024(4)
H214 H 0.3846 0.0689 -0.0140
C259 C 0.4511(5) 0.0458(5) 0.0481(4)
H215 H 0.4284 0.0111 0.0630
C260 C 0.5102(5) 0.0623(5) 0.0722(4)
H216 H 0.5280 0.0388 0.1034
C261 C 0.5434(4) 0.1131(5) 0.0505(4)
H217 H 0.5838 0.1244 0.0669
C262 C 0.5520(7) 0.2031(6) -0.0122(6)
H218 H 0.5924 0.2058 0.0099
H219 H 0.5608 0.2016 -0.0545
H220 H 0.5262 0.2392 -0.0036
C263? C -0.1005(5) 0.0547(5) 0.2946(4)
H221? H -0.1033 0.0100 0.2999
H222? H -0.1249 0.0752 0.3254
H223? H -0.0557 0.0682 0.2972
C264? C -0.1283(4) 0.1437(3) 0.2312(4)
H224? H -0.0847 0.1606 0.2292
H225? H -0.1501 0.1620 0.2648
H226? H -0.1515 0.1534 0.1948
C265? C -0.1993(4) 0.0530(5) 0.2325(6)
H227? H -0.2143 0.0643 0.1930
H228? H -0.2235 0.0755 0.2620
H229? H -0.2054 0.0085 0.2382
C266? C 0.1087(3) 0.5864(3) -0.4500(3)
C267? C 0.0610(3) 0.5627(3) -0.4869(3)
H230? H 0.0214 0.5495 -0.4710
C268? C 0.0711(3) 0.5585(3) -0.5472(3)
H231? H 0.0384 0.5423 -0.5724
C269? C 0.1290(4) 0.5779(4) -0.5705(3)
H232? H 0.1359 0.5750 -0.6116
C270? C 0.1768(3) 0.6015(4) -0.5335(4)
H233? H 0.2164 0.6148 -0.5494
C271? C 0.1667(3) 0.6057(4) -0.4733(3)
H234? H 0.1993 0.6219 -0.4480
C272? C 0.0999(5) 0.5938(7) -0.3863(4)
H235? H 0.1390 0.6111 -0.3684
H236? H 0.0644 0.6217 -0.3793
H237? H 0.0904 0.5535 -0.3687
C273? C 0.1185(4) 0.6290(4) -0.5652(4)
C274? C 0.1029(5) 0.6049(4) -0.6204(4)
H238? H 0.1274 0.5725 -0.6363
C275? C 0.0516(5) 0.6282(5) -0.6521(3)
H239? H 0.0409 0.6117 -0.6899
C276? C 0.0158(4) 0.6757(5) -0.6288(4)
H240? H -0.0193 0.6916 -0.6505
C277? C 0.0313(4) 0.6998(4) -0.5736(4)
H241? H 0.0069 0.7322 -0.5576
C278? C 0.0827(4) 0.6765(4) -0.5418(3)
H242? H 0.0933 0.6929 -0.5041
C279? C 0.1704(7) 0.6056(8) -0.5286(7)
H243? H 0.1539 0.5733 -0.5026
H244? H 0.1889 0.6393 -0.5048
H245? H 0.2035 0.5884 -0.5538
H246? H 0.0512 0.7656 -0.4638
loop_
_geom_bond_atom_site_label_1
_geom_bond_atom_site_label_2
_geom_bond_site_symmetry_1
_geom_bond_site_symmetry_2
N1 C18 1_555 1_555
N2 C31 1_555 1_555
N3 C37 1_555 1_555
N4 C17 1_555 1_555
N5 C11 1_555 1_555
N6 C61 1_555 1_555
N7 C67 1_555 1_555
N8 C10 1_555 1_555
N9 C3 1_555 1_555
N10 C91 1_555 1_555
N11 C97 1_555 1_555
N12 C4 1_555 1_555
C1 C2 1_555 1_555
C2 H1 1_555 1_555
C3 C2 1_555 1_555
C4 C3 1_555 1_555
C5 C4 1_555 1_555
H2 C5 1_555 1_555
C6 C1 1_555 1_555
C7 C6 1_555 1_555
H3 C7 1_555 1_555
C8 C7 1_555 1_555
C9 C8 1_555 1_555
H4 C9 1_555 1_555
C10 C9 1_555 1_555
C11 C10 1_555 1_555
C12 C11 1_555 1_555
H5 C12 1_555 1_555
C13 C8 1_555 1_555
C14 C1 1_555 1_555
H6 C14 1_555 1_555
C15 C14 1_555 1_555
C16 C15 1_555 1_555
H7 C16 1_555 1_555
C17 C16 1_555 1_555
C18 C17 1_555 1_555
C19 C18 1_555 1_555
H8 C19 1_555 1_555
C20 C7 1_555 1_555
C21 N1 1_555 1_555
C22 C21 1_555 1_555
C23 C22 1_555 1_555
H9 C23 1_555 1_555
C24 C23 1_555 1_555
C25 C24 1_555 1_555
C26 C25 1_555 1_555
H10 C26 1_555 1_555
H11 C26 1_555 1_555
H12 C26 1_555 1_555
C27 C25 1_555 1_555
H13 C27 1_555 1_555
H14 C27 1_555 1_555
H15 C27 1_555 1_555
C28 C25 1_555 1_555
H16 C28 1_555 1_555
H17 C28 1_555 1_555
H18 C28 1_555 1_555
C29 C24 1_555 1_555
H19 C29 1_555 1_555
C30 C29 1_555 1_555
C31 C30 1_555 1_555
C32 N2 1_555 1_555
C33 C32 1_555 1_555
H20 C33 1_555 1_555
C34 C33 1_555 1_555
H21 C34 1_555 1_555
C35 C34 1_555 1_555
H22 C35 1_555 1_555
C36 C35 1_555 1_555
H23 C36 1_555 1_555
C37 C32 1_555 1_555
C38 N3 1_555 1_555
C39 C38 1_555 1_555
C40 C39 1_555 1_555
H24 C40 1_555 1_555
C41 C40 1_555 1_555
C42 C41 1_555 1_555
C43 C42 1_555 1_555
H25 C43 1_555 1_555
H26 C43 1_555 1_555
H27 C43 1_555 1_555
C44 C42 1_555 1_555
H28 C44 1_555 1_555
H29 C44 1_555 1_555
H30 C44 1_555 1_555
C45 C42 1_555 1_555
H31 C45 1_555 1_555
H32 C45 1_555 1_555
H33 C45 1_555 1_555
C46 C41 1_555 1_555
H34 C46 1_555 1_555
C47 C46 1_555 1_555
C48 N4 1_555 1_555
C49 C39 1_555 1_555
C50 C22 1_555 1_555
C51 N5 1_555 1_555
C52 C51 1_555 1_555
C53 C52 1_555 1_555
H35 C53 1_555 1_555
C54 C53 1_555 1_555
C55 C54 1_555 1_555
C56 C55 1_555 1_555
H36 C56 1_555 1_555
H37 C56 1_555 1_555
H38 C56 1_555 1_555
C57 C55 1_555 1_555
H39 C57 1_555 1_555
H40 C57 1_555 1_555
H41 C57 1_555 1_555
C58 C55 1_555 1_555
H42 C58 1_555 1_555
H43 C58 1_555 1_555
H44 C58 1_555 1_555
C59 C54 1_555 1_555
H45 C59 1_555 1_555
C60 C59 1_555 1_555
C61 C60 1_555 1_555
C62 N6 1_555 1_555
C63 C62 1_555 1_555
H46 C63 1_555 1_555
C64 C63 1_555 1_555
H47 C64 1_555 1_555
C65 C64 1_555 1_555
H48 C65 1_555 1_555
C66 C65 1_555 1_555
H49 C66 1_555 1_555
C67 C62 1_555 1_555
C68 N7 1_555 1_555
C69 C68 1_555 1_555
C70 C69 1_555 1_555
H50 C70 1_555 1_555
C71 C70 1_555 1_555
C72 C71 1_555 1_555
C73 C72 1_555 1_555
H51 C73 1_555 1_555
H52 C73 1_555 1_555
H53 C73 1_555 1_555
C74 C72 1_555 1_555
H54 C74 1_555 1_555
H55 C74 1_555 1_555
H56 C74 1_555 1_555
C75 C72 1_555 1_555
H57 C75 1_555 1_555
H58 C75 1_555 1_555
H59 C75 1_555 1_555
C76 C71 1_555 1_555
H60 C76 1_555 1_555
C77 C76 1_555 1_555
C78 N8 1_555 1_555
C79 C69 1_555 1_555
C80 C52 1_555 1_555
C81 N9 1_555 1_555
C82 C81 1_555 1_555
C83 C82 1_555 1_555
H61 C83 1_555 1_555
C84 C83 1_555 1_555
C85 C84 1_555 1_555
C86 C85 1_555 1_555
H62 C86 1_555 1_555
H63 C86 1_555 1_555
H64 C86 1_555 1_555
C87 C85 1_555 1_555
H65 C87 1_555 1_555
H66 C87 1_555 1_555
H67 C87 1_555 1_555
C88 C85 1_555 1_555
H68 C88 1_555 1_555
H69 C88 1_555 1_555
H70 C88 1_555 1_555
C89 C84 1_555 1_555
H71 C89 1_555 1_555
C90 C89 1_555 1_555
C91 C90 1_555 1_555
C92 N10 1_555 1_555
C93 C92 1_555 1_555
H72 C93 1_555 1_555
C94 C93 1_555 1_555
H73 C94 1_555 1_555
C95 C94 1_555 1_555
H74 C95 1_555 1_555
C96 C95 1_555 1_555
H75 C96 1_555 1_555
C97 C92 1_555 1_555
C98 N11 1_555 1_555
C99 C98 1_555 1_555
C100 C99 1_555 1_555
H76 C100 1_555 1_555
C101 C100 1_555 1_555
C102 C101 1_555 1_555
C103 C102 1_555 1_555
H77 C103 1_555 1_555
H78 C103 1_555 1_555
H79 C103 1_555 1_555
C104 C102 1_555 1_555
H80 C104 1_555 1_555
H81 C104 1_555 1_555
H82 C104 1_555 1_555
C105 C102 1_555 1_555
H83 C105 1_555 1_555
H84 C105 1_555 1_555
H85 C105 1_555 1_555
C106 C101 1_555 1_555
H86 C106 1_555 1_555
C107 C106 1_555 1_555
C108 N12 1_555 1_555
C109 C99 1_555 1_555
C110 C82 1_555 1_555
N13 C128 1_555 1_555
N14 C141 1_555 1_555
N15 C147 1_555 1_555
N16 C127 1_555 1_555
N17 C114 1_555 1_555
N18 C171 1_555 1_555
N19 C177 1_555 1_555
N20 C113 1_555 1_555
N21 C120 1_555 1_555
N22 C201 1_555 1_555
N23 C207 1_555 1_555
N24 C121 1_555 1_555
C111 C112 1_555 1_555
C112 H87 1_555 1_555
C113 C112 1_555 1_555
C114 C113 1_555 1_555
C115 C114 1_555 1_555
H88 C115 1_555 1_555
C116 C111 1_555 1_555
C117 C116 1_555 1_555
H89 C117 1_555 1_555
C118 C117 1_555 1_555
C119 C118 1_555 1_555
H90 C119 1_555 1_555
C120 C119 1_555 1_555
C121 C120 1_555 1_555
C122 C121 1_555 1_555
H91 C122 1_555 1_555
C123 C118 1_555 1_555
C124 C111 1_555 1_555
H92 C124 1_555 1_555
C125 C124 1_555 1_555
C126 C125 1_555 1_555
H93 C126 1_555 1_555
C127 C126 1_555 1_555
C128 C127 1_555 1_555
C129 C128 1_555 1_555
H94 C129 1_555 1_555
C130 C117 1_555 1_555
C131 N13 1_555 1_555
C132 C131 1_555 1_555
C133 C132 1_555 1_555
H95 C133 1_555 1_555
C134 C133 1_555 1_555
C135 C134 1_555 1_555
C136 C135 1_555 1_555
H96 C136 1_555 1_555
H97 C136 1_555 1_555
H98 C136 1_555 1_555
C137 C135 1_555 1_555
H99 C137 1_555 1_555
H100 C137 1_555 1_555
H101 C137 1_555 1_555
C138 C135 1_555 1_555
H102 C138 1_555 1_555
H103 C138 1_555 1_555
H104 C138 1_555 1_555
C139 C134 1_555 1_555
H105 C139 1_555 1_555
C140 C139 1_555 1_555
C141 C140 1_555 1_555
C142 N14 1_555 1_555
C143 C142 1_555 1_555
H106 C143 1_555 1_555
C144 C143 1_555 1_555
H107 C144 1_555 1_555
C145 C144 1_555 1_555
H108 C145 1_555 1_555
C146 C145 1_555 1_555
H109 C146 1_555 1_555
C147 C142 1_555 1_555
C148 N15 1_555 1_555
C149 C148 1_555 1_555
C150 C149 1_555 1_555
H110 C150 1_555 1_555
C151 C150 1_555 1_555
C152 C151 1_555 1_555
C153 C152 1_555 1_555
H111 C153 1_555 1_555
H112 C153 1_555 1_555
H113 C153 1_555 1_555
C154 C152 1_555 1_555
H114 C154 1_555 1_555
H115 C154 1_555 1_555
H116 C154 1_555 1_555
C155 C152 1_555 1_555
H117 C155 1_555 1_555
H118 C155 1_555 1_555
H119 C155 1_555 1_555
C156 C151 1_555 1_555
H120 C156 1_555 1_555
C157 C156 1_555 1_555
C158 N16 1_555 1_555
C159 C149 1_555 1_555
C160 C132 1_555 1_555
C161 N17 1_555 1_555
C162 C161 1_555 1_555
C163 C162 1_555 1_555
H121 C163 1_555 1_555
C164 C163 1_555 1_555
C165 C164 1_555 1_555
C166 C165 1_555 1_555
H122 C166 1_555 1_555
H123 C166 1_555 1_555
H124 C166 1_555 1_555
C167 C165 1_555 1_555
H125 C167 1_555 1_555
H126 C167 1_555 1_555
H127 C167 1_555 1_555
C168 C165 1_555 1_555
H128 C168 1_555 1_555
H129 C168 1_555 1_555
H130 C168 1_555 1_555
C169 C164 1_555 1_555
H131 C169 1_555 1_555
C170 C169 1_555 1_555
C171 C170 1_555 1_555
C172 N18 1_555 1_555
C173 C172 1_555 1_555
H132 C173 1_555 1_555
C174 C173 1_555 1_555
H133 C174 1_555 1_555
C175 C174 1_555 1_555
H134 C175 1_555 1_555
C176 C175 1_555 1_555
H135 C176 1_555 1_555
C177 C172 1_555 1_555
C178 N19 1_555 1_555
C179 C178 1_555 1_555
C180 C179 1_555 1_555
H136 C180 1_555 1_555
C181 C180 1_555 1_555
C182 C181 1_555 1_555
C183 C182 1_555 1_555
H137 C183 1_555 1_555
H138 C183 1_555 1_555
H139 C183 1_555 1_555
C184 C182 1_555 1_555
H140 C184 1_555 1_555
H141 C184 1_555 1_555
H142 C184 1_555 1_555
C185 C182 1_555 1_555
H143 C185 1_555 1_555
H144 C185 1_555 1_555
H145 C185 1_555 1_555
C186 C181 1_555 1_555
H146 C186 1_555 1_555
C187 C186 1_555 1_555
C188 N20 1_555 1_555
C189 C179 1_555 1_555
C190 C162 1_555 1_555
C191 N21 1_555 1_555
C192 C191 1_555 1_555
C193 C192 1_555 1_555
H147 C193 1_555 1_555
C194 C193 1_555 1_555
C195 C194 1_555 1_555
C196 C195 1_555 1_555
H148 C196 1_555 1_555
H149 C196 1_555 1_555
H150 C196 1_555 1_555
C197 C195 1_555 1_555
H151 C197 1_555 1_555
H152 C197 1_555 1_555
H153 C197 1_555 1_555
C198 C195 1_555 1_555
H154 C198 1_555 1_555
H155 C198 1_555 1_555
H156 C198 1_555 1_555
C199 C194 1_555 1_555
H157 C199 1_555 1_555
C200 C199 1_555 1_555
C201 C200 1_555 1_555
C202 N22 1_555 1_555
C203 C202 1_555 1_555
H158 C203 1_555 1_555
C204 C203 1_555 1_555
H159 C204 1_555 1_555
C205 C204 1_555 1_555
H160 C205 1_555 1_555
C206 C205 1_555 1_555
H161 C206 1_555 1_555
C207 C202 1_555 1_555
C208 N23 1_555 1_555
C209 C208 1_555 1_555
C210 C209 1_555 1_555
H162 C210 1_555 1_555
C211 C210 1_555 1_555
C212 C211 1_555 1_555
C213 C212 1_555 1_555
H163 C213 1_555 1_555
H164 C213 1_555 1_555
H165 C213 1_555 1_555
C214 C212 1_555 1_555
H166 C214 1_555 1_555
H167 C214 1_555 1_555
H168 C214 1_555 1_555
C215 C212 1_555 1_555
H169 C215 1_555 1_555
H170 C215 1_555 1_555
H171 C215 1_555 1_555
C216 C211 1_555 1_555
H172 C216 1_555 1_555
C217 C216 1_555 1_555
C218 N24 1_555 1_555
C219 C209 1_555 1_555
C220 C192 1_555 1_555
C221 C222 1_555 1_555
C222 H173 1_555 1_555
C223 C222 1_555 1_555
H174 C223 1_555 1_555
C224 C223 1_555 1_555
H175 C224 1_555 1_555
C225 C224 1_555 1_555
H176 C225 1_555 1_555
C226 C221 1_555 1_555
H177 C226 1_555 1_555
C227 C221 1_555 1_555
H178 C227 1_555 1_555
H179 C227 1_555 1_555
H180 C227 1_555 1_555
C228 C229 1_555 1_555
C229 H181 1_555 1_555
C230 C229 1_555 1_555
H182 C230 1_555 1_555
C231 C230 1_555 1_555
H183 C231 1_555 1_555
C232 C231 1_555 1_555
H184 C232 1_555 1_555
C233 C228 1_555 1_555
H185 C233 1_555 1_555
C234 C228 1_555 1_555
H186 C234 1_555 1_555
H187 C234 1_555 1_555
H188 C234 1_555 1_555
C235 C236 1_555 1_555
C236 H189 1_555 1_555
C237 C236 1_555 1_555
H190 C237 1_555 1_555
C238 C237 1_555 1_555
H191 C238 1_555 1_555
C239 C238 1_555 1_555
H192 C239 1_555 1_555
C240 C235 1_555 1_555
H193 C240 1_555 1_555
C241 C235 1_555 1_555
H194 C241 1_555 1_555
H195 C241 1_555 1_555
H196 C241 1_555 1_555
C242 C243 1_555 1_555
C243 H197 1_555 1_555
C244 C243 1_555 1_555
H198 C244 1_555 1_555
C245 C244 1_555 1_555
H199 C245 1_555 1_555
C246 C245 1_555 1_555
H200 C246 1_555 1_555
C247 C242 1_555 1_555
H201 C247 1_555 1_555
C248 C242 1_555 1_555
H202 C248 1_555 1_555
H203 C248 1_555 1_555
H204 C248 1_555 1_555
C249 C250 1_555 1_555
C250 H205 1_555 1_555
C251 C250 1_555 1_555
H206 C251 1_555 1_555
C252 C251 1_555 1_555
H207 C252 1_555 1_555
C253 C252 1_555 1_555
H208 C253 1_555 1_555
C254 C249 1_555 1_555
H209 C254 1_555 1_555
C255 C249 1_555 1_555
H210 C255 1_555 1_555
H211 C255 1_555 1_555
H212 C255 1_555 1_555
C256 C257 1_555 1_555
C257 H213 1_555 1_555
C258 C257 1_555 1_555
H214 C258 1_555 1_555
C259 C258 1_555 1_555
H215 C259 1_555 1_555
C260 C259 1_555 1_555
H216 C260 1_555 1_555
C261 C256 1_555 1_555
H217 C261 1_555 1_555
C262 C256 1_555 1_555
H218 C262 1_555 1_555
H219 C262 1_555 1_555
H220 C262 1_555 1_555
C5 C6 1_555 1_555
C12 C13 1_555 1_555
C13 C14 1_555 1_555
C15 C20 1_555 1_555
C19 C20 1_555 1_555
C21 C48 1_555 1_555
C30 C50 1_555 1_555
C31 C38 1_555 1_555
C36 C37 1_555 1_555
C47 C48 1_555 1_555
C47 C49 1_555 1_555
C49 C50 1_555 1_555
C51 C78 1_555 1_555
C60 C80 1_555 1_555
C61 C68 1_555 1_555
C66 C67 1_555 1_555
C77 C78 1_555 1_555
C77 C79 1_555 1_555
C79 C80 1_555 1_555
C81 C108 1_555 1_555
C90 C110 1_555 1_555
C91 C98 1_555 1_555
C96 C97 1_555 1_555
C107 C108 1_555 1_555
C107 C109 1_555 1_555
C109 C110 1_555 1_555
C115 C116 1_555 1_555
C122 C123 1_555 1_555
C123 C124 1_555 1_555
C125 C130 1_555 1_555
C129 C130 1_555 1_555
C131 C158 1_555 1_555
C140 C160 1_555 1_555
C141 C148 1_555 1_555
C146 C147 1_555 1_555
C157 C158 1_555 1_555
C157 C159 1_555 1_555
C159 C160 1_555 1_555
C161 C188 1_555 1_555
C170 C190 1_555 1_555
C171 C178 1_555 1_555
C176 C177 1_555 1_555
C187 C188 1_555 1_555
C187 C189 1_555 1_555
C189 C190 1_555 1_555
C191 C218 1_555 1_555
C200 C220 1_555 1_555
C201 C208 1_555 1_555
C206 C207 1_555 1_555
C217 C218 1_555 1_555
C217 C219 1_555 1_555
C219 C220 1_555 1_555
C225 C226 1_555 1_555
C232 C233 1_555 1_555
C239 C240 1_555 1_555
C246 C247 1_555 1_555
C253 C254 1_555 1_555
C260 C261 1_555 1_555

#END
