
#######################################################################
#
#                 Cambridge Crystallographic Data Centre
#                                CCDC 
#
#######################################################################
#
# If this CIF has been generated from an entry in the Cambridge 
# Structural Database, then it will include bibliographic, chemical, 
# crystal, experimental, refinement or atomic coordinate data resulting 
# from the CCDC's data processing and validation procedures.
#
#######################################################################

data_IJEFIO
_chemical_name_common            
(3E,3'E)-3,3'-((E)-5H,5'H-[2,2'-bithiophenylidene]-5,5'-diylidene)bis(6-bromo-1-hexylindolin-2-one)
_chemical_formula_moiety         'C36 H36 Br2 N2 O6 S2'
_chemical_name_systematic        
6-bromo-3-(5-(5-(6-bromo-1-hexyl-2-oxo-1,2-dihydro-3H-indol-3-ylidene)-1,1-dioxidothiophen-2(5H)-ylidene)-1,1-dioxidothiophen-2(5H)-ylidene)-1-hexyl-1,3-dihydro-2H-indol-2-one
_symmetry_cell_setting           triclinic
_symmetry_space_group_name_H-M   'P -1'
_symmetry_Int_Tables_number      2
_space_group_name_Hall           '-P 1'
loop_
_symmetry_equiv_pos_site_id
_symmetry_equiv_pos_as_xyz
1 x,y,z
2 -x,-y,-z
_cell_length_a                   5.3863(3)
_cell_length_b                   10.3444(6)
_cell_length_c                   15.2716(9)
_cell_angle_alpha                80.215(2)
_cell_angle_beta                 89.564(2)
_cell_angle_gamma                79.811(2)
_cell_volume                     825.08
_exptl_crystal_colour            red
_exptl_crystal_description       rod
_cell_formula_units_Z            1
_exptl_crystal_recrystallization_method Toluene
loop_
_atom_site_label
_atom_site_type_symbol
_atom_site_fract_x
_atom_site_fract_y
_atom_site_fract_z
Br1 Br 1.27098(4) 0.45423(2) 0.92172(2)
S1 S 0.25714(8) 0.87175(4) 0.60454(3)
O1 O 0.1349(3) 0.89264(14) 0.68633(9)
O2 O 0.4914(3) 0.91782(14) 0.58705(10)
O3 O 0.3071(3) 0.41395(15) 0.57594(11)
N1 N 0.6244(3) 0.37685(16) 0.68192(11)
C1 C 0.2781(4) 0.70183(18) 0.59008(12)
C2 C 0.0868(4) 0.7001(2) 0.52542(13)
H1 H 0.0508 0.6193 0.5113
C3 C -0.0401(4) 0.82171(19) 0.48554(13)
H2 H -0.1700 0.8313 0.4419
C4 C 0.0365(3) 0.93366(18) 0.51412(12)
C5 C 0.4450(4) 0.59819(18) 0.63522(12)
C6 C 0.4420(4) 0.45528(19) 0.62415(13)
C7 C 0.7380(3) 0.45466(18) 0.73048(12)
C8 C 0.9207(4) 0.41080(19) 0.79725(13)
H3 H 0.9802 0.3186 0.8178
C9 C 1.0128(4) 0.5087(2) 0.83272(12)
C10 C 0.9280(4) 0.6436(2) 0.80457(14)
H4 H 0.9981 0.7074 0.8297
C11 C 0.7391(4) 0.68503(19) 0.73913(13)
H5 H 0.6778 0.7774 0.7200
C12 C 0.6403(3) 0.59097(18) 0.70183(12)
C13 C 0.6621(4) 0.23129(18) 0.69940(13)
H6 H 0.8407 0.1947 0.7168
H7 H 0.6237 0.1986 0.6446
C14 C 0.4924(4) 0.1833(2) 0.77327(14)
H8 H 0.5133 0.2283 0.8243
H9 H 0.3148 0.2110 0.7519
C15 C 0.5412(4) 0.03364(19) 0.80584(13)
H10 H 0.7141 0.0052 0.8318
H11 H 0.5286 -0.0132 0.7551
C16 C 0.3503(4) -0.0041(2) 0.87567(15)
H12 H 0.3605 0.0463 0.9247
H13 H 0.1788 0.0244 0.8485
C17 C 0.3848(4) -0.1516(2) 0.91469(15)
H14 H 0.5560 -0.1813 0.9419
H15 H 0.3707 -0.2029 0.8664
C18 C 0.1900(4) -0.1812(2) 0.98457(15)
H16 H 0.2188 -0.2770 1.0080
H17 H 0.2056 -0.1320 1.0331
H18 H 0.0203 -0.1536 0.9576
Br1A Br -1.27098(4) 1.54577(2) 0.07828(2)
S1A S -0.25714(8) 1.12825(4) 0.39546(3)
O1A O -0.1349(3) 1.10736(14) 0.31367(9)
O2A O -0.4914(3) 1.08218(14) 0.41295(10)
O3A O -0.3071(3) 1.58605(15) 0.42406(11)
N1A N -0.6244(3) 1.62315(16) 0.31808(11)
C1A C -0.2781(4) 1.29817(18) 0.40992(12)
C2A C -0.0868(4) 1.2999(2) 0.47458(13)
H1A H -0.0508 1.3807 0.4887
C3A C 0.0401(4) 1.17829(19) 0.51446(13)
H2A H 0.1700 1.1687 0.5581
C4A C -0.0365(3) 1.06634(18) 0.48588(12)
C5A C -0.4450(4) 1.40181(18) 0.36478(12)
C6A C -0.4420(4) 1.54472(19) 0.37585(13)
C7A C -0.7380(3) 1.54534(18) 0.26952(12)
C8A C -0.9207(4) 1.58920(19) 0.20275(13)
H3A H -0.9802 1.6814 0.1822
C9A C -1.0128(4) 1.4913(2) 0.16728(12)
C10A C -0.9280(4) 1.3564(2) 0.19543(14)
H4A H -0.9981 1.2926 0.1703
C11A C -0.7391(4) 1.31497(19) 0.26087(13)
H5A H -0.6778 1.2226 0.2800
C12A C -0.6403(3) 1.40903(18) 0.29817(12)
C13A C -0.6621(4) 1.76871(18) 0.30060(13)
H6A H -0.8407 1.8053 0.2832
H7A H -0.6237 1.8014 0.3554
C14A C -0.4924(4) 1.8167(2) 0.22673(14)
H8A H -0.5133 1.7717 0.1757
H9A H -0.3148 1.7890 0.2481
C15A C -0.5412(4) 1.96636(19) 0.19416(13)
H10A H -0.7141 1.9948 0.1682
H11A H -0.5286 2.0132 0.2449
C16A C -0.3503(4) 2.0041(2) 0.12433(15)
H12A H -0.3605 1.9537 0.0753
H13A H -0.1788 1.9756 0.1515
C17A C -0.3848(4) 2.1516(2) 0.08531(15)
H14A H -0.5560 2.1813 0.0581
H15A H -0.3707 2.2029 0.1336
C18A C -0.1900(4) 2.1812(2) 0.01543(15)
H16A H -0.2188 2.2770 -0.0080
H17A H -0.2056 2.1320 -0.0331
H18A H -0.0203 2.1536 0.0424
loop_
_geom_bond_atom_site_label_1
_geom_bond_atom_site_label_2
_geom_bond_site_symmetry_1
_geom_bond_site_symmetry_2
Br1 C9 1_555 1_555
S1 O1 1_555 1_555
O2 S1 1_555 1_555
O3 C6 1_555 1_555
N1 C6 1_555 1_555
C1 S1 1_555 1_555
C2 C1 1_555 1_555
H1 C2 1_555 1_555
C3 C2 1_555 1_555
H2 C3 1_555 1_555
C4 S1 1_555 1_555
C5 C1 1_555 1_555
C6 C5 1_555 1_555
C7 N1 1_555 1_555
C8 C7 1_555 1_555
H3 C8 1_555 1_555
C9 C8 1_555 1_555
C10 C9 1_555 1_555
H4 C10 1_555 1_555
C11 C10 1_555 1_555
H5 C11 1_555 1_555
C12 C5 1_555 1_555
C13 N1 1_555 1_555
H6 C13 1_555 1_555
H7 C13 1_555 1_555
C14 C13 1_555 1_555
H8 C14 1_555 1_555
H9 C14 1_555 1_555
C15 C14 1_555 1_555
H10 C15 1_555 1_555
H11 C15 1_555 1_555
C16 C15 1_555 1_555
H12 C16 1_555 1_555
H13 C16 1_555 1_555
C17 C16 1_555 1_555
H14 C17 1_555 1_555
H15 C17 1_555 1_555
C18 C17 1_555 1_555
H16 C18 1_555 1_555
H17 C18 1_555 1_555
H18 C18 1_555 1_555
Br1A C9A 1_555 1_555
S1A O1A 1_555 1_555
O2A S1A 1_555 1_555
O3A C6A 1_555 1_555
N1A C6A 1_555 1_555
C1A S1A 1_555 1_555
C2A C1A 1_555 1_555
H1A C2A 1_555 1_555
C3A C2A 1_555 1_555
H2A C3A 1_555 1_555
C4A C4 1_555 1_555
C5A C1A 1_555 1_555
C6A C5A 1_555 1_555
C7A N1A 1_555 1_555
C8A C7A 1_555 1_555
H3A C8A 1_555 1_555
C9A C8A 1_555 1_555
C10A C9A 1_555 1_555
H4A C10A 1_555 1_555
C11A C10A 1_555 1_555
H5A C11A 1_555 1_555
C12A C5A 1_555 1_555
C13A N1A 1_555 1_555
H6A C13A 1_555 1_555
H7A C13A 1_555 1_555
C14A C13A 1_555 1_555
H8A C14A 1_555 1_555
H9A C14A 1_555 1_555
C15A C14A 1_555 1_555
H10A C15A 1_555 1_555
H11A C15A 1_555 1_555
C16A C15A 1_555 1_555
H12A C16A 1_555 1_555
H13A C16A 1_555 1_555
C17A C16A 1_555 1_555
H14A C17A 1_555 1_555
H15A C17A 1_555 1_555
C18A C17A 1_555 1_555
H16A C18A 1_555 1_555
H17A C18A 1_555 1_555
H18A C18A 1_555 1_555
C3 C4 1_555 1_555
C7 C12 1_555 1_555
C11 C12 1_555 1_555
S1A C4A 1_555 1_555
C3A C4A 1_555 1_555
C7A C12A 1_555 1_555
C11A C12A 1_555 1_555

#END
