
#######################################################################
#
#                 Cambridge Crystallographic Data Centre
#                                CCDC 
#
#######################################################################
#
# If this CIF has been generated from an entry in the Cambridge 
# Structural Database, then it will include bibliographic, chemical, 
# crystal, experimental, refinement or atomic coordinate data resulting 
# from the CCDC's data processing and validation procedures.
#
#######################################################################

data_IJEJAK
_chemical_formula_moiety         'C33 H24 N2'
_chemical_name_systematic        
9-(4-Methylphenyl)-14-phenyl-9,14-dihydrodibenzo[a,c]phenazine
_symmetry_cell_setting           monoclinic
_symmetry_space_group_name_H-M   'P 21/n'
_symmetry_Int_Tables_number      14
_space_group_name_Hall           '-P 2yn'
loop_
_symmetry_equiv_pos_site_id
_symmetry_equiv_pos_as_xyz
1 x,y,z
2 1/2-x,1/2+y,1/2-z
3 -x,-y,-z
4 1/2+x,1/2-y,1/2+z
_cell_length_a                   13.670(2)
_cell_length_b                   10.7087(18)
_cell_length_c                   16.477(3)
_cell_angle_alpha                90
_cell_angle_beta                 98.766(4)
_cell_angle_gamma                90
_cell_volume                     2383.86
_exptl_crystal_colour            colorless
_exptl_crystal_description       prismatic
_cell_formula_units_Z            4
loop_
_atom_site_label
_atom_site_type_symbol
_atom_site_fract_x
_atom_site_fract_y
_atom_site_fract_z
N1 N 1.04754(14) 0.13179(18) 0.22783(12)
N2 N 1.03107(14) -0.10046(18) 0.29292(11)
C1 C 0.93818(17) 0.0733(2) 0.09943(14)
C2 C 0.94623(19) 0.1930(3) 0.06707(16)
H1 H 0.9821 0.2540 0.0990
C3 C 0.9026(2) 0.2214(3) -0.01022(17)
H2 H 0.9085 0.3014 -0.0309
C4 C 0.8493(2) 0.1313(3) -0.05824(17)
H3 H 0.8193 0.1512 -0.1112
C5 C 0.8403(2) 0.0132(3) -0.02856(16)
H4 H 0.8045 -0.0462 -0.0618
C6 C 0.88437(17) -0.0200(3) 0.05152(14)
C7 C 0.87851(17) -0.1452(3) 0.08410(14)
C8 C 0.8279(2) -0.2430(3) 0.03980(17)
H5 H 0.7945 -0.2271 -0.0127
C9 C 0.8259(2) -0.3602(3) 0.07053(19)
H6 H 0.7907 -0.4225 0.0394
C10 C 0.8762(2) -0.3880(3) 0.14832(18)
H7 H 0.8760 -0.4689 0.1687
C11 C 0.92559(18) -0.2954(2) 0.19445(16)
H8 H 0.9586 -0.3138 0.2467
C12 C 0.92746(16) -0.1733(2) 0.16462(14)
C13 C 0.97787(16) -0.0739(2) 0.21268(13)
C14 C 0.98502(16) 0.0417(2) 0.18127(13)
C15 C 1.00222(17) 0.2309(2) 0.26750(13)
C16 C 0.90217(18) 0.2299(2) 0.27147(15)
H9 H 0.8631 0.1648 0.2472
C17 C 0.8596(2) 0.3241(3) 0.31094(17)
H10 H 0.7920 0.3211 0.3131
C18 C 0.9144(2) 0.4228(3) 0.34731(17)
C19 C 1.0138(2) 0.4229(3) 0.34253(17)
H11 H 1.0528 0.4881 0.3666
C20 C 1.05746(19) 0.3297(2) 0.30337(16)
H12 H 1.1249 0.3332 0.3010
C21 C 0.8688(3) 0.5253(3) 0.3921(2)
H13 H 0.8588 0.4957 0.4453
H14 H 0.8063 0.5491 0.3612
H15 H 0.9122 0.5962 0.3985
C22 C 1.13545(17) 0.0740(2) 0.27082(14)
C23 C 1.22796(18) 0.1291(3) 0.27481(16)
H16 H 1.2343 0.2063 0.2504
C24 C 1.31061(19) 0.0686(3) 0.31529(17)
H17 H 1.3725 0.1060 0.3189
C25 C 1.3017(2) -0.0466(3) 0.35014(17)
H18 H 1.3574 -0.0862 0.3781
C26 C 1.21044(19) -0.1038(3) 0.34388(15)
H19 H 1.2051 -0.1832 0.3656
C27 C 1.12665(17) -0.0429(2) 0.30519(13)
C28 C 0.97741(18) -0.1207(2) 0.35929(14)
C29 C 1.0253(2) -0.1447(3) 0.43814(15)
H20 H 1.0941 -0.1457 0.4486
C30 C 0.9718(2) -0.1672(3) 0.50101(17)
H21 H 1.0051 -0.1818 0.5537
C31 C 0.8702(2) -0.1684(3) 0.48716(18)
H22 H 0.8345 -0.1857 0.5296
C32 C 0.8225(2) -0.1436(3) 0.40971(17)
H23 H 0.7537 -0.1438 0.3996
C33 C 0.87487(19) -0.1184(2) 0.34648(16)
H24 H 0.8410 -0.0995 0.2946
loop_
_geom_bond_atom_site_label_1
_geom_bond_atom_site_label_2
_geom_bond_site_symmetry_1
_geom_bond_site_symmetry_2
N1 C14 1_555 1_555
N2 C13 1_555 1_555
C1 C2 1_555 1_555
C2 H1 1_555 1_555
C3 C2 1_555 1_555
H2 C3 1_555 1_555
C4 C3 1_555 1_555
H3 C4 1_555 1_555
C5 C4 1_555 1_555
H4 C5 1_555 1_555
C6 C1 1_555 1_555
C7 C6 1_555 1_555
C8 C7 1_555 1_555
H5 C8 1_555 1_555
C9 C8 1_555 1_555
H6 C9 1_555 1_555
C10 C9 1_555 1_555
H7 C10 1_555 1_555
C11 C10 1_555 1_555
H8 C11 1_555 1_555
C12 C7 1_555 1_555
C13 C12 1_555 1_555
C14 C1 1_555 1_555
C15 N1 1_555 1_555
C16 C15 1_555 1_555
H9 C16 1_555 1_555
C17 C16 1_555 1_555
H10 C17 1_555 1_555
C18 C17 1_555 1_555
C19 C18 1_555 1_555
H11 C19 1_555 1_555
C20 C15 1_555 1_555
H12 C20 1_555 1_555
C21 C18 1_555 1_555
H13 C21 1_555 1_555
H14 C21 1_555 1_555
H15 C21 1_555 1_555
C22 N1 1_555 1_555
C23 C22 1_555 1_555
H16 C23 1_555 1_555
C24 C23 1_555 1_555
H17 C24 1_555 1_555
C25 C24 1_555 1_555
H18 C25 1_555 1_555
C26 C25 1_555 1_555
H19 C26 1_555 1_555
C27 N2 1_555 1_555
C28 N2 1_555 1_555
C29 C28 1_555 1_555
H20 C29 1_555 1_555
C30 C29 1_555 1_555
H21 C30 1_555 1_555
C31 C30 1_555 1_555
H22 C31 1_555 1_555
C32 C31 1_555 1_555
H23 C32 1_555 1_555
C33 C28 1_555 1_555
H24 C33 1_555 1_555
C5 C6 1_555 1_555
C11 C12 1_555 1_555
C13 C14 1_555 1_555
C19 C20 1_555 1_555
C22 C27 1_555 1_555
C26 C27 1_555 1_555
C32 C33 1_555 1_555

#END
