
#######################################################################
#
#                 Cambridge Crystallographic Data Centre
#                                CCDC 
#
#######################################################################
#
# If this CIF has been generated from an entry in the Cambridge 
# Structural Database, then it will include bibliographic, chemical, 
# crystal, experimental, refinement or atomic coordinate data resulting 
# from the CCDC's data processing and validation procedures.
#
#######################################################################

data_IJEMAL
_chemical_formula_moiety         'C17 H14 O3 S1'
_chemical_name_systematic        '2-Naphthyl 4-toluenesulfonate'
_symmetry_cell_setting           monoclinic
_symmetry_space_group_name_H-M   'P c'
_symmetry_Int_Tables_number      7
_space_group_name_Hall           'P -2yc'
loop_
_symmetry_equiv_pos_site_id
_symmetry_equiv_pos_as_xyz
1 x,y,z
2 x,-y,1/2+z
_cell_length_a                   7.9315(6)
_cell_length_b                   29.130(2)
_cell_length_c                   6.1111(5)
_cell_angle_alpha                90
_cell_angle_beta                 92.383(3)
_cell_angle_gamma                90
_cell_volume                     1410.72
_exptl_crystal_colour            colorless
_exptl_crystal_description       block
_chemical_melting_point          393-394K
_cell_formula_units_Z            4
_exptl_crystal_recrystallization_method 'ethyl acetate'
loop_
_atom_site_label
_atom_site_type_symbol
_atom_site_fract_x
_atom_site_fract_y
_atom_site_fract_z
S1 S 0.33101(9) 0.91865(2) 0.62202(12)
O1 O 0.2236(3) 0.95769(8) 0.6089(5)
O2 O 0.3813(3) 0.89919(8) 0.8286(4)
O3 O 0.2264(2) 0.88092(6) 0.4804(3)
C1 C 0.9502(4) 0.95299(11) 0.1037(5)
H1 H 1.0503 0.9427 0.1893
H2 H 0.9608 0.9858 0.0712
H3 H 0.9403 0.9357 -0.0337
C2 C 0.7955(3) 0.94512(9) 0.2330(5)
C3 C 0.8098(3) 0.92597(10) 0.4410(5)
H4 H 0.9185 0.9188 0.5026
C4 C 0.6674(3) 0.91706(9) 0.5620(5)
H5 H 0.6780 0.9035 0.7032
C5 C 0.5103(3) 0.92863(9) 0.4700(5)
C6 C 0.4923(3) 0.94926(9) 0.2658(5)
H6 H 0.3840 0.9579 0.2075
C7 C 0.6353(4) 0.95703(9) 0.1487(5)
H7 H 0.6240 0.9708 0.0079
C8 C 0.2725(3) 0.83400(9) 0.5049(5)
C9 C 0.3566(3) 0.81356(10) 0.3416(5)
H8 H 0.3932 0.8310 0.2209
C10 C 0.4719(4) 0.74204(10) 0.1904(5)
H9 H 0.5111 0.7585 0.0684
C11 C 0.4966(4) 0.69572(11) 0.2046(6)
H10 H 0.5515 0.6802 0.0909
C12 C 0.4414(4) 0.67065(10) 0.3860(6)
H11 H 0.4598 0.6385 0.3939
C13 C 0.3616(4) 0.69257(11) 0.5505(5)
H12 H 0.3254 0.6756 0.6726
C14 C 0.2474(4) 0.76440(11) 0.7044(5)
H13 H 0.2116 0.7479 0.8282
C15 C 0.2160(4) 0.81022(10) 0.6890(5)
H14 H 0.1575 0.8258 0.7994
C16 C 0.3889(3) 0.76536(10) 0.3555(5)
C17 C 0.3324(3) 0.74101(11) 0.5395(5)
S2 S 0.96993(8) 0.58200(2) 1.05639(10)
O4 O 1.0857(3) 0.54516(7) 1.0349(4)
O5 O 0.9319(3) 0.59901(7) 1.2672(3)
O6 O 1.0545(2) 0.62248(6) 0.9197(3)
C18 C 0.3206(4) 0.54824(11) 0.5314(6)
H15 H 0.3437 0.5479 0.3751
H16 H 0.2410 0.5730 0.5608
H17 H 0.2717 0.5187 0.5725
C19 C 0.4829(3) 0.55605(9) 0.6635(5)
C20 C 0.6370(4) 0.54245(10) 0.5829(5)
H18 H 0.6394 0.5279 0.4439
C21 C 0.7874(3) 0.54989(9) 0.7032(4)
H19 H 0.8921 0.5408 0.6468
C22 C 0.7821(3) 0.57082(9) 0.9063(4)
C23 C 0.6300(3) 0.58404(9) 0.9924(5)
H20 H 0.6280 0.5980 1.1329
C24 C 0.4813(3) 0.57660(9) 0.8703(5)
H21 H 0.3768 0.5856 0.9279
C25 C 0.9723(3) 0.66556(9) 0.9072(5)
C26 C 0.9920(3) 0.69604(9) 1.0728(5)
H22 H 1.0553 0.6880 1.2026
C27 C 0.9356(4) 0.77356(10) 1.2172(5)
H23 H 0.9988 0.7666 1.3483
C28 C 0.8630(4) 0.81556(11) 1.1897(6)
H24 H 0.8764 0.8379 1.3025
C29 C 0.7676(4) 0.82664(10) 0.9956(5)
H25 H 0.7162 0.8560 0.9810
C30 C 0.7493(4) 0.79588(11) 0.8314(5)
H26 H 0.6866 0.8039 0.7010
C31 C 0.8066(4) 0.71786(10) 0.6864(5)
H27 H 0.7431 0.7249 0.5555
C32 C 0.8800(3) 0.67557(10) 0.7110(5)
H28 H 0.8688 0.6533 0.5977
C33 C 0.9165(3) 0.74073(10) 1.0508(5)
C34 C 0.8242(3) 0.75096(10) 0.8527(4)
loop_
_geom_bond_atom_site_label_1
_geom_bond_atom_site_label_2
_geom_bond_site_symmetry_1
_geom_bond_site_symmetry_2
S1 O1 1_555 1_555
O2 S1 1_555 1_555
O3 S1 1_555 1_555
C1 H1 1_555 1_555
H2 C1 1_555 1_555
H3 C1 1_555 1_555
C2 C1 1_555 1_555
C3 C2 1_555 1_555
H4 C3 1_555 1_555
C4 C3 1_555 1_555
H5 C4 1_555 1_555
C5 S1 1_555 1_555
C6 C5 1_555 1_555
H6 C6 1_555 1_555
C7 C2 1_555 1_555
H7 C7 1_555 1_555
C8 O3 1_555 1_555
C9 C8 1_555 1_555
H8 C9 1_555 1_555
C10 H9 1_555 1_555
C11 C10 1_555 1_555
H10 C11 1_555 1_555
C12 C11 1_555 1_555
H11 C12 1_555 1_555
C13 C12 1_555 1_555
H12 C13 1_555 1_555
C14 H13 1_555 1_555
C15 C8 1_555 1_555
H14 C15 1_555 1_555
C16 C9 1_555 1_555
C17 C13 1_555 1_555
S2 O4 1_555 1_555
O5 S2 1_555 1_555
O6 S2 1_555 1_555
C18 H15 1_555 1_555
H16 C18 1_555 1_555
H17 C18 1_555 1_555
C19 C18 1_555 1_555
C20 C19 1_555 1_555
H18 C20 1_555 1_555
C21 C20 1_555 1_555
H19 C21 1_555 1_555
C22 S2 1_555 1_555
C23 C22 1_555 1_555
H20 C23 1_555 1_555
C24 C19 1_555 1_555
H21 C24 1_555 1_555
C25 O6 1_555 1_555
C26 C25 1_555 1_555
H22 C26 1_555 1_555
C27 H23 1_555 1_555
C28 C27 1_555 1_555
H24 C28 1_555 1_555
C29 C28 1_555 1_555
H25 C29 1_555 1_555
C30 C29 1_555 1_555
H26 C30 1_555 1_555
C31 H27 1_555 1_555
C32 C25 1_555 1_555
H28 C32 1_555 1_555
C33 C26 1_555 1_555
C34 C30 1_555 1_555
C4 C5 1_555 1_555
C6 C7 1_555 1_555
C10 C16 1_555 1_555
C14 C17 1_555 1_555
C14 C15 1_555 1_555
C16 C17 1_555 1_555
C21 C22 1_555 1_555
C23 C24 1_555 1_555
C27 C33 1_555 1_555
C31 C34 1_555 1_555
C31 C32 1_555 1_555
C33 C34 1_555 1_555

#END
