
#######################################################################
#
#                 Cambridge Crystallographic Data Centre
#                                CCDC 
#
#######################################################################
#
# If this CIF has been generated from an entry in the Cambridge 
# Structural Database, then it will include bibliographic, chemical, 
# crystal, experimental, refinement or atomic coordinate data resulting 
# from the CCDC's data processing and validation procedures.
#
#######################################################################

data_IJEPOE
_chemical_formula_moiety         'C16 H22 N2 O3'
_chemical_name_systematic        
N-hydroxy-N'-(pentacyclo[4.2.0.0^2,5^.0^3,8^.0^4,7^]oct-1-yl)octanediamide
_symmetry_cell_setting           triclinic
_symmetry_space_group_name_H-M   'P -1'
_symmetry_Int_Tables_number      2
_space_group_name_Hall           '-P 1'
loop_
_symmetry_equiv_pos_site_id
_symmetry_equiv_pos_as_xyz
1 x,y,z
2 -x,-y,-z
_cell_length_a                   5.2841(17)
_cell_length_b                   7.616(3)
_cell_length_c                   17.736(7)
_cell_angle_alpha                99.06(4)
_cell_angle_beta                 97.15(3)
_cell_angle_gamma                90.22(3)
_cell_volume                     699.176
_exptl_crystal_colour            colorless
_exptl_crystal_description       prism
_cell_formula_units_Z            2
loop_
_atom_site_label
_atom_site_type_symbol
_atom_site_fract_x
_atom_site_fract_y
_atom_site_fract_z
C1 C -0.5697(9) 1.1822(7) 0.3381(3)
C2 C -0.5753(9) 1.3659(7) 0.3871(3)
H1 H -0.5156 1.4773 0.3734
C3 C -0.8507(10) 1.3261(9) 0.4021(3)
H2 H -0.993 1.408 0.3992
C4 C -0.8424(9) 1.1400(8) 0.3522(3)
H3 H -0.9786 1.0865 0.3125
C5 C -0.7449(10) 1.2471(8) 0.4735(3)
H4 H -0.8092 1.2709 0.5235
C6 C -0.7413(10) 1.0620(8) 0.4232(3)
H5 H -0.8036 0.951 0.4366
C7 C -0.4655(10) 1.0988(7) 0.4095(3)
H6 H -0.3249 1.0156 0.4123
C8 C -0.4710(11) 1.2879(8) 0.4592(3)
H7 H -0.3342 1.3416 0.4986
C9 C -0.4545(9) 0.9911(8) 0.2255(3)
C10 C -0.3141(10) 0.9827(8) 0.1571(3)
H8 H -0.1328 0.979 0.1741
H9 H -0.3442 1.091 0.1353
C11 C -0.3862(9) 0.8274(7) 0.0953(3)
H10 H -0.5655 0.8333 0.0761
H11 H -0.362 0.7185 0.1169
C12 C -0.2302(10) 0.8228(7) 0.0295(3)
H12 H -0.2579 0.9317 0.008
H13 H -0.0512 0.8218 0.0499
C13 C -0.2847(10) 0.6688(7) -0.0343(3)
H14 H -0.2656 0.5594 -0.0128
H15 H -0.4608 0.6733 -0.0571
C14 C -0.1172(9) 0.6638(7) -0.0961(3)
H16 H 0.0593 0.6677 -0.0728
H17 H -0.145 0.7695 -0.1199
C15 C -0.1588(10) 0.5043(7) -0.1571(3)
H18 H -0.1549 0.399 -0.1326
H19 H -0.3279 0.5094 -0.185
C16 C 0.0279(10) 0.4845(8) -0.2130(3)
N1 N -0.4760(7) 1.1522(6) 0.2658(2)
H20 H -0.4304 1.243 0.2469
N2 N -0.0105(8) 0.3433(7) -0.2670(3)
H21 H -0.136 0.2713 -0.2666
O1 O -0.5400(6) 0.8605(5) 0.2473(2)
O2 O 0.1441(7) 0.3089(5) -0.3235(2)
H22 H 0.2906 0.2962 -0.304
O3 O 0.2121(7) 0.5846(5) -0.2083(2)
loop_
_geom_bond_atom_site_label_1
_geom_bond_atom_site_label_2
_geom_bond_site_symmetry_1
_geom_bond_site_symmetry_2
C1 C2 1_555 1_555
C2 H1 1_555 1_555
C3 C2 1_555 1_555
H2 C3 1_555 1_555
C4 C1 1_555 1_555
H3 C4 1_555 1_555
C5 C3 1_555 1_555
H4 C5 1_555 1_555
C6 C4 1_555 1_555
H5 C6 1_555 1_555
C7 C1 1_555 1_555
H6 C7 1_555 1_555
C8 C2 1_555 1_555
H7 C8 1_555 1_555
C9 C10 1_555 1_555
C10 H8 1_555 1_555
H9 C10 1_555 1_555
C11 C10 1_555 1_555
H10 C11 1_555 1_555
H11 C11 1_555 1_555
C12 C11 1_555 1_555
H12 C12 1_555 1_555
H13 C12 1_555 1_555
C13 C12 1_555 1_555
H14 C13 1_555 1_555
H15 C13 1_555 1_555
C14 C13 1_555 1_555
H16 C14 1_555 1_555
H17 C14 1_555 1_555
C15 C14 1_555 1_555
H18 C15 1_555 1_555
H19 C15 1_555 1_555
C16 C15 1_555 1_555
N1 C1 1_555 1_555
H20 N1 1_555 1_555
N2 C16 1_555 1_555
H21 N2 1_555 1_555
O1 C9 1_555 1_555
O2 N2 1_555 1_555
H22 O2 1_555 1_555
O3 C16 1_555 1_555
C3 C4 1_555 1_555
C5 C6 1_555 1_555
C5 C8 1_555 1_555
C6 C7 1_555 1_555
C7 C8 1_555 1_555
C9 N1 1_555 1_555

#END
