
#######################################################################
#
#                 Cambridge Crystallographic Data Centre
#                                CCDC 
#
#######################################################################
#
# If this CIF has been generated from an entry in the Cambridge 
# Structural Database, then it will include bibliographic, chemical, 
# crystal, experimental, refinement or atomic coordinate data resulting 
# from the CCDC's data processing and validation procedures.
#
#######################################################################

data_IJESOH
_chemical_formula_moiety         'C15 H12 O5'
_chemical_name_systematic        
8-methoxy-3,4-dimethyl-2H,5H-pyrano[3,2-c]chromene-2,5-dione
_chemical_properties_biological  'Antifungal activity'
_symmetry_cell_setting           triclinic
_symmetry_space_group_name_H-M   'P -1'
_symmetry_Int_Tables_number      2
_space_group_name_Hall           '-P 1'
loop_
_symmetry_equiv_pos_site_id
_symmetry_equiv_pos_as_xyz
1 x,y,z
2 -x,-y,-z
_cell_length_a                   6.2072(12)
_cell_length_b                   8.0325(17)
_cell_length_c                   12.522(3)
_cell_angle_alpha                90.118(7)
_cell_angle_beta                 91.892(7)
_cell_angle_gamma                92.492(7)
_cell_volume                     623.404
_exptl_crystal_colour            colorless
_exptl_crystal_description       plate
_chemical_melting_point          '515.0-515.1 K'
_cell_formula_units_Z            2
loop_
_atom_site_label
_atom_site_type_symbol
_atom_site_fract_x
_atom_site_fract_y
_atom_site_fract_z
C1 C 0.4182(2) 0.79032(18) 0.39825(13)
C2 C 0.5449(2) 0.73344(19) 0.31940(13)
C3 C 0.4817(3) 0.7618(2) 0.20881(13)
C4 C 0.3012(3) 0.8461(2) 0.18642(14)
C5 C 0.1694(3) 0.9046(2) 0.27093(14)
C6 C 0.7391(3) 0.6489(2) 0.35130(13)
C7 C 0.6154(3) 0.6975(3) 0.12042(14)
H1 H 0.5477 0.7216 0.0525
H2 H 0.6267 0.5792 0.1276
H3 H 0.7569 0.7507 0.1249
C8 C 0.2205(3) 0.8877(3) 0.07596(16)
H4 H 0.3297 0.9526 0.0402
H5 H 0.0929 0.9505 0.0803
H6 H 0.1871 0.7866 0.0366
C9 C 0.4671(2) 0.76921(18) 0.50939(13)
C10 C 0.3407(3) 0.8235(2) 0.59299(13)
H7 H 0.2132 0.8766 0.5775
C11 C 0.4055(3) 0.7983(2) 0.69692(14)
H8 H 0.3224 0.8352 0.7519
C12 C 0.5952(3) 0.7176(2) 0.72087(13)
C13 C 0.7229(3) 0.6616(2) 0.64093(13)
H9 H 0.8496 0.6076 0.6568
C14 C 0.6543(3) 0.68931(18) 0.53625(12)
C15 C 0.8443(3) 0.6295(3) 0.85585(14)
H10 H 0.8452 0.5180 0.8282
H11 H 0.8622 0.6273 0.9323
H12 H 0.9603 0.6955 0.8263
O1 O 0.78590(17) 0.63296(14) 0.45890(8)
O2 O 0.8674(2) 0.59020(16) 0.29338(9)
O3 O 0.23719(17) 0.87137(14) 0.37563(9)
O4 O 0.0065(2) 0.97955(16) 0.26135(10)
O5 O 0.64446(19) 0.70025(15) 0.82728(9)
loop_
_geom_bond_atom_site_label_1
_geom_bond_atom_site_label_2
_geom_bond_site_symmetry_1
_geom_bond_site_symmetry_2
C1 C2 1_555 1_555
C2 C3 1_555 1_555
C3 C4 1_555 1_555
C4 C5 1_555 1_555
C5 O3 1_555 1_555
C6 C2 1_555 1_555
C7 C3 1_555 1_555
H1 C7 1_555 1_555
H2 C7 1_555 1_555
H3 C7 1_555 1_555
C8 C4 1_555 1_555
H4 C8 1_555 1_555
H5 C8 1_555 1_555
H6 C8 1_555 1_555
C9 C1 1_555 1_555
C10 C9 1_555 1_555
H7 C10 1_555 1_555
C11 C10 1_555 1_555
H8 C11 1_555 1_555
C12 C11 1_555 1_555
C13 C12 1_555 1_555
H9 C13 1_555 1_555
C14 C9 1_555 1_555
C15 H10 1_555 1_555
H11 C15 1_555 1_555
H12 C15 1_555 1_555
O1 C6 1_555 1_555
O2 C6 1_555 1_555
O3 C1 1_555 1_555
O4 C5 1_555 1_555
O5 C12 1_555 1_555
C13 C14 1_555 1_555
C14 O1 1_555 1_555
C15 O5 1_555 1_555

#END
