
#######################################################################
#
#                 Cambridge Crystallographic Data Centre
#                                CCDC 
#
#######################################################################
#
# If this CIF has been generated from an entry in the Cambridge 
# Structural Database, then it will include bibliographic, chemical, 
# crystal, experimental, refinement or atomic coordinate data resulting 
# from the CCDC's data processing and validation procedures.
#
#######################################################################

data_IJESEW
_chemical_formula_moiety         'C28 H40 Br1 Mg1 N1 O2'
_chemical_name_systematic        
Bromo-(2,6-di-isopropyl-N-(1-phenylvinyl)anilinato)-bis(tetrahydrofuran)-magnesium
_symmetry_cell_setting           monoclinic
_symmetry_space_group_name_H-M   'P 21'
_symmetry_Int_Tables_number      4
_space_group_name_Hall           'P 2yb'
loop_
_symmetry_equiv_pos_site_id
_symmetry_equiv_pos_as_xyz
1 x,y,z
2 -x,1/2+y,-z
_cell_length_a                   8.413(4)
_cell_length_b                   17.455(9)
_cell_length_c                   9.899(5)
_cell_angle_alpha                90
_cell_angle_beta                 108.337(6)
_cell_angle_gamma                90
_cell_volume                     1379.84
_exptl_crystal_colour            colorless
_exptl_crystal_description       block
_chemical_melting_point          182-183deg.C(dec)
_cell_formula_units_Z            2
loop_
_atom_site_label
_atom_site_type_symbol
_atom_site_fract_x
_atom_site_fract_y
_atom_site_fract_z
Mg1 Mg 0.5699(2) 0.09562(10) 0.21786(19)
Br1 Br 0.75933(9) 0.19618(3) 0.35088(7)
N1 N 0.5671(5) 0.0468(3) 0.0349(5)
O1 O 0.5516(5) 0.0174(2) 0.3622(4)
O2 O 0.3460(5) 0.1462(3) 0.1956(4)
C1 C 0.6558(7) -0.0159(3) 0.0151(6)
C2 C 0.7871(7) -0.0448(4) 0.1461(6)
C3 C 0.8076(8) -0.1229(4) 0.1749(7)
H1 H 0.7337 -0.1575 0.1133
C4 C 0.9299(8) -0.1511(4) 0.2884(7)
H2 H 0.9425 -0.2042 0.3034
C5 C 1.0347(8) -0.1011(5) 0.3807(8)
H3 H 1.1199 -0.1201 0.4599
C6 C 1.0169(8) -0.0236(4) 0.3589(7)
H4 H 1.0873 0.0107 0.4240
C7 C 0.8931(8) 0.0038(4) 0.2392(7)
H5 H 0.8827 0.0568 0.2224
C8 C 0.6359(9) -0.0541(4) -0.1096(7)
H6 H 0.5544 -0.0378 -0.1936
H7 H 0.7037 -0.0966 -0.1114
C9 C 0.4469(6) 0.0767(3) -0.0933(6)
C10 C 0.2893(7) 0.0420(4) -0.1525(6)
C11 C 0.1732(7) 0.0755(4) -0.2661(6)
H8 H 0.0666 0.0531 -0.3027
C12 C 0.2089(8) 0.1420(4) -0.3292(7)
H9 H 0.1275 0.1644 -0.4071
C13 C 0.3648(8) 0.1740(3) -0.2754(7)
H10 H 0.3905 0.2181 -0.3190
C14 C 0.4878(7) 0.1427(3) -0.1566(6)
C15 C 0.6599(7) 0.1803(3) -0.1036(6)
H11 H 0.7165 0.1594 -0.0074
C16 C 0.7628(11) 0.1564(7) -0.1964(12)
H12 H 0.7157 0.1788 -0.2903
H13 H 0.7620 0.1010 -0.2043
H14 H 0.8771 0.1741 -0.1545
C17 C 0.6550(11) 0.2639(5) -0.0890(13)
H15 H 0.7675 0.2830 -0.0435
H16 H 0.5845 0.2770 -0.0315
H17 H 0.6098 0.2870 -0.1824
C18 C 0.2423(7) -0.0325(4) -0.0903(7)
H18 H 0.3452 -0.0527 -0.0199
C19 C 0.1792(10) -0.0922(4) -0.2025(9)
H19 H 0.0738 -0.0755 -0.2696
H20 H 0.1622 -0.1399 -0.1586
H21 H 0.2605 -0.1001 -0.2523
C20 C 0.1147(9) -0.0161(5) -0.0116(9)
H22 H 0.0069 -0.0041 -0.0802
H23 H 0.1529 0.0270 0.0522
H24 H 0.1040 -0.0609 0.0429
C21 C 0.6553(12) 0.0148(5) 0.5062(8)
H25 H 0.5998 0.0395 0.5682
H26 H 0.7617 0.0410 0.5175
C22 C 0.6842(11) -0.0677(5) 0.5420(8)
H27 H 0.7743 -0.0885 0.5097
H28 H 0.7110 -0.0765 0.6446
C23 C 0.5210(13) -0.1011(6) 0.4624(11)
H29 H 0.4415 -0.0961 0.5160
H30 H 0.5327 -0.1554 0.4425
C24 C 0.4630(9) -0.0551(4) 0.3251(8)
H31 H 0.4933 -0.0810 0.2487
H32 H 0.3415 -0.0473 0.2947
C25 C 0.2978(11) 0.1614(5) 0.3215(9)
H33 H 0.3966 0.1649 0.4063
H34 H 0.2242 0.1209 0.3362
C26 C 0.2078(13) 0.2361(6) 0.2917(11)
H35 H 0.1208 0.2386 0.3382
H36 H 0.2858 0.2788 0.3257
C27 C 0.1329(10) 0.2388(5) 0.1357(9)
H37 H 0.1120 0.2916 0.1014
H38 H 0.0278 0.2098 0.1041
C28 C 0.2663(9) 0.2016(6) 0.0860(8)
H39 H 0.2166 0.1762 -0.0059
H40 H 0.3474 0.2397 0.0762
loop_
_geom_bond_atom_site_label_1
_geom_bond_atom_site_label_2
_geom_bond_site_symmetry_1
_geom_bond_site_symmetry_2
Mg1 Br1 1_555 1_555
N1 Mg1 1_555 1_555
O1 Mg1 1_555 1_555
O2 Mg1 1_555 1_555
C1 N1 1_555 1_555
C2 C1 1_555 1_555
C3 C2 1_555 1_555
H1 C3 1_555 1_555
C4 C3 1_555 1_555
H2 C4 1_555 1_555
C5 C4 1_555 1_555
H3 C5 1_555 1_555
C6 C5 1_555 1_555
H4 C6 1_555 1_555
C7 C2 1_555 1_555
H5 C7 1_555 1_555
C8 C1 1_555 1_555
H6 C8 1_555 1_555
H7 C8 1_555 1_555
C9 N1 1_555 1_555
C10 C9 1_555 1_555
C11 C10 1_555 1_555
H8 C11 1_555 1_555
C12 C11 1_555 1_555
H9 C12 1_555 1_555
C13 C12 1_555 1_555
H10 C13 1_555 1_555
C14 C9 1_555 1_555
C15 C14 1_555 1_555
H11 C15 1_555 1_555
C16 C15 1_555 1_555
H12 C16 1_555 1_555
H13 C16 1_555 1_555
H14 C16 1_555 1_555
C17 C15 1_555 1_555
H15 C17 1_555 1_555
H16 C17 1_555 1_555
H17 C17 1_555 1_555
C18 C10 1_555 1_555
H18 C18 1_555 1_555
C19 C18 1_555 1_555
H19 C19 1_555 1_555
H20 C19 1_555 1_555
H21 C19 1_555 1_555
C20 C18 1_555 1_555
H22 C20 1_555 1_555
H23 C20 1_555 1_555
H24 C20 1_555 1_555
C21 O1 1_555 1_555
H25 C21 1_555 1_555
H26 C21 1_555 1_555
C22 C21 1_555 1_555
H27 C22 1_555 1_555
H28 C22 1_555 1_555
C23 C22 1_555 1_555
H29 C23 1_555 1_555
H30 C23 1_555 1_555
C24 O1 1_555 1_555
H31 C24 1_555 1_555
H32 C24 1_555 1_555
C25 O2 1_555 1_555
H33 C25 1_555 1_555
H34 C25 1_555 1_555
C26 C25 1_555 1_555
H35 C26 1_555 1_555
H36 C26 1_555 1_555
C27 C26 1_555 1_555
H37 C27 1_555 1_555
H38 C27 1_555 1_555
C28 O2 1_555 1_555
H39 C28 1_555 1_555
H40 C28 1_555 1_555
C6 C7 1_555 1_555
C13 C14 1_555 1_555
C23 C24 1_555 1_555
C27 C28 1_555 1_555

#END
