
#######################################################################
#
#                 Cambridge Crystallographic Data Centre
#                                CCDC 
#
#######################################################################
#
# If this CIF has been generated from an entry in the Cambridge 
# Structural Database, then it will include bibliographic, chemical, 
# crystal, experimental, refinement or atomic coordinate data resulting 
# from the CCDC's data processing and validation procedures.
#
#######################################################################

data_IJIGOY01
_chemical_formula_moiety         'C10 H8 Cl1 N1 O1'
_chemical_name_systematic        (2-Chloroquinolin-3-yl)methanol
_symmetry_cell_setting           triclinic
_symmetry_space_group_name_H-M   'P -1'
_symmetry_Int_Tables_number      2
_space_group_name_Hall           '-P 1'
loop_
_symmetry_equiv_pos_site_id
_symmetry_equiv_pos_as_xyz
1 x,y,z
2 -x,-y,-z
_cell_length_a                   7.1181(5)
_cell_length_b                   7.3518(5)
_cell_length_c                   9.1811(6)
_cell_angle_alpha                92.803(4)
_cell_angle_beta                 106.624(3)
_cell_angle_gamma                109.900(4)
_cell_volume                     427.14
_exptl_crystal_colour            colorless
_exptl_crystal_description       block
_cell_formula_units_Z            2
loop_
_atom_site_label
_atom_site_type_symbol
_atom_site_fract_x
_atom_site_fract_y
_atom_site_fract_z
Cl1 Cl 0.50834(6) 0.83854(6) 0.64538(4)
O1 O -0.05662(16) 0.63315(17) 0.79627(14)
H1 H -0.0847 0.7226 0.8299
N1 N 0.70258(17) 0.81665(17) 0.92515(13)
C1 C 0.5171(2) 0.7933(2) 0.83220(15)
C2 C 0.3247(2) 0.73463(19) 0.86649(16)
C3 C 0.3395(2) 0.69781(19) 1.01260(16)
H2 H 0.2182 0.6555 1.0411
C4 C 0.5612(2) 0.6903(2) 1.27540(17)
H3 H 0.4439 0.6481 1.3086
C5 C 0.7564(2) 0.7205(2) 1.37543(17)
H4 H 0.7711 0.6991 1.4764
C6 C 0.9354(2) 0.7837(2) 1.32708(18)
H5 H 1.0677 0.8054 1.3967
C7 C 0.9166(2) 0.8137(2) 1.17889(17)
H6 H 1.0356 0.8534 1.1475
C8 C 0.7172(2) 0.78446(19) 1.07338(15)
C9 C 0.5361(2) 0.72288(19) 1.12149(15)
C10 C 0.1196(2) 0.7120(2) 0.74570(16)
H7 H 0.1271 0.8392 0.7177
H8 H 0.1009 0.6271 0.6542
loop_
_geom_bond_atom_site_label_1
_geom_bond_atom_site_label_2
_geom_bond_site_symmetry_1
_geom_bond_site_symmetry_2
Cl1 C1 1_555 1_555
O1 H1 1_555 1_555
N1 C1 1_555 1_555
C1 C2 1_555 1_555
C2 C3 1_555 1_555
C3 H2 1_555 1_555
C4 H3 1_555 1_555
C5 C4 1_555 1_555
H4 C5 1_555 1_555
C6 C5 1_555 1_555
H5 C6 1_555 1_555
C7 C6 1_555 1_555
H6 C7 1_555 1_555
C8 N1 1_555 1_555
C9 C3 1_555 1_555
C10 O1 1_555 1_555
H7 C10 1_555 1_555
H8 C10 1_555 1_555
C2 C10 1_555 1_555
C4 C9 1_555 1_555
C7 C8 1_555 1_555
C8 C9 1_555 1_555

#END
