
#######################################################################
#
#                 Cambridge Crystallographic Data Centre
#                                CCDC 
#
#######################################################################
#
# If this CIF has been generated from an entry in the Cambridge 
# Structural Database, then it will include bibliographic, chemical, 
# crystal, experimental, refinement or atomic coordinate data resulting 
# from the CCDC's data processing and validation procedures.
#
#######################################################################

data_IJIHAL01
_chemical_formula_moiety         'C11 H9 Cl2 N1'
_chemical_name_systematic        2-Chloro-3-(chloromethyl)-8-methylquinoline
_symmetry_cell_setting           monoclinic
_symmetry_space_group_name_H-M   'P 21/c'
_symmetry_Int_Tables_number      14
_space_group_name_Hall           '-P 2ybc'
loop_
_symmetry_equiv_pos_site_id
_symmetry_equiv_pos_as_xyz
1 x,y,z
2 -x,1/2+y,1/2-z
3 -x,-y,-z
4 x,1/2-y,1/2+z
_cell_length_a                   15.1752(3)
_cell_length_b                   4.60201(10)
_cell_length_c                   14.9781(3)
_cell_angle_alpha                90
_cell_angle_beta                 94.357(2)
_cell_angle_gamma                90
_cell_volume                     1042.99
_exptl_crystal_colour            colorless
_exptl_crystal_description       block
_cell_formula_units_Z            4
loop_
_atom_site_label
_atom_site_type_symbol
_atom_site_fract_x
_atom_site_fract_y
_atom_site_fract_z
C1 C 0.91835(12) 0.5380(5) 0.58829(13)
H1 H 0.9655 0.4017 0.6011
H2 H 0.9419 0.7158 0.5665
H3 H 0.8764 0.4582 0.5437
Cl1 Cl 0.48487(3) 1.19585(12) 0.61591(3)
Cl2 Cl 0.67754(4) 1.27037(11) 0.48809(3)
C2 C 0.66018(10) 1.1802(3) 0.66470(10)
N1 N 0.77452(8) 0.9278(3) 0.59085(8)
C3 C 0.68757(10) 1.0511(3) 0.74325(9)
H4 H 0.6586 1.0934 0.7942
C4 C 0.75880(10) 0.8546(3) 0.74964(10)
C5 C 0.80131(10) 0.7965(3) 0.67027(10)
C6 C 0.70851(10) 1.1060(3) 0.59054(9)
C7 C 0.87316(10) 0.5980(4) 0.67244(12)
C8 C 0.58366(11) 1.3844(4) 0.65736(12)
H5 H 0.5956 1.5421 0.6170
H6 H 0.5752 1.4670 0.7157
C9 C 0.89859(11) 0.4673(4) 0.75206(13)
H7 H 0.9451 0.3352 0.7543
C10 C 0.85698(13) 0.5253(4) 0.83066(12)
H8 H 0.8765 0.4325 0.8837
C11 C 0.78867(13) 0.7152(4) 0.83007(11)
H9 H 0.7616 0.7533 0.8825
loop_
_geom_bond_atom_site_label_1
_geom_bond_atom_site_label_2
_geom_bond_site_symmetry_1
_geom_bond_site_symmetry_2
C1 H1 1_555 1_555
H2 C1 1_555 1_555
H3 C1 1_555 1_555
Cl1 C8 1_555 1_555
Cl2 C6 1_555 1_555
C2 C3 1_555 1_555
N1 C5 1_555 1_555
C3 H4 1_555 1_555
C4 C3 1_555 1_555
C5 C4 1_555 1_555
C6 C2 1_555 1_555
C7 C1 1_555 1_555
C8 C2 1_555 1_555
H5 C8 1_555 1_555
H6 C8 1_555 1_555
C9 C7 1_555 1_555
H7 C9 1_555 1_555
C10 C9 1_555 1_555
H8 C10 1_555 1_555
C11 C4 1_555 1_555
H9 C11 1_555 1_555
N1 C6 1_555 1_555
C5 C7 1_555 1_555
C10 C11 1_555 1_555

#END
