
#######################################################################
#
#                 Cambridge Crystallographic Data Centre
#                                CCDC 
#
#######################################################################
#
# If this CIF has been generated from an entry in the Cambridge 
# Structural Database, then it will include bibliographic, chemical, 
# crystal, experimental, refinement or atomic coordinate data resulting 
# from the CCDC's data processing and validation procedures.
#
#######################################################################

data_IJIHIT
_chemical_name_common            
1-(4-Biphenylethynyl)-4-([4-(2-cyanoethylsulfanyl)phenyl]ethynyl)-2,5-bis(hexoxy)benzene
_chemical_formula_moiety         'C43 H45 N1 O2 S1'
_chemical_name_systematic        
3-((4-((4-(Biphenyl-4-ylethynyl)-2,5-bis(hexyloxy)phenyl)ethynyl)phenyl)sulfanyl)propanenitrile
_symmetry_cell_setting           triclinic
_symmetry_space_group_name_H-M   'P -1'
_symmetry_Int_Tables_number      2
_space_group_name_Hall           '-P 1'
loop_
_symmetry_equiv_pos_site_id
_symmetry_equiv_pos_as_xyz
1 x,y,z
2 -x,-y,-z
_cell_length_a                   11.5674(13)
_cell_length_b                   11.8696(13)
_cell_length_c                   13.9863(16)
_cell_angle_alpha                106.21(1)
_cell_angle_beta                 102.50(1)
_cell_angle_gamma                94.14(1)
_cell_volume                     1782.17
_exptl_crystal_colour            amber
_chemical_melting_point          '389.7 K'
_cell_formula_units_Z            2
loop_
_atom_site_label
_atom_site_type_symbol
_atom_site_fract_x
_atom_site_fract_y
_atom_site_fract_z
S1 S 0.28080(3) 0.50883(3) -0.10560(2)
O1 O 0.31088(8) 0.05186(8) 0.27987(8)
O2 O 0.71905(8) -0.16578(8) 0.30197(7)
N1 N 0.09811(12) 0.55560(15) -0.34624(11)
C1 C 0.19759(12) 0.56847(14) -0.30892(11)
C2 C 0.32633(11) 0.58373(13) -0.26260(11)
H1 H 0.3515 0.6650 -0.2145
H2 H 0.3697 0.5753 -0.3174
C3 C 0.36224(11) 0.49442(12) -0.20450(10)
H3 H 0.4494 0.5102 -0.1729
H4 H 0.3428 0.4129 -0.2526
C4 C 0.32987(10) 0.40031(10) -0.04860(9)
C5 C 0.43093(11) 0.34531(11) -0.06074(10)
H5 H 0.4771 0.3640 -0.1042
C6 C 0.46385(11) 0.26310(11) -0.00957(10)
H6 H 0.5322 0.2256 -0.0187
C7 C 0.39772(11) 0.23511(10) 0.05543(9)
C8 C 0.29569(11) 0.29010(11) 0.06651(10)
H7 H 0.2492 0.2712 0.1097
C9 C 0.26232(11) 0.37130(11) 0.01525(10)
H8 H 0.1931 0.4076 0.0234
C10 C 0.43353(11) 0.15501(11) 0.11271(10)
C11 C 0.46051(11) 0.09198(11) 0.16511(10)
C12 C 0.48888(11) 0.01702(10) 0.22888(10)
C13 C 0.41067(11) -0.00297(11) 0.28869(10)
C14 C 0.43793(11) -0.07518(11) 0.35079(10)
H9 H 0.3855 -0.0885 0.3915
C15 C 0.54225(11) -0.12880(11) 0.35395(9)
C16 C 0.62075(10) -0.10874(10) 0.29418(9)
C17 C 0.59390(11) -0.03606(11) 0.23257(10)
H10 H 0.6467 -0.0223 0.1923
C18 C 0.57052(11) -0.20474(11) 0.41645(10)
C19 C 0.59805(11) -0.26894(11) 0.46804(10)
C20 C 0.63815(11) -0.34045(11) 0.53282(10)
C21 C 0.74745(11) -0.38380(11) 0.53296(10)
H11 H 0.7923 -0.3698 0.4870
C22 C 0.79114(11) -0.44711(11) 0.59949(10)
H12 H 0.8661 -0.4750 0.5993
C23 C 0.72587(10) -0.46988(11) 0.66699(9)
C24 C 0.61595(12) -0.42758(13) 0.66521(11)
H13 H 0.5700 -0.4433 0.7099
C25 C 0.57254(12) -0.36335(13) 0.59984(11)
H14 H 0.4981 -0.3347 0.6007
C26 C 0.77458(11) -0.53409(10) 0.74184(9)
C27 C 0.89404(11) -0.51533(11) 0.79039(10)
H15 H 0.9476 -0.4618 0.7756
C28 C 0.93761(12) -0.57396(12) 0.86093(10)
H16 H 1.0204 -0.5596 0.8942
C29 C 0.86103(12) -0.65341(12) 0.88349(10)
H17 H 0.8913 -0.6932 0.9318
C30 C 0.73989(12) -0.67399(12) 0.83427(10)
H18 H 0.6869 -0.7281 0.8491
C31 C 0.69625(11) -0.61528(11) 0.76378(10)
H19 H 0.6136 -0.6301 0.7300
C32 C 0.22083(11) 0.02242(12) 0.32843(11)
H20 H 0.2538 0.0441 0.4037
H21 H 0.1920 -0.0637 0.3020
C33 C 0.11916(12) 0.09119(13) 0.30383(13)
H22 H 0.0608 0.0804 0.3441
H23 H 0.1515 0.1765 0.3267
C34 C 0.05303(16) 0.05712(15) 0.19541(15)
H24 H 0.0238 -0.0289 0.1709
H25 H 0.1095 0.0728 0.1551
C35 C -0.05202(15) 0.12589(15) 0.17573(14)
H26 H -0.1050 0.1150 0.2203
H27 H -0.0217 0.2115 0.1959
C36 C -0.12349(17) 0.08654(18) 0.06365(16)
H28 H -0.0713 0.1011 0.0195
H29 H -0.1503 0.0001 0.0424
C37 C -0.23119(15) 0.14947(16) 0.04748(15)
H30 H -0.2881 0.1277 0.0842
H31 H -0.2694 0.1260 -0.0262
H32 H -0.2062 0.2354 0.0728
C38 C 0.80958(11) -0.13795(11) 0.25298(10)
H33 H 0.8374 -0.0516 0.2773
H34 H 0.7772 -0.1624 0.1775
C39 C 0.91187(11) -0.20487(11) 0.28071(10)
H35 H 0.9704 -0.1962 0.2402
H36 H 0.8806 -0.2902 0.2610
C40 C 0.97619(12) -0.16292(12) 0.39453(10)
H37 H 0.9191 -0.1764 0.4351
H38 H 1.0035 -0.0766 0.4154
C41 C 1.08395(11) -0.22661(12) 0.41937(10)
H39 H 1.0550 -0.3111 0.4076
H40 H 1.1349 -0.2231 0.3715
C42 C 1.15918(14) -0.17464(15) 0.52883(12)
H41 H 1.1826 -0.0887 0.5425
H42 H 1.1100 -0.1842 0.5766
C43 C 1.27143(13) -0.23162(13) 0.55078(12)
H43 H 1.2492 -0.3170 0.5368
H44 H 1.3145 -0.1962 0.6230
H45 H 1.3230 -0.2184 0.5067
C44? C 0.0843(9) 0.0569(9) 0.1624(8)
C45? C -0.0075(8) 0.1322(8) 0.1206(8)
C46? C -0.1337(8) 0.0964(8) 0.1263(8)
H46? H 0.1592 0.0710 0.1415
H47? H 0.0518 -0.0282 0.1306
H48? H 0.0194 0.2185 0.1502
H49? H 0.0032 0.1039 0.0499
H50? H -0.1410 0.1293 0.1977
H51? H -0.1521 0.0090 0.1062
loop_
_geom_bond_atom_site_label_1
_geom_bond_atom_site_label_2
_geom_bond_site_symmetry_1
_geom_bond_site_symmetry_2
S1 C3 1_555 1_555
O1 C13 1_555 1_555
O2 C16 1_555 1_555
N1 C1 1_555 1_555
C1 C2 1_555 1_555
C2 H1 1_555 1_555
H2 C2 1_555 1_555
C3 C2 1_555 1_555
H3 C3 1_555 1_555
H4 C3 1_555 1_555
C4 S1 1_555 1_555
C5 C4 1_555 1_555
H5 C5 1_555 1_555
C6 C5 1_555 1_555
H6 C6 1_555 1_555
C7 C6 1_555 1_555
C8 C7 1_555 1_555
H7 C8 1_555 1_555
C9 C4 1_555 1_555
H8 C9 1_555 1_555
C10 C7 1_555 1_555
C11 C10 1_555 1_555
C12 C11 1_555 1_555
C13 C12 1_555 1_555
C14 C13 1_555 1_555
H9 C14 1_555 1_555
C15 C14 1_555 1_555
C16 C15 1_555 1_555
C17 C12 1_555 1_555
H10 C17 1_555 1_555
C18 C15 1_555 1_555
C19 C18 1_555 1_555
C20 C19 1_555 1_555
C21 C20 1_555 1_555
H11 C21 1_555 1_555
C22 C21 1_555 1_555
H12 C22 1_555 1_555
C23 C22 1_555 1_555
C24 C23 1_555 1_555
H13 C24 1_555 1_555
C25 C20 1_555 1_555
H14 C25 1_555 1_555
C26 C23 1_555 1_555
C27 C26 1_555 1_555
H15 C27 1_555 1_555
C28 C27 1_555 1_555
H16 C28 1_555 1_555
C29 C28 1_555 1_555
H17 C29 1_555 1_555
C30 C29 1_555 1_555
H18 C30 1_555 1_555
C31 C26 1_555 1_555
H19 C31 1_555 1_555
C32 O1 1_555 1_555
H20 C32 1_555 1_555
H21 C32 1_555 1_555
C33 C32 1_555 1_555
H22 C33 1_555 1_555
H23 C33 1_555 1_555
C34 C33 1_555 1_555
H24 C34 1_555 1_555
H25 C34 1_555 1_555
C35 C34 1_555 1_555
H26 C35 1_555 1_555
H27 C35 1_555 1_555
C36 C35 1_555 1_555
H28 C36 1_555 1_555
H29 C36 1_555 1_555
C37 C36 1_555 1_555
H30 C37 1_555 1_555
H31 C37 1_555 1_555
H32 C37 1_555 1_555
C38 O2 1_555 1_555
H33 C38 1_555 1_555
H34 C38 1_555 1_555
C39 C38 1_555 1_555
H35 C39 1_555 1_555
H36 C39 1_555 1_555
C40 C39 1_555 1_555
H37 C40 1_555 1_555
H38 C40 1_555 1_555
C41 C40 1_555 1_555
H39 C41 1_555 1_555
H40 C41 1_555 1_555
C42 C41 1_555 1_555
H41 C42 1_555 1_555
H42 C42 1_555 1_555
C43 C42 1_555 1_555
H43 C43 1_555 1_555
H44 C43 1_555 1_555
H45 C43 1_555 1_555
C8 C9 1_555 1_555
C16 C17 1_555 1_555
C24 C25 1_555 1_555
C30 C31 1_555 1_555

#END
