
#######################################################################
#
#                 Cambridge Crystallographic Data Centre
#                                CCDC 
#
#######################################################################
#
# If this CIF has been generated from an entry in the Cambridge 
# Structural Database, then it will include bibliographic, chemical, 
# crystal, experimental, refinement or atomic coordinate data resulting 
# from the CCDC's data processing and validation procedures.
#
#######################################################################

data_IJIHOZ01
_chemical_name_common            "ibuprofen hemikis(4,4'-bipyridine)"
_chemical_formula_moiety         'C13 H18 O2,0.5(C10 H8 N2)'
_chemical_name_systematic        
"2-(4-Isobutylphenyl)propanoic acid hemikis(4,4'-bipyridine)"
_symmetry_cell_setting           triclinic
_symmetry_space_group_name_H-M   'P 1'
_symmetry_Int_Tables_number      1
_space_group_name_Hall           'P 1'
loop_
_symmetry_equiv_pos_site_id
_symmetry_equiv_pos_as_xyz
1 x,y,z
_cell_length_a                   5.702(3)
_cell_length_b                   11.600(7)
_cell_length_c                   24.523(14)
_cell_angle_alpha                93.589(13)
_cell_angle_beta                 90.734(12)
_cell_angle_gamma                103.756(11)
_cell_volume                     1571.77
_cell_formula_units_Z            4
loop_
_atom_site_label
_atom_site_type_symbol
_atom_site_fract_x
_atom_site_fract_y
_atom_site_fract_z
O1 O 0.2707(12) 0.8633(5) 1.1619(3)
O2 O -0.0553(12) 0.8892(7) 1.1176(3)
C1 C 0.072(2) 0.9062(8) 1.1567(4)
C2 C 0.039(2) 0.9772(10) 1.2095(4)
H1 H 0.20(2) 1.026(11) 1.221(5)
C3 C -0.121(2) 1.0606(10) 1.1984(5)
H2 H -0.2873 1.0169 1.1966
H3 H -0.0799 1.0955 1.1643
H4 H -0.0987 1.1223 1.2273
C4 C -0.0437(17) 0.8931(9) 1.2522(3)
C5 C 0.116(2) 0.8745(12) 1.2893(5)
H5 H 0.2740 0.9198 1.2904
C6 C 0.044(2) 0.7874(15) 1.3260(5)
H6 H 0.1586 0.7769 1.3514
C7 C -0.1871(19) 0.7148(9) 1.3275(4)
C8 C -0.355(2) 0.7449(11) 1.2912(5)
H7 H -0.5177 0.7076 1.2928
C9 C -0.2801(18) 0.8288(9) 1.2536(4)
H8 H -0.3925 0.8423 1.2284
C10 C -0.267(3) 0.6199(12) 1.3677(4)
H9 H -0.4259 0.5727 1.3557
H10 H -0.1576 0.5676 1.3656
C11 C -0.281(5) 0.6604(13) 1.4259(6)
H11 H -0.12(4) 0.710(17) 1.437(8)
C12 C -0.321(6) 0.5534(18) 1.4606(6)
H12 H -0.4913 0.5220 1.4645
H13 H -0.2455 0.5774 1.4961
H14 H -0.2520 0.4933 1.4432
C13 C -0.402(13) 0.727(5) 1.414(4)
H15 H -0.5317 0.6856 1.3893
H16 H -0.3040 0.7926 1.3962
H17 H -0.4677 0.7566 1.4462
O3 O 0.2608(13) 1.3541(6) 1.1640(3)
O4 O -0.0560(13) 1.3795(6) 1.1160(3)
C14 C 0.0736(17) 1.4014(7) 1.1567(4)
C15 C 0.055(2) 1.4858(8) 1.2030(4)
H18 H 0.22(2) 1.533(10) 1.213(4)
C16 C -0.100(2) 1.5702(9) 1.1918(5)
H19 H -0.2612 1.5259 1.1823
H20 H -0.0349 1.6169 1.1621
H21 H -0.1018 1.6219 1.2238
C17 C -0.0411(18) 1.4127(7) 1.2528(4)
C18 C 0.110(2) 1.4129(10) 1.2947(5)
H22 H 0.2706 1.4545 1.2934
C19 C 0.031(2) 1.3530(9) 1.3390(5)
H23 H 0.1412 1.3525 1.3672
C20 C -0.206(3) 1.2926(10) 1.3438(6)
C21 C -0.369(2) 1.2902(9) 1.2999(5)
H24 H -0.5289 1.2481 1.3012
C22 C -0.286(2) 1.3510(9) 1.2551(4)
H25 H -0.3922 1.3517 1.2260
C23 C -0.312(3) 1.2287(14) 1.3954(6)
C24 C -0.335(4) 1.087(2) 1.3785(9)
C25 C -0.096(6) 1.080(3) 1.3850(12)
C26 C -0.484(5) 1.037(2) 1.4369(10)
O5 O 0.6407(16) 0.5805(7) 0.8348(3)
O6 O 0.9429(17) 0.5644(7) 0.8875(4)
C27 C 0.833(2) 0.5452(9) 0.8447(4)
C28 C 0.942(5) 0.4757(14) 0.7982(7)
H26 H 1.10(4) 0.47(2) 0.811(8)
C29 C 0.795(6) 0.3594(13) 0.7924(9)
H27 H 0.8712 0.3104 0.7692
H28 H 0.6411 0.3610 0.7765
H29 H 0.7720 0.3275 0.8277
C30 C 0.973(3) 0.5444(14) 0.7487(5)
C31 C 0.806(3) 0.5399(11) 0.7074(6)
H30 H 0.6466 0.4993 0.7122
C32 C 0.863(3) 0.5925(16) 0.6596(6)
H31 H 0.7469 0.5872 0.6320
C33 C 1.100(2) 0.6539(11) 0.6531(4)
C34 C 1.253(3) 0.6680(19) 0.6940(6)
H32 H 1.4024 0.7212 0.6919
C35 C 1.201(3) 0.6066(16) 0.7408(6)
H33 H 1.3227 0.6082 0.7666
C36 C 1.166(3) 0.7086(15) 0.6010(7)
C37 C 1.125(4) 0.829(2) 0.5942(9)
C38 C 1.061(7) 0.876(3) 0.6251(15)
C39 C 1.145(6) 0.887(3) 0.5451(13)
O7 O 0.6300(16) 0.0721(7) 0.8358(3)
O8 O 0.9386(17) 0.0573(7) 0.8857(4)
C40 C 0.819(2) 0.0383(8) 0.8428(4)
C41 C 0.949(4) -0.0135(15) 0.7981(8)
H34 H 1.11(3) -0.018(15) 0.811(7)
C42 C 0.786(6) -0.1408(14) 0.7815(10)
H35 H 0.8005 -0.1596 0.7432
H36 H 0.6205 -0.1422 0.7890
H37 H 0.8371 -0.1985 0.8022
C43 C 0.968(3) 0.0635(9) 0.7484(4)
C44 C 0.795(3) 0.0712(12) 0.7110(5)
H38 H 0.6422 0.0208 0.7125
C45 C 0.840(3) 0.1535(14) 0.6701(6)
H39 H 0.7191 0.1638 0.6465
C46 C 1.079(3) 0.2182(16) 0.6676(6)
C47 C 1.248(3) 0.2146(13) 0.7034(5)
H40 H 1.3992 0.2667 0.7022
C48 C 1.202(3) 0.1336(12) 0.7430(5)
H41 H 1.3266 0.1254 0.7662
C49 C 1.109(3) 0.3253(12) 0.6262(7)
H42 H 0.9648 0.3555 0.6259
H43 H 1.2452 0.3901 0.6382
C50 C 1.146(3) 0.2819(17) 0.5761(6)
H44 H 1.00(3) 0.218(15) 0.565(6)
C51 C 1.145(4) 0.3931(16) 0.5402(9)
H45 H 1.2759 0.4029 0.5154
H46 H 1.1637 0.4639 0.5639
H47 H 0.9947 0.3788 0.5199
C52 C 1.359(4) 0.243(2) 0.5610(6)
H48 H 1.4033 0.1976 0.5893
H49 H 1.4897 0.3106 0.5562
H50 H 1.3275 0.1938 0.5274
N1 N 0.3212(15) 0.7013(8) 1.0867(3)
N2 N 0.5455(15) 0.2352(6) 0.9101(3)
C53 C 0.496(2) 0.6462(9) 1.0975(4)
H51 H 0.5924 0.6725 1.1288
C54 C 0.5430(18) 0.5516(9) 1.0648(4)
H52 H 0.6654 0.5156 1.0744
C55 C 0.4037(16) 0.5130(8) 1.0178(3)
C56 C 0.2198(17) 0.5701(8) 1.0076(4)
H53 H 0.1199 0.5472 0.9766
C57 C 0.1863(19) 0.6594(9) 1.0431(4)
H54 H 0.0579 0.6932 1.0357
C58 C 0.3750(19) 0.2890(9) 0.8988(4)
H55 H 0.2816 0.2643 0.8670
C59 C 0.3282(19) 0.3795(9) 0.9317(4)
H56 H 0.2089 0.4166 0.9210
C60 C 0.4537(15) 0.4171(7) 0.9803(4)
C61 C 0.6334(19) 0.3578(9) 0.9925(4)
H57 H 0.7258 0.3786 1.0247
C62 C 0.6732(17) 0.2664(7) 0.9556(4)
H58 H 0.7929 0.2275 0.9639
N3 N 0.3168(14) 1.1911(6) 1.0893(3)
N4 N 0.5516(16) 0.7392(7) 0.9068(3)
C63 C 0.4874(18) 1.1387(7) 1.1007(4)
H59 H 0.5761 1.1617 1.1333
C64 C 0.5437(18) 1.0485(8) 1.0657(4)
H60 H 0.6689 1.0140 1.0750
C65 C 0.4116(15) 1.0117(6) 1.0176(3)
C66 C 0.2258(18) 1.0685(8) 1.0076(4)
H61 H 0.1311 1.0471 0.9758
C67 C 0.1800(16) 1.1565(8) 1.0445(4)
H62 H 0.0524 1.1912 1.0375
C68 C 0.6751(19) 0.7718(8) 0.9539(4)
H63 H 0.7943 0.7327 0.9622
C69 C 0.6394(17) 0.8583(8) 0.9905(4)
H64 H 0.7326 0.8779 1.0227
C70 C 0.4626(18) 0.9157(8) 0.9790(4)
C71 C 0.3335(17) 0.8854(7) 0.9309(3)
H65 H 0.2160 0.9245 0.9212
C72 C 0.3808(18) 0.7973(9) 0.8979(4)
H66 H 0.2863 0.7750 0.8661
C73? C -0.291(8) 1.063(4) 1.4600(17)
C74? C 1.356(11) 0.753(5) 0.557(2)
C75? C 0.824(5) -0.0421(18) 0.7910(11)
C76? C 0.990(6) -0.122(2) 0.7997(14)
H67? H 0.66(5) -0.09(3) 0.777(11)
H68? H 0.9028 -0.1930 0.8154
H69? H 1.1214 -0.0818 0.8240
H70? H 1.0524 -0.1432 0.7653
loop_
_geom_bond_atom_site_label_1
_geom_bond_atom_site_label_2
_geom_bond_site_symmetry_1
_geom_bond_site_symmetry_2
O1 C1 1_555 1_555
O2 C1 1_555 1_555
C1 C2 1_555 1_555
C2 H1 1_555 1_555
C3 C2 1_555 1_555
H2 C3 1_555 1_555
H3 C3 1_555 1_555
H4 C3 1_555 1_555
C4 C2 1_555 1_555
C5 C4 1_555 1_555
H5 C5 1_555 1_555
C6 C5 1_555 1_555
H6 C6 1_555 1_555
C7 C6 1_555 1_555
C8 C7 1_555 1_555
H7 C8 1_555 1_555
C9 C4 1_555 1_555
H8 C9 1_555 1_555
C10 C7 1_555 1_555
H9 C10 1_555 1_555
H10 C10 1_555 1_555
C11 C10 1_555 1_555
H11 C11 1_555 1_555
C12 C11 1_555 1_555
H12 C12 1_555 1_555
H13 C12 1_555 1_555
H14 C12 1_555 1_555
C13 C11 1_555 1_555
H15 C13 1_555 1_555
H16 C13 1_555 1_555
H17 C13 1_555 1_555
O3 C14 1_555 1_555
O4 C14 1_555 1_555
C14 C15 1_555 1_555
C15 H18 1_555 1_555
C16 C15 1_555 1_555
H19 C16 1_555 1_555
H20 C16 1_555 1_555
H21 C16 1_555 1_555
C17 C15 1_555 1_555
C18 C17 1_555 1_555
H22 C18 1_555 1_555
C19 C18 1_555 1_555
H23 C19 1_555 1_555
C20 C19 1_555 1_555
C21 C20 1_555 1_555
H24 C21 1_555 1_555
C22 C17 1_555 1_555
H25 C22 1_555 1_555
C23 C20 1_555 1_555
C24 C23 1_555 1_555
C25 C24 1_555 1_555
C26 C24 1_555 1_555
O5 C27 1_555 1_555
O6 C27 1_555 1_555
C27 C28 1_555 1_555
C28 H26 1_555 1_555
C29 C28 1_555 1_555
H27 C29 1_555 1_555
H28 C29 1_555 1_555
H29 C29 1_555 1_555
C30 C28 1_555 1_555
C31 C30 1_555 1_555
H30 C31 1_555 1_555
C32 C31 1_555 1_555
H31 C32 1_555 1_555
C33 C32 1_555 1_555
C34 C33 1_555 1_555
H32 C34 1_555 1_555
C35 C30 1_555 1_555
H33 C35 1_555 1_555
C36 C33 1_555 1_555
C37 C36 1_555 1_555
C38 C37 1_555 1_555
C39 C37 1_555 1_555
O7 C40 1_555 1_555
O8 C40 1_555 1_555
C40 C41 1_555 1_555
C41 H34 1_555 1_555
C42 C41 1_555 1_555
H35 C42 1_555 1_555
H36 C42 1_555 1_555
H37 C42 1_555 1_555
C43 C41 1_555 1_555
C44 C43 1_555 1_555
H38 C44 1_555 1_555
C45 C44 1_555 1_555
H39 C45 1_555 1_555
C46 C45 1_555 1_555
C47 C46 1_555 1_555
H40 C47 1_555 1_555
C48 C43 1_555 1_555
H41 C48 1_555 1_555
C49 C46 1_555 1_555
H42 C49 1_555 1_555
H43 C49 1_555 1_555
C50 C49 1_555 1_555
H44 C50 1_555 1_555
C51 C50 1_555 1_555
H45 C51 1_555 1_555
H46 C51 1_555 1_555
H47 C51 1_555 1_555
C52 C50 1_555 1_555
H48 C52 1_555 1_555
H49 C52 1_555 1_555
H50 C52 1_555 1_555
N1 C53 1_555 1_555
N2 C58 1_555 1_555
C53 H51 1_555 1_555
C54 C53 1_555 1_555
H52 C54 1_555 1_555
C55 C54 1_555 1_555
C56 C55 1_555 1_555
H53 C56 1_555 1_555
C57 N1 1_555 1_555
H54 C57 1_555 1_555
C58 H55 1_555 1_555
C59 C58 1_555 1_555
H56 C59 1_555 1_555
C60 C55 1_555 1_555
C61 C60 1_555 1_555
H57 C61 1_555 1_555
C62 N2 1_555 1_555
H58 C62 1_555 1_555
N3 C63 1_555 1_555
N4 C68 1_555 1_555
C63 H59 1_555 1_555
C64 C63 1_555 1_555
H60 C64 1_555 1_555
C65 C64 1_555 1_555
C66 C65 1_555 1_555
H61 C66 1_555 1_555
C67 N3 1_555 1_555
H62 C67 1_555 1_555
C68 H63 1_555 1_555
C69 C68 1_555 1_555
H64 C69 1_555 1_555
C70 C65 1_555 1_555
C71 C70 1_555 1_555
H65 C71 1_555 1_555
C72 N4 1_555 1_555
H66 C72 1_555 1_555
C8 C9 1_555 1_555
C21 C22 1_555 1_555
C34 C35 1_555 1_555
C47 C48 1_555 1_555
C56 C57 1_555 1_555
C59 C60 1_555 1_555
C61 C62 1_555 1_555
C66 C67 1_555 1_555
C69 C70 1_555 1_555
C71 C72 1_555 1_555

#END
