
#######################################################################
#
#                 Cambridge Crystallographic Data Centre
#                                CCDC 
#
#######################################################################
#
# If this CIF has been generated from an entry in the Cambridge 
# Structural Database, then it will include bibliographic, chemical, 
# crystal, experimental, refinement or atomic coordinate data resulting 
# from the CCDC's data processing and validation procedures.
#
#######################################################################

data_IJIJIW
_chemical_formula_moiety         'C37 H35 N1 O7 S3 Se1'
_chemical_name_systematic        
'4-(1-(bis(Phenylsulfonyl)amino)-2-(phenylselanyl)hex-1-en-1-yl)phenyl 4-methylbenzenesulfonate'
_symmetry_cell_setting           triclinic
_symmetry_space_group_name_H-M   'P -1'
_symmetry_Int_Tables_number      2
_space_group_name_Hall           '-P 1'
loop_
_symmetry_equiv_pos_site_id
_symmetry_equiv_pos_as_xyz
1 x,y,z
2 -x,-y,-z
_cell_length_a                   8.746
_cell_length_b                   10.102
_cell_length_c                   20.459
_cell_angle_alpha                101.66
_cell_angle_beta                 91.75
_cell_angle_gamma                90.35
_cell_volume                     1769.33
_exptl_crystal_colour            colorless
_exptl_crystal_description       block
_cell_formula_units_Z            2
loop_
_atom_site_label
_atom_site_type_symbol
_atom_site_fract_x
_atom_site_fract_y
_atom_site_fract_z
Se1 Se 0.78645(5) 0.41524(4) 0.419677(18)
S1 S 0.42440(11) 0.22834(10) 0.21557(4)
S2 S 1.03447(11) 0.72701(10) 0.13853(5)
S3 S 0.69471(11) 0.05081(9) 0.20853(4)
O1 O 0.8369(3) 0.0641(3) 0.24546(14)
O2 O 1.0229(3) 0.7168(3) 0.21604(13)
O3 O 1.0706(4) 0.8653(3) 0.14206(16)
O4 O 0.4145(3) 0.3704(3) 0.21868(15)
O5 O 0.5916(4) -0.0575(3) 0.21177(14)
O6 O 0.9006(3) 0.6663(3) 0.10315(15)
C1 C 1.0088(5) 0.4930(4) 0.23955(19)
H1 H 1.1121 0.4814 0.2308
O7 O 0.3932(3) 0.1341(3) 0.15456(13)
C2 C 0.6791(4) 0.2771(3) 0.35508(17)
N1 N 0.6056(3) 0.1999(3) 0.23877(14)
C3 C 0.6995(4) 0.5303(4) 0.26463(18)
H2 H 0.5961 0.5431 0.2728
C4 C 0.7844(4) 0.6317(4) 0.24516(19)
H3 H 0.7390 0.7126 0.2408
C5 C 0.7438(5) 0.3674(4) 0.50345(18)
C6 C 0.6808(4) 0.2979(4) 0.29246(17)
C7 C 0.5986(5) 0.3684(4) 0.52849(19)
H4 H 0.5147 0.3854 0.5025
C8 C 0.6498(5) -0.0350(4) 0.0746(2)
H5 H 0.5738 -0.0916 0.0850
C9 C 0.6138(4) 0.1575(4) 0.37827(18)
H6 H 0.5500 0.1052 0.3425
H7 H 0.5491 0.1895 0.4157
C10 C 0.3105(4) 0.1892(4) 0.27821(18)
C11 C 0.9246(4) 0.3923(4) 0.25995(19)
H8 H 0.9724 0.3132 0.2656
C12 C 0.7684(4) 0.4090(4) 0.27201(17)
C13 C 0.2867(5) 0.2887(4) 0.3345(2)
H9 H 0.3265 0.3755 0.3380
C14 C 0.8688(5) 0.3440(5) 0.5430(2)
H10 H 0.9669 0.3432 0.5267
C15 C 1.1949(5) 0.6288(4) 0.11328(19)
C16 C 0.9369(4) 0.6100(4) 0.23252(17)
C17 C 0.7351(4) 0.0656(4) 0.39938(18)
H11 H 0.7987 0.0315 0.3618
H12 H 0.8002 0.1176 0.4347
C18 C 0.2470(5) 0.0621(4) 0.2710(2)
H13 H 0.2622 -0.0029 0.2326
C19 C 1.1757(5) 0.4979(4) 0.0767(2)
H14 H 1.0787 0.4621 0.0637
C20 C 0.8776(6) 0.1322(5) 0.0437(2)
H15 H 0.9538 0.1881 0.0330
C21 C 0.2022(5) 0.2557(6) 0.3852(2)
H16 H 0.1868 0.3199 0.4239
C22 C 0.7308(5) 0.0514(4) 0.12441(18)
C23 C 1.3401(5) 0.6827(4) 0.1323(2)
H17 H 1.3522 0.7710 0.1561
C24 C 0.6837(6) -0.0363(5) 0.0084(2)
H18 H 0.6298 -0.0939 -0.0259
C25 C 0.8468(5) 0.1352(4) 0.1104(2)
H19 H 0.9023 0.1916 0.1446
C26 C 1.3055(6) 0.4224(5) 0.0604(2)
H20 H 1.2944 0.3352 0.0351
C27 C 1.4658(5) 0.6029(5) 0.1153(2)
H21 H 1.5631 0.6386 0.1278
C28 C 0.5769(6) 0.3443(4) 0.5919(2)
H22 H 0.4786 0.3440 0.6080
C29 C 1.4508(6) 0.4714(5) 0.0801(2)
C30 C 0.7017(7) 0.3207(5) 0.6312(2)
H23 H 0.6875 0.3043 0.6738
C31 C 0.1604(6) 0.0322(6) 0.3215(3)
H24 H 0.1148 -0.0527 0.3172
C32 C 0.7963(6) 0.0472(5) -0.0062(2)
H25 H 0.8178 0.0462 -0.0506
C33 C 1.5897(7) 0.3848(6) 0.0658(3)
H26 H 1.5593 0.2971 0.0410
H27 H 1.6395 0.3759 0.1071
H28 H 1.6590 0.4262 0.0402
C34 C 0.1421(5) 0.1297(7) 0.3785(3)
H29 H 0.0870 0.1083 0.4131
C35 C 0.6659(6) -0.0512(6) 0.4234(4)
H30 H 0.5925 -0.0973 0.3899
H31 H 0.6111 -0.0172 0.4638
C36 C 0.8471(6) 0.3217(6) 0.6070(2)
H32 H 0.9310 0.3074 0.6336
C37 C 0.7846(7) -0.1516(6) 0.4378(4)
H33 H 0.7347 -0.2241 0.4531
H34 H 0.8565 -0.1069 0.4716
H35 H 0.8375 -0.1873 0.3977
loop_
_geom_bond_atom_site_label_1
_geom_bond_atom_site_label_2
_geom_bond_site_symmetry_1
_geom_bond_site_symmetry_2
Se1 C2 1_555 1_555
S1 O4 1_555 1_555
S2 O2 1_555 1_555
S3 O1 1_555 1_555
O2 C16 1_555 1_555
O3 S2 1_555 1_555
O5 S3 1_555 1_555
O6 S2 1_555 1_555
C1 H1 1_555 1_555
O7 S1 1_555 1_555
C2 C6 1_555 1_555
N1 S1 1_555 1_555
C3 H2 1_555 1_555
C4 C3 1_555 1_555
H3 C4 1_555 1_555
C5 Se1 1_555 1_555
C6 N1 1_555 1_555
C7 C5 1_555 1_555
H4 C7 1_555 1_555
C8 H5 1_555 1_555
C9 C2 1_555 1_555
H6 C9 1_555 1_555
H7 C9 1_555 1_555
C10 S1 1_555 1_555
C11 C1 1_555 1_555
H8 C11 1_555 1_555
C12 C3 1_555 1_555
C13 C10 1_555 1_555
H9 C13 1_555 1_555
C14 C5 1_555 1_555
H10 C14 1_555 1_555
C15 S2 1_555 1_555
C16 C1 1_555 1_555
C17 C9 1_555 1_555
H11 C17 1_555 1_555
H12 C17 1_555 1_555
C18 C10 1_555 1_555
H13 C18 1_555 1_555
C19 C15 1_555 1_555
H14 C19 1_555 1_555
C20 H15 1_555 1_555
C21 C13 1_555 1_555
H16 C21 1_555 1_555
C22 S3 1_555 1_555
C23 C15 1_555 1_555
H17 C23 1_555 1_555
C24 C8 1_555 1_555
H18 C24 1_555 1_555
C25 C20 1_555 1_555
H19 C25 1_555 1_555
C26 C19 1_555 1_555
H20 C26 1_555 1_555
C27 C23 1_555 1_555
H21 C27 1_555 1_555
C28 C7 1_555 1_555
H22 C28 1_555 1_555
C29 C26 1_555 1_555
C30 C28 1_555 1_555
H23 C30 1_555 1_555
C31 C18 1_555 1_555
H24 C31 1_555 1_555
C32 C20 1_555 1_555
H25 C32 1_555 1_555
C33 C29 1_555 1_555
H26 C33 1_555 1_555
H27 C33 1_555 1_555
H28 C33 1_555 1_555
C34 C21 1_555 1_555
H29 C34 1_555 1_555
C35 C17 1_555 1_555
H30 C35 1_555 1_555
H31 C35 1_555 1_555
C36 C14 1_555 1_555
H32 C36 1_555 1_555
C37 C35 1_555 1_555
H33 C37 1_555 1_555
H34 C37 1_555 1_555
H35 C37 1_555 1_555
S3 N1 1_555 1_555
C4 C16 1_555 1_555
C6 C12 1_555 1_555
C8 C22 1_555 1_555
C11 C12 1_555 1_555
C22 C25 1_555 1_555
C24 C32 1_555 1_555
C27 C29 1_555 1_555
C30 C36 1_555 1_555
C31 C34 1_555 1_555

#END
