
#######################################################################
#
#                 Cambridge Crystallographic Data Centre
#                                CCDC 
#
#######################################################################
#
# If this CIF has been generated from an entry in the Cambridge 
# Structural Database, then it will include bibliographic, chemical, 
# crystal, experimental, refinement or atomic coordinate data resulting 
# from the CCDC's data processing and validation procedures.
#
#######################################################################

data_IJIJES
_chemical_formula_moiety         'C25 H27 N1 O4 S3'
_chemical_name_systematic        
N-(2-(Ethylsulfanyl)-1-phenylpent-1-en-1-yl)-N-(phenylsulfonyl)benzenesulfonamide
_symmetry_cell_setting           monoclinic
_symmetry_space_group_name_H-M   'C c'
_symmetry_Int_Tables_number      9
_space_group_name_Hall           'C -2yc'
loop_
_symmetry_equiv_pos_site_id
_symmetry_equiv_pos_as_xyz
1 x,y,z
2 x,-y,1/2+z
3 1/2+x,1/2+y,z
4 1/2+x,1/2-y,1/2+z
_cell_length_a                   9.222
_cell_length_b                   17.355
_cell_length_c                   15.981
_cell_angle_alpha                90
_cell_angle_beta                 106.01
_cell_angle_gamma                90
_cell_volume                     2458.52
_exptl_crystal_colour            colorless
_exptl_crystal_description       block
_cell_formula_units_Z            4
loop_
_atom_site_label
_atom_site_type_symbol
_atom_site_fract_x
_atom_site_fract_y
_atom_site_fract_z
S1 S 0.55897(9) 0.15610(5) 0.05325(6)
S2 S 0.31048(9) 0.20124(5) 0.12679(6)
S3 S 0.20624(11) -0.07559(5) 0.03286(7)
O1 O 0.5905(3) 0.08698(16) 0.01409(18)
O2 O 0.2485(3) 0.16267(18) 0.18804(19)
O3 O 0.5265(3) 0.22517(17) 0.0029(2)
C1 C 0.3664(4) 0.05221(19) 0.0900(2)
O4 O 0.4132(3) 0.26389(18) 0.1536(2)
C2 C 0.7103(4) 0.1746(2) 0.1465(3)
C3 C 0.1578(4) 0.2327(2) 0.0395(3)
N1 N 0.4050(3) 0.13355(16) 0.0862(2)
C4 C 0.1734(4) 0.0646(2) -0.0572(2)
H1 H 0.1952 0.1193 -0.0499
H2 H 0.0654 0.0580 -0.0678
C5 C 0.7444(4) 0.2497(2) 0.1738(3)
H3 H 0.6854 0.2904 0.1454
C6 C 0.2532(4) 0.0232(2) 0.0255(2)
C7 C 0.4682(4) 0.0073(2) 0.1622(3)
C8 C 0.5494(5) -0.0546(2) 0.1412(3)
H4 H 0.5349 -0.0690 0.0835
C9 C 0.2198(5) 0.0357(3) -0.1356(3)
H5 H 0.3259 0.0468 -0.1276
H6 H 0.2068 -0.0198 -0.1399
C10 C 0.4906(5) 0.0276(2) 0.2488(3)
H7 H 0.4365 0.0683 0.2633
C11 C 0.7972(5) 0.1134(2) 0.1868(3)
H8 H 0.7722 0.0632 0.1681
C12 C 0.6733(6) -0.0740(3) 0.2932(4)
H9 H 0.7414 -0.1012 0.3370
C13 C 0.9564(5) 0.2038(3) 0.2849(3)
H10 H 1.0393 0.2137 0.3321
C14 C 0.0025(5) -0.0750(3) -0.0108(3)
H11 H -0.0228 -0.0518 -0.0683
H12 H -0.0330 -0.1279 -0.0175
C15 C 0.0127(5) 0.2150(3) 0.0403(3)
H13 H -0.0061 0.1871 0.0859
C16 C 0.8682(5) 0.2631(3) 0.2442(4)
H14 H 0.8914 0.3132 0.2639
C17 C 0.5935(5) -0.0129(3) 0.3142(3)
H15 H 0.6088 0.0013 0.3721
C18 C 0.6515(5) -0.0945(3) 0.2074(3)
H16 H 0.7057 -0.1354 0.1935
C19 C -0.0762(5) 0.2804(3) -0.0966(4)
H17 H -0.1562 0.2969 -0.1424
C20 C 0.1877(5) 0.2740(3) -0.0288(4)
H18 H 0.2863 0.2861 -0.0281
C21 C 0.0688(6) 0.2965(3) -0.0974(4)
H19 H 0.0868 0.3227 -0.1443
C22 C -0.0795(5) -0.0324(4) 0.0441(3)
H20 H -0.1862 -0.0347 0.0170
H21 H -0.0474 0.0204 0.0499
H22 H -0.0575 -0.0558 0.1007
C23 C 0.9230(5) 0.1287(3) 0.2561(3)
H23 H 0.9848 0.0884 0.2833
C24 C 0.1291(7) 0.0723(4) -0.2185(3)
H24 H 0.1621 0.0528 -0.2664
H25 H 0.1429 0.1271 -0.2147
H26 H 0.0243 0.0604 -0.2274
C25 C -0.1046(5) 0.2401(3) -0.0292(3)
H27 H -0.2038 0.2294 -0.0299
loop_
_geom_bond_atom_site_label_1
_geom_bond_atom_site_label_2
_geom_bond_site_symmetry_1
_geom_bond_site_symmetry_2
S1 O1 1_555 1_555
S2 O2 1_555 1_555
S3 C6 1_555 1_555
O3 S1 1_555 1_555
C1 N1 1_555 1_555
O4 S2 1_555 1_555
C2 S1 1_555 1_555
C3 S2 1_555 1_555
N1 S1 1_555 1_555
C4 H1 1_555 1_555
H2 C4 1_555 1_555
C5 C2 1_555 1_555
H3 C5 1_555 1_555
C6 C1 1_555 1_555
C7 C1 1_555 1_555
C8 C7 1_555 1_555
H4 C8 1_555 1_555
C9 C4 1_555 1_555
H5 C9 1_555 1_555
H6 C9 1_555 1_555
C10 C7 1_555 1_555
H7 C10 1_555 1_555
C11 C2 1_555 1_555
H8 C11 1_555 1_555
C12 H9 1_555 1_555
C13 H10 1_555 1_555
C14 S3 1_555 1_555
H11 C14 1_555 1_555
H12 C14 1_555 1_555
C15 C3 1_555 1_555
H13 C15 1_555 1_555
C16 C5 1_555 1_555
H14 C16 1_555 1_555
C17 C10 1_555 1_555
H15 C17 1_555 1_555
C18 C8 1_555 1_555
H16 C18 1_555 1_555
C19 H17 1_555 1_555
C20 C3 1_555 1_555
H18 C20 1_555 1_555
C21 C19 1_555 1_555
H19 C21 1_555 1_555
C22 C14 1_555 1_555
H20 C22 1_555 1_555
H21 C22 1_555 1_555
H22 C22 1_555 1_555
C23 C11 1_555 1_555
H23 C23 1_555 1_555
C24 C9 1_555 1_555
H24 C24 1_555 1_555
H25 C24 1_555 1_555
H26 C24 1_555 1_555
C25 C15 1_555 1_555
H27 C25 1_555 1_555
S2 N1 1_555 1_555
C4 C6 1_555 1_555
C12 C17 1_555 1_555
C12 C18 1_555 1_555
C13 C16 1_555 1_555
C13 C23 1_555 1_555
C19 C25 1_555 1_555
C20 C21 1_555 1_555

#END
