
#######################################################################
#
#                 Cambridge Crystallographic Data Centre
#                                CCDC 
#
#######################################################################
#
# If this CIF has been generated from an entry in the Cambridge 
# Structural Database, then it will include bibliographic, chemical, 
# crystal, experimental, refinement or atomic coordinate data resulting 
# from the CCDC's data processing and validation procedures.
#
#######################################################################

data_IJIJAN
_chemical_name_common            "ibuprofen hemikis(4,4'-bipyridine)"
_chemical_formula_moiety         'C13 H18 O2,0.5(C10 H8 N2)'
_chemical_name_systematic        
"2-(4-Isobutylphenyl)propanoic acid hemikis(4,4'-bipyridine)"
_symmetry_cell_setting           monoclinic
_symmetry_space_group_name_H-M   'P 21'
_symmetry_Int_Tables_number      4
_space_group_name_Hall           'P 2yb'
loop_
_symmetry_equiv_pos_site_id
_symmetry_equiv_pos_as_xyz
1 x,y,z
2 -x,1/2+y,-z
_cell_length_a                   5.725(2)
_cell_length_b                   48.556(19)
_cell_length_c                   11.522(4)
_cell_angle_alpha                90
_cell_angle_beta                 103.316(8)
_cell_angle_gamma                90
_cell_volume                     3116.81
_cell_formula_units_Z            8
loop_
_atom_site_label
_atom_site_type_symbol
_atom_site_fract_x
_atom_site_fract_y
_atom_site_fract_z
O1 O 0.9282(10) 0.16462(13) 0.2560(6)
H1 H 0.9139 0.1778 0.2981
O2 O 1.2380(10) 0.18812(12) 0.2251(6)
C1 C 1.1136(14) 0.16846(16) 0.2089(7)
C2 C 1.1443(16) 0.14416(16) 0.1300(7)
H2 H 0.985(15) 0.1389(15) 0.083(8)
C3 C 1.2956(16) 0.15217(18) 0.0456(8)
H3 H 1.2296 0.1683 0.0023
H4 H 1.2982 0.1374 -0.0093
H5 H 1.4562 0.1560 0.0897
C4 C 1.2490(14) 0.11950(15) 0.2102(7)
C5 C 1.1123(15) 0.09700(18) 0.2167(8)
H6 H 0.9521 0.0966 0.1758
C6 C 1.2136(17) 0.0746(2) 0.2850(9)
H7 H 1.1180 0.0593 0.2902
C7 C 1.4469(16) 0.07420(18) 0.3443(7)
C8 C 1.5822(16) 0.0973(2) 0.3376(8)
H8 H 1.7420 0.0979 0.3790
C9 C 1.4818(14) 0.11979(18) 0.2693(7)
H9 H 1.5758 0.1352 0.2643
C10 C 1.554(2) 0.0495(2) 0.4136(9)
H10 H 1.7125 0.0464 0.3999
H11 H 1.4559 0.0335 0.3843
C11 C 1.574(3) 0.0523(2) 0.5487(12)
H12 H 1.67(2) 0.069(2) 0.577(11)
C12 C 1.343(3) 0.0554(3) 0.5802(11)
H13 H 1.2410 0.0403 0.5484
H14 H 1.2700 0.0724 0.5475
H15 H 1.3674 0.0558 0.6654
C13 C 1.707(3) 0.0263(3) 0.6118(13)
H16 H 1.7912 0.0311 0.6914
H17 H 1.8203 0.0199 0.5679
H18 H 1.5930 0.0120 0.6149
O3 O 0.9112(10) 0.16499(11) -0.2595(5)
H19 H 0.8940 0.1794 -0.2249
O4 O 1.2369(10) 0.18623(12) -0.2875(6)
C14 C 1.1067(13) 0.16662(18) -0.3012(8)
C15 C 1.1422(18) 0.14018(17) -0.3651(8)
H20 H 0.986(16) 0.1338(17) -0.412(9)
C16 C 1.3073(17) 0.1450(2) -0.4481(8)
H21 H 1.2330 0.1575 -0.5100
H22 H 1.3379 0.1278 -0.4829
H23 H 1.4559 0.1526 -0.4040
C17 C 1.2403(14) 0.11912(16) -0.2664(7)
C18 C 1.0857(16) 0.10069(17) -0.2325(10)
H24 H 0.9239 0.1011 -0.2709
C19 C 1.1624(17) 0.08198(18) -0.1451(9)
H25 H 1.0544 0.0693 -0.1270
C20 C 1.3952(18) 0.08148(18) -0.0833(8)
C21 C 1.5564(16) 0.10028(18) -0.1171(8)
H26 H 1.7179 0.1002 -0.0782
C22 C 1.4743(15) 0.11854(18) -0.2071(9)
H27 H 1.5813 0.1309 -0.2283
C23 C 1.489(2) 0.0614(2) 0.0172(9)
H28 H 1.6173 0.0704 0.0743
H29 H 1.3606 0.0578 0.0574
C24 C 1.581(3) 0.0344(3) -0.0164(13)
H30 H 1.70(2) 0.038(2) -0.066(12)
C25 C 1.370(3) 0.0174(3) -0.0892(15)
H31 H 1.2737 0.0107 -0.0373
H32 H 1.4317 0.0021 -0.1258
H33 H 1.2740 0.0288 -0.1498
C26 C 1.706(3) 0.0190(3) 0.0927(13)
H34 H 1.8499 0.0286 0.1306
H35 H 1.7473 0.0008 0.0704
H36 H 1.6024 0.0175 0.1469
O5 O 0.5025(9) 0.33164(11) 0.9832(5)
H37 H 0.5509 0.3175 0.9576
O6 O 0.2081(10) 0.30425(12) 1.0071(6)
C27 C 0.3009(14) 0.32647(17) 1.0156(6)
C28 C 0.1908(16) 0.35132(17) 1.0659(7)
H38 H 0.039(14) 0.3455(15) 1.084(8)
C29 C 0.356(2) 0.3607(2) 1.1804(8)
H39 H 0.3690 0.3466 1.2396
H40 H 0.2935 0.3772 1.2080
H41 H 0.5125 0.3645 1.1665
C30 C 0.1350(15) 0.37316(15) 0.9678(6)
C31 C 0.3032(16) 0.39155(17) 0.9483(8)
H42 H 0.4569 0.3908 0.9973
C32 C 0.2550(14) 0.41094(17) 0.8600(8)
H43 H 0.3744 0.4231 0.8502
C33 C 0.0245(16) 0.41251(16) 0.7839(8)
C34 C -0.1447(15) 0.39445(16) 0.8057(8)
H44 H -0.2999 0.3952 0.7584
C35 C -0.0897(15) 0.37498(16) 0.8972(8)
H45 H -0.2088 0.3631 0.9099
C36 C -0.0263(18) 0.43254(17) 0.6830(7)
H46 H 0.0992 0.4309 0.6394
H47 H -0.1763 0.4274 0.6291
C37 C -0.0431(19) 0.4617(2) 0.7165(9)
H48 H 0.102(17) 0.4662(18) 0.777(9)
C38 C -0.052(3) 0.4809(2) 0.6108(11)
H49 H 0.0914 0.4785 0.5818
H50 H -0.0624 0.4996 0.6356
H51 H -0.1894 0.4765 0.5485
C39 C -0.255(2) 0.4685(2) 0.7671(10)
H52 H -0.4001 0.4661 0.7066
H53 H -0.2434 0.4872 0.7945
H54 H -0.2576 0.4564 0.8327
O7 O 0.4686(10) 0.33027(11) 0.4624(5)
H55 H 0.5261 0.3172 0.4333
O8 O 0.2130(12) 0.29878(13) 0.4941(6)
C40 C 0.2792(15) 0.32202(18) 0.4987(7)
C41 C 0.1513(16) 0.34416(18) 0.5565(8)
H56 H -0.012(15) 0.3376(15) 0.554(8)
C42 C 0.2832(19) 0.34669(19) 0.6859(7)
H57 H 0.4463 0.3521 0.6903
H58 H 0.2811 0.3293 0.7249
H59 H 0.2059 0.3603 0.7244
C43 C 0.1310(14) 0.37163(17) 0.4882(7)
C44 C 0.3172(16) 0.38926(19) 0.4975(8)
H60 H 0.4675 0.3844 0.5432
C45 C 0.2879(15) 0.41374(18) 0.4415(7)
H61 H 0.4199 0.4253 0.4496
C46 C 0.0727(15) 0.42230(16) 0.3732(8)
C47 C -0.1161(17) 0.40408(19) 0.3659(9)
H62 H -0.2672 0.4091 0.3216
C48 C -0.0881(15) 0.37873(18) 0.4220(8)
H63 H -0.2175 0.3668 0.4145
C49 C 0.035(2) 0.4497(2) 0.3123(8)
H64 H 0.1490 0.4625 0.3587
H65 H -0.1243 0.4561 0.3144
C50 C 0.059(2) 0.4510(3) 0.1846(10)
H66 H 0.00(2) 0.470(2) 0.160(13)
C51 C 0.265(4) 0.4519(6) 0.1736(15)
H67 H 0.3724 0.4533 0.2508
H68 H 0.2855 0.4677 0.1266
H69 H 0.3007 0.4354 0.1346
C52 C -0.112(2) 0.4330(2) 0.0998(9)
H70 H -0.0516 0.4298 0.0298
H71 H -0.2656 0.4418 0.0776
H72 H -0.1286 0.4157 0.1376
N1 N 0.8585(12) 0.20178(15) 0.4086(6)
N2 N 0.6109(11) 0.29361(13) 0.8394(6)
C53 C 0.6848(14) 0.19648(17) 0.4638(7)
H73 H 0.5962 0.1804 0.4447
C54 C 0.6292(14) 0.21406(17) 0.5494(7)
H74 H 0.5065 0.2098 0.5870
C55 C 0.7596(13) 0.23771(16) 0.5767(7)
C56 C 0.9423(12) 0.24298(17) 0.5224(8)
H75 H 1.0364 0.2587 0.5406
C57 C 0.9835(16) 0.22398(18) 0.4385(9)
H76 H 1.1089 0.2275 0.4016
C58 C 0.4912(15) 0.27044(16) 0.8143(8)
H77 H 0.3750 0.2664 0.8564
C59 C 0.5262(13) 0.25168(16) 0.7299(7)
H78 H 0.4354 0.2356 0.7153
C60 C 0.7022(14) 0.25749(14) 0.6670(7)
C61 C 0.8241(15) 0.28137(17) 0.6934(8)
H79 H 0.9424 0.2860 0.6534
C62 C 0.7762(14) 0.29907(18) 0.7788(8)
H80 H 0.8628 0.3154 0.7943
N3 N 0.8589(11) 0.20274(13) -0.1069(6)
N4 N 0.6085(14) 0.29395(14) 0.3224(6)
C63 C 0.6834(14) 0.19731(17) -0.0525(7)
H81 H 0.5886 0.1818 -0.0745
C64 C 0.6381(15) 0.21448(17) 0.0372(7)
H82 H 0.5149 0.2101 0.0743
C65 C 0.7731(13) 0.23782(17) 0.0714(6)
C66 C 0.9538(14) 0.24262(17) 0.0114(7)
H83 H 1.0489 0.2583 0.0291
C67 C 0.9939(14) 0.22462(16) -0.0735(8)
H84 H 1.1215 0.2280 -0.1090
C68 C 0.5015(13) 0.27031(18) 0.3033(6)
H85 H 0.3879 0.2661 0.3467
C69 C 0.5446(14) 0.25115(16) 0.2236(7)
H86 H 0.4621 0.2345 0.2131
C70 C 0.7141(13) 0.25723(16) 0.1593(7)
C71 C 0.8258(14) 0.28256(15) 0.1786(7)
H87 H 0.9367 0.2878 0.1352
C72 C 0.7711(15) 0.30010(18) 0.2635(7)
H88 H 0.8525 0.3168 0.2789
loop_
_geom_bond_atom_site_label_1
_geom_bond_atom_site_label_2
_geom_bond_site_symmetry_1
_geom_bond_site_symmetry_2
O1 H1 1_555 1_555
O2 C1 1_555 1_555
C1 O1 1_555 1_555
C2 C1 1_555 1_555
H2 C2 1_555 1_555
C3 C2 1_555 1_555
H3 C3 1_555 1_555
H4 C3 1_555 1_555
H5 C3 1_555 1_555
C4 C2 1_555 1_555
C5 C4 1_555 1_555
H6 C5 1_555 1_555
C6 C5 1_555 1_555
H7 C6 1_555 1_555
C7 C6 1_555 1_555
C8 C7 1_555 1_555
H8 C8 1_555 1_555
C9 C4 1_555 1_555
H9 C9 1_555 1_555
C10 C7 1_555 1_555
H10 C10 1_555 1_555
H11 C10 1_555 1_555
C11 C10 1_555 1_555
H12 C11 1_555 1_555
C12 C11 1_555 1_555
H13 C12 1_555 1_555
H14 C12 1_555 1_555
H15 C12 1_555 1_555
C13 C11 1_555 1_555
H16 C13 1_555 1_555
H17 C13 1_555 1_555
H18 C13 1_555 1_555
O3 H19 1_555 1_555
O4 C14 1_555 1_555
C14 O3 1_555 1_555
C15 C14 1_555 1_555
H20 C15 1_555 1_555
C16 C15 1_555 1_555
H21 C16 1_555 1_555
H22 C16 1_555 1_555
H23 C16 1_555 1_555
C17 C15 1_555 1_555
C18 C17 1_555 1_555
H24 C18 1_555 1_555
C19 C18 1_555 1_555
H25 C19 1_555 1_555
C20 C19 1_555 1_555
C21 C20 1_555 1_555
H26 C21 1_555 1_555
C22 C17 1_555 1_555
H27 C22 1_555 1_555
C23 C20 1_555 1_555
H28 C23 1_555 1_555
H29 C23 1_555 1_555
C24 C23 1_555 1_555
H30 C24 1_555 1_555
C25 C24 1_555 1_555
H31 C25 1_555 1_555
H32 C25 1_555 1_555
H33 C25 1_555 1_555
C26 C24 1_555 1_555
H34 C26 1_555 1_555
H35 C26 1_555 1_555
H36 C26 1_555 1_555
O5 H37 1_555 1_555
O6 C27 1_555 1_555
C27 O5 1_555 1_555
C28 C27 1_555 1_555
H38 C28 1_555 1_555
C29 C28 1_555 1_555
H39 C29 1_555 1_555
H40 C29 1_555 1_555
H41 C29 1_555 1_555
C30 C28 1_555 1_555
C31 C30 1_555 1_555
H42 C31 1_555 1_555
C32 C31 1_555 1_555
H43 C32 1_555 1_555
C33 C32 1_555 1_555
C34 C33 1_555 1_555
H44 C34 1_555 1_555
C35 C30 1_555 1_555
H45 C35 1_555 1_555
C36 C33 1_555 1_555
H46 C36 1_555 1_555
H47 C36 1_555 1_555
C37 C36 1_555 1_555
H48 C37 1_555 1_555
C38 C37 1_555 1_555
H49 C38 1_555 1_555
H50 C38 1_555 1_555
H51 C38 1_555 1_555
C39 C37 1_555 1_555
H52 C39 1_555 1_555
H53 C39 1_555 1_555
H54 C39 1_555 1_555
O7 H55 1_555 1_555
O8 C40 1_555 1_555
C40 O7 1_555 1_555
C41 C40 1_555 1_555
H56 C41 1_555 1_555
C42 C41 1_555 1_555
H57 C42 1_555 1_555
H58 C42 1_555 1_555
H59 C42 1_555 1_555
C43 C41 1_555 1_555
C44 C43 1_555 1_555
H60 C44 1_555 1_555
C45 C44 1_555 1_555
H61 C45 1_555 1_555
C46 C45 1_555 1_555
C47 C46 1_555 1_555
H62 C47 1_555 1_555
C48 C43 1_555 1_555
H63 C48 1_555 1_555
C49 C46 1_555 1_555
H64 C49 1_555 1_555
H65 C49 1_555 1_555
C50 C49 1_555 1_555
H66 C50 1_555 1_555
C51 C50 1_555 1_555
H67 C51 1_555 1_555
H68 C51 1_555 1_555
H69 C51 1_555 1_555
C52 C50 1_555 1_555
H70 C52 1_555 1_555
H71 C52 1_555 1_555
H72 C52 1_555 1_555
N1 C53 1_555 1_555
N2 C58 1_555 1_555
C53 H73 1_555 1_555
C54 C53 1_555 1_555
H74 C54 1_555 1_555
C55 C54 1_555 1_555
C56 C55 1_555 1_555
H75 C56 1_555 1_555
C57 N1 1_555 1_555
H76 C57 1_555 1_555
C58 H77 1_555 1_555
C59 C58 1_555 1_555
H78 C59 1_555 1_555
C60 C55 1_555 1_555
C61 C60 1_555 1_555
H79 C61 1_555 1_555
C62 N2 1_555 1_555
H80 C62 1_555 1_555
N3 C63 1_555 1_555
N4 C68 1_555 1_555
C63 H81 1_555 1_555
C64 C63 1_555 1_555
H82 C64 1_555 1_555
C65 C64 1_555 1_555
C66 C65 1_555 1_555
H83 C66 1_555 1_555
C67 N3 1_555 1_555
H84 C67 1_555 1_555
C68 H85 1_555 1_555
C69 C68 1_555 1_555
H86 C69 1_555 1_555
C70 C65 1_555 1_555
C71 C70 1_555 1_555
H87 C71 1_555 1_555
C72 N4 1_555 1_555
H88 C72 1_555 1_555
C8 C9 1_555 1_555
C21 C22 1_555 1_555
C34 C35 1_555 1_555
C47 C48 1_555 1_555
C56 C57 1_555 1_555
C59 C60 1_555 1_555
C61 C62 1_555 1_555
C66 C67 1_555 1_555
C69 C70 1_555 1_555
C71 C72 1_555 1_555

#END
