
#######################################################################
#
#                 Cambridge Crystallographic Data Centre
#                                CCDC 
#
#######################################################################
#
# If this CIF has been generated from an entry in the Cambridge 
# Structural Database, then it will include bibliographic, chemical, 
# crystal, experimental, refinement or atomic coordinate data resulting 
# from the CCDC's data processing and validation procedures.
#
#######################################################################

data_IJIQIC
_chemical_formula_moiety         'C50 H60 N4 O12 S4'
_chemical_name_systematic        
5,11,17,23-Tetra-t-butyl-25,26-bis(N-carbamoylcarbamoylmethoxy)-27,28-bis(carboxymethoxy)-2,8,14,20-tetrathiacalix(4)arene
_symmetry_cell_setting           monoclinic
_symmetry_space_group_name_H-M   'C 2/c'
_symmetry_Int_Tables_number      15
_space_group_name_Hall           '-C 2yn'
loop_
_symmetry_equiv_pos_site_id
_symmetry_equiv_pos_as_xyz
1 x,y,z
2 -x,y,1/2-z
3 1/2+x,1/2+y,z
4 1/2-x,1/2+y,1/2-z
5 -x,-y,-z
6 x,-y,1/2+z
7 1/2-x,1/2-y,-z
8 1/2+x,1/2-y,1/2+z
_cell_length_a                   24.5640(7)
_cell_length_b                   20.0520(5)
_cell_length_c                   10.7714(3)
_cell_angle_alpha                90
_cell_angle_beta                 93.394(2)
_cell_angle_gamma                90
_cell_volume                     5296.23
_exptl_crystal_colour            colorless
_exptl_crystal_description       block
_chemical_melting_point          'above 300 deg.C'
_cell_formula_units_Z            4
loop_
_atom_site_label
_atom_site_type_symbol
_atom_site_fract_x
_atom_site_fract_y
_atom_site_fract_z
C1 C 0.51653(17) 0.1759(2) 0.4180(4)
C2 C 0.48463(18) 0.1226(2) 0.3764(4)
C3 C 0.44166(18) 0.1013(2) 0.4444(5)
H1 H 0.4212 0.0648 0.4159
C4 C 0.42833(16) 0.1323(2) 0.5527(4)
C5 C 0.45897(18) 0.1872(2) 0.5893(4)
H2 H 0.4500 0.2102 0.6602
C6 C 0.50273(17) 0.2098(2) 0.5247(4)
C7 C 0.38144(19) 0.1083(2) 0.6297(5)
C8 C 0.4051(3) 0.0894(3) 0.7599(6)
H3 H 0.3764 0.0730 0.8085
H4 H 0.4213 0.1281 0.7996
H5 H 0.4322 0.0555 0.7532
C9 C 0.3522(3) 0.0490(5) 0.5735(8)
H6 H 0.3253 0.0340 0.6282
H7 H 0.3779 0.0139 0.5616
H8 H 0.3347 0.0613 0.4948
C10 C 0.3413(3) 0.1660(4) 0.6432(8)
H9 H 0.3245 0.1770 0.5631
H10 H 0.3606 0.2042 0.6770
H11 H 0.3138 0.1530 0.6980
C11 C 0.6075(2) 0.1631(3) 0.3735(6)
H12 H 0.6009 0.1157 0.3639
H13 H 0.6222 0.1712 0.4578
C12 C 0.6485(2) 0.1862(3) 0.2806(5)
C13 C 0.56472(17) 0.3281(2) 0.4862(4)
C14 C 0.52689(16) 0.3660(2) 0.4182(4)
C15 C 0.54528(18) 0.4131(2) 0.3363(4)
C16 C 0.60092(18) 0.4240(2) 0.3306(4)
H14 H 0.6128 0.4554 0.2747
C17 C 0.63907(16) 0.3899(2) 0.4048(4)
C18 C 0.61943(17) 0.3407(2) 0.4794(4)
H15 H 0.6442 0.3149 0.5271
C19 C 0.70032(17) 0.4072(3) 0.4121(4)
C20 C 0.7355(2) 0.3452(4) 0.4207(7)
H16 H 0.7316 0.3211 0.3437
H17 H 0.7243 0.3174 0.4871
H18 H 0.7730 0.3577 0.4367
C21 C 0.7162(2) 0.4461(4) 0.3003(6)
H19 H 0.7538 0.4589 0.3112
H20 H 0.6939 0.4854 0.2912
H21 H 0.7110 0.4190 0.2272
C22 C 0.7103(3) 0.4495(4) 0.5296(7)
H22 H 0.7481 0.4618 0.5386
H23 H 0.7009 0.4241 0.6008
H24 H 0.6883 0.4890 0.5231
C23 C 0.4564(2) 0.3984(4) 0.5402(7)
H25 H 0.4572 0.4453 0.5181
H26 H 0.4830 0.3914 0.6093
C24 C 0.4001(2) 0.3808(3) 0.5809(6)
C25 C 0.3173(2) 0.3208(3) 0.5103(6)
N1 N 0.37072(16) 0.3431(2) 0.5004(4)
H27 H 0.3864 0.3311 0.4347
N2 N 0.29225(19) 0.3383(3) 0.6101(5)
H28 H 0.2593 0.3254 0.6192
H29 H 0.3088 0.3627 0.6662
O1 O 0.55879(12) 0.19835(16) 0.3514(3)
O2 O 0.6877(2) 0.1544(3) 0.2661(5)
O3 O 0.63512(16) 0.2410(2) 0.2248(4)
H30 H 0.6584 0.2509 0.1764
O4 O 0.47163(12) 0.35922(17) 0.4358(3)
O5 O 0.38473(18) 0.4031(3) 0.6771(5)
O6 O 0.29589(14) 0.2851(2) 0.4239(4)
S1 S 0.5000 0.07082(8) 0.2500
S2 S 0.54500(6) 0.27081(8) 0.59993(11)
S3 S 0.5000 0.46706(9) 0.2500
C1A C 0.48347(17) 0.1759(2) 0.0820(4)
C2A C 0.51537(18) 0.1226(2) 0.1236(4)
C3A C 0.55834(18) 0.1013(2) 0.0556(5)
H1A H 0.5788 0.0648 0.0841
C4A C 0.57167(16) 0.1323(2) -0.0527(4)
C5A C 0.54103(18) 0.1872(2) -0.0893(4)
H2A H 0.5500 0.2102 -0.1602
C6A C 0.49727(17) 0.2098(2) -0.0247(4)
C7A C 0.61856(19) 0.1083(2) -0.1297(5)
C8A C 0.5949(3) 0.0894(3) -0.2599(6)
H3A H 0.6236 0.0730 -0.3085
H4A H 0.5787 0.1281 -0.2996
H5A H 0.5678 0.0555 -0.2532
C9A C 0.6478(3) 0.0490(5) -0.0735(8)
H6A H 0.6747 0.0340 -0.1282
H7A H 0.6221 0.0139 -0.0616
H8A H 0.6653 0.0613 0.0052
C10A C 0.6587(3) 0.1660(4) -0.1432(8)
H9A H 0.6755 0.1770 -0.0631
H10A H 0.6394 0.2042 -0.1770
H11A H 0.6862 0.1530 -0.1980
C11A C 0.3925(2) 0.1631(3) 0.1265(6)
H12A H 0.3991 0.1157 0.1361
H13A H 0.3778 0.1712 0.0422
C12A C 0.3515(2) 0.1862(3) 0.2194(5)
C13A C 0.43528(17) 0.3281(2) 0.0138(4)
C14A C 0.47311(16) 0.3660(2) 0.0818(4)
C15A C 0.45472(18) 0.4131(2) 0.1637(4)
C16A C 0.39908(18) 0.4240(2) 0.1694(4)
H14A H 0.3872 0.4554 0.2253
C17A C 0.36093(16) 0.3899(2) 0.0952(4)
C18A C 0.38057(17) 0.3407(2) 0.0206(4)
H15A H 0.3558 0.3149 -0.0271
C19A C 0.29968(17) 0.4072(3) 0.0879(4)
C20A C 0.2645(2) 0.3452(4) 0.0793(7)
H16A H 0.2684 0.3211 0.1563
H17A H 0.2757 0.3174 0.0129
H18A H 0.2270 0.3577 0.0633
C21A C 0.2838(2) 0.4461(4) 0.1997(6)
H19A H 0.2462 0.4589 0.1888
H20A H 0.3061 0.4854 0.2088
H21A H 0.2890 0.4190 0.2728
C22A C 0.2897(3) 0.4495(4) -0.0296(7)
H22A H 0.2519 0.4618 -0.0386
H23A H 0.2991 0.4241 -0.1008
H24A H 0.3117 0.4890 -0.0231
C23A C 0.5436(2) 0.3984(4) -0.0402(7)
H25A H 0.5428 0.4453 -0.0181
H26A H 0.5170 0.3914 -0.1093
C24A C 0.5999(2) 0.3808(3) -0.0809(6)
C25A C 0.6827(2) 0.3208(3) -0.0103(6)
N1A N 0.62928(16) 0.3431(2) -0.0004(4)
H27A H 0.6136 0.3311 0.0653
N2A N 0.70775(19) 0.3383(3) -0.1101(5)
H28A H 0.7407 0.3254 -0.1192
H29A H 0.6912 0.3627 -0.1662
O1A O 0.44121(12) 0.19835(16) 0.1486(3)
O2A O 0.3123(2) 0.1544(3) 0.2339(5)
O3A O 0.36488(16) 0.2410(2) 0.2752(4)
H30A H 0.3416 0.2509 0.3236
O4A O 0.52837(12) 0.35922(17) 0.0642(3)
O5A O 0.61527(18) 0.4031(3) -0.1771(5)
O6A O 0.70411(14) 0.2851(2) 0.0761(4)
S2A S 0.45500(6) 0.27081(8) -0.09993(11)
loop_
_geom_bond_atom_site_label_1
_geom_bond_atom_site_label_2
_geom_bond_site_symmetry_1
_geom_bond_site_symmetry_2
C1 C2 1_555 1_555
C2 C3 1_555 1_555
C3 H1 1_555 1_555
C4 C3 1_555 1_555
C5 C4 1_555 1_555
H2 C5 1_555 1_555
C6 C1 1_555 1_555
C7 C4 1_555 1_555
C8 C7 1_555 1_555
H3 C8 1_555 1_555
H4 C8 1_555 1_555
H5 C8 1_555 1_555
C9 C7 1_555 1_555
H6 C9 1_555 1_555
H7 C9 1_555 1_555
H8 C9 1_555 1_555
C10 C7 1_555 1_555
H9 C10 1_555 1_555
H10 C10 1_555 1_555
H11 C10 1_555 1_555
C11 H12 1_555 1_555
H13 C11 1_555 1_555
C12 C11 1_555 1_555
C13 C14 1_555 1_555
C14 C15 1_555 1_555
C15 C16 1_555 1_555
C16 H14 1_555 1_555
C17 C16 1_555 1_555
C18 C13 1_555 1_555
H15 C18 1_555 1_555
C19 C17 1_555 1_555
C20 C19 1_555 1_555
H16 C20 1_555 1_555
H17 C20 1_555 1_555
H18 C20 1_555 1_555
C21 C19 1_555 1_555
H19 C21 1_555 1_555
H20 C21 1_555 1_555
H21 C21 1_555 1_555
C22 C19 1_555 1_555
H22 C22 1_555 1_555
H23 C22 1_555 1_555
H24 C22 1_555 1_555
C23 H25 1_555 1_555
H26 C23 1_555 1_555
C24 C23 1_555 1_555
C25 N1 1_555 1_555
N1 C24 1_555 1_555
H27 N1 1_555 1_555
N2 C25 1_555 1_555
H28 N2 1_555 1_555
H29 N2 1_555 1_555
O1 C1 1_555 1_555
O2 C12 1_555 1_555
O3 C12 1_555 1_555
H30 O3 1_555 1_555
O4 C14 1_555 1_555
O5 C24 1_555 1_555
O6 C25 1_555 1_555
S1 C2 1_555 1_555
S2 C6 1_555 1_555
S3 C15 1_555 1_555
C1A C2A 1_555 1_555
C2A S1 1_555 1_555
C3A C2A 1_555 1_555
H1A C3A 1_555 1_555
C4A C3A 1_555 1_555
C5A C4A 1_555 1_555
H2A C5A 1_555 1_555
C6A C1A 1_555 1_555
C7A C4A 1_555 1_555
C8A C7A 1_555 1_555
H3A C8A 1_555 1_555
H4A C8A 1_555 1_555
H5A C8A 1_555 1_555
C9A C7A 1_555 1_555
H6A C9A 1_555 1_555
H7A C9A 1_555 1_555
H8A C9A 1_555 1_555
C10A C7A 1_555 1_555
H9A C10A 1_555 1_555
H10A C10A 1_555 1_555
H11A C10A 1_555 1_555
C11A H12A 1_555 1_555
H13A C11A 1_555 1_555
C12A C11A 1_555 1_555
C13A C14A 1_555 1_555
C14A C15A 1_555 1_555
C15A S3 1_555 1_555
C16A C15A 1_555 1_555
H14A C16A 1_555 1_555
C17A C16A 1_555 1_555
C18A C13A 1_555 1_555
H15A C18A 1_555 1_555
C19A C17A 1_555 1_555
C20A C19A 1_555 1_555
H16A C20A 1_555 1_555
H17A C20A 1_555 1_555
H18A C20A 1_555 1_555
C21A C19A 1_555 1_555
H19A C21A 1_555 1_555
H20A C21A 1_555 1_555
H21A C21A 1_555 1_555
C22A C19A 1_555 1_555
H22A C22A 1_555 1_555
H23A C22A 1_555 1_555
H24A C22A 1_555 1_555
C23A H25A 1_555 1_555
H26A C23A 1_555 1_555
C24A C23A 1_555 1_555
C25A N1A 1_555 1_555
N1A C24A 1_555 1_555
H27A N1A 1_555 1_555
N2A C25A 1_555 1_555
H28A N2A 1_555 1_555
H29A N2A 1_555 1_555
O1A C1A 1_555 1_555
O2A C12A 1_555 1_555
O3A C12A 1_555 1_555
H30A O3A 1_555 1_555
O4A C14A 1_555 1_555
O5A C24A 1_555 1_555
O6A C25A 1_555 1_555
S2A C6A 1_555 1_555
C5 C6 1_555 1_555
C11 O1 1_555 1_555
C13 S2 1_555 1_555
C17 C18 1_555 1_555
C23 O4 1_555 1_555
C5A C6A 1_555 1_555
C11A O1A 1_555 1_555
C13A S2A 1_555 1_555
C17A C18A 1_555 1_555
C23A O4A 1_555 1_555

#END
