
#######################################################################
#
#                 Cambridge Crystallographic Data Centre
#                                CCDC 
#
#######################################################################
#
# If this CIF has been generated from an entry in the Cambridge 
# Structural Database, then it will include bibliographic, chemical, 
# crystal, experimental, refinement or atomic coordinate data resulting 
# from the CCDC's data processing and validation procedures.
#
#######################################################################

data_IJIQAU
_chemical_formula_moiety         'C48 H56 O12 S4,4(C2 H6 O1),2(H2 O1)'
_chemical_name_systematic        
'5,11,17,23-Tetra-t-butyl-25,26,27,28-tetrakis(carboxymethoxy)-2,8,14,20-tetrathiacalix(4)arene ethanol solvate dihydrate'
_symmetry_cell_setting           triclinic
_symmetry_space_group_name_H-M   'P -1'
_symmetry_Int_Tables_number      2
_space_group_name_Hall           '-P 1'
loop_
_symmetry_equiv_pos_site_id
_symmetry_equiv_pos_as_xyz
1 x,y,z
2 -x,-y,-z
_cell_length_a                   10.5110(13)
_cell_length_b                   16.749(2)
_cell_length_c                   18.137(2)
_cell_angle_alpha                88.538(2)
_cell_angle_beta                 77.585(2)
_cell_angle_gamma                87.949(2)
_cell_volume                     3115.81
_exptl_crystal_colour            colorless
_exptl_crystal_description       plate
_cell_formula_units_Z            2
loop_
_atom_site_label
_atom_site_type_symbol
_atom_site_fract_x
_atom_site_fract_y
_atom_site_fract_z
C1 C 0.4579(4) 0.8254(3) 0.2757(2)
C2 C 0.4305(4) 0.7453(3) 0.2892(2)
H1 H 0.3973 0.7170 0.2530
C3 C 0.4500(4) 0.7047(3) 0.3545(2)
C4 C 0.5026(4) 0.7476(2) 0.4049(2)
H2 H 0.5201 0.7213 0.4488
C5 C 0.5303(4) 0.8284(2) 0.3926(2)
C6 C 0.5037(4) 0.8682(2) 0.3295(2)
C7 C 0.4154(5) 0.6172(3) 0.3680(3)
C8 C 0.4508(7) 0.5828(3) 0.4391(4)
H3 H 0.5437 0.5897 0.4367
H4 H 0.4322 0.5257 0.4435
H5 H 0.3993 0.6105 0.4831
C9 C 0.4881(7) 0.5677(3) 0.3004(4)
H6 H 0.5822 0.5742 0.2938
H7 H 0.4602 0.5862 0.2545
H8 H 0.4682 0.5111 0.3098
C10 C 0.2680(6) 0.6104(4) 0.3741(4)
H9 H 0.2428 0.5554 0.3878
H10 H 0.2466 0.6251 0.3254
H11 H 0.2207 0.6466 0.4130
C11 C 0.4029(4) 0.9931(3) 0.3493(3)
H12 H 0.3764 0.9833 0.4045
H13 H 0.3332 0.9744 0.3255
C12 C 0.4211(4) 1.0814(3) 0.3333(2)
C13 C 0.7293(4) 0.9242(3) 0.4210(2)
C14 C 0.8366(4) 0.8788(3) 0.3836(2)
C15 C 0.9523(4) 0.9168(3) 0.3534(2)
C16 C 0.9622(4) 0.9983(3) 0.3656(2)
H14 H 1.0426 1.0233 0.3462
C17 C 0.8574(4) 1.0437(3) 0.4054(2)
C18 C 0.7400(4) 1.0047(3) 0.4310(2)
H15 H 0.6654 1.0348 0.4559
C19 C 0.8654(4) 1.1330(3) 0.4208(2)
C20 C 0.8286(5) 1.1448(3) 0.5062(3)
H16 H 0.8894 1.1136 0.5304
H17 H 0.7398 1.1269 0.5258
H18 H 0.8332 1.2016 0.5170
C21 C 0.7691(5) 1.1816(3) 0.3834(3)
H19 H 0.7705 1.2381 0.3960
H20 H 0.6810 1.1619 0.4018
H21 H 0.7941 1.1759 0.3285
C22 C 1.0020(5) 1.1638(3) 0.3918(3)
H22 H 1.0635 1.1336 0.4163
H23 H 1.0030 1.2206 0.4033
H24 H 1.0274 1.1569 0.3370
C23 C 0.8638(5) 0.7526(3) 0.4372(3)
H25 H 0.8016 0.7656 0.4849
H26 H 0.9516 0.7678 0.4423
C24 C 0.8645(6) 0.6654(3) 0.4246(3)
C25 C 1.0528(4) 0.8199(3) 0.2278(2)
C26 C 1.0812(4) 0.7396(3) 0.2149(2)
H27 H 1.1141 0.7082 0.2514
C27 C 1.0629(4) 0.7030(3) 0.1497(2)
C28 C 1.0096(4) 0.7496(3) 0.0993(2)
H28 H 0.9931 0.7256 0.0555
C29 C 0.9796(4) 0.8299(3) 0.1106(2)
C30 C 1.0063(4) 0.8672(2) 0.1742(2)
C31 C 1.0996(5) 0.6144(3) 0.1365(3)
C32 C 1.0213(9) 0.5642(4) 0.2018(4)
H29 H 1.0434 0.5791 0.2494
H30 H 1.0428 0.5074 0.1928
H31 H 0.9279 0.5742 0.2050
C33 C 1.2467(7) 0.6017(4) 0.1317(4)
H32 H 1.2951 0.6294 0.0867
H33 H 1.2693 0.5445 0.1287
H34 H 1.2693 0.6233 0.1768
C34 C 1.0706(7) 0.5854(3) 0.0636(3)
H35 H 0.9766 0.5905 0.0659
H36 H 1.0993 0.5293 0.0566
H37 H 1.1171 0.6177 0.0211
C35 C 1.1020(4) 0.9903(3) 0.1535(3)
H38 H 1.1280 0.9833 0.0983
H39 H 1.1731 0.9676 0.1764
C36 C 1.0837(5) 1.0775(3) 0.1701(3)
C37 C 0.7754(4) 0.9337(3) 0.0823(2)
C38 C 0.6720(4) 0.8885(3) 0.1210(2)
C39 C 0.5534(4) 0.9277(3) 0.1499(2)
C40 C 0.5368(4) 1.0093(3) 0.1366(2)
H40 H 0.4547 1.0349 0.1558
C41 C 0.6387(4) 1.0543(3) 0.0953(2)
C42 C 0.7586(4) 1.0145(3) 0.0701(2)
H41 H 0.8305 1.0440 0.0438
C43 C 0.6249(4) 1.1440(3) 0.0785(2)
C44 C 0.7208(5) 1.1903(3) 0.1138(3)
H42 H 0.6938 1.1874 0.1690
H43 H 0.7206 1.2463 0.0969
H44 H 0.8087 1.1666 0.0980
C45 C 0.4862(5) 1.1768(3) 0.1090(3)
H45 H 0.4251 1.1492 0.0853
H46 H 0.4817 1.2342 0.0975
H47 H 0.4629 1.1680 0.1638
C46 C 0.6565(5) 1.1564(3) -0.0070(3)
H48 H 0.7486 1.1425 -0.0270
H49 H 0.6392 1.2126 -0.0193
H50 H 0.6020 1.1223 -0.0297
C47 C 0.6580(5) 0.7647(3) 0.0688(3)
H51 H 0.7211 0.7789 0.0218
H52 H 0.5696 0.7809 0.0621
C48 C 0.6649(5) 0.6774(3) 0.0824(3)
O1 O 0.5217(3) 0.95005(17) 0.32016(16)
O2 O 0.5221(3) 1.11147(19) 0.3024(2)
O3 O 0.3114(3) 1.1205(2) 0.3582(2)
H68 H 0.3220 1.1696 0.3494
O4 O 0.6867(3) 0.80679(17) 0.13056(16)
O5 O 0.6948(5) 0.6467(2) 0.1402(2)
O6 O 0.6373(6) 0.6372(3) 0.0302(2)
H69 H 0.6427 0.5883 0.0408
O7 O 0.9854(3) 0.94808(16) 0.18253(16)
O8 O 1.1789(3) 1.1188(2) 0.1535(2)
O9 O 0.9693(3) 1.10876(19) 0.19957(19)
H70 H 0.9136 1.0730 0.2063
O10 O 0.8279(3) 0.79738(17) 0.37648(16)
O11 O 0.8278(5) 0.6373(2) 0.3691(2)
H71 H 0.8059 0.6750 0.3424
O12 O 0.9007(6) 0.6213(3) 0.4738(3)
S1 S 0.41428(10) 0.87328(7) 0.19516(6)
S2 S 0.92692(10) 0.88621(7) 0.03764(6)
S3 S 1.09451(10) 0.86185(7) 0.30844(6)
S4 S 0.58118(10) 0.87833(7) 0.46616(6)
C49 C 0.0515(9) 0.3210(5) 0.1155(5)
H53 H 0.0565 0.3621 0.0769
H54 H 0.0485 0.2691 0.0939
H55 H -0.0255 0.3301 0.1539
C53 C 0.1718(12) 0.3251(7) 0.1497(7)
H64 H 0.2506 0.3168 0.1092
H65 H 0.1749 0.3794 0.1695
O15 O 0.1755(5) 0.2715(3) 0.2057(3)
H76 H 0.1747 0.2251 0.1892
C50 C 0.6733(8) 0.4344(4) 0.1446(5)
H56 H 0.7526 0.4237 0.1060
H57 H 0.6595 0.3897 0.1810
H58 H 0.6828 0.4836 0.1708
C51 C 0.5607(9) 0.4438(5) 0.1084(5)
H59 H 0.5306 0.3905 0.0985
H60 H 0.4881 0.4723 0.1425
O16 O 0.5958(6) 0.4871(3) 0.0401(3)
H77 H 0.5312 0.4923 0.0199
C52 C 0.4495(8) 0.3232(5) 0.3784(4)
H61 H 0.3932 0.3624 0.4101
H62 H 0.5401 0.3399 0.3689
H63 H 0.4426 0.2709 0.4042
C54 C 0.4100(10) 0.3177(5) 0.3085(5)
H66 H 0.4800 0.2922 0.2702
H67 H 0.3889 0.3715 0.2896
O17 O 0.2942(5) 0.2688(3) 0.3246(3)
H78 H 0.2667 0.2637 0.2849
O13 O 0.7579(3) 1.03492(19) 0.24696(17)
H72 H 0.7891 0.9892 0.2437
H73 H 0.6844 1.0332 0.2737
O14 O 0.7582(3) 0.7165(2) 0.25555(19)
H74 H 0.7461 0.6889 0.2212
H75 H 0.7469 0.7634 0.2437
C55 C 0.843(3) 0.4209(17) 0.3573(15)
H79 H 0.7757 0.4052 0.4008
H80 H 0.8644 0.3762 0.3223
H81 H 0.8118 0.4671 0.3314
C56 C 0.966(2) 0.4428(15) 0.3842(10)
H82 H 1.0229 0.3944 0.3826
H83 H 1.0132 0.4824 0.3481
O18 O 0.9444(14) 0.4733(9) 0.4551(8)
H84 H 1.0141 0.4705 0.4708
C57? C 0.0660(13) 0.3095(9) 0.1967(7)
C58? C 0.810(2) 0.443(2) 0.343(2)
C59? C 0.9046(17) 0.4158(18) 0.3926(11)
H85? H 1.0463 0.3791 0.3237
H86? H -0.0295 0.3491 0.1149
H87? H 0.1215 0.3521 0.0889
H88? H 0.0535 0.2701 0.0919
H89? H 0.0614 0.3627 0.2199
H90? H -0.0090 0.2793 0.2248
H91? H 0.8562 0.4734 0.2996
H92? H 0.7394 0.4759 0.3726
H93? H 0.7731 0.3955 0.3255
H94? H 0.8927 0.4523 0.4358
H95? H 0.8813 0.3617 0.4133
O19? O 1.0332(14) 0.4138(10) 0.3574(9)
loop_
_geom_bond_atom_site_label_1
_geom_bond_atom_site_label_2
_geom_bond_site_symmetry_1
_geom_bond_site_symmetry_2
C1 C2 1_555 1_555
C2 H1 1_555 1_555
C3 C2 1_555 1_555
C4 C3 1_555 1_555
H2 C4 1_555 1_555
C5 C4 1_555 1_555
C6 C1 1_555 1_555
C7 C3 1_555 1_555
C8 C7 1_555 1_555
H3 C8 1_555 1_555
H4 C8 1_555 1_555
H5 C8 1_555 1_555
C9 C7 1_555 1_555
H6 C9 1_555 1_555
H7 C9 1_555 1_555
H8 C9 1_555 1_555
C10 C7 1_555 1_555
H9 C10 1_555 1_555
H10 C10 1_555 1_555
H11 C10 1_555 1_555
C11 H12 1_555 1_555
H13 C11 1_555 1_555
C12 C11 1_555 1_555
C13 C14 1_555 1_555
C14 C15 1_555 1_555
C15 C16 1_555 1_555
C16 H14 1_555 1_555
C17 C16 1_555 1_555
C18 C13 1_555 1_555
H15 C18 1_555 1_555
C19 C17 1_555 1_555
C20 C19 1_555 1_555
H16 C20 1_555 1_555
H17 C20 1_555 1_555
H18 C20 1_555 1_555
C21 C19 1_555 1_555
H19 C21 1_555 1_555
H20 C21 1_555 1_555
H21 C21 1_555 1_555
C22 C19 1_555 1_555
H22 C22 1_555 1_555
H23 C22 1_555 1_555
H24 C22 1_555 1_555
C23 H25 1_555 1_555
H26 C23 1_555 1_555
C24 C23 1_555 1_555
C25 C26 1_555 1_555
C26 H27 1_555 1_555
C27 C26 1_555 1_555
C28 C27 1_555 1_555
H28 C28 1_555 1_555
C29 C28 1_555 1_555
C30 C25 1_555 1_555
C31 C27 1_555 1_555
C32 C31 1_555 1_555
H29 C32 1_555 1_555
H30 C32 1_555 1_555
H31 C32 1_555 1_555
C33 C31 1_555 1_555
H32 C33 1_555 1_555
H33 C33 1_555 1_555
H34 C33 1_555 1_555
C34 C31 1_555 1_555
H35 C34 1_555 1_555
H36 C34 1_555 1_555
H37 C34 1_555 1_555
C35 H38 1_555 1_555
H39 C35 1_555 1_555
C36 C35 1_555 1_555
C37 C38 1_555 1_555
C38 C39 1_555 1_555
C39 C40 1_555 1_555
C40 H40 1_555 1_555
C41 C40 1_555 1_555
C42 C37 1_555 1_555
H41 C42 1_555 1_555
C43 C41 1_555 1_555
C44 C43 1_555 1_555
H42 C44 1_555 1_555
H43 C44 1_555 1_555
H44 C44 1_555 1_555
C45 C43 1_555 1_555
H45 C45 1_555 1_555
H46 C45 1_555 1_555
H47 C45 1_555 1_555
C46 C43 1_555 1_555
H48 C46 1_555 1_555
H49 C46 1_555 1_555
H50 C46 1_555 1_555
C47 H51 1_555 1_555
H52 C47 1_555 1_555
C48 C47 1_555 1_555
C49 H53 1_555 1_555
H54 C49 1_555 1_555
H55 C49 1_555 1_555
C50 H56 1_555 1_555
H57 C50 1_555 1_555
H58 C50 1_555 1_555
C51 C50 1_555 1_555
H59 C51 1_555 1_555
H60 C51 1_555 1_555
C52 H61 1_555 1_555
H62 C52 1_555 1_555
H63 C52 1_555 1_555
C53 C49 1_555 1_555
H64 C53 1_555 1_555
H65 C53 1_555 1_555
C54 C52 1_555 1_555
H66 C54 1_555 1_555
H67 C54 1_555 1_555
O1 C6 1_555 1_555
O2 C12 1_555 1_555
O3 C12 1_555 1_555
H68 O3 1_555 1_555
O4 C38 1_555 1_555
O5 C48 1_555 1_555
O6 C48 1_555 1_555
H69 O6 1_555 1_555
O7 C30 1_555 1_555
O8 C36 1_555 1_555
O9 C36 1_555 1_555
H70 O9 1_555 1_555
O10 C14 1_555 1_555
O11 C24 1_555 1_555
H71 O11 1_555 1_555
O12 C24 1_555 1_555
O13 H72 1_555 1_555
H73 O13 1_555 1_555
O14 H74 1_555 1_555
H75 O14 1_555 1_555
O15 C53 1_555 1_555
H76 O15 1_555 1_555
O16 C51 1_555 1_555
H77 O16 1_555 1_555
O17 C54 1_555 1_555
H78 O17 1_555 1_555
S1 C1 1_555 1_555
S2 C29 1_555 1_555
S3 C15 1_555 1_555
S4 C5 1_555 1_555
C55 H79 1_555 1_555
H80 C55 1_555 1_555
H81 C55 1_555 1_555
C56 C55 1_555 1_555
H82 C56 1_555 1_555
H83 C56 1_555 1_555
O18 C56 1_555 1_555
H84 O18 1_555 1_555
C5 C6 1_555 1_555
C11 O1 1_555 1_555
C13 S4 1_555 1_555
C17 C18 1_555 1_555
C23 O10 1_555 1_555
C25 S3 1_555 1_555
C29 C30 1_555 1_555
C35 O7 1_555 1_555
C37 S2 1_555 1_555
C39 S1 1_555 1_555
C41 C42 1_555 1_555
C47 O4 1_555 1_555

#END
