
#######################################################################
#
#                 Cambridge Crystallographic Data Centre
#                                CCDC 
#
#######################################################################
#
# If this CIF has been generated from an entry in the Cambridge 
# Structural Database, then it will include bibliographic, chemical, 
# crystal, experimental, refinement or atomic coordinate data resulting 
# from the CCDC's data processing and validation procedures.
#
#######################################################################

data_IJITIE01
_chemical_name_common            
'4-((2-Methyl-5-oxo-4,5-dihydro-1,3-oxazol-4-ylidene)methyl)phenyl acetate'
_chemical_formula_moiety         'C13 H11 N1 O4'
_chemical_name_systematic        
(Z)-4-(4'-Acetoxybenzylidene)-2-methyl-5-oxazolone
_symmetry_cell_setting           triclinic
_symmetry_space_group_name_H-M   'P -1'
_symmetry_Int_Tables_number      2
_space_group_name_Hall           '-P 1'
loop_
_symmetry_equiv_pos_site_id
_symmetry_equiv_pos_as_xyz
1 x,y,z
2 -x,-y,-z
_cell_length_a                   5.5802(15)
_cell_length_b                   7.446(2)
_cell_length_c                   15.012(4)
_cell_angle_alpha                94.322(4)
_cell_angle_beta                 93.156(4)
_cell_angle_gamma                108.136(4)
_cell_volume                     589.045
_exptl_crystal_colour            colorless
_exptl_crystal_description       block
_cell_formula_units_Z            2
_exptl_crystal_recrystallization_method dichloromethane
loop_
_atom_site_label
_atom_site_type_symbol
_atom_site_fract_x
_atom_site_fract_y
_atom_site_fract_z
N1 N 0.4700(4) 0.9795(3) 0.17606(14)
O1 O 1.3127(3) 0.7316(3) 0.44177(12)
O2 O 0.2844(4) 0.6674(3) -0.02010(13)
O3 O 0.2123(4) 0.9237(3) 0.04884(12)
O4 O 1.0311(4) 0.7157(3) 0.54417(13)
C1 C 1.1357(5) 0.7294(4) 0.37105(17)
C2 C 1.1061(5) 0.5959(4) 0.29939(17)
H1 H 1.1950 0.5091 0.3002
C3 C 0.9434(5) 0.5922(4) 0.22626(17)
H2 H 0.9229 0.5019 0.1778
C4 C 0.8449(5) 0.8561(4) 0.29798(17)
H3 H 0.7574 0.9439 0.2980
C5 C 1.0078(5) 0.8603(4) 0.37083(17)
H4 H 1.0312 0.9507 0.4195
C6 C 0.8087(5) 0.7219(3) 0.22381(16)
C7 C 0.6402(5) 0.7112(4) 0.14512(17)
H5 H 0.6312 0.6140 0.1010
C8 C 0.4950(5) 0.8196(3) 0.12586(16)
C9 C 0.3284(5) 0.7834(4) 0.04328(18)
C10 C 0.3096(6) 1.0311(4) 0.1294(2)
C11 C 0.2127(6) 1.1906(4) 0.1497(2)
H6 H 0.2977 1.2619 0.2046
H7 H 0.0343 1.1427 0.1558
H8 H 0.2430 1.2715 0.1019
C12 C 1.2360(5) 0.7171(4) 0.52634(17)
C13 C 1.4387(6) 0.6997(4) 0.5901(2)
H9 H 1.4521 0.7817 0.6439
H10 H 1.5969 0.7353 0.5632
H11 H 1.3984 0.5707 0.6044
loop_
_geom_bond_atom_site_label_1
_geom_bond_atom_site_label_2
_geom_bond_site_symmetry_1
_geom_bond_site_symmetry_2
N1 C8 1_555 1_555
O1 C1 1_555 1_555
O2 C9 1_555 1_555
O3 C9 1_555 1_555
O4 C12 1_555 1_555
C1 C2 1_555 1_555
C2 H1 1_555 1_555
C3 C2 1_555 1_555
H2 C3 1_555 1_555
C4 H3 1_555 1_555
C5 C1 1_555 1_555
H4 C5 1_555 1_555
C6 C3 1_555 1_555
C7 C6 1_555 1_555
H5 C7 1_555 1_555
C8 C7 1_555 1_555
C9 C8 1_555 1_555
C10 N1 1_555 1_555
C11 C10 1_555 1_555
H6 C11 1_555 1_555
H7 C11 1_555 1_555
H8 C11 1_555 1_555
C12 O1 1_555 1_555
C13 C12 1_555 1_555
H9 C13 1_555 1_555
H10 C13 1_555 1_555
H11 C13 1_555 1_555
O3 C10 1_555 1_555
C4 C5 1_555 1_555
C4 C6 1_555 1_555

#END
