
#######################################################################
#
#                 Cambridge Crystallographic Data Centre
#                                CCDC 
#
#######################################################################
#
# If this CIF has been generated from an entry in the Cambridge 
# Structural Database, then it will include bibliographic, chemical, 
# crystal, experimental, refinement or atomic coordinate data resulting 
# from the CCDC's data processing and validation procedures.
#
#######################################################################

data_IJITAW
_chemical_formula_moiety         'C17 H17 N1 O2 Se1'
_chemical_name_systematic        
N-(3-Phenylselenopropyl)-3-hydroxyphthalimidine
_symmetry_cell_setting           monoclinic
_symmetry_space_group_name_H-M   'P 21/c'
_symmetry_Int_Tables_number      14
_space_group_name_Hall           '-P 2ybc'
loop_
_symmetry_equiv_pos_site_id
_symmetry_equiv_pos_as_xyz
1 x,y,z
2 -x,1/2+y,1/2-z
3 -x,-y,-z
4 x,1/2-y,1/2+z
_cell_length_a                   16.036(5)
_cell_length_b                   8.358(3)
_cell_length_c                   11.564(4)
_cell_angle_alpha                90
_cell_angle_beta                 94.012(5)
_cell_angle_gamma                90
_cell_volume                     1546.11
_chemical_melting_point          '95-96 deg.C'
_cell_formula_units_Z            4
_exptl_crystal_recrystallization_method acetone
loop_
_atom_site_label
_atom_site_type_symbol
_atom_site_fract_x
_atom_site_fract_y
_atom_site_fract_z
Se1 Se 0.5616(1) 0.1375(1) 1.1396(1)
O1 O 0.8165(2) 0.0704(4) 0.6951(3)
O2 O 0.8811(2) 0.4056(3) 0.9823(3)
N1 N 0.8226(2) 0.1814(4) 0.8780(3)
C1 C 0.8857(3) 0.2389(5) 0.9677(4)
C2 C 0.9668(3) 0.1891(5) 0.9170(4)
C3 C 1.0484(3) 0.2069(5) 0.9612(4)
C4 C 1.1110(3) 0.1508(5) 0.8945(4)
C5 C 1.0932(3) 0.0750(5) 0.7889(4)
C6 C 1.0115(3) 0.0567(5) 0.7448(4)
C7 C 0.9489(3) 0.1150(5) 0.8106(4)
C8 C 0.8562(3) 0.1159(5) 0.7846(4)
C9 C 0.7335(3) 0.2169(6) 0.8834(4)
C10 C 0.6976(3) 0.1569(6) 0.9939(4)
C11 C 0.6053(3) 0.2012(6) 0.9933(4)
C12 C 0.4485(3) 0.2148(6) 1.1191(4)
C13 C 0.3940(3) 0.1688(6) 1.2017(5)
C14 C 0.3120(3) 0.2199(7) 1.1942(5)
C15 C 0.2824(3) 0.3156(6) 1.1022(5)
C16 C 0.3352(4) 0.3584(7) 1.0195(5)
C17 C 0.4180(3) 0.3095(7) 1.0268(5)
loop_
_geom_bond_atom_site_label_1
_geom_bond_atom_site_label_2
_geom_bond_site_symmetry_1
_geom_bond_site_symmetry_2
Se1 C11 1_555 1_555
O1 C8 1_555 1_555
O2 C1 1_555 1_555
N1 C1 1_555 1_555
C1 C2 1_555 1_555
C2 C3 1_555 1_555
C3 C4 1_555 1_555
C4 C5 1_555 1_555
C5 C6 1_555 1_555
C6 C7 1_555 1_555
C7 C2 1_555 1_555
C8 N1 1_555 1_555
C9 N1 1_555 1_555
C10 C9 1_555 1_555
C11 C10 1_555 1_555
C12 Se1 1_555 1_555
C13 C12 1_555 1_555
C14 C13 1_555 1_555
C15 C14 1_555 1_555
C16 C15 1_555 1_555
C17 C12 1_555 1_555
C7 C8 1_555 1_555
C16 C17 1_555 1_555

#END
