
#######################################################################
#
#                 Cambridge Crystallographic Data Centre
#                                CCDC 
#
#######################################################################
#
# If this CIF has been generated from an entry in the Cambridge 
# Structural Database, then it will include bibliographic, chemical, 
# crystal, experimental, refinement or atomic coordinate data resulting 
# from the CCDC's data processing and validation procedures.
#
#######################################################################

data_IJIZIL
_chemical_formula_moiety         '2(C6 H5 N5),H12 Mg1 O6 2+,2(Cl1 1-)'
_chemical_name_systematic        
'Hexa-aqua-magnesium 5-(pyridinium-3-yl)tetrazol-1-ide dichloride'
_symmetry_cell_setting           triclinic
_symmetry_space_group_name_H-M   'P -1'
_symmetry_Int_Tables_number      2
_space_group_name_Hall           '-P 1'
loop_
_symmetry_equiv_pos_site_id
_symmetry_equiv_pos_as_xyz
1 x,y,z
2 -x,-y,-z
_cell_length_a                   7.4354(15)
_cell_length_b                   8.4232(17)
_cell_length_c                   9.5817(19)
_cell_angle_alpha                94.06(3)
_cell_angle_beta                 90.71(3)
_cell_angle_gamma                110.67(3)
_cell_volume                     559.613
_exptl_crystal_colour            colorless
_exptl_crystal_description       block
_cell_formula_units_Z            1
loop_
_atom_site_label
_atom_site_type_symbol
_atom_site_fract_x
_atom_site_fract_y
_atom_site_fract_z
Mg1 Mg 0.0000 0.5000 0.5000
O1 O 0.0599(2) 0.69394(16) 0.36976(13)
H1 H 0.0113 0.6775 0.2869
H2 H 0.1228 0.7998 0.3859
O2 O 0.2487(2) 0.64382(19) 0.62087(14)
H3 H 0.2766 0.6238 0.7025
H4 H 0.3531 0.7163 0.5961
O3 O 0.1562(2) 0.3929(2) 0.37477(15)
H5 H 0.1824 0.4149 0.2906
H6 H 0.1934 0.3113 0.3914
O1A O -0.0599(2) 0.30606(16) 0.63024(13)
H1A H -0.0113 0.3225 0.7131
H2A H -0.1228 0.2002 0.6141
O2A O -0.2487(2) 0.35618(19) 0.37913(14)
H3A H -0.2766 0.3762 0.2975
H4A H -0.3531 0.2837 0.4039
O3A O -0.1562(2) 0.6071(2) 0.62523(15)
H5A H -0.1824 0.5851 0.7094
H6A H -0.1934 0.6887 0.6086
N1 N 0.2278(2) 0.46353(18) 0.10243(15)
C1 C 0.3333(2) 0.5845(2) 0.02382(17)
C2 C 0.4917(2) 0.7372(2) 0.07879(18)
N2 N 0.1006(2) 0.34796(18) 0.01273(16)
N3 N 0.1310(2) 0.39758(19) -0.11389(16)
N4 N 0.2776(2) 0.54786(18) -0.11105(15)
C3 C 0.6097(3) 0.8510(2) -0.0093(2)
H7 H 0.5879 0.8315 -0.1058
C4 C 0.5289(3) 0.7704(2) 0.2209(2)
H8 H 0.4520 0.6969 0.2821
N5 N 0.6760(3) 0.9086(2) 0.2710(2)
H9 H 0.6978 0.9268 0.3602
C5 C 0.7593(3) 0.9931(2) 0.0469(3)
H10 H 0.8379 1.0697 -0.0117
C6 C 0.7908(3) 1.0201(3) 0.1877(3)
H11 H 0.8912 1.1151 0.2264
Cl1 Cl 0.31120(8) 0.08959(6) 0.40654(6)
loop_
_geom_bond_atom_site_label_1
_geom_bond_atom_site_label_2
_geom_bond_site_symmetry_1
_geom_bond_site_symmetry_2
Mg1 O1 1_555 1_555
O1 H1 1_555 1_555
H2 O1 1_555 1_555
O2 Mg1 1_555 1_555
H3 O2 1_555 1_555
H4 O2 1_555 1_555
N1 C1 1_555 1_555
C1 C2 1_555 1_555
C2 C3 1_555 1_555
N2 N1 1_555 1_555
N3 N2 1_555 1_555
N4 C1 1_555 1_555
O3 Mg1 1_555 1_555
H5 O3 1_555 1_555
H6 O3 1_555 1_555
C3 H7 1_555 1_555
C4 C2 1_555 1_555
H8 C4 1_555 1_555
N5 C4 1_555 1_555
H9 N5 1_555 1_555
C5 C3 1_555 1_555
H10 C5 1_555 1_555
C6 N5 1_555 1_555
H11 C6 1_555 1_555
O1A Mg1 1_555 1_555
H1A O1A 1_555 1_555
H2A O1A 1_555 1_555
O2A Mg1 1_555 1_555
H3A O2A 1_555 1_555
H4A O2A 1_555 1_555
O3A Mg1 1_555 1_555
H5A O3A 1_555 1_555
H6A O3A 1_555 1_555
N3 N4 1_555 1_555
C5 C6 1_555 1_555

#END
