
#######################################################################
#
#                 Cambridge Crystallographic Data Centre
#                                CCDC 
#
#######################################################################
#
# If this CIF has been generated from an entry in the Cambridge 
# Structural Database, then it will include bibliographic, chemical, 
# crystal, experimental, refinement or atomic coordinate data resulting 
# from the CCDC's data processing and validation procedures.
#
#######################################################################

data_IJOHIA
_chemical_formula_moiety         'C20 H14 F3 N3 O2'
_chemical_name_systematic        
'Methyl 1,1-dicyano-2-phenyl-4-(trifluoromethyl)-1,9a-dihydro-2H-quinolizine-3-carboxylate'
_symmetry_cell_setting           monoclinic
_symmetry_space_group_name_H-M   'P 21/n'
_symmetry_Int_Tables_number      14
_space_group_name_Hall           '-P 2yn'
loop_
_symmetry_equiv_pos_site_id
_symmetry_equiv_pos_as_xyz
1 x,y,z
2 1/2-x,1/2+y,1/2-z
3 -x,-y,-z
4 1/2+x,1/2-y,1/2+z
_cell_length_a                   13.647(5)
_cell_length_b                   8.613(3)
_cell_length_c                   16.549(6)
_cell_angle_alpha                90
_cell_angle_beta                 111.715(4)
_cell_angle_gamma                90
_cell_volume                     1807.16
_cell_formula_units_Z            4
loop_
_atom_site_label
_atom_site_type_symbol
_atom_site_fract_x
_atom_site_fract_y
_atom_site_fract_z
C1 C 0.12711(12) 0.9452(2) -0.07019(10)
H1 H 0.1356 0.8759 -0.1102
C2 C 0.06381(13) 1.0658(2) -0.09916(11)
H2 H 0.0281 1.0801 -0.1586
C3 C 0.05055(13) 1.1747(2) -0.03805(11)
H3 H 0.0034 1.2568 -0.0582
C4 C 0.10437(12) 1.15980(19) 0.04631(11)
H4 H 0.0915 1.2293 0.0842
C5 C 0.18509(12) 1.03567(17) 0.08318(10)
H5 H 0.1700 0.9842 0.1301
C6 C 0.30115(12) 1.10209(18) 0.12264(9)
C7 C 0.37852(12) 0.96719(18) 0.16761(10)
H6 H 0.3713 0.9487 0.2236
C8 C 0.34689(13) 0.81786(18) 0.11633(10)
C9 C 0.25651(13) 0.79907(18) 0.04826(10)
C10 C 0.32678(12) 1.17396(18) 0.05188(10)
C11 C 0.30604(13) 1.2212(2) 0.18808(11)
C12 C 0.49229(13) 1.01581(19) 0.18826(10)
C13 C 0.54835(14) 1.0882(2) 0.26655(11)
H7 H 0.5186 1.0977 0.3086
C14 C 0.64838(16) 1.1466(2) 0.28273(13)
H8 H 0.6853 1.1952 0.3354
C15 C 0.69322(15) 1.1330(3) 0.22142(15)
H9 H 0.7594 1.1754 0.2316
C16 C 0.64004(15) 1.0568(3) 0.14504(14)
H10 H 0.6713 1.0445 0.1042
C17 C 0.54056(14) 0.9982(2) 0.12835(12)
H11 H 0.5054 0.9463 0.0764
C18 C 0.42524(15) 0.6904(2) 0.15576(13)
C19 C 0.53288(17) 0.4980(3) 0.12863(17)
H12 H 0.6012 0.5404 0.1612
H13 H 0.5359 0.4406 0.0799
H14 H 0.5117 0.4302 0.1653
C20 C 0.22220(15) 0.6434(2) 0.00337(13)
F1 F 0.25687(10) 0.62034(14) -0.06067(8)
F2 F 0.25630(10) 0.52572(12) 0.05889(9)
F3 F 0.11740(9) 0.63014(12) -0.03096(8)
N1 N 0.18167(10) 0.91822(15) 0.01857(8)
N2 N 0.34437(12) 1.22557(18) -0.00437(10)
N3 N 0.30667(14) 1.3068(2) 0.24024(11)
O1 O 0.45713(10) 0.62320(15) 0.09775(9)
O2 O 0.45847(15) 0.66236(18) 0.23177(10)
loop_
_geom_bond_atom_site_label_1
_geom_bond_atom_site_label_2
_geom_bond_site_symmetry_1
_geom_bond_site_symmetry_2
C1 H1 1_555 1_555
C2 C1 1_555 1_555
H2 C2 1_555 1_555
C3 C2 1_555 1_555
H3 C3 1_555 1_555
C4 C3 1_555 1_555
H4 C4 1_555 1_555
C5 C4 1_555 1_555
H5 C5 1_555 1_555
C6 C5 1_555 1_555
C7 C6 1_555 1_555
H6 C7 1_555 1_555
C8 C7 1_555 1_555
C9 C8 1_555 1_555
C10 C6 1_555 1_555
C11 C6 1_555 1_555
C12 C7 1_555 1_555
C13 C12 1_555 1_555
H7 C13 1_555 1_555
C14 C13 1_555 1_555
H8 C14 1_555 1_555
C15 C14 1_555 1_555
H9 C15 1_555 1_555
C16 C15 1_555 1_555
H10 C16 1_555 1_555
C17 C12 1_555 1_555
H11 C17 1_555 1_555
C18 C8 1_555 1_555
C19 H12 1_555 1_555
H13 C19 1_555 1_555
H14 C19 1_555 1_555
C20 C9 1_555 1_555
F1 C20 1_555 1_555
F2 C20 1_555 1_555
F3 C20 1_555 1_555
N1 C1 1_555 1_555
N2 C10 1_555 1_555
N3 C11 1_555 1_555
O1 C18 1_555 1_555
O2 C18 1_555 1_555
C5 N1 1_555 1_555
C9 N1 1_555 1_555
C16 C17 1_555 1_555
C19 O1 1_555 1_555

#END
