
#######################################################################
#
#                 Cambridge Crystallographic Data Centre
#                                CCDC 
#
#######################################################################
#
# If this CIF has been generated from an entry in the Cambridge 
# Structural Database, then it will include bibliographic, chemical, 
# crystal, experimental, refinement or atomic coordinate data resulting 
# from the CCDC's data processing and validation procedures.
#
#######################################################################

data_IJOJUO
_chemical_formula_moiety         'C13 H7 F1 O4'
_chemical_name_systematic        
3-fluoro-4-methyl-2H,5H-pyrano[3,2-c]chromene-2,5-dione
_chemical_properties_biological  'Antifungal activity'
_symmetry_cell_setting           monoclinic
_symmetry_space_group_name_H-M   'P 21/n'
_symmetry_Int_Tables_number      14
_space_group_name_Hall           '-P 2yn'
loop_
_symmetry_equiv_pos_site_id
_symmetry_equiv_pos_as_xyz
1 x,y,z
2 1/2-x,1/2+y,1/2-z
3 -x,-y,-z
4 1/2+x,1/2-y,1/2+z
_cell_length_a                   13.113(4)
_cell_length_b                   5.6960(16)
_cell_length_c                   13.715(4)
_cell_angle_alpha                90
_cell_angle_beta                 96.263(5)
_cell_angle_gamma                90
_cell_volume                     1018.28
_exptl_crystal_colour            'light green'
_chemical_melting_point          '247.3-247.5 deg.C'
_cell_formula_units_Z            4
_exptl_crystal_preparation       Luminescent
loop_
_atom_site_label
_atom_site_type_symbol
_atom_site_fract_x
_atom_site_fract_y
_atom_site_fract_z
O1 O 0.3850(1) 1.1859(2) 0.9618(1)
O2 O 0.3892(1) 0.6181(2) 0.7786(1)
C1 C 0.3020(1) 0.8417(2) 0.8946(1)
F1 F 0.1456(1) 1.1349(2) 1.0595(1)
C2 C 0.3808(1) 0.9979(2) 0.9011(1)
C3 C 0.4641(1) 0.9814(3) 0.8417(1)
C4 C 0.3072(1) 0.6361(3) 0.8318(1)
C5 C 0.4632(1) 0.7895(3) 0.7793(1)
C6 C 0.2224(1) 1.0749(3) 1.0065(1)
O3 O 0.2472(1) 0.4755(2) 0.8244(1)
O4 O 0.3151(1) 1.4083(2) 1.0690(1)
C7 C 0.2148(1) 0.8849(3) 0.9484(1)
C8 C 0.3067(1) 1.2370(3) 1.0180(1)
C9 C 0.5418(1) 1.1491(3) 0.8400(1)
H1 H 0.5441 1.2779 0.8819
C10 C 0.5369(1) 0.7613(3) 0.7157(1)
H2 H 0.5359 0.6312 0.6747
C11 C 0.6146(1) 1.1224(3) 0.7764(1)
H3 H 0.6661 1.2342 0.7748
C12 C 0.1197(1) 0.7371(3) 0.9378(1)
H4 H 0.0687 0.8079 0.9736
H5 H 0.1356 0.5829 0.9634
H6 H 0.0939 0.7258 0.8698
C13 C 0.6118(1) 0.9294(4) 0.7143(1)
H7 H 0.6614 0.9138 0.6711
loop_
_geom_bond_atom_site_label_1
_geom_bond_atom_site_label_2
_geom_bond_site_symmetry_1
_geom_bond_site_symmetry_2
O1 C2 1_555 1_555
O2 C4 1_555 1_555
C1 C2 1_555 1_555
F1 C6 1_555 1_555
C2 C3 1_555 1_555
C3 C5 1_555 1_555
C4 C1 1_555 1_555
C5 O2 1_555 1_555
C6 C7 1_555 1_555
O3 C4 1_555 1_555
O4 C8 1_555 1_555
C7 C1 1_555 1_555
C8 O1 1_555 1_555
C9 C3 1_555 1_555
H1 C9 1_555 1_555
C10 C5 1_555 1_555
H2 C10 1_555 1_555
C11 C9 1_555 1_555
H3 C11 1_555 1_555
C12 C7 1_555 1_555
H4 C12 1_555 1_555
H5 C12 1_555 1_555
H6 C12 1_555 1_555
C13 C10 1_555 1_555
H7 C13 1_555 1_555
C6 C8 1_555 1_555
C11 C13 1_555 1_555

#END
