
#######################################################################
#
#                 Cambridge Crystallographic Data Centre
#                                CCDC 
#
#######################################################################
#
# If this CIF has been generated from an entry in the Cambridge 
# Structural Database, then it will include bibliographic, chemical, 
# crystal, experimental, refinement or atomic coordinate data resulting 
# from the CCDC's data processing and validation procedures.
#
#######################################################################

data_IJOKUN
_chemical_formula_moiety         'C24 H23 N3 O6'
_chemical_name_systematic        
'Ethyl (bis(2-(1,3-dioxo-1,3-dihydroisoindol-2-yl)ethyl)amino)acetate'
_symmetry_cell_setting           triclinic
_symmetry_space_group_name_H-M   'P -1'
_symmetry_Int_Tables_number      2
_space_group_name_Hall           '-P 1'
loop_
_symmetry_equiv_pos_site_id
_symmetry_equiv_pos_as_xyz
1 x,y,z
2 -x,-y,-z
_cell_length_a                   9.134(2)
_cell_length_b                   11.131(2)
_cell_length_c                   12.012(3)
_cell_angle_alpha                64.481(15)
_cell_angle_beta                 87.98(2)
_cell_angle_gamma                85.52(2)
_cell_volume                     1098.75
_exptl_crystal_description       blocks
_cell_formula_units_Z            2
_exptl_crystal_recrystallization_method acetone
loop_
_atom_site_label
_atom_site_type_symbol
_atom_site_fract_x
_atom_site_fract_y
_atom_site_fract_z
N1 N 0.4065(2) 0.6903(2) 0.8549(2)
C1 C 0.3898(2) 0.7025(2) 0.7358(2)
O1 O 0.4528(2) 0.7780(2) 0.64544(15)
C2 C 0.2815(2) 0.6052(2) 0.7454(2)
C3 C 0.2239(3) 0.5772(2) 0.6560(2)
H1 H 0.2533(3) 0.6200(2) 0.5741(2)
C4 C 0.1200(3) 0.4826(2) 0.6924(3)
H2 H 0.0791(3) 0.4614(2) 0.6338(3)
C5 C 0.0767(3) 0.4196(2) 0.8142(3)
H3 H 0.0055(3) 0.3579(2) 0.8360(3)
C6 C 0.1370(3) 0.4464(2) 0.9046(2)
H4 H 0.1092(3) 0.4027(2) 0.9868(2)
C7 C 0.2400(2) 0.5403(2) 0.8678(2)
C8 C 0.3245(2) 0.5907(2) 0.9402(2)
O2 O 0.3285(2) 0.5536(2) 1.05056(14)
C9 C 0.5081(2) 0.7627(2) 0.8898(2)
H5 H 0.5835(2) 0.7938(2) 0.8269(2)
H6 H 0.5558(2) 0.7018(2) 0.9664(2)
C10 C 0.4355(2) 0.8813(2) 0.9063(2)
H7 H 0.3531(2) 0.8516(2) 0.9625(2)
H8 H 0.5053(2) 0.9131(2) 0.9447(2)
N2 N 0.3827(2) 0.99300(15) 0.79207(14)
C11 C 0.2931(2) 1.0939(2) 0.8167(2)
H9 H 0.2772(2) 1.1730(2) 0.7397(2)
H10 H 0.3473(2) 1.1183(2) 0.8710(2)
C12 C 0.1451(2) 1.0496(2) 0.8749(2)
H11 H 0.1603(2) 0.9745(2) 0.9549(2)
H12 H 0.0928(2) 1.1219(2) 0.8877(2)
N3 N 0.0558(2) 1.01123(15) 0.79933(15)
C13 C 0.0300(2) 0.8799(2) 0.8270(2)
O3 O 0.0746(2) 0.78409(14) 0.91838(14)
C14 C -0.0604(2) 0.8855(2) 0.7247(2)
C15 C -0.1142(2) 0.7852(2) 0.7024(2)
H13 H -0.0959(2) 0.6959(2) 0.7565(2)
C16 C -0.1965(3) 0.8229(2) 0.5964(2)
H14 H -0.2336(3) 0.7573(2) 0.5792(2)
C17 C -0.2245(3) 0.9544(3) 0.5162(2)
H15 H -0.2808(3) 0.9764(3) 0.4462(2)
C18 C -0.1699(2) 1.0554(2) 0.5382(2)
H16 H -0.1887(2) 1.1448(2) 0.4842(2)
C19 C -0.0873(2) 1.0179(2) 0.6428(2)
C20 C -0.0128(2) 1.1002(2) 0.6906(2)
O4 O -0.0087(2) 1.22044(14) 0.6468(2)
C21 C 0.5010(2) 1.0559(2) 0.7048(2)
H17 H 0.4576(2) 1.1208(2) 0.6277(2)
H18 H 0.5577(2) 0.9882(2) 0.6879(2)
C22 C 0.6040(2) 1.1251(2) 0.7512(2)
O5 O 0.6880(2) 1.0687(2) 0.8358(2)
O6 O 0.5858(2) 1.2575(2) 0.6898(2)
C23 C 0.6671(4) 1.3334(3) 0.7366(3)
H19 H 0.6246(4) 1.3265(3) 0.8141(3)
H20 H 0.7684(4) 1.2974(3) 0.7514(3)
C24 C 0.6617(5) 1.4702(3) 0.6487(3)
H21 H 0.7155(5) 1.5201(3) 0.6797(3)
H22 H 0.5613(5) 1.5058(3) 0.6350(3)
H23 H 0.7046(5) 1.4767(3) 0.5724(3)
loop_
_geom_bond_atom_site_label_1
_geom_bond_atom_site_label_2
_geom_bond_site_symmetry_1
_geom_bond_site_symmetry_2
N1 C1 1_555 1_555
C1 O1 1_555 1_555
C2 C1 1_555 1_555
C3 C2 1_555 1_555
H1 C3 1_555 1_555
C4 C3 1_555 1_555
H2 C4 1_555 1_555
C5 C4 1_555 1_555
H3 C5 1_555 1_555
C6 C5 1_555 1_555
H4 C6 1_555 1_555
C7 C2 1_555 1_555
C8 N1 1_555 1_555
O2 C8 1_555 1_555
C9 N1 1_555 1_555
H5 C9 1_555 1_555
H6 C9 1_555 1_555
C10 C9 1_555 1_555
H7 C10 1_555 1_555
H8 C10 1_555 1_555
N2 C10 1_555 1_555
C11 N2 1_555 1_555
H9 C11 1_555 1_555
H10 C11 1_555 1_555
C12 C11 1_555 1_555
H11 C12 1_555 1_555
H12 C12 1_555 1_555
N3 C12 1_555 1_555
C13 N3 1_555 1_555
O3 C13 1_555 1_555
C14 C13 1_555 1_555
C15 C14 1_555 1_555
H13 C15 1_555 1_555
C16 C15 1_555 1_555
H14 C16 1_555 1_555
C17 C16 1_555 1_555
H15 C17 1_555 1_555
C18 C17 1_555 1_555
H16 C18 1_555 1_555
C19 C14 1_555 1_555
C20 N3 1_555 1_555
O4 C20 1_555 1_555
C21 N2 1_555 1_555
H17 C21 1_555 1_555
H18 C21 1_555 1_555
C22 C21 1_555 1_555
O5 C22 1_555 1_555
O6 C22 1_555 1_555
C23 O6 1_555 1_555
H19 C23 1_555 1_555
H20 C23 1_555 1_555
C24 C23 1_555 1_555
H21 C24 1_555 1_555
H22 C24 1_555 1_555
H23 C24 1_555 1_555
C6 C7 1_555 1_555
C7 C8 1_555 1_555
C18 C19 1_555 1_555
C19 C20 1_555 1_555

#END
