
#######################################################################
#
#                 Cambridge Crystallographic Data Centre
#                                CCDC 
#
#######################################################################
#
# If this CIF has been generated from an entry in the Cambridge 
# Structural Database, then it will include bibliographic, chemical, 
# crystal, experimental, refinement or atomic coordinate data resulting 
# from the CCDC's data processing and validation procedures.
#
#######################################################################

data_IJOXUB
_chemical_formula_moiety         'C25 H24 F2 N6'
_chemical_name_systematic        
meso-5,5'-bis[(4-Fluorophenyl)diazenyl]-2,2'-(pentane-3,3-diyl)di-1H-pyrrole
_symmetry_cell_setting           monoclinic
_symmetry_space_group_name_H-M   'P 21/n'
_symmetry_Int_Tables_number      14
_space_group_name_Hall           '-P 2yn'
loop_
_symmetry_equiv_pos_site_id
_symmetry_equiv_pos_as_xyz
1 x,y,z
2 1/2-x,1/2+y,1/2-z
3 -x,-y,-z
4 1/2+x,1/2-y,1/2+z
_cell_length_a                   9.727(2)
_cell_length_b                   29.896(7)
_cell_length_c                   16.366(4)
_cell_angle_alpha                90
_cell_angle_beta                 90.745(4)
_cell_angle_gamma                90
_cell_volume                     4758.8
_exptl_crystal_colour            red
_exptl_crystal_description       block
_chemical_melting_point          '438 K'
_cell_formula_units_Z            8
loop_
_atom_site_label
_atom_site_type_symbol
_atom_site_fract_x
_atom_site_fract_y
_atom_site_fract_z
F1 F -0.0313(2) 0.40754(6) 0.99124(13)
F2 F -0.0356(2) 0.05104(6) 0.32465(10)
N1 N 0.1615(2) 0.23831(6) 0.92959(13)
N2 N 0.2903(2) 0.23202(6) 0.93140(12)
N3 N 0.24026(17) 0.15258(6) 0.93361(10)
H1 H 0.1526 0.1545 0.9391
N4 N 0.11790(15) 0.06841(5) 0.81295(10)
H2 H 0.1871 0.0766 0.7844
N5 N -0.04556(17) 0.05686(6) 0.70124(11)
N6 N 0.04364(17) 0.07351(6) 0.65450(11)
C1 C -0.0185(3) 0.29074(10) 0.9473(3)
H5 H -0.0789 0.2670 0.9389
C2 C -0.0702(4) 0.33242(12) 0.9631(3)
H6 H -0.1646 0.3371 0.9654
C3 C 0.0176(4) 0.36597(10) 0.97501(19)
C4 C 0.1538(4) 0.36035(9) 0.9703(2)
H7 H 0.2126 0.3846 0.9780
C5 C 0.2072(3) 0.31833(9) 0.95400(18)
H8 H 0.3017 0.3143 0.9502
C6 C 0.1204(2) 0.28307(8) 0.94356(15)
C7 C 0.3277(2) 0.18809(8) 0.92675(14)
C8 C 0.4581(2) 0.17116(9) 0.91794(16)
H9 H 0.5382 0.1878 0.9120
C9 C 0.4486(2) 0.12509(8) 0.91942(15)
H10 H 0.5214 0.1052 0.9140
C10 C 0.3129(2) 0.11375(7) 0.93039(12)
C11 C 0.2467(2) 0.06931(7) 0.94670(12)
C12 C 0.2067(2) 0.06721(9) 1.03769(13)
H11 H 0.1365 0.0895 1.0474
H12 H 0.1664 0.0381 1.0483
C13 C 0.3235(3) 0.07462(13) 1.09824(17)
H13 H 0.3859 0.0498 1.0962
H14 H 0.2872 0.0772 1.1523
H15 H 0.3714 0.1016 1.0846
C14 C 0.3487(2) 0.03179(7) 0.92491(14)
H16 H 0.3778 0.0362 0.8690
H17 H 0.4295 0.0347 0.9599
C15 C 0.2938(3) -0.01542(8) 0.93300(19)
H18 H 0.2752 -0.0216 0.9894
H19 H 0.3609 -0.0363 0.9134
H20 H 0.2105 -0.0183 0.9013
C16 C 0.1177(2) 0.06410(7) 0.89560(13)
C17 C -0.0124(2) 0.05148(8) 0.91724(15)
H21 H -0.0425 0.0468 0.9703
C18 C -0.0914(2) 0.04693(8) 0.84687(15)
H22 H -0.1831 0.0382 0.8440
C19 C -0.0099(2) 0.05753(7) 0.78224(14)
C20 C 0.0129(2) 0.06853(7) 0.57006(14)
C21 C -0.1045(2) 0.04836(8) 0.53895(15)
H23 H -0.1724 0.0386 0.5743
C22 C -0.1214(3) 0.04263(9) 0.45690(18)
H24 H -0.2000 0.0289 0.4359
C23 C -0.0225(4) 0.05717(9) 0.40677(17)
C24 C 0.0946(3) 0.07763(10) 0.43399(18)
H25 H 0.1604 0.0877 0.3977
C25 C 0.1123(3) 0.08293(9) 0.51780(16)
H26 H 0.1919 0.0963 0.5384
F3 F 0.62392(17) -0.08458(5) 0.69508(10)
F4 F -0.1461(4) 0.13976(9) 1.30129(14)
N7 N 0.37178(17) 0.07958(6) 0.70618(10)
N8 N 0.44494(18) 0.11432(6) 0.70152(11)
N9 N 0.23127(16) 0.15696(6) 0.69593(10)
H3 H 0.1750 0.1349 0.6917
N10 N -0.03734(17) 0.18636(6) 0.81523(11)
H4 H 0.0308 0.1965 0.8436
N11 N -0.17156(19) 0.15596(7) 0.92686(14)
N12 N -0.0703(2) 0.16435(7) 0.97406(13)
C26 C 0.5873(2) 0.03486(8) 0.70026(14)
H27 H 0.6421 0.0604 0.7003
C27 C 0.6470(2) -0.00680(8) 0.69831(15)
H28 H 0.7421 -0.0098 0.6979
C28 C 0.5647(3) -0.04364(8) 0.69702(14)
C29 C 0.4252(3) -0.04087(8) 0.69818(15)
H29 H 0.3713 -0.0666 0.6966
C30 C 0.3658(2) 0.00074(8) 0.70171(14)
H30 H 0.2706 0.0033 0.7038
C31 C 0.4457(2) 0.03883(7) 0.70218(12)
C32 C 0.3720(2) 0.15340(8) 0.70155(14)
C33 C 0.4231(3) 0.19583(9) 0.70724(18)
H31 H 0.5155 0.2037 0.7111
C34 C 0.3133(3) 0.22504(9) 0.70625(18)
H32 H 0.3189 0.2560 0.7105
C35 C 0.1948(2) 0.20081(7) 0.69800(14)
C36 C 0.0484(2) 0.21568(8) 0.68207(14)
C37 C 0.0144(3) 0.20811(10) 0.59074(16)
H33 H 0.0156 0.1762 0.5801
H34 H -0.0785 0.2186 0.5800
C38 C 0.1100(3) 0.23081(13) 0.53122(19)
H35 H 0.1026 0.2627 0.5370
H36 H 0.0851 0.2224 0.4764
H37 H 0.2030 0.2217 0.5426
C39 C 0.0365(3) 0.26561(8) 0.70527(19)
H38 H 0.0651 0.2691 0.7619
H39 H 0.0999 0.2826 0.6721
C40 C -0.1071(3) 0.28544(11) 0.6945(3)
H40 H -0.1360 0.2826 0.6384
H41 H -0.1054 0.3165 0.7095
H42 H -0.1702 0.2697 0.7287
C41 C -0.0508(2) 0.18925(7) 0.73263(15)
C42 C -0.1721(2) 0.16840(9) 0.71117(17)
H43 H -0.2067 0.1649 0.6583
C43 C -0.2337(2) 0.15351(9) 0.78168(18)
H44 H -0.3174 0.1386 0.7848
C44 C -0.1493(2) 0.16470(8) 0.84609(16)
C45 C -0.0971(3) 0.15716(9) 1.05748(18)
C46 C 0.0063(4) 0.16878(11) 1.1111(2)
H45 H 0.0875 0.1810 1.0916
C47 C -0.0098(6) 0.16241(15) 1.1938(2)
H46 H 0.0604 0.1698 1.2305
C48 C -0.1305(9) 0.14515(16) 1.2206(3)
C49 C -0.2334(6) 0.13401(14) 1.1681(3)
H47 H -0.3152 0.1225 1.1881
C50 C -0.2186(4) 0.13943(10) 1.0868(2)
H48 H -0.2891 0.1313 1.0508
loop_
_geom_bond_atom_site_label_1
_geom_bond_atom_site_label_2
_geom_bond_site_symmetry_1
_geom_bond_site_symmetry_2
F1 C3 1_555 1_555
F2 C23 1_555 1_555
F3 C28 1_555 1_555
F4 C48 1_555 1_555
N1 N2 1_555 1_555
N2 C7 1_555 1_555
N3 H1 1_555 1_555
N4 H2 1_555 1_555
N5 N6 1_555 1_555
N6 C20 1_555 1_555
N7 N8 1_555 1_555
N8 C32 1_555 1_555
N9 H3 1_555 1_555
N10 H4 1_555 1_555
N11 N12 1_555 1_555
N12 C45 1_555 1_555
C1 H5 1_555 1_555
C2 C1 1_555 1_555
H6 C2 1_555 1_555
C3 C2 1_555 1_555
C4 C3 1_555 1_555
H7 C4 1_555 1_555
C5 C4 1_555 1_555
H8 C5 1_555 1_555
C6 N1 1_555 1_555
C7 N3 1_555 1_555
C8 C7 1_555 1_555
H9 C8 1_555 1_555
C9 C8 1_555 1_555
H10 C9 1_555 1_555
C10 N3 1_555 1_555
C11 C10 1_555 1_555
C12 C11 1_555 1_555
H11 C12 1_555 1_555
H12 C12 1_555 1_555
C13 C12 1_555 1_555
H13 C13 1_555 1_555
H14 C13 1_555 1_555
H15 C13 1_555 1_555
C14 C11 1_555 1_555
H16 C14 1_555 1_555
H17 C14 1_555 1_555
C15 C14 1_555 1_555
H18 C15 1_555 1_555
H19 C15 1_555 1_555
H20 C15 1_555 1_555
C16 N4 1_555 1_555
C17 C16 1_555 1_555
H21 C17 1_555 1_555
C18 C17 1_555 1_555
H22 C18 1_555 1_555
C19 N4 1_555 1_555
C20 C21 1_555 1_555
C21 H23 1_555 1_555
C22 C21 1_555 1_555
H24 C22 1_555 1_555
C23 C22 1_555 1_555
C24 C23 1_555 1_555
H25 C24 1_555 1_555
C25 C20 1_555 1_555
H26 C25 1_555 1_555
C26 H27 1_555 1_555
C27 C26 1_555 1_555
H28 C27 1_555 1_555
C28 C27 1_555 1_555
C29 C28 1_555 1_555
H29 C29 1_555 1_555
C30 C29 1_555 1_555
H30 C30 1_555 1_555
C31 N7 1_555 1_555
C32 N9 1_555 1_555
C33 C32 1_555 1_555
H31 C33 1_555 1_555
C34 C33 1_555 1_555
H32 C34 1_555 1_555
C35 N9 1_555 1_555
C36 C35 1_555 1_555
C37 C36 1_555 1_555
H33 C37 1_555 1_555
H34 C37 1_555 1_555
C38 C37 1_555 1_555
H35 C38 1_555 1_555
H36 C38 1_555 1_555
H37 C38 1_555 1_555
C39 C36 1_555 1_555
H38 C39 1_555 1_555
H39 C39 1_555 1_555
C40 C39 1_555 1_555
H40 C40 1_555 1_555
H41 C40 1_555 1_555
H42 C40 1_555 1_555
C41 N10 1_555 1_555
C42 C41 1_555 1_555
H43 C42 1_555 1_555
C43 C42 1_555 1_555
H44 C43 1_555 1_555
C44 N10 1_555 1_555
C45 C46 1_555 1_555
C46 H45 1_555 1_555
C47 C46 1_555 1_555
H46 C47 1_555 1_555
C48 C47 1_555 1_555
C49 C48 1_555 1_555
H47 C49 1_555 1_555
C50 C45 1_555 1_555
H48 C50 1_555 1_555
N5 C19 1_555 1_555
N11 C44 1_555 1_555
C1 C6 1_555 1_555
C5 C6 1_555 1_555
C9 C10 1_555 1_555
C11 C16 1_555 1_555
C18 C19 1_555 1_555
C24 C25 1_555 1_555
C26 C31 1_555 1_555
C30 C31 1_555 1_555
C34 C35 1_555 1_555
C36 C41 1_555 1_555
C43 C44 1_555 1_555
C49 C50 1_555 1_555

#END
