
#######################################################################
#
#                 Cambridge Crystallographic Data Centre
#                                CCDC 
#
#######################################################################
#
# If this CIF has been generated from an entry in the Cambridge 
# Structural Database, then it will include bibliographic, chemical, 
# crystal, experimental, refinement or atomic coordinate data resulting 
# from the CCDC's data processing and validation procedures.
#
#######################################################################

data_IJOYUC
_chemical_formula_moiety         'C14 H9 Cl2 F1 N2 O1'
_chemical_name_systematic        
N'-(2,4-Dichlorobenzylidene)-2-fluorobenzohydrazide
_symmetry_cell_setting           monoclinic
_symmetry_space_group_name_H-M   'P 21/n'
_symmetry_Int_Tables_number      14
_space_group_name_Hall           '-P 2yn'
loop_
_symmetry_equiv_pos_site_id
_symmetry_equiv_pos_as_xyz
1 x,y,z
2 1/2-x,1/2+y,1/2-z
3 -x,-y,-z
4 1/2+x,1/2-y,1/2+z
_cell_length_a                   7.2310(14)
_cell_length_b                   26.145(5)
_cell_length_c                   8.0590(16)
_cell_angle_alpha                90
_cell_angle_beta                 115.033(3)
_cell_angle_gamma                90
_cell_volume                     1380.47
_exptl_crystal_colour            colorless
_exptl_crystal_description       block
_cell_formula_units_Z            4
loop_
_atom_site_label
_atom_site_type_symbol
_atom_site_fract_x
_atom_site_fract_y
_atom_site_fract_z
Cl1 Cl 0.86585(15) 0.06215(3) 0.64036(10)
Cl2 Cl 0.71562(15) 0.01533(3) -0.04771(12)
F1 F 0.7577(4) 0.25674(8) 0.9556(3)
N1 N 0.7523(3) 0.21787(8) 0.4805(3)
N2 N 0.7956(3) 0.24975(8) 0.6285(3)
O1 O 0.5927(3) 0.31235(8) 0.4527(3)
C1 C 0.7912(4) 0.13485(10) 0.3799(3)
C2 C 0.8097(4) 0.08305(11) 0.4195(3)
C3 C 0.7842(4) 0.04630(10) 0.2903(4)
H1 H 0.7953 0.0117 0.3203
C4 C 0.7417(4) 0.06205(11) 0.1141(4)
C5 C 0.7245(4) 0.11280(11) 0.0675(4)
H2 H 0.6977 0.1228 -0.0513
C6 C 0.7475(4) 0.14872(11) 0.1991(4)
H3 H 0.7336 0.1832 0.1675
C7 C 0.8217(4) 0.17291(10) 0.5209(3)
H4 H 0.8938 0.1640 0.6434
C8 C 0.7067(4) 0.29579(10) 0.6032(3)
C9 C 0.7558(4) 0.32662(10) 0.7740(3)
C10 C 0.7779(4) 0.30700(12) 0.9386(4)
C11 C 0.8167(5) 0.33677(16) 1.0910(4)
H5 H 0.8316 0.3221 1.2011
C12 C 0.8328(5) 0.38854(17) 1.0753(5)
H6 H 0.8592 0.4095 1.1762
C13 C 0.8106(5) 0.40961(14) 0.9143(6)
H7 H 0.8231 0.4448 0.9066
C14 C 0.7696(4) 0.37967(11) 0.7614(5)
H8 H 0.7514 0.3947 0.6510
H9 H 0.886(4) 0.2381(12) 0.736(2)
loop_
_geom_bond_atom_site_label_1
_geom_bond_atom_site_label_2
_geom_bond_site_symmetry_1
_geom_bond_site_symmetry_2
Cl1 C2 1_555 1_555
Cl2 C4 1_555 1_555
F1 C10 1_555 1_555
N1 N2 1_555 1_555
N2 C8 1_555 1_555
O1 C8 1_555 1_555
C1 C2 1_555 1_555
C2 C3 1_555 1_555
C3 H1 1_555 1_555
C4 C3 1_555 1_555
C5 C4 1_555 1_555
H2 C5 1_555 1_555
C6 C1 1_555 1_555
H3 C6 1_555 1_555
C7 N1 1_555 1_555
H4 C7 1_555 1_555
C8 C9 1_555 1_555
C9 C10 1_555 1_555
C10 C11 1_555 1_555
C11 H5 1_555 1_555
C12 C11 1_555 1_555
H6 C12 1_555 1_555
C13 C12 1_555 1_555
H7 C13 1_555 1_555
C14 C9 1_555 1_555
H8 C14 1_555 1_555
H9 N2 1_555 1_555
C1 C7 1_555 1_555
C5 C6 1_555 1_555
C13 C14 1_555 1_555

#END
