
#######################################################################
#
#                 Cambridge Crystallographic Data Centre
#                                CCDC 
#
#######################################################################
#
# If this CIF has been generated from an entry in the Cambridge 
# Structural Database, then it will include bibliographic, chemical, 
# crystal, experimental, refinement or atomic coordinate data resulting 
# from the CCDC's data processing and validation procedures.
#
#######################################################################

data_IJUDAU
_chemical_formula_moiety         'C2 H6 N5 1+,C4 N5 1-'
_chemical_name_systematic        
'4,5-Diamino-4H-1,2,4-triazol-1-ium 4,5-dicyano-1,2,3-triazol-2-ide'
_symmetry_cell_setting           monoclinic
_symmetry_space_group_name_H-M   'P 21'
_symmetry_Int_Tables_number      4
_space_group_name_Hall           'P 2yb'
loop_
_symmetry_equiv_pos_site_id
_symmetry_equiv_pos_as_xyz
1 x,y,z
2 -x,1/2+y,-z
_cell_length_a                   7.4156(6)
_cell_length_b                   6.3337(5)
_cell_length_c                   10.2329(8)
_cell_angle_alpha                90
_cell_angle_beta                 90.8520(10)
_cell_angle_gamma                90
_cell_volume                     480.568
_cell_formula_units_Z            2
loop_
_atom_site_label
_atom_site_type_symbol
_atom_site_fract_x
_atom_site_fract_y
_atom_site_fract_z
N1 N 0.7407(3) 0.1855(4) 0.30161(17)
N2 N 0.5703(3) 0.1988(4) 0.25714(18)
N3 N 0.4528(3) 0.1993(4) 0.35595(17)
N4 N 0.4321(3) 0.1903(5) 0.70054(19)
N5 N 1.0024(3) 0.1590(6) 0.5910(2)
C1 C 0.4800(3) 0.1879(5) 0.5953(2)
C2 C 0.5532(3) 0.1862(5) 0.46680(18)
C3 C 0.7322(3) 0.1788(5) 0.43323(19)
C4 C 0.8850(4) 0.1652(6) 0.5176(2)
N6 N 0.2284(3) -0.1772(4) 0.0383(2)
N7 N 0.2847(3) -0.0188(4) -0.0445(2)
H1 H 0.3362 -0.0414 -0.1180
N8 N 0.1693(2) 0.1411(4) 0.11709(17)
N9 N 0.1188(3) 0.3077(4) 0.1971(2)
H2 H 0.1922 0.3124 0.2666
H3 H 0.0060 0.2875 0.2230
N10 N 0.2842(3) 0.3560(4) -0.0484(2)
H4 H 0.3362 0.3637 -0.1228
H5 H 0.2548 0.4696 -0.0079
C5 C 0.2500(3) 0.1735(5) 0.00260(19)
C6 C 0.1603(4) -0.0725(5) 0.1361(3)
H6 H 0.1116 -0.1356 0.2097
loop_
_geom_bond_atom_site_label_1
_geom_bond_atom_site_label_2
_geom_bond_site_symmetry_1
_geom_bond_site_symmetry_2
N1 N2 1_555 1_555
N2 N3 1_555 1_555
N3 C2 1_555 1_555
N4 C1 1_555 1_555
N5 C4 1_555 1_555
C1 C2 1_555 1_555
C2 C3 1_555 1_555
C3 N1 1_555 1_555
C4 C3 1_555 1_555
N6 N7 1_555 1_555
N7 H1 1_555 1_555
N8 N9 1_555 1_555
N9 H2 1_555 1_555
H3 N9 1_555 1_555
N10 H4 1_555 1_555
H5 N10 1_555 1_555
C5 N7 1_555 1_555
C6 N6 1_555 1_555
H6 C6 1_555 1_555
N8 C5 1_555 1_555
N8 C6 1_555 1_555
N10 C5 1_555 1_555

#END
