
#######################################################################
#
#                 Cambridge Crystallographic Data Centre
#                                CCDC 
#
#######################################################################
#
# If this CIF has been generated from an entry in the Cambridge 
# Structural Database, then it will include bibliographic, chemical, 
# crystal, experimental, refinement or atomic coordinate data resulting 
# from the CCDC's data processing and validation procedures.
#
#######################################################################

data_IJUDIB
_chemical_formula_moiety         'C18 H18 F2 N2 O2 S1'
_chemical_name_systematic        
(1S,4S)-2-(2,4-Difluorophenyl)-5-[(4-methylphenyl)sulfonyl]-2,5-diazabicyclo[2.2.1]heptane
_symmetry_cell_setting           monoclinic
_symmetry_space_group_name_H-M   'P 21'
_symmetry_Int_Tables_number      4
_space_group_name_Hall           'P 2yb'
loop_
_symmetry_equiv_pos_site_id
_symmetry_equiv_pos_as_xyz
1 x,y,z
2 -x,1/2+y,-z
_cell_length_a                   9.9615(11)
_cell_length_b                   7.6586(8)
_cell_length_c                   11.3461(14)
_cell_angle_alpha                90
_cell_angle_beta                 98.9790(10)
_cell_angle_gamma                90
_cell_volume                     854.999
_exptl_crystal_colour            colorless
_exptl_crystal_description       block
_cell_formula_units_Z            2
loop_
_atom_site_label
_atom_site_type_symbol
_atom_site_fract_x
_atom_site_fract_y
_atom_site_fract_z
F1 F 0.4098(2) 0.6800(3) -0.03940(17)
F2 F 0.8825(2) 0.6799(4) 0.0177(2)
N1 N 0.2867(3) 0.7976(4) 0.3031(2)
N2 N 0.4040(3) 0.5378(4) 0.1917(2)
O1 O 0.2878(3) 0.9129(4) 0.5023(2)
O2 O 0.2841(2) 1.1122(3) 0.3288(3)
S1 S 0.24048(8) 0.95563(13) 0.38078(9)
C1 C 0.2683(4) 0.8049(5) 0.1708(3)
H1 H 0.3421 0.8665 0.1425
H2 H 0.1824 0.8583 0.1375
C2 C 0.2704(3) 0.6110(5) 0.1432(3)
H3 H 0.2384 0.5815 0.0595
C3 C 0.4094(3) 0.5309(5) 0.3233(3)
H4 H 0.4851 0.5981 0.3643
H5 H 0.4158 0.4117 0.3525
C4 C 0.2756(3) 0.6122(5) 0.3370(3)
H6 H 0.2454 0.5921 0.4140
C5 C 0.1836(4) 0.5390(6) 0.2296(3)
H7 H 0.1793 0.4125 0.2293
H8 H 0.0928 0.5885 0.2188
C6 C 0.0621(3) 0.9624(5) 0.3636(3)
C7 C -0.0068(4) 0.8662(5) 0.4375(3)
H9 H 0.0408 0.7962 0.4968
C8 C -0.1472(4) 0.8740(5) 0.4234(3)
H10 H -0.1931 0.8059 0.4720
C9 C -0.2197(3) 0.9795(5) 0.3395(3)
C10 C -0.1492(4) 1.0745(5) 0.2650(3)
H11 H -0.1971 1.1452 0.2063
C11 C -0.0098(4) 1.0664(5) 0.2761(3)
H12 H 0.0358 1.1306 0.2250
C12 C -0.3720(3) 0.9925(7) 0.3276(4)
H13 H -0.4128 0.9366 0.2550
H14 H -0.3983 1.1132 0.3258
H15 H -0.4021 0.9360 0.3944
C13 C 0.5230(3) 0.5761(4) 0.1463(3)
C14 C 0.5274(4) 0.6452(5) 0.0333(3)
C15 C 0.6459(4) 0.6818(5) -0.0094(3)
H16 H 0.6443 0.7309 -0.0845
C16 C 0.7645(4) 0.6445(6) 0.0606(4)
C17 C 0.7683(4) 0.5735(6) 0.1699(4)
H17 H 0.8514 0.5473 0.2162
C18 C 0.6496(4) 0.5398(5) 0.2126(3)
H18 H 0.6537 0.4913 0.2882
loop_
_geom_bond_atom_site_label_1
_geom_bond_atom_site_label_2
_geom_bond_site_symmetry_1
_geom_bond_site_symmetry_2
F1 C14 1_555 1_555
F2 C16 1_555 1_555
N1 S1 1_555 1_555
N2 C2 1_555 1_555
O1 S1 1_555 1_555
O2 S1 1_555 1_555
S1 C6 1_555 1_555
C1 N1 1_555 1_555
H1 C1 1_555 1_555
H2 C1 1_555 1_555
C2 C1 1_555 1_555
H3 C2 1_555 1_555
C3 N2 1_555 1_555
H4 C3 1_555 1_555
H5 C3 1_555 1_555
C4 N1 1_555 1_555
H6 C4 1_555 1_555
C5 C2 1_555 1_555
H7 C5 1_555 1_555
H8 C5 1_555 1_555
C6 C7 1_555 1_555
C7 H9 1_555 1_555
C8 C7 1_555 1_555
H10 C8 1_555 1_555
C9 C8 1_555 1_555
C10 C9 1_555 1_555
H11 C10 1_555 1_555
C11 C6 1_555 1_555
H12 C11 1_555 1_555
C12 C9 1_555 1_555
H13 C12 1_555 1_555
H14 C12 1_555 1_555
H15 C12 1_555 1_555
C13 N2 1_555 1_555
C14 C13 1_555 1_555
C15 C14 1_555 1_555
H16 C15 1_555 1_555
C16 C15 1_555 1_555
C17 C16 1_555 1_555
H17 C17 1_555 1_555
C18 C13 1_555 1_555
H18 C18 1_555 1_555
C3 C4 1_555 1_555
C4 C5 1_555 1_555
C10 C11 1_555 1_555
C17 C18 1_555 1_555

#END
