
#######################################################################
#
#                 Cambridge Crystallographic Data Centre
#                                CCDC 
#
#######################################################################
#
# If this CIF has been generated from an entry in the Cambridge 
# Structural Database, then it will include bibliographic, chemical, 
# crystal, experimental, refinement or atomic coordinate data resulting 
# from the CCDC's data processing and validation procedures.
#
#######################################################################

data_IJUDUN01
_chemical_formula_moiety         'C18 H21 N3 O6'
_chemical_name_systematic        
'Methyl 2-(2-(((benzyloxy)carbonyl)amino)propan-2-yl)-5-hydroxy-6-methoxypyrimidine-4-carboxylate'
_symmetry_cell_setting           monoclinic
_symmetry_space_group_name_H-M   'P 21'
_symmetry_Int_Tables_number      4
_space_group_name_Hall           'P 2yb'
loop_
_symmetry_equiv_pos_site_id
_symmetry_equiv_pos_as_xyz
1 x,y,z
2 -x,1/2+y,-z
_cell_length_a                   8.5313(17)
_cell_length_b                   6.5413(13)
_cell_length_c                   16.167(3)
_cell_angle_alpha                90
_cell_angle_beta                 97.37(3)
_cell_angle_gamma                90
_cell_volume                     894.759
_exptl_crystal_colour            colorless
_exptl_crystal_description       plate
_cell_formula_units_Z            2
loop_
_atom_site_label
_atom_site_type_symbol
_atom_site_fract_x
_atom_site_fract_y
_atom_site_fract_z
N1 N 0.7129(2) 0.6028(3) 0.89047(10)
N2 N 0.4395(2) 0.6250(3) 0.83861(10)
N3 N 0.4877(2) 0.4973(3) 0.68708(11)
H1 H 0.427(3) 0.599(5) 0.6595(17)
O1 O 0.25348(16) 0.6638(3) 0.92818(9)
O2 O 0.46916(18) 0.6583(3) 1.06058(9)
H2 H 0.547(3) 0.670(6) 1.1011(18)
O3 O 0.77719(17) 0.6582(3) 1.11167(8)
O4 O 0.94697(16) 0.6036(3) 1.01878(9)
O5 O 0.4667(2) 0.2009(2) 0.76039(9)
O6 O 0.26425(19) 0.3210(3) 0.66809(10)
C1 C 0.5941(2) 0.6005(3) 0.82953(12)
C2 C 0.4043(2) 0.6444(3) 0.91420(12)
C3 C 0.5207(2) 0.6435(3) 0.98553(12)
C4 C 0.6744(2) 0.6263(3) 0.96913(12)
C5 C 0.1359(2) 0.6528(4) 0.85502(12)
H3 H 0.1437 0.7746 0.8205
H4 H 0.0302 0.6460 0.8725
H5 H 0.1544 0.5304 0.8227
C6 C 0.8042(2) 0.6304(4) 1.04017(12)
C7 C 1.0779(3) 0.6187(4) 1.08615(13)
H6 H 1.0933 0.7620 1.1029
H7 H 1.1745 0.5663 1.0669
H8 H 1.0537 0.5379 1.1340
C8 C 0.6296(3) 0.5754(3) 0.73967(13)
C9 C 0.7695(3) 0.4322(4) 0.73342(14)
H9 H 0.7435 0.2947 0.7515
H10 H 0.8627 0.4831 0.7693
H11 H 0.7920 0.4271 0.6755
C10 C 0.6641(3) 0.7866(4) 0.70588(15)
H12 H 0.6796 0.7750 0.6470
H13 H 0.7600 0.8422 0.7378
H14 H 0.5749 0.8780 0.7111
C11 C 0.4121(3) 0.3289(4) 0.71076(12)
C12 C 0.1749(3) 0.1388(4) 0.67933(14)
H15 H 0.0616 0.1746 0.6762
H16 H 0.2092 0.0820 0.7355
C13 C 0.1953(3) -0.0221(4) 0.61451(14)
C14 C 0.3061(3) -0.0041(5) 0.55949(14)
H17 H 0.3742 0.1112 0.5625
C15 C 0.3181(3) -0.1545(5) 0.49977(15)
H18 H 0.3942 -0.1411 0.4621
C16 C 0.2197(4) -0.3238(5) 0.49494(16)
H19 H 0.2290 -0.4268 0.4544
C17 C 0.1087(3) -0.3423(5) 0.54905(15)
H20 H 0.0401 -0.4572 0.5455
C18 C 0.0970(3) -0.1928(4) 0.60889(14)
H21 H 0.0209 -0.2072 0.6465
loop_
_geom_bond_atom_site_label_1
_geom_bond_atom_site_label_2
_geom_bond_site_symmetry_1
_geom_bond_site_symmetry_2
N1 C1 1_555 1_555
N2 C1 1_555 1_555
N3 H1 1_555 1_555
O1 C2 1_555 1_555
O2 H2 1_555 1_555
O3 C6 1_555 1_555
O4 C6 1_555 1_555
O5 C11 1_555 1_555
O6 C11 1_555 1_555
C1 C8 1_555 1_555
C2 N2 1_555 1_555
C3 O2 1_555 1_555
C4 N1 1_555 1_555
C5 O1 1_555 1_555
H3 C5 1_555 1_555
H4 C5 1_555 1_555
H5 C5 1_555 1_555
C6 C4 1_555 1_555
C7 O4 1_555 1_555
H6 C7 1_555 1_555
H7 C7 1_555 1_555
H8 C7 1_555 1_555
C8 N3 1_555 1_555
C9 C8 1_555 1_555
H9 C9 1_555 1_555
H10 C9 1_555 1_555
H11 C9 1_555 1_555
C10 C8 1_555 1_555
H12 C10 1_555 1_555
H13 C10 1_555 1_555
H14 C10 1_555 1_555
C11 N3 1_555 1_555
C12 O6 1_555 1_555
H15 C12 1_555 1_555
H16 C12 1_555 1_555
C13 C12 1_555 1_555
C14 C13 1_555 1_555
H17 C14 1_555 1_555
C15 C14 1_555 1_555
H18 C15 1_555 1_555
C16 C15 1_555 1_555
H19 C16 1_555 1_555
C17 C16 1_555 1_555
H20 C17 1_555 1_555
C18 C13 1_555 1_555
H21 C18 1_555 1_555
C2 C3 1_555 1_555
C3 C4 1_555 1_555
C17 C18 1_555 1_555

#END
