
#######################################################################
#
#                 Cambridge Crystallographic Data Centre
#                                CCDC 
#
#######################################################################
#
# If this CIF has been generated from an entry in the Cambridge 
# Structural Database, then it will include bibliographic, chemical, 
# crystal, experimental, refinement or atomic coordinate data resulting 
# from the CCDC's data processing and validation procedures.
#
#######################################################################

data_IJUFEA
_chemical_formula_moiety         'C9 H6 Br1 N1 O1'
_chemical_name_systematic        3-(4-Bromophenyl)-1,2-oxazole
_symmetry_cell_setting           monoclinic
_symmetry_space_group_name_H-M   'P 21/c'
_symmetry_Int_Tables_number      14
_space_group_name_Hall           '-P 2ybc'
loop_
_symmetry_equiv_pos_site_id
_symmetry_equiv_pos_as_xyz
1 x,y,z
2 -x,1/2+y,1/2-z
3 -x,-y,-z
4 x,1/2-y,1/2+z
_cell_length_a                   10.453(2)
_cell_length_b                   13.985(3)
_cell_length_c                   5.8387(12)
_cell_angle_alpha                90
_cell_angle_beta                 96.23(3)
_cell_angle_gamma                90
_cell_volume                     848.491
_exptl_crystal_colour            colorless
_exptl_crystal_description       prism
_cell_formula_units_Z            4
loop_
_atom_site_label
_atom_site_type_symbol
_atom_site_fract_x
_atom_site_fract_y
_atom_site_fract_z
Br1 Br 0.95995(5) 0.62174(4) 1.21780(9)
C1 C 0.7845(4) 0.6204(3) 1.0917(7)
C2 C 0.6938(4) 0.6554(3) 1.2204(6)
H1 H 0.7179 0.6793 1.3675
C3 C 0.5665(4) 0.6554(3) 1.1316(6)
H2 H 0.5044 0.6792 1.2190
C4 C 0.5302(4) 0.6199(2) 0.9119(6)
C5 C 0.6240(4) 0.5835(3) 0.7862(7)
H3 H 0.6006 0.5586 0.6400
C6 C 0.7511(4) 0.5839(3) 0.8748(7)
H4 H 0.8139 0.5598 0.7892
C7 C 0.3943(4) 0.6225(2) 0.8160(6)
C8 C 0.2836(4) 0.6432(3) 0.9162(8)
H5 H 0.2769 0.6596 1.0687
C9 C 0.1866(5) 0.6341(3) 0.7414(9)
H6 H 0.1101 0.6748 0.7399
O1 O 0.2252(17) 0.607(3) 0.548(2)
N1 N 0.3598(18) 0.6066(16) 0.589(2)
N2? N 0.241(2) 0.621(5) 0.544(3)
O2? O 0.372(2) 0.6007(16) 0.599(2)
loop_
_geom_bond_atom_site_label_1
_geom_bond_atom_site_label_2
_geom_bond_site_symmetry_1
_geom_bond_site_symmetry_2
Br1 C1 1_555 1_555
C1 C2 1_555 1_555
C2 H1 1_555 1_555
C3 C2 1_555 1_555
H2 C3 1_555 1_555
C4 C3 1_555 1_555
C5 C4 1_555 1_555
H3 C5 1_555 1_555
C6 C1 1_555 1_555
H4 C6 1_555 1_555
C7 C4 1_555 1_555
C8 C7 1_555 1_555
H5 C8 1_555 1_555
C9 C8 1_555 1_555
H6 C9 1_555 1_555
O1 C9 1_555 1_555
N1 C7 1_555 1_555
C5 C6 1_555 1_555
O1 N1 1_555 1_555

#END
