
#######################################################################
#
#                 Cambridge Crystallographic Data Centre
#                                CCDC 
#
#######################################################################
#
# If this CIF has been generated from an entry in the Cambridge 
# Structural Database, then it will include bibliographic, chemical, 
# crystal, experimental, refinement or atomic coordinate data resulting 
# from the CCDC's data processing and validation procedures.
#
#######################################################################

data_IJUGIF
_chemical_formula_moiety         'C21 H17 N3 O2'
_chemical_name_systematic        
8-(2-Hydroxyphenyl)-4,6-dimethyl-2-phenylpyrido[2,3-d]pyrimidin-7(8H)-one
_symmetry_cell_setting           monoclinic
_symmetry_space_group_name_H-M   'P 21/c'
_symmetry_Int_Tables_number      14
_space_group_name_Hall           '-P 2ybc'
loop_
_symmetry_equiv_pos_site_id
_symmetry_equiv_pos_as_xyz
1 x,y,z
2 -x,1/2+y,1/2-z
3 -x,-y,-z
4 x,1/2-y,1/2+z
_cell_length_a                   7.8581(16)
_cell_length_b                   22.537(5)
_cell_length_c                   10.314(2)
_cell_angle_alpha                90
_cell_angle_beta                 108.15(3)
_cell_angle_gamma                90
_cell_volume                     1735.71
_exptl_crystal_colour            'light yellow'
_exptl_crystal_description       prism
_cell_formula_units_Z            4
loop_
_atom_site_label
_atom_site_type_symbol
_atom_site_fract_x
_atom_site_fract_y
_atom_site_fract_z
N1 N 0.4003(2) 0.45186(8) 0.13321(17)
C1 C 0.3856(3) 0.51042(10) 0.1397(2)
N2 N 0.2738(3) 0.54558(8) 0.04564(18)
C2 C 0.1674(3) 0.51906(10) -0.0659(2)
C3 C 0.1700(3) 0.45763(10) -0.0833(2)
C4 C 0.0621(4) 0.42534(12) -0.1994(2)
C5 C 0.0679(4) 0.36607(11) -0.2076(2)
C6 C 0.1872(3) 0.33266(10) -0.0947(2)
N3 N 0.3003(3) 0.36477(8) 0.01395(18)
C7 C 0.2915(3) 0.42606(10) 0.0225(2)
O1 O 0.1951(3) 0.27801(7) -0.09228(18)
C8 C -0.0411(4) 0.33179(14) -0.3301(3)
C9 C 0.0448(3) 0.55873(11) -0.1715(3)
C10 C 0.5027(3) 0.54053(11) 0.2640(2)
C11 C 0.6268(4) 0.50858(13) 0.3636(3)
C12 C 0.7352(6) 0.53698(17) 0.4780(3)
C13 C 0.7205(6) 0.59621(16) 0.4957(3)
C14 C 0.6001(6) 0.62880(15) 0.3970(3)
C15 C 0.4908(4) 0.60102(12) 0.2815(3)
C16 C 0.4337(3) 0.33315(9) 0.1202(2)
C17 C 0.6091(4) 0.33404(11) 0.1192(3)
C18 C 0.7410(4) 0.30530(12) 0.2209(3)
C19 C 0.6954(4) 0.27652(12) 0.3224(3)
C20 C 0.5220(4) 0.27557(11) 0.3245(3)
C21 C 0.3883(3) 0.30391(10) 0.2223(2)
O2 O 0.2139(3) 0.30415(9) 0.21953(19)
H1 H -0.019(3) 0.4470(12) -0.277(3)
H2 H 0.631(4) 0.4700(14) 0.348(3)
H3 H 0.809(6) 0.514(2) 0.535(4)
H4 H 0.787(5) 0.6176(19) 0.582(4)
H5 H 0.575(5) 0.6655(18) 0.414(4)
H6 H 0.411(5) 0.6232(16) 0.214(4)
H7 H 0.642(3) 0.3489(11) 0.037(3)
H8 H 0.860(5) 0.3057(15) 0.217(3)
H9 H 0.784(4) 0.2579(14) 0.387(3)
H10 H 0.484(3) 0.2565(12) 0.400(3)
H11 H 0.196(5) 0.2715(19) 0.287(5)
H12 H -0.120847 0.305482 -0.303989
H13 H -0.109534 0.358855 -0.398428
H14 H 0.037207 0.309123 -0.366204
H15 H -0.069804 0.539914 -0.208091
H16 H 0.03043 0.595784 -0.13016
H17 H 0.095458 0.565829 -0.243572
loop_
_geom_bond_atom_site_label_1
_geom_bond_atom_site_label_2
_geom_bond_site_symmetry_1
_geom_bond_site_symmetry_2
N1 C1 1_555 1_555
C1 N2 1_555 1_555
N2 C2 1_555 1_555
C2 C3 1_555 1_555
C3 C4 1_555 1_555
C4 C5 1_555 1_555
C5 C6 1_555 1_555
C6 N3 1_555 1_555
N3 C7 1_555 1_555
C7 N1 1_555 1_555
O1 C6 1_555 1_555
C8 C5 1_555 1_555
C9 C2 1_555 1_555
C10 C1 1_555 1_555
C11 C10 1_555 1_555
C12 C11 1_555 1_555
C13 C12 1_555 1_555
C14 C13 1_555 1_555
C15 C10 1_555 1_555
C16 N3 1_555 1_555
C17 C16 1_555 1_555
C18 C17 1_555 1_555
C19 C18 1_555 1_555
C20 C19 1_555 1_555
C21 C16 1_555 1_555
O2 C21 1_555 1_555
H1 C4 1_555 1_555
H2 C11 1_555 1_555
H3 C12 1_555 1_555
H4 C13 1_555 1_555
H5 C14 1_555 1_555
H6 C15 1_555 1_555
H7 C17 1_555 1_555
H8 C18 1_555 1_555
H9 C19 1_555 1_555
H10 C20 1_555 1_555
H11 O2 1_555 1_555
H12 C8 1_555 1_555
H13 C8 1_555 1_555
H14 C8 1_555 1_555
H15 C9 1_555 1_555
H16 C9 1_555 1_555
H17 C9 1_555 1_555
C3 C7 1_555 1_555
C14 C15 1_555 1_555
C20 C21 1_555 1_555

#END
