
#######################################################################
#
#                 Cambridge Crystallographic Data Centre
#                                CCDC 
#
#######################################################################
#
# If this CIF has been generated from an entry in the Cambridge 
# Structural Database, then it will include bibliographic, chemical, 
# crystal, experimental, refinement or atomic coordinate data resulting 
# from the CCDC's data processing and validation procedures.
#
#######################################################################

data_IJUGOK
_chemical_formula_moiety         'C20 H24 F1 N2 O2 1+,0.5(C4 H2 O4 2-)'
_chemical_name_systematic        
'rac-4-[4-Cyano-2-(hydroxymethyl)phenyl]-4-(4-fluorophenyl)-4-hydroxy-N,N-dimethylbutanaminium hemikis(fumarate)'
_symmetry_cell_setting           triclinic
_symmetry_space_group_name_H-M   'P -1'
_symmetry_Int_Tables_number      2
_space_group_name_Hall           '-P 1'
loop_
_symmetry_equiv_pos_site_id
_symmetry_equiv_pos_as_xyz
1 x,y,z
2 -x,-y,-z
_cell_length_a                   8.3312(9)
_cell_length_b                   8.8372(11)
_cell_length_c                   15.0396(13)
_cell_angle_alpha                92.2360(10)
_cell_angle_beta                 102.681(2)
_cell_angle_gamma                107.508(2)
_cell_volume                     1023.64
_exptl_crystal_colour            colorless
_exptl_crystal_description       block
_cell_formula_units_Z            2
loop_
_atom_site_label
_atom_site_type_symbol
_atom_site_fract_x
_atom_site_fract_y
_atom_site_fract_z
F1 F 0.20769(19) 0.79749(15) 0.86453(10)
N1 N -0.2494(2) -0.04111(19) 0.61890(12)
H1 H -0.2346 0.0452 0.5868
N2 N 1.1468(3) 0.2082(3) 1.02194(19)
O1 O 0.38654(19) 0.25106(19) 0.66277(9)
H2 H 0.4688 0.3252 0.6562
O2 O 0.6756(2) 0.4911(2) 0.67399(11)
H3 H 0.7266 0.4358 0.6545
C1 C 0.5496(2) 0.2512(2) 0.81662(12)
C2 C 0.5520(3) 0.1242(2) 0.86801(13)
H4 H 0.4472 0.0468 0.8671
C3 C 0.7026(3) 0.1076(2) 0.92031(14)
H5 H 0.6992 0.0202 0.9532
C4 C 0.8584(3) 0.2230(3) 0.92298(14)
C5 C 0.8597(3) 0.3513(3) 0.87273(15)
H6 H 0.9654 0.4280 0.8745
C6 C 0.7095(2) 0.3695(2) 0.82005(13)
C7 C 0.3417(2) 0.4110(2) 0.78555(12)
C8 C 0.3553(2) 0.4536(2) 0.87729(13)
H7 H 0.3930 0.3925 0.9212
C9 C 0.3138(3) 0.5849(2) 0.90451(14)
H8 H 0.3241 0.6138 0.9661
C10 C 0.2568(3) 0.6718(2) 0.83815(15)
C11 C 0.2425(3) 0.6358(2) 0.74730(15)
H9 H 0.2047 0.6978 0.7040
C12 C 0.2858(3) 0.5040(2) 0.72121(14)
H10 H 0.2773 0.4775 0.6595
C13 C 0.3780(2) 0.2592(2) 0.75605(12)
C14 C 0.2230(2) 0.1135(2) 0.75868(15)
H11 H 0.2482 0.0170 0.7430
H12 H 0.2064 0.1117 0.8205
C15 C 0.0558(3) 0.1151(3) 0.69250(17)
H13 H 0.0034 0.1812 0.7216
H14 H 0.0834 0.1619 0.6383
C16 C -0.1003(8) -0.0176(9) 0.7010(5)
H15 H -0.1343 0.0073 0.7560
H16 H -0.0713 -0.1157 0.7065
C17 C -0.4188(10) -0.0984(12) 0.6542(6)
H17 H -0.5174 -0.1059 0.6051
H18 H -0.4126 -0.0232 0.7037
H19 H -0.4304 -0.2012 0.6755
C18 C -0.2597(14) -0.1404(10) 0.5439(6)
H20 H -0.2704 -0.2459 0.5609
H21 H -0.1566 -0.1009 0.5219
H22 H -0.3592 -0.1438 0.4964
C19 C 1.0189(3) 0.2131(3) 0.97840(17)
C20 C 0.7315(3) 0.5186(3) 0.77151(16)
H23 H 0.6673 0.5809 0.7936
H24 H 0.8532 0.5823 0.7882
O3 O 0.7715(2) 0.2781(2) 0.58894(13)
O4 O 0.8536(3) 0.1944(2) 0.47374(15)
C21 C 0.8499(3) 0.3012(3) 0.52575(16)
C22 C 0.9421(3) 0.4749(3) 0.52195(16)
H25 H 0.9121 0.5504 0.5538
O3A O 1.2285(2) 0.7219(2) 0.41106(13)
O4A O 1.1464(3) 0.8056(2) 0.52626(15)
C21A C 1.1501(3) 0.6988(3) 0.47425(16)
C22A C 1.0579(3) 0.5251(3) 0.47805(16)
H25A H 1.0879 0.4496 0.4462
C23? C -0.0679(8) -0.0449(7) 0.6654(7)
C24? C -0.3573(14) -0.0310(15) 0.6699(7)
C25? C -0.3287(14) -0.1936(14) 0.5463(7)
H26? H -0.0737 -0.1014 0.7192
H27? H -0.0279 -0.1029 0.6235
H28? H -0.4580 -0.0138 0.6323
H29? H -0.3005 0.0565 0.7174
H30? H -0.3919 -0.1285 0.6971
H31? H -0.3457 -0.2878 0.5774
H32? H -0.2506 -0.1931 0.5078
H33? H -0.4380 -0.1927 0.5093
loop_
_geom_bond_atom_site_label_1
_geom_bond_atom_site_label_2
_geom_bond_site_symmetry_1
_geom_bond_site_symmetry_2
F1 C10 1_555 1_555
N1 H1 1_555 1_555
N2 C19 1_555 1_555
O1 H2 1_555 1_555
O2 H3 1_555 1_555
O3 C21 1_555 1_555
O4 C21 1_555 1_555
C1 C2 1_555 1_555
C2 H4 1_555 1_555
C3 C2 1_555 1_555
H5 C3 1_555 1_555
C4 C3 1_555 1_555
C5 C4 1_555 1_555
H6 C5 1_555 1_555
C6 C1 1_555 1_555
C7 C8 1_555 1_555
C8 H7 1_555 1_555
C9 C8 1_555 1_555
H8 C9 1_555 1_555
C10 C9 1_555 1_555
C11 C10 1_555 1_555
H9 C11 1_555 1_555
C12 C7 1_555 1_555
H10 C12 1_555 1_555
C13 O1 1_555 1_555
C14 C13 1_555 1_555
H11 C14 1_555 1_555
H12 C14 1_555 1_555
C15 C14 1_555 1_555
H13 C15 1_555 1_555
H14 C15 1_555 1_555
C16 N1 1_555 1_555
H15 C16 1_555 1_555
H16 C16 1_555 1_555
C17 N1 1_555 1_555
H17 C17 1_555 1_555
H18 C17 1_555 1_555
H19 C17 1_555 1_555
C18 N1 1_555 1_555
H20 C18 1_555 1_555
H21 C18 1_555 1_555
H22 C18 1_555 1_555
C19 C4 1_555 1_555
C20 O2 1_555 1_555
H23 C20 1_555 1_555
H24 C20 1_555 1_555
C21 C22 1_555 1_555
C22 H25 1_555 1_555
O3A C21A 1_555 1_555
O4A C21A 1_555 1_555
C21A C22A 1_555 1_555
C22A C22 1_555 1_555
H25A C22A 1_555 1_555
C1 C13 1_555 1_555
C5 C6 1_555 1_555
C6 C20 1_555 1_555
C7 C13 1_555 1_555
C11 C12 1_555 1_555
C15 C16 1_555 1_555

#END
