
#######################################################################
#
#                 Cambridge Crystallographic Data Centre
#                                CCDC 
#
#######################################################################
#
# If this CIF has been generated from an entry in the Cambridge 
# Structural Database, then it will include bibliographic, chemical, 
# crystal, experimental, refinement or atomic coordinate data resulting 
# from the CCDC's data processing and validation procedures.
#
#######################################################################

data_IJUHEB
_chemical_formula_moiety         'C14 H13 N2 O1 1+,N1 O3 1-'
_chemical_name_systematic        '3-Cyano-N-(2-hydroxybenzyl)anilinium nitrate'
_symmetry_cell_setting           monoclinic
_symmetry_space_group_name_H-M   'P 21/c'
_symmetry_Int_Tables_number      14
_space_group_name_Hall           '-P 2ybc'
loop_
_symmetry_equiv_pos_site_id
_symmetry_equiv_pos_as_xyz
1 x,y,z
2 -x,1/2+y,1/2-z
3 -x,-y,-z
4 x,1/2-y,1/2+z
_cell_length_a                   12.060(2)
_cell_length_b                   13.632(3)
_cell_length_c                   8.8679(18)
_cell_angle_alpha                90
_cell_angle_beta                 93.71(3)
_cell_angle_gamma                90
_cell_volume                     1454.84
_exptl_crystal_colour            colorless
_exptl_crystal_description       block
_cell_formula_units_Z            4
loop_
_atom_site_label
_atom_site_type_symbol
_atom_site_fract_x
_atom_site_fract_y
_atom_site_fract_z
O1 O 0.01326(17) 0.48563(16) 0.7983(2)
H1 H -0.0322 0.4598 0.8506
N1 N 0.21801(17) 0.60209(15) 0.7364(2)
H2 H 0.2317 0.6669 0.7312
H3 H 0.1804 0.5914 0.8192
N2 N 0.4445(3) 0.2610(2) 1.0265(5)
C1 C 0.4388(3) 0.3282(3) 0.9493(5)
C2 C 0.4304(2) 0.4142(2) 0.8546(3)
C3 C 0.3305(2) 0.46590(19) 0.8403(3)
H4 H 0.2691 0.4443 0.8893
C4 C 0.3240(2) 0.54951(19) 0.7526(3)
C5 C 0.4133(2) 0.5825(2) 0.6785(4)
H5 H 0.4077 0.6390 0.6197
C6 C 0.5124(3) 0.5300(3) 0.6929(4)
H6 H 0.5736 0.5520 0.6439
C7 C 0.5207(3) 0.4464(3) 0.7782(4)
H7 H 0.5868 0.4110 0.7850
C8 C 0.1457(2) 0.5717(2) 0.5977(3)
H8 H 0.1749 0.6002 0.5083
H9 H 0.1474 0.5009 0.5874
C9 C 0.0277(2) 0.6051(2) 0.6099(3)
C10 C -0.0376(2) 0.5602(2) 0.7136(3)
C11 C -0.1472(3) 0.5889(2) 0.7271(4)
H10 H -0.1907 0.5586 0.7964
C12 C -0.1896(3) 0.6633(3) 0.6353(5)
H11 H -0.2629 0.6829 0.6435
C13 C -0.1275(3) 0.7091(3) 0.5326(5)
H12 H -0.1578 0.7598 0.4731
C14 C -0.0188(3) 0.6792(2) 0.5179(4)
H13 H 0.0233 0.7088 0.4464
O2 O 0.14630(18) 0.90283(15) 0.5332(2)
O3 O 0.2686(2) 0.78798(16) 0.5296(3)
O4 O 0.1883(2) 0.81584(17) 0.7324(3)
N3 N 0.20210(19) 0.83479(17) 0.5999(3)
loop_
_geom_bond_atom_site_label_1
_geom_bond_atom_site_label_2
_geom_bond_site_symmetry_1
_geom_bond_site_symmetry_2
O1 H1 1_555 1_555
N1 H2 1_555 1_555
H3 N1 1_555 1_555
N2 C1 1_555 1_555
C1 C2 1_555 1_555
C2 C3 1_555 1_555
C3 H4 1_555 1_555
C4 N1 1_555 1_555
C5 C4 1_555 1_555
H5 C5 1_555 1_555
C6 C5 1_555 1_555
H6 C6 1_555 1_555
C7 C2 1_555 1_555
H7 C7 1_555 1_555
C8 N1 1_555 1_555
H8 C8 1_555 1_555
H9 C8 1_555 1_555
C9 C8 1_555 1_555
C10 O1 1_555 1_555
C11 C10 1_555 1_555
H10 C11 1_555 1_555
C12 C11 1_555 1_555
H11 C12 1_555 1_555
C13 C12 1_555 1_555
H12 C13 1_555 1_555
C14 C9 1_555 1_555
H13 C14 1_555 1_555
O2 N3 1_555 1_555
O3 N3 1_555 1_555
O4 N3 1_555 1_555
C3 C4 1_555 1_555
C6 C7 1_555 1_555
C9 C10 1_555 1_555
C13 C14 1_555 1_555

#END
