
#######################################################################
#
#                 Cambridge Crystallographic Data Centre
#                                CCDC 
#
#######################################################################
#
# If this CIF has been generated from an entry in the Cambridge 
# Structural Database, then it will include bibliographic, chemical, 
# crystal, experimental, refinement or atomic coordinate data resulting 
# from the CCDC's data processing and validation procedures.
#
#######################################################################

data_IJUKII
_chemical_formula_moiety         'C14 H11 N3 O5'
_chemical_name_systematic        
(E)-2-Hydroxy-N'-(4-hydroxy-3-nitrobenzylidene)benzohydrazide
_symmetry_cell_setting           monoclinic
_symmetry_space_group_name_H-M   'P 2/c'
_symmetry_Int_Tables_number      13
_space_group_name_Hall           '-P 2yc'
loop_
_symmetry_equiv_pos_site_id
_symmetry_equiv_pos_as_xyz
1 x,y,z
2 -x,y,1/2-z
3 -x,-y,-z
4 x,-y,1/2+z
_cell_length_a                   13.769(2)
_cell_length_b                   13.089(2)
_cell_length_c                   19.999(3)
_cell_angle_alpha                90
_cell_angle_beta                 131.426(3)
_cell_angle_gamma                90
_cell_volume                     2702.52
_exptl_crystal_colour            yellow
_exptl_crystal_description       block
_cell_formula_units_Z            8
loop_
_atom_site_label
_atom_site_type_symbol
_atom_site_fract_x
_atom_site_fract_y
_atom_site_fract_z
O1 O 0.2000(3) 0.18864(15) 0.83343(17)
H1 H 0.1778 0.1291 0.8178
O2 O 0.1875(2) 0.50089(14) 0.86317(14)
O3 O 0.4530(4) 0.29706(19) 0.5827(2)
O4 O 0.4754(2) 0.42998(17) 0.53343(16)
O5 O 0.4360(2) 0.61199(15) 0.56619(16)
H2 H 0.4648 0.5741 0.5502
N1 N 0.2146(3) 0.37642(17) 0.79853(17)
N2 N 0.2490(2) 0.44197(17) 0.76341(15)
N3 N 0.4419(3) 0.3884(2) 0.56981(18)
C1 C 0.1415(3) 0.3304(2) 0.87495(17)
C2 C 0.1469(3) 0.2249(2) 0.86681(19)
C3 C 0.1009(3) 0.1584(2) 0.8941(2)
H5 H 0.1042 0.0883 0.8881
C4 C 0.0508(3) 0.1945(3) 0.9297(2)
H6 H 0.0202 0.1488 0.9477
C5 C 0.0451(3) 0.2982(3) 0.9393(2)
H7 H 0.0113 0.3228 0.9639
C6 C 0.0900(3) 0.3642(2) 0.91194(19)
H8 H 0.0860 0.4341 0.9183
C7 C 0.1842(3) 0.4105(2) 0.84622(17)
C8 C 0.2731(3) 0.3978(2) 0.7192(2)
H9 H 0.2666 0.3270 0.7141
C9 C 0.3104(3) 0.4536(2) 0.67645(18)
C10 C 0.3520(3) 0.3994(2) 0.64042(19)
H10 H 0.3514 0.3284 0.6412
C11 C 0.3948(3) 0.4498(2) 0.60285(18)
C12 C 0.3946(3) 0.5558(2) 0.59936(18)
C13 C 0.3491(3) 0.6095(2) 0.6339(2)
H11 H 0.3462 0.6805 0.6311
C14 C 0.3088(3) 0.5604(2) 0.67171(19)
H12 H 0.2798 0.5984 0.6948
H22 H 0.212(3) 0.3085(9) 0.791(2)
O6 O 0.2115(2) 0.69519(14) 0.82854(13)
H3 H 0.2037 0.6340 0.8329
O7 O 0.1398(2) 1.00436(14) 0.76080(14)
O8 O 0.7151(3) 0.85882(19) 1.33786(16)
O9 O 0.8001(3) 0.99999(19) 1.40763(16)
O10 O 0.7080(2) 1.17289(16) 1.32351(15)
H4 H 0.7641 1.1385 1.3674
N4 N 0.2472(3) 0.89030(17) 0.87275(16)
N5 N 0.3115(2) 0.96498(17) 0.93740(17)
N6 N 0.7213(3) 0.9512(2) 1.33793(19)
C15 C 0.0970(3) 0.8290(2) 0.72103(18)
C16 C 0.1181(3) 0.7249(2) 0.74221(19)
C17 C 0.0450(3) 0.6528(2) 0.6754(2)
H13 H 0.0587 0.5837 0.6899
C18 C -0.0476(3) 0.6822(2) 0.5879(2)
H14 H -0.0967 0.6329 0.5436
C19 C -0.0682(3) 0.7839(3) 0.5651(2)
H15 H -0.1298 0.8036 0.5057
C20 C 0.0033(3) 0.8557(2) 0.6311(2)
H16 H -0.0110 0.9245 0.6155
C21 C 0.1630(3) 0.9152(2) 0.7860(2)
C22 C 0.3914(3) 0.9314(2) 1.0165(2)
H17 H 0.3997 0.8609 1.0246
C23 C 0.4704(3) 0.9952(2) 1.0952(2)
C24 C 0.5549(3) 0.9492(2) 1.1772(2)
H18 H 0.5581 0.8782 1.1807
C25 C 0.6354(3) 1.0058(2) 1.2550(2)
C26 C 0.6330(3) 1.1123(2) 1.2519(2)
C27 C 0.5487(3) 1.1584(2) 1.1691(2)
H19 H 0.5465 1.2294 1.1655
C28 C 0.4687(3) 1.1026(2) 1.0926(2)
H20 H 0.4123 1.1360 1.0379
H21 H 0.270(3) 0.8247(11) 0.891(2)
loop_
_geom_bond_atom_site_label_1
_geom_bond_atom_site_label_2
_geom_bond_site_symmetry_1
_geom_bond_site_symmetry_2
O1 H1 1_555 1_555
O2 C7 1_555 1_555
O3 N3 1_555 1_555
O4 N3 1_555 1_555
O5 H2 1_555 1_555
O6 H3 1_555 1_555
O7 C21 1_555 1_555
O8 N6 1_555 1_555
O9 N6 1_555 1_555
O10 H4 1_555 1_555
N1 N2 1_555 1_555
N2 C8 1_555 1_555
N3 C11 1_555 1_555
N4 N5 1_555 1_555
N5 C22 1_555 1_555
N6 C25 1_555 1_555
C1 C2 1_555 1_555
C2 O1 1_555 1_555
C3 C2 1_555 1_555
H5 C3 1_555 1_555
C4 C3 1_555 1_555
H6 C4 1_555 1_555
C5 C4 1_555 1_555
H7 C5 1_555 1_555
C6 C1 1_555 1_555
H8 C6 1_555 1_555
C7 N1 1_555 1_555
C8 H9 1_555 1_555
C9 C8 1_555 1_555
C10 C9 1_555 1_555
H10 C10 1_555 1_555
C11 C10 1_555 1_555
C12 O5 1_555 1_555
C13 C12 1_555 1_555
H11 C13 1_555 1_555
C14 C9 1_555 1_555
H12 C14 1_555 1_555
C15 C16 1_555 1_555
C16 O6 1_555 1_555
C17 C16 1_555 1_555
H13 C17 1_555 1_555
C18 C17 1_555 1_555
H14 C18 1_555 1_555
C19 C18 1_555 1_555
H15 C19 1_555 1_555
C20 C15 1_555 1_555
H16 C20 1_555 1_555
C21 N4 1_555 1_555
C22 H17 1_555 1_555
C23 C22 1_555 1_555
C24 C23 1_555 1_555
H18 C24 1_555 1_555
C25 C24 1_555 1_555
C26 O10 1_555 1_555
C27 C26 1_555 1_555
H19 C27 1_555 1_555
C28 C23 1_555 1_555
H20 C28 1_555 1_555
H21 N4 1_555 1_555
H22 N1 1_555 1_555
C1 C7 1_555 1_555
C5 C6 1_555 1_555
C11 C12 1_555 1_555
C13 C14 1_555 1_555
C15 C21 1_555 1_555
C19 C20 1_555 1_555
C25 C26 1_555 1_555
C27 C28 1_555 1_555

#END
