
#######################################################################
#
#                 Cambridge Crystallographic Data Centre
#                                CCDC 
#
#######################################################################
#
# If this CIF has been generated from an entry in the Cambridge 
# Structural Database, then it will include bibliographic, chemical, 
# crystal, experimental, refinement or atomic coordinate data resulting 
# from the CCDC's data processing and validation procedures.
#
#######################################################################

data_IJUMUW
_chemical_formula_moiety         'C14 H9 F6 N1 O3'
_chemical_name_systematic        
'Methyl 2-((2,8-bis(trifluoromethyl)quinolin-4-yl)oxy)acetate'
_symmetry_cell_setting           monoclinic
_symmetry_space_group_name_H-M   'P 21/c'
_symmetry_Int_Tables_number      14
_space_group_name_Hall           '-P 2ybc'
loop_
_symmetry_equiv_pos_site_id
_symmetry_equiv_pos_as_xyz
1 x,y,z
2 -x,1/2+y,1/2-z
3 -x,-y,-z
4 x,1/2-y,1/2+z
_cell_length_a                   4.6980(9)
_cell_length_b                   20.549(4)
_cell_length_c                   15.176(3)
_cell_angle_alpha                90
_cell_angle_beta                 95.74(3)
_cell_angle_gamma                90
_cell_volume                     1457.73
_exptl_crystal_colour            colorless
_exptl_crystal_description       block
_cell_formula_units_Z            4
_exptl_crystal_recrystallization_method ethanol
loop_
_atom_site_label
_atom_site_type_symbol
_atom_site_fract_x
_atom_site_fract_y
_atom_site_fract_z
N1 N 0.6586(4) 0.29913(10) 0.42412(14)
O1 O 0.5803(5) 0.19700(9) 0.65680(13)
C1 C 0.2049(6) 0.40690(14) 0.5400(2)
H1 H 0.1174 0.4474 0.5322
C2 C 0.1686(6) 0.37110(15) 0.61581(19)
H2 H 0.0538 0.3874 0.6572
O2 O 0.3296(6) 0.08697(12) 0.58771(19)
C3 C 0.2985(6) 0.31288(14) 0.62992(19)
H3 H 0.2751 0.2896 0.6813
O3 O 0.6519(6) 0.02604(12) 0.66729(19)
C4 C 0.4696(5) 0.28728(13) 0.56703(17)
F1 F 0.7603(4) 0.18242(10) 0.30737(13)
F2 F 1.1459(4) 0.17660(9) 0.39252(12)
C5 C 0.5037(5) 0.32214(11) 0.48869(16)
F3 F 1.0470(4) 0.26159(9) 0.31789(13)
C6 C 0.3659(5) 0.38388(11) 0.47696(17)
C7 C 0.6128(6) 0.22650(13) 0.57896(17)
C8 C 0.7689(6) 0.20394(12) 0.51395(17)
H4 H 0.8646 0.1643 0.5198
C9 C 0.7797(5) 0.24217(12) 0.43878(16)
C10 C 0.9331(6) 0.21592(13) 0.36447(18)
C11 C 0.3985(6) 0.42315(13) 0.39586(19)
C12 C 0.7187(7) 0.13683(16) 0.6768(2)
H5 H 0.7505 0.1314 0.7406
H6 H 0.9034 0.1365 0.6534
C13 C 0.5397(8) 0.08173(16) 0.6375(2)
C14 C 0.4960(10) -0.0321(2) 0.6392(3)
H7 H 0.5940 -0.0695 0.6652
H8 H 0.4832 -0.0354 0.5759
H9 H 0.3070 -0.0301 0.6580
F4 F 0.2699(4) 0.48154(8) 0.39902(12)
F5 F 0.6694(3) 0.43562(7) 0.38446(11)
F6 F 0.2832(3) 0.39444(8) 0.32177(11)
loop_
_geom_bond_atom_site_label_1
_geom_bond_atom_site_label_2
_geom_bond_site_symmetry_1
_geom_bond_site_symmetry_2
N1 C5 1_555 1_555
O1 C7 1_555 1_555
C1 H1 1_555 1_555
C2 C1 1_555 1_555
H2 C2 1_555 1_555
O2 C13 1_555 1_555
C3 C2 1_555 1_555
H3 C3 1_555 1_555
O3 C13 1_555 1_555
C4 C3 1_555 1_555
F1 C10 1_555 1_555
F2 C10 1_555 1_555
C5 C4 1_555 1_555
F3 C10 1_555 1_555
C6 C1 1_555 1_555
C7 C4 1_555 1_555
C8 C7 1_555 1_555
H4 C8 1_555 1_555
C9 N1 1_555 1_555
C10 C9 1_555 1_555
C11 C6 1_555 1_555
C12 O1 1_555 1_555
H5 C12 1_555 1_555
H6 C12 1_555 1_555
C13 C12 1_555 1_555
C14 O3 1_555 1_555
H7 C14 1_555 1_555
H8 C14 1_555 1_555
H9 C14 1_555 1_555
F4 C11 1_555 1_555
F5 C11 1_555 1_555
F6 C11 1_555 1_555
C5 C6 1_555 1_555
C8 C9 1_555 1_555

#END
