
#######################################################################
#
#                 Cambridge Crystallographic Data Centre
#                                CCDC 
#
#######################################################################
#
# If this CIF has been generated from an entry in the Cambridge 
# Structural Database, then it will include bibliographic, chemical, 
# crystal, experimental, refinement or atomic coordinate data resulting 
# from the CCDC's data processing and validation procedures.
#
#######################################################################

data_IJUNEH
_chemical_name_common            
(4Z)-4-((2,6-Diisopropylanilino)(phenyl)methylidene)-3-methyl-1-phenyl-1H-pyrazol-5(4H)-one
_chemical_formula_moiety         'C29 H31 N3 O1'
_chemical_name_systematic        
(4Z)-4-(((2,6-Diisopropylphenyl)amino)(phenyl)methylene)-5-methyl-2-phenyl-2,4-dihydro-3H-pyrazol-3-one
_symmetry_cell_setting           orthorhombic
_symmetry_space_group_name_H-M   'P n a 21'
_symmetry_Int_Tables_number      33
_space_group_name_Hall           'P 2c -2n'
loop_
_symmetry_equiv_pos_site_id
_symmetry_equiv_pos_as_xyz
1 x,y,z
2 -x,-y,1/2+z
3 1/2+x,1/2-y,z
4 1/2-x,1/2+y,1/2+z
_cell_length_a                   12.9094(6)
_cell_length_b                   10.6947(5)
_cell_length_c                   17.9676(8)
_cell_angle_alpha                90
_cell_angle_beta                 90
_cell_angle_gamma                90
_cell_volume                     2480.65
_exptl_crystal_colour            yellow
_exptl_crystal_description       parallelepiped
_cell_formula_units_Z            4
_exptl_crystal_recrystallization_method ethanol
loop_
_atom_site_label
_atom_site_type_symbol
_atom_site_fract_x
_atom_site_fract_y
_atom_site_fract_z
O1 O 0.91287(8) 0.45238(12) 0.24514(7)
N1 N 0.93713(10) 0.44539(12) 0.37452(8)
N2 N 0.87895(11) 0.47065(13) 0.43864(8)
N3 N 0.72027(10) 0.52807(13) 0.21416(8)
H1 H 0.7776(18) 0.502(2) 0.2066(14)
C1 C 0.88237(12) 0.46862(13) 0.31018(10)
C2 C 0.78251(11) 0.51329(14) 0.33598(10)
C3 C 0.78841(12) 0.50848(14) 0.41567(10)
C4 C 0.70441(13) 0.53150(18) 0.47178(11)
H2 H 0.7326 0.5214 0.5221
H3 H 0.6481 0.4714 0.4641
H4 H 0.6777 0.6167 0.4658
C5 C 1.04093(11) 0.40332(14) 0.38254(10)
C6 C 1.08976(13) 0.34062(15) 0.32476(11)
H5 H 1.0547 0.3269 0.2790
C7 C 1.19107(14) 0.29789(16) 0.33456(12)
H6 H 1.2252 0.2554 0.2951
C8 C 1.24239(13) 0.31699(16) 0.40159(11)
H7 H 1.3107 0.2861 0.4084
C9 C 1.19329(14) 0.38119(17) 0.45825(12)
H8 H 1.2288 0.3956 0.5038
C10 C 1.09248(13) 0.42494(17) 0.44944(10)
H9 H 1.0592 0.4691 0.4886
C11 C 0.70334(12) 0.54389(14) 0.28638(9)
C12 C 0.59977(12) 0.58874(14) 0.31176(9)
C13 C 0.58906(14) 0.70320(16) 0.34759(11)
H10 H 0.6477 0.7557 0.3542
C14 C 0.49253(15) 0.74109(18) 0.37387(12)
H11 H 0.4854 0.8194 0.3983
C15 C 0.40749(14) 0.6652(2) 0.36452(13)
H12 H 0.3418 0.6910 0.3827
C16 C 0.41744(14) 0.5512(2) 0.32857(13)
H13 H 0.3586 0.4989 0.3224
C17 C 0.51324(13) 0.51316(17) 0.30150(11)
H14 H 0.5196 0.4357 0.2761
C18 C 0.65579(11) 0.56969(14) 0.15362(9)
C19 C 0.65238(11) 0.69774(14) 0.13647(9)
C20 C 0.59414(11) 0.73324(15) 0.07474(10)
H15 H 0.5891 0.8193 0.0622
C21 C 0.54324(11) 0.64521(16) 0.03119(10)
H16 H 0.5043 0.6714 -0.0109
C22 C 0.54908(12) 0.51948(16) 0.04900(10)
H17 H 0.5144 0.4599 0.0187
C23 C 0.60517(11) 0.47919(15) 0.11070(9)
C24 C 0.71736(13) 0.79226(16) 0.17900(10)
H18 H 0.7239 0.7617 0.2314
C25 C 0.82671(14) 0.79704(18) 0.14543(12)
H19 H 0.8560 0.7126 0.1442
H20 H 0.8708 0.8512 0.1760
H21 H 0.8231 0.8304 0.0947
C26 C 0.66815(17) 0.92275(18) 0.18176(13)
H22 H 0.5986 0.9168 0.2034
H23 H 0.6633 0.9567 0.1312
H24 H 0.7110 0.9781 0.2124
C27 C 0.61474(14) 0.34042(16) 0.12972(11)
H25 H 0.6263 0.3337 0.1846
C28 C 0.7098(2) 0.2853(2) 0.09084(16)
H26 H 0.7712 0.3345 0.1038
H27 H 0.6994 0.2874 0.0368
H28 H 0.7197 0.1986 0.1070
C29 C 0.5179(2) 0.2645(2) 0.11084(16)
H29 H 0.5289 0.1769 0.1247
H30 H 0.5042 0.2701 0.0573
H31 H 0.4586 0.2980 0.1384
loop_
_geom_bond_atom_site_label_1
_geom_bond_atom_site_label_2
_geom_bond_site_symmetry_1
_geom_bond_site_symmetry_2
O1 C1 1_555 1_555
N1 N2 1_555 1_555
N2 C3 1_555 1_555
N3 H1 1_555 1_555
C1 N1 1_555 1_555
C2 C1 1_555 1_555
C3 C2 1_555 1_555
C4 C3 1_555 1_555
H2 C4 1_555 1_555
H3 C4 1_555 1_555
H4 C4 1_555 1_555
C5 N1 1_555 1_555
C6 C5 1_555 1_555
H5 C6 1_555 1_555
C7 C6 1_555 1_555
H6 C7 1_555 1_555
C8 C7 1_555 1_555
H7 C8 1_555 1_555
C9 C8 1_555 1_555
H8 C9 1_555 1_555
C10 C5 1_555 1_555
H9 C10 1_555 1_555
C11 N3 1_555 1_555
C12 C11 1_555 1_555
C13 C12 1_555 1_555
H10 C13 1_555 1_555
C14 C13 1_555 1_555
H11 C14 1_555 1_555
C15 C14 1_555 1_555
H12 C15 1_555 1_555
C16 C15 1_555 1_555
H13 C16 1_555 1_555
C17 C12 1_555 1_555
H14 C17 1_555 1_555
C18 N3 1_555 1_555
C19 C18 1_555 1_555
C20 C19 1_555 1_555
H15 C20 1_555 1_555
C21 C20 1_555 1_555
H16 C21 1_555 1_555
C22 C21 1_555 1_555
H17 C22 1_555 1_555
C23 C18 1_555 1_555
C24 C19 1_555 1_555
H18 C24 1_555 1_555
C25 C24 1_555 1_555
H19 C25 1_555 1_555
H20 C25 1_555 1_555
H21 C25 1_555 1_555
C26 C24 1_555 1_555
H22 C26 1_555 1_555
H23 C26 1_555 1_555
H24 C26 1_555 1_555
C27 C23 1_555 1_555
H25 C27 1_555 1_555
C28 C27 1_555 1_555
H26 C28 1_555 1_555
H27 C28 1_555 1_555
H28 C28 1_555 1_555
C29 C27 1_555 1_555
H29 C29 1_555 1_555
H30 C29 1_555 1_555
H31 C29 1_555 1_555
C2 C11 1_555 1_555
C9 C10 1_555 1_555
C16 C17 1_555 1_555
C22 C23 1_555 1_555

#END
