
#######################################################################
#
#                 Cambridge Crystallographic Data Centre
#                                CCDC 
#
#######################################################################
#
# If this CIF has been generated from an entry in the Cambridge 
# Structural Database, then it will include bibliographic, chemical, 
# crystal, experimental, refinement or atomic coordinate data resulting 
# from the CCDC's data processing and validation procedures.
#
#######################################################################

data_IJURIP
_chemical_formula_moiety         'C18 H18 N4 O1 S1'
_chemical_name_systematic        
rac-4-Amino-1-(2-benzoyl-1-phenylethyl)-3-methyl-1H-1,2,4-triazole-5(4H)-thione
_symmetry_cell_setting           orthorhombic
_symmetry_space_group_name_H-M   'P b c a'
_symmetry_Int_Tables_number      61
_space_group_name_Hall           '-P 2ac 2ab'
loop_
_symmetry_equiv_pos_site_id
_symmetry_equiv_pos_as_xyz
1 x,y,z
2 1/2-x,-y,1/2+z
3 -x,1/2+y,1/2-z
4 1/2+x,1/2-y,-z
5 -x,-y,-z
6 1/2+x,y,1/2-z
7 x,1/2-y,1/2+z
8 1/2-x,1/2+y,z
_cell_length_a                   17.604(4)
_cell_length_b                   10.199(2)
_cell_length_c                   19.241(4)
_cell_angle_alpha                90
_cell_angle_beta                 90
_cell_angle_gamma                90
_cell_volume                     3454.59
_exptl_crystal_colour            colorless
_exptl_crystal_description       prism
_cell_formula_units_Z            8
_exptl_crystal_recrystallization_method chloroform/ethanol
loop_
_atom_site_label
_atom_site_type_symbol
_atom_site_fract_x
_atom_site_fract_y
_atom_site_fract_z
S1 S 0.20040(3) 0.45904(6) 0.42466(4)
O1 O 0.38811(10) 0.67534(18) 0.34992(8)
N1 N 0.28460(14) 0.2386(2) 0.33526(11)
H1 H 0.2383(9) 0.276(2) 0.3333(17)
H2 H 0.2847(14) 0.1601(16) 0.3563(14)
N2 N 0.32401(11) 0.31994(19) 0.38230(9)
N3 N 0.35336(10) 0.47896(19) 0.44806(10)
N4 N 0.42070(11) 0.4176(2) 0.43219(10)
C1 C 0.49061(13) 0.8173(2) 0.37434(12)
C2 C 0.49301(16) 0.8628(3) 0.30604(13)
H3 H 0.4568 0.8345 0.2742
C3 C 0.54873(19) 0.9494(3) 0.28535(17)
H4 H 0.5496 0.9796 0.2398
C4 C 0.60258(19) 0.9911(3) 0.33125(19)
H5 H 0.6403 1.0486 0.3167
C5 C 0.60126(18) 0.9482(3) 0.39905(19)
H6 H 0.6379 0.9771 0.4303
C6 C 0.54545(15) 0.8625(3) 0.42060(14)
H7 H 0.5445 0.8345 0.4666
C7 C 0.43012(13) 0.7222(2) 0.39396(12)
C8 C 0.42195(13) 0.6852(2) 0.46984(11)
H8 H 0.4203 0.7649 0.4974
H9 H 0.4666 0.6363 0.4839
C9 C 0.35175(12) 0.6038(2) 0.48612(11)
H10 H 0.3075 0.6531 0.4696
C10 C 0.34152(13) 0.5820(3) 0.56370(12)
C11 C 0.30483(17) 0.6765(3) 0.60210(14)
H11 H 0.2866 0.7518 0.5804
C12 C 0.2949(2) 0.6597(4) 0.67341(15)
H12 H 0.2703 0.7239 0.6994
C13 C 0.32127(19) 0.5483(4) 0.70528(15)
H13 H 0.3153 0.5376 0.7530
C14 C 0.3560(2) 0.4543(4) 0.66734(16)
H14 H 0.3729 0.3781 0.6890
C15 C 0.36657(19) 0.4705(3) 0.59659(15)
H15 H 0.3908 0.4053 0.5711
C16 C 0.29294(13) 0.4212(2) 0.41909(11)
C17 C 0.40078(14) 0.3207(2) 0.39139(12)
C18 C 0.45268(16) 0.2216(3) 0.36137(14)
H16 H 0.5043 0.2491 0.3679
H17 H 0.4425 0.2124 0.3126
H18 H 0.4448 0.1389 0.3841
loop_
_geom_bond_atom_site_label_1
_geom_bond_atom_site_label_2
_geom_bond_site_symmetry_1
_geom_bond_site_symmetry_2
S1 C16 1_555 1_555
O1 C7 1_555 1_555
N1 H1 1_555 1_555
H2 N1 1_555 1_555
N2 N1 1_555 1_555
N3 N4 1_555 1_555
N4 C17 1_555 1_555
C1 C2 1_555 1_555
C2 H3 1_555 1_555
C3 C2 1_555 1_555
H4 C3 1_555 1_555
C4 C3 1_555 1_555
H5 C4 1_555 1_555
C5 C4 1_555 1_555
H6 C5 1_555 1_555
C6 C1 1_555 1_555
H7 C6 1_555 1_555
C7 C1 1_555 1_555
C8 C7 1_555 1_555
H8 C8 1_555 1_555
H9 C8 1_555 1_555
C9 N3 1_555 1_555
H10 C9 1_555 1_555
C10 C9 1_555 1_555
C11 C10 1_555 1_555
H11 C11 1_555 1_555
C12 C11 1_555 1_555
H12 C12 1_555 1_555
C13 C12 1_555 1_555
H13 C13 1_555 1_555
C14 C13 1_555 1_555
H14 C14 1_555 1_555
C15 C10 1_555 1_555
H15 C15 1_555 1_555
C16 N2 1_555 1_555
C17 N2 1_555 1_555
C18 C17 1_555 1_555
H16 C18 1_555 1_555
H17 C18 1_555 1_555
H18 C18 1_555 1_555
N3 C16 1_555 1_555
C5 C6 1_555 1_555
C8 C9 1_555 1_555
C14 C15 1_555 1_555

#END
