
#######################################################################
#
#                 Cambridge Crystallographic Data Centre
#                                CCDC 
#
#######################################################################
#
# If this CIF has been generated from an entry in the Cambridge 
# Structural Database, then it will include bibliographic, chemical, 
# crystal, experimental, refinement or atomic coordinate data resulting 
# from the CCDC's data processing and validation procedures.
#
#######################################################################

data_IJUSIQ
_chemical_formula_moiety         'C15 H14 N2 O7'
_chemical_name_systematic        1,3-bis(2-nitrophenoxy)propan-2-ol
_symmetry_cell_setting           orthorhombic
_symmetry_space_group_name_H-M   'P 21 21 21'
_symmetry_Int_Tables_number      19
_space_group_name_Hall           'P 2ac 2ab'
loop_
_symmetry_equiv_pos_site_id
_symmetry_equiv_pos_as_xyz
1 x,y,z
2 1/2-x,-y,1/2+z
3 1/2+x,1/2-y,-z
4 -x,1/2+y,1/2-z
_cell_length_a                   7.287(4)
_cell_length_b                   7.287(4)
_cell_length_c                   28.158(17)
_cell_angle_alpha                90
_cell_angle_beta                 90
_cell_angle_gamma                90
_cell_volume                     1495.2
_exptl_crystal_colour            yellow
_exptl_crystal_description       block
_cell_formula_units_Z            4
_exptl_crystal_recrystallization_method ethanol
loop_
_atom_site_label
_atom_site_type_symbol
_atom_site_fract_x
_atom_site_fract_y
_atom_site_fract_z
C1 C 0.0232(5) 0.8105(5) 0.40291(10)
C2 C -0.1155(6) 0.8419(5) 0.43548(12)
H1 H -0.0936 0.8266 0.4678
C3 C -0.2854(6) 0.8957(5) 0.41980(14)
H2 H -0.3794 0.9164 0.4415
C4 C -0.3162(6) 0.9188(6) 0.37265(14)
H3 H -0.4329 0.9519 0.3623
C5 C -0.1785(5) 0.8944(5) 0.33975(12)
H4 H -0.2014 0.9155 0.3077
C6 C -0.0061(5) 0.8383(5) 0.35432(10)
C7 C 0.1259(5) 0.8721(5) 0.27648(9)
H5 H 0.1111 1.0041 0.2742
H6 H 0.0226 0.8130 0.2610
C8 C 0.3040(5) 0.8121(5) 0.25460(11)
H7 H 0.4052 0.8645 0.2731
C9 C 0.3240(4) 0.8721(5) 0.20369(10)
H8 H 0.3520 1.0021 0.2023
H9 H 0.4230 0.8051 0.1885
C10 C 0.1474(5) 0.8550(5) 0.13208(10)
C11 C -0.0153(4) 0.8131(5) 0.10830(10)
C12 C -0.0277(5) 0.8204(5) 0.05975(11)
H10 H -0.1371 0.7895 0.0447
C13 C 0.1211(6) 0.8731(5) 0.03335(11)
H11 H 0.1133 0.8780 0.0004
C14 C 0.2825(6) 0.9190(5) 0.05595(11)
H12 H 0.3828 0.9573 0.0381
C15 C 0.2969(5) 0.9087(4) 0.10472(11)
H13 H 0.4074 0.9379 0.1194
N1 N 0.2012(4) 0.7496(4) 0.42086(10)
N2 N -0.1829(4) 0.7619(4) 0.13400(11)
O1 O 0.2440(4) 0.7981(4) 0.46074(9)
O2 O 0.2959(4) 0.6490(4) 0.39666(9)
O3 O 0.1401(3) 0.8157(4) 0.32490(7)
O4 O 0.3173(4) 0.6194(3) 0.25628(7)
H14 H 0.3071 0.5847 0.2839
O5 O 0.1533(3) 0.8355(3) 0.17982(7)
O6 O -0.2026(3) 0.8110(4) 0.17517(8)
O7 O -0.2971(4) 0.6716(4) 0.11246(10)
loop_
_geom_bond_atom_site_label_1
_geom_bond_atom_site_label_2
_geom_bond_site_symmetry_1
_geom_bond_site_symmetry_2
C1 C2 1_555 1_555
C2 H1 1_555 1_555
C3 C2 1_555 1_555
H2 C3 1_555 1_555
C4 C3 1_555 1_555
H3 C4 1_555 1_555
C5 C4 1_555 1_555
H4 C5 1_555 1_555
C6 C1 1_555 1_555
C7 H5 1_555 1_555
H6 C7 1_555 1_555
C8 C7 1_555 1_555
H7 C8 1_555 1_555
C9 C8 1_555 1_555
H8 C9 1_555 1_555
H9 C9 1_555 1_555
C10 C11 1_555 1_555
C11 C12 1_555 1_555
C12 H10 1_555 1_555
C13 C12 1_555 1_555
H11 C13 1_555 1_555
C14 C13 1_555 1_555
H12 C14 1_555 1_555
C15 C10 1_555 1_555
H13 C15 1_555 1_555
N1 C1 1_555 1_555
N2 C11 1_555 1_555
O1 N1 1_555 1_555
O2 N1 1_555 1_555
O3 C6 1_555 1_555
O4 C8 1_555 1_555
H14 O4 1_555 1_555
O5 C9 1_555 1_555
O6 N2 1_555 1_555
O7 N2 1_555 1_555
C5 C6 1_555 1_555
C7 O3 1_555 1_555
C10 O5 1_555 1_555
C14 C15 1_555 1_555

#END
