
#######################################################################
#
#                 Cambridge Crystallographic Data Centre
#                                CCDC 
#
#######################################################################
#
# If this CIF has been generated from an entry in the Cambridge 
# Structural Database, then it will include bibliographic, chemical, 
# crystal, experimental, refinement or atomic coordinate data resulting 
# from the CCDC's data processing and validation procedures.
#
#######################################################################

data_IJUTAJ01
_chemical_name_common            'Triamcinolone acetonide acetate'
_chemical_formula_moiety         'C26 H33 F1 O7'
_chemical_name_systematic        
"2-(4b-fluoro-5-hydroxy-4a,6a,8,8-tetramethyl-2-oxo-2,4a,4b,5,6,6a,9a,10,10a,10b,11,12-dodecahydro-6bH-naphtho[2',1':4,5]indeno[1,2-d][1,3]dioxol-6b-yl)-2-oxoethyl acetate"
_chemical_properties_biological  
'triamcinolone acetonide acetate is a drug used to treat rheumatoid arthritis and chronic inflammatory diseases'
_symmetry_cell_setting           orthorhombic
_symmetry_space_group_name_H-M   'P 21 21 21'
_symmetry_Int_Tables_number      19
_space_group_name_Hall           'P 2ac 2ab'
loop_
_symmetry_equiv_pos_site_id
_symmetry_equiv_pos_as_xyz
1 x,y,z
2 1/2-x,-y,1/2+z
3 -x,1/2+y,1/2-z
4 1/2+x,1/2-y,-z
_cell_length_a                   11.1071(8)
_cell_length_b                   15.9298(13)
_cell_length_c                   13.6656(11)
_cell_angle_alpha                90
_cell_angle_beta                 90
_cell_angle_gamma                90
_cell_volume                     2417.91
_exptl_crystal_colour            colorless
_exptl_crystal_description       block
_cell_formula_units_Z            4
loop_
_atom_site_label
_atom_site_type_symbol
_atom_site_fract_x
_atom_site_fract_y
_atom_site_fract_z
F1 F 0.43394(17) 0.34405(13) 0.54118(17)
O1 O 0.3948(3) 0.0818(2) 0.7025(2)
O2 O 0.6708(2) 0.46571(19) 0.6465(2)
H1 H 0.6667 0.5041 0.6884
O3 O 0.3568(2) 0.55558(17) 0.3803(2)
O4 O 0.4109(2) 0.53551(19) 0.2203(2)
O5 O 0.5616(3) 0.7146(2) 0.3337(2)
O6 O 0.4293(3) 0.80550(17) 0.4562(2)
O7 O 0.5987(3) 0.7814(2) 0.5403(2)
C1 C 0.6017(4) 0.2892(3) 0.3954(3)
H2 H 0.5170 0.2830 0.3739
H3 H 0.6522 0.2934 0.3359
C2 C 0.6381(4) 0.2108(3) 0.4515(3)
H4 H 0.6126 0.1604 0.4146
H5 H 0.7268 0.2091 0.4583
C3 C 0.5815(3) 0.2098(3) 0.5509(3)
C4 C 0.5100(4) 0.1463(3) 0.5795(3)
H6 H 0.4948 0.1018 0.5349
C5 C 0.4550(4) 0.1429(3) 0.6759(4)
C6 C 0.4782(4) 0.2143(3) 0.7405(3)
H7 H 0.4445 0.2148 0.8043
C7 C 0.5459(4) 0.2786(3) 0.7113(3)
H8 H 0.5565 0.3237 0.7560
C8 C 0.6067(3) 0.2855(3) 0.6135(3)
C9 C 0.5587(3) 0.3630(2) 0.5559(3)
C10 C 0.6136(3) 0.3707(2) 0.4534(3)
H9 H 0.7009 0.3851 0.4598
C11 C 0.5523(3) 0.4465(3) 0.6116(3)
H10 H 0.4993 0.4379 0.6699
C12 C 0.4992(3) 0.5190(2) 0.5513(3)
H11 H 0.4114 0.5101 0.5439
H12 H 0.5110 0.5722 0.5875
C13 C 0.5557(3) 0.5276(3) 0.4493(3)
C14 C 0.5500(3) 0.4414(3) 0.3993(3)
H13 H 0.4629 0.4257 0.3988
C15 C 0.5822(4) 0.4598(3) 0.2926(3)
H14 H 0.5505 0.4157 0.2486
H15 H 0.6704 0.4641 0.2838
C16 C 0.5205(3) 0.5444(3) 0.2734(3)
H16 H 0.5764 0.5839 0.2393
C17 C 0.4820(3) 0.5798(3) 0.3736(3)
C18 C 0.6845(3) 0.5641(3) 0.4547(3)
H17 H 0.6831 0.6171 0.4910
H18 H 0.7147 0.5741 0.3884
H19 H 0.7375 0.5241 0.4883
C19 C 0.7445(3) 0.2894(3) 0.6340(3)
H20 H 0.7613 0.3347 0.6804
H21 H 0.7876 0.3000 0.5727
H22 H 0.7713 0.2358 0.6617
C20 C 0.4912(4) 0.6742(3) 0.3818(4)
C21 C 0.4085(4) 0.7168(3) 0.4546(3)
H23 H 0.3237 0.7057 0.4366
H24 H 0.4227 0.6934 0.5207
C22 C 0.5325(5) 0.8297(3) 0.4996(4)
C23 C 0.5496(5) 0.9225(3) 0.4921(4)
H25 H 0.5390 0.9401 0.4239
H26 H 0.6308 0.9373 0.5141
H27 H 0.4901 0.9510 0.5334
C24 C 0.3096(4) 0.5445(3) 0.2831(3)
C25 C 0.2349(4) 0.4649(3) 0.2818(4)
H28 H 0.2025 0.4559 0.2159
H29 H 0.1684 0.4701 0.3285
H30 H 0.2856 0.4170 0.3001
C26 C 0.2383(4) 0.6205(3) 0.2536(3)
H31 H 0.1720 0.6289 0.2999
H32 H 0.2057 0.6123 0.1877
H33 H 0.2908 0.6700 0.2540
loop_
_geom_bond_atom_site_label_1
_geom_bond_atom_site_label_2
_geom_bond_site_symmetry_1
_geom_bond_site_symmetry_2
F1 C9 1_555 1_555
O1 C5 1_555 1_555
O2 H1 1_555 1_555
O3 C17 1_555 1_555
O4 C16 1_555 1_555
O5 C20 1_555 1_555
O6 C21 1_555 1_555
O7 C22 1_555 1_555
C1 H2 1_555 1_555
H3 C1 1_555 1_555
C2 C1 1_555 1_555
H4 C2 1_555 1_555
H5 C2 1_555 1_555
C3 C2 1_555 1_555
C4 C3 1_555 1_555
H6 C4 1_555 1_555
C5 C4 1_555 1_555
C6 C5 1_555 1_555
H7 C6 1_555 1_555
C7 C6 1_555 1_555
H8 C7 1_555 1_555
C8 C3 1_555 1_555
C9 C8 1_555 1_555
C10 C1 1_555 1_555
H9 C10 1_555 1_555
C11 O2 1_555 1_555
H10 C11 1_555 1_555
C12 C11 1_555 1_555
H11 C12 1_555 1_555
H12 C12 1_555 1_555
C13 C12 1_555 1_555
C14 C10 1_555 1_555
H13 C14 1_555 1_555
C15 C14 1_555 1_555
H14 C15 1_555 1_555
H15 C15 1_555 1_555
C16 C15 1_555 1_555
H16 C16 1_555 1_555
C17 C13 1_555 1_555
C18 C13 1_555 1_555
H17 C18 1_555 1_555
H18 C18 1_555 1_555
H19 C18 1_555 1_555
C19 C8 1_555 1_555
H20 C19 1_555 1_555
H21 C19 1_555 1_555
H22 C19 1_555 1_555
C20 C17 1_555 1_555
C21 C20 1_555 1_555
H23 C21 1_555 1_555
H24 C21 1_555 1_555
C22 O6 1_555 1_555
C23 C22 1_555 1_555
H25 C23 1_555 1_555
H26 C23 1_555 1_555
H27 C23 1_555 1_555
C24 O3 1_555 1_555
C25 C24 1_555 1_555
H28 C25 1_555 1_555
H29 C25 1_555 1_555
H30 C25 1_555 1_555
C26 C24 1_555 1_555
H31 C26 1_555 1_555
H32 C26 1_555 1_555
H33 C26 1_555 1_555
O4 C24 1_555 1_555
C7 C8 1_555 1_555
C9 C10 1_555 1_555
C9 C11 1_555 1_555
C13 C14 1_555 1_555
C16 C17 1_555 1_555

#END
