
#######################################################################
#
#                 Cambridge Crystallographic Data Centre
#                                CCDC 
#
#######################################################################
#
# If this CIF has been generated from an entry in the Cambridge 
# Structural Database, then it will include bibliographic, chemical, 
# crystal, experimental, refinement or atomic coordinate data resulting 
# from the CCDC's data processing and validation procedures.
#
#######################################################################

data_IJUXUH
_chemical_name_common            
1-(5-(9-Anthryl)-3-(4-nitrophenyl)-4,5-dihydro-1H-pyrazol-1-yl)ethanone
_chemical_formula_moiety         'C25 H19 N3 O3'
_chemical_name_systematic        
1-[5-(Anthracen-9-yl)-3-(4-nitrophenyl)-4,5-dihydro-1H-pyrazol-1-yl]ethan-1-one
_symmetry_cell_setting           orthorhombic
_symmetry_space_group_name_H-M   'P c a 21'
_symmetry_Int_Tables_number      29
_space_group_name_Hall           'P 2c -2ac'
loop_
_symmetry_equiv_pos_site_id
_symmetry_equiv_pos_as_xyz
1 x,y,z
2 -x,-y,1/2+z
3 1/2+x,-y,z
4 1/2-x,y,1/2+z
_cell_length_a                   22.888(5)
_cell_length_b                   9.4031(19)
_cell_length_c                   8.9688(18)
_cell_angle_alpha                90
_cell_angle_beta                 90
_cell_angle_gamma                90
_cell_volume                     1930.25
_exptl_crystal_colour            yellow
_exptl_crystal_description       prism
_cell_formula_units_Z            4
_exptl_crystal_recrystallization_method acetonitrile
loop_
_atom_site_label
_atom_site_type_symbol
_atom_site_fract_x
_atom_site_fract_y
_atom_site_fract_z
N1 N 0.09343(7) 0.5404(2) 0.2678(2)
C1 C -0.06548(9) 0.5860(2) 0.2243(2)
C2 C -0.00794(9) 0.6399(2) 0.2175(2)
N2 N 0.14083(8) 0.6030(2) 0.3366(2)
C3 C -0.09433(10) 0.7481(2) 0.0248(3)
H1 H -0.1228 0.7832 -0.0394
C4 C 0.06219(10) 0.8147(2) 0.1055(3)
H2 H 0.0915 0.7868 0.1711
C5 C 0.12204(9) 0.6934(2) 0.4330(3)
C6 C 0.03652(9) 0.5881(2) 0.3311(3)
H3 H 0.0208(10) 0.506(3) 0.387(3)
C7 C 0.00641(9) 0.7476(2) 0.1140(2)
C8 C 0.22213(9) 0.7571(3) 0.5197(3)
H4 H 0.2374 0.6845 0.4611
C9 C -0.03748(10) 0.7977(2) 0.0123(3)
C10 C 0.23569(10) 0.9475(2) 0.6891(3)
C11 C 0.16176(9) 0.7811(2) 0.5216(3)
C12 C -0.16961(10) 0.6046(3) 0.1484(3)
H5 H -0.1985 0.6480 0.0915
O1 O 0.25365(12) 1.1255(2) 0.8605(3)
C13 C -0.10970(9) 0.6478(2) 0.1304(3)
O2 O 0.05499(8) 0.3576(2) 0.1437(3)
C14 C 0.17679(11) 0.9742(3) 0.6936(3)
H6 H 0.1620 1.0473 0.7523
C15 C -0.08379(10) 0.4732(3) 0.3199(3)
H7 H -0.0558(12) 0.417(3) 0.377(3)
C16 C 0.07371(11) 0.9182(3) 0.0041(3)
H8 H 0.1101 0.9621 0.0041
C17 C 0.13977(10) 0.8900(3) 0.6090(3)
H9 H 0.0997 0.9068 0.6110
C18 C 0.05649(9) 0.7025(3) 0.4436(3)
H10 H 0.0425 0.7960 0.4152
H11 H 0.0430 0.6808 0.5435
C19 C -0.14067(10) 0.4332(3) 0.3298(3)
H12 H -0.1510 0.3589 0.3929
C20 C -0.02261(12) 0.9016(3) -0.0966(3)
H13 H -0.0506 0.9297 -0.1659
N3 N 0.27495(10) 1.0378(2) 0.7773(3)
C21 C 0.25901(10) 0.8402(3) 0.6037(3)
H14 H 0.2991 0.8241 0.6027
O3 O 0.32753(9) 1.0208(2) 0.7630(3)
C22 C 0.09882(10) 0.4194(2) 0.1846(3)
C23 C -0.18442(10) 0.5023(3) 0.2462(4)
H15 H -0.2234 0.4772 0.2587
C24 C 0.15940(11) 0.3706(3) 0.1485(4)
H16 H 0.1576 0.2937 0.0783
H17 H 0.1784 0.3389 0.2380
H18 H 0.1811 0.4480 0.1061
C25 C 0.03117(11) 0.9604(3) -0.1016(3)
H19 H 0.0402 1.0280 -0.1737
loop_
_geom_bond_atom_site_label_1
_geom_bond_atom_site_label_2
_geom_bond_site_symmetry_1
_geom_bond_site_symmetry_2
N1 N2 1_555 1_555
C1 C2 1_555 1_555
C2 C6 1_555 1_555
N2 C5 1_555 1_555
C3 H1 1_555 1_555
C4 H2 1_555 1_555
C5 C11 1_555 1_555
C6 N1 1_555 1_555
H3 C6 1_555 1_555
C7 C2 1_555 1_555
C8 H4 1_555 1_555
C9 C3 1_555 1_555
C10 C14 1_555 1_555
C11 C8 1_555 1_555
C12 H5 1_555 1_555
O1 N3 1_555 1_555
C13 C1 1_555 1_555
O2 C22 1_555 1_555
C14 H6 1_555 1_555
C15 C1 1_555 1_555
H7 C15 1_555 1_555
C16 C4 1_555 1_555
H8 C16 1_555 1_555
C17 C11 1_555 1_555
H9 C17 1_555 1_555
C18 C5 1_555 1_555
H10 C18 1_555 1_555
H11 C18 1_555 1_555
C19 C15 1_555 1_555
H12 C19 1_555 1_555
C20 C9 1_555 1_555
H13 C20 1_555 1_555
N3 C10 1_555 1_555
C21 C8 1_555 1_555
H14 C21 1_555 1_555
O3 N3 1_555 1_555
C22 N1 1_555 1_555
C23 C12 1_555 1_555
H15 C23 1_555 1_555
C24 C22 1_555 1_555
H16 C24 1_555 1_555
H17 C24 1_555 1_555
H18 C24 1_555 1_555
C25 C16 1_555 1_555
H19 C25 1_555 1_555
C3 C13 1_555 1_555
C4 C7 1_555 1_555
C6 C18 1_555 1_555
C7 C9 1_555 1_555
C10 C21 1_555 1_555
C12 C13 1_555 1_555
C14 C17 1_555 1_555
C19 C23 1_555 1_555
C20 C25 1_555 1_555

#END
