
#######################################################################
#
#                 Cambridge Crystallographic Data Centre
#                                CCDC 
#
#######################################################################
#
# If this CIF has been generated from an entry in the Cambridge 
# Structural Database, then it will include bibliographic, chemical, 
# crystal, experimental, refinement or atomic coordinate data resulting 
# from the CCDC's data processing and validation procedures.
#
#######################################################################

data_IJUXOC
_chemical_formula_moiety         'C15 H17 N3 O5'
_chemical_name_systematic        
'2-((6-(methylamino)-2,4-dioxo-3,4-dihydropyrimidin-1(2H)-yl)methoxy)ethyl benzoate'
_symmetry_cell_setting           triclinic
_symmetry_space_group_name_H-M   'P -1'
_symmetry_Int_Tables_number      2
_space_group_name_Hall           '-P 1'
loop_
_symmetry_equiv_pos_site_id
_symmetry_equiv_pos_as_xyz
1 x,y,z
2 -x,-y,-z
_cell_length_a                   9.1336(18)
_cell_length_b                   9.1637(18)
_cell_length_c                   9.891(2)
_cell_angle_alpha                81.39(3)
_cell_angle_beta                 74.57(3)
_cell_angle_gamma                73.92(3)
_cell_volume                     764.206
_exptl_crystal_colour            colorless
_exptl_crystal_description       prism
_cell_formula_units_Z            2
loop_
_atom_site_label
_atom_site_type_symbol
_atom_site_fract_x
_atom_site_fract_y
_atom_site_fract_z
N1 N 0.35089(14) 0.09693(13) 0.64562(12)
C1 C 0.47474(17) 0.16414(17) 0.62978(16)
H1 H 0.532(2) 0.3524(19) 0.5572(17)
N2 N 0.45753(16) 0.30598(15) 0.56168(14)
C2 C 0.32672(19) 0.39044(17) 0.51395(16)
C3 C 0.2040(2) 0.31905(18) 0.53627(16)
H2 H 0.113(2) 0.371(2) 0.5083(19)
C4 C 0.21476(17) 0.17484(16) 0.60177(14)
O1 O 0.59015(14) 0.09872(14) 0.67420(15)
O2 O 0.32715(16) 0.52036(13) 0.45648(14)
C5 C 0.36554(19) -0.05706(17) 0.71617(16)
H3 H 0.477(2) -0.0957(18) 0.7179(16)
H4 H 0.3315(19) -0.1232(19) 0.6633(17)
O3 O 0.26682(13) -0.05737(12) 0.85165(10)
C6 C 0.3153(2) 0.0008(2) 0.95366(19)
H5 H 0.350(2) 0.093(2) 0.912(2)
H6 H 0.399(2) -0.080(2) 0.9882(19)
C7 C 0.1775(2) 0.0427(2) 1.07417(18)
H7 H 0.126(2) -0.042(2) 1.1088(19)
H8 H 0.208(2) 0.070(2) 1.1504(19)
O4 O 0.07091(14) 0.17369(14) 1.02354(11)
C8 C -0.0477(2) 0.24732(18) 1.12017(15)
O5 O -0.06693(15) 0.20821(13) 1.24483(11)
C9 C -0.1515(2) 0.37831(17) 1.05734(16)
C10 C -0.1205(3) 0.4168(2) 0.91337(19)
H9 H -0.026(3) 0.360(3) 0.852(2)
C11 C -0.2230(3) 0.5368(3) 0.8588(2)
H10 H -0.200(3) 0.563(3) 0.760(3)
C12 C -0.3539(4) 0.6166(3) 0.9461(3)
H11 H -0.428(3) 0.697(3) 0.910(3)
C13 C -0.3853(3) 0.5804(2) 1.0894(3)
H12 H -0.482(3) 0.633(3) 1.152(2)
C14 C -0.2833(2) 0.4609(2) 1.1453(2)
H13 H -0.303(2) 0.431(2) 1.242(2)
H14 H 0.107(2) 0.016(2) 0.675(2)
N3 N 0.10035(15) 0.10341(16) 0.62699(14)
C15 C -0.0467(2) 0.1739(2) 0.5859(2)
H15 H -0.107(3) 0.100(2) 0.608(2)
H16 H -0.024(2) 0.200(2) 0.487(2)
H17 H -0.106(3) 0.265(3) 0.632(2)
loop_
_geom_bond_atom_site_label_1
_geom_bond_atom_site_label_2
_geom_bond_site_symmetry_1
_geom_bond_site_symmetry_2
N1 C1 1_555 1_555
C1 N2 1_555 1_555
H1 N2 1_555 1_555
N2 C2 1_555 1_555
C2 C3 1_555 1_555
C3 H2 1_555 1_555
C4 N1 1_555 1_555
O1 C1 1_555 1_555
O2 C2 1_555 1_555
C5 N1 1_555 1_555
H3 C5 1_555 1_555
H4 C5 1_555 1_555
O3 C5 1_555 1_555
C6 O3 1_555 1_555
H5 C6 1_555 1_555
H6 C6 1_555 1_555
C7 C6 1_555 1_555
H7 C7 1_555 1_555
H8 C7 1_555 1_555
O4 C7 1_555 1_555
C8 O4 1_555 1_555
O5 C8 1_555 1_555
C9 C8 1_555 1_555
C10 C9 1_555 1_555
H9 C10 1_555 1_555
C11 C10 1_555 1_555
H10 C11 1_555 1_555
C12 C11 1_555 1_555
H11 C12 1_555 1_555
C13 C12 1_555 1_555
H12 C13 1_555 1_555
C14 C9 1_555 1_555
H13 C14 1_555 1_555
H14 N3 1_555 1_555
N3 C4 1_555 1_555
C15 N3 1_555 1_555
H15 C15 1_555 1_555
H16 C15 1_555 1_555
H17 C15 1_555 1_555
C3 C4 1_555 1_555
C13 C14 1_555 1_555

#END
