
#######################################################################
#
#                 Cambridge Crystallographic Data Centre
#                                CCDC 
#
#######################################################################
#
# If this CIF has been generated from an entry in the Cambridge 
# Structural Database, then it will include bibliographic, chemical, 
# crystal, experimental, refinement or atomic coordinate data resulting 
# from the CCDC's data processing and validation procedures.
#
#######################################################################

data_IJUXES
_chemical_formula_moiety         'C18 H21 N3 O6'
_chemical_name_systematic        
'2-((6-(morpholin-4-yl)-2,4-dioxo-3,4-dihydropyrimidin-1(2H)-yl)methoxy)ethyl benzoate'
_symmetry_cell_setting           triclinic
_symmetry_space_group_name_H-M   'P -1'
_symmetry_Int_Tables_number      2
_space_group_name_Hall           '-P 1'
loop_
_symmetry_equiv_pos_site_id
_symmetry_equiv_pos_as_xyz
1 x,y,z
2 -x,-y,-z
_cell_length_a                   5.9770(12)
_cell_length_b                   12.411(3)
_cell_length_c                   13.355(3)
_cell_angle_alpha                71.73(3)
_cell_angle_beta                 77.94(3)
_cell_angle_gamma                77.27(3)
_cell_volume                     907.096
_exptl_crystal_colour            colorless
_exptl_crystal_description       prism
_cell_formula_units_Z            2
loop_
_atom_site_label
_atom_site_type_symbol
_atom_site_fract_x
_atom_site_fract_y
_atom_site_fract_z
N1 N 0.3765(3) 0.09296(13) 0.18172(12)
C1 C 0.2188(3) 0.02397(16) 0.18433(15)
H1 H 0.057(4) -0.0118(19) 0.0921(17)
N2 N 0.1594(3) 0.03261(14) 0.08846(13)
C2 C 0.2544(3) 0.09478(16) -0.00967(15)
C3 C 0.4056(3) 0.16807(17) -0.00786(15)
H2 H 0.450(3) 0.2229(16) -0.0707(15)
C4 C 0.4558(3) 0.17003(15) 0.08563(14)
O1 O 0.1404(3) -0.04033(13) 0.26681(11)
O2 O 0.1972(3) 0.08799(13) -0.09100(11)
C5 C 0.5152(4) 0.0498(2) 0.27048(17)
H3 H 0.674(4) 0.0636(17) 0.2398(16)
H4 H 0.506(4) -0.0316(19) 0.2996(17)
O3 O 0.4483(3) 0.10685(13) 0.34936(11)
C6 C 0.2393(5) 0.0822(2) 0.41994(19)
H5 H 0.254(4) 0.000(2) 0.461(2)
H6 H 0.111(4) 0.103(2) 0.380(2)
C7 C 0.2018(7) 0.1512(2) 0.4976(2)
H7 H 0.348(5) 0.141(3) 0.533(2)
H8 H 0.086(5) 0.128(3) 0.553(2)
O4 O 0.1378(3) 0.27132(14) 0.44217(13)
C8 C 0.2709(4) 0.3446(2) 0.44249(18)
O5 O 0.4413(4) 0.31534(18) 0.4841(2)
C9 C 0.1830(4) 0.46454(19) 0.38486(16)
C10 C -0.0091(5) 0.4932(3) 0.3336(2)
H9 H -0.083(5) 0.436(2) 0.333(2)
C11 C -0.0825(6) 0.6070(3) 0.2821(3)
H10 H -0.206(6) 0.619(3) 0.252(3)
C12 C 0.0305(6) 0.6919(3) 0.2821(2)
H11 H -0.022(5) 0.768(3) 0.251(2)
C13 C 0.2194(6) 0.6644(2) 0.3326(2)
H12 H 0.293(5) 0.729(3) 0.332(2)
C14 C 0.2968(5) 0.5511(2) 0.3835(2)
H13 H 0.433(5) 0.526(2) 0.422(2)
N3 N 0.5857(3) 0.24473(14) 0.09519(13)
C15 C 0.7156(4) 0.3087(2) -0.00338(18)
H14 H 0.801(4) 0.255(2) -0.0464(19)
H15 H 0.608(4) 0.366(2) -0.0476(18)
C16 C 0.8824(4) 0.3648(2) 0.0258(3)
H16 H 0.996(5) 0.301(3) 0.067(2)
H17 H 0.959(5) 0.412(2) -0.041(2)
O6 O 0.7672(3) 0.44063(14) 0.08727(14)
C17 C 0.6414(5) 0.3794(3) 0.1829(2)
H18 H 0.745(5) 0.320(2) 0.226(2)
H19 H 0.568(5) 0.433(2) 0.223(2)
C18 C 0.4660(4) 0.32359(19) 0.16027(19)
H20 H 0.382(4) 0.2816(19) 0.2241(18)
H21 H 0.362(4) 0.381(2) 0.1186(18)
loop_
_geom_bond_atom_site_label_1
_geom_bond_atom_site_label_2
_geom_bond_site_symmetry_1
_geom_bond_site_symmetry_2
N1 C1 1_555 1_555
C1 N2 1_555 1_555
H1 N2 1_555 1_555
N2 C2 1_555 1_555
C2 C3 1_555 1_555
C3 H2 1_555 1_555
C4 N1 1_555 1_555
O1 C1 1_555 1_555
O2 C2 1_555 1_555
C5 N1 1_555 1_555
H3 C5 1_555 1_555
H4 C5 1_555 1_555
O3 C5 1_555 1_555
C6 O3 1_555 1_555
H5 C6 1_555 1_555
H6 C6 1_555 1_555
C7 C6 1_555 1_555
H7 C7 1_555 1_555
H8 C7 1_555 1_555
O4 C7 1_555 1_555
C8 O4 1_555 1_555
O5 C8 1_555 1_555
C9 C8 1_555 1_555
C10 C9 1_555 1_555
H9 C10 1_555 1_555
C11 C10 1_555 1_555
H10 C11 1_555 1_555
C12 C11 1_555 1_555
H11 C12 1_555 1_555
C13 C12 1_555 1_555
H12 C13 1_555 1_555
C14 C9 1_555 1_555
H13 C14 1_555 1_555
N3 C4 1_555 1_555
C15 N3 1_555 1_555
H14 C15 1_555 1_555
H15 C15 1_555 1_555
C16 C15 1_555 1_555
H16 C16 1_555 1_555
H17 C16 1_555 1_555
O6 C16 1_555 1_555
C17 O6 1_555 1_555
H18 C17 1_555 1_555
H19 C17 1_555 1_555
C18 N3 1_555 1_555
H20 C18 1_555 1_555
H21 C18 1_555 1_555
C3 C4 1_555 1_555
C13 C14 1_555 1_555
C17 C18 1_555 1_555

#END
