
#######################################################################
#
#                 Cambridge Crystallographic Data Centre
#                                CCDC 
#
#######################################################################
#
# If this CIF has been generated from an entry in the Cambridge 
# Structural Database, then it will include bibliographic, chemical, 
# crystal, experimental, refinement or atomic coordinate data resulting 
# from the CCDC's data processing and validation procedures.
#
#######################################################################

data_IJUZIX
_chemical_formula_moiety         'C18 H18 N2 S2'
_chemical_name_systematic        
trans-2,3-bis(2,4,5-Trimethyl-3-thienyl)but-2-enedinitrile
_symmetry_cell_setting           triclinic
_symmetry_space_group_name_H-M   'P -1'
_symmetry_Int_Tables_number      2
_space_group_name_Hall           '-P 1'
loop_
_symmetry_equiv_pos_site_id
_symmetry_equiv_pos_as_xyz
1 x,y,z
2 -x,-y,-z
_cell_length_a                   8.8368(10)
_cell_length_b                   9.1785(10)
_cell_length_c                   11.4160(12)
_cell_angle_alpha                85.271(2)
_cell_angle_beta                 71.058(2)
_cell_angle_gamma                77.171(2)
_cell_volume                     853.878
_exptl_crystal_colour            yellow
_exptl_crystal_description       block
_cell_formula_units_Z            2
_exptl_crystal_recrystallization_method methanol
loop_
_atom_site_label
_atom_site_type_symbol
_atom_site_fract_x
_atom_site_fract_y
_atom_site_fract_z
S1 S 0.36871(11) 0.71963(9) 0.60411(8)
S2 S 0.40282(12) -0.15478(10) 0.92480(9)
C1 C 0.2777(4) 0.4790(3) 0.6886(3)
C2 C 0.2998(4) 0.1229(3) 0.8994(3)
C3 C 0.2760(4) 0.3248(3) 0.7386(3)
C4 C 0.1480(4) 0.5656(3) 0.6474(2)
C5 C 0.4056(4) 0.5472(4) 0.6719(3)
C6 C 0.2843(4) 0.2788(3) 0.8535(3)
C7 C 0.2615(4) 0.2192(4) 0.6591(3)
C8 C 0.1819(4) 0.6995(3) 0.5987(3)
C9 C 0.1900(4) 0.0800(3) 1.0143(3)
C10 C 0.4219(4) 0.0072(3) 0.8411(3)
C11 C 0.2314(4) -0.0692(4) 1.0389(3)
C12 C -0.0090(4) 0.5183(4) 0.6644(3)
H1 H -0.0777 0.5931 0.6298
H2 H -0.0636 0.5061 0.7512
H3 H 0.0133 0.4252 0.6232
N1 N 0.2477(4) 0.1424(3) 0.5914(3)
C13 C 0.2797(5) 0.3908(4) 0.9369(3)
C14 C 0.0454(5) 0.1843(4) 1.0961(3)
H4 H -0.0088 0.1304 1.1673
H5 H -0.0292 0.2258 1.0509
H6 H 0.0816 0.2635 1.1223
N2 N 0.2708(5) 0.4759(4) 1.0067(3)
C15 C 0.5626(4) 0.0063(4) 0.7253(3)
H7 H 0.5563 0.1048 0.6892
H8 H 0.5588 -0.0623 0.6677
H9 H 0.6632 -0.0242 0.7444
C16 C 0.0801(5) 0.8252(4) 0.5472(3)
H10 H -0.0200 0.7979 0.5506
H11 H 0.1395 0.8446 0.4628
H12 H 0.0558 0.9133 0.5953
C17 C 0.5635(4) 0.4920(4) 0.6983(4)
H13 H 0.5649 0.3945 0.7361
H14 H 0.5745 0.5595 0.7536
H15 H 0.6526 0.4866 0.6223
C18 C 0.1468(6) -0.1591(4) 1.1464(3)
H16 H 0.0541 -0.0947 1.2009
H17 H 0.2214 -0.2043 1.1906
H18 H 0.1108 -0.2356 1.1164
loop_
_geom_bond_atom_site_label_1
_geom_bond_atom_site_label_2
_geom_bond_site_symmetry_1
_geom_bond_site_symmetry_2
S1 C5 1_555 1_555
S2 C10 1_555 1_555
C1 C3 1_555 1_555
C2 C6 1_555 1_555
C3 C6 1_555 1_555
C4 C1 1_555 1_555
C5 C1 1_555 1_555
C6 C13 1_555 1_555
C7 C3 1_555 1_555
C8 S1 1_555 1_555
C9 C2 1_555 1_555
C10 C2 1_555 1_555
C11 S2 1_555 1_555
C12 C4 1_555 1_555
H1 C12 1_555 1_555
H2 C12 1_555 1_555
H3 C12 1_555 1_555
N1 C7 1_555 1_555
C13 N2 1_555 1_555
C14 C9 1_555 1_555
H4 C14 1_555 1_555
H5 C14 1_555 1_555
H6 C14 1_555 1_555
C15 C10 1_555 1_555
H7 C15 1_555 1_555
H8 C15 1_555 1_555
H9 C15 1_555 1_555
C16 C8 1_555 1_555
H10 C16 1_555 1_555
H11 C16 1_555 1_555
H12 C16 1_555 1_555
C17 C5 1_555 1_555
H13 C17 1_555 1_555
H14 C17 1_555 1_555
H15 C17 1_555 1_555
C18 C11 1_555 1_555
H16 C18 1_555 1_555
H17 C18 1_555 1_555
H18 C18 1_555 1_555
C4 C8 1_555 1_555
C9 C11 1_555 1_555

#END
