
#######################################################################
#
#                 Cambridge Crystallographic Data Centre
#                                CCDC 
#
#######################################################################
#
# If this CIF has been generated from an entry in the Cambridge 
# Structural Database, then it will include bibliographic, chemical, 
# crystal, experimental, refinement or atomic coordinate data resulting 
# from the CCDC's data processing and validation procedures.
#
#######################################################################

data_IKAFEG
_chemical_name_common            
2-[1-(4-Chlorobenzoyl)pyrrolidin-2-yl]-4,4,5,5-tetramethyl-4,5-dihydroimidazole-1-oxyl-3-oxide
_chemical_formula_moiety         'C18 H23 Cl1 N3 O3'
_chemical_name_systematic        
(4-Chlorophenyl)(2-(1,3-dihydroxy-4,4,5,5-tetramethyl-4,5-dihydro-1H-3\l^5^-imidazol-2-yl)pyrrolidin-1-yl)methanone
_symmetry_cell_setting           monoclinic
_symmetry_space_group_name_H-M   'P 21/n'
_symmetry_Int_Tables_number      14
_space_group_name_Hall           '-P 2yn'
loop_
_symmetry_equiv_pos_site_id
_symmetry_equiv_pos_as_xyz
1 x,y,z
2 1/2-x,1/2+y,1/2-z
3 -x,-y,-z
4 1/2+x,1/2-y,1/2+z
_cell_length_a                   11.6202(19)
_cell_length_b                   8.2694(13)
_cell_length_c                   20.315(3)
_cell_angle_alpha                90
_cell_angle_beta                 105.636(2)
_cell_angle_gamma                90
_cell_volume                     1879.87
_exptl_crystal_colour            purple
_exptl_crystal_description       block
_cell_formula_units_Z            4
loop_
_atom_site_label
_atom_site_type_symbol
_atom_site_fract_x
_atom_site_fract_y
_atom_site_fract_z
Cl1 Cl 0.24418(8) -0.02934(14) 0.22799(5)
O1 O 0.61663(17) 0.1756(3) 0.04529(10)
O2 O 0.84803(18) 0.2887(2) -0.03089(10)
O3 O 0.7771(2) 0.5304(3) 0.15800(11)
N1 N 0.7572(2) 0.1723(3) 0.14502(11)
N2 N 0.81945(18) 0.3955(3) 0.00771(11)
N3 N 0.7868(2) 0.5102(3) 0.09729(12)
C1 C 0.3608(3) 0.0241(4) 0.19376(17)
C2 C 0.3684(3) -0.0441(4) 0.13384(17)
H1 H 0.3113 -0.1182 0.1111
C3 C 0.4613(3) -0.0021(3) 0.10737(15)
H2 H 0.4661 -0.0471 0.0662
C4 C 0.5484(2) 0.1070(3) 0.14140(14)
C5 C 0.5373(3) 0.1743(4) 0.20168(15)
H3 H 0.5942 0.2480 0.2250
C6 C 0.4434(3) 0.1341(4) 0.22772(16)
H4 H 0.4362 0.1812 0.2680
C7 C 0.6433(3) 0.1542(3) 0.10742(15)
C8 C 0.8104(3) 0.1429(4) 0.21806(14)
H5 H 0.7748 0.0491 0.2335
H6 H 0.8008 0.2360 0.2451
C9 C 0.9400(3) 0.1137(5) 0.22247(16)
H7 H 0.9537 0.0020 0.2121
H8 H 0.9904 0.1401 0.2676
C10 C 0.9636(3) 0.2265(4) 0.16896(16)
H9 H 1.0315 0.1900 0.1537
H10 H 0.9787 0.3357 0.1866
C11 C 0.8480(2) 0.2188(4) 0.11055(14)
H11 H 0.8553 0.1332 0.0786
C12 C 0.8187(2) 0.3736(4) 0.07277(13)
C13 C 0.7659(3) 0.5550(4) -0.01959(15)
C14 C 0.7768(3) 0.6477(4) 0.04813(15)
C15 C 0.8360(3) 0.6285(4) -0.06555(17)
H12 H 0.9181 0.6412 -0.0402
H13 H 0.8029 0.7322 -0.0816
H14 H 0.8311 0.5585 -0.1039
C16 C 0.6380(3) 0.5167(4) -0.05963(18)
H15 H 0.6388 0.4451 -0.0967
H16 H 0.5976 0.6150 -0.0775
H17 H 0.5971 0.4657 -0.0300
C17 C 0.8923(3) 0.7448(4) 0.07346(18)
H18 H 0.8999 0.7809 0.1193
H19 H 0.8901 0.8367 0.0443
H20 H 0.9593 0.6777 0.0727
C18 C 0.6703(3) 0.7508(5) 0.05121(19)
H21 H 0.5987 0.6872 0.0375
H22 H 0.6643 0.8415 0.0210
H23 H 0.6807 0.7887 0.0971
loop_
_geom_bond_atom_site_label_1
_geom_bond_atom_site_label_2
_geom_bond_site_symmetry_1
_geom_bond_site_symmetry_2
Cl1 C1 1_555 1_555
O1 C7 1_555 1_555
O2 N2 1_555 1_555
O3 N3 1_555 1_555
N1 C7 1_555 1_555
N2 C12 1_555 1_555
N3 C12 1_555 1_555
C1 C2 1_555 1_555
C2 H1 1_555 1_555
C3 C2 1_555 1_555
H2 C3 1_555 1_555
C4 C3 1_555 1_555
C5 C4 1_555 1_555
H3 C5 1_555 1_555
C6 C1 1_555 1_555
H4 C6 1_555 1_555
C7 C4 1_555 1_555
C8 N1 1_555 1_555
H5 C8 1_555 1_555
H6 C8 1_555 1_555
C9 C8 1_555 1_555
H7 C9 1_555 1_555
H8 C9 1_555 1_555
C10 C9 1_555 1_555
H9 C10 1_555 1_555
H10 C10 1_555 1_555
C11 N1 1_555 1_555
H11 C11 1_555 1_555
C12 C11 1_555 1_555
C13 N2 1_555 1_555
C14 N3 1_555 1_555
C15 C13 1_555 1_555
H12 C15 1_555 1_555
H13 C15 1_555 1_555
H14 C15 1_555 1_555
C16 C13 1_555 1_555
H15 C16 1_555 1_555
H16 C16 1_555 1_555
H17 C16 1_555 1_555
C17 C14 1_555 1_555
H18 C17 1_555 1_555
H19 C17 1_555 1_555
H20 C17 1_555 1_555
C18 C14 1_555 1_555
H21 C18 1_555 1_555
H22 C18 1_555 1_555
H23 C18 1_555 1_555
C5 C6 1_555 1_555
C10 C11 1_555 1_555
C13 C14 1_555 1_555

#END
