
#######################################################################
#
#                 Cambridge Crystallographic Data Centre
#                                CCDC 
#
#######################################################################
#
# If this CIF has been generated from an entry in the Cambridge 
# Structural Database, then it will include bibliographic, chemical, 
# crystal, experimental, refinement or atomic coordinate data resulting 
# from the CCDC's data processing and validation procedures.
#
#######################################################################

data_IKAFAD
_chemical_formula_moiety         'C36 H24 N2'
_chemical_name_systematic        
9-(1-Naphthyl)-14-phenyl-9,14-dihydrodibenzo[a,c]phenazine
_symmetry_cell_setting           monoclinic
_symmetry_space_group_name_H-M   'C 2/c'
_symmetry_Int_Tables_number      15
_space_group_name_Hall           '-C 2yn'
loop_
_symmetry_equiv_pos_site_id
_symmetry_equiv_pos_as_xyz
1 x,y,z
2 -x,y,1/2-z
3 1/2+x,1/2+y,z
4 1/2-x,1/2+y,1/2-z
5 -x,-y,-z
6 x,-y,1/2+z
7 1/2-x,1/2-y,-z
8 1/2+x,1/2-y,1/2+z
_cell_length_a                   14.0547(18)
_cell_length_b                   19.251(3)
_cell_length_c                   18.410(2)
_cell_angle_alpha                90
_cell_angle_beta                 90.832(3)
_cell_angle_gamma                90
_cell_volume                     4980.61
_exptl_crystal_colour            green
_exptl_crystal_description       prismatic
_cell_formula_units_Z            8
loop_
_atom_site_label
_atom_site_type_symbol
_atom_site_fract_x
_atom_site_fract_y
_atom_site_fract_z
N1 N 0.72504(7) 0.47311(6) 0.04386(6)
N2 N 0.68771(8) 0.38016(6) 0.15427(6)
C1 C 0.74718(9) 0.49234(7) 0.11766(7)
C2 C 0.78525(10) 0.55704(8) 0.13461(8)
H1 H 0.8012 0.5876 0.0976
C3 C 0.79953(10) 0.57613(8) 0.20654(8)
H2 H 0.8269 0.6189 0.2176
C4 C 0.77355(11) 0.53227(8) 0.26158(8)
H3 H 0.7814 0.5459 0.3097
C5 C 0.73574(11) 0.46788(7) 0.24536(8)
H4 H 0.7174 0.4384 0.2826
C6 C 0.72507(9) 0.44700(7) 0.17354(7)
C7 C 0.62560(9) 0.38263(7) 0.09194(7)
C8 C 0.64565(9) 0.42691(7) 0.03698(7)
C9 C 0.58359(9) 0.43157(7) -0.02612(7)
C10 C 0.59922(10) 0.47955(8) -0.08179(7)
H5 H 0.6503 0.5101 -0.0780
C11 C 0.54038(11) 0.48224(9) -0.14205(8)
H6 H 0.5513 0.5150 -0.1781
C12 C 0.46497(11) 0.43642(9) -0.14913(8)
H7 H 0.4263 0.4375 -0.1905
C13 C 0.44754(10) 0.38972(8) -0.09530(9)
H8 H 0.3966 0.3593 -0.1007
C14 C 0.50429(9) 0.38615(7) -0.03179(8)
C15 C 0.48126(10) 0.34090(7) 0.02857(8)
C16 C 0.40037(11) 0.29792(8) 0.02880(10)
H9 H 0.3616 0.2958 -0.0125
C17 C 0.37738(13) 0.25925(9) 0.08814(11)
H10 H 0.3238 0.2309 0.0866
C18 C 0.43338(13) 0.26198(9) 0.15055(10)
H11 H 0.4164 0.2366 0.1914
C19 C 0.51371(12) 0.30200(8) 0.15207(9)
H12 H 0.5516 0.3031 0.1939
C20 C 0.53982(10) 0.34137(7) 0.09157(8)
C21 C 0.80682(9) 0.45801(7) -0.00157(7)
C22 C 0.84362(10) 0.39249(8) -0.00261(8)
H13 H 0.8155 0.3580 0.0252
C23 C 0.92273(11) 0.37576(9) -0.04449(9)
H14 H 0.9459 0.3305 -0.0451
C24 C 0.96507(11) 0.42556(10) -0.08393(9)
H15 H 1.0177 0.4142 -0.1116
C25 C 0.93124(10) 0.49472(9) -0.08412(8)
C26 C 0.84897(10) 0.51131(8) -0.04291(7)
C27 C 0.81327(11) 0.58020(9) -0.04718(8)
H16 H 0.7580 0.5918 -0.0228
C28 C 0.85902(14) 0.62932(10) -0.08647(9)
H17 H 0.8349 0.6743 -0.0886
C29 C 0.94270(14) 0.61281(12) -0.12412(11)
H18 H 0.9746 0.6473 -0.1494
C30 C 0.97650(13) 0.54748(12) -0.12357(9)
H19 H 1.0308 0.5370 -0.1497
C31 C 0.74424(10) 0.31973(7) 0.16661(8)
C32 C 0.80889(13) 0.31606(8) 0.22374(9)
H20 H 0.8168 0.3540 0.2545
C33 C 0.86199(14) 0.25650(9) 0.23570(10)
H21 H 0.9047 0.2550 0.2747
C34 C 0.85293(14) 0.20025(9) 0.19161(11)
H22 H 0.8888 0.1604 0.2002
C35 C 0.79057(14) 0.20337(9) 0.13488(11)
H23 H 0.7841 0.1653 0.1041
C36 C 0.73639(12) 0.26209(8) 0.12185(9)
H24 H 0.6941 0.2629 0.0825
loop_
_geom_bond_atom_site_label_1
_geom_bond_atom_site_label_2
_geom_bond_site_symmetry_1
_geom_bond_site_symmetry_2
N1 C1 1_555 1_555
N2 C6 1_555 1_555
C1 C2 1_555 1_555
C2 H1 1_555 1_555
C3 C2 1_555 1_555
H2 C3 1_555 1_555
C4 C3 1_555 1_555
H3 C4 1_555 1_555
C5 C4 1_555 1_555
H4 C5 1_555 1_555
C6 C1 1_555 1_555
C7 N2 1_555 1_555
C8 N1 1_555 1_555
C9 C8 1_555 1_555
C10 C9 1_555 1_555
H5 C10 1_555 1_555
C11 C10 1_555 1_555
H6 C11 1_555 1_555
C12 C11 1_555 1_555
H7 C12 1_555 1_555
C13 C12 1_555 1_555
H8 C13 1_555 1_555
C14 C9 1_555 1_555
C15 C14 1_555 1_555
C16 C15 1_555 1_555
H9 C16 1_555 1_555
C17 C16 1_555 1_555
H10 C17 1_555 1_555
C18 C17 1_555 1_555
H11 C18 1_555 1_555
C19 C18 1_555 1_555
H12 C19 1_555 1_555
C20 C7 1_555 1_555
C21 N1 1_555 1_555
C22 C21 1_555 1_555
H13 C22 1_555 1_555
C23 C22 1_555 1_555
H14 C23 1_555 1_555
C24 C23 1_555 1_555
H15 C24 1_555 1_555
C25 C24 1_555 1_555
C26 C21 1_555 1_555
C27 C26 1_555 1_555
H16 C27 1_555 1_555
C28 C27 1_555 1_555
H17 C28 1_555 1_555
C29 C28 1_555 1_555
H18 C29 1_555 1_555
C30 C25 1_555 1_555
H19 C30 1_555 1_555
C31 N2 1_555 1_555
C32 C31 1_555 1_555
H20 C32 1_555 1_555
C33 C32 1_555 1_555
H21 C33 1_555 1_555
C34 C33 1_555 1_555
H22 C34 1_555 1_555
C35 C34 1_555 1_555
H23 C35 1_555 1_555
C36 C31 1_555 1_555
H24 C36 1_555 1_555
C5 C6 1_555 1_555
C7 C8 1_555 1_555
C13 C14 1_555 1_555
C15 C20 1_555 1_555
C19 C20 1_555 1_555
C25 C26 1_555 1_555
C29 C30 1_555 1_555
C35 C36 1_555 1_555

#END
