
#######################################################################
#
#                 Cambridge Crystallographic Data Centre
#                                CCDC 
#
#######################################################################
#
# If this CIF has been generated from an entry in the Cambridge 
# Structural Database, then it will include bibliographic, chemical, 
# crystal, experimental, refinement or atomic coordinate data resulting 
# from the CCDC's data processing and validation procedures.
#
#######################################################################

data_IKAGOQ
_chemical_formula_moiety         'C17 H18 O2'
_chemical_name_systematic        
2,5-Dimethyl-3-phenyl-9-oxatricyclo(4.2.1.1^2,5^)dec-7-en-10-one
_symmetry_cell_setting           monoclinic
_symmetry_space_group_name_H-M   'P 21/a'
_symmetry_Int_Tables_number      14
_space_group_name_Hall           '-P 2yab'
loop_
_symmetry_equiv_pos_site_id
_symmetry_equiv_pos_as_xyz
1 x,y,z
2 1/2+x,1/2-y,z
3 -x,-y,-z
4 1/2-x,1/2+y,-z
_cell_length_a                   7.7700(2)
_cell_length_b                   20.7979(7)
_cell_length_c                   8.2851(2)
_cell_angle_alpha                90
_cell_angle_beta                 96.5442(19)
_cell_angle_gamma                90
_cell_volume                     1330.15
_exptl_crystal_colour            colorless
_exptl_crystal_description       prism
_chemical_melting_point          124-125deg.C
_cell_formula_units_Z            4
loop_
_atom_site_label
_atom_site_type_symbol
_atom_site_fract_x
_atom_site_fract_y
_atom_site_fract_z
C1 C 0.32634(17) 0.09709(6) 0.26945(14)
C2 C 0.4263(2) 0.15556(7) 0.34771(16)
C3 C 0.33880(17) 0.17343(6) 0.50371(15)
C4 C 0.19156(15) 0.12196(6) 0.50969(14)
C5 C 0.02954(18) 0.14446(7) 0.39030(16)
C6 C -0.06530(19) 0.08663(8) 0.31333(18)
C7 C 0.0091(2) 0.07301(8) 0.18046(18)
C8 C 0.1532(2) 0.12124(7) 0.17009(16)
C9 C 0.4261(2) 0.05210(8) 0.16975(19)
C10 C 0.26814(15) 0.06685(6) 0.42141(14)
C11 C 0.13635(19) 0.10459(7) 0.67394(16)
C12 C 0.46097(16) 0.17499(6) 0.65958(15)
C13 C 0.58988(18) 0.12900(7) 0.69798(17)
C14 C 0.69094(18) 0.13028(7) 0.84761(17)
C15 C 0.66411(19) 0.17671(7) 0.96182(17)
C16 C 0.53712(19) 0.22251(7) 0.92503(16)
C17 C 0.43679(18) 0.22182(6) 0.77501(16)
O1 O 0.28554(12) 0.01158(4) 0.46554(11)
O2 O 0.09125(14) 0.17533(5) 0.25389(11)
H1 H 0.417(2) 0.1930(9) 0.273(2)
H2 H 0.549(2) 0.1435(8) 0.3782(19)
H3 H 0.2817(18) 0.2153(7) 0.4902(17)
H4 H -0.039(2) 0.1767(8) 0.4466(19)
H5 H -0.153(2) 0.0620(9) 0.365(2)
H6 H -0.010(2) 0.0367(9) 0.110(2)
H7 H 0.179(2) 0.1363(8) 0.063(2)
H8 H 0.350(2) 0.0174(9) 0.127(2)
H9 H 0.468(2) 0.0753(9) 0.078(2)
H10 H 0.529(3) 0.0324(9) 0.237(2)
H11 H 0.041(2) 0.0746(8) 0.6583(19)
H12 H 0.098(2) 0.1440(9) 0.731(2)
H13 H 0.233(2) 0.0848(8) 0.743(2)
H14 H 0.609(2) 0.0956(8) 0.620(2)
H15 H 0.777(2) 0.0980(8) 0.871(2)
H16 H 0.737(2) 0.1777(8) 1.066(2)
H17 H 0.515(2) 0.2557(8) 1.0030(19)
H18 H 0.3452(19) 0.2532(7) 0.7529(18)
loop_
_geom_bond_atom_site_label_1
_geom_bond_atom_site_label_2
_geom_bond_site_symmetry_1
_geom_bond_site_symmetry_2
C1 C2 1_555 1_555
C2 C3 1_555 1_555
C3 C4 1_555 1_555
C4 C5 1_555 1_555
C5 C6 1_555 1_555
C6 C7 1_555 1_555
C7 C8 1_555 1_555
C8 C1 1_555 1_555
C9 C1 1_555 1_555
C10 C1 1_555 1_555
C11 C4 1_555 1_555
C12 C3 1_555 1_555
C13 C12 1_555 1_555
C14 C13 1_555 1_555
C15 C14 1_555 1_555
C16 C15 1_555 1_555
C17 C12 1_555 1_555
O1 C10 1_555 1_555
O2 C5 1_555 1_555
H1 C2 1_555 1_555
H2 C2 1_555 1_555
H3 C3 1_555 1_555
H4 C5 1_555 1_555
H5 C6 1_555 1_555
H6 C7 1_555 1_555
H7 C8 1_555 1_555
H8 C9 1_555 1_555
H9 C9 1_555 1_555
H10 C9 1_555 1_555
H11 C11 1_555 1_555
H12 C11 1_555 1_555
H13 C11 1_555 1_555
H14 C13 1_555 1_555
H15 C14 1_555 1_555
H16 C15 1_555 1_555
H17 C16 1_555 1_555
H18 C17 1_555 1_555
C4 C10 1_555 1_555
C8 O2 1_555 1_555
C16 C17 1_555 1_555

#END
