
#######################################################################
#
#                 Cambridge Crystallographic Data Centre
#                                CCDC 
#
#######################################################################
#
# If this CIF has been generated from an entry in the Cambridge 
# Structural Database, then it will include bibliographic, chemical, 
# crystal, experimental, refinement or atomic coordinate data resulting 
# from the CCDC's data processing and validation procedures.
#
#######################################################################

data_IKALAI
_chemical_formula_moiety         'C10 H11 Cl1 O3'
_chemical_name_systematic        
1-(4-(2-Chloroethoxy)-2-hydroxyphenyl)ethanone
_symmetry_cell_setting           orthorhombic
_symmetry_space_group_name_H-M   'P c a 21'
_symmetry_Int_Tables_number      29
_space_group_name_Hall           'P 2c -2ac'
loop_
_symmetry_equiv_pos_site_id
_symmetry_equiv_pos_as_xyz
1 x,y,z
2 -x,-y,1/2+z
3 1/2+x,-y,z
4 1/2-x,y,1/2+z
_cell_length_a                   8.9970(7)
_cell_length_b                   5.3258(4)
_cell_length_c                   20.6307(17)
_cell_angle_alpha                90
_cell_angle_beta                 90
_cell_angle_gamma                90
_cell_volume                     988.545
_exptl_crystal_colour            colorless
_cell_formula_units_Z            4
loop_
_atom_site_label
_atom_site_type_symbol
_atom_site_fract_x
_atom_site_fract_y
_atom_site_fract_z
Cl1 Cl -0.15098(17) 0.8043(3) 0.62958(8)
O1 O 0.2660(4) 0.6840(7) 1.02143(16)
O2 O 0.1105(4) 0.4294(7) 0.94300(15)
H1 H 0.1390 0.4778 0.9786
O3 O 0.1071(4) 0.6890(7) 0.72354(16)
C1 C 0.4075(6) 1.0330(9) 0.9931(3)
H2 H 0.4253 1.0346 1.0390
H3 H 0.3628 1.1890 0.9803
H4 H 0.5000 1.0116 0.9706
C2 C 0.3071(5) 0.8247(9) 0.9769(2)
C3 C 0.2555(5) 0.7861(9) 0.9118(2)
C4 C 0.1582(5) 0.5869(9) 0.8976(2)
C5 C 0.1058(5) 0.5501(9) 0.8351(2)
H5 H 0.0405 0.4190 0.8265
C6 C 0.1495(5) 0.7049(9) 0.7863(2)
C7 C 0.2485(6) 0.9076(9) 0.7991(3)
H6 H 0.2794 1.0143 0.7660
C8 C 0.2962(5) 0.9404(9) 0.8603(2)
H7 H 0.3599 1.0739 0.8687
C9 C 0.0041(6) 0.4949(9) 0.7074(2)
H8 H -0.0826 0.5050 0.7352
H9 H 0.0499 0.3316 0.7133
C10 C -0.0399(6) 0.5287(9) 0.6389(3)
H10 H -0.0957 0.3831 0.6245
H11 H 0.0484 0.5425 0.6122
loop_
_geom_bond_atom_site_label_1
_geom_bond_atom_site_label_2
_geom_bond_site_symmetry_1
_geom_bond_site_symmetry_2
Cl1 C10 1_555 1_555
O1 C2 1_555 1_555
O2 H1 1_555 1_555
O3 C6 1_555 1_555
C1 H2 1_555 1_555
H3 C1 1_555 1_555
H4 C1 1_555 1_555
C2 C1 1_555 1_555
C3 C2 1_555 1_555
C4 O2 1_555 1_555
C5 C4 1_555 1_555
H5 C5 1_555 1_555
C6 C5 1_555 1_555
C7 C6 1_555 1_555
H6 C7 1_555 1_555
C8 C3 1_555 1_555
H7 C8 1_555 1_555
C9 O3 1_555 1_555
H8 C9 1_555 1_555
H9 C9 1_555 1_555
C10 C9 1_555 1_555
H10 C10 1_555 1_555
H11 C10 1_555 1_555
C3 C4 1_555 1_555
C7 C8 1_555 1_555

#END
