
#######################################################################
#
#                 Cambridge Crystallographic Data Centre
#                                CCDC 
#
#######################################################################
#
# If this CIF has been generated from an entry in the Cambridge 
# Structural Database, then it will include bibliographic, chemical, 
# crystal, experimental, refinement or atomic coordinate data resulting 
# from the CCDC's data processing and validation procedures.
#
#######################################################################

data_IKALEM
_chemical_formula_moiety         'C12 H15 Cl1 O3'
_chemical_name_systematic        
1-(4-(4-Chlorobutoxy)-2-hydroxyphenyl)ethanone
_symmetry_cell_setting           triclinic
_symmetry_space_group_name_H-M   'P -1'
_symmetry_Int_Tables_number      2
_space_group_name_Hall           '-P 1'
loop_
_symmetry_equiv_pos_site_id
_symmetry_equiv_pos_as_xyz
1 x,y,z
2 -x,-y,-z
_cell_length_a                   5.2750(4)
_cell_length_b                   9.8941(10)
_cell_length_c                   11.6529(12)
_cell_angle_alpha                99.735(2)
_cell_angle_beta                 98.2420(10)
_cell_angle_gamma                92.2480(10)
_cell_volume                     591.975
_exptl_crystal_colour            colorless
_cell_formula_units_Z            2
_exptl_crystal_recrystallization_method 'n-hexane/ethyl acetate/methanol'
loop_
_atom_site_label
_atom_site_type_symbol
_atom_site_fract_x
_atom_site_fract_y
_atom_site_fract_z
Cl1 Cl 0.69127(14) 0.39709(8) 0.91715(5)
O1 O -0.6516(3) -0.02779(17) 0.10226(14)
O2 O -0.2483(3) -0.06891(15) 0.23591(14)
H1 H -0.3821 -0.0896 0.1897
O3 O 0.2113(3) 0.32392(15) 0.48072(12)
C1 C -0.7899(4) 0.1907(3) 0.0771(2)
H2 H -0.9234 0.1367 0.0217
H3 H -0.6955 0.2480 0.0370
H4 H -0.8647 0.2473 0.1371
C2 C -0.6130(4) 0.0977(2) 0.13236(17)
C3 C -0.3944(4) 0.1550(2) 0.22183(17)
C4 C -0.2210(4) 0.0684(2) 0.27035(17)
C5 C -0.0135(4) 0.1209(2) 0.35608(18)
H5 H 0.1012 0.0623 0.3866
C6 C 0.0206(4) 0.2611(2) 0.39548(17)
C7 C -0.1489(4) 0.3496(2) 0.34910(18)
H6 H -0.1254 0.4439 0.3761
C8 C -0.3499(4) 0.2967(2) 0.26358(18)
H7 H -0.4606 0.3566 0.2321
C9 C 0.3983(4) 0.2437(2) 0.53460(18)
H8 H 0.5055 0.2040 0.4783
H9 H 0.3150 0.1700 0.5636
C10 C 0.5562(4) 0.3405(2) 0.63445(19)
H10 H 0.4454 0.3780 0.6899
H11 H 0.6285 0.4163 0.6039
C11 C 0.7719(4) 0.2729(2) 0.69890(18)
H12 H 0.7030 0.1880 0.7170
H13 H 0.8976 0.2495 0.6469
C12 C 0.9052(4) 0.3603(3) 0.8113(2)
H14 H 0.9737 0.4459 0.7941
H15 H 1.0479 0.3128 0.8443
loop_
_geom_bond_atom_site_label_1
_geom_bond_atom_site_label_2
_geom_bond_site_symmetry_1
_geom_bond_site_symmetry_2
Cl1 C12 1_555 1_555
O1 C2 1_555 1_555
O2 H1 1_555 1_555
O3 C6 1_555 1_555
C1 H2 1_555 1_555
H3 C1 1_555 1_555
H4 C1 1_555 1_555
C2 C1 1_555 1_555
C3 C2 1_555 1_555
C4 O2 1_555 1_555
C5 C4 1_555 1_555
H5 C5 1_555 1_555
C6 C5 1_555 1_555
C7 C6 1_555 1_555
H6 C7 1_555 1_555
C8 C3 1_555 1_555
H7 C8 1_555 1_555
C9 O3 1_555 1_555
H8 C9 1_555 1_555
H9 C9 1_555 1_555
C10 C9 1_555 1_555
H10 C10 1_555 1_555
H11 C10 1_555 1_555
C11 C10 1_555 1_555
H12 C11 1_555 1_555
H13 C11 1_555 1_555
C12 C11 1_555 1_555
H14 C12 1_555 1_555
H15 C12 1_555 1_555
C3 C4 1_555 1_555
C7 C8 1_555 1_555

#END
