
#######################################################################
#
#                 Cambridge Crystallographic Data Centre
#                                CCDC 
#
#######################################################################
#
# If this CIF has been generated from an entry in the Cambridge 
# Structural Database, then it will include bibliographic, chemical, 
# crystal, experimental, refinement or atomic coordinate data resulting 
# from the CCDC's data processing and validation procedures.
#
#######################################################################

data_IKANAK
_chemical_name_common            
'4,5-Dicarboxynaphthalene-1,8-dicarboxylic anhydride 1,10-phenanthroline'
_chemical_formula_moiety         'C14 H6 O7,C12 H8 N2'
_chemical_name_systematic        
'1,3-Dioxo-1H,3H-benzo[de]isochromene-6,7-dicarboxylic acid 1,10-phenanthroline'
_symmetry_cell_setting           triclinic
_symmetry_space_group_name_H-M   'P -1'
_symmetry_Int_Tables_number      2
_space_group_name_Hall           '-P 1'
loop_
_symmetry_equiv_pos_site_id
_symmetry_equiv_pos_as_xyz
1 x,y,z
2 -x,-y,-z
_cell_length_a                   9.0189(5)
_cell_length_b                   10.1588(7)
_cell_length_c                   11.2140(8)
_cell_angle_alpha                104.267(6)
_cell_angle_beta                 92.278(5)
_cell_angle_gamma                101.256(5)
_cell_volume                     972.418
_exptl_crystal_colour            yellow
_exptl_crystal_description       block
_cell_formula_units_Z            2
loop_
_atom_site_label
_atom_site_type_symbol
_atom_site_fract_x
_atom_site_fract_y
_atom_site_fract_z
O1 O 0.55753(16) 0.06531(14) 0.84023(14)
O2 O 0.79210(15) 0.19823(17) 0.87789(16)
H1 H 0.8273 0.1546 0.8181
O3 O 0.57213(15) 0.23703(14) 1.08928(14)
O4 O 0.33967(16) 0.10420(17) 1.07563(16)
H2 H 0.3822 0.0657 1.1189
O5 O 0.04091(17) 0.56071(18) 0.81155(17)
O6 O 0.23485(16) 0.57884(15) 0.70001(13)
O7 O 0.4382(2) 0.6322(2) 0.60562(17)
C13 C 0.2358(2) 0.44630(19) 0.85406(18)
C14 C 0.1623(2) 0.3913(2) 0.9408(2)
H11 H 0.0672 0.4080 0.9601
C15 C 0.2311(2) 0.3098(2) 1.00005(19)
H12 H 0.1822 0.2756 1.0611
C16 C 0.3691(2) 0.27875(19) 0.97076(17)
C17 C 0.4381(2) 0.20230(19) 1.05024(17)
C18 C 0.6530(2) 0.1802(2) 0.85624(19)
C19 C 0.4462(2) 0.32898(18) 0.87661(17)
C20 C 0.5859(2) 0.2975(2) 0.83327(18)
C21 C 0.6576(2) 0.3638(2) 0.7515(2)
H13 H 0.7522 0.3482 0.7293
C22 C 0.5921(2) 0.4540(2) 0.7011(2)
H14 H 0.6428 0.4974 0.6459
C23 C 0.4528(2) 0.4785(2) 0.73298(18)
C24 C 0.3780(2) 0.41784(18) 0.82119(17)
C25 C 0.3816(2) 0.5682(2) 0.67520(19)
C26 C 0.1622(2) 0.5316(2) 0.79219(19)
N1 N -0.00536(18) 0.06070(18) 0.76513(16)
N2 N -0.0387(2) 0.2209(2) 0.60381(17)
C1 C -0.0510(3) 0.2947(3) 0.5239(2)
H3 H -0.1358 0.3342 0.5238
C2 C 0.0537(3) 0.3179(2) 0.4397(2)
H4 H 0.0392 0.3718 0.3859
C3 C 0.1778(3) 0.2602(3) 0.4375(2)
H5 H 0.2494 0.2740 0.3819
C4 C 0.1968(2) 0.1796(2) 0.5201(2)
C5 C 0.3233(3) 0.1145(3) 0.5236(3)
H6 H 0.3993 0.1286 0.4717
C6 C 0.3346(3) 0.0337(3) 0.6003(3)
H7 H 0.4176 -0.0082 0.5995
C7 C 0.2219(2) 0.0106(2) 0.6831(2)
C8 C 0.2284(2) -0.0737(2) 0.7640(2)
H8 H 0.3086 -0.1189 0.7647
C9 C 0.1178(2) -0.0901(2) 0.8420(2)
H9 H 0.1211 -0.1472 0.8949
C10 C 0.0006(2) -0.0202(2) 0.84104(19)
H10 H -0.0749 -0.0301 0.8942
C11 C 0.1000(2) 0.0779(2) 0.68408(18)
C12 C 0.0848(2) 0.1632(2) 0.60101(18)
loop_
_geom_bond_atom_site_label_1
_geom_bond_atom_site_label_2
_geom_bond_site_symmetry_1
_geom_bond_site_symmetry_2
O1 C18 1_555 1_555
O2 H1 1_555 1_555
O3 C17 1_555 1_555
O4 H2 1_555 1_555
O5 C26 1_555 1_555
O6 C25 1_555 1_555
O7 C25 1_555 1_555
N1 C10 1_555 1_555
N2 C1 1_555 1_555
C1 H3 1_555 1_555
C2 C1 1_555 1_555
H4 C2 1_555 1_555
C3 C2 1_555 1_555
H5 C3 1_555 1_555
C4 C3 1_555 1_555
C5 C4 1_555 1_555
H6 C5 1_555 1_555
C6 C5 1_555 1_555
H7 C6 1_555 1_555
C7 C6 1_555 1_555
C8 C7 1_555 1_555
H8 C8 1_555 1_555
C9 C8 1_555 1_555
H9 C9 1_555 1_555
C10 C9 1_555 1_555
H10 C10 1_555 1_555
C11 N1 1_555 1_555
C12 N2 1_555 1_555
C13 C14 1_555 1_555
C14 H11 1_555 1_555
C15 C14 1_555 1_555
H12 C15 1_555 1_555
C16 C15 1_555 1_555
C17 O4 1_555 1_555
C18 O2 1_555 1_555
C19 C16 1_555 1_555
C20 C18 1_555 1_555
C21 C20 1_555 1_555
H13 C21 1_555 1_555
C22 C21 1_555 1_555
H14 C22 1_555 1_555
C23 C22 1_555 1_555
C24 C13 1_555 1_555
C25 C23 1_555 1_555
C26 O6 1_555 1_555
C4 C12 1_555 1_555
C7 C11 1_555 1_555
C11 C12 1_555 1_555
C13 C26 1_555 1_555
C16 C17 1_555 1_555
C19 C20 1_555 1_555
C19 C24 1_555 1_555
C23 C24 1_555 1_555

#END
