
#######################################################################
#
#                 Cambridge Crystallographic Data Centre
#                                CCDC 
#
#######################################################################
#
# If this CIF has been generated from an entry in the Cambridge 
# Structural Database, then it will include bibliographic, chemical, 
# crystal, experimental, refinement or atomic coordinate data resulting 
# from the CCDC's data processing and validation procedures.
#
#######################################################################

data_IKATOE
_chemical_formula_moiety         'C12 H14 Cl1 N1 S2'
_chemical_name_systematic        
3-(1-(4-Chlorophenyl)ethyl)-1,3-thiazinane-2-thione
_symmetry_cell_setting           orthorhombic
_symmetry_space_group_name_H-M   'P b c a'
_symmetry_Int_Tables_number      61
_space_group_name_Hall           '-P 2ac 2ab'
loop_
_symmetry_equiv_pos_site_id
_symmetry_equiv_pos_as_xyz
1 x,y,z
2 1/2-x,-y,1/2+z
3 -x,1/2+y,1/2-z
4 1/2+x,1/2-y,-z
5 -x,-y,-z
6 1/2+x,y,1/2-z
7 x,1/2-y,1/2+z
8 1/2-x,1/2+y,z
_cell_length_a                   11.260(2)
_cell_length_b                   11.888(2)
_cell_length_c                   18.978(4)
_cell_angle_alpha                90
_cell_angle_beta                 90
_cell_angle_gamma                90
_cell_volume                     2540.37
_exptl_crystal_colour            colorless
_exptl_crystal_description       block
_cell_formula_units_Z            8
loop_
_atom_site_label
_atom_site_type_symbol
_atom_site_fract_x
_atom_site_fract_y
_atom_site_fract_z
Cl1 Cl -0.02163(5) 0.84121(4) 0.54940(3)
S1 S 0.12139(4) 0.46585(4) 0.16831(2)
S2 S -0.00573(4) 0.34132(4) 0.27142(2)
N1 N 0.17516(12) 0.47749(11) 0.30690(7)
C1 C 0.03561(15) 0.61986(15) 0.39541(9)
H1 H 0.0095 0.6085 0.3495
C2 C -0.00917(15) 0.70925(15) 0.43370(10)
H2 H -0.0652 0.7573 0.4140
C3 C 0.03060(16) 0.72615(14) 0.50171(10)
C4 C 0.11393(16) 0.65588(15) 0.53172(9)
H3 H 0.1405 0.6684 0.5774
C5 C 0.15754(16) 0.56606(15) 0.49268(9)
H4 H 0.2135 0.5183 0.5127
C6 C 0.11905(14) 0.54630(13) 0.42412(9)
C7 C 0.15969(15) 0.44518(14) 0.38191(9)
H5 H 0.0951 0.3900 0.3836
C8 C 0.27095(17) 0.38623(17) 0.40901(10)
H6 H 0.2939 0.3284 0.3765
H7 H 0.2548 0.3533 0.4542
H8 H 0.3342 0.4399 0.4135
C9 C 0.27378(15) 0.55691(15) 0.29311(9)
H9 H 0.3458 0.5144 0.2843
H10 H 0.2868 0.6025 0.3348
C10 C 0.25045(16) 0.63354(15) 0.23103(9)
H11 H 0.3144 0.6878 0.2270
H12 H 0.1771 0.6745 0.2387
C11 C 0.24125(17) 0.56687(17) 0.16328(10)
H13 H 0.3155 0.5278 0.1547
H14 H 0.2273 0.6178 0.1242
C12 C 0.10630(14) 0.43289(14) 0.25731(9)
loop_
_geom_bond_atom_site_label_1
_geom_bond_atom_site_label_2
_geom_bond_site_symmetry_1
_geom_bond_site_symmetry_2
Cl1 C3 1_555 1_555
S1 C11 1_555 1_555
S2 C12 1_555 1_555
N1 C7 1_555 1_555
C1 H1 1_555 1_555
C2 C1 1_555 1_555
H2 C2 1_555 1_555
C3 C2 1_555 1_555
C4 C3 1_555 1_555
H3 C4 1_555 1_555
C5 C4 1_555 1_555
H4 C5 1_555 1_555
C6 C1 1_555 1_555
C7 C6 1_555 1_555
H5 C7 1_555 1_555
C8 C7 1_555 1_555
H6 C8 1_555 1_555
H7 C8 1_555 1_555
H8 C8 1_555 1_555
C9 N1 1_555 1_555
H9 C9 1_555 1_555
H10 C9 1_555 1_555
C10 C9 1_555 1_555
H11 C10 1_555 1_555
H12 C10 1_555 1_555
C11 C10 1_555 1_555
H13 C11 1_555 1_555
H14 C11 1_555 1_555
C12 S1 1_555 1_555
N1 C12 1_555 1_555
C5 C6 1_555 1_555

#END
