
#######################################################################
#
#                 Cambridge Crystallographic Data Centre
#                                CCDC 
#
#######################################################################
#
# If this CIF has been generated from an entry in the Cambridge 
# Structural Database, then it will include bibliographic, chemical, 
# crystal, experimental, refinement or atomic coordinate data resulting 
# from the CCDC's data processing and validation procedures.
#
#######################################################################

data_IKECIL
_chemical_formula_moiety         'C22 H16 F3 N1 O7 S1'
_chemical_name_systematic        
'6-Oxo-5-((trifluoromethyl)sulfonyl)-1,2,4a,5,6,11b-hexahydro[1,3]dioxolo[4,5-j]phenanthridin-2-yl benzoate'
_symmetry_cell_setting           triclinic
_symmetry_space_group_name_H-M   'P -1'
_symmetry_Int_Tables_number      2
_space_group_name_Hall           '-P 1'
loop_
_symmetry_equiv_pos_site_id
_symmetry_equiv_pos_as_xyz
1 x,y,z
2 -x,-y,-z
_cell_length_a                   5.3521(5)
_cell_length_b                   15.5146(16)
_cell_length_c                   15.5615(14)
_cell_angle_alpha                114.351(2)
_cell_angle_beta                 95.1450(10)
_cell_angle_gamma                97.0720(10)
_cell_volume                     1154.07
_exptl_crystal_colour            colorless
_exptl_crystal_description       needle
_cell_formula_units_Z            2
loop_
_atom_site_label
_atom_site_type_symbol
_atom_site_fract_x
_atom_site_fract_y
_atom_site_fract_z
C1 C 0.9593(7) 0.7149(3) 1.0563(3)
C2 C 1.0231(6) 0.6470(3) 0.9656(3)
C3 C 1.1954(7) 0.5870(3) 0.9721(3)
H1 H 1.2688 0.5923 1.0309
C4 C 1.2502(7) 0.5211(3) 0.8890(3)
C5 C 1.1403(8) 0.5127(3) 0.8020(3)
C6 C 0.9739(8) 0.5702(3) 0.7929(3)
H2 H 0.9031 0.5633 0.7331
C7 C 0.9146(7) 0.6395(3) 0.8768(3)
C8 C 0.7389(7) 0.7092(3) 0.8759(2)
H3 H 0.5712 0.6850 0.8859
C9 C 0.8435(7) 0.8052(3) 0.9615(2)
H4 H 1.0261 0.8191 0.9598
C10 C 0.7331(8) 0.8881(3) 0.9576(3)
H5 H 0.7630 0.9463 1.0118
C11 C 0.5952(8) 0.8810(3) 0.8797(3)
H6 H 0.5412 0.9360 0.8806
C12 C 0.5204(8) 0.7912(3) 0.7908(3)
H7 H 0.3471 0.7607 0.7889
C13 C 0.7022(7) 0.7217(3) 0.7835(2)
H8 H 0.8653 0.7460 0.7719
H9 H 0.6342 0.6600 0.7304
C14 C 0.8693(10) 0.9435(3) 1.2227(3)
C15 C 1.3895(9) 0.4010(3) 0.7757(3)
H10 H 1.3118 0.3353 0.7593
H11 H 1.5551 0.4007 0.7549
C16 C 0.3455(10) 0.7706(4) 0.6349(3)
C17 C 0.3822(9) 0.7953(3) 0.5552(3)
C18 C 0.5931(11) 0.8560(4) 0.5573(3)
H12 H 0.7191 0.8823 0.6108
C19 C 0.6226(14) 0.8790(5) 0.4820(4)
H13 H 0.7670 0.9207 0.4848
C20 C 0.4389(15) 0.8404(5) 0.4029(4)
H14 H 0.4556 0.8571 0.3524
C21 C 0.2354(15) 0.7787(6) 0.3985(4)
H15 H 0.1123 0.7510 0.3441
C22 C 0.2078(11) 0.7562(5) 0.4739(4)
H16 H 0.0653 0.7128 0.4695
F1 F 1.0623(6) 0.9185(2) 1.2596(2)
F2 F 0.9669(6) 1.0015(2) 1.1873(2)
F3 F 0.7503(7) 0.9915(2) 1.2909(2)
N1 N 0.8220(6) 0.7880(2) 1.04998(19)
O1 O 1.0137(5) 0.7125(2) 1.13247(18)
O2 O 0.5759(5) 0.77960(19) 1.17672(18)
O3 O 0.4658(5) 0.87827(19) 1.09346(18)
O4 O 1.4169(6) 0.4573(2) 0.8761(2)
O5 O 1.2311(6) 0.4429(2) 0.7298(2)
O6 O 0.5276(5) 0.8156(2) 0.71026(18)
O7 O 0.1783(13) 0.7010(8) 0.6301(5)
S1 S 0.65022(19) 0.83949(7) 1.13126(7)
O8? O 0.145(5) 0.763(2) 0.6537(16)
loop_
_geom_bond_atom_site_label_1
_geom_bond_atom_site_label_2
_geom_bond_site_symmetry_1
_geom_bond_site_symmetry_2
C1 C2 1_555 1_555
C2 C3 1_555 1_555
C3 H1 1_555 1_555
C4 C3 1_555 1_555
C5 C4 1_555 1_555
C6 C5 1_555 1_555
H2 C6 1_555 1_555
C7 C2 1_555 1_555
C8 C7 1_555 1_555
H3 C8 1_555 1_555
C9 C8 1_555 1_555
H4 C9 1_555 1_555
C10 C9 1_555 1_555
H5 C10 1_555 1_555
C11 C10 1_555 1_555
H6 C11 1_555 1_555
C12 C11 1_555 1_555
H7 C12 1_555 1_555
C13 C8 1_555 1_555
H8 C13 1_555 1_555
H9 C13 1_555 1_555
C14 F1 1_555 1_555
C15 H10 1_555 1_555
H11 C15 1_555 1_555
C16 C17 1_555 1_555
C17 C18 1_555 1_555
C18 H12 1_555 1_555
C19 C18 1_555 1_555
H13 C19 1_555 1_555
C20 C19 1_555 1_555
H14 C20 1_555 1_555
C21 C20 1_555 1_555
H15 C21 1_555 1_555
C22 C17 1_555 1_555
H16 C22 1_555 1_555
F2 C14 1_555 1_555
F3 C14 1_555 1_555
N1 C1 1_555 1_555
O1 C1 1_555 1_555
O2 S1 1_555 1_555
O3 S1 1_555 1_555
O4 C4 1_555 1_555
O5 C5 1_555 1_555
O6 C12 1_555 1_555
O7 C16 1_555 1_555
S1 C14 1_555 1_555
C6 C7 1_555 1_555
C9 N1 1_555 1_555
C12 C13 1_555 1_555
C15 O4 1_555 1_555
C15 O5 1_555 1_555
C16 O6 1_555 1_555
C21 C22 1_555 1_555
N1 S1 1_555 1_555

#END
