
#######################################################################
#
#                 Cambridge Crystallographic Data Centre
#                                CCDC 
#
#######################################################################
#
# If this CIF has been generated from an entry in the Cambridge 
# Structural Database, then it will include bibliographic, chemical, 
# crystal, experimental, refinement or atomic coordinate data resulting 
# from the CCDC's data processing and validation procedures.
#
#######################################################################

data_IKEGIP
_chemical_formula_moiety         'C17 H13 Cl1 N4 O1 S1'
_chemical_name_systematic        
1-(4-Chlorophenyl)-3-(5-[(E)-2-phenylethenyl]-1,3,4-thiadiazol-2-yl)urea
_symmetry_cell_setting           monoclinic
_symmetry_space_group_name_H-M   'P 21/c'
_symmetry_Int_Tables_number      14
_space_group_name_Hall           '-P 2ybc'
loop_
_symmetry_equiv_pos_site_id
_symmetry_equiv_pos_as_xyz
1 x,y,z
2 -x,1/2+y,1/2-z
3 -x,-y,-z
4 x,1/2-y,1/2+z
_cell_length_a                   11.2399(6)
_cell_length_b                   4.1032(2)
_cell_length_c                   35.2497(16)
_cell_angle_alpha                90
_cell_angle_beta                 91.525(4)
_cell_angle_gamma                90
_cell_volume                     1625.12
_exptl_crystal_colour            colorless
_exptl_crystal_description       block
_cell_formula_units_Z            4
loop_
_atom_site_label
_atom_site_type_symbol
_atom_site_fract_x
_atom_site_fract_y
_atom_site_fract_z
C1 C 0.9546(3) -0.0487(8) -0.10673(10)
C2 C 0.9869(3) 0.0032(9) -0.06905(10)
H1 H 1.0585 -0.0780 -0.0592
C3 C 0.9118(3) 0.1766(8) -0.04629(10)
H2 H 0.9330 0.2130 -0.0210
C4 C 0.8049(3) 0.2972(8) -0.06083(10)
C5 C 0.7739(3) 0.2341(9) -0.09865(10)
H3 H 0.7012 0.3078 -0.1085
C6 C 0.8486(3) 0.0657(9) -0.12150(10)
H4 H 0.8277 0.0291 -0.1468
C7 C 0.7271(3) 0.5485(8) -0.00213(10)
C8 C 0.6130(3) 0.8377(8) 0.04418(10)
C9 C 0.5972(3) 0.9536(8) 0.10951(9)
C10 C 0.6089(3) 0.9901(8) 0.15047(10)
H5 H 0.5513 1.1121 0.1626
C11 C 0.6956(3) 0.8619(8) 0.17178(10)
H6 H 0.7501 0.7342 0.1591
C12 C 0.7170(3) 0.8949(8) 0.21285(10)
C13 C 0.6371(4) 1.0434(9) 0.23675(11)
H7 H 0.5660 1.1267 0.2268
C14 C 0.6625(5) 1.0679(11) 0.27489(12)
H8 H 0.6079 1.1654 0.2907
C15 C 0.7677(5) 0.9501(11) 0.28999(12)
H9 H 0.7843 0.9683 0.3159
C16 C 0.8480(4) 0.8058(11) 0.26689(13)
H10 H 0.9197 0.7273 0.2770
C17 C 0.8222(4) 0.7772(9) 0.22848(11)
H11 H 0.8768 0.6767 0.2129
Cl1 Cl 1.05145(9) -0.2566(3) -0.13606(3)
N1 N 0.7246(2) 0.4851(7) -0.04021(8)
H12 H 0.670(3) 0.583(8) -0.0530(9)
N2 N 0.6343(3) 0.7450(8) 0.00788(9)
H13 H 0.588(3) 0.822(8) -0.0081(10)
N3 N 0.5194(2) 1.0175(7) 0.05141(8)
N4 N 0.5103(2) 1.0847(7) 0.08984(8)
O1 O 0.7993(2) 0.4425(6) 0.02092(6)
S1 S 0.69949(7) 0.7370(2) 0.08328(2)
loop_
_geom_bond_atom_site_label_1
_geom_bond_atom_site_label_2
_geom_bond_site_symmetry_1
_geom_bond_site_symmetry_2
C1 C2 1_555 1_555
C2 H1 1_555 1_555
C3 C2 1_555 1_555
H2 C3 1_555 1_555
C4 C3 1_555 1_555
C5 C4 1_555 1_555
H3 C5 1_555 1_555
C6 C1 1_555 1_555
H4 C6 1_555 1_555
C7 N1 1_555 1_555
C8 N2 1_555 1_555
C9 C10 1_555 1_555
C10 H5 1_555 1_555
C11 C10 1_555 1_555
H6 C11 1_555 1_555
C12 C11 1_555 1_555
C13 C12 1_555 1_555
H7 C13 1_555 1_555
C14 C13 1_555 1_555
H8 C14 1_555 1_555
C15 C14 1_555 1_555
H9 C15 1_555 1_555
C16 C15 1_555 1_555
H10 C16 1_555 1_555
C17 C12 1_555 1_555
H11 C17 1_555 1_555
Cl1 C1 1_555 1_555
N1 C4 1_555 1_555
H12 N1 1_555 1_555
N2 C7 1_555 1_555
H13 N2 1_555 1_555
N3 C8 1_555 1_555
N4 C9 1_555 1_555
O1 C7 1_555 1_555
S1 C8 1_555 1_555
C5 C6 1_555 1_555
C9 S1 1_555 1_555
C16 C17 1_555 1_555
N3 N4 1_555 1_555

#END
