
#######################################################################
#
#                 Cambridge Crystallographic Data Centre
#                                CCDC 
#
#######################################################################
#
# If this CIF has been generated from an entry in the Cambridge 
# Structural Database, then it will include bibliographic, chemical, 
# crystal, experimental, refinement or atomic coordinate data resulting 
# from the CCDC's data processing and validation procedures.
#
#######################################################################

data_IKEHUB
_chemical_formula_moiety         'C28 H28 O6'
_chemical_name_systematic        
3-(4-Methoxy-3-(benzyloxy)benzylidene)-4-(3,4-dimethoxybenzyl)-tetrahydrofuran-2-one
_symmetry_cell_setting           triclinic
_symmetry_space_group_name_H-M   'P -1'
_symmetry_Int_Tables_number      2
_space_group_name_Hall           '-P 1'
loop_
_symmetry_equiv_pos_site_id
_symmetry_equiv_pos_as_xyz
1 x,y,z
2 -x,-y,-z
_cell_length_a                   8.5553(9)
_cell_length_b                   13.8060(15)
_cell_length_c                   20.018(3)
_cell_angle_alpha                93.812(4)
_cell_angle_beta                 97.505(4)
_cell_angle_gamma                93.128(12)
_cell_volume                     2334.19
_cell_formula_units_Z            4
loop_
_atom_site_label
_atom_site_type_symbol
_atom_site_fract_x
_atom_site_fract_y
_atom_site_fract_z
C1 C 0.0483(11) 0.1417(9) 0.9866(5)
H1 H 0.0480 0.1370 1.0352
H2 H -0.0280 0.0924 0.9616
H3 H 0.0190 0.2065 0.9746
C2 C 0.6306(11) 0.0652(9) 0.9293(6)
H4 H 0.6927 0.0497 0.9715
H5 H 0.6799 0.1229 0.9126
H6 H 0.6267 0.0101 0.8955
C3 C 0.1067(11) 0.1515(7) 0.8523(4)
H7 H 0.0051 0.1652 0.8634
C4 C 0.2231(11) 0.1298(8) 0.9025(5)
C5 C 0.3706(11) 0.1067(8) 0.8871(5)
C6 C 0.4013(11) 0.1080(8) 0.8218(5)
H8 H 0.5028 0.0941 0.8108
C7 C 0.2816(11) 0.1301(7) 0.7712(5)
H9 H 0.3030 0.1284 0.7258
C8 C 0.1368(10) 0.1537(7) 0.7847(4)
C9 C 0.0061(11) 0.1712(8) 0.7293(5)
H10 H 0.0499 0.2121 0.6965
H11 H -0.0752 0.2077 0.7492
C10 C -0.0729(10) 0.0765(7) 0.6914(4)
H12 H 0.0075 0.0358 0.6733
C11 C -0.1720(10) 0.0178(8) 0.7352(5)
H13 H -0.1688 -0.0528 0.7235
H14 H -0.1313 0.0318 0.7837
C12 C -0.3508(12) 0.0908(8) 0.6606(5)
C13 C -0.1961(11) 0.1001(7) 0.6357(4)
C14 C -0.1899(11) 0.1231(7) 0.5719(5)
H15 H -0.2880 0.1385 0.5482
C15 C -0.0579(11) 0.1283(7) 0.5332(4)
C16 C 0.0988(11) 0.1258(8) 0.5590(5)
H16 H 0.1261 0.1227 0.6064
C17 C 0.2186(10) 0.1277(7) 0.5184(4)
H17 H 0.3258 0.1261 0.5377
C18 C 0.1797(11) 0.1321(7) 0.4493(4)
C19 C 0.0224(10) 0.1410(7) 0.4216(4)
C20 C -0.0915(11) 0.1374(7) 0.4623(4)
H18 H -0.1983 0.1410 0.4430
C21 C 0.4493(10) 0.1197(8) 0.4310(5)
H19 H 0.5142 0.1199 0.3941
H20 H 0.4566 0.0577 0.4521
H21 H 0.4873 0.1733 0.4648
C22 C -0.1608(10) 0.1562(7) 0.3225(4)
H22 H -0.2166 0.2036 0.3484
H23 H -0.2168 0.0913 0.3217
C23 C -0.1592(10) 0.1855(8) 0.2519(4)
C24 C -0.1571(11) 0.2825(9) 0.2398(5)
H24 H -0.1575 0.3305 0.2760
C25 C -0.1542(12) 0.3100(9) 0.1743(5)
H25 H -0.1484 0.3770 0.1658
C26 C -0.1596(12) 0.2411(10) 0.1229(5)
H26 H -0.1617 0.2605 0.0782
C27 C -0.1621(11) 0.1434(9) 0.1332(5)
H27 H -0.1644 0.0958 0.0965
C28 C -0.1612(10) 0.1167(8) 0.1988(5)
H28 H -0.1620 0.0498 0.2073
O1 O 0.2039(7) 0.1256(6) 0.9697(3)
O2 O 0.4745(7) 0.0840(6) 0.9414(3)
O3 O -0.3328(7) 0.0482(5) 0.7209(3)
O4 O -0.4787(7) 0.1125(5) 0.6354(3)
O5 O 0.2890(6) 0.1315(5) 0.4049(3)
O6 O 0.0012(6) 0.1533(5) 0.3540(3)
C29 C 0.5604(12) 0.3398(9) 0.9938(5)
H29 H 0.5635 0.3320 1.0422
H30 H 0.5018 0.2834 0.9680
H31 H 0.5078 0.3990 0.9825
C30 C 1.1576(11) 0.4271(9) 0.9462(5)
H32 H 1.2263 0.4308 0.9896
H33 H 1.1551 0.4917 0.9287
H34 H 1.1986 0.3818 0.9139
C31 C 0.6140(12) 0.3435(7) 0.8572(5)
H35 H 0.5094 0.3265 0.8654
C32 C 0.7354(11) 0.3573(8) 0.9110(5)
C33 C 0.8872(11) 0.3828(8) 0.8986(5)
C34 C 0.9189(11) 0.3955(8) 0.8342(5)
H36 H 1.0230 0.4136 0.8260
C35 C 0.7951(11) 0.3812(7) 0.7809(5)
H37 H 0.8164 0.3903 0.7362
C36 C 0.6449(11) 0.3545(7) 0.7910(5)
C37 C 0.5107(11) 0.3387(7) 0.7330(5)
H38 H 0.4203 0.3029 0.7486
H39 H 0.5457 0.2978 0.6959
C38 C 0.4563(10) 0.4335(7) 0.7060(4)
H40 H 0.5476 0.4726 0.6927
C39 C 0.3718(10) 0.4945(8) 0.7545(5)
H41 H 0.4094 0.4816 0.8018
H42 H 0.3927 0.5646 0.7492
C40 C 0.1742(13) 0.4264(8) 0.6751(5)
C41 C 0.3274(11) 0.4143(7) 0.6467(5)
C42 C 0.3242(11) 0.3900(7) 0.5807(5)
H43 H 0.2211 0.3785 0.5564
C43 C 0.4524(10) 0.3779(7) 0.5397(4)
C44 C 0.6116(10) 0.3822(7) 0.5646(5)
H44 H 0.6426 0.3884 0.6121
C45 C 0.7263(11) 0.3777(7) 0.5224(5)
H45 H 0.8346 0.3795 0.5408
C46 C 0.6835(10) 0.3705(7) 0.4533(5)
C47 C 0.5226(10) 0.3634(7) 0.4263(4)
C48 C 0.4127(11) 0.3693(7) 0.4695(4)
H46 H 0.3044 0.3675 0.4511
C49 C 0.9519(11) 0.3849(8) 0.4313(5)
H47 H 1.0129 0.3807 0.3931
H48 H 0.9853 0.3364 0.4629
H49 H 0.9701 0.4501 0.4545
C50 C 0.3308(10) 0.3357(8) 0.3276(4)
H50 H 0.2743 0.3960 0.3320
H51 H 0.2767 0.2844 0.3501
C51 C 0.3325(11) 0.3048(8) 0.2552(5)
C52 C 0.2525(13) 0.3540(10) 0.2036(5)
H52 H 0.1952 0.4086 0.2145
C53 C 0.257(2) 0.3232(16) 0.1363(8)
H53 H 0.2009 0.3555 0.1010
C54 C 0.344(2) 0.2441(18) 0.1219(8)
H54 H 0.3473 0.2219 0.0762
C55 C 0.4252(16) 0.1981(14) 0.1722(9)
H55 H 0.4868 0.1454 0.1616
C56 C 0.4175(13) 0.2279(11) 0.2376(6)
H56 H 0.4728 0.1944 0.2724
O7 O 0.7184(7) 0.3471(6) 0.9772(3)
O8 O 1.0021(7) 0.3936(5) 0.9553(3)
O9 O 0.2066(7) 0.4678(5) 0.7386(3)
O10 O 0.0396(8) 0.4073(5) 0.6481(3)
O11 O 0.7873(7) 0.3668(5) 0.4069(3)
O12 O 0.4930(7) 0.3524(5) 0.3580(3)
loop_
_geom_bond_atom_site_label_1
_geom_bond_atom_site_label_2
_geom_bond_site_symmetry_1
_geom_bond_site_symmetry_2
C1 H1 1_555 1_555
H2 C1 1_555 1_555
H3 C1 1_555 1_555
C2 H4 1_555 1_555
H5 C2 1_555 1_555
H6 C2 1_555 1_555
C3 H7 1_555 1_555
C4 C3 1_555 1_555
C5 C4 1_555 1_555
C6 C5 1_555 1_555
H8 C6 1_555 1_555
C7 C6 1_555 1_555
H9 C7 1_555 1_555
C8 C3 1_555 1_555
C9 C8 1_555 1_555
H10 C9 1_555 1_555
H11 C9 1_555 1_555
C10 C9 1_555 1_555
H12 C10 1_555 1_555
C11 C10 1_555 1_555
H13 C11 1_555 1_555
H14 C11 1_555 1_555
C12 C13 1_555 1_555
C13 C10 1_555 1_555
C14 C13 1_555 1_555
H15 C14 1_555 1_555
C15 C14 1_555 1_555
C16 C15 1_555 1_555
H16 C16 1_555 1_555
C17 C16 1_555 1_555
H17 C17 1_555 1_555
C18 C17 1_555 1_555
C19 C18 1_555 1_555
C20 C15 1_555 1_555
H18 C20 1_555 1_555
C21 H19 1_555 1_555
H20 C21 1_555 1_555
H21 C21 1_555 1_555
C22 H22 1_555 1_555
H23 C22 1_555 1_555
C23 C22 1_555 1_555
C24 C23 1_555 1_555
H24 C24 1_555 1_555
C25 C24 1_555 1_555
H25 C25 1_555 1_555
C26 C25 1_555 1_555
H26 C26 1_555 1_555
C27 C26 1_555 1_555
H27 C27 1_555 1_555
C28 C23 1_555 1_555
H28 C28 1_555 1_555
C29 H29 1_555 1_555
H30 C29 1_555 1_555
H31 C29 1_555 1_555
C30 H32 1_555 1_555
H33 C30 1_555 1_555
H34 C30 1_555 1_555
C31 H35 1_555 1_555
C32 C31 1_555 1_555
C33 C32 1_555 1_555
C34 C33 1_555 1_555
H36 C34 1_555 1_555
C35 C34 1_555 1_555
H37 C35 1_555 1_555
C36 C31 1_555 1_555
C37 C36 1_555 1_555
H38 C37 1_555 1_555
H39 C37 1_555 1_555
C38 C37 1_555 1_555
H40 C38 1_555 1_555
C39 C38 1_555 1_555
H41 C39 1_555 1_555
H42 C39 1_555 1_555
C40 C41 1_555 1_555
C41 C38 1_555 1_555
C42 C41 1_555 1_555
H43 C42 1_555 1_555
C43 C42 1_555 1_555
C44 C43 1_555 1_555
H44 C44 1_555 1_555
C45 C44 1_555 1_555
H45 C45 1_555 1_555
C46 C45 1_555 1_555
C47 C46 1_555 1_555
C48 C43 1_555 1_555
H46 C48 1_555 1_555
C49 H47 1_555 1_555
H48 C49 1_555 1_555
H49 C49 1_555 1_555
C50 H50 1_555 1_555
H51 C50 1_555 1_555
C51 C50 1_555 1_555
C52 C51 1_555 1_555
H52 C52 1_555 1_555
C53 C52 1_555 1_555
H53 C53 1_555 1_555
C54 C53 1_555 1_555
H54 C54 1_555 1_555
C55 C54 1_555 1_555
H55 C55 1_555 1_555
C56 C51 1_555 1_555
H56 C56 1_555 1_555
O1 C1 1_555 1_555
O2 C2 1_555 1_555
O3 C11 1_555 1_555
O4 C12 1_555 1_555
O5 C18 1_555 1_555
O6 C19 1_555 1_555
O7 C29 1_555 1_555
O8 C30 1_555 1_555
O9 C39 1_555 1_555
O10 C40 1_555 1_555
O11 C46 1_555 1_555
O12 C47 1_555 1_555
C4 O1 1_555 1_555
C5 O2 1_555 1_555
C7 C8 1_555 1_555
C12 O3 1_555 1_555
C19 C20 1_555 1_555
C21 O5 1_555 1_555
C22 O6 1_555 1_555
C27 C28 1_555 1_555
C32 O7 1_555 1_555
C33 O8 1_555 1_555
C35 C36 1_555 1_555
C40 O9 1_555 1_555
C47 C48 1_555 1_555
C49 O11 1_555 1_555
C50 O12 1_555 1_555
C55 C56 1_555 1_555

#END
