
#######################################################################
#
#                 Cambridge Crystallographic Data Centre
#                                CCDC 
#
#######################################################################
#
# If this CIF has been generated from an entry in the Cambridge 
# Structural Database, then it will include bibliographic, chemical, 
# crystal, experimental, refinement or atomic coordinate data resulting 
# from the CCDC's data processing and validation procedures.
#
#######################################################################

data_IKEJUD
_chemical_formula_moiety         'C20 H17 N1 O7'
_chemical_name_systematic        
'2,5-bis(1,3-Benzodioxol-5-yl)-3-(hydroxymethyl)-2,3-dihydro-4H-pyran-4-one oxime'
_symmetry_cell_setting           monoclinic
_symmetry_space_group_name_H-M   'P 21'
_symmetry_Int_Tables_number      4
_space_group_name_Hall           'P 2yb'
loop_
_symmetry_equiv_pos_site_id
_symmetry_equiv_pos_as_xyz
1 x,y,z
2 -x,1/2+y,-z
_cell_length_a                   7.3943(2)
_cell_length_b                   17.9631(8)
_cell_length_c                   7.4227(3)
_cell_angle_alpha                90
_cell_angle_beta                 119.037(2)
_cell_angle_gamma                90
_cell_volume                     861.993
_chemical_melting_point          122deg.C
_cell_formula_units_Z            2
_exptl_crystal_recrystallization_method methanol
loop_
_atom_site_label
_atom_site_type_symbol
_atom_site_fract_x
_atom_site_fract_y
_atom_site_fract_z
C1 C 0.5085(6) 0.1388(2) 1.2416(7)
H1 H 0.3864 0.1078 1.2119
H2 H 0.5810 0.1512 1.3902
C2 C 0.7046(5) 0.15253(19) 1.0931(6)
C3 C 0.8558(5) 0.1466(2) 1.0386(6)
H3 H 0.9353 0.1025 1.0633
C4 C 0.8874(5) 0.20875(19) 0.9448(6)
H4 H 0.9937 0.2072 0.9079
C5 C 0.7695(5) 0.27238(17) 0.9037(5)
C6 C 0.6135(5) 0.27649(18) 0.9612(6)
H5 H 0.5299 0.3196 0.9357
C7 C 0.5900(5) 0.2149(2) 1.0557(6)
C8 C 0.8144(5) 0.33777(17) 0.8003(5)
H6 H 0.8168 0.3180 0.6755
C9 C 1.0230(5) 0.37487(18) 0.9359(5)
H7 H 1.1316 0.3353 0.9932
C10 C 1.0170(5) 0.41373(16) 1.1133(5)
C11 C 0.8229(5) 0.45324(17) 1.0602(5)
C12 C 0.6607(5) 0.44132(18) 0.8761(5)
H8 H 0.5404 0.4700 0.8423
C13 C 1.0810(5) 0.43030(18) 0.8148(5)
H9 H 0.9634 0.4641 0.7332
H10 H 1.2011 0.4607 0.9108
C14 C 0.8058(5) 0.50635(17) 1.2048(5)
C15 C 0.9314(5) 0.56985(18) 1.2716(5)
H11 H 1.0453 0.5755 1.2471
C16 C 0.8846(5) 0.62346(19) 1.3734(5)
C17 C 0.7244(6) 0.61504(19) 1.4173(6)
C18 C 0.6079(5) 0.5520(2) 1.3656(6)
H12 H 0.5033 0.5453 1.4034
C19 C 0.6476(5) 0.4973(2) 1.2545(6)
H13 H 0.5656 0.4534 1.2124
C20 C 0.8494(6) 0.7306(2) 1.5081(7)
H14 H 0.9344 0.7545 1.6439
H15 H 0.7699 0.7697 1.4061
N1 N 1.1633(4) 0.41656(14) 1.2993(4)
O1 O 0.4454(4) 0.20512(14) 1.1215(5)
O2 O 0.6446(4) 0.09909(13) 1.1887(4)
O3 O 0.6484(3) 0.39228(11) 0.7304(3)
O4 O 1.1309(5) 0.38885(16) 0.6820(5)
O5 O 1.3381(3) 0.37679(14) 1.3241(4)
O6 O 0.7124(4) 0.67719(13) 1.5198(4)
O7 O 0.9802(4) 0.69069(13) 1.4457(4)
H16 H 1.437(6) 0.382(2) 1.463(7)
H17 H 1.112(11) 0.420(4) 0.596(12)
loop_
_geom_bond_atom_site_label_1
_geom_bond_atom_site_label_2
_geom_bond_site_symmetry_1
_geom_bond_site_symmetry_2
C1 H1 1_555 1_555
H2 C1 1_555 1_555
C2 C3 1_555 1_555
C3 H3 1_555 1_555
C4 C3 1_555 1_555
H4 C4 1_555 1_555
C5 C4 1_555 1_555
C6 C5 1_555 1_555
H5 C6 1_555 1_555
C7 C2 1_555 1_555
C8 C5 1_555 1_555
H6 C8 1_555 1_555
C9 C8 1_555 1_555
H7 C9 1_555 1_555
C10 C9 1_555 1_555
C11 C10 1_555 1_555
C12 C11 1_555 1_555
H8 C12 1_555 1_555
C13 C9 1_555 1_555
H9 C13 1_555 1_555
H10 C13 1_555 1_555
C14 C11 1_555 1_555
C15 C14 1_555 1_555
H11 C15 1_555 1_555
C16 C15 1_555 1_555
C17 C16 1_555 1_555
C18 C17 1_555 1_555
H12 C18 1_555 1_555
C19 C14 1_555 1_555
H13 C19 1_555 1_555
C20 H14 1_555 1_555
H15 C20 1_555 1_555
N1 C10 1_555 1_555
O1 C1 1_555 1_555
O2 C1 1_555 1_555
O3 C8 1_555 1_555
O4 C13 1_555 1_555
O5 N1 1_555 1_555
O6 C17 1_555 1_555
O7 C16 1_555 1_555
H16 O5 1_555 1_555
H17 O4 1_555 1_555
C2 O2 1_555 1_555
C6 C7 1_555 1_555
C7 O1 1_555 1_555
C12 O3 1_555 1_555
C18 C19 1_555 1_555
C20 O6 1_555 1_555
C20 O7 1_555 1_555

#END
