
#######################################################################
#
#                 Cambridge Crystallographic Data Centre
#                                CCDC 
#
#######################################################################
#
# If this CIF has been generated from an entry in the Cambridge 
# Structural Database, then it will include bibliographic, chemical, 
# crystal, experimental, refinement or atomic coordinate data resulting 
# from the CCDC's data processing and validation procedures.
#
#######################################################################

data_IKEKEQ
_chemical_formula_moiety         'C28 H42 S4 Si4'
_chemical_name_systematic        
3,2':5',2'':5'',3'''-quaterthiene-2,2''',5,5'''-tetrayltetrakis(trimethylsilane)
_symmetry_cell_setting           triclinic
_symmetry_space_group_name_H-M   'P -1'
_symmetry_Int_Tables_number      2
_space_group_name_Hall           '-P 1'
loop_
_symmetry_equiv_pos_site_id
_symmetry_equiv_pos_as_xyz
1 x,y,z
2 -x,-y,-z
_cell_length_a                   6.484(6)
_cell_length_b                   8.640(8)
_cell_length_c                   16.426(16)
_cell_angle_alpha                94.253(16)
_cell_angle_beta                 90.320(16)
_cell_angle_gamma                96.055(17)
_cell_volume                     912.476
_exptl_crystal_colour            colorless
_exptl_crystal_description       rod
_cell_formula_units_Z            1
loop_
_atom_site_label
_atom_site_type_symbol
_atom_site_fract_x
_atom_site_fract_y
_atom_site_fract_z
S1 S 0.28659(11) 0.07883(9) 0.07227(4)
S2 S 0.63930(12) 0.47327(8) 0.30240(4)
Si1 Si 0.38089(13) 0.61802(9) 0.17106(5)
Si2 Si 0.80579(14) 0.20903(11) 0.40306(5)
C1 C 0.0291(4) 0.0530(3) 0.03689(15)
C2 C 0.4527(4) 0.4413(3) 0.22345(16)
C3 C 0.6418(4) 0.2766(3) 0.31977(16)
C4 C 0.5034(4) 0.1902(3) 0.26542(16)
H1 H 0.4822 0.0818 0.2633
C5 C -0.0924(5) 0.1399(4) 0.08579(17)
H2 H -0.2341 0.1409 0.0772
C6 C 0.2291(4) 0.2092(3) 0.15331(16)
C7 C 0.3939(4) 0.2809(3) 0.21207(15)
C8 C 0.0211(5) 0.2292(4) 0.15165(18)
H3 H -0.0400 0.2945 0.1897
C9 C 0.6616(6) 0.2262(5) 0.5010(2)
H4 H 0.6426 0.3336 0.5147
H5 H 0.7394 0.1879 0.5437
H6 H 0.5287 0.1657 0.4948
C10 C 1.0598(6) 0.3368(6) 0.4114(2)
H7 H 1.0345 0.4429 0.4255
H8 H 1.1296 0.3305 0.3601
H9 H 1.1450 0.3022 0.4530
C11 C 0.2122(6) 0.7285(4) 0.2416(2)
H10 H 0.2848 0.7583 0.2924
H11 H 0.0868 0.6635 0.2515
H12 H 0.1787 0.8203 0.2170
C12 C 0.8466(8) -0.0012(5) 0.3752(3)
H13 H 0.9214 -0.0085 0.3251
H14 H 0.7145 -0.0627 0.3686
H15 H 0.9247 -0.0395 0.4179
C13 C 0.2448(8) 0.5618(5) 0.0704(2)
H16 H 0.3331 0.5059 0.0348
H17 H 0.2131 0.6542 0.0459
H18 H 0.1187 0.4966 0.0788
C14 C 0.6287(6) 0.7433(4) 0.1546(2)
H19 H 0.7155 0.6870 0.1187
H20 H 0.6992 0.7707 0.2060
H21 H 0.5983 0.8366 0.1307
S1A S -0.28659(11) -0.07883(9) -0.07227(4)
S2A S -0.63930(12) -0.47327(8) -0.30240(4)
Si1A Si -0.38089(13) -0.61802(9) -0.17106(5)
Si2A Si -0.80579(14) -0.20903(11) -0.40306(5)
C1A C -0.0291(4) -0.0530(3) -0.03689(15)
C2A C -0.4527(4) -0.4413(3) -0.22345(16)
C3A C -0.6418(4) -0.2766(3) -0.31977(16)
C4A C -0.5034(4) -0.1902(3) -0.26542(16)
H1A H -0.4822 -0.0818 -0.2633
C5A C 0.0924(5) -0.1399(4) -0.08579(17)
H2A H 0.2341 -0.1409 -0.0772
C6A C -0.2291(4) -0.2092(3) -0.15331(16)
C7A C -0.3939(4) -0.2809(3) -0.21207(15)
C8A C -0.0211(5) -0.2292(4) -0.15165(18)
H3A H 0.0400 -0.2945 -0.1897
C9A C -0.6616(6) -0.2262(5) -0.5010(2)
H4A H -0.6426 -0.3336 -0.5147
H5A H -0.7394 -0.1879 -0.5437
H6A H -0.5287 -0.1657 -0.4948
C10A C -1.0598(6) -0.3368(6) -0.4114(2)
H7A H -1.0345 -0.4429 -0.4255
H8A H -1.1296 -0.3305 -0.3601
H9A H -1.1450 -0.3022 -0.4530
C11A C -0.2122(6) -0.7285(4) -0.2416(2)
H10A H -0.2848 -0.7583 -0.2924
H11A H -0.0868 -0.6635 -0.2515
H12A H -0.1787 -0.8203 -0.2170
C12A C -0.8466(8) 0.0012(5) -0.3752(3)
H13A H -0.9214 0.0085 -0.3251
H14A H -0.7145 0.0627 -0.3686
H15A H -0.9247 0.0395 -0.4179
C13A C -0.2448(8) -0.5618(5) -0.0704(2)
H16A H -0.3331 -0.5059 -0.0348
H17A H -0.2131 -0.6542 -0.0459
H18A H -0.1187 -0.4966 -0.0788
C14A C -0.6287(6) -0.7433(4) -0.1546(2)
H19A H -0.7155 -0.6870 -0.1187
H20A H -0.6992 -0.7707 -0.2060
H21A H -0.5983 -0.8366 -0.1307
loop_
_geom_bond_atom_site_label_1
_geom_bond_atom_site_label_2
_geom_bond_site_symmetry_1
_geom_bond_site_symmetry_2
S1 C1 1_555 1_555
S2 C2 1_555 1_555
Si1 C2 1_555 1_555
Si2 C3 1_555 1_555
C1 C5 1_555 1_555
C2 C7 1_555 1_555
C3 S2 1_555 1_555
C4 C3 1_555 1_555
H1 C4 1_555 1_555
C5 H2 1_555 1_555
C6 S1 1_555 1_555
C7 C4 1_555 1_555
C8 C5 1_555 1_555
H3 C8 1_555 1_555
C9 Si2 1_555 1_555
H4 C9 1_555 1_555
H5 C9 1_555 1_555
H6 C9 1_555 1_555
C10 Si2 1_555 1_555
H7 C10 1_555 1_555
H8 C10 1_555 1_555
H9 C10 1_555 1_555
C11 Si1 1_555 1_555
H10 C11 1_555 1_555
H11 C11 1_555 1_555
H12 C11 1_555 1_555
C12 Si2 1_555 1_555
H13 C12 1_555 1_555
H14 C12 1_555 1_555
H15 C12 1_555 1_555
C13 Si1 1_555 1_555
H16 C13 1_555 1_555
H17 C13 1_555 1_555
H18 C13 1_555 1_555
C14 Si1 1_555 1_555
H19 C14 1_555 1_555
H20 C14 1_555 1_555
H21 C14 1_555 1_555
S1A C1A 1_555 1_555
S2A C2A 1_555 1_555
Si1A C2A 1_555 1_555
Si2A C3A 1_555 1_555
C1A C1 1_555 1_555
C2A C7A 1_555 1_555
C3A S2A 1_555 1_555
C4A C3A 1_555 1_555
H1A C4A 1_555 1_555
C5A C1A 1_555 1_555
H2A C5A 1_555 1_555
C6A S1A 1_555 1_555
C7A C4A 1_555 1_555
C8A C5A 1_555 1_555
H3A C8A 1_555 1_555
C9A Si2A 1_555 1_555
H4A C9A 1_555 1_555
H5A C9A 1_555 1_555
H6A C9A 1_555 1_555
C10A Si2A 1_555 1_555
H7A C10A 1_555 1_555
H8A C10A 1_555 1_555
H9A C10A 1_555 1_555
C11A Si1A 1_555 1_555
H10A C11A 1_555 1_555
H11A C11A 1_555 1_555
H12A C11A 1_555 1_555
C12A Si2A 1_555 1_555
H13A C12A 1_555 1_555
H14A C12A 1_555 1_555
H15A C12A 1_555 1_555
C13A Si1A 1_555 1_555
H16A C13A 1_555 1_555
H17A C13A 1_555 1_555
H18A C13A 1_555 1_555
C14A Si1A 1_555 1_555
H19A C14A 1_555 1_555
H20A C14A 1_555 1_555
H21A C14A 1_555 1_555
C6 C7 1_555 1_555
C6 C8 1_555 1_555
C6A C7A 1_555 1_555
C6A C8A 1_555 1_555

#END
