
#######################################################################
#
#                 Cambridge Crystallographic Data Centre
#                                CCDC 
#
#######################################################################
#
# If this CIF has been generated from an entry in the Cambridge 
# Structural Database, then it will include bibliographic, chemical, 
# crystal, experimental, refinement or atomic coordinate data resulting 
# from the CCDC's data processing and validation procedures.
#
#######################################################################

data_IKENUJ
_chemical_formula_moiety         'C13 H10 Cl1 N3 O2 S1'
_chemical_name_systematic        1-(4-chloro-3-nitrophenyl)-3-phenylthiourea
_chemical_properties_biological  
'Antinociceptive activity; anticonvulsant activity'
_symmetry_cell_setting           triclinic
_symmetry_space_group_name_H-M   'P -1'
_symmetry_Int_Tables_number      2
_space_group_name_Hall           '-P 1'
loop_
_symmetry_equiv_pos_site_id
_symmetry_equiv_pos_as_xyz
1 x,y,z
2 -x,-y,-z
_cell_length_a                   6.836(2)
_cell_length_b                   8.012(3)
_cell_length_c                   12.542(4)
_cell_angle_alpha                76.88(2)
_cell_angle_beta                 88.62(2)
_cell_angle_gamma                89.54(2)
_cell_volume                     668.798
_exptl_crystal_colour            colorless
_exptl_crystal_description       prism
_chemical_melting_point          '436-438 K'
_cell_formula_units_Z            2
loop_
_atom_site_label
_atom_site_type_symbol
_atom_site_fract_x
_atom_site_fract_y
_atom_site_fract_z
C1 C 0.1616(3) 0.1280(2) 0.83021(14)
C2 C 0.3760(3) -0.1293(2) 0.87551(14)
C3 C 0.5634(3) -0.0611(2) 0.85490(14)
H1 H 0.5848 0.0569 0.8518
C4 C 0.7188(3) -0.1655(3) 0.83897(16)
H2 H 0.8462 -0.1185 0.8235
C5 C 0.6884(3) -0.3396(3) 0.84568(16)
H3 H 0.7943 -0.4111 0.8336
C6 C 0.5024(3) -0.4076(3) 0.87008(16)
H4 H 0.4824 -0.5268 0.8770
C7 C 0.3448(3) -0.3033(2) 0.88458(15)
H5 H 0.2175 -0.3504 0.9005
C8 C 0.2516(2) 0.6173(2) 0.47835(14)
C9 C 0.2302(2) 0.6239(2) 0.58799(14)
C10 C 0.2193(2) 0.4794(2) 0.67249(14)
H6 H 0.2004 0.4889 0.7462
C11 C 0.2366(2) 0.3194(2) 0.64701(14)
C12 C 0.2566(3) 0.3100(2) 0.53733(14)
H7 H 0.2664 0.2010 0.5196
C13 C 0.2623(3) 0.4572(2) 0.45409(14)
H8 H 0.2736 0.4482 0.3800
N1 N 0.2153(2) -0.02402(19) 0.89364(12)
N2 N 0.2212(2) 0.78936(19) 0.61931(13)
N3 N 0.2455(2) 0.16685(19) 0.72812(12)
O1 O 0.3655(2) 0.88155(17) 0.60056(12)
O2 O 0.0725(2) 0.82273(19) 0.66643(14)
S1 S -0.00550(7) 0.25080(5) 0.87781(3)
Cl1 Cl 0.25707(6) 0.80255(6) 0.37674(3)
H9 H 0.303(4) 0.081(3) 0.707(2)
H10 H 0.148(4) -0.067(3) 0.956(2)
loop_
_geom_bond_atom_site_label_1
_geom_bond_atom_site_label_2
_geom_bond_site_symmetry_1
_geom_bond_site_symmetry_2
C1 N1 1_555 1_555
C2 C3 1_555 1_555
C3 H1 1_555 1_555
C4 C3 1_555 1_555
H2 C4 1_555 1_555
C5 C4 1_555 1_555
H3 C5 1_555 1_555
C6 C5 1_555 1_555
H4 C6 1_555 1_555
C7 C2 1_555 1_555
H5 C7 1_555 1_555
C8 C9 1_555 1_555
C9 C10 1_555 1_555
C10 H6 1_555 1_555
C11 C10 1_555 1_555
C12 C11 1_555 1_555
H7 C12 1_555 1_555
C13 C8 1_555 1_555
H8 C13 1_555 1_555
N1 C2 1_555 1_555
N2 C9 1_555 1_555
N3 C1 1_555 1_555
O1 N2 1_555 1_555
O2 N2 1_555 1_555
S1 C1 1_555 1_555
Cl1 C8 1_555 1_555
H9 N3 1_555 1_555
H10 N1 1_555 1_555
C6 C7 1_555 1_555
C11 N3 1_555 1_555
C12 C13 1_555 1_555

#END
