
#######################################################################
#
#                 Cambridge Crystallographic Data Centre
#                                CCDC 
#
#######################################################################
#
# If this CIF has been generated from an entry in the Cambridge 
# Structural Database, then it will include bibliographic, chemical, 
# crystal, experimental, refinement or atomic coordinate data resulting 
# from the CCDC's data processing and validation procedures.
#
#######################################################################

data_IKESOH
_chemical_formula_moiety         'C18 H19 N1'
_chemical_name_systematic        
N-(Diphenylethenylidene)-2-methylpropan-2-amine
_symmetry_cell_setting           monoclinic
_symmetry_space_group_name_H-M   'P 21/n'
_symmetry_Int_Tables_number      14
_space_group_name_Hall           '-P 2yn'
loop_
_symmetry_equiv_pos_site_id
_symmetry_equiv_pos_as_xyz
1 x,y,z
2 1/2-x,1/2+y,1/2-z
3 -x,-y,-z
4 1/2+x,1/2-y,1/2+z
_cell_length_a                   8.500(3)
_cell_length_b                   10.082(3)
_cell_length_c                   17.820(5)
_cell_angle_alpha                90
_cell_angle_beta                 94.548(5)
_cell_angle_gamma                90
_cell_volume                     1522.31
_exptl_crystal_colour            colorless
_exptl_crystal_description       block
_cell_formula_units_Z            4
loop_
_atom_site_label
_atom_site_type_symbol
_atom_site_fract_x
_atom_site_fract_y
_atom_site_fract_z
N1 N 0.7161(2) 0.82755(17) 0.18913(11)
C1 C 0.6323(2) 0.7771(3) -0.00251(13)
C2 C 0.6953(3) 0.8936(3) -0.02667(15)
H1 H 0.6860 0.9707 0.0013
C3 C 0.7722(3) 0.8972(3) -0.09193(19)
H2 H 0.8149 0.9766 -0.1075
C4 C 0.7860(3) 0.7860(4) -0.13345(17)
H3 H 0.8365 0.7893 -0.1778
C5 C 0.7261(3) 0.6701(3) -0.11022(19)
H4 H 0.7358 0.5935 -0.1386
C6 C 0.6504(3) 0.6651(3) -0.04433(17)
H5 H 0.6114 0.5846 -0.0283
C7 C 0.3846(3) 0.7379(2) 0.07107(15)
C8 C 0.3173(3) 0.7288(2) 0.13861(15)
H6 H 0.3801 0.7401 0.1833
C9 C 0.1587(4) 0.7031(3) 0.14116(19)
H7 H 0.1145 0.6992 0.1872
C10 C 0.0673(3) 0.6836(3) 0.0762(2)
H8 H -0.0393 0.6644 0.0781
C11 C 0.1295(3) 0.6918(3) 0.00853(19)
H9 H 0.0655 0.6791 -0.0357
C12 C 0.2893(3) 0.7191(2) 0.00543(15)
H10 H 0.3321 0.7247 -0.0409
C13 C 0.5535(3) 0.77302(19) 0.06862(13)
C14 C 0.6373(3) 0.80827(19) 0.13066(15)
C15 C 0.7392(3) 0.9613(2) 0.22470(15)
C16 C 0.6416(18) 0.9535(10) 0.2880(7)
H11 H 0.5323 0.9556 0.2698
H12 H 0.6645 1.0274 0.3210
H13 H 0.6637 0.8723 0.3149
C17 C 0.712(2) 1.0658(7) 0.1697(5)
H14 H 0.6015 1.0687 0.1531
H15 H 0.7720 1.0487 0.1275
H16 H 0.7431 1.1493 0.1921
C18 C 0.9136(8) 0.9555(10) 0.2566(9)
H17 H 0.9457 0.8645 0.2628
H18 H 0.9247 0.9995 0.3045
H19 H 0.9788 0.9987 0.2225
C19? C 0.7533(14) 0.9495(9) 0.3079(5)
C20? C 0.5962(9) 1.0511(8) 0.2036(6)
C21? C 0.8823(10) 1.0196(9) 0.1978(7)
H20? H 0.6498 0.9468 0.3259
H21? H 0.8099 1.0246 0.3294
H22? H 0.8091 0.8696 0.3223
H23? H 0.5046 0.9972 0.1913
H24? H 0.6169 1.1047 0.1610
H25? H 0.5777 1.1074 0.2455
H26? H 0.8548 1.0714 0.1535
H27? H 0.9536 0.9502 0.1860
H28? H 0.9322 1.0755 0.2363
loop_
_geom_bond_atom_site_label_1
_geom_bond_atom_site_label_2
_geom_bond_site_symmetry_1
_geom_bond_site_symmetry_2
N1 C14 1_555 1_555
C1 C2 1_555 1_555
C2 H1 1_555 1_555
C3 C2 1_555 1_555
H2 C3 1_555 1_555
C4 C3 1_555 1_555
H3 C4 1_555 1_555
C5 C4 1_555 1_555
H4 C5 1_555 1_555
C6 C1 1_555 1_555
H5 C6 1_555 1_555
C7 C8 1_555 1_555
C8 H6 1_555 1_555
C9 C8 1_555 1_555
H7 C9 1_555 1_555
C10 C9 1_555 1_555
H8 C10 1_555 1_555
C11 C10 1_555 1_555
H9 C11 1_555 1_555
C12 C7 1_555 1_555
H10 C12 1_555 1_555
C13 C1 1_555 1_555
C14 C13 1_555 1_555
C15 N1 1_555 1_555
C16 C15 1_555 1_555
H11 C16 1_555 1_555
H12 C16 1_555 1_555
H13 C16 1_555 1_555
C17 C15 1_555 1_555
H14 C17 1_555 1_555
H15 C17 1_555 1_555
H16 C17 1_555 1_555
C18 C15 1_555 1_555
H17 C18 1_555 1_555
H18 C18 1_555 1_555
H19 C18 1_555 1_555
C5 C6 1_555 1_555
C7 C13 1_555 1_555
C11 C12 1_555 1_555

#END
