
#######################################################################
#
#                 Cambridge Crystallographic Data Centre
#                                CCDC 
#
#######################################################################
#
# If this CIF has been generated from an entry in the Cambridge 
# Structural Database, then it will include bibliographic, chemical, 
# crystal, experimental, refinement or atomic coordinate data resulting 
# from the CCDC's data processing and validation procedures.
#
#######################################################################

data_IKICUA
_chemical_formula_moiety         'C26 H19 Cl1 N4 O2 S1,0.5(C4 H8 O2)'
_chemical_name_systematic        
"4'-(2-Chlorophenyl)-1'-methyl-2'',3''-dihydroindoline-3-spiro-3'-pyrrolidine-4'-spiro-2''-(1,3-benzimidazo(2,1-b)thiazole)-2,3''-dione dioxane solvate"
_symmetry_cell_setting           monoclinic
_symmetry_space_group_name_H-M   'P 21/c'
_symmetry_Int_Tables_number      14
_space_group_name_Hall           '-P 2ybc'
loop_
_symmetry_equiv_pos_site_id
_symmetry_equiv_pos_as_xyz
1 x,y,z
2 x,1/2-y,1/2+z
3 -x,-y,-z
4 -x,1/2+y,1/2-z
_cell_length_a                   10.085(3)
_cell_length_b                   29.272(9)
_cell_length_c                   8.561(3)
_cell_angle_alpha                90
_cell_angle_beta                 99.287(6)
_cell_angle_gamma                90
_cell_volume                     2494.15
_exptl_crystal_colour            colorless
_exptl_crystal_description       block
_chemical_melting_point          516-518K
_cell_formula_units_Z            4
loop_
_atom_site_label
_atom_site_type_symbol
_atom_site_fract_x
_atom_site_fract_y
_atom_site_fract_z
S1 S 1.01570(8) 0.39685(2) 0.34987(9)
Cl1 Cl 1.30898(10) 0.32301(4) 0.20570(14)
N1 N 1.1313(2) 0.46458(8) 0.1893(3)
N2 N 1.0369(2) 0.40382(7) 0.0521(3)
N3 N 0.8000(2) 0.28879(7) 0.1905(3)
N4 N 0.6542(2) 0.38362(8) 0.3273(3)
H1 H 0.6121 0.3967 0.3947
O1 O 0.9865(2) 0.33312(6) -0.0522(3)
O2 O 0.8068(2) 0.34352(7) 0.5018(2)
C1 C 1.0680(3) 0.42630(9) 0.1956(3)
C2 C 1.1430(3) 0.46887(9) 0.0279(4)
C3 C 1.1987(3) 0.50387(9) -0.0488(4)
H2 H 1.2386 0.5289 0.0070
C4 C 1.1934(3) 0.50051(10) -0.2097(4)
H3 H 1.2307 0.5237 -0.2630
C5 C 1.1342(3) 0.46354(10) -0.2948(4)
H4 H 1.1313 0.4628 -0.4039
C6 C 1.0791(3) 0.42766(10) -0.2212(4)
H5 H 1.0403 0.4025 -0.2773
C7 C 1.0853(3) 0.43153(9) -0.0604(3)
C8 C 0.9940(3) 0.35917(10) 0.0562(4)
C9 C 0.9609(3) 0.34780(9) 0.2211(3)
C10 C 0.8051(3) 0.33848(9) 0.2113(3)
C11 C 0.7090(3) 0.36394(9) 0.0873(3)
C12 C 0.6905(3) 0.36362(10) -0.0752(4)
H6 H 0.7456 0.3460 -0.1287
C13 C 0.5880(4) 0.39006(12) -0.1585(4)
H7 H 0.5759 0.3907 -0.2685
C14 C 0.5045(4) 0.41522(12) -0.0798(5)
H8 H 0.4362 0.4325 -0.1376
C15 C 0.5199(3) 0.41535(11) 0.0826(4)
H9 H 0.4628 0.4322 0.1357
C16 C 0.6226(3) 0.38978(9) 0.1635(4)
C17 C 0.7593(3) 0.35461(9) 0.3676(4)
C18 C 0.9113(3) 0.27005(9) 0.3026(4)
H10 H 0.9287 0.2385 0.2778
H11 H 0.8931 0.2718 0.4102
C19 C 1.0293(3) 0.30089(9) 0.2795(4)
H12 H 1.0677 0.2882 0.1907
C20 C 1.1425(3) 0.30421(9) 0.4177(4)
C21 C 1.2738(3) 0.31241(11) 0.3947(5)
C22 C 1.3798(4) 0.31379(13) 0.5190(6)
H13 H 1.4670 0.3183 0.4996
C23 C 1.3557(4) 0.30847(13) 0.6715(6)
H14 H 1.4267 0.3090 0.7556
C24 C 1.2267(4) 0.30243(11) 0.6994(5)
H15 H 1.2099 0.2997 0.8026
C25 C 1.1218(3) 0.30045(11) 0.5738(4)
H16 H 1.0347 0.2965 0.5944
C26 C 0.6711(3) 0.26742(10) 0.2007(4)
H17 H 0.6520 0.2704 0.3065
H18 H 0.6747 0.2356 0.1741
H19 H 0.6016 0.2821 0.1281
O3 O 0.5433(2) 0.45487(7) 0.4872(3)
C27 C 0.6258(3) 0.48761(11) 0.5810(4)
H20 H 0.7197 0.4806 0.5802
H21 H 0.6097 0.4861 0.6896
C28 C 0.4045(3) 0.46540(10) 0.4825(4)
H22 H 0.3822 0.4633 0.5882
H23 H 0.3500 0.4434 0.4159
C28B C 0.5955(3) 0.53460(10) 0.5175(4)
O3B O 0.4567(2) 0.54513(7) 0.5128(3)
C27B C 0.3742(3) 0.51239(11) 0.4190(4)
H20B H 0.2803 0.5194 0.4198
H21B H 0.3903 0.5139 0.3104
H22B H 0.6178 0.5367 0.4118
H23B H 0.6500 0.5566 0.5841
loop_
_geom_bond_atom_site_label_1
_geom_bond_atom_site_label_2
_geom_bond_site_symmetry_1
_geom_bond_site_symmetry_2
S1 C1 1_555 1_555
Cl1 C21 1_555 1_555
N1 C1 1_555 1_555
N2 C1 1_555 1_555
N3 C10 1_555 1_555
N4 H1 1_555 1_555
O1 C8 1_555 1_555
O2 C17 1_555 1_555
C2 N1 1_555 1_555
C3 C2 1_555 1_555
H2 C3 1_555 1_555
C4 C3 1_555 1_555
H3 C4 1_555 1_555
C5 C4 1_555 1_555
H4 C5 1_555 1_555
C6 C5 1_555 1_555
H5 C6 1_555 1_555
C7 N2 1_555 1_555
C8 N2 1_555 1_555
C9 S1 1_555 1_555
C10 C9 1_555 1_555
C11 C10 1_555 1_555
C12 C11 1_555 1_555
H6 C12 1_555 1_555
C13 C12 1_555 1_555
H7 C13 1_555 1_555
C14 C13 1_555 1_555
H8 C14 1_555 1_555
C15 C14 1_555 1_555
H9 C15 1_555 1_555
C16 N4 1_555 1_555
C17 N4 1_555 1_555
C18 N3 1_555 1_555
H10 C18 1_555 1_555
H11 C18 1_555 1_555
C19 C9 1_555 1_555
H12 C19 1_555 1_555
C20 C19 1_555 1_555
C21 C20 1_555 1_555
C22 C21 1_555 1_555
H13 C22 1_555 1_555
C23 C22 1_555 1_555
H14 C23 1_555 1_555
C24 C23 1_555 1_555
H15 C24 1_555 1_555
C25 C20 1_555 1_555
H16 C25 1_555 1_555
C26 N3 1_555 1_555
H17 C26 1_555 1_555
H18 C26 1_555 1_555
H19 C26 1_555 1_555
O3 C27 1_555 1_555
C27 H20 1_555 1_555
H21 C27 1_555 1_555
C28 O3 1_555 1_555
H22 C28 1_555 1_555
H23 C28 1_555 1_555
C28B C27 1_555 1_555
O3B C28B 1_555 1_555
C27B C28 1_555 1_555
H20B C27B 1_555 1_555
H21B C27B 1_555 1_555
H22B C28B 1_555 1_555
H23B C28B 1_555 1_555
C2 C7 1_555 1_555
C6 C7 1_555 1_555
C8 C9 1_555 1_555
C10 C17 1_555 1_555
C11 C16 1_555 1_555
C15 C16 1_555 1_555
C18 C19 1_555 1_555
C24 C25 1_555 1_555
O3B C27B 1_555 1_555

#END
