
#######################################################################
#
#                 Cambridge Crystallographic Data Centre
#                                CCDC 
#
#######################################################################
#
# If this CIF has been generated from an entry in the Cambridge 
# Structural Database, then it will include bibliographic, chemical, 
# crystal, experimental, refinement or atomic coordinate data resulting 
# from the CCDC's data processing and validation procedures.
#
#######################################################################

data_IKIGEQ
_chemical_formula_moiety         'C24 H59 Ca2 N8 1-,C18 H15 Si1 1+'
_chemical_name_systematic        
'Triphenylsilylium tris(\m~2~-hydrido)-bis(1,4,7,10-tetramethyl-1,4,7,10-tetra-azacyclododecane)-di-calcium'
_symmetry_cell_setting           triclinic
_symmetry_space_group_name_H-M   'P -1'
_symmetry_Int_Tables_number      2
_space_group_name_Hall           '-P 1'
loop_
_symmetry_equiv_pos_site_id
_symmetry_equiv_pos_as_xyz
1 x,y,z
2 -x,-y,-z
_cell_length_a                   11.661(5)
_cell_length_b                   13.015(5)
_cell_length_c                   15.901(8)
_cell_angle_alpha                90.004(9)
_cell_angle_beta                 106.158(9)
_cell_angle_gamma                90.936(10)
_cell_volume                     2317.6
_exptl_crystal_colour            red
_exptl_crystal_description       needle
_cell_formula_units_Z            2
_chemical_properties_physical    
'Air-sensitive, Moisture-sensitive, Hygroscopic'
_exptl_crystal_recrystallization_method tetrahydrofuran/pentane
loop_
_atom_site_label
_atom_site_type_symbol
_atom_site_fract_x
_atom_site_fract_y
_atom_site_fract_z
Ca1 Ca -0.05040(15) 0.25519(11) 0.23065(10)
Ca2 Ca 0.16075(14) 0.25879(11) 0.41242(10)
H1 H -0.011(8) 0.353(6) 0.360(5)
H2 H 0.009(5) 0.151(4) 0.349(4)
N1 N -0.2037(7) 0.3987(5) 0.1659(4)
N2 N -0.2589(6) 0.1971(5) 0.2395(5)
N3 N -0.1108(6) 0.0896(4) 0.1375(4)
N4 N -0.0613(6) 0.2908(4) 0.0630(4)
N5 N 0.2470(6) 0.0899(4) 0.4886(4)
N6 N 0.3986(6) 0.2622(4) 0.4494(4)
N7 N 0.2534(6) 0.4129(4) 0.5156(4)
N8 N 0.1022(6) 0.2432(4) 0.5573(4)
C1 C -0.3124(8) 0.3723(6) 0.1977(7)
H3 H -0.2939 0.3906 0.2606
H4 H -0.3796 0.4154 0.1657
C2 C -0.3512(8) 0.2649(7) 0.1871(6)
H5 H -0.3694 0.2454 0.1245
H6 H -0.4253 0.2561 0.2054
C3 C -0.2757(9) 0.0877(6) 0.2099(6)
H7 H -0.2281 0.0439 0.2573
H8 H -0.3608 0.0679 0.1998
C4 C -0.2403(8) 0.0671(6) 0.1286(6)
H9 H -0.2894 0.1095 0.0807
H10 H -0.2578 -0.0059 0.1119
C5 C -0.0943(9) 0.1028(6) 0.0494(6)
H11 H -0.0096 0.0905 0.0529
H12 H -0.1430 0.0497 0.0101
C6 C -0.1268(10) 0.2045(6) 0.0100(6)
H13 H -0.1114 0.2061 -0.0481
H14 H -0.2134 0.2140 0.0009
C7 C -0.1288(8) 0.3880(7) 0.0353(6)
H15 H -0.1553 0.3906 -0.0295
H16 H -0.0746 0.4476 0.0563
C8 C -0.2366(9) 0.3967(6) 0.0700(6)
H17 H -0.2795 0.4604 0.0472
H18 H -0.2916 0.3377 0.0483
C9 C -0.1583(8) 0.4998(5) 0.2003(5)
H19 H -0.0897 0.5190 0.1791
H20 H -0.1335 0.4978 0.2644
H21 H -0.2212 0.5505 0.1805
C10 C -0.2621(8) 0.1979(6) 0.3303(5)
H22 H -0.2541 0.2688 0.3522
H23 H -0.1961 0.1573 0.3657
H24 H -0.3382 0.1681 0.3342
C11 C -0.0369(9) 0.0043(6) 0.1807(6)
H25 H -0.0662 -0.0599 0.1492
H26 H -0.0411 -0.0014 0.2413
H27 H 0.0461 0.0170 0.1805
C12 C 0.0585(8) 0.3060(7) 0.0546(6)
H28 H 0.1026 0.2419 0.0685
H29 H 0.0997 0.3602 0.0952
H30 H 0.0542 0.3263 -0.0056
C13 C 0.3759(8) 0.1021(6) 0.5284(7)
H31 H 0.3892 0.1396 0.5846
H32 H 0.4108 0.0332 0.5418
C14 C 0.4388(8) 0.1565(7) 0.4746(6)
H33 H 0.4306 0.1169 0.4215
H34 H 0.5231 0.1594 0.5059
C15 C 0.4489(8) 0.3310(6) 0.5247(6)
H35 H 0.5327 0.3484 0.5272
H36 H 0.4493 0.2942 0.5793
C16 C 0.3819(8) 0.4272(6) 0.5209(6)
H37 H 0.3884 0.4669 0.4692
H38 H 0.4203 0.4688 0.5736
C17 C 0.2475(9) 0.3892(6) 0.6057(6)
H39 H 0.3124 0.3416 0.6333
H40 H 0.2611 0.4535 0.6407
C18 C 0.1325(8) 0.3428(7) 0.6079(6)
H41 H 0.0685 0.3924 0.5836
H42 H 0.1344 0.3300 0.6696
C19 C 0.1668(8) 0.1579(6) 0.6088(6)
H43 H 0.2462 0.1833 0.6438
H44 H 0.1225 0.1339 0.6502
C20 C 0.1828(10) 0.0710(6) 0.5554(6)
H45 H 0.1028 0.0423 0.5252
H46 H 0.2260 0.0172 0.5954
C21 C 0.2189(8) 0.0046(5) 0.4266(6)
H47 H 0.2575 0.0165 0.3800
H48 H 0.1322 -0.0008 0.4011
H49 H 0.2480 -0.0594 0.4571
C22 C 0.4380(8) 0.2911(6) 0.3733(5)
H50 H 0.4044 0.3577 0.3514
H51 H 0.4108 0.2389 0.3274
H52 H 0.5254 0.2962 0.3900
C23 C 0.1927(8) 0.5085(5) 0.4834(6)
H53 H 0.2273 0.5646 0.5241
H54 H 0.1075 0.5008 0.4790
H55 H 0.2027 0.5242 0.4256
C24 C -0.0269(7) 0.2251(6) 0.5395(5)
H56 H -0.0485 0.1585 0.5101
H57 H -0.0698 0.2796 0.5016
H58 H -0.0487 0.2250 0.5947
H59 H 0.163(5) 0.270(4) 0.255(4)
Si1 Si 0.4983(2) 0.77043(16) 0.23305(15)
C25 C 0.3676(8) 0.6799(6) 0.2212(5)
C26 C 0.3790(8) 0.5726(6) 0.2220(5)
H60 H 0.4543 0.5467 0.2212
C27 C 0.2922(10) 0.5026(7) 0.2239(5)
H61 H 0.3069 0.4314 0.2205
C28 C 0.1817(10) 0.5347(7) 0.2309(6)
H62 H 0.1228 0.4878 0.2356
C29 C 0.1626(9) 0.6405(7) 0.2310(6)
H63 H 0.0873 0.6653 0.2332
C30 C 0.2535(9) 0.7088(7) 0.2280(6)
H64 H 0.2385 0.7801 0.2306
C31 C 0.5654(8) 0.7285(6) 0.1413(5)
C32 C 0.5172(7) 0.6568(6) 0.0764(5)
H65 H 0.4445 0.6227 0.0761
C33 C 0.5726(8) 0.6327(6) 0.0105(5)
H66 H 0.5361 0.5840 -0.0338
C34 C 0.6763(9) 0.6781(6) 0.0104(5)
H67 H 0.7142 0.6604 -0.0332
C35 C 0.7289(9) 0.7515(6) 0.0742(5)
H68 H 0.8016 0.7852 0.0737
C36 C 0.6734(8) 0.7741(6) 0.1380(5)
H69 H 0.7098 0.8219 0.1810
C37 C 0.4272(7) 0.8978(5) 0.1887(5)
C38 C 0.4339(7) 0.9437(6) 0.1108(5)
H70 H 0.4690 0.9062 0.0734
C39 C 0.3918(7) 1.0418(6) 0.0851(5)
H71 H 0.4018 1.0717 0.0331
C40 C 0.3344(8) 1.0952(6) 0.1379(6)
H72 H 0.3027 1.1612 0.1208
C41 C 0.3240(8) 1.0530(6) 0.2127(6)
H73 H 0.2858 1.0898 0.2486
C42 C 0.3694(8) 0.9551(6) 0.2380(5)
H74 H 0.3603 0.9268 0.2909
loop_
_geom_bond_atom_site_label_1
_geom_bond_atom_site_label_2
_geom_bond_site_symmetry_1
_geom_bond_site_symmetry_2
Ca1 H1 1_555 1_555
Ca2 H1 1_555 1_555
H2 Ca1 1_555 1_555
N1 Ca1 1_555 1_555
N2 Ca1 1_555 1_555
N3 Ca1 1_555 1_555
N4 Ca1 1_555 1_555
N5 Ca2 1_555 1_555
N6 Ca2 1_555 1_555
N7 Ca2 1_555 1_555
N8 Ca2 1_555 1_555
C1 N1 1_555 1_555
H3 C1 1_555 1_555
H4 C1 1_555 1_555
C2 N2 1_555 1_555
H5 C2 1_555 1_555
H6 C2 1_555 1_555
C3 N2 1_555 1_555
H7 C3 1_555 1_555
H8 C3 1_555 1_555
C4 N3 1_555 1_555
H9 C4 1_555 1_555
H10 C4 1_555 1_555
C5 N3 1_555 1_555
H11 C5 1_555 1_555
H12 C5 1_555 1_555
C6 N4 1_555 1_555
H13 C6 1_555 1_555
H14 C6 1_555 1_555
C7 N4 1_555 1_555
H15 C7 1_555 1_555
H16 C7 1_555 1_555
C8 N1 1_555 1_555
H17 C8 1_555 1_555
H18 C8 1_555 1_555
C9 N1 1_555 1_555
H19 C9 1_555 1_555
H20 C9 1_555 1_555
H21 C9 1_555 1_555
C10 N2 1_555 1_555
H22 C10 1_555 1_555
H23 C10 1_555 1_555
H24 C10 1_555 1_555
C11 N3 1_555 1_555
H25 C11 1_555 1_555
H26 C11 1_555 1_555
H27 C11 1_555 1_555
C12 N4 1_555 1_555
H28 C12 1_555 1_555
H29 C12 1_555 1_555
H30 C12 1_555 1_555
C13 N5 1_555 1_555
H31 C13 1_555 1_555
H32 C13 1_555 1_555
C14 N6 1_555 1_555
H33 C14 1_555 1_555
H34 C14 1_555 1_555
C15 N6 1_555 1_555
H35 C15 1_555 1_555
H36 C15 1_555 1_555
C16 N7 1_555 1_555
H37 C16 1_555 1_555
H38 C16 1_555 1_555
C17 N7 1_555 1_555
H39 C17 1_555 1_555
H40 C17 1_555 1_555
C18 N8 1_555 1_555
H41 C18 1_555 1_555
H42 C18 1_555 1_555
C19 N8 1_555 1_555
H43 C19 1_555 1_555
H44 C19 1_555 1_555
C20 N5 1_555 1_555
H45 C20 1_555 1_555
H46 C20 1_555 1_555
C21 N5 1_555 1_555
H47 C21 1_555 1_555
H48 C21 1_555 1_555
H49 C21 1_555 1_555
C22 N6 1_555 1_555
H50 C22 1_555 1_555
H51 C22 1_555 1_555
H52 C22 1_555 1_555
C23 N7 1_555 1_555
H53 C23 1_555 1_555
H54 C23 1_555 1_555
H55 C23 1_555 1_555
C24 N8 1_555 1_555
H56 C24 1_555 1_555
H57 C24 1_555 1_555
H58 C24 1_555 1_555
H59 Ca1 1_555 1_555
Si1 C25 1_555 1_555
C25 C26 1_555 1_555
C26 H60 1_555 1_555
C27 C26 1_555 1_555
H61 C27 1_555 1_555
C28 C27 1_555 1_555
H62 C28 1_555 1_555
C29 C28 1_555 1_555
H63 C29 1_555 1_555
C30 C25 1_555 1_555
H64 C30 1_555 1_555
C31 Si1 1_555 1_555
C32 C31 1_555 1_555
H65 C32 1_555 1_555
C33 C32 1_555 1_555
H66 C33 1_555 1_555
C34 C33 1_555 1_555
H67 C34 1_555 1_555
C35 C34 1_555 1_555
H68 C35 1_555 1_555
C36 C31 1_555 1_555
H69 C36 1_555 1_555
C37 Si1 1_555 1_555
C38 C37 1_555 1_555
H70 C38 1_555 1_555
C39 C38 1_555 1_555
H71 C39 1_555 1_555
C40 C39 1_555 1_555
H72 C40 1_555 1_555
C41 C40 1_555 1_555
H73 C41 1_555 1_555
C42 C37 1_555 1_555
H74 C42 1_555 1_555
Ca2 H2 1_555 1_555
Ca2 H59 1_555 1_555
C1 C2 1_555 1_555
C3 C4 1_555 1_555
C5 C6 1_555 1_555
C7 C8 1_555 1_555
C13 C14 1_555 1_555
C15 C16 1_555 1_555
C17 C18 1_555 1_555
C19 C20 1_555 1_555
C29 C30 1_555 1_555
C35 C36 1_555 1_555
C41 C42 1_555 1_555

#END
