
#######################################################################
#
#                 Cambridge Crystallographic Data Centre
#                                CCDC 
#
#######################################################################
#
# If this CIF has been generated from an entry in the Cambridge 
# Structural Database, then it will include bibliographic, chemical, 
# crystal, experimental, refinement or atomic coordinate data resulting 
# from the CCDC's data processing and validation procedures.
#
#######################################################################

data_IKIQID
_chemical_formula_moiety         'C17 H29 B9 N1 P1,C3 H6 O1'
_chemical_name_systematic        
'7-(Dimethylammoniomethyl)-8-(diphenylphosphino)-9,10-\mH-7,8-dicarba-nido-undecaborate acetone solvate'
_symmetry_cell_setting           monoclinic
_symmetry_space_group_name_H-M   'P 21/c'
_symmetry_Int_Tables_number      14
_space_group_name_Hall           '-P 2ybc'
loop_
_symmetry_equiv_pos_site_id
_symmetry_equiv_pos_as_xyz
1 x,y,z
2 -x,1/2+y,1/2-z
3 -x,-y,-z
4 x,1/2-y,1/2+z
_cell_length_a                   13.6124(7)
_cell_length_b                   9.9827(7)
_cell_length_c                   20.0539(8)
_cell_angle_alpha                90
_cell_angle_beta                 104.129(4)
_cell_angle_gamma                90
_cell_volume                     2642.66
_exptl_crystal_colour            colorless
_exptl_crystal_description       block
_cell_formula_units_Z            4
loop_
_atom_site_label
_atom_site_type_symbol
_atom_site_fract_x
_atom_site_fract_y
_atom_site_fract_z
P1 P 0.67222(10) 0.74512(16) 0.19530(7)
N1 N 0.8655(3) 0.8019(5) 0.3318(2)
H1 H 0.8111 0.8532 0.3118
C1 C 0.7751(4) 0.8005(5) 0.1568(2)
C2 C 0.8856(4) 0.7880(5) 0.2065(2)
C3 C 0.8959(4) 0.7206(5) 0.2758(2)
H2 H 0.9661 0.6937 0.2929
H3 H 0.8554 0.6396 0.2686
C4 C 0.5643(4) 0.8465(6) 0.1518(3)
C5 C 0.5128(4) 0.8328(7) 0.0841(3)
H4 H 0.5312 0.7650 0.0577
C6 C 0.4349(5) 0.9173(8) 0.0547(4)
H5 H 0.4006 0.9061 0.0089
C7 C 0.4072(5) 1.0194(8) 0.0931(4)
H6 H 0.3555 1.0783 0.0729
C8 C 0.4565(5) 1.0332(7) 0.1611(4)
H7 H 0.4375 1.1008 0.1874
C9 C 0.5341(4) 0.9470(7) 0.1907(3)
H8 H 0.5666 0.9561 0.2369
C10 C 0.6440(5) 0.5752(6) 0.1600(3)
C11 C 0.5457(5) 0.5265(7) 0.1465(4)
H9 H 0.4928 0.5818 0.1513
C12 C 0.5272(7) 0.3950(9) 0.1260(5)
H10 H 0.4610 0.3631 0.1155
C13 C 0.6045(7) 0.3102(9) 0.1209(5)
H11 H 0.5911 0.2213 0.1079
C14 C 0.7011(7) 0.3581(8) 0.1351(4)
H12 H 0.7541 0.3015 0.1319
C15 C 0.7208(5) 0.4897(7) 0.1541(4)
H13 H 0.7870 0.5214 0.1630
C16 C 0.8344(5) 0.7073(7) 0.3811(3)
H14 H 0.8139 0.7576 0.4162
H15 H 0.8906 0.6507 0.4018
H16 H 0.7789 0.6532 0.3568
C17 C 0.9480(5) 0.8917(7) 0.3684(3)
H17 H 0.9663 0.9518 0.3361
H18 H 1.0058 0.8390 0.3905
H19 H 0.9251 0.9423 0.4025
B1 B 0.8330(4) 0.9447(6) 0.1921(3)
H20 H 0.8078 1.0074 0.2299
B2 B 0.9724(4) 0.7506(8) 0.1666(3)
H21 H 1.0155 0.6592 0.1853
B3 B 0.9634(5) 0.9171(6) 0.1967(3)
H22 H 1.0231 0.9639 0.2369
B4 B 0.9109(5) 0.7435(8) 0.0756(3)
H23 H 0.9274 0.6547 0.0477
H24 H 0.8589 0.6806 0.1027
B5 B 0.7767(5) 0.7711(7) 0.0759(3)
H25 H 0.7255 0.6908 0.0508
B6 B 0.7664(5) 0.9382(6) 0.1051(3)
H26 H 0.6985 0.9998 0.0858
B7 B 0.8881(5) 1.0103(7) 0.1277(3)
H27 H 0.8998 1.1183 0.1219
B8 B 0.8519(5) 0.9008(7) 0.0547(3)
H28 H 0.8389 0.9376 0.0015
B9 B 0.9762(5) 0.8892(7) 0.1131(4)
H29 H 1.0463 0.9191 0.0990
O1 O 0.7319(4) 1.0076(7) 0.3595(3)
C18 C 0.7421(6) 1.1240(11) 0.3778(5)
C19 C 0.7206(7) 1.2360(11) 0.3287(6)
H30 H 0.6980 1.2015 0.2828
H31 H 0.7811 1.2879 0.3323
H32 H 0.6688 1.2918 0.3390
C20 C 0.786(3) 1.183(5) 0.443(3)
H33 H 0.8019 1.1140 0.4772
H34 H 0.7389 1.2448 0.4545
H35 H 0.8468 1.2294 0.4406
C21? C 0.763(7) 1.129(8) 0.461(2)
H36? H 0.7738 1.0398 0.4788
H37? H 0.7050 1.1674 0.4731
H38? H 0.8215 1.1828 0.4791
loop_
_geom_bond_atom_site_label_1
_geom_bond_atom_site_label_2
_geom_bond_site_symmetry_1
_geom_bond_site_symmetry_2
P1 C1 1_555 1_555
N1 H1 1_555 1_555
C1 C2 1_555 1_555
C2 C3 1_555 1_555
C3 N1 1_555 1_555
H2 C3 1_555 1_555
H3 C3 1_555 1_555
C4 P1 1_555 1_555
C5 C4 1_555 1_555
H4 C5 1_555 1_555
C6 C5 1_555 1_555
H5 C6 1_555 1_555
C7 C6 1_555 1_555
H6 C7 1_555 1_555
C8 C7 1_555 1_555
H7 C8 1_555 1_555
C9 C4 1_555 1_555
H8 C9 1_555 1_555
C10 P1 1_555 1_555
C11 C10 1_555 1_555
H9 C11 1_555 1_555
C12 C11 1_555 1_555
H10 C12 1_555 1_555
C13 C12 1_555 1_555
H11 C13 1_555 1_555
C14 C13 1_555 1_555
H12 C14 1_555 1_555
C15 C10 1_555 1_555
H13 C15 1_555 1_555
C16 N1 1_555 1_555
H14 C16 1_555 1_555
H15 C16 1_555 1_555
H16 C16 1_555 1_555
C17 N1 1_555 1_555
H17 C17 1_555 1_555
H18 C17 1_555 1_555
H19 C17 1_555 1_555
B1 C1 1_555 1_555
H20 B1 1_555 1_555
B2 C2 1_555 1_555
H21 B2 1_555 1_555
B3 C2 1_555 1_555
H22 B3 1_555 1_555
B4 B2 1_555 1_555
H23 B4 1_555 1_555
H24 B4 1_555 1_555
B5 C1 1_555 1_555
H25 B5 1_555 1_555
B6 C1 1_555 1_555
H26 B6 1_555 1_555
B7 B1 1_555 1_555
H27 B7 1_555 1_555
B8 B4 1_555 1_555
H28 B8 1_555 1_555
B9 B2 1_555 1_555
H29 B9 1_555 1_555
O1 C18 1_555 1_555
C18 C19 1_555 1_555
C19 H30 1_555 1_555
H31 C19 1_555 1_555
H32 C19 1_555 1_555
C20 C18 1_555 1_555
H33 C20 1_555 1_555
H34 C20 1_555 1_555
H35 C20 1_555 1_555
C2 B1 1_555 1_555
C8 C9 1_555 1_555
C14 C15 1_555 1_555
B1 B3 1_555 1_555
B1 B6 1_555 1_555
B2 B3 1_555 1_555
B3 B7 1_555 1_555
B3 B9 1_555 1_555
B4 B5 1_555 1_555
B4 B9 1_555 1_555
H24 B5 1_555 1_555
B5 B6 1_555 1_555
B5 B8 1_555 1_555
B6 B7 1_555 1_555
B6 B8 1_555 1_555
B7 B8 1_555 1_555
B7 B9 1_555 1_555
B8 B9 1_555 1_555

#END
