
#######################################################################
#
#                 Cambridge Crystallographic Data Centre
#                                CCDC 
#
#######################################################################
#
# If this CIF has been generated from an entry in the Cambridge 
# Structural Database, then it will include bibliographic, chemical, 
# crystal, experimental, refinement or atomic coordinate data resulting 
# from the CCDC's data processing and validation procedures.
#
#######################################################################

data_IKOHAT
_chemical_formula_moiety         'C24 H21 Br1 N2 O5 S1'
_chemical_name_systematic        
2-(4-bromo-3-nitrophenyl)-3-((4-methylphenyl)sulfonyl)-4-phenyl-4-vinyl-1,3-oxazolidine
_symmetry_cell_setting           monoclinic
_symmetry_space_group_name_H-M   'P 21'
_symmetry_Int_Tables_number      4
_space_group_name_Hall           'P 2yb'
loop_
_symmetry_equiv_pos_site_id
_symmetry_equiv_pos_as_xyz
1 x,y,z
2 -x,1/2+y,-z
_cell_length_a                   7.4253(4)
_cell_length_b                   15.9250(8)
_cell_length_c                   9.6504(5)
_cell_angle_alpha                90
_cell_angle_beta                 91.2980(10)
_cell_angle_gamma                90
_cell_volume                     1140.85
_exptl_crystal_colour            colorless
_exptl_crystal_description       plate
_cell_formula_units_Z            2
loop_
_atom_site_label
_atom_site_type_symbol
_atom_site_fract_x
_atom_site_fract_y
_atom_site_fract_z
Br1 Br -0.33986(4) -0.99797(2) -0.98555(3)
S1 S -0.47100(7) -0.74238(4) -0.43993(6)
C1 C -0.5232(3) -0.74940(16) -0.6198(2)
C2 C -0.1331(3) -0.82935(15) -0.6897(2)
H1 H -0.0738 -0.7765 -0.6883
C3 C -0.2670(3) -0.94481(15) -0.5703(3)
H2 H -0.2967 -0.9720 -0.4862
C4 C -0.3098(4) -0.98281(15) -0.6964(3)
H3 H -0.3717 -1.0350 -0.6982
C5 C -0.6249(3) -0.81619(15) -0.6691(3)
H4 H -0.6689 -0.8575 -0.6074
C6 C -0.1814(3) -0.86754(15) -0.5661(3)
C7 C -0.4607(4) -0.68753(15) -0.7085(3)
H5 H -0.3932 -0.6413 -0.6733
C8 C -0.2627(4) -0.94486(16) -0.8195(3)
C9 C -0.4989(4) -0.69473(16) -0.8494(3)
H6 H -0.4571 -0.6526 -0.9105
C10 C -0.1718(3) -0.86884(15) -0.8142(3)
C11 C -0.5969(4) -0.76209(17) -0.9032(3)
C12 C -0.6616(4) -0.82189(17) -0.8109(3)
H7 H -0.7320 -0.8674 -0.8456
C13 C -0.6276(5) -0.7718(2) -1.0572(3)
H8 H -0.6537 -0.7168 -1.0985
H9 H -0.7298 -0.8096 -1.0748
H10 H -0.5194 -0.7954 -1.0985
N1 N -0.2533(2) -0.74113(13) -0.42296(19)
O1 O -0.1026(3) -0.74816(12) -0.9361(2)
O2 O 0.0308(2) -0.79312(11) -0.42271(18)
C14 C -0.1029(3) -0.60864(14) -0.4879(2)
N2 N -0.1105(3) -0.82423(15) -0.9395(2)
C15 C -0.1960(4) -0.48860(18) -0.6267(3)
H11 H -0.2731 -0.4416 -0.6408
C16 C 0.0295(3) -0.72368(16) -0.3279(2)
H12 H 0.1412 -0.6902 -0.3352
H13 H 0.0197 -0.7438 -0.2313
C17 C -0.1485(3) -0.82116(15) -0.4314(3)
H14 H -0.1755 -0.8583 -0.3510
O3 O -0.0640(4) -0.86703(15) -1.0382(2)
C18 C -0.1365(3) -0.67060(15) -0.3702(2)
C19 C -0.2045(4) -0.63213(18) -0.2373(3)
H15 H -0.2843 -0.6648 -0.1838
C20 C -0.2159(4) -0.53973(15) -0.5115(3)
H16 H -0.3079 -0.5276 -0.4477
C21 C -0.0628(4) -0.50644(17) -0.7213(3)
H17 H -0.0500 -0.4721 -0.8010
C22 C 0.0323(3) -0.62451(15) -0.5832(2)
H18 H 0.1124 -0.6703 -0.5681
C23 C 0.0509(4) -0.57404(16) -0.6994(3)
H19 H 0.1420 -0.5861 -0.7641
O4 O -0.5351(3) -0.81817(11) -0.37812(18)
O5 O -0.5332(3) -0.66251(11) -0.39174(18)
C24 C -0.1609(4) -0.5562(2) -0.1902(3)
H20 H -0.0815 -0.5216 -0.2408
H21 H -0.2092 -0.5365 -0.1058
loop_
_geom_bond_atom_site_label_1
_geom_bond_atom_site_label_2
_geom_bond_site_symmetry_1
_geom_bond_site_symmetry_2
Br1 C8 1_555 1_555
S1 C1 1_555 1_555
C1 C5 1_555 1_555
C2 H1 1_555 1_555
C3 H2 1_555 1_555
C4 C3 1_555 1_555
H3 C4 1_555 1_555
C5 H4 1_555 1_555
C6 C2 1_555 1_555
C7 C1 1_555 1_555
H5 C7 1_555 1_555
C8 C4 1_555 1_555
C9 C7 1_555 1_555
H6 C9 1_555 1_555
C10 C2 1_555 1_555
C11 C9 1_555 1_555
C12 C5 1_555 1_555
H7 C12 1_555 1_555
C13 C11 1_555 1_555
H8 C13 1_555 1_555
H9 C13 1_555 1_555
H10 C13 1_555 1_555
N1 S1 1_555 1_555
O1 N2 1_555 1_555
O2 C16 1_555 1_555
C14 C18 1_555 1_555
N2 C10 1_555 1_555
C15 H11 1_555 1_555
C16 H12 1_555 1_555
H13 C16 1_555 1_555
C17 C6 1_555 1_555
H14 C17 1_555 1_555
O3 N2 1_555 1_555
C18 N1 1_555 1_555
C19 C18 1_555 1_555
H15 C19 1_555 1_555
C20 C14 1_555 1_555
H16 C20 1_555 1_555
C21 C15 1_555 1_555
H17 C21 1_555 1_555
C22 C14 1_555 1_555
H18 C22 1_555 1_555
C23 C21 1_555 1_555
H19 C23 1_555 1_555
O4 S1 1_555 1_555
O5 S1 1_555 1_555
C24 C19 1_555 1_555
H20 C24 1_555 1_555
H21 C24 1_555 1_555
C3 C6 1_555 1_555
C8 C10 1_555 1_555
C11 C12 1_555 1_555
N1 C17 1_555 1_555
O2 C17 1_555 1_555
C15 C20 1_555 1_555
C16 C18 1_555 1_555
C22 C23 1_555 1_555

#END
