
#######################################################################
#
#                 Cambridge Crystallographic Data Centre
#                                CCDC 
#
#######################################################################
#
# If this CIF has been generated from an entry in the Cambridge 
# Structural Database, then it will include bibliographic, chemical, 
# crystal, experimental, refinement or atomic coordinate data resulting 
# from the CCDC's data processing and validation procedures.
#
#######################################################################

data_IKOJID
_chemical_formula_moiety         'C32 H27 N1 O4'
_chemical_name_systematic        
'dimethyl 14-methyl-9-phenyl-8-(phenylethynyl)-14-azatetracyclo[9.2.1.0^2,10^.0^3,7^]tetradeca-2,7,9,12-tetraene-5,5-dicarboxylate'
_symmetry_cell_setting           monoclinic
_symmetry_space_group_name_H-M   'P 21/c'
_symmetry_Int_Tables_number      14
_space_group_name_Hall           '-P 2ybc'
loop_
_symmetry_equiv_pos_site_id
_symmetry_equiv_pos_as_xyz
1 x,y,z
2 -x,1/2+y,1/2-z
3 -x,-y,-z
4 x,1/2-y,1/2+z
_cell_length_a                   11.9954(12)
_cell_length_b                   10.5118(11)
_cell_length_c                   20.507(2)
_cell_angle_alpha                90
_cell_angle_beta                 94.182(4)
_cell_angle_gamma                90
_cell_volume                     2578.91
_exptl_crystal_colour            colorless
_exptl_crystal_description       block
_cell_formula_units_Z            4
loop_
_atom_site_label
_atom_site_type_symbol
_atom_site_fract_x
_atom_site_fract_y
_atom_site_fract_z
C1 C -0.0496(2) 0.0755(3) 0.17457(14)
C2 C -0.1165(4) 0.1488(5) 0.21100(19)
H1 H -0.1229 0.2356 0.2028
C3 C -0.1745(4) 0.0946(6) 0.2599(2)
H2 H -0.2192 0.1454 0.2845
C4 C -0.1668(5) -0.0306(5) 0.2722(2)
H3 H -0.2067 -0.0666 0.3047
C5 C -0.1015(6) -0.1036(5) 0.2375(3)
H4 H -0.0964 -0.1903 0.2463
C6 C -0.0416(4) -0.0526(4) 0.1886(2)
H5 H 0.0040 -0.1046 0.1653
C7 C 0.0101(2) 0.1297(3) 0.12306(15)
C8 C 0.0575(2) 0.1752(3) 0.07895(15)
C9 C 0.1234(2) 0.2296(3) 0.03043(14)
C10 C 0.0743(2) 0.2862(3) -0.02779(13)
C11 C 0.1474(2) 0.3426(3) -0.06889(13)
C12 C 0.2626(2) 0.3462(3) -0.05427(14)
C13 C 0.3096(2) 0.2908(3) 0.00154(15)
C14 C 0.4292(3) 0.2850(4) 0.02817(18)
H6 H 0.4599 0.3699 0.0342
H7 H 0.4740 0.2383 -0.0013
C15 C 0.4274(2) 0.2147(3) 0.09528(16)
C16 C 0.3018(2) 0.1819(4) 0.10387(17)
H8 H 0.2916 0.0907 0.1074
H9 H 0.2768 0.2223 0.1428
C17 C 0.2387(2) 0.2325(3) 0.04376(14)
C18 C -0.0482(2) 0.2901(3) -0.04311(13)
C19 C -0.1025(3) 0.4044(4) -0.05799(15)
H10 H -0.0607 0.4788 -0.0585
C20 C -0.2166(3) 0.4104(5) -0.07199(17)
H11 H -0.2509 0.4883 -0.0814
C21 C -0.2791(3) 0.3024(6) -0.07201(18)
H12 H -0.3560 0.3061 -0.0817
C22 C -0.2277(3) 0.1873(5) -0.0575(2)
H13 H -0.2704 0.1135 -0.0577
C23 C -0.1129(3) 0.1804(4) -0.04276(17)
H14 H -0.0794 0.1023 -0.0327
C24 C 0.1280(2) 0.4166(3) -0.13275(14)
H15 H 0.0568 0.4021 -0.1582
C25 C 0.1558(3) 0.5554(4) -0.11301(16)
H16 H 0.1056 0.6226 -0.1116
C26 C 0.2630(3) 0.5598(3) -0.09874(16)
H17 H 0.3044 0.6308 -0.0847
C27 C 0.3084(2) 0.4250(3) -0.10944(15)
H18 H 0.3886 0.4175 -0.1150
C28 C 0.4985(2) 0.0959(3) 0.09414(16)
C29 C 0.6819(3) 0.0194(5) 0.0868(2)
H19 H 0.6879 -0.0260 0.1276
H20 H 0.7541 0.0514 0.0777
H21 H 0.6549 -0.0370 0.0524
C30 C 0.4660(3) 0.2994(4) 0.1527(2)
C31 C 0.5152(6) 0.3011(7) 0.2664(3)
H22 H 0.5863 0.3423 0.2646
H23 H 0.5183 0.2430 0.3026
H24 H 0.4585 0.3638 0.2719
C32 C 0.2454(3) 0.4373(5) -0.22703(16)
H25 H 0.2376 0.5278 -0.2228
H26 H 0.1894 0.4060 -0.2589
H27 H 0.3183 0.4178 -0.2408
N1 N 0.2312(2) 0.3763(3) -0.16335(13)
O1 O 0.4646(2) -0.0107(3) 0.09362(17)
O2 O 0.60464(16) 0.1247(2) 0.09119(12)
O3 O 0.4690(3) 0.4134(3) 0.15028(18)
O4 O 0.4887(3) 0.2314(3) 0.20594(14)
loop_
_geom_bond_atom_site_label_1
_geom_bond_atom_site_label_2
_geom_bond_site_symmetry_1
_geom_bond_site_symmetry_2
C1 C2 1_555 1_555
C2 H1 1_555 1_555
C3 C2 1_555 1_555
H2 C3 1_555 1_555
C4 C3 1_555 1_555
H3 C4 1_555 1_555
C5 C4 1_555 1_555
H4 C5 1_555 1_555
C6 C1 1_555 1_555
H5 C6 1_555 1_555
C7 C1 1_555 1_555
C8 C7 1_555 1_555
C9 C8 1_555 1_555
C10 C9 1_555 1_555
C11 C10 1_555 1_555
C12 C11 1_555 1_555
C13 C12 1_555 1_555
C14 C13 1_555 1_555
H6 C14 1_555 1_555
H7 C14 1_555 1_555
C15 C14 1_555 1_555
C16 C15 1_555 1_555
H8 C16 1_555 1_555
H9 C16 1_555 1_555
C17 C9 1_555 1_555
C18 C10 1_555 1_555
C19 C18 1_555 1_555
H10 C19 1_555 1_555
C20 C19 1_555 1_555
H11 C20 1_555 1_555
C21 C20 1_555 1_555
H12 C21 1_555 1_555
C22 C21 1_555 1_555
H13 C22 1_555 1_555
C23 C18 1_555 1_555
H14 C23 1_555 1_555
C24 C11 1_555 1_555
H15 C24 1_555 1_555
C25 C24 1_555 1_555
H16 C25 1_555 1_555
C26 C25 1_555 1_555
H17 C26 1_555 1_555
C27 C12 1_555 1_555
H18 C27 1_555 1_555
C28 C15 1_555 1_555
C29 H19 1_555 1_555
H20 C29 1_555 1_555
H21 C29 1_555 1_555
C30 C15 1_555 1_555
C31 H22 1_555 1_555
H23 C31 1_555 1_555
H24 C31 1_555 1_555
C32 H25 1_555 1_555
H26 C32 1_555 1_555
H27 C32 1_555 1_555
N1 C24 1_555 1_555
O1 C28 1_555 1_555
O2 C28 1_555 1_555
O3 C30 1_555 1_555
O4 C30 1_555 1_555
C5 C6 1_555 1_555
C13 C17 1_555 1_555
C16 C17 1_555 1_555
C22 C23 1_555 1_555
C26 C27 1_555 1_555
C27 N1 1_555 1_555
C29 O2 1_555 1_555
C31 O4 1_555 1_555
C32 N1 1_555 1_555

#END
