
#######################################################################
#
#                 Cambridge Crystallographic Data Centre
#                                CCDC 
#
#######################################################################
#
# If this CIF has been generated from an entry in the Cambridge 
# Structural Database, then it will include bibliographic, chemical, 
# crystal, experimental, refinement or atomic coordinate data resulting 
# from the CCDC's data processing and validation procedures.
#
#######################################################################

data_IKOTAF
_chemical_formula_moiety         'C28 H22 O2'
_chemical_name_systematic        2,6-bis(4-Methoxyphenyl)anthracene
_symmetry_cell_setting           orthorhombic
_symmetry_space_group_name_H-M   'P b c a'
_symmetry_Int_Tables_number      61
_space_group_name_Hall           '-P 2ac 2ab'
loop_
_symmetry_equiv_pos_site_id
_symmetry_equiv_pos_as_xyz
1 x,y,z
2 1/2+x,1/2-y,-z
3 -x,1/2+y,1/2-z
4 1/2-x,-y,1/2+z
5 -x,-y,-z
6 1/2-x,1/2+y,z
7 x,1/2-y,1/2+z
8 1/2+x,y,1/2-z
_cell_length_a                   7.4376(2)
_cell_length_b                   6.16290(10)
_cell_length_c                   42.296(3)
_cell_angle_alpha                90
_cell_angle_beta                 90
_cell_angle_gamma                90
_cell_volume                     1938.73
_exptl_crystal_colour            colorless
_exptl_crystal_description       prism
_chemical_melting_point          '353 K'
_cell_formula_units_Z            4
_exptl_crystal_recrystallization_method Sublimation
loop_
_atom_site_label
_atom_site_type_symbol
_atom_site_fract_x
_atom_site_fract_y
_atom_site_fract_z
O1 O 1.01001(15) 0.37814(17) 0.71276(2)
C1 C 0.9135(3) 0.5697(3) 0.72070(4)
H1 H 0.9532 0.6871 0.7075
H2 H 0.9349 0.6054 0.7425
H3 H 0.7873 0.5459 0.7175
C2 C 0.99915(18) 0.3047(2) 0.68234(3)
C3 C 0.9020(2) 0.4032(2) 0.65840(3)
H4 H 0.8364 0.5285 0.6625
C4 C 0.90266(19) 0.3145(2) 0.62835(3)
H5 H 0.8369 0.3829 0.6125
C5 C 0.99784(16) 0.1270(2) 0.62089(3)
C6 C 1.00163(16) 0.0365(2) 0.58835(3)
C7 C 0.95048(17) 0.1562(2) 0.56247(3)
H6 H 0.9009 0.2930 0.5657
C8 C 0.97029(16) 0.07973(19) 0.53108(3)
C9 C 0.92689(17) 0.20620(19) 0.50471(3)
H7 H 0.8777 0.3433 0.5078
C10 C 1.04500(16) -0.13324(19) 0.52593(3)
C11 C 1.08793(17) -0.2585(2) 0.55322(3)
H8 H 1.1311 -0.3990 0.5506
C12 C 1.06768(18) -0.1787(2) 0.58269(3)
H9 H 1.0974 -0.2658 0.5999
C13 C 1.0948(2) 0.1174(2) 0.67564(3)
H10 H 1.1599 0.0492 0.6916
C14 C 1.09425(19) 0.0315(2) 0.64563(3)
H11 H 1.1600 -0.0940 0.6417
O1D O 0.98999(15) -0.37814(17) 0.28724(2)
C1D C 1.0865(3) -0.5697(3) 0.27930(4)
H1D H 1.0468 -0.6871 0.2925
H2D H 1.0651 -0.6054 0.2575
H3D H 1.2127 -0.5459 0.2825
C2D C 1.00085(18) -0.3047(2) 0.31766(3)
C3D C 1.0980(2) -0.4032(2) 0.34160(3)
H4D H 1.1636 -0.5285 0.3375
C4D C 1.09734(19) -0.3145(2) 0.37165(3)
H5D H 1.1631 -0.3829 0.3875
C5D C 1.00216(16) -0.1270(2) 0.37911(3)
C6D C 0.99837(16) -0.0365(2) 0.41165(3)
C7D C 1.04952(17) -0.1562(2) 0.43753(3)
H6D H 1.0991 -0.2930 0.4343
C8D C 1.02971(16) -0.07973(19) 0.46892(3)
C9D C 1.07311(17) -0.20620(19) 0.49529(3)
H7D H 1.1223 -0.3433 0.4922
C10D C 0.95500(16) 0.13324(19) 0.47407(3)
C11D C 0.91207(17) 0.2585(2) 0.44678(3)
H8D H 0.8689 0.3990 0.4494
C12D C 0.93232(18) 0.1787(2) 0.41731(3)
H9D H 0.9026 0.2658 0.4001
C13D C 0.9052(2) -0.1174(2) 0.32436(3)
H10D H 0.8401 -0.0492 0.3084
C14D C 0.90575(19) -0.0315(2) 0.35437(3)
H11D H 0.8400 0.0940 0.3583
loop_
_geom_bond_atom_site_label_1
_geom_bond_atom_site_label_2
_geom_bond_site_symmetry_1
_geom_bond_site_symmetry_2
O1 C1 1_555 1_555
C1 H1 1_555 1_555
H2 C1 1_555 1_555
H3 C1 1_555 1_555
C2 O1 1_555 1_555
C3 C2 1_555 1_555
H4 C3 1_555 1_555
C4 C3 1_555 1_555
H5 C4 1_555 1_555
C5 C4 1_555 1_555
C6 C5 1_555 1_555
C7 C6 1_555 1_555
H6 C7 1_555 1_555
C8 C7 1_555 1_555
C9 C8 1_555 1_555
H7 C9 1_555 1_555
C10 C8 1_555 1_555
C11 C10 1_555 1_555
H8 C11 1_555 1_555
C12 C6 1_555 1_555
H9 C12 1_555 1_555
C13 C2 1_555 1_555
H10 C13 1_555 1_555
C14 C5 1_555 1_555
H11 C14 1_555 1_555
O1D C1D 1_555 1_555
C1D H1D 1_555 1_555
H2D C1D 1_555 1_555
H3D C1D 1_555 1_555
C2D O1D 1_555 1_555
C3D C2D 1_555 1_555
H4D C3D 1_555 1_555
C4D C3D 1_555 1_555
H5D C4D 1_555 1_555
C5D C4D 1_555 1_555
C6D C5D 1_555 1_555
C7D C6D 1_555 1_555
H6D C7D 1_555 1_555
C8D C7D 1_555 1_555
C9D C10 1_555 1_555
H7D C9D 1_555 1_555
C10D C9 1_555 1_555
C11D C10D 1_555 1_555
H8D C11D 1_555 1_555
C12D C6D 1_555 1_555
H9D C12D 1_555 1_555
C13D C2D 1_555 1_555
H10D C13D 1_555 1_555
C14D C5D 1_555 1_555
H11D C14D 1_555 1_555
C11 C12 1_555 1_555
C13 C14 1_555 1_555
C8D C9D 1_555 1_555
C8D C10D 1_555 1_555
C11D C12D 1_555 1_555
C13D C14D 1_555 1_555

#END
