
#######################################################################
#
#                 Cambridge Crystallographic Data Centre
#                                CCDC 
#
#######################################################################
#
# If this CIF has been generated from an entry in the Cambridge 
# Structural Database, then it will include bibliographic, chemical, 
# crystal, experimental, refinement or atomic coordinate data resulting 
# from the CCDC's data processing and validation procedures.
#
#######################################################################

data_IKOVOV
_chemical_formula_moiety         'C24 H29 N2 O3 S1 1+,H2 O1,Cl1 1-'
_chemical_name_systematic        
'(2S,3R)-2-Amino-4-[N-benzyl-4-methylbenzenesulfonamido]-3-hydroxy-1-phenylbutane hydrochloride monohydrate'
_symmetry_cell_setting           monoclinic
_symmetry_space_group_name_H-M   'P 21'
_symmetry_Int_Tables_number      4
_space_group_name_Hall           'P 2yb'
loop_
_symmetry_equiv_pos_site_id
_symmetry_equiv_pos_as_xyz
1 x,y,z
2 -x,1/2+y,-z
_cell_length_a                   13.855(2)
_cell_length_b                   5.8473(10)
_cell_length_c                   15.323(3)
_cell_angle_alpha                90
_cell_angle_beta                 91.856(8)
_cell_angle_gamma                90
_cell_volume                     1240.73
_exptl_crystal_colour            colorless
_exptl_crystal_description       needle
_cell_formula_units_Z            2
loop_
_atom_site_label
_atom_site_type_symbol
_atom_site_fract_x
_atom_site_fract_y
_atom_site_fract_z
S1 S 0.68291(14) 0.8477(3) 0.69335(12)
O1 O 0.6165(4) 0.9504(9) 0.7511(3)
N1 N 0.7887(4) 0.9520(10) 0.7163(4)
O2 O 0.6912(4) 0.6051(9) 0.6899(3)
O3 O 0.8824(4) 1.2325(10) 0.9197(3)
H1 H 0.9180 1.3228 0.8954
N2 N 0.8802(5) 0.7758(12) 0.9815(4)
H2 H 0.933(5) 0.715(14) 0.952(4)
H3 H 0.888(5) 0.900(13) 1.020(5)
H4 H 0.860(5) 0.660(14) 1.005(5)
C1 C 0.5966(5) 0.6672(14) 1.1453(5)
H5 H 0.5841 0.6976 1.2034
C2 C 0.6665(5) 0.7874(11) 1.0115(4)
C3 C 0.6734(5) 0.7977(13) 0.5153(4)
H6 H 0.7000 0.6534 0.5244
C4 C 0.8088(5) 0.8669(12) 0.9129(4)
H7 H 0.7887 0.7426 0.8734
C5 C 0.6541(5) 0.9395(13) 0.5856(5)
C6 C 0.9176(6) 1.2107(15) 0.5982(5)
H8 H 0.8527 1.2289 0.5822
C7 C 0.6111(5) 1.0896(14) 0.4163(5)
C8 C 0.6314(5) 0.5868(13) 0.9723(4)
H9 H 0.6422 0.5590 0.9137
C9 C 0.5626(5) 0.4697(13) 1.1074(5)
H10 H 0.5282 0.3643 1.1396
C10 C 0.9840(6) 1.3700(16) 0.5726(5)
H11 H 0.9640 1.4938 0.5385
C11 C 0.5922(5) 1.2269(14) 0.4891(5)
H12 H 0.5648 1.3708 0.4809
C12 C 0.7206(5) 0.9588(12) 0.9597(5)
H13 H 0.7418 1.0810 0.9986
H14 H 0.6763 1.0248 0.9163
C13 C 1.0802(6) 1.3473(16) 0.5973(5)
H15 H 1.1250 1.4575 0.5818
C14 C 0.8607(5) 1.0459(13) 0.8628(4)
H16 H 0.9217 0.9807 0.8438
C15 C 0.6137(5) 1.1507(13) 0.5723(5)
H17 H 0.6008 1.2432 0.6198
C16 C 0.5910(6) 1.1747(16) 0.3236(5)
H18 H 0.5441 1.0773 0.2949
H19 H 0.6497 1.1723 0.2920
H20 H 0.5666 1.3282 0.3253
C17 C 0.6487(5) 0.8205(13) 1.0984(4)
H21 H 0.6729 0.9508 1.1262
C18 C 0.5805(5) 0.4293(12) 1.0201(5)
H22 H 0.5581 0.2955 0.9936
C19 C 0.8737(5) 0.8478(13) 0.6737(4)
H23 H 0.8516 0.7626 0.6226
H24 H 0.9052 0.7413 0.7139
C20 C 0.8033(5) 1.1316(11) 0.7815(4)
H25 H 0.7410 1.1881 0.7989
H26 H 0.8378 1.2579 0.7557
C21 C 0.9462(5) 1.0272(14) 0.6467(4)
C22 C 1.1087(6) 1.1605(17) 0.6450(6)
H27 H 1.1736 1.1421 0.6607
C23 C 0.6520(5) 0.8766(15) 0.4307(5)
H28 H 0.6656 0.7842 0.3833
C24 C 1.0425(6) 0.9981(16) 0.6703(5)
H29 H 1.0626 0.8712 0.7027
Cl1 Cl 1.03667(13) 1.5534(3) 0.85317(12)
O4 O 1.1671(5) 1.9800(12) 0.8842(4)
H30 H 1.128(7) 1.843(19) 0.882(6)
H31 H 1.148(8) 2.13(2) 0.858(7)
loop_
_geom_bond_atom_site_label_1
_geom_bond_atom_site_label_2
_geom_bond_site_symmetry_1
_geom_bond_site_symmetry_2
S1 O1 1_555 1_555
N1 S1 1_555 1_555
O2 S1 1_555 1_555
O3 H1 1_555 1_555
N2 H2 1_555 1_555
H3 N2 1_555 1_555
H4 N2 1_555 1_555
C1 H5 1_555 1_555
C2 C8 1_555 1_555
C3 H6 1_555 1_555
C4 N2 1_555 1_555
H7 C4 1_555 1_555
C5 S1 1_555 1_555
C6 H8 1_555 1_555
C7 C11 1_555 1_555
C8 H9 1_555 1_555
C9 C1 1_555 1_555
H10 C9 1_555 1_555
C10 C6 1_555 1_555
H11 C10 1_555 1_555
C11 H12 1_555 1_555
C12 C2 1_555 1_555
H13 C12 1_555 1_555
H14 C12 1_555 1_555
C13 C10 1_555 1_555
H15 C13 1_555 1_555
C14 O3 1_555 1_555
H16 C14 1_555 1_555
C15 C5 1_555 1_555
H17 C15 1_555 1_555
C16 C7 1_555 1_555
H18 C16 1_555 1_555
H19 C16 1_555 1_555
H20 C16 1_555 1_555
C17 C1 1_555 1_555
H21 C17 1_555 1_555
C18 C8 1_555 1_555
H22 C18 1_555 1_555
C19 N1 1_555 1_555
H23 C19 1_555 1_555
H24 C19 1_555 1_555
C20 N1 1_555 1_555
H25 C20 1_555 1_555
H26 C20 1_555 1_555
C21 C6 1_555 1_555
C22 C13 1_555 1_555
H27 C22 1_555 1_555
C23 C3 1_555 1_555
H28 C23 1_555 1_555
C24 C21 1_555 1_555
H29 C24 1_555 1_555
O4 H30 1_555 1_555
H31 O4 1_555 1_555
C2 C17 1_555 1_555
C3 C5 1_555 1_555
C4 C12 1_555 1_555
C4 C14 1_555 1_555
C7 C23 1_555 1_555
C9 C18 1_555 1_555
C11 C15 1_555 1_555
C14 C20 1_555 1_555
C19 C21 1_555 1_555
C22 C24 1_555 1_555

#END
