
#######################################################################
#
#                 Cambridge Crystallographic Data Centre
#                                CCDC 
#
#######################################################################
#
# If this CIF has been generated from an entry in the Cambridge 
# Structural Database, then it will include bibliographic, chemical, 
# crystal, experimental, refinement or atomic coordinate data resulting 
# from the CCDC's data processing and validation procedures.
#
#######################################################################

data_IKOVIO
_chemical_formula_moiety         'C44 H32 Si1'
_chemical_name_systematic        
2,3,4,5-Tetraphenyl-1-(phenylethynyl)-1-(2-phenylvinyl)-1H-silole
_symmetry_cell_setting           monoclinic
_symmetry_space_group_name_H-M   'P 21/c'
_symmetry_Int_Tables_number      14
_space_group_name_Hall           '-P 2ybc'
loop_
_symmetry_equiv_pos_site_id
_symmetry_equiv_pos_as_xyz
1 x,y,z
2 -x,1/2+y,1/2-z
3 -x,-y,-z
4 x,1/2-y,1/2+z
_cell_length_a                   10.780(3)
_cell_length_b                   27.233(6)
_cell_length_c                   11.144(3)
_cell_angle_alpha                90
_cell_angle_beta                 97.691(5)
_cell_angle_gamma                90
_cell_volume                     3242.13
_exptl_crystal_colour            colorless
_exptl_crystal_description       prism
_cell_formula_units_Z            4
loop_
_atom_site_label
_atom_site_type_symbol
_atom_site_fract_x
_atom_site_fract_y
_atom_site_fract_z
Si1 Si 0.30851(5) 0.157649(19) 0.73601(5)
C1 C 0.17596(17) 0.23430(6) 0.78115(16)
C2 C 0.16644(17) 0.18471(7) 0.79170(16)
C3 C 0.29097(17) 0.25329(6) 0.73313(16)
C4 C 0.36942(17) 0.21875(7) 0.69657(17)
C5 C 0.06969(17) 0.15593(7) 0.84248(17)
C6 C -0.0467(2) 0.17332(8) 0.8642(2)
H1 H -0.0708 0.2058 0.8407
C7 C -0.1281(2) 0.14414(8) 0.9192(2)
H2 H -0.2067 0.1571 0.9333
C8 C -0.0972(2) 0.09720(8) 0.9535(2)
H3 H -0.1524 0.0778 0.9934
C9 C 0.0141(2) 0.07857(8) 0.9296(2)
H4 H 0.0360 0.0456 0.9512
C10 C 0.0955(2) 0.10725(8) 0.8739(2)
H5 H 0.1718 0.0932 0.8565
C11 C 0.08277(17) 0.27060(6) 0.81608(16)
C12 C -0.0160(2) 0.28641(8) 0.7324(2)
H6 H -0.0240 0.2742 0.6519
C13 C -0.1033(2) 0.31972(8) 0.7641(2)
H7 H -0.1702 0.3303 0.7056
C14 C -0.0926(2) 0.33743(7) 0.8807(2)
H8 H -0.1519 0.3604 0.9028
C15 C 0.0040(2) 0.32180(8) 0.9649(2)
H9 H 0.0108 0.3337 1.0456
C16 C 0.0921(2) 0.28866(8) 0.93268(18)
H10 H 0.1591 0.2784 0.9914
C17 C 0.31601(18) 0.30732(7) 0.73987(17)
C18 C 0.2387(2) 0.34137(7) 0.6736(2)
H11 H 0.1703 0.3304 0.6174
C19 C 0.2608(3) 0.39126(8) 0.6893(2)
H12 H 0.2075 0.4143 0.6438
C20 C 0.3602(3) 0.40760(8) 0.7708(2)
H13 H 0.3748 0.4418 0.7820
C21 C 0.4382(3) 0.37412(8) 0.8357(2)
H14 H 0.5072 0.3853 0.8911
C22 C 0.4162(2) 0.32420(7) 0.82036(18)
H15 H 0.4703 0.3013 0.8654
C23 C 0.48368(18) 0.22787(7) 0.63985(17)
C24 C 0.49229(19) 0.26723(7) 0.56091(18)
H16 H 0.4250 0.2899 0.5466
C25 C 0.59728(19) 0.27373(7) 0.50308(19)
H17 H 0.6012 0.3007 0.4496
C26 C 0.69644(19) 0.24113(7) 0.52294(19)
H18 H 0.7687 0.2457 0.4838
C27 C 0.6893(2) 0.20205(8) 0.59994(19)
H19 H 0.7572 0.1796 0.6144
C28 C 0.58380(19) 0.19517(7) 0.65656(19)
H20 H 0.5797 0.1675 0.7079
C29 C 0.41448(19) 0.12720(7) 0.8547(2)
C30 C 0.2722(2) 0.11218(7) 0.6147(2)
H21 H 0.2199 0.1235 0.5448
C31 C 0.4872(5) 0.10377(18) 0.9150(4)
C32 C 0.5757(9) 0.0751(3) 0.9964(6)
C33 C 0.6119(10) 0.0292(3) 0.9589(8)
H22 H 0.5832 0.0180 0.8793
C34 C 0.6901(16) -0.0003(4) 1.0379(13)
H23 H 0.7149 -0.0316 1.0123
C35 C 0.7321(18) 0.0161(6) 1.1544(12)
H24 H 0.7856 -0.0040 1.2084
C36 C 0.6959(14) 0.0620(5) 1.1918(8)
H25 H 0.7246 0.0732 1.2714
C37 C 0.6177(10) 0.0915(4) 1.1128(7)
H26 H 0.5930 0.1229 1.1384
C38 C 0.3087(6) 0.0656(2) 0.6109(5)
H27 H 0.3704 0.0547 0.6741
C39 C 0.2603(10) 0.0284(2) 0.5145(8)
C40 C 0.1432(9) 0.0252(3) 0.4455(9)
H28 H 0.0827 0.0502 0.4512
C41 C 0.1146(8) -0.0144(4) 0.3682(8)
H29 H 0.0346 -0.0166 0.3211
C42 C 0.2032(9) -0.0509(3) 0.3599(9)
H30 H 0.1837 -0.0780 0.3071
C43 C 0.3203(8) -0.0478(3) 0.4289(9)
H31 H 0.3808 -0.0727 0.4232
C44 C 0.3489(7) -0.0081(3) 0.5061(7)
H32 H 0.4289 -0.0060 0.5533
C45? C 0.2722(2) 0.11218(7) 0.6147(2)
C46? C 0.2688(6) 0.07324(19) 0.5764(5)
C47? C 0.2482(10) 0.0283(2) 0.5069(8)
C48? C 0.1470(10) 0.0334(3) 0.4164(9)
C49? C 0.1134(9) -0.0051(4) 0.3367(8)
C50? C 0.1810(10) -0.0487(3) 0.3474(8)
C51? C 0.2822(8) -0.0538(2) 0.4379(9)
C52? C 0.3158(7) -0.0153(3) 0.5176(7)
C53? C 0.41448(19) 0.12720(7) 0.8547(2)
C54? C 0.4908(5) 0.09224(18) 0.8737(4)
C55? C 0.5743(9) 0.0669(3) 0.9669(6)
C56? C 0.6260(10) 0.0222(3) 0.9398(8)
C57? C 0.7036(15) -0.0031(4) 1.0286(13)
C58? C 0.7296(18) 0.0164(6) 1.1445(11)
C59? C 0.6779(14) 0.0611(5) 1.1716(7)
C60? C 0.6003(9) 0.0864(3) 1.0828(7)
H33? H 0.1008 0.0632 0.4091
H34? H 0.0442 -0.0016 0.2749
H35? H 0.1580 -0.0750 0.2930
H36? H 0.3284 -0.0836 0.4452
H37? H 0.3850 -0.0188 0.5794
H38? H 0.4105 0.1438 0.9290
H39? H 0.4957 0.0763 0.7987
H40? H 0.6082 0.0089 0.8605
H41? H 0.7389 -0.0337 1.0100
H42? H 0.7826 -0.0009 1.2052
H43? H 0.6957 0.0744 1.2509
H44? H 0.5650 0.1170 1.1014
loop_
_geom_bond_atom_site_label_1
_geom_bond_atom_site_label_2
_geom_bond_site_symmetry_1
_geom_bond_site_symmetry_2
Si1 C2 1_555 1_555
C1 C2 1_555 1_555
C2 C5 1_555 1_555
C3 C1 1_555 1_555
C4 Si1 1_555 1_555
C5 C6 1_555 1_555
C6 H1 1_555 1_555
C7 C6 1_555 1_555
H2 C7 1_555 1_555
C8 C7 1_555 1_555
H3 C8 1_555 1_555
C9 C8 1_555 1_555
H4 C9 1_555 1_555
C10 C5 1_555 1_555
H5 C10 1_555 1_555
C11 C1 1_555 1_555
C12 C11 1_555 1_555
H6 C12 1_555 1_555
C13 C12 1_555 1_555
H7 C13 1_555 1_555
C14 C13 1_555 1_555
H8 C14 1_555 1_555
C15 C14 1_555 1_555
H9 C15 1_555 1_555
C16 C11 1_555 1_555
H10 C16 1_555 1_555
C17 C3 1_555 1_555
C18 C17 1_555 1_555
H11 C18 1_555 1_555
C19 C18 1_555 1_555
H12 C19 1_555 1_555
C20 C19 1_555 1_555
H13 C20 1_555 1_555
C21 C20 1_555 1_555
H14 C21 1_555 1_555
C22 C17 1_555 1_555
H15 C22 1_555 1_555
C23 C4 1_555 1_555
C24 C23 1_555 1_555
H16 C24 1_555 1_555
C25 C24 1_555 1_555
H17 C25 1_555 1_555
C26 C25 1_555 1_555
H18 C26 1_555 1_555
C27 C26 1_555 1_555
H19 C27 1_555 1_555
C28 C23 1_555 1_555
H20 C28 1_555 1_555
C29 Si1 1_555 1_555
C30 Si1 1_555 1_555
H21 C30 1_555 1_555
C31 C29 1_555 1_555
C32 C31 1_555 1_555
C33 C32 1_555 1_555
H22 C33 1_555 1_555
C34 C33 1_555 1_555
H23 C34 1_555 1_555
C35 C34 1_555 1_555
H24 C35 1_555 1_555
C36 C35 1_555 1_555
H25 C36 1_555 1_555
C37 C32 1_555 1_555
H26 C37 1_555 1_555
C38 C30 1_555 1_555
H27 C38 1_555 1_555
C39 C38 1_555 1_555
C40 C39 1_555 1_555
H28 C40 1_555 1_555
C41 C40 1_555 1_555
H29 C41 1_555 1_555
C42 C41 1_555 1_555
H30 C42 1_555 1_555
C43 C42 1_555 1_555
H31 C43 1_555 1_555
C44 C39 1_555 1_555
H32 C44 1_555 1_555
C3 C4 1_555 1_555
C9 C10 1_555 1_555
C15 C16 1_555 1_555
C21 C22 1_555 1_555
C27 C28 1_555 1_555
C36 C37 1_555 1_555
C43 C44 1_555 1_555

#END
