
#######################################################################
#
#                 Cambridge Crystallographic Data Centre
#                                CCDC 
#
#######################################################################
#
# If this CIF has been generated from an entry in the Cambridge 
# Structural Database, then it will include bibliographic, chemical, 
# crystal, experimental, refinement or atomic coordinate data resulting 
# from the CCDC's data processing and validation procedures.
#
#######################################################################

data_IKUGIG
_chemical_formula_moiety         'C25 H16 Br2 O4'
_chemical_name_systematic        
3-(5,11-dibromo-1-oxodibenzo[a,kl]xanthen-13c(1H)-yl)pentane-2,4-dione
_chemical_properties_biological  'cytotoxic activity'
_symmetry_cell_setting           monoclinic
_symmetry_space_group_name_H-M   'P 21/c'
_symmetry_Int_Tables_number      14
_space_group_name_Hall           '-P 2ybc'
loop_
_symmetry_equiv_pos_site_id
_symmetry_equiv_pos_as_xyz
1 x,y,z
2 -x,1/2+y,1/2-z
3 -x,-y,-z
4 x,1/2-y,1/2+z
_cell_length_a                   8.1119(11)
_cell_length_b                   17.195(2)
_cell_length_c                   15.219(2)
_cell_angle_alpha                90
_cell_angle_beta                 91.549(3)
_cell_angle_gamma                90
_cell_volume                     2122.03
_chemical_melting_point          '183-184 deg.C'
_cell_formula_units_Z            4
loop_
_atom_site_label
_atom_site_type_symbol
_atom_site_fract_x
_atom_site_fract_y
_atom_site_fract_z
Br1 Br 0.05843(6) 0.70018(3) 0.13922(3)
Br2 Br 0.98343(6) 0.08727(3) 0.06972(4)
C1 C 0.2580(5) 0.4821(2) 0.1847(3)
H1 H 0.2230 0.4368 0.2120
C2 C 0.1540(5) 0.5450(3) 0.1814(3)
H2 H 0.0499 0.5417 0.2053
C3 C 0.2050(6) 0.6141(2) 0.1420(3)
C4 C 0.3573(6) 0.6197(2) 0.1080(3)
H3 H 0.3898 0.6661 0.0824
C5 C 0.4680(5) 0.5558(2) 0.1109(3)
C6 C 0.4173(5) 0.4836(2) 0.1480(2)
C7 C 0.5274(5) 0.4178(2) 0.1471(2)
C8 C 0.6783(5) 0.4297(2) 0.1109(3)
C9 C 0.7304(5) 0.5015(2) 0.0769(3)
H4 H 0.8356 0.5064 0.0548
C10 C 0.6273(5) 0.5632(2) 0.0764(3)
H5 H 0.6611 0.6105 0.0534
C11 C 0.7549(5) 0.2968(2) 0.1198(3)
C12 C 0.8700(5) 0.2421(2) 0.0931(3)
H6 H 0.9689 0.2572 0.0687
C13 C 0.8315(5) 0.1649(2) 0.1042(3)
C14 C 0.6858(5) 0.1416(2) 0.1391(3)
H7 H 0.6631 0.0889 0.1457
C15 C 0.5714(5) 0.1974(2) 0.1648(3)
C16 C 0.4086(5) 0.1745(2) 0.1938(3)
H8 H 0.3911 0.1240 0.2137
C17 C 0.2853(5) 0.2251(2) 0.1921(3)
H9 H 0.1816 0.2116 0.2118
C18 C 0.3183(5) 0.3042(2) 0.1576(3)
C19 C 0.4871(4) 0.3392(2) 0.1885(2)
C20 C 0.6082(5) 0.2766(2) 0.1561(2)
C21 C 0.5052(5) 0.3409(2) 0.2936(2)
H10 H 0.5692 0.2946 0.3103
C22 C 0.6095(6) 0.4117(3) 0.3244(3)
C23 C 0.7935(6) 0.4060(3) 0.3216(3)
H11 H 0.8395 0.4571 0.3154
H12 H 0.8235 0.3744 0.2726
H13 H 0.8354 0.3829 0.3751
C24 C 0.3488(6) 0.3379(3) 0.3469(3)
C25 C 0.3747(6) 0.3270(3) 0.4448(3)
H14 H 0.2835 0.3492 0.4749
H15 H 0.4749 0.3524 0.4637
H16 H 0.3822 0.2725 0.4579
O1 O 0.7995(3) 0.37324(15) 0.10523(18)
O2 O 0.2336(3) 0.33287(16) 0.10002(19)
O3 O 0.2135(4) 0.34254(18) 0.3144(2)
O4 O 0.5413(4) 0.46897(19) 0.3511(2)
loop_
_geom_bond_atom_site_label_1
_geom_bond_atom_site_label_2
_geom_bond_site_symmetry_1
_geom_bond_site_symmetry_2
Br1 C3 1_555 1_555
Br2 C13 1_555 1_555
C1 H1 1_555 1_555
C2 C1 1_555 1_555
H2 C2 1_555 1_555
C3 C2 1_555 1_555
C4 C3 1_555 1_555
H3 C4 1_555 1_555
C5 C4 1_555 1_555
C6 C1 1_555 1_555
C7 C6 1_555 1_555
C8 C7 1_555 1_555
C9 C8 1_555 1_555
H4 C9 1_555 1_555
C10 C5 1_555 1_555
H5 C10 1_555 1_555
C11 C12 1_555 1_555
C12 H6 1_555 1_555
C13 C12 1_555 1_555
C14 C13 1_555 1_555
H7 C14 1_555 1_555
C15 C14 1_555 1_555
C16 C15 1_555 1_555
H8 C16 1_555 1_555
C17 C16 1_555 1_555
H9 C17 1_555 1_555
C18 C17 1_555 1_555
C19 C7 1_555 1_555
C20 C11 1_555 1_555
C21 C19 1_555 1_555
H10 C21 1_555 1_555
C22 C21 1_555 1_555
C23 C22 1_555 1_555
H11 C23 1_555 1_555
H12 C23 1_555 1_555
H13 C23 1_555 1_555
C24 C21 1_555 1_555
C25 C24 1_555 1_555
H14 C25 1_555 1_555
H15 C25 1_555 1_555
H16 C25 1_555 1_555
O1 C8 1_555 1_555
O2 C18 1_555 1_555
O3 C24 1_555 1_555
O4 C22 1_555 1_555
C5 C6 1_555 1_555
C9 C10 1_555 1_555
C11 O1 1_555 1_555
C15 C20 1_555 1_555
C18 C19 1_555 1_555
C19 C20 1_555 1_555

#END
