
#######################################################################
#
#                 Cambridge Crystallographic Data Centre
#                                CCDC 
#
#######################################################################
#
# If this CIF has been generated from an entry in the Cambridge 
# Structural Database, then it will include bibliographic, chemical, 
# crystal, experimental, refinement or atomic coordinate data resulting 
# from the CCDC's data processing and validation procedures.
#
#######################################################################

data_IKUPEL01
_chemical_formula_moiety         'C17 H11 F3 O2'
_chemical_name_systematic        
7-methyl-4-phenyl-3-(trifluoromethyl)-2H-1-benzopyran-2-one
_symmetry_cell_setting           monoclinic
_symmetry_space_group_name_H-M   'P 21/n'
_symmetry_Int_Tables_number      14
_space_group_name_Hall           '-P 2yn'
loop_
_symmetry_equiv_pos_site_id
_symmetry_equiv_pos_as_xyz
1 x,y,z
2 1/2-x,1/2+y,1/2-z
3 -x,-y,-z
4 1/2+x,1/2-y,1/2+z
_cell_length_a                   12.4148(5)
_cell_length_b                   7.9614(4)
_cell_length_c                   14.3307(6)
_cell_angle_alpha                90
_cell_angle_beta                 93.308(4)
_cell_angle_gamma                90
_cell_volume                     1414.07
_exptl_crystal_colour            colorless
_exptl_crystal_description       needle
_cell_formula_units_Z            4
loop_
_atom_site_label
_atom_site_type_symbol
_atom_site_fract_x
_atom_site_fract_y
_atom_site_fract_z
F1 F 0.14529(10) 0.1416(2) -0.08035(10)
F2 F 0.20542(11) -0.06040(16) 0.00378(11)
F3 F 0.11521(10) 0.1311(2) 0.06353(11)
O1 O 0.48226(9) 0.20496(17) -0.00624(8)
O2 O 0.37236(11) 0.0575(2) -0.09921(9)
C1 C 0.38170(14) 0.1460(2) -0.03125(11)
C2 C 0.29331(13) 0.1980(2) 0.02580(11)
C3 C 0.30810(12) 0.3179(2) 0.09259(10)
C4 C 0.41634(12) 0.3775(2) 0.11594(10)
C5 C 0.44350(14) 0.4911(2) 0.18814(12)
H1 H 0.3891 0.5386 0.2215
C6 C 0.54866(15) 0.5332(3) 0.21046(13)
H2 H 0.5645 0.6086 0.2589
C7 C 0.63238(14) 0.4653(2) 0.16213(12)
C8 C 0.60726(13) 0.3558(2) 0.08973(12)
H3 H 0.6619 0.3100 0.0560
C9 C 0.50106(13) 0.3139(2) 0.06723(10)
C10 C 0.21736(12) 0.3946(2) 0.14211(11)
C11 C 0.14869(15) 0.5055(3) 0.09465(14)
H4 H 0.1593 0.5322 0.0327
C12 C 0.06422(16) 0.5768(3) 0.13901(17)
H5 H 0.0187 0.6526 0.1070
C13 C 0.04700(15) 0.5368(3) 0.22990(16)
H6 H -0.0111 0.5832 0.2590
C14 C 0.11520(16) 0.4286(3) 0.27764(14)
H7 H 0.1035 0.4019 0.3394
C15 C 0.20188(15) 0.3582(2) 0.23494(12)
H8 H 0.2493 0.2870 0.2684
C16 C 0.18990(15) 0.1051(3) 0.00349(13)
C17 C 0.74784(16) 0.5090(3) 0.18935(16)
H9 H 0.7619 0.4892 0.2550
H10 H 0.7604 0.6252 0.1758
H11 H 0.7949 0.4403 0.1546
loop_
_geom_bond_atom_site_label_1
_geom_bond_atom_site_label_2
_geom_bond_site_symmetry_1
_geom_bond_site_symmetry_2
F1 C16 1_555 1_555
F2 C16 1_555 1_555
F3 C16 1_555 1_555
O1 C1 1_555 1_555
O2 C1 1_555 1_555
C1 C2 1_555 1_555
C2 C3 1_555 1_555
C3 C4 1_555 1_555
C4 C5 1_555 1_555
C5 H1 1_555 1_555
C6 C5 1_555 1_555
H2 C6 1_555 1_555
C7 C6 1_555 1_555
C8 C7 1_555 1_555
H3 C8 1_555 1_555
C9 O1 1_555 1_555
C10 C3 1_555 1_555
C11 C10 1_555 1_555
H4 C11 1_555 1_555
C12 C11 1_555 1_555
H5 C12 1_555 1_555
C13 C12 1_555 1_555
H6 C13 1_555 1_555
C14 C13 1_555 1_555
H7 C14 1_555 1_555
C15 C10 1_555 1_555
H8 C15 1_555 1_555
C16 C2 1_555 1_555
C17 C7 1_555 1_555
H9 C17 1_555 1_555
H10 C17 1_555 1_555
H11 C17 1_555 1_555
C4 C9 1_555 1_555
C8 C9 1_555 1_555
C14 C15 1_555 1_555

#END
