
#######################################################################
#
#                 Cambridge Crystallographic Data Centre
#                                CCDC 
#
#######################################################################
#
# If this CIF has been generated from an entry in the Cambridge 
# Structural Database, then it will include bibliographic, chemical, 
# crystal, experimental, refinement or atomic coordinate data resulting 
# from the CCDC's data processing and validation procedures.
#
#######################################################################

data_IKUVOA
_chemical_formula_moiety         'C46 H76 K2 N2 O5'
_chemical_name_systematic        
(\m~2~-tetrahydrofuran)-(\m~2~-N,N'-bis(2,6-diisopropylphenyl)ethene-1,2-diimido)-tetrakis(tetrahydrofuran)-di-potassium
_symmetry_cell_setting           orthorhombic
_symmetry_space_group_name_H-M   'P 21 21 21'
_symmetry_Int_Tables_number      19
_space_group_name_Hall           'P 2ac 2ab'
loop_
_symmetry_equiv_pos_site_id
_symmetry_equiv_pos_as_xyz
1 x,y,z
2 1/2-x,-y,1/2+z
3 1/2+x,1/2-y,-z
4 -x,1/2+y,1/2-z
_cell_length_a                   11.332(5)
_cell_length_b                   16.968(5)
_cell_length_c                   24.290(5)
_cell_angle_alpha                90
_cell_angle_beta                 90
_cell_angle_gamma                90
_cell_volume                     4670.51
_exptl_crystal_colour            red
_exptl_crystal_description       block
_cell_formula_units_Z            4
loop_
_atom_site_label
_atom_site_type_symbol
_atom_site_fract_x
_atom_site_fract_y
_atom_site_fract_z
K1 K 0.04546(8) 1.00127(5) 0.60870(4)
K2 K 0.13056(7) 1.00147(4) 0.47332(3)
O1 O 0.0000(4) 1.0010(3) 0.38843(18)
O2 O -0.1202(2) 0.99425(15) 0.53091(12)
O3 O -0.0670(4) 1.1044(2) 0.6585(3)
O4 O -0.0644(3) 0.90548(18) 0.66951(16)
O5 O 0.2943(2) 1.0016(2) 0.39741(12)
N1 N 0.1907(2) 0.91209(14) 0.55701(13)
N2 N 0.2024(3) 1.08425(14) 0.56074(14)
C1 C 0.2955(3) 0.95475(16) 0.55665(12)
H1 H 0.3658 0.9265 0.5554
C2 C 0.3028(3) 1.03517(15) 0.55798(12)
H2 H 0.3770 1.0585 0.5570
C3 C 0.1923(2) 0.83677(15) 0.57802(13)
C4 C 0.2533(3) 0.81309(16) 0.62658(13)
C5 C 0.2445(3) 0.73470(19) 0.64458(15)
H3 H 0.2867 0.7192 0.6756
C6 C 0.1749(3) 0.67978(18) 0.61767(17)
H4 H 0.1703 0.6282 0.6305
C7 C 0.1123(3) 0.70246(18) 0.57149(15)
H5 H 0.0647 0.6658 0.5537
C8 C 0.1188(2) 0.77927(15) 0.55083(14)
C9 C 0.0544(3) 0.80238(18) 0.49866(12)
H6 H 0.0263 0.8565 0.5036
C10 C -0.0539(3) 0.7507(2) 0.48659(18)
H7 H -0.0284 0.6996 0.4745
H8 H -0.1007 0.7749 0.4583
H9 H -0.1003 0.7454 0.5194
C11 C 0.1400(4) 0.8026(2) 0.44999(15)
H10 H 0.2077 0.8341 0.4589
H11 H 0.1014 0.8242 0.4182
H12 H 0.1646 0.7496 0.4423
C12 C 0.3221(3) 0.8707(2) 0.66237(13)
H13 H 0.3152 0.9222 0.6444
C13 C 0.4516(4) 0.8530(3) 0.6653(2)
H14 H 0.4638 0.8056 0.6862
H15 H 0.4918 0.8960 0.6829
H16 H 0.4822 0.8459 0.6288
C14 C 0.2670(5) 0.8799(3) 0.71922(17)
H17 H 0.2754 0.8315 0.7394
H18 H 0.1848 0.8923 0.7154
H19 H 0.3061 0.9216 0.7387
C15 C 0.2160(3) 1.15887(15) 0.58145(13)
C16 C 0.2928(2) 1.17947(15) 0.62627(12)
C17 C 0.3017(3) 1.25799(17) 0.64200(13)
H20 H 0.3544 1.2711 0.6699
C18 C 0.2356(3) 1.31756(16) 0.61812(15)
H21 H 0.2454 1.3698 0.6289
C19 C 0.1543(3) 1.29717(16) 0.57761(14)
H22 H 0.1058 1.3360 0.5628
C20 C 0.1441(2) 1.22053(15) 0.55882(12)
C21 C 0.3560(3) 1.11854(17) 0.66156(12)
H23 H 0.3336 1.0663 0.6478
C22 C 0.4898(3) 1.1250(2) 0.65733(16)
H24 H 0.5132 1.1199 0.6195
H25 H 0.5257 1.0839 0.6787
H26 H 0.5147 1.1754 0.6711
C23 C 0.3192(4) 1.1229(3) 0.72213(15)
H27 H 0.3589 1.0823 0.7425
H28 H 0.2354 1.1156 0.7250
H29 H 0.3402 1.1735 0.7369
C24 C 0.0614(3) 1.20177(15) 0.51192(13)
H30 H 0.0323 1.1480 0.5176
C25 C 0.1307(3) 1.2024(2) 0.45804(15)
H31 H 0.1615 1.2543 0.4516
H32 H 0.0795 1.1878 0.4282
H33 H 0.1947 1.1655 0.4604
C26 C -0.0456(3) 1.2554(2) 0.50692(16)
H34 H -0.0869 1.2567 0.5414
H35 H -0.0971 1.2356 0.4787
H36 H -0.0203 1.3076 0.4975
C27 C 0.0125(5) 1.0536(3) 0.3430(2)
H37 H 0.0943 1.0548 0.3313
H38 H -0.0096 1.1064 0.3543
C28 C -0.0610(5) 1.0287(3) 0.2979(2)
H39 H -0.0137 1.0163 0.2658
H40 H -0.1175 1.0693 0.2883
C29 C -0.1221(9) 0.9568(5) 0.3193(3)
H41 H -0.2070 0.9633 0.3173
H42 H -0.1000 0.9109 0.2978
C30 C -0.0866(8) 0.9481(6) 0.3732(6)
H43 H -0.0571 0.8949 0.3784
H44 H -0.1544 0.9549 0.3971
C31 C -0.1907(4) 1.0583(3) 0.5120(3)
H45 H -0.1695 1.0721 0.4745
H46 H -0.1789 1.1042 0.5352
C32 C -0.3182(3) 1.0315(3) 0.5147(2)
H47 H -0.3676 1.0720 0.5309
H48 H -0.3478 1.0193 0.4782
C33 C -0.3167(4) 0.9591(2) 0.5502(2)
H49 H -0.3251 0.9724 0.5888
H50 H -0.3788 0.9227 0.5398
C34 C -0.1977(4) 0.9259(2) 0.5383(2)
H51 H -0.1707 0.8934 0.5686
H52 H -0.1995 0.8940 0.5051
C35 C -0.1819(7) 1.1243(6) 0.6637(8)
H53 H -0.2157 1.0922 0.6928
H54 H -0.2218 1.1103 0.6298
C36 C -0.2068(5) 1.2011(4) 0.6751(3)
H55 H -0.2509 1.2061 0.7091
H56 H -0.2513 1.2253 0.6454
C37 C -0.0906(6) 1.2360(4) 0.6800(3)
H57 H -0.0868 1.2712 0.7114
H58 H -0.0701 1.2652 0.6470
C38 C -0.0101(5) 1.1670(8) 0.6877(2)
H59 H 0.0674 1.1777 0.6725
H60 H -0.0018 1.1541 0.7264
C39 C -0.1530(11) 0.9186(5) 0.7085(4)
H61 H -0.2082 0.9579 0.6950
H62 H -0.1188 0.9377 0.7426
C40 C -0.2123(11) 0.8459(8) 0.7177(6)
H63 H -0.2959 0.8520 0.7102
H64 H -0.2032 0.8302 0.7559
C41 C -0.1629(5) 0.7858(3) 0.6819(2)
H65 H -0.2114 0.7775 0.6496
H66 H -0.1524 0.7362 0.7011
C42 C -0.0503(6) 0.8218(3) 0.6680(3)
H67 H 0.0097 0.8056 0.6941
H68 H -0.0258 0.8053 0.6315
C43 C 0.3941(5) 1.0503(4) 0.4034(3)
H69 H 0.4236 1.0470 0.4408
H70 H 0.3730 1.1046 0.3959
C44 C 0.4869(4) 1.0238(3) 0.3640(2)
H71 H 0.5525 0.9997 0.3834
H72 H 0.5162 1.0678 0.3425
C45 C 0.4249(4) 0.9641(3) 0.3275(2)
H73 H 0.3954 0.9887 0.2942
H74 H 0.4775 0.9213 0.3176
C46 C 0.3273(5) 0.9361(3) 0.3624(2)
H75 H 0.2610 0.9198 0.3399
H76 H 0.3526 0.8915 0.3845
loop_
_geom_bond_atom_site_label_1
_geom_bond_atom_site_label_2
_geom_bond_site_symmetry_1
_geom_bond_site_symmetry_2
K1 O2 1_555 1_555
K2 O1 1_555 1_555
O1 C27 1_555 1_555
O2 K2 1_555 1_555
O3 K1 1_555 1_555
O4 K1 1_555 1_555
O5 K2 1_555 1_555
N1 K1 1_555 1_555
N2 K1 1_555 1_555
C1 N1 1_555 1_555
H1 C1 1_555 1_555
C2 N2 1_555 1_555
H2 C2 1_555 1_555
C3 N1 1_555 1_555
C4 C3 1_555 1_555
C5 C4 1_555 1_555
H3 C5 1_555 1_555
C6 C5 1_555 1_555
H4 C6 1_555 1_555
C7 C6 1_555 1_555
H5 C7 1_555 1_555
C8 C3 1_555 1_555
C9 C8 1_555 1_555
H6 C9 1_555 1_555
C10 C9 1_555 1_555
H7 C10 1_555 1_555
H8 C10 1_555 1_555
H9 C10 1_555 1_555
C11 C9 1_555 1_555
H10 C11 1_555 1_555
H11 C11 1_555 1_555
H12 C11 1_555 1_555
C12 C4 1_555 1_555
H13 C12 1_555 1_555
C13 C12 1_555 1_555
H14 C13 1_555 1_555
H15 C13 1_555 1_555
H16 C13 1_555 1_555
C14 C12 1_555 1_555
H17 C14 1_555 1_555
H18 C14 1_555 1_555
H19 C14 1_555 1_555
C15 N2 1_555 1_555
C16 C15 1_555 1_555
C17 C16 1_555 1_555
H20 C17 1_555 1_555
C18 C17 1_555 1_555
H21 C18 1_555 1_555
C19 C18 1_555 1_555
H22 C19 1_555 1_555
C20 C15 1_555 1_555
C21 C16 1_555 1_555
H23 C21 1_555 1_555
C22 C21 1_555 1_555
H24 C22 1_555 1_555
H25 C22 1_555 1_555
H26 C22 1_555 1_555
C23 C21 1_555 1_555
H27 C23 1_555 1_555
H28 C23 1_555 1_555
H29 C23 1_555 1_555
C24 C20 1_555 1_555
H30 C24 1_555 1_555
C25 C24 1_555 1_555
H31 C25 1_555 1_555
H32 C25 1_555 1_555
H33 C25 1_555 1_555
C26 C24 1_555 1_555
H34 C26 1_555 1_555
H35 C26 1_555 1_555
H36 C26 1_555 1_555
C27 H37 1_555 1_555
H38 C27 1_555 1_555
C28 C27 1_555 1_555
H39 C28 1_555 1_555
H40 C28 1_555 1_555
C29 C28 1_555 1_555
H41 C29 1_555 1_555
H42 C29 1_555 1_555
C30 O1 1_555 1_555
H43 C30 1_555 1_555
H44 C30 1_555 1_555
C31 O2 1_555 1_555
H45 C31 1_555 1_555
H46 C31 1_555 1_555
C32 C31 1_555 1_555
H47 C32 1_555 1_555
H48 C32 1_555 1_555
C33 C32 1_555 1_555
H49 C33 1_555 1_555
H50 C33 1_555 1_555
C34 O2 1_555 1_555
H51 C34 1_555 1_555
H52 C34 1_555 1_555
C35 O3 1_555 1_555
H53 C35 1_555 1_555
H54 C35 1_555 1_555
C36 C35 1_555 1_555
H55 C36 1_555 1_555
H56 C36 1_555 1_555
C37 C36 1_555 1_555
H57 C37 1_555 1_555
H58 C37 1_555 1_555
C38 O3 1_555 1_555
H59 C38 1_555 1_555
H60 C38 1_555 1_555
C39 O4 1_555 1_555
H61 C39 1_555 1_555
H62 C39 1_555 1_555
C40 C39 1_555 1_555
H63 C40 1_555 1_555
H64 C40 1_555 1_555
C41 C40 1_555 1_555
H65 C41 1_555 1_555
H66 C41 1_555 1_555
C42 O4 1_555 1_555
H67 C42 1_555 1_555
H68 C42 1_555 1_555
C43 O5 1_555 1_555
H69 C43 1_555 1_555
H70 C43 1_555 1_555
C44 C43 1_555 1_555
H71 C44 1_555 1_555
H72 C44 1_555 1_555
C45 C44 1_555 1_555
H73 C45 1_555 1_555
H74 C45 1_555 1_555
C46 O5 1_555 1_555
H75 C46 1_555 1_555
H76 C46 1_555 1_555
K2 N1 1_555 1_555
K2 N2 1_555 1_555
C1 C2 1_555 1_555
C7 C8 1_555 1_555
C19 C20 1_555 1_555
C29 C30 1_555 1_555
C33 C34 1_555 1_555
C37 C38 1_555 1_555
C41 C42 1_555 1_555
C45 C46 1_555 1_555

#END
