
#######################################################################
#
#                 Cambridge Crystallographic Data Centre
#                                CCDC 
#
#######################################################################
#
# If this CIF has been generated from an entry in the Cambridge 
# Structural Database, then it will include bibliographic, chemical, 
# crystal, experimental, refinement or atomic coordinate data resulting 
# from the CCDC's data processing and validation procedures.
#
#######################################################################

data_IKUXOD
_chemical_formula_moiety         'C15 H13 F3 O3'
_chemical_name_systematic        
7a-methyl-2-phenyl-2-(trifluoromethyl)-3a,4-dihydrobenzo[d][1,3]dioxol-5(7aH)-one
_symmetry_cell_setting           monoclinic
_symmetry_space_group_name_H-M   'C 2/c'
_symmetry_Int_Tables_number      15
_space_group_name_Hall           '-C 2yn'
loop_
_symmetry_equiv_pos_site_id
_symmetry_equiv_pos_as_xyz
1 x,y,z
2 -x,y,1/2-z
3 1/2+x,1/2+y,z
4 1/2-x,1/2+y,1/2-z
5 -x,-y,-z
6 x,-y,1/2+z
7 1/2-x,1/2-y,-z
8 1/2+x,1/2-y,1/2+z
_cell_length_a                   28.78(3)
_cell_length_b                   6.621(7)
_cell_length_c                   15.245(18)
_cell_angle_alpha                90
_cell_angle_beta                 106.775(15)
_cell_angle_gamma                90
_cell_volume                     2781.35
_exptl_crystal_colour            colorless
_exptl_crystal_description       block
_cell_formula_units_Z            8
_exptl_crystal_recrystallization_method 'dichloromethane/petroleum ether'
loop_
_atom_site_label
_atom_site_type_symbol
_atom_site_fract_x
_atom_site_fract_y
_atom_site_fract_z
C1 C 0.20423(10) 0.2269(5) 0.8616(2)
C2 C 0.15774(9) 0.2492(3) 0.78205(16)
C3 C 0.11374(9) 0.1870(3) 0.80988(15)
C4 C 0.10135(10) -0.0139(4) 0.81279(19)
H1 H 0.1201 -0.1138 0.7968
C5 C 0.06091(12) -0.0660(5) 0.8397(2)
H2 H 0.0527 -0.2015 0.8416
C6 C 0.03296(11) 0.0777(5) 0.8632(2)
H3 H 0.0059 0.0409 0.8813
C7 C 0.04491(11) 0.2758(5) 0.8601(2)
H4 H 0.0257 0.3746 0.8756
C8 C 0.08505(10) 0.3316(4) 0.83447(18)
H5 H 0.0930 0.4675 0.8336
C9 C 0.16502(9) 0.4654(4) 0.66827(17)
H6 H 0.1997 0.4925 0.6786
C10 C 0.13512(10) 0.6342(4) 0.61373(19)
H7 H 0.1415 0.7575 0.6496
H8 H 0.1448 0.6562 0.5586
C11 C 0.08156(10) 0.5891(4) 0.58763(17)
C12 C 0.06777(10) 0.3796(4) 0.56361(18)
H9 H 0.0354 0.3503 0.5343
C13 C 0.09943(10) 0.2305(4) 0.58195(17)
H10 H 0.0880 0.1007 0.5649
C14 C 0.15248(9) 0.2555(3) 0.62826(16)
C15 C 0.18275(12) 0.1870(4) 0.5678(2)
H11 H 0.2165 0.1918 0.6017
H12 H 0.1770 0.2744 0.5155
H13 H 0.1740 0.0511 0.5477
F1 F 0.24295(6) 0.2921(3) 0.83960(13)
F2 F 0.21320(6) 0.0356(3) 0.88775(12)
F3 F 0.20131(7) 0.3313(3) 0.93380(11)
O1 O 0.16527(6) 0.1312(2) 0.71011(11)
O2 O 0.15409(6) 0.4519(2) 0.75416(11)
O3 O 0.05199(8) 0.7210(3) 0.58533(16)
loop_
_geom_bond_atom_site_label_1
_geom_bond_atom_site_label_2
_geom_bond_site_symmetry_1
_geom_bond_site_symmetry_2
C1 C2 1_555 1_555
C2 C3 1_555 1_555
C3 C4 1_555 1_555
C4 H1 1_555 1_555
C5 C4 1_555 1_555
H2 C5 1_555 1_555
C6 C5 1_555 1_555
H3 C6 1_555 1_555
C7 C6 1_555 1_555
H4 C7 1_555 1_555
C8 C3 1_555 1_555
H5 C8 1_555 1_555
C9 H6 1_555 1_555
C10 C9 1_555 1_555
H7 C10 1_555 1_555
H8 C10 1_555 1_555
C11 C10 1_555 1_555
C12 C11 1_555 1_555
H9 C12 1_555 1_555
C13 C12 1_555 1_555
H10 C13 1_555 1_555
C14 C9 1_555 1_555
C15 C14 1_555 1_555
H11 C15 1_555 1_555
H12 C15 1_555 1_555
H13 C15 1_555 1_555
F1 C1 1_555 1_555
F2 C1 1_555 1_555
F3 C1 1_555 1_555
O1 C2 1_555 1_555
O2 C2 1_555 1_555
O3 C11 1_555 1_555
C7 C8 1_555 1_555
C9 O2 1_555 1_555
C13 C14 1_555 1_555
C14 O1 1_555 1_555

#END
