
#######################################################################
#
#                 Cambridge Crystallographic Data Centre
#                                CCDC 
#
#######################################################################
#
# If this CIF has been generated from an entry in the Cambridge 
# Structural Database, then it will include bibliographic, chemical, 
# crystal, experimental, refinement or atomic coordinate data resulting 
# from the CCDC's data processing and validation procedures.
#
#######################################################################

data_IKUYUK
_chemical_formula_moiety         'C6 H2 F1 I1 N2 S1'
_chemical_name_systematic        5-fluoro-4-iodo-2,1,3-benzothiadiazole
_symmetry_cell_setting           triclinic
_symmetry_space_group_name_H-M   'P -1'
_symmetry_Int_Tables_number      2
_space_group_name_Hall           '-P 1'
loop_
_symmetry_equiv_pos_site_id
_symmetry_equiv_pos_as_xyz
1 x,y,z
2 -x,-y,-z
_cell_length_a                   7.1942(17)
_cell_length_b                   7.6321(18)
_cell_length_c                   8.348(2)
_cell_angle_alpha                70.391(2)
_cell_angle_beta                 67.906(2)
_cell_angle_gamma                65.029(2)
_cell_volume                     376.377
_exptl_crystal_colour            colorless
_exptl_crystal_description       plate
_cell_formula_units_Z            2
loop_
_atom_site_label
_atom_site_type_symbol
_atom_site_fract_x
_atom_site_fract_y
_atom_site_fract_z
I1 I 0.43075(3) 0.26611(3) 0.22632(2)
S1 S 0.10384(14) 0.28075(15) 0.86685(10)
F1 F 0.8801(3) 0.2260(3) 0.2511(2)
N1 N 0.3175(5) 0.2602(4) 0.9036(3)
N2 N 0.1883(4) 0.2792(4) 0.6579(3)
C1 C 0.3937(5) 0.2618(4) 0.6069(4)
C2 C 0.8153(5) 0.2244(5) 0.5494(4)
H1 H 0.9596 0.2134 0.5242
C3 C 0.4706(5) 0.2508(4) 0.7475(4)
C4 C 0.6853(5) 0.2296(4) 0.7171(4)
H2 H 0.7372 0.2193 0.8102
C5 C 0.5333(5) 0.2532(4) 0.4333(4)
C6 C 0.7382(5) 0.2353(4) 0.4123(4)
loop_
_geom_bond_atom_site_label_1
_geom_bond_atom_site_label_2
_geom_bond_site_symmetry_1
_geom_bond_site_symmetry_2
I1 C5 1_555 1_555
S1 N1 1_555 1_555
F1 C6 1_555 1_555
N1 C3 1_555 1_555
N2 S1 1_555 1_555
C1 N2 1_555 1_555
C2 H1 1_555 1_555
C3 C1 1_555 1_555
C4 C2 1_555 1_555
H2 C4 1_555 1_555
C5 C1 1_555 1_555
C6 C2 1_555 1_555
C3 C4 1_555 1_555
C5 C6 1_555 1_555

#END
