
#######################################################################
#
#                 Cambridge Crystallographic Data Centre
#                                CCDC 
#
#######################################################################
#
# If this CIF has been generated from an entry in the Cambridge 
# Structural Database, then it will include bibliographic, chemical, 
# crystal, experimental, refinement or atomic coordinate data resulting 
# from the CCDC's data processing and validation procedures.
#
#######################################################################

data_ILABOM
_chemical_name_common            
'bis(1,2-orthocarboranyl-1,4-phenylene-1,4-metacarboranyl) benzene cyclohexane solvate'
_chemical_formula_moiety         'C32 H56 B40,C6 H6,6(C6 H12)'
_chemical_name_systematic        
'1,5(1,2)-di(1,2-dicarba-closo-dodecaborana)-3,7(1,7)-di(1,7-dicarba-closo-dodecaborana)-2,4,6,8(1,4)-tetrabenzenacyclooctaphane benzene cyclohexane solvate'
_symmetry_cell_setting           orthorhombic
_symmetry_space_group_name_H-M   'C m c 21'
_symmetry_Int_Tables_number      36
_space_group_name_Hall           'C 2n -2'
loop_
_symmetry_equiv_pos_site_id
_symmetry_equiv_pos_as_xyz
1 x,y,z
2 -x,-y,1/2+z
3 x,-y,1/2+z
4 -x,y,z
5 1/2+x,1/2+y,z
6 1/2-x,1/2-y,1/2+z
7 1/2+x,1/2-y,1/2+z
8 1/2-x,1/2+y,z
_cell_length_a                   33.018(10)
_cell_length_b                   22.574(6)
_cell_length_c                   12.266(3)
_cell_angle_alpha                90
_cell_angle_beta                 90
_cell_angle_gamma                90
_cell_volume                     9142.44
_exptl_crystal_colour            colorless
_exptl_crystal_description       block
_cell_formula_units_Z            4
loop_
_atom_site_label
_atom_site_type_symbol
_atom_site_fract_x
_atom_site_fract_y
_atom_site_fract_z
C1 C 0.1866(2) 0.2452(4) 0.7500(6)
C2 C 0.1872(3) 0.3170(4) 0.7964(7)
C3 C 0.0402(3) 0.1020(3) 0.7801(7)
B1 B 0.2133(3) 0.2620(4) 0.8657(8)
H1 H 0.2056 0.2465 0.9478
B2 B 0.2330(3) 0.2146(5) 0.7674(8)
H2 H 0.2380 0.1673 0.7829
B3 B 0.2165(3) 0.2399(5) 0.6381(9)
H3 H 0.2099 0.2096 0.5706
B4 B 0.1873(3) 0.3027(4) 0.6607(8)
H4 H 0.1619 0.3145 0.6073
B5 B 0.2347(3) 0.3344(5) 0.8454(9)
H5 H 0.2409 0.3645 0.9136
B6 B 0.2640(3) 0.2707(5) 0.8247(9)
H6 H 0.2890 0.2592 0.8800
B7 B 0.2662(4) 0.2568(5) 0.6819(9)
H7 H 0.2933 0.2375 0.6443
B8 B 0.2371(3) 0.3101(5) 0.6176(9)
H8 H 0.2442 0.3242 0.5342
B9 B 0.2171(3) 0.3590(5) 0.7173(8)
H9 H 0.2113 0.4062 0.7035
B10 B 0.2671(3) 0.3309(5) 0.7315(9)
H10 H 0.2937 0.3598 0.7242
B11 B 0.0270(3) 0.0684(4) 0.9022(9)
H11 H 0.0453 0.0704 0.9767
B12 B 0.0435(4) 0.0262(4) 0.7890(9)
H12 H 0.0721 0.0015 0.7904
B13 B 0.0256(3) 0.0616(5) 0.6674(9)
H13 H 0.0423 0.0603 0.5902
B14 B 0.0000 0.1254(6) 0.7071(11)
H14 H 0.0000 0.1653 0.6560
B15 B 0.0000 0.1292(7) 0.8520(10)
H15 H 0.0000 0.1720 0.8947
B16 B 0.0000 0.0041(8) 0.8598(14)
H16 H 0.0000 -0.0367 0.9087
B17 B 0.0000 -0.0004(7) 0.7182(13)
H17 H 0.0000 -0.0432 0.6759
C4 C 0.0403(2) 0.4071(3) 1.0011(6)
B18 B 0.0270(3) 0.3787(4) 1.1267(8)
H18 H 0.0446 0.3451 1.1709
B19 B 0.0429(3) 0.4523(4) 1.1146(8)
H19 H 0.0711 0.4677 1.1521
B20 B 0.0262(3) 0.4813(4) 0.9861(9)
H20 H 0.0437 0.5137 0.9388
B21 B 0.0000 0.4242(6) 0.9218(11)
H21 H 0.0000 0.4182 0.8330
B22 B 0.0000 0.3603(6) 1.0077(11)
H22 H 0.0000 0.3148 0.9760
B23 B 0.0000 0.4369(6) 1.1923(12)
H23 H 0.0000 0.4414 1.2814
B24 B 0.0000 0.4991(7) 1.1078(12)
H24 H 0.0000 0.5438 1.1429
C5 C 0.1484(3) 0.2097(3) 0.7614(7)
C6 C 0.1230(3) 0.2026(4) 0.6728(7)
H25 H 0.1293 0.2212 0.6075
C7 C 0.0893(3) 0.1680(4) 0.6789(7)
H26 H 0.0727 0.1645 0.6181
C8 C 0.0786(3) 0.1389(4) 0.7748(7)
C9 C 0.1042(3) 0.1453(4) 0.8618(8)
H27 H 0.0975 0.1281 0.9281
C10 C 0.1387(3) 0.1791(5) 0.8554(8)
H28 H 0.1561 0.1808 0.9147
C11 C 0.1497(3) 0.3412(3) 0.8479(7)
C12 C 0.1199(3) 0.3699(4) 0.7893(8)
H29 H 0.1239 0.3757 0.7152
C13 C 0.0854(3) 0.3921(4) 0.8381(7)
H30 H 0.0662 0.4121 0.7970
C14 C 0.0786(3) 0.3856(3) 0.9491(6)
C15 C 0.1091(3) 0.3598(4) 1.0093(7)
H31 H 0.1057 0.3583 1.0843
C16 C 0.1439(3) 0.3373(4) 0.9622(8)
H32 H 0.1633 0.3194 1.0059
B18C B -0.0270(3) 0.3787(4) 1.1267(8)
C4C C -0.0403(2) 0.4071(3) 1.0011(6)
B19C B -0.0429(3) 0.4523(4) 1.1146(8)
H18C H -0.0446 0.3451 1.1709
B20C B -0.0262(3) 0.4813(4) 0.9861(9)
H19C H -0.0711 0.4677 1.1521
C14C C -0.0786(3) 0.3856(3) 0.9491(6)
C13C C -0.0854(3) 0.3921(4) 0.8381(7)
C12C C -0.1199(3) 0.3699(4) 0.7893(8)
C11C C -0.1497(3) 0.3412(3) 0.8479(7)
C2C C -0.1872(3) 0.3170(4) 0.7964(7)
C1C C -0.1866(2) 0.2452(4) 0.7500(6)
B1C B -0.2133(3) 0.2620(4) 0.8657(8)
B4C B -0.1873(3) 0.3027(4) 0.6607(8)
B2C B -0.2330(3) 0.2146(5) 0.7674(8)
H1C H -0.2056 0.2465 0.9478
B5C B -0.2347(3) 0.3344(5) 0.8454(9)
B9C B -0.2171(3) 0.3590(5) 0.7173(8)
B3C B -0.2165(3) 0.2399(5) 0.6381(9)
C5C C -0.1484(3) 0.2097(3) 0.7614(7)
C6C C -0.1230(3) 0.2026(4) 0.6728(7)
H25C H -0.1293 0.2212 0.6075
C7C C -0.0893(3) 0.1680(4) 0.6789(7)
H26C H -0.0727 0.1645 0.6181
C8C C -0.0786(3) 0.1389(4) 0.7748(7)
C3C C -0.0402(3) 0.1020(3) 0.7801(7)
B11C B -0.0270(3) 0.0684(4) 0.9022(9)
H11C H -0.0453 0.0704 0.9767
B12C B -0.0435(4) 0.0262(4) 0.7890(9)
B13C B -0.0256(3) 0.0616(5) 0.6674(9)
H12C H -0.0721 0.0015 0.7904
H13C H -0.0423 0.0603 0.5902
C9C C -0.1042(3) 0.1453(4) 0.8618(8)
H27C H -0.0975 0.1281 0.9281
C10C C -0.1387(3) 0.1791(5) 0.8554(8)
H28C H -0.1561 0.1808 0.9147
H2C H -0.2380 0.1673 0.7829
B6C B -0.2640(3) 0.2707(5) 0.8247(9)
H5C H -0.2409 0.3645 0.9136
B8C B -0.2371(3) 0.3101(5) 0.6176(9)
H3C H -0.2099 0.2096 0.5706
B7C B -0.2662(4) 0.2568(5) 0.6819(9)
H6C H -0.2890 0.2592 0.8800
B10C B -0.2671(3) 0.3309(5) 0.7315(9)
H7C H -0.2933 0.2375 0.6443
H4C H -0.1619 0.3145 0.6073
H8C H -0.2442 0.3242 0.5342
H9C H -0.2113 0.4062 0.7035
H10C H -0.2937 0.3598 0.7242
C16C C -0.1439(3) 0.3373(4) 0.9622(8)
C15C C -0.1091(3) 0.3598(4) 1.0093(7)
H31C H -0.1057 0.3583 1.0843
H32C H -0.1633 0.3194 1.0059
H29C H -0.1239 0.3757 0.7152
H30C H -0.0662 0.4121 0.7970
H20C H -0.0437 0.5137 0.9388
C17 C 0.3227(13) 0.069(2) 0.770(3)
H33 H 0.2957 0.0849 0.7630
H34 H 0.3278 0.0447 0.7067
C18 C 0.3394(10) 0.1146(13) 0.809(3)
H35 H 0.3512 0.1189 0.7367
H36 H 0.3258 0.1511 0.8274
C19 C 0.3713(5) 0.0889(11) 0.887(2)
H37 H 0.3918 0.0645 0.8529
H38 H 0.3840 0.1253 0.9102
C20 C 0.3523(7) 0.0543(11) 0.9710(12)
H39 H 0.3740 0.0489 1.0229
H40 H 0.3322 0.0796 1.0051
C21 C 0.3239(8) 0.0090(8) 0.921(3)
H41 H 0.3164 -0.0082 0.9903
H42 H 0.3443 -0.0164 0.8891
C22 C 0.2974(8) 0.0387(15) 0.837(4)
H43 H 0.2741 0.0484 0.8810
H44 H 0.2939 -0.0017 0.8120
C23 C 0.0682(12) 0.1403(12) 0.243(5)
H45 H 0.0459 0.1127 0.2388
H46 H 0.0924 0.1214 0.2147
C24 C 0.0568(11) 0.1965(18) 0.182(4)
H47 H 0.0410 0.1899 0.1173
H48 H 0.0445 0.2268 0.2274
C25 C 0.0972(13) 0.2067(12) 0.1610(16)
H49 H 0.1002 0.2328 0.0990
H50 H 0.1110 0.1699 0.1455
C26 C 0.1146(5) 0.2349(10) 0.265(4)
H51 H 0.0990 0.2695 0.2849
H52 H 0.1424 0.2467 0.2530
C27 C 0.1130(8) 0.1859(19) 0.3473(19)
H53 H 0.1327 0.1552 0.3328
H54 H 0.1193 0.2033 0.4173
C28 C 0.0726(12) 0.1616(9) 0.3529(17)
H55 H 0.0525 0.1909 0.3723
H56 H 0.0716 0.1293 0.4047
C29 C 0.1425(5) 0.0171(15) 0.505(2)
H57 H 0.1312 0.0381 0.5674
H58 H 0.1230 0.0139 0.4464
C30 C 0.1900(10) 0.0412(19) 0.466(2)
H59 H 0.2084 0.0098 0.4444
H60 H 0.1898 0.0733 0.4135
C31 C 0.1940(11) 0.0604(9) 0.582(3)
H61 H 0.2127 0.0932 0.5906
H62 H 0.1680 0.0707 0.6142
C32 C 0.2090(8) 0.0093(19) 0.624(3)
H63 H 0.2280 0.0151 0.6832
H64 H 0.2202 -0.0171 0.5691
C33 C 0.1625(7) -0.0091(14) 0.6644(18)
H65 H 0.1443 0.0239 0.6776
H66 H 0.1613 -0.0387 0.7217
C34 C 0.1622(14) -0.0368(11) 0.532(3)
H67 H 0.1888 -0.0416 0.5000
H68 H 0.1457 -0.0720 0.5224
C35 C 0.0225(3) 0.3328(5) 0.4507(9)
H69 H 0.0369 0.3435 0.3888
C36 C 0.0419(4) 0.3162(8) 0.5466(11)
H70 H 0.0700 0.3149 0.5455
C37 C 0.0225(4) 0.3010(5) 0.6457(10)
H71 H 0.0370 0.2917 0.7081
C35C C -0.0225(3) 0.3328(5) 0.4507(9)
H69C H -0.0369 0.3435 0.3888
C36C C -0.0419(4) 0.3162(8) 0.5466(11)
H70C H -0.0700 0.3149 0.5455
C37C C -0.0225(4) 0.3010(5) 0.6457(10)
H71C H -0.0370 0.2917 0.7081
loop_
_geom_bond_atom_site_label_1
_geom_bond_atom_site_label_2
_geom_bond_site_symmetry_1
_geom_bond_site_symmetry_2
C1 C2 1_555 1_555
C2 B1 1_555 1_555
C3 B11 1_555 1_555
B1 C1 1_555 1_555
H1 B1 1_555 1_555
B2 C1 1_555 1_555
H2 B2 1_555 1_555
B3 C1 1_555 1_555
H3 B3 1_555 1_555
B4 C1 1_555 1_555
H4 B4 1_555 1_555
B5 C2 1_555 1_555
H5 B5 1_555 1_555
B6 B1 1_555 1_555
H6 B6 1_555 1_555
B7 B2 1_555 1_555
H7 B7 1_555 1_555
B8 B3 1_555 1_555
H8 B8 1_555 1_555
B9 C2 1_555 1_555
H9 B9 1_555 1_555
B10 B5 1_555 1_555
H10 B10 1_555 1_555
B11 H11 1_555 1_555
B12 C3 1_555 1_555
H12 B12 1_555 1_555
B13 C3 1_555 1_555
H13 B13 1_555 1_555
B14 C3 1_555 1_555
H14 B14 1_555 1_555
B15 C3 1_555 1_555
H15 B15 1_555 1_555
B16 B11 1_555 1_555
H16 B16 1_555 1_555
B17 B12 1_555 1_555
H17 B17 1_555 1_555
C4 B18 1_555 1_555
B18 H18 1_555 1_555
B19 C4 1_555 1_555
H19 B19 1_555 1_555
B20 C4 1_555 1_555
H20 B20 1_555 1_555
B21 C4 1_555 1_555
H21 B21 1_555 1_555
B22 C4 1_555 1_555
H22 B22 1_555 1_555
B23 B18 1_555 1_555
H23 B23 1_555 1_555
B24 B19 1_555 1_555
H24 B24 1_555 1_555
C5 C1 1_555 1_555
C6 C5 1_555 1_555
H25 C6 1_555 1_555
C7 C6 1_555 1_555
H26 C7 1_555 1_555
C8 C3 1_555 1_555
C9 C8 1_555 1_555
H27 C9 1_555 1_555
C10 C5 1_555 1_555
H28 C10 1_555 1_555
C11 C2 1_555 1_555
C12 C11 1_555 1_555
H29 C12 1_555 1_555
C13 C12 1_555 1_555
H30 C13 1_555 1_555
C14 C4 1_555 1_555
C15 C14 1_555 1_555
H31 C15 1_555 1_555
C16 C11 1_555 1_555
H32 C16 1_555 1_555
C17 H33 1_555 1_555
H34 C17 1_555 1_555
C18 C17 1_555 1_555
H35 C18 1_555 1_555
H36 C18 1_555 1_555
C19 C18 1_555 1_555
H37 C19 1_555 1_555
H38 C19 1_555 1_555
C20 C19 1_555 1_555
H39 C20 1_555 1_555
H40 C20 1_555 1_555
C21 C20 1_555 1_555
H41 C21 1_555 1_555
H42 C21 1_555 1_555
C22 C17 1_555 1_555
H43 C22 1_555 1_555
H44 C22 1_555 1_555
C23 H45 1_555 1_555
H46 C23 1_555 1_555
C24 C23 1_555 1_555
H47 C24 1_555 1_555
H48 C24 1_555 1_555
C25 C24 1_555 1_555
H49 C25 1_555 1_555
H50 C25 1_555 1_555
C26 C25 1_555 1_555
H51 C26 1_555 1_555
H52 C26 1_555 1_555
C27 C26 1_555 1_555
H53 C27 1_555 1_555
H54 C27 1_555 1_555
C28 C23 1_555 1_555
H55 C28 1_555 1_555
H56 C28 1_555 1_555
C29 H57 1_555 1_555
H58 C29 1_555 1_555
C30 C29 1_555 1_555
H59 C30 1_555 1_555
H60 C30 1_555 1_555
C31 C30 1_555 1_555
H61 C31 1_555 1_555
H62 C31 1_555 1_555
C32 C31 1_555 1_555
H63 C32 1_555 1_555
H64 C32 1_555 1_555
C33 C32 1_555 1_555
H65 C33 1_555 1_555
H66 C33 1_555 1_555
C34 C29 1_555 1_555
H67 C34 1_555 1_555
H68 C34 1_555 1_555
C35 H69 1_555 1_555
C36 C35 1_555 1_555
H70 C36 1_555 1_555
C37 C36 1_555 1_555
H71 C37 1_555 1_555
B18C B18 1_555 1_555
C4C B21 1_555 1_555
B19C B23 1_555 1_555
H18C B18C 1_555 1_555
B20C B20 1_555 1_555
H19C B19C 1_555 1_555
C14C C4C 1_555 1_555
C13C C14C 1_555 1_555
C12C C13C 1_555 1_555
C11C C12C 1_555 1_555
C2C C11C 1_555 1_555
C1C C2C 1_555 1_555
B1C C2C 1_555 1_555
B4C C2C 1_555 1_555
B2C C1C 1_555 1_555
H1C B1C 1_555 1_555
B5C C2C 1_555 1_555
B9C C2C 1_555 1_555
B3C C1C 1_555 1_555
C5C C1C 1_555 1_555
C6C C5C 1_555 1_555
H25C C6C 1_555 1_555
C7C C6C 1_555 1_555
H26C C7C 1_555 1_555
C8C C7C 1_555 1_555
C3C B14 1_555 1_555
B11C B11 1_555 1_555
H11C B11C 1_555 1_555
B12C B16 1_555 1_555
B13C B13 1_555 1_555
H12C B12C 1_555 1_555
H13C B13C 1_555 1_555
C9C C8C 1_555 1_555
H27C C9C 1_555 1_555
C10C C5C 1_555 1_555
H28C C10C 1_555 1_555
H2C B2C 1_555 1_555
B6C B1C 1_555 1_555
H5C B5C 1_555 1_555
B8C B4C 1_555 1_555
H3C B3C 1_555 1_555
B7C B2C 1_555 1_555
H6C B6C 1_555 1_555
B10C B5C 1_555 1_555
H7C B7C 1_555 1_555
H4C B4C 1_555 1_555
H8C B8C 1_555 1_555
H9C B9C 1_555 1_555
H10C B10C 1_555 1_555
C16C C11C 1_555 1_555
C15C C14C 1_555 1_555
H31C C15C 1_555 1_555
H32C C16C 1_555 1_555
H29C C12C 1_555 1_555
H30C C13C 1_555 1_555
H20C B20C 1_555 1_555
C35C C35 1_555 1_555
H69C C35C 1_555 1_555
C36C C35C 1_555 1_555
H70C C36C 1_555 1_555
C37C C37 1_555 1_555
H71C C37C 1_555 1_555
C2 B4 1_555 1_555
B1 B5 1_555 1_555
B1 B2 1_555 1_555
B2 B6 1_555 1_555
B2 B3 1_555 1_555
B3 B7 1_555 1_555
B3 B4 1_555 1_555
B4 B9 1_555 1_555
B4 B8 1_555 1_555
B5 B9 1_555 1_555
B5 B6 1_555 1_555
B6 B10 1_555 1_555
B6 B7 1_555 1_555
B7 B8 1_555 1_555
B7 B10 1_555 1_555
B8 B9 1_555 1_555
B8 B10 1_555 1_555
B9 B10 1_555 1_555
B11 B15 1_555 1_555
B11 B12 1_555 1_555
B12 B16 1_555 1_555
B12 B13 1_555 1_555
B13 B17 1_555 1_555
B13 B14 1_555 1_555
B14 B13C 1_555 1_555
B14 B15 1_555 1_555
B15 C3C 1_555 1_555
B15 B11C 1_555 1_555
B16 B17 1_555 1_555
B16 B11C 1_555 1_555
B17 B12C 1_555 1_555
B17 B13C 1_555 1_555
B18 B19 1_555 1_555
B18 B22 1_555 1_555
B19 B20 1_555 1_555
B19 B23 1_555 1_555
B20 B21 1_555 1_555
B20 B24 1_555 1_555
B21 B20C 1_555 1_555
B21 B22 1_555 1_555
B22 B18C 1_555 1_555
B22 C4C 1_555 1_555
B23 B18C 1_555 1_555
B23 B24 1_555 1_555
B24 B20C 1_555 1_555
B24 B19C 1_555 1_555
C7 C8 1_555 1_555
C9 C10 1_555 1_555
C13 C14 1_555 1_555
C15 C16 1_555 1_555
C21 C22 1_555 1_555
C27 C28 1_555 1_555
C33 C34 1_555 1_555
B18C C4C 1_555 1_555
B18C B19C 1_555 1_555
C4C B19C 1_555 1_555
C4C B20C 1_555 1_555
B19C B20C 1_555 1_555
C1C B1C 1_555 1_555
C1C B4C 1_555 1_555
B1C B5C 1_555 1_555
B1C B2C 1_555 1_555
B4C B3C 1_555 1_555
B4C B9C 1_555 1_555
B2C B6C 1_555 1_555
B2C B3C 1_555 1_555
B5C B6C 1_555 1_555
B5C B9C 1_555 1_555
B9C B8C 1_555 1_555
B9C B10C 1_555 1_555
B3C B7C 1_555 1_555
B3C B8C 1_555 1_555
C8C C3C 1_555 1_555
C3C B11C 1_555 1_555
C3C B13C 1_555 1_555
C3C B12C 1_555 1_555
B11C B12C 1_555 1_555
B12C B13C 1_555 1_555
C9C C10C 1_555 1_555
B6C B10C 1_555 1_555
B6C B7C 1_555 1_555
B8C B7C 1_555 1_555
B8C B10C 1_555 1_555
B7C B10C 1_555 1_555
C16C C15C 1_555 1_555
C36C C37C 1_555 1_555

#END
