
#######################################################################
#
#                 Cambridge Crystallographic Data Centre
#                                CCDC 
#
#######################################################################
#
# If this CIF has been generated from an entry in the Cambridge 
# Structural Database, then it will include bibliographic, chemical, 
# crystal, experimental, refinement or atomic coordinate data resulting 
# from the CCDC's data processing and validation procedures.
#
#######################################################################

data_ILAGIL
_chemical_formula_moiety         'C23 H25 N3 O5'
_chemical_name_systematic        
'n-propyl 4-[2-(4,6-dimethoxypyrimidin-2-yloxy)benzylamino]benzoate'
_symmetry_cell_setting           monoclinic
_symmetry_space_group_name_H-M   'P 2/n'
_symmetry_Int_Tables_number      13
_space_group_name_Hall           '-P 2yac'
loop_
_symmetry_equiv_pos_site_id
_symmetry_equiv_pos_as_xyz
1 x,y,z
2 1/2+x,-y,1/2+z
3 -x,-y,-z
4 1/2-x,y,1/2-z
_cell_length_a                   14.8504(8)
_cell_length_b                   9.4420(4)
_cell_length_c                   16.3129(9)
_cell_angle_alpha                90
_cell_angle_beta                 104.881(1)
_cell_angle_gamma                90
_cell_volume                     2210.64
_exptl_crystal_colour            colorless
_exptl_crystal_description       chunk
_chemical_melting_point          96-97deg.C
_cell_formula_units_Z            4
loop_
_atom_site_label
_atom_site_type_symbol
_atom_site_fract_x
_atom_site_fract_y
_atom_site_fract_z
O1 O 0.6249(1) 0.4398(2) 0.2255(1)
O2 O 0.6208(1) 0.3433(2) -0.05872(9)
O3 O 0.6646(1) -0.0020(1) 0.14468(9)
O4 O 0.9504(1) 0.3546(2) -0.1839(1)
O5 O 0.8894(1) 0.5387(2) -0.1307(1)
N1 N 0.6426(1) 0.2208(2) 0.1823(1)
N2 N 0.6423(1) 0.1657(2) 0.0399(1)
N3 N 0.8562(1) 0.0904(2) 0.1455(1)
C1 C 0.6117(2) 0.5890(3) 0.2108(2)
C2 C 0.6292(1) 0.3570(2) 0.1599(1)
C3 C 0.6212(1) 0.4052(2) 0.0791(1)
C4 C 0.6287(1) 0.3020(2) 0.0210(1)
C5 C 0.6493(1) 0.1358(2) 0.1205(1)
C6 C 0.6368(2) 0.2373(3) -0.1170(1)
C7 C 0.6826(1) -0.0980(2) 0.0851(1)
C8 C 0.6090(2) -0.1606(3) 0.0282(2)
C9 C 0.6260(2) -0.2609(3) -0.0270(2)
C10 C 0.7164(2) -0.2998(3) -0.0240(1)
C11 C 0.7895(2) -0.2353(2) 0.0333(1)
C12 C 0.7743(1) -0.1324(2) 0.0893(1)
C13 C 0.8551(2) -0.0623(2) 0.1519(1)
C14 C 0.8715(1) 0.1632(2) 0.0780(1)
C15 C 0.8938(1) 0.0977(2) 0.0089(1)
C16 C 0.9096(1) 0.1767(3) -0.0562(1)
C17 C 0.9026(1) 0.3239(2) -0.0574(1)
C18 C 0.8807(1) 0.3896(2) 0.0119(1)
C19 C 0.8659(1) 0.3119(2) 0.0775(1)
C20 C 0.9174(2) 0.4034(3) -0.1300(1)
C21 C 0.9013(2) 0.6275(3) -0.1999(1)
C22 C 0.8821(2) 0.7758(3) -0.1796(2)
C23 C 0.8941(2) 0.8780(3) -0.2477(2)
H1 H 0.6601(2) 0.6359(3) 0.1866(2)
H2 H 0.6138(2) 0.6311(3) 0.2659(2)
H3 H 0.5529(2) 0.6071(3) 0.1649(2)
H4 H 0.6141(1) 0.5068(2) 0.0565(1)
H5 H 0.5786(2) 0.1729(3) -0.1319(1)
H6 H 0.6996(2) 0.1929(3) -0.0979(1)
H7 H 0.6289(2) 0.2852(3) -0.1751(1)
H8 H 0.5444(2) -0.1329(3) 0.0320(2)
H9 H 0.5768(2) -0.3184(3) -0.0694(2)
H10 H 0.7329(2) -0.3760(3) -0.0627(1)
H11 H 0.8574(2) -0.2681(2) 0.0418(1)
H12 H 0.9158(2) -0.0953(2) 0.1409(1)
H13 H 0.8497(2) -0.0853(2) 0.2109(1)
H14 H 0.8503(1) 0.1549(2) 0.1943(1)
H15 H 0.8923(1) -0.0046(2) 0.0041(1)
H16 H 0.9110(1) 0.1351(3) -0.1139(1)
H17 H 0.8790(1) 0.4979(2) 0.0140(1)
H18 H 0.8453(1) 0.3587(2) 0.1253(1)
H19 H 0.8569(2) 0.5838(3) -0.2534(1)
H20 H 0.9689(2) 0.6218(3) -0.2044(1)
H21 H 0.9229(2) 0.8055(3) -0.1213(2)
H22 H 0.8139(2) 0.7874(3) -0.1783(2)
H23 H 0.8525(2) 0.8567(3) -0.3021(2)
H24 H 0.9595(2) 0.8717(3) -0.2551(2)
H25 H 0.8695(2) 0.9697(3) -0.2391(2)
loop_
_geom_bond_atom_site_label_1
_geom_bond_atom_site_label_2
_geom_bond_site_symmetry_1
_geom_bond_site_symmetry_2
O1 C1 1_555 1_555
O2 C4 1_555 1_555
O3 C5 1_555 1_555
O4 C20 1_555 1_555
O5 C20 1_555 1_555
N1 C2 1_555 1_555
N2 C4 1_555 1_555
N3 C13 1_555 1_555
C1 H1 1_555 1_555
C2 O1 1_555 1_555
C3 C2 1_555 1_555
C4 C3 1_555 1_555
C5 N1 1_555 1_555
C6 O2 1_555 1_555
C7 O3 1_555 1_555
C8 C7 1_555 1_555
C9 C8 1_555 1_555
C10 C9 1_555 1_555
C11 C10 1_555 1_555
C12 C7 1_555 1_555
C13 C12 1_555 1_555
C14 N3 1_555 1_555
C15 C14 1_555 1_555
C16 C15 1_555 1_555
C17 C16 1_555 1_555
C18 C17 1_555 1_555
C19 C14 1_555 1_555
C20 C17 1_555 1_555
C21 O5 1_555 1_555
C22 C21 1_555 1_555
C23 C22 1_555 1_555
H2 C1 1_555 1_555
H3 C1 1_555 1_555
H4 C3 1_555 1_555
H5 C6 1_555 1_555
H6 C6 1_555 1_555
H7 C6 1_555 1_555
H8 C8 1_555 1_555
H9 C9 1_555 1_555
H10 C10 1_555 1_555
H11 C11 1_555 1_555
H12 C13 1_555 1_555
H13 C13 1_555 1_555
H14 N3 1_555 1_555
H15 C15 1_555 1_555
H16 C16 1_555 1_555
H17 C18 1_555 1_555
H18 C19 1_555 1_555
H19 C21 1_555 1_555
H20 C21 1_555 1_555
H21 C22 1_555 1_555
H22 C22 1_555 1_555
H23 C23 1_555 1_555
H24 C23 1_555 1_555
H25 C23 1_555 1_555
N2 C5 1_555 1_555
C11 C12 1_555 1_555
C18 C19 1_555 1_555

#END
