
#######################################################################
#
#                 Cambridge Crystallographic Data Centre
#                                CCDC 
#
#######################################################################
#
# If this CIF has been generated from an entry in the Cambridge 
# Structural Database, then it will include bibliographic, chemical, 
# crystal, experimental, refinement or atomic coordinate data resulting 
# from the CCDC's data processing and validation procedures.
#
#######################################################################

data_ILAGOR
_chemical_formula_moiety         'C12 H8 N3 O2 1+,N1 O3 1-'
_chemical_name_systematic        '6-nitro-1,10-phenanthrolinium nitrate'
_symmetry_cell_setting           monoclinic
_symmetry_space_group_name_H-M   'C c'
_symmetry_Int_Tables_number      9
_space_group_name_Hall           'C -2yc'
loop_
_symmetry_equiv_pos_site_id
_symmetry_equiv_pos_as_xyz
1 x,y,z
2 x,-y,1/2+z
3 1/2+x,1/2+y,z
4 1/2+x,1/2-y,1/2+z
_cell_length_a                   13.861(3)
_cell_length_b                   10.142(2)
_cell_length_c                   8.7320(17)
_cell_angle_alpha                90
_cell_angle_beta                 103.70(3)
_cell_angle_gamma                90
_cell_volume                     1192.61
_exptl_crystal_colour            yellow
_exptl_crystal_description       prismatic
_cell_formula_units_Z            4
_exptl_crystal_recrystallization_method 'aqueous nitric acid'
loop_
_atom_site_label
_atom_site_type_symbol
_atom_site_fract_x
_atom_site_fract_y
_atom_site_fract_z
O1 O 0.7308(3) -0.3655(3) 0.7224(4)
O2 O 0.6904(3) -0.3007(3) 0.9352(4)
N1 N 0.9656(2) 0.0210(3) 0.6590(4)
N2 N 0.8667(2) 0.2248(3) 0.7458(3)
N3 N 0.7285(2) -0.2828(3) 0.8240(4)
C1 C 1.0147(3) -0.0778(4) 0.6135(5)
H1 H 1.0669 -0.0589 0.5671
C2 C 0.9904(3) -0.2104(5) 0.6328(5)
C3 C 0.9131(3) -0.2410(4) 0.6974(4)
H2 H 0.8976 -0.3286 0.7117
C4 C 0.8567(3) -0.1391(4) 0.7426(4)
C5 C 0.8885(2) -0.0080(4) 0.7215(4)
C6 C 0.7719(3) -0.1526(4) 0.8100(4)
C7 C 0.7243(3) -0.0491(4) 0.8556(4)
C8 C 0.7559(3) 0.0821(4) 0.8368(4)
C9 C 0.7093(3) 0.1943(4) 0.8825(5)
C10 C 0.7431(3) 0.3160(4) 0.8579(5)
H3 H 0.7128 0.3904 0.8880
C11 C 0.8221(3) 0.3301(4) 0.7886(5)
C12 C 0.8364(2) 0.1006(3) 0.7681(4)
H4 H 0.654(3) 0.181(4) 0.932(6)
H5 H 0.656(3) -0.060(4) 0.889(5)
H6 H 0.919(3) 0.250(6) 0.715(6)
H7 H 0.851(3) 0.421(4) 0.775(5)
H8 H 1.030(4) -0.290(5) 0.604(6)
O3 O 1.0450(4) 0.4931(4) 0.5013(9)
O4 O 0.9001(3) 0.4439(4) 0.5224(5)
O5 O 1.0225(3) 0.3193(3) 0.6233(5)
N4 N 0.9894(3) 0.4196(3) 0.5498(5)
loop_
_geom_bond_atom_site_label_1
_geom_bond_atom_site_label_2
_geom_bond_site_symmetry_1
_geom_bond_site_symmetry_2
O1 N3 1_555 1_555
O2 N3 1_555 1_555
O3 N4 1_555 1_555
O4 N4 1_555 1_555
O5 N4 1_555 1_555
N1 C1 1_555 1_555
N2 C11 1_555 1_555
N3 C6 1_555 1_555
C1 H1 1_555 1_555
C2 C1 1_555 1_555
C3 C2 1_555 1_555
H2 C3 1_555 1_555
C4 C3 1_555 1_555
C5 N1 1_555 1_555
C6 C4 1_555 1_555
C7 C6 1_555 1_555
C8 C7 1_555 1_555
C9 C8 1_555 1_555
C10 C9 1_555 1_555
H3 C10 1_555 1_555
C11 C10 1_555 1_555
C12 N2 1_555 1_555
H4 C9 1_555 1_555
H5 C7 1_555 1_555
H6 N2 1_555 1_555
H7 C11 1_555 1_555
H8 C2 1_555 1_555
C4 C5 1_555 1_555
C5 C12 1_555 1_555
C8 C12 1_555 1_555

#END
