
#######################################################################
#
#                 Cambridge Crystallographic Data Centre
#                                CCDC 
#
#######################################################################
#
# If this CIF has been generated from an entry in the Cambridge 
# Structural Database, then it will include bibliographic, chemical, 
# crystal, experimental, refinement or atomic coordinate data resulting 
# from the CCDC's data processing and validation procedures.
#
#######################################################################

data_ILALIS
_chemical_formula_moiety         'C25 H24 O5'
_chemical_name_systematic        
'Dimethyl 4a,9-dimethyl-7-oxo-4-phenyl-1,3,4a,7-tetrahydro-2H-cyclopenta[b]naphthalene-2,2-dicarboxylate'
_symmetry_cell_setting           monoclinic
_symmetry_space_group_name_H-M   'P 21/n'
_symmetry_Int_Tables_number      14
_space_group_name_Hall           '-P 2yn'
loop_
_symmetry_equiv_pos_site_id
_symmetry_equiv_pos_as_xyz
1 x,y,z
2 1/2-x,1/2+y,1/2-z
3 -x,-y,-z
4 1/2+x,1/2-y,1/2+z
_cell_length_a                   7.7075(12)
_cell_length_b                   13.3284(19)
_cell_length_c                   20.650(3)
_cell_angle_alpha                90
_cell_angle_beta                 94.149(3)
_cell_angle_gamma                90
_cell_volume                     2115.79
_exptl_crystal_colour            colorless
_exptl_crystal_description       block
_cell_formula_units_Z            4
loop_
_atom_site_label
_atom_site_type_symbol
_atom_site_fract_x
_atom_site_fract_y
_atom_site_fract_z
C1 C 0.2569(4) 0.2056(3) -0.06682(15)
C2 C 0.1545(5) 0.2581(3) -0.11202(18)
H1 H 0.1618 0.3277 -0.1134
C3 C 0.1273(8) 0.0540(4) -0.1084(3)
H2 H 0.1166 -0.0154 -0.1063
C4 C 0.0291(7) 0.1060(5) -0.1544(3)
H3 H -0.0448 0.0722 -0.1846
C5 C 0.2421(6) 0.1026(3) -0.0650(2)
H4 H 0.3099 0.0658 -0.0343
C6 C 0.0400(6) 0.2078(5) -0.15576(19)
H5 H -0.0296 0.2440 -0.1862
C7 C 0.4532(4) 0.3184(2) 0.09257(15)
C8 C 0.3766(4) 0.2582(2) -0.01774(16)
C9 C 0.5982(4) 0.3673(2) 0.07817(15)
C10 C 0.3346(4) 0.2722(2) 0.04322(15)
C11 C 0.6402(4) 0.3687(2) 0.01049(16)
C12 C 0.5612(4) 0.2868(3) -0.03402(16)
C13 C 0.7503(5) 0.4371(3) -0.01265(17)
H6 H 0.8099 0.4802 0.0165
C14 C 0.7788(5) 0.4458(3) -0.08095(18)
C15 C 0.5788(5) 0.3079(3) -0.10383(17)
H7 H 0.5148 0.2689 -0.1343
C16 C 0.6801(5) 0.3789(3) -0.12539(18)
H8 H 0.6882 0.3862 -0.1699
C17 C 0.3772(4) 0.3078(2) 0.15737(15)
H9 H 0.3237 0.3700 0.1700
H10 H 0.4658 0.2886 0.1908
C18 C 0.1720(4) 0.2391(2) 0.07402(15)
H11 H 0.1266 0.1770 0.0550
H12 H 0.0822 0.2902 0.0698
C19 C 0.2399(4) 0.2242(2) 0.14581(15)
C20 C 0.0968(5) 0.2311(3) 0.19241(17)
C21 C 0.3265(5) 0.1219(3) 0.15360(18)
O1 O 0.1022(4) 0.2822(2) 0.23999(14)
O2 O 0.3613(5) 0.0687(2) 0.11067(15)
O3 O 0.3623(4) 0.09953(19) 0.21524(12)
O4 O -0.0329(3) 0.1706(2) 0.17531(13)
C22 C 0.4419(6) 0.0025(3) 0.2292(2)
H13 H 0.3700 -0.0493 0.2092
H14 H 0.4536 -0.0079 0.2753
H15 H 0.5547 0.0005 0.2123
C23 C -0.1771(6) 0.1687(4) 0.2168(2)
H16 H -0.1471 0.1276 0.2542
H17 H -0.2782 0.1416 0.1932
H18 H -0.2014 0.2357 0.2306
C24 C 0.6760(5) 0.1905(3) -0.0187(2)
H19 H 0.6310 0.1356 -0.0449
H20 H 0.6729 0.1735 0.0264
H21 H 0.7938 0.2038 -0.0283
C25 C 0.7080(5) 0.4252(3) 0.12874(17)
H22 H 0.6917 0.4958 0.1215
H23 H 0.8283 0.4085 0.1258
H24 H 0.6739 0.4081 0.1712
O5 O 0.8835(4) 0.5070(2) -0.10084(13)
loop_
_geom_bond_atom_site_label_1
_geom_bond_atom_site_label_2
_geom_bond_site_symmetry_1
_geom_bond_site_symmetry_2
C1 C2 1_555 1_555
C2 H1 1_555 1_555
C3 H2 1_555 1_555
C4 C3 1_555 1_555
H3 C4 1_555 1_555
C5 C1 1_555 1_555
H4 C5 1_555 1_555
C6 C2 1_555 1_555
H5 C6 1_555 1_555
C7 C9 1_555 1_555
C8 C1 1_555 1_555
C9 C11 1_555 1_555
C10 C7 1_555 1_555
C11 C12 1_555 1_555
C12 C8 1_555 1_555
C13 C11 1_555 1_555
H6 C13 1_555 1_555
C14 C13 1_555 1_555
C15 C12 1_555 1_555
H7 C15 1_555 1_555
C16 C14 1_555 1_555
H8 C16 1_555 1_555
C17 C7 1_555 1_555
H9 C17 1_555 1_555
H10 C17 1_555 1_555
C18 C10 1_555 1_555
H11 C18 1_555 1_555
H12 C18 1_555 1_555
C19 C17 1_555 1_555
C20 C19 1_555 1_555
C21 C19 1_555 1_555
O1 C20 1_555 1_555
O2 C21 1_555 1_555
O3 C21 1_555 1_555
O4 C20 1_555 1_555
C22 O3 1_555 1_555
H13 C22 1_555 1_555
H14 C22 1_555 1_555
H15 C22 1_555 1_555
C23 O4 1_555 1_555
H16 C23 1_555 1_555
H17 C23 1_555 1_555
H18 C23 1_555 1_555
C24 C12 1_555 1_555
H19 C24 1_555 1_555
H20 C24 1_555 1_555
H21 C24 1_555 1_555
C25 C9 1_555 1_555
H22 C25 1_555 1_555
H23 C25 1_555 1_555
H24 C25 1_555 1_555
O5 C14 1_555 1_555
C3 C5 1_555 1_555
C4 C6 1_555 1_555
C8 C10 1_555 1_555
C15 C16 1_555 1_555
C18 C19 1_555 1_555

#END
