
#######################################################################
#
#                 Cambridge Crystallographic Data Centre
#                                CCDC 
#
#######################################################################
#
# If this CIF has been generated from an entry in the Cambridge 
# Structural Database, then it will include bibliographic, chemical, 
# crystal, experimental, refinement or atomic coordinate data resulting 
# from the CCDC's data processing and validation procedures.
#
#######################################################################

data_ILAYIF
_chemical_formula_moiety         'C18 H15 F3 N2 O2'
_chemical_name_systematic        
2-amino-7,7-dimethyl-5-oxo-4-(3,4,5-trifluorophenyl)-5,6,7,8-tetrahydro-4H-chromene-3-carbonitrile
_symmetry_cell_setting           monoclinic
_symmetry_space_group_name_H-M   'P 21/n'
_symmetry_Int_Tables_number      14
_space_group_name_Hall           '-P 2yn'
loop_
_symmetry_equiv_pos_site_id
_symmetry_equiv_pos_as_xyz
1 x,y,z
2 1/2-x,1/2+y,1/2-z
3 -x,-y,-z
4 1/2+x,1/2-y,1/2+z
_cell_length_a                   9.5271(8)
_cell_length_b                   17.2629(9)
_cell_length_c                   10.5560(9)
_cell_angle_alpha                90
_cell_angle_beta                 113.526(4)
_cell_angle_gamma                90
_cell_volume                     1591.79
_exptl_crystal_colour            colorless
_exptl_crystal_description       Prism
_cell_formula_units_Z            4
loop_
_atom_site_label
_atom_site_type_symbol
_atom_site_fract_x
_atom_site_fract_y
_atom_site_fract_z
C1 C 0.55851(16) 0.13948(8) 0.12063(15)
C2 C 0.61123(16) 0.18311(8) 0.23423(15)
C3 C 0.50636(18) 0.20222(9) 0.30019(16)
C4 C 0.35149(19) 0.16421(10) 0.24631(19)
H1 H 0.2779 0.1992 0.1816
H2 H 0.3212 0.1563 0.3229
C5 C 0.34365(16) 0.08667(9) 0.17453(16)
C6 C 0.40835(17) 0.09862(10) 0.06457(17)
H3 H 0.4208 0.0486 0.0284
H4 H 0.3361 0.1285 -0.0112
C7 C 0.4362(2) 0.02559(11) 0.2783(2)
H5 H 0.4306 -0.0227 0.2315
H6 H 0.3953 0.0191 0.3473
H7 H 0.5411 0.0419 0.3217
C8 C 0.17714(19) 0.05994(11) 0.1032(2)
H8 H 0.1735 0.0113 0.0580
H9 H 0.1194 0.0979 0.0362
H10 H 0.1341 0.0539 0.1708
C9 C 0.75887(16) 0.17730(8) 0.05687(15)
C10 C 0.81761(16) 0.22417(8) 0.16873(15)
C11 C 0.77093(16) 0.21649(8) 0.28918(15)
H11 H 0.7668 0.2686 0.3245
C12 C 0.93280(18) 0.27755(9) 0.17439(16)
C13 C 0.88227(16) 0.16780(8) 0.40880(14)
C14 C 0.8535(2) 0.15467(10) 0.52644(17)
H12 H 0.7671 0.1759 0.5333
C15 C 0.9525(2) 0.11051(11) 0.63179(17)
C16 C 1.0825(2) 0.07884(10) 0.62617(17)
C17 C 1.10986(19) 0.09176(11) 0.51023(19)
C18 C 1.01219(18) 0.13543(10) 0.40192(17)
H13 H 1.0333 0.1432 0.3241
O1 O 0.63978(12) 0.12793(6) 0.04019(11)
O2 O 0.54314(14) 0.25053(7) 0.39347(13)
N1 N 0.80388(15) 0.16998(9) -0.04708(14)
H14 H 0.8791 0.1972 -0.0479
H15 H 0.7576 0.1381 -0.1132
N2 N 1.0272(2) 0.32019(10) 0.18045(19)
F1 F 0.92342(18) 0.09620(9) 0.74434(12)
F2 F 1.17821(16) 0.03559(8) 0.73068(12)
F3 F 1.23393(14) 0.05920(9) 0.50169(14)
loop_
_geom_bond_atom_site_label_1
_geom_bond_atom_site_label_2
_geom_bond_site_symmetry_1
_geom_bond_site_symmetry_2
C1 C2 1_555 1_555
C2 C3 1_555 1_555
C3 C4 1_555 1_555
C4 H1 1_555 1_555
H2 C4 1_555 1_555
C5 C4 1_555 1_555
C6 C1 1_555 1_555
H3 C6 1_555 1_555
H4 C6 1_555 1_555
C7 C5 1_555 1_555
H5 C7 1_555 1_555
H6 C7 1_555 1_555
H7 C7 1_555 1_555
C8 C5 1_555 1_555
H8 C8 1_555 1_555
H9 C8 1_555 1_555
H10 C8 1_555 1_555
C9 C10 1_555 1_555
C10 C11 1_555 1_555
C11 C2 1_555 1_555
H11 C11 1_555 1_555
C12 C10 1_555 1_555
C13 C11 1_555 1_555
C14 C13 1_555 1_555
H12 C14 1_555 1_555
C15 C14 1_555 1_555
C16 C15 1_555 1_555
C17 C16 1_555 1_555
C18 C13 1_555 1_555
H13 C18 1_555 1_555
O1 C1 1_555 1_555
O2 C3 1_555 1_555
N1 C9 1_555 1_555
H14 N1 1_555 1_555
H15 N1 1_555 1_555
N2 C12 1_555 1_555
F1 C15 1_555 1_555
F2 C16 1_555 1_555
F3 C17 1_555 1_555
C5 C6 1_555 1_555
C9 O1 1_555 1_555
C17 C18 1_555 1_555

#END
