
#######################################################################
#
#                 Cambridge Crystallographic Data Centre
#                                CCDC 
#
#######################################################################
#
# If this CIF has been generated from an entry in the Cambridge 
# Structural Database, then it will include bibliographic, chemical, 
# crystal, experimental, refinement or atomic coordinate data resulting 
# from the CCDC's data processing and validation procedures.
#
#######################################################################

data_ILEKEP
_chemical_formula_moiety         'C9 Cl6 N10'
_chemical_name_systematic        tris(4,6-Dichloro-1,3,5-triazin-2-yl)amine
_symmetry_cell_setting           rhombohedral
_symmetry_space_group_name_H-M   'R -3'
_symmetry_Int_Tables_number      148
_space_group_name_Hall           '-R 3'
loop_
_symmetry_equiv_pos_site_id
_symmetry_equiv_pos_as_xyz
1 x,y,z
2 -y,x-y,z
3 -x+y,-x,z
4 2/3+x,1/3+y,1/3+z
5 2/3-y,1/3+x-y,1/3+z
6 2/3-x+y,1/3-x,1/3+z
7 1/3+x,2/3+y,2/3+z
8 1/3-y,2/3+x-y,2/3+z
9 1/3-x+y,2/3-x,2/3+z
10 -x,-y,-z
11 y,-x+y,-z
12 x-y,x,-z
13 1/3-x,2/3-y,2/3-z
14 1/3+y,2/3-x+y,2/3-z
15 1/3+x-y,2/3+x,2/3-z
16 2/3-x,1/3-y,1/3-z
17 2/3+y,1/3-x+y,1/3-z
18 2/3+x-y,1/3+x,1/3-z
_cell_length_a                   19.278(2)
_cell_length_b                   19.278(2)
_cell_length_c                   7.4379(11)
_cell_angle_alpha                90
_cell_angle_beta                 90
_cell_angle_gamma                120
_cell_volume                     2393.89
_exptl_crystal_colour            colorless
_exptl_crystal_description       needle
_cell_formula_units_Z            6
loop_
_atom_site_label
_atom_site_type_symbol
_atom_site_fract_x
_atom_site_fract_y
_atom_site_fract_z
Cl1 Cl 0.21891(2) 0.26450(2) 0.06720(5)
Cl2 Cl 0.27179(2) 0.06781(3) 0.43574(5)
N1 N 0.10586(7) 0.12366(7) 0.16085(16)
N2 N 0.0000 0.0000 0.2502(3)
N3 N 0.23852(7) 0.16136(7) 0.25160(16)
C1 C 0.20632(9) 0.09026(9) 0.3301(2)
N4 N 0.12951(7) 0.03472(7) 0.33833(16)
C2 C 0.08304(9) 0.05572(9) 0.24951(19)
C3 C 0.18424(9) 0.17369(9) 0.17103(18)
C2A C -0.05572(9) 0.02732(13) 0.24951(19)
N1A N -0.12366(7) -0.01780(10) 0.16085(16)
C3A C -0.17369(9) 0.01055(13) 0.17103(18)
Cl1A Cl -0.26450(2) -0.04559(3) 0.06720(5)
N3A N -0.16136(7) 0.07716(10) 0.25160(16)
C1A C -0.09026(9) 0.11606(13) 0.3301(2)
Cl2A Cl -0.06781(3) 0.20398(4) 0.43574(5)
N4A N -0.03472(7) 0.09479(10) 0.33833(16)
C2B C -0.02732(13) -0.08304(9) 0.24951(19)
N1B N 0.01780(10) -0.10586(7) 0.16085(16)
C3B C -0.01055(13) -0.18424(9) 0.17103(18)
Cl1B Cl 0.04559(3) -0.21891(2) 0.06720(5)
N3B N -0.07716(10) -0.23852(7) 0.25160(16)
C1B C -0.11606(13) -0.20632(9) 0.3301(2)
Cl2B Cl -0.20398(4) -0.27179(2) 0.43574(5)
N4B N -0.09479(10) -0.12951(7) 0.33833(16)
loop_
_geom_bond_atom_site_label_1
_geom_bond_atom_site_label_2
_geom_bond_site_symmetry_1
_geom_bond_site_symmetry_2
Cl1 C3 1_555 1_555
Cl2 C1 1_555 1_555
N1 C2 1_555 1_555
N2 C2 1_555 1_555
N3 C1 1_555 1_555
C1 N4 1_555 1_555
N4 C2 1_555 1_555
C3 N1 1_555 1_555
C2A N2 1_555 1_555
N1A C2A 1_555 1_555
C3A N1A 1_555 1_555
Cl1A C3A 1_555 1_555
N3A C3A 1_555 1_555
C1A N3A 1_555 1_555
Cl2A C1A 1_555 1_555
N4A C2A 1_555 1_555
C2B N2 1_555 1_555
N1B C2B 1_555 1_555
C3B N1B 1_555 1_555
Cl1B C3B 1_555 1_555
N3B C3B 1_555 1_555
C1B N3B 1_555 1_555
Cl2B C1B 1_555 1_555
N4B C2B 1_555 1_555
N3 C3 1_555 1_555
C1A N4A 1_555 1_555
C1B N4B 1_555 1_555

#END
