
#######################################################################
#
#                 Cambridge Crystallographic Data Centre
#                                CCDC 
#
#######################################################################
#
# If this CIF has been generated from an entry in the Cambridge 
# Structural Database, then it will include bibliographic, chemical, 
# crystal, experimental, refinement or atomic coordinate data resulting 
# from the CCDC's data processing and validation procedures.
#
#######################################################################

data_ILEKUF
_chemical_formula_moiety         'C39 H48 N2 O6'
_chemical_name_systematic        
16,16-Dimethyl-5,8,11,21,24,27-hexaoxa-44,45-diazapentacyclo[29.8.2^12,15^.2^17,20^.1^1,36^.1^31,35^]pentatetraconta-1(45),12,14,17,19,31,33,35(44),36,38,40,42-dodecaene
_symmetry_cell_setting           triclinic
_symmetry_space_group_name_H-M   'P -1'
_symmetry_Int_Tables_number      2
_space_group_name_Hall           '-P 1'
loop_
_symmetry_equiv_pos_site_id
_symmetry_equiv_pos_as_xyz
1 x,y,z
2 -x,-y,-z
_cell_length_a                   15.6356(2)
_cell_length_b                   21.2472(3)
_cell_length_c                   23.4524(4)
_cell_angle_alpha                95.775(5)
_cell_angle_beta                 107.462(5)
_cell_angle_gamma                108.025(5)
_cell_volume                     6904.75
_exptl_crystal_colour            colorless
_exptl_crystal_description       prism
_cell_formula_units_Z            8
loop_
_atom_site_label
_atom_site_type_symbol
_atom_site_fract_x
_atom_site_fract_y
_atom_site_fract_z
N1 N 1.6695(3) 1.0745(2) -0.0193(2)
C1 C 1.6374(3) 1.0198(2) -0.0648(2)
C2 C 1.5960(3) 0.9551(2) -0.0571(2)
C3 C 1.5863(4) 0.9457(2) -0.0017(2)
C4 C 1.6187(3) 1.0015(2) 0.0454(2)
C5 C 1.6595(3) 1.0656(2) 0.0349(2)
C6 C 1.6968(3) 1.1285(2) 0.0829(2)
C7 C 1.7438(3) 1.1911(3) 0.0732(2)
C8 C 1.7753(4) 1.2476(2) 0.1186(3)
C9 C 1.7606(4) 1.2408(3) 0.1728(2)
C10 C 1.7150(3) 1.1769(2) 0.1805(2)
N2 N 1.6832(3) 1.1211(2) 0.1364(2)
C11 C 1.6997(4) 1.1656(3) 0.2396(2)
C12 C 1.5974(4) 1.1248(3) 0.2314(2)
C13 C 1.5838(4) 1.1131(3) 0.2911(3)
O1 O 1.4929(2) 1.0632(2) 0.2782(2)
C14 C 1.4741(4) 1.0435(3) 0.3305(3)
C15 C 1.3970(4) 0.9753(3) 0.3109(3)
O2 O 1.4336(2) 0.9277(2) 0.2903(2)
C16 C 1.3672(3) 0.8607(3) 0.2739(2)
C17 C 1.4033(4) 0.8160(3) 0.2415(2)
O3 O 1.3891(2) 0.8278(2) 0.1809(1)
C18 C 1.4140(3) 0.7888(2) 0.1432(2)
C19 C 1.3978(3) 0.7996(2) 0.0839(2)
C20 C 1.4190(3) 0.7624(2) 0.0425(2)
C21 C 1.4575(3) 0.7122(2) 0.0574(2)
C22 C 1.4739(4) 0.7031(2) 0.1170(3)
C23 C 1.4523(4) 0.7410(3) 0.1592(2)
C24 C 1.4697(3) 0.6661(2) 0.0086(2)
C25 C 1.3740(4) 0.6070(3) -0.0212(3)
C26 C 1.5468(4) 0.6364(3) 0.0377(3)
C27 C 1.4996(3) 0.7050(2) -0.0375(2)
C28 C 1.4377(4) 0.6955(3) -0.0972(3)
C29 C 1.4658(3) 0.7303(3) -0.1386(2)
C30 C 1.5581(3) 0.7751(2) -0.1224(2)
C31 C 1.6216(3) 0.7868(3) -0.0635(2)
C32 C 1.5915(3) 0.7523(3) -0.0223(2)
O4 O 1.5801(2) 0.8059(2) -0.1683(2)
C33 C 1.6786(4) 0.8381(3) -0.1602(3)
C34 C 1.6847(4) 0.8512(3) -0.2206(3)
O5 O 1.7804(2) 0.8642(2) -0.2184(2)
C35 C 1.8291(3) 0.9289(3) -0.2282(2)
C36 C 1.8691(4) 0.9852(3) -0.1728(3)
O6 O 1.7926(2) 1.0044(2) -0.1662(2)
C37 C 1.8210(4) 1.0544(3) -0.1118(3)
C38 C 1.7447(4) 1.0841(3) -0.1185(2)
C39 C 1.6477(3) 1.0347(3) -0.1242(2)
H1 H 1.5743 0.9172 -0.0899
H2 H 1.5577 0.9015 0.0041
H3 H 1.6134 0.9963 0.0841
H4 H 1.7541 1.1949 0.0356
H5 H 1.8071 1.2911 0.1126
H6 H 1.7813 1.2795 0.2046
H7 H 1.7176 1.2085 0.2653
H8 H 1.7397 1.1423 0.2587
H9 H 1.5791 1.0820 0.2053
H10 H 1.5574 1.1483 0.2128
H11 H 1.5875 1.1541 0.3139
H12 H 1.6323 1.0983 0.3142
H13 H 1.4537 1.0753 0.3490
H14 H 1.5307 1.0417 0.3590
H15 H 1.3431 0.9756 0.2787
H16 H 1.3781 0.9635 0.3445
H17 H 1.3067 0.8591 0.2476
H18 H 1.3605 0.8457 0.3096
H19 H 1.3688 0.7699 0.2396
H20 H 1.4697 0.8263 0.2629
H21 H 1.3718 0.8331 0.0721
H22 H 1.4073 0.7709 0.0024
H23 H 1.5006 0.6700 0.1295
H24 H 1.4645 0.7333 0.1996
H25 H 1.3788 0.5770 -0.0520
H26 H 1.3590 0.5834 0.0089
H27 H 1.3248 0.6238 -0.0391
H28 H 1.5532 0.6079 0.0065
H29 H 1.6065 0.6723 0.0587
H30 H 1.5282 0.6108 0.0657
H31 H 1.3739 0.6639 -0.1095
H32 H 1.4212 0.7234 -0.1786
H33 H 1.6854 0.8184 -0.0516
H34 H 1.6355 0.7611 0.0183
H35 H 1.7130 0.8095 -0.1464
H36 H 1.7051 0.8797 -0.1310
H37 H 1.6674 0.8894 -0.2286
H38 H 1.6422 0.8127 -0.2520
H39 H 1.7850 0.9395 -0.2600
H40 H 1.8806 0.9260 -0.2405
H41 H 1.9162 1.0228 -0.1778
H42 H 1.8974 0.9702 -0.1375
H43 H 1.8802 1.0888 -0.1067
H44 H 1.8281 1.0339 -0.0773
H45 H 1.7372 1.1026 -0.1542
H46 H 1.7653 1.1193 -0.0836
H47 H 1.6004 1.0528 -0.1428
H48 H 1.6366 0.9932 -0.1498
N3 N 0.6853(3) 0.5623(2) -0.5046(2)
C40 C 0.6590(3) 0.5080(2) -0.5492(2)
C41 C 0.6095(4) 0.4431(3) -0.5446(2)
C42 C 0.5868(4) 0.4348(3) -0.4930(3)
C43 C 0.6127(4) 0.4899(3) -0.4469(3)
C44 C 0.6619(3) 0.5530(2) -0.4543(2)
C45 C 0.6958(3) 0.6152(2) -0.4063(2)
C46 C 0.7505(3) 0.6780(3) -0.4122(2)
C47 C 0.7814(3) 0.7338(3) -0.3650(3)
C48 C 0.7554(3) 0.7258(3) -0.3138(2)
C49 C 0.7007(3) 0.6613(3) -0.3109(2)
N4 N 0.6721(3) 0.6069(2) -0.3562(2)
C50 C 0.6685(4) 0.6485(3) -0.2576(2)
C51 C 0.5611(4) 0.6127(3) -0.2763(3)
C52 C 0.5264(4) 0.6036(3) -0.2235(3)
O7 O 0.5688(2) 0.5624(2) -0.1904(2)
C53 C 0.5315(4) 0.5430(3) -0.1437(3)
C54 C 0.4373(4) 0.4857(3) -0.1682(3)
O8 O 0.4513(2) 0.4285(2) -0.1955(2)
C55 C 0.3667(4) 0.3755(3) -0.2305(3)
C56 C 0.3897(4) 0.3263(3) -0.2685(3)
O9 O 0.3953(2) 0.3485(2) -0.3238(2)
C57 C 0.4157(3) 0.3085(3) -0.3642(3)
C58 C 0.4004(4) 0.3211(3) -0.4227(3)
C59 C 0.4149(4) 0.2813(3) -0.4655(2)
C60 C 0.4441(3) 0.2264(3) -0.4540(2)
C61 C 0.4629(4) 0.2170(3) -0.3951(3)
C62 C 0.4483(4) 0.2568(3) -0.3507(3)
C63 C 0.4455(4) 0.1786(3) -0.5070(3)
C64 C 0.3413(4) 0.1447(3) -0.5514(3)
C65 C 0.4803(4) 0.1222(3) -0.4850(3)
C66 C 0.5111(3) 0.2172(2) -0.5383(2)
C67 C 0.4785(3) 0.2229(3) -0.5989(2)
C68 C 0.5417(3) 0.2565(3) -0.6267(2)
C69 C 0.6381(3) 0.2834(3) -0.5944(2)
C70 C 0.6713(4) 0.2794(3) -0.5342(3)
C71 C 0.6095(4) 0.2472(3) -0.5069(2)
O10 O 0.7061(2) 0.3156(2) -0.6182(2)
C72 C 0.6753(3) 0.3304(3) -0.6767(2)
C73 C 0.7635(4) 0.3756(3) -0.6854(3)
O11 O 0.7305(3) 0.3987(2) -0.7394(2)
C74 C 0.8055(4) 0.4496(3) -0.7502(3)
C75 C 0.8542(4) 0.5134(3) -0.7014(3)
O12 O 0.7852(2) 0.5405(2) -0.6941(2)
C76 C 0.8190(4) 0.5887(3) -0.6376(3)
C77 C 0.7933(4) 0.5569(3) -0.5883(3)
C78 C 0.6857(4) 0.5215(3) -0.6043(2)
H49 H 0.5916 0.4052 -0.5766
H50 H 0.5531 0.3908 -0.4890
H51 H 0.5972 0.4847 -0.4111
H52 H 0.7665 0.6826 -0.4480
H53 H 0.8199 0.7770 -0.3677
H54 H 0.7746 0.7635 -0.2814
H55 H 0.6865 0.6907 -0.2309
H56 H 0.6997 0.6212 -0.2367
H57 H 0.5440 0.5692 -0.3008
H58 H 0.5301 0.6385 -0.2998
H59 H 0.4585 0.5824 -0.2384
H60 H 0.5445 0.6464 -0.1977
H61 H 0.5233 0.5808 -0.1238
H62 H 0.5762 0.5297 -0.1149
H63 H 0.3922 0.4977 -0.1979
H64 H 0.4143 0.4753 -0.1358
H65 H 0.3241 0.3928 -0.2565
H66 H 0.3375 0.3533 -0.2043
H67 H 0.3407 0.2829 -0.2788
H68 H 0.4495 0.3236 -0.2458
H69 H 0.3799 0.3575 -0.4329
H70 H 0.4046 0.2913 -0.5051
H71 H 0.4866 0.1821 -0.3842
H72 H 0.4610 0.2481 -0.3107
H73 H 0.3024 0.1211 -0.5304
H74 H 0.3182 0.1784 -0.5666
H75 H 0.3389 0.1137 -0.5845
H76 H 0.4401 0.0975 -0.4654
H77 H 0.4779 0.0926 -0.5191
H78 H 0.5445 0.1417 -0.4570
H79 H 0.4117 0.2036 -0.6220
H80 H 0.5177 0.2606 -0.6679
H81 H 0.7381 0.2993 -0.5112
H82 H 0.6344 0.2453 -0.4652
H83 H 0.6310 0.3530 -0.6787
H84 H 0.6457 0.2898 -0.7073
H85 H 0.8033 0.3509 -0.6899
H86 H 0.7986 0.4128 -0.6515
H87 H 0.7784 0.4610 -0.7879
H88 H 0.8525 0.4311 -0.7530
H89 H 0.9001 0.5454 -0.7130
H90 H 0.8857 0.5035 -0.6639
H91 H 0.7913 0.6225 -0.6442
H92 H 0.8869 0.6090 -0.6247
H93 H 0.8168 0.5912 -0.5523
H94 H 0.8234 0.5244 -0.5806
H95 H 0.6537 0.5495 -0.6232
H96 H 0.6654 0.4796 -0.6321
N5 N 0.9065(3) 0.6093(2) 0.1824(2)
C79 C 0.8939(3) 0.5579(2) 0.1390(2)
C80 C 0.8283(4) 0.5434(3) 0.0802(2)
C81 C 0.7756(4) 0.5849(3) 0.0652(3)
C82 C 0.7906(4) 0.6394(3) 0.1086(3)
C83 C 0.8556(3) 0.6496(2) 0.1668(2)
C84 C 0.8712(3) 0.7054(2) 0.2166(2)
C85 C 0.9132(3) 0.7060(3) 0.2780(2)
C86 C 0.9203(4) 0.7573(3) 0.3213(2)
C87 C 0.8884(3) 0.8080(3) 0.3032(2)
C88 C 0.8493(3) 0.8066(2) 0.2414(2)
N6 N 0.8397(3) 0.7558(2) 0.1985(2)
C89 C 0.8170(3) 0.8623(2) 0.2194(2)
C90 C 0.7176(3) 0.8378(3) 0.1712(2)
C91 C 0.6946(4) 0.8939(3) 0.1429(2)
O13 O 0.7072(2) 0.9497(2) 0.1875(2)
C92 C 0.6279(4) 0.9406(3) 0.2069(3)
C93 C 0.6595(4) 0.9682(3) 0.2739(3)
O14 O 0.6995(2) 0.9249(2) 0.3062(2)
C94 C 0.7129(4) 0.9384(3) 0.3690(3)
C95 C 0.7508(4) 0.8878(3) 0.3983(3)
O15 O 0.8514(2) 0.9170(2) 0.4253(2)
C96 C 0.8983(3) 0.8773(3) 0.4545(2)
C97 C 0.8549(4) 0.8104(3) 0.4550(2)
C98 C 0.9116(4) 0.7759(3) 0.4853(2)
C99 C 1.0090(3) 0.8061(3) 0.5153(2)
C100 C 1.0501(4) 0.8739(3) 0.5138(3)
C101 C 0.9957(4) 0.9086(3) 0.4836(3)
C102 C 1.0679(4) 0.7676(3) 0.5509(2)
C103 C 1.0249(4) 0.7435(3) 0.5997(3)
C104 C 1.1738(4) 0.8121(3) 0.5847(3)
C105 C 1.0671(3) 0.7078(2) 0.5080(2)
C106 C 1.0612(4) 0.6460(3) 0.5241(2)
C107 C 1.0693(4) 0.5941(3) 0.4878(3)
C108 C 1.0827(3) 0.6029(2) 0.4330(2)
C109 C 1.0887(3) 0.6641(3) 0.4159(2)
C110 C 1.0809(3) 0.7153(3) 0.4525(2)
O16 O 1.0900(2) 0.5542(2) 0.3938(2)
C111 C 1.1078(4) 0.4984(3) 0.4179(3)
C112 C 1.1112(4) 0.4493(3) 0.3687(3)
O17 O 1.0174(2) 0.4072(2) 0.3318(2)
C113 C 1.0149(4) 0.3519(3) 0.2912(3)
C114 C 1.0390(4) 0.3686(3) 0.2372(3)
O18 O 0.9730(2) 0.3952(2) 0.2021(2)
C115 C 0.9877(4) 0.4090(3) 0.1472(3)
C116 C 0.9260(4) 0.4475(3) 0.1201(2)
C117 C 0.9587(3) 0.5180(2) 0.1575(2)
H97 H 0.8196 0.5058 0.0507
H98 H 0.7296 0.5757 0.0253
H99 H 0.7571 0.6696 0.0988
H100 H 0.9366 0.6713 0.2897
H101 H 0.9471 0.7580 0.3636
H102 H 0.8932 0.8439 0.3329
H103 H 0.8614 0.8879 0.2027
H104 H 0.8172 0.8906 0.2536
H105 H 0.6718 0.8190 0.1895
H106 H 0.7137 0.8039 0.1398
H107 H 0.6297 0.8765 0.1159
H108 H 0.7357 0.9092 0.1205
H109 H 0.5912 0.8936 0.1982
H110 H 0.5893 0.9635 0.1853
H111 H 0.6060 0.9700 0.2843
H112 H 0.7065 1.0125 0.2844
H113 H 0.6534 0.9344 0.3739
H114 H 0.7578 0.9830 0.3877
H115 H 0.7338 0.8485 0.3680
H116 H 0.7240 0.8757 0.4288
H117 H 0.7876 0.7879 0.4351
H118 H 0.8815 0.7295 0.4852
H119 H 1.1172 0.8968 0.5342
H120 H 1.0259 0.9547 0.4828
H121 H 1.0601 0.7195 0.6225
H122 H 1.0285 0.7817 0.6264
H123 H 0.9597 0.7146 0.5801
H124 H 1.2069 0.7860 0.6059
H125 H 1.2019 0.8287 0.5560
H126 H 1.1780 0.8491 0.6131
H127 H 1.0513 0.6390 0.5614
H128 H 1.0656 0.5525 0.5004
H129 H 1.0982 0.6709 0.3785
H130 H 1.0850 0.7568 0.4397
H131 H 1.0579 0.4763 0.4321
H132 H 1.1675 0.5146 0.4509
H133 H 1.1457 0.4224 0.3870
H134 H 1.1424 0.4736 0.3443
H135 H 0.9519 0.3189 0.2773
H136 H 1.0593 0.3334 0.3135
H137 H 1.0359 0.3288 0.2130
H138 H 1.1021 0.4014 0.2501
H139 H 0.9704 0.3676 0.1194
H140 H 1.0533 0.4352 0.1558
H141 H 0.8621 0.4236 0.1174
H142 H 0.9275 0.4506 0.0803
H143 H 0.9662 0.5144 0.1986
H144 H 1.0192 0.5430 0.1553
N7 N 1.1693(3) 0.7719(2) 0.3057(2)
C118 C 1.1507(3) 0.7238(3) 0.2571(2)
C119 C 1.1088(3) 0.7298(3) 0.1975(2)
C120 C 1.0848(4) 0.7860(3) 0.1877(2)
C121 C 1.1020(3) 0.8349(3) 0.2368(2)
C122 C 1.1455(3) 0.8264(3) 0.2954(2)
C123 C 1.1699(3) 0.8789(3) 0.3507(2)
C124 C 1.2262(4) 0.8758(3) 0.4081(3)
C125 C 1.2453(4) 0.9253(3) 0.4573(2)
C126 C 1.2078(4) 0.9757(3) 0.4498(3)
C127 C 1.1530(3) 0.9767(3) 0.3915(2)
N8 N 1.1344(3) 0.9291(2) 0.3422(2)
C128 C 1.1087(4) 1.0300(3) 0.3783(3)
C129 C 1.0028(4) 1.0003(3) 0.3427(3)
C130 C 0.9554(4) 1.0509(3) 0.3253(3)
O19 O 0.9943(2) 1.0868(2) 0.2856(2)
C131 C 0.9351(4) 1.1193(3) 0.2515(3)
C132 C 0.9755(4) 1.1475(3) 0.2056(3)
O20 O 0.9726(2) 1.0975(2) 0.1592(1)
C133 C 0.8792(3) 1.0660(3) 0.1138(2)
C134 C 0.8830(3) 1.0161(2) 0.0664(2)
O21 O 0.8917(2) 0.9584(2) 0.0908(1)
C135 C 0.8936(3) 0.9062(2) 0.0525(2)
C136 C 0.8880(3) 0.8467(3) 0.0737(2)
C137 C 0.8870(3) 0.7912(2) 0.0370(2)
C138 C 0.8936(3) 0.7927(2) -0.0205(2)
C139 C 0.9016(3) 0.8531(2) -0.0398(2)
C140 C 0.9013(3) 0.9096(2) -0.0046(2)
C141 C 0.8811(3) 0.7273(2) -0.0617(2)
C142 C 0.9056(4) 0.7412(3) -0.1188(2)
C143 C 0.7751(4) 0.6825(3) -0.0826(3)
C144 C 0.9466(3) 0.6920(2) -0.0276(2)
C145 C 0.9151(3) 0.6226(2) -0.0310(2)
C146 C 0.9754(3) 0.5909(2) -0.0028(3)
C147 C 1.0703(3) 0.6278(2) 0.0310(2)
C148 C 1.1044(3) 0.6966(3) 0.0348(2)
C149 C 1.0420(3) 0.7277(2) 0.0058(2)
O22 O 1.1226(2) 0.5903(2) 0.0573(2)
C150 C 1.2221(3) 0.6243(3) 0.0904(3)
C151 C 1.2619(4) 0.5736(3) 0.1166(3)
O23 O 1.2368(3) 0.5606(2) 0.1656(2)
C152 C 1.2869(4) 0.5230(3) 0.2033(3)
C153 C 1.3418 0.5828 0.2696
O24 O 1.2619(4) 0.5573(3) 0.2951(2)
C154 C 1.2993 0.6202 0.3334
C155 C 1.2693(4) 0.6773(3) 0.3208(3)
C156 C 1.1753(4) 0.6623(3) 0.2705(2)
H145 H 1.0969 0.6955 0.1638
H146 H 1.0564 0.7908 0.1473
H147 H 1.0850 0.8736 0.2311
H148 H 1.2508 0.8402 0.4131
H149 H 1.2847 0.9248 0.4968
H150 H 1.2192 1.0093 0.4839
H151 H 1.1394 1.0572 0.3553
H152 H 1.1189 1.0573 0.4160
H153 H 0.9724 0.9749 0.3669
H154 H 0.9931 0.9710 0.3062
H155 H 0.9663 1.0820 0.3611
H156 H 0.8883 1.0278 0.3050
H157 H 0.9332 1.1550 0.2784
H158 H 0.8719 1.0873 0.2311
H159 H 1.0406 1.1761 0.2265
H160 H 0.9399 1.1734 0.1866
H161 H 0.8591 1.0994 0.0955
H162 H 0.8352 1.0435 0.1321
H163 H 0.9368 1.0362 0.0548
H164 H 0.8258 1.0024 0.0317
H165 H 0.8848 0.8443 0.1133
H166 H 0.8816 0.7506 0.0516
H167 H 0.9075 0.8560 -0.0787
H168 H 0.9063 0.9501 -0.0194
H169 H 0.8661 0.7631 -0.1409
H170 H 0.9712 0.7694 -0.1070
H171 H 0.8948 0.6995 -0.1440
H172 H 0.7368 0.7059 -0.1035
H173 H 0.7640 0.6419 -0.1094
H174 H 0.7586 0.6719 -0.0480
H175 H 0.8497 0.5961 -0.0536
H176 H 0.9515 0.5432 -0.0068
H177 H 1.1701 0.7228 0.0570
H178 H 1.0663 0.7753 0.0091
H179 H 1.2313 0.6595 0.1224
H180 H 1.2536 0.6429 0.0638
H181 H 1.3300 0.5913 0.1288
H182 H 1.2371 0.5329 0.0866
H183 H 1.3318 0.5125 0.1880
H184 H 1.2437 0.4826 0.2076
H185 H 1.3520 0.6275 0.2631
H186 H 1.4008 0.5803 0.2942
H187 H 1.3661 0.6360 0.3400
H188 H 1.2897 0.6121 0.3706
H189 H 1.3177 0.7085 0.3105
H190 H 1.2652 0.6978 0.3573
H191 H 1.1776 0.6396 0.2343
H192 H 1.1260 0.6333 0.2817
loop_
_geom_bond_atom_site_label_1
_geom_bond_atom_site_label_2
_geom_bond_site_symmetry_1
_geom_bond_site_symmetry_2
N1 C1 1_555 1_555
C1 C2 1_555 1_555
C2 C3 1_555 1_555
C3 C4 1_555 1_555
C4 C5 1_555 1_555
C5 N1 1_555 1_555
C6 C5 1_555 1_555
C7 C6 1_555 1_555
C8 C7 1_555 1_555
C9 C8 1_555 1_555
C10 C9 1_555 1_555
N2 C6 1_555 1_555
C11 C10 1_555 1_555
C12 C11 1_555 1_555
C13 C12 1_555 1_555
O1 C13 1_555 1_555
C14 O1 1_555 1_555
C15 C14 1_555 1_555
O2 C15 1_555 1_555
C16 O2 1_555 1_555
C17 C16 1_555 1_555
O3 C17 1_555 1_555
C18 O3 1_555 1_555
C19 C18 1_555 1_555
C20 C19 1_555 1_555
C21 C20 1_555 1_555
C22 C21 1_555 1_555
C23 C18 1_555 1_555
C24 C21 1_555 1_555
C25 C24 1_555 1_555
C26 C24 1_555 1_555
C27 C24 1_555 1_555
C28 C27 1_555 1_555
C29 C28 1_555 1_555
C30 C29 1_555 1_555
C31 C30 1_555 1_555
C32 C27 1_555 1_555
O4 C30 1_555 1_555
C33 O4 1_555 1_555
C34 C33 1_555 1_555
O5 C34 1_555 1_555
C35 O5 1_555 1_555
C36 C35 1_555 1_555
O6 C36 1_555 1_555
C37 O6 1_555 1_555
C38 C37 1_555 1_555
C39 C1 1_555 1_555
N3 C40 1_555 1_555
C40 C41 1_555 1_555
C41 C42 1_555 1_555
C42 C43 1_555 1_555
C43 C44 1_555 1_555
C44 N3 1_555 1_555
C45 C44 1_555 1_555
C46 C45 1_555 1_555
C47 C46 1_555 1_555
C48 C47 1_555 1_555
C49 C48 1_555 1_555
N4 C45 1_555 1_555
C50 C49 1_555 1_555
C51 C50 1_555 1_555
C52 C51 1_555 1_555
O7 C52 1_555 1_555
C53 O7 1_555 1_555
C54 C53 1_555 1_555
O8 C54 1_555 1_555
C55 O8 1_555 1_555
C56 C55 1_555 1_555
O9 C56 1_555 1_555
C57 O9 1_555 1_555
C58 C57 1_555 1_555
C59 C58 1_555 1_555
C60 C59 1_555 1_555
C61 C60 1_555 1_555
C62 C57 1_555 1_555
C63 C60 1_555 1_555
C64 C63 1_555 1_555
C65 C63 1_555 1_555
C66 C63 1_555 1_555
C67 C66 1_555 1_555
C68 C67 1_555 1_555
C69 C68 1_555 1_555
C70 C69 1_555 1_555
C71 C66 1_555 1_555
O10 C69 1_555 1_555
C72 O10 1_555 1_555
C73 C72 1_555 1_555
O11 C73 1_555 1_555
C74 O11 1_555 1_555
C75 C74 1_555 1_555
O12 C75 1_555 1_555
C76 O12 1_555 1_555
C77 C76 1_555 1_555
C78 C40 1_555 1_555
N5 C79 1_555 1_555
C79 C80 1_555 1_555
C80 C81 1_555 1_555
C81 C82 1_555 1_555
C82 C83 1_555 1_555
C83 N5 1_555 1_555
C84 C83 1_555 1_555
C85 C84 1_555 1_555
C86 C85 1_555 1_555
C87 C86 1_555 1_555
C88 C87 1_555 1_555
N6 C84 1_555 1_555
C89 C88 1_555 1_555
C90 C89 1_555 1_555
C91 C90 1_555 1_555
O13 C91 1_555 1_555
C92 O13 1_555 1_555
C93 C92 1_555 1_555
O14 C93 1_555 1_555
C94 O14 1_555 1_555
C95 C94 1_555 1_555
O15 C95 1_555 1_555
C96 O15 1_555 1_555
C97 C96 1_555 1_555
C98 C97 1_555 1_555
C99 C98 1_555 1_555
C100 C99 1_555 1_555
C101 C96 1_555 1_555
C102 C99 1_555 1_555
C103 C102 1_555 1_555
C104 C102 1_555 1_555
C105 C102 1_555 1_555
C106 C105 1_555 1_555
C107 C106 1_555 1_555
C108 C107 1_555 1_555
C109 C108 1_555 1_555
C110 C105 1_555 1_555
O16 C108 1_555 1_555
C111 O16 1_555 1_555
C112 C111 1_555 1_555
O17 C112 1_555 1_555
C113 O17 1_555 1_555
C114 C113 1_555 1_555
O18 C114 1_555 1_555
C115 O18 1_555 1_555
C116 C115 1_555 1_555
C117 C79 1_555 1_555
N7 C118 1_555 1_555
C118 C119 1_555 1_555
C119 C120 1_555 1_555
C120 C121 1_555 1_555
C121 C122 1_555 1_555
C122 N7 1_555 1_555
C123 C122 1_555 1_555
C124 C123 1_555 1_555
C125 C124 1_555 1_555
C126 C125 1_555 1_555
C127 C126 1_555 1_555
N8 C123 1_555 1_555
C128 C127 1_555 1_555
C129 C128 1_555 1_555
C130 C129 1_555 1_555
O19 C130 1_555 1_555
C131 O19 1_555 1_555
C132 C131 1_555 1_555
O20 C132 1_555 1_555
C133 O20 1_555 1_555
C134 C133 1_555 1_555
O21 C134 1_555 1_555
C135 O21 1_555 1_555
C136 C135 1_555 1_555
C137 C136 1_555 1_555
C138 C137 1_555 1_555
C139 C138 1_555 1_555
C140 C135 1_555 1_555
C141 C138 1_555 1_555
C142 C141 1_555 1_555
C143 C141 1_555 1_555
C144 C141 1_555 1_555
C145 C144 1_555 1_555
C146 C145 1_555 1_555
C147 C146 1_555 1_555
C148 C147 1_555 1_555
C149 C144 1_555 1_555
O22 C147 1_555 1_555
C150 O22 1_555 1_555
C151 C150 1_555 1_555
O23 C151 1_555 1_555
C152 O23 1_555 1_555
C153 C152 1_555 1_555
O24 C153 1_555 1_555
C154 O24 1_555 1_555
C155 C154 1_555 1_555
C156 C118 1_555 1_555
H1 C2 1_555 1_555
H2 C3 1_555 1_555
H3 C4 1_555 1_555
H4 C7 1_555 1_555
H5 C8 1_555 1_555
H6 C9 1_555 1_555
H7 C11 1_555 1_555
H8 C11 1_555 1_555
H9 C12 1_555 1_555
H10 C12 1_555 1_555
H11 C13 1_555 1_555
H12 C13 1_555 1_555
H13 C14 1_555 1_555
H14 C14 1_555 1_555
H15 C15 1_555 1_555
H16 C15 1_555 1_555
H17 C16 1_555 1_555
H18 C16 1_555 1_555
H19 C17 1_555 1_555
H20 C17 1_555 1_555
H21 C19 1_555 1_555
H22 C20 1_555 1_555
H23 C22 1_555 1_555
H24 C23 1_555 1_555
H25 C25 1_555 1_555
H26 C25 1_555 1_555
H27 C25 1_555 1_555
H28 C26 1_555 1_555
H29 C26 1_555 1_555
H30 C26 1_555 1_555
H31 C28 1_555 1_555
H32 C29 1_555 1_555
H33 C31 1_555 1_555
H34 C32 1_555 1_555
H35 C33 1_555 1_555
H36 C33 1_555 1_555
H37 C34 1_555 1_555
H38 C34 1_555 1_555
H39 C35 1_555 1_555
H40 C35 1_555 1_555
H41 C36 1_555 1_555
H42 C36 1_555 1_555
H43 C37 1_555 1_555
H44 C37 1_555 1_555
H45 C38 1_555 1_555
H46 C38 1_555 1_555
H47 C39 1_555 1_555
H48 C39 1_555 1_555
H49 C41 1_555 1_555
H50 C42 1_555 1_555
H51 C43 1_555 1_555
H52 C46 1_555 1_555
H53 C47 1_555 1_555
H54 C48 1_555 1_555
H55 C50 1_555 1_555
H56 C50 1_555 1_555
H57 C51 1_555 1_555
H58 C51 1_555 1_555
H59 C52 1_555 1_555
H60 C52 1_555 1_555
H61 C53 1_555 1_555
H62 C53 1_555 1_555
H63 C54 1_555 1_555
H64 C54 1_555 1_555
H65 C55 1_555 1_555
H66 C55 1_555 1_555
H67 C56 1_555 1_555
H68 C56 1_555 1_555
H69 C58 1_555 1_555
H70 C59 1_555 1_555
H71 C61 1_555 1_555
H72 C62 1_555 1_555
H73 C64 1_555 1_555
H74 C64 1_555 1_555
H75 C64 1_555 1_555
H76 C65 1_555 1_555
H77 C65 1_555 1_555
H78 C65 1_555 1_555
H79 C67 1_555 1_555
H80 C68 1_555 1_555
H81 C70 1_555 1_555
H82 C71 1_555 1_555
H83 C72 1_555 1_555
H84 C72 1_555 1_555
H85 C73 1_555 1_555
H86 C73 1_555 1_555
H87 C74 1_555 1_555
H88 C74 1_555 1_555
H89 C75 1_555 1_555
H90 C75 1_555 1_555
H91 C76 1_555 1_555
H92 C76 1_555 1_555
H93 C77 1_555 1_555
H94 C77 1_555 1_555
H95 C78 1_555 1_555
H96 C78 1_555 1_555
H97 C80 1_555 1_555
H98 C81 1_555 1_555
H99 C82 1_555 1_555
H100 C85 1_555 1_555
H101 C86 1_555 1_555
H102 C87 1_555 1_555
H103 C89 1_555 1_555
H104 C89 1_555 1_555
H105 C90 1_555 1_555
H106 C90 1_555 1_555
H107 C91 1_555 1_555
H108 C91 1_555 1_555
H109 C92 1_555 1_555
H110 C92 1_555 1_555
H111 C93 1_555 1_555
H112 C93 1_555 1_555
H113 C94 1_555 1_555
H114 C94 1_555 1_555
H115 C95 1_555 1_555
H116 C95 1_555 1_555
H117 C97 1_555 1_555
H118 C98 1_555 1_555
H119 C100 1_555 1_555
H120 C101 1_555 1_555
H121 C103 1_555 1_555
H122 C103 1_555 1_555
H123 C103 1_555 1_555
H124 C104 1_555 1_555
H125 C104 1_555 1_555
H126 C104 1_555 1_555
H127 C106 1_555 1_555
H128 C107 1_555 1_555
H129 C109 1_555 1_555
H130 C110 1_555 1_555
H131 C111 1_555 1_555
H132 C111 1_555 1_555
H133 C112 1_555 1_555
H134 C112 1_555 1_555
H135 C113 1_555 1_555
H136 C113 1_555 1_555
H137 C114 1_555 1_555
H138 C114 1_555 1_555
H139 C115 1_555 1_555
H140 C115 1_555 1_555
H141 C116 1_555 1_555
H142 C116 1_555 1_555
H143 C117 1_555 1_555
H144 C117 1_555 1_555
H145 C119 1_555 1_555
H146 C120 1_555 1_555
H147 C121 1_555 1_555
H148 C124 1_555 1_555
H149 C125 1_555 1_555
H150 C126 1_555 1_555
H151 C128 1_555 1_555
H152 C128 1_555 1_555
H153 C129 1_555 1_555
H154 C129 1_555 1_555
H155 C130 1_555 1_555
H156 C130 1_555 1_555
H157 C131 1_555 1_555
H158 C131 1_555 1_555
H159 C132 1_555 1_555
H160 C132 1_555 1_555
H161 C133 1_555 1_555
H162 C133 1_555 1_555
H163 C134 1_555 1_555
H164 C134 1_555 1_555
H165 C136 1_555 1_555
H166 C137 1_555 1_555
H167 C139 1_555 1_555
H168 C140 1_555 1_555
H169 C142 1_555 1_555
H170 C142 1_555 1_555
H171 C142 1_555 1_555
H172 C143 1_555 1_555
H173 C143 1_555 1_555
H174 C143 1_555 1_555
H175 C145 1_555 1_555
H176 C146 1_555 1_555
H177 C148 1_555 1_555
H178 C149 1_555 1_555
H179 C150 1_555 1_555
H180 C150 1_555 1_555
H181 C151 1_555 1_555
H182 C151 1_555 1_555
H183 C152 1_555 1_555
H184 C152 1_555 1_555
H185 C153 1_555 1_555
H186 C153 1_555 1_555
H187 C154 1_555 1_555
H188 C154 1_555 1_555
H189 C155 1_555 1_555
H190 C155 1_555 1_555
H191 C156 1_555 1_555
H192 C156 1_555 1_555
C10 N2 1_555 1_555
C22 C23 1_555 1_555
C31 C32 1_555 1_555
C38 C39 1_555 1_555
C49 N4 1_555 1_555
C61 C62 1_555 1_555
C70 C71 1_555 1_555
C77 C78 1_555 1_555
C88 N6 1_555 1_555
C100 C101 1_555 1_555
C109 C110 1_555 1_555
C116 C117 1_555 1_555
C127 N8 1_555 1_555
C139 C140 1_555 1_555
C148 C149 1_555 1_555
C155 C156 1_555 1_555

#END
