
#######################################################################
#
#                 Cambridge Crystallographic Data Centre
#                                CCDC 
#
#######################################################################
#
# If this CIF has been generated from an entry in the Cambridge 
# Structural Database, then it will include bibliographic, chemical, 
# crystal, experimental, refinement or atomic coordinate data resulting 
# from the CCDC's data processing and validation procedures.
#
#######################################################################

data_ILERAT
_chemical_name_common            
"bis(mu-N-(diphenylphosphanyl)-P-phenyl-N,N'-dipropan-2-ylphosphonous diamido)-di-lithium"
_chemical_formula_moiety         'C48 H58 Li2 N4 P4'
_chemical_name_systematic        
bis(\m~2~-1,3-Diisopropyl-2,4,4-triphenyl-1,3-diaza-2,4-diphosphabutan-1-yl)-di-lithium
_symmetry_cell_setting           triclinic
_symmetry_space_group_name_H-M   'P -1'
_symmetry_Int_Tables_number      2
_space_group_name_Hall           '-P 1'
loop_
_symmetry_equiv_pos_site_id
_symmetry_equiv_pos_as_xyz
1 x,y,z
2 -x,-y,-z
_cell_length_a                   8.3004(4)
_cell_length_b                   10.9215(5)
_cell_length_c                   13.8691(6)
_cell_angle_alpha                68.249(3)
_cell_angle_beta                 77.522(4)
_cell_angle_gamma                74.391(3)
_cell_volume                     1115.14
_exptl_crystal_colour            colorless
_exptl_crystal_description       prism
_cell_formula_units_Z            1
loop_
_atom_site_label
_atom_site_type_symbol
_atom_site_fract_x
_atom_site_fract_y
_atom_site_fract_z
C1 C 0.26548(16) 0.65356(12) 0.11727(9)
H1 H 0.1533 0.6423 0.1597
C2 C 0.37021(18) 0.67818(15) 0.18317(12)
H2 H 0.3820 0.6017 0.2484
H3 H 0.3139 0.7608 0.1994
H4 H 0.4821 0.6879 0.1441
C3 C 0.23459(19) 0.77416(14) 0.01890(11)
H5 H 0.3428 0.7895 -0.0235
H6 H 0.1757 0.8541 0.0382
H7 H 0.1653 0.7567 -0.0216
C4 C 0.26719(15) 0.30621(13) 0.08205(9)
C5 C 0.19345(16) 0.37213(15) -0.01115(10)
H8 H 0.1516 0.4668 -0.0320
C6 C 0.18078(18) 0.30160(17) -0.07310(11)
H9 H 0.1311 0.3483 -0.1359
C7 C 0.2399(2) 0.16371(17) -0.04419(12)
H10 H 0.2307 0.1153 -0.0866
C8 C 0.31277(19) 0.09691(15) 0.04728(12)
H11 H 0.3541 0.0022 0.0676
C9 C 0.32573(17) 0.16719(14) 0.10926(10)
H12 H 0.3758 0.1195 0.1719
C10 C 0.28636(16) 0.24209(13) 0.37297(9)
H13 H 0.3706 0.1746 0.4185
C11 C 0.21726(19) 0.35770(16) 0.41664(11)
H14 H 0.3106 0.3953 0.4188
H15 H 0.1586 0.3243 0.4875
H16 H 0.1382 0.4279 0.3716
C12 C 0.14766(18) 0.17187(15) 0.37828(11)
H17 H 0.0561 0.2380 0.3413
H18 H 0.1039 0.1302 0.4517
H19 H 0.1936 0.1022 0.3453
C13 C 0.65156(15) 0.30119(13) 0.35133(9)
C14 C 0.68446(18) 0.42543(14) 0.33625(11)
H20 H 0.6752 0.4943 0.2700
C15 C 0.7306(2) 0.45089(15) 0.41632(12)
H21 H 0.7519 0.5368 0.4049
C16 C 0.7456(2) 0.35119(16) 0.51249(12)
H22 H 0.7757 0.3687 0.5677
C17 C 0.71700(19) 0.22627(16) 0.52829(11)
H23 H 0.7288 0.1573 0.5943
C18 C 0.67112(17) 0.20064(14) 0.44860(10)
H24 H 0.6527 0.1139 0.4601
C19 C 0.69063(16) 0.09933(13) 0.26655(9)
C20 C 0.60859(18) -0.00776(14) 0.30772(10)
H25 H 0.4899 0.0087 0.3277
C21 C 0.6981(2) -0.13907(15) 0.32016(12)
H26 H 0.6403 -0.2115 0.3480
C22 C 0.8707(2) -0.16431(16) 0.29221(12)
H27 H 0.9318 -0.2539 0.3007
C23 C 0.95408(19) -0.05858(17) 0.25185(12)
H28 H 1.0729 -0.0759 0.2329
C24 C 0.86571(17) 0.07230(15) 0.23875(11)
H29 H 0.9243 0.1443 0.2107
N1 N 0.34232(13) 0.52848(10) 0.09065(8)
N2 N 0.37738(13) 0.28961(11) 0.26464(7)
P1 P 0.24706(4) 0.40418(3) 0.16881(2)
P2 P 0.58833(4) 0.27745(3) 0.24142(2)
Li1 Li 0.5979(3) 0.4647(2) 0.06034(16)
C1A C 0.73452(16) 0.34644(12) -0.11727(9)
H1A H 0.8467 0.3577 -0.1597
C2A C 0.62979(18) 0.32182(15) -0.18317(12)
H2A H 0.6180 0.3983 -0.2484
H3A H 0.6861 0.2392 -0.1994
H4A H 0.5179 0.3121 -0.1441
C3A C 0.76541(19) 0.22584(14) -0.01890(11)
H5A H 0.6572 0.2105 0.0235
H6A H 0.8243 0.1459 -0.0382
H7A H 0.8347 0.2433 0.0216
C4A C 0.73281(15) 0.69379(13) -0.08205(9)
C5A C 0.80655(16) 0.62787(15) 0.01115(10)
H8A H 0.8484 0.5332 0.0320
C6A C 0.81922(18) 0.69840(17) 0.07310(11)
H9A H 0.8689 0.6517 0.1359
C7A C 0.7601(2) 0.83629(17) 0.04419(12)
H10A H 0.7693 0.8847 0.0866
C8A C 0.68723(19) 0.90309(15) -0.04728(12)
H11A H 0.6459 0.9978 -0.0676
C9A C 0.67427(17) 0.83281(14) -0.10926(10)
H12A H 0.6242 0.8805 -0.1719
C10A C 0.71364(16) 0.75791(13) -0.37297(9)
H13A H 0.6294 0.8254 -0.4185
C11A C 0.78274(19) 0.64230(16) -0.41664(11)
H14A H 0.6894 0.6047 -0.4188
H15A H 0.8414 0.6757 -0.4875
H16A H 0.8618 0.5721 -0.3716
C12A C 0.85234(18) 0.82813(15) -0.37828(11)
H17A H 0.9439 0.7620 -0.3413
H18A H 0.8961 0.8698 -0.4517
H19A H 0.8064 0.8978 -0.3453
C13A C 0.34844(15) 0.69881(13) -0.35133(9)
C14A C 0.31554(18) 0.57457(14) -0.33625(11)
H20A H 0.3248 0.5057 -0.2700
C15A C 0.2694(2) 0.54911(15) -0.41632(12)
H21A H 0.2481 0.4632 -0.4049
C16A C 0.2544(2) 0.64881(16) -0.51249(12)
H22A H 0.2243 0.6313 -0.5677
C17A C 0.28300(19) 0.77373(16) -0.52829(11)
H23A H 0.2712 0.8427 -0.5943
C18A C 0.32888(17) 0.79936(14) -0.44860(10)
H24A H 0.3473 0.8861 -0.4601
C19A C 0.30937(16) 0.90067(13) -0.26655(9)
C20A C 0.39141(18) 1.00776(14) -0.30772(10)
H25A H 0.5101 0.9913 -0.3277
C21A C 0.3019(2) 1.13907(15) -0.32016(12)
H26A H 0.3597 1.2115 -0.3480
C22A C 0.1293(2) 1.16431(16) -0.29221(12)
H27A H 0.0682 1.2539 -0.3007
C23A C 0.04592(19) 1.05858(17) -0.25185(12)
H28A H -0.0729 1.0759 -0.2329
C24A C 0.13429(17) 0.92770(15) -0.23875(11)
H29A H 0.0757 0.8557 -0.2107
N1A N 0.65768(13) 0.47152(10) -0.09065(8)
N2A N 0.62262(13) 0.71039(11) -0.26464(7)
P1A P 0.75294(4) 0.59582(3) -0.16881(2)
P2A P 0.41167(4) 0.72255(3) -0.24142(2)
Li1A Li 0.4021(3) 0.5353(2) -0.06034(16)
loop_
_geom_bond_atom_site_label_1
_geom_bond_atom_site_label_2
_geom_bond_site_symmetry_1
_geom_bond_site_symmetry_2
C1 H1 1_555 1_555
C2 C1 1_555 1_555
H2 C2 1_555 1_555
H3 C2 1_555 1_555
H4 C2 1_555 1_555
C3 C1 1_555 1_555
H5 C3 1_555 1_555
H6 C3 1_555 1_555
H7 C3 1_555 1_555
C4 C5 1_555 1_555
C5 H8 1_555 1_555
C6 C5 1_555 1_555
H9 C6 1_555 1_555
C7 C6 1_555 1_555
H10 C7 1_555 1_555
C8 C7 1_555 1_555
H11 C8 1_555 1_555
C9 C4 1_555 1_555
H12 C9 1_555 1_555
C10 H13 1_555 1_555
C11 C10 1_555 1_555
H14 C11 1_555 1_555
H15 C11 1_555 1_555
H16 C11 1_555 1_555
C12 C10 1_555 1_555
H17 C12 1_555 1_555
H18 C12 1_555 1_555
H19 C12 1_555 1_555
C13 C14 1_555 1_555
C14 H20 1_555 1_555
C15 C14 1_555 1_555
H21 C15 1_555 1_555
C16 C15 1_555 1_555
H22 C16 1_555 1_555
C17 C16 1_555 1_555
H23 C17 1_555 1_555
C18 C13 1_555 1_555
H24 C18 1_555 1_555
C19 C20 1_555 1_555
C20 H25 1_555 1_555
C21 C20 1_555 1_555
H26 C21 1_555 1_555
C22 C21 1_555 1_555
H27 C22 1_555 1_555
C23 C22 1_555 1_555
H28 C23 1_555 1_555
C24 C19 1_555 1_555
H29 C24 1_555 1_555
N1 C1 1_555 1_555
N2 C10 1_555 1_555
P1 C4 1_555 1_555
P2 C13 1_555 1_555
Li1 N1 1_555 1_555
C1A H1A 1_555 1_555
C2A C1A 1_555 1_555
H2A C2A 1_555 1_555
H3A C2A 1_555 1_555
H4A C2A 1_555 1_555
C3A C1A 1_555 1_555
H5A C3A 1_555 1_555
H6A C3A 1_555 1_555
H7A C3A 1_555 1_555
C4A C5A 1_555 1_555
C5A H8A 1_555 1_555
C6A C5A 1_555 1_555
H9A C6A 1_555 1_555
C7A C6A 1_555 1_555
H10A C7A 1_555 1_555
C8A C7A 1_555 1_555
H11A C8A 1_555 1_555
C9A C4A 1_555 1_555
H12A C9A 1_555 1_555
C10A H13A 1_555 1_555
C11A C10A 1_555 1_555
H14A C11A 1_555 1_555
H15A C11A 1_555 1_555
H16A C11A 1_555 1_555
C12A C10A 1_555 1_555
H17A C12A 1_555 1_555
H18A C12A 1_555 1_555
H19A C12A 1_555 1_555
C13A C14A 1_555 1_555
C14A H20A 1_555 1_555
C15A C14A 1_555 1_555
H21A C15A 1_555 1_555
C16A C15A 1_555 1_555
H22A C16A 1_555 1_555
C17A C16A 1_555 1_555
H23A C17A 1_555 1_555
C18A C13A 1_555 1_555
H24A C18A 1_555 1_555
C19A C20A 1_555 1_555
C20A H25A 1_555 1_555
C21A C20A 1_555 1_555
H26A C21A 1_555 1_555
C22A C21A 1_555 1_555
H27A C22A 1_555 1_555
C23A C22A 1_555 1_555
H28A C23A 1_555 1_555
C24A C19A 1_555 1_555
H29A C24A 1_555 1_555
N1A Li1 1_555 1_555
N2A C10A 1_555 1_555
P1A C4A 1_555 1_555
P2A C13A 1_555 1_555
Li1A N1 1_555 1_555
C8 C9 1_555 1_555
C17 C18 1_555 1_555
C19 P2 1_555 1_555
C23 C24 1_555 1_555
N1 P1 1_555 1_555
N2 P1 1_555 1_555
N2 P2 1_555 1_555
P2 Li1 1_555 1_555
C1A N1A 1_555 1_555
C8A C9A 1_555 1_555
C17A C18A 1_555 1_555
C19A P2A 1_555 1_555
C23A C24A 1_555 1_555
N1A P1A 1_555 1_555
N1A Li1A 1_555 1_555
N2A P1A 1_555 1_555
N2A P2A 1_555 1_555
P2A Li1A 1_555 1_555

#END
