
#######################################################################
#
#                 Cambridge Crystallographic Data Centre
#                                CCDC 
#
#######################################################################
#
# If this CIF has been generated from an entry in the Cambridge 
# Structural Database, then it will include bibliographic, chemical, 
# crystal, experimental, refinement or atomic coordinate data resulting 
# from the CCDC's data processing and validation procedures.
#
#######################################################################

data_ILEROH
_chemical_name_common            
"bis(N-(diphenylphosphanyl)-P-phenyl-N,N'-dipropan-2-ylphosphonous diamidato)-magnesium"
_chemical_formula_moiety         'C48 H58 Mg1 N4 P4'
_chemical_name_systematic        
bis(1,3-diisopropyl-2,4,4-triphenyl-1,3-diaza-2,4-diphosphabutan-1-yl)-magnesium(ii)
_symmetry_cell_setting           triclinic
_symmetry_space_group_name_H-M   'P -1'
_symmetry_Int_Tables_number      2
_space_group_name_Hall           '-P 1'
loop_
_symmetry_equiv_pos_site_id
_symmetry_equiv_pos_as_xyz
1 x,y,z
2 -x,-y,-z
_cell_length_a                   11.2819(6)
_cell_length_b                   11.9821(5)
_cell_length_c                   19.8530(10)
_cell_angle_alpha                77.452(4)
_cell_angle_beta                 86.257(4)
_cell_angle_gamma                62.376(3)
_cell_volume                     2319.08
_exptl_crystal_colour            colorless
_exptl_crystal_description       prism
_cell_formula_units_Z            2
loop_
_atom_site_label
_atom_site_type_symbol
_atom_site_fract_x
_atom_site_fract_y
_atom_site_fract_z
C1 C 0.2627(3) 0.8889(3) 0.11998(14)
H1 H 0.3463 0.8189 0.1062
C2 C 0.1437(3) 0.8778(4) 0.09653(17)
H2 H 0.1526 0.7921 0.1172
H3 H 0.1410 0.8906 0.0461
H4 H 0.0609 0.9436 0.1112
C3 C 0.2572(3) 1.0176(3) 0.08559(15)
H5 H 0.1812 1.0870 0.1024
H6 H 0.2466 1.0310 0.0354
H7 H 0.3405 1.0178 0.0968
C4 C 0.2473(3) 0.7380(3) 0.31909(14)
C5 C 0.1080(3) 0.7982(3) 0.31484(17)
H8 H 0.0631 0.8425 0.2710
C6 C 0.0330(4) 0.7953(4) 0.3726(2)
H9 H -0.0619 0.8353 0.3683
C7 C 0.0976(5) 0.7337(4) 0.4366(2)
H10 H 0.0471 0.7318 0.4766
C8 C 0.2351(4) 0.6750(4) 0.44245(18)
H11 H 0.2794 0.6333 0.4866
C9 C 0.3086(3) 0.6766(3) 0.38430(15)
H12 H 0.4036 0.6347 0.3890
C10 C 0.6132(3) 0.5514(3) 0.26480(17)
H13 H 0.6968 0.5614 0.2617
C11 C 0.6073(4) 0.4977(3) 0.20291(19)
H14 H 0.5315 0.4782 0.2067
H15 H 0.6907 0.4187 0.2020
H16 H 0.5960 0.5615 0.1603
C12 C 0.6257(4) 0.4560(3) 0.3320(2)
H17 H 0.6264 0.4933 0.3712
H18 H 0.7093 0.3762 0.3332
H19 H 0.5496 0.4371 0.3347
C13 C 0.6241(3) 0.7336(3) 0.36254(14)
C14 C 0.5595(3) 0.7554(3) 0.42348(13)
H20 H 0.4652 0.8076 0.4220
C15 C 0.6294(3) 0.7027(3) 0.48641(14)
H21 H 0.5836 0.7196 0.5278
C16 C 0.7658(3) 0.6257(4) 0.48895(15)
H22 H 0.8139 0.5874 0.5323
C17 C 0.8328(3) 0.6039(4) 0.42878(12)
H23 H 0.9273 0.5530 0.4304
C18 C 0.7621(3) 0.6565(3) 0.36614(14)
H24 H 0.8083 0.6397 0.3249
C19 C 0.6391(3) 0.8201(3) 0.21819(14)
C20 C 0.6380(3) 0.7940(3) 0.15330(13)
H25 H 0.5774 0.7646 0.1432
C21 C 0.7229(3) 0.8097(3) 0.10337(14)
H26 H 0.7209 0.7908 0.0595
C22 C 0.8109(3) 0.8529(3) 0.11726(14)
H27 H 0.8709 0.8624 0.0834
C23 C 0.8111(3) 0.8821(3) 0.18072(12)
H28 H 0.8706 0.9131 0.1902
C24 C 0.7256(3) 0.8669(3) 0.23063(14)
H29 H 0.7260 0.8886 0.2739
C25 C 0.1228(3) 1.0885(4) 0.38160(15)
H30 H 0.1708 0.9922 0.3943
C26 C 0.0101(3) 1.2675(3) 0.18814(16)
C27 C -0.0504(3) 1.1884(3) 0.18995(15)
H31 H -0.0452 1.1293 0.2316
C28 C -0.1176(3) 1.1941(3) 0.13269(15)
H32 H -0.1609 1.1416 0.1357
C29 C -0.1220(4) 1.2756(3) 0.07119(18)
H33 H -0.1657 1.2779 0.0312
C30 C -0.0621(4) 1.3539(3) 0.06822(18)
H34 H -0.0657 1.4112 0.0260
C31 C 0.0030(3) 1.3502(3) 0.12583(16)
H35 H 0.0436 1.4051 0.1228
C32 C 0.2078(3) 1.4263(3) 0.25007(15)
H36 H 0.2894 1.4299 0.2291
C33 C 0.2183(4) 1.4174(3) 0.32706(17)
H37 H 0.1369 1.4189 0.3485
H38 H 0.2284 1.4906 0.3348
H39 H 0.2962 1.3368 0.3476
C34 C 0.0858(3) 1.5506(3) 0.21729(18)
H40 H 0.0838 1.5585 0.1671
H41 H 0.0911 1.6245 0.2276
H42 H 0.0041 1.5485 0.2361
C35 C 0.3915(3) 1.2500(3) 0.12867(13)
C36 C 0.3332(3) 1.3766(3) 0.09258(15)
H43 H 0.2567 1.4395 0.1099
C37 C 0.3848(3) 1.4128(3) 0.03158(16)
H44 H 0.3438 1.5005 0.0078
C38 C 0.4946(3) 1.3238(3) 0.00470(15)
H45 H 0.5295 1.3491 -0.0374
C39 C 0.5530(3) 1.1972(3) 0.04007(14)
H46 H 0.6293 1.1347 0.0224
C40 C 0.5018(3) 1.1604(3) 0.10094(13)
H47 H 0.5425 1.0725 0.1243
C41 C 0.4763(3) 1.1538(3) 0.26959(14)
C42 C 0.5781(3) 1.1870(3) 0.25253(15)
H48 H 0.5800 1.2323 0.2071
C43 C 0.6778(3) 1.1547(3) 0.30133(16)
H49 H 0.7473 1.1781 0.2891
C44 C 0.6768(3) 1.0892(3) 0.36720(16)
H50 H 0.7444 1.0689 0.4005
C45 C 0.5774(3) 1.0528(3) 0.38496(15)
H51 H 0.5771 1.0061 0.4302
C46 C 0.4783(3) 1.0852(3) 0.33619(15)
H52 H 0.4100 1.0600 0.3484
Mg1 Mg 0.26751(8) 0.99806(9) 0.24841(4)
N1 N 0.2694(2) 0.8727(2) 0.19588(11)
N2 N 0.4988(2) 0.6814(2) 0.26439(12)
N3 N 0.1497(2) 1.1189(2) 0.30803(11)
N4 N 0.2033(2) 1.3115(2) 0.23438(12)
P1 P 0.33598(7) 0.71936(7) 0.23807(4)
P2 P 0.52189(7) 0.80071(7) 0.28216(4)
P3 P 0.07498(7) 1.27381(7) 0.26904(4)
P4 P 0.33842(6) 1.18984(7) 0.21098(3)
C47 C -0.0214(3) 1.1216(6) 0.3936(3)
H53 H -0.0545 1.0930 0.3597
H54 H -0.0745 1.2150 0.3886
H55 H -0.0294 1.0783 0.4403
C48 C 0.1782(5) 1.1294(5) 0.4326(2)
H56 H 0.2733 1.1032 0.4247
H57 H 0.1683 1.0885 0.4796
H58 H 0.1293 1.2233 0.4269
C49? C -0.0084(8) 1.0852(16) 0.3933(7)
C50? C 0.2287(11) 0.9798(10) 0.4307(6)
H59? H 0.1086 1.1664 0.3985
H60? H -0.0775 1.1576 0.3613
H61? H -0.0338 1.0921 0.4410
H62? H 0.0004 1.0039 0.3853
H63? H 0.3149 0.9802 0.4212
H64? H 0.2355 0.8979 0.4249
H65? H 0.2054 0.9898 0.4782
loop_
_geom_bond_atom_site_label_1
_geom_bond_atom_site_label_2
_geom_bond_site_symmetry_1
_geom_bond_site_symmetry_2
C1 H1 1_555 1_555
C2 C1 1_555 1_555
H2 C2 1_555 1_555
H3 C2 1_555 1_555
H4 C2 1_555 1_555
C3 C1 1_555 1_555
H5 C3 1_555 1_555
H6 C3 1_555 1_555
H7 C3 1_555 1_555
C4 C5 1_555 1_555
C5 H8 1_555 1_555
C6 C5 1_555 1_555
H9 C6 1_555 1_555
C7 C6 1_555 1_555
H10 C7 1_555 1_555
C8 C7 1_555 1_555
H11 C8 1_555 1_555
C9 C4 1_555 1_555
H12 C9 1_555 1_555
C10 H13 1_555 1_555
C11 C10 1_555 1_555
H14 C11 1_555 1_555
H15 C11 1_555 1_555
H16 C11 1_555 1_555
C12 C10 1_555 1_555
H17 C12 1_555 1_555
H18 C12 1_555 1_555
H19 C12 1_555 1_555
C13 C14 1_555 1_555
C14 H20 1_555 1_555
C15 C14 1_555 1_555
H21 C15 1_555 1_555
C16 C15 1_555 1_555
H22 C16 1_555 1_555
C17 C16 1_555 1_555
H23 C17 1_555 1_555
C18 C13 1_555 1_555
H24 C18 1_555 1_555
C19 C20 1_555 1_555
C20 H25 1_555 1_555
C21 C20 1_555 1_555
H26 C21 1_555 1_555
C22 C21 1_555 1_555
H27 C22 1_555 1_555
C23 C22 1_555 1_555
H28 C23 1_555 1_555
C24 C19 1_555 1_555
H29 C24 1_555 1_555
C25 H30 1_555 1_555
C26 C27 1_555 1_555
C27 H31 1_555 1_555
C28 C27 1_555 1_555
H32 C28 1_555 1_555
C29 C28 1_555 1_555
H33 C29 1_555 1_555
C30 C29 1_555 1_555
H34 C30 1_555 1_555
C31 C26 1_555 1_555
H35 C31 1_555 1_555
C32 H36 1_555 1_555
C33 C32 1_555 1_555
H37 C33 1_555 1_555
H38 C33 1_555 1_555
H39 C33 1_555 1_555
C34 C32 1_555 1_555
H40 C34 1_555 1_555
H41 C34 1_555 1_555
H42 C34 1_555 1_555
C35 C36 1_555 1_555
C36 H43 1_555 1_555
C37 C36 1_555 1_555
H44 C37 1_555 1_555
C38 C37 1_555 1_555
H45 C38 1_555 1_555
C39 C38 1_555 1_555
H46 C39 1_555 1_555
C40 C35 1_555 1_555
H47 C40 1_555 1_555
C41 C42 1_555 1_555
C42 H48 1_555 1_555
C43 C42 1_555 1_555
H49 C43 1_555 1_555
C44 C43 1_555 1_555
H50 C44 1_555 1_555
C45 C44 1_555 1_555
H51 C45 1_555 1_555
C46 C41 1_555 1_555
H52 C46 1_555 1_555
Mg1 N1 1_555 1_555
N1 C1 1_555 1_555
N2 C10 1_555 1_555
N3 C25 1_555 1_555
N4 C32 1_555 1_555
P1 C4 1_555 1_555
P2 C13 1_555 1_555
P3 C26 1_555 1_555
P4 C35 1_555 1_555
C47 C25 1_555 1_555
H53 C47 1_555 1_555
H54 C47 1_555 1_555
H55 C47 1_555 1_555
C48 C25 1_555 1_555
H56 C48 1_555 1_555
H57 C48 1_555 1_555
H58 C48 1_555 1_555
C8 C9 1_555 1_555
C17 C18 1_555 1_555
C19 P2 1_555 1_555
C23 C24 1_555 1_555
C30 C31 1_555 1_555
C39 C40 1_555 1_555
C41 P4 1_555 1_555
C45 C46 1_555 1_555
Mg1 N3 1_555 1_555
Mg1 P2 1_555 1_555
Mg1 P4 1_555 1_555
N1 P1 1_555 1_555
N2 P1 1_555 1_555
N2 P2 1_555 1_555
N3 P3 1_555 1_555
N4 P3 1_555 1_555
N4 P4 1_555 1_555

#END
