
#######################################################################
#
#                 Cambridge Crystallographic Data Centre
#                                CCDC 
#
#######################################################################
#
# If this CIF has been generated from an entry in the Cambridge 
# Structural Database, then it will include bibliographic, chemical, 
# crystal, experimental, refinement or atomic coordinate data resulting 
# from the CCDC's data processing and validation procedures.
#
#######################################################################

data_ILEVAY
_chemical_formula_moiety         'C16 H17 N1 O3'
_chemical_name_systematic        
3-(4-Hydroxy-3-methoxyphenyl)-N-phenylpropanamide
_symmetry_cell_setting           orthorhombic
_symmetry_space_group_name_H-M   'P 21 21 21'
_symmetry_Int_Tables_number      19
_space_group_name_Hall           'P 2ac 2ab'
loop_
_symmetry_equiv_pos_site_id
_symmetry_equiv_pos_as_xyz
1 x,y,z
2 1/2-x,-y,1/2+z
3 1/2+x,1/2-y,-z
4 -x,1/2+y,1/2-z
_cell_length_a                   7.9882(2)
_cell_length_b                   11.4053(3)
_cell_length_c                   16.2381(5)
_cell_angle_alpha                90
_cell_angle_beta                 90
_cell_angle_gamma                90
_cell_volume                     1479.42
_exptl_crystal_colour            colorless
_exptl_crystal_description       plate
_cell_formula_units_Z            4
loop_
_atom_site_label
_atom_site_type_symbol
_atom_site_fract_x
_atom_site_fract_y
_atom_site_fract_z
O1 O 0.28087(18) 0.29882(11) 0.40942(8)
O2 O 0.61577(17) 0.03229(12) 0.81828(8)
O3 O 0.3950(2) -0.12205(13) 0.85765(9)
H1 H 0.306(4) -0.172(2) 0.8728(15)
N1 N 0.3473(3) 0.42188(14) 0.51290(11)
H2 H 0.383(3) 0.425(2) 0.5597(15)
C1 C 0.3165(3) 0.31467(16) 0.48267(12)
C2 C 0.3319(3) 0.21368(16) 0.54248(11)
H3 H 0.4491 0.2042 0.5567
H4 H 0.2962 0.1425 0.5149
C3 C 0.2309(3) 0.22687(18) 0.62232(12)
H5 H 0.2570 0.3018 0.6475
H6 H 0.1124 0.2262 0.6094
C4 C 0.2687(3) 0.12949(16) 0.68290(11)
C5 C 0.1551(3) 0.04293(17) 0.70172(11)
H7 H 0.0517 0.0418 0.6754
C6 C 0.1933(3) -0.04365(17) 0.75997(11)
H8 H 0.1150 -0.1013 0.7726
C7 C 0.3469(3) -0.04334(16) 0.79857(11)
C8 C 0.4654(2) 0.04228(16) 0.77792(11)
C9 C 0.4257(2) 0.12772(17) 0.72138(11)
H9 H 0.5042 0.1851 0.7085
C10 C 0.7364(3) 0.1227(2) 0.80468(14)
H10 H 0.7645 0.1256 0.7472
H11 H 0.8354 0.1064 0.8362
H12 H 0.6905 0.1967 0.8214
C11 C 0.3436(3) 0.52936(17) 0.46881(11)
C12 C 0.2282(3) 0.55059(17) 0.40711(12)
H13 H 0.1496 0.4938 0.3931
C13 C 0.2310(3) 0.65718(18) 0.36650(14)
H14 H 0.1556 0.6706 0.3239
C14 C 0.3425(4) 0.7434(2) 0.38772(14)
H15 H 0.3418 0.8150 0.3603
C15 C 0.4562(4) 0.7228(2) 0.45049(14)
H16 H 0.5315 0.7811 0.4657
C16 C 0.4583(3) 0.61536(18) 0.49084(13)
H17 H 0.5359 0.6011 0.5323
loop_
_geom_bond_atom_site_label_1
_geom_bond_atom_site_label_2
_geom_bond_site_symmetry_1
_geom_bond_site_symmetry_2
O1 C1 1_555 1_555
O2 C8 1_555 1_555
O3 H1 1_555 1_555
N1 H2 1_555 1_555
C1 N1 1_555 1_555
C2 C1 1_555 1_555
H3 C2 1_555 1_555
H4 C2 1_555 1_555
C3 C2 1_555 1_555
H5 C3 1_555 1_555
H6 C3 1_555 1_555
C4 C3 1_555 1_555
C5 C4 1_555 1_555
H7 C5 1_555 1_555
C6 C5 1_555 1_555
H8 C6 1_555 1_555
C7 O3 1_555 1_555
C8 C7 1_555 1_555
C9 C4 1_555 1_555
H9 C9 1_555 1_555
C10 O2 1_555 1_555
H10 C10 1_555 1_555
H11 C10 1_555 1_555
H12 C10 1_555 1_555
C11 N1 1_555 1_555
C12 C11 1_555 1_555
H13 C12 1_555 1_555
C13 C12 1_555 1_555
H14 C13 1_555 1_555
C14 C13 1_555 1_555
H15 C14 1_555 1_555
C15 C14 1_555 1_555
H16 C15 1_555 1_555
C16 C11 1_555 1_555
H17 C16 1_555 1_555
C6 C7 1_555 1_555
C8 C9 1_555 1_555
C15 C16 1_555 1_555

#END
