
#######################################################################
#
#                 Cambridge Crystallographic Data Centre
#                                CCDC 
#
#######################################################################
#
# If this CIF has been generated from an entry in the Cambridge 
# Structural Database, then it will include bibliographic, chemical, 
# crystal, experimental, refinement or atomic coordinate data resulting 
# from the CCDC's data processing and validation procedures.
#
#######################################################################

data_ILEWIG
_chemical_formula_moiety         'C21 H13 Cl1 N4 O3'
_chemical_name_systematic        
(2-Chlorophenyl)(2-(2-nitrophenyl)-5-phenyl-2H-1,2,3-triazol-4-yl)methanone
_symmetry_cell_setting           triclinic
_symmetry_space_group_name_H-M   'P -1'
_symmetry_Int_Tables_number      2
_space_group_name_Hall           '-P 1'
loop_
_symmetry_equiv_pos_site_id
_symmetry_equiv_pos_as_xyz
1 x,y,z
2 -x,-y,-z
_cell_length_a                   10.0559(6)
_cell_length_b                   10.1750(6)
_cell_length_c                   10.2217(5)
_cell_angle_alpha                78.696(3)
_cell_angle_beta                 86.832(3)
_cell_angle_gamma                65.647(2)
_cell_volume                     933.946
_exptl_crystal_colour            yellow
_exptl_crystal_description       block
_cell_formula_units_Z            2
loop_
_atom_site_label
_atom_site_type_symbol
_atom_site_fract_x
_atom_site_fract_y
_atom_site_fract_z
C1 C 0.09243(17) 0.42574(16) 0.20222(15)
C2 C 0.03124(19) 0.35302(18) 0.14124(17)
H1 H -0.0554 0.3471 0.1716
C3 C 0.1000(2) 0.28935(19) 0.03502(19)
H2 H 0.0588 0.2415 -0.0073
C4 C 0.2298(2) 0.29611(19) -0.00909(19)
H3 H 0.2757 0.2533 -0.0810
C5 C 0.29086(18) 0.36655(18) 0.05394(17)
H4 H 0.3793 0.3690 0.0252
C6 C 0.22285(16) 0.43411(15) 0.15970(15)
C7 C 0.28526(16) 0.51987(15) 0.21966(15)
C8 C 0.44277(15) 0.44897(15) 0.25828(15)
C9 C 0.53710(15) 0.50585(15) 0.29926(15)
C10 C 0.52144(17) 0.65678(16) 0.29690(16)
C11 C 0.43379(19) 0.77399(17) 0.20148(18)
H5 H 0.3788 0.7592 0.1402
C12 C 0.4281(2) 0.91301(19) 0.1974(2)
H6 H 0.3703 0.9911 0.1325
C13 C 0.5075(2) 0.9361(2) 0.2887(3)
H7 H 0.5029 1.0298 0.2859
C14 C 0.5927(2) 0.8219(2) 0.3832(3)
H8 H 0.6456 0.8385 0.4452
C15 C 0.60189(19) 0.6811(2) 0.3886(2)
H9 H 0.6614 0.6035 0.4530
C16 C 0.74953(16) 0.12992(16) 0.36425(17)
C17 C 0.77620(18) 0.06698(19) 0.49694(19)
H10 H 0.7259 0.1200 0.5618
C18 C 0.8788(2) -0.0766(2) 0.5335(2)
H11 H 0.8973 -0.1199 0.6234
C19 C 0.9532(2) -0.15492(19) 0.4382(3)
H12 H 1.0228 -0.2506 0.4640
C20 C 0.9264(2) -0.0943(2) 0.3058(2)
H13 H 0.9758 -0.1485 0.2414
C21 C 0.82483(18) 0.04864(17) 0.26884(19)
Cl1 Cl 0.00095(6) 0.50406(6) 0.33448(5)
N1 N 0.51190(13) 0.30280(13) 0.27752(13)
N2 N 0.64024(13) 0.27591(13) 0.32830(14)
N3 N 0.66220(14) 0.39250(13) 0.34332(13)
N4 N 0.8004(2) 0.1125(2) 0.12599(18)
O1 O 0.21029(13) 0.64213(13) 0.23936(16)
O2 O 0.76102(19) 0.24284(17) 0.08933(15)
O3 O 0.8201(4) 0.0294(2) 0.0506(2)
loop_
_geom_bond_atom_site_label_1
_geom_bond_atom_site_label_2
_geom_bond_site_symmetry_1
_geom_bond_site_symmetry_2
C1 C2 1_555 1_555
C2 H1 1_555 1_555
C3 C2 1_555 1_555
H2 C3 1_555 1_555
C4 C3 1_555 1_555
H3 C4 1_555 1_555
C5 C4 1_555 1_555
H4 C5 1_555 1_555
C6 C1 1_555 1_555
C7 C6 1_555 1_555
C8 C7 1_555 1_555
C9 C8 1_555 1_555
C10 C9 1_555 1_555
C11 C10 1_555 1_555
H5 C11 1_555 1_555
C12 C11 1_555 1_555
H6 C12 1_555 1_555
C13 C12 1_555 1_555
H7 C13 1_555 1_555
C14 C13 1_555 1_555
H8 C14 1_555 1_555
C15 C10 1_555 1_555
H9 C15 1_555 1_555
C16 C17 1_555 1_555
C17 H10 1_555 1_555
C18 C17 1_555 1_555
H11 C18 1_555 1_555
C19 C18 1_555 1_555
H12 C19 1_555 1_555
C20 C19 1_555 1_555
H13 C20 1_555 1_555
C21 C16 1_555 1_555
Cl1 C1 1_555 1_555
N1 C8 1_555 1_555
N2 C16 1_555 1_555
N3 C9 1_555 1_555
N4 C21 1_555 1_555
O1 C7 1_555 1_555
O2 N4 1_555 1_555
O3 N4 1_555 1_555
C5 C6 1_555 1_555
C14 C15 1_555 1_555
C20 C21 1_555 1_555
N1 N2 1_555 1_555
N2 N3 1_555 1_555

#END
