
#######################################################################
#
#                 Cambridge Crystallographic Data Centre
#                                CCDC 
#
#######################################################################
#
# If this CIF has been generated from an entry in the Cambridge 
# Structural Database, then it will include bibliographic, chemical, 
# crystal, experimental, refinement or atomic coordinate data resulting 
# from the CCDC's data processing and validation procedures.
#
#######################################################################

data_ILEWED
_chemical_formula_moiety         'C18 H11 F1 N2 O1'
_chemical_name_systematic        
2-Benzoyl-3-(4-fluorophenyl)cyclopropane-1,1-dicarbonitrile
_symmetry_cell_setting           monoclinic
_symmetry_space_group_name_H-M   'C 2/c'
_symmetry_Int_Tables_number      15
_space_group_name_Hall           '-C 2yn'
loop_
_symmetry_equiv_pos_site_id
_symmetry_equiv_pos_as_xyz
1 x,y,z
2 -x,y,1/2-z
3 1/2+x,1/2+y,z
4 1/2-x,1/2+y,1/2-z
5 -x,-y,-z
6 x,-y,1/2+z
7 1/2-x,1/2-y,-z
8 1/2+x,1/2-y,1/2+z
_cell_length_a                   21.221(13)
_cell_length_b                   6.325(4)
_cell_length_c                   22.732(14)
_cell_angle_alpha                90
_cell_angle_beta                 108.922(16)
_cell_angle_gamma                90
_cell_volume                     2886.27
_exptl_crystal_colour            colorless
_exptl_crystal_description       block
_cell_formula_units_Z            8
loop_
_atom_site_label
_atom_site_type_symbol
_atom_site_fract_x
_atom_site_fract_y
_atom_site_fract_z
C1 C 0.18068(7) 0.7770(2) 0.39541(6)
C2 C 0.21023(8) 0.5846(3) 0.39580(7)
C3 C 0.18392(8) 0.4518(3) 0.34503(7)
C4 C 0.12873(6) 0.5128(2) 0.29526(6)
C5 C 0.10062(7) 0.7103(2) 0.29690(7)
C6 C 0.12662(8) 0.8432(3) 0.34739(7)
C7 C 0.09813(6) 0.3654(2) 0.24222(6)
C8 C 0.13394(6) 0.31095(19) 0.19559(6)
C9 C 0.06887(6) 0.4432(2) 0.17674(6)
C10 C 0.13126(7) 0.0968(2) 0.17209(6)
C11 C 0.19491(7) 0.4232(2) 0.20037(6)
C12 C 0.00630(6) 0.3380(2) 0.13536(7)
C13 C -0.03651(6) 0.4456(2) 0.07829(6)
C14 C -0.02407(8) 0.6481(2) 0.06098(7)
C15 C -0.06693(9) 0.7387(3) 0.00689(8)
C16 C -0.12150(9) 0.6290(4) -0.02974(8)
C17 C -0.13395(9) 0.4278(4) -0.01352(8)
C18 C -0.09217(7) 0.3363(3) 0.04017(7)
F1 F 0.20637(5) 0.90916(17) 0.44498(4)
H1 H 0.2490(9) 0.549(3) 0.4303(8)
H2 H 0.2047(8) 0.313(3) 0.3453(7)
H3 H 0.0625(8) 0.747(2) 0.2616(7)
H4 H 0.1064(8) 0.983(3) 0.3477(8)
H5 H 0.0750(7) 0.245(2) 0.2518(6)
H6 H 0.0768(7) 0.588(2) 0.1685(6)
H7 H 0.0140(8) 0.725(3) 0.0859(8)
H8 H -0.0589(9) 0.879(3) -0.0045(8)
H9 H -0.1520(9) 0.694(3) -0.0679(9)
H10 H -0.1728(10) 0.352(3) -0.0405(10)
H11 H -0.0988(8) 0.192(3) 0.0527(8)
N1 N 0.24250(6) 0.5133(2) 0.20416(6)
N2 N 0.12819(8) -0.0684(2) 0.15162(7)
O1 O -0.00765(5) 0.16373(18) 0.15036(6)
loop_
_geom_bond_atom_site_label_1
_geom_bond_atom_site_label_2
_geom_bond_site_symmetry_1
_geom_bond_site_symmetry_2
C1 C2 1_555 1_555
C2 C3 1_555 1_555
C3 C4 1_555 1_555
C4 C5 1_555 1_555
C5 C6 1_555 1_555
C6 C1 1_555 1_555
C7 C4 1_555 1_555
C8 C7 1_555 1_555
C9 C7 1_555 1_555
C10 C8 1_555 1_555
C11 C8 1_555 1_555
C12 C9 1_555 1_555
C13 C12 1_555 1_555
C14 C13 1_555 1_555
C15 C14 1_555 1_555
C16 C15 1_555 1_555
C17 C16 1_555 1_555
C18 C13 1_555 1_555
F1 C1 1_555 1_555
H1 C2 1_555 1_555
H2 C3 1_555 1_555
H3 C5 1_555 1_555
H4 C6 1_555 1_555
H5 C7 1_555 1_555
H6 C9 1_555 1_555
H7 C14 1_555 1_555
H8 C15 1_555 1_555
H9 C16 1_555 1_555
H10 C17 1_555 1_555
H11 C18 1_555 1_555
N1 C11 1_555 1_555
N2 C10 1_555 1_555
O1 C12 1_555 1_555
C8 C9 1_555 1_555
C17 C18 1_555 1_555

#END
