
#######################################################################
#
#                 Cambridge Crystallographic Data Centre
#                                CCDC 
#
#######################################################################
#
# If this CIF has been generated from an entry in the Cambridge 
# Structural Database, then it will include bibliographic, chemical, 
# crystal, experimental, refinement or atomic coordinate data resulting 
# from the CCDC's data processing and validation procedures.
#
#######################################################################

data_ILEWIH
_chemical_formula_moiety         'C22 H30 N2 O4 S2'
_chemical_name_systematic        
1,6-bis((4-Methylphenyl)sulfonyl)-1,6-diazecane
_symmetry_cell_setting           monoclinic
_symmetry_space_group_name_H-M   'P 21/c'
_symmetry_Int_Tables_number      14
_space_group_name_Hall           '-P 2ybc'
loop_
_symmetry_equiv_pos_site_id
_symmetry_equiv_pos_as_xyz
1 x,y,z
2 -x,1/2+y,1/2-z
3 -x,-y,-z
4 x,1/2-y,1/2+z
_cell_length_a                   13.6316(5)
_cell_length_b                   5.7462(2)
_cell_length_c                   14.1562(5)
_cell_angle_alpha                90
_cell_angle_beta                 91.758(4)
_cell_angle_gamma                90
_cell_volume                     1108.33
_exptl_crystal_colour            colorless
_exptl_crystal_description       block
_cell_formula_units_Z            2
loop_
_atom_site_label
_atom_site_type_symbol
_atom_site_fract_x
_atom_site_fract_y
_atom_site_fract_z
S1 S 0.20884(4) -0.13282(11) 0.38800(4)
O1 O 0.15965(15) -0.3217(3) 0.34052(14)
O2 O 0.27308(15) -0.1841(4) 0.46672(14)
N1 N 0.12620(13) 0.0457(4) 0.42389(12)
C1 C 0.4583(2) 0.3472(6) 0.0995(2)
H1 H 0.4548 0.2631 0.0409
H2 H 0.5249 0.3499 0.1234
H3 H 0.4357 0.5037 0.0892
C2 C 0.39429(17) 0.2291(5) 0.17038(18)
C3 C 0.38072(19) 0.3282(5) 0.2588(2)
H4 H 0.4112 0.4687 0.2740
C4 C 0.32320(19) 0.2224(5) 0.32392(18)
H5 H 0.3145 0.2913 0.3825
C5 C 0.27809(15) 0.0128(4) 0.30202(16)
C6 C 0.28955(18) -0.0867(5) 0.21460(17)
H6 H 0.2583 -0.2263 0.1994
C7 C 0.34769(18) 0.0216(5) 0.14959(18)
H7 H 0.3555 -0.0466 0.0907
C8 C 0.05030(18) 0.1151(5) 0.35349(17)
H8 H 0.0614 0.0331 0.2949
H9 H 0.0567 0.2804 0.3411
C9 C -0.05485(18) 0.0655(6) 0.38406(17)
H10 H -0.0704 0.1718 0.4347
H11 H -0.0997 0.0982 0.3312
C10 C -0.0726(2) -0.1811(5) 0.41738(18)
H12 H -0.0109 -0.2461 0.4408
H13 H -0.0949 -0.2741 0.3637
C11 C -0.1478(2) -0.2004(5) 0.49491(18)
H14 H -0.2123 -0.1628 0.4683
H15 H -0.1496 -0.3601 0.5170
S1B S -0.20884(4) 0.13282(11) 0.61200(4)
O1B O -0.15965(15) 0.3217(3) 0.65948(14)
O2B O -0.27308(15) 0.1841(4) 0.53328(14)
N1B N -0.12620(13) -0.0457(4) 0.57611(12)
C1B C -0.4583(2) -0.3472(6) 0.9005(2)
H1B H -0.4548 -0.2631 0.9591
H2B H -0.5249 -0.3499 0.8766
H3B H -0.4357 -0.5037 0.9108
C2B C -0.39429(17) -0.2291(5) 0.82962(18)
C3B C -0.38072(19) -0.3282(5) 0.7412(2)
H4B H -0.4112 -0.4687 0.7260
C4B C -0.32320(19) -0.2224(5) 0.67608(18)
H5B H -0.3145 -0.2913 0.6175
C5B C -0.27809(15) -0.0128(4) 0.69798(16)
C6B C -0.28955(18) 0.0867(5) 0.78540(17)
H6B H -0.2583 0.2263 0.8006
C7B C -0.34769(18) -0.0216(5) 0.85041(18)
H7B H -0.3555 0.0466 0.9093
C8B C -0.05030(18) -0.1151(5) 0.64651(17)
H8B H -0.0614 -0.0331 0.7051
H9B H -0.0567 -0.2804 0.6589
C9B C 0.05485(18) -0.0655(6) 0.61594(17)
H10B H 0.0704 -0.1718 0.5653
H11B H 0.0997 -0.0982 0.6688
C10B C 0.0726(2) 0.1811(5) 0.58262(18)
H12B H 0.0109 0.2461 0.5592
H13B H 0.0949 0.2741 0.6363
C11B C 0.1478(2) 0.2004(5) 0.50509(18)
H14B H 0.2123 0.1628 0.5317
H15B H 0.1496 0.3601 0.4830
loop_
_geom_bond_atom_site_label_1
_geom_bond_atom_site_label_2
_geom_bond_site_symmetry_1
_geom_bond_site_symmetry_2
S1 O1 1_555 1_555
O2 S1 1_555 1_555
N1 S1 1_555 1_555
C1 H1 1_555 1_555
H2 C1 1_555 1_555
H3 C1 1_555 1_555
C2 C1 1_555 1_555
C3 C2 1_555 1_555
H4 C3 1_555 1_555
C4 C3 1_555 1_555
H5 C4 1_555 1_555
C5 S1 1_555 1_555
C6 C5 1_555 1_555
H6 C6 1_555 1_555
C7 C2 1_555 1_555
H7 C7 1_555 1_555
C8 N1 1_555 1_555
H8 C8 1_555 1_555
H9 C8 1_555 1_555
C9 C8 1_555 1_555
H10 C9 1_555 1_555
H11 C9 1_555 1_555
C10 C9 1_555 1_555
H12 C10 1_555 1_555
H13 C10 1_555 1_555
C11 C10 1_555 1_555
H14 C11 1_555 1_555
H15 C11 1_555 1_555
S1B O1B 1_555 1_555
O2B S1B 1_555 1_555
N1B C11 1_555 1_555
C1B H1B 1_555 1_555
H2B C1B 1_555 1_555
H3B C1B 1_555 1_555
C2B C1B 1_555 1_555
C3B C2B 1_555 1_555
H4B C3B 1_555 1_555
C4B C3B 1_555 1_555
H5B C4B 1_555 1_555
C5B S1B 1_555 1_555
C6B C5B 1_555 1_555
H6B C6B 1_555 1_555
C7B C2B 1_555 1_555
H7B C7B 1_555 1_555
C8B N1B 1_555 1_555
H8B C8B 1_555 1_555
H9B C8B 1_555 1_555
C9B C8B 1_555 1_555
H10B C9B 1_555 1_555
H11B C9B 1_555 1_555
C10B C9B 1_555 1_555
H12B C10B 1_555 1_555
H13B C10B 1_555 1_555
C11B N1 1_555 1_555
H14B C11B 1_555 1_555
H15B C11B 1_555 1_555
C4 C5 1_555 1_555
C6 C7 1_555 1_555
S1B N1B 1_555 1_555
C4B C5B 1_555 1_555
C6B C7B 1_555 1_555
C10B C11B 1_555 1_555

#END
