
#######################################################################
#
#                 Cambridge Crystallographic Data Centre
#                                CCDC 
#
#######################################################################
#
# If this CIF has been generated from an entry in the Cambridge 
# Structural Database, then it will include bibliographic, chemical, 
# crystal, experimental, refinement or atomic coordinate data resulting 
# from the CCDC's data processing and validation procedures.
#
#######################################################################

data_ILEWUR01
_chemical_name_common            
'5H-2-(1,3-Dithio-2-ylidene)-1,3-diselena-4,6-dithiapentalene polyiodide'
_chemical_formula_moiety         'C7 H4 S4 Se2,1.27(I1)'
_chemical_name_systematic        
'Methylenedithiodiselenadithiafulvalene polyiodide'
_symmetry_cell_setting           orthorhombic
_symmetry_space_group_name_H-M   'P n m a'
_symmetry_Int_Tables_number      62
_space_group_name_Hall           '-P 2ac 2n'
loop_
_symmetry_equiv_pos_site_id
_symmetry_equiv_pos_as_xyz
1 x,y,z
2 1/2+x,1/2-y,1/2-z
3 -x,1/2+y,-z
4 1/2-x,-y,1/2+z
5 -x,-y,-z
6 1/2-x,1/2+y,1/2+z
7 x,1/2-y,z
8 1/2+x,y,1/2-z
_cell_length_a                   3.959(6)
_cell_length_b                   12.415(3)
_cell_length_c                   25.469(4)
_cell_angle_alpha                90
_cell_angle_beta                 90
_cell_angle_gamma                90
_cell_volume                     1251.83
_exptl_crystal_colour            bronze
_exptl_crystal_description       needle
_cell_formula_units_Z            4
loop_
_atom_site_label
_atom_site_type_symbol
_atom_site_fract_x
_atom_site_fract_y
_atom_site_fract_z
Se1 Se 0.7812(2) 0.12070(6) 0.51654(3)
S1 S 1.0574(7) 0.1296(2) 0.39993(9)
S2 S 0.4159(6) 0.1316(2) 0.63295(9)
C1 C 1.213(4) 0.2500 0.3677(5)
C2 C 0.926(2) 0.1957(6) 0.4568(3)
C3 C 0.672(3) 0.2500 0.5535(4)
C4 C 0.521(3) 0.2500 0.5993(5)
C5 C 0.240(2) 0.1965(7) 0.6858(3)
H1 H 1.4573 0.2500 0.3677
H2 H 1.1433 0.2500 0.3313
H3 H 0.1429 0.1562 0.7151
S1F S 1.0574(7) 0.3704(2) 0.39993(9)
C2F C 0.926(2) 0.3043(6) 0.4568(3)
Se1F Se 0.7812(2) 0.37930(6) 0.51654(3)
C5F C 0.240(2) 0.3035(7) 0.6858(3)
S2F S 0.4159(6) 0.3684(2) 0.63295(9)
H3F H 0.1429 0.3438 0.7151
I1? I 0.231(10) -0.07694(9) 0.7484(3)
loop_
_geom_bond_atom_site_label_1
_geom_bond_atom_site_label_2
_geom_bond_site_symmetry_1
_geom_bond_site_symmetry_2
Se1 C2 1_555 1_555
S1 C1 1_555 1_555
S2 C4 1_555 1_555
C1 H1 1_555 1_555
C2 S1 1_555 1_555
C3 Se1 1_555 1_555
C4 C3 1_555 1_555
C5 S2 1_555 1_555
H2 C1 1_555 1_555
H3 C5 1_555 1_555
S1F C1 1_555 1_555
C2F C2 1_555 1_555
Se1F C3 1_555 1_555
C5F C5 1_555 1_555
S2F C4 1_555 1_555
H3F C5F 1_555 1_555
S1F C2F 1_555 1_555
C2F Se1F 1_555 1_555
C5F S2F 1_555 1_555

#END
