
#######################################################################
#
#                 Cambridge Crystallographic Data Centre
#                                CCDC 
#
#######################################################################
#
# If this CIF has been generated from an entry in the Cambridge 
# Structural Database, then it will include bibliographic, chemical, 
# crystal, experimental, refinement or atomic coordinate data resulting 
# from the CCDC's data processing and validation procedures.
#
#######################################################################

data_ILEXON
_chemical_name_common            
N'-(N-(2,3,4-Tri-O-acetyl-beta-D-xylopyranosyl)thiocarbamoyl)-2-(1-phenyl-1H-tetrazol-5-ylsulfanyl)acetohydrazide
_chemical_formula_moiety         'C21 H25 N7 O8 S2'
_chemical_name_systematic        
'2-(((2-(((1-Phenyl-1H-tetrazol-5-yl)sulfanyl)acetyl)hydrazino)carbothioyl)amino)tetrahydro-2H-pyran-3,4,5-triyl triacetate'
_symmetry_cell_setting           orthorhombic
_symmetry_space_group_name_H-M   'P 21 21 21'
_symmetry_Int_Tables_number      19
_space_group_name_Hall           'P 2ac 2ab'
loop_
_symmetry_equiv_pos_site_id
_symmetry_equiv_pos_as_xyz
1 x,y,z
2 1/2-x,-y,1/2+z
3 -x,1/2+y,1/2-z
4 1/2+x,1/2-y,-z
_cell_length_a                   9.5924(19)
_cell_length_b                   12.641(3)
_cell_length_c                   23.292(5)
_cell_angle_alpha                90
_cell_angle_beta                 90
_cell_angle_gamma                90
_cell_volume                     2824.33
_exptl_crystal_colour            colorless
_exptl_crystal_description       block
_cell_formula_units_Z            4
_exptl_crystal_recrystallization_method ethanol
loop_
_atom_site_label
_atom_site_type_symbol
_atom_site_fract_x
_atom_site_fract_y
_atom_site_fract_z
S1 S 0.86202(10) 0.24348(7) 0.19828(4)
S2 S 0.46715(9) -0.13280(7) 0.33958(4)
O1 O 0.54692(19) -0.08000(16) 0.16644(8)
O2 O 0.77400(19) -0.25488(16) 0.24885(8)
C1 C 0.6648(3) -0.1794(2) 0.23873(10)
H1 H 0.5747 -0.2111 0.2486
C2 C 0.9396(3) 0.1209(2) 0.18725(12)
O3 O 0.74865(19) -0.41261(16) 0.11679(9)
O4 O 0.6562(2) -0.21760(19) 0.07876(8)
N1 N 0.6509(3) 0.01795(19) 0.35191(10)
H2 H 0.6154 0.0271 0.3855
C3 C 0.7662(3) -0.3208(2) 0.15266(11)
H3 H 0.8560 -0.2869 0.1447
O5 O 0.6003(2) 0.1569(2) 0.26728(11)
N2 N 0.9324(2) 0.0365(2) 0.21914(12)
C4 C 0.6087(3) -0.0660(2) 0.31990(11)
N3 N 0.7490(2) 0.08897(19) 0.33212(10)
H4 H 0.8314 0.0900 0.3467
N4 N 0.6901(2) -0.09111(18) 0.27460(9)
H5 H 0.7607 -0.0515 0.2672
N5 N 1.0171(2) 0.1008(2) 0.14005(10)
C5 C 0.6652(3) -0.1485(2) 0.17502(10)
H6 H 0.7518 -0.1115 0.1652
C6 C 1.1437(3) 0.2508(3) 0.10350(12)
H7 H 1.1755 0.2647 0.1405
N6 N 1.0576(3) -0.0021(2) 0.14380(15)
C7 C 0.6485(3) -0.2459(2) 0.13868(10)
H8 H 0.5587 -0.2798 0.1469
C8 C 0.7142(3) 0.1568(2) 0.28964(13)
O6 O 0.9748(2) -0.4469(2) 0.12267(13)
C9 C 1.0568(3) 0.1673(3) 0.09320(12)
N7 N 1.0083(3) -0.0384(2) 0.19129(13)
C10 C 0.8621(3) -0.4688(3) 0.10432(13)
O7 O 0.6785(3) 0.0359(2) 0.11700(12)
C11 C 0.7558(3) -0.3487(2) 0.21553(11)
H9 H 0.6654 -0.3797 0.2236
H10 H 0.8271 -0.4000 0.2254
C12 C 0.5692(4) 0.0106(2) 0.13648(13)
C13 C 0.8310(4) -0.5564(3) 0.06457(17)
H11 H 0.9150 -0.5950 0.0566
H12 H 0.7939 -0.5284 0.0294
H13 H 0.7638 -0.6029 0.0818
C14 C 1.1365(4) 0.2920(4) 0.00335(14)
H14 H 1.1653 0.3333 -0.0275
C15 C 1.1837(4) 0.3147(3) 0.05800(15)
H15 H 1.2420 0.3723 0.0642
C16 C 0.5566(5) -0.2667(5) 0.04381(15)
C17 C 0.4708(3) -0.3249(3) 0.05955(13)
H16 H 0.4730 -0.3290 0.1007
H17 H 0.4876 -0.3938 0.0436
H18 H 0.3811 -0.3000 0.0473
C18 C 0.8288(4) 0.2337(3) 0.27356(17)
H19 H 0.9141 0.2123 0.2927
H20 H 0.8041 0.3033 0.2879
C19 C 1.0485(4) 0.2099(4) -0.00557(14)
H21 H 1.0152 0.1966 -0.0424
C20 C 0.4369(4) 0.0732(3) 0.13442(19)
H22 H 0.4521 0.1372 0.1132
H23 H 0.4081 0.0903 0.1728
H24 H 0.3656 0.0321 0.1160
C21 C 1.0073(4) 0.1452(4) 0.03942(15)
H25 H 0.9476 0.0884 0.0332
O8 O 0.5921(8) -0.2328(7) -0.01853(16)
loop_
_geom_bond_atom_site_label_1
_geom_bond_atom_site_label_2
_geom_bond_site_symmetry_1
_geom_bond_site_symmetry_2
S1 C2 1_555 1_555
S2 C4 1_555 1_555
O1 C5 1_555 1_555
O2 C1 1_555 1_555
C1 H1 1_555 1_555
C2 N2 1_555 1_555
O3 C3 1_555 1_555
O4 C7 1_555 1_555
N1 H2 1_555 1_555
C3 H3 1_555 1_555
O5 C8 1_555 1_555
N2 N7 1_555 1_555
C4 N1 1_555 1_555
N3 N1 1_555 1_555
H4 N3 1_555 1_555
N4 C1 1_555 1_555
H5 N4 1_555 1_555
N5 C2 1_555 1_555
C5 C1 1_555 1_555
H6 C5 1_555 1_555
C6 H7 1_555 1_555
N6 N5 1_555 1_555
C7 C3 1_555 1_555
H8 C7 1_555 1_555
C8 N3 1_555 1_555
O6 C10 1_555 1_555
C9 N5 1_555 1_555
N7 N6 1_555 1_555
C10 O3 1_555 1_555
O7 C12 1_555 1_555
C11 O2 1_555 1_555
H9 C11 1_555 1_555
H10 C11 1_555 1_555
C12 O1 1_555 1_555
C13 C10 1_555 1_555
H11 C13 1_555 1_555
H12 C13 1_555 1_555
H13 C13 1_555 1_555
C14 H14 1_555 1_555
C15 C6 1_555 1_555
H15 C15 1_555 1_555
C16 O4 1_555 1_555
C17 C16 1_555 1_555
H16 C17 1_555 1_555
H17 C17 1_555 1_555
H18 C17 1_555 1_555
C18 S1 1_555 1_555
H19 C18 1_555 1_555
H20 C18 1_555 1_555
C19 C14 1_555 1_555
H21 C19 1_555 1_555
C20 C12 1_555 1_555
H22 C20 1_555 1_555
H23 C20 1_555 1_555
H24 C20 1_555 1_555
C21 C9 1_555 1_555
H25 C21 1_555 1_555
O8 C16 1_555 1_555
C3 C11 1_555 1_555
C4 N4 1_555 1_555
C5 C7 1_555 1_555
C6 C9 1_555 1_555
C8 C18 1_555 1_555
C14 C15 1_555 1_555
C19 C21 1_555 1_555

#END
