
#######################################################################
#
#                 Cambridge Crystallographic Data Centre
#                                CCDC 
#
#######################################################################
#
# If this CIF has been generated from an entry in the Cambridge 
# Structural Database, then it will include bibliographic, chemical, 
# crystal, experimental, refinement or atomic coordinate data resulting 
# from the CCDC's data processing and validation procedures.
#
#######################################################################

data_ILEXUT
_chemical_name_common            
N'-(N-(2,3,4-Tri-O-acetyl-beta-D-xylopyranosyl)thiocarbamoyl)-2-(1-(4-chlorophenyl)-1H-tetrazol-5-ylsulfanyl)acetohydrazide
_chemical_formula_moiety         'C21 H24 Cl1 N7 O8 S2'
_chemical_name_systematic        
'2-(((2-(((1-(4-Chlorophenyl)-1H-tetrazol-5-yl)sulfanyl)acetyl)hydrazino)carbothioyl)amino)tetrahydro-2H-pyran-3,4,5-triyl triacetate'
_symmetry_cell_setting           monoclinic
_symmetry_space_group_name_H-M   'P 21'
_symmetry_Int_Tables_number      4
_space_group_name_Hall           'P 2yb'
loop_
_symmetry_equiv_pos_site_id
_symmetry_equiv_pos_as_xyz
1 x,y,z
2 -x,1/2+y,-z
_cell_length_a                   9.7023(19)
_cell_length_b                   12.800(3)
_cell_length_c                   11.889(2)
_cell_angle_alpha                90
_cell_angle_beta                 99.36(3)
_cell_angle_gamma                90
_cell_volume                     1456.83
_exptl_crystal_colour            colorless
_exptl_crystal_description       block
_cell_formula_units_Z            2
_exptl_crystal_recrystallization_method ethanol
loop_
_atom_site_label
_atom_site_type_symbol
_atom_site_fract_x
_atom_site_fract_y
_atom_site_fract_z
S1 S 0.4764(3) 0.97179(19) 0.7980(2)
S2 S 0.1876(3) 1.34922(19) 1.1086(2)
O1 O 0.2807(5) 0.7032(5) 1.2443(5)
O2 O 0.4800(5) 1.0277(4) 1.1540(4)
O3 O 0.2164(5) 0.8638(4) 0.9862(4)
N1 N 0.0318(6) 1.2105(5) 1.2041(5)
O4 O 0.3966(6) 0.8936(5) 1.3249(4)
C1 C 0.3808(7) 0.8665(5) 1.2056(5)
H1 H 0.4648 0.8304 1.1900
C2 C 0.3579(7) 0.9657(6) 1.1348(6)
H2 H 0.2778 1.0048 1.1533
C3 C 0.1016(7) 1.2326(6) 1.1177(6)
N2 N 0.2971(7) 1.0230(5) 0.9387(5)
H3 H 0.2328 1.0642 0.9544
N3 N 0.3183(7) 1.1346(5) 0.7893(5)
H4 H 0.3435 1.1461 0.7243
C4 C 0.2567(8) 0.7959(7) 1.1792(6)
H5 H 0.1727 0.8313 1.1958
N4 N 0.2334(7) 1.2089(5) 0.8333(6)
H6 H 0.1466 1.2157 0.8046
C5 C 0.3336(7) 0.9345(6) 1.0083(6)
H7 H 0.4175 0.9013 0.9886
N5 N 0.0901(6) 1.1538(5) 1.0465(5)
C6 C 0.0158(8) 1.2707(7) 1.3046(6)
O5 O 0.4141(6) 1.2613(6) 0.9670(6)
N6 N -0.0214(8) 1.1132(6) 1.1850(6)
N7 N 0.0124(8) 1.0803(5) 1.0921(6)
C7 C 0.3789(9) 1.1399(7) 1.2627(8)
H8 H 0.3026 1.0930 1.2385
H9 H 0.3514 1.2099 1.2400
H10 H 0.4039 1.1370 1.3442
C8 C 0.5006(9) 0.8434(8) 1.3972(6)
C9 C 0.1920(11) 1.3500(8) 0.9562(9)
H11 H 0.0991 1.3353 0.9152
H12 H 0.2189 1.4189 0.9338
C10 C 0.5772(7) 0.7814(7) 1.3693(6)
H13 H 0.5685 0.7812 1.2877
H14 H 0.5545 0.7135 1.3951
H15 H 0.6714 0.7989 1.4021
C11 C -0.0851(9) 1.3445(8) 1.2957(8)
H16 H -0.1445 1.3563 1.2272
C12 C 0.2932(10) 1.2700(6) 0.9233(8)
C13 C -0.0965(9) 1.4013(9) 1.3919(8)
H17 H -0.1636 1.4536 1.3887
C14 C 0.3615(7) 1.0451(7) 0.8469(6)
C15 C 0.1694(11) 0.6562(8) 1.2796(8)
C16 C 0.2407(9) 0.7697(6) 1.0492(7)
H18 H 0.3250 0.7363 1.0328
H19 H 0.1631 0.7220 1.0279
C17 C -0.0107(11) 1.3817(8) 1.4916(8)
C18 C 0.0574(8) 0.6885(9) 1.2540(9)
H20 H 0.0590 0.7469 1.2036
H21 H 0.0220 0.7105 1.3210
H22 H -0.0018 0.6348 1.2160
C19 C 0.4778(10) 1.1147(7) 1.2193(8)
C20 C 0.1059(10) 1.2493(9) 1.4018(7)
H23 H 0.1732 1.1975 1.4026
C21 C 0.0962(13) 1.3062(10) 1.5005(8)
H24 H 0.1570 1.2948 1.5683
O6 O 0.227(2) 0.5643(12) 1.3581(13)
O7 O 0.4868(19) 0.8721(19) 1.5191(9)
O8 O 0.6116(12) 1.1727(10) 1.2306(11)
Cl1 Cl -0.0222(3) 1.4538(2) 1.6132(2)
loop_
_geom_bond_atom_site_label_1
_geom_bond_atom_site_label_2
_geom_bond_site_symmetry_1
_geom_bond_site_symmetry_2
S1 C14 1_555 1_555
S2 C3 1_555 1_555
O1 C4 1_555 1_555
O2 C2 1_555 1_555
O3 C5 1_555 1_555
N1 C3 1_555 1_555
O4 C1 1_555 1_555
C1 H1 1_555 1_555
C2 C1 1_555 1_555
H2 C2 1_555 1_555
C3 N5 1_555 1_555
N2 H3 1_555 1_555
N3 H4 1_555 1_555
C4 C1 1_555 1_555
H5 C4 1_555 1_555
N4 N3 1_555 1_555
H6 N4 1_555 1_555
C5 C2 1_555 1_555
H7 C5 1_555 1_555
N5 N7 1_555 1_555
C6 N1 1_555 1_555
O5 C12 1_555 1_555
N6 N1 1_555 1_555
N7 N6 1_555 1_555
C7 H8 1_555 1_555
H9 C7 1_555 1_555
H10 C7 1_555 1_555
C8 O4 1_555 1_555
C9 S2 1_555 1_555
H11 C9 1_555 1_555
H12 C9 1_555 1_555
C10 C8 1_555 1_555
H13 C10 1_555 1_555
H14 C10 1_555 1_555
H15 C10 1_555 1_555
C11 C6 1_555 1_555
H16 C11 1_555 1_555
C12 N4 1_555 1_555
C13 C11 1_555 1_555
H17 C13 1_555 1_555
C14 N2 1_555 1_555
C15 O1 1_555 1_555
C16 O3 1_555 1_555
H18 C16 1_555 1_555
H19 C16 1_555 1_555
C17 C13 1_555 1_555
C18 C15 1_555 1_555
H20 C18 1_555 1_555
H21 C18 1_555 1_555
H22 C18 1_555 1_555
C19 O2 1_555 1_555
C20 C6 1_555 1_555
H23 C20 1_555 1_555
C21 C17 1_555 1_555
H24 C21 1_555 1_555
O6 C15 1_555 1_555
O7 C8 1_555 1_555
O8 C19 1_555 1_555
Cl1 C17 1_555 1_555
N2 C5 1_555 1_555
N3 C14 1_555 1_555
C4 C16 1_555 1_555
C7 C19 1_555 1_555
C9 C12 1_555 1_555
C20 C21 1_555 1_555

#END
