
#######################################################################
#
#                 Cambridge Crystallographic Data Centre
#                                CCDC 
#
#######################################################################
#
# If this CIF has been generated from an entry in the Cambridge 
# Structural Database, then it will include bibliographic, chemical, 
# crystal, experimental, refinement or atomic coordinate data resulting 
# from the CCDC's data processing and validation procedures.
#
#######################################################################

data_ILEYAA
_chemical_formula_moiety         'C10 H12 N6 O1 S1'
_chemical_name_systematic        
2-((1-(2-Methylphenyl)-1H-tetrazol-5-yl)sulfanyl)acetohydrazide
_symmetry_cell_setting           monoclinic
_symmetry_space_group_name_H-M   'P 21/c'
_symmetry_Int_Tables_number      14
_space_group_name_Hall           '-P 2ybc'
loop_
_symmetry_equiv_pos_site_id
_symmetry_equiv_pos_as_xyz
1 x,y,z
2 -x,1/2+y,1/2-z
3 -x,-y,-z
4 x,1/2-y,1/2+z
_cell_length_a                   17.640(4)
_cell_length_b                   8.9326(18)
_cell_length_c                   7.8119(16)
_cell_angle_alpha                90
_cell_angle_beta                 90.46(3)
_cell_angle_gamma                90
_cell_volume                     1230.89
_exptl_crystal_colour            colorless
_exptl_crystal_description       block
_cell_formula_units_Z            4
_exptl_crystal_recrystallization_method ethanol
loop_
_atom_site_label
_atom_site_type_symbol
_atom_site_fract_x
_atom_site_fract_y
_atom_site_fract_z
S1 S 0.14694(2) 0.53982(5) 0.35109(6)
N1 N 0.27636(8) 0.46683(15) 0.5208(2)
C1 C 0.00673(9) 0.48441(19) 0.2289(2)
O1 O 0.01391(8) 0.60870(14) 0.16266(19)
C2 C 0.20615(9) 0.42552(19) 0.4720(2)
N2 N 0.19208(9) 0.29039(17) 0.5315(2)
C3 C 0.38464(9) 0.6011(2) 0.4030(2)
N3 N -0.05760(8) 0.40925(18) 0.2357(2)
H1 H -0.0581 0.3251 0.2892
C4 C 0.31581(9) 0.60400(18) 0.4866(2)
N4 N 0.30657(10) 0.35330(18) 0.6147(2)
C5 C 0.41844(12) 0.7389(2) 0.3716(3)
H2 H 0.4656 0.7417 0.3191
C6 C 0.28059(11) 0.7358(2) 0.5372(3)
H3 H 0.2349 0.7332 0.5956
N5 N -0.12526(10) 0.46027(19) 0.1597(3)
H4 H -0.1260 0.5441 0.1056
H5 H -0.1659 0.4077 0.1673
C7 C 0.07361(10) 0.40373(19) 0.3110(3)
H6 H 0.0921 0.3262 0.2351
H7 H 0.0583 0.3573 0.4175
C8 C 0.42117(12) 0.4579(2) 0.3431(3)
H8 H 0.3903 0.3742 0.3757
H9 H 0.4705 0.4483 0.3946
H10 H 0.4259 0.4599 0.2208
C9 C 0.31512(12) 0.8716(2) 0.4988(3)
H11 H 0.2921 0.9615 0.5284
N6 N 0.25648(11) 0.25007(18) 0.6195(3)
C10 C 0.38386(12) 0.8714(2) 0.4162(3)
H12 H 0.4072 0.9619 0.3904
loop_
_geom_bond_atom_site_label_1
_geom_bond_atom_site_label_2
_geom_bond_site_symmetry_1
_geom_bond_site_symmetry_2
S1 C2 1_555 1_555
N1 C2 1_555 1_555
C1 O1 1_555 1_555
C2 N2 1_555 1_555
N2 N6 1_555 1_555
C3 C4 1_555 1_555
N3 C1 1_555 1_555
H1 N3 1_555 1_555
C4 N1 1_555 1_555
N4 N1 1_555 1_555
C5 C3 1_555 1_555
H2 C5 1_555 1_555
C6 C4 1_555 1_555
H3 C6 1_555 1_555
N5 N3 1_555 1_555
H4 N5 1_555 1_555
H5 N5 1_555 1_555
C7 S1 1_555 1_555
H6 C7 1_555 1_555
H7 C7 1_555 1_555
C8 C3 1_555 1_555
H8 C8 1_555 1_555
H9 C8 1_555 1_555
H10 C8 1_555 1_555
C9 C6 1_555 1_555
H11 C9 1_555 1_555
N6 N4 1_555 1_555
C10 C5 1_555 1_555
H12 C10 1_555 1_555
C1 C7 1_555 1_555
C9 C10 1_555 1_555

#END
