
#######################################################################
#
#                 Cambridge Crystallographic Data Centre
#                                CCDC 
#
#######################################################################
#
# If this CIF has been generated from an entry in the Cambridge 
# Structural Database, then it will include bibliographic, chemical, 
# crystal, experimental, refinement or atomic coordinate data resulting 
# from the CCDC's data processing and validation procedures.
#
#######################################################################

data_ILICAJ
_chemical_formula_moiety         'C25 H26 N4 O4 S1'
_chemical_name_systematic        
N,N-diethyl-2-(2-(6-(4-methoxybenzyl)-7-oxo-7H-[1,3]thiazolo[3,2-b][1,2,4]triazin-3-yl)phenoxy)acetamide
_symmetry_cell_setting           triclinic
_symmetry_space_group_name_H-M   'P -1'
_symmetry_Int_Tables_number      2
_space_group_name_Hall           '-P 1'
loop_
_symmetry_equiv_pos_site_id
_symmetry_equiv_pos_as_xyz
1 x,y,z
2 -x,-y,-z
_cell_length_a                   8.6698(17)
_cell_length_b                   9.4692(19)
_cell_length_c                   14.855(3)
_cell_angle_alpha                87.80(3)
_cell_angle_beta                 76.32(3)
_cell_angle_gamma                77.88(3)
_cell_volume                     1158.45
_exptl_crystal_colour            colorless
_exptl_crystal_description       blocks
_cell_formula_units_Z            2
loop_
_atom_site_label
_atom_site_type_symbol
_atom_site_fract_x
_atom_site_fract_y
_atom_site_fract_z
S1 S 0.94325(6) 0.87942(5) 0.09699(3)
O1 O 0.83053(16) 0.40951(16) 0.70710(9)
O2 O 0.70416(17) 0.96419(16) 0.43500(9)
O3 O 0.90171(15) 0.41866(14) 0.23942(8)
O4 O 1.16807(17) 0.24569(17) 0.14172(9)
N1 N 0.81094(18) 0.93948(17) 0.27942(11)
N2 N 0.67420(17) 0.68972(17) 0.28727(10)
N3 N 0.78202(17) 0.72723(16) 0.21120(10)
N4 N 1.2249(2) 0.11266(19) 0.26369(12)
C1 C 0.7583(3) 0.4273(3) 0.80337(14)
H1 H 0.7569 0.5233 0.8226
H2 H 0.8200 0.3584 0.8373
H3 H 0.6492 0.4123 0.8153
C2 C 0.7505(2) 0.4933(2) 0.64817(13)
C3 C 0.6128(2) 0.6009(2) 0.67594(13)
H4 H 0.5669 0.6197 0.7386
C4 C 0.5439(2) 0.6805(2) 0.60957(13)
H5 H 0.4523 0.7533 0.6286
C5 C 0.6086(2) 0.6539(2) 0.51558(12)
C6 C 0.7456(2) 0.5439(2) 0.48931(13)
H6 H 0.7905 0.5238 0.4267
C7 C 0.8161(2) 0.4642(2) 0.55438(13)
H7 H 0.9075 0.3911 0.5354
C8 C 0.5264(2) 0.7362(2) 0.44390(12)
H8 H 0.4588 0.6786 0.4252
H9 H 0.4565 0.8250 0.4718
C9 C 0.6454(2) 0.7720(2) 0.35974(12)
C10 C 0.7226(2) 0.8981(2) 0.36255(13)
C11 C 0.8370(2) 0.8519(2) 0.20891(12)
C12 C 0.9093(2) 0.7201(2) 0.05902(13)
H10 H 0.9458 0.6870 -0.0020
C13 C 0.8248(2) 0.6495(2) 0.12695(11)
C14 C 0.7784(2) 0.5104(2) 0.11926(12)
C15 C 0.7007(2) 0.4921(2) 0.04957(13)
H11 H 0.6732 0.5694 0.0119
C16 C 0.6640(2) 0.3603(2) 0.03589(13)
H12 H 0.6116 0.3490 -0.0104
C17 C 0.7064(2) 0.2453(2) 0.09202(13)
H13 H 0.6814 0.1567 0.0833
C18 C 0.7854(2) 0.2606(2) 0.16106(13)
H14 H 0.8142 0.1825 0.1979
C19 C 0.8212(2) 0.3926(2) 0.17471(12)
C20 C 0.9760(2) 0.3004(2) 0.28681(13)
H15 H 0.9006 0.2370 0.3082
H16 H 1.0019 0.3360 0.3407
C21 C 1.1305(2) 0.2154(2) 0.22431(13)
C22 C 1.1910(3) 0.0759(2) 0.36251(16)
H17 H 1.0984 0.1459 0.3955
H18 H 1.2835 0.0832 0.3869
C23 C 1.1568(3) -0.0726(3) 0.3808(2)
H19 H 1.0652 -0.0808 0.3570
H20 H 1.1333 -0.0891 0.4464
H21 H 1.2499 -0.1430 0.3508
C24 C 1.3858(3) 0.0463(3) 0.20569(18)
H22 H 1.4576 0.0075 0.2458
H23 H 1.4310 0.1207 0.1683
C25 C 1.3808(3) -0.0714(3) 0.1433(2)
H24 H 1.3342 -0.1447 0.1796
H25 H 1.4890 -0.1128 0.1097
H26 H 1.3160 -0.0326 0.1004
loop_
_geom_bond_atom_site_label_1
_geom_bond_atom_site_label_2
_geom_bond_site_symmetry_1
_geom_bond_site_symmetry_2
S1 C11 1_555 1_555
O1 C1 1_555 1_555
O2 C10 1_555 1_555
O3 C19 1_555 1_555
O4 C21 1_555 1_555
N1 C10 1_555 1_555
N2 N3 1_555 1_555
N3 C11 1_555 1_555
N4 C21 1_555 1_555
C1 H1 1_555 1_555
H2 C1 1_555 1_555
H3 C1 1_555 1_555
C2 O1 1_555 1_555
C3 C2 1_555 1_555
H4 C3 1_555 1_555
C4 C3 1_555 1_555
H5 C4 1_555 1_555
C5 C4 1_555 1_555
C6 C5 1_555 1_555
H6 C6 1_555 1_555
C7 C2 1_555 1_555
H7 C7 1_555 1_555
C8 C5 1_555 1_555
H8 C8 1_555 1_555
H9 C8 1_555 1_555
C9 N2 1_555 1_555
C10 C9 1_555 1_555
C11 N1 1_555 1_555
C12 S1 1_555 1_555
H10 C12 1_555 1_555
C13 N3 1_555 1_555
C14 C13 1_555 1_555
C15 C14 1_555 1_555
H11 C15 1_555 1_555
C16 C15 1_555 1_555
H12 C16 1_555 1_555
C17 C16 1_555 1_555
H13 C17 1_555 1_555
C18 C17 1_555 1_555
H14 C18 1_555 1_555
C19 C14 1_555 1_555
C20 O3 1_555 1_555
H15 C20 1_555 1_555
H16 C20 1_555 1_555
C21 C20 1_555 1_555
C22 N4 1_555 1_555
H17 C22 1_555 1_555
H18 C22 1_555 1_555
C23 C22 1_555 1_555
H19 C23 1_555 1_555
H20 C23 1_555 1_555
H21 C23 1_555 1_555
C24 N4 1_555 1_555
H22 C24 1_555 1_555
H23 C24 1_555 1_555
C25 C24 1_555 1_555
H24 C25 1_555 1_555
H25 C25 1_555 1_555
H26 C25 1_555 1_555
C6 C7 1_555 1_555
C8 C9 1_555 1_555
C12 C13 1_555 1_555
C18 C19 1_555 1_555

#END
