
#######################################################################
#
#                 Cambridge Crystallographic Data Centre
#                                CCDC 
#
#######################################################################
#
# If this CIF has been generated from an entry in the Cambridge 
# Structural Database, then it will include bibliographic, chemical, 
# crystal, experimental, refinement or atomic coordinate data resulting 
# from the CCDC's data processing and validation procedures.
#
#######################################################################

data_ILINUM
_chemical_formula_moiety         'C22 H26 N4 2+,2(I1 1-),C1 H4 O1'
_chemical_name_systematic        
"3,3'-(1,4-Naphthalenedimethylene)-bis(1-ethylimidazolium) diiodide methanol solvate"
_symmetry_cell_setting           triclinic
_symmetry_space_group_name_H-M   'P -1'
_symmetry_Int_Tables_number      2
_space_group_name_Hall           '-P 1'
loop_
_symmetry_equiv_pos_site_id
_symmetry_equiv_pos_as_xyz
1 x,y,z
2 -x,-y,-z
_cell_length_a                   9.959(5)
_cell_length_b                   10.770(5)
_cell_length_c                   13.407(7)
_cell_angle_alpha                98.340(11)
_cell_angle_beta                 104.132(12)
_cell_angle_gamma                105.691(12)
_cell_volume                     1307.76
_exptl_crystal_colour            yellow
_exptl_crystal_description       block
_chemical_melting_point          '475-477 K'
_cell_formula_units_Z            2
_exptl_crystal_recrystallization_method 'methanol/diethyl ether'
loop_
_atom_site_label
_atom_site_type_symbol
_atom_site_fract_x
_atom_site_fract_y
_atom_site_fract_z
I1 I 0.16861(7) 0.81874(7) 0.57397(6)
I2 I 0.62724(10) 0.49949(8) 0.84818(7)
N1 N 0.8550(11) 0.6547(8) 1.1925(7)
N2 N 0.7439(8) 0.7999(7) 1.1957(6)
N3 N 0.6662(8) 0.8846(7) 0.6809(6)
N4 N 0.7472(8) 0.7349(8) 0.6179(7)
C1 C 0.849(2) 0.4420(16) 1.2211(15)
H1 H 0.9251 0.4565 1.2855
H2 H 0.8240 0.3530 1.1814
H3 H 0.7645 0.4554 1.2372
C2 C 0.9020(18) 0.5389(14) 1.1561(13)
H4 H 1.0073 0.5644 1.1709
H5 H 0.8563 0.5014 1.0810
C3 C 0.9239(14) 0.7481(12) 1.2874(10)
H6 H 1.0043 0.7478 1.3400
C4 C 0.8564(13) 0.8361(11) 1.2899(9)
H7 H 0.8793 0.9095 1.3445
C5 C 0.7455(11) 0.6897(10) 1.1401(8)
H8 H 0.6801 0.6437 1.0744
C6 C 0.6363(10) 0.8686(9) 1.1628(8)
H9 H 0.6636 0.9520 1.2132
H10 H 0.5409 0.8149 1.1630
C7 C 0.6272(9) 0.8944(9) 1.0544(8)
C8 C 0.7456(9) 0.9917(8) 1.0357(7)
C9 C 0.8724(9) 1.0718(9) 1.1193(8)
H11 H 0.8805 1.0625 1.1882
C10 C 0.9804(11) 1.1606(10) 1.0990(9)
H12 H 1.0639 1.2107 1.1537
C11 C 0.9679(11) 1.1780(10) 0.9961(8)
H13 H 1.0424 1.2407 0.9830
C12 C 0.8461(11) 1.1030(9) 0.9143(9)
H14 H 0.8403 1.1155 0.8463
C13 C 0.7329(9) 1.0104(9) 0.9299(7)
C14 C 0.6028(9) 0.9339(9) 0.8482(7)
C15 C 0.4910(10) 0.8454(9) 0.8687(8)
H15 H 0.4057 0.7980 0.8146
C16 C 0.5061(10) 0.8266(10) 0.9715(8)
H16 H 0.4298 0.7650 0.9838
C17 C 0.5816(10) 0.9496(10) 0.7354(8)
H17 H 0.4787 0.9119 0.6964
H18 H 0.6114 1.0431 0.7355
C18 C 0.7447(11) 0.9366(11) 0.6173(9)
H19 H 0.7602 1.0212 0.6047
C19 C 0.7944(11) 0.8452(11) 0.5772(9)
H20 H 0.8503 0.8529 0.5307
C20 C 0.6700(10) 0.7636(9) 0.6802(8)
H21 H 0.6256 0.7072 0.7174
C21 C 0.7810(13) 0.6104(11) 0.5969(10)
H22 H 0.7457 0.5543 0.6416
H23 H 0.8861 0.6300 0.6150
C22 C 0.7126(19) 0.5368(16) 0.4828(14)
H24 H 0.6174 0.5452 0.4572
H25 H 0.7040 0.4449 0.4773
H26 H 0.7729 0.5734 0.4415
C23 C 0.4375(18) 0.7814(16) 0.3996(14)
H27 H 0.5212 0.8284 0.3810
H28 H 0.4491 0.7006 0.4166
H29 H 0.4286 0.8354 0.4597
O1 O 0.3075(13) 0.7512(12) 0.3115(9)
H30 H 0.3139 0.7030 0.2608
loop_
_geom_bond_atom_site_label_1
_geom_bond_atom_site_label_2
_geom_bond_site_symmetry_1
_geom_bond_site_symmetry_2
N1 C2 1_555 1_555
N2 C4 1_555 1_555
N3 C17 1_555 1_555
N4 C19 1_555 1_555
C1 H1 1_555 1_555
H2 C1 1_555 1_555
H3 C1 1_555 1_555
C2 C1 1_555 1_555
H4 C2 1_555 1_555
H5 C2 1_555 1_555
C3 N1 1_555 1_555
H6 C3 1_555 1_555
C4 C3 1_555 1_555
H7 C4 1_555 1_555
C5 N1 1_555 1_555
H8 C5 1_555 1_555
C6 N2 1_555 1_555
H9 C6 1_555 1_555
H10 C6 1_555 1_555
C7 C6 1_555 1_555
C8 C7 1_555 1_555
C9 C8 1_555 1_555
H11 C9 1_555 1_555
C10 C9 1_555 1_555
H12 C10 1_555 1_555
C11 C10 1_555 1_555
H13 C11 1_555 1_555
C12 C11 1_555 1_555
H14 C12 1_555 1_555
C13 C8 1_555 1_555
C14 C13 1_555 1_555
C15 C14 1_555 1_555
H15 C15 1_555 1_555
C16 C7 1_555 1_555
H16 C16 1_555 1_555
C17 C14 1_555 1_555
H17 C17 1_555 1_555
H18 C17 1_555 1_555
C18 N3 1_555 1_555
H19 C18 1_555 1_555
C19 C18 1_555 1_555
H20 C19 1_555 1_555
C20 N3 1_555 1_555
H21 C20 1_555 1_555
C21 N4 1_555 1_555
H22 C21 1_555 1_555
H23 C21 1_555 1_555
C22 C21 1_555 1_555
H24 C22 1_555 1_555
H25 C22 1_555 1_555
H26 C22 1_555 1_555
C23 H27 1_555 1_555
H28 C23 1_555 1_555
H29 C23 1_555 1_555
O1 C23 1_555 1_555
H30 O1 1_555 1_555
N2 C5 1_555 1_555
N4 C20 1_555 1_555
C12 C13 1_555 1_555
C15 C16 1_555 1_555

#END
