
#######################################################################
#
#                 Cambridge Crystallographic Data Centre
#                                CCDC 
#
#######################################################################
#
# If this CIF has been generated from an entry in the Cambridge 
# Structural Database, then it will include bibliographic, chemical, 
# crystal, experimental, refinement or atomic coordinate data resulting 
# from the CCDC's data processing and validation procedures.
#
#######################################################################

data_ILIQID
_chemical_name_common            'Flunixin meglumine'
_chemical_formula_moiety         'C7 H18 N1 O5 1+,C14 H10 F3 N2 O2 1-'
_chemical_name_systematic        
'(2S,3R,4R,5R)-2,3,4,5,6-Pentahydroxy-N-methyl-1-hexanaminium 2-(2-methyl-3-(trifluoromethyl)anilino)nicotinate'
_chemical_properties_biological  
'non-steroidal antiinflammatory drug and non-narcotic analgesic drug with antipyretic activities'
_symmetry_cell_setting           monoclinic
_symmetry_space_group_name_H-M   'P 21'
_symmetry_Int_Tables_number      4
_space_group_name_Hall           'P 2yb'
loop_
_symmetry_equiv_pos_site_id
_symmetry_equiv_pos_as_xyz
1 x,y,z
2 -x,1/2+y,-z
_cell_length_a                   9.9100(10)
_cell_length_b                   6.9140(10)
_cell_length_c                   16.578(2)
_cell_angle_alpha                90
_cell_angle_beta                 91.860(10)
_cell_angle_gamma                90
_cell_volume                     1135.29
_exptl_crystal_colour            colorless
_exptl_crystal_description       prism
_cell_formula_units_Z            2
_exptl_crystal_recrystallization_method water
loop_
_atom_site_label
_atom_site_type_symbol
_atom_site_fract_x
_atom_site_fract_y
_atom_site_fract_z
F1 F 0.88860(19) -0.0075(4) 0.82433(11)
F2 F 0.98091(17) 0.1020(4) 0.93284(13)
F3 F 0.8559(2) -0.1486(3) 0.93711(13)
O1 O 0.19090(13) 0.1331(2) 0.62123(8)
O2 O 0.31828(15) -0.0150(2) 0.71467(8)
N1 N 0.2587(2) 0.4629(4) 0.87041(13)
N2 N 0.39371(19) 0.1974(3) 0.84289(10)
C1 C 0.1518(4) 0.5734(7) 0.85174(19)
H6 H 0.1350 0.6789 0.8847
C2 C 0.0651(3) 0.5410(5) 0.78684(17)
H7 H -0.0100 0.6192 0.7771
C3 C 0.0936(2) 0.3887(4) 0.73691(13)
H8 H 0.0371 0.3636 0.6922
C4 C 0.20487(18) 0.2722(3) 0.75215(11)
C5 C 0.2847(2) 0.3135(4) 0.82266(12)
C6 C 0.5133(2) 0.2385(3) 0.88682(10)
C7 C 0.5324(2) 0.4071(4) 0.93148(12)
H9 H 0.4608 0.4918 0.9385
C8 C 0.6589(3) 0.4485(4) 0.96556(14)
H10 H 0.6712 0.5612 0.9955
C9 C 0.7655(2) 0.3266(4) 0.95586(13)
H11 H 0.8507 0.3593 0.9767
C10 C 0.7461(2) 0.1537(4) 0.91470(12)
C11 C 0.6186(2) 0.1030(3) 0.88144(11)
C12 C 0.24000(17) 0.1186(3) 0.69172(10)
C13 C 0.8669(3) 0.0259(5) 0.90239(18)
C14 C 0.5928(3) -0.0870(4) 0.83979(17)
H12 H 0.6650 -0.1750 0.8531
H13 H 0.5877 -0.0672 0.7824
H14 H 0.5091 -0.1402 0.8572
H26 H 0.400(2) 0.096(2) 0.8143(11)
O3 O 0.15186(12) 0.1747(2) 0.40978(9)
H1 H 0.0983 0.1016 0.4309
O4 O 0.05526(12) 0.4356(2) 0.53848(8)
H2 H 0.0988 0.3482 0.5603
O5 O 0.33528(14) 0.5779(2) 0.41394(8)
H3 H 0.3874 0.4935 0.3996
O6 O 0.27968(14) 0.8519(2) 0.51769(8)
H4 H 0.2536 0.9256 0.5527
O7 O 0.49468(13) 0.8112(2) 0.62824(9)
H5 H 0.4296 0.8536 0.6519
N3 N 0.63483(15) 0.4518(3) 0.64228(9)
C15 C 0.0902(2) 0.3598(3) 0.39744(12)
H15 H -0.0067 0.3435 0.3908
H16 H 0.1229 0.4166 0.3483
C16 C 0.12052(17) 0.4959(3) 0.46768(10)
H17 H 0.0850 0.6236 0.4527
C17 C 0.27170(17) 0.5175(3) 0.48546(10)
H18 H 0.3087 0.3917 0.5022
C18 C 0.30405(16) 0.6662(3) 0.55185(10)
H19 H 0.2454 0.6456 0.5975
C19 C 0.45376(15) 0.6513(3) 0.58031(10)
H20 H 0.5092 0.6488 0.5324
C20 C 0.48473(17) 0.4710(3) 0.62930(13)
H21 H 0.4419 0.4791 0.6810
H22 H 0.4494 0.3582 0.6010
C21 C 0.6783(3) 0.3969(7) 0.72321(13)
H23 H 0.6338 0.2794 0.7380
H24 H 0.6558 0.4978 0.7602
H25 H 0.7742 0.3770 0.7251
H27 H 0.677(2) 0.554(3) 0.6272(14)
H28 H 0.665(3) 0.371(4) 0.6072(14)
loop_
_geom_bond_atom_site_label_1
_geom_bond_atom_site_label_2
_geom_bond_site_symmetry_1
_geom_bond_site_symmetry_2
F1 C13 1_555 1_555
F2 C13 1_555 1_555
F3 C13 1_555 1_555
O1 C12 1_555 1_555
O2 C12 1_555 1_555
O3 H1 1_555 1_555
O4 H2 1_555 1_555
O5 H3 1_555 1_555
O6 H4 1_555 1_555
O7 H5 1_555 1_555
N1 C1 1_555 1_555
N2 C5 1_555 1_555
N3 C20 1_555 1_555
C1 H6 1_555 1_555
C2 C1 1_555 1_555
H7 C2 1_555 1_555
C3 C2 1_555 1_555
H8 C3 1_555 1_555
C4 C3 1_555 1_555
C5 N1 1_555 1_555
C6 N2 1_555 1_555
C7 C6 1_555 1_555
H9 C7 1_555 1_555
C8 C7 1_555 1_555
H10 C8 1_555 1_555
C9 C8 1_555 1_555
H11 C9 1_555 1_555
C10 C9 1_555 1_555
C11 C6 1_555 1_555
C12 C4 1_555 1_555
C13 C10 1_555 1_555
C14 C11 1_555 1_555
H12 C14 1_555 1_555
H13 C14 1_555 1_555
H14 C14 1_555 1_555
C15 O3 1_555 1_555
H15 C15 1_555 1_555
H16 C15 1_555 1_555
C16 O4 1_555 1_555
H17 C16 1_555 1_555
C17 O5 1_555 1_555
H18 C17 1_555 1_555
C18 O6 1_555 1_555
H19 C18 1_555 1_555
C19 O7 1_555 1_555
H20 C19 1_555 1_555
C20 C19 1_555 1_555
H21 C20 1_555 1_555
H22 C20 1_555 1_555
C21 N3 1_555 1_555
H23 C21 1_555 1_555
H24 C21 1_555 1_555
H25 C21 1_555 1_555
H26 N2 1_555 1_555
H27 N3 1_555 1_555
H28 N3 1_555 1_555
C4 C5 1_555 1_555
C10 C11 1_555 1_555
C15 C16 1_555 1_555
C16 C17 1_555 1_555
C17 C18 1_555 1_555
C18 C19 1_555 1_555

#END
