
#######################################################################
#
#                 Cambridge Crystallographic Data Centre
#                                CCDC 
#
#######################################################################
#
# If this CIF has been generated from an entry in the Cambridge 
# Structural Database, then it will include bibliographic, chemical, 
# crystal, experimental, refinement or atomic coordinate data resulting 
# from the CCDC's data processing and validation procedures.
#
#######################################################################

data_ILIQOL
_chemical_formula_moiety         'C27 H41 N3 P2'
_chemical_name_systematic        
"N-cyclohexyl-N'-((cyclohexyl(methyl)amino)(phenyl)phosphino)-N,N'-dimethyl-P-phenylphosphonous diamide"
_symmetry_cell_setting           monoclinic
_symmetry_space_group_name_H-M   'P 21/c'
_symmetry_Int_Tables_number      14
_space_group_name_Hall           '-P 2ybc'
loop_
_symmetry_equiv_pos_site_id
_symmetry_equiv_pos_as_xyz
1 x,y,z
2 -x,1/2+y,1/2-z
3 -x,-y,-z
4 x,1/2-y,1/2+z
_cell_length_a                   13.1928(5)
_cell_length_b                   18.7757(6)
_cell_length_c                   11.8910(4)
_cell_angle_alpha                90
_cell_angle_beta                 116.0964(9)
_cell_angle_gamma                90
_cell_volume                     2645.18
_exptl_crystal_colour            colorless
_exptl_crystal_description       prism
_cell_formula_units_Z            4
_chemical_properties_physical    'Air-sensitive, Moisture-sensitive'
loop_
_atom_site_label
_atom_site_type_symbol
_atom_site_fract_x
_atom_site_fract_y
_atom_site_fract_z
C1 C 0.23911(18) 0.65850(11) 1.05199(17)
H1 H 0.2935 0.6969 1.0654
H2 H 0.2796 0.6136 1.0833
H3 H 0.1941 0.6694 1.0969
C2 C 0.09413(14) 0.71447(9) 0.85702(16)
H4 H 0.0415 0.6995 0.7699
C3 C 0.16005(14) 0.77853(9) 0.84441(17)
H5 H 0.2132 0.7956 0.9287
H6 H 0.2046 0.7640 0.7996
C4 C 0.07959(16) 0.83869(10) 0.77274(18)
H7 H 0.1240 0.8805 0.7696
H8 H 0.0321 0.8231 0.6856
C5 C 0.00385(16) 0.86019(10) 0.83382(19)
H9 H 0.0505 0.8806 0.9177
H10 H -0.0501 0.8972 0.7823
C6 C -0.06069(16) 0.79600(11) 0.8464(2)
H11 H -0.1124 0.7782 0.7621
H12 H -0.1068 0.8103 0.8896
C7 C 0.02022(16) 0.73683(10) 0.9203(2)
H13 H -0.0234 0.6953 0.9261
H14 H 0.0687 0.7536 1.0063
C8 C 0.20450(13) 0.51143(9) 0.90358(15)
C9 C 0.13611(16) 0.49581(10) 0.96268(18)
H15 H 0.0889 0.5319 0.9702
C10 C 0.13610(18) 0.42839(11) 1.01063(19)
H16 H 0.0890 0.4188 1.0505
C11 C 0.20420(17) 0.37514(10) 1.00081(19)
H17 H 0.2044 0.3292 1.0343
C12 C 0.27201(15) 0.38927(10) 0.94191(19)
H18 H 0.3189 0.3529 0.9347
C13 C 0.27166(14) 0.45675(9) 0.89311(17)
H19 H 0.3179 0.4658 0.8520
C14 C 0.42483(14) 0.60085(11) 0.95505(16)
H20 H 0.4358 0.6441 1.0053
H21 H 0.4907 0.5934 0.9387
H22 H 0.4157 0.5598 1.0008
C15 C 0.44733(14) 0.68519(9) 0.74292(16)
C16 C 0.51689(16) 0.68242(11) 0.68204(19)
H23 H 0.5070 0.6453 0.6239
C17 C 0.60035(19) 0.73334(12) 0.7055(2)
H24 H 0.6477 0.7304 0.6642
C18 C 0.61462(19) 0.78804(12) 0.7882(2)
H25 H 0.6715 0.8229 0.8039
C19 C 0.54581(18) 0.79209(11) 0.8484(2)
H26 H 0.5554 0.8299 0.9054
C20 C 0.46265(16) 0.74116(10) 0.82602(18)
H27 H 0.4158 0.7445 0.8677
C21 C 0.46938(18) 0.51398(11) 0.7266(2)
H28 H 0.4465 0.4766 0.7682
H29 H 0.5244 0.5454 0.7898
H30 H 0.5035 0.4922 0.6765
N1 N 0.16446(12) 0.65186(8) 0.91782(13)
N2 N 0.32286(11) 0.60874(8) 0.83510(13)
N3 N 0.37074(13) 0.55526(9) 0.64515(16)
P1 P 0.18860(3) 0.59628(2) 0.82091(4)
P2 P 0.32447(4) 0.62649(3) 0.69419(4)
C22 C 0.28364(16) 0.52208(11) 0.52980(18)
H31 H 0.2326 0.5617 0.4809
C23 C 0.20903(17) 0.46870(11) 0.55433(18)
H32 H 0.2568 0.4307 0.6102
H33 H 0.1695 0.4930 0.5976
C24 C 0.12238(19) 0.43548(13) 0.4338(2)
H34 H 0.0828 0.3968 0.4550
H35 H 0.0656 0.4720 0.3859
C25 C 0.1728(2) 0.40549(14) 0.3517(2)
H36 H 0.1114 0.3902 0.2707
H37 H 0.2190 0.3631 0.3927
C26 C 0.2463(2) 0.46051(14) 0.3279(2)
H38 H 0.2844 0.4377 0.2818
H39 H 0.1976 0.4991 0.2746
C27 C 0.33415(19) 0.49233(15) 0.4477(2)
H40 H 0.3743 0.5309 0.4270
H41 H 0.3902 0.4552 0.4948
loop_
_geom_bond_atom_site_label_1
_geom_bond_atom_site_label_2
_geom_bond_site_symmetry_1
_geom_bond_site_symmetry_2
C1 H1 1_555 1_555
H2 C1 1_555 1_555
H3 C1 1_555 1_555
C2 H4 1_555 1_555
C3 C2 1_555 1_555
H5 C3 1_555 1_555
H6 C3 1_555 1_555
C4 C3 1_555 1_555
H7 C4 1_555 1_555
H8 C4 1_555 1_555
C5 C4 1_555 1_555
H9 C5 1_555 1_555
H10 C5 1_555 1_555
C6 C5 1_555 1_555
H11 C6 1_555 1_555
H12 C6 1_555 1_555
C7 C2 1_555 1_555
H13 C7 1_555 1_555
H14 C7 1_555 1_555
C8 C9 1_555 1_555
C9 H15 1_555 1_555
C10 C9 1_555 1_555
H16 C10 1_555 1_555
C11 C10 1_555 1_555
H17 C11 1_555 1_555
C12 C11 1_555 1_555
H18 C12 1_555 1_555
C13 C8 1_555 1_555
H19 C13 1_555 1_555
C14 H20 1_555 1_555
H21 C14 1_555 1_555
H22 C14 1_555 1_555
C15 C16 1_555 1_555
C16 H23 1_555 1_555
C17 C16 1_555 1_555
H24 C17 1_555 1_555
C18 C17 1_555 1_555
H25 C18 1_555 1_555
C19 C18 1_555 1_555
H26 C19 1_555 1_555
C20 C15 1_555 1_555
H27 C20 1_555 1_555
C21 H28 1_555 1_555
H29 C21 1_555 1_555
H30 C21 1_555 1_555
N1 C1 1_555 1_555
N2 C14 1_555 1_555
N3 C21 1_555 1_555
P1 C8 1_555 1_555
P2 C15 1_555 1_555
C22 N3 1_555 1_555
H31 C22 1_555 1_555
C23 C22 1_555 1_555
H32 C23 1_555 1_555
H33 C23 1_555 1_555
C24 C23 1_555 1_555
H34 C24 1_555 1_555
H35 C24 1_555 1_555
C25 C24 1_555 1_555
H36 C25 1_555 1_555
H37 C25 1_555 1_555
C26 C25 1_555 1_555
H38 C26 1_555 1_555
H39 C26 1_555 1_555
C27 C22 1_555 1_555
H40 C27 1_555 1_555
H41 C27 1_555 1_555
C2 N1 1_555 1_555
C6 C7 1_555 1_555
C12 C13 1_555 1_555
C19 C20 1_555 1_555
N1 P1 1_555 1_555
N2 P1 1_555 1_555
N2 P2 1_555 1_555
N3 P2 1_555 1_555
C26 C27 1_555 1_555

#END
