
#######################################################################
#
#                 Cambridge Crystallographic Data Centre
#                                CCDC 
#
#######################################################################
#
# If this CIF has been generated from an entry in the Cambridge 
# Structural Database, then it will include bibliographic, chemical, 
# crystal, experimental, refinement or atomic coordinate data resulting 
# from the CCDC's data processing and validation procedures.
#
#######################################################################

data_ILIREC
_chemical_formula_moiety         'C21 H33 N3 P2'
_chemical_name_systematic        
"N'-t-butyl-N-((t-butylamino)(phenyl)phosphino)-N-methyl-P-phenylphosphonous diamide"
_symmetry_cell_setting           orthorhombic
_symmetry_space_group_name_H-M   'P b c n'
_symmetry_Int_Tables_number      60
_space_group_name_Hall           '-P 2n 2ab'
loop_
_symmetry_equiv_pos_site_id
_symmetry_equiv_pos_as_xyz
1 x,y,z
2 1/2+x,1/2-y,-z
3 -x,y,1/2-z
4 1/2-x,1/2-y,1/2+z
5 -x,-y,-z
6 1/2-x,1/2+y,z
7 x,-y,1/2+z
8 1/2+x,1/2+y,1/2-z
_cell_length_a                   19.6420(4)
_cell_length_b                   12.6315(2)
_cell_length_c                   18.2652(3)
_cell_angle_alpha                90
_cell_angle_beta                 90
_cell_angle_gamma                90
_cell_volume                     4531.74
_exptl_crystal_colour            colorless
_exptl_crystal_description       prism
_cell_formula_units_Z            8
_chemical_properties_physical    'Air-sensitive, Moisture-sensitive'
loop_
_atom_site_label
_atom_site_type_symbol
_atom_site_fract_x
_atom_site_fract_y
_atom_site_fract_z
C1 C 0.82109(10) 0.71687(15) 0.42381(10)
C2 C 0.86060(13) 0.8194(2) 0.43160(14)
H1 H 0.8819 0.8373 0.3847
H2 H 0.8959 0.8108 0.4690
H3 H 0.8295 0.8763 0.4461
C3 C 0.86876(11) 0.62742(19) 0.40185(13)
H4 H 0.8424 0.5624 0.3946
H5 H 0.9025 0.6162 0.4406
H6 H 0.8921 0.6461 0.3562
C4 C 0.78721(13) 0.6892(2) 0.49670(11)
H7 H 0.7552 0.7454 0.5103
H8 H 0.8221 0.6823 0.5348
H9 H 0.7626 0.6220 0.4918
C5 C 0.63140(9) 0.76106(14) 0.37735(9)
C6 C 0.62400(10) 0.65449(15) 0.39503(10)
H10 H 0.6631 0.6103 0.3969
C7 C 0.56040(10) 0.61199(15) 0.40988(11)
H11 H 0.5561 0.5389 0.4213
C8 C 0.50340(10) 0.67540(16) 0.40809(12)
H12 H 0.4598 0.6459 0.4177
C9 C 0.50965(11) 0.78148(18) 0.39233(13)
H13 H 0.4705 0.8256 0.3918
C10 C 0.57333(10) 0.82391(16) 0.37719(11)
H14 H 0.5773 0.8973 0.3665
C11 C 0.68235(10) 0.76550(13) 0.21902(9)
H15 H 0.7196 0.7145 0.2135
H16 H 0.6708 0.7953 0.1711
H17 H 0.6424 0.7297 0.2395
C12 C 0.67316(9) 1.00787(13) 0.17236(9)
C13 C 0.60547(9) 1.00406(15) 0.19532(11)
H18 H 0.5947 0.9738 0.2415
C14 C 0.55364(10) 1.04400(16) 0.15146(13)
H19 H 0.5078 1.0411 0.1679
C15 C 0.56834(11) 1.08764(16) 0.08441(12)
H20 H 0.5327 1.1140 0.0543
C16 C 0.63498(11) 1.09311(16) 0.06095(11)
H21 H 0.6452 1.1234 0.0146
C17 C 0.68714(10) 1.05449(14) 0.10479(10)
H22 H 0.7330 1.0599 0.0885
C18 C 0.86944(9) 0.90563(15) 0.17768(10)
C19 C 0.90105(11) 0.90385(18) 0.10106(12)
H23 H 0.8794 0.8482 0.0718
H24 H 0.9500 0.8896 0.1050
H25 H 0.8940 0.9726 0.0774
C20 C 0.90019(11) 0.9941(2) 0.22252(16)
H26 H 0.8892 1.0624 0.1998
H27 H 0.9497 0.9854 0.2245
H28 H 0.8816 0.9921 0.2723
C21 C 0.88052(11) 0.79875(18) 0.21422(13)
H29 H 0.8585 0.7985 0.2623
H30 H 0.9294 0.7861 0.2202
H31 H 0.8608 0.7428 0.1837
N1 N 0.77002(8) 0.72649(12) 0.36491(8)
N2 N 0.70366(7) 0.85093(10) 0.26849(7)
N3 N 0.79629(8) 0.92761(12) 0.16760(8)
P1 P 0.71359(2) 0.82658(3) 0.35999(2)
P2 P 0.74116(2) 0.96285(3) 0.23389(2)
H32 H 0.7580(12) 0.6696(19) 0.3480(12)
H33 H 0.7813(11) 0.8908(18) 0.1327(13)
loop_
_geom_bond_atom_site_label_1
_geom_bond_atom_site_label_2
_geom_bond_site_symmetry_1
_geom_bond_site_symmetry_2
C1 C2 1_555 1_555
C2 H1 1_555 1_555
H2 C2 1_555 1_555
H3 C2 1_555 1_555
C3 C1 1_555 1_555
H4 C3 1_555 1_555
H5 C3 1_555 1_555
H6 C3 1_555 1_555
C4 C1 1_555 1_555
H7 C4 1_555 1_555
H8 C4 1_555 1_555
H9 C4 1_555 1_555
C5 C6 1_555 1_555
C6 H10 1_555 1_555
C7 C6 1_555 1_555
H11 C7 1_555 1_555
C8 C7 1_555 1_555
H12 C8 1_555 1_555
C9 C8 1_555 1_555
H13 C9 1_555 1_555
C10 C5 1_555 1_555
H14 C10 1_555 1_555
C11 H15 1_555 1_555
H16 C11 1_555 1_555
H17 C11 1_555 1_555
C12 C13 1_555 1_555
C13 H18 1_555 1_555
C14 C13 1_555 1_555
H19 C14 1_555 1_555
C15 C14 1_555 1_555
H20 C15 1_555 1_555
C16 C15 1_555 1_555
H21 C16 1_555 1_555
C17 C12 1_555 1_555
H22 C17 1_555 1_555
C18 C19 1_555 1_555
C19 H23 1_555 1_555
H24 C19 1_555 1_555
H25 C19 1_555 1_555
C20 C18 1_555 1_555
H26 C20 1_555 1_555
H27 C20 1_555 1_555
H28 C20 1_555 1_555
C21 C18 1_555 1_555
H29 C21 1_555 1_555
H30 C21 1_555 1_555
H31 C21 1_555 1_555
N1 C1 1_555 1_555
N2 C11 1_555 1_555
N3 C18 1_555 1_555
P1 C5 1_555 1_555
P2 C12 1_555 1_555
H32 N1 1_555 1_555
H33 N3 1_555 1_555
C9 C10 1_555 1_555
C16 C17 1_555 1_555
N1 P1 1_555 1_555
N2 P1 1_555 1_555
N2 P2 1_555 1_555
N3 P2 1_555 1_555

#END
