
#######################################################################
#
#                 Cambridge Crystallographic Data Centre
#                                CCDC 
#
#######################################################################
#
# If this CIF has been generated from an entry in the Cambridge 
# Structural Database, then it will include bibliographic, chemical, 
# crystal, experimental, refinement or atomic coordinate data resulting 
# from the CCDC's data processing and validation procedures.
#
#######################################################################

data_ILIRUQ
_chemical_formula_moiety         'C19 H18 N2 O2'
_chemical_name_systematic        1,3-Dibenzylthymine
_symmetry_cell_setting           orthorhombic
_symmetry_space_group_name_H-M   'P 21 21 21'
_symmetry_Int_Tables_number      19
_space_group_name_Hall           'P 2ac 2ab'
loop_
_symmetry_equiv_pos_site_id
_symmetry_equiv_pos_as_xyz
1 x,y,z
2 1/2-x,-y,1/2+z
3 -x,1/2+y,1/2-z
4 1/2+x,1/2-y,-z
_cell_length_a                   8.7466(10)
_cell_length_b                   8.8637(10)
_cell_length_c                   20.720(3)
_cell_angle_alpha                90
_cell_angle_beta                 90
_cell_angle_gamma                90
_cell_volume                     1606.36
_exptl_crystal_colour            colorless
_exptl_crystal_description       block
_cell_formula_units_Z            4
_exptl_crystal_recrystallization_method ethanol/dichloromethane
loop_
_atom_site_label
_atom_site_type_symbol
_atom_site_fract_x
_atom_site_fract_y
_atom_site_fract_z
O1 O 0.40423(13) 1.19121(14) 0.07784(6)
O2 O 0.06716(14) 0.81307(15) 0.12073(6)
N1 N 0.22761(14) 1.13075(15) 0.00165(7)
N2 N 0.23650(13) 1.00069(16) 0.09917(6)
C1 C 0.5975(3) 1.1347(2) -0.18855(11)
H1 H 0.6670 1.1090 -0.2207
C2 C 0.5984(3) 1.0608(3) -0.13095(11)
H2 H 0.6702 0.9854 -0.1235
C3 C 0.4940(2) 1.0965(2) -0.08357(10)
H3 H 0.4951 1.0435 -0.0448
C4 C 0.38888(17) 1.20868(17) -0.09264(8)
C5 C 0.3904(2) 1.2829(2) -0.15068(9)
H4 H 0.3202 1.3598 -0.1580
C6 C 0.4940(2) 1.2461(3) -0.19847(9)
H5 H 0.4927 1.2979 -0.2375
C7 C 0.27772(18) 1.2545(2) -0.04062(8)
H6 H 0.3250 1.3319 -0.0142
H7 H 0.1883 1.2986 -0.0609
C8 C 0.11132(18) 1.03707(18) -0.01822(8)
H8 H 0.0709 1.0513 -0.0593
C9 C 0.05374(17) 0.92755(18) 0.01805(7)
C10 C -0.0742(2) 0.8272(2) -0.00439(10)
H9 H -0.1652 0.8498 0.0197
H10 H -0.0465 0.7236 0.0023
H11 H -0.0927 0.8442 -0.0495
C11 C 0.11435(17) 0.90589(18) 0.08204(8)
C12 C 0.29712(18) 1.11346(19) 0.06058(8)
C13 C 0.30099(19) 0.9825(2) 0.16485(7)
H12 H 0.2189 0.9588 0.1946
H13 H 0.3461 1.0774 0.1784
C14 C 0.42074(17) 0.8601(2) 0.16851(7)
C15 C 0.3854(2) 0.7192(2) 0.19221(8)
H14 H 0.2864 0.6995 0.2063
C16 C 0.4938(2) 0.6071(3) 0.19541(10)
H15 H 0.4670 0.5120 0.2106
C17 C 0.6406(2) 0.6348(3) 0.17636(9)
H16 H 0.7141 0.5592 0.1790
C18 C 0.6787(2) 0.7746(3) 0.15341(9)
H17 H 0.7785 0.7944 0.1405
C19 C 0.56917(19) 0.8862(2) 0.14937(9)
H18 H 0.5960 0.9807 0.1335
loop_
_geom_bond_atom_site_label_1
_geom_bond_atom_site_label_2
_geom_bond_site_symmetry_1
_geom_bond_site_symmetry_2
O1 C12 1_555 1_555
O2 C11 1_555 1_555
N1 C7 1_555 1_555
N2 C11 1_555 1_555
C1 H1 1_555 1_555
C2 C1 1_555 1_555
H2 C2 1_555 1_555
C3 C2 1_555 1_555
H3 C3 1_555 1_555
C4 C3 1_555 1_555
C5 C4 1_555 1_555
H4 C5 1_555 1_555
C6 C1 1_555 1_555
H5 C6 1_555 1_555
C7 C4 1_555 1_555
H6 C7 1_555 1_555
H7 C7 1_555 1_555
C8 N1 1_555 1_555
H8 C8 1_555 1_555
C9 C8 1_555 1_555
C10 C9 1_555 1_555
H9 C10 1_555 1_555
H10 C10 1_555 1_555
H11 C10 1_555 1_555
C11 C9 1_555 1_555
C12 N1 1_555 1_555
C13 N2 1_555 1_555
H12 C13 1_555 1_555
H13 C13 1_555 1_555
C14 C13 1_555 1_555
C15 C14 1_555 1_555
H14 C15 1_555 1_555
C16 C15 1_555 1_555
H15 C16 1_555 1_555
C17 C16 1_555 1_555
H16 C17 1_555 1_555
C18 C17 1_555 1_555
H17 C18 1_555 1_555
C19 C14 1_555 1_555
H18 C19 1_555 1_555
N2 C12 1_555 1_555
C5 C6 1_555 1_555
C18 C19 1_555 1_555

#END
