
#######################################################################
#
#                 Cambridge Crystallographic Data Centre
#                                CCDC 
#
#######################################################################
#
# If this CIF has been generated from an entry in the Cambridge 
# Structural Database, then it will include bibliographic, chemical, 
# crystal, experimental, refinement or atomic coordinate data resulting 
# from the CCDC's data processing and validation procedures.
#
#######################################################################

data_ILIRUS
_chemical_formula_moiety         'C26 H41 N3 P2'
_chemical_name_systematic        
"N-cyclohexyl-N'-isopropyl-N-((isopropyl(methyl)amino)(phenyl)phosphino)-N'-methyl-P-phenylphosphonous diamide"
_symmetry_cell_setting           monoclinic
_symmetry_space_group_name_H-M   'P 21/n'
_symmetry_Int_Tables_number      14
_space_group_name_Hall           '-P 2yn'
loop_
_symmetry_equiv_pos_site_id
_symmetry_equiv_pos_as_xyz
1 x,y,z
2 1/2-x,1/2+y,1/2-z
3 -x,-y,-z
4 1/2+x,1/2-y,1/2+z
_cell_length_a                   10.5529(2)
_cell_length_b                   14.8073(3)
_cell_length_c                   17.6501(3)
_cell_angle_alpha                90
_cell_angle_beta                 106.706(1)
_cell_angle_gamma                90
_cell_volume                     2641.6
_exptl_crystal_colour            colorless
_exptl_crystal_description       prism
_cell_formula_units_Z            4
_chemical_properties_physical    'Air-sensitive, Moisture-sensitive'
loop_
_atom_site_label
_atom_site_type_symbol
_atom_site_fract_x
_atom_site_fract_y
_atom_site_fract_z
C1 C 0.66019(13) 0.94704(9) 0.99180(8)
H1 H 0.6923 0.9976 1.0280
H2 H 0.5632 0.9470 0.9750
H3 H 0.6928 0.9534 0.9454
C2 C 0.85266(13) 0.85334(11) 1.06363(9)
H4 H 0.8719 0.7916 1.0872
C3 C 0.90709(16) 0.92198(14) 1.12938(10)
H5 H 0.9013 0.9827 1.1066
H6 H 0.9997 0.9078 1.1565
H7 H 0.8552 0.9196 1.1673
C4 C 0.92280(16) 0.86247(15) 0.99961(12)
H8 H 0.8866 0.8182 0.9577
H9 H 1.0177 0.8516 1.0227
H10 H 0.9091 0.9235 0.9773
C5 C 0.48402(12) 0.80945(8) 1.06876(7)
C6 C 0.37414(13) 0.75403(9) 1.06146(7)
H11 H 0.3610 0.7030 1.0275
C7 C 0.28377(14) 0.77244(10) 1.10317(8)
H12 H 0.2088 0.7346 1.0970
C8 C 0.30308(14) 0.84573(9) 1.15354(8)
H13 H 0.2416 0.8581 1.1824
C9 C 0.41140(15) 0.90094(10) 1.16207(8)
H14 H 0.4245 0.9513 1.1968
C10 C 0.50177(14) 0.88319(9) 1.11993(7)
H15 H 0.5761 0.9216 1.1261
C11 C 0.55200(12) 0.66840(8) 0.89159(7)
H16 H 0.5105 0.6752 0.8333
C12 C 0.69930(13) 0.65074(9) 0.90389(9)
H17 H 0.7443 0.6428 0.9610
H18 H 0.7396 0.7033 0.8849
C13 C 0.71859(16) 0.56595(10) 0.85883(10)
H19 H 0.6797 0.5760 0.8014
H20 H 0.8144 0.5544 0.8688
C14 C 0.65394(16) 0.48403(9) 0.88407(10)
H21 H 0.6986 0.4703 0.9403
H22 H 0.6641 0.4311 0.8521
C15 C 0.50779(15) 0.50121(9) 0.87326(8)
H23 H 0.4689 0.4487 0.8931
H24 H 0.4614 0.5084 0.8163
C16 C 0.48810(13) 0.58622(8) 0.91779(7)
H25 H 0.3923 0.5974 0.9080
H26 H 0.5275 0.5768 0.9753
C17 C 0.44141(12) 0.85171(8) 0.79177(7)
C18 C 0.57154(14) 0.84976(9) 0.78833(8)
H27 H 0.6396 0.8289 0.8327
C19 C 0.60327(16) 0.87791(10) 0.72097(9)
H28 H 0.6924 0.8753 0.7193
C20 C 0.50592(18) 0.90964(11) 0.65645(9)
H29 H 0.5276 0.9281 0.6102
C21 C 0.37700(18) 0.91442(12) 0.65937(9)
H30 H 0.3099 0.9372 0.6153
C22 C 0.34500(15) 0.88604(11) 0.72644(8)
H31 H 0.2559 0.8900 0.7280
C23 C 0.23991(14) 0.69866(10) 0.77355(8)
H32 H 0.2338 0.6365 0.7912
H33 H 0.3151 0.7038 0.7517
H34 H 0.1582 0.7145 0.7327
C24 C 0.14257(12) 0.77290(9) 0.86971(8)
H35 H 0.1711 0.8107 0.9187
C25 C 0.09129(15) 0.68330(11) 0.89235(10)
H36 H 0.0538 0.6473 0.8446
H37 H 0.0228 0.6951 0.9186
H38 H 0.1644 0.6501 0.9284
C26 C 0.03237(14) 0.82387(11) 0.80994(9)
H39 H 0.0662 0.8820 0.7977
H40 H -0.0413 0.8342 0.8324
H41 H 0.0014 0.7881 0.7614
N1 N 0.70805(10) 0.86242(7) 1.03198(6)
N2 N 0.52336(10) 0.75301(7) 0.92938(6)
N3 N 0.25879(10) 0.75995(7) 0.84054(6)
P1 P 0.61357(3) 0.77022(2) 1.026606(17)
P2 P 0.39449(3) 0.82235(2) 0.881172(17)
loop_
_geom_bond_atom_site_label_1
_geom_bond_atom_site_label_2
_geom_bond_site_symmetry_1
_geom_bond_site_symmetry_2
C1 H1 1_555 1_555
H2 C1 1_555 1_555
H3 C1 1_555 1_555
C2 H4 1_555 1_555
C3 C2 1_555 1_555
H5 C3 1_555 1_555
H6 C3 1_555 1_555
H7 C3 1_555 1_555
C4 C2 1_555 1_555
H8 C4 1_555 1_555
H9 C4 1_555 1_555
H10 C4 1_555 1_555
C5 C6 1_555 1_555
C6 H11 1_555 1_555
C7 C6 1_555 1_555
H12 C7 1_555 1_555
C8 C7 1_555 1_555
H13 C8 1_555 1_555
C9 C8 1_555 1_555
H14 C9 1_555 1_555
C10 C5 1_555 1_555
H15 C10 1_555 1_555
C11 H16 1_555 1_555
C12 C11 1_555 1_555
H17 C12 1_555 1_555
H18 C12 1_555 1_555
C13 C12 1_555 1_555
H19 C13 1_555 1_555
H20 C13 1_555 1_555
C14 C13 1_555 1_555
H21 C14 1_555 1_555
H22 C14 1_555 1_555
C15 C14 1_555 1_555
H23 C15 1_555 1_555
H24 C15 1_555 1_555
C16 C11 1_555 1_555
H25 C16 1_555 1_555
H26 C16 1_555 1_555
C17 C18 1_555 1_555
C18 H27 1_555 1_555
C19 C18 1_555 1_555
H28 C19 1_555 1_555
C20 C19 1_555 1_555
H29 C20 1_555 1_555
C21 C20 1_555 1_555
H30 C21 1_555 1_555
C22 C17 1_555 1_555
H31 C22 1_555 1_555
C23 H32 1_555 1_555
H33 C23 1_555 1_555
H34 C23 1_555 1_555
C24 H35 1_555 1_555
C25 C24 1_555 1_555
H36 C25 1_555 1_555
H37 C25 1_555 1_555
H38 C25 1_555 1_555
C26 C24 1_555 1_555
H39 C26 1_555 1_555
H40 C26 1_555 1_555
H41 C26 1_555 1_555
N1 C1 1_555 1_555
N2 C11 1_555 1_555
N3 C23 1_555 1_555
P1 C5 1_555 1_555
P2 C17 1_555 1_555
C2 N1 1_555 1_555
C9 C10 1_555 1_555
C15 C16 1_555 1_555
C21 C22 1_555 1_555
C24 N3 1_555 1_555
N1 P1 1_555 1_555
N2 P1 1_555 1_555
N2 P2 1_555 1_555
N3 P2 1_555 1_555

#END
