
#######################################################################
#
#                 Cambridge Crystallographic Data Centre
#                                CCDC 
#
#######################################################################
#
# If this CIF has been generated from an entry in the Cambridge 
# Structural Database, then it will include bibliographic, chemical, 
# crystal, experimental, refinement or atomic coordinate data resulting 
# from the CCDC's data processing and validation procedures.
#
#######################################################################

data_ILIRAY
_chemical_formula_moiety         'C24 H37 N3 P2'
_chemical_name_systematic        
"N-cyclohexyl-N'-ethyl-N-((ethyl(methyl)amino)(phenyl)phosphino)-N'-methyl-P-phenylphosphonous diamide"
_symmetry_cell_setting           monoclinic
_symmetry_space_group_name_H-M   'C 2/c'
_symmetry_Int_Tables_number      15
_space_group_name_Hall           '-C 2yn'
loop_
_symmetry_equiv_pos_site_id
_symmetry_equiv_pos_as_xyz
1 x,y,z
2 -x,y,1/2-z
3 1/2+x,1/2+y,z
4 1/2-x,1/2+y,1/2-z
5 -x,-y,-z
6 x,-y,1/2+z
7 1/2-x,1/2-y,-z
8 1/2+x,1/2-y,1/2+z
_cell_length_a                   28.2829(8)
_cell_length_b                   9.4907(3)
_cell_length_c                   18.7206(5)
_cell_angle_alpha                90
_cell_angle_beta                 107.0550(6)
_cell_angle_gamma                90
_cell_volume                     4804.08
_exptl_crystal_colour            colorless
_exptl_crystal_description       prism
_cell_formula_units_Z            8
_chemical_properties_physical    'Air-sensitive, Moisture-sensitive'
loop_
_atom_site_label
_atom_site_type_symbol
_atom_site_fract_x
_atom_site_fract_y
_atom_site_fract_z
C1 C 0.80179(5) 0.83363(15) 0.09887(8)
H1 H 0.7842 0.8115 0.0467
H2 H 0.8039 0.9361 0.1055
H3 H 0.7839 0.7931 0.1315
C2 C 0.85211(5) 0.62105(13) 0.10845(7)
H4 H 0.8277 0.5778 0.1304
H5 H 0.8852 0.5844 0.1359
C3 C 0.83998(5) 0.57794(15) 0.02674(7)
H6 H 0.8083 0.6196 -0.0014
H7 H 0.8378 0.4750 0.0228
H8 H 0.8661 0.6114 0.0062
C4 C 0.90353(4) 1.02193(12) 0.14167(6)
C5 C 0.93441(5) 1.12266(13) 0.18666(7)
H9 H 0.9491 1.1035 0.2382
C6 C 0.94392(5) 1.25001(14) 0.15726(8)
H10 H 0.9654 1.3166 0.1886
C7 C 0.92227(5) 1.28048(15) 0.08247(8)
H11 H 0.9287 1.3678 0.0624
C8 C 0.89115(6) 1.18292(15) 0.03715(7)
H12 H 0.8757 1.2042 -0.0140
C9 C 0.88241(5) 1.05400(14) 0.06609(7)
H13 H 0.8618 0.9867 0.0341
C10 C 0.92212(4) 0.81109(12) 0.33080(6)
H14 H 0.9066 0.8250 0.3719
C11 C 0.92680(5) 0.65193(13) 0.32095(7)
H15 H 0.9432 0.6339 0.2819
H16 H 0.8935 0.6090 0.3046
C12 C 0.95697(5) 0.58449(14) 0.39464(7)
H17 H 0.9392 0.5964 0.4326
H18 H 0.9605 0.4823 0.3870
C13 C 1.00802(5) 0.65114(16) 0.42295(8)
H19 H 1.0273 0.6290 0.3879
H20 H 1.0257 0.6105 0.4722
C14 C 1.00455(5) 0.81048(15) 0.43020(7)
H21 H 1.0382 0.8515 0.4446
H22 H 0.9893 0.8327 0.4702
C15 C 0.97370(4) 0.87664(13) 0.35671(6)
H23 H 0.9707 0.9793 0.3637
H24 H 0.9906 0.8623 0.3179
C16 C 0.81398(4) 0.90833(12) 0.32583(6)
C17 C 0.80313(4) 0.76517(13) 0.31534(7)
H25 H 0.8163 0.7129 0.2823
C18 C 0.77351(5) 0.69714(15) 0.35216(8)
H26 H 0.7664 0.5996 0.3439
C19 C 0.75436(5) 0.77197(16) 0.40090(8)
H27 H 0.7341 0.7260 0.4263
C20 C 0.76486(5) 0.91381(16) 0.41231(8)
H28 H 0.7521 0.9650 0.4462
C21 C 0.79393(5) 0.98227(14) 0.37472(7)
H29 H 0.8002 1.0803 0.3823
C22 C 0.89865(5) 1.14729(14) 0.39343(7)
H30 H 0.9318 1.1806 0.3953
H31 H 0.9010 1.0526 0.4151
H32 H 0.8839 1.2116 0.4219
C23 C 0.86090(5) 1.27912(13) 0.27737(8)
H33 H 0.8483 1.2627 0.2228
H34 H 0.8933 1.3268 0.2876
C24 C 0.82530(6) 1.37515(14) 0.30094(9)
H35 H 0.7944 1.3246 0.2965
H36 H 0.8185 1.4585 0.2686
H37 H 0.8401 1.4044 0.3529
N1 N 0.85159(4) 0.77446(11) 0.11811(6)
N2 N 0.88958(3) 0.88135(10) 0.26284(5)
N3 N 0.86778(4) 1.14294(10) 0.31600(6)
P1 P 0.90189(2) 0.84521(3) 0.17980(2)
P2 P 0.84425(2) 1.00069(3) 0.26486(2)
loop_
_geom_bond_atom_site_label_1
_geom_bond_atom_site_label_2
_geom_bond_site_symmetry_1
_geom_bond_site_symmetry_2
C1 H1 1_555 1_555
H2 C1 1_555 1_555
H3 C1 1_555 1_555
C2 H4 1_555 1_555
H5 C2 1_555 1_555
C3 C2 1_555 1_555
H6 C3 1_555 1_555
H7 C3 1_555 1_555
H8 C3 1_555 1_555
C4 C5 1_555 1_555
C5 H9 1_555 1_555
C6 C5 1_555 1_555
H10 C6 1_555 1_555
C7 C6 1_555 1_555
H11 C7 1_555 1_555
C8 C7 1_555 1_555
H12 C8 1_555 1_555
C9 C4 1_555 1_555
H13 C9 1_555 1_555
C10 H14 1_555 1_555
C11 C10 1_555 1_555
H15 C11 1_555 1_555
H16 C11 1_555 1_555
C12 C11 1_555 1_555
H17 C12 1_555 1_555
H18 C12 1_555 1_555
C13 C12 1_555 1_555
H19 C13 1_555 1_555
H20 C13 1_555 1_555
C14 C13 1_555 1_555
H21 C14 1_555 1_555
H22 C14 1_555 1_555
C15 C10 1_555 1_555
H23 C15 1_555 1_555
H24 C15 1_555 1_555
C16 C17 1_555 1_555
C17 H25 1_555 1_555
C18 C17 1_555 1_555
H26 C18 1_555 1_555
C19 C18 1_555 1_555
H27 C19 1_555 1_555
C20 C19 1_555 1_555
H28 C20 1_555 1_555
C21 C16 1_555 1_555
H29 C21 1_555 1_555
C22 H30 1_555 1_555
H31 C22 1_555 1_555
H32 C22 1_555 1_555
C23 H33 1_555 1_555
H34 C23 1_555 1_555
C24 C23 1_555 1_555
H35 C24 1_555 1_555
H36 C24 1_555 1_555
H37 C24 1_555 1_555
N1 C1 1_555 1_555
N2 C10 1_555 1_555
N3 C22 1_555 1_555
P1 C4 1_555 1_555
P2 C16 1_555 1_555
C2 N1 1_555 1_555
C8 C9 1_555 1_555
C14 C15 1_555 1_555
C20 C21 1_555 1_555
C23 N3 1_555 1_555
N1 P1 1_555 1_555
N2 P1 1_555 1_555
N2 P2 1_555 1_555
N3 P2 1_555 1_555

#END
