
#######################################################################
#
#                 Cambridge Crystallographic Data Centre
#                                CCDC 
#
#######################################################################
#
# If this CIF has been generated from an entry in the Cambridge 
# Structural Database, then it will include bibliographic, chemical, 
# crystal, experimental, refinement or atomic coordinate data resulting 
# from the CCDC's data processing and validation procedures.
#
#######################################################################

data_ILISIF
_chemical_formula_moiety         'C13 H11 Br1 N2 O1'
_chemical_name_systematic        2-(2-Pyridylmethyliminomethyl)-4-bromophenol
_symmetry_cell_setting           triclinic
_symmetry_space_group_name_H-M   'P -1'
_symmetry_Int_Tables_number      2
_space_group_name_Hall           '-P 1'
loop_
_symmetry_equiv_pos_site_id
_symmetry_equiv_pos_as_xyz
1 x,y,z
2 -x,-y,-z
_cell_length_a                   4.4740(10)
_cell_length_b                   9.529(2)
_cell_length_c                   14.271(2)
_cell_angle_alpha                92.650(10)
_cell_angle_beta                 93.720(10)
_cell_angle_gamma                95.16(2)
_cell_volume                     603.839
_exptl_crystal_colour            yellow
_exptl_crystal_description       block
_cell_formula_units_Z            2
loop_
_atom_site_label
_atom_site_type_symbol
_atom_site_fract_x
_atom_site_fract_y
_atom_site_fract_z
Br1 Br 0.30340(10) 0.24335(6) 0.58068(3)
O1 O 0.6041(8) 0.2028(3) 0.1768(2)
N1 N 0.9805(8) 0.4255(4) 0.2113(3)
N2 N 0.9128(9) 0.7314(4) 0.2056(3)
C1 C 0.6918(9) 0.3203(4) 0.3293(3)
C2 C 0.5480(10) 0.2130(4) 0.2681(3)
C3 C 0.3390(10) 0.1133(5) 0.3018(3)
C4 C 0.2700(10) 0.1215(5) 0.3945(4)
C5 C 0.4120(10) 0.2293(5) 0.4542(3)
C6 C 0.6200(10) 0.3267(4) 0.4223(3)
C7 C 0.9191(9) 0.4232(4) 0.2968(3)
C8 C 1.2050(10) 0.5345(5) 0.1849(3)
C9 C 1.0506(9) 0.6552(4) 0.1442(3)
C10 C 1.0500(10) 0.6829(5) 0.0507(3)
C11 C 0.9070(10) 0.7953(6) 0.0192(4)
C12 C 0.7680(10) 0.8748(5) 0.0819(4)
C13 C 0.7780(10) 0.8385(5) 0.1731(4)
H1 H 0.7223 0.2694 0.1649
H2 H 0.2461 0.0408 0.2613
H3 H 0.1296 0.0553 0.4167
H4 H 0.7149 0.3978 0.4636
H5 H 1.0221 0.4891 0.3401
H6 H 1.3285 0.4952 0.1388
H7 H 1.3348 0.5689 0.2398
H8 H 1.1459 0.6266 0.0093
H9 H 0.9041 0.8166 -0.0438
H10 H 0.6697 0.9518 0.0630
H11 H 0.6820 0.8931 0.2155
loop_
_geom_bond_atom_site_label_1
_geom_bond_atom_site_label_2
_geom_bond_site_symmetry_1
_geom_bond_site_symmetry_2
Br1 C5 1_555 1_555
O1 C2 1_555 1_555
N1 C7 1_555 1_555
N2 C9 1_555 1_555
C1 C2 1_555 1_555
C2 C3 1_555 1_555
C3 C4 1_555 1_555
C4 C5 1_555 1_555
C5 C6 1_555 1_555
C6 C1 1_555 1_555
C7 C1 1_555 1_555
C8 N1 1_555 1_555
C9 C8 1_555 1_555
C10 C9 1_555 1_555
C11 C10 1_555 1_555
C12 C11 1_555 1_555
C13 N2 1_555 1_555
H1 O1 1_555 1_555
H2 C3 1_555 1_555
H3 C4 1_555 1_555
H4 C6 1_555 1_555
H5 C7 1_555 1_555
H6 C8 1_555 1_555
H7 C8 1_555 1_555
H8 C10 1_555 1_555
H9 C11 1_555 1_555
H10 C12 1_555 1_555
H11 C13 1_555 1_555
C12 C13 1_555 1_555

#END
