
#######################################################################
#
#                 Cambridge Crystallographic Data Centre
#                                CCDC 
#
#######################################################################
#
# If this CIF has been generated from an entry in the Cambridge 
# Structural Database, then it will include bibliographic, chemical, 
# crystal, experimental, refinement or atomic coordinate data resulting 
# from the CCDC's data processing and validation procedures.
#
#######################################################################

data_ILISIH
_chemical_name_common            
'(Z)-1-(5-ethoxy-2-(4-nitrophenyl)oxazol-4-yl)ethan-1-one O-methyl oxime'
_chemical_formula_moiety         'C14 H15 N3 O5'
_chemical_name_systematic        
1-(5-ethoxy-2-(4-nitrophenyl)-1,3-oxazol-4-yl)-N-methoxyethanimine
_symmetry_cell_setting           monoclinic
_symmetry_space_group_name_H-M   'I 2/a'
_symmetry_Int_Tables_number      15
_space_group_name_Hall           '-I 2ya'
loop_
_symmetry_equiv_pos_site_id
_symmetry_equiv_pos_as_xyz
1 x,y,z
2 1/2-x,y,-z
3 1/2+x,1/2+y,1/2+z
4 -x,1/2+y,1/2-z
5 -x,-y,-z
6 1/2+x,-y,z
7 1/2-x,1/2-y,1/2-z
8 x,1/2-y,1/2+z
_cell_length_a                   30.509(6)
_cell_length_b                   14.5498(18)
_cell_length_c                   33.049(4)
_cell_angle_alpha                90
_cell_angle_beta                 91.858(3)
_cell_angle_gamma                90
_cell_volume                     14662.7
_exptl_crystal_colour            yellow
_exptl_crystal_description       Block
_cell_formula_units_Z            40
loop_
_atom_site_label
_atom_site_type_symbol
_atom_site_fract_x
_atom_site_fract_y
_atom_site_fract_z
N1 N -0.07508(10) 0.9585(3) 0.24268(9)
O1 O -0.09022(10) 0.9127(2) 0.26954(8)
O2 O -0.07691(10) 1.0436(2) 0.24186(8)
C1 C -0.05375(11) 0.9115(3) 0.20937(10)
C2 C -0.04995(12) 0.8172(3) 0.21096(11)
H1 H -0.0611 0.7834 0.2330
C3 C -0.02951(12) 0.7728(3) 0.17965(10)
H2 H -0.0266 0.7078 0.1802
C4 C -0.01313(11) 0.8221(2) 0.14742(10)
C5 C -0.01796(12) 0.9174(3) 0.14660(11)
H3 H -0.0072 0.9516 0.1246
C6 C -0.03841(12) 0.9625(3) 0.17773(11)
H4 H -0.0418 1.0274 0.1772
C7 C 0.00660(11) 0.7726(2) 0.11473(10)
N2 N 0.00775(9) 0.6854(2) 0.10826(8)
C8 C 0.02870(11) 0.6731(2) 0.07158(10)
C9 C 0.03854(11) 0.7589(2) 0.05736(10)
O3 O 0.02524(7) 0.82316(16) 0.08424(7)
C10 C 0.03174(12) 0.5797(2) 0.05479(11)
C11 C 0.00240(14) 0.5078(3) 0.07220(12)
H5 H 0.0003 0.4552 0.0537
H6 H -0.0269 0.5338 0.0757
H7 H 0.0147 0.4876 0.0985
N3 N 0.05689(10) 0.5512(2) 0.02709(9)
O4 O 0.08570(9) 0.62101(18) 0.01522(8)
C12 C 0.10255(15) 0.5979(3) -0.02271(13)
H8 H 0.1189 0.5401 -0.0204
H9 H 0.1221 0.6469 -0.0315
H10 H 0.0783 0.5907 -0.0426
O5 O 0.05498(8) 0.78882(17) 0.02340(7)
C13 C 0.07275(12) 0.8816(2) 0.02314(11)
H11 H 0.0918 0.8922 0.0475
H12 H 0.0487 0.9274 0.0228
C14 C 0.09879(13) 0.8899(3) -0.01433(12)
H13 H 0.1222 0.8439 -0.0137
H14 H 0.1116 0.9515 -0.0156
H15 H 0.0795 0.8798 -0.0382
N4 N 0.16689(10) 0.6092(2) 0.06192(9)
O6 O 0.18574(9) 0.65186(19) 0.03530(8)
O7 O 0.16441(9) 0.52474(18) 0.06258(8)
C15 C 0.14690(11) 0.6614(2) 0.09441(10)
C16 C 0.14720(11) 0.7565(2) 0.09243(10)
H16 H 0.1597 0.7871 0.0702
C17 C 0.12908(11) 0.8060(2) 0.12336(10)
H17 H 0.1288 0.8712 0.1223
C18 C 0.11119(10) 0.7603(2) 0.15616(10)
C19 C 0.11132(11) 0.6645(2) 0.15739(10)
H18 H 0.0990 0.6334 0.1796
C20 C 0.12918(12) 0.6146(2) 0.12655(10)
H19 H 0.1293 0.5493 0.1273
C21 C 0.09406(11) 0.8148(2) 0.18914(10)
N5 N 0.09444(9) 0.9031(2) 0.19348(8)
C22 C 0.07475(12) 0.9207(2) 0.23012(10)
C23 C 0.06412(14) 0.8386(3) 0.24657(11)
O8 O 0.07584(9) 0.76911(17) 0.22096(7)
C24 C 0.07290(12) 1.0162(2) 0.24512(11)
C25 C 0.10624(13) 1.0815(3) 0.22929(12)
H20 H 0.0967 1.1029 0.2023
H21 H 0.1345 1.0501 0.2276
H22 H 0.1093 1.1342 0.2476
N6 N 0.04608(10) 1.0503(2) 0.26980(9)
O9 O 0.01433(9) 0.9849(2) 0.28134(8)
C26 C -0.00780(14) 1.0229(3) 0.31464(12)
H23 H 0.0138 1.0421 0.3356
H24 H -0.0273 0.9765 0.3258
H25 H -0.0251 1.0762 0.3055
O10 O 0.04101(18) 0.8188(5) 0.2788(2)
C27 C 0.0310(4) 0.7216(7) 0.2845(4)
H26 H 0.0582 0.6862 0.2905
H27 H 0.0163 0.6958 0.2599
C28 C 0.0007(3) 0.7187(8) 0.3203(3)
H28 H -0.0243 0.7597 0.3150
H29 H 0.0168 0.7389 0.3448
H30 H -0.0099 0.6558 0.3240
N7 N 0.14940(10) 0.5862(2) 0.31459(9)
O12 O 0.12908(9) 0.62143(19) 0.34236(8)
O13 O 0.15423(9) 0.50227(17) 0.31063(8)
C31 C 0.16780(11) 0.6465(2) 0.28400(10)
C32 C 0.16737(12) 0.7408(2) 0.29033(11)
H36 H 0.1563 0.7656 0.3146
C33 C 0.18319(12) 0.7978(2) 0.26096(11)
H37 H 0.1833 0.8624 0.2650
C34 C 0.19914(11) 0.7609(2) 0.22529(10)
C35 C 0.19922(12) 0.6663(2) 0.21969(11)
H38 H 0.2101 0.6412 0.1954
C36 C 0.18357(12) 0.6079(2) 0.24911(11)
H39 H 0.1837 0.5432 0.2454
C37 C 0.21428(11) 0.8225(2) 0.19349(10)
N8 N 0.21492(9) 0.91118(19) 0.19300(9)
C38 C 0.23198(11) 0.9335(2) 0.15544(10)
C39 C 0.23892(12) 0.8547(2) 0.13469(11)
O14 O 0.22863(8) 0.78162(16) 0.15937(7)
C40 C 0.23749(12) 1.0308(2) 0.14362(10)
C41 C 0.20587(13) 1.0997(3) 0.15971(11)
H40 H 0.2080 1.0997 0.1894
H41 H 0.1760 1.0833 0.1507
H42 H 0.2130 1.1610 0.1496
N9 N 0.26731(10) 1.0632(2) 0.12129(9)
O15 O 0.29606(8) 0.99316(16) 0.10845(7)
C42 C 0.33240(12) 1.0358(3) 0.09013(11)
H43 H 0.3219 1.0728 0.0670
H44 H 0.3526 0.9885 0.0808
H45 H 0.3477 1.0756 0.1099
O16 O 0.24866(8) 0.83557(16) 0.09727(7)
C43 C 0.28698(12) 0.7777(3) 0.09172(11)
H46 H 0.2840 0.7190 0.1065
H47 H 0.3139 0.8092 0.1020
C44 C 0.28944(14) 0.7606(3) 0.04753(12)
H48 H 0.2630 0.7280 0.0379
H49 H 0.3153 0.7231 0.0423
H50 H 0.2916 0.8193 0.0332
N10 N -0.26408(10) 0.5096(2) 0.12328(10)
O17 O -0.28856(9) 0.54726(19) 0.14670(8)
O18 O -0.25742(9) 0.42537(17) 0.12314(8)
C45 C -0.24230(11) 0.5648(2) 0.09294(10)
C46 C -0.24278(12) 0.6599(2) 0.09743(11)
H51 H -0.2559 0.6874 0.1201
C47 C -0.22382(12) 0.7134(2) 0.06840(10)
H52 H -0.2232 0.7784 0.0714
C48 C -0.20548(11) 0.6725(2) 0.03444(10)
C49 C -0.20512(11) 0.5763(2) 0.03097(10)
H53 H -0.1923 0.5481 0.0083
C50 C -0.22347(12) 0.5226(2) 0.06066(11)
H54 H -0.2230 0.4575 0.0587
C51 C -0.18900(11) 0.7310(2) 0.00274(10)
N11 N -0.18908(9) 0.81929(19) 0.00082(8)
C52 C -0.17097(11) 0.8418(2) -0.03620(11)
C53 C -0.16180(13) 0.7610(3) -0.05527(12)
O19 O -0.17252(8) 0.68934(16) -0.03084(7)
C54 C -0.16854(11) 0.9373(2) -0.04929(10)
C55 C -0.20255(12) 1.0013(2) -0.03385(11)
H55 H -0.1991 1.0619 -0.0462
H56 H -0.1990 1.0066 -0.0044
H57 H -0.2318 0.9771 -0.0408
N12 N -0.13998(10) 0.9727(2) -0.07217(9)
O20 O -0.10767(8) 0.90837(18) -0.08275(8)
C56 C -0.08151(13) 0.9490(3) -0.11236(11)
H58 H -0.0670 1.0038 -0.1010
H59 H -0.1001 0.9665 -0.1359
H60 H -0.0593 0.9049 -0.1207
O21 O -0.15730(18) 0.7397(4) -0.0960(2)
C57 C -0.1147(4) 0.6739(8) -0.1476(3)
H61 H -0.1426 0.6526 -0.1598
H62 H -0.0917 0.6290 -0.1529
H63 H -0.1070 0.7334 -0.1594
C58 C -0.1192(3) 0.6843(6) -0.1032(3)
H64 H -0.1223 0.6231 -0.0905
H65 H -0.0927 0.7142 -0.0912
N13 N -0.01882(10) 0.8442(2) -0.04448(9)
O23 O -0.00976(10) 0.79380(19) -0.07261(8)
O24 O -0.00773(9) 0.92604(18) -0.04236(8)
C61 C -0.04346(11) 0.8062(2) -0.01087(10)
C62 C -0.05242(12) 0.7128(2) -0.01106(11)
H71 H -0.0441 0.6756 -0.0331
C63 C -0.07335(12) 0.6749(2) 0.02086(11)
H72 H -0.0798 0.6111 0.0211
C64 C -0.08533(11) 0.7308(2) 0.05341(10)
C65 C -0.07724(11) 0.8246(2) 0.05215(11)
H73 H -0.0866 0.8629 0.0735
C66 C -0.05571(12) 0.8627(2) 0.02020(10)
H74 H -0.0495 0.9267 0.0196
C67 C -0.10420(11) 0.6875(2) 0.08840(10)
N14 N -0.10922(10) 0.6005(2) 0.09573(9)
C68 C -0.12728(12) 0.5960(2) 0.13395(11)
C69 C -0.13076(11) 0.6821(2) 0.14846(11)
O25 O -0.11685(8) 0.74294(16) 0.11987(7)
C70 C -0.13538(13) 0.5051(3) 0.15224(12)
C71 C -0.10638(16) 0.4280(3) 0.14021(14)
H75 H -0.1086 0.4198 0.1108
H76 H -0.1155 0.3714 0.1536
H77 H -0.0760 0.4422 0.1483
N15 N -0.16533(11) 0.4858(2) 0.17711(10)
O26 O -0.19311(9) 0.56282(18) 0.18357(8)
C72 C -0.22128(13) 0.5407(3) 0.21532(11)
H78 H -0.2039 0.5313 0.2404
H79 H -0.2375 0.4844 0.2085
H80 H -0.2420 0.5912 0.2191
O27 O -0.14065(9) 0.71578(17) 0.18408(7)
C73 C -0.17426(17) 0.7864(3) 0.18421(13)
H81 H -0.2003 0.7659 0.1680
H82 H -0.1631 0.8436 0.1720
C74 C -0.18650(15) 0.8040(3) 0.22669(13)
H83 H -0.1608 0.8260 0.2424
H84 H -0.1972 0.7470 0.2387
H85 H -0.2096 0.8507 0.2270
O11? O 0.0603(3) 0.8078(7) 0.2859(3)
C29? C 0.0245(6) 0.7486(12) 0.2926(5)
H31? H 0.0298 0.6889 0.2792
H32? H -0.0024 0.7756 0.2801
C30? C 0.0176(6) 0.7325(13) 0.3357(4)
H33? H -0.0125 0.7116 0.3393
H34? H 0.0226 0.7898 0.3507
H35? H 0.0382 0.6854 0.3458
C59? C -0.1273(4) 0.6519(8) -0.0948(4)
H66? H -0.1545 0.6158 -0.0995
H67? H -0.1101 0.6238 -0.0720
O22? O -0.1375(3) 0.7458(6) -0.0859(3)
C60? C -0.1012(6) 0.6541(11) -0.1318(4)
H68? H -0.1180 0.6852 -0.1535
H69? H -0.0945 0.5912 -0.1401
H70? H -0.0738 0.6876 -0.1262
loop_
_geom_bond_atom_site_label_1
_geom_bond_atom_site_label_2
_geom_bond_site_symmetry_1
_geom_bond_site_symmetry_2
N1 O1 1_555 1_555
O2 N1 1_555 1_555
C1 N1 1_555 1_555
C2 C1 1_555 1_555
H1 C2 1_555 1_555
C3 C2 1_555 1_555
H2 C3 1_555 1_555
C4 C3 1_555 1_555
C5 C4 1_555 1_555
H3 C5 1_555 1_555
C6 C1 1_555 1_555
H4 C6 1_555 1_555
C7 C4 1_555 1_555
N2 C7 1_555 1_555
C8 N2 1_555 1_555
C9 C8 1_555 1_555
O3 C7 1_555 1_555
C10 C8 1_555 1_555
C11 C10 1_555 1_555
H5 C11 1_555 1_555
H6 C11 1_555 1_555
H7 C11 1_555 1_555
N3 C10 1_555 1_555
O4 N3 1_555 1_555
C12 O4 1_555 1_555
H8 C12 1_555 1_555
H9 C12 1_555 1_555
H10 C12 1_555 1_555
O5 C9 1_555 1_555
C13 O5 1_555 1_555
H11 C13 1_555 1_555
H12 C13 1_555 1_555
C14 C13 1_555 1_555
H13 C14 1_555 1_555
H14 C14 1_555 1_555
H15 C14 1_555 1_555
N4 O6 1_555 1_555
O7 N4 1_555 1_555
C15 N4 1_555 1_555
C16 C15 1_555 1_555
H16 C16 1_555 1_555
C17 C16 1_555 1_555
H17 C17 1_555 1_555
C18 C17 1_555 1_555
C19 C18 1_555 1_555
H18 C19 1_555 1_555
C20 C15 1_555 1_555
H19 C20 1_555 1_555
C21 C18 1_555 1_555
N5 C21 1_555 1_555
C22 N5 1_555 1_555
C23 C22 1_555 1_555
O8 C21 1_555 1_555
C24 C22 1_555 1_555
C25 C24 1_555 1_555
H20 C25 1_555 1_555
H21 C25 1_555 1_555
H22 C25 1_555 1_555
N6 C24 1_555 1_555
O9 N6 1_555 1_555
C26 O9 1_555 1_555
H23 C26 1_555 1_555
H24 C26 1_555 1_555
H25 C26 1_555 1_555
O10 C23 1_555 1_555
C27 O10 1_555 1_555
H26 C27 1_555 1_555
H27 C27 1_555 1_555
C28 C27 1_555 1_555
H28 C28 1_555 1_555
H29 C28 1_555 1_555
H30 C28 1_555 1_555
N7 O12 1_555 1_555
O13 N7 1_555 1_555
C31 N7 1_555 1_555
C32 C31 1_555 1_555
H36 C32 1_555 1_555
C33 C32 1_555 1_555
H37 C33 1_555 1_555
C34 C33 1_555 1_555
C35 C34 1_555 1_555
H38 C35 1_555 1_555
C36 C31 1_555 1_555
H39 C36 1_555 1_555
C37 C34 1_555 1_555
N8 C37 1_555 1_555
C38 N8 1_555 1_555
C39 C38 1_555 1_555
O14 C37 1_555 1_555
C40 C38 1_555 1_555
C41 C40 1_555 1_555
H40 C41 1_555 1_555
H41 C41 1_555 1_555
H42 C41 1_555 1_555
N9 C40 1_555 1_555
O15 N9 1_555 1_555
C42 O15 1_555 1_555
H43 C42 1_555 1_555
H44 C42 1_555 1_555
H45 C42 1_555 1_555
O16 C39 1_555 1_555
C43 O16 1_555 1_555
H46 C43 1_555 1_555
H47 C43 1_555 1_555
C44 C43 1_555 1_555
H48 C44 1_555 1_555
H49 C44 1_555 1_555
H50 C44 1_555 1_555
N10 O17 1_555 1_555
O18 N10 1_555 1_555
C45 N10 1_555 1_555
C46 C45 1_555 1_555
H51 C46 1_555 1_555
C47 C46 1_555 1_555
H52 C47 1_555 1_555
C48 C47 1_555 1_555
C49 C48 1_555 1_555
H53 C49 1_555 1_555
C50 C45 1_555 1_555
H54 C50 1_555 1_555
C51 C48 1_555 1_555
N11 C51 1_555 1_555
C52 N11 1_555 1_555
C53 C52 1_555 1_555
O19 C51 1_555 1_555
C54 C52 1_555 1_555
C55 C54 1_555 1_555
H55 C55 1_555 1_555
H56 C55 1_555 1_555
H57 C55 1_555 1_555
N12 C54 1_555 1_555
O20 N12 1_555 1_555
C56 O20 1_555 1_555
H58 C56 1_555 1_555
H59 C56 1_555 1_555
H60 C56 1_555 1_555
O21 C53 1_555 1_555
C57 H61 1_555 1_555
H62 C57 1_555 1_555
H63 C57 1_555 1_555
C58 O21 1_555 1_555
H64 C58 1_555 1_555
H65 C58 1_555 1_555
N13 O23 1_555 1_555
O24 N13 1_555 1_555
C61 N13 1_555 1_555
C62 C61 1_555 1_555
H71 C62 1_555 1_555
C63 C62 1_555 1_555
H72 C63 1_555 1_555
C64 C63 1_555 1_555
C65 C64 1_555 1_555
H73 C65 1_555 1_555
C66 C61 1_555 1_555
H74 C66 1_555 1_555
C67 C64 1_555 1_555
N14 C67 1_555 1_555
C68 N14 1_555 1_555
C69 C68 1_555 1_555
O25 C67 1_555 1_555
C70 C68 1_555 1_555
C71 C70 1_555 1_555
H75 C71 1_555 1_555
H76 C71 1_555 1_555
H77 C71 1_555 1_555
N15 C70 1_555 1_555
O26 N15 1_555 1_555
C72 O26 1_555 1_555
H78 C72 1_555 1_555
H79 C72 1_555 1_555
H80 C72 1_555 1_555
O27 C69 1_555 1_555
C73 O27 1_555 1_555
H81 C73 1_555 1_555
H82 C73 1_555 1_555
C74 C73 1_555 1_555
H83 C74 1_555 1_555
H84 C74 1_555 1_555
H85 C74 1_555 1_555
C5 C6 1_555 1_555
C9 O3 1_555 1_555
C19 C20 1_555 1_555
C23 O8 1_555 1_555
C35 C36 1_555 1_555
C39 O14 1_555 1_555
C49 C50 1_555 1_555
C53 O19 1_555 1_555
C57 C58 1_555 1_555
C65 C66 1_555 1_555
C69 O25 1_555 1_555

#END
