
#######################################################################
#
#                 Cambridge Crystallographic Data Centre
#                                CCDC 
#
#######################################################################
#
# If this CIF has been generated from an entry in the Cambridge 
# Structural Database, then it will include bibliographic, chemical, 
# crystal, experimental, refinement or atomic coordinate data resulting 
# from the CCDC's data processing and validation procedures.
#
#######################################################################

data_ILIWOR
_chemical_formula_moiety         'C30 H23 N1 O3'
_chemical_name_systematic        
2-(4-(Dibenzylamino)phenyl)-8-hydroxy-1,4-naphthoquinone
_symmetry_cell_setting           triclinic
_symmetry_space_group_name_H-M   'P -1'
_symmetry_Int_Tables_number      2
_space_group_name_Hall           '-P 1'
loop_
_symmetry_equiv_pos_site_id
_symmetry_equiv_pos_as_xyz
1 x,y,z
2 -x,-y,-z
_cell_length_a                   10.5934(6)
_cell_length_b                   11.3310(6)
_cell_length_c                   11.5882(6)
_cell_angle_alpha                62.047(2)
_cell_angle_beta                 67.237(2)
_cell_angle_gamma                79.142(2)
_cell_volume                     1132.95
_exptl_crystal_colour            black
_exptl_crystal_description       parallelepiped
_cell_formula_units_Z            2
loop_
_atom_site_label
_atom_site_type_symbol
_atom_site_fract_x
_atom_site_fract_y
_atom_site_fract_z
O1 O 0.39329(14) 0.90151(14) 0.11073(15)
O2 O 0.58922(17) 0.89167(17) 0.19723(18)
H1 H 0.540(3) 0.920(3) 0.145(3)
O3 O 0.1287(2) 0.5046(2) 0.59401(19)
N1 N 0.01162(18) 0.87695(17) -0.19745(18)
C1 C 0.33939(18) 0.80276(18) 0.21877(19)
C2 C 0.39319(19) 0.74537(18) 0.3341(2)
C3 C 0.5158(2) 0.7938(2) 0.3162(2)
C4 C 0.5646(2) 0.7391(2) 0.4269(3)
H2 H 0.6467 0.7687 0.4153
C5 C 0.4917(3) 0.6418(3) 0.5531(3)
H3 H 0.5248 0.6071 0.6264
C6 C 0.3693(3) 0.5940(2) 0.5737(2)
H4 H 0.3204 0.5288 0.6600
C7 C 0.3216(2) 0.6450(2) 0.4638(2)
C8 C 0.1948(2) 0.5915(2) 0.4820(2)
C9 C 0.1525(2) 0.6418(2) 0.3611(2)
H5 H 0.0772 0.6027 0.3707
C10 C 0.21605(18) 0.74200(18) 0.2358(2)
C11 C 0.16519(19) 0.79136(18) 0.11956(19)
C12 C 0.0242(2) 0.7895(2) 0.1467(2)
H6 H -0.0361 0.7661 0.2373
C13 C -0.02721(19) 0.82128(19) 0.0435(2)
H7 H -0.1213 0.8209 0.0650
C14 C 0.0606(2) 0.85432(18) -0.0941(2)
C15 C 0.2012(2) 0.86183(19) -0.1228(2)
H8 H 0.2614 0.8879 -0.2138
C16 C 0.25132(19) 0.83135(19) -0.0189(2)
H9 H 0.3449 0.8375 -0.0412
C17 C -0.1348(2) 0.8743(2) -0.1672(2)
H10 H -0.1518 0.9196 -0.2546
H11 H -0.1810 0.9250 -0.1142
C18 C -0.1987(2) 0.7374(2) -0.0879(2)
C19 C -0.1251(2) 0.6228(2) -0.0873(3)
H12 H -0.0306 0.6273 -0.1315
C20 C -0.1902(3) 0.5010(2) -0.0215(3)
H13 H -0.1396 0.4249 -0.0231
C21 C -0.3294(3) 0.4928(3) 0.0459(3)
H14 H -0.3728 0.4110 0.0904
C22 C -0.4042(3) 0.6051(3) 0.0476(3)
H15 H -0.4984 0.5997 0.0935
C23 C -0.3389(2) 0.7266(2) -0.0193(2)
H16 H -0.3903 0.8025 -0.0182
C24 C 0.1043(2) 0.8757(2) -0.3270(2)
H17 H 0.0537 0.8474 -0.3638
H18 H 0.1749 0.8090 -0.3070
C25 C 0.1731(2) 1.0064(2) -0.4388(2)
C26 C 0.1044(3) 1.1268(2) -0.4586(2)
H19 H 0.0163 1.1283 -0.3976
C27 C 0.1643(3) 1.2451(3) -0.5676(3)
H20 H 0.1159 1.3251 -0.5799
C28 C 0.2938(3) 1.2455(3) -0.6573(3)
H21 H 0.3334 1.3252 -0.7311
C29 C 0.3652(3) 1.1278(4) -0.6380(3)
H22 H 0.4541 1.1275 -0.6981
C30 C 0.3051(3) 1.0087(3) -0.5288(3)
H23 H 0.3546 0.9292 -0.5161
loop_
_geom_bond_atom_site_label_1
_geom_bond_atom_site_label_2
_geom_bond_site_symmetry_1
_geom_bond_site_symmetry_2
O1 C1 1_555 1_555
O2 H1 1_555 1_555
O3 C8 1_555 1_555
N1 C14 1_555 1_555
C1 C2 1_555 1_555
C2 C3 1_555 1_555
C3 O2 1_555 1_555
C4 C3 1_555 1_555
H2 C4 1_555 1_555
C5 C4 1_555 1_555
H3 C5 1_555 1_555
C6 C5 1_555 1_555
H4 C6 1_555 1_555
C7 C2 1_555 1_555
C8 C7 1_555 1_555
C9 C8 1_555 1_555
H5 C9 1_555 1_555
C10 C1 1_555 1_555
C11 C10 1_555 1_555
C12 C11 1_555 1_555
H6 C12 1_555 1_555
C13 C12 1_555 1_555
H7 C13 1_555 1_555
C14 C13 1_555 1_555
C15 C14 1_555 1_555
H8 C15 1_555 1_555
C16 C11 1_555 1_555
H9 C16 1_555 1_555
C17 N1 1_555 1_555
H10 C17 1_555 1_555
H11 C17 1_555 1_555
C18 C17 1_555 1_555
C19 C18 1_555 1_555
H12 C19 1_555 1_555
C20 C19 1_555 1_555
H13 C20 1_555 1_555
C21 C20 1_555 1_555
H14 C21 1_555 1_555
C22 C21 1_555 1_555
H15 C22 1_555 1_555
C23 C18 1_555 1_555
H16 C23 1_555 1_555
C24 N1 1_555 1_555
H17 C24 1_555 1_555
H18 C24 1_555 1_555
C25 C24 1_555 1_555
C26 C25 1_555 1_555
H19 C26 1_555 1_555
C27 C26 1_555 1_555
H20 C27 1_555 1_555
C28 C27 1_555 1_555
H21 C28 1_555 1_555
C29 C28 1_555 1_555
H22 C29 1_555 1_555
C30 C25 1_555 1_555
H23 C30 1_555 1_555
C6 C7 1_555 1_555
C9 C10 1_555 1_555
C15 C16 1_555 1_555
C22 C23 1_555 1_555
C29 C30 1_555 1_555

#END
