
#######################################################################
#
#                 Cambridge Crystallographic Data Centre
#                                CCDC 
#
#######################################################################
#
# If this CIF has been generated from an entry in the Cambridge 
# Structural Database, then it will include bibliographic, chemical, 
# crystal, experimental, refinement or atomic coordinate data resulting 
# from the CCDC's data processing and validation procedures.
#
#######################################################################

data_ILOGEW
_chemical_formula_moiety         'C10 H14 O5'
_chemical_name_systematic        
1,1'-(2,3-Dihydroxy-2,5-dimethyl-2,3-dihydrofuran-3,4-diyl)diethanone
_symmetry_cell_setting           triclinic
_symmetry_space_group_name_H-M   'P -1'
_symmetry_Int_Tables_number      2
_space_group_name_Hall           '-P 1'
loop_
_symmetry_equiv_pos_site_id
_symmetry_equiv_pos_as_xyz
1 x,y,z
2 -x,-y,-z
_cell_length_a                   7.4227(4)
_cell_length_b                   8.4007(6)
_cell_length_c                   9.1488(6)
_cell_angle_alpha                85.546(6)
_cell_angle_beta                 69.109(6)
_cell_angle_gamma                81.652(5)
_cell_volume                     527.124
_exptl_crystal_colour            colorless
_exptl_crystal_description       block
_cell_formula_units_Z            2
loop_
_atom_site_label
_atom_site_type_symbol
_atom_site_fract_x
_atom_site_fract_y
_atom_site_fract_z
O1 O 0.5970(3) 0.4140(2) 0.6665(3)
O2 O 0.4692(3) 0.2296(2) 0.8628(2)
H1 H 0.3610 0.2422 0.8555
O3 O 0.9509(3) 0.1372(2) 0.5907(2)
H2 H 0.9703 0.0395 0.6041
O4 O 0.8812(3) -0.0520(2) 0.8329(3)
O5 O 1.1162(3) 0.2737(3) 0.8225(3)
C1 C 0.6091(4) 0.2421(3) 0.7151(3)
C2 C 0.8135(4) 0.2060(3) 0.7294(3)
C3 C 0.8581(4) 0.3724(3) 0.7437(3)
C4 C 0.7321(4) 0.4812(3) 0.7003(3)
C5 C 0.5768(5) 0.1487(4) 0.5938(4)
H3 H 0.4471 0.1799 0.5939
H4 H 0.5941 0.0355 0.6183
H5 H 0.6686 0.1713 0.4923
C6 C 0.8122(4) 0.0865(3) 0.8667(3)
C7 C 0.7295(5) 0.1390(4) 1.0312(4)
H6 H 0.7412 0.0490 1.1000
H7 H 0.5948 0.1805 1.0559
H8 H 0.7990 0.2216 1.0441
C8 C 1.0245(4) 0.3938(4) 0.7829(3)
C9 C 1.0887(5) 0.5568(4) 0.7758(4)
H9 H 1.2009 0.5467 0.8065
H10 H 0.9854 0.6271 0.8456
H11 H 1.1207 0.6008 0.6709
C10 C 0.7134(5) 0.6594(3) 0.6810(4)
H12 H 0.8130 0.6992 0.7066
H13 H 0.5881 0.7048 0.7494
H14 H 0.7270 0.6892 0.5745
loop_
_geom_bond_atom_site_label_1
_geom_bond_atom_site_label_2
_geom_bond_site_symmetry_1
_geom_bond_site_symmetry_2
O1 C1 1_555 1_555
O2 H1 1_555 1_555
O3 H2 1_555 1_555
O4 C6 1_555 1_555
O5 C8 1_555 1_555
C1 O2 1_555 1_555
C2 O3 1_555 1_555
C3 C2 1_555 1_555
C4 O1 1_555 1_555
C5 C1 1_555 1_555
H3 C5 1_555 1_555
H4 C5 1_555 1_555
H5 C5 1_555 1_555
C6 C2 1_555 1_555
C7 C6 1_555 1_555
H6 C7 1_555 1_555
H7 C7 1_555 1_555
H8 C7 1_555 1_555
C8 C3 1_555 1_555
C9 C8 1_555 1_555
H9 C9 1_555 1_555
H10 C9 1_555 1_555
H11 C9 1_555 1_555
C10 C4 1_555 1_555
H12 C10 1_555 1_555
H13 C10 1_555 1_555
H14 C10 1_555 1_555
C1 C2 1_555 1_555
C3 C4 1_555 1_555

#END
