
#######################################################################
#
#                 Cambridge Crystallographic Data Centre
#                                CCDC 
#
#######################################################################
#
# If this CIF has been generated from an entry in the Cambridge 
# Structural Database, then it will include bibliographic, chemical, 
# crystal, experimental, refinement or atomic coordinate data resulting 
# from the CCDC's data processing and validation procedures.
#
#######################################################################

data_ILOSIN
_chemical_formula_moiety         'C35 H29 N1 O3'
_chemical_name_systematic        
'ethyl 3-(1-(2-oxo-2-phenylethyl)-3,5-diphenyl-1H-pyrrol-2-yl)-3-phenylacrylate'
_symmetry_cell_setting           monoclinic
_symmetry_space_group_name_H-M   'P 21/c'
_symmetry_Int_Tables_number      14
_space_group_name_Hall           '-P 2ybc'
loop_
_symmetry_equiv_pos_site_id
_symmetry_equiv_pos_as_xyz
1 x,y,z
2 -x,1/2+y,1/2-z
3 -x,-y,-z
4 x,1/2-y,1/2+z
_cell_length_a                   11.0733(10)
_cell_length_b                   13.0340(13)
_cell_length_c                   19.5764(19)
_cell_angle_alpha                90
_cell_angle_beta                 93.820(3)
_cell_angle_gamma                90
_cell_volume                     2819.17
_exptl_crystal_colour            colorless
_exptl_crystal_description       prismatic
_cell_formula_units_Z            4
loop_
_atom_site_label
_atom_site_type_symbol
_atom_site_fract_x
_atom_site_fract_y
_atom_site_fract_z
N1 N 0.56353(15) 0.68566(14) 0.14201(8)
O1 O 0.44408(14) 0.69035(15) 0.01575(8)
O2 O 0.5794(2) 0.49562(17) 0.35741(10)
O3 O 0.57037(18) 0.64774(15) 0.30650(9)
C1 C 0.57185(18) 0.58595(17) 0.16540(10)
C2 C 0.69190(19) 0.55769(17) 0.16902(10)
C3 C 0.7570(2) 0.64466(18) 0.14905(11)
H1 H 0.8406 0.6483 0.1472
C4 C 0.67807(19) 0.72218(18) 0.13302(10)
C5 C 0.70309(19) 0.82798(18) 0.11189(11)
C6 C 0.7858(2) 0.8849(2) 0.15173(13)
H2 H 0.8227 0.8561 0.1913
C7 C 0.8145(3) 0.9834(2) 0.13398(16)
H3 H 0.8707 1.0208 0.1612
C8 C 0.7604(3) 1.0261(2) 0.07646(18)
H4 H 0.7795 1.0930 0.0645
C9 C 0.6788(3) 0.9720(3) 0.03636(17)
H5 H 0.6419 1.0018 -0.0029
C10 C 0.6508(2) 0.8730(2) 0.05376(13)
H6 H 0.5955 0.8359 0.0257
C11 C 0.45133(18) 0.74165(18) 0.13203(11)
H7 H 0.4676 0.8143 0.1382
H8 H 0.3976 0.7207 0.1666
C12 C 0.3882(2) 0.72462(18) 0.06158(12)
C13 C 0.2590(2) 0.75165(19) 0.05046(12)
C14 C 0.1936(2) 0.7137(2) -0.00640(14)
H9 H 0.2312 0.6714 -0.0368
C15 C 0.0731(3) 0.7379(3) -0.01847(17)
H10 H 0.0290 0.7108 -0.0564
C16 C 0.0187(3) 0.8014(3) 0.0252(2)
H11 H -0.0627 0.8177 0.0170
C17 C 0.0819(3) 0.8409(3) 0.08039(19)
H12 H 0.0441 0.8851 0.1095
C18 C 0.2022(2) 0.8160(3) 0.09383(15)
H13 H 0.2449 0.8428 0.1323
C19 C 0.46409(19) 0.53354(17) 0.18888(11)
C20 C 0.36781(19) 0.50105(18) 0.13738(11)
C21 C 0.3962(2) 0.46621(19) 0.07368(12)
H14 H 0.4769 0.4630 0.0634
C22 C 0.3082(2) 0.4364(2) 0.02562(13)
H15 H 0.3293 0.4120 -0.0166
C23 C 0.1893(3) 0.4424(2) 0.03944(15)
H16 H 0.1294 0.4228 0.0065
C24 C 0.1582(2) 0.4772(3) 0.10185(17)
H17 H 0.0771 0.4812 0.1111
C25 C 0.2463(2) 0.5063(2) 0.15093(14)
H18 H 0.2244 0.5294 0.1933
C26 C 0.4566(2) 0.51472(19) 0.25548(12)
H19 H 0.3908 0.4762 0.2678
C27 C 0.5425(2) 0.5491(2) 0.31085(13)
C28 C 0.6533(4) 0.6905(3) 0.35900(18)
H20 H 0.6355 0.7628 0.3644
H21 H 0.6416 0.6566 0.4022
C29 C 0.7773(4) 0.6791(4) 0.3429(2)
H22 H 0.8005 0.6083 0.3474
H23 H 0.8281 0.7199 0.3739
H24 H 0.7861 0.7013 0.2968
C30 C 0.7442(2) 0.45669(19) 0.18795(10)
C31 C 0.6803(2) 0.3661(2) 0.18085(13)
H25 H 0.5993 0.3681 0.1649
C32 C 0.7329(3) 0.2733(2) 0.19670(15)
H26 H 0.6867 0.2137 0.1919
C33 C 0.8505(3) 0.2668(3) 0.21913(16)
H27 H 0.8856 0.2035 0.2297
C34 C 0.9167(3) 0.3543(3) 0.22602(18)
H28 H 0.9981 0.3508 0.2409
C35 C 0.8644(2) 0.4486(2) 0.21118(14)
H29 H 0.9110 0.5077 0.2169
loop_
_geom_bond_atom_site_label_1
_geom_bond_atom_site_label_2
_geom_bond_site_symmetry_1
_geom_bond_site_symmetry_2
N1 C1 1_555 1_555
O1 C12 1_555 1_555
O2 C27 1_555 1_555
O3 C27 1_555 1_555
C1 C2 1_555 1_555
C2 C3 1_555 1_555
C3 H1 1_555 1_555
C4 N1 1_555 1_555
C5 C4 1_555 1_555
C6 C5 1_555 1_555
H2 C6 1_555 1_555
C7 C6 1_555 1_555
H3 C7 1_555 1_555
C8 C7 1_555 1_555
H4 C8 1_555 1_555
C9 C8 1_555 1_555
H5 C9 1_555 1_555
C10 C5 1_555 1_555
H6 C10 1_555 1_555
C11 N1 1_555 1_555
H7 C11 1_555 1_555
H8 C11 1_555 1_555
C12 C11 1_555 1_555
C13 C12 1_555 1_555
C14 C13 1_555 1_555
H9 C14 1_555 1_555
C15 C14 1_555 1_555
H10 C15 1_555 1_555
C16 C15 1_555 1_555
H11 C16 1_555 1_555
C17 C16 1_555 1_555
H12 C17 1_555 1_555
C18 C13 1_555 1_555
H13 C18 1_555 1_555
C19 C1 1_555 1_555
C20 C19 1_555 1_555
C21 C20 1_555 1_555
H14 C21 1_555 1_555
C22 C21 1_555 1_555
H15 C22 1_555 1_555
C23 C22 1_555 1_555
H16 C23 1_555 1_555
C24 C23 1_555 1_555
H17 C24 1_555 1_555
C25 C20 1_555 1_555
H18 C25 1_555 1_555
C26 C19 1_555 1_555
H19 C26 1_555 1_555
C27 C26 1_555 1_555
C28 O3 1_555 1_555
H20 C28 1_555 1_555
H21 C28 1_555 1_555
C29 C28 1_555 1_555
H22 C29 1_555 1_555
H23 C29 1_555 1_555
H24 C29 1_555 1_555
C30 C2 1_555 1_555
C31 C30 1_555 1_555
H25 C31 1_555 1_555
C32 C31 1_555 1_555
H26 C32 1_555 1_555
C33 C32 1_555 1_555
H27 C33 1_555 1_555
C34 C33 1_555 1_555
H28 C34 1_555 1_555
C35 C30 1_555 1_555
H29 C35 1_555 1_555
C3 C4 1_555 1_555
C9 C10 1_555 1_555
C17 C18 1_555 1_555
C24 C25 1_555 1_555
C34 C35 1_555 1_555

#END
