
#######################################################################
#
#                 Cambridge Crystallographic Data Centre
#                                CCDC 
#
#######################################################################
#
# If this CIF has been generated from an entry in the Cambridge 
# Structural Database, then it will include bibliographic, chemical, 
# crystal, experimental, refinement or atomic coordinate data resulting 
# from the CCDC's data processing and validation procedures.
#
#######################################################################

data_ILOSEJ
_chemical_formula_moiety         'C42 H33 N1 O2'
_chemical_name_systematic        
8-(4-methoxyphenyl)-2-(1-(4-methoxyphenyl)vinyl)-1,3,6-triphenylindolizine
_symmetry_cell_setting           orthorhombic
_symmetry_space_group_name_H-M   'P 21 21 21'
_symmetry_Int_Tables_number      19
_space_group_name_Hall           'P 2ac 2ab'
loop_
_symmetry_equiv_pos_site_id
_symmetry_equiv_pos_as_xyz
1 x,y,z
2 1/2-x,-y,1/2+z
3 -x,1/2+y,1/2-z
4 1/2+x,1/2-y,-z
_cell_length_a                   6.3888(11)
_cell_length_b                   21.936(4)
_cell_length_c                   22.578(4)
_cell_angle_alpha                90
_cell_angle_beta                 90
_cell_angle_gamma                90
_cell_volume                     3164.19
_exptl_crystal_colour            green
_exptl_crystal_description       prismatic
_cell_formula_units_Z            4
loop_
_atom_site_label
_atom_site_type_symbol
_atom_site_fract_x
_atom_site_fract_y
_atom_site_fract_z
N1 N 0.6666(4) 0.50537(11) 0.61516(10)
O1 O 0.8528(7) 0.26747(14) 0.88759(15)
O2 O 0.6813(4) 0.76197(10) 0.85419(10)
C1 C 0.5251(5) 0.51682(14) 0.57076(13)
H1 H 0.5214 0.4918 0.5375
C2 C 0.3911(5) 0.56431(15) 0.57508(14)
C3 C 0.4085(5) 0.60419(15) 0.62442(14)
H2 H 0.3205 0.6379 0.6266
C4 C 0.5498(5) 0.59474(14) 0.66865(14)
C5 C 0.6751(5) 0.54049(13) 0.66715(13)
C6 C 0.8196(5) 0.51291(13) 0.70453(13)
C7 C 0.9060(5) 0.46313(14) 0.67339(13)
C8 C 0.8101(5) 0.45865(13) 0.61885(13)
C9 C 0.8352(5) 0.41346(13) 0.57063(13)
C10 C 0.6950(6) 0.36747(17) 0.56225(17)
H3 H 0.5803 0.3642 0.5874
C11 C 0.7200(7) 0.32537(18) 0.51699(19)
H4 H 0.6226 0.2943 0.5119
C12 C 0.8874(7) 0.32971(18) 0.48008(16)
H5 H 0.9055 0.3015 0.4498
C13 C 1.0269(7) 0.37505(18) 0.48760(16)
H6 H 1.1417 0.3780 0.4624
C14 C 1.0006(6) 0.41712(16) 0.53236(15)
H7 H 1.0971 0.4486 0.5366
C15 C 1.0683(5) 0.42116(15) 0.69672(13)
C16 C 1.2546(6) 0.41907(19) 0.67224(17)
H8 H 1.2854 0.4440 0.6401
H9 H 1.3557 0.3927 0.6871
C17 C 1.0128(6) 0.38210(14) 0.74799(15)
C18 C 1.1595(7) 0.36555(18) 0.78951(17)
H10 H 1.2952 0.3804 0.7858
C19 C 1.1136(9) 0.3280(2) 0.83618(19)
H11 H 1.2168 0.3179 0.8635
C20 C 0.9166(9) 0.30542(19) 0.84240(19)
C21 C 0.7653(8) 0.3206(2) 0.8019(2)
H12 H 0.6306 0.3050 0.8058
C22 C 0.8129(6) 0.35897(18) 0.75542(17)
H13 H 0.7087 0.3695 0.7286
C23 C 0.9989(15) 0.2580(3) 0.9344(3)
H14 H 1.0392 0.2967 0.9508
H15 H 1.1205 0.2376 0.9192
H16 H 0.9355 0.2335 0.9647
C24 C 0.2309(5) 0.57473(14) 0.52853(15)
C25 C 0.0347(6) 0.59666(16) 0.54340(16)
H17 H 0.0051 0.6060 0.5827
C26 C -0.1165(7) 0.60479(17) 0.5012(2)
H18 H -0.2464 0.6205 0.5118
C27 C -0.0770(8) 0.5899(2) 0.4432(2)
H19 H -0.1806 0.5947 0.4147
C28 C 0.1149(8) 0.56799(19) 0.42767(17)
H20 H 0.1418 0.5578 0.3884
C29 C 0.2692(6) 0.56087(16) 0.46964(15)
H21 H 0.4005 0.5466 0.4584
C30 C 0.5845(5) 0.64052(13) 0.71610(14)
C31 C 0.7828(6) 0.66249(15) 0.72766(15)
H22 H 0.8941 0.6492 0.7045
C32 C 0.8208(6) 0.70340(15) 0.77240(15)
H23 H 0.9559 0.7177 0.7789
C33 C 0.6600(6) 0.72313(14) 0.80725(14)
C34 C 0.4605(6) 0.70385(16) 0.79523(16)
H24 H 0.3495 0.7183 0.8178
C35 C 0.4229(5) 0.66299(15) 0.74976(16)
H25 H 0.2865 0.6506 0.7419
C36 C 0.8881(7) 0.77204(17) 0.87564(17)
H26 H 0.9673 0.7940 0.8465
H27 H 0.9542 0.7335 0.8833
H28 H 0.8821 0.7954 0.9116
C37 C 0.8688(5) 0.52948(14) 0.76623(13)
C38 C 1.0718(5) 0.54033(16) 0.78414(15)
H29 H 1.1806 0.5362 0.7571
C39 C 1.1155(6) 0.55723(18) 0.84175(16)
H30 H 1.2531 0.5646 0.8532
C40 C 0.9580(7) 0.56306(18) 0.88175(17)
H31 H 0.9874 0.5756 0.9202
C41 C 0.7562(7) 0.55052(18) 0.86552(16)
H32 H 0.6491 0.5536 0.8933
C42 C 0.7115(6) 0.53347(16) 0.80839(15)
H33 H 0.5742 0.5245 0.7979
loop_
_geom_bond_atom_site_label_1
_geom_bond_atom_site_label_2
_geom_bond_site_symmetry_1
_geom_bond_site_symmetry_2
N1 C1 1_555 1_555
O1 C20 1_555 1_555
O2 C33 1_555 1_555
C1 H1 1_555 1_555
C2 C1 1_555 1_555
C3 C2 1_555 1_555
H2 C3 1_555 1_555
C4 C3 1_555 1_555
C5 N1 1_555 1_555
C6 C5 1_555 1_555
C7 C6 1_555 1_555
C8 N1 1_555 1_555
C9 C8 1_555 1_555
C10 C9 1_555 1_555
H3 C10 1_555 1_555
C11 C10 1_555 1_555
H4 C11 1_555 1_555
C12 C11 1_555 1_555
H5 C12 1_555 1_555
C13 C12 1_555 1_555
H6 C13 1_555 1_555
C14 C9 1_555 1_555
H7 C14 1_555 1_555
C15 C7 1_555 1_555
C16 C15 1_555 1_555
H8 C16 1_555 1_555
H9 C16 1_555 1_555
C17 C15 1_555 1_555
C18 C17 1_555 1_555
H10 C18 1_555 1_555
C19 C18 1_555 1_555
H11 C19 1_555 1_555
C20 C19 1_555 1_555
C21 C20 1_555 1_555
H12 C21 1_555 1_555
C22 C17 1_555 1_555
H13 C22 1_555 1_555
C23 O1 1_555 1_555
H14 C23 1_555 1_555
H15 C23 1_555 1_555
H16 C23 1_555 1_555
C24 C2 1_555 1_555
C25 C24 1_555 1_555
H17 C25 1_555 1_555
C26 C25 1_555 1_555
H18 C26 1_555 1_555
C27 C26 1_555 1_555
H19 C27 1_555 1_555
C28 C27 1_555 1_555
H20 C28 1_555 1_555
C29 C24 1_555 1_555
H21 C29 1_555 1_555
C30 C4 1_555 1_555
C31 C30 1_555 1_555
H22 C31 1_555 1_555
C32 C31 1_555 1_555
H23 C32 1_555 1_555
C33 C32 1_555 1_555
C34 C33 1_555 1_555
H24 C34 1_555 1_555
C35 C30 1_555 1_555
H25 C35 1_555 1_555
C36 O2 1_555 1_555
H26 C36 1_555 1_555
H27 C36 1_555 1_555
H28 C36 1_555 1_555
C37 C6 1_555 1_555
C38 C37 1_555 1_555
H29 C38 1_555 1_555
C39 C38 1_555 1_555
H30 C39 1_555 1_555
C40 C39 1_555 1_555
H31 C40 1_555 1_555
C41 C40 1_555 1_555
H32 C41 1_555 1_555
C42 C37 1_555 1_555
H33 C42 1_555 1_555
C4 C5 1_555 1_555
C7 C8 1_555 1_555
C13 C14 1_555 1_555
C21 C22 1_555 1_555
C28 C29 1_555 1_555
C34 C35 1_555 1_555
C41 C42 1_555 1_555

#END
