
#######################################################################
#
#                 Cambridge Crystallographic Data Centre
#                                CCDC 
#
#######################################################################
#
# If this CIF has been generated from an entry in the Cambridge 
# Structural Database, then it will include bibliographic, chemical, 
# crystal, experimental, refinement or atomic coordinate data resulting 
# from the CCDC's data processing and validation procedures.
#
#######################################################################

data_ILOZOA
_chemical_formula_moiety         'C34 H22 S4,C12 H2 F2 N4'
_chemical_name_systematic        
"2,2'-(2,5-Difluorocyclohexa-2,5-diene-1,4-diylidene)dimalononitrile 2,13-diphenyl-23,24,25,26-tetrathiapentacyclo[18.2.1.1^3,6^.1^9,12^.1^14,17^]hexacosa-1,3,5,7,9,11,13,15,17,19,21-undecaene"
_symmetry_cell_setting           triclinic
_symmetry_space_group_name_H-M   'P -1'
_symmetry_Int_Tables_number      2
_space_group_name_Hall           '-P 1'
loop_
_symmetry_equiv_pos_site_id
_symmetry_equiv_pos_as_xyz
1 x,y,z
2 -x,-y,-z
_cell_length_a                   7.9146(16)
_cell_length_b                   10.340(2)
_cell_length_c                   11.030(2)
_cell_angle_alpha                89.02(3)
_cell_angle_beta                 80.45(3)
_cell_angle_gamma                82.36(3)
_cell_volume                     882.239
_exptl_crystal_colour            black
_exptl_crystal_description       rod
_cell_formula_units_Z            1
loop_
_atom_site_label
_atom_site_type_symbol
_atom_site_fract_x
_atom_site_fract_y
_atom_site_fract_z
S1 S 0.08318(8) 0.79398(6) 0.47977(5)
S2 S -0.08725(8) 1.01115(6) 0.32219(5)
C1 C 0.1792(3) 0.6879(2) 0.5820(2)
C2 C 0.2091(3) 0.5606(2) 0.5322(2)
H1 H 0.2615 0.4877 0.5724
C3 C 0.1561(3) 0.5513(2) 0.4206(2)
H2 H 0.1697 0.4712 0.3768
C4 C 0.0802(3) 0.6693(2) 0.3763(2)
C5 C 0.0092(3) 0.6751(2) 0.2670(2)
H3 H 0.0192 0.5912 0.2307
C6 C -0.0708(3) 0.7701(2) 0.1988(2)
H4 H -0.1022 0.7351 0.1279
C7 C -0.1174(3) 0.9065(2) 0.2083(2)
C8 C -0.1989(3) 0.9794(2) 0.1200(2)
H5 H -0.2254 0.9409 0.0491
C9 C -0.2367(3) 1.1107(2) 0.1447(2)
H6 H -0.2921 1.1705 0.0927
C10 C -0.1862(3) 1.1490(2) 0.2536(2)
C11 C -0.2140(3) 1.2759(2) 0.3036(2)
C12 C -0.2796(3) 1.3833(2) 0.2238(2)
C13 C -0.4348(3) 1.4637(2) 0.2607(2)
H7 H -0.5046 1.4481 0.3369
C14 C -0.4886(3) 1.5658(2) 0.1874(2)
H8 H -0.5935 1.6211 0.2145
C15 C -0.3899(3) 1.5879(2) 0.0747(2)
H9 H -0.4271 1.6579 0.0244
C16 C -0.2372(3) 1.5074(2) 0.0361(2)
H10 H -0.1698 1.5216 -0.0415
C17 C -0.1816(3) 1.4060(2) 0.1100(2)
H11 H -0.0761 1.3516 0.0829
S1A S -0.08318(8) 1.20602(6) 0.52023(5)
S2A S 0.08725(8) 0.98885(6) 0.67781(5)
C1A C -0.1792(3) 1.3121(2) 0.4180(2)
C2A C -0.2091(3) 1.4394(2) 0.4678(2)
H1A H -0.2615 1.5123 0.4276
C3A C -0.1561(3) 1.4487(2) 0.5794(2)
H2A H -0.1697 1.5288 0.6232
C4A C -0.0802(3) 1.3307(2) 0.6237(2)
C5A C -0.0092(3) 1.3249(2) 0.7330(2)
H3A H -0.0192 1.4088 0.7693
C6A C 0.0708(3) 1.2299(2) 0.8012(2)
H4A H 0.1022 1.2649 0.8721
C7A C 0.1174(3) 1.0935(2) 0.7917(2)
C8A C 0.1989(3) 1.0206(2) 0.8800(2)
H5A H 0.2254 1.0591 0.9509
C9A C 0.2367(3) 0.8893(2) 0.8553(2)
H6A H 0.2921 0.8295 0.9073
C10A C 0.1862(3) 0.8510(2) 0.7464(2)
C11A C 0.2140(3) 0.7241(2) 0.6964(2)
C12A C 0.2796(3) 0.6167(2) 0.7762(2)
C13A C 0.4348(3) 0.5363(2) 0.7393(2)
H7A H 0.5046 0.5519 0.6631
C14A C 0.4886(3) 0.4342(2) 0.8126(2)
H8A H 0.5935 0.3789 0.7855
C15A C 0.3899(3) 0.4121(2) 0.9253(2)
H9A H 0.4271 0.3421 0.9756
C16A C 0.2372(3) 0.4926(2) 0.9639(2)
H10A H 0.1698 0.4784 1.0415
C17A C 0.1816(3) 0.5940(2) 0.8900(2)
H11A H 0.0761 0.6484 0.9171
F1 F 0.36274(19) 0.24944(13) 0.46270(13)
N1 N 0.6458(3) 0.1239(2) 0.8723(2)
N2 N 0.7828(3) -0.2805(2) 0.78502(19)
C18 C 0.7210(3) -0.1840(2) 0.7497(2)
C19 C 0.6472(3) -0.0574(2) 0.7142(2)
C20 C 0.6470(3) 0.0439(2) 0.8014(2)
C21 C 0.5756(3) -0.0294(2) 0.6085(2)
C22 C 0.5032(3) 0.1002(2) 0.5829(2)
H12 H 0.5046 0.1674 0.6375
C23 C 0.4329(3) 0.1257(2) 0.4812(2)
F1A F 0.63726(19) -0.24944(13) 0.53730(13)
N1A N 0.3542(3) -0.1239(2) 0.1277(2)
N2A N 0.2172(3) 0.2805(2) 0.21498(19)
C18A C 0.2790(3) 0.1840(2) 0.2503(2)
C19A C 0.3528(3) 0.0574(2) 0.2858(2)
C20A C 0.3530(3) -0.0439(2) 0.1986(2)
C21A C 0.4244(3) 0.0294(2) 0.3915(2)
C22A C 0.4968(3) -0.1002(2) 0.4171(2)
H12A H 0.4954 -0.1674 0.3625
C23A C 0.5671(3) -0.1257(2) 0.5188(2)
H13? H 0.3871 0.2114 0.4679
F2? F 0.497(2) 0.2124(14) 0.6418(16)
loop_
_geom_bond_atom_site_label_1
_geom_bond_atom_site_label_2
_geom_bond_site_symmetry_1
_geom_bond_site_symmetry_2
S1 C1 1_555 1_555
S2 C7 1_555 1_555
C1 C2 1_555 1_555
C2 H1 1_555 1_555
C3 C2 1_555 1_555
H2 C3 1_555 1_555
C4 S1 1_555 1_555
C5 C4 1_555 1_555
H3 C5 1_555 1_555
C6 C5 1_555 1_555
H4 C6 1_555 1_555
C7 C6 1_555 1_555
C8 C7 1_555 1_555
H5 C8 1_555 1_555
C9 C8 1_555 1_555
H6 C9 1_555 1_555
C10 S2 1_555 1_555
C11 C10 1_555 1_555
C12 C11 1_555 1_555
C13 C12 1_555 1_555
H7 C13 1_555 1_555
C14 C13 1_555 1_555
H8 C14 1_555 1_555
C15 C14 1_555 1_555
H9 C15 1_555 1_555
C16 C15 1_555 1_555
H10 C16 1_555 1_555
C17 C12 1_555 1_555
H11 C17 1_555 1_555
F1 C23 1_555 1_555
N1 C20 1_555 1_555
N2 C18 1_555 1_555
C18 C19 1_555 1_555
C19 C20 1_555 1_555
C21 C19 1_555 1_555
C22 C21 1_555 1_555
H12 C22 1_555 1_555
C23 C22 1_555 1_555
S1A C1A 1_555 1_555
S2A C7A 1_555 1_555
C1A C11 1_555 1_555
C2A C1A 1_555 1_555
H1A C2A 1_555 1_555
C3A C2A 1_555 1_555
H2A C3A 1_555 1_555
C4A S1A 1_555 1_555
C5A C4A 1_555 1_555
H3A C5A 1_555 1_555
C6A C5A 1_555 1_555
H4A C6A 1_555 1_555
C7A C6A 1_555 1_555
C8A C7A 1_555 1_555
H5A C8A 1_555 1_555
C9A C8A 1_555 1_555
H6A C9A 1_555 1_555
C10A S2A 1_555 1_555
C11A C1 1_555 1_555
C12A C11A 1_555 1_555
C13A C12A 1_555 1_555
H7A C13A 1_555 1_555
C14A C13A 1_555 1_555
H8A C14A 1_555 1_555
C15A C14A 1_555 1_555
H9A C15A 1_555 1_555
C16A C15A 1_555 1_555
H10A C16A 1_555 1_555
C17A C12A 1_555 1_555
H11A C17A 1_555 1_555
F1A C23A 1_555 1_555
N1A C20A 1_555 1_555
N2A C18A 1_555 1_555
C18A C19A 1_555 1_555
C19A C20A 1_555 1_555
C21A C23 1_555 1_555
C22A C21A 1_555 1_555
H12A C22A 1_555 1_555
C23A C21 1_555 1_555
C3 C4 1_555 1_555
C9 C10 1_555 1_555
C16 C17 1_555 1_555
C3A C4A 1_555 1_555
C9A C10A 1_555 1_555
C10A C11A 1_555 1_555
C16A C17A 1_555 1_555
C19A C21A 1_555 1_555
C22A C23A 1_555 1_555

#END
