
#######################################################################
#
#                 Cambridge Crystallographic Data Centre
#                                CCDC 
#
#######################################################################
#
# If this CIF has been generated from an entry in the Cambridge 
# Structural Database, then it will include bibliographic, chemical, 
# crystal, experimental, refinement or atomic coordinate data resulting 
# from the CCDC's data processing and validation procedures.
#
#######################################################################

data_ILUBEY
_chemical_formula_moiety         'C24 H24 B1 F10 N1'
_chemical_name_systematic        
1-(3-(bis(Pentafluorophenyl)boryl)propyl)-2,2,6,6-tetramethylpiperidine
_symmetry_cell_setting           triclinic
_symmetry_space_group_name_H-M   'P -1'
_symmetry_Int_Tables_number      2
_space_group_name_Hall           '-P 1'
loop_
_symmetry_equiv_pos_site_id
_symmetry_equiv_pos_as_xyz
1 x,y,z
2 -x,-y,-z
_cell_length_a                   6.0559(8)
_cell_length_b                   12.2110(13)
_cell_length_c                   16.663(2)
_cell_angle_alpha                104.660(3)
_cell_angle_beta                 95.819(4)
_cell_angle_gamma                103.157(3)
_cell_volume                     1144.15
_exptl_crystal_colour            yellow
_exptl_crystal_description       needle
_cell_formula_units_Z            2
loop_
_atom_site_label
_atom_site_type_symbol
_atom_site_fract_x
_atom_site_fract_y
_atom_site_fract_z
B1 B 0.5311(7) 0.3656(3) 0.6130(2)
C1 C 0.5335(6) 0.6193(3) 0.74396(19)
H1 H 0.4428 0.6521 0.7078
H2 H 0.4308 0.5472 0.750
N1 N 0.6157(5) 0.7051(2) 0.82740(16)
C2 C 0.7311(6) 0.5879(3) 0.70158(19)
H3 H 0.8264 0.5589 0.7391
H4 H 0.8294 0.6594 0.693
C3 C 0.6455(6) 0.4936(3) 0.61618(19)
H5 H 0.7787 0.4926 0.5864
H6 H 0.534 0.5201 0.583
C4 C 0.5937(6) 0.8257(3) 0.8309(2)
C5 C 0.7224(6) 0.9093(3) 0.9164(2)
H7 H 0.8893 0.9167 0.9187
H8 H 0.6975 0.9879 0.9214
C6 C 0.6467(6) 0.8689(3) 0.9908(2)
H9 H 0.4824 0.8662 0.9917
H10 H 0.7382 0.9245 1.0441
C7 C 0.6826(6) 0.7475(3) 0.9822(2)
H11 H 0.6289 0.7198 1.0295
H12 H 0.8492 0.7531 0.9864
C8 C 0.5555(6) 0.6569(3) 0.8989(2)
C9 C 0.7183(6) 0.8670(3) 0.7637(2)
H13 H 0.8748 0.8572 0.77
H14 H 0.7253 0.9499 0.7707
H15 H 0.6343 0.8201 0.7076
C10 C 0.3441(6) 0.8344(3) 0.8154(2)
H16 H 0.2575 0.7713 0.7657
H17 H 0.3438 0.9105 0.8061
H18 H 0.2722 0.8271 0.8645
C11 C 0.6462(6) 0.5485(3) 0.8927(2)
H19 H 0.5565 0.4846 0.8439
H20 H 0.632 0.5241 0.944
H21 H 0.8083 0.5673 0.8861
C12 C 0.2952(6) 0.6210(3) 0.9010(2)
H22 H 0.2412 0.6915 0.9199
H23 H 0.267 0.5732 0.94
H24 H 0.2123 0.5754 0.8445
C13 C 0.3360(6) 0.2838(3) 0.5380(2)
C14 C 0.1469(6) 0.3183(3) 0.5092(2)
F1 F 0.1302(3) 0.42861(15) 0.54394(11)
C15 C -0.0348(6) 0.2450(3) 0.4490(2)
F2 F -0.2160(3) 0.28309(18) 0.42567(12)
C16 C -0.0288(6) 0.1313(3) 0.4122(2)
F3 F -0.2052(4) 0.05883(18) 0.35373(13)
C17 C 0.1578(6) 0.0934(3) 0.4365(2)
F4 F 0.1666(4) -0.01684(16) 0.39926(13)
C18 C 0.3325(6) 0.1688(3) 0.4981(2)
F5 F 0.5112(3) 0.12712(15) 0.52017(12)
C19 C 0.6068(6) 0.3097(3) 0.68396(19)
C20 C 0.4467(6) 0.2365(3) 0.7145(2)
F6 F 0.2227(3) 0.20446(15) 0.67888(11)
C21 C 0.5017(6) 0.1963(3) 0.7821(2)
F7 F 0.3364(3) 0.12790(15) 0.80924(11)
C22 C 0.7253(6) 0.2274(3) 0.8213(2)
F8 F 0.7835(3) 0.19015(16) 0.88747(11)
C23 C 0.8934(6) 0.2967(3) 0.7926(2)
F9 F 1.1139(3) 0.32618(16) 0.83076(11)
C24 C 0.8316(6) 0.3355(3) 0.7251(2)
F10 F 1.0042(3) 0.40036(15) 0.69770(11)
loop_
_geom_bond_atom_site_label_1
_geom_bond_atom_site_label_2
_geom_bond_site_symmetry_1
_geom_bond_site_symmetry_2
B1 C3 1_555 1_555
C1 H1 1_555 1_555
H2 C1 1_555 1_555
N1 C1 1_555 1_555
C2 C1 1_555 1_555
H3 C2 1_555 1_555
H4 C2 1_555 1_555
C3 C2 1_555 1_555
H5 C3 1_555 1_555
H6 C3 1_555 1_555
C4 N1 1_555 1_555
C5 C4 1_555 1_555
H7 C5 1_555 1_555
H8 C5 1_555 1_555
C6 C5 1_555 1_555
H9 C6 1_555 1_555
H10 C6 1_555 1_555
C7 C6 1_555 1_555
H11 C7 1_555 1_555
H12 C7 1_555 1_555
C8 N1 1_555 1_555
C9 C4 1_555 1_555
H13 C9 1_555 1_555
H14 C9 1_555 1_555
H15 C9 1_555 1_555
C10 C4 1_555 1_555
H16 C10 1_555 1_555
H17 C10 1_555 1_555
H18 C10 1_555 1_555
C11 C8 1_555 1_555
H19 C11 1_555 1_555
H20 C11 1_555 1_555
H21 C11 1_555 1_555
C12 C8 1_555 1_555
H22 C12 1_555 1_555
H23 C12 1_555 1_555
H24 C12 1_555 1_555
C13 B1 1_555 1_555
C14 C13 1_555 1_555
F1 C14 1_555 1_555
C15 C14 1_555 1_555
F2 C15 1_555 1_555
C16 C15 1_555 1_555
F3 C16 1_555 1_555
C17 C16 1_555 1_555
F4 C17 1_555 1_555
C18 C13 1_555 1_555
F5 C18 1_555 1_555
C19 B1 1_555 1_555
C20 C19 1_555 1_555
F6 C20 1_555 1_555
C21 C20 1_555 1_555
F7 C21 1_555 1_555
C22 C21 1_555 1_555
F8 C22 1_555 1_555
C23 C22 1_555 1_555
F9 C23 1_555 1_555
C24 C19 1_555 1_555
F10 C24 1_555 1_555
C7 C8 1_555 1_555
C17 C18 1_555 1_555
C23 C24 1_555 1_555

#END
