
#######################################################################
#
#                 Cambridge Crystallographic Data Centre
#                                CCDC 
#
#######################################################################
#
# If this CIF has been generated from an entry in the Cambridge 
# Structural Database, then it will include bibliographic, chemical, 
# crystal, experimental, refinement or atomic coordinate data resulting 
# from the CCDC's data processing and validation procedures.
#
#######################################################################

data_ILUBAU
_chemical_formula_moiety         'C34 H22 S4,C12 F4 N4'
_chemical_name_systematic        
"2,2'-(2,3,5,6-Tetrafluorocyclohexa-2,5-diene-1,4-diylidene)dimalononitrile 2,13-diphenyl-23,24,25,26-tetrathiapentacyclo[18.2.1.1^3,6^.1^9,12^.1^14,17^]hexacosa-1,3,5,7,9,11,13,15,17,19,21-undecaene"
_symmetry_cell_setting           triclinic
_symmetry_space_group_name_H-M   'P -1'
_symmetry_Int_Tables_number      2
_space_group_name_Hall           '-P 1'
loop_
_symmetry_equiv_pos_site_id
_symmetry_equiv_pos_as_xyz
1 x,y,z
2 -x,-y,-z
_cell_length_a                   7.9463(16)
_cell_length_b                   10.099(2)
_cell_length_c                   11.251(2)
_cell_angle_alpha                88.15(3)
_cell_angle_beta                 81.09(3)
_cell_angle_gamma                82.60(3)
_cell_volume                     884.495
_exptl_crystal_colour            black
_exptl_crystal_description       rod
_cell_formula_units_Z            1
loop_
_atom_site_label
_atom_site_type_symbol
_atom_site_fract_x
_atom_site_fract_y
_atom_site_fract_z
S1 S 0.40836(11) 0.20893(9) 0.01663(7)
S2 S 0.58320(11) -0.00641(9) 0.17655(7)
C1 C 0.3154(4) 0.3154(3) -0.0869(3)
C2 C 0.2819(4) 0.4462(4) -0.0427(3)
H1 H 0.2309 0.5195 -0.0854
C3 C 0.3302(4) 0.4579(4) 0.0684(3)
H2 H 0.3141 0.5401 0.1098
C4 C 0.4054(4) 0.3380(3) 0.1155(3)
C5 C 0.4740(5) 0.3360(4) 0.2251(3)
H3 H 0.4586 0.4220 0.2598
C6 C 0.5565(5) 0.2417(4) 0.2935(3)
H4 H 0.5854 0.2789 0.3630
C7 C 0.6097(4) 0.1017(4) 0.2860(3)
C8 C 0.6935(5) 0.0309(4) 0.3735(3)
H5 H 0.7198 0.0724 0.4418
C9 C 0.7350(5) -0.1038(4) 0.3528(3)
H6 H 0.7919 -0.1635 0.4050
C10 C 0.6844(4) -0.1443(3) 0.2463(3)
C11 C 0.7150(4) -0.2753(3) 0.2008(3)
C12 C 0.7797(4) -0.3832(3) 0.2821(3)
C13 C 0.6813(5) -0.4051(4) 0.3940(3)
H7 H 0.5770 -0.3489 0.4185
C14 C 0.7350(4) -0.5079(4) 0.4689(3)
H8 H 0.6674 -0.5222 0.5445
C15 C 0.8881(5) -0.5906(4) 0.4341(3)
H9 H 0.9242 -0.6617 0.4854
C16 C 0.9868(4) -0.5690(4) 0.3252(3)
H10 H 1.0914 -0.6250 0.3015
C17 C 0.9342(4) -0.4656(4) 0.2501(3)
H11 H 1.0042 -0.4506 0.1757
S1A S 0.59164(11) -0.20893(9) -0.01663(7)
S2A S 0.41680(11) 0.00641(9) -0.17655(7)
C1A C 0.6846(4) -0.3154(3) 0.0869(3)
C2A C 0.7181(4) -0.4462(4) 0.0427(3)
H1A H 0.7691 -0.5195 0.0854
C3A C 0.6698(4) -0.4579(4) -0.0684(3)
H2A H 0.6859 -0.5401 -0.1098
C4A C 0.5946(4) -0.3380(3) -0.1155(3)
C5A C 0.5260(5) -0.3360(4) -0.2251(3)
H3A H 0.5414 -0.4220 -0.2598
C6A C 0.4435(5) -0.2417(4) -0.2935(3)
H4A H 0.4146 -0.2789 -0.3630
C7A C 0.3903(4) -0.1017(4) -0.2860(3)
C8A C 0.3065(5) -0.0309(4) -0.3735(3)
H5A H 0.2802 -0.0724 -0.4418
C9A C 0.2650(5) 0.1038(4) -0.3528(3)
H6A H 0.2081 0.1635 -0.4050
C10A C 0.3156(4) 0.1443(3) -0.2463(3)
C11A C 0.2850(4) 0.2753(3) -0.2008(3)
C12A C 0.2203(4) 0.3832(3) -0.2821(3)
C13A C 0.3187(5) 0.4051(4) -0.3940(3)
H7A H 0.4230 0.3489 -0.4185
C14A C 0.2650(4) 0.5079(4) -0.4689(3)
H8A H 0.3326 0.5222 -0.5445
C15A C 0.1119(5) 0.5906(4) -0.4341(3)
H9A H 0.0758 0.6617 -0.4854
C16A C 0.0132(4) 0.5690(4) -0.3252(3)
H10A H -0.0914 0.6250 -0.3015
C17A C 0.0658(4) 0.4656(4) -0.2501(3)
H11A H -0.0042 0.4506 -0.1757
F1 F 0.0045(3) 0.7974(2) -0.15275(17)
F2 F 0.1385(3) 0.7465(2) 0.04249(17)
N1 N -0.1521(5) 0.8875(3) -0.3814(3)
N2 N -0.2920(4) 1.2860(3) -0.2793(3)
C18 C 0.0702(4) 0.8733(3) 0.0239(3)
C19 C 0.0002(4) 0.9000(3) -0.0784(3)
C20 C -0.0747(4) 1.0288(3) -0.1099(3)
C21 C -0.2246(4) 1.1865(4) -0.2481(3)
C22 C -0.1457(4) 1.0580(3) -0.2172(3)
C23 C -0.1461(5) 0.9593(4) -0.3060(3)
F1A F -0.0045(3) 1.2026(2) 0.15275(17)
F2A F -0.1385(3) 1.2535(2) -0.04249(17)
N1A N 0.1521(5) 1.1125(3) 0.3814(3)
N2A N 0.2920(4) 0.7140(3) 0.2793(3)
C18A C -0.0702(4) 1.1267(3) -0.0239(3)
C19A C -0.0002(4) 1.1000(3) 0.0784(3)
C20A C 0.0747(4) 0.9712(3) 0.1099(3)
C21A C 0.2246(4) 0.8135(4) 0.2481(3)
C22A C 0.1457(4) 0.9420(3) 0.2172(3)
C23A C 0.1461(5) 1.0407(4) 0.3060(3)
loop_
_geom_bond_atom_site_label_1
_geom_bond_atom_site_label_2
_geom_bond_site_symmetry_1
_geom_bond_site_symmetry_2
S1 C1 1_555 1_555
S2 C7 1_555 1_555
C1 C2 1_555 1_555
C2 H1 1_555 1_555
C3 C2 1_555 1_555
H2 C3 1_555 1_555
C4 S1 1_555 1_555
C5 C4 1_555 1_555
H3 C5 1_555 1_555
C6 C5 1_555 1_555
H4 C6 1_555 1_555
C7 C6 1_555 1_555
C8 C7 1_555 1_555
H5 C8 1_555 1_555
C9 C8 1_555 1_555
H6 C9 1_555 1_555
C10 S2 1_555 1_555
C11 C10 1_555 1_555
C12 C11 1_555 1_555
C13 C12 1_555 1_555
H7 C13 1_555 1_555
C14 C13 1_555 1_555
H8 C14 1_555 1_555
C15 C14 1_555 1_555
H9 C15 1_555 1_555
C16 C15 1_555 1_555
H10 C16 1_555 1_555
C17 C12 1_555 1_555
H11 C17 1_555 1_555
F1 C19 1_555 1_555
F2 C18 1_555 1_555
N1 C23 1_555 1_555
N2 C21 1_555 1_555
C18 C19 1_555 1_555
C19 C20 1_555 1_555
C20 C22 1_555 1_555
C21 C22 1_555 1_555
C22 C23 1_555 1_555
S1A C1A 1_555 1_555
S2A C7A 1_555 1_555
C1A C11 1_555 1_555
C2A C1A 1_555 1_555
H1A C2A 1_555 1_555
C3A C2A 1_555 1_555
H2A C3A 1_555 1_555
C4A S1A 1_555 1_555
C5A C4A 1_555 1_555
H3A C5A 1_555 1_555
C6A C5A 1_555 1_555
H4A C6A 1_555 1_555
C7A C6A 1_555 1_555
C8A C7A 1_555 1_555
H5A C8A 1_555 1_555
C9A C8A 1_555 1_555
H6A C9A 1_555 1_555
C10A S2A 1_555 1_555
C11A C1 1_555 1_555
C12A C11A 1_555 1_555
C13A C12A 1_555 1_555
H7A C13A 1_555 1_555
C14A C13A 1_555 1_555
H8A C14A 1_555 1_555
C15A C14A 1_555 1_555
H9A C15A 1_555 1_555
C16A C15A 1_555 1_555
H10A C16A 1_555 1_555
C17A C12A 1_555 1_555
H11A C17A 1_555 1_555
F1A C19A 1_555 1_555
F2A C18A 1_555 1_555
N1A C23A 1_555 1_555
N2A C21A 1_555 1_555
C18A C20 1_555 1_555
C19A C18A 1_555 1_555
C20A C18 1_555 1_555
C21A C22A 1_555 1_555
C22A C20A 1_555 1_555
C23A C22A 1_555 1_555
C3 C4 1_555 1_555
C9 C10 1_555 1_555
C16 C17 1_555 1_555
C3A C4A 1_555 1_555
C9A C10A 1_555 1_555
C10A C11A 1_555 1_555
C16A C17A 1_555 1_555
C19A C20A 1_555 1_555

#END
