
#######################################################################
#
#                 Cambridge Crystallographic Data Centre
#                                CCDC 
#
#######################################################################
#
# If this CIF has been generated from an entry in the Cambridge 
# Structural Database, then it will include bibliographic, chemical, 
# crystal, experimental, refinement or atomic coordinate data resulting 
# from the CCDC's data processing and validation procedures.
#
#######################################################################

data_ILUCAV
_chemical_formula_moiety         'C24 H26 B1 F10 N1'
_chemical_name_systematic        
Hydrido(bis(pentafluorophenyl))(3-(2,2,6,6-tetramethylpiperidinium-1-yl)propyl)borate
_symmetry_cell_setting           monoclinic
_symmetry_space_group_name_H-M   'C 2/c'
_symmetry_Int_Tables_number      15
_space_group_name_Hall           '-C 2yn'
loop_
_symmetry_equiv_pos_site_id
_symmetry_equiv_pos_as_xyz
1 x,y,z
2 -x,y,1/2-z
3 1/2+x,1/2+y,z
4 1/2-x,1/2+y,1/2-z
5 -x,-y,-z
6 x,-y,1/2+z
7 1/2-x,1/2-y,-z
8 1/2+x,1/2-y,1/2+z
_cell_length_a                   36.0335(7)
_cell_length_b                   8.0228(2)
_cell_length_c                   19.5293(5)
_cell_angle_alpha                90
_cell_angle_beta                 121.688(1)
_cell_angle_gamma                90
_cell_volume                     4804.06
_exptl_crystal_colour            colorless
_exptl_crystal_description       prism
_cell_formula_units_Z            8
loop_
_atom_site_label
_atom_site_type_symbol
_atom_site_fract_x
_atom_site_fract_y
_atom_site_fract_z
N1 N 0.13524(7) 1.0471(3) 0.33862(12)
H1 H 0.1318(8) 0.947(3) 0.3154(16)
B1 B 0.13082(9) 0.7697(4) 0.20797(17)
H2 H 0.1342(6) 0.761(2) 0.2740(11)
C1 C 0.14038(9) 1.1716(3) 0.28533(15)
H3 H 0.1710 1.2059 0.3128
H4 H 0.1231 1.2708 0.2793
C2 C 0.12677(9) 1.1081(3) 0.20163(15)
H5 H 0.1323 1.1967 0.1736
H6 H 0.0952 1.0884 0.1717
C3 C 0.14910(8) 0.9489(3) 0.19787(15)
H7 H 0.1801 0.9563 0.2399
H8 H 0.1473 0.9479 0.1460
C4 C 0.09149(9) 1.0654(4) 0.33589(17)
C5 C 0.08891(10) 0.9213(5) 0.3838(2)
H9 H 0.0623 0.9332 0.3854
H10 H 0.0867 0.8168 0.3559
C6 C 0.12775(11) 0.9104(5) 0.46937(19)
H11 H 0.1242 0.8157 0.4971
H12 H 0.1298 1.0123 0.4989
C7 C 0.16888(10) 0.8885(4) 0.46700(18)
H13 H 0.1670 0.7823 0.4406
H14 H 0.1939 0.8817 0.5224
C8 C 0.17730(8) 1.0272(3) 0.42342(15)
C9 C 0.21403(8) 0.9691(4) 0.41195(16)
H15 H 0.2391 0.9371 0.4636
H16 H 0.2222 1.0592 0.3892
H17 H 0.2042 0.8743 0.3758
C10 C 0.19001(10) 1.1906(4) 0.47000(17)
H18 H 0.1709 1.2112 0.4901
H19 H 0.1873 1.2811 0.4347
H20 H 0.2199 1.1837 0.5149
C11 C 0.08707(11) 1.2329(5) 0.36786(19)
H21 H 0.0568 1.2507 0.3513
H22 H 0.0965 1.3214 0.3465
H23 H 0.1051 1.2332 0.4261
C12 C 0.05462(9) 1.0504(5) 0.24732(18)
H24 H 0.0269 1.0393 0.2440
H25 H 0.0595 0.9530 0.2237
H26 H 0.0541 1.1493 0.2183
C13 C 0.16006(8) 0.6191(3) 0.20225(14)
F1 F 0.13041(5) 0.6715(2) 0.06381(9)
C14 C 0.15858(8) 0.5862(3) 0.13121(15)
F2 F 0.18130(6) 0.4495(2) 0.05189(10)
C15 C 0.18422(9) 0.4710(3) 0.12329(16)
F3 F 0.23825(6) 0.2635(2) 0.18144(12)
C16 C 0.21337(9) 0.3793(3) 0.18859(17)
F4 F 0.24531(5) 0.3153(2) 0.32572(10)
C17 C 0.21649(8) 0.4051(3) 0.26087(16)
F5 F 0.19611(5) 0.5425(2) 0.34018(9)
C18 C 0.19032(8) 0.5225(3) 0.26607(15)
C19 C 0.07873(8) 0.7324(3) 0.14238(15)
F6 F 0.07717(6) 0.5415(2) 0.23354(11)
C20 C 0.05586(9) 0.6225(4) 0.16177(17)
F7 F -0.00751(7) 0.4792(3) 0.13710(16)
C21 C 0.01189(11) 0.5873(4) 0.1126(2)
F8 F -0.05438(6) 0.6285(3) -0.00976(14)
C22 C -0.01147(9) 0.6620(4) 0.0391(2)
F9 F -0.01325(6) 0.8398(3) -0.05768(10)
C23 C 0.00907(9) 0.7687(4) 0.01551(18)
F10 F 0.06979(5) 0.9116(2) 0.03771(9)
C24 C 0.05290(8) 0.8018(3) 0.06669(16)
loop_
_geom_bond_atom_site_label_1
_geom_bond_atom_site_label_2
_geom_bond_site_symmetry_1
_geom_bond_site_symmetry_2
N1 H1 1_555 1_555
B1 H2 1_555 1_555
C1 N1 1_555 1_555
H3 C1 1_555 1_555
H4 C1 1_555 1_555
C2 C1 1_555 1_555
H5 C2 1_555 1_555
H6 C2 1_555 1_555
C3 B1 1_555 1_555
H7 C3 1_555 1_555
H8 C3 1_555 1_555
C4 N1 1_555 1_555
C5 C4 1_555 1_555
H9 C5 1_555 1_555
H10 C5 1_555 1_555
C6 C5 1_555 1_555
H11 C6 1_555 1_555
H12 C6 1_555 1_555
C7 C6 1_555 1_555
H13 C7 1_555 1_555
H14 C7 1_555 1_555
C8 N1 1_555 1_555
C9 C8 1_555 1_555
H15 C9 1_555 1_555
H16 C9 1_555 1_555
H17 C9 1_555 1_555
C10 C8 1_555 1_555
H18 C10 1_555 1_555
H19 C10 1_555 1_555
H20 C10 1_555 1_555
C11 C4 1_555 1_555
H21 C11 1_555 1_555
H22 C11 1_555 1_555
H23 C11 1_555 1_555
C12 C4 1_555 1_555
H24 C12 1_555 1_555
H25 C12 1_555 1_555
H26 C12 1_555 1_555
C13 B1 1_555 1_555
F1 C14 1_555 1_555
C14 C13 1_555 1_555
F2 C15 1_555 1_555
C15 C14 1_555 1_555
F3 C16 1_555 1_555
C16 C15 1_555 1_555
F4 C17 1_555 1_555
C17 C16 1_555 1_555
F5 C18 1_555 1_555
C18 C13 1_555 1_555
C19 B1 1_555 1_555
F6 C20 1_555 1_555
C20 C19 1_555 1_555
F7 C21 1_555 1_555
C21 C20 1_555 1_555
F8 C22 1_555 1_555
C22 C21 1_555 1_555
F9 C23 1_555 1_555
C23 C22 1_555 1_555
F10 C24 1_555 1_555
C24 C19 1_555 1_555
C2 C3 1_555 1_555
C7 C8 1_555 1_555
C17 C18 1_555 1_555
C23 C24 1_555 1_555

#END
