
#######################################################################
#
#                 Cambridge Crystallographic Data Centre
#                                CCDC 
#
#######################################################################
#
# If this CIF has been generated from an entry in the Cambridge 
# Structural Database, then it will include bibliographic, chemical, 
# crystal, experimental, refinement or atomic coordinate data resulting 
# from the CCDC's data processing and validation procedures.
#
#######################################################################

data_ILUDEY
_chemical_formula_moiety         'C14 H12 N2 O2'
_chemical_name_systematic        1-Benzyl-1H-pyrido(2,3-b)(1,4)oxazin-2-one
_symmetry_cell_setting           monoclinic
_symmetry_space_group_name_H-M   'P 21/n'
_symmetry_Int_Tables_number      14
_space_group_name_Hall           '-P 2yn'
loop_
_symmetry_equiv_pos_site_id
_symmetry_equiv_pos_as_xyz
1 x,y,z
2 1/2-x,1/2+y,1/2-z
3 -x,-y,-z
4 1/2+x,1/2-y,1/2+z
_cell_length_a                   9.421(3)
_cell_length_b                   5.663(2)
_cell_length_c                   21.299(8)
_cell_angle_alpha                90
_cell_angle_beta                 89.15(3)
_cell_angle_gamma                90
_cell_volume                     1136.2
_cell_formula_units_Z            4
loop_
_atom_site_label
_atom_site_type_symbol
_atom_site_fract_x
_atom_site_fract_y
_atom_site_fract_z
O1 O -0.01206(10) -0.0671(2) 0.64084(4)
O2 O 0.1561(1) 0.3702(2) 0.73301(5)
N1 N 0.0478(1) -0.2399(2) 0.54792(5)
N2 N 0.2152(1) 0.2456(2) 0.63418(5)
C1 C 0.1974(1) 0.0722(2) 0.58690(6)
C2 C 0.2858(1) 0.0526(3) 0.53475(7)
C3 C 0.2536(1) -0.1151(3) 0.48898(7)
C4 C 0.1346(2) -0.2545(3) 0.49694(7)
C5 C 0.0810(1) -0.0815(3) 0.59090(6)
C6 C 0.0533(1) 0.0079(3) 0.69797(7)
C7 C 0.1446(1) 0.2256(3) 0.69060(6)
C8 C 0.3060(1) 0.4510(2) 0.62252(7)
C9 C 0.4624(1) 0.4167(3) 0.63441(6)
C10 C 0.5544(1) 0.5982(3) 0.61595(7)
C11 C 0.6977(1) 0.5894(3) 0.62993(7)
C12 C 0.7506(1) 0.3962(3) 0.66246(7)
C13 C 0.6611(1) 0.2128(3) 0.67968(6)
C14 C 0.5173(1) 0.2222(3) 0.66569(6)
H1 H 0.3669 0.1513 0.5301
H2 H 0.3129 -0.1330 0.4528
H3 H 0.1126 -0.3659 0.4652
H4 H -0.0194 0.0406 0.7281
H5 H 0.1111 -0.1172 0.7127
H6 H 0.2959 0.4953 0.5798
H7 H 0.2732 0.5756 0.6489
H8 H 0.5183 0.7297 0.5935
H9 H 0.7592 0.7143 0.6174
H10 H 0.8482 0.3901 0.6728
H11 H 0.6980 0.0798 0.7012
H12 H 0.4565 0.0954 0.6775
loop_
_geom_bond_atom_site_label_1
_geom_bond_atom_site_label_2
_geom_bond_site_symmetry_1
_geom_bond_site_symmetry_2
O1 C5 1_555 1_555
O2 C7 1_555 1_555
N1 C4 1_555 1_555
N2 C1 1_555 1_555
C1 C2 1_555 1_555
C2 C3 1_555 1_555
C3 C4 1_555 1_555
C4 H3 1_555 1_555
C5 N1 1_555 1_555
C6 O1 1_555 1_555
C7 N2 1_555 1_555
C8 N2 1_555 1_555
C9 C8 1_555 1_555
C10 C9 1_555 1_555
C11 C10 1_555 1_555
C12 C11 1_555 1_555
C13 C12 1_555 1_555
C14 C9 1_555 1_555
H1 C2 1_555 1_555
H2 C3 1_555 1_555
H4 C6 1_555 1_555
H5 C6 1_555 1_555
H6 C8 1_555 1_555
H7 C8 1_555 1_555
H8 C10 1_555 1_555
H9 C11 1_555 1_555
H10 C12 1_555 1_555
H11 C13 1_555 1_555
H12 C14 1_555 1_555
C1 C5 1_555 1_555
C6 C7 1_555 1_555
C13 C14 1_555 1_555

#END
