
#######################################################################
#
#                 Cambridge Crystallographic Data Centre
#                                CCDC 
#
#######################################################################
#
# If this CIF has been generated from an entry in the Cambridge 
# Structural Database, then it will include bibliographic, chemical, 
# crystal, experimental, refinement or atomic coordinate data resulting 
# from the CCDC's data processing and validation procedures.
#
#######################################################################

data_ILUNAG
_chemical_formula_moiety         'C26 H30 B1 F2 N3'
_chemical_name_systematic        
2-Ethyl-7-(4-ethyl-3,5-dimethyl-1H-pyrrol-2-yl)-5,5-difluoro-1,3,12-trimethyl-5H-6\l^5^,5\l^5^-pyrrolo[1',2':3,4][1,3,2]diazaborinino[6,1-a]isoindole
_symmetry_cell_setting           triclinic
_symmetry_space_group_name_H-M   'P -1'
_symmetry_Int_Tables_number      2
_space_group_name_Hall           '-P 1'
loop_
_symmetry_equiv_pos_site_id
_symmetry_equiv_pos_as_xyz
1 x,y,z
2 -x,-y,-z
_cell_length_a                   10.496(2)
_cell_length_b                   11.1292(11)
_cell_length_c                   11.1886(12)
_cell_angle_alpha                117.4140(10)
_cell_angle_beta                 99.163(2)
_cell_angle_gamma                93.0960(10)
_cell_volume                     1133.24
_exptl_crystal_colour            red
_exptl_crystal_description       block
_cell_formula_units_Z            2
_chemical_properties_physical    Efflorescent
_exptl_crystal_preparation       Luminescent
loop_
_atom_site_label
_atom_site_type_symbol
_atom_site_fract_x
_atom_site_fract_y
_atom_site_fract_z
B1 B 0.47010(19) 0.2399(2) 0.2315(2)
F1 F 0.51561(11) 0.13554(11) 0.12463(12)
F2 F 0.36132(11) 0.18453(13) 0.25333(14)
N1 N 0.43473(13) 0.35062(15) 0.18751(15)
N2 N 0.57816(14) 0.30751(15) 0.36119(15)
N3 N 0.26924(14) 0.08417(16) -0.05009(16)
H1 H 0.3452 0.0618 -0.0363
C1 C 0.64441(17) 0.43942(18) 0.41823(18)
C2 C 0.33847(16) 0.33581(19) 0.08310(18)
C3 C 0.50334(17) 0.48351(18) 0.25338(19)
C4 C 0.63430(19) 0.2471(2) 0.4352(2)
C5 C 0.24323(17) 0.21664(19) -0.00276(18)
C6 C 0.73637(18) 0.3399(2) 0.53947(19)
C7 C 0.15832(17) -0.0060(2) -0.12137(19)
C8 C 0.74401(17) 0.4598(2) 0.52988(18)
C9 C 0.10889(17) 0.2083(2) -0.04684(18)
C10 C 0.60481(17) 0.52548(19) 0.3644(2)
C11 C 0.44750(18) 0.5546(2) 0.1839(2)
C12 C 0.05628(18) 0.0685(2) -0.11962(19)
C13 C 0.34644(18) 0.4617(2) 0.0765(2)
C14 C 0.0285(2) 0.3230(2) -0.0104(2)
H2 H 0.0790 0.4052 0.0647
H3 H -0.0480 0.3000 0.0162
H4 H 0.0029 0.3371 -0.0887
C15 C 0.1573(2) -0.1561(2) -0.1836(2)
H5 H 0.1655 -0.1919 -0.2777
H6 H 0.0768 -0.1982 -0.1799
H7 H 0.2290 -0.1754 -0.1334
C16 C 0.8242(2) 0.3114(3) 0.6404(2)
H8 H 0.8389 0.3912 0.7306
H9 H 0.7802 0.2360 0.6463
C17 C 0.8405(2) 0.5860(2) 0.6205(2)
H10 H 0.8896 0.5765 0.6950
H11 H 0.7953 0.6637 0.6567
H12 H 0.8988 0.5987 0.5679
C18 C 0.2812(2) 0.4950(3) -0.0223(3)
H13 H 0.2176 0.4320 -0.0966
C19 C 0.4784(2) 0.6865(2) 0.1992(3)
H14 H 0.5435 0.7500 0.2714
C20 C 0.5889(3) 0.1031(2) 0.3999(3)
H15 H 0.4963 0.0906 0.3927
H16 H 0.6317 0.0842 0.4705
H17 H 0.6096 0.0418 0.3135
C21 C -0.08529(19) 0.0081(3) -0.1807(2)
H18 H -0.1000 -0.0769 -0.1772
H19 H -0.1381 0.0703 -0.1237
C22 C 0.3154(3) 0.6244(3) -0.0043(3)
H20 H 0.2733 0.6490 -0.0677
C23 C 0.4111(3) 0.7193(3) 0.1060(3)
H21 H 0.4295 0.8067 0.1164
C24 C -0.1312(3) -0.0199(4) -0.3251(3)
H22 H -0.1103 0.0614 -0.3319
H23 H -0.2240 -0.0476 -0.3516
H24 H -0.0891 -0.0917 -0.3849
C25 C 0.9525(3) 0.2770(5) 0.6044(4)
H25 H 0.9391 0.1976 0.5155
H26 H 1.0027 0.2585 0.6721
H27 H 0.9986 0.3527 0.6023
C26 C 0.6734(9) 0.6656(9) 0.4172(7)
H28 H 0.7108 0.6707 0.3465
H29 H 0.7414 0.6871 0.4955
H30 H 0.6126 0.7298 0.4440
loop_
_geom_bond_atom_site_label_1
_geom_bond_atom_site_label_2
_geom_bond_site_symmetry_1
_geom_bond_site_symmetry_2
B1 F1 1_555 1_555
F2 B1 1_555 1_555
N1 B1 1_555 1_555
N2 B1 1_555 1_555
N3 H1 1_555 1_555
C1 N2 1_555 1_555
C2 N1 1_555 1_555
C3 N1 1_555 1_555
C4 N2 1_555 1_555
C5 N3 1_555 1_555
C6 C4 1_555 1_555
C7 N3 1_555 1_555
C8 C1 1_555 1_555
C9 C5 1_555 1_555
C10 C1 1_555 1_555
C11 C3 1_555 1_555
C12 C7 1_555 1_555
C13 C2 1_555 1_555
C14 C9 1_555 1_555
H2 C14 1_555 1_555
H3 C14 1_555 1_555
H4 C14 1_555 1_555
C15 C7 1_555 1_555
H5 C15 1_555 1_555
H6 C15 1_555 1_555
H7 C15 1_555 1_555
C16 C6 1_555 1_555
H8 C16 1_555 1_555
H9 C16 1_555 1_555
C17 C8 1_555 1_555
H10 C17 1_555 1_555
H11 C17 1_555 1_555
H12 C17 1_555 1_555
C18 C13 1_555 1_555
H13 C18 1_555 1_555
C19 C11 1_555 1_555
H14 C19 1_555 1_555
C20 C4 1_555 1_555
H15 C20 1_555 1_555
H16 C20 1_555 1_555
H17 C20 1_555 1_555
C21 C12 1_555 1_555
H18 C21 1_555 1_555
H19 C21 1_555 1_555
C22 C18 1_555 1_555
H20 C22 1_555 1_555
C23 C19 1_555 1_555
H21 C23 1_555 1_555
C24 C21 1_555 1_555
H22 C24 1_555 1_555
H23 C24 1_555 1_555
H24 C24 1_555 1_555
C25 C16 1_555 1_555
H25 C25 1_555 1_555
H26 C25 1_555 1_555
H27 C25 1_555 1_555
C26 C10 1_555 1_555
H28 C26 1_555 1_555
H29 C26 1_555 1_555
H30 C26 1_555 1_555
C2 C5 1_555 1_555
C3 C10 1_555 1_555
C6 C8 1_555 1_555
C9 C12 1_555 1_555
C11 C13 1_555 1_555
C22 C23 1_555 1_555

#END
