
#######################################################################
#
#                 Cambridge Crystallographic Data Centre
#                                CCDC 
#
#######################################################################
#
# If this CIF has been generated from an entry in the Cambridge 
# Structural Database, then it will include bibliographic, chemical, 
# crystal, experimental, refinement or atomic coordinate data resulting 
# from the CCDC's data processing and validation procedures.
#
#######################################################################

data_ILUPEM
_chemical_name_common            'Rebamipide methanol solvate'
_chemical_formula_moiety         'C19 H15 Cl1 N2 O4,C1 H4 O1'
_chemical_name_systematic        
'N-(4-Chlorobenzoyl)-3-(2-oxo-1,2-dihydroquinolin-4-yl)alanine methanol solvate'
_chemical_properties_biological  
'rebamipide is used to treat gastric ulcers and gastritis'
_symmetry_cell_setting           monoclinic
_symmetry_space_group_name_H-M   'C 2/c'
_symmetry_Int_Tables_number      15
_space_group_name_Hall           '-C 2yn'
loop_
_symmetry_equiv_pos_site_id
_symmetry_equiv_pos_as_xyz
1 x,y,z
2 -x,y,1/2-z
3 1/2+x,1/2+y,z
4 1/2-x,1/2+y,1/2-z
5 -x,-y,-z
6 x,-y,1/2+z
7 1/2-x,1/2-y,-z
8 1/2+x,1/2-y,1/2+z
_cell_length_a                   23.030(2)
_cell_length_b                   19.1331(18)
_cell_length_c                   9.6060(9)
_cell_angle_alpha                90
_cell_angle_beta                 106.358(2)
_cell_angle_gamma                90
_cell_volume                     4061.4
_cell_formula_units_Z            8
loop_
_atom_site_label
_atom_site_type_symbol
_atom_site_fract_x
_atom_site_fract_y
_atom_site_fract_z
Cl1 Cl 0.46968(5) 0.35169(6) -0.06570(15)
N1 N 0.73342(11) 0.52508(13) 0.2283(3)
H1 H 0.7174 0.5390 0.1407
N2 N 0.72330(13) 0.79798(14) 0.2383(3)
H2 H 0.7055 0.8375 0.2385
O1 O 0.82854(12) 0.43379(13) 0.2449(3)
O2 O 0.88423(13) 0.49029(14) 0.4403(4)
H3 H 0.9063 0.4560 0.4473
O3 O 0.64938(12) 0.76719(14) 0.0328(3)
O4 O 0.72182(10) 0.46738(12) 0.4234(3)
C1 C 0.83746(17) 0.4836(2) 0.3258(5)
C2 C 0.79433(14) 0.54675(16) 0.3057(4)
H4 H 0.7943 0.5645 0.4014
C3 C 0.81670(15) 0.60546(17) 0.2217(4)
H5 H 0.8599 0.6121 0.2633
H6 H 0.8097 0.5916 0.1212
C4 C 0.69869(18) 0.7533(2) 0.1262(4)
C5 C 0.73348(16) 0.69048(18) 0.1236(4)
H7 H 0.7202 0.6600 0.0456
C6 C 0.78391(15) 0.67404(16) 0.2283(4)
C7 C 0.80652(15) 0.72164(17) 0.3502(4)
C8 C 0.77460(15) 0.78476(17) 0.3515(4)
C9 C 0.79389(18) 0.83232(18) 0.4648(5)
H8 H 0.7728 0.8738 0.4637
C10 C 0.84382(19) 0.8182(2) 0.5776(5)
H9 H 0.8563 0.8501 0.6533
C11 C 0.87619(17) 0.7566(2) 0.5803(4)
H10 H 0.9104 0.7477 0.6569
C12 C 0.85789(16) 0.70905(19) 0.4706(4)
H11 H 0.8794 0.6676 0.4747
C13 C 0.70176(15) 0.48296(17) 0.2938(4)
C14 C 0.64197(14) 0.45437(17) 0.2021(4)
C15 C 0.61060(15) 0.48229(18) 0.0680(4)
H12 H 0.6253 0.5220 0.0333
C16 C 0.55746(17) 0.4510(2) -0.0140(4)
H13 H 0.5367 0.4696 -0.1037
C17 C 0.53545(16) 0.3919(2) 0.0387(5)
C18 C 0.56587(17) 0.3639(2) 0.1711(5)
H14 H 0.5510 0.3241 0.2050
C19 C 0.61892(15) 0.39502(19) 0.2540(4)
H15 H 0.6392 0.3765 0.3441
O5 O 0.93546(17) 0.36816(19) 0.5019(7)
H16 H 0.9133 0.3339 0.4813
C20 C 0.9815(8) 0.3634(10) 0.432(4)
H17 H 1.0157 0.3909 0.4836
H18 H 0.9666 0.3807 0.3343
H19 H 0.9936 0.3155 0.4296
C21? C 0.9844(7) 0.3460(8) 0.593(3)
H20? H 0.9962 0.3025 0.5592
H21? H 0.9774 0.3391 0.6859
H22? H 1.0160 0.3798 0.6016
loop_
_geom_bond_atom_site_label_1
_geom_bond_atom_site_label_2
_geom_bond_site_symmetry_1
_geom_bond_site_symmetry_2
Cl1 C17 1_555 1_555
N1 H1 1_555 1_555
N2 H2 1_555 1_555
O1 C1 1_555 1_555
O2 H3 1_555 1_555
O3 C4 1_555 1_555
O4 C13 1_555 1_555
C1 O2 1_555 1_555
C2 N1 1_555 1_555
H4 C2 1_555 1_555
C3 C2 1_555 1_555
H5 C3 1_555 1_555
H6 C3 1_555 1_555
C4 N2 1_555 1_555
C5 C4 1_555 1_555
H7 C5 1_555 1_555
C6 C3 1_555 1_555
C7 C6 1_555 1_555
C8 N2 1_555 1_555
C9 C8 1_555 1_555
H8 C9 1_555 1_555
C10 C9 1_555 1_555
H9 C10 1_555 1_555
C11 C10 1_555 1_555
H10 C11 1_555 1_555
C12 C7 1_555 1_555
H11 C12 1_555 1_555
C13 N1 1_555 1_555
C14 C13 1_555 1_555
C15 C14 1_555 1_555
H12 C15 1_555 1_555
C16 C15 1_555 1_555
H13 C16 1_555 1_555
C17 C16 1_555 1_555
C18 C17 1_555 1_555
H14 C18 1_555 1_555
C19 C14 1_555 1_555
H15 C19 1_555 1_555
O5 H16 1_555 1_555
C20 O5 1_555 1_555
H17 C20 1_555 1_555
H18 C20 1_555 1_555
H19 C20 1_555 1_555
C1 C2 1_555 1_555
C5 C6 1_555 1_555
C7 C8 1_555 1_555
C11 C12 1_555 1_555
C18 C19 1_555 1_555

#END
