
#######################################################################
#
#                 Cambridge Crystallographic Data Centre
#                                CCDC 
#
#######################################################################
#
# If this CIF has been generated from an entry in the Cambridge 
# Structural Database, then it will include bibliographic, chemical, 
# crystal, experimental, refinement or atomic coordinate data resulting 
# from the CCDC's data processing and validation procedures.
#
#######################################################################

data_ILUROY
_chemical_formula_moiety         'C20 H17 Cl1 N2 O4'
_chemical_name_systematic        
'Methyl N-(4-chlorobenzoyl)-3-(2-oxo-1,2-dihydroquinolin-4-yl)alaninate'
_symmetry_cell_setting           monoclinic
_symmetry_space_group_name_H-M   'P 21/c'
_symmetry_Int_Tables_number      14
_space_group_name_Hall           '-P 2ybc'
loop_
_symmetry_equiv_pos_site_id
_symmetry_equiv_pos_as_xyz
1 x,y,z
2 -x,1/2+y,1/2-z
3 -x,-y,-z
4 x,1/2-y,1/2+z
_cell_length_a                   19.7573(15)
_cell_length_b                   5.0379(3)
_cell_length_c                   19.5600(12)
_cell_angle_alpha                90
_cell_angle_beta                 109.887(7)
_cell_angle_gamma                90
_cell_volume                     1830.81
_exptl_crystal_colour            colorless
_exptl_crystal_description       block
_cell_formula_units_Z            4
loop_
_atom_site_label
_atom_site_type_symbol
_atom_site_fract_x
_atom_site_fract_y
_atom_site_fract_z
C1 C 0.15022(15) 0.4981(6) -0.17152(14)
C2 C 0.16172(18) 0.6911(7) -0.21748(16)
H1 H 0.1259 0.7284 -0.2616
C3 C 0.22568(19) 0.8260(7) -0.19782(18)
H2 H 0.2329 0.9565 -0.2282
C4 C 0.27959(18) 0.7682(7) -0.13262(18)
H3 H 0.3233 0.8581 -0.1197
C5 C 0.26876(15) 0.5797(6) -0.08728(16)
H4 H 0.3054 0.5435 -0.0437
C6 C 0.20386(14) 0.4393(5) -0.10467(14)
C7 C 0.18806(15) 0.2398(6) -0.05888(14)
C8 C 0.12514(15) 0.1083(6) -0.08262(15)
H5 H 0.1164 -0.0229 -0.0532
C9 C 0.07040(16) 0.1634(7) -0.15229(15)
C10 C 0.24176(16) 0.1817(6) 0.01572(14)
H6 H 0.2892 0.1619 0.0120
H7 H 0.2292 0.0150 0.0331
C11 C 0.24412(16) 0.4015(6) 0.07092(14)
H8 H 0.2576 0.5657 0.0520
C12 C 0.1733(2) 0.4478(10) 0.0774(2)
C13 C 0.33615(14) 0.5453(5) 0.18221(13)
C14 C 0.39038(14) 0.4705(5) 0.25406(13)
C15 C 0.45077(16) 0.6305(6) 0.28154(15)
H9 H 0.4562 0.7775 0.2551
C16 C 0.50308(16) 0.5743(7) 0.34779(17)
H10 H 0.5441 0.6793 0.3654
C17 C 0.49332(16) 0.3614(7) 0.38686(15)
C18 C 0.43302(18) 0.2044(7) 0.36230(16)
H11 H 0.4268 0.0640 0.3904
C19 C 0.38151(16) 0.2577(6) 0.29503(15)
H12 H 0.3410 0.1503 0.2775
C20 C 0.0736(6) 0.335(3) 0.1062(6)
H13 H 0.0557 0.4764 0.0719
H14 H 0.0673 0.3811 0.1513
H15 H 0.0475 0.1751 0.0875
N1 N 0.08605(12) 0.3606(5) -0.19148(12)
H16 H 0.0535 0.4035 -0.2319
N2 N 0.30037(13) 0.3473(5) 0.13995(11)
H17 H 0.3107 0.1858 0.1537
O1 O 0.01219(12) 0.0423(6) -0.17485(12)
O2 O 0.32660(13) 0.7780(4) 0.16314(11)
O3 O 0.13009(18) 0.6080(10) 0.0418(2)
O4 O 0.1593(2) 0.2890(8) 0.1200(3)
Cl1 Cl 0.55981(5) 0.2869(3) 0.46941(5)
loop_
_geom_bond_atom_site_label_1
_geom_bond_atom_site_label_2
_geom_bond_site_symmetry_1
_geom_bond_site_symmetry_2
C1 C2 1_555 1_555
C2 H1 1_555 1_555
C3 C2 1_555 1_555
H2 C3 1_555 1_555
C4 C3 1_555 1_555
H3 C4 1_555 1_555
C5 C4 1_555 1_555
H4 C5 1_555 1_555
C6 C1 1_555 1_555
C7 C6 1_555 1_555
C8 C7 1_555 1_555
H5 C8 1_555 1_555
C9 C8 1_555 1_555
C10 C7 1_555 1_555
H6 C10 1_555 1_555
H7 C10 1_555 1_555
C11 C10 1_555 1_555
H8 C11 1_555 1_555
C12 C11 1_555 1_555
C13 C14 1_555 1_555
C14 C15 1_555 1_555
C15 H9 1_555 1_555
C16 C15 1_555 1_555
H10 C16 1_555 1_555
C17 C16 1_555 1_555
C18 C17 1_555 1_555
H11 C18 1_555 1_555
C19 C14 1_555 1_555
H12 C19 1_555 1_555
C20 H13 1_555 1_555
H14 C20 1_555 1_555
H15 C20 1_555 1_555
N1 C1 1_555 1_555
H16 N1 1_555 1_555
N2 C11 1_555 1_555
H17 N2 1_555 1_555
O1 C9 1_555 1_555
O2 C13 1_555 1_555
O3 C12 1_555 1_555
O4 C12 1_555 1_555
Cl1 C17 1_555 1_555
C5 C6 1_555 1_555
C9 N1 1_555 1_555
C13 N2 1_555 1_555
C18 C19 1_555 1_555
C20 O4 1_555 1_555

#END
