
#######################################################################
#
#                 Cambridge Crystallographic Data Centre
#                                CCDC 
#
#######################################################################
#
# If this CIF has been generated from an entry in the Cambridge 
# Structural Database, then it will include bibliographic, chemical, 
# crystal, experimental, refinement or atomic coordinate data resulting 
# from the CCDC's data processing and validation procedures.
#
#######################################################################

data_ILUVUI
_chemical_formula_moiety         'C17 H12 B1 F2 N3'
_chemical_name_systematic        
5,5-Difluoro-7-(1H-pyrrol-2-yl)-5H-6\l^5^,5\l^5^-pyrrolo[1',2':3,4][1,3,2]diazaborinino[6,1-a]isoindole
_symmetry_cell_setting           monoclinic
_symmetry_space_group_name_H-M   'C 2/c'
_symmetry_Int_Tables_number      15
_space_group_name_Hall           '-C 2yn'
loop_
_symmetry_equiv_pos_site_id
_symmetry_equiv_pos_as_xyz
1 x,y,z
2 -x,y,1/2-z
3 1/2+x,1/2+y,z
4 1/2-x,1/2+y,1/2-z
5 -x,-y,-z
6 x,-y,1/2+z
7 1/2-x,1/2-y,-z
8 1/2+x,1/2-y,1/2+z
_cell_length_a                   34.888(4)
_cell_length_b                   4.8922(5)
_cell_length_c                   17.4916(17)
_cell_angle_alpha                90
_cell_angle_beta                 110.6130(10)
_cell_angle_gamma                90
_cell_volume                     2794.32
_exptl_crystal_colour            colorless
_exptl_crystal_description       block
_cell_formula_units_Z            8
_chemical_properties_physical    Efflorescent
_exptl_crystal_preparation       Luminescent
loop_
_atom_site_label
_atom_site_type_symbol
_atom_site_fract_x
_atom_site_fract_y
_atom_site_fract_z
B1 B 0.13502(5) 0.4655(3) 0.16844(10)
C1 C 0.26076(5) 0.5367(5) 0.17350(13)
H1 H 0.2801 0.4242 0.2101
F1 F 0.15697(3) 0.61468(19) 0.23746(5)
N1 N 0.21980(4) 0.5162(4) 0.15299(10)
C2 C 0.26878(6) 0.7466(5) 0.13228(13)
H2 H 0.2946 0.8053 0.1350
F2 F 0.15709(3) 0.23104(17) 0.16576(6)
N2 N 0.12884(3) 0.6515(2) 0.09137(7)
C3 C 0.23168(6) 0.8598(5) 0.08493(12)
H3 H 0.2283 1.0095 0.0504
N3 N 0.09312(4) 0.3839(3) 0.16867(7)
C4 C 0.20051(5) 0.7141(3) 0.09735(10)
C5 C 0.15725(4) 0.7620(3) 0.06455(9)
C6 C 0.13690(5) 0.9504(3) -0.00181(9)
C7 C 0.15061(5) 1.1154(4) -0.05239(10)
H4 H 0.1780 1.1141 -0.0480
C8 C 0.12263(6) 1.2794(4) -0.10868(10)
H5 H 0.1315 1.3915 -0.1421
C9 C 0.08168(6) 1.2826(4) -0.11707(10)
H6 H 0.0636 1.3970 -0.1555
C10 C 0.06739(5) 1.1179(3) -0.06896(10)
H7 H 0.0398 1.1171 -0.0751
C11 C 0.09541(5) 0.9527(3) -0.01100(9)
C12 C 0.09011(4) 0.7640(3) 0.04730(9)
C13 C 0.05605(5) 0.6940(3) 0.06281(9)
H8 H 0.0314 0.7790 0.0332
C14 C 0.05629(4) 0.4976(3) 0.12195(10)
C15 C 0.02566(5) 0.3773(4) 0.14420(11)
H9 H -0.0022 0.4170 0.1225
C16 C 0.04428(5) 0.1871(4) 0.20475(11)
H10 H 0.0313 0.0751 0.2310
C17 C 0.08553(5) 0.1951(3) 0.21861(10)
H11 H 0.1052 0.0878 0.2564
H12 H 0.2035(8) 0.377(5) 0.1720(15)
loop_
_geom_bond_atom_site_label_1
_geom_bond_atom_site_label_2
_geom_bond_site_symmetry_1
_geom_bond_site_symmetry_2
B1 F1 1_555 1_555
C1 H1 1_555 1_555
N1 C1 1_555 1_555
C2 C1 1_555 1_555
H2 C2 1_555 1_555
F2 B1 1_555 1_555
N2 B1 1_555 1_555
C3 C2 1_555 1_555
H3 C3 1_555 1_555
N3 B1 1_555 1_555
C4 N1 1_555 1_555
C5 N2 1_555 1_555
C6 C5 1_555 1_555
C7 C6 1_555 1_555
H4 C7 1_555 1_555
C8 C7 1_555 1_555
H5 C8 1_555 1_555
C9 C8 1_555 1_555
H6 C9 1_555 1_555
C10 C9 1_555 1_555
H7 C10 1_555 1_555
C11 C6 1_555 1_555
C12 N2 1_555 1_555
C13 C12 1_555 1_555
H8 C13 1_555 1_555
C14 N3 1_555 1_555
C15 C14 1_555 1_555
H9 C15 1_555 1_555
C16 C15 1_555 1_555
H10 C16 1_555 1_555
C17 N3 1_555 1_555
H11 C17 1_555 1_555
H12 N1 1_555 1_555
C3 C4 1_555 1_555
C4 C5 1_555 1_555
C10 C11 1_555 1_555
C11 C12 1_555 1_555
C13 C14 1_555 1_555
C16 C17 1_555 1_555

#END
