
#######################################################################
#
#                 Cambridge Crystallographic Data Centre
#                                CCDC 
#
#######################################################################
#
# If this CIF has been generated from an entry in the Cambridge 
# Structural Database, then it will include bibliographic, chemical, 
# crystal, experimental, refinement or atomic coordinate data resulting 
# from the CCDC's data processing and validation procedures.
#
#######################################################################

data_ILUWIX
_chemical_formula_moiety         'C22 H22 B1 F2 N3'
_chemical_name_systematic        
2-Ethyl-5,5-difluoro-1,3,12-trimethyl-7-(1H-pyrrol-2-yl)-5H-6\l^5^,5\l^5^-pyrrolo[1',2':3,4][1,3,2]diazaborinino[6,1-a]isoindole
_symmetry_cell_setting           monoclinic
_symmetry_space_group_name_H-M   'P 21/c'
_symmetry_Int_Tables_number      14
_space_group_name_Hall           '-P 2ybc'
loop_
_symmetry_equiv_pos_site_id
_symmetry_equiv_pos_as_xyz
1 x,y,z
2 -x,1/2+y,1/2-z
3 -x,-y,-z
4 x,1/2-y,1/2+z
_cell_length_a                   13.041(2)
_cell_length_b                   20.065(4)
_cell_length_c                   7.4322(13)
_cell_angle_alpha                90
_cell_angle_beta                 105.281(2)
_cell_angle_gamma                90
_cell_volume                     1876.01
_exptl_crystal_colour            colorless
_exptl_crystal_description       block
_cell_formula_units_Z            4
_exptl_crystal_preparation       Luminescent
loop_
_atom_site_label
_atom_site_type_symbol
_atom_site_fract_x
_atom_site_fract_y
_atom_site_fract_z
B1 B 0.0099(2) 0.40028(14) 0.2499(4)
C1 C -0.2585(2) 0.52509(14) 0.2858(4)
H1 H -0.2473 0.5696 0.3202
C2 C -0.3532(2) 0.49731(14) 0.1930(4)
H2 H -0.4178 0.5194 0.1514
C3 C -0.3352(2) 0.43003(13) 0.1722(4)
H3 H -0.3859 0.3988 0.1147
C4 C -0.22879(19) 0.41740(12) 0.2517(3)
C5 C -0.17364(19) 0.35441(13) 0.2639(3)
C6 C -0.22154(19) 0.29079(12) 0.2709(3)
C7 C -0.3223(2) 0.27343(14) 0.2867(4)
H4 H -0.3717 0.3062 0.2931
C8 C -0.3472(2) 0.20759(15) 0.2925(4)
H5 H -0.4144 0.1952 0.3019
C9 C -0.2725(2) 0.15871(15) 0.2846(4)
H6 H -0.2917 0.1141 0.2849
C10 C -0.1720(2) 0.17458(13) 0.2765(3)
H7 H -0.1228 0.1412 0.2752
C11 C -0.1438(2) 0.24182(13) 0.2700(3)
C12 C -0.0478(2) 0.27648(12) 0.2665(3)
C13 C 0.0522(2) 0.25414(12) 0.2637(3)
C14 C 0.1347(2) 0.29931(12) 0.2575(3)
C15 C 0.2423(2) 0.29037(13) 0.2590(3)
C16 C 0.2839(2) 0.35347(14) 0.2434(3)
C17 C 0.2031(2) 0.39981(13) 0.2330(3)
C18 C 0.2074(2) 0.47317(13) 0.2093(4)
H8 H 0.1391 0.4890 0.1394
H9 H 0.2596 0.4837 0.1436
H10 H 0.2264 0.4942 0.3296
C19 C 0.0718(2) 0.18034(12) 0.2596(4)
H11 H 0.1009 0.1645 0.3845
H12 H 0.1211 0.1716 0.1866
H13 H 0.0060 0.1578 0.2051
C20 C 0.3053(2) 0.22689(14) 0.2749(4)
H14 H 0.2810 0.2015 0.1622
H15 H 0.2958 0.2013 0.3785
H16 H 0.3792 0.2373 0.2942
C21 C 0.3961(2) 0.37174(15) 0.2472(4)
H17 H 0.3950 0.4080 0.1602
H18 H 0.4301 0.3338 0.2061
C22 C 0.4607(2) 0.3927(2) 0.4389(4)
H19 H 0.4292 0.4315 0.4778
H20 H 0.5320 0.4027 0.4349
H21 H 0.4618 0.3571 0.5257
F1 F 0.02779(11) 0.44016(7) 0.4118(2)
F2 F -0.03125(11) 0.43882(7) 0.0957(2)
N1 N -0.18417(17) 0.47689(11) 0.3189(3)
H22 H -0.1181 0.4827 0.3744
N2 N -0.07117(15) 0.34514(10) 0.2641(2)
N3 N 0.11340(15) 0.36715(10) 0.2439(3)
loop_
_geom_bond_atom_site_label_1
_geom_bond_atom_site_label_2
_geom_bond_site_symmetry_1
_geom_bond_site_symmetry_2
B1 F1 1_555 1_555
C1 H1 1_555 1_555
C2 C1 1_555 1_555
H2 C2 1_555 1_555
C3 C2 1_555 1_555
H3 C3 1_555 1_555
C4 C3 1_555 1_555
C5 C4 1_555 1_555
C6 C5 1_555 1_555
C7 C6 1_555 1_555
H4 C7 1_555 1_555
C8 C7 1_555 1_555
H5 C8 1_555 1_555
C9 C8 1_555 1_555
H6 C9 1_555 1_555
C10 C9 1_555 1_555
H7 C10 1_555 1_555
C11 C6 1_555 1_555
C12 C11 1_555 1_555
C13 C12 1_555 1_555
C14 C13 1_555 1_555
C15 C14 1_555 1_555
C16 C15 1_555 1_555
C17 C16 1_555 1_555
C18 C17 1_555 1_555
H8 C18 1_555 1_555
H9 C18 1_555 1_555
H10 C18 1_555 1_555
C19 C13 1_555 1_555
H11 C19 1_555 1_555
H12 C19 1_555 1_555
H13 C19 1_555 1_555
C20 C15 1_555 1_555
H14 C20 1_555 1_555
H15 C20 1_555 1_555
H16 C20 1_555 1_555
C21 C16 1_555 1_555
H17 C21 1_555 1_555
H18 C21 1_555 1_555
C22 C21 1_555 1_555
H19 C22 1_555 1_555
H20 C22 1_555 1_555
H21 C22 1_555 1_555
F2 B1 1_555 1_555
N1 C1 1_555 1_555
H22 N1 1_555 1_555
N2 B1 1_555 1_555
N3 B1 1_555 1_555
C4 N1 1_555 1_555
C5 N2 1_555 1_555
C10 C11 1_555 1_555
C12 N2 1_555 1_555
C14 N3 1_555 1_555
C17 N3 1_555 1_555

#END
