
#######################################################################
#
#                 Cambridge Crystallographic Data Centre
#                                CCDC 
#
#######################################################################
#
# If this CIF has been generated from an entry in the Cambridge 
# Structural Database, then it will include bibliographic, chemical, 
# crystal, experimental, refinement or atomic coordinate data resulting 
# from the CCDC's data processing and validation procedures.
#
#######################################################################

data_IMANUH
_chemical_formula_moiety         'C38 H42 F2 N4 O2'
_chemical_name_systematic        
5''-(4-Fluorobenzylidene)-4'-(4-fluorophenyl)-1'-methyl-1-(piperidin-1-ylmethyl)-1''-propyl-4''H-dispiro[indole-3,2'-pyrrolidine-3',3''-piperidine]-2,4''(1H)-dione
_symmetry_cell_setting           monoclinic
_symmetry_space_group_name_H-M   'P 21/c'
_symmetry_Int_Tables_number      14
_space_group_name_Hall           '-P 2ybc'
loop_
_symmetry_equiv_pos_site_id
_symmetry_equiv_pos_as_xyz
1 x,y,z
2 -x,1/2+y,1/2-z
3 -x,-y,-z
4 x,1/2-y,1/2+z
_cell_length_a                   12.3371(4)
_cell_length_b                   16.2079(7)
_cell_length_c                   17.0271(9)
_cell_angle_alpha                90
_cell_angle_beta                 100.522(2)
_cell_angle_gamma                90
_cell_volume                     3347.46
_exptl_crystal_colour            yellow
_exptl_crystal_description       prismatic
_cell_formula_units_Z            4
loop_
_atom_site_label
_atom_site_type_symbol
_atom_site_fract_x
_atom_site_fract_y
_atom_site_fract_z
F1 F -0.8508(6) -0.1481(3) -0.0834(4)
F2 F -0.8628(4) -0.6540(3) -0.7388(3)
C1 C -0.6372(6) -0.5643(4) -0.1963(4)
C2 C -0.6206(6) -0.6351(4) -0.2511(4)
O1 O -0.4900(5) -0.4615(3) -0.1476(4)
O2 O -0.8965(4) -0.5839(4) -0.2593(3)
C3 C -0.6862(6) -0.7031(5) -0.2746(4)
C4 C -0.6474(8) -0.7626(4) -0.3234(5)
N1 N -0.6573(6) -0.5950(4) -0.1206(4)
N2 N -0.6580(4) -0.4508(3) -0.3363(3)
N3 N -0.4589(5) -0.5633(4) -0.2340(4)
N4 N -0.2497(5) -0.5612(5) -0.2040(4)
C5 C -0.5495(8) -0.7547(6) -0.3442(4)
C6 C -0.4803(6) -0.6880(5) -0.3178(5)
C7 C -0.5168(6) -0.6299(5) -0.2716(4)
C8 C -0.3504(7) -0.5324(5) -0.2546(6)
C9 C -0.2278(9) -0.6505(6) -0.2026(6)
C10 C -0.1116(8) -0.6687(7) -0.1605(8)
C11 C -0.0843(10) -0.6290(8) -0.0824(6)
C12 C -0.1186(9) -0.5417(7) -0.0838(7)
C13 C -0.2343(8) -0.5274(7) -0.1256(6)
C14 C -0.5230(6) -0.5211(5) -0.1893(4)
C15 C -0.5663(10) -0.6419(6) -0.0726(5)
C16 C -0.6950(10) -0.5272(5) -0.0805(5)
C17 C -0.7763(7) -0.4815(5) -0.1432(4)
C18 C -0.7911(6) -0.3924(5) -0.1246(4)
C19 C -0.7097(6) -0.3426(5) -0.0816(4)
C20 C -0.7301(7) -0.2602(6) -0.0681(5)
C21 C -0.8323(8) -0.2312(5) -0.0956(5)
C22 C -0.9122(8) -0.2767(6) -0.1393(5)
C23 C -0.8929(7) -0.3579(5) -0.1514(5)
C24 C -0.7351(6) -0.5021(4) -0.2226(4)
C25 C -0.8246(6) -0.5450(4) -0.2827(4)
C26 C -0.8181(6) -0.5420(4) -0.3687(4)
C27 C -0.8694(6) -0.6009(5) -0.4151(4)
C28 C -0.8713(5) -0.6111(5) -0.5006(4)
C29 C -0.8843(7) -0.5479(5) -0.5563(4)
C30 C -0.8836(6) -0.5618(5) -0.6354(4)
C31 C -0.8700(6) -0.6414(5) -0.6601(5)
C32 C -0.8559(8) -0.7062(6) -0.6102(6)
C33 C -0.8566(6) -0.6916(5) -0.5298(5)
C34 C -0.7527(5) -0.4746(4) -0.3969(4)
C35 C -0.6992(5) -0.4249(4) -0.2647(4)
C36 C -0.5892(6) -0.3865(5) -0.3641(4)
C37 C -0.5311(7) -0.4210(6) -0.4287(5)
C38 C -0.4362(9) -0.3719(7) -0.4405(7)
H1 H -0.8934 -0.5185 -0.6715
H2 H -0.8924 -0.4956 -0.5380
H3 H -0.9053 -0.6405 -0.3907
H4 H -0.7253 -0.4939 -0.4439
H5 H -0.7995 -0.4272 -0.4120
H6 H -0.7626 -0.3879 -0.2791
H7 H -0.6411 -0.3979 -0.2284
H8 H -0.8485 -0.5094 -0.1463
H9 H -0.9492 -0.3919 -0.1786
H10 H -0.9810 -0.2550 -0.1596
H11 H -0.6753 -0.2265 -0.0404
H12 H -0.6409 -0.3644 -0.0629
H13 H -0.7283 -0.5452 -0.0356
H14 H -0.6322 -0.4911 -0.0587
H15 H -0.7527 -0.7087 -0.2570
H16 H -0.6930 -0.8084 -0.3406
H17 H -0.5256 -0.7932 -0.3770
H18 H -0.4117 -0.6821 -0.3331
H19 H -0.3500 -0.5518 -0.3088
H20 H -0.3526 -0.4737 -0.2515
H21 H -0.2392 -0.6703 -0.2579
H22 H -0.2797 -0.6776 -0.1745
H23 H -0.1045 -0.7278 -0.1549
H24 H -0.0630 -0.6471 -0.1935
H25 H -0.1265 -0.6593 -0.0466
H26 H -0.0078 -0.6342 -0.0617
H27 H -0.1092 -0.5210 -0.0290
H28 H -0.0685 -0.5104 -0.1116
H29 H -0.2844 -0.5532 -0.0963
H30 H -0.2476 -0.4687 -0.1300
H31 H -0.5419 -0.6841 -0.1062
H32 H -0.5916 -0.6676 -0.0288
H33 H -0.5069 -0.6052 -0.0539
H34 H -0.6348 -0.3395 -0.3833
H35 H -0.5349 -0.3690 -0.3176
H36 H -0.5832 -0.4248 -0.4774
H37 H -0.5033 -0.4771 -0.4112
H38 H -0.3968 -0.4009 -0.4762
H39 H -0.4629 -0.3202 -0.4649
H40 H -0.3896 -0.3621 -0.3909
H41 H -0.8480 -0.7353 -0.4943
H42 H -0.8458 -0.7596 -0.6278
loop_
_geom_bond_atom_site_label_1
_geom_bond_atom_site_label_2
_geom_bond_site_symmetry_1
_geom_bond_site_symmetry_2
F1 C21 1_555 1_555
F2 C31 1_555 1_555
C1 C2 1_555 1_555
C2 C3 1_555 1_555
O1 C14 1_555 1_555
O2 C25 1_555 1_555
C3 C4 1_555 1_555
C4 C5 1_555 1_555
N1 C1 1_555 1_555
N2 C34 1_555 1_555
N3 C7 1_555 1_555
N4 C8 1_555 1_555
C5 C6 1_555 1_555
C6 C7 1_555 1_555
C7 C2 1_555 1_555
C8 N3 1_555 1_555
C9 N4 1_555 1_555
C10 C9 1_555 1_555
C11 C10 1_555 1_555
C12 C11 1_555 1_555
C13 N4 1_555 1_555
C14 C1 1_555 1_555
C15 N1 1_555 1_555
C16 N1 1_555 1_555
C17 C16 1_555 1_555
C18 C17 1_555 1_555
C19 C18 1_555 1_555
C20 C19 1_555 1_555
C21 C20 1_555 1_555
C22 C21 1_555 1_555
C23 C18 1_555 1_555
C24 C1 1_555 1_555
C25 C24 1_555 1_555
C26 C25 1_555 1_555
C27 C26 1_555 1_555
C28 C27 1_555 1_555
C29 C28 1_555 1_555
C30 C29 1_555 1_555
C31 C30 1_555 1_555
C32 C31 1_555 1_555
C33 C28 1_555 1_555
C34 C26 1_555 1_555
C35 N2 1_555 1_555
C36 N2 1_555 1_555
C37 C36 1_555 1_555
C38 C37 1_555 1_555
H1 C30 1_555 1_555
H2 C29 1_555 1_555
H3 C27 1_555 1_555
H4 C34 1_555 1_555
H5 C34 1_555 1_555
H6 C35 1_555 1_555
H7 C35 1_555 1_555
H8 C17 1_555 1_555
H9 C23 1_555 1_555
H10 C22 1_555 1_555
H11 C20 1_555 1_555
H12 C19 1_555 1_555
H13 C16 1_555 1_555
H14 C16 1_555 1_555
H15 C3 1_555 1_555
H16 C4 1_555 1_555
H17 C5 1_555 1_555
H18 C6 1_555 1_555
H19 C8 1_555 1_555
H20 C8 1_555 1_555
H21 C9 1_555 1_555
H22 C9 1_555 1_555
H23 C10 1_555 1_555
H24 C10 1_555 1_555
H25 C11 1_555 1_555
H26 C11 1_555 1_555
H27 C12 1_555 1_555
H28 C12 1_555 1_555
H29 C13 1_555 1_555
H30 C13 1_555 1_555
H31 C15 1_555 1_555
H32 C15 1_555 1_555
H33 C15 1_555 1_555
H34 C36 1_555 1_555
H35 C36 1_555 1_555
H36 C37 1_555 1_555
H37 C37 1_555 1_555
H38 C38 1_555 1_555
H39 C38 1_555 1_555
H40 C38 1_555 1_555
H41 C33 1_555 1_555
H42 C32 1_555 1_555
N3 C14 1_555 1_555
C12 C13 1_555 1_555
C17 C24 1_555 1_555
C22 C23 1_555 1_555
C24 C35 1_555 1_555
C32 C33 1_555 1_555

#END
