
#######################################################################
#
#                 Cambridge Crystallographic Data Centre
#                                CCDC 
#
#######################################################################
#
# If this CIF has been generated from an entry in the Cambridge 
# Structural Database, then it will include bibliographic, chemical, 
# crystal, experimental, refinement or atomic coordinate data resulting 
# from the CCDC's data processing and validation procedures.
#
#######################################################################

data_IMASEW
_chemical_formula_moiety         'C19 H18 N4 O1'
_chemical_name_systematic        
5-(1-Methyl-1H-indol-3-yl)-3-phenyl-4,5-dihydro-1H-pyrazole-1-carboxamide
_chemical_properties_biological  'anticancer activity'
_symmetry_cell_setting           orthorhombic
_symmetry_space_group_name_H-M   'P b c a'
_symmetry_Int_Tables_number      61
_space_group_name_Hall           '-P 2ac 2ab'
loop_
_symmetry_equiv_pos_site_id
_symmetry_equiv_pos_as_xyz
1 x,y,z
2 1/2-x,-y,1/2+z
3 -x,1/2+y,1/2-z
4 1/2+x,1/2-y,-z
5 -x,-y,-z
6 1/2+x,y,1/2-z
7 x,1/2-y,1/2+z
8 1/2-x,1/2+y,z
_cell_length_a                   16.0750(14)
_cell_length_b                   10.1661(9)
_cell_length_c                   20.0996(18)
_cell_angle_alpha                90
_cell_angle_beta                 90
_cell_angle_gamma                90
_cell_volume                     3284.68
_exptl_crystal_description       block
_cell_formula_units_Z            8
loop_
_atom_site_label
_atom_site_type_symbol
_atom_site_fract_x
_atom_site_fract_y
_atom_site_fract_z
O1 O 0.41906(7) 0.12612(11) 0.49864(5)
N1 N 0.35054(9) 0.13864(12) 0.40140(6)
N2 N 0.32946(8) 0.08165(12) 0.34110(6)
C1 C 0.40617(9) 0.08015(14) 0.44283(8)
C2 C 0.40528(10) 0.43260(15) 0.38561(8)
N3 N 0.39631(9) 0.55790(13) 0.47763(7)
C3 C 0.34568(10) 0.37543(15) 0.42966(7)
C4 C 0.22830(9) 0.10527(14) 0.25420(7)
N4 N 0.44418(9) -0.02718(14) 0.41933(7)
H1 H 0.4799 -0.0681 0.4436
H2 H 0.4329 -0.0553 0.3800
C5 C 0.26621(9) 0.14325(14) 0.31749(7)
C6 C 0.15771(11) 0.16860(17) 0.23110(9)
H3 H 0.1348 0.2368 0.2559
C7 C 0.23594(10) 0.25279(16) 0.36113(8)
H4 H 0.1795 0.2366 0.3760
H5 H 0.2378 0.3363 0.3379
C8 C 0.43625(10) 0.54626(15) 0.41779(8)
C9 C 0.26081(11) 0.00337(19) 0.21655(8)
H6 H 0.3083 -0.0404 0.2310
C10 C 0.34266(10) 0.45442(16) 0.48396(8)
H7 H 0.3086 0.4401 0.5207
C11 C 0.29700(9) 0.25146(15) 0.41992(8)
H8 H 0.2668 0.2306 0.4609
C12 C 0.43803(11) 0.39840(18) 0.32392(8)
H9 H 0.4190 0.3242 0.3016
C13 C 0.49839(12) 0.62426(18) 0.39009(11)
H10 H 0.5184 0.6983 0.4121
C14 C 0.12105(12) 0.1322(2) 0.17211(9)
H11 H 0.0738 0.1760 0.1572
C15 C 0.52895(13) 0.5878(2) 0.32939(11)
H12 H 0.5704 0.6383 0.3096
C16 C 0.49934(13) 0.4767(2) 0.29649(10)
H13 H 0.5213 0.4547 0.2552
C17 C 0.22342(13) -0.0336(2) 0.15785(9)
H14 H 0.2452 -0.1030 0.1333
C18 C 0.40889(13) 0.66219(18) 0.52613(10)
H15 H 0.4669 0.6847 0.5279
H16 H 0.3909 0.6326 0.5691
H17 H 0.3772 0.7381 0.5134
C19 C 0.15389(13) 0.0319(2) 0.13532(9)
H18 H 0.1294 0.0078 0.0952
loop_
_geom_bond_atom_site_label_1
_geom_bond_atom_site_label_2
_geom_bond_site_symmetry_1
_geom_bond_site_symmetry_2
O1 C1 1_555 1_555
N1 N2 1_555 1_555
N2 C5 1_555 1_555
C1 N1 1_555 1_555
C2 C3 1_555 1_555
N3 C8 1_555 1_555
C3 C10 1_555 1_555
C4 C5 1_555 1_555
N4 C1 1_555 1_555
H1 N4 1_555 1_555
H2 N4 1_555 1_555
C5 C7 1_555 1_555
C6 C4 1_555 1_555
H3 C6 1_555 1_555
C7 H4 1_555 1_555
H5 C7 1_555 1_555
C8 C2 1_555 1_555
C9 C4 1_555 1_555
H6 C9 1_555 1_555
C10 N3 1_555 1_555
H7 C10 1_555 1_555
C11 N1 1_555 1_555
H8 C11 1_555 1_555
C12 C2 1_555 1_555
H9 C12 1_555 1_555
C13 C8 1_555 1_555
H10 C13 1_555 1_555
C14 C6 1_555 1_555
H11 C14 1_555 1_555
C15 C13 1_555 1_555
H12 C15 1_555 1_555
C16 C12 1_555 1_555
H13 C16 1_555 1_555
C17 C9 1_555 1_555
H14 C17 1_555 1_555
C18 N3 1_555 1_555
H15 C18 1_555 1_555
H16 C18 1_555 1_555
H17 C18 1_555 1_555
C19 C14 1_555 1_555
H18 C19 1_555 1_555
C3 C11 1_555 1_555
C7 C11 1_555 1_555
C15 C16 1_555 1_555
C17 C19 1_555 1_555

#END
