
#######################################################################
#
#                 Cambridge Crystallographic Data Centre
#                                CCDC 
#
#######################################################################
#
# If this CIF has been generated from an entry in the Cambridge 
# Structural Database, then it will include bibliographic, chemical, 
# crystal, experimental, refinement or atomic coordinate data resulting 
# from the CCDC's data processing and validation procedures.
#
#######################################################################

data_IMATUN
_chemical_formula_moiety         'C16 H14 N4'
_chemical_name_systematic        
6,7-Dimethyl-2-phenyl-4H-[1,2,4]triazolo[1,5-a]benzimidazole
_symmetry_cell_setting           monoclinic
_symmetry_space_group_name_H-M   'P 21/n'
_symmetry_Int_Tables_number      14
_space_group_name_Hall           '-P 2yn'
loop_
_symmetry_equiv_pos_site_id
_symmetry_equiv_pos_as_xyz
1 x,y,z
2 1/2-x,1/2+y,1/2-z
3 -x,-y,-z
4 1/2+x,1/2-y,1/2+z
_cell_length_a                   5.9753(6)
_cell_length_b                   15.9285(17)
_cell_length_c                   13.4470(13)
_cell_angle_alpha                90
_cell_angle_beta                 90.062(11)
_cell_angle_gamma                90
_cell_volume                     1279.85
_cell_formula_units_Z            4
loop_
_atom_site_label
_atom_site_type_symbol
_atom_site_fract_x
_atom_site_fract_y
_atom_site_fract_z
C1 C 0.7504(4) 0.04119(15) 0.92980(17)
C2 C 0.9204(4) 0.13294(15) 1.01143(17)
C3 C 0.9595(4) 0.01340(15) 0.79482(16)
C4 C 0.7635(4) -0.03567(15) 0.79362(17)
C5 C 0.7270(4) -0.09100(16) 0.71646(17)
H1 H 0.5949 -0.1242 0.7147
C6 C 0.8851(4) -0.09772(16) 0.64145(18)
C7 C 1.0823(4) -0.04892(16) 0.64373(18)
C8 C 1.1188(4) 0.00725(15) 0.72140(17)
H2 H 1.2506 0.0405 0.7236
C9 C 0.8449(5) -0.15908(18) 0.5579(2)
H3 H 0.7009 -0.1873 0.5680
H4 H 0.9651 -0.2009 0.5571
H5 H 0.8424 -0.1289 0.4944
C10 C 1.2536(5) -0.05674(19) 0.56238(19)
H6 H 1.3796 -0.0191 0.5763
H7 H 1.1855 -0.0414 0.4986
H8 H 1.3075 -0.1148 0.5592
C11 C 0.9699(4) 0.19430(14) 1.08971(18)
C12 C 1.1744(4) 0.23601(16) 1.09241(19)
H9 H 1.2849 0.2243 1.0436
C13 C 1.2173(5) 0.29444(16) 1.1660(2)
H10 H 1.3566 0.3232 1.1673
C14 C 1.0578(5) 0.31118(17) 1.2377(2)
H11 H 1.0877 0.3514 1.2881
C15 C 0.8549(5) 0.26945(16) 1.2362(2)
H12 H 0.7458 0.2806 1.2858
C16 C 0.8115(4) 0.21143(15) 1.16227(19)
H13 H 0.6717 0.1830 1.1611
H14 H 0.494(6) -0.0496(18) 0.906(2)
N1 N 0.6349(4) -0.01750(13) 0.87747(15)
N2 N 0.7287(3) 0.08514(13) 1.01302(14)
N3 N 1.0561(3) 0.12131(12) 0.93379(14)
N4 N 0.9412(3) 0.06068(12) 0.88211(14)
loop_
_geom_bond_atom_site_label_1
_geom_bond_atom_site_label_2
_geom_bond_site_symmetry_1
_geom_bond_site_symmetry_2
C1 N1 1_555 1_555
C2 C11 1_555 1_555
C3 C4 1_555 1_555
C4 C5 1_555 1_555
C5 H1 1_555 1_555
C6 C5 1_555 1_555
C7 C6 1_555 1_555
C8 C3 1_555 1_555
H2 C8 1_555 1_555
C9 C6 1_555 1_555
H3 C9 1_555 1_555
H4 C9 1_555 1_555
H5 C9 1_555 1_555
C10 C7 1_555 1_555
H6 C10 1_555 1_555
H7 C10 1_555 1_555
H8 C10 1_555 1_555
C11 C12 1_555 1_555
C12 H9 1_555 1_555
C13 C12 1_555 1_555
H10 C13 1_555 1_555
C14 C13 1_555 1_555
H11 C14 1_555 1_555
C15 C14 1_555 1_555
H12 C15 1_555 1_555
C16 C11 1_555 1_555
H13 C16 1_555 1_555
H14 N1 1_555 1_555
N1 C4 1_555 1_555
N2 C1 1_555 1_555
N3 C2 1_555 1_555
N4 C1 1_555 1_555
C2 N2 1_555 1_555
C3 N4 1_555 1_555
C7 C8 1_555 1_555
C15 C16 1_555 1_555
N3 N4 1_555 1_555

#END
