
#######################################################################
#
#                 Cambridge Crystallographic Data Centre
#                                CCDC 
#
#######################################################################
#
# If this CIF has been generated from an entry in the Cambridge 
# Structural Database, then it will include bibliographic, chemical, 
# crystal, experimental, refinement or atomic coordinate data resulting 
# from the CCDC's data processing and validation procedures.
#
#######################################################################

data_IMATIB
_chemical_formula_moiety         'C14 H8 F2 N4'
_chemical_name_systematic        
2-(2,6-Difluorophenyl)-4H-[1,2,4]triazolo[1,5-a]benzimidazole
_symmetry_cell_setting           monoclinic
_symmetry_space_group_name_H-M   'P 21/c'
_symmetry_Int_Tables_number      14
_space_group_name_Hall           '-P 2ybc'
loop_
_symmetry_equiv_pos_site_id
_symmetry_equiv_pos_as_xyz
1 x,y,z
2 -x,1/2+y,1/2-z
3 -x,-y,-z
4 x,1/2-y,1/2+z
_cell_length_a                   4.3750(2)
_cell_length_b                   20.1126(13)
_cell_length_c                   13.1678(8)
_cell_angle_alpha                90
_cell_angle_beta                 98.317(6)
_cell_angle_gamma                90
_cell_volume                     1146.48
_cell_formula_units_Z            4
loop_
_atom_site_label
_atom_site_type_symbol
_atom_site_fract_x
_atom_site_fract_y
_atom_site_fract_z
C1 C 0.9860(5) 0.35192(11) 0.40702(16)
C2 C 0.7785(5) 0.44584(11) 0.39732(16)
C3 C 0.4223(5) 0.50684(11) 0.30417(17)
C4 C 0.4122(5) 0.44323(11) 0.25917(16)
C5 C 0.2102(5) 0.42702(12) 0.17236(17)
H1 H 0.2051 0.3838 0.1432
C6 C 0.0156(5) 0.47707(13) 0.13005(19)
H2 H -0.1268 0.4681 0.0700
C7 C 0.0237(5) 0.54043(13) 0.17349(19)
H3 H -0.1123 0.5737 0.1419
C8 C 0.2243(5) 0.55620(12) 0.26128(18)
H4 H 0.2260 0.5993 0.2910
C9 C 1.1954(5) 0.29708(11) 0.44367(17)
C10 C 1.2715(5) 0.24657(12) 0.37944(18)
C11 C 1.4723(5) 0.19576(12) 0.4111(2)
H5 H 1.5181 0.1627 0.3640
C12 C 1.6055(5) 0.19354(13) 0.5118(2)
H6 H 1.7448 0.1586 0.5348
C13 C 1.5389(6) 0.24169(12) 0.5804(2)
H7 H 1.6290 0.2401 0.6504
C14 C 1.3392(5) 0.29179(11) 0.54456(17)
F1 F 1.1472(3) 0.24809(7) 0.27962(11)
F2 F 1.2768(4) 0.33851(7) 0.61321(10)
H8 H 0.733(6) 0.5429(14) 0.433(2)
N1 N 0.7718(4) 0.34564(9) 0.32459(14)
N2 N 0.6394(4) 0.40752(9) 0.32065(14)
N3 N 1.0019(4) 0.41322(9) 0.45529(14)
N4 N 0.6483(4) 0.50718(10) 0.39067(15)
loop_
_geom_bond_atom_site_label_1
_geom_bond_atom_site_label_2
_geom_bond_site_symmetry_1
_geom_bond_site_symmetry_2
C1 C9 1_555 1_555
C2 N2 1_555 1_555
C3 C4 1_555 1_555
C4 C5 1_555 1_555
C5 H1 1_555 1_555
C6 C5 1_555 1_555
H2 C6 1_555 1_555
C7 C6 1_555 1_555
H3 C7 1_555 1_555
C8 C3 1_555 1_555
H4 C8 1_555 1_555
C9 C10 1_555 1_555
C10 C11 1_555 1_555
C11 H5 1_555 1_555
C12 C11 1_555 1_555
H6 C12 1_555 1_555
C13 C12 1_555 1_555
H7 C13 1_555 1_555
C14 C9 1_555 1_555
F1 C10 1_555 1_555
F2 C14 1_555 1_555
H8 N4 1_555 1_555
N1 C1 1_555 1_555
N2 C4 1_555 1_555
N3 C1 1_555 1_555
N4 C2 1_555 1_555
C2 N3 1_555 1_555
C3 N4 1_555 1_555
C7 C8 1_555 1_555
C13 C14 1_555 1_555
N1 N2 1_555 1_555

#END
