
#######################################################################
#
#                 Cambridge Crystallographic Data Centre
#                                CCDC 
#
#######################################################################
#
# If this CIF has been generated from an entry in the Cambridge 
# Structural Database, then it will include bibliographic, chemical, 
# crystal, experimental, refinement or atomic coordinate data resulting 
# from the CCDC's data processing and validation procedures.
#
#######################################################################

data_IMEMUI
_chemical_formula_moiety         'C11 H8 N2'
_chemical_name_systematic        1,1-Dicyano-2-methyl-2-phenylethene
_symmetry_cell_setting           orthorhombic
_symmetry_space_group_name_H-M   'P 21 21 21'
_symmetry_Int_Tables_number      19
_space_group_name_Hall           'P 2ac 2ab'
loop_
_symmetry_equiv_pos_site_id
_symmetry_equiv_pos_as_xyz
1 x,y,z
2 1/2-x,-y,1/2+z
3 -x,1/2+y,1/2-z
4 1/2+x,1/2-y,-z
_cell_length_a                   7.206(2)
_cell_length_b                   7.726(2)
_cell_length_c                   16.364(5)
_cell_angle_alpha                90
_cell_angle_beta                 90
_cell_angle_gamma                90
_cell_volume                     911.042
_exptl_crystal_colour            colorless
_exptl_crystal_description       prism
_cell_formula_units_Z            4
loop_
_atom_site_label
_atom_site_type_symbol
_atom_site_fract_x
_atom_site_fract_y
_atom_site_fract_z
C1 C -0.0416(3) 0.3673(2) 0.17993(12)
C2 C 0.0599(3) 0.3582(3) 0.10807(12)
C3 C 0.2421(3) 0.3016(3) 0.10948(12)
C4 C 0.3237(3) 0.2553(3) 0.18286(12)
C5 C 0.2248(3) 0.2675(3) 0.25507(11)
C6 C 0.0412(2) 0.3247(2) 0.25465(11)
C7 C -0.0664(3) 0.3366(2) 0.33177(11)
C8 C 0.0097(2) 0.3996(2) 0.40093(10)
C9 C 0.1927(3) 0.4744(3) 0.40538(10)
C10 C -0.2644(3) 0.2771(3) 0.33085(16)
C11 C -0.0899(3) 0.4060(3) 0.47754(11)
H1 H -0.171(3) 0.406(3) 0.1799(12)
H2 H 0.003(3) 0.388(3) 0.0582(13)
H3 H 0.313(3) 0.293(3) 0.0594(13)
H4 H 0.447(3) 0.215(3) 0.1822(11)
H5 H 0.279(3) 0.234(3) 0.3043(12)
H6 H -0.318(3) 0.275(4) 0.3831(17)
H7 H -0.271(4) 0.162(4) 0.3048(17)
H8 H -0.340(4) 0.350(4) 0.2940(15)
N1 N 0.3357(3) 0.5382(2) 0.41199(10)
N2 N -0.1647(3) 0.4129(3) 0.53899(10)
loop_
_geom_bond_atom_site_label_1
_geom_bond_atom_site_label_2
_geom_bond_site_symmetry_1
_geom_bond_site_symmetry_2
C1 C2 1_555 1_555
C2 C3 1_555 1_555
C3 C4 1_555 1_555
C4 C5 1_555 1_555
C5 C6 1_555 1_555
C6 C1 1_555 1_555
C7 C6 1_555 1_555
C8 C7 1_555 1_555
C9 C8 1_555 1_555
C10 C7 1_555 1_555
C11 C8 1_555 1_555
H1 C1 1_555 1_555
H2 C2 1_555 1_555
H3 C3 1_555 1_555
H4 C4 1_555 1_555
H5 C5 1_555 1_555
H6 C10 1_555 1_555
H7 C10 1_555 1_555
H8 C10 1_555 1_555
N1 C9 1_555 1_555
N2 C11 1_555 1_555

#END
