
#######################################################################
#
#                 Cambridge Crystallographic Data Centre
#                                CCDC 
#
#######################################################################
#
# If this CIF has been generated from an entry in the Cambridge 
# Structural Database, then it will include bibliographic, chemical, 
# crystal, experimental, refinement or atomic coordinate data resulting 
# from the CCDC's data processing and validation procedures.
#
#######################################################################

data_IMENAP
_chemical_formula_moiety         'C27 H24 N2 O3 S1'
_chemical_name_systematic        
'(1R,3R,4S)-Toluene-4-sulfonic acid 2,2-dicyano-3-methyl-3,4-diphenylcyclopentyl ester'
_symmetry_cell_setting           monoclinic
_symmetry_space_group_name_H-M   'P 21'
_symmetry_Int_Tables_number      4
_space_group_name_Hall           'P 2yb'
loop_
_symmetry_equiv_pos_site_id
_symmetry_equiv_pos_as_xyz
1 x,y,z
2 -x,1/2+y,-z
_cell_length_a                   7.140(3)
_cell_length_b                   21.770(9)
_cell_length_c                   7.897(3)
_cell_angle_alpha                90
_cell_angle_beta                 94.467(7)
_cell_angle_gamma                90
_cell_volume                     1223.76
_exptl_crystal_colour            colorless
_exptl_crystal_description       platy
_cell_formula_units_Z            2
_exptl_crystal_recrystallization_method dichloromethane/heptane
loop_
_atom_site_label
_atom_site_type_symbol
_atom_site_fract_x
_atom_site_fract_y
_atom_site_fract_z
C1 C -0.0250(5) 0.65512(14) 0.8896(4)
H1 H 0.0989 0.6559 0.9580
C2 C -0.1558(4) 0.60763(13) 0.9662(4)
C3 C -0.0769(4) 0.54410(13) 0.8961(4)
C4 C -0.0600(5) 0.56263(13) 0.7065(4)
H2 H -0.1900 0.5614 0.6495
C5 C 0.0020(5) 0.63164(14) 0.7105(4)
H3 H 0.1353 0.6354 0.6855
H4 H -0.0760 0.6556 0.6250
C6 C -0.3521(5) 0.61826(14) 0.8917(4)
C7 C -0.1559(5) 0.61087(15) 1.1524(5)
C8 C -0.2127(4) 0.49180(14) 0.9346(4)
C9 C -0.3690(4) 0.47677(15) 0.8223(5)
H5 H -0.3886 0.4976 0.7167
C10 C -0.4952(5) 0.43140(17) 0.8651(5)
H6 H -0.5982 0.4211 0.7868
C11 C -0.4731(5) 0.40137(16) 1.0183(5)
H7 H -0.5605 0.3709 1.0467
C12 C -0.3210(6) 0.41634(16) 1.1310(5)
H8 H -0.3047 0.3963 1.2379
C13 C -0.1920(5) 0.46061(15) 1.0881(5)
H9 H -0.0873 0.4697 1.1659
C14 C 0.1239(4) 0.53252(16) 0.9835(4)
H10 H 0.1604 0.4898 0.9652
H11 H 0.1234 0.5404 1.1056
H12 H 0.2137 0.5601 0.9345
C15 C 0.0602(4) 0.51883(14) 0.6060(4)
C16 C 0.0059(5) 0.45744(15) 0.5803(4)
H13 H -0.1029 0.4430 0.6299
C17 C 0.1053(5) 0.41678(17) 0.4850(5)
H14 H 0.0656 0.3753 0.4720
C18 C 0.2631(5) 0.43724(18) 0.4089(4)
H15 H 0.3304 0.4101 0.3416
C19 C 0.3209(5) 0.49710(17) 0.4319(4)
H16 H 0.4296 0.5110 0.3812
C20 C 0.2219(5) 0.53775(16) 0.5288(4)
H17 H 0.2645 0.5789 0.5428
C21 C 0.1717(4) 0.77306(15) 1.0607(4)
C22 C 0.3534(5) 0.75114(15) 1.0408(5)
H18 H 0.3891 0.7389 0.9324
C23 C 0.4800(6) 0.74774(16) 1.1834(5)
H19 H 0.6034 0.7331 1.1704
C24 C 0.4336(6) 0.76478(18) 1.3425(5)
C25 C 0.2512(6) 0.7890(2) 1.3572(5)
H20 H 0.2170 0.8030 1.4645
C26 C 0.1220(6) 0.79247(17) 1.2168(5)
H21 H -0.0004 0.8082 1.2285
C27 C 0.5736(7) 0.7596(2) 1.4968(5)
H22 H 0.6994 0.7522 1.4597
H23 H 0.5379 0.7254 1.5683
H24 H 0.5739 0.7979 1.5621
N1 N -0.5007(4) 0.62868(13) 0.8326(4)
N2 N -0.1599(5) 0.61544(15) 1.2987(4)
O1 O -0.1173(3) 0.71482(10) 0.9014(3)
O2 O -0.1266(3) 0.82461(10) 0.9033(3)
O3 O 0.1018(3) 0.77131(12) 0.7314(3)
S1 S 0.00624(11) 0.77614(4) 0.88331(10)
loop_
_geom_bond_atom_site_label_1
_geom_bond_atom_site_label_2
_geom_bond_site_symmetry_1
_geom_bond_site_symmetry_2
C1 H1 1_555 1_555
C2 C1 1_555 1_555
C3 C2 1_555 1_555
C4 C3 1_555 1_555
H2 C4 1_555 1_555
C5 C1 1_555 1_555
H3 C5 1_555 1_555
H4 C5 1_555 1_555
C6 C2 1_555 1_555
C7 C2 1_555 1_555
C8 C3 1_555 1_555
C9 C8 1_555 1_555
H5 C9 1_555 1_555
C10 C9 1_555 1_555
H6 C10 1_555 1_555
C11 C10 1_555 1_555
H7 C11 1_555 1_555
C12 C11 1_555 1_555
H8 C12 1_555 1_555
C13 C8 1_555 1_555
H9 C13 1_555 1_555
C14 C3 1_555 1_555
H10 C14 1_555 1_555
H11 C14 1_555 1_555
H12 C14 1_555 1_555
C15 C4 1_555 1_555
C16 C15 1_555 1_555
H13 C16 1_555 1_555
C17 C16 1_555 1_555
H14 C17 1_555 1_555
C18 C17 1_555 1_555
H15 C18 1_555 1_555
C19 C18 1_555 1_555
H16 C19 1_555 1_555
C20 C15 1_555 1_555
H17 C20 1_555 1_555
C21 C22 1_555 1_555
C22 H18 1_555 1_555
C23 C22 1_555 1_555
H19 C23 1_555 1_555
C24 C23 1_555 1_555
C25 C24 1_555 1_555
H20 C25 1_555 1_555
C26 C21 1_555 1_555
H21 C26 1_555 1_555
C27 C24 1_555 1_555
H22 C27 1_555 1_555
H23 C27 1_555 1_555
H24 C27 1_555 1_555
N1 C6 1_555 1_555
N2 C7 1_555 1_555
O1 C1 1_555 1_555
O2 S1 1_555 1_555
O3 S1 1_555 1_555
S1 C21 1_555 1_555
C4 C5 1_555 1_555
C12 C13 1_555 1_555
C19 C20 1_555 1_555
C25 C26 1_555 1_555
O1 S1 1_555 1_555

#END
