
#######################################################################
#
#                 Cambridge Crystallographic Data Centre
#                                CCDC 
#
#######################################################################
#
# If this CIF has been generated from an entry in the Cambridge 
# Structural Database, then it will include bibliographic, chemical, 
# crystal, experimental, refinement or atomic coordinate data resulting 
# from the CCDC's data processing and validation procedures.
#
#######################################################################

data_IMIJET
_chemical_formula_moiety         'C23 H18 Cl1 N3 O1'
_chemical_name_systematic        
N-(1,5-Dihydro-1-phenyl-3-methyl-4-benzylidene-\a-yl)-3-chloraniline
_symmetry_cell_setting           triclinic
_symmetry_space_group_name_H-M   'P -1'
_symmetry_Int_Tables_number      2
_space_group_name_Hall           '-P 1'
loop_
_symmetry_equiv_pos_site_id
_symmetry_equiv_pos_as_xyz
1 x,y,z
2 -x,-y,-z
_cell_length_a                   9.678(3)
_cell_length_b                   9.999(3)
_cell_length_c                   10.867(3)
_cell_angle_alpha                87.236(6)
_cell_angle_beta                 73.792(6)
_cell_angle_gamma                77.407(6)
_cell_volume                     985.425
_cell_formula_units_Z            2
loop_
_atom_site_label
_atom_site_type_symbol
_atom_site_fract_x
_atom_site_fract_y
_atom_site_fract_z
Cl1 Cl 0.39072(11) -0.24958(9) 1.12808(8)
O1 O 0.5716(2) 0.22012(18) 0.55190(17)
N1 N 0.7850(2) 0.1592(2) 0.38343(19)
N2 N 0.8943(2) 0.0418(2) 0.3392(2)
N3 N 0.5303(2) 0.0042(2) 0.7005(2)
H1 H 0.515(3) 0.091(3) 0.669(3)
C1 C 0.6846(3) 0.1354(3) 0.4944(2)
C2 C 0.7358(3) -0.0053(2) 0.5250(2)
C3 C 0.8656(3) -0.0537(2) 0.4227(2)
C4 C 0.9664(4) -0.1931(3) 0.4015(4)
H2 H 1.034(4) -0.201(3) 0.319(3)
H3 H 0.911(4) -0.257(4) 0.401(3)
H4 H 1.019(4) -0.212(4) 0.466(4)
C5 C 0.6590(3) -0.0697(3) 0.6305(2)
C6 C 0.7758(3) 0.2771(3) 0.3051(2)
C7 C 0.8238(3) 0.2615(3) 0.1738(3)
H5 H 0.865(3) 0.170(3) 0.138(3)
C8 C 0.8147(4) 0.3746(4) 0.0971(3)
H6 H 0.847(3) 0.362(3) 0.004(3)
C9 C 0.7555(4) 0.5032(4) 0.1499(4)
H7 H 0.745(3) 0.578(3) 0.099(3)
C10 C 0.7068(4) 0.5187(3) 0.2808(4)
H8 H 0.661(3) 0.607(3) 0.312(3)
C11 C 0.7169(3) 0.4064(3) 0.3591(3)
H9 H 0.697(3) 0.412(3) 0.448(3)
C12 C 0.7104(3) -0.2136(2) 0.6648(2)
C13 C 0.6332(3) -0.3126(3) 0.6539(3)
H10 H 0.552(3) -0.288(3) 0.612(2)
C14 C 0.6775(4) -0.4444(3) 0.6925(3)
H11 H 0.622(4) -0.512(3) 0.683(3)
C15 C 0.7968(4) -0.4779(3) 0.7414(3)
H12 H 0.826(3) -0.567(3) 0.773(3)
C16 C 0.8744(4) -0.3813(3) 0.7522(3)
H13 H 0.953(3) -0.401(3) 0.788(3)
C17 C 0.8315(3) -0.2479(3) 0.7126(3)
H14 H 0.887(3) -0.175(3) 0.721(3)
C18 C 0.4322(3) -0.0170(3) 0.8190(2)
C19 C 0.4595(4) -0.1177(3) 0.9061(3)
H15 H 0.544(3) -0.180(2) 0.889(2)
C20 C 0.3543(3) -0.1223(3) 1.0205(3)
C21 C 0.2239(4) -0.0282(3) 1.0523(3)
H16 H 0.162(3) -0.035(3) 1.127(3)
C22 C 0.1971(4) 0.0721(4) 0.9663(3)
H17 H 0.116(4) 0.142(3) 0.984(3)
C23 C 0.2991(3) 0.0785(3) 0.8501(3)
H18 H 0.282(3) 0.150(2) 0.787(2)
loop_
_geom_bond_atom_site_label_1
_geom_bond_atom_site_label_2
_geom_bond_site_symmetry_1
_geom_bond_site_symmetry_2
Cl1 C20 1_555 1_555
O1 C1 1_555 1_555
N1 N2 1_555 1_555
N2 C3 1_555 1_555
N3 H1 1_555 1_555
C1 N1 1_555 1_555
C2 C1 1_555 1_555
C3 C2 1_555 1_555
C4 C3 1_555 1_555
H2 C4 1_555 1_555
H3 C4 1_555 1_555
H4 C4 1_555 1_555
C5 N3 1_555 1_555
C6 N1 1_555 1_555
C7 C6 1_555 1_555
H5 C7 1_555 1_555
C8 C7 1_555 1_555
H6 C8 1_555 1_555
C9 C8 1_555 1_555
H7 C9 1_555 1_555
C10 C9 1_555 1_555
H8 C10 1_555 1_555
C11 C6 1_555 1_555
H9 C11 1_555 1_555
C12 C5 1_555 1_555
C13 C12 1_555 1_555
H10 C13 1_555 1_555
C14 C13 1_555 1_555
H11 C14 1_555 1_555
C15 C14 1_555 1_555
H12 C15 1_555 1_555
C16 C15 1_555 1_555
H13 C16 1_555 1_555
C17 C12 1_555 1_555
H14 C17 1_555 1_555
C18 N3 1_555 1_555
C19 C18 1_555 1_555
H15 C19 1_555 1_555
C20 C19 1_555 1_555
C21 C20 1_555 1_555
H16 C21 1_555 1_555
C22 C21 1_555 1_555
H17 C22 1_555 1_555
C23 C18 1_555 1_555
H18 C23 1_555 1_555
C2 C5 1_555 1_555
C10 C11 1_555 1_555
C16 C17 1_555 1_555
C22 C23 1_555 1_555

#END
