
#######################################################################
#
#                 Cambridge Crystallographic Data Centre
#                                CCDC 
#
#######################################################################
#
# If this CIF has been generated from an entry in the Cambridge 
# Structural Database, then it will include bibliographic, chemical, 
# crystal, experimental, refinement or atomic coordinate data resulting 
# from the CCDC's data processing and validation procedures.
#
#######################################################################

data_IMIJIX
_chemical_formula_moiety         
'C99 H79 N31 O18,3(C2 H3 N1),2(C2 H6 O1 S1),3(H2 O1)'
_chemical_name_systematic        
'Di-t-butyl (pyridine-2,6-diylbis(carbonylaminopyridine-6,2-diylaminocarbonylpyridine-6,2-diylcarbonylaminopyridine-6,2-diylaminocarbonylpyridine-6,2-diylcarbonylaminopyridine-6,2-diylaminocarbonylpyridine-6,2-diylcarbonylaminopyridine-6,2-diyl))bis(carbamate) acetonitrile dimethylsulfoxide solvate trihydrate'
_symmetry_cell_setting           monoclinic
_symmetry_space_group_name_H-M   'C 2/c'
_symmetry_Int_Tables_number      15
_space_group_name_Hall           '-C 2yn'
loop_
_symmetry_equiv_pos_site_id
_symmetry_equiv_pos_as_xyz
1 x,y,z
2 x,-y,1/2+z
3 1/2+x,1/2+y,z
4 1/2+x,1/2-y,1/2+z
5 -x,-y,-z
6 -x,y,1/2-z
7 1/2-x,1/2-y,-z
8 1/2-x,1/2+y,1/2-z
_cell_length_a                   31.7503(6)
_cell_length_b                   17.8396(4)
_cell_length_c                   23.1278(5)
_cell_angle_alpha                90
_cell_angle_beta                 115.354(5)
_cell_angle_gamma                90
_cell_volume                     11838.1
_exptl_crystal_colour            colorless
_exptl_crystal_description       prism
_cell_formula_units_Z            4
loop_
_atom_site_label
_atom_site_type_symbol
_atom_site_fract_x
_atom_site_fract_y
_atom_site_fract_z
C1 C 0.1544(4) 0.3216(8) 0.0233(6)
C2 C 0.1097(5) 0.3108(9) -0.0375(6)
C3 C 0.1991(5) 0.301(1) 0.0174(7)
C4 C 0.1563(7) 0.4023(9) 0.0455(8)
O1 O 0.1514(3) 0.2810(5) 0.0766(3)
C5 C 0.1495(4) 0.2046(7) 0.0748(5)
O2 O 0.1458(3) 0.1664(5) 0.0303(3)
N1 N 0.1527(3) 0.1802(5) 0.1333(4)
C6 C 0.1535(3) 0.1068(6) 0.1520(5)
C7 C 0.1479(4) 0.0452(7) 0.1142(5)
C8 C 0.1494(4) -0.0248(7) 0.1390(5)
C9 C 0.1556(4) -0.0329(6) 0.2001(5)
C10 C 0.1608(3) 0.0316(6) 0.2361(5)
N2 N 0.1595(3) 0.0998(5) 0.2132(4)
N3 N 0.1677(3) 0.0328(5) 0.3009(4)
C11 C 0.1814(4) -0.0261(6) 0.3428(5)
O3 O 0.1860(3) -0.0903(5) 0.3302(4)
C12 C 0.1914(4) -0.0019(6) 0.4102(5)
C13 C 0.2036(4) -0.0551(7) 0.4582(5)
C14 C 0.2127(4) -0.0337(7) 0.5185(5)
C15 C 0.2114(4) 0.0411(7) 0.5306(5)
C16 C 0.1992(3) 0.0907(7) 0.4813(5)
N4 N 0.1890(3) 0.0702(5) 0.4217(4)
C17 C 0.1985(4) 0.1738(7) 0.4948(5)
O4 O 0.2109(3) 0.1976(5) 0.5495(3)
N5 N 0.1833(3) 0.2181(5) 0.4424(4)
C18 C 0.1779(3) 0.2953(7) 0.4385(5)
C19 C 0.1946(4) 0.3416(7) 0.4917(5)
C20 C 0.1860(4) 0.4192(7) 0.4800(6)
C21 C 0.1647(4) 0.4468(6) 0.4194(5)
C22 C 0.1507(4) 0.3957(7) 0.3710(6)
N6 N 0.1566(3) 0.3214(5) 0.3784(4)
N7 N 0.1275(3) 0.4165(5) 0.3049(4)
C23 C 0.1165(4) 0.4858(7) 0.2803(6)
O5 O 0.1255(4) 0.5433(5) 0.3113(5)
C24 C 0.0925(4) 0.4866(7) 0.2075(6)
C25 C 0.0839(5) 0.5562(8) 0.1747(8)
C26 C 0.0633(6) 0.5567(9) 0.1105(7)
C27 C 0.0511(5) 0.491(1) 0.0779(7)
C28 C 0.0613(4) 0.4241(8) 0.1128(6)
N8 N 0.0804(3) 0.4225(6) 0.1756(4)
C29 C 0.0461(4) 0.351(1) 0.0779(6)
O6 O 0.0263(3) 0.3487(7) 0.0195(4)
N9 N 0.0559(3) 0.2920(7) 0.1177(4)
C30 C 0.0466(4) 0.2163(9) 0.1035(5)
C31 C 0.0333(4) 0.185(1) 0.0430(6)
C32 C 0.0265(5) 0.109(1) 0.0371(7)
C33 C 0.0303(5) 0.070(1) 0.0884(8)
C34 C 0.0435(4) 0.1021(8) 0.1464(6)
N10 N 0.0510(3) 0.1751(6) 0.1535(4)
N11 N 0.0502(3) 0.0666(6) 0.2026(5)
C35 C 0.0483(5) -0.0065(9) 0.2156(9)
O7 O 0.0376(3) -0.0554(6) 0.1735(6)
C36 C 0.0587(4) -0.0249(8) 0.2834(8)
C37 C 0.0630(6) -0.100(1) 0.297(1)
C38 C 0.0735(6) -0.116(1) 0.357(1)
C39 C 0.0792(6) -0.060(1) 0.4053(9)
C40 C 0.0740(4) 0.0165(8) 0.3864(7)
N12 N 0.0635(3) 0.0311(7) 0.3237(6)
C41 C 0.0811(5) 0.081(1) 0.4278(7)
O8 O 0.0920(4) 0.0695(9) 0.4855(5)
N13 N 0.0718(3) 0.1487(7) 0.4008(5)
C42 C 0.0736(4) 0.221(1) 0.4252(6)
C43 C 0.0960(4) 0.230(1) 0.4944(6)
C44 C 0.0970(6) 0.302(1) 0.5135(7)
C45 C 0.0787(5) 0.359(1) 0.4719(8)
C46 C 0.0561(4) 0.345(1) 0.4021(6)
N14 N 0.0560(3) 0.2722(7) 0.3842(5)
N15 N 0.0385(4) 0.3978(8) 0.3565(6)
C47 C 0.0387(5) 0.4732(9) 0.3621(8)
O9 O 0.0534(4) 0.5041(8) 0.4138(7)
C48 C 0.0183(5) 0.510(1) 0.306(1)
C49 C 0.0190(6) 0.592(1) 0.306(1)
C50 C 0.0000 0.626(2) 0.2500
N16 N 0.0000 0.475(1) 0.2500
H1 H 0.1120 0.3372 -0.0717
H2 H 0.1053 0.2589 -0.0477
H3 H 0.0840 0.3294 -0.0311
H4 H 0.2005 0.3276 -0.0173
H5 H 0.2254 0.3136 0.0559
H6 H 0.1993 0.2485 0.0100
H7 H 0.1583 0.4351 0.0145
H8 H 0.1289 0.4132 0.0509
H9 H 0.1828 0.4089 0.0852
H10 H 0.1430 0.0511 0.0709
H11 H 0.1460 -0.0679 0.1131
H12 H 0.1564 -0.0811 0.2180
H13 H 0.2055 -0.1065 0.4489
H14 H 0.2199 -0.0697 0.5517
H15 H 0.2189 0.0582 0.5728
H16 H 0.2109 0.3222 0.5338
H17 H 0.1952 0.4527 0.5152
H18 H 0.1600 0.4990 0.4112
H19 H 0.0927 0.6019 0.1979
H20 H 0.0572 0.6030 0.0880
H21 H 0.0359 0.4908 0.0324
H22 H 0.0291 0.2154 0.0071
H23 H 0.0192 0.0842 -0.0026
H24 H 0.0236 0.0175 0.0840
H25 H 0.0587 -0.1373 0.2653
H26 H 0.0775 -0.1676 0.3697
H27 H 0.0863 -0.0738 0.4481
H28 H 0.1086 0.1899 0.5234
H29 H 0.1112 0.3130 0.5580
H30 H 0.0803 0.4091 0.4876
H31 H 0.0000 0.6793 0.2500
H32 H 0.0323 0.6201 0.3451
H33 H 0.1544 0.2177 0.1633
H34 H 0.1622 0.0792 0.3167
H35 H 0.1751 0.1930 0.4028
H36 H 0.1187 0.3766 0.2749
H37 H 0.0714 0.3037 0.1619
H38 H 0.0573 0.0992 0.2380
H39 H 0.0620 0.1476 0.3558
H40 H 0.0236 0.3792 0.3140
C49E C -0.0190(6) 0.592(1) 0.194(1)
C48E C -0.0183(5) 0.510(1) 0.194(1)
C47E C -0.0387(5) 0.4732(9) 0.1379(8)
N15E N -0.0385(4) 0.3978(8) 0.1435(6)
C46E C -0.0561(4) 0.345(1) 0.0979(6)
C45E C -0.0787(5) 0.359(1) 0.0281(8)
C44E C -0.0970(6) 0.302(1) -0.0135(7)
C43E C -0.0960(4) 0.230(1) 0.0056(6)
C42E C -0.0736(4) 0.221(1) 0.0748(6)
N13E N -0.0718(3) 0.1487(7) 0.0992(5)
C41E C -0.0811(5) 0.081(1) 0.0722(7)
C40E C -0.0740(4) 0.0165(8) 0.1136(7)
C39E C -0.0792(6) -0.060(1) 0.0947(9)
C38E C -0.0735(6) -0.116(1) 0.143(1)
C37E C -0.0630(6) -0.100(1) 0.203(1)
C36E C -0.0587(4) -0.0249(8) 0.2166(8)
C35E C -0.0483(5) -0.0065(9) 0.2844(9)
N11E N -0.0502(3) 0.0666(6) 0.2974(5)
C34E C -0.0435(4) 0.1021(8) 0.3536(6)
C33E C -0.0303(5) 0.070(1) 0.4116(8)
C32E C -0.0265(5) 0.109(1) 0.4629(7)
C31E C -0.0333(4) 0.185(1) 0.4570(6)
C30E C -0.0466(4) 0.2163(9) 0.3965(5)
N9E N -0.0559(3) 0.2920(7) 0.3823(4)
C29E C -0.0461(4) 0.351(1) 0.4221(6)
C28E C -0.0613(4) 0.4241(8) 0.3872(6)
C27E C -0.0511(5) 0.491(1) 0.4221(7)
C26E C -0.0633(6) 0.5567(9) 0.3895(7)
C25E C -0.0839(5) 0.5562(8) 0.3253(8)
C24E C -0.0925(4) 0.4866(7) 0.2925(6)
C23E C -0.1165(4) 0.4858(7) 0.2197(6)
N7E N -0.1275(3) 0.4165(5) 0.1951(4)
C22E C -0.1507(4) 0.3957(7) 0.1290(6)
C21E C -0.1647(4) 0.4468(6) 0.0806(5)
C20E C -0.1860(4) 0.4192(7) 0.0200(6)
C19E C -0.1946(4) 0.3416(7) 0.0083(5)
C18E C -0.1779(3) 0.2953(7) 0.0615(5)
N5E N -0.1833(3) 0.2181(5) 0.0576(4)
C17E C -0.1985(4) 0.1738(7) 0.0052(5)
C16E C -0.1992(3) 0.0907(7) 0.0187(5)
C15E C -0.2114(4) 0.0411(7) -0.0306(5)
C14E C -0.2127(4) -0.0337(7) -0.0185(5)
C13E C -0.2036(4) -0.0551(7) 0.0418(5)
C12E C -0.1914(4) -0.0019(6) 0.0898(5)
C11E C -0.1814(4) -0.0261(6) 0.1572(5)
N3E N -0.1677(3) 0.0328(5) 0.1991(4)
C10E C -0.1608(3) 0.0316(6) 0.2639(5)
C9E C -0.1556(4) -0.0329(6) 0.2999(5)
C8E C -0.1494(4) -0.0248(7) 0.3610(5)
C7E C -0.1479(4) 0.0452(7) 0.3858(5)
C6E C -0.1535(3) 0.1068(6) 0.3480(5)
N1E N -0.1527(3) 0.1802(5) 0.3667(4)
C5E C -0.1495(4) 0.2046(7) 0.4252(5)
O1E O -0.1514(3) 0.2810(5) 0.4234(3)
C1E C -0.1544(4) 0.3216(8) 0.4767(6)
C2E C -0.1097(5) 0.3108(9) 0.5375(6)
H1E H -0.1120 0.3372 0.5717
H2E H -0.1053 0.2589 0.5477
H3E H -0.0840 0.3294 0.5311
C3E C -0.1991(5) 0.301(1) 0.4826(7)
H4E H -0.2005 0.3276 0.5173
H5E H -0.2254 0.3136 0.4441
H6E H -0.1993 0.2485 0.4900
C4E C -0.1563(7) 0.4023(9) 0.4545(8)
H7E H -0.1583 0.4351 0.4855
H8E H -0.1289 0.4132 0.4491
H9E H -0.1828 0.4089 0.4148
O2E O -0.1458(3) 0.1664(5) 0.4697(3)
H33E H -0.1544 0.2177 0.3367
N2E N -0.1595(3) 0.0998(5) 0.2868(4)
H10E H -0.1430 0.0511 0.4291
H11E H -0.1460 -0.0679 0.3869
H12E H -0.1564 -0.0811 0.2820
H34E H -0.1622 0.0792 0.1833
O3E O -0.1860(3) -0.0903(5) 0.1698(4)
N4E N -0.1890(3) 0.0702(5) 0.0783(4)
H13E H -0.2055 -0.1065 0.0511
H14E H -0.2199 -0.0697 -0.0517
H15E H -0.2189 0.0582 -0.0728
O4E O -0.2109(3) 0.1976(5) -0.0495(3)
H35E H -0.1751 0.1930 0.0972
N6E N -0.1566(3) 0.3214(5) 0.1216(4)
H16E H -0.2109 0.3222 -0.0338
H17E H -0.1952 0.4527 -0.0152
H18E H -0.1600 0.4990 0.0888
H36E H -0.1187 0.3766 0.2251
O5E O -0.1255(4) 0.5433(5) 0.1887(5)
N8E N -0.0804(3) 0.4225(6) 0.3244(4)
H19E H -0.0927 0.6019 0.3021
H20E H -0.0572 0.6030 0.4120
H21E H -0.0359 0.4908 0.4676
O6E O -0.0263(3) 0.3487(7) 0.4805(4)
H37E H -0.0714 0.3037 0.3381
N10E N -0.0510(3) 0.1751(6) 0.3465(4)
H22E H -0.0291 0.2154 0.4929
H23E H -0.0192 0.0842 0.5026
H24E H -0.0236 0.0175 0.4160
H38E H -0.0573 0.0992 0.2620
O7E O -0.0376(3) -0.0554(6) 0.3265(6)
N12E N -0.0635(3) 0.0311(7) 0.1763(6)
H25E H -0.0587 -0.1373 0.2347
H26E H -0.0775 -0.1676 0.1303
H27E H -0.0863 -0.0738 0.0519
O8E O -0.0920(4) 0.0695(9) 0.0145(5)
H39E H -0.0620 0.1476 0.1442
N14E N -0.0560(3) 0.2722(7) 0.1158(5)
H28E H -0.1086 0.1899 -0.0234
H29E H -0.1112 0.3130 -0.0580
H30E H -0.0803 0.4091 0.0124
H40E H -0.0236 0.3792 0.1860
O9E O -0.0534(4) 0.5041(8) 0.0862(7)
H32E H -0.0323 0.6201 0.1549
S1 S 0.2097(1) 0.3151(2) 0.2777(2)
O10 O 0.1691(1) 0.2951(2) 0.2273(2)
C52 C 0.2394(6) 0.230(1) 0.3172(8)
C59 C 0.2478(1) 0.3058(1) 0.2270(1)
N17 N 0.2894(5) 0.056(1) 0.351(1)
C53 C 0.2905(5) 0.0543(1) 0.3026(1)
C54 C 0.2790(5) 0.0601(1) 0.2354(1)
N18 N 0.3638(6) 0.253(1) 0.3148(7)
C55 C 0.4003(6) 0.2729(1) 0.3489(7)
C56 C 0.4507(6) 0.2842(1) 0.3778(7)
O11 O 0.1231(3) 0.1856(5) 0.3002(4)
O12 O 0.034(1) 0.291(1) 0.2476(9)
C57 C 0.3068(5) 0.2001(8) 0.1519(6)
C58 C 0.3555(5) 0.2316(8) 0.1789(6)
N19 N 0.2700(5) 0.1698(8) 0.1345(6)
C51? C 0.2334(1) 0.3378(2) 0.2183(2)
O13? O 0.1947(1) 0.3607(1) 0.2244(1)
loop_
_geom_bond_atom_site_label_1
_geom_bond_atom_site_label_2
_geom_bond_site_symmetry_1
_geom_bond_site_symmetry_2
C1 C2 1_555 1_555
C2 H1 1_555 1_555
C3 C1 1_555 1_555
C4 C1 1_555 1_555
O1 C1 1_555 1_555
C5 O1 1_555 1_555
O2 C5 1_555 1_555
N1 C5 1_555 1_555
C6 N1 1_555 1_555
C7 C6 1_555 1_555
C8 C7 1_555 1_555
C9 C8 1_555 1_555
C10 C9 1_555 1_555
N2 C6 1_555 1_555
N3 C10 1_555 1_555
C11 N3 1_555 1_555
O3 C11 1_555 1_555
C12 C11 1_555 1_555
C13 C12 1_555 1_555
C14 C13 1_555 1_555
C15 C14 1_555 1_555
C16 C15 1_555 1_555
N4 C12 1_555 1_555
C17 C16 1_555 1_555
O4 C17 1_555 1_555
N5 C17 1_555 1_555
C18 N5 1_555 1_555
C19 C18 1_555 1_555
C20 C19 1_555 1_555
C21 C20 1_555 1_555
C22 C21 1_555 1_555
N6 C18 1_555 1_555
N7 C22 1_555 1_555
C23 N7 1_555 1_555
O5 C23 1_555 1_555
C24 C23 1_555 1_555
C25 C24 1_555 1_555
C26 C25 1_555 1_555
C27 C26 1_555 1_555
C28 C27 1_555 1_555
N8 C24 1_555 1_555
C29 C28 1_555 1_555
O6 C29 1_555 1_555
N9 C29 1_555 1_555
C30 N9 1_555 1_555
C31 C30 1_555 1_555
C32 C31 1_555 1_555
C33 C32 1_555 1_555
C34 C33 1_555 1_555
N10 C30 1_555 1_555
N11 C34 1_555 1_555
C35 N11 1_555 1_555
O7 C35 1_555 1_555
C36 C35 1_555 1_555
C37 C36 1_555 1_555
C38 C37 1_555 1_555
C39 C38 1_555 1_555
C40 C39 1_555 1_555
N12 C36 1_555 1_555
C41 C40 1_555 1_555
O8 C41 1_555 1_555
N13 C41 1_555 1_555
C42 N13 1_555 1_555
C43 C42 1_555 1_555
C44 C43 1_555 1_555
C45 C44 1_555 1_555
C46 C45 1_555 1_555
N14 C42 1_555 1_555
N15 C46 1_555 1_555
C47 N15 1_555 1_555
O9 C47 1_555 1_555
C48 C47 1_555 1_555
C49 C48 1_555 1_555
C50 C49 1_555 1_555
N16 C48 1_555 1_555
S1 O10 1_555 1_555
C52 S1 1_555 1_555
N17 C53 1_555 1_555
C53 C54 1_555 1_555
N18 C55 1_555 1_555
C55 C56 1_555 1_555
C57 C58 1_555 1_555
N19 C57 1_555 1_555
C59 S1 1_555 1_555
H2 C2 1_555 1_555
H3 C2 1_555 1_555
H4 C3 1_555 1_555
H5 C3 1_555 1_555
H6 C3 1_555 1_555
H7 C4 1_555 1_555
H8 C4 1_555 1_555
H9 C4 1_555 1_555
H10 C7 1_555 1_555
H11 C8 1_555 1_555
H12 C9 1_555 1_555
H13 C13 1_555 1_555
H14 C14 1_555 1_555
H15 C15 1_555 1_555
H16 C19 1_555 1_555
H17 C20 1_555 1_555
H18 C21 1_555 1_555
H19 C25 1_555 1_555
H20 C26 1_555 1_555
H21 C27 1_555 1_555
H22 C31 1_555 1_555
H23 C32 1_555 1_555
H24 C33 1_555 1_555
H25 C37 1_555 1_555
H26 C38 1_555 1_555
H27 C39 1_555 1_555
H28 C43 1_555 1_555
H29 C44 1_555 1_555
H30 C45 1_555 1_555
H31 C50 1_555 1_555
H32 C49 1_555 1_555
H33 N1 1_555 1_555
H34 N3 1_555 1_555
H35 N5 1_555 1_555
H36 N7 1_555 1_555
H37 N9 1_555 1_555
H38 N11 1_555 1_555
H39 N13 1_555 1_555
H40 N15 1_555 1_555
C49E C50 1_555 1_555
C48E N16 1_555 1_555
C47E C48E 1_555 1_555
N15E C47E 1_555 1_555
C46E N15E 1_555 1_555
C45E C46E 1_555 1_555
C44E C45E 1_555 1_555
C43E C44E 1_555 1_555
C42E C43E 1_555 1_555
N13E C42E 1_555 1_555
C41E N13E 1_555 1_555
C40E C41E 1_555 1_555
C39E C40E 1_555 1_555
C38E C39E 1_555 1_555
C37E C38E 1_555 1_555
C36E C37E 1_555 1_555
C35E C36E 1_555 1_555
N11E C35E 1_555 1_555
C34E N11E 1_555 1_555
C33E C34E 1_555 1_555
C32E C33E 1_555 1_555
C31E C32E 1_555 1_555
C30E C31E 1_555 1_555
N9E C30E 1_555 1_555
C29E N9E 1_555 1_555
C28E C29E 1_555 1_555
C27E C28E 1_555 1_555
C26E C27E 1_555 1_555
C25E C26E 1_555 1_555
C24E C25E 1_555 1_555
C23E C24E 1_555 1_555
N7E C23E 1_555 1_555
C22E N7E 1_555 1_555
C21E C22E 1_555 1_555
C20E C21E 1_555 1_555
C19E C20E 1_555 1_555
C18E C19E 1_555 1_555
N5E C18E 1_555 1_555
C17E N5E 1_555 1_555
C16E C17E 1_555 1_555
C15E C16E 1_555 1_555
C14E C15E 1_555 1_555
C13E C14E 1_555 1_555
C12E C13E 1_555 1_555
C11E C12E 1_555 1_555
N3E C11E 1_555 1_555
C10E N3E 1_555 1_555
C9E C10E 1_555 1_555
C8E C9E 1_555 1_555
C7E C8E 1_555 1_555
C6E C7E 1_555 1_555
N1E C6E 1_555 1_555
C5E N1E 1_555 1_555
O1E C5E 1_555 1_555
C1E O1E 1_555 1_555
C2E C1E 1_555 1_555
H1E C2E 1_555 1_555
H2E C2E 1_555 1_555
H3E C2E 1_555 1_555
C3E C1E 1_555 1_555
H4E C3E 1_555 1_555
H5E C3E 1_555 1_555
H6E C3E 1_555 1_555
C4E C1E 1_555 1_555
H7E C4E 1_555 1_555
H8E C4E 1_555 1_555
H9E C4E 1_555 1_555
O2E C5E 1_555 1_555
H33E N1E 1_555 1_555
N2E C10E 1_555 1_555
H10E C7E 1_555 1_555
H11E C8E 1_555 1_555
H12E C9E 1_555 1_555
H34E N3E 1_555 1_555
O3E C11E 1_555 1_555
N4E C16E 1_555 1_555
H13E C13E 1_555 1_555
H14E C14E 1_555 1_555
H15E C15E 1_555 1_555
O4E C17E 1_555 1_555
H35E N5E 1_555 1_555
N6E C22E 1_555 1_555
H16E C19E 1_555 1_555
H17E C20E 1_555 1_555
H18E C21E 1_555 1_555
H36E N7E 1_555 1_555
O5E C23E 1_555 1_555
N8E C28E 1_555 1_555
H19E C25E 1_555 1_555
H20E C26E 1_555 1_555
H21E C27E 1_555 1_555
O6E C29E 1_555 1_555
H37E N9E 1_555 1_555
N10E C34E 1_555 1_555
H22E C31E 1_555 1_555
H23E C32E 1_555 1_555
H24E C33E 1_555 1_555
H38E N11E 1_555 1_555
O7E C35E 1_555 1_555
N12E C40E 1_555 1_555
H25E C37E 1_555 1_555
H26E C38E 1_555 1_555
H27E C39E 1_555 1_555
O8E C41E 1_555 1_555
H39E N13E 1_555 1_555
N14E C46E 1_555 1_555
H28E C43E 1_555 1_555
H29E C44E 1_555 1_555
H30E C45E 1_555 1_555
H40E N15E 1_555 1_555
O9E C47E 1_555 1_555
H32E C49E 1_555 1_555
C10 N2 1_555 1_555
C16 N4 1_555 1_555
C22 N6 1_555 1_555
C28 N8 1_555 1_555
C34 N10 1_555 1_555
C40 N12 1_555 1_555
C46 N14 1_555 1_555
C49E C48E 1_555 1_555
C42E N14E 1_555 1_555
C36E N12E 1_555 1_555
C30E N10E 1_555 1_555
C24E N8E 1_555 1_555
C18E N6E 1_555 1_555
C12E N4E 1_555 1_555
C6E N2E 1_555 1_555

#END
