
#######################################################################
#
#                 Cambridge Crystallographic Data Centre
#                                CCDC 
#
#######################################################################
#
# If this CIF has been generated from an entry in the Cambridge 
# Structural Database, then it will include bibliographic, chemical, 
# crystal, experimental, refinement or atomic coordinate data resulting 
# from the CCDC's data processing and validation procedures.
#
#######################################################################

data_IMIKEW
_chemical_formula_moiety         'C11 H16 N8 O1'
_chemical_name_systematic        
2-methyl-1-(4-([1,2,4]triazolo[4,3-b][1,2,4,5]tetrazin-6-yl)piperazin-1-yl)propan-1-one
_chemical_properties_biological  'antiproliferative activity'
_symmetry_cell_setting           monoclinic
_symmetry_space_group_name_H-M   'P 21/c'
_symmetry_Int_Tables_number      14
_space_group_name_Hall           '-P 2ybc'
loop_
_symmetry_equiv_pos_site_id
_symmetry_equiv_pos_as_xyz
1 x,y,z
2 -x,1/2+y,1/2-z
3 -x,-y,-z
4 x,1/2-y,1/2+z
_cell_length_a                   17.846(4)
_cell_length_b                   10.822(2)
_cell_length_c                   15.269(3)
_cell_angle_alpha                90
_cell_angle_beta                 115.049(3)
_cell_angle_gamma                90
_cell_volume                     2671.54
_exptl_crystal_colour            red
_exptl_crystal_description       Prism
_cell_formula_units_Z            8
loop_
_atom_site_label
_atom_site_type_symbol
_atom_site_fract_x
_atom_site_fract_y
_atom_site_fract_z
O1 O 0.37205(6) 0.37097(9) 0.32698(7)
N1 N 0.83505(8) 0.89622(12) 0.39992(10)
N2 N 0.87144(8) 0.79629(13) 0.37781(10)
N3 N 0.74721(6) 0.73907(10) 0.35514(8)
N4 N 0.67554(7) 0.67575(10) 0.33361(8)
N5 N 0.63004(7) 0.87011(10) 0.37697(9)
N6 N 0.70012(7) 0.92403(11) 0.39873(8)
N7 N 0.54036(8) 0.70587(12) 0.30933(10)
N8 N 0.44923(7) 0.54442(10) 0.37393(9)
C1 C 0.81832(8) 0.70250(14) 0.35139(11)
H1 H 0.8286 0.6228 0.3329
C2 C 0.75970(8) 0.85913(12) 0.38520(9)
C3 C 0.61873(8) 0.74798(12) 0.34044(9)
C4 C 0.51905(10) 0.58076(14) 0.26888(13)
H2 H 0.5627 0.5496 0.2507
H3 H 0.4663 0.5829 0.2099
C5 C 0.51078(9) 0.49504(13) 0.34317(12)
H4 H 0.4936 0.4119 0.3147
H5 H 0.5649 0.4872 0.3998
C6 C 0.46804(8) 0.67027(12) 0.41309(10)
H6 H 0.5190 0.6692 0.4742
H7 H 0.4222 0.7009 0.4276
C7 C 0.47983(9) 0.75705(13) 0.34135(11)
H8 H 0.4262 0.7693 0.2847
H9 H 0.4993 0.8385 0.3722
C8 C 0.38122(8) 0.47686(12) 0.36079(9)
C9 C 0.31441(8) 0.53433(13) 0.38559(10)
H10 H 0.3415 0.5869 0.4446
C10 C 0.25815(9) 0.61543(14) 0.30161(12)
H11 H 0.2909 0.6813 0.2907
H12 H 0.2150 0.6521 0.3172
H13 H 0.2324 0.5650 0.2431
C11 C 0.26474(11) 0.43237(16) 0.40629(13)
H14 H 0.2365 0.3821 0.3481
H15 H 0.2237 0.4697 0.4251
H16 H 0.3022 0.3799 0.4590
O2 O -0.13846(9) 0.43522(11) 0.31139(10)
N9 N 0.34487(9) -0.10658(13) 0.41829(12)
N10 N 0.38581(9) -0.00901(14) 0.40216(11)
N11 N 0.26474(8) 0.05865(11) 0.38321(9)
N12 N 0.19606(8) 0.12802(11) 0.36550(10)
N13 N 0.14126(8) -0.06581(11) 0.39657(10)
N14 N 0.20875(9) -0.12530(11) 0.41563(11)
N15 N 0.06110(10) 0.11075(12) 0.34135(14)
N16 N -0.06156(8) 0.26188(10) 0.35908(9)
C12 C 0.33733(10) 0.09012(15) 0.38184(11)
H17 H 0.3516 0.1703 0.3685
C13 C 0.27142(10) -0.06376(13) 0.40625(12)
C14 C 0.13579(9) 0.05902(12) 0.36774(11)
C15 C 0.0320(2) 0.2267(3) 0.2793(3)
H18 H 0.0764 0.2603 0.2635
H19 H -0.0171 0.2089 0.2184
C16 C 0.0113(2) 0.3140(3) 0.3402(3)
H20 H -0.0043 0.3950 0.3073
H21 H 0.0602 0.3264 0.4025
C17 C -0.03874(8) 0.14273(11) 0.40971(9)
H22 H -0.0874 0.1065 0.4155
H23 H 0.0052 0.1555 0.4757
C18 C -0.00825(10) 0.05515(13) 0.35457(12)
H24 H 0.0097 -0.0234 0.3906
H25 H -0.0538 0.0366 0.2907
C19 C -0.12092(9) 0.33933(13) 0.35971(10)
C20 C -0.16180(10) 0.30964(13) 0.42602(12)
H26 H -0.1654 0.2178 0.4307
C21 C -0.24828(11) 0.36362(18) 0.38975(15)
H27 H -0.2449 0.4540 0.3925
H28 H -0.2748 0.3343 0.4305
H29 H -0.2810 0.3374 0.3228
C22 C -0.10717(12) 0.3599(2) 0.52435(13)
H30 H -0.0530 0.3194 0.5486
H31 H -0.1327 0.3440 0.5688
H32 H -0.1002 0.4492 0.5197
C23? C 0.06317(17) 0.2497(2) 0.3363(2)
H33? H 0.0917 0.2766 0.2964
H34? H 0.0921 0.2857 0.4018
C24? C -0.02805(17) 0.2892(2) 0.2899(2)
H35? H -0.0327 0.3787 0.2749
H36? H -0.0586 0.2430 0.2291
loop_
_geom_bond_atom_site_label_1
_geom_bond_atom_site_label_2
_geom_bond_site_symmetry_1
_geom_bond_site_symmetry_2
O1 C8 1_555 1_555
N1 N2 1_555 1_555
N2 C1 1_555 1_555
N3 N4 1_555 1_555
N4 C3 1_555 1_555
N5 N6 1_555 1_555
N6 C2 1_555 1_555
N7 C3 1_555 1_555
N8 C5 1_555 1_555
C1 N3 1_555 1_555
H1 C1 1_555 1_555
C2 N1 1_555 1_555
C3 N5 1_555 1_555
C4 N7 1_555 1_555
H2 C4 1_555 1_555
H3 C4 1_555 1_555
C5 C4 1_555 1_555
H4 C5 1_555 1_555
H5 C5 1_555 1_555
C6 N8 1_555 1_555
H6 C6 1_555 1_555
H7 C6 1_555 1_555
C7 N7 1_555 1_555
H8 C7 1_555 1_555
H9 C7 1_555 1_555
C8 N8 1_555 1_555
C9 C8 1_555 1_555
H10 C9 1_555 1_555
C10 C9 1_555 1_555
H11 C10 1_555 1_555
H12 C10 1_555 1_555
H13 C10 1_555 1_555
C11 C9 1_555 1_555
H14 C11 1_555 1_555
H15 C11 1_555 1_555
H16 C11 1_555 1_555
O2 C19 1_555 1_555
N9 N10 1_555 1_555
N10 C12 1_555 1_555
N11 N12 1_555 1_555
N12 C14 1_555 1_555
N13 N14 1_555 1_555
N14 C13 1_555 1_555
N15 C14 1_555 1_555
N16 C16 1_555 1_555
C12 N11 1_555 1_555
H17 C12 1_555 1_555
C13 N9 1_555 1_555
C14 N13 1_555 1_555
C15 N15 1_555 1_555
H18 C15 1_555 1_555
H19 C15 1_555 1_555
C16 C15 1_555 1_555
H20 C16 1_555 1_555
H21 C16 1_555 1_555
C17 N16 1_555 1_555
H22 C17 1_555 1_555
H23 C17 1_555 1_555
C18 N15 1_555 1_555
H24 C18 1_555 1_555
H25 C18 1_555 1_555
C19 N16 1_555 1_555
C20 C19 1_555 1_555
H26 C20 1_555 1_555
C21 C20 1_555 1_555
H27 C21 1_555 1_555
H28 C21 1_555 1_555
H29 C21 1_555 1_555
C22 C20 1_555 1_555
H30 C22 1_555 1_555
H31 C22 1_555 1_555
H32 C22 1_555 1_555
N3 C2 1_555 1_555
C6 C7 1_555 1_555
N11 C13 1_555 1_555
C17 C18 1_555 1_555

#END
