
#######################################################################
#
#                 Cambridge Crystallographic Data Centre
#                                CCDC 
#
#######################################################################
#
# If this CIF has been generated from an entry in the Cambridge 
# Structural Database, then it will include bibliographic, chemical, 
# crystal, experimental, refinement or atomic coordinate data resulting 
# from the CCDC's data processing and validation procedures.
#
#######################################################################

data_IMILIZ
_chemical_formula_moiety         'C18 H11 Cl1 O2'
_chemical_name_systematic        
7-Chloromethyl-benzo(b)naphtho(1,2-d)pyran-6-one
_symmetry_cell_setting           monoclinic
_symmetry_space_group_name_H-M   'P 21/c'
_symmetry_Int_Tables_number      14
_space_group_name_Hall           '-P 2ybc'
loop_
_symmetry_equiv_pos_site_id
_symmetry_equiv_pos_as_xyz
1 x,y,z
2 x,1/2-y,1/2+z
3 -x,-y,-z
4 -x,1/2+y,1/2-z
_cell_length_a                   9.9771(5)
_cell_length_b                   16.1368(8)
_cell_length_c                   8.2899(4)
_cell_angle_alpha                90
_cell_angle_beta                 98.1290(10)
_cell_angle_gamma                90
_cell_volume                     1321.25
_exptl_crystal_colour            colorless
_exptl_crystal_description       block
_cell_formula_units_Z            4
_exptl_crystal_recrystallization_method dichloromethane-acetone
loop_
_atom_site_label
_atom_site_type_symbol
_atom_site_fract_x
_atom_site_fract_y
_atom_site_fract_z
Cl1 Cl 0.57400(5) 0.04931(3) 0.69791(6)
O1 O 1.06207(12) -0.02294(8) 0.68746(15)
O2 O 0.91060(16) 0.07091(9) 0.7126(2)
C1 C 1.12861(17) -0.09531(10) 0.7363(2)
C2 C 1.25689(19) -0.10377(13) 0.6925(2)
C3 C 1.3334(2) -0.17165(13) 0.7473(2)
C4 C 1.28303(18) -0.22966(12) 0.8453(2)
C5 C 1.15440(17) -0.22109(11) 0.8863(2)
C6 C 1.07073(16) -0.15433(10) 0.82790(18)
C7 C 0.93398(15) -0.13882(9) 0.86682(17)
C8 C 0.88200(16) -0.05866(9) 0.84402(19)
C9 C 0.94942(17) 0.00196(10) 0.7489(2)
C10 C 0.85193(15) -0.20265(10) 0.92574(18)
C11 C 0.87364(17) -0.28889(10) 0.9083(2)
C12 C 0.78871(19) -0.34572(11) 0.9626(2)
C13 C 0.67945(19) -0.32074(12) 1.0397(2)
C14 C 0.65283(18) -0.23876(12) 1.0537(2)
C15 C 0.73459(16) -0.17806(10) 0.99271(18)
C16 C 0.69621(17) -0.09338(11) 0.9865(2)
C17 C 0.75984(16) -0.03556(10) 0.90550(19)
C18 C 0.6941(2) 0.04808(11) 0.8831(2)
H1 H 1.289(2) -0.0601(13) 0.627(3)
H2 H 1.419(3) -0.1773(14) 0.716(3)
H3 H 1.336(2) -0.2761(14) 0.887(3)
H4 H 1.1245(19) -0.2597(12) 0.960(2)
H5 H 0.943(2) -0.3080(12) 0.851(2)
H6 H 0.802(2) -0.4021(13) 0.944(2)
H7 H 0.624(2) -0.3615(13) 1.080(2)
H8 H 0.577(2) -0.2189(13) 1.099(3)
H9 H 0.622(2) -0.0759(12) 1.037(2)
H10 H 0.758(2) 0.0941(13) 0.869(2)
H11 H 0.633(2) 0.0568(13) 0.978(3)
loop_
_geom_bond_atom_site_label_1
_geom_bond_atom_site_label_2
_geom_bond_site_symmetry_1
_geom_bond_site_symmetry_2
Cl1 C18 1_555 1_555
O1 C1 1_555 1_555
O2 C9 1_555 1_555
C1 C2 1_555 1_555
C2 C3 1_555 1_555
C3 C4 1_555 1_555
C4 C5 1_555 1_555
C5 C6 1_555 1_555
C6 C1 1_555 1_555
C7 C6 1_555 1_555
C8 C7 1_555 1_555
C9 O1 1_555 1_555
C10 C7 1_555 1_555
C11 C10 1_555 1_555
C12 C11 1_555 1_555
C13 C12 1_555 1_555
C14 C13 1_555 1_555
C15 C10 1_555 1_555
C16 C15 1_555 1_555
C17 C8 1_555 1_555
C18 C17 1_555 1_555
H1 C2 1_555 1_555
H2 C3 1_555 1_555
H3 C4 1_555 1_555
H4 C5 1_555 1_555
H5 C11 1_555 1_555
H6 C12 1_555 1_555
H7 C13 1_555 1_555
H8 C14 1_555 1_555
H9 C16 1_555 1_555
H10 C18 1_555 1_555
H11 C18 1_555 1_555
C8 C9 1_555 1_555
C14 C15 1_555 1_555
C16 C17 1_555 1_555

#END
