
#######################################################################
#
#                 Cambridge Crystallographic Data Centre
#                                CCDC 
#
#######################################################################
#
# If this CIF has been generated from an entry in the Cambridge 
# Structural Database, then it will include bibliographic, chemical, 
# crystal, experimental, refinement or atomic coordinate data resulting 
# from the CCDC's data processing and validation procedures.
#
#######################################################################

data_IMIMIC
_chemical_formula_moiety         'C19 H13 N1 O1 S1'
_chemical_name_systematic        4-(10H-phenothiazin-10-yl)benzaldehyde
_symmetry_cell_setting           monoclinic
_symmetry_space_group_name_H-M   'P 21/c'
_symmetry_Int_Tables_number      14
_space_group_name_Hall           '-P 2ybc'
loop_
_symmetry_equiv_pos_site_id
_symmetry_equiv_pos_as_xyz
1 x,y,z
2 -x,1/2+y,1/2-z
3 -x,-y,-z
4 x,1/2-y,1/2+z
_cell_length_a                   14.646(3)
_cell_length_b                   16.035(3)
_cell_length_c                   12.956(3)
_cell_angle_alpha                90
_cell_angle_beta                 93.24(3)
_cell_angle_gamma                90
_cell_volume                     3037.83
_exptl_crystal_colour            yellow
_exptl_crystal_description       block
_cell_formula_units_Z            8
loop_
_atom_site_label
_atom_site_type_symbol
_atom_site_fract_x
_atom_site_fract_y
_atom_site_fract_z
S1 S 0.37227(3) 0.09704(3) 0.80050(3)
C1 C 0.29326(11) 0.36845(10) 1.06098(12)
H1 H 0.2459 0.3679 1.1059
C2 C 0.33589(11) 0.29493(10) 1.03850(12)
H2 H 0.3174 0.2455 1.0686
C3 C 0.31920(11) 0.44366(10) 1.01817(12)
C4 C 0.40665(11) 0.29363(9) 0.97087(11)
C5 C 0.42655(12) 0.14224(9) 0.99699(12)
C6 C 0.50439(12) 0.20999(10) 0.86101(12)
C7 C 0.47260(11) 0.15493(10) 0.78400(11)
N1 N 0.45202(10) 0.21933(8) 0.95018(10)
C8 C 0.42056(13) 0.05201(11) 1.14336(14)
H3 H 0.4319 0.0424 1.2137
C9 C 0.36483(12) 0.00374(11) 0.97738(14)
H4 H 0.3386 -0.0381 0.9357
O1 O 0.29771(11) 0.59057(8) 1.01896(13)
C10 C 0.58603(13) 0.25136(12) 0.85136(14)
H5 H 0.6095 0.2855 0.9045
C11 C 0.44398(13) 0.12769(11) 1.10188(13)
H6 H 0.4713 0.1687 1.1439
C12 C 0.38811(11) 0.07963(10) 0.93464(12)
C13 C 0.52127(13) 0.14456(12) 0.69605(13)
H7 H 0.5004 0.1075 0.6448
C14 C 0.38083(13) -0.00927(11) 1.08229(14)
H8 H 0.3646 -0.0597 1.1115
C15 C 0.43084(13) 0.36887(10) 0.92442(13)
H9 H 0.4762 0.3693 0.8770
C16 C 0.59977(14) 0.18869(14) 0.68460(14)
H10 H 0.6310 0.1831 0.6245
C17 C 0.27712(13) 0.52177(12) 1.04826(15)
H11 H 0.2305 0.5184 1.0939
C18 C 0.63303(14) 0.24180(14) 0.76214(16)
H12 H 0.6870 0.2711 0.7544
C19 C 0.38798(13) 0.44190(10) 0.94861(13)
H13 H 0.4054 0.4913 0.9177
S2 S 1.11942(3) 0.12281(3) 0.82502(4)
C20 C 1.08331(11) 0.22149(10) 0.65659(12)
N2 N 1.01732(10) 0.16023(9) 0.62736(10)
C21 C 0.98706(11) 0.15474(10) 0.51967(12)
C22 C 0.96139(12) 0.12760(10) 0.70316(13)
C23 C 1.00049(12) 0.11153(10) 0.80229(14)
C24 C 0.93251(13) 0.13835(11) 0.31307(13)
C25 C 0.90215(17) 0.12600(14) 0.20335(15)
H14 H 0.9361 0.0895 0.1650
C26 C 1.00454(14) 0.09166(11) 0.35501(14)
H15 H 1.0350 0.0548 0.3135
C27 C 1.13221(11) 0.21410(11) 0.75177(13)
C28 C 1.10232(12) 0.28822(11) 0.59329(14)
H16 H 1.0717 0.2933 0.5288
C29 C 0.91673(13) 0.20358(11) 0.47712(13)
H17 H 0.8879 0.2421 0.5179
C30 C 0.88954(13) 0.19492(12) 0.37408(14)
H18 H 0.8419 0.2274 0.3456
C31 C 1.19406(13) 0.27538(13) 0.78455(15)
H19 H 1.2240 0.2716 0.8496
C32 C 0.86898(13) 0.11019(11) 0.68418(16)
H20 H 0.8414 0.1193 0.6187
C33 C 1.16662(14) 0.34728(12) 0.62551(17)
H21 H 1.1797 0.3912 0.5818
C34 C 1.03146(12) 0.09957(11) 0.45851(14)
H22 H 1.0796 0.0676 0.4868
C35 C 0.94756(15) 0.08334(12) 0.88013(15)
H23 H 0.9739 0.0752 0.9464
C36 C 1.21126(14) 0.34189(13) 0.72103(17)
H24 H 1.2529 0.3828 0.7429
C37 C 0.81806(14) 0.07943(12) 0.76189(19)
H25 H 0.7567 0.0667 0.7476
O2 O 0.83804(14) 0.15879(13) 0.15983(12)
C38 C 0.85612(16) 0.06726(13) 0.85992(18)
H26 H 0.8204 0.0483 0.9122
loop_
_geom_bond_atom_site_label_1
_geom_bond_atom_site_label_2
_geom_bond_site_symmetry_1
_geom_bond_site_symmetry_2
S1 C7 1_555 1_555
C1 H1 1_555 1_555
C2 C1 1_555 1_555
H2 C2 1_555 1_555
C3 C1 1_555 1_555
C4 C2 1_555 1_555
C5 N1 1_555 1_555
C6 C7 1_555 1_555
C7 C13 1_555 1_555
N1 C4 1_555 1_555
C8 H3 1_555 1_555
C9 H4 1_555 1_555
O1 C17 1_555 1_555
C10 C6 1_555 1_555
H5 C10 1_555 1_555
C11 C5 1_555 1_555
H6 C11 1_555 1_555
C12 S1 1_555 1_555
C13 H7 1_555 1_555
C14 C8 1_555 1_555
H8 C14 1_555 1_555
C15 C4 1_555 1_555
H9 C15 1_555 1_555
C16 C13 1_555 1_555
H10 C16 1_555 1_555
C17 C3 1_555 1_555
H11 C17 1_555 1_555
C18 C10 1_555 1_555
H12 C18 1_555 1_555
C19 C3 1_555 1_555
H13 C19 1_555 1_555
S2 C23 1_555 1_555
C20 N2 1_555 1_555
N2 C21 1_555 1_555
C21 C29 1_555 1_555
C22 N2 1_555 1_555
C23 C22 1_555 1_555
C24 C25 1_555 1_555
C25 H14 1_555 1_555
C26 C24 1_555 1_555
H15 C26 1_555 1_555
C27 S2 1_555 1_555
C28 C20 1_555 1_555
H16 C28 1_555 1_555
C29 H17 1_555 1_555
C30 C24 1_555 1_555
H18 C30 1_555 1_555
C31 C27 1_555 1_555
H19 C31 1_555 1_555
C32 C22 1_555 1_555
H20 C32 1_555 1_555
C33 C28 1_555 1_555
H21 C33 1_555 1_555
C34 C21 1_555 1_555
H22 C34 1_555 1_555
C35 C23 1_555 1_555
H23 C35 1_555 1_555
C36 C31 1_555 1_555
H24 C36 1_555 1_555
C37 C32 1_555 1_555
H25 C37 1_555 1_555
O2 C25 1_555 1_555
C38 C35 1_555 1_555
H26 C38 1_555 1_555
C5 C12 1_555 1_555
C6 N1 1_555 1_555
C8 C11 1_555 1_555
C9 C12 1_555 1_555
C9 C14 1_555 1_555
C15 C19 1_555 1_555
C16 C18 1_555 1_555
C20 C27 1_555 1_555
C26 C34 1_555 1_555
C29 C30 1_555 1_555
C33 C36 1_555 1_555
C37 C38 1_555 1_555

#END
