
#######################################################################
#
#                 Cambridge Crystallographic Data Centre
#                                CCDC 
#
#######################################################################
#
# If this CIF has been generated from an entry in the Cambridge 
# Structural Database, then it will include bibliographic, chemical, 
# crystal, experimental, refinement or atomic coordinate data resulting 
# from the CCDC's data processing and validation procedures.
#
#######################################################################

data_IMIRON
_chemical_formula_moiety         'C25 H27 N1 O2'
_chemical_name_systematic        
(S)-2,2-Dimethyl-N-(1-(4-methylphenyl)-2-(2-naphthyl)-1-oxopropan-2-yl)propanamide
_symmetry_cell_setting           monoclinic
_symmetry_space_group_name_H-M   'C 2'
_symmetry_Int_Tables_number      5
_space_group_name_Hall           'C 2y'
loop_
_symmetry_equiv_pos_site_id
_symmetry_equiv_pos_as_xyz
1 x,y,z
2 -x,y,-z
3 1/2+x,1/2+y,z
4 1/2-x,1/2+y,-z
_cell_length_a                   21.2783(16)
_cell_length_b                   6.1728(4)
_cell_length_c                   18.1174(13)
_cell_angle_alpha                90
_cell_angle_beta                 116.907(9)
_cell_angle_gamma                90
_cell_volume                     2122.04
_cell_formula_units_Z            4
loop_
_atom_site_label
_atom_site_type_symbol
_atom_site_fract_x
_atom_site_fract_y
_atom_site_fract_z
O1 O -0.00306(10) -0.2140(3) -0.29978(11)
O2 O 0.12967(11) -0.4833(4) -0.19069(12)
N1 N 0.06350(11) -0.7369(4) -0.28096(13)
H1 H 0.0550 -0.8721 -0.2928
C1 C -0.00362(13) -0.4064(5) -0.28776(15)
C2 C -0.16624(15) -0.8414(6) -0.54590(17)
C3 C -0.16988(15) -0.6353(6) -0.51457(17)
C4 C -0.04877(14) -0.6692(5) -0.40749(16)
C5 C -0.04564(15) -0.8759(5) -0.44088(16)
H2 H -0.0040 -0.9552 -0.4170
C6 C -0.10998(14) -0.5532(5) -0.44435(16)
H3 H -0.1126 -0.4181 -0.4232
C7 C -0.02971(13) -0.4910(5) -0.22885(15)
C8 C 0.01759(14) -0.5704(5) -0.33781(16)
C9 C 0.11938(15) -0.6748(5) -0.20974(17)
C10 C -0.22662(16) -0.9231(6) -0.61601(18)
H4 H -0.2250 -1.0593 -0.6370
C11 C -0.23296(15) -0.5141(6) -0.55307(18)
H5 H -0.2358 -0.3784 -0.5325
C12 C -0.28978(16) -0.5957(7) -0.62048(19)
H6 H -0.3310 -0.5147 -0.6458
C13 C -0.03138(15) -0.3451(5) -0.17069(16)
H7 H -0.0154 -0.2041 -0.1689
C14 C -0.05491(14) -0.6993(5) -0.23091(17)
H8 H -0.0540 -0.7988 -0.2689
C15 C -0.28615(16) -0.8033(7) -0.65202(19)
H9 H -0.3251 -0.8575 -0.6979
C16 C -0.08219(14) -0.6172(6) -0.11753(17)
C17 C 0.05754(14) -0.4520(5) -0.37888(17)
H10 H 0.0681 -0.5524 -0.4122
H11 H 0.1006 -0.3931 -0.3368
H12 H 0.0288 -0.3368 -0.4131
C18 C -0.10270(15) -0.9596(5) -0.50727(17)
H13 H -0.0997 -1.0960 -0.5272
C19 C 0.19256(16) -1.0004(6) -0.20465(19)
H14 H 0.2167 -0.9148 -0.2281
H15 H 0.1525 -1.0690 -0.2483
H16 H 0.2239 -1.1091 -0.1691
C20 C -0.05675(16) -0.4088(6) -0.11563(18)
H17 H -0.0567 -0.3103 -0.0768
C21 C 0.16810(14) -0.8551(5) -0.15470(16)
C22 C -0.08156(15) -0.7608(6) -0.17670(17)
H18 H -0.0993 -0.9001 -0.1799
C23 C -0.10732(17) -0.6888(7) -0.0560(2)
H19 H -0.1219 -0.5646 -0.0357
H20 H -0.0697 -0.7614 -0.0107
H21 H -0.1464 -0.7861 -0.0824
C24 C 0.23069(18) -0.7494(7) -0.0832(2)
H22 H 0.2141 -0.6567 -0.0532
H23 H 0.2569 -0.6652 -0.1044
H24 H 0.2606 -0.8595 -0.0468
C25 C 0.12659(17) -0.9913(6) -0.12028(19)
H25 H 0.0870 -1.0577 -0.1653
H26 H 0.1102 -0.8994 -0.0898
H27 H 0.1567 -1.1017 -0.0843
loop_
_geom_bond_atom_site_label_1
_geom_bond_atom_site_label_2
_geom_bond_site_symmetry_1
_geom_bond_site_symmetry_2
O1 C1 1_555 1_555
O2 C9 1_555 1_555
N1 H1 1_555 1_555
C1 C7 1_555 1_555
C2 C3 1_555 1_555
C3 C6 1_555 1_555
C4 C5 1_555 1_555
C5 H2 1_555 1_555
C6 C4 1_555 1_555
H3 C6 1_555 1_555
C7 C13 1_555 1_555
C8 N1 1_555 1_555
C9 N1 1_555 1_555
C10 C2 1_555 1_555
H4 C10 1_555 1_555
C11 C3 1_555 1_555
H5 C11 1_555 1_555
C12 C11 1_555 1_555
H6 C12 1_555 1_555
C13 H7 1_555 1_555
C14 C7 1_555 1_555
H8 C14 1_555 1_555
C15 C10 1_555 1_555
H9 C15 1_555 1_555
C16 C20 1_555 1_555
C17 C8 1_555 1_555
H10 C17 1_555 1_555
H11 C17 1_555 1_555
H12 C17 1_555 1_555
C18 C2 1_555 1_555
H13 C18 1_555 1_555
C19 H14 1_555 1_555
H15 C19 1_555 1_555
H16 C19 1_555 1_555
C20 C13 1_555 1_555
H17 C20 1_555 1_555
C21 C9 1_555 1_555
C22 C14 1_555 1_555
H18 C22 1_555 1_555
C23 C16 1_555 1_555
H19 C23 1_555 1_555
H20 C23 1_555 1_555
H21 C23 1_555 1_555
C24 C21 1_555 1_555
H22 C24 1_555 1_555
H23 C24 1_555 1_555
H24 C24 1_555 1_555
C25 C21 1_555 1_555
H25 C25 1_555 1_555
H26 C25 1_555 1_555
H27 C25 1_555 1_555
C1 C8 1_555 1_555
C4 C8 1_555 1_555
C5 C18 1_555 1_555
C12 C15 1_555 1_555
C16 C22 1_555 1_555
C19 C21 1_555 1_555

#END
