
#######################################################################
#
#                 Cambridge Crystallographic Data Centre
#                                CCDC 
#
#######################################################################
#
# If this CIF has been generated from an entry in the Cambridge 
# Structural Database, then it will include bibliographic, chemical, 
# crystal, experimental, refinement or atomic coordinate data resulting 
# from the CCDC's data processing and validation procedures.
#
#######################################################################

data_IMISII
_chemical_compound_source        'Euphorbia peplus'
_chemical_name_common            'Pepluanol A hemihydrate'
_chemical_formula_moiety         'C20 H26 O3,0.5(H2 O1)'
_chemical_name_systematic        
'(1aR,1bS,2R,4S,7aR,9R,10aR)-2-Hydroxy-1,1,3,5,9-pentamethyl-1,1a,1b,2,4a,9,10,10a-octahydrocyclopropa[3,4]cyclohepta[1,2-d]indene-7,8-dione hemihydrate'
_chemical_properties_biological  'Kv1.3 potassium channel inhibitory activity'
_symmetry_cell_setting           tetragonal
_symmetry_space_group_name_H-M   'I 41'
_symmetry_Int_Tables_number      80
_space_group_name_Hall           'I 4bw'
loop_
_symmetry_equiv_pos_site_id
_symmetry_equiv_pos_as_xyz
1 x,y,z
2 1/2-y,x,3/4+z
3 1/2+y,-x,3/4+z
4 -x,-y,z
5 1/2+x,1/2+y,1/2+z
6 -y,1/2+x,1/4+z
7 y,1/2-x,1/4+z
8 1/2-x,1/2-y,1/2+z
_cell_length_a                   19.7536(13)
_cell_length_b                   19.7536(13)
_cell_length_c                   9.0366(7)
_cell_angle_alpha                90
_cell_angle_beta                 90
_cell_angle_gamma                90
_cell_volume                     3526.12
_exptl_crystal_colour            colorless
_exptl_crystal_description       block
_cell_formula_units_Z            8
loop_
_atom_site_label
_atom_site_type_symbol
_atom_site_fract_x
_atom_site_fract_y
_atom_site_fract_z
O1 O 0.5000 0.5000 0.7722(7)
O2 O 0.68153(16) 0.65542(15) 0.3615(3)
O3 O 0.52052(14) 0.57879(15) 0.1806(4)
O4 O 0.58854(15) 0.45251(18) 0.0036(4)
H1 H 0.5857 0.4925 -0.0277
C1 C 0.7391(3) 0.4114(3) -0.0849(6)
H2 H 0.7753 0.4307 -0.1462
H3 H 0.7041 0.3919 -0.1489
H4 H 0.7580 0.3760 -0.0211
C2 C 0.7088(2) 0.4658(2) 0.0086(5)
C3 C 0.7308(2) 0.5290(2) 0.0132(5)
H5 H 0.7705 0.5391 -0.0421
C4 C 0.6990(2) 0.5860(2) 0.0976(5)
H6 H 0.7348 0.6117 0.1521
C5 C 0.6435(2) 0.5645(2) 0.2055(5)
C6 C 0.6471(2) 0.6052(2) 0.3514(5)
C7 C 0.6049(2) 0.5797(2) 0.4825(5)
H7 H 0.5684 0.5491 0.4451
C8 C 0.5728(2) 0.6383(2) 0.5662(5)
H8 H 0.5499 0.6210 0.6547
H9 H 0.5397 0.6610 0.5023
H10 H 0.6080 0.6706 0.5954
C9 C 0.7276(2) 0.3587(2) 0.5002(5)
H11 H 0.7220 0.3411 0.6009
H12 H 0.7737 0.3762 0.4882
H13 H 0.7197 0.3222 0.4287
C10 C 0.6771(2) 0.4152(2) 0.4738(5)
C11 C 0.6930(2) 0.4640(2) 0.3482(5)
H14 H 0.7377 0.4550 0.3001
C12 C 0.6992(2) 0.4870(2) 0.5101(5)
H15 H 0.7471 0.4899 0.5452
C13 C 0.6527(3) 0.5394(2) 0.5820(5)
H16 H 0.6248 0.5157 0.6569
H17 H 0.6816 0.5721 0.6358
C14 C 0.5766(2) 0.5896(2) 0.1320(5)
C15 C 0.5961(2) 0.6320(2) 0.0063(5)
H18 H 0.5652 0.6556 -0.0555
C16 C 0.6631(2) 0.6332(2) -0.0098(5)
C17 C 0.7029(2) 0.6734(2) -0.1198(5)
H19 H 0.7228 0.6428 -0.1933
H20 H 0.7391 0.6980 -0.0686
H21 H 0.6730 0.7058 -0.1694
C18 C 0.6471(2) 0.4461(2) 0.0967(5)
H22 H 0.6518 0.3974 0.1253
C19 C 0.6388(2) 0.4882(2) 0.2396(5)
H23 H 0.5932 0.4785 0.2829
C20 C 0.6052(2) 0.3958(2) 0.5045(6)
H24 H 0.5919 0.3587 0.4386
H25 H 0.5756 0.4349 0.4872
H26 H 0.6009 0.3811 0.6077
loop_
_geom_bond_atom_site_label_1
_geom_bond_atom_site_label_2
_geom_bond_site_symmetry_1
_geom_bond_site_symmetry_2
O2 C6 1_555 1_555
O3 C14 1_555 1_555
O4 H1 1_555 1_555
C1 H2 1_555 1_555
H3 C1 1_555 1_555
H4 C1 1_555 1_555
C2 C1 1_555 1_555
C3 C2 1_555 1_555
H5 C3 1_555 1_555
C4 C3 1_555 1_555
H6 C4 1_555 1_555
C5 C4 1_555 1_555
C6 C5 1_555 1_555
C7 C6 1_555 1_555
H7 C7 1_555 1_555
C8 C7 1_555 1_555
H8 C8 1_555 1_555
H9 C8 1_555 1_555
H10 C8 1_555 1_555
C9 H11 1_555 1_555
H12 C9 1_555 1_555
H13 C9 1_555 1_555
C10 C9 1_555 1_555
C11 C10 1_555 1_555
H14 C11 1_555 1_555
C12 C10 1_555 1_555
H15 C12 1_555 1_555
C13 C7 1_555 1_555
H16 C13 1_555 1_555
H17 C13 1_555 1_555
C14 C5 1_555 1_555
C15 C14 1_555 1_555
H18 C15 1_555 1_555
C16 C4 1_555 1_555
C17 C16 1_555 1_555
H19 C17 1_555 1_555
H20 C17 1_555 1_555
H21 C17 1_555 1_555
C18 O4 1_555 1_555
H22 C18 1_555 1_555
C19 C5 1_555 1_555
H23 C19 1_555 1_555
C20 C10 1_555 1_555
H24 C20 1_555 1_555
H25 C20 1_555 1_555
H26 C20 1_555 1_555
C2 C18 1_555 1_555
C11 C12 1_555 1_555
C11 C19 1_555 1_555
C12 C13 1_555 1_555
C15 C16 1_555 1_555
C18 C19 1_555 1_555

#END
