
#######################################################################
#
#                 Cambridge Crystallographic Data Centre
#                                CCDC 
#
#######################################################################
#
# If this CIF has been generated from an entry in the Cambridge 
# Structural Database, then it will include bibliographic, chemical, 
# crystal, experimental, refinement or atomic coordinate data resulting 
# from the CCDC's data processing and validation procedures.
#
#######################################################################

data_IMODEV
_chemical_formula_moiety         'C22 H28 N4 O4'
_chemical_name_systematic        
'diethyl (4-cyano-5-(dimethylamino)-3-(4-(dimethylamino)phenyl)-1H-pyrrol-2-yl)malonate'
_symmetry_cell_setting           monoclinic
_symmetry_space_group_name_H-M   'P 21/c'
_symmetry_Int_Tables_number      14
_space_group_name_Hall           '-P 2ybc'
loop_
_symmetry_equiv_pos_site_id
_symmetry_equiv_pos_as_xyz
1 x,y,z
2 -x,1/2+y,1/2-z
3 -x,-y,-z
4 x,1/2-y,1/2+z
_cell_length_a                   15.0264(17)
_cell_length_b                   19.058(2)
_cell_length_c                   15.9395(19)
_cell_angle_alpha                90
_cell_angle_beta                 112.057(3)
_cell_angle_gamma                90
_cell_volume                     4230.56
_exptl_crystal_colour            'light red'
_exptl_crystal_description       block
_cell_formula_units_Z            8
loop_
_atom_site_label
_atom_site_type_symbol
_atom_site_fract_x
_atom_site_fract_y
_atom_site_fract_z
O1 O 0.13147(8) 0.38558(6) 0.01523(8)
O2 O 0.27528(10) 0.36144(6) 0.28512(9)
O3 O 0.15026(9) 0.43223(8) 0.21377(10)
O4 O 0.18017(10) 0.49713(7) 0.03328(11)
C1 C 0.44425(11) 0.28520(8) 0.12476(11)
N1 N 0.35417(9) 0.17137(7) 0.10512(10)
C2 C 0.60217(14) 0.66676(10) 0.12295(16)
H1 H 0.5813 0.6664 0.0569
H2 H 0.6478 0.7052 0.1479
H3 H 0.5463 0.6734 0.1397
N2 N 0.64799(10) 0.60069(8) 0.15901(11)
C3 C 0.59108(12) 0.54092(8) 0.14820(12)
C4 C 0.63158(12) 0.47746(9) 0.19019(12)
H4 H 0.6990 0.4746 0.2227
C5 C 0.57526(11) 0.41915(8) 0.18502(11)
H5 H 0.6049 0.3773 0.2148
C6 C 0.47595(11) 0.41982(8) 0.13742(11)
C7 C 0.41681(11) 0.35724(8) 0.13259(11)
C8 C 0.32659(11) 0.35428(8) 0.13396(11)
C9 C 0.26632(11) 0.41267(8) 0.14648(11)
H6 H 0.3110 0.4534 0.1683
C10 C 0.18820(11) 0.43750(9) 0.05942(12)
C11 C 0.05233(12) 0.40496(9) -0.06789(12)
H7 H 0.0757 0.4351 -0.1059
H8 H 0.0027 0.4311 -0.0538
C12 C 0.01132(13) 0.33798(10) -0.11657(13)
H9 H 0.0580 0.3160 -0.1378
H10 H -0.0478 0.3482 -0.1685
H11 H -0.0030 0.3059 -0.0752
C13 C 0.17481(18) 0.30530(12) 0.35521(16)
H12 H 0.1147 0.3205 0.3077
H13 H 0.1654 0.3008 0.4126
H14 H 0.1941 0.2598 0.3387
C14 C 0.25029(18) 0.35744(12) 0.36525(15)
H15 H 0.2281 0.4041 0.3766
H16 H 0.3084 0.3451 0.4184
C15 C 0.22186(12) 0.40247(9) 0.21766(13)
C16 C 0.36702(11) 0.24206(8) 0.11960(11)
C17 C 0.26685(12) 0.13944(9) 0.10726(13)
H17 H 0.2696 0.1388 0.1697
H18 H 0.2613 0.0913 0.0843
H19 H 0.2110 0.1668 0.0693
C18 C 0.43782(12) 0.12547(9) 0.13608(14)
H20 H 0.4867 0.1437 0.1148
H21 H 0.4189 0.0782 0.1119
H22 H 0.4642 0.1237 0.2024
N3 N 0.29698(9) 0.28446(7) 0.12554(9)
H23 H 0.2413(11) 0.2701(9) 0.1280(12)
C19 C 0.53007(11) 0.26454(8) 0.11537(12)
N4 N 0.60080(10) 0.24875(8) 0.10824(11)
C20 C 0.74417(13) 0.59320(10) 0.15816(14)
H24 H 0.7721 0.5487 0.1868
H25 H 0.7845 0.6322 0.1916
H26 H 0.7406 0.5937 0.0955
C21 C 0.49172(12) 0.54167(9) 0.09911(12)
H27 H 0.4619 0.5835 0.0692
C22 C 0.43632(11) 0.48254(9) 0.09347(11)
H28 H 0.3693 0.4846 0.0587
O5 O 0.25558(9) 0.62566(6) 0.23665(9)
O6 O 0.35076(9) 0.53559(7) 0.30738(10)
O7 O 0.37087(8) 0.60843(7) 0.49186(9)
O8 O 0.30640(10) 0.50323(7) 0.49633(10)
N5 N -0.15170(10) 0.39295(7) 0.33669(10)
C23 C 0.01632(11) 0.57546(8) 0.35124(11)
N6 N 0.20497(9) 0.70673(7) 0.37901(10)
H29 H 0.2634(11) 0.7205(10) 0.3840(13)
C24 C 0.05533(11) 0.70815(8) 0.37406(11)
N7 N -0.11192(10) 0.74697(7) 0.36300(11)
N8 N 0.14628(10) 0.82105(7) 0.39370(11)
C25 C -0.10334(13) 0.32596(9) 0.33913(13)
H30 H -0.0668 0.3285 0.2996
H31 H -0.1513 0.2885 0.3181
H32 H -0.0595 0.3161 0.4013
C26 C -0.09659(11) 0.45388(8) 0.34269(11)
C27 C -0.04224(11) 0.46068(9) 0.28827(12)
H33 H -0.0428 0.4238 0.2480
C28 C 0.01204(11) 0.51996(8) 0.29221(11)
H34 H 0.0474 0.5232 0.2539
C29 C 0.07939(11) 0.63671(8) 0.36110(11)
C30 C 0.17174(11) 0.63769(8) 0.36459(11)
C31 C 0.23450(11) 0.57645(9) 0.36503(11)
H35 H 0.1902 0.5353 0.3460
C32 C 0.28762(12) 0.57738(9) 0.30024(12)
C33 C 0.30388(15) 0.62753(10) 0.17185(14)
H36 H 0.2700 0.5967 0.1196
H37 H 0.3709 0.6109 0.2011
C34 C 0.30244(18) 0.70075(11) 0.14136(15)
H38 H 0.2359 0.7156 0.1088
H39 H 0.3380 0.7041 0.1010
H40 H 0.3325 0.7312 0.1940
C35 C 0.13542(11) 0.75008(8) 0.38422(11)
C36 C -0.20898(12) 0.39100(9) 0.39278(12)
H41 H -0.1663 0.3893 0.4567
H42 H -0.2501 0.3493 0.3777
H43 H -0.2491 0.4332 0.3817
C37 C -0.09592(11) 0.51024(8) 0.39913(11)
H44 H -0.1339 0.5081 0.4351
C38 C -0.04027(11) 0.56923(8) 0.40309(11)
H45 H -0.0407 0.6066 0.4424
C39 C -0.03644(11) 0.73062(8) 0.36818(12)
C40 C 0.08334(13) 0.86017(9) 0.42637(13)
H46 H 0.0171 0.8563 0.3828
H47 H 0.1027 0.9096 0.4336
H48 H 0.0876 0.8411 0.4849
C41 C 0.23527(12) 0.85380(9) 0.39834(13)
H49 H 0.2881 0.8374 0.4526
H50 H 0.2295 0.9049 0.4011
H51 H 0.2483 0.8412 0.3444
C42 C 0.30757(12) 0.55745(9) 0.45805(12)
C43 C 0.44865(13) 0.59482(10) 0.57878(13)
H52 H 0.4983 0.5647 0.5703
H53 H 0.4236 0.5708 0.6205
C44 C 0.48993(15) 0.66417(11) 0.61616(15)
H54 H 0.5111 0.6884 0.5727
H55 H 0.5449 0.6574 0.6732
H56 H 0.4410 0.6925 0.6273
loop_
_geom_bond_atom_site_label_1
_geom_bond_atom_site_label_2
_geom_bond_site_symmetry_1
_geom_bond_site_symmetry_2
O1 C10 1_555 1_555
O2 C14 1_555 1_555
O3 C15 1_555 1_555
O4 C10 1_555 1_555
C1 C7 1_555 1_555
N1 C16 1_555 1_555
C2 H1 1_555 1_555
H2 C2 1_555 1_555
H3 C2 1_555 1_555
N2 C2 1_555 1_555
C3 N2 1_555 1_555
C4 C3 1_555 1_555
H4 C4 1_555 1_555
C5 C4 1_555 1_555
H5 C5 1_555 1_555
C6 C5 1_555 1_555
C7 C6 1_555 1_555
C8 C7 1_555 1_555
C9 C8 1_555 1_555
H6 C9 1_555 1_555
C10 C9 1_555 1_555
C11 O1 1_555 1_555
H7 C11 1_555 1_555
H8 C11 1_555 1_555
C12 C11 1_555 1_555
H9 C12 1_555 1_555
H10 C12 1_555 1_555
H11 C12 1_555 1_555
C13 H12 1_555 1_555
H13 C13 1_555 1_555
H14 C13 1_555 1_555
C14 C13 1_555 1_555
H15 C14 1_555 1_555
H16 C14 1_555 1_555
C15 O2 1_555 1_555
C16 C1 1_555 1_555
C17 N1 1_555 1_555
H17 C17 1_555 1_555
H18 C17 1_555 1_555
H19 C17 1_555 1_555
C18 N1 1_555 1_555
H20 C18 1_555 1_555
H21 C18 1_555 1_555
H22 C18 1_555 1_555
N3 C8 1_555 1_555
H23 N3 1_555 1_555
C19 C1 1_555 1_555
N4 C19 1_555 1_555
C20 N2 1_555 1_555
H24 C20 1_555 1_555
H25 C20 1_555 1_555
H26 C20 1_555 1_555
C21 C3 1_555 1_555
H27 C21 1_555 1_555
C22 C6 1_555 1_555
H28 C22 1_555 1_555
O5 C32 1_555 1_555
O6 C32 1_555 1_555
O7 C42 1_555 1_555
O8 C42 1_555 1_555
N5 C25 1_555 1_555
C23 C28 1_555 1_555
N6 H29 1_555 1_555
C24 C29 1_555 1_555
N7 C39 1_555 1_555
N8 C35 1_555 1_555
C25 H30 1_555 1_555
H31 C25 1_555 1_555
H32 C25 1_555 1_555
C26 N5 1_555 1_555
C27 C26 1_555 1_555
H33 C27 1_555 1_555
C28 C27 1_555 1_555
H34 C28 1_555 1_555
C29 C23 1_555 1_555
C30 N6 1_555 1_555
C31 C30 1_555 1_555
H35 C31 1_555 1_555
C32 C31 1_555 1_555
C33 O5 1_555 1_555
H36 C33 1_555 1_555
H37 C33 1_555 1_555
C34 C33 1_555 1_555
H38 C34 1_555 1_555
H39 C34 1_555 1_555
H40 C34 1_555 1_555
C35 N6 1_555 1_555
C36 N5 1_555 1_555
H41 C36 1_555 1_555
H42 C36 1_555 1_555
H43 C36 1_555 1_555
C37 C26 1_555 1_555
H44 C37 1_555 1_555
C38 C23 1_555 1_555
H45 C38 1_555 1_555
C39 C24 1_555 1_555
C40 N8 1_555 1_555
H46 C40 1_555 1_555
H47 C40 1_555 1_555
H48 C40 1_555 1_555
C41 N8 1_555 1_555
H49 C41 1_555 1_555
H50 C41 1_555 1_555
H51 C41 1_555 1_555
C42 C31 1_555 1_555
C43 O7 1_555 1_555
H52 C43 1_555 1_555
H53 C43 1_555 1_555
C44 C43 1_555 1_555
H54 C44 1_555 1_555
H55 C44 1_555 1_555
H56 C44 1_555 1_555
C9 C15 1_555 1_555
C16 N3 1_555 1_555
C21 C22 1_555 1_555
C24 C35 1_555 1_555
C29 C30 1_555 1_555
C37 C38 1_555 1_555

#END
