
#######################################################################
#
#                 Cambridge Crystallographic Data Centre
#                                CCDC 
#
#######################################################################
#
# If this CIF has been generated from an entry in the Cambridge 
# Structural Database, then it will include bibliographic, chemical, 
# crystal, experimental, refinement or atomic coordinate data resulting 
# from the CCDC's data processing and validation procedures.
#
#######################################################################

data_IMODUL
_chemical_formula_moiety         'C20 H22 N4 O6'
_chemical_name_systematic        
'diethyl (4-cyano-5-(dimethylamino)-3-(4-nitrophenyl)-1H-pyrrol-2-yl)malonate'
_symmetry_cell_setting           monoclinic
_symmetry_space_group_name_H-M   'P 21/c'
_symmetry_Int_Tables_number      14
_space_group_name_Hall           '-P 2ybc'
loop_
_symmetry_equiv_pos_site_id
_symmetry_equiv_pos_as_xyz
1 x,y,z
2 -x,1/2+y,1/2-z
3 -x,-y,-z
4 x,1/2-y,1/2+z
_cell_length_a                   9.5426(6)
_cell_length_b                   13.1663(9)
_cell_length_c                   16.2954(10)
_cell_angle_alpha                90
_cell_angle_beta                 101.215(2)
_cell_angle_gamma                90
_cell_volume                     2008.27
_exptl_crystal_colour            orange
_exptl_crystal_description       block
_cell_formula_units_Z            4
loop_
_atom_site_label
_atom_site_type_symbol
_atom_site_fract_x
_atom_site_fract_y
_atom_site_fract_z
O1 O 0.17021(13) 0.57761(9) 0.63972(8)
O2 O -0.18144(13) 0.71707(11) 0.45337(8)
O3 O -0.05039(14) 0.52641(10) 0.58018(9)
N1 N 0.15409(15) 0.68323(12) 0.45777(9)
H1 H 0.1239(19) 0.6219(12) 0.4418(11)
O4 O 0.01069(16) 1.20825(11) 0.73114(8)
O5 O 0.23235(17) 1.24456(11) 0.73170(8)
N2 N 0.29860(15) 0.69424(11) 0.35415(9)
N3 N 0.12815(19) 1.18927(12) 0.71355(9)
N4 N 0.37043(17) 0.99301(12) 0.40303(10)
C1 C 0.14223(19) 1.09501(13) 0.66767(11)
C2 C -0.14263(18) 0.71432(13) 0.52758(11)
C3 C 0.16479(18) 0.92266(13) 0.57380(11)
C4 C 0.02470(19) 1.03258(14) 0.64593(11)
H2 H -0.0622 1.0478 0.6636
C5 C 0.24184(17) 0.73717(13) 0.41664(10)
C6 C 0.11383(17) 0.74204(13) 0.51970(10)
C7 C 0.03907(18) 0.59127(13) 0.59726(11)
C8 C 0.25948(17) 0.83273(13) 0.45383(11)
C9 C 0.32437(18) 0.91961(14) 0.42581(11)
C10 C 0.03586(18) 0.94709(14) 0.59782(11)
H3 H -0.0451 0.9046 0.5810
C11 C 0.27174(19) 1.07278(14) 0.64548(11)
H4 H 0.3517 1.1163 0.6616
C12 C 0.17683(17) 0.83469(13) 0.51974(11)
C13 C 0.28241(19) 0.98600(14) 0.59941(11)
H5 H 0.3713 0.9692 0.5849
C14 C 0.01328(17) 0.70224(13) 0.57203(11)
H6 H 0.0272 0.7436 0.6245
C15 C 0.2397(2) 0.59901(16) 0.31921(13)
H7 H 0.2489 0.5479 0.3636
H8 H 0.2917 0.5764 0.2762
H9 H 0.1385 0.6082 0.2941
C16 C 0.2087(2) 0.47507(14) 0.67200(13)
H10 H 0.1617 0.4233 0.6318
H11 H 0.1775 0.4648 0.7259
C17 C 0.3550(2) 0.76122(16) 0.29767(13)
H12 H 0.2771 0.8019 0.2657
H13 H 0.3991 0.7206 0.2591
H14 H 0.4268 0.8063 0.3301
C18 C 0.3672(2) 0.46581(16) 0.68386(15)
H15 H 0.3965 0.4750 0.6300
H16 H 0.3967 0.3984 0.7062
H17 H 0.4123 0.5180 0.7232
O6 O -0.2244(10) 0.7351(12) 0.5850(7)
C19 C -0.3806(8) 0.7232(6) 0.5418(5)
H18 H -0.4109 0.7804 0.5030
H19 H -0.3951 0.6588 0.5099
C20 C -0.4636(4) 0.7229(4) 0.6116(3)
H20 H -0.5661 0.7247 0.5878
H21 H -0.4375 0.7827 0.6471
H22 H -0.4411 0.6612 0.6452
O7? O -0.2297(10) 0.7120(13) 0.5807(7)
C21? C -0.3785(10) 0.7513(7) 0.5568(7)
H23? H -0.4030 0.7719 0.4973
H24? H -0.3974 0.8080 0.5931
C22? C -0.4518(5) 0.6551(5) 0.5737(4)
H25? H -0.4319 0.6018 0.5356
H26? H -0.5550 0.6668 0.5650
H27? H -0.4163 0.6338 0.6317
loop_
_geom_bond_atom_site_label_1
_geom_bond_atom_site_label_2
_geom_bond_site_symmetry_1
_geom_bond_site_symmetry_2
O1 C7 1_555 1_555
O2 C2 1_555 1_555
O3 C7 1_555 1_555
N1 H1 1_555 1_555
O4 N3 1_555 1_555
O5 N3 1_555 1_555
N2 C5 1_555 1_555
N3 C1 1_555 1_555
N4 C9 1_555 1_555
C1 C4 1_555 1_555
C2 C14 1_555 1_555
C3 C10 1_555 1_555
C4 H2 1_555 1_555
C5 N1 1_555 1_555
C6 N1 1_555 1_555
C7 C14 1_555 1_555
C8 C5 1_555 1_555
C9 C8 1_555 1_555
C10 C4 1_555 1_555
H3 C10 1_555 1_555
C11 C1 1_555 1_555
H4 C11 1_555 1_555
C12 C3 1_555 1_555
C13 C3 1_555 1_555
H5 C13 1_555 1_555
C14 C6 1_555 1_555
H6 C14 1_555 1_555
C15 N2 1_555 1_555
H7 C15 1_555 1_555
H8 C15 1_555 1_555
H9 C15 1_555 1_555
C16 O1 1_555 1_555
H10 C16 1_555 1_555
H11 C16 1_555 1_555
C17 N2 1_555 1_555
H12 C17 1_555 1_555
H13 C17 1_555 1_555
H14 C17 1_555 1_555
C18 C16 1_555 1_555
H15 C18 1_555 1_555
H16 C18 1_555 1_555
H17 C18 1_555 1_555
O6 C2 1_555 1_555
C19 O6 1_555 1_555
H18 C19 1_555 1_555
H19 C19 1_555 1_555
C20 C19 1_555 1_555
H20 C20 1_555 1_555
H21 C20 1_555 1_555
H22 C20 1_555 1_555
C6 C12 1_555 1_555
C8 C12 1_555 1_555
C11 C13 1_555 1_555

#END
