
#######################################################################
#
#                 Cambridge Crystallographic Data Centre
#                                CCDC 
#
#######################################################################
#
# If this CIF has been generated from an entry in the Cambridge 
# Structural Database, then it will include bibliographic, chemical, 
# crystal, experimental, refinement or atomic coordinate data resulting 
# from the CCDC's data processing and validation procedures.
#
#######################################################################

data_IMOFIB
_chemical_formula_moiety         'C25 H22 S1'
_chemical_name_systematic        
2-(4-(biphenyl-4-yl)pent-1-en-2-yl)-1-benzothiophene
_symmetry_cell_setting           monoclinic
_symmetry_space_group_name_H-M   'P 21'
_symmetry_Int_Tables_number      4
_space_group_name_Hall           'P 2yb'
loop_
_symmetry_equiv_pos_site_id
_symmetry_equiv_pos_as_xyz
1 x,y,z
2 -x,1/2+y,-z
_cell_length_a                   6.4872(4)
_cell_length_b                   18.0297(12)
_cell_length_c                   8.1708(6)
_cell_angle_alpha                90
_cell_angle_beta                 90.0076(17)
_cell_angle_gamma                90
_cell_volume                     955.675
_exptl_crystal_colour            colorless
_exptl_crystal_description       needle
_cell_formula_units_Z            2
loop_
_atom_site_label
_atom_site_type_symbol
_atom_site_fract_x
_atom_site_fract_y
_atom_site_fract_z
C1 C 0.8003(4) 0.77954(13) -0.0980(3)
H1 H 0.6648 0.7632 -0.1234
H2 H 0.8480 0.8260 -0.1379
C2 C 0.9239(3) 0.73720(10) -0.0060(2)
C3 C 1.1392(3) 0.76230(11) 0.0358(2)
H3 H 1.1802 0.8017 -0.0420
H4 H 1.2346 0.7200 0.0201
C4 C 1.1656(3) 0.79212(11) 0.2122(2)
H5 H 1.1206 0.7526 0.2903
C5 C 1.3943(3) 0.80837(12) 0.2431(3)
H6 H 1.4417 0.8467 0.1667
H7 H 1.4748 0.7630 0.2265
H8 H 1.4127 0.8258 0.3557
C6 C 0.8559(3) 0.66542(10) 0.0576(2)
C7 C 0.9603(6) 0.6174(3) 0.1581(5)
H9 H 1.0933 0.6280 0.2007
C8 C 0.8529(5) 0.5502(2) 0.1934(6)
C9 C 0.9124(5) 0.48934(17) 0.2891(4)
H10 H 1.0428 0.4890 0.3420
C10 C 0.7800(5) 0.42974(14) 0.3060(3)
H11 H 0.8207 0.3885 0.3707
C11 C 0.5866(5) 0.42909(16) 0.2293(3)
H12 H 0.4987 0.3874 0.2427
C12 C 0.5223(4) 0.48808(18) 0.1347(4)
H13 H 0.3915 0.4876 0.0824
C13 C 0.6562(4) 0.54875(13) 0.1183(3)
S1 S 0.61403(9) 0.62873(4) 0.00452(8)
C14 C 1.0372(3) 0.86055(11) 0.2432(2)
C15 C 0.8852(3) 0.86099(11) 0.3636(2)
H14 H 0.8577 0.8170 0.4237
C16 C 0.7728(3) 0.92507(11) 0.3973(2)
H15 H 0.6694 0.9240 0.4795
C17 C 0.8098(3) 0.99084(11) 0.3121(2)
C18 C 0.9605(3) 0.98987(11) 0.1900(2)
H16 H 0.9875 1.0338 0.1294
C19 C 1.0715(3) 0.92592(12) 0.1557(2)
H17 H 1.1724 0.9266 0.0715
C20 C 0.6961(3) 1.06017(12) 0.3517(2)
C21 C 0.4923(3) 1.05778(15) 0.4087(3)
H18 H 0.4250 1.0113 0.4212
C22 C 0.3879(4) 1.12289(19) 0.4472(3)
H19 H 0.2501 1.1205 0.4862
C23 C 0.4826(5) 1.19076(17) 0.4292(3)
H20 H 0.4103 1.2349 0.4560
C24 C 0.6843(5) 1.19457(14) 0.3716(3)
H21 H 0.7500 1.2413 0.3587
C25 C 0.7894(3) 1.12943(14) 0.3332(2)
H22 H 0.9269 1.1322 0.2937
C26? C 0.681(3) 0.6350(10) 0.019(2)
H23? H 0.5834 0.6567 -0.0533
C27? C 0.655(3) 0.5650(10) 0.096(2)
C28? C 0.508(3) 0.5109(10) 0.095(3)
H24? H 0.3901 0.5184 0.0283
C29? C 0.518(3) 0.4471(9) 0.182(2)
H25? H 0.4048 0.4139 0.1809
C30? C 0.688(3) 0.4296(9) 0.272(2)
H26? H 0.6957 0.3830 0.3259
C31? C 0.844(3) 0.4776(10) 0.285(3)
H27? H 0.9624 0.4670 0.3496
C32? C 0.825(4) 0.5469(15) 0.194(4)
S2? S 1.0146(10) 0.6167(5) 0.1835(10)
loop_
_geom_bond_atom_site_label_1
_geom_bond_atom_site_label_2
_geom_bond_site_symmetry_1
_geom_bond_site_symmetry_2
C1 H1 1_555 1_555
H2 C1 1_555 1_555
C2 C1 1_555 1_555
C3 C2 1_555 1_555
H3 C3 1_555 1_555
H4 C3 1_555 1_555
C4 C3 1_555 1_555
H5 C4 1_555 1_555
C5 C4 1_555 1_555
H6 C5 1_555 1_555
H7 C5 1_555 1_555
H8 C5 1_555 1_555
C6 C2 1_555 1_555
C7 C6 1_555 1_555
H9 C7 1_555 1_555
C8 C7 1_555 1_555
C9 C8 1_555 1_555
H10 C9 1_555 1_555
C10 C9 1_555 1_555
H11 C10 1_555 1_555
C11 C10 1_555 1_555
H12 C11 1_555 1_555
C12 C11 1_555 1_555
H13 C12 1_555 1_555
C13 C8 1_555 1_555
S1 C6 1_555 1_555
C14 C4 1_555 1_555
C15 C14 1_555 1_555
H14 C15 1_555 1_555
C16 C15 1_555 1_555
H15 C16 1_555 1_555
C17 C16 1_555 1_555
C18 C17 1_555 1_555
H16 C18 1_555 1_555
C19 C14 1_555 1_555
H17 C19 1_555 1_555
C20 C17 1_555 1_555
C21 C20 1_555 1_555
H18 C21 1_555 1_555
C22 C21 1_555 1_555
H19 C22 1_555 1_555
C23 C22 1_555 1_555
H20 C23 1_555 1_555
C24 C23 1_555 1_555
H21 C24 1_555 1_555
C25 C20 1_555 1_555
H22 C25 1_555 1_555
C12 C13 1_555 1_555
C13 S1 1_555 1_555
C18 C19 1_555 1_555
C24 C25 1_555 1_555

#END
