
#######################################################################
#
#                 Cambridge Crystallographic Data Centre
#                                CCDC 
#
#######################################################################
#
# If this CIF has been generated from an entry in the Cambridge 
# Structural Database, then it will include bibliographic, chemical, 
# crystal, experimental, refinement or atomic coordinate data resulting 
# from the CCDC's data processing and validation procedures.
#
#######################################################################

data_IMOGIC
_chemical_formula_moiety         'C22 H18 Br2 O4'
_chemical_name_systematic        
"dimethyl 4,4''-dibromo-1',4'-dihydro-1,1':4',1''-terphenyl-2',3'-dicarboxylate"
_symmetry_cell_setting           monoclinic
_symmetry_space_group_name_H-M   'P 21/n'
_symmetry_Int_Tables_number      14
_space_group_name_Hall           '-P 2yn'
loop_
_symmetry_equiv_pos_site_id
_symmetry_equiv_pos_as_xyz
1 x,y,z
2 1/2-x,1/2+y,1/2-z
3 -x,-y,-z
4 1/2+x,1/2-y,1/2+z
_cell_length_a                   8.4295(3)
_cell_length_b                   10.9126(4)
_cell_length_c                   22.0700(9)
_cell_angle_alpha                90
_cell_angle_beta                 90.7067(13)
_cell_angle_gamma                90
_cell_volume                     2030.02
_exptl_crystal_colour            colorless
_exptl_crystal_description       parallelepiped
_cell_formula_units_Z            4
loop_
_atom_site_label
_atom_site_type_symbol
_atom_site_fract_x
_atom_site_fract_y
_atom_site_fract_z
Br1 Br -0.22056(2) 1.14447(2) 0.17926(2)
Br2 Br 0.28802(2) 0.49892(2) 0.45078(2)
O1 O 0.26530(13) 0.61208(11) 0.03899(5)
O2 O 0.02212(12) 0.67070(11) 0.00905(5)
O3 O 0.39941(13) 0.50818(12) 0.15573(6)
O4 O 0.30747(12) 0.36437(9) 0.09136(5)
C1 C 0.04149(16) 0.56568(13) 0.10108(6)
C2 C 0.11983(16) 0.48910(12) 0.13777(6)
C3 C 0.04390(16) 0.41803(13) 0.18849(6)
H1 H 0.0551 0.3292 0.1784
C4 C -0.13092(16) 0.44403(13) 0.19202(6)
H2 H -0.1902 0.3999 0.2212
C5 C -0.20802(17) 0.52346(12) 0.15767(7)
H3 H -0.3186 0.5334 0.1639
C6 C -0.13135(16) 0.59930(13) 0.10923(7)
H4 H -0.1887 0.5832 0.0701
C7 C 0.12459(17) 0.61795(13) 0.04738(7)
C8 C 0.09028(19) 0.72456(14) -0.04450(7)
H5 H 0.1675 0.7875 -0.0325
H6 H 0.006 0.7619 -0.0693
H7 H 0.1435 0.6608 -0.068
C9 C 0.29222(17) 0.45912(14) 0.12895(7)
C10 C 0.46887(19) 0.32918(17) 0.07780(9)
H8 H 0.5196 0.3943 0.0544
H9 H 0.468 0.2532 0.0541
H10 H 0.5283 0.3162 0.1157
C11 C -0.15058(16) 0.73517(13) 0.12457(6)
C12 C -0.07074(17) 0.78407(14) 0.17438(7)
H11 H -0.0022 0.733 0.1977
C13 C -0.08918(17) 0.90633(14) 0.19074(7)
H12 H -0.0334 0.9394 0.2246
C14 C -0.19058(17) 0.97833(12) 0.15650(7)
C15 C -0.27271(18) 0.93217(14) 0.10708(7)
H13 H -0.3429 0.983 0.0844
C16 C -0.25121(18) 0.80998(14) 0.09098(7)
H14 H -0.306 0.7776 0.0567
C17 C 0.11809(16) 0.43616(13) 0.25119(7)
C18 C 0.11192(17) 0.34130(13) 0.29308(7)
H15 H 0.0724 0.2636 0.2808
C19 C 0.16259(18) 0.35806(14) 0.35268(7)
H16 H 0.1578 0.2928 0.3811
C20 C 0.22006(18) 0.47167(14) 0.36971(7)
C21 C 0.22983(18) 0.56726(14) 0.32880(7)
H17 H 0.2708 0.6445 0.3412
C22 C 0.17929(17) 0.54925(13) 0.26953(7)
H18 H 0.1863 0.6144 0.2411
loop_
_geom_bond_atom_site_label_1
_geom_bond_atom_site_label_2
_geom_bond_site_symmetry_1
_geom_bond_site_symmetry_2
Br1 C14 1_555 1_555
Br2 C20 1_555 1_555
O1 C7 1_555 1_555
O2 C7 1_555 1_555
O3 C9 1_555 1_555
O4 C9 1_555 1_555
C1 C2 1_555 1_555
C2 C3 1_555 1_555
C3 H1 1_555 1_555
C4 C3 1_555 1_555
H2 C4 1_555 1_555
C5 C4 1_555 1_555
H3 C5 1_555 1_555
C6 C1 1_555 1_555
H4 C6 1_555 1_555
C7 C1 1_555 1_555
C8 O2 1_555 1_555
H5 C8 1_555 1_555
H6 C8 1_555 1_555
H7 C8 1_555 1_555
C9 C2 1_555 1_555
C10 O4 1_555 1_555
H8 C10 1_555 1_555
H9 C10 1_555 1_555
H10 C10 1_555 1_555
C11 C6 1_555 1_555
C12 C11 1_555 1_555
H11 C12 1_555 1_555
C13 C12 1_555 1_555
H12 C13 1_555 1_555
C14 C13 1_555 1_555
C15 C14 1_555 1_555
H13 C15 1_555 1_555
C16 C11 1_555 1_555
H14 C16 1_555 1_555
C17 C3 1_555 1_555
C18 C17 1_555 1_555
H15 C18 1_555 1_555
C19 C18 1_555 1_555
H16 C19 1_555 1_555
C20 C19 1_555 1_555
C21 C20 1_555 1_555
H17 C21 1_555 1_555
C22 C17 1_555 1_555
H18 C22 1_555 1_555
C5 C6 1_555 1_555
C15 C16 1_555 1_555
C21 C22 1_555 1_555

#END
