
#######################################################################
#
#                 Cambridge Crystallographic Data Centre
#                                CCDC 
#
#######################################################################
#
# If this CIF has been generated from an entry in the Cambridge 
# Structural Database, then it will include bibliographic, chemical, 
# crystal, experimental, refinement or atomic coordinate data resulting 
# from the CCDC's data processing and validation procedures.
#
#######################################################################

data_IMOGOI
_chemical_formula_moiety         'C78 H54 O12,2(C6 H12),C1 H2 Cl2'
_chemical_name_systematic        
'hexamethyl tridecacyclo[40.6.2.2^2,5^.2^6,9^.2^10,17^.2^18,21^.2^22,25^.2^26,33^.2^34,37^.2^38,41^.0^11,16^.0^27,32^.0^43,48^]hexahexaconta-1(49),2,4,6,8,10(62),11,13,15,17(61),18,20,22,24,26(56),27,29,31,33(55),34,36,38,40,42(50),43,45,47,51,53,57,59,63,65-tritriacontaene-49,50,55,56,61,62-hexacarboxylate cyclohexane dichloromethane solvate'
_symmetry_cell_setting           triclinic
_symmetry_space_group_name_H-M   'P -1'
_symmetry_Int_Tables_number      2
_space_group_name_Hall           '-P 1'
loop_
_symmetry_equiv_pos_site_id
_symmetry_equiv_pos_as_xyz
1 x,y,z
2 -x,-y,-z
_cell_length_a                   14.0233(8)
_cell_length_b                   16.2794(10)
_cell_length_c                   19.2082(11)
_cell_angle_alpha                66.9176(15)
_cell_angle_beta                 72.0505(16)
_cell_angle_gamma                77.5633(16)
_cell_volume                     3815.2
_exptl_crystal_colour            colorless
_exptl_crystal_description       parallelepiped
_cell_formula_units_Z            2
loop_
_atom_site_label
_atom_site_type_symbol
_atom_site_fract_x
_atom_site_fract_y
_atom_site_fract_z
O1 O 0.48466(10) 0.70154(10) 1.22095(10)
O2 O 0.62193(9) 0.62503(8) 1.17176(7)
O3 O 0.57537(10) 0.88957(12) 1.10830(9)
O4 O 0.71856(10) 0.82023(8) 1.05726(7)
O5 O 0.86664(12) 0.40501(9) 1.07833(9)
O6 O 0.94313(9) 0.26551(10) 1.11488(7)
O7 O 0.92526(10) 0.46068(8) 0.87832(8)
O8 O 1.01937(9) 0.33783(8) 0.93507(7)
O9 O 0.66634(10) 0.90556(11) 0.65690(9)
O10 O 0.73804(11) 0.77941(9) 0.73115(8)
O11 O 0.71797(10) 0.92482(9) 0.80836(8)
O12 O 0.70266(10) 1.06156(9) 0.71871(8)
C1 C 0.75897(13) 0.81890(11) 1.20425(10)
C2 C 0.68175(13) 0.79103(12) 1.19056(10)
C3 C 0.64414(13) 0.70859(12) 1.23906(10)
C4 C 0.68167(13) 0.65312(12) 1.30188(10)
C5 C 0.75191(13) 0.68574(12) 1.32312(9)
C6 C 0.78571(15) 0.63575(14) 1.39192(10)
H1 H 0.761 0.5798 1.4255
C7 C 0.85422(16) 0.66800(16) 1.41019(11)
H2 H 0.8758 0.6343 1.4567
C8 C 0.89229(17) 0.74920(15) 1.36152(12)
H3 H 0.9399 0.7704 1.3748
C9 C 0.86177(14) 0.79821(13) 1.29521(10)
H4 H 0.8885 0.8535 1.2623
C10 C 0.79052(14) 0.76843(12) 1.27403(10)
C11 C 0.65067(13) 0.84076(12) 1.11548(10)
C12 C 0.70360(16) 0.86943(15) 0.97954(11)
H5 H 0.6512 0.8446 0.9721
H6 H 0.7668 0.8642 0.9407
H7 H 0.6826 0.9329 0.9732
C13 C 0.57261(14) 0.67812(12) 1.21150(11)
C14 C 0.56032(17) 0.59182(14) 1.14226(12)
H8 H 0.5011 0.5689 1.1841
H9 H 0.5998 0.5433 1.1241
H10 H 0.5383 0.6408 1.0987
C15 C 0.66665(14) 0.55590(13) 1.33247(10)
C16 C 0.75125(14) 0.49576(13) 1.31943(10)
H11 H 0.8161 0.5109 1.3126
C17 C 0.74248(14) 0.41494(13) 1.31626(10)
H12 H 0.8016 0.3754 1.3069
C18 C 0.64888(15) 0.38958(13) 1.32644(11)
C19 C 0.56409(15) 0.44350(14) 1.35190(11)
H13 H 0.4992 0.4238 1.3676
C20 C 0.57298(15) 0.52536(14) 1.35461(11)
H14 H 0.5142 0.561 1.3718
C21 C 0.64650(14) 0.32481(13) 1.29042(11)
C22 C 0.72159(14) 0.25311(13) 1.28717(11)
H15 H 0.7581 0.2274 1.3264
C23 C 0.74344(14) 0.21912(12) 1.22729(11)
H16 H 0.7941 0.17 1.2266
C24 C 0.69247(13) 0.25582(11) 1.16849(11)
C25 C 0.60596(13) 0.31582(12) 1.17954(11)
H17 H 0.5625 0.3339 1.1455
C26 C 0.58361(14) 0.34882(12) 1.23959(11)
H18 H 0.5241 0.3888 1.2466
C27 C 0.73580(12) 0.25382(10) 1.08756(10)
C28 C 0.82186(12) 0.29585(10) 1.04412(10)
C29 C 0.84868(12) 0.32494(10) 0.96112(10)
C30 C 0.79110(12) 0.30982(10) 0.92173(10)
C31 C 0.70885(12) 0.25711(10) 0.96528(10)
C32 C 0.65286(13) 0.23068(11) 0.92859(11)
H19 H 0.6693 0.2496 0.8732
C33 C 0.57590(14) 0.17854(12) 0.97175(12)
H20 H 0.5397 0.1613 0.9461
C34 C 0.54989(14) 0.15031(12) 1.05312(12)
H21 H 0.497 0.1132 1.0825
C35 C 0.60009(13) 0.17581(11) 1.09067(12)
H22 H 0.5802 0.1577 1.146
C36 C 0.68131(12) 0.22878(10) 1.04857(10)
C37 C 0.87838(14) 0.32887(12) 1.08126(11)
C38 C 1.00188(17) 0.29339(19) 1.15083(13)
H23 H 1.0335 0.3471 1.113
H24 H 1.0542 0.2449 1.1673
H25 H 0.9575 0.3069 1.1964
C39 C 0.93374(13) 0.38339(11) 0.91896(10)
C40 C 1.10704(15) 0.38814(15) 0.90167(14)
H26 H 1.1196 0.4124 0.8446
H27 H 1.1661 0.3482 0.9166
H28 H 1.0943 0.4376 0.9214
C41 C 0.80787(13) 0.36175(11) 0.83630(10)
C42 C 0.90093(14) 0.35931(12) 0.78344(10)
H29 H 0.9481 0.3074 0.7945
C43 C 0.92568(15) 0.43093(12) 0.71540(10)
H30 H 0.99 0.4281 0.6802
C44 C 0.85718(14) 0.50831(12) 0.69719(10)
C45 C 0.75891(14) 0.50283(12) 0.74376(10)
H31 H 0.7078 0.5496 0.728
C46 C 0.73392(13) 0.43127(12) 0.81202(10)
H32 H 0.6662 0.4291 0.8427
C47 C 0.89093(15) 0.59776(12) 0.64733(10)
C48 C 0.97364(14) 0.61975(13) 0.65959(11)
H33 H 1.0194 0.5729 0.6837
C49 C 0.99064(14) 0.70758(13) 0.63767(11)
H34 H 1.0479 0.7205 0.6465
C50 C 0.92461(13) 0.77801(12) 0.60255(10)
C51 C 0.85053(15) 0.75647(13) 0.58057(10)
H35 H 0.8109 0.8031 0.5498
C52 C 0.83360(15) 0.66806(13) 0.60281(10)
H36 H 0.782 0.6549 0.5875
C53 C 0.92306(13) 0.86585(12) 0.61018(10)
C54 C 0.83793(13) 0.89766(12) 0.65559(10)
C55 C 0.84233(13) 0.96189(11) 0.68686(10)
C56 C 0.93250(13) 0.99152(11) 0.67632(11)
C57 C 1.01795(14) 0.97027(12) 0.61967(11)
C58 C 1.10984(15) 1.00840(14) 0.59620(13)
H37 H 1.1149 1.0499 0.6182
C59 C 1.19095(16) 0.98679(15) 0.54285(14)
H38 H 1.2517 1.0131 0.5282
C60 C 1.18491(16) 0.92628(15) 0.50987(13)
H39 H 1.2416 0.9119 0.4725
C61 C 1.09875(14) 0.88744(14) 0.53058(11)
H40 H 1.0958 0.8464 0.5074
C62 C 1.01338(13) 0.90770(12) 0.58643(11)
C63 C 0.73865(15) 0.86117(14) 0.68075(11)
C64 C 0.6394(2) 0.74696(19) 0.75449(19)
H41 H 0.5867 0.7918 0.7693
H42 H 0.6374 0.6904 0.7991
H43 H 0.628 0.737 0.7107
C65 C 0.74890(13) 0.97961(12) 0.74568(10)
C66 C 0.61120(17) 1.08224(16) 0.77333(14)
H44 H 0.5609 1.0428 0.7834
H45 H 0.5844 1.145 0.7509
H46 H 0.6267 1.0728 0.8225
C67 C 0.94597(14) 1.01933(12) 0.73786(12)
C68 C 1.01684(15) 0.96564(14) 0.77794(12)
H47 H 1.0708 0.9317 0.7535
C69 C 1.01103(15) 0.96031(15) 0.85221(13)
H48 H 1.0616 0.9233 0.8777
C70 C 0.93287(13) 1.00777(11) 0.89123(11)
C71 C 0.87419(15) 1.07268(12) 0.84533(12)
H49 H 0.8284 1.1145 0.8661
C72 C 0.87980(16) 1.07882(12) 0.77056(12)
H50 H 0.8379 1.1243 0.7411
C73 C 0.90483(12) 0.97736(11) 0.97757(11)
C74 C 0.95246(13) 0.89775(12) 1.02100(12)
H51 H 1.0153 0.8732 0.9962
C75 C 0.91084(13) 0.85418(12) 1.09849(11)
H52 H 0.9458 0.8006 1.1266
C76 C 0.81804(13) 0.88706(11) 1.13686(10)
C77 C 0.77697(15) 0.97204(12) 1.09696(11)
H53 H 0.7183 0.9999 1.1234
C78 C 0.82048(14) 1.01639(12) 1.01934(11)
H54 H 0.7921 1.0751 0.9937
C79 C 0.5906(5) 0.9372(4) 0.4134(2)
H55 H 0.5314 0.9661 0.4428
H56 H 0.643 0.9793 0.3863
C80 C 0.5609(3) 0.9126(3) 0.3549(2)
H57 H 0.6155 0.8742 0.3316
H58 H 0.5405 0.9665 0.3129
C81 C 0.4706(4) 0.8606(4) 0.4103(3)
H59 H 0.4347 0.8481 0.379
H60 H 0.423 0.8984 0.4386
C82 C 0.5038(6) 0.7710(4) 0.4702(3)
H61 H 0.4475 0.7334 0.4994
H62 H 0.561 0.7365 0.4445
C83 C 0.5354(3) 0.8042(3) 0.5235(2)
H63 H 0.5496 0.7538 0.5702
H64 H 0.483 0.8488 0.5403
C84 C 0.6322(4) 0.8475(4) 0.4695(4)
H65 H 0.6759 0.8091 0.4403
H66 H 0.6708 0.8586 0.4996
C91 C 0.3158(3) 0.6391(2) 0.4534(2)
H79 H 0.3876 0.6494 0.4377
H80 H 0.2935 0.6175 0.5111
C92 C 0.2518(3) 0.7277(3) 0.4186(4)
H81 H 0.2587 0.773 0.4388
H82 H 0.2773 0.7509 0.3611
C93 C 0.1411(3) 0.7141(3) 0.4396(2)
H83 H 0.1145 0.6898 0.497
H84 H 0.1007 0.7717 0.4183
C94 C 0.1367(5) 0.6488(3) 0.4038(3)
H85 H 0.1694 0.6706 0.3472
H86 H 0.0658 0.6411 0.4109
C95 C 0.1923(3) 0.5601(3) 0.4451(3)
H87 H 0.1655 0.5434 0.5024
H88 H 0.1814 0.5121 0.4298
C96 C 0.3036(3) 0.5686(3) 0.4235(3)
H89 H 0.3306 0.5876 0.3661
H90 H 0.3406 0.5103 0.4479
C103 C 0.2683(3) 0.4367(2) 0.0511(3)
H103 H 0.2236 0.4455 0.0994
H104 H 0.2348 0.472 0.0082
Cl1 Cl 0.27869(8) 0.32482(7) 0.06340(7)
Cl2 Cl 0.38046(10) 0.48035(7) 0.03022(7)
C85? C 0.6130(4) 0.9259(7) 0.4121(3)
H67? H 0.6248 0.9883 0.4006
H68? H 0.6758 0.8944 0.3888
C86? C 0.5253(4) 0.9248(3) 0.3810(3)
H69? H 0.5379 0.9593 0.3242
H70? H 0.4616 0.9515 0.408
C87? C 0.5192(6) 0.8252(3) 0.3976(3)
H71? H 0.5863 0.7937 0.3817
H72? H 0.4722 0.8182 0.3715
C88? C 0.4780(4) 0.7923(6) 0.4875(2)
H73? H 0.4262 0.8382 0.5028
H74? H 0.4466 0.7361 0.5057
C89? C 0.5665(4) 0.7755(3) 0.5249(4)
H75? H 0.6272 0.7427 0.5007
H76? H 0.5479 0.7444 0.5822
C90? C 0.5781(6) 0.8759(3) 0.5015(3)
H77? H 0.6275 0.8805 0.5268
H78? H 0.5125 0.9064 0.522
C97? C 0.1559(4) 0.7178(3) 0.3798(4)
H91? H 0.1527 0.7684 0.397
H92? H 0.109 0.7345 0.3459
C98? C 0.2641(3) 0.6955(5) 0.3356(2)
H93? H 0.2726 0.637 0.3286
H94? H 0.284 0.743 0.284
C99? C 0.3222(3) 0.6921(3) 0.3917(2)
H95? H 0.2977 0.7419 0.4123
H96? H 0.3957 0.6916 0.3679
C100? C 0.2938(4) 0.6002(4) 0.4548(4)
H97? H 0.343 0.5719 0.4873
H98? H 0.2851 0.5579 0.4321
C101? C 0.1919(3) 0.6360(4) 0.5002(2)
H99? H 0.1713 0.5954 0.5551
H100? H 0.1924 0.6975 0.4984
C102? C 0.1282(3) 0.6335(3) 0.4499(2)
H101? H 0.1478 0.579 0.4355
H102? H 0.0553 0.6375 0.4759
C104? C 0.2748(4) 0.4415(3) 0.0600(4)
H105? H 0.235 0.4372 0.1135
H106? H 0.2454 0.4936 0.0216
Cl3? Cl 0.2816(4) 0.3441(2) 0.0437(3)
Cl4? Cl 0.40193(19) 0.4481(3) 0.0473(2)
loop_
_geom_bond_atom_site_label_1
_geom_bond_atom_site_label_2
_geom_bond_site_symmetry_1
_geom_bond_site_symmetry_2
O1 C13 1_555 1_555
O2 C13 1_555 1_555
O3 C11 1_555 1_555
O4 C11 1_555 1_555
O5 C37 1_555 1_555
O6 C37 1_555 1_555
O7 C39 1_555 1_555
O8 C39 1_555 1_555
O9 C63 1_555 1_555
O10 C63 1_555 1_555
O11 C65 1_555 1_555
O12 C65 1_555 1_555
C1 C2 1_555 1_555
C2 C3 1_555 1_555
C3 C4 1_555 1_555
C4 C5 1_555 1_555
C5 C6 1_555 1_555
C6 H1 1_555 1_555
C7 C6 1_555 1_555
H2 C7 1_555 1_555
C8 C7 1_555 1_555
H3 C8 1_555 1_555
C9 C8 1_555 1_555
H4 C9 1_555 1_555
C10 C1 1_555 1_555
C11 C2 1_555 1_555
C12 O4 1_555 1_555
H5 C12 1_555 1_555
H6 C12 1_555 1_555
H7 C12 1_555 1_555
C13 C3 1_555 1_555
C14 O2 1_555 1_555
H8 C14 1_555 1_555
H9 C14 1_555 1_555
H10 C14 1_555 1_555
C15 C4 1_555 1_555
C16 C15 1_555 1_555
H11 C16 1_555 1_555
C17 C16 1_555 1_555
H12 C17 1_555 1_555
C18 C17 1_555 1_555
C19 C18 1_555 1_555
H13 C19 1_555 1_555
C20 C15 1_555 1_555
H14 C20 1_555 1_555
C21 C18 1_555 1_555
C22 C21 1_555 1_555
H15 C22 1_555 1_555
C23 C22 1_555 1_555
H16 C23 1_555 1_555
C24 C23 1_555 1_555
C25 C24 1_555 1_555
H17 C25 1_555 1_555
C26 C21 1_555 1_555
H18 C26 1_555 1_555
C27 C24 1_555 1_555
C28 C27 1_555 1_555
C29 C28 1_555 1_555
C30 C29 1_555 1_555
C31 C30 1_555 1_555
C32 C31 1_555 1_555
H19 C32 1_555 1_555
C33 C32 1_555 1_555
H20 C33 1_555 1_555
C34 C33 1_555 1_555
H21 C34 1_555 1_555
C35 C34 1_555 1_555
H22 C35 1_555 1_555
C36 C27 1_555 1_555
C37 C28 1_555 1_555
C38 O6 1_555 1_555
H23 C38 1_555 1_555
H24 C38 1_555 1_555
H25 C38 1_555 1_555
C39 C29 1_555 1_555
C40 O8 1_555 1_555
H26 C40 1_555 1_555
H27 C40 1_555 1_555
H28 C40 1_555 1_555
C41 C30 1_555 1_555
C42 C41 1_555 1_555
H29 C42 1_555 1_555
C43 C42 1_555 1_555
H30 C43 1_555 1_555
C44 C43 1_555 1_555
C45 C44 1_555 1_555
H31 C45 1_555 1_555
C46 C41 1_555 1_555
H32 C46 1_555 1_555
C47 C44 1_555 1_555
C48 C47 1_555 1_555
H33 C48 1_555 1_555
C49 C48 1_555 1_555
H34 C49 1_555 1_555
C50 C49 1_555 1_555
C51 C50 1_555 1_555
H35 C51 1_555 1_555
C52 C47 1_555 1_555
H36 C52 1_555 1_555
C53 C50 1_555 1_555
C54 C53 1_555 1_555
C55 C54 1_555 1_555
C56 C55 1_555 1_555
C57 C56 1_555 1_555
C58 C57 1_555 1_555
H37 C58 1_555 1_555
C59 C58 1_555 1_555
H38 C59 1_555 1_555
C60 C59 1_555 1_555
H39 C60 1_555 1_555
C61 C60 1_555 1_555
H40 C61 1_555 1_555
C62 C53 1_555 1_555
C63 C54 1_555 1_555
C64 O10 1_555 1_555
H41 C64 1_555 1_555
H42 C64 1_555 1_555
H43 C64 1_555 1_555
C65 C55 1_555 1_555
C66 O12 1_555 1_555
H44 C66 1_555 1_555
H45 C66 1_555 1_555
H46 C66 1_555 1_555
C67 C56 1_555 1_555
C68 C67 1_555 1_555
H47 C68 1_555 1_555
C69 C68 1_555 1_555
H48 C69 1_555 1_555
C70 C69 1_555 1_555
C71 C70 1_555 1_555
H49 C71 1_555 1_555
C72 C67 1_555 1_555
H50 C72 1_555 1_555
C73 C70 1_555 1_555
C74 C73 1_555 1_555
H51 C74 1_555 1_555
C75 C74 1_555 1_555
H52 C75 1_555 1_555
C76 C1 1_555 1_555
C77 C76 1_555 1_555
H53 C77 1_555 1_555
C78 C73 1_555 1_555
H54 C78 1_555 1_555
C79 H55 1_555 1_555
H56 C79 1_555 1_555
C80 C79 1_555 1_555
H57 C80 1_555 1_555
H58 C80 1_555 1_555
C81 C80 1_555 1_555
H59 C81 1_555 1_555
H60 C81 1_555 1_555
C82 C81 1_555 1_555
H61 C82 1_555 1_555
H62 C82 1_555 1_555
C83 C82 1_555 1_555
H63 C83 1_555 1_555
H64 C83 1_555 1_555
C84 C79 1_555 1_555
H65 C84 1_555 1_555
H66 C84 1_555 1_555
C91 H79 1_555 1_555
H80 C91 1_555 1_555
C92 C91 1_555 1_555
H81 C92 1_555 1_555
H82 C92 1_555 1_555
C93 C92 1_555 1_555
H83 C93 1_555 1_555
H84 C93 1_555 1_555
C94 C93 1_555 1_555
H85 C94 1_555 1_555
H86 C94 1_555 1_555
C95 C94 1_555 1_555
H87 C95 1_555 1_555
H88 C95 1_555 1_555
C96 C91 1_555 1_555
H89 C96 1_555 1_555
H90 C96 1_555 1_555
C103 H103 1_555 1_555
H104 C103 1_555 1_555
Cl1 C103 1_555 1_555
Cl2 C103 1_555 1_555
C5 C10 1_555 1_555
C9 C10 1_555 1_555
C19 C20 1_555 1_555
C25 C26 1_555 1_555
C31 C36 1_555 1_555
C35 C36 1_555 1_555
C45 C46 1_555 1_555
C51 C52 1_555 1_555
C57 C62 1_555 1_555
C61 C62 1_555 1_555
C71 C72 1_555 1_555
C75 C76 1_555 1_555
C77 C78 1_555 1_555
C83 C84 1_555 1_555
C95 C96 1_555 1_555

#END
