
#######################################################################
#
#                 Cambridge Crystallographic Data Centre
#                                CCDC 
#
#######################################################################
#
# If this CIF has been generated from an entry in the Cambridge 
# Structural Database, then it will include bibliographic, chemical, 
# crystal, experimental, refinement or atomic coordinate data resulting 
# from the CCDC's data processing and validation procedures.
#
#######################################################################

data_IMONED
_chemical_formula_moiety         'C21 H25 N1 O5'
_chemical_name_systematic        
'Methyl 2-N-benzylamino-4,6-O-benzylidene-2-deoxy-\a-D-glucopyranoside'
_symmetry_cell_setting           monoclinic
_symmetry_space_group_name_H-M   'P 21'
_symmetry_Int_Tables_number      4
_space_group_name_Hall           'P 2yb'
loop_
_symmetry_equiv_pos_site_id
_symmetry_equiv_pos_as_xyz
1 x,y,z
2 -x,1/2+y,-z
_cell_length_a                   6.444(1)
_cell_length_b                   11.612(2)
_cell_length_c                   12.764(2)
_cell_angle_alpha                90
_cell_angle_beta                 98.00(1)
_cell_angle_gamma                90
_cell_volume                     945.806
_exptl_crystal_colour            colorless
_exptl_crystal_description       prism
_chemical_melting_point          444K
_cell_formula_units_Z            2
loop_
_atom_site_label
_atom_site_type_symbol
_atom_site_fract_x
_atom_site_fract_y
_atom_site_fract_z
O1 O 0.87057(19) 0.80757(12) 0.31504(10)
O2 O 0.36448(18) 0.58452(12) 0.15243(10)
H1 H 0.266(5) 0.623(3) 0.168(2)
O3 O 0.62436(17) 0.43659(10) 0.29455(9)
O4 O 0.99652(17) 0.65221(10) 0.22502(9)
O5 O 0.96514(18) 0.37808(11) 0.36368(10)
N1 N 0.4995(2) 0.82660(14) 0.16797(13)
H2 H 0.505(4) 0.855(3) 0.236(2)
C1 C 0.8708(2) 0.75448(15) 0.21589(13)
H3 H 0.9318 0.8096 0.1683
C2 C 0.6424(2) 0.72822(14) 0.16722(13)
H4 H 0.6454 0.7076 0.0914
C3 C 0.5465(2) 0.62464(14) 0.21891(12)
H5 H 0.5087 0.6477 0.2893
C4 C 0.7020(2) 0.52625(14) 0.23275(12)
H6 H 0.7201 0.4948 0.1617
C5 C 0.9135(2) 0.56650(14) 0.28877(13)
H7 H 0.8961 0.6000 0.3592
C6 C 1.0608(3) 0.46352(16) 0.30387(15)
H8 H 1.1982 0.4872 0.3425
H9 H 1.0834 0.4317 0.2344
C7 C 0.7671(2) 0.34331(14) 0.30874(13)
H10 H 0.7875 0.3122 0.2378
C8 C 1.0745(3) 0.8499(2) 0.35823(18)
H11 H 1.1204(14) 0.9066(14) 0.3108(10)
H12 H 1.0673(6) 0.8851(14) 0.4264(13)
H13 H 1.1731(18) 0.7866(11) 0.3667(12)
C9 C 0.5462(4) 0.9212(2) 0.0997(3)
H14 H 0.6857 0.9541 0.1256
H15 H 0.5499 0.8909 0.0275
C11 C 0.3780(3) 1.01418(17) 0.09476(15)
C12 C 0.4373(3) 1.1222(2) 0.13300(15)
H17 H 0.5799 1.1355 0.1608
C13 C 0.2963(4) 1.21191(19) 0.13156(18)
H18 H 0.3408 1.2848 0.1601
C14 C 0.0904(4) 1.1943(2) 0.08911(18)
H19 H -0.0075 1.2558 0.0870
C15 C 0.0242(3) 1.0867(3) 0.04857(17)
H20 H -0.1176 1.0743 0.0188
C16 C 0.1697(3) 0.9957(2) 0.05250(16)
H21 H 0.1264 0.9217 0.0263
C17 C 0.6753(2) 0.25011(15) 0.37060(12)
C18 C 0.4871(3) 0.26667(15) 0.41065(14)
H22 H 0.4184 0.3392 0.4022
C19 C 0.3982(3) 0.17788(17) 0.46293(15)
H23 H 0.2716 0.1908 0.4914
C20 C 0.4944(3) 0.07056(17) 0.47374(15)
H24 H 0.4325 0.0096 0.5082
C21 C 0.6832(3) 0.05319(18) 0.43367(17)
H25 H 0.7499 -0.0199 0.4409
C22 C 0.7738(3) 0.14230(17) 0.38303(15)
H26 H 0.9027 0.1300 0.3565
C10? C 0.454(3) 0.8968(18) 0.0731(15)
H16? H 0.3741 0.8359 -0.0029
loop_
_geom_bond_atom_site_label_1
_geom_bond_atom_site_label_2
_geom_bond_site_symmetry_1
_geom_bond_site_symmetry_2
O1 C1 1_555 1_555
O2 H1 1_555 1_555
O3 C4 1_555 1_555
O4 C1 1_555 1_555
O5 C6 1_555 1_555
N1 H2 1_555 1_555
C1 H3 1_555 1_555
C2 N1 1_555 1_555
H4 C2 1_555 1_555
C3 O2 1_555 1_555
H5 C3 1_555 1_555
C4 C3 1_555 1_555
H6 C4 1_555 1_555
C5 O4 1_555 1_555
H7 C5 1_555 1_555
C6 C5 1_555 1_555
H8 C6 1_555 1_555
H9 C6 1_555 1_555
C7 O3 1_555 1_555
H10 C7 1_555 1_555
C8 O1 1_555 1_555
H11 C8 1_555 1_555
H12 C8 1_555 1_555
H13 C8 1_555 1_555
C9 N1 1_555 1_555
H14 C9 1_555 1_555
H15 C9 1_555 1_555
C11 C9 1_555 1_555
C12 C11 1_555 1_555
H17 C12 1_555 1_555
C13 C12 1_555 1_555
H18 C13 1_555 1_555
C14 C13 1_555 1_555
H19 C14 1_555 1_555
C15 C14 1_555 1_555
H20 C15 1_555 1_555
C16 C11 1_555 1_555
H21 C16 1_555 1_555
C17 C7 1_555 1_555
C18 C17 1_555 1_555
H22 C18 1_555 1_555
C19 C18 1_555 1_555
H23 C19 1_555 1_555
C20 C19 1_555 1_555
H24 C20 1_555 1_555
C21 C20 1_555 1_555
H25 C21 1_555 1_555
C22 C17 1_555 1_555
H26 C22 1_555 1_555
O5 C7 1_555 1_555
C1 C2 1_555 1_555
C2 C3 1_555 1_555
C4 C5 1_555 1_555
C15 C16 1_555 1_555
C21 C22 1_555 1_555

#END
