
#######################################################################
#
#                 Cambridge Crystallographic Data Centre
#                                CCDC 
#
#######################################################################
#
# If this CIF has been generated from an entry in the Cambridge 
# Structural Database, then it will include bibliographic, chemical, 
# crystal, experimental, refinement or atomic coordinate data resulting 
# from the CCDC's data processing and validation procedures.
#
#######################################################################

data_IMONIH
_chemical_formula_moiety         'C28 H31 N1 O5'
_chemical_name_systematic        
'Methyl 2-N,N-dibenzylamino-4,6-O-benzylidene-2-deoxy-\a-D-glucopyranoside'
_symmetry_cell_setting           monoclinic
_symmetry_space_group_name_H-M   'P 21'
_symmetry_Int_Tables_number      4
_space_group_name_Hall           'P 2yb'
loop_
_symmetry_equiv_pos_site_id
_symmetry_equiv_pos_as_xyz
1 x,y,z
2 -x,1/2+y,-z
_cell_length_a                   6.282(1)
_cell_length_b                   19.484(4)
_cell_length_c                   10.205(2)
_cell_angle_alpha                90
_cell_angle_beta                 90.22(1)
_cell_angle_gamma                90
_cell_volume                     1249.07
_exptl_crystal_colour            colorless
_exptl_crystal_description       prism
_chemical_melting_point          148-149deg.C
_cell_formula_units_Z            2
loop_
_atom_site_label
_atom_site_type_symbol
_atom_site_fract_x
_atom_site_fract_y
_atom_site_fract_z
O1 O -0.18965(19) 0.35579(7) 0.22849(12)
O2 O 0.0313(2) 0.49914(7) 0.41543(13)
O3 O 0.30808(19) 0.44783(6) 0.29653(12)
O4 O 0.4336(2) 0.35775(7) 0.08216(12)
H1 H 0.539(4) 0.3680(13) 0.127(2)
O5 O -0.0485(2) 0.24800(7) 0.28424(12)
N1 N 0.1506(2) 0.24079(7) 0.02715(14)
C1 C -0.1059(3) 0.29193(9) 0.18068(16)
H2 H -0.2184 0.2688 0.1270
C2 C 0.0889(3) 0.30463(8) 0.09315(16)
H3 H 0.0398 0.3365 0.0224
C3 C 0.2626(3) 0.34371(9) 0.16967(16)
H4 H 0.3142 0.3154 0.2451
C4 C 0.1593(3) 0.40926(9) 0.21915(16)
H5 H 0.1139 0.4376 0.1423
C5 C -0.0353(3) 0.39361(9) 0.30353(17)
H6 H 0.0086 0.3664 0.3822
C6 C -0.1310(3) 0.46166(10) 0.34642(18)
H7 H -0.1799 0.4880 0.2691
H8 H -0.2545 0.4536 0.4043
C7 C 0.2131(3) 0.51101(9) 0.33746(17)
H9 H 0.1732 0.5390 0.2590
C8 C -0.2297(3) 0.22097(11) 0.3527(2)
H10 H -0.311(2) 0.1918(8) 0.2941(11)
H11 H -0.318(2) 0.2585(6) 0.3826(15)
H12 H -0.1817(8) 0.1943(8) 0.4274(15)
C9 C 0.2248(3) 0.25063(10) -0.10930(17)
H13 H 0.2621 0.2054 -0.1470
H14 H 0.3554 0.2791 -0.1083
C10 C 0.3056(3) 0.19860(9) 0.09912(17)
H15 H 0.2873 0.2063 0.1943
H16 H 0.4513 0.2133 0.0755
C11 C 0.0600(3) 0.28471(10) -0.19599(16)
C12 C -0.1329(3) 0.25192(11) -0.22369(19)
H17 H -0.1601 0.2077 -0.1884
C13 C -0.2855(3) 0.28351(12) -0.30244(19)
H18 H -0.4161 0.2608 -0.3206
C14 C -0.2474(3) 0.34807(12) -0.35447(19)
H19 H -0.3521 0.3696 -0.4079
C15 C -0.0565(4) 0.38136(11) -0.32868(19)
H20 H -0.0301 0.4256 -0.3644
C16 C 0.0969(3) 0.34947(10) -0.24984(18)
H21 H 0.2279 0.3722 -0.2327
C17 C 0.2813(3) 0.12279(9) 0.07005(17)
C18 C 0.0878(3) 0.09002(10) 0.09582(18)
H22 H -0.0321 0.1163 0.1221
C19 C 0.0700(3) 0.01917(10) 0.08323(19)
H23 H -0.0614 -0.0028 0.1020
C20 C 0.2447(3) -0.01971(10) 0.04305(19)
H24 H 0.2331 -0.0682 0.0362
C21 C 0.4353(3) 0.01259(10) 0.01312(19)
H25 H 0.5533 -0.0135 -0.0167
C22 C 0.4531(3) 0.08382(10) 0.02706(18)
H26 H 0.5839 0.1058 0.0070
C23 C 0.3770(3) 0.54872(9) 0.41790(18)
C24 C 0.4949(3) 0.60173(10) 0.36298(19)
H27 H 0.4654 0.6164 0.2760
C25 C 0.6568(3) 0.63363(11) 0.4352(2)
H28 H 0.7363 0.6701 0.3977
C26 C 0.7010(3) 0.61161(11) 0.56202(19)
H29 H 0.8115 0.6329 0.6111
C27 C 0.5838(3) 0.55859(11) 0.61713(19)
H30 H 0.6147 0.5436 0.7037
C28 C 0.4212(3) 0.52741(10) 0.54583(18)
H31 H 0.3401 0.4916 0.5842
loop_
_geom_bond_atom_site_label_1
_geom_bond_atom_site_label_2
_geom_bond_site_symmetry_1
_geom_bond_site_symmetry_2
O1 C1 1_555 1_555
O2 C6 1_555 1_555
O3 C4 1_555 1_555
O4 H1 1_555 1_555
O5 C1 1_555 1_555
N1 C2 1_555 1_555
C1 H2 1_555 1_555
C2 C1 1_555 1_555
H3 C2 1_555 1_555
C3 O4 1_555 1_555
H4 C3 1_555 1_555
C4 C3 1_555 1_555
H5 C4 1_555 1_555
C5 O1 1_555 1_555
H6 C5 1_555 1_555
C6 C5 1_555 1_555
H7 C6 1_555 1_555
H8 C6 1_555 1_555
C7 O2 1_555 1_555
H9 C7 1_555 1_555
C8 O5 1_555 1_555
H10 C8 1_555 1_555
H11 C8 1_555 1_555
H12 C8 1_555 1_555
C9 N1 1_555 1_555
H13 C9 1_555 1_555
H14 C9 1_555 1_555
C10 N1 1_555 1_555
H15 C10 1_555 1_555
H16 C10 1_555 1_555
C11 C9 1_555 1_555
C12 C11 1_555 1_555
H17 C12 1_555 1_555
C13 C12 1_555 1_555
H18 C13 1_555 1_555
C14 C13 1_555 1_555
H19 C14 1_555 1_555
C15 C14 1_555 1_555
H20 C15 1_555 1_555
C16 C11 1_555 1_555
H21 C16 1_555 1_555
C17 C10 1_555 1_555
C18 C17 1_555 1_555
H22 C18 1_555 1_555
C19 C18 1_555 1_555
H23 C19 1_555 1_555
C20 C19 1_555 1_555
H24 C20 1_555 1_555
C21 C20 1_555 1_555
H25 C21 1_555 1_555
C22 C17 1_555 1_555
H26 C22 1_555 1_555
C23 C7 1_555 1_555
C24 C23 1_555 1_555
H27 C24 1_555 1_555
C25 C24 1_555 1_555
H28 C25 1_555 1_555
C26 C25 1_555 1_555
H29 C26 1_555 1_555
C27 C26 1_555 1_555
H30 C27 1_555 1_555
C28 C23 1_555 1_555
H31 C28 1_555 1_555
O3 C7 1_555 1_555
C2 C3 1_555 1_555
C4 C5 1_555 1_555
C15 C16 1_555 1_555
C21 C22 1_555 1_555
C27 C28 1_555 1_555

#END
