
#######################################################################
#
#                 Cambridge Crystallographic Data Centre
#                                CCDC 
#
#######################################################################
#
# If this CIF has been generated from an entry in the Cambridge 
# Structural Database, then it will include bibliographic, chemical, 
# crystal, experimental, refinement or atomic coordinate data resulting 
# from the CCDC's data processing and validation procedures.
#
#######################################################################

data_IMOPAD01
_chemical_formula_moiety         'C18 H26 B2 F2 O4'
_chemical_name_systematic        
2,2'-(2,5-difluoro-1,4-phenylene)bis(4,4,5,5-tetramethyl-1,3,2-dioxaborolane)
_symmetry_cell_setting           monoclinic
_symmetry_space_group_name_H-M   'C 2/c'
_symmetry_Int_Tables_number      15
_space_group_name_Hall           '-C 2yn'
loop_
_symmetry_equiv_pos_site_id
_symmetry_equiv_pos_as_xyz
1 x,y,z
2 -x,y,1/2-z
3 1/2+x,1/2+y,z
4 1/2-x,1/2+y,1/2-z
5 -x,-y,-z
6 x,-y,1/2+z
7 1/2-x,1/2-y,-z
8 1/2+x,1/2-y,1/2+z
_cell_length_a                   21.544(19)
_cell_length_b                   7.164(6)
_cell_length_c                   12.564(11)
_cell_angle_alpha                90
_cell_angle_beta                 98.611(12)
_cell_angle_gamma                90
_cell_volume                     1917.28
_exptl_crystal_colour            colorless
_exptl_crystal_description       Block
_cell_formula_units_Z            4
_exptl_crystal_recrystallization_method hexane
loop_
_atom_site_label
_atom_site_type_symbol
_atom_site_fract_x
_atom_site_fract_y
_atom_site_fract_z
F1 F 0.61889(4) 0.02106(13) 0.60785(7)
O1 O 0.65144(5) 0.29147(14) 0.45468(8)
O2 O 0.56902(5) 0.35509(15) 0.32276(8)
C1 C 0.55914(7) 0.0125(2) 0.55301(11)
C2 C 0.51720(7) -0.1041(2) 0.59269(11)
H1 H 0.5301 -0.1739 0.6564
C3 C 0.54455(7) 0.1200(2) 0.46073(11)
C4 C 0.67728(7) 0.4093(2) 0.37561(11)
C5 C 0.61668(7) 0.4960(2) 0.31015(12)
C6 C 0.71264(8) 0.2792(2) 0.31014(14)
H2 H 0.7453 0.2128 0.3584
H3 H 0.7321 0.3522 0.2580
H4 H 0.6833 0.1887 0.2718
C7 C 0.72199(8) 0.5489(2) 0.43640(13)
H5 H 0.7008 0.6145 0.4892
H6 H 0.7352 0.6392 0.3857
H7 H 0.7589 0.4832 0.4736
C8 C 0.61843(8) 0.5208(3) 0.19066(13)
H8 H 0.6282 0.4010 0.1593
H9 H 0.6508 0.6124 0.1803
H10 H 0.5775 0.5652 0.1552
C9 C 0.59548(9) 0.6753(2) 0.35809(15)
H11 H 0.5535 0.7087 0.3218
H12 H 0.6250 0.7759 0.3484
H13 H 0.5943 0.6572 0.4351
B1 B 0.59039(8) 0.2568(2) 0.41361(13)
F1D F 0.38111(4) -0.02106(13) 0.39215(7)
O1D O 0.34856(5) -0.29147(14) 0.54532(8)
O2D O 0.43098(5) -0.35509(15) 0.67724(8)
C1D C 0.44086(7) -0.0125(2) 0.44699(11)
C2D C 0.48280(7) 0.1041(2) 0.40731(11)
H1D H 0.4699 0.1739 0.3436
C3D C 0.45545(7) -0.1200(2) 0.53927(11)
C4D C 0.32272(7) -0.4093(2) 0.62439(11)
C5D C 0.38332(7) -0.4960(2) 0.68985(12)
C6D C 0.28736(8) -0.2792(2) 0.68986(14)
H2D H 0.2547 -0.2128 0.6416
H3D H 0.2679 -0.3522 0.7420
H4D H 0.3167 -0.1887 0.7282
C7D C 0.27801(8) -0.5489(2) 0.56360(13)
H5D H 0.2992 -0.6145 0.5108
H6D H 0.2648 -0.6392 0.6143
H7D H 0.2411 -0.4832 0.5264
C8D C 0.38157(8) -0.5208(3) 0.80934(13)
H8D H 0.3718 -0.4010 0.8407
H9D H 0.3492 -0.6124 0.8197
H10D H 0.4225 -0.5652 0.8448
C9D C 0.40452(9) -0.6753(2) 0.64191(15)
H11D H 0.4465 -0.7087 0.6782
H12D H 0.3750 -0.7759 0.6516
H13D H 0.4057 -0.6572 0.5649
B1D B 0.40961(8) -0.2568(2) 0.58639(13)
loop_
_geom_bond_atom_site_label_1
_geom_bond_atom_site_label_2
_geom_bond_site_symmetry_1
_geom_bond_site_symmetry_2
F1 C1 1_555 1_555
O1 C4 1_555 1_555
O2 C5 1_555 1_555
C1 C2 1_555 1_555
C2 H1 1_555 1_555
C3 C1 1_555 1_555
C4 C5 1_555 1_555
C5 C8 1_555 1_555
C6 C4 1_555 1_555
H2 C6 1_555 1_555
H3 C6 1_555 1_555
H4 C6 1_555 1_555
C7 C4 1_555 1_555
H5 C7 1_555 1_555
H6 C7 1_555 1_555
H7 C7 1_555 1_555
C8 H8 1_555 1_555
H9 C8 1_555 1_555
H10 C8 1_555 1_555
C9 C5 1_555 1_555
H11 C9 1_555 1_555
H12 C9 1_555 1_555
H13 C9 1_555 1_555
B1 O1 1_555 1_555
F1D C1D 1_555 1_555
O1D C4D 1_555 1_555
O2D C5D 1_555 1_555
C1D C2D 1_555 1_555
C2D C3 1_555 1_555
H1D C2D 1_555 1_555
C3D C2 1_555 1_555
C4D C5D 1_555 1_555
C5D C8D 1_555 1_555
C6D C4D 1_555 1_555
H2D C6D 1_555 1_555
H3D C6D 1_555 1_555
H4D C6D 1_555 1_555
C7D C4D 1_555 1_555
H5D C7D 1_555 1_555
H6D C7D 1_555 1_555
H7D C7D 1_555 1_555
C8D H8D 1_555 1_555
H9D C8D 1_555 1_555
H10D C8D 1_555 1_555
C9D C5D 1_555 1_555
H11D C9D 1_555 1_555
H12D C9D 1_555 1_555
H13D C9D 1_555 1_555
B1D O1D 1_555 1_555
O2 B1 1_555 1_555
C3 B1 1_555 1_555
O2D B1D 1_555 1_555
C1D C3D 1_555 1_555
C3D B1D 1_555 1_555

#END
