
#######################################################################
#
#                 Cambridge Crystallographic Data Centre
#                                CCDC 
#
#######################################################################
#
# If this CIF has been generated from an entry in the Cambridge 
# Structural Database, then it will include bibliographic, chemical, 
# crystal, experimental, refinement or atomic coordinate data resulting 
# from the CCDC's data processing and validation procedures.
#
#######################################################################

data_IMUCAV
_chemical_formula_moiety         'C52 H52 B2 N2 S2'
_chemical_name_systematic        
7,7,14,14-Tetramesityl-7,14-dihydro-6\l^5^,13\l^5^,7\l^5^,14\l^5^-[2,1]benzazaborolo[3'',2'':2',3'][1,3]thiazolo[5',4':4,5][1,3]thiazolo[3,2-b][2,1]benzazaborole
_symmetry_cell_setting           monoclinic
_symmetry_space_group_name_H-M   'P 21/c'
_symmetry_Int_Tables_number      14
_space_group_name_Hall           '-P 2ybc'
loop_
_symmetry_equiv_pos_site_id
_symmetry_equiv_pos_as_xyz
1 x,y,z
2 -x,1/2+y,1/2-z
3 -x,-y,-z
4 x,1/2-y,1/2+z
_cell_length_a                   9.0889(18)
_cell_length_b                   14.676(3)
_cell_length_c                   16.295(3)
_cell_angle_alpha                90
_cell_angle_beta                 94.18(3)
_cell_angle_gamma                90
_cell_volume                     2167.79
_exptl_crystal_colour            yellow
_exptl_crystal_description       block
_chemical_melting_point          '282 deg.C'
_cell_formula_units_Z            2
_exptl_crystal_recrystallization_method dichloromethane/hexane
loop_
_atom_site_label
_atom_site_type_symbol
_atom_site_fract_x
_atom_site_fract_y
_atom_site_fract_z
B1 B 0.3345(7) 0.0508(4) 0.1764(4)
C1 C 0.8371(6) 0.0659(4) -0.2623(3)
H1 H 0.8618 0.0210 -0.2992
C2 C 0.8862(7) 0.1540(4) -0.2725(3)
H2 H 0.9453 0.1668 -0.3153
C3 C 0.8499(7) 0.2230(4) -0.2210(4)
H3 H 0.8847 0.2817 -0.2288
C4 C 0.7619(6) 0.2054(3) -0.1576(3)
H4 H 0.7351 0.2515 -0.1225
C5 C 0.7144(6) 0.1163(3) -0.1480(3)
C6 C 0.7511(6) 0.0429(3) -0.1978(3)
C7 C 0.6236(6) 0.0830(3) -0.0848(3)
C8 C 0.4884(5) 0.0332(3) 0.0284(3)
C9 C 0.2557(6) 0.1399(3) 0.1326(3)
C10 C 0.3337(6) 0.2223(3) 0.1273(3)
C11 C 0.2694(7) 0.2975(3) 0.0866(3)
H5 H 0.3231 0.3514 0.0858
C12 C 0.1302(8) 0.2953(4) 0.0478(3)
C13 C 0.0513(7) 0.2149(4) 0.0528(3)
H6 H -0.0439 0.2119 0.0279
C14 C 0.1096(7) 0.1386(3) 0.0939(3)
C15 C 0.4870(7) 0.2383(3) 0.1681(3)
H7 H 0.5316 0.2893 0.1426
H8 H 0.5463 0.1849 0.1622
H9 H 0.4800 0.2509 0.2255
C16 C 0.0627(7) 0.3785(4) 0.0053(4)
H10 H 0.0221 0.4175 0.0452
H11 H -0.0142 0.3600 -0.0348
H12 H 0.1373 0.4110 -0.0216
C17 C 0.0086(7) 0.0567(4) 0.0976(4)
H13 H 0.0546 0.0047 0.0745
H14 H -0.0832 0.0692 0.0667
H15 H -0.0095 0.0444 0.1538
C18 C 0.4400(6) 0.0693(3) 0.2599(3)
C19 C 0.3767(6) 0.1202(3) 0.3229(3)
C20 C 0.4512(7) 0.1292(3) 0.4009(3)
H16 H 0.4080 0.1634 0.4407
C21 C 0.5865(7) 0.0891(3) 0.4205(3)
C22 C 0.6499(6) 0.0420(3) 0.3590(3)
H17 H 0.7435 0.0173 0.3701
C23 C 0.5796(6) 0.0300(3) 0.2808(3)
C24 C 0.2308(6) 0.1702(4) 0.3116(3)
H18 H 0.1970 0.1849 0.3645
H19 H 0.1594 0.1321 0.2819
H20 H 0.2436 0.2253 0.2812
C25 C 0.6594(7) 0.0973(4) 0.5068(3)
H21 H 0.7417 0.0562 0.5130
H22 H 0.5895 0.0822 0.5460
H23 H 0.6934 0.1587 0.5159
C26 C 0.6623(6) -0.0266(4) 0.2217(3)
H24 H 0.7559 -0.0444 0.2478
H25 H 0.6775 0.0087 0.1735
H26 H 0.6058 -0.0800 0.2063
N1 N 0.4140(4) 0.0045(2) 0.0945(2)
S1 S 0.56340(16) 0.13549(7) 0.00040(8)
B1B B 0.6655(7) -0.0508(4) -0.1764(4)
C1B C 0.1629(6) -0.0659(4) 0.2623(3)
H1B H 0.1382 -0.0210 0.2992
C2B C 0.1138(7) -0.1540(4) 0.2725(3)
H2B H 0.0547 -0.1668 0.3153
C3B C 0.1501(7) -0.2230(4) 0.2210(4)
H3B H 0.1153 -0.2817 0.2288
C4B C 0.2381(6) -0.2054(3) 0.1576(3)
H4B H 0.2649 -0.2515 0.1225
C5B C 0.2856(6) -0.1163(3) 0.1480(3)
C6B C 0.2489(6) -0.0429(3) 0.1978(3)
C7B C 0.3764(6) -0.0830(3) 0.0848(3)
C8B C 0.5116(5) -0.0332(3) -0.0284(3)
C9B C 0.7443(6) -0.1399(3) -0.1326(3)
C10B C 0.6663(6) -0.2223(3) -0.1273(3)
C11B C 0.7306(7) -0.2975(3) -0.0866(3)
H5B H 0.6769 -0.3514 -0.0858
C12B C 0.8698(8) -0.2953(4) -0.0478(3)
C13B C 0.9487(7) -0.2149(4) -0.0528(3)
H6B H 1.0439 -0.2119 -0.0279
C14B C 0.8904(7) -0.1386(3) -0.0939(3)
C15B C 0.5130(7) -0.2383(3) -0.1681(3)
H7B H 0.4684 -0.2893 -0.1426
H8B H 0.4537 -0.1849 -0.1622
H9B H 0.5200 -0.2509 -0.2255
C16B C 0.9373(7) -0.3785(4) -0.0053(4)
H10B H 0.9779 -0.4175 -0.0452
H11B H 1.0142 -0.3600 0.0348
H12B H 0.8627 -0.4110 0.0216
C17B C 0.9914(7) -0.0567(4) -0.0976(4)
H13B H 0.9454 -0.0047 -0.0745
H14B H 1.0832 -0.0692 -0.0667
H15B H 1.0095 -0.0444 -0.1538
C18B C 0.5600(6) -0.0693(3) -0.2599(3)
C19B C 0.6233(6) -0.1202(3) -0.3229(3)
C20B C 0.5488(7) -0.1292(3) -0.4009(3)
H16B H 0.5920 -0.1634 -0.4407
C21B C 0.4135(7) -0.0891(3) -0.4205(3)
C22B C 0.3501(6) -0.0420(3) -0.3590(3)
H17B H 0.2565 -0.0173 -0.3701
C23B C 0.4204(6) -0.0300(3) -0.2808(3)
C24B C 0.7692(6) -0.1702(4) -0.3116(3)
H18B H 0.8030 -0.1849 -0.3645
H19B H 0.8406 -0.1321 -0.2819
H20B H 0.7564 -0.2253 -0.2812
C25B C 0.3406(7) -0.0973(4) -0.5068(3)
H21B H 0.2583 -0.0562 -0.5130
H22B H 0.4105 -0.0822 -0.5460
H23B H 0.3066 -0.1587 -0.5159
C26B C 0.3377(6) 0.0266(4) -0.2217(3)
H24B H 0.2441 0.0444 -0.2478
H25B H 0.3225 -0.0087 -0.1735
H26B H 0.3942 0.0800 -0.2063
N1B N 0.5860(4) -0.0045(2) -0.0945(2)
S1B S 0.43660(16) -0.13549(7) -0.00040(8)
loop_
_geom_bond_atom_site_label_1
_geom_bond_atom_site_label_2
_geom_bond_site_symmetry_1
_geom_bond_site_symmetry_2
B1 C9 1_555 1_555
C1 H1 1_555 1_555
C2 C1 1_555 1_555
H2 C2 1_555 1_555
C3 C2 1_555 1_555
H3 C3 1_555 1_555
C4 C3 1_555 1_555
H4 C4 1_555 1_555
C5 C4 1_555 1_555
C6 C1 1_555 1_555
C7 C5 1_555 1_555
C8 N1 1_555 1_555
C9 C10 1_555 1_555
C10 C11 1_555 1_555
C11 H5 1_555 1_555
C12 C11 1_555 1_555
C13 C12 1_555 1_555
H6 C13 1_555 1_555
C14 C9 1_555 1_555
C15 C10 1_555 1_555
H7 C15 1_555 1_555
H8 C15 1_555 1_555
H9 C15 1_555 1_555
C16 C12 1_555 1_555
H10 C16 1_555 1_555
H11 C16 1_555 1_555
H12 C16 1_555 1_555
C17 C14 1_555 1_555
H13 C17 1_555 1_555
H14 C17 1_555 1_555
H15 C17 1_555 1_555
C18 B1 1_555 1_555
C19 C18 1_555 1_555
C20 C19 1_555 1_555
H16 C20 1_555 1_555
C21 C20 1_555 1_555
C22 C21 1_555 1_555
H17 C22 1_555 1_555
C23 C18 1_555 1_555
C24 C19 1_555 1_555
H18 C24 1_555 1_555
H19 C24 1_555 1_555
H20 C24 1_555 1_555
C25 C21 1_555 1_555
H21 C25 1_555 1_555
H22 C25 1_555 1_555
H23 C25 1_555 1_555
C26 C23 1_555 1_555
H24 C26 1_555 1_555
H25 C26 1_555 1_555
H26 C26 1_555 1_555
N1 B1 1_555 1_555
S1 C7 1_555 1_555
B1B C6 1_555 1_555
C1B H1B 1_555 1_555
C2B C1B 1_555 1_555
H2B C2B 1_555 1_555
C3B C2B 1_555 1_555
H3B C3B 1_555 1_555
C4B C3B 1_555 1_555
H4B C4B 1_555 1_555
C5B C4B 1_555 1_555
C6B B1 1_555 1_555
C7B N1 1_555 1_555
C8B C8 1_555 1_555
C9B B1B 1_555 1_555
C10B C9B 1_555 1_555
C11B C10B 1_555 1_555
H5B C11B 1_555 1_555
C12B C11B 1_555 1_555
C13B C12B 1_555 1_555
H6B C13B 1_555 1_555
C14B C9B 1_555 1_555
C15B C10B 1_555 1_555
H7B C15B 1_555 1_555
H8B C15B 1_555 1_555
H9B C15B 1_555 1_555
C16B C12B 1_555 1_555
H10B C16B 1_555 1_555
H11B C16B 1_555 1_555
H12B C16B 1_555 1_555
C17B C14B 1_555 1_555
H13B C17B 1_555 1_555
H14B C17B 1_555 1_555
H15B C17B 1_555 1_555
C18B B1B 1_555 1_555
C19B C18B 1_555 1_555
C20B C19B 1_555 1_555
H16B C20B 1_555 1_555
C21B C20B 1_555 1_555
C22B C21B 1_555 1_555
H17B C22B 1_555 1_555
C23B C18B 1_555 1_555
C24B C19B 1_555 1_555
H18B C24B 1_555 1_555
H19B C24B 1_555 1_555
H20B C24B 1_555 1_555
C25B C21B 1_555 1_555
H21B C25B 1_555 1_555
H22B C25B 1_555 1_555
H23B C25B 1_555 1_555
C26B C23B 1_555 1_555
H24B C26B 1_555 1_555
H25B C26B 1_555 1_555
H26B C26B 1_555 1_555
N1B C7 1_555 1_555
S1B C7B 1_555 1_555
C5 C6 1_555 1_555
C8 S1 1_555 1_555
C13 C14 1_555 1_555
C22 C23 1_555 1_555
B1B N1B 1_555 1_555
C1B C6B 1_555 1_555
C5B C6B 1_555 1_555
C5B C7B 1_555 1_555
C8B N1B 1_555 1_555
C8B S1B 1_555 1_555
C13B C14B 1_555 1_555
C22B C23B 1_555 1_555

#END
