
#######################################################################
#
#                 Cambridge Crystallographic Data Centre
#                                CCDC 
#
#######################################################################
#
# If this CIF has been generated from an entry in the Cambridge 
# Structural Database, then it will include bibliographic, chemical, 
# crystal, experimental, refinement or atomic coordinate data resulting 
# from the CCDC's data processing and validation procedures.
#
#######################################################################

data_IMUCEZ
_chemical_formula_moiety         'C16 H10 N2 S2'
_chemical_name_systematic        2,5-Diphenyl[1,3]thiazolo[5,4-d][1,3]thiazole
_symmetry_cell_setting           monoclinic
_symmetry_space_group_name_H-M   'P 21/c'
_symmetry_Int_Tables_number      14
_space_group_name_Hall           '-P 2ybc'
loop_
_symmetry_equiv_pos_site_id
_symmetry_equiv_pos_as_xyz
1 x,y,z
2 -x,1/2+y,1/2-z
3 -x,-y,-z
4 x,1/2-y,1/2+z
_cell_length_a                   5.735(4)
_cell_length_b                   5.124(3)
_cell_length_c                   23.1380(16)
_cell_angle_alpha                90
_cell_angle_beta                 101.01(3)
_cell_angle_gamma                90
_cell_volume                     667.422
_exptl_crystal_colour            yellow
_exptl_crystal_description       block
_chemical_melting_point          '212 deg.C'
_cell_formula_units_Z            2
_exptl_crystal_recrystallization_method dichloromethane/hexane
loop_
_atom_site_label
_atom_site_type_symbol
_atom_site_fract_x
_atom_site_fract_y
_atom_site_fract_z
S1 S 0.70755(7) 0.76293(9) 0.984715(19)
N1 N 1.0778(3) 0.8516(3) 0.93546(6)
C1 C 0.9479(3) 0.4750(4) 0.84219(8)
H1 H 1.0824 0.5769 0.8426
C2 C 0.8849(4) 0.2864(4) 0.79903(9)
H2 H 0.9776 0.2627 0.7706
C3 C 0.6858(4) 0.1333(4) 0.79793(9)
H3 H 0.6450 0.0070 0.7689
C4 C 0.5488(4) 0.1683(4) 0.83968(9)
H4 H 0.4150 0.0650 0.8391
C5 C 0.6089(3) 0.3573(4) 0.88286(8)
H5 H 0.5138 0.3811 0.9108
C6 C 0.8097(3) 0.5114(3) 0.88481(7)
C7 C 0.8817(3) 0.7084(3) 0.93099(7)
C8 C 0.9109(3) 0.9911(3) 1.01589(6)
S1B S 1.29245(7) 1.23707(9) 1.015285(19)
N1B N 0.9222(3) 1.1484(3) 1.06454(6)
C1B C 1.0521(3) 1.5250(4) 1.15781(8)
H1B H 0.9176 1.4231 1.1574
C2B C 1.1151(4) 1.7136(4) 1.20097(9)
H2B H 1.0224 1.7373 1.2294
C3B C 1.3142(4) 1.8667(4) 1.20207(9)
H3B H 1.3550 1.9930 1.2311
C4B C 1.4512(4) 1.8317(4) 1.16032(9)
H4B H 1.5850 1.9350 1.1609
C5B C 1.3911(3) 1.6427(4) 1.11714(8)
H5B H 1.4862 1.6189 1.0892
C6B C 1.1903(3) 1.4886(3) 1.11519(7)
C7B C 1.1183(3) 1.2916(3) 1.06901(7)
C8B C 1.0891(3) 1.0089(3) 0.98411(6)
loop_
_geom_bond_atom_site_label_1
_geom_bond_atom_site_label_2
_geom_bond_site_symmetry_1
_geom_bond_site_symmetry_2
S1 C7 1_555 1_555
N1 C7 1_555 1_555
C1 H1 1_555 1_555
C2 C1 1_555 1_555
H2 C2 1_555 1_555
C3 C2 1_555 1_555
H3 C3 1_555 1_555
C4 C3 1_555 1_555
H4 C4 1_555 1_555
C5 C4 1_555 1_555
H5 C5 1_555 1_555
C6 C1 1_555 1_555
C7 C6 1_555 1_555
C8 S1 1_555 1_555
S1B C7B 1_555 1_555
N1B C8 1_555 1_555
C1B H1B 1_555 1_555
C2B C1B 1_555 1_555
H2B C2B 1_555 1_555
C3B C2B 1_555 1_555
H3B C3B 1_555 1_555
C4B C3B 1_555 1_555
H4B C4B 1_555 1_555
C5B C4B 1_555 1_555
H5B C5B 1_555 1_555
C6B C1B 1_555 1_555
C7B N1B 1_555 1_555
C8B N1 1_555 1_555
C5 C6 1_555 1_555
C8 C8B 1_555 1_555
S1B C8B 1_555 1_555
C5B C6B 1_555 1_555
C6B C7B 1_555 1_555

#END
