
#######################################################################
#
#                 Cambridge Crystallographic Data Centre
#                                CCDC 
#
#######################################################################
#
# If this CIF has been generated from an entry in the Cambridge 
# Structural Database, then it will include bibliographic, chemical, 
# crystal, experimental, refinement or atomic coordinate data resulting 
# from the CCDC's data processing and validation procedures.
#
#######################################################################

data_IMUROY
_chemical_formula_moiety         'C72 Cl4,C1 S2'
_chemical_name_systematic        
'^11188^-Tetrachloro-C72fullerene carbon disulfide solvate'
_symmetry_cell_setting           orthorhombic
_symmetry_space_group_name_H-M   'P n m a'
_symmetry_Int_Tables_number      62
_space_group_name_Hall           '-P 2ac 2n'
loop_
_symmetry_equiv_pos_site_id
_symmetry_equiv_pos_as_xyz
1 x,y,z
2 1/2-x,-y,1/2+z
3 -x,1/2+y,-z
4 1/2+x,1/2-y,1/2-z
5 -x,-y,-z
6 1/2+x,y,1/2-z
7 x,1/2-y,z
8 1/2-x,1/2+y,1/2+z
_cell_length_a                   20.377(4)
_cell_length_b                   16.863(3)
_cell_length_c                   10.972(2)
_cell_angle_alpha                90
_cell_angle_beta                 90
_cell_angle_gamma                90
_cell_volume                     3770.17
_cell_formula_units_Z            4
_exptl_crystal_recrystallization_method 'carbon disulfide'
loop_
_atom_site_label
_atom_site_type_symbol
_atom_site_fract_x
_atom_site_fract_y
_atom_site_fract_z
C1 C 0.3181(4) 0.0690(6) 1.3261(9)
C2 C 0.1581(2) 0.2302(3) 1.0000(5)
C3 C 0.1820(10) 0.1309(12) 1.1614(19)
C4 C 0.2159(3) 0.0870(4) 1.0665(9)
C5 C 0.2227(7) 0.1140(7) 0.9461(12)
C6 C 0.4905(10) 0.1252(13) 1.1399(13)
C7 C 0.3206(6) 0.1328(7) 1.4210(7)
C8 C 0.4469(3) 0.0729(4) 1.0852(8)
C9 C 0.1738(8) 0.1500(11) 1.1649(11)
C10 C 0.2629(4) 0.0627(6) 1.2551(10)
C11 C 0.3078(5) 0.1526(5) 0.7938(9)
C12 C 0.2064(3) 0.2294(3) 0.8004(5)
C13 C 0.4472(11) 0.0879(13) 0.9510(15)
C14 C 0.2081(9) 0.1209(8) 1.270(2)
C15 C 0.2122(5) 0.1713(8) 1.3618(10)
C16 C 0.3328(9) 0.0529(9) 0.9433(14)
C17 C 0.3299(4) 0.0353(4) 1.0695(12)
C18 C 0.2696(5) 0.1820(8) 1.4396(8)
C19 C 0.5178(3) 0.1740(5) 1.0530(9)
C20 C 0.3822(4) 0.0654(5) 1.2703(10)
C21 C 0.3877(5) 0.1652(9) 1.4214(7)
C22 C 0.2805(3) 0.2229(3) 0.7733(4)
C23 C 0.1575(2) 0.2101(4) 1.1273(5)
C24 C 0.4942(4) 0.1525(6) 0.9364(8)
C25 C 0.1906(2) 0.1849(3) 0.9158(5)
C26 C 0.4206(4) 0.2012(6) 0.7782(7)
C27 C 0.4751(3) 0.1590(5) 1.2623(6)
C28 C 0.2813(3) 0.0944(4) 0.8796(7)
C29 C 0.3909(10) 0.0474(10) 1.1422(13)
C30 C 0.3780(3) 0.1386(4) 0.7953(5)
C31 C 0.2694(7) 0.0432(7) 1.1274(13)
C32 C 0.4219(10) 0.1213(16) 1.330(2)
C33 C 0.2783(4) 0.2672(7) 1.4603(6)
C34 C 0.3918(6) 0.0815(11) 0.8831(18)
C35 C 0.1631(2) 0.2256(4) 1.2137(5)
C36 C 0.3599(8) 0.1327(8) 1.4073(7)
C37 C 0.2639(7) 0.0500(8) 1.1713(12)
C38 C 0.3859(9) 0.0463(12) 1.1863(13)
C39 C 0.2688(3) 0.0496(3) 1.0418(8)
C40 C 0.4915(3) 0.1149(5) 1.0406(8)
C41 C 0.4148(6) 0.0937(11) 0.8752(15)
C42 C 0.2164(8) 0.0942(7) 1.2377(17)
C43 C 0.5172(3) 0.1862(5) 0.9834(11)
C44 C 0.3923(3) 0.2213(5) 0.7621(5)
C45 C 0.4264(13) 0.1394(16) 1.350(3)
C46 C 0.5117(2) 0.2094(5) 1.1894(6)
C47 C 0.3443(4) 0.2039(6) 1.4629(5)
C48 C 0.4370(4) 0.1642(6) 0.8154(7)
C49 C 0.3238(4) 0.0465(4) 1.2397(8)
C50 C 0.4387(4) 0.0962(5) 1.2437(9)
C51 C 0.4460(3) 0.2161(5) 1.3704(5)
C52 C 0.2444(4) 0.1188(6) 1.3448(6)
C53 C 0.3225(3) 0.2920(5) 0.7663(4)
C54 C 0.1377(2) 0.3080(3) 0.9489(5)
C55 C 0.3902(4) 0.0387(4) 1.0560(11)
C56 C 0.2350(3) 0.1333(4) 0.8709(6)
C57 C 0.1593(2) 0.1227(3) 1.0367(5)
C58 C 0.4437(10) 0.0725(11) 0.9875(13)
C59 C 0.3452(4) 0.0821(5) 0.8715(9)
C60 C 0.1815(3) 0.1860(4) 0.8299(5)
C61 C 0.2996(5) 0.1318(6) 0.8215(8)
C62 C 0.3102(5) 0.0932(7) 1.3570(11)
C63 C 0.2262(5) 0.1959(6) 1.3946(8)
C64 C 0.3297(10) 0.0419(10) 0.9892(13)
C65 C 0.4882(11) 0.1348(14) 1.1740(15)
C66 C 0.48679(18) 0.2500 1.2848(4)
C67 C 0.2206(7) 0.0947(7) 0.9779(11)
C68 C 0.3983(2) 0.2500 1.4424(4)
C69 C 0.52959(18) 0.2500 1.0742(4)
C70 C 0.1886(2) 0.2500 1.3310(4)
Cl1 Cl 0.05158(6) 0.30483(10) 0.92019(12)
Cl2 Cl 0.16116(8) 0.18263(12) 0.67631(14)
Cl3 Cl 0.14182(7) 0.13874(11) 0.70415(12)
Cl4 Cl 0.09936(8) 0.04250(10) 1.04437(15)
C71 C 0.4834(8) 0.2051(9) 0.8485(16)
C72 C 0.4877(7) 0.2141(12) 0.8676(15)
C1F C 0.3181(4) 0.4310(6) 1.3261(9)
C2F C 0.1581(2) 0.2698(3) 1.0000(5)
C3F C 0.1820(10) 0.3691(12) 1.1614(19)
C4F C 0.2159(3) 0.4130(4) 1.0665(9)
C5F C 0.2227(7) 0.3860(7) 0.9461(12)
C6F C 0.4905(10) 0.3748(13) 1.1399(13)
C7F C 0.3206(6) 0.3672(7) 1.4210(7)
C8F C 0.4469(3) 0.4271(4) 1.0852(8)
C9F C 0.1738(8) 0.3500(11) 1.1649(11)
C10F C 0.2629(4) 0.4373(6) 1.2551(10)
C11F C 0.3078(5) 0.3474(5) 0.7938(9)
C12F C 0.2064(3) 0.2706(3) 0.8004(5)
C13F C 0.4472(11) 0.4121(13) 0.9510(15)
C14F C 0.2081(9) 0.3791(8) 1.270(2)
C15F C 0.2122(5) 0.3287(8) 1.3618(10)
C16F C 0.3328(9) 0.4471(9) 0.9433(14)
C17F C 0.3299(4) 0.4647(4) 1.0695(12)
C18F C 0.2696(5) 0.3180(8) 1.4396(8)
C19F C 0.5178(3) 0.3260(5) 1.0530(9)
C20F C 0.3822(4) 0.4346(5) 1.2703(10)
C21F C 0.3877(5) 0.3348(9) 1.4214(7)
C22F C 0.2805(3) 0.2771(3) 0.7733(4)
C23F C 0.1575(2) 0.2899(4) 1.1273(5)
C24F C 0.4942(4) 0.3475(6) 0.9364(8)
C25F C 0.1906(2) 0.3151(3) 0.9158(5)
C26F C 0.4206(4) 0.2988(6) 0.7782(7)
C27F C 0.4751(3) 0.3410(5) 1.2623(6)
C28F C 0.2813(3) 0.4056(4) 0.8796(7)
C29F C 0.3909(10) 0.4526(10) 1.1422(13)
C30F C 0.3780(3) 0.3614(4) 0.7953(5)
C31F C 0.2694(7) 0.4568(7) 1.1274(13)
C32F C 0.4219(10) 0.3787(16) 1.330(2)
C33F C 0.2783(4) 0.2328(7) 1.4603(6)
C34F C 0.3918(6) 0.4185(11) 0.8831(18)
C35F C 0.1631(2) 0.2744(4) 1.2137(5)
C36F C 0.3599(8) 0.3673(8) 1.4073(7)
C37F C 0.2639(7) 0.4500(8) 1.1713(12)
C38F C 0.3859(9) 0.4537(12) 1.1863(13)
C39F C 0.2688(3) 0.4504(3) 1.0418(8)
C40F C 0.4915(3) 0.3851(5) 1.0406(8)
C41F C 0.4148(6) 0.4063(11) 0.8752(15)
C42F C 0.2164(8) 0.4058(7) 1.2377(17)
C43F C 0.5172(3) 0.3138(5) 0.9834(11)
C44F C 0.3923(3) 0.2787(5) 0.7621(5)
C45F C 0.4264(13) 0.3606(16) 1.350(3)
C46F C 0.5117(2) 0.2906(5) 1.1894(6)
C47F C 0.3443(4) 0.2961(6) 1.4629(5)
C48F C 0.4370(4) 0.3358(6) 0.8154(7)
C49F C 0.3238(4) 0.4535(4) 1.2397(8)
C50F C 0.4387(4) 0.4038(5) 1.2437(9)
C51F C 0.4460(3) 0.2839(5) 1.3704(5)
C52F C 0.2444(4) 0.3812(6) 1.3448(6)
C53F C 0.3225(3) 0.2080(5) 0.7663(4)
C54F C 0.1377(2) 0.1920(3) 0.9489(5)
C55F C 0.3902(4) 0.4613(4) 1.0560(11)
C56F C 0.2350(3) 0.3667(4) 0.8709(6)
C57F C 0.1593(2) 0.3773(3) 1.0367(5)
C58F C 0.4437(10) 0.4275(11) 0.9875(13)
C59F C 0.3452(4) 0.4179(5) 0.8715(9)
C60F C 0.1815(3) 0.3140(4) 0.8299(5)
C61F C 0.2996(5) 0.3682(6) 0.8215(8)
C62F C 0.3102(5) 0.4068(7) 1.3570(11)
C63F C 0.2262(5) 0.3041(6) 1.3946(8)
C64F C 0.3297(10) 0.4581(10) 0.9892(13)
C65F C 0.4882(11) 0.3652(14) 1.1740(15)
C67F C 0.2206(7) 0.4053(7) 0.9779(11)
Cl1F Cl 0.05158(6) 0.19517(10) 0.92019(12)
Cl2F Cl 0.16116(8) 0.31737(12) 0.67631(14)
Cl3F Cl 0.14182(7) 0.36126(11) 0.70415(12)
Cl4F Cl 0.09936(8) 0.45750(10) 1.04437(15)
C71F C 0.4834(8) 0.2949(9) 0.8485(16)
C72F C 0.4877(7) 0.2859(12) 0.8676(15)
C73? C 0.0463(3) 0.4575(4) 1.0076(8)
S1? S 0.05914(11) 0.51273(13) 1.12277(19)
S2? S 0.03296(10) 0.40930(12) 0.90417(18)
loop_
_geom_bond_atom_site_label_1
_geom_bond_atom_site_label_2
_geom_bond_site_symmetry_1
_geom_bond_site_symmetry_2
C1 C7 1_555 1_555
C2 C23 1_555 1_555
C3 C4 1_555 1_555
C4 C5 1_555 1_555
C5 C25 1_555 1_555
C6 C8 1_555 1_555
C7 C18 1_555 1_555
C8 C13 1_555 1_555
C9 C3 1_555 1_555
C10 C1 1_555 1_555
C11 C22 1_555 1_555
C12 C22 1_555 1_555
C13 C24 1_555 1_555
C14 C3 1_555 1_555
C15 C14 1_555 1_555
C16 C17 1_555 1_555
C17 C29 1_555 1_555
C18 C15 1_555 1_555
C19 C6 1_555 1_555
C20 C1 1_555 1_555
C21 C7 1_555 1_555
C22 C53 1_555 1_555
C23 C3 1_555 1_555
C24 C19 1_555 1_555
C25 C2 1_555 1_555
C26 C30 1_555 1_555
C27 C6 1_555 1_555
C28 C5 1_555 1_555
C29 C8 1_555 1_555
C30 C11 1_555 1_555
C31 C4 1_555 1_555
C32 C20 1_555 1_555
C33 C18 1_555 1_555
C34 C13 1_555 1_555
C35 C3 1_555 1_555
C36 C1 1_555 1_555
C37 C4 1_555 1_555
C38 C8 1_555 1_555
C39 C4 1_555 1_555
C40 C6 1_555 1_555
C41 C13 1_555 1_555
C42 C3 1_555 1_555
C43 C19 1_555 1_555
C44 C26 1_555 1_555
C45 C21 1_555 1_555
C46 C6 1_555 1_555
C47 C7 1_555 1_555
C48 C26 1_555 1_555
C49 C1 1_555 1_555
C50 C6 1_555 1_555
C51 C21 1_555 1_555
C52 C1 1_555 1_555
C53 C11F 1_555 1_555
C54 C2 1_555 1_555
C55 C8 1_555 1_555
C56 C5 1_555 1_555
C57 C3 1_555 1_555
C58 C8 1_555 1_555
C59 C11 1_555 1_555
C60 C12 1_555 1_555
C61 C11 1_555 1_555
C62 C1 1_555 1_555
C63 C15 1_555 1_555
C64 C16 1_555 1_555
C65 C6 1_555 1_555
C66 C27 1_555 1_555
C67 C4 1_555 1_555
C68 C21 1_555 1_555
C69 C19 1_555 1_555
C70 C15 1_555 1_555
Cl1 C54 1_555 1_555
Cl2 C12 1_555 1_555
Cl3 C60 1_555 1_555
Cl4 C57 1_555 1_555
C71 C24 1_555 1_555
C72 C24 1_555 1_555
C1F C7F 1_555 1_555
C2F C2 1_555 1_555
C3F C4F 1_555 1_555
C4F C5F 1_555 1_555
C5F C25F 1_555 1_555
C6F C8F 1_555 1_555
C7F C18F 1_555 1_555
C8F C13F 1_555 1_555
C9F C3F 1_555 1_555
C10F C1F 1_555 1_555
C11F C22F 1_555 1_555
C12F C12 1_555 1_555
C13F C24F 1_555 1_555
C14F C3F 1_555 1_555
C15F C70 1_555 1_555
C16F C17F 1_555 1_555
C17F C29F 1_555 1_555
C18F C33 1_555 1_555
C19F C69 1_555 1_555
C20F C1F 1_555 1_555
C21F C68 1_555 1_555
C22F C12 1_555 1_555
C23F C2 1_555 1_555
C24F C19F 1_555 1_555
C25F C54 1_555 1_555
C26F C26 1_555 1_555
C27F C66 1_555 1_555
C28F C5F 1_555 1_555
C29F C8F 1_555 1_555
C30F C53 1_555 1_555
C31F C4F 1_555 1_555
C32F C20F 1_555 1_555
C33F C18 1_555 1_555
C34F C13F 1_555 1_555
C35F C23 1_555 1_555
C36F C1F 1_555 1_555
C37F C4F 1_555 1_555
C38F C8F 1_555 1_555
C39F C4F 1_555 1_555
C40F C6F 1_555 1_555
C41F C13F 1_555 1_555
C42F C3F 1_555 1_555
C43F C69 1_555 1_555
C44F C26 1_555 1_555
C45F C21F 1_555 1_555
C46F C46 1_555 1_555
C47F C33 1_555 1_555
C48F C26F 1_555 1_555
C49F C1F 1_555 1_555
C50F C6F 1_555 1_555
C51F C51 1_555 1_555
C52F C1F 1_555 1_555
C53F C11 1_555 1_555
C54F C2 1_555 1_555
C55F C8F 1_555 1_555
C56F C5F 1_555 1_555
C57F C54 1_555 1_555
C58F C8F 1_555 1_555
C59F C11F 1_555 1_555
C60F C12 1_555 1_555
C61F C53 1_555 1_555
C62F C1F 1_555 1_555
C63F C33 1_555 1_555
C64F C16F 1_555 1_555
C65F C6F 1_555 1_555
C67F C4F 1_555 1_555
Cl1F Cl1 1_555 1_555
Cl2F Cl2 1_555 1_555
Cl3F C60F 1_555 1_555
Cl4F C57F 1_555 1_555
C71F C71 1_555 1_555
C72F C71 1_555 1_555
C4 C9 1_555 1_555
C4 C57 1_555 1_555
C5 C57 1_555 1_555
C5 C67 1_555 1_555
C7 C36 1_555 1_555
C7 C62 1_555 1_555
C8 C40 1_555 1_555
C8 C65 1_555 1_555
C9 C14 1_555 1_555
C9 C23 1_555 1_555
C9 C35 1_555 1_555
C9 C42 1_555 1_555
C9 C57 1_555 1_555
C10 C14 1_555 1_555
C10 C31 1_555 1_555
C10 C37 1_555 1_555
C10 C42 1_555 1_555
C10 C49 1_555 1_555
C10 C52 1_555 1_555
C10 C62 1_555 1_555
C11 C28 1_555 1_555
C11 C56 1_555 1_555
C12 C25 1_555 1_555
C13 C40 1_555 1_555
C13 C58 1_555 1_555
C14 C42 1_555 1_555
C14 C52 1_555 1_555
C15 C52 1_555 1_555
C16 C28 1_555 1_555
C16 C34 1_555 1_555
C16 C39 1_555 1_555
C16 C55 1_555 1_555
C16 C59 1_555 1_555
C17 C31 1_555 1_555
C17 C38 1_555 1_555
C17 C39 1_555 1_555
C17 C55 1_555 1_555
C17 C64 1_555 1_555
C18 C47 1_555 1_555
C18 C52 1_555 1_555
C18 C63 1_555 1_555
C19 C40 1_555 1_555
C19 C46 1_555 1_555
C19 C65 1_555 1_555
C20 C29 1_555 1_555
C20 C38 1_555 1_555
C20 C49 1_555 1_555
C20 C50 1_555 1_555
C21 C32 1_555 1_555
C21 C36 1_555 1_555
C21 C47 1_555 1_555
C22 C61 1_555 1_555
C22 C12F 1_555 1_555
C22 C22F 1_555 1_555
C22 C53F 1_555 1_555
C23 C35 1_555 1_555
C23 C2F 1_555 1_555
C23 C23F 1_555 1_555
C24 C40 1_555 1_555
C24 C43 1_555 1_555
C25 C56 1_555 1_555
C25 C60 1_555 1_555
C25 C54F 1_555 1_555
C26 C71 1_555 1_555
C26 C72 1_555 1_555
C27 C32 1_555 1_555
C27 C45 1_555 1_555
C27 C46 1_555 1_555
C27 C50 1_555 1_555
C27 C51 1_555 1_555
C27 C65 1_555 1_555
C28 C56 1_555 1_555
C28 C59 1_555 1_555
C28 C61 1_555 1_555
C28 C67 1_555 1_555
C29 C38 1_555 1_555
C29 C49 1_555 1_555
C29 C50 1_555 1_555
C29 C55 1_555 1_555
C30 C34 1_555 1_555
C30 C41 1_555 1_555
C30 C44 1_555 1_555
C30 C48 1_555 1_555
C30 C59 1_555 1_555
C30 C61 1_555 1_555
C30 C53F 1_555 1_555
C31 C37 1_555 1_555
C31 C39 1_555 1_555
C31 C49 1_555 1_555
C32 C36 1_555 1_555
C32 C45 1_555 1_555
C32 C50 1_555 1_555
C32 C51 1_555 1_555
C33 C47 1_555 1_555
C33 C63 1_555 1_555
C33 C33F 1_555 1_555
C34 C41 1_555 1_555
C34 C58 1_555 1_555
C34 C59 1_555 1_555
C35 C70 1_555 1_555
C35 C23F 1_555 1_555
C35 C35F 1_555 1_555
C36 C45 1_555 1_555
C36 C47 1_555 1_555
C36 C62 1_555 1_555
C37 C39 1_555 1_555
C37 C42 1_555 1_555
C37 C49 1_555 1_555
C38 C49 1_555 1_555
C38 C50 1_555 1_555
C38 C55 1_555 1_555
C39 C64 1_555 1_555
C39 C67 1_555 1_555
C40 C43 1_555 1_555
C40 C58 1_555 1_555
C40 C65 1_555 1_555
C41 C48 1_555 1_555
C41 C58 1_555 1_555
C41 C59 1_555 1_555
C42 C52 1_555 1_555
C43 C69 1_555 1_555
C43 C71 1_555 1_555
C43 C72 1_555 1_555
C44 C48 1_555 1_555
C44 C26F 1_555 1_555
C44 C44F 1_555 1_555
C44 C53F 1_555 1_555
C45 C50 1_555 1_555
C45 C51 1_555 1_555
C46 C65 1_555 1_555
C46 C66 1_555 1_555
C46 C69 1_555 1_555
C47 C68 1_555 1_555
C47 C33F 1_555 1_555
C47 C47F 1_555 1_555
C48 C71 1_555 1_555
C48 C72 1_555 1_555
C49 C62 1_555 1_555
C50 C65 1_555 1_555
C51 C66 1_555 1_555
C51 C68 1_555 1_555
C52 C62 1_555 1_555
C52 C63 1_555 1_555
C53 C22F 1_555 1_555
C53 C44F 1_555 1_555
C53 C53F 1_555 1_555
C54 C2F 1_555 1_555
C54 C60F 1_555 1_555
C55 C58 1_555 1_555
C55 C64 1_555 1_555
C56 C60 1_555 1_555
C56 C61 1_555 1_555
C56 C67 1_555 1_555
C57 C67 1_555 1_555
C57 C54F 1_555 1_555
C59 C61 1_555 1_555
C59 C64 1_555 1_555
C60 Cl2 1_555 1_555
C60 C12F 1_555 1_555
C60 C54F 1_555 1_555
C61 C53F 1_555 1_555
C63 C70 1_555 1_555
C63 C33F 1_555 1_555
C66 C46F 1_555 1_555
C66 C51F 1_555 1_555
C68 C47F 1_555 1_555
C68 C51F 1_555 1_555
C69 C46F 1_555 1_555
C70 C35F 1_555 1_555
C70 C63F 1_555 1_555
Cl2 Cl3 1_555 1_555
C71 C72 1_555 1_555
C72 C71F 1_555 1_555
C72 C72F 1_555 1_555
C2F C23F 1_555 1_555
C2F C25F 1_555 1_555
C2F C54F 1_555 1_555
C3F C23F 1_555 1_555
C3F C35F 1_555 1_555
C3F C57F 1_555 1_555
C4F C9F 1_555 1_555
C4F C57F 1_555 1_555
C5F C57F 1_555 1_555
C5F C67F 1_555 1_555
C6F C19F 1_555 1_555
C6F C27F 1_555 1_555
C6F C46F 1_555 1_555
C7F C21F 1_555 1_555
C7F C36F 1_555 1_555
C7F C47F 1_555 1_555
C7F C62F 1_555 1_555
C8F C40F 1_555 1_555
C8F C65F 1_555 1_555
C9F C14F 1_555 1_555
C9F C23F 1_555 1_555
C9F C35F 1_555 1_555
C9F C42F 1_555 1_555
C9F C57F 1_555 1_555
C10F C14F 1_555 1_555
C10F C31F 1_555 1_555
C10F C37F 1_555 1_555
C10F C42F 1_555 1_555
C10F C49F 1_555 1_555
C10F C52F 1_555 1_555
C10F C62F 1_555 1_555
C11F C28F 1_555 1_555
C11F C30F 1_555 1_555
C11F C56F 1_555 1_555
C11F C61F 1_555 1_555
C12F C22F 1_555 1_555
C12F C25F 1_555 1_555
C12F C60F 1_555 1_555
C12F Cl2F 1_555 1_555
C13F C40F 1_555 1_555
C13F C58F 1_555 1_555
C14F C15F 1_555 1_555
C14F C42F 1_555 1_555
C14F C52F 1_555 1_555
C15F C18F 1_555 1_555
C15F C52F 1_555 1_555
C15F C63F 1_555 1_555
C16F C28F 1_555 1_555
C16F C34F 1_555 1_555
C16F C39F 1_555 1_555
C16F C55F 1_555 1_555
C16F C59F 1_555 1_555
C17F C31F 1_555 1_555
C17F C38F 1_555 1_555
C17F C39F 1_555 1_555
C17F C55F 1_555 1_555
C17F C64F 1_555 1_555
C18F C33F 1_555 1_555
C18F C47F 1_555 1_555
C18F C52F 1_555 1_555
C18F C63F 1_555 1_555
C19F C40F 1_555 1_555
C19F C43F 1_555 1_555
C19F C46F 1_555 1_555
C19F C65F 1_555 1_555
C20F C29F 1_555 1_555
C20F C38F 1_555 1_555
C20F C49F 1_555 1_555
C20F C50F 1_555 1_555
C21F C32F 1_555 1_555
C21F C36F 1_555 1_555
C21F C47F 1_555 1_555
C21F C51F 1_555 1_555
C22F C53F 1_555 1_555
C22F C61F 1_555 1_555
C23F C35F 1_555 1_555
C24F C40F 1_555 1_555
C24F C43F 1_555 1_555
C24F C71F 1_555 1_555
C24F C72F 1_555 1_555
C25F C56F 1_555 1_555
C25F C60F 1_555 1_555
C26F C30F 1_555 1_555
C26F C44F 1_555 1_555
C26F C71F 1_555 1_555
C26F C72F 1_555 1_555
C27F C32F 1_555 1_555
C27F C45F 1_555 1_555
C27F C46F 1_555 1_555
C27F C50F 1_555 1_555
C27F C51F 1_555 1_555
C27F C65F 1_555 1_555
C28F C56F 1_555 1_555
C28F C59F 1_555 1_555
C28F C61F 1_555 1_555
C28F C67F 1_555 1_555
C29F C38F 1_555 1_555
C29F C49F 1_555 1_555
C29F C50F 1_555 1_555
C29F C55F 1_555 1_555
C30F C34F 1_555 1_555
C30F C41F 1_555 1_555
C30F C44F 1_555 1_555
C30F C48F 1_555 1_555
C30F C59F 1_555 1_555
C30F C61F 1_555 1_555
C31F C37F 1_555 1_555
C31F C39F 1_555 1_555
C31F C49F 1_555 1_555
C32F C36F 1_555 1_555
C32F C45F 1_555 1_555
C32F C50F 1_555 1_555
C32F C51F 1_555 1_555
C33F C47F 1_555 1_555
C33F C63F 1_555 1_555
C34F C41F 1_555 1_555
C34F C58F 1_555 1_555
C34F C59F 1_555 1_555
C36F C45F 1_555 1_555
C36F C47F 1_555 1_555
C36F C62F 1_555 1_555
C37F C39F 1_555 1_555
C37F C42F 1_555 1_555
C37F C49F 1_555 1_555
C38F C49F 1_555 1_555
C38F C50F 1_555 1_555
C38F C55F 1_555 1_555
C39F C64F 1_555 1_555
C39F C67F 1_555 1_555
C40F C43F 1_555 1_555
C40F C58F 1_555 1_555
C40F C65F 1_555 1_555
C41F C48F 1_555 1_555
C41F C58F 1_555 1_555
C41F C59F 1_555 1_555
C42F C52F 1_555 1_555
C43F C71F 1_555 1_555
C43F C72F 1_555 1_555
C44F C48F 1_555 1_555
C45F C50F 1_555 1_555
C45F C51F 1_555 1_555
C46F C65F 1_555 1_555
C48F C71F 1_555 1_555
C48F C72F 1_555 1_555
C49F C62F 1_555 1_555
C50F C65F 1_555 1_555
C52F C62F 1_555 1_555
C52F C63F 1_555 1_555
C54F Cl1F 1_555 1_555
C55F C58F 1_555 1_555
C55F C64F 1_555 1_555
C56F C60F 1_555 1_555
C56F C61F 1_555 1_555
C56F C67F 1_555 1_555
C57F C67F 1_555 1_555
C59F C61F 1_555 1_555
C59F C64F 1_555 1_555
C60F Cl2F 1_555 1_555
Cl2F Cl3F 1_555 1_555
C71F C72F 1_555 1_555

#END
