
#######################################################################
#
#                 Cambridge Crystallographic Data Centre
#                                CCDC 
#
#######################################################################
#
# If this CIF has been generated from an entry in the Cambridge 
# Structural Database, then it will include bibliographic, chemical, 
# crystal, experimental, refinement or atomic coordinate data resulting 
# from the CCDC's data processing and validation procedures.
#
#######################################################################

data_IMUROX
_chemical_formula_moiety         'C21 H26 Cl1 N3 O6'
_chemical_name_systematic        
N-(2-(3,4-Dimethoxyphenyl)ethyl)-2-(5-chloro-6-oxo-1-(tetrahydropyran-2-yl)-1,6-dihydropyridazin-4-yloxy)acetamide
_symmetry_cell_setting           monoclinic
_symmetry_space_group_name_H-M   'P 21/n'
_symmetry_Int_Tables_number      14
_space_group_name_Hall           '-P 2yn'
loop_
_symmetry_equiv_pos_site_id
_symmetry_equiv_pos_as_xyz
1 x,y,z
2 1/2-x,1/2+y,1/2-z
3 -x,-y,-z
4 1/2+x,1/2-y,1/2+z
_cell_length_a                   11.889(1)
_cell_length_b                   8.8066(7)
_cell_length_c                   20.114(2)
_cell_angle_alpha                90
_cell_angle_beta                 90.916(5)
_cell_angle_gamma                90
_cell_volume                     2105.7
_chemical_melting_point          '149-150 deg.C'
_cell_formula_units_Z            4
loop_
_atom_site_label
_atom_site_type_symbol
_atom_site_fract_x
_atom_site_fract_y
_atom_site_fract_z
Cl1 Cl 0.19271(6) 0.02081(9) 0.74128(4)
O1 O 0.7260(2) -1.0756(2) 0.6763(1)
O2 O 0.7883(2) -0.8989(2) 0.5725(1)
O3 O 0.5353(2) -0.2290(2) 0.5339(1)
O4 O 0.3273(2) -0.0234(2) 0.62232(10)
O5 O 0.0740(2) 0.3142(2) 0.7225(1)
O6 O -0.0169(2) 0.4854(2) 0.5956(1)
N1 N 0.4688(2) -0.2605(3) 0.6383(1)
N2 N 0.1530(2) 0.3746(3) 0.6228(1)
N3 N 0.2148(2) 0.3416(3) 0.5690(1)
C1 C 0.5455(2) -0.6807(3) 0.6312(1)
C2 C 0.5127(2) -0.7726(3) 0.6843(2)
C3 C 0.5699(2) -0.9055(3) 0.7004(1)
C4 C 0.6630(2) -0.9479(3) 0.6640(1)
C5 C 0.6976(2) -0.8568(3) 0.6109(1)
C6 C 0.6388(2) -0.7262(3) 0.5950(1)
C7 C 0.7117(3) -1.1446(4) 0.7405(2)
C8 C 0.8947(3) -0.8711(3) 0.6060(2)
C9 C 0.4829(2) -0.5359(3) 0.6149(2)
C10 C 0.5350(2) -0.3973(3) 0.6500(1)
C11 C 0.4746(2) -0.1882(3) 0.5798(1)
C12 C 0.4032(2) -0.0482(3) 0.5683(1)
C13 C 0.2678(2) 0.1064(3) 0.6216(1)
C14 C 0.2018(2) 0.1411(3) 0.6740(1)
C15 C 0.1374(2) 0.2788(3) 0.6772(1)
C16 C 0.2702(2) 0.2143(3) 0.5680(1)
C17 C 0.0918(2) 0.5209(3) 0.6212(2)
C18 C -0.0887(3) 0.6172(4) 0.5946(2)
C19 C -0.0395(3) 0.7458(4) 0.5567(2)
C20 C 0.0772(3) 0.7857(3) 0.5839(2)
C21 C 0.1510(3) 0.6432(4) 0.5839(2)
H1 H 0.4213 -0.2214 0.6721
H2 H 0.4494 -0.7423 0.7099
H3 H 0.5449 -0.9673 0.7362
H4 H 0.6625 -0.6645 0.5581
H5 H 0.7699 -1.2178 0.7482
H6 H 0.7167 -1.0689 0.7745
H7 H 0.6409 -1.1930 0.7423
H8 H 0.9017 -0.9339 0.6448
H9 H 0.9553 -0.8915 0.5775
H10 H 0.8990 -0.7670 0.6202
H11 H 0.4837 -0.5194 0.5678
H12 H 0.4063 -0.5449 0.6281
H13 H 0.6095 -0.3817 0.6334
H14 H 0.5406 -0.4168 0.6964
H15 H 0.3604 -0.0600 0.5278
H16 H 0.4512 0.0381 0.5636
H17 H 0.3143 0.1912 0.5296
H18 H 0.0839 0.5551 0.6660
H19 H -0.1608 0.5893 0.5758
H20 H -0.1008 0.6497 0.6395
H21 H -0.0340 0.7158 0.5103
H22 H -0.0883 0.8321 0.5579
H23 H 0.1103 0.8647 0.5572
H24 H 0.0712 0.8232 0.6281
H25 H 0.2241 0.6634 0.6032
H26 H 0.1640 0.6104 0.5383
loop_
_geom_bond_atom_site_label_1
_geom_bond_atom_site_label_2
_geom_bond_site_symmetry_1
_geom_bond_site_symmetry_2
Cl1 C14 1_555 1_555
O1 C4 1_555 1_555
O2 C5 1_555 1_555
O3 C11 1_555 1_555
O4 C12 1_555 1_555
O5 C15 1_555 1_555
O6 C17 1_555 1_555
N1 C10 1_555 1_555
N2 N3 1_555 1_555
N3 C16 1_555 1_555
C1 C2 1_555 1_555
C2 C3 1_555 1_555
C3 C4 1_555 1_555
C4 C5 1_555 1_555
C5 C6 1_555 1_555
C6 C1 1_555 1_555
C7 O1 1_555 1_555
C8 O2 1_555 1_555
C9 C1 1_555 1_555
C10 C9 1_555 1_555
C11 N1 1_555 1_555
C12 C11 1_555 1_555
C13 O4 1_555 1_555
C14 C13 1_555 1_555
C15 N2 1_555 1_555
C16 C13 1_555 1_555
C17 N2 1_555 1_555
C18 O6 1_555 1_555
C19 C18 1_555 1_555
C20 C19 1_555 1_555
C21 C17 1_555 1_555
H1 N1 1_555 1_555
H2 C2 1_555 1_555
H3 C3 1_555 1_555
H4 C6 1_555 1_555
H5 C7 1_555 1_555
H6 C7 1_555 1_555
H7 C7 1_555 1_555
H8 C8 1_555 1_555
H9 C8 1_555 1_555
H10 C8 1_555 1_555
H11 C9 1_555 1_555
H12 C9 1_555 1_555
H13 C10 1_555 1_555
H14 C10 1_555 1_555
H15 C12 1_555 1_555
H16 C12 1_555 1_555
H17 C16 1_555 1_555
H18 C17 1_555 1_555
H19 C18 1_555 1_555
H20 C18 1_555 1_555
H21 C19 1_555 1_555
H22 C19 1_555 1_555
H23 C20 1_555 1_555
H24 C20 1_555 1_555
H25 C21 1_555 1_555
H26 C21 1_555 1_555
C14 C15 1_555 1_555
C20 C21 1_555 1_555

#END
