
#######################################################################
#
#                 Cambridge Crystallographic Data Centre
#                                CCDC 
#
#######################################################################
#
# If this CIF has been generated from an entry in the Cambridge 
# Structural Database, then it will include bibliographic, chemical, 
# crystal, experimental, refinement or atomic coordinate data resulting 
# from the CCDC's data processing and validation procedures.
#
#######################################################################

data_IMUSIT
_chemical_name_common            '(1,7-Hydrogen 12-crown-4) hexachlorophosphate'
_chemical_formula_moiety         'C8 H17 O4 1+,Cl6 P1 1-'
_chemical_name_systematic        
'1,7-Hydrido-1,7-dioxonia-4,10-dioxacyclododecane hexachlorophosphate'
_symmetry_cell_setting           monoclinic
_symmetry_space_group_name_H-M   'P 21/n'
_symmetry_Int_Tables_number      14
_space_group_name_Hall           '-P 2yn'
loop_
_symmetry_equiv_pos_site_id
_symmetry_equiv_pos_as_xyz
1 x,y,z
2 1/2-x,1/2+y,1/2-z
3 -x,-y,-z
4 1/2+x,1/2-y,1/2+z
_cell_length_a                   7.638(4)
_cell_length_b                   12.046(6)
_cell_length_c                   17.893(9)
_cell_angle_alpha                90
_cell_angle_beta                 100.166(9)
_cell_angle_gamma                90
_cell_volume                     1620.44
_exptl_crystal_colour            colorless
_exptl_crystal_description       block
_cell_formula_units_Z            4
_chemical_properties_physical    'air- and temperature-sensitive'
loop_
_atom_site_label
_atom_site_type_symbol
_atom_site_fract_x
_atom_site_fract_y
_atom_site_fract_z
P1 P 0.62753(10) 0.74780(6) 0.11208(4)
Cl1 Cl 0.52709(10) 0.62378(6) 0.03027(4)
Cl2 Cl 0.89162(10) 0.71609(6) 0.09187(5)
Cl3 Cl 0.59156(11) 0.87225(6) 0.02526(4)
Cl4 Cl 0.36261(10) 0.77914(6) 0.13097(5)
Cl5 Cl 0.65849(11) 0.62298(6) 0.19898(4)
Cl6 Cl 0.73061(10) 0.87078(6) 0.19440(4)
O1 O 0.8246(3) 0.97366(17) 0.82221(12)
O2 O 0.7130(3) 0.74600(16) 0.84736(12)
O3 O 0.9591(3) 0.55979(17) 0.85668(12)
O4 O 1.0235(3) 0.78684(15) 0.90085(12)
C1 C 0.6441(4) 0.9390(3) 0.81416(19)
H1 H 0.5686 0.9876 0.7771
H2 H 0.6036 0.9463 0.8635
C2 C 0.6235(4) 0.8205(3) 0.78762(18)
H3 H 0.4956 0.8014 0.7751
H4 H 0.6759 0.8112 0.7412
C3 C 0.6625(4) 0.6294(2) 0.8334(2)
H5 H 0.6617 0.6106 0.7795
H6 H 0.5416 0.6167 0.8445
C4 C 0.7940(4) 0.5573(3) 0.88362(19)
H7 H 0.8111 0.5849 0.9365
H8 H 0.7489 0.4802 0.8829
C5 C 1.1103(4) 0.5952(2) 0.90941(19)
H9 H 1.2102 0.5432 0.9083
H10 H 1.0821 0.5948 0.9613
C6 C 1.1639(4) 0.7097(2) 0.89010(19)
H11 H 1.2768 0.7307 0.9233
H12 H 1.1822 0.7122 0.8367
C7 C 1.0824(4) 0.9019(2) 0.90351(18)
H13 H 1.1472 0.9165 0.8612
H14 H 1.1644 0.9161 0.9519
C8 C 0.9256(4) 0.9769(3) 0.89716(17)
H15 H 0.8498 0.9538 0.9339
H16 H 0.9663 1.0538 0.9097
H17 H 0.874(5) 0.771(3) 0.868(2)
loop_
_geom_bond_atom_site_label_1
_geom_bond_atom_site_label_2
_geom_bond_site_symmetry_1
_geom_bond_site_symmetry_2
P1 Cl1 1_555 1_555
Cl2 P1 1_555 1_555
Cl3 P1 1_555 1_555
Cl4 P1 1_555 1_555
Cl5 P1 1_555 1_555
Cl6 P1 1_555 1_555
O1 C1 1_555 1_555
O2 C2 1_555 1_555
O3 C4 1_555 1_555
O4 C6 1_555 1_555
C1 H1 1_555 1_555
H2 C1 1_555 1_555
C2 C1 1_555 1_555
H3 C2 1_555 1_555
H4 C2 1_555 1_555
C3 O2 1_555 1_555
H5 C3 1_555 1_555
H6 C3 1_555 1_555
C4 C3 1_555 1_555
H7 C4 1_555 1_555
H8 C4 1_555 1_555
C5 O3 1_555 1_555
H9 C5 1_555 1_555
H10 C5 1_555 1_555
C6 C5 1_555 1_555
H11 C6 1_555 1_555
H12 C6 1_555 1_555
C7 O4 1_555 1_555
H13 C7 1_555 1_555
H14 C7 1_555 1_555
C8 O1 1_555 1_555
H15 C8 1_555 1_555
H16 C8 1_555 1_555
H17 O2 1_555 1_555
O4 H17 1_555 1_555
C7 C8 1_555 1_555

#END
