
#######################################################################
#
#                 Cambridge Crystallographic Data Centre
#                                CCDC 
#
#######################################################################
#
# If this CIF has been generated from an entry in the Cambridge 
# Structural Database, then it will include bibliographic, chemical, 
# crystal, experimental, refinement or atomic coordinate data resulting 
# from the CCDC's data processing and validation procedures.
#
#######################################################################

data_IMUSOZ
_chemical_name_common            
"(1,1'-Hydrogen bis(18-crown-6)) hexachlorophosphate"
_chemical_formula_moiety         'C24 H49 O12 1+,Cl6 P1 1-'
_chemical_name_systematic        
"1,1'-Hydridobis(4,7,10,13,16-pentaoxa-1-oxoniacyclooctadecane) hexachlorophosphate"
_symmetry_cell_setting           triclinic
_symmetry_space_group_name_H-M   'P -1'
_symmetry_Int_Tables_number      2
_space_group_name_Hall           '-P 1'
loop_
_symmetry_equiv_pos_site_id
_symmetry_equiv_pos_as_xyz
1 x,y,z
2 -x,-y,-z
_cell_length_a                   8.8731(7)
_cell_length_b                   11.6179(9)
_cell_length_c                   18.3623(14)
_cell_angle_alpha                92.626(1)
_cell_angle_beta                 96.303(1)
_cell_angle_gamma                109.978(1)
_cell_volume                     1761.2
_exptl_crystal_colour            colorless
_exptl_crystal_description       block
_cell_formula_units_Z            2
_chemical_properties_physical    'air- and temperature-sensitive'
loop_
_atom_site_label
_atom_site_type_symbol
_atom_site_fract_x
_atom_site_fract_y
_atom_site_fract_z
Cl1 Cl 0.99554(6) 0.81573(4) 0.00715(3)
Cl2 Cl 0.74403(6) 0.93915(5) 0.00169(3)
Cl3 Cl 1.03755(6) 1.02960(4) 0.11787(3)
P1 P 1.0000 1.0000 0.0000
Cl1A Cl 1.00446(6) 1.18427(4) -0.00715(3)
Cl2A Cl 1.25597(6) 1.06085(5) -0.00169(3)
Cl3A Cl 0.96245(6) 0.97040(4) -0.11787(3)
Cl4 Cl 1.00372(6) 0.81607(4) 0.49304(3)
Cl5 Cl 0.74348(6) 0.92921(4) 0.46887(3)
Cl6 Cl 1.03529(6) 1.01314(4) 0.38671(3)
P2 P 1.0000 1.0000 0.5000
Cl4A Cl 0.99628(6) 1.18393(4) 0.50696(3)
Cl5A Cl 1.25652(6) 1.07079(4) 0.53113(3)
Cl6A Cl 0.96471(6) 0.98686(4) 0.61329(3)
O1 O 0.57966(17) 0.56148(12) 0.32087(7)
O2 O 0.83807(16) 0.68477(13) 0.24114(7)
O3 O 0.82154(16) 0.46547(12) 0.15044(8)
O4 O 0.80056(16) 0.24851(12) 0.22178(7)
O5 O 0.56634(16) 0.16671(12) 0.32711(7)
O6 O 0.57445(17) 0.38762(12) 0.41831(8)
O7 O 0.2247(3) 0.45674(18) 0.36599(17)
O8 O 0.29485(16) 0.70686(12) 0.36317(7)
O9 O 0.36505(16) 0.84541(12) 0.23873(7)
O10 O 0.33230(17) 0.68944(12) 0.10813(8)
O11 O 0.41472(17) 0.47323(12) 0.11995(7)
O12 O 0.38989(16) 0.36775(12) 0.26080(8)
C1 C 0.5696(2) 0.65887(18) 0.27350(11)
H1 H 0.5060 0.7046 0.2944
H2 H 0.5155 0.6220 0.2236
C2 C 0.7395(2) 0.74469(18) 0.26965(11)
H3 H 0.7347 0.8107 0.2383
H4 H 0.7898 0.7836 0.3196
C3 C 0.8174(2) 0.66900(18) 0.16283(11)
H5 H 0.8582 0.7500 0.1428
H6 H 0.7011 0.6296 0.1438
C4 C 0.9093(2) 0.58958(18) 0.13905(11)
H7 H 0.9224 0.5966 0.0864
H8 H 1.0182 0.6168 0.1681
C5 C 0.9033(3) 0.38483(19) 0.13140(12)
H9 H 1.0111 0.4104 0.1613
H10 H 0.9191 0.3883 0.0789
C6 C 0.8050(3) 0.25609(19) 0.14502(11)
H11 H 0.6936 0.2336 0.1191
H12 H 0.8537 0.1979 0.1258
C7 C 0.7214(3) 0.12514(18) 0.23741(11)
H13 H 0.7887 0.0752 0.2272
H14 H 0.6164 0.0895 0.2053
C8 C 0.6938(2) 0.12172(19) 0.31640(11)
H15 H 0.6649 0.0363 0.3303
H16 H 0.7942 0.1730 0.3481
C9 C 0.5443(3) 0.17649(18) 0.40285(11)
H17 H 0.5731 0.1118 0.4280
H18 H 0.4288 0.1620 0.4062
C10 C 0.6452(3) 0.29988(19) 0.44182(11)
H19 H 0.6484 0.2963 0.4957
H20 H 0.7573 0.3239 0.4299
C11 C 0.6777(3) 0.51096(18) 0.43704(11)
H21 H 0.7838 0.5245 0.4198
H22 H 0.6956 0.5301 0.4911
C12 C 0.5975(3) 0.59168(18) 0.40066(11)
H23 H 0.4901 0.5767 0.4169
H24 H 0.6644 0.6793 0.4137
C13 C 0.1220(5) 0.5034(4) 0.3211(3)
H25 H 0.0089 0.4460 0.3176
H26 H 0.1532 0.5084 0.2709
C14 C 0.1315(3) 0.62875(19) 0.35139(13)
H27 H 0.0686 0.6627 0.3162
H28 H 0.0851 0.6226 0.3983
C15 C 0.3206(2) 0.83507(17) 0.36449(11)
H29 H 0.4364 0.8819 0.3813
H30 H 0.2571 0.8559 0.4008
C16 C 0.2740(2) 0.87534(18) 0.29089(11)
H31 H 0.1568 0.8331 0.2746
H32 H 0.2965 0.9651 0.2952
C17 C 0.3148(2) 0.87004(18) 0.16670(11)
H33 H 0.3441 0.9599 0.1643
H34 H 0.1959 0.8314 0.1549
C18 C 0.3954(2) 0.81982(18) 0.11175(11)
H35 H 0.3743 0.8478 0.0628
H36 H 0.5138 0.8499 0.1269
C19 C 0.3886(2) 0.63530(19) 0.05134(11)
H37 H 0.5083 0.6690 0.0569
H38 H 0.3465 0.6542 0.0029
C20 C 0.3314(2) 0.49827(19) 0.05559(10)
H39 H 0.2133 0.4661 0.0575
H40 H 0.3535 0.4576 0.0115
C21 C 0.3761(3) 0.34529(18) 0.12659(11)
H41 H 0.4149 0.3081 0.0863
H42 H 0.2573 0.3044 0.1229
C22 C 0.4552(3) 0.32735(19) 0.19956(11)
H43 H 0.4400 0.2391 0.2016
H44 H 0.5729 0.3738 0.2042
C23 C 0.2312(2) 0.29031(19) 0.27256(12)
H45 H 0.2268 0.2041 0.2734
H46 H 0.1505 0.2939 0.2318
C24 C 0.1920(3) 0.33232(18) 0.34407(14)
H47 H 0.0747 0.2896 0.3445
H48 H 0.2484 0.3003 0.3833
H49 H 0.484(3) 0.478(2) 0.2976(15)
C25? C 0.0959(9) 0.5033(7) 0.3555(5)
H50? H -0.0201 0.4595 0.3375
H51? H 0.1153 0.4873 0.4076
O13? O 0.1908(5) 0.4560(4) 0.3135(3)
loop_
_geom_bond_atom_site_label_1
_geom_bond_atom_site_label_2
_geom_bond_site_symmetry_1
_geom_bond_site_symmetry_2
Cl1 P1 1_555 1_555
Cl2 P1 1_555 1_555
Cl3 P1 1_555 1_555
Cl4 P2 1_555 1_555
Cl5 P2 1_555 1_555
Cl6 P2 1_555 1_555
P1 Cl1A 1_555 1_555
P2 Cl4A 1_555 1_555
O1 C1 1_555 1_555
O2 C2 1_555 1_555
O3 C4 1_555 1_555
O4 C6 1_555 1_555
O5 C8 1_555 1_555
O6 C10 1_555 1_555
O7 C13 1_555 1_555
O8 C14 1_555 1_555
O9 C16 1_555 1_555
O10 C18 1_555 1_555
O11 C20 1_555 1_555
O12 C22 1_555 1_555
C1 H1 1_555 1_555
H2 C1 1_555 1_555
C2 C1 1_555 1_555
H3 C2 1_555 1_555
H4 C2 1_555 1_555
C3 O2 1_555 1_555
H5 C3 1_555 1_555
H6 C3 1_555 1_555
C4 C3 1_555 1_555
H7 C4 1_555 1_555
H8 C4 1_555 1_555
C5 O3 1_555 1_555
H9 C5 1_555 1_555
H10 C5 1_555 1_555
C6 C5 1_555 1_555
H11 C6 1_555 1_555
H12 C6 1_555 1_555
C7 O4 1_555 1_555
H13 C7 1_555 1_555
H14 C7 1_555 1_555
C8 C7 1_555 1_555
H15 C8 1_555 1_555
H16 C8 1_555 1_555
C9 O5 1_555 1_555
H17 C9 1_555 1_555
H18 C9 1_555 1_555
C10 C9 1_555 1_555
H19 C10 1_555 1_555
H20 C10 1_555 1_555
C11 O6 1_555 1_555
H21 C11 1_555 1_555
H22 C11 1_555 1_555
C12 O1 1_555 1_555
H23 C12 1_555 1_555
H24 C12 1_555 1_555
C13 H25 1_555 1_555
H26 C13 1_555 1_555
C14 C13 1_555 1_555
H27 C14 1_555 1_555
H28 C14 1_555 1_555
C15 O8 1_555 1_555
H29 C15 1_555 1_555
H30 C15 1_555 1_555
C16 C15 1_555 1_555
H31 C16 1_555 1_555
H32 C16 1_555 1_555
C17 O9 1_555 1_555
H33 C17 1_555 1_555
H34 C17 1_555 1_555
C18 C17 1_555 1_555
H35 C18 1_555 1_555
H36 C18 1_555 1_555
C19 O10 1_555 1_555
H37 C19 1_555 1_555
H38 C19 1_555 1_555
C20 C19 1_555 1_555
H39 C20 1_555 1_555
H40 C20 1_555 1_555
C21 O11 1_555 1_555
H41 C21 1_555 1_555
H42 C21 1_555 1_555
C22 C21 1_555 1_555
H43 C22 1_555 1_555
H44 C22 1_555 1_555
C23 O12 1_555 1_555
H45 C23 1_555 1_555
H46 C23 1_555 1_555
C24 O7 1_555 1_555
H47 C24 1_555 1_555
H48 C24 1_555 1_555
H49 O1 1_555 1_555
Cl2A P1 1_555 1_555
Cl3A P1 1_555 1_555
Cl5A P2 1_555 1_555
Cl6A P2 1_555 1_555
O12 H49 1_555 1_555
C11 C12 1_555 1_555
C23 C24 1_555 1_555

#END
