
#######################################################################
#
#                 Cambridge Crystallographic Data Centre
#                                CCDC 
#
#######################################################################
#
# If this CIF has been generated from an entry in the Cambridge 
# Structural Database, then it will include bibliographic, chemical, 
# crystal, experimental, refinement or atomic coordinate data resulting 
# from the CCDC's data processing and validation procedures.
#
#######################################################################

data_INAFUA
_chemical_formula_moiety         'C21 H24 Cl1 N3 O2'
_chemical_name_systematic        
't-butyl 5-benzyl-2-((3-chlorophenyl)amino)-4,5-dihydro-1H-imidazole-1-carboxylate'
_symmetry_cell_setting           orthorhombic
_symmetry_space_group_name_H-M   'P 21 21 21'
_symmetry_Int_Tables_number      19
_space_group_name_Hall           'P 2ac 2ab'
loop_
_symmetry_equiv_pos_site_id
_symmetry_equiv_pos_as_xyz
1 x,y,z
2 1/2-x,-y,1/2+z
3 1/2+x,1/2-y,-z
4 -x,1/2+y,1/2-z
_cell_length_a                   8.2001(10)
_cell_length_b                   21.751(3)
_cell_length_c                   33.643(3)
_cell_angle_alpha                90
_cell_angle_beta                 90
_cell_angle_gamma                90
_cell_volume                     6000.58
_exptl_crystal_colour            colorless
_exptl_crystal_description       needle
_cell_formula_units_Z            12
loop_
_atom_site_label
_atom_site_type_symbol
_atom_site_fract_x
_atom_site_fract_y
_atom_site_fract_z
Cl1 Cl 0.92004(17) 0.58504(6) 0.68454(3)
O1 O 0.7754(4) 0.86550(13) 0.50409(8)
O2 O 0.8237(4) 0.81288(13) 0.56145(8)
N1 N 0.8620(5) 0.69108(17) 0.55128(11)
H1 H 0.871(5) 0.7204(17) 0.5656(11)
N2 N 0.8058(4) 0.66331(16) 0.48466(10)
N3 N 0.8080(4) 0.76507(16) 0.50111(9)
C1 C 0.8676(6) 0.5830(2) 0.63467(12)
C2 C 0.8876(5) 0.6352(2) 0.61211(12)
H2 H 0.9291 0.6708 0.6236
C3 C 0.8457(5) 0.6345(2) 0.57208(13)
C4 C 0.7850(5) 0.5811(2) 0.55504(13)
H3 H 0.7558 0.5801 0.5283
C5 C 0.7688(6) 0.5291(2) 0.57863(14)
H4 H 0.7300 0.4930 0.5673
C6 C 0.8084(6) 0.5297(2) 0.61813(14)
H5 H 0.7955 0.4946 0.6336
C7 C 0.8239(5) 0.7021(2) 0.51258(13)
C8 C 0.7620(5) 0.6983(2) 0.44858(12)
H6 H 0.6472 0.6930 0.4425
H7 H 0.8256 0.6841 0.4261
C9 C 0.7995(5) 0.7667(2) 0.45739(11)
H8 H 0.7095 0.7930 0.4485
C10 C 0.9600(5) 0.7888(2) 0.44024(11)
H9 H 0.9969 0.8239 0.4556
H10 H 1.0404 0.7565 0.4433
C11 C 0.9529(5) 0.8069(2) 0.39716(12)
C12 C 1.0403(5) 0.7773(2) 0.36795(12)
H11 H 1.1030 0.7433 0.3747
C13 C 1.0374(6) 0.7968(2) 0.32901(13)
H12 H 1.1017 0.7771 0.3102
C14 C 0.9400(6) 0.8453(2) 0.31775(13)
H13 H 0.9356 0.8579 0.2914
C15 C 0.8492(6) 0.8748(2) 0.34644(14)
H14 H 0.7825 0.9075 0.3392
C16 C 0.8558(6) 0.8566(2) 0.38565(13)
H15 H 0.7950 0.8776 0.4046
C17 C 0.8052(5) 0.8149(2) 0.52595(13)
C18 C 0.7667(5) 0.9272(2) 0.52408(13)
C19 C 0.7241(6) 0.9681(2) 0.48913(14)
H16 H 0.8060 0.9640 0.4689
H17 H 0.7194 1.0102 0.4978
H18 H 0.6201 0.9562 0.4786
C20 C 0.9324(6) 0.9429(2) 0.54123(13)
H19 H 0.9545 0.9167 0.5635
H20 H 0.9330 0.9850 0.5497
H21 H 1.0146 0.9369 0.5213
C21 C 0.6329(6) 0.9271(2) 0.55464(13)
H22 H 0.5342 0.9120 0.5429
H23 H 0.6157 0.9683 0.5641
H24 H 0.6634 0.9011 0.5765
Cl2 Cl 0.57291(16) 0.39341(5) 0.84796(3)
N4 N 0.6895(5) 0.30082(18) 0.71247(11)
H25 H 0.680(5) 0.2720(18) 0.7270(11)
N5 N 0.8007(4) 0.33225(16) 0.65073(10)
N6 N 0.7557(4) 0.23014(16) 0.66131(10)
C22 C 0.6496(6) 0.3994(2) 0.80004(12)
C23 C 0.6385(5) 0.3501(2) 0.77464(12)
H26 H 0.5901 0.3138 0.7833
C24 C 0.6990(6) 0.3540(2) 0.73613(12)
C25 C 0.7694(5) 0.40949(19) 0.72336(13)
H27 H 0.8102 0.4132 0.6977
C26 C 0.7771(6) 0.4583(2) 0.74942(12)
H28 H 0.8224 0.4951 0.7408
C27 C 0.7203(5) 0.4543(2) 0.78757(13)
H29 H 0.7286 0.4876 0.8048
C28 C 0.7499(5) 0.2920(2) 0.67518(12)
C29 C 0.8571(6) 0.30060(19) 0.61505(12)
H30 H 0.9740 0.3057 0.6121
H31 H 0.8040 0.3174 0.5917
C30 C 0.8143(6) 0.2319(2) 0.61968(11)
H32 H 0.9130 0.2068 0.6170
C31 C 0.6830(5) 0.2089(2) 0.59134(11)
H33 H 0.6315 0.1730 0.6030
H34 H 0.6002 0.2405 0.5887
C32 C 0.7439(5) 0.1920(2) 0.55007(12)
C33 C 0.6814(5) 0.21891(19) 0.51637(12)
H35 H 0.6058 0.2506 0.5187
C34 C 0.7298(5) 0.1992(2) 0.47887(13)
H36 H 0.6829 0.2166 0.4564
C35 C 0.8476(6) 0.1539(2) 0.47474(13)
H37 H 0.8820 0.1415 0.4497
C36 C 0.9125(6) 0.1276(2) 0.50837(12)
H38 H 0.9909 0.0970 0.5060
C37 C 0.8622(6) 0.1464(2) 0.54564(13)
H39 H 0.9078 0.1283 0.5681
C38 C 0.7394(5) 0.1780(2) 0.68397(13)
C39 C 0.7798(6) 0.0667(2) 0.68062(13)
C40 C 0.9063(6) 0.0641(2) 0.71284(13)
H40 H 1.0099 0.0766 0.7023
H41 H 0.9142 0.0229 0.7228
H42 H 0.8757 0.0913 0.7341
C41 C 0.8279(7) 0.0275(2) 0.64513(13)
H43 H 0.7509 0.0335 0.6240
H44 H 0.8286 -0.0151 0.6527
H45 H 0.9348 0.0391 0.6362
C42 C 0.6113(6) 0.0497(2) 0.69477(13)
H46 H 0.5826 0.0747 0.7172
H47 H 0.6097 0.0071 0.7024
H48 H 0.5342 0.0563 0.6737
O3 O 0.7793(4) 0.12925(13) 0.66204(8)
O4 O 0.6955(4) 0.17804(13) 0.71843(8)
O5 O 0.3149(4) 0.35620(12) 0.67979(8)
O6 O 0.3235(4) 0.31187(13) 0.61824(8)
Cl3 Cl 0.37334(17) 0.10284(6) 0.48141(3)
N7 N 0.2757(5) 0.18985(17) 0.61880(10)
H49 H 0.294(5) 0.2244(17) 0.6047(10)
N8 N 0.2648(4) 0.15188(16) 0.68490(10)
N9 N 0.2925(4) 0.25500(16) 0.67527(9)
C43 C 0.3304(5) 0.0923(2) 0.53134(13)
C44 C 0.3198(5) 0.1427(2) 0.55566(12)
H50 H 0.3362 0.1817 0.5451
C45 C 0.2851(5) 0.1361(2) 0.59573(12)
C46 C 0.2626(5) 0.0775(2) 0.61160(13)
H51 H 0.2417 0.0722 0.6386
C47 C 0.2723(6) 0.0269(2) 0.58620(14)
H52 H 0.2547 -0.0123 0.5963
C48 C 0.3074(6) 0.0340(2) 0.54634(14)
H53 H 0.3154 -0.0002 0.5298
C49 C 0.2777(5) 0.1948(2) 0.65915(13)
C50 C 0.2829(5) 0.18070(19) 0.72419(12)
H54 H 0.3899 0.1720 0.7351
H55 H 0.2010 0.1650 0.7424
C51 C 0.2608(5) 0.2506(2) 0.71815(11)
H56 H 0.3422 0.2737 0.7333
C52 C 0.0891(5) 0.2723(2) 0.72806(11)
H57 H 0.0674 0.3101 0.7138
H58 H 0.0116 0.2417 0.7189
C53 C 0.0630(5) 0.28312(19) 0.77195(12)
C54 C -0.0550(6) 0.2501(2) 0.79289(12)
H59 H -0.1129 0.2190 0.7802
C55 C -0.0863(6) 0.2633(2) 0.83242(12)
H60 H -0.1671 0.2417 0.8459
C56 C 0.0012(6) 0.3083(2) 0.85200(13)
H61 H -0.0212 0.3171 0.8785
C57 C 0.1213(6) 0.3398(2) 0.83229(13)
H62 H 0.1833 0.3691 0.8457
C58 C 0.1503(6) 0.3280(2) 0.79207(12)
H63 H 0.2293 0.3505 0.7786
C59 C 0.3108(5) 0.3095(2) 0.65430(13)
C60 C 0.3072(6) 0.42149(19) 0.66524(12)
C61 C 0.4611(5) 0.4365(2) 0.64233(13)
H64 H 0.5546 0.4244 0.6576
H65 H 0.4656 0.4799 0.6373
H66 H 0.4606 0.4147 0.6175
C62 C 0.2992(6) 0.45509(19) 0.70449(12)
H67 H 0.2003 0.4442 0.7181
H68 H 0.3009 0.4986 0.6998
H69 H 0.3912 0.4438 0.7205
C63 C 0.1565(5) 0.4308(2) 0.64073(12)
H70 H 0.1677 0.4093 0.6160
H71 H 0.1417 0.4739 0.6357
H72 H 0.0637 0.4152 0.6549
loop_
_geom_bond_atom_site_label_1
_geom_bond_atom_site_label_2
_geom_bond_site_symmetry_1
_geom_bond_site_symmetry_2
Cl1 C1 1_555 1_555
O1 C17 1_555 1_555
O2 C17 1_555 1_555
N1 H1 1_555 1_555
N2 C7 1_555 1_555
N3 C7 1_555 1_555
C1 C2 1_555 1_555
C2 H2 1_555 1_555
C3 N1 1_555 1_555
C4 C3 1_555 1_555
H3 C4 1_555 1_555
C5 C4 1_555 1_555
H4 C5 1_555 1_555
C6 C1 1_555 1_555
H5 C6 1_555 1_555
C7 N1 1_555 1_555
C8 N2 1_555 1_555
H6 C8 1_555 1_555
H7 C8 1_555 1_555
C9 N3 1_555 1_555
H8 C9 1_555 1_555
C10 C9 1_555 1_555
H9 C10 1_555 1_555
H10 C10 1_555 1_555
C11 C10 1_555 1_555
C12 C11 1_555 1_555
H11 C12 1_555 1_555
C13 C12 1_555 1_555
H12 C13 1_555 1_555
C14 C13 1_555 1_555
H13 C14 1_555 1_555
C15 C14 1_555 1_555
H14 C15 1_555 1_555
C16 C11 1_555 1_555
H15 C16 1_555 1_555
C17 N3 1_555 1_555
C18 O1 1_555 1_555
C19 C18 1_555 1_555
H16 C19 1_555 1_555
H17 C19 1_555 1_555
H18 C19 1_555 1_555
C20 C18 1_555 1_555
H19 C20 1_555 1_555
H20 C20 1_555 1_555
H21 C20 1_555 1_555
C21 C18 1_555 1_555
H22 C21 1_555 1_555
H23 C21 1_555 1_555
H24 C21 1_555 1_555
Cl2 C22 1_555 1_555
N4 H25 1_555 1_555
N5 C28 1_555 1_555
N6 C28 1_555 1_555
C22 C23 1_555 1_555
C23 H26 1_555 1_555
C24 N4 1_555 1_555
C25 C24 1_555 1_555
H27 C25 1_555 1_555
C26 C25 1_555 1_555
H28 C26 1_555 1_555
C27 C22 1_555 1_555
H29 C27 1_555 1_555
C28 N4 1_555 1_555
C29 N5 1_555 1_555
H30 C29 1_555 1_555
H31 C29 1_555 1_555
C30 N6 1_555 1_555
H32 C30 1_555 1_555
C31 C30 1_555 1_555
H33 C31 1_555 1_555
H34 C31 1_555 1_555
C32 C31 1_555 1_555
C33 C32 1_555 1_555
H35 C33 1_555 1_555
C34 C33 1_555 1_555
H36 C34 1_555 1_555
C35 C34 1_555 1_555
H37 C35 1_555 1_555
C36 C35 1_555 1_555
H38 C36 1_555 1_555
C37 C32 1_555 1_555
H39 C37 1_555 1_555
C38 N6 1_555 1_555
C39 C40 1_555 1_555
C40 H40 1_555 1_555
H41 C40 1_555 1_555
H42 C40 1_555 1_555
C41 C39 1_555 1_555
H43 C41 1_555 1_555
H44 C41 1_555 1_555
H45 C41 1_555 1_555
C42 C39 1_555 1_555
H46 C42 1_555 1_555
H47 C42 1_555 1_555
H48 C42 1_555 1_555
O3 C38 1_555 1_555
O4 C38 1_555 1_555
O5 C59 1_555 1_555
O6 C59 1_555 1_555
Cl3 C43 1_555 1_555
N7 H49 1_555 1_555
N8 C49 1_555 1_555
N9 C49 1_555 1_555
C43 C44 1_555 1_555
C44 H50 1_555 1_555
C45 N7 1_555 1_555
C46 C45 1_555 1_555
H51 C46 1_555 1_555
C47 C46 1_555 1_555
H52 C47 1_555 1_555
C48 C43 1_555 1_555
H53 C48 1_555 1_555
C49 N7 1_555 1_555
C50 N8 1_555 1_555
H54 C50 1_555 1_555
H55 C50 1_555 1_555
C51 N9 1_555 1_555
H56 C51 1_555 1_555
C52 C51 1_555 1_555
H57 C52 1_555 1_555
H58 C52 1_555 1_555
C53 C52 1_555 1_555
C54 C53 1_555 1_555
H59 C54 1_555 1_555
C55 C54 1_555 1_555
H60 C55 1_555 1_555
C56 C55 1_555 1_555
H61 C56 1_555 1_555
C57 C56 1_555 1_555
H62 C57 1_555 1_555
C58 C53 1_555 1_555
H63 C58 1_555 1_555
C59 N9 1_555 1_555
C60 O5 1_555 1_555
C61 C60 1_555 1_555
H64 C61 1_555 1_555
H65 C61 1_555 1_555
H66 C61 1_555 1_555
C62 C60 1_555 1_555
H67 C62 1_555 1_555
H68 C62 1_555 1_555
H69 C62 1_555 1_555
C63 C60 1_555 1_555
H70 C63 1_555 1_555
H71 C63 1_555 1_555
H72 C63 1_555 1_555
C2 C3 1_555 1_555
C5 C6 1_555 1_555
C8 C9 1_555 1_555
C15 C16 1_555 1_555
C23 C24 1_555 1_555
C26 C27 1_555 1_555
C29 C30 1_555 1_555
C36 C37 1_555 1_555
C39 O3 1_555 1_555
C44 C45 1_555 1_555
C47 C48 1_555 1_555
C50 C51 1_555 1_555
C57 C58 1_555 1_555

#END
