
#######################################################################
#
#                 Cambridge Crystallographic Data Centre
#                                CCDC 
#
#######################################################################
#
# If this CIF has been generated from an entry in the Cambridge 
# Structural Database, then it will include bibliographic, chemical, 
# crystal, experimental, refinement or atomic coordinate data resulting 
# from the CCDC's data processing and validation procedures.
#
#######################################################################

data_INAGOV
_chemical_formula_moiety         'C19 H19 N1 O1'
_chemical_name_systematic        
(1R,3S)-3,10-dimethyl-1-phenyl-3,4-dihydro-1H-[1,4]oxazino[4,3-a]indole
_chemical_properties_biological  
'neuroprotective properties tested against A 25 35-induced neurotoxicity in SH-SY5Y cells'
_symmetry_cell_setting           monoclinic
_symmetry_space_group_name_H-M   'P 21'
_symmetry_Int_Tables_number      4
_space_group_name_Hall           'P 2yb'
loop_
_symmetry_equiv_pos_site_id
_symmetry_equiv_pos_as_xyz
1 x,y,z
2 -x,1/2+y,-z
_cell_length_a                   5.0848(10)
_cell_length_b                   8.9209(17)
_cell_length_c                   16.800(4)
_cell_angle_alpha                90
_cell_angle_beta                 96.957(13)
_cell_angle_gamma                90
_cell_volume                     756.454
_exptl_crystal_colour            colorless
_exptl_crystal_description       block
_cell_formula_units_Z            2
loop_
_atom_site_label
_atom_site_type_symbol
_atom_site_fract_x
_atom_site_fract_y
_atom_site_fract_z
C1 C 0.2707(8) 0.2635(5) 0.2746(3)
H1 H 0.3988 0.1917 0.2610
H2 H 0.1150 0.2578 0.2362
H3 H 0.2245 0.2418 0.3271
C2 C 0.8541(8) 0.5226(5) 0.0879(3)
H4 H 0.9430 0.4612 0.1270
O1 O 0.4802(5) 0.4412(3) 0.19795(17)
C3 C 1.2768(8) 0.6655(5) 0.4933(3)
H5 H 1.3476 0.6387 0.5449
C4 C 1.0629(8) 0.5865(5) 0.4562(3)
H6 H 0.9893 0.5066 0.4813
C5 C 0.9633(8) 0.6324(5) 0.3797(3)
N1 N 0.7640(6) 0.5705(4) 0.3267(2)
C6 C 0.7454(7) 0.6487(5) 0.2549(3)
C7 C 0.5452(8) 0.5956(5) 0.1867(2)
H7 H 0.3836 0.6554 0.1868
C8 C 0.6381(8) 0.6083(4) 0.1051(2)
C9 C 0.5108(8) 0.7012(5) 0.0461(3)
H8 H 0.3677 0.7590 0.0573
C10 C 0.5942(9) 0.7086(5) -0.0289(3)
H9 H 0.5081 0.7713 -0.0680
C11 C 0.8058(8) 0.6224(5) -0.0459(3)
H10 H 0.8615 0.6268 -0.0965
C12 C 0.9356(8) 0.5296(5) 0.0118(3)
H11 H 1.0777 0.4717 -0.0001
C13 C 0.3856(8) 0.4175(5) 0.2737(2)
H12 H 0.2476 0.4914 0.2808
C14 C 0.6161(8) 0.4370(5) 0.3405(3)
H13 H 0.5481 0.4444 0.3918
H14 H 0.7317 0.3503 0.3419
C15 C 1.3895(8) 0.7838(5) 0.4557(3)
H15 H 1.5375 0.8317 0.4821
C16 C 1.2871(8) 0.8319(5) 0.3803(3)
H16 H 1.3610 0.9130 0.3562
C17 C 1.0676(8) 0.7548(5) 0.3406(3)
C18 C 0.9220(8) 0.7655(4) 0.2609(3)
C19 C 0.9665(9) 0.8839(5) 0.2015(3)
H17 H 0.8585 0.9695 0.2096
H18 H 0.9201 0.8458 0.1482
H19 H 1.1498 0.9128 0.2085
loop_
_geom_bond_atom_site_label_1
_geom_bond_atom_site_label_2
_geom_bond_site_symmetry_1
_geom_bond_site_symmetry_2
C1 H1 1_555 1_555
H2 C1 1_555 1_555
H3 C1 1_555 1_555
C2 H4 1_555 1_555
O1 C7 1_555 1_555
C3 H5 1_555 1_555
C4 C3 1_555 1_555
H6 C4 1_555 1_555
C5 C4 1_555 1_555
N1 C5 1_555 1_555
C6 N1 1_555 1_555
C7 C6 1_555 1_555
H7 C7 1_555 1_555
C8 C2 1_555 1_555
C9 C8 1_555 1_555
H8 C9 1_555 1_555
C10 C9 1_555 1_555
H9 C10 1_555 1_555
C11 C10 1_555 1_555
H10 C11 1_555 1_555
C12 C2 1_555 1_555
H11 C12 1_555 1_555
C13 C1 1_555 1_555
H12 C13 1_555 1_555
C14 N1 1_555 1_555
H13 C14 1_555 1_555
H14 C14 1_555 1_555
C15 C3 1_555 1_555
H15 C15 1_555 1_555
C16 C15 1_555 1_555
H16 C16 1_555 1_555
C17 C5 1_555 1_555
C18 C6 1_555 1_555
C19 C18 1_555 1_555
H17 C19 1_555 1_555
H18 C19 1_555 1_555
H19 C19 1_555 1_555
O1 C13 1_555 1_555
C7 C8 1_555 1_555
C11 C12 1_555 1_555
C13 C14 1_555 1_555
C16 C17 1_555 1_555
C17 C18 1_555 1_555

#END
