
#######################################################################
#
#                 Cambridge Crystallographic Data Centre
#                                CCDC 
#
#######################################################################
#
# If this CIF has been generated from an entry in the Cambridge 
# Structural Database, then it will include bibliographic, chemical, 
# crystal, experimental, refinement or atomic coordinate data resulting 
# from the CCDC's data processing and validation procedures.
#
#######################################################################

data_INAGAH
_chemical_formula_moiety         'C18 H29 N3 O2 Se1'
_chemical_name_systematic        
't-butyl (3-methyl-1-(((3-methylphenyl)carbamoselenoyl)amino)butan-2-yl)carbamate'
_symmetry_cell_setting           triclinic
_symmetry_space_group_name_H-M   'P 1'
_symmetry_Int_Tables_number      1
_space_group_name_Hall           'P 1'
loop_
_symmetry_equiv_pos_site_id
_symmetry_equiv_pos_as_xyz
1 x,y,z
_cell_length_a                   9.720(2)
_cell_length_b                   10.559(2)
_cell_length_c                   10.935(3)
_cell_angle_alpha                69.400(3)
_cell_angle_beta                 76.957(4)
_cell_angle_gamma                77.133(4)
_cell_volume                     1010.72
_exptl_crystal_colour            colorless
_exptl_crystal_description       irregular
_cell_formula_units_Z            2
loop_
_atom_site_label
_atom_site_type_symbol
_atom_site_fract_x
_atom_site_fract_y
_atom_site_fract_z
Se1 Se 1.63254(3) 0.36619(3) 1.24644(3)
O1 O 2.0735(3) 0.3705(3) 1.1021(3)
O2 O 2.1225(3) 0.2675(3) 0.9414(3)
N1 N 1.7083(4) 0.2257(4) 1.0596(3)
H1 H 1.7293 0.1505 1.0406
C1 C 2.1743(5) 0.3434(5) 1.2853(4)
H2 H 2.1833 0.4388 1.2517
H3 H 2.2468 0.2935 1.3390
H4 H 2.0816 0.3323 1.3379
N2 N 1.9167(3) 0.4152(3) 0.9701(3)
H5 H 1.8759 0.4774 1.0061
N3 N 1.7079(4) 0.0904(3) 1.2746(3)
H6 H 1.6750 0.0852 1.3558
C2 C 1.6883(5) 0.2157(5) 1.1868(5)
C3 C 1.7259(5) -0.1542(5) 1.3342(5)
H7 H 1.6471 -0.1482 1.3996
C4 C 1.7889(5) -0.2827(5) 1.3225(4)
C5 C 1.8450(4) 0.3906(4) 0.8777(4)
H8 H 1.9015 0.3112 0.8533
C6 C 1.6976(4) 0.3539(4) 0.9489(4)
H9 H 1.6432 0.4274 0.9819
H10 H 1.6466 0.3449 0.8865
C7 C 2.0447(4) 0.3432(4) 1.0003(4)
C8 C 1.8337(4) 0.5130(4) 0.7490(4)
H11 H 1.7745 0.4927 0.6989
C9 C 1.7763(4) -0.0368(4) 1.2525(4)
C10 C 1.7297(5) -0.4103(4) 1.4110(4)
H12 H 1.6990 -0.4515 1.3584
H13 H 1.6498 -0.3871 1.4734
H14 H 1.8025 -0.4737 1.4577
C11 C 1.7626(6) 0.6469(5) 0.7731(5)
H15 H 1.8202 0.6720 0.8190
H16 H 1.6699 0.6365 0.8257
H17 H 1.7527 0.7172 0.6898
C12 C 2.3328(5) 0.3181(6) 1.0796(5)
H18 H 2.3399 0.2885 1.0045
H19 H 2.4111 0.2692 1.1263
H20 H 2.3361 0.4145 1.0501
C13 C 2.1918(5) 0.2893(5) 1.1717(4)
C14 C 1.9814(5) 0.5256(5) 0.6641(4)
H21 H 1.9722 0.5960 0.5808
H22 H 2.0233 0.4399 0.6491
H23 H 2.0415 0.5488 0.7092
C15 C 1.8966(4) -0.0440(4) 1.1557(4)
H24 H 1.9348 0.0344 1.1021
C16 C 2.1798(7) 0.1403(5) 1.2205(5)
H25 H 2.0836 0.1285 1.2631
H26 H 2.2443 0.0916 1.2826
H27 H 2.2039 0.1053 1.1471
C17 C 1.9570(5) -0.1695(5) 1.1416(5)
H28 H 2.0347 -0.1751 1.0751
C18 C 1.9055(4) -0.2871(4) 1.2232(4)
H29 H 1.9495 -0.3708 1.2117
Se2 Se 2.43090(3) 0.01495(3) 0.55776(3)
O3 O 2.6600(3) 0.0944(3) 0.8854(3)
O4 O 2.7540(3) -0.0101(3) 0.7266(3)
N4 N 2.5496(3) -0.0582(3) 0.8517(3)
H30 H 2.5625 -0.1213 0.8157
N5 N 2.3120(3) 0.1455(4) 0.7526(3)
H31 H 2.2751 0.2196 0.7716
C19 C 2.8743(5) 0.0660(5) 0.6682(5)
C20 C 2.3316(5) 0.5243(5) 0.4956(5)
H32 H 2.3077 0.5207 0.4193
C21 C 2.4312(4) 0.4086(4) 0.6957(4)
H33 H 2.4728 0.3293 0.7544
C22 C 2.3894(4) -0.1649(4) 1.0543(4)
H34 H 2.2998 -0.1416 1.1099
C23 C 2.3915(4) 0.4047(4) 0.5836(4)
C24 C 2.2923(4) 0.0165(4) 0.8566(4)
H35 H 2.2872 -0.0512 0.8173
H36 H 2.2025 0.0291 0.9148
C25 C 2.8236(5) 0.2161(5) 0.6097(5)
H37 H 2.7617 0.2295 0.5476
H38 H 2.9044 0.2621 0.5650
H39 H 2.7723 0.2528 0.6789
N6 N 2.4159(4) 0.2803(3) 0.5522(3)
H40 H 2.4573 0.2847 0.4729
C26 C 2.3068(5) 0.6476(5) 0.5189(4)
C27 C 2.4076(5) 0.5344(4) 0.7192(4)
H41 H 2.4338 0.5388 0.7942
C28 C 2.6550(4) 0.0167(4) 0.8258(3)
C29 C 2.4153(4) -0.0361(4) 0.9379(4)
H42 H 2.4208 0.0355 0.9736
C30 C 2.3829(5) 0.1590(4) 0.6295(4)
C31 C 2.3724(5) -0.2859(5) 1.0136(5)
H43 H 2.2911 -0.2605 0.9690
H44 H 2.3586 -0.3639 1.0912
H45 H 2.4569 -0.3087 0.9554
C32 C 2.9509(5) 0.0012(6) 0.5622(5)
H46 H 2.9733 -0.0961 0.6021
H47 H 3.0376 0.0383 0.5198
H48 H 2.8902 0.0204 0.4976
C33 C 2.2397(7) 0.7758(5) 0.4240(5)
H49 H 2.3044 0.7997 0.3420
H50 H 2.2193 0.8491 0.4612
H51 H 2.1525 0.7604 0.4083
C34 C 2.9707(5) 0.0358(5) 0.7693(5)
H52 H 2.9218 0.0747 0.8376
H53 H 3.0562 0.0751 0.7269
H54 H 2.9954 -0.0615 0.8075
C35 C 2.5081(5) -0.2077(5) 1.1386(5)
H55 H 2.5974 -0.2335 1.0876
H56 H 2.4863 -0.2842 1.2155
H57 H 2.5150 -0.1325 1.1656
C36 C 2.3469(5) 0.6501(4) 0.6334(4)
H58 H 2.3316 0.7326 0.6509
loop_
_geom_bond_atom_site_label_1
_geom_bond_atom_site_label_2
_geom_bond_site_symmetry_1
_geom_bond_site_symmetry_2
Se1 C2 1_555 1_555
O1 C7 1_555 1_555
O2 C7 1_555 1_555
N1 H1 1_555 1_555
C1 H2 1_555 1_555
H3 C1 1_555 1_555
H4 C1 1_555 1_555
N2 H5 1_555 1_555
N3 H6 1_555 1_555
C2 N1 1_555 1_555
C3 H7 1_555 1_555
C4 C3 1_555 1_555
C5 N2 1_555 1_555
H8 C5 1_555 1_555
C6 N1 1_555 1_555
H9 C6 1_555 1_555
H10 C6 1_555 1_555
C7 N2 1_555 1_555
C8 C5 1_555 1_555
H11 C8 1_555 1_555
C9 N3 1_555 1_555
C10 C4 1_555 1_555
H12 C10 1_555 1_555
H13 C10 1_555 1_555
H14 C10 1_555 1_555
C11 C8 1_555 1_555
H15 C11 1_555 1_555
H16 C11 1_555 1_555
H17 C11 1_555 1_555
C12 H18 1_555 1_555
H19 C12 1_555 1_555
H20 C12 1_555 1_555
C13 O1 1_555 1_555
C14 C8 1_555 1_555
H21 C14 1_555 1_555
H22 C14 1_555 1_555
H23 C14 1_555 1_555
C15 C9 1_555 1_555
H24 C15 1_555 1_555
C16 C13 1_555 1_555
H25 C16 1_555 1_555
H26 C16 1_555 1_555
H27 C16 1_555 1_555
C17 C15 1_555 1_555
H28 C17 1_555 1_555
C18 C4 1_555 1_555
H29 C18 1_555 1_555
Se2 C30 1_555 1_555
O3 C28 1_555 1_555
O4 C19 1_555 1_555
N4 H30 1_555 1_555
N5 H31 1_555 1_555
C19 C25 1_555 1_555
C20 H32 1_555 1_555
C21 H33 1_555 1_555
C22 H34 1_555 1_555
C23 C20 1_555 1_555
C24 N5 1_555 1_555
H35 C24 1_555 1_555
H36 C24 1_555 1_555
C25 H37 1_555 1_555
H38 C25 1_555 1_555
H39 C25 1_555 1_555
N6 C23 1_555 1_555
H40 N6 1_555 1_555
C26 C20 1_555 1_555
C27 C21 1_555 1_555
H41 C27 1_555 1_555
C28 O4 1_555 1_555
C29 N4 1_555 1_555
H42 C29 1_555 1_555
C30 N5 1_555 1_555
C31 C22 1_555 1_555
H43 C31 1_555 1_555
H44 C31 1_555 1_555
H45 C31 1_555 1_555
C32 C19 1_555 1_555
H46 C32 1_555 1_555
H47 C32 1_555 1_555
H48 C32 1_555 1_555
C33 C26 1_555 1_555
H49 C33 1_555 1_555
H50 C33 1_555 1_555
H51 C33 1_555 1_555
C34 C19 1_555 1_555
H52 C34 1_555 1_555
H53 C34 1_555 1_555
H54 C34 1_555 1_555
C35 C22 1_555 1_555
H55 C35 1_555 1_555
H56 C35 1_555 1_555
H57 C35 1_555 1_555
C36 C26 1_555 1_555
H58 C36 1_555 1_555
C1 C13 1_555 1_555
N3 C2 1_555 1_555
C3 C9 1_555 1_555
C5 C6 1_555 1_555
C12 C13 1_555 1_555
C17 C18 1_555 1_555
N4 C28 1_555 1_555
C21 C23 1_555 1_555
C22 C29 1_555 1_555
C24 C29 1_555 1_555
N6 C30 1_555 1_555
C27 C36 1_555 1_555

#END
