
#######################################################################
#
#                 Cambridge Crystallographic Data Centre
#                                CCDC 
#
#######################################################################
#
# If this CIF has been generated from an entry in the Cambridge 
# Structural Database, then it will include bibliographic, chemical, 
# crystal, experimental, refinement or atomic coordinate data resulting 
# from the CCDC's data processing and validation procedures.
#
#######################################################################

data_INAHAH
_chemical_formula_moiety         'C50 H60 N20 O10,2(K1 1+),2(I1 1-),10.7(H2 O1)'
_chemical_name_systematic        
'di-potassium pentakis(butano)cucurbit[5]uril bis(iodide) hydrate'
_symmetry_cell_setting           cubic
_symmetry_space_group_name_H-M   'P a -3'
_symmetry_Int_Tables_number      205
_space_group_name_Hall           '-P 2ac 2ab 3'
loop_
_symmetry_equiv_pos_site_id
_symmetry_equiv_pos_as_xyz
1 x,y,z
2 1/2-x,-y,1/2+z
3 -x,1/2+y,1/2-z
4 1/2+x,1/2-y,-z
5 z,x,y
6 1/2+z,1/2-x,-y
7 1/2-z,-x,1/2+y
8 -z,1/2+x,1/2-y
9 y,z,x
10 -y,1/2+z,1/2-x
11 1/2+y,1/2-z,-x
12 1/2-y,-z,1/2+x
13 -x,-y,-z
14 1/2+x,y,1/2-z
15 x,1/2-y,1/2+z
16 1/2-x,1/2+y,z
17 -z,-x,-y
18 1/2-z,1/2+x,y
19 1/2+z,x,1/2-y
20 z,1/2-x,1/2+y
21 -y,-z,-x
22 y,1/2-z,1/2+x
23 1/2-y,1/2+z,x
24 1/2+y,z,1/2-x
_cell_length_a                   33.7528(8)
_cell_length_b                   33.7528(8)
_cell_length_c                   33.7528(8)
_cell_angle_alpha                90
_cell_angle_beta                 90
_cell_angle_gamma                90
_cell_volume                     38452.9
_exptl_crystal_colour            yellow
_exptl_crystal_description       block
_cell_formula_units_Z            24
loop_
_atom_site_label
_atom_site_type_symbol
_atom_site_fract_x
_atom_site_fract_y
_atom_site_fract_z
O1 O 0.59885(16) 0.40115(16) 0.90115(16)
O2 O 0.83956(19) 0.33956(19) 1.16044(19)
O3 O 0.65833(18) 0.34167(18) 0.84167(18)
O4 O 0.9005(2) 0.4005(2) 1.0995(2)
O5 O 0.7528(2) 0.1904(2) 1.1503(2)
O6 O 0.7723(2) 0.2846(3) 0.8162(3)
O7 O 0.7039(4) 0.2501(5) 0.8608(3)
O8 O 0.7514(5) 0.2514(5) 1.2486(5)
O9 O 0.9767(5) 0.5566(5) 0.8678(5)
O10 O 0.7977(5) 0.2531(5) 1.1840(6)
O11 O 0.7388(6) 0.3741(6) 1.0109(7)
O12 O 0.9013(9) 0.5384(10) 0.9587(8)
O13 O 0.9936(15) 0.5585(7) 0.9429(15)
K1 K 0.81468(5) 0.39915(5) 1.09575(5)
K2 K 0.65849(5) 0.34685(5) 0.92896(5)
I1 I 0.904390(17) 0.218325(17) 0.894323(15)
I2 I 0.87001(5) 0.51949(4) 0.84845(5)
C1 C 0.8440(2) 0.3831(2) 0.9865(2)
C2 C 0.8349(2) 0.3474(2) 0.9274(2)
C3 C 0.8290(2) 0.3929(2) 0.9190(2)
C4 C 0.7705(2) 0.3585(2) 0.9039(2)
C5 C 0.8356(2) 0.4528(2) 0.9664(3)
H1 H 0.8537 0.4572 0.9883
H2 H 0.8463 0.4664 0.9434
C6 C 0.7684(2) 0.4300(2) 0.8921(2)
H3 H 0.7481 0.4231 0.8730
H4 H 0.7871 0.4474 0.8790
C7 C 0.7851(2) 0.4751(2) 1.0146(2)
C8 C 0.7680(2) 0.4835(2) 0.9477(2)
C9 C 0.7327(2) 0.49825(19) 0.9751(2)
C10 C 0.7106(2) 0.4466(2) 0.93329(19)
C11 C 0.7285(2) 0.5010(2) 1.0516(2)
H5 H 0.7145 0.5258 1.0480
H6 H 0.7487 0.5052 1.0716
C12 C 0.6603(2) 0.4748(2) 0.9775(2)
H7 H 0.6425 0.4647 0.9573
H8 H 0.6536 0.5024 0.9821
C13 C 0.7117(2) 0.4443(2) 1.0942(2)
C14 C 0.65930(19) 0.4680(2) 1.0548(2)
C15 C 0.64422(19) 0.43213(19) 1.08049(19)
C16 C 0.6369(2) 0.4157(2) 1.0128(2)
C17 C 0.6822(2) 0.38861(19) 1.13102(19)
H9 H 0.7035 0.3941 1.1495
H10 H 0.6577 0.3876 1.1460
C18 C 0.6120(2) 0.36585(19) 1.0591(2)
H11 H 0.5940 0.3604 1.0374
H12 H 0.5962 0.3692 1.0829
C19 C 0.7262(2) 0.3342(2) 1.1126(2)
C20 C 0.6584(2) 0.32138(19) 1.1014(2)
C21 C 0.6836(2) 0.2838(2) 1.0893(2)
C22 C 0.6488(2) 0.30796(19) 1.0333(2)
C23 C 0.7594(2) 0.2722(2) 1.09434(19)
H13 H 0.7528 0.2449 1.1004
H14 H 0.7788 0.2809 1.1137
C24 C 0.8094(2) 0.2969(2) 1.0474(2)
C25 C 0.76657(19) 0.2475(2) 1.02240(19)
C26 C 0.79769(19) 0.2600(2) 0.98958(19)
C27 C 0.7328(2) 0.27129(19) 0.9661(2)
C28 C 0.7861(2) 0.2889(2) 0.9194(2)
H15 H 0.7657 0.2839 0.8997
H16 H 0.8093 0.2737 0.9119
C29 C 0.6901(2) 0.2491(2) 1.0209(2)
H17 H 0.6916 0.2247 1.0359
H18 H 0.6711 0.2452 0.9996
C30 C 0.8545(2) 0.3104(2) 0.9917(2)
H19 H 0.8679 0.2921 0.9742
H20 H 0.8728 0.3171 1.0129
C31 C 0.8675(2) 0.3292(3) 0.9017(2)
H21 H 0.8931 0.3388 0.9104
H22 H 0.8672 0.3006 0.9047
C32 C 0.8614(3) 0.3396(3) 0.8592(3)
H23 H 0.8369 0.3276 0.8501
H24 H 0.8829 0.3285 0.8437
C33 C 0.8595(3) 0.3846(3) 0.8519(3)
H25 H 0.8820 0.3924 0.8358
H26 H 0.8357 0.3906 0.8370
C34 C 0.8596(3) 0.4084(3) 0.8896(3)
H27 H 0.8538 0.4359 0.8835
H28 H 0.8857 0.4073 0.9015
C35 C 0.7840(3) 0.5174(2) 0.9212(2)
H29 H 0.8076 0.5084 0.9074
H30 H 0.7643 0.5243 0.9015
C36 C 0.7939(3) 0.5533(3) 0.9458(3)
H31 H 0.8161 0.5470 0.9629
H32 H 0.8022 0.5745 0.9282
C37 C 0.7600(3) 0.5678(3) 0.9710(3)
H33 H 0.7534 0.5946 0.9630
H34 H 0.7685 0.5687 0.9984
C38 C 0.7229(3) 0.5421(2) 0.9680(3)
H35 H 0.7112 0.5452 0.9420
H36 H 0.7037 0.5509 0.9875
C39 C 0.6359(2) 0.5055(2) 1.0617(2)
H37 H 0.6093 0.5022 1.0513
H38 H 0.6483 0.5272 1.0475
C40 C 0.6335(2) 0.5160(2) 1.1055(2)
H39 H 0.6147 0.5375 1.1089
H40 H 0.6592 0.5254 1.1143
C41 C 0.6208(2) 0.4809(2) 1.1318(2)
H41 H 0.6422 0.4745 1.1499
H42 H 0.5980 0.4887 1.1475
C42 C 0.6103(2) 0.4440(2) 1.1075(2)
H43 H 0.6042 0.4222 1.1253
H44 H 0.5869 0.4493 1.0917
C43 C 0.6296(2) 0.3123(2) 1.1348(2)
H45 H 0.6175 0.3367 1.1439
H46 H 0.6087 0.2952 1.1250
C44 C 0.6498(3) 0.2924(2) 1.1690(2)
H47 H 0.6304 0.2864 1.1893
H48 H 0.6691 0.3104 1.1803
C45 C 0.6709(3) 0.2537(2) 1.1564(3)
H49 H 0.6980 0.2544 1.1659
H50 H 0.6578 0.2315 1.1690
C46 C 0.6711(2) 0.2472(2) 1.1119(2)
H51 H 0.6891 0.2257 1.1056
H52 H 0.6448 0.2394 1.1034
C47 C 0.7702(2) 0.2044(2) 1.0339(2)
H53 H 0.7493 0.1977 1.0525
H54 H 0.7954 0.2001 1.0470
C48 C 0.7673(3) 0.1771(2) 0.9970(2)
H55 H 0.7730 0.1500 1.0046
H56 H 0.7405 0.1780 0.9865
C49 C 0.7967(2) 0.1903(2) 0.9644(2)
H57 H 0.8136 0.1681 0.9576
H58 H 0.7819 0.1974 0.9408
C50 C 0.8225(2) 0.2249(2) 0.9761(2)
H59 H 0.8387 0.2327 0.9538
H60 H 0.8400 0.2169 0.9975
N1 N 0.84503(17) 0.34641(17) 0.96963(17)
N2 N 0.83372(19) 0.41029(19) 0.95802(18)
N3 N 0.79608(17) 0.33102(17) 0.91879(17)
N4 N 0.78876(19) 0.39444(17) 0.90426(17)
N5 N 0.79714(18) 0.46996(18) 0.97632(18)
N6 N 0.74769(17) 0.49056(17) 1.01473(17)
N7 N 0.74989(18) 0.45157(16) 0.92497(16)
N8 N 0.70059(17) 0.47240(16) 0.96319(17)
N9 N 0.70053(16) 0.47124(16) 1.06612(17)
N10 N 0.67973(15) 0.42090(16) 1.10273(16)
N11 N 0.65403(17) 0.45248(16) 1.01412(16)
N12 N 0.63279(17) 0.40223(16) 1.05112(17)
N13 N 0.68898(16) 0.35037(15) 1.11320(16)
N14 N 0.72392(17) 0.29622(16) 1.09838(16)
N15 N 0.63833(17) 0.33166(16) 1.06446(17)
N16 N 0.67608(16) 0.28091(16) 1.04680(16)
N17 N 0.77722(17) 0.27377(16) 1.05516(16)
N18 N 0.82048(15) 0.29095(16) 1.00867(16)
N19 N 0.72879(15) 0.25751(16) 1.00381(16)
N20 N 0.77214(16) 0.27481(17) 0.95768(16)
O15 O 0.85215(17) 0.39032(17) 1.02106(16)
O16 O 0.80512(15) 0.46755(16) 1.04419(15)
O17 O 0.74451(14) 0.44201(14) 1.11005(14)
O18 O 0.75614(15) 0.35079(14) 1.12404(15)
O19 O 0.82605(14) 0.31907(15) 1.07096(14)
O20 O 0.73638(15) 0.35177(15) 0.89215(15)
O21 O 0.68858(15) 0.42347(15) 0.91705(14)
O22 O 0.62682(16) 0.39781(15) 0.98291(15)
O23 O 0.63564(15) 0.30994(14) 0.99963(15)
O24 O 0.70520(14) 0.27907(15) 0.94347(14)
I3 I 0.53173(4) 0.43867(5) 1.01687(5)
O14? O 0.9033(3) 0.5189(2) 0.8885(2)
loop_
_geom_bond_atom_site_label_1
_geom_bond_atom_site_label_2
_geom_bond_site_symmetry_1
_geom_bond_site_symmetry_2
C1 N1 1_555 1_555
C2 C3 1_555 1_555
C3 C34 1_555 1_555
C4 N3 1_555 1_555
C5 H1 1_555 1_555
H2 C5 1_555 1_555
C6 H3 1_555 1_555
H4 C6 1_555 1_555
C7 N5 1_555 1_555
C8 C9 1_555 1_555
C9 C38 1_555 1_555
C10 N7 1_555 1_555
C11 H5 1_555 1_555
H6 C11 1_555 1_555
C12 H7 1_555 1_555
H8 C12 1_555 1_555
C13 N9 1_555 1_555
C14 C15 1_555 1_555
C15 C42 1_555 1_555
C16 N11 1_555 1_555
C17 H9 1_555 1_555
H10 C17 1_555 1_555
C18 H11 1_555 1_555
H12 C18 1_555 1_555
C19 N13 1_555 1_555
C20 C21 1_555 1_555
C21 C46 1_555 1_555
C22 N15 1_555 1_555
C23 H13 1_555 1_555
H14 C23 1_555 1_555
C24 N17 1_555 1_555
C25 C26 1_555 1_555
C26 C50 1_555 1_555
C27 N19 1_555 1_555
C28 H15 1_555 1_555
H16 C28 1_555 1_555
C29 H17 1_555 1_555
H18 C29 1_555 1_555
C30 H19 1_555 1_555
H20 C30 1_555 1_555
C31 C2 1_555 1_555
H21 C31 1_555 1_555
H22 C31 1_555 1_555
C32 C31 1_555 1_555
H23 C32 1_555 1_555
H24 C32 1_555 1_555
C33 C32 1_555 1_555
H25 C33 1_555 1_555
H26 C33 1_555 1_555
C34 C33 1_555 1_555
H27 C34 1_555 1_555
H28 C34 1_555 1_555
C35 C8 1_555 1_555
H29 C35 1_555 1_555
H30 C35 1_555 1_555
C36 C35 1_555 1_555
H31 C36 1_555 1_555
H32 C36 1_555 1_555
C37 C36 1_555 1_555
H33 C37 1_555 1_555
H34 C37 1_555 1_555
C38 C37 1_555 1_555
H35 C38 1_555 1_555
H36 C38 1_555 1_555
C39 C14 1_555 1_555
H37 C39 1_555 1_555
H38 C39 1_555 1_555
C40 C39 1_555 1_555
H39 C40 1_555 1_555
H40 C40 1_555 1_555
C41 C40 1_555 1_555
H41 C41 1_555 1_555
H42 C41 1_555 1_555
C42 C41 1_555 1_555
H43 C42 1_555 1_555
H44 C42 1_555 1_555
C43 C20 1_555 1_555
H45 C43 1_555 1_555
H46 C43 1_555 1_555
C44 C43 1_555 1_555
H47 C44 1_555 1_555
H48 C44 1_555 1_555
C45 C44 1_555 1_555
H49 C45 1_555 1_555
H50 C45 1_555 1_555
C46 C45 1_555 1_555
H51 C46 1_555 1_555
H52 C46 1_555 1_555
C47 C25 1_555 1_555
H53 C47 1_555 1_555
H54 C47 1_555 1_555
C48 C47 1_555 1_555
H55 C48 1_555 1_555
H56 C48 1_555 1_555
C49 C48 1_555 1_555
H57 C49 1_555 1_555
H58 C49 1_555 1_555
C50 C49 1_555 1_555
H59 C50 1_555 1_555
H60 C50 1_555 1_555
N1 C2 1_555 1_555
N2 C1 1_555 1_555
N3 C2 1_555 1_555
N4 C3 1_555 1_555
N5 C5 1_555 1_555
N6 C7 1_555 1_555
N7 C6 1_555 1_555
N8 C9 1_555 1_555
N9 C11 1_555 1_555
N10 C13 1_555 1_555
N11 C12 1_555 1_555
N12 C15 1_555 1_555
N13 C17 1_555 1_555
N14 C19 1_555 1_555
N15 C18 1_555 1_555
N16 C21 1_555 1_555
N17 C23 1_555 1_555
N18 C24 1_555 1_555
N19 C25 1_555 1_555
N20 C26 1_555 1_555
O15 C1 1_555 1_555
O16 C7 1_555 1_555
O17 C13 1_555 1_555
O18 C19 1_555 1_555
O19 C24 1_555 1_555
O20 C4 1_555 1_555
O21 C10 1_555 1_555
O22 C16 1_555 1_555
O23 C22 1_555 1_555
O24 C27 1_555 1_555
C3 N2 1_555 1_555
C4 N4 1_555 1_555
C5 N2 1_555 1_555
C6 N4 1_555 1_555
C8 N5 1_555 1_555
C8 N7 1_555 1_555
C9 N6 1_555 1_555
C10 N8 1_555 1_555
C11 N6 1_555 1_555
C12 N8 1_555 1_555
C14 N9 1_555 1_555
C14 N11 1_555 1_555
C15 N10 1_555 1_555
C16 N12 1_555 1_555
C17 N10 1_555 1_555
C18 N12 1_555 1_555
C20 N13 1_555 1_555
C20 N15 1_555 1_555
C21 N14 1_555 1_555
C22 N16 1_555 1_555
C23 N14 1_555 1_555
C25 N17 1_555 1_555
C26 N18 1_555 1_555
C27 N20 1_555 1_555
C28 N3 1_555 1_555
C28 N20 1_555 1_555
C29 N16 1_555 1_555
C29 N19 1_555 1_555
C30 N1 1_555 1_555
C30 N18 1_555 1_555

#END
