
#######################################################################
#
#                 Cambridge Crystallographic Data Centre
#                                CCDC 
#
#######################################################################
#
# If this CIF has been generated from an entry in the Cambridge 
# Structural Database, then it will include bibliographic, chemical, 
# crystal, experimental, refinement or atomic coordinate data resulting 
# from the CCDC's data processing and validation procedures.
#
#######################################################################

data_INAKAL
_chemical_formula_moiety         'C8 H12 N5 1+,2(H2 O1),Br1 1-'
_chemical_name_systematic        
'2-(2-(1H-pyrrol-2-ylmethylene)hydrazino)-4,5-dihydro-1H-imidazol-3-ium bromide dihydrate'
_symmetry_cell_setting           triclinic
_symmetry_space_group_name_H-M   'P -1'
_symmetry_Int_Tables_number      2
_space_group_name_Hall           '-P 1'
loop_
_symmetry_equiv_pos_site_id
_symmetry_equiv_pos_as_xyz
1 x,y,z
2 -x,-y,-z
_cell_length_a                   6.9986(11)
_cell_length_b                   9.3166(15)
_cell_length_c                   10.3557(16)
_cell_angle_alpha                105.518(18)
_cell_angle_beta                 104.396(18)
_cell_angle_gamma                90.548(19)
_cell_volume                     628.084
_exptl_crystal_colour            colorless
_exptl_crystal_description       block
_cell_formula_units_Z            2
loop_
_atom_site_label
_atom_site_type_symbol
_atom_site_fract_x
_atom_site_fract_y
_atom_site_fract_z
N1 N 0.3878(4) 0.6097(3) 0.6587(2)
N2 N 0.2793(3) 0.5403(3) 0.5247(2)
N3 N 0.0541(4) 0.3843(3) 0.2567(2)
N4 N 0.5301(4) 0.8387(3) 0.8153(2)
N5 N 0.3790(4) 0.8366(3) 0.6013(2)
C1 C 0.2272(4) 0.4018(3) 0.4991(3)
C2 C 0.1148(4) 0.3189(3) 0.3624(3)
C3 C -0.0436(5) 0.2781(4) 0.1395(3)
C4 C -0.0447(5) 0.1439(3) 0.1694(3)
C5 C 0.0549(4) 0.1694(3) 0.3105(3)
C6 C 0.4313(4) 0.7560(3) 0.6905(3)
C7 C 0.5564(5) 0.9938(3) 0.8148(3)
C8 C 0.4205(5) 0.9959(3) 0.6742(3)
H1 H 0.26280 0.35330 0.57050
H2 H 0.42630 0.55930 0.72010
H3 H -0.10120 0.29450 0.05180
H4 H 0.07490 0.47970 0.26370
H5 H -0.10210 0.05050 0.10650
H6 H 0.57360 0.80490 0.88800
H7 H 0.07650 0.09650 0.36050
H8 H 0.32690 0.79970 0.51150
H9 H 0.69590 1.02230 0.82140
H10 H 0.51530 1.06230 0.89240
H11 H 0.29770 1.04370 0.68530
H12 H 0.48840 1.04870 0.62480
O1 O 0.6623(3) 0.6906(3) 0.0313(2)
H13 H 0.770(4) 0.709(4) 0.091(3)
H14 H 0.657(8) 0.608(3) -0.024(4)
O2 O 0.4313(4) 0.5777(3) 0.1692(2)
H15 H 0.346(5) 0.628(4) 0.202(4)
H16 H 0.509(8) 0.616(7) 0.135(6)
Br1 Br 0.07428(4) 0.75913(3) 0.27105(3)
loop_
_geom_bond_atom_site_label_1
_geom_bond_atom_site_label_2
_geom_bond_site_symmetry_1
_geom_bond_site_symmetry_2
N1 N2 1_555 1_555
N2 C1 1_555 1_555
N3 C2 1_555 1_555
N4 C6 1_555 1_555
N5 C6 1_555 1_555
C1 C2 1_555 1_555
C2 C5 1_555 1_555
C3 N3 1_555 1_555
C4 C3 1_555 1_555
C5 C4 1_555 1_555
C6 N1 1_555 1_555
C7 N4 1_555 1_555
C8 N5 1_555 1_555
H1 C1 1_555 1_555
H2 N1 1_555 1_555
H3 C3 1_555 1_555
H4 N3 1_555 1_555
H5 C4 1_555 1_555
H6 N4 1_555 1_555
H7 C5 1_555 1_555
H8 N5 1_555 1_555
H9 C7 1_555 1_555
H10 C7 1_555 1_555
H11 C8 1_555 1_555
H12 C8 1_555 1_555
O1 H13 1_555 1_555
H14 O1 1_555 1_555
O2 H15 1_555 1_555
H16 O2 1_555 1_555
C7 C8 1_555 1_555

#END
