
#######################################################################
#
#                 Cambridge Crystallographic Data Centre
#                                CCDC 
#
#######################################################################
#
# If this CIF has been generated from an entry in the Cambridge 
# Structural Database, then it will include bibliographic, chemical, 
# crystal, experimental, refinement or atomic coordinate data resulting 
# from the CCDC's data processing and validation procedures.
#
#######################################################################

data_INAQUJ
_chemical_formula_moiety         'C8 H14 O4'
_chemical_name_systematic        2,2'-Bi-1,3-dioxanyl
_symmetry_cell_setting           orthorhombic
_symmetry_space_group_name_H-M   'P b c a'
_symmetry_Int_Tables_number      61
_space_group_name_Hall           '-P 2ac 2ab'
loop_
_symmetry_equiv_pos_site_id
_symmetry_equiv_pos_as_xyz
1 x,y,z
2 1/2+x,y,1/2-z
3 x,1/2-y,1/2+z
4 1/2-x,1/2+y,z
5 -x,-y,-z
6 1/2-x,-y,1/2+z
7 -x,1/2+y,1/2-z
8 1/2+x,1/2-y,-z
_cell_length_a                   8.4490(8)
_cell_length_b                   9.7189(9)
_cell_length_c                   10.5415(10)
_cell_angle_alpha                90
_cell_angle_beta                 90
_cell_angle_gamma                90
_cell_volume                     865.615
_exptl_crystal_colour            colorless
_exptl_crystal_description       block
_chemical_melting_point          '432 K'
_cell_formula_units_Z            4
_exptl_crystal_recrystallization_method hexane
loop_
_atom_site_label
_atom_site_type_symbol
_atom_site_fract_x
_atom_site_fract_y
_atom_site_fract_z
O1 O 0.89287(11) 0.49197(8) 0.14466(7)
O2 O 1.03127(10) 0.32370(8) 0.03860(8)
C1 C 0.94579(12) 0.44531(11) 0.02764(9)
H1 H 0.8553 0.4310 -0.0290
C2 C 0.78453(17) 0.39398(13) 0.19865(14)
H2 H 0.6924 0.3852 0.1443
H3 H 0.7493 0.4263 0.2810
C3 C 0.86264(15) 0.25674(12) 0.21279(11)
H4 H 0.9453 0.2619 0.2765
H5 H 0.7857 0.1888 0.2399
C4 C 0.93200(17) 0.21580(12) 0.08795(13)
H6 H 0.9940 0.1325 0.0984
H7 H 0.8475 0.1966 0.0282
C1D C 1.05421(12) 0.55469(11) -0.02764(9)
O1D O 1.10713(11) 0.50803(8) -0.14466(7)
C2D C 1.21547(17) 0.60602(13) -0.19865(14)
H2D H 1.3076 0.6148 -0.1443
H3D H 1.2507 0.5737 -0.2810
C3D C 1.13736(15) 0.74326(12) -0.21279(11)
H4D H 1.0547 0.7381 -0.2765
H5D H 1.2143 0.8112 -0.2399
C4D C 1.06800(17) 0.78420(12) -0.08795(13)
O2D O 0.96873(10) 0.67630(8) -0.03860(8)
H1D H 1.1447 0.5690 0.0290
H6D H 1.0060 0.8675 -0.0984
H7D H 1.1525 0.8034 -0.0282
loop_
_geom_bond_atom_site_label_1
_geom_bond_atom_site_label_2
_geom_bond_site_symmetry_1
_geom_bond_site_symmetry_2
O1 C1 1_555 1_555
O2 C1 1_555 1_555
C1 H1 1_555 1_555
C2 O1 1_555 1_555
H2 C2 1_555 1_555
H3 C2 1_555 1_555
C3 C2 1_555 1_555
H4 C3 1_555 1_555
H5 C3 1_555 1_555
C4 O2 1_555 1_555
H6 C4 1_555 1_555
H7 C4 1_555 1_555
C1D C1 1_555 1_555
O1D C1D 1_555 1_555
C2D O1D 1_555 1_555
H2D C2D 1_555 1_555
H3D C2D 1_555 1_555
C3D C2D 1_555 1_555
H4D C3D 1_555 1_555
H5D C3D 1_555 1_555
C4D C3D 1_555 1_555
O2D C1D 1_555 1_555
H1D C1D 1_555 1_555
H6D C4D 1_555 1_555
H7D C4D 1_555 1_555
C3 C4 1_555 1_555
C4D O2D 1_555 1_555

#END
