
#######################################################################
#
#                 Cambridge Crystallographic Data Centre
#                                CCDC 
#
#######################################################################
#
# If this CIF has been generated from an entry in the Cambridge 
# Structural Database, then it will include bibliographic, chemical, 
# crystal, experimental, refinement or atomic coordinate data resulting 
# from the CCDC's data processing and validation procedures.
#
#######################################################################

data_INAQIZ
_chemical_formula_moiety         'C18 H18 O3'
_chemical_name_systematic        
6,7-dimethoxy-2-phenyl-1,2-dihydronaphthalen-1-ol
_symmetry_cell_setting           triclinic
_symmetry_space_group_name_H-M   'P -1'
_symmetry_Int_Tables_number      2
_space_group_name_Hall           '-P 1'
loop_
_symmetry_equiv_pos_site_id
_symmetry_equiv_pos_as_xyz
1 x,y,z
2 -x,-y,-z
_cell_length_a                   7.641(9)
_cell_length_b                   9.967(12)
_cell_length_c                   10.058(13)
_cell_angle_alpha                87.78(2)
_cell_angle_beta                 80.78(2)
_cell_angle_gamma                67.547(18)
_cell_volume                     698.57
_exptl_crystal_colour            colorless
_exptl_crystal_description       Block
_cell_formula_units_Z            2
loop_
_atom_site_label
_atom_site_type_symbol
_atom_site_fract_x
_atom_site_fract_y
_atom_site_fract_z
O1 O 0.04469(16) 1.15008(12) 0.63900(11)
C1 C 0.4609(2) 0.76022(17) 0.49613(16)
C2 C 0.2556(2) 0.99870(17) 0.45185(16)
H1 H 0.2108 1.0719 0.3911
C3 C 0.1827(2) 1.02434(17) 0.58561(16)
O2 O 0.16757(18) 0.95177(13) 0.80785(11)
O3 O 0.33352(17) 0.77756(15) 0.20648(12)
H2 H 0.2217 0.8233 0.2398
C4 C 0.3885(2) 0.78673(18) 0.63208(16)
H3 H 0.4354 0.7145 0.6933
C5 C 0.2497(2) 0.91701(18) 0.67773(16)
C6 C 0.3934(2) 0.86746(17) 0.40530(16)
C7 C 0.7148(2) 0.68446(19) 0.07860(17)
C8 C 0.4548(2) 0.83521(18) 0.25699(16)
H4 H 0.4460 0.9254 0.2107
C9 C 0.6026(2) 0.62187(18) 0.44519(18)
H5 H 0.6331 0.5436 0.5025
C10 C 0.6899(2) 0.60359(19) 0.31957(18)
H6 H 0.7743 0.5112 0.2887
C11 C 0.6578(2) 0.72608(18) 0.22591(17)
H7 H 0.7398 0.7758 0.2454
C12 C 0.6888(3) 0.5708(2) 0.02554(19)
H8 H 0.6364 0.5151 0.0822
C13 C -0.0165(3) 1.26545(19) 0.55003(19)
H9 H 0.0910 1.2883 0.5094
H10 H -0.1117 1.3492 0.5990
H11 H -0.0703 1.2375 0.4811
C14 C 0.7384(3) 0.5370(2) -0.1099(2)
H12 H 0.7195 0.4589 -0.1440
C15 C 0.2460(3) 0.8530(2) 0.90700(19)
H13 H 0.2296 0.7638 0.8940
H14 H 0.1816 0.8937 0.9947
H15 H 0.3802 0.8341 0.8998
C16 C 0.7938(3) 0.7629(2) -0.00795(19)
H16 H 0.8143 0.8405 0.0255
C17 C 0.8432(3) 0.7290(2) -0.1430(2)
H17 H 0.8969 0.7835 -0.2002
C18 C 0.8145(3) 0.6166(2) -0.1941(2)
H18 H 0.8468 0.5945 -0.2860
loop_
_geom_bond_atom_site_label_1
_geom_bond_atom_site_label_2
_geom_bond_site_symmetry_1
_geom_bond_site_symmetry_2
O1 C3 1_555 1_555
C1 C4 1_555 1_555
C2 H1 1_555 1_555
C3 C2 1_555 1_555
O2 C5 1_555 1_555
O3 H2 1_555 1_555
C4 H3 1_555 1_555
C5 C3 1_555 1_555
C6 C1 1_555 1_555
C7 C11 1_555 1_555
C8 O3 1_555 1_555
H4 C8 1_555 1_555
C9 C1 1_555 1_555
H5 C9 1_555 1_555
C10 C9 1_555 1_555
H6 C10 1_555 1_555
C11 C8 1_555 1_555
H7 C11 1_555 1_555
C12 C7 1_555 1_555
H8 C12 1_555 1_555
C13 O1 1_555 1_555
H9 C13 1_555 1_555
H10 C13 1_555 1_555
H11 C13 1_555 1_555
C14 C12 1_555 1_555
H12 C14 1_555 1_555
C15 O2 1_555 1_555
H13 C15 1_555 1_555
H14 C15 1_555 1_555
H15 C15 1_555 1_555
C16 C7 1_555 1_555
H16 C16 1_555 1_555
C17 C16 1_555 1_555
H17 C17 1_555 1_555
C18 C14 1_555 1_555
H18 C18 1_555 1_555
C2 C6 1_555 1_555
C4 C5 1_555 1_555
C6 C8 1_555 1_555
C10 C11 1_555 1_555
C17 C18 1_555 1_555

#END
