
#######################################################################
#
#                 Cambridge Crystallographic Data Centre
#                                CCDC 
#
#######################################################################
#
# If this CIF has been generated from an entry in the Cambridge 
# Structural Database, then it will include bibliographic, chemical, 
# crystal, experimental, refinement or atomic coordinate data resulting 
# from the CCDC's data processing and validation procedures.
#
#######################################################################

data_INAREU
_chemical_formula_moiety         'C10 H18 O4'
_chemical_name_systematic        2,2'-Dimethyl-2,2'-bi-1,3-dioxanyl
_symmetry_cell_setting           monoclinic
_symmetry_space_group_name_H-M   'P 21/c'
_symmetry_Int_Tables_number      14
_space_group_name_Hall           '-P 2ybc'
loop_
_symmetry_equiv_pos_site_id
_symmetry_equiv_pos_as_xyz
1 x,y,z
2 x,1/2-y,1/2+z
3 -x,-y,-z
4 -x,1/2+y,1/2-z
_cell_length_a                   6.1203(5)
_cell_length_b                   7.5931(6)
_cell_length_c                   11.3089(9)
_cell_angle_alpha                90
_cell_angle_beta                 103.780(2)
_cell_angle_gamma                90
_cell_volume                     510.421
_exptl_crystal_colour            colorless
_exptl_crystal_description       block
_chemical_melting_point          '385 K'
_cell_formula_units_Z            2
_exptl_crystal_recrystallization_method hexane
loop_
_atom_site_label
_atom_site_type_symbol
_atom_site_fract_x
_atom_site_fract_y
_atom_site_fract_z
O1 O 0.09302(14) 0.00177(9) 0.16192(6)
O2 O 0.17774(12) 0.18924(9) 0.01556(6)
C1 C 0.01239(15) 0.07790(12) 0.04540(8)
C2 C 0.1651(2) 0.12919(16) 0.25743(9)
H1 H 0.2270 0.0688 0.3336
H2 H 0.0368 0.1979 0.2670
C3 C 0.34077(19) 0.25033(16) 0.22836(10)
H3 H 0.3737 0.3445 0.2879
H4 H 0.4785 0.1853 0.2316
C4 C 0.25366(19) 0.32637(13) 0.10277(10)
H5 H 0.1302 0.4062 0.1034
H6 H 0.3723 0.3929 0.0797
C5 C -0.20946(18) 0.17395(15) 0.03454(11)
H7 H -0.1882 0.2695 0.0917
H8 H -0.3192 0.0937 0.0516
H9 H -0.2610 0.2193 -0.0466
C1B C -0.01239(15) -0.07790(12) -0.04540(8)
O1B O -0.09302(14) -0.00177(9) -0.16192(6)
C2B C -0.1651(2) -0.12919(16) -0.25743(9)
H1B H -0.2270 -0.0688 -0.3336
H2B H -0.0368 -0.1979 -0.2670
C3B C -0.34077(19) -0.25033(16) -0.22836(10)
H3B H -0.3737 -0.3445 -0.2879
H4B H -0.4785 -0.1853 -0.2316
C4B C -0.25366(19) -0.32637(13) -0.10277(10)
O2B O -0.17774(12) -0.18924(9) -0.01556(6)
C5B C 0.20946(18) -0.17395(15) -0.03454(11)
H7B H 0.1882 -0.2695 -0.0917
H8B H 0.3192 -0.0937 -0.0516
H9B H 0.2610 -0.2193 0.0466
H5B H -0.1302 -0.4062 -0.1034
H6B H -0.3723 -0.3929 -0.0797
loop_
_geom_bond_atom_site_label_1
_geom_bond_atom_site_label_2
_geom_bond_site_symmetry_1
_geom_bond_site_symmetry_2
O1 C1 1_555 1_555
O2 C1 1_555 1_555
C1 C5 1_555 1_555
C2 O1 1_555 1_555
H1 C2 1_555 1_555
H2 C2 1_555 1_555
C3 C2 1_555 1_555
H3 C3 1_555 1_555
H4 C3 1_555 1_555
C4 O2 1_555 1_555
H5 C4 1_555 1_555
H6 C4 1_555 1_555
C5 H7 1_555 1_555
H8 C5 1_555 1_555
H9 C5 1_555 1_555
C1B C1 1_555 1_555
O1B C1B 1_555 1_555
C2B O1B 1_555 1_555
H1B C2B 1_555 1_555
H2B C2B 1_555 1_555
C3B C2B 1_555 1_555
H3B C3B 1_555 1_555
H4B C3B 1_555 1_555
C4B C3B 1_555 1_555
O2B C1B 1_555 1_555
C5B C1B 1_555 1_555
H7B C5B 1_555 1_555
H8B C5B 1_555 1_555
H9B C5B 1_555 1_555
H5B C4B 1_555 1_555
H6B C4B 1_555 1_555
C3 C4 1_555 1_555
C4B O2B 1_555 1_555

#END
