
#######################################################################
#
#                 Cambridge Crystallographic Data Centre
#                                CCDC 
#
#######################################################################
#
# If this CIF has been generated from an entry in the Cambridge 
# Structural Database, then it will include bibliographic, chemical, 
# crystal, experimental, refinement or atomic coordinate data resulting 
# from the CCDC's data processing and validation procedures.
#
#######################################################################

data_INATEW
_chemical_formula_moiety         'C31 H20 O1'
_chemical_name_systematic        
9-Phenyl-13b,14-dihydro-15H-benzo(b)benzo(4,5)cyclohepta(1,2,3-lm)fluoren-15-one
_symmetry_cell_setting           monoclinic
_symmetry_space_group_name_H-M   'P 21/n'
_symmetry_Int_Tables_number      14
_space_group_name_Hall           '-P 2yn'
loop_
_symmetry_equiv_pos_site_id
_symmetry_equiv_pos_as_xyz
1 x,y,z
2 1/2+x,1/2-y,1/2+z
3 -x,-y,-z
4 1/2-x,1/2+y,1/2-z
_cell_length_a                   10.2468(9)
_cell_length_b                   8.8322(8)
_cell_length_c                   22.707(2)
_cell_angle_alpha                90
_cell_angle_beta                 90.122(2)
_cell_angle_gamma                90
_cell_volume                     2055.02
_exptl_crystal_colour            yellow
_chemical_melting_point          239-241deg.C
_cell_formula_units_Z            4
_exptl_crystal_recrystallization_method dichloromethane/hexanes
loop_
_atom_site_label
_atom_site_type_symbol
_atom_site_fract_x
_atom_site_fract_y
_atom_site_fract_z
O1 O 0.15859(11) 0.41839(14) 0.07114(5)
C1 C 0.23155(13) 0.47917(15) 0.10609(6)
C2 C 0.34498(13) 0.56900(15) 0.08356(5)
C3 C 0.32863(15) 0.62652(18) 0.02659(6)
H1 H 0.2510 0.6051 0.0061
C4 C 0.42230(17) 0.7131(2) -0.00017(6)
H2 H 0.4095 0.7491 -0.0387
C5 C 0.53561(16) 0.74696(19) 0.03008(6)
H3 H 0.5998 0.8079 0.0125
C6 C 0.55454(14) 0.69122(16) 0.08624(6)
H4 H 0.6317 0.7163 0.1064
C7 C 0.46287(12) 0.59878(14) 0.11405(5)
C8 C 0.49369(12) 0.53920(14) 0.17394(5)
C9 C 0.61959(12) 0.47649(14) 0.18856(5)
C10 C 0.71749(13) 0.44858(15) 0.14611(6)
H5 H 0.7005 0.4714 0.1064
C11 C 0.83599(13) 0.38938(16) 0.16125(6)
H6 H 0.8996 0.3734 0.1321
C12 C 0.86326(13) 0.35238(16) 0.21993(7)
H7 H 0.9453 0.3126 0.2302
C13 C 0.77130(13) 0.37397(15) 0.26194(6)
H8 H 0.7906 0.3476 0.3011
C14 C 0.64652(12) 0.43541(14) 0.24845(6)
C15 C 0.55022(12) 0.45167(14) 0.29315(5)
C16 C 0.42882(12) 0.50508(13) 0.27721(5)
C17 C 0.30816(12) 0.52871(14) 0.31111(5)
C18 C 0.27834(14) 0.50815(16) 0.37050(6)
H9 H 0.3427 0.4749 0.3971
C19 C 0.15325(16) 0.53726(19) 0.38964(6)
H10 H 0.1325 0.5225 0.4295
C20 C 0.05749(15) 0.58795(19) 0.35118(7)
H11 H -0.0271 0.6078 0.3652
C21 C 0.08607(13) 0.60945(16) 0.29220(6)
H12 H 0.0215 0.6440 0.2660
C22 C 0.21072(13) 0.57948(14) 0.27240(6)
C23 C 0.26204(12) 0.58910(14) 0.21030(5)
H13 H 0.2523 0.6925 0.1941
C24 C 0.19769(12) 0.47123(15) 0.17033(6)
H14 H 0.2214 0.3704 0.1849
H15 H 0.1028 0.4813 0.1741
C25 C 0.40324(12) 0.54738(13) 0.21784(5)
C26 C 0.57954(12) 0.41008(14) 0.35554(6)
C27 C 0.63453(17) 0.51342(17) 0.39390(7)
H16 H 0.6599 0.6091 0.3799
C28 C 0.65269(18) 0.47790(18) 0.45263(7)
H17 H 0.6884 0.5504 0.4783
C29 C 0.61901(15) 0.33786(18) 0.47377(6)
H18 H 0.6304 0.3146 0.5138
C30 C 0.56870(15) 0.23243(17) 0.43592(6)
H19 H 0.5472 0.1354 0.4499
C31 C 0.54927(14) 0.26800(16) 0.37716(6)
H20 H 0.5150 0.1944 0.3515
loop_
_geom_bond_atom_site_label_1
_geom_bond_atom_site_label_2
_geom_bond_site_symmetry_1
_geom_bond_site_symmetry_2
O1 C1 1_555 1_555
C1 C2 1_555 1_555
C2 C3 1_555 1_555
C3 H1 1_555 1_555
C4 C3 1_555 1_555
H2 C4 1_555 1_555
C5 C4 1_555 1_555
H3 C5 1_555 1_555
C6 C5 1_555 1_555
H4 C6 1_555 1_555
C7 C2 1_555 1_555
C8 C7 1_555 1_555
C9 C8 1_555 1_555
C10 C9 1_555 1_555
H5 C10 1_555 1_555
C11 C10 1_555 1_555
H6 C11 1_555 1_555
C12 C11 1_555 1_555
H7 C12 1_555 1_555
C13 C12 1_555 1_555
H8 C13 1_555 1_555
C14 C9 1_555 1_555
C15 C14 1_555 1_555
C16 C15 1_555 1_555
C17 C16 1_555 1_555
C18 C17 1_555 1_555
H9 C18 1_555 1_555
C19 C18 1_555 1_555
H10 C19 1_555 1_555
C20 C19 1_555 1_555
H11 C20 1_555 1_555
C21 C20 1_555 1_555
H12 C21 1_555 1_555
C22 C17 1_555 1_555
C23 C22 1_555 1_555
H13 C23 1_555 1_555
C24 C1 1_555 1_555
H14 C24 1_555 1_555
H15 C24 1_555 1_555
C25 C8 1_555 1_555
C26 C15 1_555 1_555
C27 C26 1_555 1_555
H16 C27 1_555 1_555
C28 C27 1_555 1_555
H17 C28 1_555 1_555
C29 C28 1_555 1_555
H18 C29 1_555 1_555
C30 C29 1_555 1_555
H19 C30 1_555 1_555
C31 C26 1_555 1_555
H20 C31 1_555 1_555
C6 C7 1_555 1_555
C13 C14 1_555 1_555
C16 C25 1_555 1_555
C21 C22 1_555 1_555
C23 C24 1_555 1_555
C23 C25 1_555 1_555
C30 C31 1_555 1_555

#END
