
#######################################################################
#
#                 Cambridge Crystallographic Data Centre
#                                CCDC 
#
#######################################################################
#
# If this CIF has been generated from an entry in the Cambridge 
# Structural Database, then it will include bibliographic, chemical, 
# crystal, experimental, refinement or atomic coordinate data resulting 
# from the CCDC's data processing and validation procedures.
#
#######################################################################

data_INAWEB
_chemical_formula_moiety         'C16 H10 Cl1 N1 O2,C7 H6 O2'
_chemical_name_systematic        '5-chloroquinolin-8-yl benzoate benzoic acid'
_symmetry_cell_setting           triclinic
_symmetry_space_group_name_H-M   'P -1'
_symmetry_Int_Tables_number      2
_space_group_name_Hall           '-P 1'
loop_
_symmetry_equiv_pos_site_id
_symmetry_equiv_pos_as_xyz
1 x,y,z
2 -x,-y,-z
_cell_length_a                   7.8065(3)
_cell_length_b                   9.9146(3)
_cell_length_c                   12.9273(4)
_cell_angle_alpha                99.3530(10)
_cell_angle_beta                 99.936(2)
_cell_angle_gamma                96.2930(10)
_cell_volume                     962.639
_cell_formula_units_Z            2
loop_
_atom_site_label
_atom_site_type_symbol
_atom_site_fract_x
_atom_site_fract_y
_atom_site_fract_z
C1 C 0.8185(3) 0.8598(2) 0.95242(19)
H1 H 0.9144 0.8653 1.0075
C2 C 0.8431(3) 0.8525(2) 0.84933(19)
H2 H 0.9559 0.8546 0.8348
C3 C 0.7005(3) 0.8421(2) 0.76679(17)
H3 H 0.7173 0.8352 0.6967
C4 C 0.5327(2) 0.84186(17) 0.78861(14)
C5 C 0.3764(2) 0.83302(17) 0.70422(15)
C6 C 0.2834(2) 0.8269(2) 0.52051(15)
C7 C 0.1983(2) 0.69935(19) 0.45765(14)
C8 C 0.1621(3) 0.4619(2) 0.4227(2)
H4 H 0.1921 0.3793 0.4408
C9 C 0.0357(3) 0.4558(3) 0.3307(2)
H5 H -0.0162 0.3709 0.2891
C10 C 0.2448(3) 0.9494(2) 0.49594(17)
H6 H 0.3049 1.0317 0.5380
C11 C 0.1140(3) 0.9520(2) 0.40694(18)
H7 H 0.0846 1.0358 0.3911
C12 C 0.0312(3) 0.8314(2) 0.34435(16)
C13 C 0.0698(2) 0.7015(2) 0.36614(15)
C14 C -0.0105(3) 0.5737(3) 0.30261(18)
H8 H -0.0949 0.5708 0.2417
C15 C 0.5101(3) 0.8504(2) 0.89316(16)
H9 H 0.3980 0.8504 0.9085
C16 C 0.6518(3) 0.8590(2) 0.97457(17)
H10 H 0.6354 0.8642 1.0446
N1 N 0.2413(2) 0.57826(17) 0.48542(13)
O1 O 0.41919(17) 0.82592(14) 0.60626(10)
O2 O 0.22852(19) 0.83273(17) 0.71777(12)
Cl1 Cl -0.12745(9) 0.83647(9) 0.23351(5)
C17 C 0.4536(3) 0.39723(19) 0.66749(18)
C18 C 0.5630(3) 0.37693(19) 0.76813(18)
C19 C 0.6046(3) 0.2468(2) 0.7784(2)
H11 H 0.5614 0.1725 0.7227
C20 C 0.7088(3) 0.2266(2) 0.8696(2)
H12 H 0.7364 0.1389 0.8754
C21 C 0.7729(4) 0.3358(3) 0.9531(2)
H13 H 0.8435 0.3218 1.0151
C22 C 0.7320(4) 0.4654(3) 0.9442(2)
H14 H 0.7749 0.5393 1.0003
C23 C 0.6279(4) 0.4859(2) 0.8527(2)
H15 H 0.6006 0.5738 0.8473
H16 H 0.380(5) 0.324(4) 0.550(3)
O3 O 0.3841(3) 0.30340(17) 0.59608(14)
O4 O 0.4399(2) 0.52855(14) 0.66419(13)
loop_
_geom_bond_atom_site_label_1
_geom_bond_atom_site_label_2
_geom_bond_site_symmetry_1
_geom_bond_site_symmetry_2
C1 H1 1_555 1_555
C2 C1 1_555 1_555
H2 C2 1_555 1_555
C3 C2 1_555 1_555
H3 C3 1_555 1_555
C4 C3 1_555 1_555
C5 C4 1_555 1_555
C6 C7 1_555 1_555
C7 C13 1_555 1_555
C8 H4 1_555 1_555
C9 C8 1_555 1_555
H5 C9 1_555 1_555
C10 C6 1_555 1_555
H6 C10 1_555 1_555
C11 C10 1_555 1_555
H7 C11 1_555 1_555
C12 C11 1_555 1_555
C13 C12 1_555 1_555
C14 C9 1_555 1_555
H8 C14 1_555 1_555
C15 C4 1_555 1_555
H9 C15 1_555 1_555
C16 C1 1_555 1_555
H10 C16 1_555 1_555
N1 C7 1_555 1_555
O1 C5 1_555 1_555
O2 C5 1_555 1_555
Cl1 C12 1_555 1_555
C17 C18 1_555 1_555
C18 C19 1_555 1_555
C19 H11 1_555 1_555
C20 C19 1_555 1_555
H12 C20 1_555 1_555
C21 C20 1_555 1_555
H13 C21 1_555 1_555
C22 C21 1_555 1_555
H14 C22 1_555 1_555
C23 C18 1_555 1_555
H15 C23 1_555 1_555
H16 O3 1_555 1_555
O3 C17 1_555 1_555
O4 C17 1_555 1_555
C6 O1 1_555 1_555
C8 N1 1_555 1_555
C13 C14 1_555 1_555
C15 C16 1_555 1_555
C22 C23 1_555 1_555

#END
