
#######################################################################
#
#                 Cambridge Crystallographic Data Centre
#                                CCDC 
#
#######################################################################
#
# If this CIF has been generated from an entry in the Cambridge 
# Structural Database, then it will include bibliographic, chemical, 
# crystal, experimental, refinement or atomic coordinate data resulting 
# from the CCDC's data processing and validation procedures.
#
#######################################################################

data_INECAF
_chemical_formula_moiety         'C8 H8 N2 O2'
_chemical_name_systematic        'Ethyl 5-cyano-1H-pyrrole-2-carboxylate'
_symmetry_cell_setting           orthorhombic
_symmetry_space_group_name_H-M   'P n m a'
_symmetry_Int_Tables_number      62
_space_group_name_Hall           '-P 2ac 2n'
loop_
_symmetry_equiv_pos_site_id
_symmetry_equiv_pos_as_xyz
1 x,y,z
2 1/2+x,y,1/2-z
3 x,1/2-y,z
4 1/2-x,1/2+y,1/2+z
5 -x,-y,-z
6 1/2-x,-y,1/2+z
7 -x,1/2+y,-z
8 1/2+x,1/2-y,1/2-z
_cell_length_a                   7.866(3)
_cell_length_b                   6.710(3)
_cell_length_c                   15.959(7)
_cell_angle_alpha                90
_cell_angle_beta                 90
_cell_angle_gamma                90
_cell_volume                     842.33
_exptl_crystal_colour            colorless
_exptl_crystal_description       block
_chemical_melting_point          '392-393 K'
_cell_formula_units_Z            4
_exptl_crystal_recrystallization_method dioxane
loop_
_atom_site_label
_atom_site_type_symbol
_atom_site_fract_x
_atom_site_fract_y
_atom_site_fract_z
N1 N 0.5804(3) 0.7500 1.09215(13)
H1 H 0.6573 0.7500 1.1304
N2 N 0.2838(4) 0.7500 1.25259(18)
O1 O 0.9057(3) 0.7500 1.02467(14)
O2 O 0.7951(3) 0.7500 0.89583(12)
C1 C 0.6089(3) 0.7500 1.00804(15)
C2 C 0.4552(4) 0.7500 0.96829(17)
H2 H 0.4381 0.7500 0.9106
C3 C 0.3295(4) 0.7500 1.02884(17)
H3 H 0.2127 0.7500 1.0197
C4 C 0.4104(4) 0.7500 1.10534(16)
C5 C 0.7856(4) 0.7500 0.97889(18)
C6 C 0.9669(5) 0.7500 0.8613(2)
H4 H 1.0282 0.8673 0.8801
C7 C 0.9538(6) 0.7500 0.7708(3)
H5 H 0.8935 0.6332 0.7528
H6 H 1.0656 0.7500 0.7467
C8 C 0.3400(4) 0.7500 1.18726(19)
H4B H 1.0282 0.6327 0.8801
H5B H 0.8935 0.8668 0.7528
loop_
_geom_bond_atom_site_label_1
_geom_bond_atom_site_label_2
_geom_bond_site_symmetry_1
_geom_bond_site_symmetry_2
N1 H1 1_555 1_555
N2 C8 1_555 1_555
O1 C5 1_555 1_555
O2 C5 1_555 1_555
C1 N1 1_555 1_555
C2 C1 1_555 1_555
H2 C2 1_555 1_555
C3 C2 1_555 1_555
H3 C3 1_555 1_555
C4 N1 1_555 1_555
C5 C1 1_555 1_555
C6 O2 1_555 1_555
H4 C6 1_555 1_555
C7 C6 1_555 1_555
H5 C7 1_555 1_555
H6 C7 1_555 1_555
C8 C4 1_555 1_555
H4B C6 1_555 1_555
H5B C7 1_555 1_555
C3 C4 1_555 1_555

#END
