
#######################################################################
#
#                 Cambridge Crystallographic Data Centre
#                                CCDC 
#
#######################################################################
#
# If this CIF has been generated from an entry in the Cambridge 
# Structural Database, then it will include bibliographic, chemical, 
# crystal, experimental, refinement or atomic coordinate data resulting 
# from the CCDC's data processing and validation procedures.
#
#######################################################################

data_INECEJ
_chemical_formula_moiety         'C25 H18 N2 O4'
_chemical_name_systematic        
1-Acetyl-4',5a'-diphenyl-2',2a',5',5a'-tetrahydrospiro(1H-indole-3,2'-oxeto(5,4-b)oxazol)-2(3H)-one
_symmetry_cell_setting           monoclinic
_symmetry_space_group_name_H-M   'P 21/c'
_symmetry_Int_Tables_number      14
_space_group_name_Hall           '-P 2ybc'
loop_
_symmetry_equiv_pos_site_id
_symmetry_equiv_pos_as_xyz
1 x,y,z
2 x,1/2-y,1/2+z
3 -x,-y,-z
4 -x,1/2+y,1/2-z
_cell_length_a                   16.1912(10)
_cell_length_b                   10.3984(6)
_cell_length_c                   12.6742(8)
_cell_angle_alpha                90
_cell_angle_beta                 107.4320(10)
_cell_angle_gamma                90
_cell_volume                     2035.86
_exptl_crystal_colour            colorless
_exptl_crystal_description       plate
_chemical_melting_point          '491-493 K'
_cell_formula_units_Z            4
_exptl_crystal_recrystallization_method 'petroleum ether/ethyl acetate'
loop_
_atom_site_label
_atom_site_type_symbol
_atom_site_fract_x
_atom_site_fract_y
_atom_site_fract_z
O1 O 0.66990(9) 1.01001(15) 0.60090(14)
O2 O 0.78606(10) 1.05041(16) 0.52549(13)
O3 O 0.79986(11) 0.77676(18) 0.55875(16)
O4 O 1.05555(13) 0.68101(19) 0.59529(16)
N1 N 0.77576(12) 0.9336(2) 0.74877(16)
N2 N 0.94860(12) 0.81393(18) 0.60713(15)
C1 C 0.69765(15) 0.9256(2) 0.6880(2)
C2 C 0.74349(15) 1.0906(2) 0.6032(2)
C3 C 0.81479(15) 1.0332(2) 0.7010(2)
C4 C 0.85690(14) 0.9905(2) 0.61075(19)
C5 C 0.94683(15) 1.0351(2) 0.62400(18)
C6 C 0.98074(18) 1.1578(3) 0.6394(2)
C7 C 1.0695(2) 1.1726(3) 0.6598(2)
C8 C 1.1215(2) 1.0670(4) 0.6664(2)
C9 C 1.08850(17) 0.9437(3) 0.6518(2)
C10 C 0.99992(15) 0.9291(2) 0.62894(18)
C11 C 0.86116(15) 0.8469(2) 0.58892(19)
C12 C 0.98007(18) 0.6921(3) 0.58910(19)
C13 C 0.9182(2) 0.5828(3) 0.5622(3)
H1 H 0.9496 0.5039 0.5649
H2 H 0.8788 0.5943 0.4894
H3 H 0.8864 0.5795 0.6150
C14 C 0.71735(16) 1.2276(2) 0.5917(2)
C15 C 0.73969(19) 1.3089(3) 0.5185(3)
C16 C 0.7142(2) 1.4362(3) 0.5099(4)
C17 C 0.6686(3) 1.4833(4) 0.5759(5)
C18 C 0.6471(3) 1.4049(4) 0.6488(5)
H4 H 0.6160 1.4373 0.6939
C19 C 0.6709(3) 1.2777(3) 0.6566(4)
C20 C 0.63263(15) 0.8359(2) 0.7048(2)
C21 C 0.55174(18) 0.8240(3) 0.6287(3)
C22 C 0.4937(2) 0.7353(4) 0.6470(4)
C23 C 0.5158(2) 0.6613(4) 0.7404(4)
C24 C 0.5948(2) 0.6736(3) 0.8164(3)
C25 C 0.6537(2) 0.7603(3) 0.7994(3)
H5 H 0.8500(14) 1.091(2) 0.7540(19)
H6 H 0.9435(15) 1.230(2) 0.635(2)
H7 H 1.0923(18) 1.256(3) 0.671(2)
H8 H 1.1824(19) 1.078(3) 0.685(2)
H9 H 1.1233(17) 0.871(3) 0.656(2)
H10 H 0.772(2) 1.274(3) 0.472(3)
H11 H 0.728(2) 1.491(4) 0.456(3)
H12 H 0.651(3) 1.569(4) 0.569(3)
H13 H 0.660(2) 1.227(3) 0.708(3)
H14 H 0.5394(17) 0.874(3) 0.565(2)
H15 H 0.441(2) 0.734(3) 0.596(3)
H16 H 0.473(2) 0.602(3) 0.755(3)
H17 H 0.612(2) 0.619(3) 0.879(3)
H18 H 0.7089(19) 0.775(3) 0.849(2)
loop_
_geom_bond_atom_site_label_1
_geom_bond_atom_site_label_2
_geom_bond_site_symmetry_1
_geom_bond_site_symmetry_2
O1 C1 1_555 1_555
O2 C2 1_555 1_555
O3 C11 1_555 1_555
O4 C12 1_555 1_555
N1 C1 1_555 1_555
N2 C10 1_555 1_555
C1 C20 1_555 1_555
C2 O1 1_555 1_555
C3 N1 1_555 1_555
C4 O2 1_555 1_555
C5 C4 1_555 1_555
C6 C5 1_555 1_555
C7 C6 1_555 1_555
C8 C7 1_555 1_555
C9 C8 1_555 1_555
C10 C5 1_555 1_555
C11 N2 1_555 1_555
C12 N2 1_555 1_555
C13 C12 1_555 1_555
H1 C13 1_555 1_555
H2 C13 1_555 1_555
H3 C13 1_555 1_555
C14 C2 1_555 1_555
C15 C14 1_555 1_555
C16 C15 1_555 1_555
C17 C16 1_555 1_555
C18 C17 1_555 1_555
H4 C18 1_555 1_555
C19 C14 1_555 1_555
C20 C21 1_555 1_555
C21 C22 1_555 1_555
C22 C23 1_555 1_555
C23 C24 1_555 1_555
C24 C25 1_555 1_555
C25 C20 1_555 1_555
H5 C3 1_555 1_555
H6 C6 1_555 1_555
H7 C7 1_555 1_555
H8 C8 1_555 1_555
H9 C9 1_555 1_555
H10 C15 1_555 1_555
H11 C16 1_555 1_555
H12 C17 1_555 1_555
H13 C19 1_555 1_555
H14 C21 1_555 1_555
H15 C22 1_555 1_555
H16 C23 1_555 1_555
H17 C24 1_555 1_555
H18 C25 1_555 1_555
C2 C3 1_555 1_555
C3 C4 1_555 1_555
C4 C11 1_555 1_555
C9 C10 1_555 1_555
C18 C19 1_555 1_555

#END
