
#######################################################################
#
#                 Cambridge Crystallographic Data Centre
#                                CCDC 
#
#######################################################################
#
# If this CIF has been generated from an entry in the Cambridge 
# Structural Database, then it will include bibliographic, chemical, 
# crystal, experimental, refinement or atomic coordinate data resulting 
# from the CCDC's data processing and validation procedures.
#
#######################################################################

data_INECEL
_chemical_formula_moiety         'C40 H40 N4 O4,4(C3 H7 N1 O1)'
_chemical_name_systematic        
'4-(15-(4-carboxyphenyl)-5,10,10,15,20,20-hexamethyl-5,10,15,20,22,24-hexahydroporphyrin-5-yl)benzoic acid N,N-dimethylformamide solvate'
_symmetry_cell_setting           monoclinic
_symmetry_space_group_name_H-M   'P 21/n'
_symmetry_Int_Tables_number      14
_space_group_name_Hall           '-P 2yn'
loop_
_symmetry_equiv_pos_site_id
_symmetry_equiv_pos_as_xyz
1 x,y,z
2 1/2-x,1/2+y,1/2-z
3 -x,-y,-z
4 1/2+x,1/2-y,1/2+z
_cell_length_a                   17.4535(4)
_cell_length_b                   8.0246(2)
_cell_length_c                   17.7712(4)
_cell_angle_alpha                90
_cell_angle_beta                 97.847(2)
_cell_angle_gamma                90
_cell_volume                     2465.68
_exptl_crystal_colour            colorless
_exptl_crystal_description       needles
_cell_formula_units_Z            2
loop_
_atom_site_label
_atom_site_type_symbol
_atom_site_fract_x
_atom_site_fract_y
_atom_site_fract_z
C1 C 0.58581(10) 0.8533(2) 1.14721(10)
C2 C 0.66310(11) 0.8812(2) 1.17014(10)
H1 H 0.6858 0.9158 1.2193
C3 C 0.70311(11) 0.8488(2) 1.10705(10)
H2 H 0.7573 0.8579 1.1066
C4 C 0.64917(11) 0.8018(2) 1.04676(10)
C5 C 0.66004(11) 0.7610(2) 0.96563(10)
C6 C 0.63687(10) 0.9068(2) 0.91344(10)
C7 C 0.68138(11) 1.0169(2) 0.87904(10)
H3 H 0.7362 1.0154 0.8826
C8 C 0.63100(11) 1.1337(2) 0.83709(11)
H4 H 0.6459 1.2238 0.8076
C9 C 0.55639(10) 1.0914(2) 0.84725(10)
C10 C 0.48005(10) 1.1538(2) 0.80527(10)
C11 C 0.74616(12) 0.7247(3) 0.96327(11)
H5 H 0.7769 0.8229 0.9809
H6 H 0.7542 0.6983 0.9111
H7 H 0.7623 0.6298 0.9964
C12 C 0.61343(12) 0.6039(2) 0.93768(11)
H8 H 0.6309 0.5094 0.9705
H9 H 0.6216 0.5790 0.8854
H10 H 0.5583 0.6238 0.9394
C13 C 0.49005(11) 1.3361(2) 0.78167(10)
H11 H 0.5018 1.4054 0.8272
H12 H 0.4421 1.3754 0.7517
H13 H 0.5326 1.3438 0.7511
C14 C 0.46107(10) 1.0392(2) 0.73581(10)
C15 C 0.44168(12) 0.8723(2) 0.74684(10)
H14 H 0.4369 0.8344 0.7966
C16 C 0.42944(12) 0.7619(2) 0.68674(11)
H15 H 0.4161 0.6495 0.6956
C17 C 0.43655(10) 0.8141(2) 0.61322(10)
C18 C 0.45449(11) 0.9793(2) 0.60141(10)
H16 H 0.4588 1.0168 0.5515
C19 C 0.46626(11) 1.0914(2) 0.66175(10)
H17 H 0.4779 1.2046 0.6524
C20 C 0.42536(11) 0.6893(3) 0.55076(10)
N1 N 0.57774(9) 0.80427(19) 1.07204(9)
N2 N 0.56102(9) 0.95391(19) 0.89372(8)
O1 O 0.44212(9) 0.7456(2) 0.48508(8)
O2 O 0.40285(9) 0.54709(18) 0.56012(8)
H18 H 0.5316(13) 0.783(3) 1.0428(12)
H19 H 0.5168(14) 0.902(3) 0.9105(13)
H20 H 0.4272(19) 0.678(3) 0.4486(14)
C1B C 0.41419(10) 1.1467(2) 0.85279(10)
C2B C 0.33690(11) 1.1188(2) 0.82986(10)
H1B H 0.3142 1.0842 0.7807
C3B C 0.29689(11) 1.1512(2) 0.89295(10)
H2B H 0.2427 1.1421 0.8934
C4B C 0.35083(11) 1.1982(2) 0.95324(10)
C5B C 0.33996(11) 1.2390(2) 1.03437(10)
C6B C 0.36313(10) 1.0932(2) 1.08656(10)
C7B C 0.31862(11) 0.9831(2) 1.12096(10)
H3B H 0.2638 0.9846 1.1174
C8B C 0.36900(11) 0.8663(2) 1.16291(11)
H4B H 0.3541 0.7762 1.1924
C9B C 0.44361(10) 0.9086(2) 1.15275(10)
C10B C 0.51995(10) 0.8462(2) 1.19473(10)
C11B C 0.25384(12) 1.2753(3) 1.03673(11)
H5B H 0.2231 1.1771 1.0191
H6B H 0.2458 1.3017 1.0889
H7B H 0.2377 1.3702 1.0036
C12B C 0.38657(12) 1.3961(2) 1.06232(11)
H8B H 0.3691 1.4906 1.0295
H9B H 0.3784 1.4210 1.1146
H10B H 0.4417 1.3762 1.0606
C13B C 0.50995(11) 0.6639(2) 1.21833(10)
H11B H 0.4982 0.5946 1.1728
H12B H 0.5579 0.6246 1.2483
H13B H 0.4674 0.6562 1.2489
C14B C 0.53893(10) 0.9608(2) 1.26419(10)
C15B C 0.55832(12) 1.1277(2) 1.25316(10)
H14B H 0.5631 1.1656 1.2034
C16B C 0.57056(12) 1.2381(2) 1.31326(11)
H15B H 0.5839 1.3505 1.3044
C17B C 0.56345(10) 1.1859(2) 1.38678(10)
C18B C 0.54551(11) 1.0207(2) 1.39859(10)
H16B H 0.5412 0.9832 1.4485
C19B C 0.53374(11) 0.9086(2) 1.33825(10)
H17B H 0.5221 0.7954 1.3476
C20B C 0.57464(11) 1.3107(3) 1.44924(10)
N1B N 0.42226(9) 1.19573(19) 0.92796(9)
N2B N 0.43898(9) 1.04609(19) 1.10628(8)
O1B O 0.55788(9) 1.2544(2) 1.51492(8)
O2B O 0.59715(9) 1.45291(18) 1.43988(8)
H18B H 0.4684(13) 1.217(3) 0.9572(12)
H19B H 0.4832(14) 1.098(3) 1.0895(13)
H20B H 0.5728(19) 1.322(3) 1.5514(14)
C21 C 0.37162(12) 0.7789(2) 0.95416(11)
H21 H 0.3587 0.8527 0.9923
C22 C 0.32847(13) 0.5929(3) 0.84949(12)
H22 H 0.3138 0.6471 0.8002
H23 H 0.2980 0.4909 0.8520
H24 H 0.3836 0.5647 0.8555
C23 C 0.23375(13) 0.7444(3) 0.91590(16)
H25 H 0.2314 0.8175 0.9597
H26 H 0.2054 0.6412 0.9225
H27 H 0.2103 0.8010 0.8695
N3 N 0.31373(9) 0.7053(2) 0.90987(9)
O3 O 0.44103(8) 0.75816(17) 0.94928(8)
C24 C 0.38928(12) 0.3904(3) 0.39543(12)
H28 H 0.3970 0.3641 0.4480
C25 C 0.35061(18) 0.3012(3) 0.26607(13)
H29 H 0.3652 0.4160 0.2556
H30 H 0.2960 0.2834 0.2462
H31 H 0.3827 0.2237 0.2414
C26 C 0.34105(15) 0.1093(3) 0.37283(16)
H32 H 0.3555 0.1018 0.4280
H33 H 0.3683 0.0229 0.3479
H34 H 0.2851 0.0933 0.3602
N4 N 0.36219(10) 0.2728(2) 0.34667(10)
O4 O 0.40531(10) 0.5355(2) 0.37547(9)
H35? H 0.4068 0.4963 0.3793
O5? O 0.3906(12) 0.348(2) 0.4671(4)
loop_
_geom_bond_atom_site_label_1
_geom_bond_atom_site_label_2
_geom_bond_site_symmetry_1
_geom_bond_site_symmetry_2
C1 C2 1_555 1_555
C2 H1 1_555 1_555
C3 C2 1_555 1_555
H2 C3 1_555 1_555
C4 C3 1_555 1_555
C5 C4 1_555 1_555
C6 C5 1_555 1_555
C7 C6 1_555 1_555
H3 C7 1_555 1_555
C8 C7 1_555 1_555
H4 C8 1_555 1_555
C9 C8 1_555 1_555
C10 C9 1_555 1_555
C11 C5 1_555 1_555
H5 C11 1_555 1_555
H6 C11 1_555 1_555
H7 C11 1_555 1_555
C12 C5 1_555 1_555
H8 C12 1_555 1_555
H9 C12 1_555 1_555
H10 C12 1_555 1_555
C13 C10 1_555 1_555
H11 C13 1_555 1_555
H12 C13 1_555 1_555
H13 C13 1_555 1_555
C14 C10 1_555 1_555
C15 C14 1_555 1_555
H14 C15 1_555 1_555
C16 C15 1_555 1_555
H15 C16 1_555 1_555
C17 C16 1_555 1_555
C18 C17 1_555 1_555
H16 C18 1_555 1_555
C19 C14 1_555 1_555
H17 C19 1_555 1_555
C20 C17 1_555 1_555
N1 C1 1_555 1_555
N2 C6 1_555 1_555
O1 C20 1_555 1_555
O2 C20 1_555 1_555
H18 N1 1_555 1_555
H19 N2 1_555 1_555
H20 O1 1_555 1_555
C21 H21 1_555 1_555
C22 H22 1_555 1_555
H23 C22 1_555 1_555
H24 C22 1_555 1_555
C23 H25 1_555 1_555
H26 C23 1_555 1_555
H27 C23 1_555 1_555
N3 C21 1_555 1_555
O3 C21 1_555 1_555
C24 H28 1_555 1_555
C25 H29 1_555 1_555
H30 C25 1_555 1_555
H31 C25 1_555 1_555
C26 H32 1_555 1_555
H33 C26 1_555 1_555
H34 C26 1_555 1_555
N4 C24 1_555 1_555
O4 C24 1_555 1_555
C1B C10 1_555 1_555
C2B C1B 1_555 1_555
H1B C2B 1_555 1_555
C3B C2B 1_555 1_555
H2B C3B 1_555 1_555
C4B C3B 1_555 1_555
C5B C4B 1_555 1_555
C6B C5B 1_555 1_555
C7B C6B 1_555 1_555
H3B C7B 1_555 1_555
C8B C7B 1_555 1_555
H4B C8B 1_555 1_555
C9B C8B 1_555 1_555
C10B C1 1_555 1_555
C11B C5B 1_555 1_555
H5B C11B 1_555 1_555
H6B C11B 1_555 1_555
H7B C11B 1_555 1_555
C12B C5B 1_555 1_555
H8B C12B 1_555 1_555
H9B C12B 1_555 1_555
H10B C12B 1_555 1_555
C13B C10B 1_555 1_555
H11B C13B 1_555 1_555
H12B C13B 1_555 1_555
H13B C13B 1_555 1_555
C14B C10B 1_555 1_555
C15B C14B 1_555 1_555
H14B C15B 1_555 1_555
C16B C15B 1_555 1_555
H15B C16B 1_555 1_555
C17B C16B 1_555 1_555
C18B C17B 1_555 1_555
H16B C18B 1_555 1_555
C19B C14B 1_555 1_555
H17B C19B 1_555 1_555
C20B C17B 1_555 1_555
N1B C1B 1_555 1_555
N2B C6B 1_555 1_555
O1B C20B 1_555 1_555
O2B C20B 1_555 1_555
H18B N1B 1_555 1_555
H19B N2B 1_555 1_555
H20B O1B 1_555 1_555
C4 N1 1_555 1_555
C9 N2 1_555 1_555
C18 C19 1_555 1_555
C22 N3 1_555 1_555
C23 N3 1_555 1_555
C25 N4 1_555 1_555
C26 N4 1_555 1_555
C4B N1B 1_555 1_555
C9B C10B 1_555 1_555
C9B N2B 1_555 1_555
C18B C19B 1_555 1_555

#END
