
#######################################################################
#
#                 Cambridge Crystallographic Data Centre
#                                CCDC 
#
#######################################################################
#
# If this CIF has been generated from an entry in the Cambridge 
# Structural Database, then it will include bibliographic, chemical, 
# crystal, experimental, refinement or atomic coordinate data resulting 
# from the CCDC's data processing and validation procedures.
#
#######################################################################

data_INECUZ
_chemical_formula_moiety         'C22 H14 N4 O4'
_chemical_name_systematic        "N,N'-bis(2-Pyridylmethyl)pyromellitic diimide"
_symmetry_cell_setting           orthorhombic
_symmetry_space_group_name_H-M   'P c a 21'
_symmetry_Int_Tables_number      29
_space_group_name_Hall           'P 2c -2ac'
loop_
_symmetry_equiv_pos_site_id
_symmetry_equiv_pos_as_xyz
1 x,y,z
2 -x,-y,1/2+z
3 1/2+x,-y,z
4 1/2-x,y,1/2+z
_cell_length_a                   11.7490(10)
_cell_length_b                   7.498(2)
_cell_length_c                   21.028(3)
_cell_angle_alpha                90
_cell_angle_beta                 90
_cell_angle_gamma                90
_cell_volume                     1852.44
_exptl_crystal_colour            colorless
_exptl_crystal_description       prism
_cell_formula_units_Z            4
_exptl_crystal_recrystallization_method DMF/chloroform
loop_
_atom_site_label
_atom_site_type_symbol
_atom_site_fract_x
_atom_site_fract_y
_atom_site_fract_z
O1 O 0.4931(2) 0.6375(3) 0.50000(10)
O2 O 0.0994(2) 0.3349(3) 0.64880(10)
O3 O 0.2338(2) -0.2267(3) 0.61440(10)
O4 O 0.6336(2) 0.0769(3) 0.47170(10)
N1 N 0.5885(2) 0.3759(3) 0.48000(10)
N2 N 0.1429(2) 0.0358(3) 0.63920(10)
N3 N 0.5550(2) 0.3876(3) 0.35250(10)
N4 N 0.1874(2) 0.0255(4) 0.76650(10)
C1 C 0.5009(3) 0.4773(4) 0.50460(10)
C2 C 0.4218(2) 0.3496(3) 0.53640(10)
C3 C 0.3233(2) 0.3835(4) 0.57040(10)
C4 C 0.2678(2) 0.2326(3) 0.59240(10)
C5 C 0.1605(2) 0.2181(4) 0.63010(10)
C6 C 0.2287(3) -0.0659(4) 0.61200(10)
C7 C 0.3076(2) 0.0609(3) 0.58100(10)
C8 C 0.4065(2) 0.0280(3) 0.54690(10)
C9 C 0.4617(2) 0.1785(4) 0.52530(10)
C10 C 0.5703(2) 0.1943(4) 0.48910(10)
C11 C 0.6792(3) 0.4487(4) 0.44150(10)
C12 C 0.6577(2) 0.4356(3) 0.37090(10)
C13 C 0.7451(3) 0.4714(4) 0.32920(10)
C14 C 0.7256(3) 0.4554(5) 0.2652(2)
C15 C 0.6191(3) 0.4076(5) 0.2450(2)
C16 C 0.5372(3) 0.3755(5) 0.2895(2)
C17 C 0.0556(3) -0.0366(5) 0.68010(10)
C18 C 0.0890(2) -0.0462(4) 0.74970(10)
C19 C 0.0156(3) -0.1233(5) 0.7918(2)
C20 C 0.0424(3) -0.1247(5) 0.8554(2)
C21 C 0.1429(3) -0.0503(5) 0.8740(2)
C22 C 0.2123(3) 0.0203(5) 0.8290(2)
H1 H 0.2965 0.4984 0.5778
H2 H 0.4334 -0.0866 0.5392
H3 H 0.7493 0.3861 0.4515
H4 H 0.6899 0.5731 0.4527
H5 H 0.8163 0.5057 0.3442
H6 H 0.7835 0.4767 0.2360
H7 H 0.6029 0.3973 0.2019
H8 H 0.4650 0.3434 0.2755
H9 H 0.0367 -0.1556 0.6654
H10 H -0.0122 0.0363 0.6761
H11 H -0.0519 -0.1744 0.7776
H12 H -0.0068 -0.1751 0.8850
H13 H 0.1634 -0.0480 0.9167
H14 H 0.2814 0.0681 0.8422
loop_
_geom_bond_atom_site_label_1
_geom_bond_atom_site_label_2
_geom_bond_site_symmetry_1
_geom_bond_site_symmetry_2
O1 C1 1_555 1_555
O2 C5 1_555 1_555
O3 C6 1_555 1_555
O4 C10 1_555 1_555
N1 C1 1_555 1_555
N2 C5 1_555 1_555
N3 C12 1_555 1_555
N4 C18 1_555 1_555
C1 C2 1_555 1_555
C2 C3 1_555 1_555
C3 C4 1_555 1_555
C4 C5 1_555 1_555
C6 N2 1_555 1_555
C7 C4 1_555 1_555
C8 C7 1_555 1_555
C9 C2 1_555 1_555
C10 N1 1_555 1_555
C11 N1 1_555 1_555
C12 C11 1_555 1_555
C13 C12 1_555 1_555
C14 C13 1_555 1_555
C15 C14 1_555 1_555
C16 N3 1_555 1_555
C17 N2 1_555 1_555
C18 C17 1_555 1_555
C19 C18 1_555 1_555
C20 C19 1_555 1_555
C21 C20 1_555 1_555
C22 N4 1_555 1_555
H1 C3 1_555 1_555
H2 C8 1_555 1_555
H3 C11 1_555 1_555
H4 C11 1_555 1_555
H5 C13 1_555 1_555
H6 C14 1_555 1_555
H7 C15 1_555 1_555
H8 C16 1_555 1_555
H9 C17 1_555 1_555
H10 C17 1_555 1_555
H11 C19 1_555 1_555
H12 C20 1_555 1_555
H13 C21 1_555 1_555
H14 C22 1_555 1_555
C6 C7 1_555 1_555
C8 C9 1_555 1_555
C9 C10 1_555 1_555
C15 C16 1_555 1_555
C21 C22 1_555 1_555

#END
