
#######################################################################
#
#                 Cambridge Crystallographic Data Centre
#                                CCDC 
#
#######################################################################
#
# If this CIF has been generated from an entry in the Cambridge 
# Structural Database, then it will include bibliographic, chemical, 
# crystal, experimental, refinement or atomic coordinate data resulting 
# from the CCDC's data processing and validation procedures.
#
#######################################################################

data_INEFEM
_chemical_formula_moiety         'C7 H8 N4 S1,1.75(H2 O1)'
_chemical_name_systematic        
'Pyridine-2-carbaldehyde thiosemicarbazone hydrate'
_symmetry_cell_setting           tetragonal
_symmetry_space_group_name_H-M   'I 41/a'
_symmetry_Int_Tables_number      88
_space_group_name_Hall           '-I 4ad'
loop_
_symmetry_equiv_pos_site_id
_symmetry_equiv_pos_as_xyz
1 x,y,z
2 3/4-y,1/4+x,1/4+z
3 1/2+x,1/2+y,1/2+z
4 1/4-y,3/4+x,3/4+z
5 1/4+y,1/4-x,1/4+z
6 1/2+x,y,1/2-z
7 1/4-y,1/4+x,1/4-z
8 x,1/2+y,-z
9 -x,-y,-z
10 1/4+y,3/4-x,3/4-z
11 1/2-x,1/2-y,1/2-z
12 3/4+y,1/4-x,1/4-z
13 3/4-y,3/4+x,3/4-z
14 1/2-x,-y,1/2+z
15 3/4+y,3/4-x,3/4+z
16 -x,1/2-y,z
_cell_length_a                   13.6760(10)
_cell_length_b                   13.6760(10)
_cell_length_c                   22.192(3)
_cell_angle_alpha                90
_cell_angle_beta                 90
_cell_angle_gamma                90
_cell_volume                     4150.64
_exptl_crystal_colour            yellow
_exptl_crystal_description       plate
_cell_formula_units_Z            16
_exptl_crystal_recrystallization_method water/methanol
loop_
_atom_site_label
_atom_site_type_symbol
_atom_site_fract_x
_atom_site_fract_y
_atom_site_fract_z
S1 S 0.35971(4) 0.42035(4) 0.10319(2)
N1 N -0.15439(11) 0.36195(11) 0.04923(7)
N2 N 0.10107(11) 0.39167(10) 0.03125(7)
N3 N 0.17588(11) 0.40563(11) 0.07153(7)
H1 H 0.1635 0.4094 0.1095
N4 N 0.28360(11) 0.41412(11) -0.00676(7)
H2 H 0.2348 0.4097 -0.0310
H3 H 0.3420 0.4190 -0.0208
C1 C -0.23631(15) 0.34362(15) 0.01825(9)
H4 H -0.2946 0.3376 0.0396
C2 C -0.23917(16) 0.33317(15) -0.04301(10)
H5 H -0.2978 0.3202 -0.0627
C3 C -0.15371(16) 0.34223(14) -0.07480(10)
H6 H -0.1538 0.3363 -0.1165
C4 C -0.06778(15) 0.36019(13) -0.04457(8)
H7 H -0.0090 0.3659 -0.0654
C5 C -0.07077(13) 0.36951(12) 0.01752(8)
C6 C 0.01594(14) 0.38719(13) 0.05404(8)
H8 H 0.0088 0.3955 0.0954
C7 C 0.26893(13) 0.41344(13) 0.05173(8)
O1 O 0.51492(15) 0.58711(17) 0.05087(10)
H9 H 0.505(2) 0.6278(18) 0.0759(13)
H10 H 0.478(2) 0.5406(16) 0.0536(15)
O3 O 0.5000 0.7500 0.1250
O2? O 0.4778(5) 0.2231(5) 0.04034(19)
H11? H 0.489(5) 0.190(4) 0.0100(15)
H12? H 0.525(4) 0.212(6) 0.063(2)
H13? H 0.481(6) 0.795(3) 0.1038(5)
loop_
_geom_bond_atom_site_label_1
_geom_bond_atom_site_label_2
_geom_bond_site_symmetry_1
_geom_bond_site_symmetry_2
S1 C7 1_555 1_555
N1 C1 1_555 1_555
N2 N3 1_555 1_555
N3 H1 1_555 1_555
N4 H2 1_555 1_555
H3 N4 1_555 1_555
C1 H4 1_555 1_555
C2 C1 1_555 1_555
H5 C2 1_555 1_555
C3 C2 1_555 1_555
H6 C3 1_555 1_555
C4 C3 1_555 1_555
H7 C4 1_555 1_555
C5 N1 1_555 1_555
C6 N2 1_555 1_555
H8 C6 1_555 1_555
C7 N3 1_555 1_555
O1 H9 1_555 1_555
H10 O1 1_555 1_555
N4 C7 1_555 1_555
C4 C5 1_555 1_555
C5 C6 1_555 1_555

#END
