
#######################################################################
#
#                 Cambridge Crystallographic Data Centre
#                                CCDC 
#
#######################################################################
#
# If this CIF has been generated from an entry in the Cambridge 
# Structural Database, then it will include bibliographic, chemical, 
# crystal, experimental, refinement or atomic coordinate data resulting 
# from the CCDC's data processing and validation procedures.
#
#######################################################################

data_INEJAM
_chemical_formula_moiety         'C14 H10 Br1 N1'
_chemical_name_systematic        4'-Bromomethylbiphenyl-2-carbonitrile
_symmetry_cell_setting           orthorhombic
_symmetry_space_group_name_H-M   'F d d 2'
_symmetry_Int_Tables_number      43
_space_group_name_Hall           'F 2 -2d'
loop_
_symmetry_equiv_pos_site_id
_symmetry_equiv_pos_as_xyz
1 x,y,z
2 -x,-y,z
3 1/4-x,1/4+y,1/4+z
4 3/4+x,3/4-y,1/4+z
5 x,1/2+y,1/2+z
6 -x,1/2-y,1/2+z
7 1/4-x,3/4+y,3/4+z
8 3/4+x,1/4-y,3/4+z
9 1/2+x,y,1/2+z
10 1/2-x,-y,1/2+z
11 3/4-x,1/4+y,3/4+z
12 1/4+x,3/4-y,3/4+z
13 1/2+x,1/2+y,z
14 1/2-x,1/2-y,z
15 3/4-x,3/4+y,1/4+z
16 1/4+x,1/4-y,1/4+z
_cell_length_a                   47.219(12)
_cell_length_b                   24.229(6)
_cell_length_c                   4.1085(10)
_cell_angle_alpha                90
_cell_angle_beta                 90
_cell_angle_gamma                90
_cell_volume                     4700.41
_exptl_crystal_colour            colorless
_exptl_crystal_description       prism
_cell_formula_units_Z            16
_exptl_crystal_recrystallization_method THF
loop_
_atom_site_label
_atom_site_type_symbol
_atom_site_fract_x
_atom_site_fract_y
_atom_site_fract_z
Br1 Br 0.272011(12) 0.65748(2) 0.49307(17)
C1 C 0.30571(10) 0.62629(18) 0.2846(16)
H1 H 0.3236 0.6460 0.3975
H2 H 0.3025 0.6377 0.0715
C2 C 0.30797(10) 0.56493(19) 0.3227(12)
C3 C 0.28709(10) 0.53046(19) 0.1995(15)
H3 H 0.2705 0.5489 0.1014
C4 C 0.29008(10) 0.47354(18) 0.2199(15)
H4 H 0.2747 0.4522 0.1438
C5 C 0.31403(10) 0.45058(19) 0.3654(11)
C6 C 0.33463(9) 0.48542(18) 0.4878(16)
H5 H 0.3529 0.4723 0.5831
C7 C 0.33114(10) 0.54225(18) 0.4641(15)
H6 H 0.3468 0.5646 0.5513
C8 C 0.31705(10) 0.38964(19) 0.3880(12)
C9 C 0.29460(11) 0.35779(18) 0.5044(18)
H7 H 0.2760 0.3730 0.5305
C10 C 0.29691(13) 0.3008(2) 0.5284(19)
H8 H 0.2810 0.2816 0.6064
C11 C 0.32143(12) 0.2747(2) 0.4442(19)
H9 H 0.3222 0.2371 0.4892
C12 C 0.34392(12) 0.3043(2) 0.3272(14)
H10 H 0.3607 0.2881 0.2890
C13 C 0.34199(10) 0.36196(19) 0.2958(14)
C14 C 0.36506(12) 0.3904(2) 0.1625(13)
N1 N 0.38449(10) 0.41217(16) 0.0496(14)
loop_
_geom_bond_atom_site_label_1
_geom_bond_atom_site_label_2
_geom_bond_site_symmetry_1
_geom_bond_site_symmetry_2
Br1 C1 1_555 1_555
C1 H1 1_555 1_555
H2 C1 1_555 1_555
C2 C1 1_555 1_555
C3 C2 1_555 1_555
H3 C3 1_555 1_555
C4 C3 1_555 1_555
H4 C4 1_555 1_555
C5 C4 1_555 1_555
C6 C5 1_555 1_555
H5 C6 1_555 1_555
C7 C2 1_555 1_555
H6 C7 1_555 1_555
C8 C5 1_555 1_555
C9 C8 1_555 1_555
H7 C9 1_555 1_555
C10 C9 1_555 1_555
H8 C10 1_555 1_555
C11 C10 1_555 1_555
H9 C11 1_555 1_555
C12 C11 1_555 1_555
H10 C12 1_555 1_555
C13 C8 1_555 1_555
C14 C13 1_555 1_555
N1 C14 1_555 1_555
C6 C7 1_555 1_555
C12 C13 1_555 1_555

#END
