
#######################################################################
#
#                 Cambridge Crystallographic Data Centre
#                                CCDC 
#
#######################################################################
#
# If this CIF has been generated from an entry in the Cambridge 
# Structural Database, then it will include bibliographic, chemical, 
# crystal, experimental, refinement or atomic coordinate data resulting 
# from the CCDC's data processing and validation procedures.
#
#######################################################################

data_INEJIV01
_chemical_formula_moiety         'C32 H24 N2 P2'
_chemical_name_systematic        2,3-bis(Diphenylphosphino)quinoxaline
_symmetry_cell_setting           triclinic
_symmetry_space_group_name_H-M   'P -1'
_symmetry_Int_Tables_number      2
_space_group_name_Hall           '-P 1'
loop_
_symmetry_equiv_pos_site_id
_symmetry_equiv_pos_as_xyz
1 x,y,z
2 -x,-y,-z
_cell_length_a                   9.3727(18)
_cell_length_b                   10.0870(19)
_cell_length_c                   14.860(3)
_cell_angle_alpha                74.249(2)
_cell_angle_beta                 75.552(2)
_cell_angle_gamma                72.217(2)
_cell_volume                     1266.09
_exptl_crystal_colour            yellow
_exptl_crystal_description       block
_cell_formula_units_Z            2
loop_
_atom_site_label
_atom_site_type_symbol
_atom_site_fract_x
_atom_site_fract_y
_atom_site_fract_z
P1 P 0.70813(7) 0.77549(6) 0.33913(4)
P2 P 0.78621(7) 0.80827(6) 0.11366(4)
N1 N 0.7352(2) 0.49415(19) 0.34717(13)
N2 N 0.7387(2) 0.53849(19) 0.14991(13)
C1 C 0.7346(2) 0.6183(2) 0.28960(15)
C2 C 0.7475(2) 0.6388(2) 0.18865(15)
C3 C 0.7315(2) 0.4097(2) 0.21005(16)
C4 C 0.7225(3) 0.2969(2) 0.17318(16)
H1 H 0.7101 0.3134 0.1092
C5 C 0.7319(3) 0.1642(2) 0.23084(17)
H2 H 0.7264 0.0886 0.2063
C6 C 0.7497(3) 0.1380(2) 0.32577(17)
H3 H 0.7604 0.0443 0.3637
C7 C 0.7518(3) 0.2470(2) 0.36435(17)
H4 H 0.7605 0.2295 0.4291
C8 C 0.7410(2) 0.3841(2) 0.30690(16)
C9 C 0.4997(3) 0.8343(2) 0.35902(16)
C10 C 0.4057(3) 0.7724(3) 0.3336(2)
H5 H 0.4499 0.6916 0.3054
C11 C 0.2496(3) 0.8262(3) 0.3484(2)
H6 H 0.1878 0.7826 0.3301
C12 C 0.1822(3) 0.9434(3) 0.38991(19)
H7 H 0.0746 0.9800 0.4005
C13 C 0.2741(3) 1.0063(3) 0.41575(18)
H8 H 0.2291 1.0861 0.4449
C14 C 0.4299(3) 0.9540(2) 0.39946(17)
H9 H 0.4914 1.0000 0.4159
C15 C 0.7476(3) 0.6945(2) 0.45899(16)
C16 C 0.6454(3) 0.6429(3) 0.53665(18)
H10 H 0.5475 0.6444 0.5285
C17 C 0.6862(3) 0.5893(3) 0.62585(19)
H11 H 0.6151 0.5568 0.6788
C18 C 0.8301(3) 0.5832(3) 0.63786(19)
H12 H 0.8581 0.5454 0.6987
C19 C 0.9331(3) 0.6322(3) 0.5609(2)
H13 H 1.0325 0.6267 0.5687
C20 C 0.8910(3) 0.6890(2) 0.47291(18)
H14 H 0.9612 0.7250 0.4209
C21 C 0.9931(3) 0.7532(2) 0.10768(16)
C22 C 1.0821(3) 0.6176(2) 0.09693(17)
H15 H 1.0355 0.5498 0.0908
C23 C 1.2376(3) 0.5809(3) 0.09514(18)
H16 H 1.2970 0.4884 0.0875
C24 C 1.3068(3) 0.6787(3) 0.10439(19)
H17 H 1.4133 0.6528 0.1041
C25 C 1.2200(3) 0.8145(3) 0.1141(2)
H18 H 1.2674 0.8823 0.1194
C26 C 1.0645(3) 0.8514(3) 0.11608(18)
H19 H 1.0057 0.9443 0.1232
C27 C 0.7608(3) 0.7987(2) -0.00210(16)
C28 C 0.6105(3) 0.8343(2) -0.01468(17)
H20 H 0.5300 0.8557 0.0367
C29 C 0.5768(3) 0.8390(3) -0.10131(18)
H21 H 0.4737 0.8611 -0.1086
C30 C 0.6933(3) 0.8114(3) -0.17705(18)
H22 H 0.6706 0.8147 -0.2366
C31 C 0.8428(3) 0.7790(3) -0.16591(18)
H23 H 0.9229 0.7618 -0.2183
C32 C 0.8771(3) 0.7712(3) -0.07864(17)
H24 H 0.9804 0.7469 -0.0713
loop_
_geom_bond_atom_site_label_1
_geom_bond_atom_site_label_2
_geom_bond_site_symmetry_1
_geom_bond_site_symmetry_2
P1 C1 1_555 1_555
P2 C2 1_555 1_555
N1 C1 1_555 1_555
N2 C2 1_555 1_555
C1 C2 1_555 1_555
C3 N2 1_555 1_555
C4 C3 1_555 1_555
H1 C4 1_555 1_555
C5 C4 1_555 1_555
H2 C5 1_555 1_555
C6 C5 1_555 1_555
H3 C6 1_555 1_555
C7 C6 1_555 1_555
H4 C7 1_555 1_555
C8 N1 1_555 1_555
C9 P1 1_555 1_555
C10 C9 1_555 1_555
H5 C10 1_555 1_555
C11 C10 1_555 1_555
H6 C11 1_555 1_555
C12 C11 1_555 1_555
H7 C12 1_555 1_555
C13 C12 1_555 1_555
H8 C13 1_555 1_555
C14 C9 1_555 1_555
H9 C14 1_555 1_555
C15 P1 1_555 1_555
C16 C15 1_555 1_555
H10 C16 1_555 1_555
C17 C16 1_555 1_555
H11 C17 1_555 1_555
C18 C17 1_555 1_555
H12 C18 1_555 1_555
C19 C18 1_555 1_555
H13 C19 1_555 1_555
C20 C15 1_555 1_555
H14 C20 1_555 1_555
C21 P2 1_555 1_555
C22 C21 1_555 1_555
H15 C22 1_555 1_555
C23 C22 1_555 1_555
H16 C23 1_555 1_555
C24 C23 1_555 1_555
H17 C24 1_555 1_555
C25 C24 1_555 1_555
H18 C25 1_555 1_555
C26 C21 1_555 1_555
H19 C26 1_555 1_555
C27 P2 1_555 1_555
C28 C27 1_555 1_555
H20 C28 1_555 1_555
C29 C28 1_555 1_555
H21 C29 1_555 1_555
C30 C29 1_555 1_555
H22 C30 1_555 1_555
C31 C30 1_555 1_555
H23 C31 1_555 1_555
C32 C27 1_555 1_555
H24 C32 1_555 1_555
C3 C8 1_555 1_555
C7 C8 1_555 1_555
C13 C14 1_555 1_555
C19 C20 1_555 1_555
C25 C26 1_555 1_555
C31 C32 1_555 1_555

#END
