
#######################################################################
#
#                 Cambridge Crystallographic Data Centre
#                                CCDC 
#
#######################################################################
#
# If this CIF has been generated from an entry in the Cambridge 
# Structural Database, then it will include bibliographic, chemical, 
# crystal, experimental, refinement or atomic coordinate data resulting 
# from the CCDC's data processing and validation procedures.
#
#######################################################################

data_INEJIV
_chemical_formula_moiety         'C32 H24 N2 P2'
_chemical_name_systematic        2,3-bis(Diphenylphosphino)quinoxaline
_symmetry_cell_setting           triclinic
_symmetry_space_group_name_H-M   'P -1'
_symmetry_Int_Tables_number      2
_space_group_name_Hall           '-P 1'
loop_
_symmetry_equiv_pos_site_id
_symmetry_equiv_pos_as_xyz
1 x,y,z
2 -x,-y,-z
_cell_length_a                   9.3790(6)
_cell_length_b                   10.0967(6)
_cell_length_c                   14.8625(9)
_cell_angle_alpha                74.2950(10)
_cell_angle_beta                 75.5630(10)
_cell_angle_gamma                72.1950(10)
_cell_volume                     1268.52
_exptl_crystal_colour            orange
_exptl_crystal_description       block
_cell_formula_units_Z            2
loop_
_atom_site_label
_atom_site_type_symbol
_atom_site_fract_x
_atom_site_fract_y
_atom_site_fract_z
P1 P 0.21371(5) 0.69182(4) 0.38627(3)
P2 P 0.29202(5) 0.72450(4) 0.16078(3)
N1 N 0.26139(15) 0.96131(13) 0.34995(9)
N2 N 0.26472(15) 1.00612(13) 0.15297(9)
C1 C 0.25268(17) 0.86144(15) 0.31154(11)
C2 C 0.26854(17) 1.09061(16) 0.29021(11)
C3 C 0.27753(18) 1.20297(16) 0.32664(11)
H1 H 0.2902 1.1863 0.3906
C4 C 0.26788(18) 1.33581(17) 0.26955(12)
H2 H 0.2730 1.4113 0.2943
C5 C 0.25044(18) 1.36157(16) 0.17405(12)
H3 H 0.2402 1.4550 0.1360
C6 C 0.24810(18) 1.25339(16) 0.13586(11)
H4 H 0.2391 1.2711 0.0711
C7 C 0.25908(17) 1.11554(16) 0.19316(11)
C8 C 0.26564(17) 0.88143(15) 0.21031(11)
C9 C 0.23918(18) 0.70126(15) 0.50171(11)
C10 C 0.12256(19) 0.72862(17) 0.57865(11)
H5 H 0.0193 0.7525 0.5714
C11 C 0.1571(2) 0.72108(19) 0.66590(12)
H6 H 0.0771 0.7384 0.7183
C12 C 0.3070(2) 0.68846(18) 0.67699(12)
H7 H 0.3297 0.6851 0.7365
C13 C 0.4237(2) 0.66071(18) 0.60114(13)
H8 H 0.5267 0.6384 0.6084
C14 C 0.38961(19) 0.66554(17) 0.51452(12)
H9 H 0.4701 0.6442 0.4631
C15 C 0.00666(18) 0.74658(16) 0.39224(11)
C16 C -0.08191(19) 0.88263(17) 0.40315(12)
H10 H -0.0352 0.9501 0.4095
C17 C -0.2378(2) 0.91944(18) 0.40476(12)
H11 H -0.2972 1.0120 0.4121
C18 C -0.3067(2) 0.8218(2) 0.39570(13)
H12 H -0.4131 0.8476 0.3962
C19 C -0.2203(2) 0.6860(2) 0.38580(14)
H13 H -0.2678 0.6186 0.3802
C20 C -0.0643(2) 0.64874(18) 0.38415(12)
H14 H -0.0056 0.5557 0.3774
C21 C 0.50042(18) 0.66578(16) 0.14110(11)
C22 C 0.5698(2) 0.54617(17) 0.10061(11)
H15 H 0.5084 0.5004 0.0840
C23 C 0.7266(2) 0.49378(18) 0.08451(12)
H16 H 0.7718 0.4138 0.0557
C24 C 0.8177(2) 0.5568(2) 0.10996(12)
H17 H 0.9253 0.5204 0.0991
C25 C 0.7509(2) 0.6734(2) 0.15148(14)
H18 H 0.8129 0.7165 0.1700
C26 C 0.5938(2) 0.7281(2) 0.16634(14)
H19 H 0.5496 0.8092 0.1941
C27 C 0.25243(18) 0.80570(16) 0.04084(11)
C28 C 0.10914(19) 0.81092(17) 0.02719(13)
H20 H 0.0390 0.7750 0.0792
C29 C 0.0671(2) 0.86784(19) -0.06139(14)
H21 H -0.0321 0.8732 -0.0693
C30 C 0.1701(2) 0.91657(18) -0.13793(13)
H22 H 0.1423 0.9544 -0.1988
C31 C 0.3137(2) 0.9102(2) -0.12582(13)
H23 H 0.3848 0.9425 -0.1788
C32 C 0.3548(2) 0.85691(19) -0.03648(12)
H24 H 0.4526 0.8555 -0.0283
loop_
_geom_bond_atom_site_label_1
_geom_bond_atom_site_label_2
_geom_bond_site_symmetry_1
_geom_bond_site_symmetry_2
P1 C1 1_555 1_555
P2 C8 1_555 1_555
N1 C1 1_555 1_555
N2 C7 1_555 1_555
C1 C8 1_555 1_555
C2 N1 1_555 1_555
C3 C2 1_555 1_555
H1 C3 1_555 1_555
C4 C3 1_555 1_555
H2 C4 1_555 1_555
C5 C4 1_555 1_555
H3 C5 1_555 1_555
C6 C5 1_555 1_555
H4 C6 1_555 1_555
C7 C2 1_555 1_555
C8 N2 1_555 1_555
C9 P1 1_555 1_555
C10 C9 1_555 1_555
H5 C10 1_555 1_555
C11 C10 1_555 1_555
H6 C11 1_555 1_555
C12 C11 1_555 1_555
H7 C12 1_555 1_555
C13 C12 1_555 1_555
H8 C13 1_555 1_555
C14 C9 1_555 1_555
H9 C14 1_555 1_555
C15 P1 1_555 1_555
C16 C15 1_555 1_555
H10 C16 1_555 1_555
C17 C16 1_555 1_555
H11 C17 1_555 1_555
C18 C17 1_555 1_555
H12 C18 1_555 1_555
C19 C18 1_555 1_555
H13 C19 1_555 1_555
C20 C15 1_555 1_555
H14 C20 1_555 1_555
C21 P2 1_555 1_555
C22 C21 1_555 1_555
H15 C22 1_555 1_555
C23 C22 1_555 1_555
H16 C23 1_555 1_555
C24 C23 1_555 1_555
H17 C24 1_555 1_555
C25 C24 1_555 1_555
H18 C25 1_555 1_555
C26 C21 1_555 1_555
H19 C26 1_555 1_555
C27 P2 1_555 1_555
C28 C27 1_555 1_555
H20 C28 1_555 1_555
C29 C28 1_555 1_555
H21 C29 1_555 1_555
C30 C29 1_555 1_555
H22 C30 1_555 1_555
C31 C30 1_555 1_555
H23 C31 1_555 1_555
C32 C27 1_555 1_555
H24 C32 1_555 1_555
C6 C7 1_555 1_555
C13 C14 1_555 1_555
C19 C20 1_555 1_555
C25 C26 1_555 1_555
C31 C32 1_555 1_555

#END
