
#######################################################################
#
#                 Cambridge Crystallographic Data Centre
#                                CCDC 
#
#######################################################################
#
# If this CIF has been generated from an entry in the Cambridge 
# Structural Database, then it will include bibliographic, chemical, 
# crystal, experimental, refinement or atomic coordinate data resulting 
# from the CCDC's data processing and validation procedures.
#
#######################################################################

data_INEKIV
_chemical_formula_moiety         'C21 H28 N4'
_chemical_name_systematic        bis(4-Phenylpiperazin-1-yl)methane
_symmetry_cell_setting           monoclinic
_symmetry_space_group_name_H-M   'P 21/c'
_symmetry_Int_Tables_number      14
_space_group_name_Hall           '-P 2ybc'
loop_
_symmetry_equiv_pos_site_id
_symmetry_equiv_pos_as_xyz
1 x,y,z
2 x,1/2-y,1/2+z
3 -x,-y,-z
4 -x,1/2+y,1/2-z
_cell_length_a                   19.049(5)
_cell_length_b                   9.758(8)
_cell_length_c                   41.950(10)
_cell_angle_alpha                90
_cell_angle_beta                 99.49(2)
_cell_angle_gamma                90
_cell_volume                     7690.96
_exptl_crystal_colour            colorless
_exptl_crystal_description       parallelepiped
_chemical_melting_point          '397-399 K'
_cell_formula_units_Z            16
_exptl_crystal_recrystallization_method 'hot alcohol'
loop_
_atom_site_label
_atom_site_type_symbol
_atom_site_fract_x
_atom_site_fract_y
_atom_site_fract_z
C1 C 0.58408(17) 0.3842(4) 0.21003(8)
H1 H 0.5802 0.2852 0.2085
H2 H 0.5777 0.4206 0.1882
N1 N 0.39829(13) 0.4193(3) 0.25242(6)
N2 N 0.52812(13) 0.4362(3) 0.22621(6)
N3 N 0.65434(14) 0.4197(3) 0.22654(6)
N4 N 0.79639(13) 0.5307(3) 0.23390(6)
C2 C 0.33779(18) 0.4481(3) 0.26642(8)
C3 C 0.33671(19) 0.4242(4) 0.29907(8)
H3 H 0.3780 0.3956 0.3124
C4 C 0.2753(2) 0.4423(4) 0.31189(9)
H4 H 0.2759 0.4248 0.3337
C5 C 0.2134(2) 0.4854(4) 0.29337(11)
H5 H 0.1722 0.4967 0.3022
C6 C 0.21410(19) 0.5113(4) 0.26134(10)
H6 H 0.1725 0.5405 0.2483
C7 C 0.27494(18) 0.4951(3) 0.24811(8)
H7 H 0.2740 0.5161 0.2264
C8 C 0.40042(16) 0.4762(4) 0.22053(7)
H8 H 0.4059 0.5748 0.2223
H9 H 0.3556 0.4573 0.2065
C9 C 0.45992(16) 0.4180(4) 0.20573(8)
H10 H 0.4515 0.3209 0.2017
H11 H 0.4608 0.4622 0.1851
C10 C 0.52573(17) 0.3677(4) 0.25678(8)
H12 H 0.5712 0.3788 0.2708
H13 H 0.5178 0.2705 0.2530
C11 C 0.46781(16) 0.4246(4) 0.27317(8)
H14 H 0.4659 0.3727 0.2927
H15 H 0.4789 0.5189 0.2793
C12 C 0.86453(17) 0.5647(4) 0.24957(8)
C13 C 0.87891(18) 0.6879(4) 0.26588(8)
H16 H 0.8418 0.7489 0.2667
C14 C 0.9464(2) 0.7226(5) 0.28088(9)
H17 H 0.9539 0.8062 0.2915
C15 C 1.0024(2) 0.6359(6) 0.28033(11)
H18 H 1.0479 0.6595 0.2905
C16 C 0.9901(2) 0.5150(6) 0.26468(11)
H19 H 1.0280 0.4554 0.2640
C17 C 0.92251(19) 0.4776(4) 0.24954(8)
H20 H 0.9158 0.3931 0.2392
C18 C 0.78205(17) 0.3853(4) 0.22794(8)
H21 H 0.7888 0.3370 0.2484
H22 H 0.8160 0.3490 0.2153
C19 C 0.70800(17) 0.3584(4) 0.21043(8)
H23 H 0.7034 0.3947 0.1887
H24 H 0.7001 0.2602 0.2088
C20 C 0.66619(15) 0.5665(3) 0.22680(8)
H25 H 0.6296 0.6120 0.2365
H26 H 0.6630 0.5994 0.2048
C21 C 0.73808(15) 0.6009(3) 0.24556(8)
H27 H 0.7455 0.6990 0.2445
H28 H 0.7389 0.5770 0.2681
C22 C 0.07067(14) 0.7503(4) 0.17766(7)
H29 H 0.0814 0.7059 0.1986
H30 H 0.0653 0.8476 0.1813
N5 N -0.14382(11) 0.6967(2) 0.13357(5)
N6 N 0.00459(11) 0.6968(3) 0.16048(6)
N7 N 0.12954(11) 0.7292(3) 0.16021(5)
N8 N 0.26937(11) 0.6341(3) 0.15350(6)
C23 C -0.21255(14) 0.6604(3) 0.11888(7)
C24 C -0.26561(14) 0.6339(3) 0.13722(7)
H31 H -0.2547 0.6381 0.1596
C25 C -0.33371(14) 0.6016(3) 0.12299(8)
H32 H -0.3680 0.5847 0.1359
C26 C -0.35219(15) 0.5937(3) 0.08993(8)
H33 H -0.3982 0.5703 0.0804
C27 C -0.30105(15) 0.6211(3) 0.07141(7)
H34 H -0.3128 0.6179 0.0490
C28 C -0.23243(14) 0.6534(3) 0.08542(7)
H35 H -0.1987 0.6710 0.0723
C29 C -0.08886(13) 0.7105(3) 0.11337(6)
H36 H -0.1068 0.7667 0.0947
H37 H -0.0776 0.6208 0.1056
C30 C -0.02224(14) 0.7745(3) 0.13152(7)
H38 H 0.0138 0.7779 0.1177
H39 H -0.0323 0.8677 0.1374
C31 C -0.04973(15) 0.6955(4) 0.18076(7)
H40 H -0.0600 0.7889 0.1865
H41 H -0.0322 0.6463 0.2006
C32 C -0.11685(15) 0.6291(4) 0.16414(7)
H42 H -0.1076 0.5334 0.1602
H43 H -0.1526 0.6332 0.1781
C33 C 0.33297(14) 0.6052(3) 0.14223(7)
C34 C 0.38960(16) 0.6979(4) 0.14569(8)
H44 H 0.3850 0.7830 0.1551
C35 C 0.45253(18) 0.6637(5) 0.13510(10)
H45 H 0.4896 0.7270 0.1376
C36 C 0.46184(18) 0.5404(5) 0.12113(8)
H46 H 0.5041 0.5195 0.1138
C37 C 0.40709(17) 0.4487(4) 0.11825(7)
H47 H 0.4127 0.3631 0.1093
C38 C 0.34391(16) 0.4800(4) 0.12831(7)
H48 H 0.3075 0.4154 0.1257
C39 C 0.20497(14) 0.5666(3) 0.13728(8)
H49 H 0.2143 0.4695 0.1353
H50 H 0.1921 0.6040 0.1157
C40 C 0.14389(15) 0.5851(4) 0.15545(8)
H51 H 0.1017 0.5420 0.1435
H52 H 0.1550 0.5402 0.1763
C41 C 0.19342(14) 0.7906(3) 0.17793(7)
H53 H 0.2046 0.7474 0.1990
H54 H 0.1848 0.8871 0.1813
C42 C 0.25571(14) 0.7763(3) 0.16071(7)
H55 H 0.2467 0.8280 0.1407
H56 H 0.2976 0.8146 0.1740
C43 C -0.05611(14) 1.2722(4) 0.08137(8)
H57 H -0.0476 1.3685 0.0863
H58 H -0.0700 1.2636 0.0582
N9 N -0.25779(11) 1.1465(3) 0.09902(6)
N10 N -0.11361(11) 1.2239(3) 0.09717(6)
N11 N 0.00896(11) 1.1958(3) 0.09156(6)
N12 N 0.15685(11) 1.1847(3) 0.11794(6)
C44 C -0.32299(14) 1.1040(3) 0.10728(6)
C45 C -0.35090(14) 0.9765(3) 0.09799(7)
H59 H -0.3249 0.9168 0.0871
C46 C -0.41632(15) 0.9361(4) 0.10447(8)
H60 H -0.4341 0.8501 0.0979
C47 C -0.45553(17) 1.0224(4) 0.12067(8)
H61 H -0.4996 0.9949 0.1252
C48 C -0.42926(16) 1.1479(4) 0.13001(7)
H62 H -0.4557 1.2068 0.1408
C49 C -0.36334(15) 1.1895(3) 0.12364(7)
H63 H -0.3459 1.2756 0.1304
C50 C -0.23045(15) 1.2789(3) 0.11032(9)
H64 H -0.2132 1.2745 0.1334
H65 H -0.2685 1.3460 0.1066
C51 C -0.17095(15) 1.3233(3) 0.09319(9)
H66 H -0.1891 1.3349 0.0704
H67 H -0.1527 1.4111 0.1017
C52 C -0.14149(15) 1.0941(3) 0.08473(8)
H68 H -0.1036 1.0266 0.0875
H69 H -0.1593 1.1026 0.0618
C53 C -0.20047(14) 1.0462(3) 0.10171(8)
H70 H -0.2191 0.9600 0.0924
H71 H -0.1818 1.0304 0.1244
C54 C 0.22804(14) 1.1508(3) 0.13000(7)
C55 C 0.27477(14) 1.1056(3) 0.11025(7)
H72 H 0.2582 1.0913 0.0884
C56 C 0.34514(15) 1.0815(4) 0.12231(8)
H73 H 0.3756 1.0522 0.1085
C57 C 0.37091(15) 1.1000(4) 0.15434(9)
H74 H 0.4186 1.0836 0.1624
C58 C 0.32569(15) 1.1428(4) 0.17436(8)
H75 H 0.3428 1.1549 0.1963
C59 C 0.25478(14) 1.1686(3) 0.16257(7)
H76 H 0.2248 1.1981 0.1766
C60 C 0.10275(13) 1.1377(4) 0.13622(7)
H77 H 0.1190 1.1528 0.1591
H78 H 0.0950 1.0402 0.1328
C61 C 0.03437(14) 1.2133(4) 0.12580(7)
H79 H -0.0013 1.1797 0.1379
H80 H 0.0416 1.3100 0.1306
C62 C 0.06341(14) 1.2419(4) 0.07380(7)
H81 H 0.0711 1.3394 0.0774
H82 H 0.0471 1.2279 0.0509
C63 C 0.13233(14) 1.1680(4) 0.08360(7)
H83 H 0.1259 1.0713 0.0785
H84 H 0.1677 1.2040 0.0716
N13 N 0.19704(16) 1.2529(3) 0.00832(6)
N14 N 0.34792(15) 1.2924(3) 0.01898(6)
N15 N 0.47028(14) 1.2282(3) 0.02027(6)
N16 N 0.59853(14) 1.2342(3) -0.00633(6)
C64 C 0.41971(19) 1.2976(4) 0.03654(9)
H85 H 0.4339 1.3927 0.0398
H86 H 0.4207 1.2564 0.0576
C65 C 0.1269(2) 1.2489(5) -0.00826(9)
C66 C 0.0957(3) 1.1250(6) -0.01692(12)
H87 H 0.1214 1.0447 -0.0118
C67 C 0.0263(4) 1.1176(9) -0.03317(18)
H88 H 0.0058 1.0331 -0.0393
C68 C -0.0111(4) 1.2334(12) -0.03994(19)
H89 H -0.0579 1.2281 -0.0506
C69 C 0.0177(3) 1.3581(9) -0.03169(16)
H90 H -0.0090 1.4375 -0.0365
C70 C 0.0874(3) 1.3651(6) -0.01604(11)
H91 H 0.1078 1.4503 -0.0107
C71 C 0.22881(18) 1.3886(4) 0.01275(8)
H92 H 0.1984 1.4474 0.0232
H93 H 0.2321 1.4276 -0.0082
C72 C 0.30139(19) 1.3843(4) 0.03281(9)
H94 H 0.3217 1.4757 0.0343
H95 H 0.2977 1.3541 0.0545
C73 C 0.31806(19) 1.1576(4) 0.01859(9)
H96 H 0.3150 1.1299 0.0405
H97 H 0.3491 1.0935 0.0100
C74 C 0.24588(18) 1.1521(4) -0.00140(9)
H98 H 0.2501 1.1675 -0.0239
H99 H 0.2262 1.0612 0.0002
C75 C 0.66054(18) 1.2249(3) -0.01976(8)
C76 C 0.65992(19) 1.2154(4) -0.05227(8)
H100 H 0.6167 1.2085 -0.0662
C77 C 0.7217(2) 1.2159(4) -0.06471(10)
H101 H 0.7198 1.2097 -0.0870
C78 C 0.7859(2) 1.2252(5) -0.04535(13)
H102 H 0.8277 1.2257 -0.0541
C79 C 0.7879(2) 1.2339(4) -0.01313(11)
H103 H 0.8315 1.2403 0.0005
C80 C 0.72651(19) 1.2333(4) -0.00049(9)
H104 H 0.7291 1.2389 0.0218
C81 C 0.59527(18) 1.1665(5) 0.02417(8)
H105 H 0.6412 1.1724 0.0381
H106 H 0.5838 1.0704 0.0204
C82 C 0.54025(18) 1.2325(4) 0.04016(8)
H107 H 0.5384 1.1865 0.0605
H108 H 0.5535 1.3273 0.0449
C83 C 0.47367(18) 1.2892(4) -0.01086(8)
H109 H 0.4832 1.3864 -0.0080
H110 H 0.4278 1.2791 -0.0246
C84 C 0.52983(17) 1.2259(5) -0.02724(8)
H111 H 0.5181 1.1308 -0.0322
H112 H 0.5319 1.2736 -0.0474
loop_
_geom_bond_atom_site_label_1
_geom_bond_atom_site_label_2
_geom_bond_site_symmetry_1
_geom_bond_site_symmetry_2
C1 H1 1_555 1_555
H2 C1 1_555 1_555
N1 C2 1_555 1_555
N2 C1 1_555 1_555
N3 C1 1_555 1_555
N4 C12 1_555 1_555
C2 C3 1_555 1_555
C3 H3 1_555 1_555
C4 C3 1_555 1_555
H4 C4 1_555 1_555
C5 C4 1_555 1_555
H5 C5 1_555 1_555
C6 C5 1_555 1_555
H6 C6 1_555 1_555
C7 C2 1_555 1_555
H7 C7 1_555 1_555
C8 N1 1_555 1_555
H8 C8 1_555 1_555
H9 C8 1_555 1_555
C9 N2 1_555 1_555
H10 C9 1_555 1_555
H11 C9 1_555 1_555
C10 N2 1_555 1_555
H12 C10 1_555 1_555
H13 C10 1_555 1_555
C11 N1 1_555 1_555
H14 C11 1_555 1_555
H15 C11 1_555 1_555
C12 C13 1_555 1_555
C13 H16 1_555 1_555
C14 C13 1_555 1_555
H17 C14 1_555 1_555
C15 C14 1_555 1_555
H18 C15 1_555 1_555
C16 C15 1_555 1_555
H19 C16 1_555 1_555
C17 C12 1_555 1_555
H20 C17 1_555 1_555
C18 N4 1_555 1_555
H21 C18 1_555 1_555
H22 C18 1_555 1_555
C19 N3 1_555 1_555
H23 C19 1_555 1_555
H24 C19 1_555 1_555
C20 N3 1_555 1_555
H25 C20 1_555 1_555
H26 C20 1_555 1_555
C21 N4 1_555 1_555
H27 C21 1_555 1_555
H28 C21 1_555 1_555
C22 H29 1_555 1_555
H30 C22 1_555 1_555
N5 C23 1_555 1_555
N6 C22 1_555 1_555
N7 C22 1_555 1_555
N8 C33 1_555 1_555
C23 C24 1_555 1_555
C24 H31 1_555 1_555
C25 C24 1_555 1_555
H32 C25 1_555 1_555
C26 C25 1_555 1_555
H33 C26 1_555 1_555
C27 C26 1_555 1_555
H34 C27 1_555 1_555
C28 C23 1_555 1_555
H35 C28 1_555 1_555
C29 N5 1_555 1_555
H36 C29 1_555 1_555
H37 C29 1_555 1_555
C30 N6 1_555 1_555
H38 C30 1_555 1_555
H39 C30 1_555 1_555
C31 N6 1_555 1_555
H40 C31 1_555 1_555
H41 C31 1_555 1_555
C32 N5 1_555 1_555
H42 C32 1_555 1_555
H43 C32 1_555 1_555
C33 C34 1_555 1_555
C34 H44 1_555 1_555
C35 C34 1_555 1_555
H45 C35 1_555 1_555
C36 C35 1_555 1_555
H46 C36 1_555 1_555
C37 C36 1_555 1_555
H47 C37 1_555 1_555
C38 C33 1_555 1_555
H48 C38 1_555 1_555
C39 N8 1_555 1_555
H49 C39 1_555 1_555
H50 C39 1_555 1_555
C40 N7 1_555 1_555
H51 C40 1_555 1_555
H52 C40 1_555 1_555
C41 N7 1_555 1_555
H53 C41 1_555 1_555
H54 C41 1_555 1_555
C42 N8 1_555 1_555
H55 C42 1_555 1_555
H56 C42 1_555 1_555
C43 H57 1_555 1_555
H58 C43 1_555 1_555
N9 C44 1_555 1_555
N10 C43 1_555 1_555
N11 C43 1_555 1_555
N12 C54 1_555 1_555
C44 C45 1_555 1_555
C45 H59 1_555 1_555
C46 C45 1_555 1_555
H60 C46 1_555 1_555
C47 C46 1_555 1_555
H61 C47 1_555 1_555
C48 C47 1_555 1_555
H62 C48 1_555 1_555
C49 C44 1_555 1_555
H63 C49 1_555 1_555
C50 N9 1_555 1_555
H64 C50 1_555 1_555
H65 C50 1_555 1_555
C51 N10 1_555 1_555
H66 C51 1_555 1_555
H67 C51 1_555 1_555
C52 N10 1_555 1_555
H68 C52 1_555 1_555
H69 C52 1_555 1_555
C53 N9 1_555 1_555
H70 C53 1_555 1_555
H71 C53 1_555 1_555
C54 C55 1_555 1_555
C55 H72 1_555 1_555
C56 C55 1_555 1_555
H73 C56 1_555 1_555
C57 C56 1_555 1_555
H74 C57 1_555 1_555
C58 C57 1_555 1_555
H75 C58 1_555 1_555
C59 C54 1_555 1_555
H76 C59 1_555 1_555
C60 N12 1_555 1_555
H77 C60 1_555 1_555
H78 C60 1_555 1_555
C61 N11 1_555 1_555
H79 C61 1_555 1_555
H80 C61 1_555 1_555
C62 N11 1_555 1_555
H81 C62 1_555 1_555
H82 C62 1_555 1_555
C63 N12 1_555 1_555
H83 C63 1_555 1_555
H84 C63 1_555 1_555
N13 C65 1_555 1_555
N14 C64 1_555 1_555
N15 C64 1_555 1_555
N16 C75 1_555 1_555
C64 H85 1_555 1_555
H86 C64 1_555 1_555
C65 C66 1_555 1_555
C66 H87 1_555 1_555
C67 C66 1_555 1_555
H88 C67 1_555 1_555
C68 C67 1_555 1_555
H89 C68 1_555 1_555
C69 C68 1_555 1_555
H90 C69 1_555 1_555
C70 C65 1_555 1_555
H91 C70 1_555 1_555
C71 N13 1_555 1_555
H92 C71 1_555 1_555
H93 C71 1_555 1_555
C72 N14 1_555 1_555
H94 C72 1_555 1_555
H95 C72 1_555 1_555
C73 N14 1_555 1_555
H96 C73 1_555 1_555
H97 C73 1_555 1_555
C74 N13 1_555 1_555
H98 C74 1_555 1_555
H99 C74 1_555 1_555
C75 C76 1_555 1_555
C76 H100 1_555 1_555
C77 C76 1_555 1_555
H101 C77 1_555 1_555
C78 C77 1_555 1_555
H102 C78 1_555 1_555
C79 C78 1_555 1_555
H103 C79 1_555 1_555
C80 C75 1_555 1_555
H104 C80 1_555 1_555
C81 N16 1_555 1_555
H105 C81 1_555 1_555
H106 C81 1_555 1_555
C82 N15 1_555 1_555
H107 C82 1_555 1_555
H108 C82 1_555 1_555
C83 N15 1_555 1_555
H109 C83 1_555 1_555
H110 C83 1_555 1_555
C84 N16 1_555 1_555
H111 C84 1_555 1_555
H112 C84 1_555 1_555
C6 C7 1_555 1_555
C8 C9 1_555 1_555
C10 C11 1_555 1_555
C16 C17 1_555 1_555
C18 C19 1_555 1_555
C20 C21 1_555 1_555
C27 C28 1_555 1_555
C29 C30 1_555 1_555
C31 C32 1_555 1_555
C37 C38 1_555 1_555
C39 C40 1_555 1_555
C41 C42 1_555 1_555
C48 C49 1_555 1_555
C50 C51 1_555 1_555
C52 C53 1_555 1_555
C58 C59 1_555 1_555
C60 C61 1_555 1_555
C62 C63 1_555 1_555
C69 C70 1_555 1_555
C71 C72 1_555 1_555
C73 C74 1_555 1_555
C79 C80 1_555 1_555
C81 C82 1_555 1_555
C83 C84 1_555 1_555

#END
