
#######################################################################
#
#                 Cambridge Crystallographic Data Centre
#                                CCDC 
#
#######################################################################
#
# If this CIF has been generated from an entry in the Cambridge 
# Structural Database, then it will include bibliographic, chemical, 
# crystal, experimental, refinement or atomic coordinate data resulting 
# from the CCDC's data processing and validation procedures.
#
#######################################################################

data_INELAQ
_chemical_formula_moiety         'C25 H25 Br1 N2 O7'
_chemical_name_systematic        
'(R,E)-t-butyl 3-(4-bromobenzylidene)-4-((S)-1-(4-methoxyphenyl)-2-nitroethyl)-2,5-dioxopyrrolidine-1-carboxylate'
_symmetry_cell_setting           monoclinic
_symmetry_space_group_name_H-M   'P 21'
_symmetry_Int_Tables_number      4
_space_group_name_Hall           'P 2yb'
loop_
_symmetry_equiv_pos_site_id
_symmetry_equiv_pos_as_xyz
1 x,y,z
2 -x,1/2+y,-z
_cell_length_a                   11.689(2)
_cell_length_b                   17.969(4)
_cell_length_c                   12.350(3)
_cell_angle_alpha                90
_cell_angle_beta                 90.44(3)
_cell_angle_gamma                90
_cell_volume                     2593.91
_exptl_crystal_colour            colorless
_exptl_crystal_description       block
_chemical_melting_point          '401-403 K'
_cell_formula_units_Z            4
loop_
_atom_site_label
_atom_site_type_symbol
_atom_site_fract_x
_atom_site_fract_y
_atom_site_fract_z
Br1 Br 0.36152(6) 0.53578(5) 0.37203(6)
O1 O 0.6035(4) 0.3818(3) 1.0281(4)
O2 O 0.3004(3) 0.2236(2) 1.0064(3)
O3 O 0.5621(4) 0.2461(3) 1.1768(4)
O4 O 0.3863(3) 0.2929(2) 1.2098(3)
O5 O 0.3325(5) 0.1690(4) 0.5908(4)
O6 O 0.3393(5) 0.0710(3) 0.6900(5)
O7 O 0.8694(3) 0.1826(3) 0.7216(4)
N1 N 0.4541(3) 0.2991(3) 1.0411(3)
N2 N 0.3339(4) 0.1381(3) 0.6786(4)
C1 C 0.4045(5) 0.4975(3) 0.5102(5)
C2 C 0.5177(5) 0.5068(3) 0.5436(5)
H1 H 0.5726 0.5302 0.4986
C3 C 0.5464(4) 0.4805(3) 0.6457(5)
H2 H 0.6223 0.4878 0.6716
C4 C 0.4686(4) 0.4440(3) 0.7119(4)
C5 C 0.3565(4) 0.4364(3) 0.6737(5)
H3 H 0.3014 0.4123 0.7177
C6 C 0.3238(4) 0.4633(3) 0.5731(5)
H4 H 0.2471 0.4582 0.5481
C7 C 0.5067(4) 0.4187(3) 0.8174(4)
H5 H 0.5715 0.4443 0.8456
C8 C 0.4656(4) 0.3652(3) 0.8817(4)
C9 C 0.5195(5) 0.3528(3) 0.9877(5)
C10 C 0.3665(4) 0.2700(3) 0.9768(4)
C11 C 0.3733(4) 0.3083(3) 0.8666(4)
H6 H 0.2992 0.3342 0.8512
C12 C 0.3997(4) 0.2528(3) 0.7719(4)
H7 H 0.3792 0.2789 0.7029
C13 C 0.3233(4) 0.1838(3) 0.7784(4)
H8 H 0.3457 0.1537 0.8422
H9 H 0.2426 0.1993 0.7874
C14 C 0.5258(4) 0.2326(3) 0.7648(4)
C15 C 0.5786(4) 0.1812(3) 0.8317(4)
H10 H 0.5346 0.1572 0.8859
C16 C 0.6936(4) 0.1633(3) 0.8223(4)
H11 H 0.7278 0.1283 0.8702
C17 C 0.7584(4) 0.1974(3) 0.7417(5)
C18 C 0.7072(4) 0.2504(3) 0.6746(4)
H12 H 0.7510 0.2748 0.6207
C19 C 0.5934(4) 0.2674(3) 0.6865(4)
H13 H 0.5596 0.3037 0.6403
C20 C 0.9192(5) 0.1181(4) 0.7696(6)
H14 H 0.9232 0.1246 0.8483
H15 H 0.9964 0.1109 0.7412
H16 H 0.8721 0.0745 0.7523
C21 C 0.4746(4) 0.2757(3) 1.1498(4)
C22 C 0.3759(5) 0.2644(4) 1.3232(4)
C23 C 0.4730(6) 0.2948(5) 1.3923(5)
H17 H 0.5444 0.2696 1.3734
H18 H 0.4564 0.2862 1.4690
H19 H 0.4810 0.3484 1.3794
C24 C 0.3715(8) 0.1803(4) 1.3177(6)
H20 H 0.3148 0.1650 1.2632
H21 H 0.3500 0.1604 1.3885
H22 H 0.4469 0.1611 1.2977
C25 C 0.2615(6) 0.2971(5) 1.3591(5)
H23 H 0.2636 0.3514 1.3522
H24 H 0.2476 0.2836 1.4347
H25 H 0.1998 0.2771 1.3133
Br2 Br 0.86814(7) 0.15765(4) 1.43258(5)
O8 O 0.8016(3) 0.4444(2) 0.7797(3)
O9 O 1.1030(3) 0.2838(3) 0.7602(3)
O10 O 1.0696(4) 0.4227(4) 0.6194(4)
O11 O 0.8910(3) 0.3842(2) 0.5728(3)
O12 O 0.8483(3) 0.5953(2) 1.0909(4)
O13 O 0.8709(4) 0.5003(3) 1.1950(3)
O14 O 1.3640(3) 0.5263(2) 0.9828(4)
N3 N 0.9528(3) 0.3662(2) 0.7429(3)
N4 N 0.8501(3) 0.5283(2) 1.1069(3)
C26 C 0.9088(5) 0.1835(3) 1.2898(5)
C27 C 1.0180(4) 0.1672(3) 1.2508(5)
H26 H 1.0723 0.1421 1.2951
C28 C 1.0449(4) 0.1881(3) 1.1478(4)
H27 H 1.1184 0.1760 1.1206
C29 C 0.9678(4) 0.2270(3) 1.0805(4)
C30 C 0.8586(4) 0.2417(3) 1.1213(4)
H28 H 0.8042 0.2670 1.0773
C31 C 0.8287(5) 0.2199(3) 1.2254(5)
H29 H 0.7542 0.2298 1.2521
C32 C 1.0061(4) 0.2477(3) 0.9716(4)
H30 H 1.0686 0.2196 0.9446
C33 C 0.9656(4) 0.3007(3) 0.9043(4)
C34 C 1.0189(4) 0.3119(3) 0.7970(4)
C35 C 0.8663(4) 0.3960(3) 0.8070(4)
C36 C 0.8738(4) 0.3595(3) 0.9183(4)
H31 H 0.7992 0.3357 0.9371
C37 C 0.9098(4) 0.4163(3) 1.0075(4)
H32 H 0.9077 0.3890 1.0780
C38 C 0.8204(4) 0.4788(3) 1.0151(4)
H33 H 0.8189 0.5078 0.9469
H34 H 0.7435 0.4572 1.0261
C39 C 1.0304(4) 0.4455(3) 0.9957(4)
C40 C 1.0595(4) 0.4982(3) 0.9186(4)
H35 H 1.0023 0.5161 0.8702
C41 C 1.1704(5) 0.5255(3) 0.9103(5)
H36 H 1.1883 0.5607 0.8557
C42 C 1.2546(4) 0.5015(3) 0.9812(5)
C43 C 1.2267(4) 0.4482(3) 1.0596(5)
H37 H 1.2840 0.4309 1.1084
C44 C 1.1172(4) 0.4208(3) 1.0664(4)
H38 H 1.0999 0.3846 1.1198
C45 C 1.3920(5) 0.5830(4) 0.9102(5)
H39 H 1.3477 0.6278 0.9274
H40 H 1.3740 0.5670 0.8362
H41 H 1.4739 0.5942 0.9162
C46 C 0.9794(4) 0.3948(3) 0.6374(4)
C47 C 0.8886(4) 0.4193(3) 0.4628(4)
C48 C 0.9839(5) 0.3892(4) 0.3961(5)
H42 H 1.0570 0.4083 0.4237
H43 H 0.9734 0.4047 0.3207
H44 H 0.9838 0.3347 0.4002
C49 C 0.7752(5) 0.3930(4) 0.4192(5)
H45 H 0.7743 0.3385 0.4171
H46 H 0.7636 0.4125 0.3458
H47 H 0.7137 0.4108 0.4661
C50 C 0.8917(6) 0.5025(4) 0.4761(5)
H48 H 0.8327 0.5178 0.5276
H49 H 0.8772 0.5263 0.4059
H50 H 0.9671 0.5176 0.5035
loop_
_geom_bond_atom_site_label_1
_geom_bond_atom_site_label_2
_geom_bond_site_symmetry_1
_geom_bond_site_symmetry_2
Br1 C1 1_555 1_555
O1 C9 1_555 1_555
O2 C10 1_555 1_555
O3 C21 1_555 1_555
O4 C21 1_555 1_555
O5 N2 1_555 1_555
O6 N2 1_555 1_555
O7 C17 1_555 1_555
N1 C9 1_555 1_555
N2 C13 1_555 1_555
C1 C2 1_555 1_555
C2 H1 1_555 1_555
C3 C2 1_555 1_555
H2 C3 1_555 1_555
C4 C3 1_555 1_555
C5 C4 1_555 1_555
H3 C5 1_555 1_555
C6 C1 1_555 1_555
H4 C6 1_555 1_555
C7 C4 1_555 1_555
H5 C7 1_555 1_555
C8 C7 1_555 1_555
C9 C8 1_555 1_555
C10 N1 1_555 1_555
C11 C8 1_555 1_555
H6 C11 1_555 1_555
C12 C11 1_555 1_555
H7 C12 1_555 1_555
C13 C12 1_555 1_555
H8 C13 1_555 1_555
H9 C13 1_555 1_555
C14 C12 1_555 1_555
C15 C14 1_555 1_555
H10 C15 1_555 1_555
C16 C15 1_555 1_555
H11 C16 1_555 1_555
C17 C16 1_555 1_555
C18 C17 1_555 1_555
H12 C18 1_555 1_555
C19 C14 1_555 1_555
H13 C19 1_555 1_555
C20 O7 1_555 1_555
H14 C20 1_555 1_555
H15 C20 1_555 1_555
H16 C20 1_555 1_555
C21 N1 1_555 1_555
C22 O4 1_555 1_555
C23 C22 1_555 1_555
H17 C23 1_555 1_555
H18 C23 1_555 1_555
H19 C23 1_555 1_555
C24 C22 1_555 1_555
H20 C24 1_555 1_555
H21 C24 1_555 1_555
H22 C24 1_555 1_555
C25 C22 1_555 1_555
H23 C25 1_555 1_555
H24 C25 1_555 1_555
H25 C25 1_555 1_555
Br2 C26 1_555 1_555
O8 C35 1_555 1_555
O9 C34 1_555 1_555
O10 C46 1_555 1_555
O11 C46 1_555 1_555
O12 N4 1_555 1_555
O13 N4 1_555 1_555
O14 C42 1_555 1_555
N3 C34 1_555 1_555
N4 C38 1_555 1_555
C26 C27 1_555 1_555
C27 H26 1_555 1_555
C28 C27 1_555 1_555
H27 C28 1_555 1_555
C29 C28 1_555 1_555
C30 C29 1_555 1_555
H28 C30 1_555 1_555
C31 C26 1_555 1_555
H29 C31 1_555 1_555
C32 C29 1_555 1_555
H30 C32 1_555 1_555
C33 C32 1_555 1_555
C34 C33 1_555 1_555
C35 N3 1_555 1_555
C36 C33 1_555 1_555
H31 C36 1_555 1_555
C37 C36 1_555 1_555
H32 C37 1_555 1_555
C38 C37 1_555 1_555
H33 C38 1_555 1_555
H34 C38 1_555 1_555
C39 C37 1_555 1_555
C40 C39 1_555 1_555
H35 C40 1_555 1_555
C41 C40 1_555 1_555
H36 C41 1_555 1_555
C42 C41 1_555 1_555
C43 C42 1_555 1_555
H37 C43 1_555 1_555
C44 C39 1_555 1_555
H38 C44 1_555 1_555
C45 O14 1_555 1_555
H39 C45 1_555 1_555
H40 C45 1_555 1_555
H41 C45 1_555 1_555
C46 N3 1_555 1_555
C47 O11 1_555 1_555
C48 C47 1_555 1_555
H42 C48 1_555 1_555
H43 C48 1_555 1_555
H44 C48 1_555 1_555
C49 C47 1_555 1_555
H45 C49 1_555 1_555
H46 C49 1_555 1_555
H47 C49 1_555 1_555
C50 C47 1_555 1_555
H48 C50 1_555 1_555
H49 C50 1_555 1_555
H50 C50 1_555 1_555
C5 C6 1_555 1_555
C10 C11 1_555 1_555
C18 C19 1_555 1_555
C30 C31 1_555 1_555
C35 C36 1_555 1_555
C43 C44 1_555 1_555

#END
