
#######################################################################
#
#                 Cambridge Crystallographic Data Centre
#                                CCDC 
#
#######################################################################
#
# If this CIF has been generated from an entry in the Cambridge 
# Structural Database, then it will include bibliographic, chemical, 
# crystal, experimental, refinement or atomic coordinate data resulting 
# from the CCDC's data processing and validation procedures.
#
#######################################################################

data_INELOE
_chemical_name_common            'perfluororubrene chloroform solvate'
_chemical_formula_moiety         'C42 F28,C1 H1 Cl3'
_chemical_name_systematic        
'5,6,11,12-tetrakis(perfluorophenyl)1,2,3,4,7,8,9,10-octafluorotetracene chloroform solvate'
_symmetry_cell_setting           orthorhombic
_symmetry_space_group_name_H-M   'P 21 21 21'
_symmetry_Int_Tables_number      19
_space_group_name_Hall           'P 2ac 2ab'
loop_
_symmetry_equiv_pos_site_id
_symmetry_equiv_pos_as_xyz
1 x,y,z
2 1/2-x,-y,1/2+z
3 -x,1/2+y,1/2-z
4 1/2+x,1/2-y,-z
_cell_length_a                   8.4500(4)
_cell_length_b                   11.0004(5)
_cell_length_c                   42.680(2)
_cell_angle_alpha                90
_cell_angle_beta                 90
_cell_angle_gamma                90
_cell_volume                     3967.25
_exptl_crystal_colour            red
_exptl_crystal_description       plate
_cell_formula_units_Z            4
loop_
_atom_site_label
_atom_site_type_symbol
_atom_site_fract_x
_atom_site_fract_y
_atom_site_fract_z
C1 C 0.3038(3) -0.1290(2) 0.39397(6)
F1 F 0.2690(2) -0.11631(13) 0.42436(3)
C2 C 0.2612(3) -0.2347(2) 0.38033(6)
F2 F 0.1843(2) -0.32073(13) 0.39676(4)
C3 C 0.2976(3) -0.2579(2) 0.34888(6)
F3 F 0.25635(17) -0.36526(13) 0.33668(3)
C4 C 0.3765(2) -0.1748(2) 0.33183(5)
F4 F 0.40644(15) -0.20336(12) 0.30200(3)
C5 C 0.5221(2) 0.02234(19) 0.32840(5)
C6 C 0.6836(2) 0.21472(19) 0.32991(4)
C7 C 0.8216(2) 0.4160(2) 0.33045(5)
F5 F 0.94241(14) 0.37590(12) 0.31292(3)
C8 C 0.8201(3) 0.5352(2) 0.33770(5)
F6 F 0.93256(16) 0.61075(13) 0.32751(3)
C9 C 0.6975(3) 0.5826(2) 0.35642(5)
F7 F 0.69780(19) 0.70297(12) 0.36240(4)
C10 C 0.5866(3) 0.5093(2) 0.36858(5)
F8 F 0.47533(16) 0.56257(11) 0.38634(3)
C11 C 0.4821(2) 0.2994(2) 0.37809(4)
C12 C 0.4058(2) 0.0829(2) 0.38870(5)
C13 C 0.3814(3) -0.0334(2) 0.37675(5)
C14 C 0.4269(2) -0.06035(19) 0.34469(5)
C15 C 0.4833(2) 0.17380(19) 0.37011(4)
C16 C 0.5644(2) 0.13616(19) 0.34227(4)
C17 C 0.5847(2) 0.3808(2) 0.36299(4)
C18 C 0.6998(2) 0.33392(19) 0.34085(4)
C19 C 0.5613(2) -0.00158(18) 0.29476(5)
C20 C 0.4777(2) 0.05855(18) 0.27145(5)
F9 F 0.36948(14) 0.14186(11) 0.27946(3)
C21 C 0.5027(2) 0.0357(2) 0.23991(5)
F10 F 0.41773(15) 0.09442(14) 0.21814(3)
C22 C 0.6161(2) -0.0476(2) 0.23107(5)
F11 F 0.64151(18) -0.07049(14) 0.20078(3)
C23 C 0.7032(2) -0.10708(19) 0.25363(5)
F12 F 0.81850(15) -0.18353(12) 0.24523(3)
C24 C 0.6727(2) -0.08569(18) 0.28500(5)
F13 F 0.75531(15) -0.14834(12) 0.30628(3)
C25 C 0.7993(2) 0.16725(18) 0.30661(5)
C26 C 0.7977(2) 0.20416(19) 0.27541(4)
F14 F 0.68917(14) 0.28510(11) 0.26600(3)
C27 C 0.9032(2) 0.1603(2) 0.25372(5)
F15 F 0.89718(15) 0.19625(13) 0.22395(3)
C28 C 1.0160(2) 0.07657(19) 0.26303(5)
F16 F 1.11733(15) 0.03071(14) 0.24214(3)
C29 C 1.0245(2) 0.0407(2) 0.29391(5)
F17 F 1.13365(16) -0.03986(14) 0.30283(4)
C30 C 0.9171(2) 0.0862(2) 0.31532(5)
F18 F 0.92730(16) 0.04983(13) 0.34519(3)
C31 C 0.3614(3) 0.34760(19) 0.40061(5)
C32 C 0.2036(3) 0.3534(2) 0.39205(5)
F19 F 0.15587(16) 0.30766(15) 0.36447(3)
C33 C 0.0913(3) 0.4081(2) 0.41111(5)
F20 F -0.05980(17) 0.41301(18) 0.40214(4)
C34 C 0.1370(3) 0.4592(2) 0.43903(6)
F21 F 0.0306(2) 0.51763(16) 0.45667(4)
C35 C 0.2932(3) 0.4534(2) 0.44836(5)
F22 F 0.3380(2) 0.50438(15) 0.47537(3)
C36 C 0.4024(3) 0.3977(2) 0.42929(5)
F23 F 0.55404(15) 0.39718(14) 0.43820(3)
C37 C 0.3719(3) 0.1091(2) 0.42243(5)
C38 C 0.2202(3) 0.1159(2) 0.43506(5)
F24 F 0.09536(15) 0.10554(14) 0.41586(3)
C39 C 0.1937(3) 0.1300(2) 0.46655(6)
F25 F 0.04726(19) 0.13264(17) 0.47789(4)
C40 C 0.3227(3) 0.1386(2) 0.48673(5)
F26 F 0.2980(2) 0.15190(17) 0.51743(3)
C41 C 0.4739(3) 0.1330(2) 0.47505(5)
F27 F 0.59888(19) 0.13961(17) 0.49421(3)
C42 C 0.4966(3) 0.1188(2) 0.44316(5)
F28 F 0.64592(16) 0.11192(15) 0.43270(3)
loop_
_geom_bond_atom_site_label_1
_geom_bond_atom_site_label_2
_geom_bond_site_symmetry_1
_geom_bond_site_symmetry_2
C1 F1 1_555 1_555
C2 C1 1_555 1_555
F2 C2 1_555 1_555
C3 C2 1_555 1_555
F3 C3 1_555 1_555
C4 C3 1_555 1_555
F4 C4 1_555 1_555
C5 C14 1_555 1_555
C6 C16 1_555 1_555
C7 F5 1_555 1_555
C8 C7 1_555 1_555
F6 C8 1_555 1_555
C9 C8 1_555 1_555
F7 C9 1_555 1_555
C10 C9 1_555 1_555
F8 C10 1_555 1_555
C11 C15 1_555 1_555
C12 C13 1_555 1_555
C13 C1 1_555 1_555
C14 C4 1_555 1_555
C15 C12 1_555 1_555
C16 C5 1_555 1_555
C17 C10 1_555 1_555
C18 C6 1_555 1_555
C19 C5 1_555 1_555
C20 C19 1_555 1_555
F9 C20 1_555 1_555
C21 C20 1_555 1_555
F10 C21 1_555 1_555
C22 C21 1_555 1_555
F11 C22 1_555 1_555
C23 C22 1_555 1_555
F12 C23 1_555 1_555
C24 C19 1_555 1_555
F13 C24 1_555 1_555
C25 C6 1_555 1_555
C26 C25 1_555 1_555
F14 C26 1_555 1_555
C27 C26 1_555 1_555
F15 C27 1_555 1_555
C28 C27 1_555 1_555
F16 C28 1_555 1_555
C29 C28 1_555 1_555
F17 C29 1_555 1_555
C30 C25 1_555 1_555
F18 C30 1_555 1_555
C31 C11 1_555 1_555
C32 C31 1_555 1_555
F19 C32 1_555 1_555
C33 C32 1_555 1_555
F20 C33 1_555 1_555
C34 C33 1_555 1_555
F21 C34 1_555 1_555
C35 C34 1_555 1_555
F22 C35 1_555 1_555
C36 C31 1_555 1_555
F23 C36 1_555 1_555
C37 C12 1_555 1_555
C38 C37 1_555 1_555
F24 C38 1_555 1_555
C39 C38 1_555 1_555
F25 C39 1_555 1_555
C40 C39 1_555 1_555
F26 C40 1_555 1_555
C41 C40 1_555 1_555
F27 C41 1_555 1_555
C42 C37 1_555 1_555
F28 C42 1_555 1_555
C7 C18 1_555 1_555
C11 C17 1_555 1_555
C13 C14 1_555 1_555
C15 C16 1_555 1_555
C17 C18 1_555 1_555
C23 C24 1_555 1_555
C29 C30 1_555 1_555
C35 C36 1_555 1_555
C41 C42 1_555 1_555

#END
