
#######################################################################
#
#                 Cambridge Crystallographic Data Centre
#                                CCDC 
#
#######################################################################
#
# If this CIF has been generated from an entry in the Cambridge 
# Structural Database, then it will include bibliographic, chemical, 
# crystal, experimental, refinement or atomic coordinate data resulting 
# from the CCDC's data processing and validation procedures.
#
#######################################################################

data_INETEB
_chemical_formula_moiety         'C30 H20 O6,2.17(C3 H7 N1 O1)'
_chemical_name_systematic        
'trans-anti-3-Hydroxy-2-(1-hydroxy-1-(4-hydroxyphenyl)-3-oxo-1,3-dihydro-2H-inden-2-ylidene)-3-(4-hydroxyphenyl)indan-1-one dimethylformamide solvate'
_symmetry_cell_setting           rhombohedral
_symmetry_space_group_name_H-M   'R -3'
_symmetry_Int_Tables_number      148
_space_group_name_Hall           '-R 3'
loop_
_symmetry_equiv_pos_site_id
_symmetry_equiv_pos_as_xyz
1 x,y,z
2 -y,x-y,z
3 -x+y,-x,z
4 2/3+x,1/3+y,1/3+z
5 2/3-y,1/3+x-y,1/3+z
6 2/3-x+y,1/3-x,1/3+z
7 1/3+x,2/3+y,2/3+z
8 1/3-y,2/3+x-y,2/3+z
9 1/3-x+y,2/3-x,2/3+z
10 -x,-y,-z
11 y,-x+y,-z
12 x-y,x,-z
13 1/3-x,2/3-y,2/3-z
14 1/3+y,2/3-x+y,2/3-z
15 1/3+x-y,2/3+x,2/3-z
16 2/3-x,1/3-y,1/3-z
17 2/3+y,1/3-x+y,1/3-z
18 2/3+x-y,1/3+x,1/3-z
_cell_length_a                   30.9564(17)
_cell_length_b                   30.9564(17)
_cell_length_c                   9.4845(6)
_cell_angle_alpha                90
_cell_angle_beta                 90
_cell_angle_gamma                120
_cell_volume                     7871.29
_exptl_crystal_colour            red
_exptl_crystal_description       block
_cell_formula_units_Z            9
loop_
_atom_site_label
_atom_site_type_symbol
_atom_site_fract_x
_atom_site_fract_y
_atom_site_fract_z
O1 O 0.67560(9) -0.18432(7) -0.93557(18)
O2 O 0.65316(6) -0.08878(6) -0.60262(18)
H1 H 0.6450 -0.1049 -0.5292
O3 O 0.87045(9) -0.00018(10) -0.3422(3)
H2 H 0.8718 0.0225 -0.2940
C1 C 0.67559(8) -0.14688(8) -0.7099(2)
C2 C 0.68079(9) -0.14871(9) -0.8666(2)
C3 C 0.69515(9) -0.09906(9) -0.9210(2)
C4 C 0.70306(11) -0.08197(11) -1.0610(3)
H3 H 0.6985 -0.1034 -1.1356
C5 C 0.71781(11) -0.03249(12) -1.0845(3)
H4 H 0.7239 -0.0201 -1.1761
C6 C 0.72362(13) -0.00123(12) -0.9734(3)
H5 H 0.7331 0.0319 -0.9917
C7 C 0.71564(12) -0.01802(10) -0.8352(3)
H6 H 0.7197 0.0034 -0.7612
C8 C 0.70157(9) -0.06717(9) -0.8100(2)
C9 C 0.69248(8) -0.09272(8) -0.6678(2)
C10 C 0.74001(9) -0.06849(8) -0.5796(2)
C11 C 0.75007(10) -0.02845(9) -0.4911(2)
H7 H 0.7273 -0.0172 -0.4852
C12 C 0.79333(11) -0.00522(10) -0.4120(3)
H8 H 0.7993 0.0213 -0.3533
C13 C 0.82778(11) -0.02117(11) -0.4198(3)
C14 C 0.81878(11) -0.06001(11) -0.5104(3)
H9 H 0.8421 -0.0705 -0.5183
C15 C 0.77532(10) -0.08319(9) -0.5890(3)
H10 H 0.7698 -0.1092 -0.6492
O1L O 0.65773(9) -0.14901(7) -0.39776(18)
O2L O 0.68017(6) -0.24455(6) -0.73071(18)
H1L H 0.6883 -0.2284 -0.8041
O3L O 0.46288(9) -0.33315(10) -0.9911(3)
H2L H 0.4615 -0.3558 -1.0393
C1L C 0.65774(8) -0.18645(8) -0.6234(2)
C2L C 0.65254(9) -0.18462(9) -0.4667(2)
C3L C 0.63818(9) -0.23427(9) -0.4123(2)
C4L C 0.63027(11) -0.25136(11) -0.2723(3)
H3L H 0.6348 -0.2299 -0.1977
C5L C 0.61552(11) -0.30084(12) -0.2488(3)
H4L H 0.6094 -0.3132 -0.1572
C6L C 0.60971(13) -0.33210(12) -0.3599(3)
H5L H 0.6002 -0.3652 -0.3416
C7L C 0.61769(12) -0.31531(10) -0.4981(3)
H6L H 0.6136 -0.3367 -0.5721
C8L C 0.63176(9) -0.26616(9) -0.5233(2)
C9L C 0.64085(8) -0.24061(8) -0.6655(2)
C10L C 0.59332(9) -0.26484(8) -0.7537(2)
C11L C 0.58326(10) -0.30488(9) -0.8422(2)
H7L H 0.6060 -0.3161 -0.8481
C12L C 0.54000(11) -0.32811(10) -0.9213(3)
H8L H 0.5340 -0.3546 -0.9800
C13L C 0.50555(11) -0.31216(11) -0.9135(3)
C14L C 0.51455(11) -0.27332(11) -0.8229(3)
H9L H 0.4912 -0.2628 -0.8150
C15L C 0.55801(10) -0.25014(9) -0.7443(3)
H10L H 0.5635 -0.2241 -0.6841
N1 N 0.86043(12) 0.04113(13) 0.0956(3)
O4 O 0.8673(3) 0.0599(2) -0.1342(4)
C16 C 0.8642(3) 0.0303(4) -0.0434(9)
H11 H 0.8645 0.0013 -0.0676
C17 C 0.8602(6) 0.0849(5) 0.1433(19)
H12 H 0.8930 0.1134 0.1324
H13 H 0.8508 0.0811 0.2409
H14 H 0.8368 0.0896 0.0886
C18 C 0.8571(5) 0.0085(5) 0.2086(15)
H15 H 0.8617 0.0252 0.2972
H16 H 0.8826 -0.0003 0.1970
H17 H 0.8249 -0.0211 0.2069
N2? N 0.0000 0.0000 0.296(3)
O5? O -0.0495(15) 0.0287(15) 0.377(5)
C19? C -0.0481(6) -0.0031(10) 0.301(3)
H18? H -0.0740 -0.0259 0.2389
C20? C 0.0411(8) 0.0381(10) 0.376(4)
H19? H 0.0279 0.0555 0.4279
H20? H 0.0506 0.0203 0.4397
H21? H 0.0698 0.0617 0.3231
C21? C 0.0059(12) -0.0353(10) 0.211(5)
H22? H -0.0229 -0.0561 0.1540
H23? H 0.0335 -0.0144 0.1502
H24? H 0.0143 -0.0558 0.2668
C22? C 0.8677(3) 0.0702(3) -0.0133(7)
C23? C 0.8598(4) 0.0512(4) 0.2376(7)
C24? C 0.8484(4) -0.0106(3) 0.0565(11)
H25? H 0.8744 0.1025 0.0060
H26? H 0.8686 0.0854 0.2494
H27? H 0.8833 0.0451 0.2869
H28? H 0.8270 0.0299 0.2748
H29? H 0.8472 -0.0139 -0.0443
H30? H 0.8167 -0.0344 0.0957
H31? H 0.8738 -0.0168 0.0930
O6? O 0.8664(5) 0.0591(8) -0.1373(12)
loop_
_geom_bond_atom_site_label_1
_geom_bond_atom_site_label_2
_geom_bond_site_symmetry_1
_geom_bond_site_symmetry_2
O1 C2 1_555 1_555
O2 H1 1_555 1_555
O3 H2 1_555 1_555
C1 C2 1_555 1_555
C2 C3 1_555 1_555
C3 C4 1_555 1_555
C4 H3 1_555 1_555
C5 C4 1_555 1_555
H4 C5 1_555 1_555
C6 C5 1_555 1_555
H5 C6 1_555 1_555
C7 C6 1_555 1_555
H6 C7 1_555 1_555
C8 C3 1_555 1_555
C9 O2 1_555 1_555
C10 C9 1_555 1_555
C11 C10 1_555 1_555
H7 C11 1_555 1_555
C12 C11 1_555 1_555
H8 C12 1_555 1_555
C13 O3 1_555 1_555
C14 C13 1_555 1_555
H9 C14 1_555 1_555
C15 C10 1_555 1_555
H10 C15 1_555 1_555
N1 C16 1_555 1_555
O4 C16 1_555 1_555
C16 H11 1_555 1_555
C17 N1 1_555 1_555
H12 C17 1_555 1_555
H13 C17 1_555 1_555
H14 C17 1_555 1_555
C18 N1 1_555 1_555
H15 C18 1_555 1_555
H16 C18 1_555 1_555
H17 C18 1_555 1_555
O1L C2L 1_555 1_555
O2L H1L 1_555 1_555
O3L H2L 1_555 1_555
C1L C1 1_555 1_555
C2L C1L 1_555 1_555
C3L C2L 1_555 1_555
C4L C3L 1_555 1_555
H3L C4L 1_555 1_555
C5L C4L 1_555 1_555
H4L C5L 1_555 1_555
C6L C5L 1_555 1_555
H5L C6L 1_555 1_555
C7L C6L 1_555 1_555
H6L C7L 1_555 1_555
C8L C3L 1_555 1_555
C9L O2L 1_555 1_555
C10L C9L 1_555 1_555
C11L C10L 1_555 1_555
H7L C11L 1_555 1_555
C12L C11L 1_555 1_555
H8L C12L 1_555 1_555
C13L O3L 1_555 1_555
C14L C13L 1_555 1_555
H9L C14L 1_555 1_555
C15L C10L 1_555 1_555
H10L C15L 1_555 1_555
C1 C9 1_555 1_555
C7 C8 1_555 1_555
C8 C9 1_555 1_555
C12 C13 1_555 1_555
C14 C15 1_555 1_555
C1L C9L 1_555 1_555
C7L C8L 1_555 1_555
C8L C9L 1_555 1_555
C12L C13L 1_555 1_555
C14L C15L 1_555 1_555

#END
