
#######################################################################
#
#                 Cambridge Crystallographic Data Centre
#                                CCDC 
#
#######################################################################
#
# If this CIF has been generated from an entry in the Cambridge 
# Structural Database, then it will include bibliographic, chemical, 
# crystal, experimental, refinement or atomic coordinate data resulting 
# from the CCDC's data processing and validation procedures.
#
#######################################################################

data_INETOM
_chemical_name_common            2-(1-[(3,5-dimethylphenyl)imino]ethyl)pyrrole
_chemical_formula_moiety         'C14 H16 N2'
_chemical_name_systematic        
N-(3,5-dimethylphenyl)-1-(1H-pyrrol-2-yl)ethanimine
_symmetry_cell_setting           monoclinic
_symmetry_space_group_name_H-M   'P 21/n'
_symmetry_Int_Tables_number      14
_space_group_name_Hall           '-P 2yn'
loop_
_symmetry_equiv_pos_site_id
_symmetry_equiv_pos_as_xyz
1 x,y,z
2 1/2-x,1/2+y,1/2-z
3 -x,-y,-z
4 1/2+x,1/2-y,1/2+z
_cell_length_a                   15.286(4)
_cell_length_b                   9.314(2)
_cell_length_c                   17.523(4)
_cell_angle_alpha                90
_cell_angle_beta                 92.904(4)
_cell_angle_gamma                90
_cell_volume                     2491.61
_cell_formula_units_Z            8
loop_
_atom_site_label
_atom_site_type_symbol
_atom_site_fract_x
_atom_site_fract_y
_atom_site_fract_z
N1 N 1.05149(10) 0.73521(18) 0.18262(9)
H1 H 1.0461 0.6861 0.2237
N2 N 0.91727(11) 0.52965(19) 0.16468(10)
C1 C 1.00342(13) 0.7153(2) 0.11603(11)
C2 C 1.03292(16) 0.8145(3) 0.06554(13)
H2 H 1.0123 0.8259 0.0150
C3 C 1.09859(15) 0.8950(3) 0.10236(14)
H3 H 1.1297 0.9700 0.0815
C4 C 1.10877(14) 0.8434(2) 0.17465(14)
H4 H 1.1486 0.8770 0.2124
C5 C 0.93449(14) 0.6094(2) 0.10786(12)
C6 C 0.88683(19) 0.5989(3) 0.03063(14)
H5 H 0.8787 0.4997 0.0172
H6 H 0.9206 0.6454 -0.0069
H7 H 0.8308 0.6449 0.0324
C7 C 0.85059(14) 0.4230(2) 0.15601(11)
C8 C 0.87271(15) 0.2843(3) 0.13594(12)
H8 H 0.9302 0.2639 0.1248
C9 C 0.81107(16) 0.1757(3) 0.13211(13)
C10 C 0.72622(17) 0.2092(3) 0.14920(13)
H9 H 0.6841 0.1370 0.1468
C11 C 0.70173(14) 0.3460(3) 0.16966(13)
C12 C 0.76503(14) 0.4528(2) 0.17327(12)
H10 H 0.7499 0.5454 0.1874
C13 C 0.83576(19) 0.0247(3) 0.11056(16)
H11 H 0.8015 -0.0426 0.1379
H12 H 0.8968 0.0093 0.1234
H13 H 0.8246 0.0113 0.0566
C14 C 0.60804(16) 0.3775(3) 0.18808(18)
H14 H 0.5713 0.3735 0.1421
H15 H 0.6047 0.4715 0.2102
H16 H 0.5887 0.3074 0.2237
N3 N -0.05132(10) 0.40992(17) 0.33105(9)
H17 H -0.0516 0.4685 0.2931
N4 N 0.08760(10) 0.60679(18) 0.34580(10)
C15 C 0.01052(13) 0.4072(2) 0.39007(11)
C16 C -0.01294(15) 0.2993(2) 0.43783(13)
H18 H 0.0172 0.2720 0.4830
C17 C -0.09011(16) 0.2372(3) 0.40696(14)
H19 H -0.1208 0.1618 0.4278
C18 C -0.11177(14) 0.3073(2) 0.34103(13)
H20 H -0.1601 0.2879 0.3082
C19 C 0.08396(12) 0.5058(2) 0.39519(11)
C20 C 0.15147(14) 0.4824(2) 0.45918(12)
H21 H 0.1938 0.4137 0.4436
H22 H 0.1235 0.4469 0.5032
H23 H 0.1803 0.5716 0.4716
C21 C 0.15838(13) 0.7060(2) 0.35081(11)
C22 C 0.23617(13) 0.6762(2) 0.31663(11)
H24 H 0.2441 0.5871 0.2941
C23 C 0.30227(13) 0.7784(3) 0.31578(12)
C24 C 0.28827(16) 0.9100(3) 0.35056(13)
H25 H 0.3321 0.9793 0.3503
C25 C 0.21159(17) 0.9416(2) 0.38557(14)
C26 C 0.14714(14) 0.8392(2) 0.38438(12)
H26 H 0.0946 0.8595 0.4066
C27 C 0.38620(16) 0.7466(3) 0.27750(15)
H27 H 0.4204 0.8328 0.2751
H28 H 0.3728 0.7117 0.2267
H29 H 0.4188 0.6751 0.3063
C28 C 0.2003(2) 1.0850(3) 0.42323(18)
H30 H 0.1445 1.1249 0.4070
H31 H 0.2461 1.1487 0.4090
H32 H 0.2030 1.0731 0.4777
loop_
_geom_bond_atom_site_label_1
_geom_bond_atom_site_label_2
_geom_bond_site_symmetry_1
_geom_bond_site_symmetry_2
N1 H1 1_555 1_555
N2 C5 1_555 1_555
C1 N1 1_555 1_555
C2 C1 1_555 1_555
H2 C2 1_555 1_555
C3 C2 1_555 1_555
H3 C3 1_555 1_555
C4 N1 1_555 1_555
H4 C4 1_555 1_555
C5 C1 1_555 1_555
C6 C5 1_555 1_555
H5 C6 1_555 1_555
H6 C6 1_555 1_555
H7 C6 1_555 1_555
C7 N2 1_555 1_555
C8 C7 1_555 1_555
H8 C8 1_555 1_555
C9 C8 1_555 1_555
C10 C9 1_555 1_555
H9 C10 1_555 1_555
C11 C10 1_555 1_555
C12 C7 1_555 1_555
H10 C12 1_555 1_555
C13 C9 1_555 1_555
H11 C13 1_555 1_555
H12 C13 1_555 1_555
H13 C13 1_555 1_555
C14 C11 1_555 1_555
H14 C14 1_555 1_555
H15 C14 1_555 1_555
H16 C14 1_555 1_555
N3 H17 1_555 1_555
N4 C19 1_555 1_555
C15 N3 1_555 1_555
C16 C15 1_555 1_555
H18 C16 1_555 1_555
C17 C16 1_555 1_555
H19 C17 1_555 1_555
C18 N3 1_555 1_555
H20 C18 1_555 1_555
C19 C15 1_555 1_555
C20 C19 1_555 1_555
H21 C20 1_555 1_555
H22 C20 1_555 1_555
H23 C20 1_555 1_555
C21 N4 1_555 1_555
C22 C21 1_555 1_555
H24 C22 1_555 1_555
C23 C22 1_555 1_555
C24 C23 1_555 1_555
H25 C24 1_555 1_555
C25 C24 1_555 1_555
C26 C21 1_555 1_555
H26 C26 1_555 1_555
C27 C23 1_555 1_555
H27 C27 1_555 1_555
H28 C27 1_555 1_555
H29 C27 1_555 1_555
C28 C25 1_555 1_555
H30 C28 1_555 1_555
H31 C28 1_555 1_555
H32 C28 1_555 1_555
C3 C4 1_555 1_555
C11 C12 1_555 1_555
C17 C18 1_555 1_555
C25 C26 1_555 1_555

#END
