
#######################################################################
#
#                 Cambridge Crystallographic Data Centre
#                                CCDC 
#
#######################################################################
#
# If this CIF has been generated from an entry in the Cambridge 
# Structural Database, then it will include bibliographic, chemical, 
# crystal, experimental, refinement or atomic coordinate data resulting 
# from the CCDC's data processing and validation procedures.
#
#######################################################################

data_INEVII
_chemical_name_common            2-(1-[(2-isopropylphenyl)imino]ethyl)pyrrole
_chemical_formula_moiety         'C15 H18 N2'
_chemical_name_systematic        
N-(2-isopropylphenyl)-1-(1H-pyrrol-2-yl)ethanimine
_symmetry_cell_setting           triclinic
_symmetry_space_group_name_H-M   'P -1'
_symmetry_Int_Tables_number      2
_space_group_name_Hall           '-P 1'
loop_
_symmetry_equiv_pos_site_id
_symmetry_equiv_pos_as_xyz
1 x,y,z
2 -x,-y,-z
_cell_length_a                   11.735(11)
_cell_length_b                   12.005(11)
_cell_length_c                   12.042(11)
_cell_angle_alpha                61.653(18)
_cell_angle_beta                 67.31(2)
_cell_angle_gamma                89.685(19)
_cell_volume                     1344.11
_cell_formula_units_Z            4
loop_
_atom_site_label
_atom_site_type_symbol
_atom_site_fract_x
_atom_site_fract_y
_atom_site_fract_z
N1 N 0.0635(8) 1.0951(8) 1.0769(9)
N2 N 0.1331(8) 0.8881(8) 1.0420(9)
C1 C 0.1624(12) 0.7849(12) 1.0235(13)
C2 C 0.1904(11) 0.9279(11) 1.0934(11)
C3 C 0.2570(12) 0.8035(11) 0.8933(14)
C4 C 0.2089(10) 1.1003(11) 1.1532(11)
H1 H 0.2748 1.0810 1.1791
C5 C 0.1533(11) 1.0358(11) 1.1112(11)
C6 C 0.2698(11) 0.7011(13) 0.8729(12)
H2 H 0.3302 0.7131 0.7883
C7 C 0.3375(12) 0.9336(11) 0.7829(12)
H3 H 0.3052 0.9954 0.8121
C8 C 0.0577(11) 1.1922(12) 1.1067(12)
H4 H -0.0003 1.2453 1.0986
C9 C 0.1002(13) 0.5495(12) 1.1132(14)
H5 H 0.0514 0.4672 1.1853
C10 C 0.1449(12) 1.2016(11) 1.1486(13)
H6 H 0.1607 1.2627 1.1705
C11 C 0.0916(12) 0.6615(15) 1.1235(13)
H7 H 0.0312 0.6506 1.2075
C12 C 0.3316(11) 0.9758(11) 0.6418(12)
H8 H 0.3902 0.9401 0.5934
H9 H 0.3535 1.0687 0.5848
H10 H 0.2475 0.9446 0.6601
C13 C 0.1925(13) 0.5767(13) 0.9790(15)
H11 H 0.2021 0.5093 0.9607
C14 C 0.4725(13) 0.9389(12) 0.7627(13)
H12 H 0.4755 0.9150 0.8496
H13 H 0.5217 1.0254 0.6928
H14 H 0.5065 0.8797 0.7329
C15 C 0.2884(10) 0.8673(10) 1.1372(11)
H15 H 0.2485 0.7849 1.2225
H16 H 0.3314 0.9230 1.1520
H17 H 0.3483 0.8548 1.0650
N3 N -0.1184(8) 0.3969(8) 0.4755(9)
N4 N 0.1036(8) 0.3541(9) 0.5072(9)
C16 C 0.3006(13) 0.2575(11) 0.7037(13)
H18 H 0.2889 0.2135 0.7963
C17 C -0.0727(10) 0.2895(12) 0.4852(11)
C18 C 0.2105(14) 0.3360(11) 0.5337(15)
C19 C 0.4382(10) 0.3869(10) 0.4531(14)
H19 H 0.5196 0.4274 0.3813
C20 C 0.1976(10) 0.2677(10) 0.6690(13)
H20 H 0.1167 0.2260 0.7415
C21 C 0.3336(14) 0.3968(11) 0.4217(14)
C22 C 0.0831(9) 0.1425(9) 0.5265(10)
H21 H 0.0578 0.1139 0.4756
H22 H 0.0437 0.0777 0.6244
H23 H 0.1734 0.1563 0.4924
C23 C -0.2401(10) 0.2828(11) 0.4464(11)
H24 H -0.3032 0.2597 0.4279
C24 C -0.2222(11) 0.3864(10) 0.4567(11)
H25 H -0.2755 0.4444 0.4513
C25 C 0.3719(11) 0.3902(10) 0.2068(11)
H26 H 0.4573 0.3784 0.1820
H27 H 0.3575 0.4312 0.1244
H28 H 0.3142 0.3074 0.2733
C26 C 0.0424(12) 0.2684(10) 0.5058(11)
C27 C -0.1476(10) 0.2165(10) 0.4685(10)
H29 H -0.1378 0.1383 0.4715
C28 C 0.4196(12) 0.3159(11) 0.5932(15)
H30 H 0.4899 0.3080 0.6122
C29 C 0.4572(12) 0.5973(11) 0.1791(11)
H31 H 0.4405 0.6516 0.2193
H32 H 0.4611 0.6438 0.0868
H33 H 0.5365 0.5733 0.1736
C30 C 0.3510(11) 0.4749(13) 0.2711(13)
H34 H 0.2719 0.5028 0.2736
loop_
_geom_bond_atom_site_label_1
_geom_bond_atom_site_label_2
_geom_bond_site_symmetry_1
_geom_bond_site_symmetry_2
N1 C5 1_555 1_555
N2 C1 1_555 1_555
C1 C3 1_555 1_555
C2 N2 1_555 1_555
C3 C6 1_555 1_555
C4 H1 1_555 1_555
C5 C2 1_555 1_555
C6 H2 1_555 1_555
C7 C3 1_555 1_555
H3 C7 1_555 1_555
C8 N1 1_555 1_555
H4 C8 1_555 1_555
C9 H5 1_555 1_555
C10 C4 1_555 1_555
H6 C10 1_555 1_555
C11 C1 1_555 1_555
H7 C11 1_555 1_555
C12 C7 1_555 1_555
H8 C12 1_555 1_555
H9 C12 1_555 1_555
H10 C12 1_555 1_555
C13 C6 1_555 1_555
H11 C13 1_555 1_555
C14 C7 1_555 1_555
H12 C14 1_555 1_555
H13 C14 1_555 1_555
H14 C14 1_555 1_555
C15 C2 1_555 1_555
H15 C15 1_555 1_555
H16 C15 1_555 1_555
H17 C15 1_555 1_555
N3 C17 1_555 1_555
N4 C18 1_555 1_555
C16 H18 1_555 1_555
C17 C26 1_555 1_555
C18 C20 1_555 1_555
C19 H19 1_555 1_555
C20 C16 1_555 1_555
H20 C20 1_555 1_555
C21 C18 1_555 1_555
C22 H21 1_555 1_555
H22 C22 1_555 1_555
H23 C22 1_555 1_555
C23 H24 1_555 1_555
C24 N3 1_555 1_555
H25 C24 1_555 1_555
C25 H26 1_555 1_555
H27 C25 1_555 1_555
H28 C25 1_555 1_555
C26 N4 1_555 1_555
C27 C17 1_555 1_555
H29 C27 1_555 1_555
C28 C16 1_555 1_555
H30 C28 1_555 1_555
C29 H31 1_555 1_555
H32 C29 1_555 1_555
H33 C29 1_555 1_555
C30 C21 1_555 1_555
H34 C30 1_555 1_555
C4 C5 1_555 1_555
C8 C10 1_555 1_555
C9 C11 1_555 1_555
C9 C13 1_555 1_555
C19 C21 1_555 1_555
C19 C28 1_555 1_555
C22 C26 1_555 1_555
C23 C24 1_555 1_555
C23 C27 1_555 1_555
C25 C30 1_555 1_555
C29 C30 1_555 1_555

#END
