
#######################################################################
#
#                 Cambridge Crystallographic Data Centre
#                                CCDC 
#
#######################################################################
#
# If this CIF has been generated from an entry in the Cambridge 
# Structural Database, then it will include bibliographic, chemical, 
# crystal, experimental, refinement or atomic coordinate data resulting 
# from the CCDC's data processing and validation procedures.
#
#######################################################################

data_INEVUU
_chemical_name_common            2-(1-[(3-methoxylphenyl)imino]ethyl)pyrrole
_chemical_formula_moiety         'C13 H14 N2 O1'
_chemical_name_systematic        
N-(3-methoxyphenyl)-1-(1H-pyrrol-2-yl)ethanimine
_symmetry_cell_setting           monoclinic
_symmetry_space_group_name_H-M   'P 21/c'
_symmetry_Int_Tables_number      14
_space_group_name_Hall           '-P 2ybc'
loop_
_symmetry_equiv_pos_site_id
_symmetry_equiv_pos_as_xyz
1 x,y,z
2 -x,1/2+y,1/2-z
3 -x,-y,-z
4 x,1/2-y,1/2+z
_cell_length_a                   10.029(3)
_cell_length_b                   6.554(2)
_cell_length_c                   18.932(5)
_cell_angle_alpha                90
_cell_angle_beta                 107.901(14)
_cell_angle_gamma                90
_cell_volume                     1184.16
_cell_formula_units_Z            4
loop_
_atom_site_label
_atom_site_type_symbol
_atom_site_fract_x
_atom_site_fract_y
_atom_site_fract_z
N1 N -0.1795(5) 0.3620(7) 0.4183(3)
N2 N 0.0200(5) 0.6558(7) 0.4114(3)
O1 O 0.4748(4) 0.8737(7) 0.3984(3)
C1 C -0.2826(6) 0.2223(10) 0.4021(4)
H1 H -0.3049 0.1371 0.4361
C2 C -0.3490(7) 0.2260(11) 0.3277(4)
H2 H -0.4239 0.1436 0.3023
C3 C -0.2862(7) 0.3731(11) 0.2965(4)
H3 H -0.3115 0.4087 0.2465
C4 C -0.1787(6) 0.4575(9) 0.3532(3)
C5 C -0.0782(6) 0.6162(9) 0.3521(3)
C6 C -0.0984(9) 0.7232(12) 0.2793(4)
H4 H -0.0265 0.8242 0.2851
H5 H -0.1885 0.7883 0.2640
H6 H -0.0931 0.6257 0.2425
C7 C 0.1170(6) 0.8114(9) 0.4105(3)
C8 C 0.2482(6) 0.7590(8) 0.4030(3)
H7 H 0.2681 0.6241 0.3946
C9 C 0.3463(6) 0.9086(9) 0.4081(3)
C10 C 0.3187(7) 1.1098(9) 0.4215(3)
H8 H 0.3862 1.2101 0.4252
C11 C 0.1902(8) 1.1601(9) 0.4293(4)
H9 H 0.1708 1.2951 0.4376
C12 C 0.0903(7) 1.0112(10) 0.4248(3)
H10 H 0.0050 1.0457 0.4315
C13 C 0.5139(8) 0.6679(13) 0.3910(5)
H11 H 0.6053 0.6649 0.3847
H12 H 0.4473 0.6072 0.3484
H13 H 0.5154 0.5926 0.4347
loop_
_geom_bond_atom_site_label_1
_geom_bond_atom_site_label_2
_geom_bond_site_symmetry_1
_geom_bond_site_symmetry_2
N1 C1 1_555 1_555
N2 C5 1_555 1_555
O1 C9 1_555 1_555
C1 H1 1_555 1_555
C2 C1 1_555 1_555
H2 C2 1_555 1_555
C3 C2 1_555 1_555
H3 C3 1_555 1_555
C4 N1 1_555 1_555
C5 C4 1_555 1_555
C6 C5 1_555 1_555
H4 C6 1_555 1_555
H5 C6 1_555 1_555
H6 C6 1_555 1_555
C7 N2 1_555 1_555
C8 C7 1_555 1_555
H7 C8 1_555 1_555
C9 C8 1_555 1_555
C10 C9 1_555 1_555
H8 C10 1_555 1_555
C11 C10 1_555 1_555
H9 C11 1_555 1_555
C12 C7 1_555 1_555
H10 C12 1_555 1_555
C13 O1 1_555 1_555
H11 C13 1_555 1_555
H12 C13 1_555 1_555
H13 C13 1_555 1_555
C3 C4 1_555 1_555
C11 C12 1_555 1_555

#END
