
#######################################################################
#
#                 Cambridge Crystallographic Data Centre
#                                CCDC 
#
#######################################################################
#
# If this CIF has been generated from an entry in the Cambridge 
# Structural Database, then it will include bibliographic, chemical, 
# crystal, experimental, refinement or atomic coordinate data resulting 
# from the CCDC's data processing and validation procedures.
#
#######################################################################

data_INEVON
_chemical_formula_moiety         'C17 H16 O4'
_chemical_name_systematic        
3-(4-Hydroxy-3-methoxyphenyl)-1-(4-methoxyphenyl)prop-2-en-1-one
_chemical_properties_biological  'tested for antibacterial activity'
_symmetry_cell_setting           orthorhombic
_symmetry_space_group_name_H-M   'F d d 2'
_symmetry_Int_Tables_number      43
_space_group_name_Hall           'F 2 -2d'
loop_
_symmetry_equiv_pos_site_id
_symmetry_equiv_pos_as_xyz
1 x,y,z
2 -x,-y,z
3 1/4+x,1/4-y,1/4+z
4 1/4-x,1/4+y,1/4+z
5 x,1/2+y,1/2+z
6 -x,1/2-y,1/2+z
7 1/4+x,3/4-y,3/4+z
8 1/4-x,3/4+y,3/4+z
9 1/2+x,y,1/2+z
10 1/2-x,-y,1/2+z
11 3/4+x,1/4-y,3/4+z
12 3/4-x,1/4+y,3/4+z
13 1/2+x,1/2+y,z
14 1/2-x,1/2-y,z
15 3/4+x,3/4-y,1/4+z
16 3/4-x,3/4+y,1/4+z
_cell_length_a                   26.085(3)
_cell_length_b                   28.248(3)
_cell_length_c                   7.9615(9)
_cell_angle_alpha                90
_cell_angle_beta                 90
_cell_angle_gamma                90
_cell_volume                     5866.42
_exptl_crystal_colour            colorless
_exptl_crystal_description       prismatic
_cell_formula_units_Z            16
loop_
_atom_site_label
_atom_site_type_symbol
_atom_site_fract_x
_atom_site_fract_y
_atom_site_fract_z
O1 O 0.27432(7) 1.04875(6) 0.8317(3)
O2 O 0.00782(6) 0.88151(7) 0.7302(3)
O3 O 0.08885(6) 0.85765(7) 0.5471(3)
O4 O 0.47778(6) 0.93067(8) 0.7887(4)
C1 C 0.27880(8) 1.00756(8) 0.7872(3)
C2 C 0.23415(8) 0.97811(9) 0.7462(3)
H1 H 0.2385 0.9520 0.6765
C3 C 0.18763(8) 0.98765(8) 0.8059(3)
H2 H 0.1845 1.0149 0.8709
C4 C 0.14124(8) 0.96012(8) 0.7803(3)
C5 C 0.09715(10) 0.97147(10) 0.8690(4)
H3 H 0.0974 0.9972 0.9420
C6 C 0.05275(9) 0.94516(9) 0.8507(4)
H4 H 0.0238 0.9530 0.9127
C7 C 0.05115(8) 0.90755(8) 0.7419(3)
C8 C 0.09493(8) 0.89576(8) 0.6501(3)
C9 C 0.13939(8) 0.92148(8) 0.6697(3)
H5 H 0.1685 0.9132 0.6089
C10 C 0.33056(8) 0.98545(9) 0.7790(3)
C11 C 0.37344(9) 1.01298(10) 0.8159(4)
H6 H 0.3692 1.0450 0.8390
C12 C 0.42158(9) 0.99397(11) 0.8189(4)
H7 H 0.4496 1.0129 0.8450
C13 C 0.42859(9) 0.94623(9) 0.7830(4)
C14 C 0.38726(9) 0.91841(9) 0.7461(3)
H8 H 0.3917 0.8865 0.7220
C15 C 0.33857(9) 0.93823(8) 0.7449(4)
H9 H 0.3106 0.9191 0.7204
C16 C 0.13135(10) 0.84238(11) 0.4513(4)
H10 H 0.1443 0.8684 0.3863
H11 H 0.1209 0.8173 0.3773
H12 H 0.1577 0.8310 0.5252
C17 C 0.48735(11) 0.88268(13) 0.7493(6)
H13 H 0.4694 0.8627 0.8272
H14 H 0.5235 0.8765 0.7568
H15 H 0.4757 0.8762 0.6373
H16 H 0.0102(16) 0.8671(15) 0.640(4)
loop_
_geom_bond_atom_site_label_1
_geom_bond_atom_site_label_2
_geom_bond_site_symmetry_1
_geom_bond_site_symmetry_2
O1 C1 1_555 1_555
O2 C7 1_555 1_555
O3 C8 1_555 1_555
O4 C13 1_555 1_555
C1 C2 1_555 1_555
C2 H1 1_555 1_555
C3 C2 1_555 1_555
H2 C3 1_555 1_555
C4 C3 1_555 1_555
C5 C4 1_555 1_555
H3 C5 1_555 1_555
C6 C5 1_555 1_555
H4 C6 1_555 1_555
C7 C6 1_555 1_555
C8 C7 1_555 1_555
C9 C4 1_555 1_555
H5 C9 1_555 1_555
C10 C1 1_555 1_555
C11 C10 1_555 1_555
H6 C11 1_555 1_555
C12 C11 1_555 1_555
H7 C12 1_555 1_555
C13 C12 1_555 1_555
C14 C13 1_555 1_555
H8 C14 1_555 1_555
C15 C10 1_555 1_555
H9 C15 1_555 1_555
C16 O3 1_555 1_555
H10 C16 1_555 1_555
H11 C16 1_555 1_555
H12 C16 1_555 1_555
C17 O4 1_555 1_555
H13 C17 1_555 1_555
H14 C17 1_555 1_555
H15 C17 1_555 1_555
H16 O2 1_555 1_555
C8 C9 1_555 1_555
C14 C15 1_555 1_555

#END
