
#######################################################################
#
#                 Cambridge Crystallographic Data Centre
#                                CCDC 
#
#######################################################################
#
# If this CIF has been generated from an entry in the Cambridge 
# Structural Database, then it will include bibliographic, chemical, 
# crystal, experimental, refinement or atomic coordinate data resulting 
# from the CCDC's data processing and validation procedures.
#
#######################################################################

data_INEWEF
_chemical_name_common            
2-(1-[(2,3-dimethylphenyl)imino]ethyl)thiophene
_chemical_formula_moiety         'C14 H15 N1 S1'
_chemical_name_systematic        
N-(2,3-dimethylphenyl)-1-(2-thienyl)ethanimine
_symmetry_cell_setting           monoclinic
_symmetry_space_group_name_H-M   'P 21'
_symmetry_Int_Tables_number      4
_space_group_name_Hall           'P 2yb'
loop_
_symmetry_equiv_pos_site_id
_symmetry_equiv_pos_as_xyz
1 x,y,z
2 -x,1/2+y,-z
_cell_length_a                   8.791(2)
_cell_length_b                   7.7112(19)
_cell_length_c                   10.067(3)
_cell_angle_alpha                90
_cell_angle_beta                 112.683(4)
_cell_angle_gamma                90
_cell_volume                     629.649
_cell_formula_units_Z            2
loop_
_atom_site_label
_atom_site_type_symbol
_atom_site_fract_x
_atom_site_fract_y
_atom_site_fract_z
S1 S 0.38353(13) 0.84499(15) 0.50648(11)
N1 N 0.3062(4) 0.5572(4) 0.6598(3)
C1 C 0.3222(5) 0.9528(6) 0.3468(5)
H1 H 0.3775 1.0481 0.3305
C2 C 0.1859(5) 0.8854(6) 0.2478(4)
H2 H 0.1334 0.9303 0.1555
C3 C 0.1308(5) 0.7382(5) 0.2991(4)
H3 H 0.0384 0.6744 0.2434
C4 C 0.2254(4) 0.6987(5) 0.4375(4)
C5 C 0.2061(5) 0.5594(5) 0.5300(4)
C6 C 0.0680(5) 0.4349(6) 0.4618(5)
H4 H 0.0970 0.3555 0.4019
H5 H -0.0296 0.4975 0.4042
H6 H 0.0476 0.3715 0.5354
C7 C 0.3018(5) 0.4259(5) 0.7564(4)
C8 C 0.3480(6) 0.2564(6) 0.7392(5)
H7 H 0.3735 0.2273 0.6605
C9 C 0.3552(5) 0.1324(6) 0.8412(5)
H8 H 0.3847 0.0191 0.8304
C10 C 0.3195(5) 0.1753(6) 0.9564(5)
H9 H 0.3251 0.0902 1.0236
C11 C 0.2748(4) 0.3430(7) 0.9768(4)
C12 C 0.2663(5) 0.4692(5) 0.8754(4)
C13 C 0.2362(6) 0.3855(7) 1.1077(4)
H10 H 0.2471 0.2826 1.1643
H11 H 0.1254 0.4285 1.0769
H12 H 0.3116 0.4722 1.1645
C14 C 0.2193(5) 0.6548(6) 0.8927(5)
H13 H 0.2559 0.7303 0.8352
H14 H 0.2706 0.6883 0.9920
H15 H 0.1017 0.6633 0.8618
loop_
_geom_bond_atom_site_label_1
_geom_bond_atom_site_label_2
_geom_bond_site_symmetry_1
_geom_bond_site_symmetry_2
S1 C1 1_555 1_555
N1 C5 1_555 1_555
C1 H1 1_555 1_555
C2 C1 1_555 1_555
H2 C2 1_555 1_555
C3 C2 1_555 1_555
H3 C3 1_555 1_555
C4 S1 1_555 1_555
C5 C4 1_555 1_555
C6 C5 1_555 1_555
H4 C6 1_555 1_555
H5 C6 1_555 1_555
H6 C6 1_555 1_555
C7 N1 1_555 1_555
C8 C7 1_555 1_555
H7 C8 1_555 1_555
C9 C8 1_555 1_555
H8 C9 1_555 1_555
C10 C9 1_555 1_555
H9 C10 1_555 1_555
C11 C10 1_555 1_555
C12 C7 1_555 1_555
C13 C11 1_555 1_555
H10 C13 1_555 1_555
H11 C13 1_555 1_555
H12 C13 1_555 1_555
C14 C12 1_555 1_555
H13 C14 1_555 1_555
H14 C14 1_555 1_555
H15 C14 1_555 1_555
C3 C4 1_555 1_555
C11 C12 1_555 1_555

#END
