
#######################################################################
#
#                 Cambridge Crystallographic Data Centre
#                                CCDC 
#
#######################################################################
#
# If this CIF has been generated from an entry in the Cambridge 
# Structural Database, then it will include bibliographic, chemical, 
# crystal, experimental, refinement or atomic coordinate data resulting 
# from the CCDC's data processing and validation procedures.
#
#######################################################################

data_INEWIJ
_chemical_name_common            
2-(1-[(4-isopropylphenyl)imino]ethyl)thiophene
_chemical_formula_moiety         'C15 H17 N1 S1'
_chemical_name_systematic        N-(4-isopropylphenyl)-1-(2-thienyl)ethanimine
_symmetry_cell_setting           monoclinic
_symmetry_space_group_name_H-M   'P 21'
_symmetry_Int_Tables_number      4
_space_group_name_Hall           'P 2yb'
loop_
_symmetry_equiv_pos_site_id
_symmetry_equiv_pos_as_xyz
1 x,y,z
2 -x,1/2+y,-z
_cell_length_a                   13.816(4)
_cell_length_b                   8.836(3)
_cell_length_c                   23.388(7)
_cell_angle_alpha                90
_cell_angle_beta                 107.121(6)
_cell_angle_gamma                90
_cell_volume                     2728.64
_cell_formula_units_Z            8
loop_
_atom_site_label
_atom_site_type_symbol
_atom_site_fract_x
_atom_site_fract_y
_atom_site_fract_z
S1 S 0.06916(17) 0.5237(3) 0.12445(11)
N1 N 0.2035(5) 0.2615(7) 0.1370(3)
C1 C 0.0134(6) 0.6706(10) 0.0802(4)
H1 H -0.0286 0.7413 0.0903
C2 C 0.0377(6) 0.6714(10) 0.0290(5)
H2 H 0.0112 0.7410 -0.0014
C3 C 0.1080(6) 0.5558(10) 0.0251(4)
H3 H 0.1346 0.5449 -0.0069
C4 C 0.1313(5) 0.4628(9) 0.0746(3)
C5 C 0.1970(6) 0.3315(9) 0.0889(4)
C6 C 0.2652(6) 0.1256(9) 0.1503(4)
C7 C 0.2311(6) -0.0083(10) 0.1196(3)
H4 H 0.1698 -0.0095 0.0893
C8 C 0.2868(7) -0.1378(9) 0.1335(4)
H5 H 0.2634 -0.2252 0.1117
C9 C 0.3777(6) -0.1433(9) 0.1793(4)
C10 C 0.4074(6) -0.0106(10) 0.2099(4)
H6 H 0.4671 -0.0111 0.2414
C11 C 0.3522(7) 0.1284(10) 0.1964(4)
H7 H 0.3749 0.2163 0.2181
C12 C 0.4444(5) -0.2805(9) 0.1938(3)
H8 H 0.4779 -0.2800 0.2371
C13 C 0.5276(6) -0.2700(9) 0.1621(3)
H9 H 0.4968 -0.2674 0.1196
H10 H 0.5712 -0.3567 0.1724
H11 H 0.5665 -0.1796 0.1746
C14 C 0.3905(6) -0.4296(9) 0.1782(4)
H12 H 0.3360 -0.4349 0.1959
H13 H 0.4372 -0.5107 0.1933
H14 H 0.3637 -0.4382 0.1356
C15 C 0.2537(6) 0.2944(9) 0.0443(3)
H15 H 0.3042 0.2191 0.0609
H16 H 0.2858 0.3842 0.0355
H17 H 0.2070 0.2564 0.0081
S2 S 0.45216(17) 1.2401(3) 0.38244(12)
N2 N 0.5823(5) 0.9843(8) 0.3726(3)
C16 C 0.4367(9) 1.3864(11) 0.4257(6)
H18 H 0.3806 1.4500 0.4164
C17 C 0.5155(9) 1.3986(12) 0.4746(5)
H19 H 0.5186 1.4718 0.5037
C18 C 0.5934(7) 1.2933(10) 0.4793(4)
H20 H 0.6535 1.2896 0.5104
C19 C 0.5685(6) 1.1977(10) 0.4319(4)
C20 C 0.6242(6) 1.0637(9) 0.4190(4)
C21 C 0.7274(6) 1.0331(9) 0.4634(4)
H21 H 0.7570 0.9454 0.4509
H22 H 0.7197 1.0156 0.5023
H23 H 0.7706 1.1190 0.4649
C22 C 0.6268(6) 0.8500(9) 0.3597(4)
C23 C 0.6124(6) 0.7150(10) 0.3854(4)
H24 H 0.5783 0.7132 0.4143
C24 C 0.6491(7) 0.5810(10) 0.3681(4)
H25 H 0.6391 0.4907 0.3860
C25 C 0.6994(6) 0.5777(10) 0.3257(4)
C26 C 0.7152(6) 0.7165(11) 0.2999(4)
H26 H 0.7503 0.7192 0.2715
C27 C 0.6779(6) 0.8486(10) 0.3173(4)
H27 H 0.6877 0.9395 0.2997
C28 C 0.7364(7) 0.4336(10) 0.3064(4)
H28 H 0.7685 0.4603 0.2756
C29 C 0.6516(7) 0.3256(13) 0.2778(4)
H29 H 0.6136 0.3043 0.3053
H30 H 0.6793 0.2333 0.2677
H31 H 0.6078 0.3706 0.2421
C30 C 0.8137(8) 0.3519(13) 0.3539(5)
H32 H 0.8564 0.4236 0.3806
H33 H 0.8542 0.2902 0.3360
H34 H 0.7807 0.2888 0.3759
S3 S -0.05018(18) -0.0772(3) 0.38007(11)
N3 N 0.0714(5) 0.1862(8) 0.3644(3)
C31 C -0.0570(7) -0.2206(10) 0.4270(4)
H35 H -0.1103 -0.2894 0.4190
C32 C 0.0196(7) -0.2249(12) 0.4753(4)
H36 H 0.0260 -0.2959 0.5055
C33 C 0.0937(6) -0.1085(9) 0.4772(4)
H37 H 0.1534 -0.0960 0.5082
C34 C 0.0644(6) -0.0182(9) 0.4270(4)
C35 C 0.1150(6) 0.1103(10) 0.4109(4)
C36 C 0.2190(6) 0.1435(9) 0.4535(4)
H38 H 0.2561 0.2062 0.4338
H39 H 0.2548 0.0502 0.4655
H40 H 0.2119 0.1951 0.4881
C37 C 0.1181(7) 0.3173(11) 0.3520(4)
C38 C 0.1635(7) 0.3162(11) 0.3069(4)
H41 H 0.1671 0.2262 0.2869
C39 C 0.2045(7) 0.4489(11) 0.2907(4)
H42 H 0.2352 0.4448 0.2602
C40 C 0.2007(7) 0.5816(11) 0.3179(4)
C41 C 0.1540(6) 0.5886(11) 0.3615(4)
H43 H 0.1507 0.6801 0.3804
C42 C 0.1103(6) 0.4563(11) 0.3783(4)
H44 H 0.0762 0.4627 0.4071
C43 C 0.2530(8) 0.7214(10) 0.3009(5)
H45 H 0.2739 0.6923 0.2659
C44 C 0.3418(9) 0.7625(17) 0.3456(6)
H46 H 0.3700 0.8519 0.3334
H47 H 0.3901 0.6815 0.3517
H48 H 0.3262 0.7823 0.3823
C45 C 0.1902(8) 0.8444(15) 0.2838(7)
H49 H 0.2096 0.9382 0.3015
H50 H 0.1284 0.8339 0.2544
S4 S 0.56560(18) 0.2110(3) 0.10961(11)
N4 N 0.7099(5) 0.4615(8) 0.1249(3)
C46 C 0.5091(7) 0.0692(11) 0.0644(5)
H51 H 0.4583 0.0099 0.0717
C47 C 0.5429(8) 0.0489(11) 0.0175(5)
H52 H 0.5202 -0.0267 -0.0110
C48 C 0.6201(6) 0.1598(9) 0.0162(4)
H53 H 0.6509 0.1666 -0.0141
C49 C 0.6417(5) 0.2530(8) 0.0652(4)
C50 C 0.7097(6) 0.3833(9) 0.0792(4)
C51 C 0.7757(6) 0.4061(9) 0.0399(4)
H54 H 0.7995 0.5088 0.0433
H55 H 0.7378 0.3857 -0.0009
H56 H 0.8326 0.3386 0.0519
C52 C 0.7700(7) 0.5949(9) 0.1412(4)
C53 C 0.8573(6) 0.5962(10) 0.1872(4)
H57 H 0.8830 0.5055 0.2057
C54 C 0.9084(6) 0.7285(10) 0.2069(3)
H58 H 0.9667 0.7255 0.2393
C55 C 0.8754(6) 0.8669(9) 0.1797(4)
C56 C 0.7877(6) 0.8662(9) 0.1322(4)
H59 H 0.7626 0.9567 0.1133
C57 C 0.7345(6) 0.7267(11) 0.1116(3)
H60 H 0.6769 0.7263 0.0787
C58 C 0.9300(7) 1.0110(9) 0.2031(4)
H61 H 0.9859 0.9859 0.2388
C59 C 0.8621(6) 1.1228(10) 0.2216(4)
H62 H 0.8021 1.1391 0.1889
H63 H 0.8974 1.2170 0.2325
H64 H 0.8438 1.0833 0.2553
C60 C 0.9756(8) 1.0800(11) 0.1575(4)
H65 H 0.9237 1.0922 0.1200
H66 H 1.0276 1.0145 0.1520
H67 H 1.0043 1.1770 0.1715
loop_
_geom_bond_atom_site_label_1
_geom_bond_atom_site_label_2
_geom_bond_site_symmetry_1
_geom_bond_site_symmetry_2
S1 C1 1_555 1_555
N1 C5 1_555 1_555
C1 H1 1_555 1_555
C2 C1 1_555 1_555
H2 C2 1_555 1_555
C3 C2 1_555 1_555
H3 C3 1_555 1_555
C4 S1 1_555 1_555
C5 C4 1_555 1_555
C6 N1 1_555 1_555
C7 C6 1_555 1_555
H4 C7 1_555 1_555
C8 C7 1_555 1_555
H5 C8 1_555 1_555
C9 C8 1_555 1_555
C10 C9 1_555 1_555
H6 C10 1_555 1_555
C11 C6 1_555 1_555
H7 C11 1_555 1_555
C12 C9 1_555 1_555
H8 C12 1_555 1_555
C13 C12 1_555 1_555
H9 C13 1_555 1_555
H10 C13 1_555 1_555
H11 C13 1_555 1_555
C14 C12 1_555 1_555
H12 C14 1_555 1_555
H13 C14 1_555 1_555
H14 C14 1_555 1_555
C15 C5 1_555 1_555
H15 C15 1_555 1_555
H16 C15 1_555 1_555
H17 C15 1_555 1_555
S2 C16 1_555 1_555
N2 C20 1_555 1_555
C16 H18 1_555 1_555
C17 C16 1_555 1_555
H19 C17 1_555 1_555
C18 C17 1_555 1_555
H20 C18 1_555 1_555
C19 S2 1_555 1_555
C20 C19 1_555 1_555
C21 C20 1_555 1_555
H21 C21 1_555 1_555
H22 C21 1_555 1_555
H23 C21 1_555 1_555
C22 N2 1_555 1_555
C23 C22 1_555 1_555
H24 C23 1_555 1_555
C24 C23 1_555 1_555
H25 C24 1_555 1_555
C25 C24 1_555 1_555
C26 C25 1_555 1_555
H26 C26 1_555 1_555
C27 C22 1_555 1_555
H27 C27 1_555 1_555
C28 C25 1_555 1_555
H28 C28 1_555 1_555
C29 C28 1_555 1_555
H29 C29 1_555 1_555
H30 C29 1_555 1_555
H31 C29 1_555 1_555
C30 C28 1_555 1_555
H32 C30 1_555 1_555
H33 C30 1_555 1_555
H34 C30 1_555 1_555
S3 C31 1_555 1_555
N3 C35 1_555 1_555
C31 H35 1_555 1_555
C32 C31 1_555 1_555
H36 C32 1_555 1_555
C33 C32 1_555 1_555
H37 C33 1_555 1_555
C34 S3 1_555 1_555
C35 C34 1_555 1_555
C36 C35 1_555 1_555
H38 C36 1_555 1_555
H39 C36 1_555 1_555
H40 C36 1_555 1_555
C37 N3 1_555 1_555
C38 C37 1_555 1_555
H41 C38 1_555 1_555
C39 C38 1_555 1_555
H42 C39 1_555 1_555
C40 C39 1_555 1_555
C41 C40 1_555 1_555
H43 C41 1_555 1_555
C42 C37 1_555 1_555
H44 C42 1_555 1_555
C43 C40 1_555 1_555
H45 C43 1_555 1_555
C44 C43 1_555 1_555
H46 C44 1_555 1_555
H47 C44 1_555 1_555
H48 C44 1_555 1_555
C45 C43 1_555 1_555
H49 C45 1_555 1_555
H50 C45 1_555 1_555
S4 C46 1_555 1_555
N4 C50 1_555 1_555
C46 H51 1_555 1_555
C47 C46 1_555 1_555
H52 C47 1_555 1_555
C48 C47 1_555 1_555
H53 C48 1_555 1_555
C49 S4 1_555 1_555
C50 C49 1_555 1_555
C51 C50 1_555 1_555
H54 C51 1_555 1_555
H55 C51 1_555 1_555
H56 C51 1_555 1_555
C52 N4 1_555 1_555
C53 C52 1_555 1_555
H57 C53 1_555 1_555
C54 C53 1_555 1_555
H58 C54 1_555 1_555
C55 C54 1_555 1_555
C56 C55 1_555 1_555
H59 C56 1_555 1_555
C57 C52 1_555 1_555
H60 C57 1_555 1_555
C58 C55 1_555 1_555
H61 C58 1_555 1_555
C59 C58 1_555 1_555
H62 C59 1_555 1_555
H63 C59 1_555 1_555
H64 C59 1_555 1_555
C60 C58 1_555 1_555
H65 C60 1_555 1_555
H66 C60 1_555 1_555
H67 C60 1_555 1_555
C3 C4 1_555 1_555
C10 C11 1_555 1_555
C18 C19 1_555 1_555
C26 C27 1_555 1_555
C33 C34 1_555 1_555
C41 C42 1_555 1_555
C48 C49 1_555 1_555
C56 C57 1_555 1_555

#END
