
#######################################################################
#
#                 Cambridge Crystallographic Data Centre
#                                CCDC 
#
#######################################################################
#
# If this CIF has been generated from an entry in the Cambridge 
# Structural Database, then it will include bibliographic, chemical, 
# crystal, experimental, refinement or atomic coordinate data resulting 
# from the CCDC's data processing and validation procedures.
#
#######################################################################

data_INEWAB
_chemical_name_common            2-(1-[(3-methylphenyl)imino]ethyl)thiophene
_chemical_formula_moiety         'C13 H13 N1 S1'
_chemical_name_systematic        N-(3-methylphenyl)-1-(2-thienyl)ethanimine
_symmetry_cell_setting           monoclinic
_symmetry_space_group_name_H-M   'P 21/c'
_symmetry_Int_Tables_number      14
_space_group_name_Hall           '-P 2ybc'
loop_
_symmetry_equiv_pos_site_id
_symmetry_equiv_pos_as_xyz
1 x,y,z
2 -x,1/2+y,1/2-z
3 -x,-y,-z
4 x,1/2-y,1/2+z
_cell_length_a                   26.505(5)
_cell_length_b                   6.9360(14)
_cell_length_c                   13.149(3)
_cell_angle_alpha                90
_cell_angle_beta                 104.337(4)
_cell_angle_gamma                90
_cell_volume                     2342.01
_cell_formula_units_Z            8
loop_
_atom_site_label
_atom_site_type_symbol
_atom_site_fract_x
_atom_site_fract_y
_atom_site_fract_z
S1 S 0.28710(13) 0.5804(4) 0.5052(3)
N1 N 0.3646(3) 0.4374(11) 0.3968(7)
C1 C 0.3974(4) 0.3334(14) 0.3435(8)
C2 C 0.3778(4) 0.2625(18) 0.2414(8)
H1 H 0.3427 0.2768 0.2086
C3 C 0.4093(5) 0.1745(18) 0.1907(10)
H2 H 0.3971 0.1430 0.1201
C4 C 0.4601(4) 0.1302(14) 0.2431(10)
H3 H 0.4812 0.0621 0.2085
C5 C 0.4796(4) 0.1855(15) 0.3451(9)
C6 C 0.4479(4) 0.2810(15) 0.3941(9)
H4 H 0.4605 0.3129 0.4646
C7 C 0.5351(5) 0.141(2) 0.4019(14)
H5 H 0.5519 0.0743 0.3554
H6 H 0.5353 0.0612 0.4617
H7 H 0.5533 0.2590 0.4247
C8 C 0.3597(4) 0.6084(15) 0.3867(8)
C9 C 0.3837(5) 0.7383(15) 0.3163(11)
H8 H 0.4051 0.6620 0.2829
H9 H 0.4045 0.8364 0.3584
H10 H 0.3564 0.7976 0.2638
C10 C 0.3257(3) 0.7219(16) 0.4434(7)
C11 C 0.3219(4) 0.9026(17) 0.4615(10)
H11 H 0.3408 0.9989 0.4383
C12 C 0.2869(3) 0.9341(12) 0.5185(6)
H12 H 0.2791 1.0578 0.5372
C13 C 0.2634(4) 0.7735(19) 0.5475(10)
H13 H 0.2380 0.7746 0.5852
S2 S 0.20854(12) 1.0817(4) 0.7210(2)
N2 N 0.1338(3) 0.9386(12) 0.5334(7)
C14 C 0.1018(3) 0.8377(13) 0.4452(7)
C15 C 0.1211(4) 0.7815(16) 0.3615(8)
H14 H 0.1552 0.8108 0.3601
C16 C 0.0888(4) 0.6800(19) 0.2792(9)
H15 H 0.1010 0.6416 0.2219
C17 C 0.0389(5) 0.6373(17) 0.2832(9)
H16 H 0.0174 0.5704 0.2278
C18 C 0.0199(4) 0.6904(14) 0.3661(8)
C19 C 0.0514(4) 0.7925(15) 0.4483(8)
H17 H 0.0387 0.8305 0.5051
C20 C -0.0349(4) 0.640(2) 0.3670(12)
H18 H -0.0424 0.6893 0.4299
H19 H -0.0390 0.5026 0.3648
H20 H -0.0585 0.6964 0.3069
C21 C 0.1408(3) 1.1191(15) 0.5259(9)
C22 C 0.1172(5) 1.2509(15) 0.4315(9)
H21 H 0.0963 1.1751 0.3756
H22 H 0.1447 1.3120 0.4077
H23 H 0.0959 1.3476 0.4524
C23 C 0.1739(3) 1.2225(15) 0.6178(8)
C24 C 0.1839(4) 1.4094(14) 0.6368(10)
H24 H 0.1691 1.5079 0.5911
C25 C 0.2175(4) 1.4378(13) 0.7281(9)
H25 H 0.2273 1.5614 0.7526
C26 C 0.2375(4) 1.2757(19) 0.7861(9)
H26 H 0.2624 1.2749 0.8497
loop_
_geom_bond_atom_site_label_1
_geom_bond_atom_site_label_2
_geom_bond_site_symmetry_1
_geom_bond_site_symmetry_2
S1 C10 1_555 1_555
N1 C1 1_555 1_555
C1 C2 1_555 1_555
C2 H1 1_555 1_555
C3 C2 1_555 1_555
H2 C3 1_555 1_555
C4 C3 1_555 1_555
H3 C4 1_555 1_555
C5 C4 1_555 1_555
C6 C1 1_555 1_555
H4 C6 1_555 1_555
C7 C5 1_555 1_555
H5 C7 1_555 1_555
H6 C7 1_555 1_555
H7 C7 1_555 1_555
C8 N1 1_555 1_555
C9 C8 1_555 1_555
H8 C9 1_555 1_555
H9 C9 1_555 1_555
H10 C9 1_555 1_555
C10 C8 1_555 1_555
C11 C10 1_555 1_555
H11 C11 1_555 1_555
C12 C11 1_555 1_555
H12 C12 1_555 1_555
C13 S1 1_555 1_555
H13 C13 1_555 1_555
S2 C23 1_555 1_555
N2 C14 1_555 1_555
C14 C15 1_555 1_555
C15 H14 1_555 1_555
C16 C15 1_555 1_555
H15 C16 1_555 1_555
C17 C16 1_555 1_555
H16 C17 1_555 1_555
C18 C17 1_555 1_555
C19 C14 1_555 1_555
H17 C19 1_555 1_555
C20 C18 1_555 1_555
H18 C20 1_555 1_555
H19 C20 1_555 1_555
H20 C20 1_555 1_555
C21 N2 1_555 1_555
C22 C21 1_555 1_555
H21 C22 1_555 1_555
H22 C22 1_555 1_555
H23 C22 1_555 1_555
C23 C21 1_555 1_555
C24 C23 1_555 1_555
H24 C24 1_555 1_555
C25 C24 1_555 1_555
H25 C25 1_555 1_555
C26 S2 1_555 1_555
H26 C26 1_555 1_555
C5 C6 1_555 1_555
C12 C13 1_555 1_555
C18 C19 1_555 1_555
C25 C26 1_555 1_555

#END
