
#######################################################################
#
#                 Cambridge Crystallographic Data Centre
#                                CCDC 
#
#######################################################################
#
# If this CIF has been generated from an entry in the Cambridge 
# Structural Database, then it will include bibliographic, chemical, 
# crystal, experimental, refinement or atomic coordinate data resulting 
# from the CCDC's data processing and validation procedures.
#
#######################################################################

data_INIPOK
_chemical_formula_moiety         'C15 H21 N3 O3 S1,0.5(C1 H2 Cl2)'
_chemical_name_systematic        
'2-((1S)-(+)-10-Camphorsulfonamino)-6-aminopyridine dichloromethane solvate'
_symmetry_cell_setting           monoclinic
_symmetry_space_group_name_H-M   'P 21'
_symmetry_Int_Tables_number      4
_space_group_name_Hall           'P 2yb'
loop_
_symmetry_equiv_pos_site_id
_symmetry_equiv_pos_as_xyz
1 x,y,z
2 -x,1/2+y,-z
_cell_length_a                   8.9729(5)
_cell_length_b                   10.9447(6)
_cell_length_c                   36.6931(19)
_cell_angle_alpha                90
_cell_angle_beta                 96.4350(10)
_cell_angle_gamma                90
_cell_volume                     3580.77
_exptl_crystal_colour            colorless
_exptl_crystal_description       column
_cell_formula_units_Z            8
loop_
_atom_site_label
_atom_site_type_symbol
_atom_site_fract_x
_atom_site_fract_y
_atom_site_fract_z
S1 S -0.28792(12) -0.54452(11) 0.06245(3)
O1 O -0.2884(4) -0.4544(3) 0.03350(9)
O2 O -0.3673(4) -0.6567(3) 0.05189(9)
O3 O -0.0606(6) -0.8444(5) 0.08253(16)
N1 N -0.3708(6) -0.4044(5) 0.21808(12)
H1 H -0.3521 -0.3298 0.2128
H2 H -0.3838 -0.4239 0.2402
N2 N -0.3576(4) -0.4531(4) 0.15715(10)
N3 N -0.3443(4) -0.4752(4) 0.09607(10)
H3 H -0.3651 -0.3986 0.0941
C1 C -0.3795(6) -0.4899(5) 0.19200(13)
C2 C -0.4074(7) -0.6116(6) 0.19796(15)
H4 H -0.4272 -0.6380 0.2210
C3 C -0.4057(8) -0.6930(6) 0.17007(16)
H5 H -0.4215 -0.7753 0.1746
C4 C -0.3810(6) -0.6563(5) 0.13483(14)
H6 H -0.3782 -0.7136 0.1162
C5 C -0.3607(5) -0.5339(5) 0.12809(12)
C6 C -0.0980(5) -0.5822(6) 0.07749(15)
H7 H -0.0447 -0.5065 0.0835
H8 H -0.0970 -0.6284 0.1001
C7 C -0.0089(5) -0.6540(5) 0.05194(14)
C8 C 0.0118(7) -0.7885(6) 0.06215(18)
C9 C 0.1449(8) -0.8341(6) 0.0450(2)
H9 H 0.1173 -0.8994 0.0276
H10 H 0.2233 -0.8626 0.0633
C10 C 0.1938(7) -0.7194(6) 0.02551(19)
H11 H 0.2980 -0.7209 0.0199
C11 C 0.0806(8) -0.6984(8) -0.00704(19)
H12 H 0.0629 -0.7725 -0.0214
H13 H 0.1130 -0.6343 -0.0226
C12 C -0.0607(7) -0.6599(6) 0.01024(15)
H14 H -0.1403 -0.7195 0.0050
H15 H -0.0964 -0.5808 0.0011
C13 C 0.1590(6) -0.6179(6) 0.05236(17)
C14 C 0.2472(7) -0.6293(8) 0.0912(2)
H16 H 0.2331 -0.7096 0.1007
H17 H 0.2110 -0.5695 0.1072
H18 H 0.3520 -0.6158 0.0896
C15 C 0.1843(10) -0.4889(7) 0.0381(3)
H19 H 0.1607 -0.4301 0.0560
H20 H 0.1208 -0.4760 0.0156
H21 H 0.2873 -0.4799 0.0338
S2 S -0.19798(13) -0.14699(11) 0.43705(3)
O4 O -0.1228(4) -0.0345(4) 0.44799(10)
O5 O -0.1929(4) -0.2374(4) 0.46561(10)
O6 O -0.6711(6) -0.2155(5) 0.43703(17)
N4 N -0.0505(6) -0.2632(5) 0.28368(12)
H22 H -0.0802 -0.3367 0.2869
H23 H -0.0233 -0.2418 0.2629
N5 N -0.0915(5) -0.2220(4) 0.34335(11)
N6 N -0.1396(5) -0.2119(4) 0.40278(11)
H24 H -0.1344 -0.2904 0.4026
C16 C -0.0467(6) -0.1812(5) 0.31131(14)
C17 C -0.0039(8) -0.0619(7) 0.30881(17)
H25 H 0.0298 -0.0327 0.2874
C18 C -0.0114(10) 0.0139(6) 0.33824(19)
H26 H 0.0165 0.0953 0.3364
C19 C -0.0587(8) -0.0266(6) 0.37042(18)
H27 H -0.0648 0.0272 0.3898
C20 C -0.0975(5) -0.1493(5) 0.37380(13)
C21 C -0.3905(6) -0.1154(6) 0.42293(14)
H28 H -0.3950 -0.0637 0.4014
H29 H -0.4384 -0.1921 0.4153
C22 C -0.4850(5) -0.0552(5) 0.44981(14)
C23 C -0.6373(7) -0.1187(6) 0.44893(18)
C24 C -0.7381(8) -0.0264(8) 0.4656(2)
H30 H -0.8217 -0.0024 0.4479
H31 H -0.7765 -0.0594 0.4872
C25 C -0.6339(8) 0.0796(6) 0.47525(18)
H32 H -0.6850 0.1572 0.4787
C26 C -0.5297(9) 0.0383(7) 0.50822(19)
H33 H -0.5854 0.0020 0.5267
H34 H -0.4706 0.1060 0.5191
C27 C -0.4280(7) -0.0586(6) 0.49186(15)
H35 H -0.4415 -0.1390 0.5021
H36 H -0.3230 -0.0360 0.4963
C28 C -0.5335(8) 0.0806(6) 0.44363(18)
C29 C -0.3990(10) 0.1690(6) 0.4504(2)
H37 H -0.3474 0.1548 0.4744
H38 H -0.4344 0.2518 0.4487
H39 H -0.3315 0.1553 0.4322
C30 C -0.6158(11) 0.1010(9) 0.4063(2)
H40 H -0.6990 0.0455 0.4025
H41 H -0.5492 0.0870 0.3880
H42 H -0.6521 0.1835 0.4044
S3 S -0.21426(14) -0.11434(13) 0.17404(3)
O7 O -0.1885(4) -0.2017(4) 0.20389(10)
O8 O -0.2997(4) -0.0072(4) 0.18178(11)
O9 O 0.1401(5) -0.1192(5) 0.23229(11)
N7 N -0.5204(5) -0.2627(4) 0.02388(11)
H43 H -0.5101 -0.3384 0.0299
H44 H -0.5648 -0.2428 0.0027
N8 N -0.3977(4) -0.2111(4) 0.08077(10)
N9 N -0.2864(4) -0.1904(4) 0.13948(11)
H45 H -0.2898 -0.2688 0.1406
C31 C -0.4667(5) -0.1748(5) 0.04774(13)
C32 C -0.4825(6) -0.0501(5) 0.04058(14)
H46 H -0.5328 -0.0219 0.0187
C33 C -0.4213(6) 0.0298(6) 0.06705(16)
H47 H -0.4265 0.1131 0.0620
C34 C -0.3528(6) -0.0076(5) 0.10057(16)
H48 H -0.3137 0.0494 0.1179
C35 C -0.3425(5) -0.1321(5) 0.10829(12)
C36 C -0.0372(5) -0.0605(5) 0.16324(15)
H49 H -0.0507 -0.0299 0.1383
H50 H -0.0088 0.0085 0.1791
C37 C 0.0931(5) -0.1490(5) 0.16632(14)
C38 C 0.1836(6) -0.1509(6) 0.20341(16)
C39 C 0.3387(7) -0.1973(8) 0.1990(2)
H51 H 0.3620 -0.2707 0.2134
H52 H 0.4144 -0.1358 0.2059
C40 C 0.3251(7) -0.2237(7) 0.1585(2)
H53 H 0.4213 -0.2292 0.1483
C41 C 0.2245(9) -0.3343(7) 0.1507(2)
H54 H 0.2551 -0.4008 0.1673
H55 H 0.2261 -0.3623 0.1256
C42 C 0.0669(7) -0.2861(6) 0.1570(2)
H56 H -0.0033 -0.2958 0.1351
H57 H 0.0284 -0.3289 0.1771
C43 C 0.2206(6) -0.1167(6) 0.14200(16)
C44 C 0.1742(9) -0.1276(8) 0.10041(18)
H58 H 0.1322 -0.2071 0.0949
H59 H 0.2607 -0.1164 0.0875
H60 H 0.1009 -0.0662 0.0928
C45 C 0.2875(8) 0.0104(7) 0.1502(2)
H61 H 0.3167 0.0183 0.1761
H62 H 0.2140 0.0715 0.1424
H63 H 0.3738 0.0211 0.1372
S4 S -0.23650(14) -0.55628(13) 0.31969(3)
O10 O -0.2531(4) -0.4630(4) 0.29114(10)
O11 O -0.1615(4) -0.6669(4) 0.30968(11)
O12 O -0.4534(6) -0.5688(5) 0.40357(12)
N10 N 0.0179(5) -0.4336(4) 0.47609(12)
H64 H -0.0014 -0.3576 0.4719
H65 H 0.0568 -0.4567 0.4975
N11 N -0.0746(4) -0.4750(4) 0.41571(10)
N12 N -0.1618(4) -0.4892(4) 0.35523(11)
H66 H -0.1543 -0.4108 0.3552
C46 C -0.0129(5) -0.5167(5) 0.44908(13)
C47 C 0.0129(6) -0.6398(5) 0.45427(14)
H67 H 0.0537 -0.6697 0.4769
C48 C -0.0226(7) -0.7171(5) 0.42536(16)
H68 H -0.0051 -0.8003 0.4287
C49 C -0.0839(6) -0.6755(5) 0.39123(15)
H69 H -0.1079 -0.7301 0.3721
C50 C -0.1089(5) -0.5524(5) 0.38608(12)
C51 C -0.4180(6) -0.6032(5) 0.32705(16)
H70 H -0.4648 -0.6372 0.3042
H71 H -0.4074 -0.6696 0.3447
C52 C -0.5285(6) -0.5110(5) 0.34047(15)
C53 C -0.5451(7) -0.5227(5) 0.38132(16)
C54 C -0.6944(8) -0.4707(7) 0.38701(18)
H72 H -0.6845 -0.4030 0.4042
H73 H -0.7593 -0.5323 0.3958
C55 C -0.7536(7) -0.4275(7) 0.34821(19)
H74 H -0.8624 -0.4152 0.3443
C56 C -0.6609(7) -0.3130(7) 0.3413(2)
H75 H -0.6539 -0.2577 0.3621
H76 H -0.7024 -0.2698 0.3194
C57 C -0.5040(7) -0.3718(6) 0.3363(2)
H77 H -0.4746 -0.3529 0.3123
H78 H -0.4271 -0.3424 0.3549
C58 C -0.6952(6) -0.5259(6) 0.32364(16)
C59 C -0.7559(7) -0.6536(7) 0.3298(2)
H79 H -0.7406 -0.6730 0.3554
H80 H -0.7041 -0.7121 0.3163
H81 H -0.8612 -0.6561 0.3214
C60 C -0.7202(9) -0.4961(8) 0.28300(19)
H82 H -0.6821 -0.4159 0.2789
H83 H -0.8256 -0.4987 0.2748
H84 H -0.6687 -0.5549 0.2696
C61 C 0.0393(13) -0.2153(14) 0.7745(3)
H85 H 0.0626 -0.1730 0.7526
H86 H 0.1285 -0.2593 0.7844
Cl1 Cl -0.0925(5) -0.3122(3) 0.76317(10)
Cl2 Cl -0.0065(5) -0.1036(5) 0.80770(12)
C62 C -0.3707(12) 0.0489(14) 0.2738(3)
H87 H -0.3027 0.1032 0.2884
H88 H -0.3173 0.0141 0.2547
Cl3 Cl -0.5190(4) 0.1291(3) 0.25445(8)
Cl4 Cl -0.4270(5) -0.0688(5) 0.30169(16)
loop_
_geom_bond_atom_site_label_1
_geom_bond_atom_site_label_2
_geom_bond_site_symmetry_1
_geom_bond_site_symmetry_2
S1 O1 1_555 1_555
O2 S1 1_555 1_555
O3 C8 1_555 1_555
N1 H1 1_555 1_555
H2 N1 1_555 1_555
N2 C1 1_555 1_555
N3 S1 1_555 1_555
H3 N3 1_555 1_555
C1 N1 1_555 1_555
C2 C1 1_555 1_555
H4 C2 1_555 1_555
C3 C2 1_555 1_555
H5 C3 1_555 1_555
C4 C3 1_555 1_555
H6 C4 1_555 1_555
C5 N2 1_555 1_555
C6 S1 1_555 1_555
H7 C6 1_555 1_555
H8 C6 1_555 1_555
C7 C6 1_555 1_555
C8 C7 1_555 1_555
C9 C8 1_555 1_555
H9 C9 1_555 1_555
H10 C9 1_555 1_555
C10 C9 1_555 1_555
H11 C10 1_555 1_555
C11 C10 1_555 1_555
H12 C11 1_555 1_555
H13 C11 1_555 1_555
C12 C7 1_555 1_555
H14 C12 1_555 1_555
H15 C12 1_555 1_555
C13 C7 1_555 1_555
C14 C13 1_555 1_555
H16 C14 1_555 1_555
H17 C14 1_555 1_555
H18 C14 1_555 1_555
C15 C13 1_555 1_555
H19 C15 1_555 1_555
H20 C15 1_555 1_555
H21 C15 1_555 1_555
S2 O4 1_555 1_555
O5 S2 1_555 1_555
O6 C23 1_555 1_555
N4 H22 1_555 1_555
H23 N4 1_555 1_555
N5 C16 1_555 1_555
N6 S2 1_555 1_555
H24 N6 1_555 1_555
C16 N4 1_555 1_555
C17 C16 1_555 1_555
H25 C17 1_555 1_555
C18 C17 1_555 1_555
H26 C18 1_555 1_555
C19 C18 1_555 1_555
H27 C19 1_555 1_555
C20 N5 1_555 1_555
C21 S2 1_555 1_555
H28 C21 1_555 1_555
H29 C21 1_555 1_555
C22 C21 1_555 1_555
C23 C22 1_555 1_555
C24 C23 1_555 1_555
H30 C24 1_555 1_555
H31 C24 1_555 1_555
C25 C24 1_555 1_555
H32 C25 1_555 1_555
C26 C25 1_555 1_555
H33 C26 1_555 1_555
H34 C26 1_555 1_555
C27 C22 1_555 1_555
H35 C27 1_555 1_555
H36 C27 1_555 1_555
C28 C22 1_555 1_555
C29 C28 1_555 1_555
H37 C29 1_555 1_555
H38 C29 1_555 1_555
H39 C29 1_555 1_555
C30 C28 1_555 1_555
H40 C30 1_555 1_555
H41 C30 1_555 1_555
H42 C30 1_555 1_555
S3 O7 1_555 1_555
O8 S3 1_555 1_555
O9 C38 1_555 1_555
N7 H43 1_555 1_555
H44 N7 1_555 1_555
N8 C31 1_555 1_555
N9 S3 1_555 1_555
H45 N9 1_555 1_555
C31 N7 1_555 1_555
C32 C31 1_555 1_555
H46 C32 1_555 1_555
C33 C32 1_555 1_555
H47 C33 1_555 1_555
C34 C33 1_555 1_555
H48 C34 1_555 1_555
C35 N8 1_555 1_555
C36 S3 1_555 1_555
H49 C36 1_555 1_555
H50 C36 1_555 1_555
C37 C36 1_555 1_555
C38 C37 1_555 1_555
C39 C38 1_555 1_555
H51 C39 1_555 1_555
H52 C39 1_555 1_555
C40 C39 1_555 1_555
H53 C40 1_555 1_555
C41 C40 1_555 1_555
H54 C41 1_555 1_555
H55 C41 1_555 1_555
C42 C37 1_555 1_555
H56 C42 1_555 1_555
H57 C42 1_555 1_555
C43 C37 1_555 1_555
C44 C43 1_555 1_555
H58 C44 1_555 1_555
H59 C44 1_555 1_555
H60 C44 1_555 1_555
C45 C43 1_555 1_555
H61 C45 1_555 1_555
H62 C45 1_555 1_555
H63 C45 1_555 1_555
S4 O10 1_555 1_555
O11 S4 1_555 1_555
O12 C53 1_555 1_555
N10 H64 1_555 1_555
H65 N10 1_555 1_555
N11 C46 1_555 1_555
N12 S4 1_555 1_555
H66 N12 1_555 1_555
C46 N10 1_555 1_555
C47 C46 1_555 1_555
H67 C47 1_555 1_555
C48 C47 1_555 1_555
H68 C48 1_555 1_555
C49 C48 1_555 1_555
H69 C49 1_555 1_555
C50 N11 1_555 1_555
C51 S4 1_555 1_555
H70 C51 1_555 1_555
H71 C51 1_555 1_555
C52 C51 1_555 1_555
C53 C52 1_555 1_555
C54 C53 1_555 1_555
H72 C54 1_555 1_555
H73 C54 1_555 1_555
C55 C54 1_555 1_555
H74 C55 1_555 1_555
C56 C55 1_555 1_555
H75 C56 1_555 1_555
H76 C56 1_555 1_555
C57 C52 1_555 1_555
H77 C57 1_555 1_555
H78 C57 1_555 1_555
C58 C52 1_555 1_555
C59 C58 1_555 1_555
H79 C59 1_555 1_555
H80 C59 1_555 1_555
H81 C59 1_555 1_555
C60 C58 1_555 1_555
H82 C60 1_555 1_555
H83 C60 1_555 1_555
H84 C60 1_555 1_555
C61 H85 1_555 1_555
H86 C61 1_555 1_555
Cl1 C61 1_555 1_555
Cl2 C61 1_555 1_555
C62 H87 1_555 1_555
H88 C62 1_555 1_555
Cl3 C62 1_555 1_555
Cl4 C62 1_555 1_555
N3 C5 1_555 1_555
C4 C5 1_555 1_555
C10 C13 1_555 1_555
C11 C12 1_555 1_555
N6 C20 1_555 1_555
C19 C20 1_555 1_555
C25 C28 1_555 1_555
C26 C27 1_555 1_555
N9 C35 1_555 1_555
C34 C35 1_555 1_555
C40 C43 1_555 1_555
C41 C42 1_555 1_555
N12 C50 1_555 1_555
C49 C50 1_555 1_555
C55 C58 1_555 1_555
C56 C57 1_555 1_555

#END
