
#######################################################################
#
#                 Cambridge Crystallographic Data Centre
#                                CCDC 
#
#######################################################################
#
# If this CIF has been generated from an entry in the Cambridge 
# Structural Database, then it will include bibliographic, chemical, 
# crystal, experimental, refinement or atomic coordinate data resulting 
# from the CCDC's data processing and validation procedures.
#
#######################################################################

data_INISON
_chemical_formula_moiety         'C19 H23 N1 O2'
_chemical_name_systematic        
2-(Hydroxymethyl)-2-methyl-3-phenyl-N-(1'-phenylethyl)propionamide
_symmetry_cell_setting           orthorhombic
_symmetry_space_group_name_H-M   'P 21 21 21'
_symmetry_Int_Tables_number      19
_space_group_name_Hall           'P 2ac 2ab'
loop_
_symmetry_equiv_pos_site_id
_symmetry_equiv_pos_as_xyz
1 x,y,z
2 1/2-x,-y,1/2+z
3 -x,1/2+y,1/2-z
4 1/2+x,1/2-y,-z
_cell_length_a                   11.8492(3)
_cell_length_b                   12.1931(3)
_cell_length_c                   23.8112(4)
_cell_angle_alpha                90
_cell_angle_beta                 90
_cell_angle_gamma                90
_cell_volume                     3440.21
_exptl_crystal_colour            colorless
_exptl_crystal_description       'long rod'
_cell_formula_units_Z            8
loop_
_atom_site_label
_atom_site_type_symbol
_atom_site_fract_x
_atom_site_fract_y
_atom_site_fract_z
O1 O -0.10538(18) 0.16660(18) -0.05954(9)
O2 O 0.20305(17) 0.22302(19) 0.02859(10)
H1 H 0.2624 0.2486 0.0417
N1 N 0.0440(2) 0.0882(2) -0.01886(11)
H3 H 0.1120 0.0965 -0.0057
C1 C -0.0879(3) -0.0012(3) 0.07552(15)
H5 H -0.0231 0.0381 0.0861
C2 C -0.1717(3) -0.0203(3) 0.11492(17)
H6 H -0.1638 0.0058 0.1519
C3 C -0.2673(3) -0.0781(3) 0.09934(19)
H7 H -0.3241 -0.0925 0.1259
C4 C -0.2789(3) -0.1144(3) 0.0452(2)
H8 H -0.3445 -0.1523 0.0346
C5 C -0.1943(3) -0.0956(3) 0.00580(17)
H9 H -0.2028 -0.1215 -0.0311
C6 C -0.0975(3) -0.0387(3) 0.02095(14)
C7 C -0.0043(3) -0.0220(3) -0.02200(15)
H10 H -0.0370 -0.0319 -0.0599
C8 C 0.0892(3) -0.1067(3) -0.01417(17)
H11 H 0.1474 -0.0950 -0.0422
H12 H 0.0581 -0.1798 -0.0184
H13 H 0.1216 -0.0990 0.0230
C9 C -0.0137(2) 0.1765(3) -0.03566(12)
C10 C 0.0354(2) 0.2890(2) -0.02219(13)
C11 C 0.1653(2) 0.2902(3) -0.01663(15)
H14 H 0.1990 0.2640 -0.0517
H15 H 0.1909 0.3656 -0.0105
C12 C 0.0051(3) 0.3673(3) -0.06973(13)
H16 H 0.0418 0.3436 -0.1041
H17 H 0.0301 0.4407 -0.0603
H18 H -0.0761 0.3674 -0.0751
C13 C -0.0208(2) 0.3213(2) 0.03420(13)
H19 H -0.1015 0.3043 0.0318
H20 H 0.0113 0.2755 0.0640
C14 C -0.0082(3) 0.4399(3) 0.05106(13)
C15 C -0.0886(3) 0.5170(3) 0.03553(15)
H21 H -0.1517 0.4944 0.0145
C16 C -0.0782(4) 0.6263(3) 0.05027(17)
H22 H -0.1332 0.6773 0.0390
C17 C 0.0127(4) 0.6598(3) 0.08132(17)
H23 H 0.0202 0.7340 0.0913
C18 C 0.0927(4) 0.5855(3) 0.09790(15)
H24 H 0.1542 0.6086 0.1198
C19 C 0.0832(3) 0.4763(3) 0.08240(13)
H25 H 0.1394 0.4262 0.0933
O3 O 0.03943(18) 0.17985(17) 0.18052(9)
O4 O 0.0081(2) 0.47797(18) 0.27142(10)
H2 H -0.0090 0.5387 0.2847
N2 N 0.1300(2) 0.3303(2) 0.21113(11)
H4 H 0.1238 0.3957 0.2254
C20 C 0.2500(3) 0.2005(3) 0.29419(15)
H26 H 0.1993 0.2540 0.3072
C21 C 0.2914(3) 0.1233(4) 0.33112(17)
H27 H 0.2687 0.1247 0.3689
C22 C 0.3657(4) 0.0440(4) 0.3130(2)
H28 H 0.3950 -0.0079 0.3383
C23 C 0.3962(4) 0.0418(4) 0.2578(2)
H29 H 0.4455 -0.0129 0.2447
C24 C 0.3551(3) 0.1195(3) 0.22108(17)
H30 H 0.3775 0.1173 0.1832
C25 C 0.2817(3) 0.2006(3) 0.23859(14)
C26 C 0.2429(3) 0.2890(3) 0.19790(15)
H31 H 0.2409 0.2569 0.1597
C27 C 0.3252(3) 0.3851(3) 0.19729(18)
H32 H 0.2991 0.4401 0.1709
H33 H 0.3993 0.3594 0.1861
H34 H 0.3296 0.4170 0.2345
C28 C 0.0358(3) 0.2721(3) 0.20231(13)
C29 C -0.0769(3) 0.3213(3) 0.22296(13)
C30 C -0.0736(3) 0.4466(2) 0.23042(14)
H35 H -0.0552 0.4812 0.1944
H36 H -0.1483 0.4727 0.2421
C31 C -0.1681(3) 0.2965(3) 0.17927(15)
H37 H -0.1510 0.3351 0.1447
H38 H -0.2409 0.3205 0.1934
H39 H -0.1704 0.2182 0.1721
C32 C -0.0995(3) 0.2627(3) 0.27917(14)
H40 H -0.1010 0.1835 0.2721
H41 H -0.0356 0.2772 0.3042
C33 C -0.2066(3) 0.2931(3) 0.30983(14)
C34 C -0.3065(3) 0.2358(3) 0.30170(19)
H42 H -0.3092 0.1793 0.2749
C35 C -0.4027(4) 0.2609(4) 0.3327(2)
H43 H -0.4699 0.2215 0.3268
C36 C -0.3990(4) 0.3440(5) 0.3721(2)
H44 H -0.4635 0.3612 0.3933
C37 C -0.3024(4) 0.4002(4) 0.38009(18)
H45 H -0.3001 0.4566 0.4070
C38 C -0.2065(3) 0.3759(3) 0.34915(14)
H46 H -0.1402 0.4167 0.3551
loop_
_geom_bond_atom_site_label_1
_geom_bond_atom_site_label_2
_geom_bond_site_symmetry_1
_geom_bond_site_symmetry_2
O1 C9 1_555 1_555
O2 H1 1_555 1_555
O3 C28 1_555 1_555
O4 H2 1_555 1_555
N1 H3 1_555 1_555
N2 H4 1_555 1_555
C1 H5 1_555 1_555
C2 C1 1_555 1_555
H6 C2 1_555 1_555
C3 C2 1_555 1_555
H7 C3 1_555 1_555
C4 C3 1_555 1_555
H8 C4 1_555 1_555
C5 C4 1_555 1_555
H9 C5 1_555 1_555
C6 C1 1_555 1_555
C7 N1 1_555 1_555
H10 C7 1_555 1_555
C8 C7 1_555 1_555
H11 C8 1_555 1_555
H12 C8 1_555 1_555
H13 C8 1_555 1_555
C9 N1 1_555 1_555
C10 C9 1_555 1_555
C11 O2 1_555 1_555
H14 C11 1_555 1_555
H15 C11 1_555 1_555
C12 C10 1_555 1_555
H16 C12 1_555 1_555
H17 C12 1_555 1_555
H18 C12 1_555 1_555
C13 C10 1_555 1_555
H19 C13 1_555 1_555
H20 C13 1_555 1_555
C14 C13 1_555 1_555
C15 C14 1_555 1_555
H21 C15 1_555 1_555
C16 C15 1_555 1_555
H22 C16 1_555 1_555
C17 C16 1_555 1_555
H23 C17 1_555 1_555
C18 C17 1_555 1_555
H24 C18 1_555 1_555
C19 C14 1_555 1_555
H25 C19 1_555 1_555
C20 H26 1_555 1_555
C21 C20 1_555 1_555
H27 C21 1_555 1_555
C22 C21 1_555 1_555
H28 C22 1_555 1_555
C23 C22 1_555 1_555
H29 C23 1_555 1_555
C24 C23 1_555 1_555
H30 C24 1_555 1_555
C25 C20 1_555 1_555
C26 N2 1_555 1_555
H31 C26 1_555 1_555
C27 C26 1_555 1_555
H32 C27 1_555 1_555
H33 C27 1_555 1_555
H34 C27 1_555 1_555
C28 N2 1_555 1_555
C29 C28 1_555 1_555
C30 O4 1_555 1_555
H35 C30 1_555 1_555
H36 C30 1_555 1_555
C31 C29 1_555 1_555
H37 C31 1_555 1_555
H38 C31 1_555 1_555
H39 C31 1_555 1_555
C32 C29 1_555 1_555
H40 C32 1_555 1_555
H41 C32 1_555 1_555
C33 C32 1_555 1_555
C34 C33 1_555 1_555
H42 C34 1_555 1_555
C35 C34 1_555 1_555
H43 C35 1_555 1_555
C36 C35 1_555 1_555
H44 C36 1_555 1_555
C37 C36 1_555 1_555
H45 C37 1_555 1_555
C38 C33 1_555 1_555
H46 C38 1_555 1_555
C5 C6 1_555 1_555
C6 C7 1_555 1_555
C10 C11 1_555 1_555
C18 C19 1_555 1_555
C24 C25 1_555 1_555
C25 C26 1_555 1_555
C29 C30 1_555 1_555
C37 C38 1_555 1_555

#END
