
#######################################################################
#
#                 Cambridge Crystallographic Data Centre
#                                CCDC 
#
#######################################################################
#
# If this CIF has been generated from an entry in the Cambridge 
# Structural Database, then it will include bibliographic, chemical, 
# crystal, experimental, refinement or atomic coordinate data resulting 
# from the CCDC's data processing and validation procedures.
#
#######################################################################

data_INISIH
_chemical_formula_moiety         'C24 H34 N2 O2 2+,2(Br1 1-)'
_chemical_name_systematic        
'(+)-4-((\aR)-\a-(4-Allyl-(2S,5S)-dimethyl-1-piperazinyl)-(3-methoxyphenyl)methyl)benzyl alcohol dibromide'
_symmetry_cell_setting           monoclinic
_symmetry_space_group_name_H-M   'P 21'
_symmetry_Int_Tables_number      4
_space_group_name_Hall           'P 2yb'
loop_
_symmetry_equiv_pos_site_id
_symmetry_equiv_pos_as_xyz
1 x,y,z
2 -x,1/2+y,-z
_cell_length_a                   7.444(1)
_cell_length_b                   9.046(1)
_cell_length_c                   21.471(1)
_cell_angle_alpha                90
_cell_angle_beta                 98.17(1)
_cell_angle_gamma                90
_cell_volume                     1431.15
_exptl_crystal_colour            colorless
_exptl_crystal_description       plate
_cell_formula_units_Z            2
loop_
_atom_site_label
_atom_site_type_symbol
_atom_site_fract_x
_atom_site_fract_y
_atom_site_fract_z
Br1 Br 0.20150(14) 0.30454(17) 0.52551(6)
Br2 Br -0.56775(16) 0.3970(2) 0.71121(7)
N1 N -0.1507(11) 0.4489(10) 0.6979(4)
H1 H -0.2651 0.4358 0.7073
C1 C -0.1645(14) 0.5461(13) 0.6364(6)
H2 H -0.2350 0.6344 0.6435
C2 C 0.0210(19) 0.5982(15) 0.6231(6)
H3 H 0.0067 0.6559 0.5852
H4 H 0.0961 0.5140 0.6181
H5 H 0.0769 0.6575 0.6576
C3 C -0.2736(14) 0.4591(13) 0.5843(5)
H6 H -0.3937 0.4413 0.5953
H7 H -0.2878 0.5180 0.5461
N2 N -0.1914(10) 0.3167(12) 0.5715(4)
H8 H -0.0753 0.3329 0.5644
C4 C -0.1872(14) 0.2217(14) 0.6286(5)
H9 H -0.3114 0.2049 0.6373
C5 C -0.0930(19) 0.0708(15) 0.6210(6)
H10 H -0.1552 0.0198 0.5851
H11 H -0.0964 0.0121 0.6581
H12 H 0.0309 0.0874 0.6152
C6 C -0.0764(13) 0.3009(15) 0.6852(5)
H13 H -0.0745 0.2397 0.7224
H14 H 0.0478 0.3124 0.6771
C7 C -0.2980(15) 0.2514(17) 0.5127(6)
H15 H -0.2498 0.1540 0.5061
H16 H -0.4229 0.2389 0.5197
C8 C -0.2970(17) 0.3380(18) 0.4549(5)
H17 H -0.1856 0.3718 0.4459
C9 C -0.438(2) 0.370(2) 0.4161(8)
H18 H -0.5517 0.3381 0.4237
H19 H -0.4269 0.4256 0.3804
C10 C -0.0390(8) 0.5192(6) 0.7537(2)
H20 H 0.0864 0.5237 0.7447
C11 C -0.0414(8) 0.4142(6) 0.8106(2)
C12 C 0.1271(8) 0.3570(6) 0.8353(2)
H21 H 0.2259 0.3695 0.8137
C13 C 0.1480(8) 0.2811(6) 0.8921(2)
H22 H 0.2607 0.2428 0.9086
C14 C 0.0003(8) 0.2625(6) 0.9244(2)
C15 C -0.1682(8) 0.3197(6) 0.8997(2)
H23 H -0.2670 0.3072 0.9213
C16 C -0.1890(8) 0.3956(6) 0.8429(2)
H24 H -0.3018 0.4339 0.8264
C17 C 0.021(6) 0.1816(11) 0.9847(5)
H25 H 0.1457 0.1468 0.9904
H26 H -0.0534 0.0941 0.9761
O1 O -0.0124(11) 0.2323(8) 1.0534(3)
H27 H -0.0336 0.1595 1.0739
C18 C -0.0961(19) 0.6752(14) 0.7664(6)
C19 C -0.2775(12) 0.7165(8) 0.7655(4)
H28 H -0.3683 0.6455 0.7577
C20 C -0.3239(12) 0.8623(8) 0.7761(4)
C21 C -0.1887(12) 0.9673(8) 0.7917(4)
H29 H -0.2197 1.0649 0.7988
C22 C -0.0072(12) 0.9266(8) 0.7967(4)
H30 H 0.0833 0.9969 0.8072
C23 C 0.0392(12) 0.7808(8) 0.7861(4)
H31 H 0.1606 0.7527 0.7921
O2 O -0.506(2) 0.8911(15) 0.7676(9)
C24 C -0.569(5) 1.055(4) 0.7621(15)
H32 H -0.5350 1.0975 0.7246
H33 H -0.5129 1.1091 0.7981
H34 H -0.6988 1.0594 0.7603
loop_
_geom_bond_atom_site_label_1
_geom_bond_atom_site_label_2
_geom_bond_site_symmetry_1
_geom_bond_site_symmetry_2
N1 H1 1_555 1_555
C1 N1 1_555 1_555
H2 C1 1_555 1_555
C2 C1 1_555 1_555
H3 C2 1_555 1_555
H4 C2 1_555 1_555
H5 C2 1_555 1_555
C3 C1 1_555 1_555
H6 C3 1_555 1_555
H7 C3 1_555 1_555
N2 C3 1_555 1_555
H8 N2 1_555 1_555
C4 N2 1_555 1_555
H9 C4 1_555 1_555
C5 C4 1_555 1_555
H10 C5 1_555 1_555
H11 C5 1_555 1_555
H12 C5 1_555 1_555
C6 N1 1_555 1_555
H13 C6 1_555 1_555
H14 C6 1_555 1_555
C7 N2 1_555 1_555
H15 C7 1_555 1_555
H16 C7 1_555 1_555
C8 C7 1_555 1_555
H17 C8 1_555 1_555
C9 C8 1_555 1_555
H18 C9 1_555 1_555
H19 C9 1_555 1_555
C10 N1 1_555 1_555
H20 C10 1_555 1_555
C11 C10 1_555 1_555
C12 C11 1_555 1_555
H21 C12 1_555 1_555
C13 C12 1_555 1_555
H22 C13 1_555 1_555
C14 C13 1_555 1_555
C15 C14 1_555 1_555
H23 C15 1_555 1_555
C16 C11 1_555 1_555
H24 C16 1_555 1_555
C17 C14 1_555 1_555
H25 C17 1_555 1_555
H26 C17 1_555 1_555
O1 C17 1_555 1_555
H27 O1 1_555 1_555
C18 C10 1_555 1_555
C19 C18 1_555 1_555
H28 C19 1_555 1_555
C20 C19 1_555 1_555
C21 C20 1_555 1_555
H29 C21 1_555 1_555
C22 C21 1_555 1_555
H30 C22 1_555 1_555
C23 C18 1_555 1_555
H31 C23 1_555 1_555
O2 C20 1_555 1_555
C24 O2 1_555 1_555
H32 C24 1_555 1_555
H33 C24 1_555 1_555
H34 C24 1_555 1_555
C4 C6 1_555 1_555
C15 C16 1_555 1_555
C22 C23 1_555 1_555

#END
