
#######################################################################
#
#                 Cambridge Crystallographic Data Centre
#                                CCDC 
#
#######################################################################
#
# If this CIF has been generated from an entry in the Cambridge 
# Structural Database, then it will include bibliographic, chemical, 
# crystal, experimental, refinement or atomic coordinate data resulting 
# from the CCDC's data processing and validation procedures.
#
#######################################################################

data_INITUW
_chemical_formula_moiety         'C18 H22 O6'
_chemical_name_systematic        
'ethyl 2-(3-t-butoxy-3-oxoprop-1-en-2-yl)-3-hydroxy-2,3-dihydro-1-benzofuran-3-carboxylate'
_symmetry_cell_setting           monoclinic
_symmetry_space_group_name_H-M   'P 21'
_symmetry_Int_Tables_number      4
_space_group_name_Hall           'P 2yb'
loop_
_symmetry_equiv_pos_site_id
_symmetry_equiv_pos_as_xyz
1 x,y,z
2 -x,1/2+y,-z
_cell_length_a                   11.722(2)
_cell_length_b                   6.0787(12)
_cell_length_c                   12.996(3)
_cell_angle_alpha                90
_cell_angle_beta                 114.44(3)
_cell_angle_gamma                90
_cell_volume                     843.047
_exptl_crystal_colour            colorless
_exptl_crystal_description       Prism
_cell_formula_units_Z            2
loop_
_atom_site_label
_atom_site_type_symbol
_atom_site_fract_x
_atom_site_fract_y
_atom_site_fract_z
O1 O 0.76334(13) -0.1354(3) 0.76367(13)
O2 O 0.62698(14) 0.3382(3) 0.69677(12)
H1 H 0.6005 0.4576 0.7111
O3 O 0.67366(14) 0.1780(3) 0.97541(12)
O4 O 0.60193(13) 0.4929(3) 0.87827(13)
O5 O 0.41995(13) 0.1033(3) 0.75145(12)
O6 O 0.32648(12) -0.0009(3) 0.56746(12)
C1 C 0.86124(19) 0.0110(4) 0.80817(17)
C2 C 0.9839(2) -0.0346(4) 0.82332(18)
H2 H 1.0066 -0.1729 0.8033
C3 C 1.0712(2) 0.1332(5) 0.86929(19)
H3 H 1.1558 0.1078 0.8814
C4 C 1.0388(2) 0.3361(4) 0.89800(19)
H4 H 1.1010 0.4464 0.9296
C5 C 0.9149(2) 0.3790(4) 0.88067(18)
H5 H 0.8915 0.5180 0.8994
C6 C 0.82698(19) 0.2125(4) 0.83533(17)
C7 C 0.68553(19) 0.2146(4) 0.79786(17)
C8 C 0.65544(18) -0.0354(4) 0.77392(18)
H6 H 0.6454 -0.1025 0.8399
C9 C 0.53909(19) -0.0821(4) 0.66791(18)
C10 C 0.5386(2) -0.2016(4) 0.58234(19)
H7 H 0.4622 -0.2264 0.5181
H8 H 0.6146 -0.2623 0.5853
C11 C 0.42263(19) 0.0178(4) 0.66826(18)
C12 C 0.2036(2) 0.1045(4) 0.54263(18)
C13 C 0.1481(2) 0.0198(6) 0.6217(2)
H9 H 0.1480 -0.1414 0.6211
H10 H 0.0620 0.0737 0.5967
H11 H 0.1986 0.0723 0.6986
C14 C 0.2202(2) 0.3519(5) 0.5493(2)
H12 H 0.2818 0.3929 0.6248
H13 H 0.1398 0.4225 0.5347
H14 H 0.2497 0.4005 0.4926
C15 C 0.1260(2) 0.0291(5) 0.42196(19)
H15 H 0.1650 0.0816 0.3728
H16 H 0.0411 0.0892 0.3958
H17 H 0.1221 -0.1319 0.4196
C16 C 0.64678(18) 0.3116(4) 0.88718(18)
C17 C 0.6289(2) 0.2476(4) 1.05978(19)
H18 H 0.5363 0.2417 1.0278
H19 H 0.6560 0.4003 1.0843
C18 C 0.6843(2) 0.0924(5) 1.15797(18)
H20 H 0.6588 -0.0585 1.1321
H21 H 0.6543 0.1313 1.2157
H22 H 0.7759 0.1031 1.1902
loop_
_geom_bond_atom_site_label_1
_geom_bond_atom_site_label_2
_geom_bond_site_symmetry_1
_geom_bond_site_symmetry_2
O1 C1 1_555 1_555
O2 H1 1_555 1_555
O3 C16 1_555 1_555
O4 C16 1_555 1_555
O5 C11 1_555 1_555
O6 C11 1_555 1_555
C1 C2 1_555 1_555
C2 H2 1_555 1_555
C3 C2 1_555 1_555
H3 C3 1_555 1_555
C4 C3 1_555 1_555
H4 C4 1_555 1_555
C5 C4 1_555 1_555
H5 C5 1_555 1_555
C6 C1 1_555 1_555
C7 O2 1_555 1_555
C8 O1 1_555 1_555
H6 C8 1_555 1_555
C9 C8 1_555 1_555
C10 C9 1_555 1_555
H7 C10 1_555 1_555
H8 C10 1_555 1_555
C11 C9 1_555 1_555
C12 O6 1_555 1_555
C13 C12 1_555 1_555
H9 C13 1_555 1_555
H10 C13 1_555 1_555
H11 C13 1_555 1_555
C14 C12 1_555 1_555
H12 C14 1_555 1_555
H13 C14 1_555 1_555
H14 C14 1_555 1_555
C15 C12 1_555 1_555
H15 C15 1_555 1_555
H16 C15 1_555 1_555
H17 C15 1_555 1_555
C16 C7 1_555 1_555
C17 O3 1_555 1_555
H18 C17 1_555 1_555
H19 C17 1_555 1_555
C18 C17 1_555 1_555
H20 C18 1_555 1_555
H21 C18 1_555 1_555
H22 C18 1_555 1_555
C5 C6 1_555 1_555
C6 C7 1_555 1_555
C7 C8 1_555 1_555

#END
