
#######################################################################
#
#                 Cambridge Crystallographic Data Centre
#                                CCDC 
#
#######################################################################
#
# If this CIF has been generated from an entry in the Cambridge 
# Structural Database, then it will include bibliographic, chemical, 
# crystal, experimental, refinement or atomic coordinate data resulting 
# from the CCDC's data processing and validation procedures.
#
#######################################################################

data_INIVAE
_chemical_formula_moiety         'C21 H26 F1 N1 O6'
_chemical_name_systematic        
'isopropyl 1-acetyl-2-(3-t-butoxy-3-oxoprop-1-en-2-yl)-5-fluoro-3-hydroxyindoline-3-carboxylate'
_symmetry_cell_setting           monoclinic
_symmetry_space_group_name_H-M   'P 21/c'
_symmetry_Int_Tables_number      14
_space_group_name_Hall           '-P 2ybc'
loop_
_symmetry_equiv_pos_site_id
_symmetry_equiv_pos_as_xyz
1 x,y,z
2 -x,1/2+y,1/2-z
3 -x,-y,-z
4 x,1/2-y,1/2+z
_cell_length_a                   10.881(2)
_cell_length_b                   19.835(4)
_cell_length_c                   11.526(5)
_cell_angle_alpha                90
_cell_angle_beta                 118.23(2)
_cell_angle_gamma                90
_cell_volume                     2191.71
_exptl_crystal_colour            colorless
_exptl_crystal_description       Prism
_cell_formula_units_Z            4
loop_
_atom_site_label
_atom_site_type_symbol
_atom_site_fract_x
_atom_site_fract_y
_atom_site_fract_z
F1 F 0.29559(10) -0.06166(4) -0.00815(8)
O1 O 0.36808(8) 0.13026(4) 0.35229(8)
H1 H 0.3901 0.1561 0.4168
O2 O 0.67278(8) 0.03183(4) 0.44079(8)
O3 O 0.57490(9) 0.06831(5) 0.56302(8)
O4 O 0.94151(8) 0.20303(5) 0.55393(8)
O5 O 0.75225(9) 0.23000(6) 0.57714(9)
O6 O 0.41225(9) 0.26138(5) 0.01471(8)
N1 N 0.49000(10) 0.19067(5) 0.18883(9)
C1 C 0.43343(12) 0.12948(6) 0.12060(12)
C2 C 0.38108(13) 0.11482(7) -0.01233(12)
H2 H 0.3770 0.1484 -0.0729
C3 C 0.33492(14) 0.04964(7) -0.05392(13)
H3 H 0.2989 0.0379 -0.1441
C4 C 0.34140(14) 0.00188(7) 0.03602(13)
C5 C 0.39299(13) 0.01543(7) 0.16862(12)
H4 H 0.3964 -0.0182 0.2287
C6 C 0.43937(12) 0.08037(6) 0.20939(11)
C7 C 0.48932(12) 0.11217(6) 0.34346(11)
C8 C 0.56385(12) 0.17758(6) 0.33224(11)
H5 H 0.5435 0.2153 0.3782
C9 C 0.72023(12) 0.17382(6) 0.38297(11)
C10 C 0.77869(13) 0.14926(7) 0.31370(12)
H6 H 0.8770 0.1512 0.3481
H7 H 0.7222 0.1298 0.2297
C11 C 0.80515(12) 0.20497(7) 0.51573(12)
C12 C 1.04284(12) 0.24220(7) 0.66994(12)
C13 C 1.18057(13) 0.22477(8) 0.67381(13)
H8 H 1.1975 0.1762 0.6881
H9 H 1.2562 0.2495 0.7458
H10 H 1.1769 0.2374 0.5900
C14 C 1.04252(14) 0.21818(8) 0.79489(12)
H11 H 0.9551 0.2317 0.7932
H12 H 1.1214 0.2384 0.8716
H13 H 1.0509 0.1690 0.8005
C15 C 1.01060(15) 0.31656(7) 0.64264(14)
H14 H 1.0061 0.3282 0.5581
H15 H 1.0841 0.3431 0.7129
H16 H 0.9208 0.3265 0.6393
C16 C 0.58343(12) 0.06841(6) 0.46246(12)
C17 C 0.77065(13) -0.01058(7) 0.55085(13)
H17 H 0.7221 -0.0293 0.5988
C18 C 0.80807(17) -0.06732(8) 0.48647(16)
H18 H 0.7232 -0.0916 0.4262
H19 H 0.8723 -0.0983 0.5542
H20 H 0.8530 -0.0489 0.4370
C19 C 0.89239(15) 0.03195(8) 0.64371(16)
H21 H 0.9374 0.0521 0.5958
H22 H 0.9597 0.0037 0.7153
H23 H 0.8592 0.0678 0.6805
C20 C 0.47798(12) 0.25298(7) 0.13516(12)
C21 C 0.54778(14) 0.30983(7) 0.22858(13)
H24 H 0.5299 0.3521 0.1792
H25 H 0.6485 0.3016 0.2767
H26 H 0.5107 0.3131 0.2911
loop_
_geom_bond_atom_site_label_1
_geom_bond_atom_site_label_2
_geom_bond_site_symmetry_1
_geom_bond_site_symmetry_2
F1 C4 1_555 1_555
O1 H1 1_555 1_555
O2 C16 1_555 1_555
O3 C16 1_555 1_555
O4 C11 1_555 1_555
O5 C11 1_555 1_555
O6 C20 1_555 1_555
N1 C1 1_555 1_555
C1 C2 1_555 1_555
C2 H2 1_555 1_555
C3 C2 1_555 1_555
H3 C3 1_555 1_555
C4 C3 1_555 1_555
C5 C4 1_555 1_555
H4 C5 1_555 1_555
C6 C1 1_555 1_555
C7 O1 1_555 1_555
C8 N1 1_555 1_555
H5 C8 1_555 1_555
C9 C8 1_555 1_555
C10 C9 1_555 1_555
H6 C10 1_555 1_555
H7 C10 1_555 1_555
C11 C9 1_555 1_555
C12 O4 1_555 1_555
C13 C12 1_555 1_555
H8 C13 1_555 1_555
H9 C13 1_555 1_555
H10 C13 1_555 1_555
C14 C12 1_555 1_555
H11 C14 1_555 1_555
H12 C14 1_555 1_555
H13 C14 1_555 1_555
C15 C12 1_555 1_555
H14 C15 1_555 1_555
H15 C15 1_555 1_555
H16 C15 1_555 1_555
C16 C7 1_555 1_555
C17 O2 1_555 1_555
H17 C17 1_555 1_555
C18 C17 1_555 1_555
H18 C18 1_555 1_555
H19 C18 1_555 1_555
H20 C18 1_555 1_555
C19 C17 1_555 1_555
H21 C19 1_555 1_555
H22 C19 1_555 1_555
H23 C19 1_555 1_555
C20 N1 1_555 1_555
C21 C20 1_555 1_555
H24 C21 1_555 1_555
H25 C21 1_555 1_555
H26 C21 1_555 1_555
C5 C6 1_555 1_555
C6 C7 1_555 1_555
C7 C8 1_555 1_555

#END
