
#######################################################################
#
#                 Cambridge Crystallographic Data Centre
#                                CCDC 
#
#######################################################################
#
# If this CIF has been generated from an entry in the Cambridge 
# Structural Database, then it will include bibliographic, chemical, 
# crystal, experimental, refinement or atomic coordinate data resulting 
# from the CCDC's data processing and validation procedures.
#
#######################################################################

data_INIVOS
_chemical_formula_moiety         'C24 H16 O1 S1'
_chemical_name_systematic        
1-(4-methylphenyl)-3-phenyl-8H-indeno[1,2-c]thiophen-8-one
_symmetry_cell_setting           triclinic
_symmetry_space_group_name_H-M   'P -1'
_symmetry_Int_Tables_number      2
_space_group_name_Hall           '-P 1'
loop_
_symmetry_equiv_pos_site_id
_symmetry_equiv_pos_as_xyz
1 x,y,z
2 -x,-y,-z
_cell_length_a                   7.1916(6)
_cell_length_b                   10.6894(8)
_cell_length_c                   11.9335(9)
_cell_angle_alpha                74.1900(10)
_cell_angle_beta                 84.968(2)
_cell_angle_gamma                89.976(2)
_cell_volume                     879.005
_exptl_crystal_colour            yellow
_exptl_crystal_description       block
_cell_formula_units_Z            2
loop_
_atom_site_label
_atom_site_type_symbol
_atom_site_fract_x
_atom_site_fract_y
_atom_site_fract_z
O1 O 0.8183(4) 0.4050(2) 0.25995(19)
S1 S 0.75580(14) 0.13645(8) -0.00164(7)
C1 C 0.7827(4) 0.1850(3) 0.1226(3)
C2 C 0.7745(4) 0.3173(3) 0.0958(3)
C3 C 0.7481(4) 0.3789(3) -0.0231(2)
C4 C 0.7354(4) 0.2942(3) -0.0895(3)
C5 C 0.7926(4) 0.4180(3) 0.1582(3)
C6 C 0.7700(4) 0.5420(3) 0.0687(3)
C7 C 0.7402(4) 0.5204(3) -0.0387(3)
C8 C 0.7059(5) 0.6241(3) -0.1312(3)
H1 H 0.6820 0.6110 -0.2025
C9 C 0.7074(5) 0.7486(3) -0.1168(3)
H2 H 0.6845 0.8192 -0.1791
C10 C 0.7423(5) 0.7691(3) -0.0117(3)
H3 H 0.7457 0.8535 -0.0044
C11 C 0.7723(5) 0.6663(3) 0.0831(3)
H4 H 0.7936 0.6800 0.1546
C12 C 0.8045(5) 0.0870(3) 0.2332(3)
C13 C 0.8999(5) -0.0263(3) 0.2368(3)
H5 H 0.9538 -0.0402 0.1676
C14 C 0.9164(5) -0.1184(3) 0.3409(3)
H6 H 0.9800 -0.1940 0.3404
C15 C 0.8416(5) -0.1019(3) 0.4452(3)
C16 C 0.7482(5) 0.0120(3) 0.4420(3)
H7 H 0.6969 0.0264 0.5116
C17 C 0.7297(5) 0.1039(3) 0.3388(3)
H8 H 0.6656 0.1793 0.3395
C18 C 0.8526(6) -0.2047(3) 0.5589(3)
H9 H 0.7398 -0.2570 0.5773
H10 H 0.8678 -0.1639 0.6200
H11 H 0.9573 -0.2587 0.5519
C19 C 0.7065(5) 0.3123(3) -0.2137(3)
C20 C 0.5958(5) 0.2258(3) -0.2472(3)
H12 H 0.5391 0.1552 -0.1907
C21 C 0.5685(5) 0.2423(4) -0.3623(3)
H13 H 0.4930 0.1832 -0.3831
C22 C 0.6509(6) 0.3448(4) -0.4471(3)
H14 H 0.6310 0.3560 -0.5251
C23 C 0.7631(6) 0.4311(4) -0.4160(3)
H15 H 0.8194 0.5013 -0.4732
C24 C 0.7931(5) 0.4144(3) -0.3000(3)
H16 H 0.8720 0.4722 -0.2798
loop_
_geom_bond_atom_site_label_1
_geom_bond_atom_site_label_2
_geom_bond_site_symmetry_1
_geom_bond_site_symmetry_2
O1 C5 1_555 1_555
S1 C1 1_555 1_555
C1 C2 1_555 1_555
C2 C3 1_555 1_555
C3 C4 1_555 1_555
C4 S1 1_555 1_555
C5 C2 1_555 1_555
C6 C5 1_555 1_555
C7 C3 1_555 1_555
C8 C7 1_555 1_555
H1 C8 1_555 1_555
C9 C8 1_555 1_555
H2 C9 1_555 1_555
C10 C9 1_555 1_555
H3 C10 1_555 1_555
C11 C6 1_555 1_555
H4 C11 1_555 1_555
C12 C1 1_555 1_555
C13 C12 1_555 1_555
H5 C13 1_555 1_555
C14 C13 1_555 1_555
H6 C14 1_555 1_555
C15 C14 1_555 1_555
C16 C15 1_555 1_555
H7 C16 1_555 1_555
C17 C12 1_555 1_555
H8 C17 1_555 1_555
C18 C15 1_555 1_555
H9 C18 1_555 1_555
H10 C18 1_555 1_555
H11 C18 1_555 1_555
C19 C4 1_555 1_555
C20 C19 1_555 1_555
H12 C20 1_555 1_555
C21 C20 1_555 1_555
H13 C21 1_555 1_555
C22 C21 1_555 1_555
H14 C22 1_555 1_555
C23 C22 1_555 1_555
H15 C23 1_555 1_555
C24 C19 1_555 1_555
H16 C24 1_555 1_555
C6 C7 1_555 1_555
C10 C11 1_555 1_555
C16 C17 1_555 1_555
C23 C24 1_555 1_555

#END
