
#######################################################################
#
#                 Cambridge Crystallographic Data Centre
#                                CCDC 
#
#######################################################################
#
# If this CIF has been generated from an entry in the Cambridge 
# Structural Database, then it will include bibliographic, chemical, 
# crystal, experimental, refinement or atomic coordinate data resulting 
# from the CCDC's data processing and validation procedures.
#
#######################################################################

data_INIXOU
_chemical_formula_moiety         'C38 H48 N4 O2,C1 H1 Cl3'
_chemical_name_systematic        
'Ethyl (2,6-bis(2-(4-(dimethylamino)phenyl)vinyl)-1-octylpyridin-4(1H)-ylidene)(cyano)acetate chloroform solvate'
_symmetry_cell_setting           triclinic
_symmetry_space_group_name_H-M   'P -1'
_symmetry_Int_Tables_number      2
_space_group_name_Hall           '-P 1'
loop_
_symmetry_equiv_pos_site_id
_symmetry_equiv_pos_as_xyz
1 x,y,z
2 -x,-y,-z
_cell_length_a                   9.6875(14)
_cell_length_b                   13.1987(18)
_cell_length_c                   16.433(2)
_cell_angle_alpha                106.151(3)
_cell_angle_beta                 97.265(3)
_cell_angle_gamma                93.507(3)
_cell_volume                     1991.77
_exptl_crystal_colour            orange
_exptl_crystal_description       Prism
_cell_formula_units_Z            2
loop_
_atom_site_label
_atom_site_type_symbol
_atom_site_fract_x
_atom_site_fract_y
_atom_site_fract_z
Cl1 Cl 0.06295(17) 0.56497(13) 0.29121(16)
Cl2 Cl 0.32442(19) 0.67824(10) 0.37582(10)
Cl3 Cl 0.3059(2) 0.52609(15) 0.21428(10)
C1 C 0.2381(4) 0.5610(3) 0.3090(3)
H1 H 0.2555 0.5058 0.3373
O1 O 0.6255(2) 0.98504(16) -0.18188(14)
O2 O 0.5840(2) 0.87455(16) -0.31554(13)
N1 N 0.7661(3) 0.6655(2) -0.34122(17)
N2 N 0.9610(2) 0.84140(17) 0.02698(14)
N3 N 0.7178(3) 1.4232(2) 0.38394(17)
N4 N 1.4471(3) 0.2754(2) -0.0969(2)
C2 C 0.4013(6) 0.8797(4) -0.4227(3)
H2 H 0.4634 0.8732 -0.4646
H3 H 0.3240 0.9166 -0.4374
H4 H 0.3671 0.8103 -0.4216
C3 C 0.4779(4) 0.9399(3) -0.3368(2)
H5 H 0.5209 1.0075 -0.3383
H6 H 0.4145 0.9528 -0.2946
C4 C 0.6477(3) 0.9038(2) -0.23280(19)
C5 C 0.7374(3) 0.8259(2) -0.21634(17)
C6 C 0.7510(3) 0.7378(2) -0.28633(19)
C7 C 0.8086(3) 0.83088(19) -0.13416(17)
C8 C 0.8014(3) 0.9129(2) -0.05888(17)
H7 H 0.7446 0.9663 -0.0626
C9 C 0.8736(3) 0.9174(2) 0.01862(17)
C10 C 0.9665(3) 0.7557(2) -0.04419(17)
C11 C 0.8921(3) 0.7513(2) -0.12114(17)
H8 H 0.8964 0.6928 -0.1676
C12 C 0.8645(3) 1.0058(2) 0.09516(18)
H9 H 0.9386 1.0209 0.1400
C13 C 0.7599(3) 1.0648(2) 0.10497(17)
H10 H 0.6834 1.0459 0.0616
C14 C 0.7519(3) 1.1577(2) 0.17759(17)
C15 C 0.6307(3) 1.2087(2) 0.18200(18)
H11 H 0.5554 1.1834 0.1382
C16 C 0.6188(3) 1.2953(2) 0.24907(19)
H12 H 0.5358 1.3273 0.2500
C17 C 0.7296(3) 1.3362(2) 0.31594(17)
C18 C 0.8510(3) 1.2856(2) 0.31140(18)
H13 H 0.9269 1.3114 0.3547
C19 C 0.8618(3) 1.1988(2) 0.24478(17)
H14 H 0.9444 1.1664 0.2442
C20 C 0.5893(4) 1.4681(3) 0.3924(3)
H15 H 0.5643 1.4971 0.3457
H16 H 0.5989 1.5234 0.4456
H17 H 0.5175 1.4142 0.3916
C21 C 0.8305(5) 1.4587(3) 0.4529(2)
H18 H 0.8510 1.4016 0.4766
H19 H 0.8049 1.5167 0.4963
H20 H 0.9117 1.4816 0.4322
C22 C 1.0545(3) 0.6723(2) -0.03367(19)
H21 H 1.0613 0.6551 0.0178
C23 C 1.1250(3) 0.6199(2) -0.09374(19)
H22 H 1.1212 0.6422 -0.1429
C24 C 1.2069(3) 0.5324(2) -0.09155(18)
C25 C 1.2659(3) 0.4819(2) -0.1626(2)
H23 H 1.2516 0.5056 -0.2110
C26 C 1.3447(4) 0.3981(3) -0.1649(2)
H24 H 1.3813 0.3666 -0.2145
C27 C 1.3704(3) 0.3599(2) -0.0944(2)
C28 C 1.3137(4) 0.4109(2) -0.0216(2)
H25 H 1.3301 0.3884 0.0272
C29 C 1.2337(4) 0.4943(2) -0.0209(2)
H26 H 1.1965 0.5259 0.0284
C30 C 1.4856(4) 0.2427(3) -0.0202(3)
H27 H 1.5179 0.3042 0.0274
H28 H 1.5589 0.1968 -0.0290
H29 H 1.4056 0.2057 -0.0084
C31 C 1.4968(6) 0.2203(4) -0.1737(4)
H30 H 1.4232 0.2076 -0.2213
H31 H 1.5261 0.1539 -0.1686
H32 H 1.5746 0.2625 -0.1827
C32 C 1.0513(3) 0.8511(2) 0.10944(18)
H33 H 1.0856 0.9250 0.1365
H34 H 1.1315 0.8117 0.0981
C33 C 0.9757(4) 0.8107(3) 0.1692(2)
H35 H 0.9584 0.7341 0.1478
H36 H 0.8860 0.8394 0.1717
C34 C 1.0611(6) 0.8422(3) 0.2603(2)
H37 H 1.0245 0.7980 0.2925
H38 H 1.1575 0.8286 0.2559
C35 C 1.0573(5) 0.9566(3) 0.3084(3)
H39 H 1.0953 1.0000 0.2760
H40 H 0.9602 0.9699 0.3105
C36 C 1.1343(6) 0.9927(4) 0.3978(3)
H41 H 1.2325 0.9832 0.3962
H42 H 1.0990 0.9484 0.4304
C37 C 1.1209(6) 1.1079(4) 0.4436(3)
H43 H 1.0232 1.1168 0.4480
H44 H 1.1519 1.1521 0.4097
C38 C 1.2064(9) 1.1455(6) 0.5334(4)
H45 H 1.1711 1.1041 0.5682
H46 H 1.3028 1.1318 0.5292
C39 C 1.2028(14) 1.2525(6) 0.5746(5)
H47 H 1.2405 1.2943 0.5416
H48 H 1.2577 1.2705 0.6305
H49 H 1.1079 1.2667 0.5801
loop_
_geom_bond_atom_site_label_1
_geom_bond_atom_site_label_2
_geom_bond_site_symmetry_1
_geom_bond_site_symmetry_2
Cl1 C1 1_555 1_555
Cl2 C1 1_555 1_555
Cl3 C1 1_555 1_555
C1 H1 1_555 1_555
O1 C4 1_555 1_555
O2 C3 1_555 1_555
N1 C6 1_555 1_555
N2 C9 1_555 1_555
N3 C17 1_555 1_555
N4 C27 1_555 1_555
C2 H2 1_555 1_555
H3 C2 1_555 1_555
H4 C2 1_555 1_555
C3 C2 1_555 1_555
H5 C3 1_555 1_555
H6 C3 1_555 1_555
C4 O2 1_555 1_555
C5 C4 1_555 1_555
C6 C5 1_555 1_555
C7 C5 1_555 1_555
C8 C7 1_555 1_555
H7 C8 1_555 1_555
C9 C8 1_555 1_555
C10 N2 1_555 1_555
C11 C7 1_555 1_555
H8 C11 1_555 1_555
C12 C9 1_555 1_555
H9 C12 1_555 1_555
C13 C12 1_555 1_555
H10 C13 1_555 1_555
C14 C13 1_555 1_555
C15 C14 1_555 1_555
H11 C15 1_555 1_555
C16 C15 1_555 1_555
H12 C16 1_555 1_555
C17 C16 1_555 1_555
C18 C17 1_555 1_555
H13 C18 1_555 1_555
C19 C14 1_555 1_555
H14 C19 1_555 1_555
C20 N3 1_555 1_555
H15 C20 1_555 1_555
H16 C20 1_555 1_555
H17 C20 1_555 1_555
C21 N3 1_555 1_555
H18 C21 1_555 1_555
H19 C21 1_555 1_555
H20 C21 1_555 1_555
C22 C10 1_555 1_555
H21 C22 1_555 1_555
C23 C22 1_555 1_555
H22 C23 1_555 1_555
C24 C23 1_555 1_555
C25 C24 1_555 1_555
H23 C25 1_555 1_555
C26 C25 1_555 1_555
H24 C26 1_555 1_555
C27 C26 1_555 1_555
C28 C27 1_555 1_555
H25 C28 1_555 1_555
C29 C24 1_555 1_555
H26 C29 1_555 1_555
C30 N4 1_555 1_555
H27 C30 1_555 1_555
H28 C30 1_555 1_555
H29 C30 1_555 1_555
C31 N4 1_555 1_555
H30 C31 1_555 1_555
H31 C31 1_555 1_555
H32 C31 1_555 1_555
C32 N2 1_555 1_555
H33 C32 1_555 1_555
H34 C32 1_555 1_555
C33 C32 1_555 1_555
H35 C33 1_555 1_555
H36 C33 1_555 1_555
C34 C33 1_555 1_555
H37 C34 1_555 1_555
H38 C34 1_555 1_555
C35 C34 1_555 1_555
H39 C35 1_555 1_555
H40 C35 1_555 1_555
C36 C35 1_555 1_555
H41 C36 1_555 1_555
H42 C36 1_555 1_555
C37 C36 1_555 1_555
H43 C37 1_555 1_555
H44 C37 1_555 1_555
C38 C37 1_555 1_555
H45 C38 1_555 1_555
H46 C38 1_555 1_555
C39 C38 1_555 1_555
H47 C39 1_555 1_555
H48 C39 1_555 1_555
H49 C39 1_555 1_555
C10 C11 1_555 1_555
C18 C19 1_555 1_555
C28 C29 1_555 1_555

#END
