
#######################################################################
#
#                 Cambridge Crystallographic Data Centre
#                                CCDC 
#
#######################################################################
#
# If this CIF has been generated from an entry in the Cambridge 
# Structural Database, then it will include bibliographic, chemical, 
# crystal, experimental, refinement or atomic coordinate data resulting 
# from the CCDC's data processing and validation procedures.
#
#######################################################################

data_INOBUK
_chemical_formula_moiety         'C22 H21 N1 O2 S1'
_chemical_name_systematic        
2,9-diphenyl-8-propyl-1-thia-3-azaspiro[4.4]non-2-ene-4,6-dione
_symmetry_cell_setting           orthorhombic
_symmetry_space_group_name_H-M   'P 21 21 21'
_symmetry_Int_Tables_number      19
_space_group_name_Hall           'P 2ac 2ab'
loop_
_symmetry_equiv_pos_site_id
_symmetry_equiv_pos_as_xyz
1 x,y,z
2 1/2-x,-y,1/2+z
3 -x,1/2+y,1/2-z
4 1/2+x,1/2-y,-z
_cell_length_a                   9.769(2)
_cell_length_b                   10.877(3)
_cell_length_c                   18.235(4)
_cell_angle_alpha                90
_cell_angle_beta                 90
_cell_angle_gamma                90
_cell_volume                     1937.6
_exptl_crystal_colour            colorless
_exptl_crystal_description       block
_cell_formula_units_Z            4
loop_
_atom_site_label
_atom_site_type_symbol
_atom_site_fract_x
_atom_site_fract_y
_atom_site_fract_z
S1 S 0.42977(5) 0.72871(5) 0.67582(2)
O1 O 0.67110(16) 0.52143(15) 0.78583(9)
O2 O 0.61170(18) 0.84632(15) 0.79773(10)
N1 N 0.62904(19) 0.56695(18) 0.66539(11)
C1 C 0.4851(2) 0.66306(18) 0.76158(10)
C2 C 0.37473(19) 0.59506(18) 0.80671(10)
H1 H 0.3673 0.5103 0.7889
C3 C 0.4380(2) 0.59378(19) 0.88548(10)
H2 H 0.5085 0.5297 0.8861
C4 C 0.5115(2) 0.7176(2) 0.89283(12)
H3 H 0.4524 0.7773 0.9165
H4 H 0.5940 0.7086 0.9219
C5 C 0.5464(2) 0.75866(19) 0.81574(11)
C6 C 0.6044(2) 0.57616(19) 0.74017(12)
C7 C 0.5488(2) 0.6390(2) 0.62829(12)
C8 C 0.5557(2) 0.6459(2) 0.54766(12)
C9 C 0.6521(3) 0.5733(3) 0.51074(14)
H5 H 0.7104 0.5218 0.5368
C10 C 0.6596(3) 0.5791(3) 0.43506(15)
H6 H 0.7229 0.5307 0.4102
C11 C 0.5742(4) 0.6560(3) 0.39619(13)
H7 H 0.5814 0.6602 0.3454
C12 C 0.4779(3) 0.7272(3) 0.43221(14)
H8 H 0.4195 0.7781 0.4057
C13 C 0.4689(3) 0.7219(3) 0.50830(13)
H9 H 0.4045 0.7696 0.5328
C14 C 0.2349(2) 0.65519(19) 0.80332(11)
C15 C 0.1202(2) 0.5817(2) 0.79253(13)
H10 H 0.1313 0.4977 0.7853
C16 C -0.0111(2) 0.6316(3) 0.79242(15)
H11 H -0.0866 0.5810 0.7851
C17 C -0.0291(2) 0.7567(3) 0.80325(15)
H12 H -0.1167 0.7903 0.8035
C18 C 0.0841(3) 0.8314(2) 0.81369(13)
H13 H 0.0725 0.9153 0.8211
C19 C 0.2150(2) 0.7813(2) 0.81309(12)
H14 H 0.2903 0.8325 0.8193
C20 C 0.3368(2) 0.5636(2) 0.94618(12)
H15 H 0.2900 0.4875 0.9342
H16 H 0.2685 0.6282 0.9488
C21 C 0.4059(3) 0.5503(2) 1.02109(12)
H17 H 0.4856 0.4976 1.0164
H18 H 0.4368 0.6304 1.0377
C22 C 0.3090(3) 0.4960(3) 1.07786(13)
H19 H 0.2818 0.4150 1.0628
H20 H 0.2295 0.5473 1.0822
H21 H 0.3546 0.4913 1.1244
loop_
_geom_bond_atom_site_label_1
_geom_bond_atom_site_label_2
_geom_bond_site_symmetry_1
_geom_bond_site_symmetry_2
S1 C1 1_555 1_555
O1 C6 1_555 1_555
O2 C5 1_555 1_555
N1 C6 1_555 1_555
C1 C2 1_555 1_555
C2 H1 1_555 1_555
C3 C2 1_555 1_555
H2 C3 1_555 1_555
C4 C3 1_555 1_555
H3 C4 1_555 1_555
H4 C4 1_555 1_555
C5 C1 1_555 1_555
C6 C1 1_555 1_555
C7 S1 1_555 1_555
C8 C7 1_555 1_555
C9 C8 1_555 1_555
H5 C9 1_555 1_555
C10 C9 1_555 1_555
H6 C10 1_555 1_555
C11 C10 1_555 1_555
H7 C11 1_555 1_555
C12 C11 1_555 1_555
H8 C12 1_555 1_555
C13 C8 1_555 1_555
H9 C13 1_555 1_555
C14 C2 1_555 1_555
C15 C14 1_555 1_555
H10 C15 1_555 1_555
C16 C15 1_555 1_555
H11 C16 1_555 1_555
C17 C16 1_555 1_555
H12 C17 1_555 1_555
C18 C17 1_555 1_555
H13 C18 1_555 1_555
C19 C14 1_555 1_555
H14 C19 1_555 1_555
C20 C3 1_555 1_555
H15 C20 1_555 1_555
H16 C20 1_555 1_555
C21 C20 1_555 1_555
H17 C21 1_555 1_555
H18 C21 1_555 1_555
C22 C21 1_555 1_555
H19 C22 1_555 1_555
H20 C22 1_555 1_555
H21 C22 1_555 1_555
N1 C7 1_555 1_555
C4 C5 1_555 1_555
C12 C13 1_555 1_555
C18 C19 1_555 1_555

#END
