
#######################################################################
#
#                 Cambridge Crystallographic Data Centre
#                                CCDC 
#
#######################################################################
#
# If this CIF has been generated from an entry in the Cambridge 
# Structural Database, then it will include bibliographic, chemical, 
# crystal, experimental, refinement or atomic coordinate data resulting 
# from the CCDC's data processing and validation procedures.
#
#######################################################################

data_INOCAR
_chemical_formula_moiety         'C27 H31 Br1 S4 Si3'
_chemical_name_systematic        
(10-bromotristhieno[2',3':5,6;3'',2'':3,4;3''',2''':7,8]naphtho[1,2-b]thiene-2,5,8-triyl)tris(trimethylsilane)
_symmetry_cell_setting           monoclinic
_symmetry_space_group_name_H-M   'P 21/c'
_symmetry_Int_Tables_number      14
_space_group_name_Hall           '-P 2ybc'
loop_
_symmetry_equiv_pos_site_id
_symmetry_equiv_pos_as_xyz
1 x,y,z
2 -x,1/2+y,1/2-z
3 -x,-y,-z
4 x,1/2-y,1/2+z
_cell_length_a                   12.218(15)
_cell_length_b                   19.59(2)
_cell_length_c                   14.050(17)
_cell_angle_alpha                90
_cell_angle_beta                 108.61(3)
_cell_angle_gamma                90
_cell_volume                     3187.04
_cell_formula_units_Z            4
loop_
_atom_site_label
_atom_site_type_symbol
_atom_site_fract_x
_atom_site_fract_y
_atom_site_fract_z
Br1 Br -0.14057(7) -0.11102(5) 0.34567(6)
S1 S 0.10998(17) 0.03842(11) 0.30593(14)
S2 S 0.32585(17) 0.12652(10) 0.37838(13)
S3 S 0.48796(16) -0.04213(10) 0.77674(12)
S4 S 0.25692(16) -0.12105(10) 0.71311(13)
Si1 Si 0.07238(19) -0.23111(12) 0.73660(15)
Si2 Si 0.73258(17) -0.00235(12) 0.92409(15)
Si3 Si 0.4867(2) 0.25240(12) 0.37100(16)
C1 C 0.0938(6) -0.0499(4) 0.4400(5)
C2 C 0.1699(6) -0.0005(4) 0.4240(5)
C3 C 0.4994(6) 0.0434(3) 0.6415(5)
C4 C 0.2351(6) -0.0716(3) 0.6032(4)
C5 C 0.4618(6) 0.0854(4) 0.5496(5)
C6 C -0.0105(6) -0.0543(4) 0.3559(5)
C7 C 0.4252(5) -0.0056(4) 0.6600(4)
C8 C 0.3526(6) 0.0695(4) 0.4780(5)
C9 C 0.6030(6) 0.0514(4) 0.7212(5)
H1 H 0.6600 0.0825 0.7198
C10 C 0.2776(6) 0.0159(4) 0.4928(5)
C11 C 0.3145(6) -0.0210(3) 0.5870(5)
C12 C 0.1262(6) -0.0862(3) 0.5322(5)
C13 C 0.6124(5) 0.0080(4) 0.8033(5)
C14 C 0.5162(6) 0.1409(4) 0.5186(5)
H2 H 0.5891 0.1565 0.5563
C15 C 0.4535(6) 0.1706(4) 0.4281(5)
C16 C -0.0142(6) -0.0083(4) 0.2813(6)
H3 H -0.0775 -0.0031 0.2236
C17 C 0.1241(6) -0.1630(4) 0.6650(5)
C18 C 0.0681(6) -0.1410(3) 0.5711(5)
H4 H -0.0027 -0.1590 0.5330
C19 C -0.0552(7) -0.2730(5) 0.6442(7)
H5 H -0.0325 -0.2924 0.5906
H6 H -0.1147 -0.2397 0.6174
H7 H -0.0838 -0.3084 0.6772
C20 C 0.7859(7) -0.0934(4) 0.9334(6)
H8 H 0.8151 -0.1028 0.8790
H9 H 0.7232 -0.1240 0.9299
H10 H 0.8463 -0.0998 0.9961
C21 C 0.8522(6) 0.0579(4) 0.9264(6)
H11 H 0.8239 0.1039 0.9209
H12 H 0.8798 0.0480 0.8711
H13 H 0.9141 0.0526 0.9884
C22 C 0.4418(10) 0.2443(6) 0.2313(6)
H14 H 0.3605 0.2351 0.2056
H15 H 0.4836 0.2076 0.2136
H16 H 0.4583 0.2862 0.2030
C23 C 0.0387(9) -0.1918(4) 0.8464(6)
H17 H 0.0130 -0.2266 0.8823
H18 H -0.0210 -0.1582 0.8224
H19 H 0.1069 -0.1704 0.8903
C24 C 0.6744(7) 0.0168(5) 1.0312(6)
H20 H 0.6467 0.0629 1.0257
H21 H 0.7348 0.0110 1.0941
H22 H 0.6121 -0.0139 1.0282
C25 C 0.1903(7) -0.2948(4) 0.7853(7)
H23 H 0.2088 -0.3151 0.7301
H24 H 0.1653 -0.3297 0.8217
H25 H 0.2575 -0.2725 0.8292
C26 C 0.6458(7) 0.2719(5) 0.4281(7)
H26 H 0.6650 0.2756 0.4997
H27 H 0.6631 0.3142 0.4015
H28 H 0.6903 0.2359 0.4122
C27 C 0.4048(8) 0.3217(4) 0.4066(7)
H29 H 0.3236 0.3128 0.3783
H30 H 0.4228 0.3644 0.3815
H31 H 0.4255 0.3238 0.4784
loop_
_geom_bond_atom_site_label_1
_geom_bond_atom_site_label_2
_geom_bond_site_symmetry_1
_geom_bond_site_symmetry_2
Br1 C6 1_555 1_555
S1 C2 1_555 1_555
S2 C8 1_555 1_555
S3 C7 1_555 1_555
S4 C4 1_555 1_555
Si1 C17 1_555 1_555
Si2 C13 1_555 1_555
Si3 C15 1_555 1_555
C1 C2 1_555 1_555
C2 C10 1_555 1_555
C3 C5 1_555 1_555
C4 C11 1_555 1_555
C5 C8 1_555 1_555
C6 C1 1_555 1_555
C7 C3 1_555 1_555
C8 C10 1_555 1_555
C9 C3 1_555 1_555
H1 C9 1_555 1_555
C10 C11 1_555 1_555
C11 C7 1_555 1_555
C12 C1 1_555 1_555
C13 S3 1_555 1_555
C14 C5 1_555 1_555
H2 C14 1_555 1_555
C15 S2 1_555 1_555
C16 S1 1_555 1_555
H3 C16 1_555 1_555
C17 S4 1_555 1_555
C18 C12 1_555 1_555
H4 C18 1_555 1_555
C19 Si1 1_555 1_555
H5 C19 1_555 1_555
H6 C19 1_555 1_555
H7 C19 1_555 1_555
C20 Si2 1_555 1_555
H8 C20 1_555 1_555
H9 C20 1_555 1_555
H10 C20 1_555 1_555
C21 Si2 1_555 1_555
H11 C21 1_555 1_555
H12 C21 1_555 1_555
H13 C21 1_555 1_555
C22 Si3 1_555 1_555
H14 C22 1_555 1_555
H15 C22 1_555 1_555
H16 C22 1_555 1_555
C23 Si1 1_555 1_555
H17 C23 1_555 1_555
H18 C23 1_555 1_555
H19 C23 1_555 1_555
C24 Si2 1_555 1_555
H20 C24 1_555 1_555
H21 C24 1_555 1_555
H22 C24 1_555 1_555
C25 Si1 1_555 1_555
H23 C25 1_555 1_555
H24 C25 1_555 1_555
H25 C25 1_555 1_555
C26 Si3 1_555 1_555
H26 C26 1_555 1_555
H27 C26 1_555 1_555
H28 C26 1_555 1_555
C27 Si3 1_555 1_555
H29 C27 1_555 1_555
H30 C27 1_555 1_555
H31 C27 1_555 1_555
C4 C12 1_555 1_555
C6 C16 1_555 1_555
C9 C13 1_555 1_555
C14 C15 1_555 1_555
C17 C18 1_555 1_555

#END
