
#######################################################################
#
#                 Cambridge Crystallographic Data Centre
#                                CCDC 
#
#######################################################################
#
# If this CIF has been generated from an entry in the Cambridge 
# Structural Database, then it will include bibliographic, chemical, 
# crystal, experimental, refinement or atomic coordinate data resulting 
# from the CCDC's data processing and validation procedures.
#
#######################################################################

data_INODIY
_chemical_name_common            'N-(2-Nitrophenyl)benzamide-2-carboxylic acid'
_chemical_formula_moiety         'C14 H10 N2 O5'
_chemical_name_systematic        '2-(2-Nitrophenylaminocarbonyl)benzoic acid'
_symmetry_cell_setting           orthorhombic
_symmetry_space_group_name_H-M   'P b c a'
_symmetry_Int_Tables_number      61
_space_group_name_Hall           '-P 2ac 2ab'
loop_
_symmetry_equiv_pos_site_id
_symmetry_equiv_pos_as_xyz
1 x,y,z
2 1/2+x,y,1/2-z
3 1/2-x,1/2+y,z
4 x,1/2-y,1/2+z
5 -x,-y,-z
6 1/2-x,-y,1/2+z
7 1/2+x,1/2-y,-z
8 -x,1/2+y,1/2-z
_cell_length_a                   7.2761(2)
_cell_length_b                   14.8881(5)
_cell_length_c                   23.0407(6)
_cell_angle_alpha                90
_cell_angle_beta                 90
_cell_angle_gamma                90
_cell_volume                     2495.94
_exptl_crystal_colour            colorless
_exptl_crystal_description       block
_chemical_melting_point          '426-428 K'
_cell_formula_units_Z            8
_exptl_crystal_recrystallization_method ethanol
loop_
_atom_site_label
_atom_site_type_symbol
_atom_site_fract_x
_atom_site_fract_y
_atom_site_fract_z
N1 N 0.3912(2) 0.66212(10) 0.68329(6)
C1 C 0.3660(2) 0.73886(12) 0.59102(7)
C2 C 0.4161(2) 0.71745(12) 0.53395(7)
C3 C 0.4467(3) 0.78557(13) 0.49395(8)
C4 C 0.4313(3) 0.87494(13) 0.51080(8)
C5 C 0.3856(3) 0.89625(13) 0.56740(8)
C6 C 0.3511(3) 0.82848(13) 0.60725(8)
C7 C 0.3014(3) 0.66598(12) 0.63142(7)
C8 C 0.4502(3) 0.62202(12) 0.51827(7)
O1 O 0.4224(2) 0.60281(9) 0.46339(5)
O2 O 0.50338(18) 0.56741(8) 0.55444(5)
O3 O 0.17176(18) 0.61778(9) 0.61845(5)
C9 C 0.3487(2) 0.60095(12) 0.72837(7)
C10 C 0.3474(2) 0.62663(12) 0.78658(7)
C11 C 0.3015(2) 0.56789(13) 0.83106(8)
C12 C 0.2588(3) 0.48019(12) 0.81765(8)
C13 C 0.2599(3) 0.45285(13) 0.76019(8)
C14 C 0.3027(2) 0.51244(12) 0.71581(8)
N2 N 0.3928(2) 0.71871(10) 0.80312(7)
O4 O 0.3086(2) 0.75267(9) 0.84359(6)
O5 O 0.51459(18) 0.75869(8) 0.77559(5)
H1 H 0.4708 0.7052 0.6904
H2 H 0.4781 0.7711 0.4550
H3 H 0.4523 0.9215 0.4834
H4 H 0.3779 0.9574 0.5790
H5 H 0.3171 0.8434 0.6459
H6 H 0.4481 0.5486 0.4574
H7 H 0.2995 0.5879 0.8702
H8 H 0.2288 0.4388 0.8476
H9 H 0.2309 0.3923 0.7510
H10 H 0.3005 0.4926 0.6766
loop_
_geom_bond_atom_site_label_1
_geom_bond_atom_site_label_2
_geom_bond_site_symmetry_1
_geom_bond_site_symmetry_2
N1 C7 1_555 1_555
C1 C2 1_555 1_555
C2 C3 1_555 1_555
C3 C4 1_555 1_555
C4 C5 1_555 1_555
C5 C6 1_555 1_555
C6 C1 1_555 1_555
C7 C1 1_555 1_555
C8 C2 1_555 1_555
O1 C8 1_555 1_555
O2 C8 1_555 1_555
O3 C7 1_555 1_555
C9 N1 1_555 1_555
C10 C9 1_555 1_555
C11 C10 1_555 1_555
C12 C11 1_555 1_555
C13 C12 1_555 1_555
C14 C9 1_555 1_555
N2 C10 1_555 1_555
O4 N2 1_555 1_555
O5 N2 1_555 1_555
H1 N1 1_555 1_555
H2 C3 1_555 1_555
H3 C4 1_555 1_555
H4 C5 1_555 1_555
H5 C6 1_555 1_555
H6 O1 1_555 1_555
H7 C11 1_555 1_555
H8 C12 1_555 1_555
H9 C13 1_555 1_555
H10 C14 1_555 1_555
C13 C14 1_555 1_555

#END
