
#######################################################################
#
#                 Cambridge Crystallographic Data Centre
#                                CCDC 
#
#######################################################################
#
# If this CIF has been generated from an entry in the Cambridge 
# Structural Database, then it will include bibliographic, chemical, 
# crystal, experimental, refinement or atomic coordinate data resulting 
# from the CCDC's data processing and validation procedures.
#
#######################################################################

data_INODUK
_chemical_name_common            'N-(4-Nitrophenyl)benzamide-2-carboxylic acid'
_chemical_formula_moiety         'C14 H10 N2 O5'
_chemical_name_systematic        '2-(4-Nitrophenylaminocarbonyl)benzoic acid'
_symmetry_cell_setting           monoclinic
_symmetry_space_group_name_H-M   'P 21/n'
_symmetry_Int_Tables_number      14
_space_group_name_Hall           '-P 2yn'
loop_
_symmetry_equiv_pos_site_id
_symmetry_equiv_pos_as_xyz
1 x,y,z
2 1/2+x,1/2-y,1/2+z
3 -x,-y,-z
4 1/2-x,1/2+y,1/2-z
_cell_length_a                   10.2098(10)
_cell_length_b                   9.3749(8)
_cell_length_c                   27.409(2)
_cell_angle_alpha                90
_cell_angle_beta                 100.578(4)
_cell_angle_gamma                90
_cell_volume                     2578.89
_exptl_crystal_colour            colorless
_exptl_crystal_description       plate
_chemical_melting_point          '471-473 K'
_cell_formula_units_Z            8
_exptl_crystal_recrystallization_method acetone
loop_
_atom_site_label
_atom_site_type_symbol
_atom_site_fract_x
_atom_site_fract_y
_atom_site_fract_z
C1 C 0.2819(3) 0.0940(3) 0.30113(9)
C2 C 0.3602(3) 0.2060(3) 0.32469(9)
C3 C 0.3627(3) 0.2318(3) 0.37481(10)
C4 C 0.2898(3) 0.1477(3) 0.40118(10)
C5 C 0.2168(3) 0.0352(3) 0.37854(10)
C6 C 0.2114(3) 0.0083(3) 0.32880(10)
C7 C 0.4469(3) 0.2866(3) 0.29669(10)
O1 O 0.5270(2) 0.3773(2) 0.32449(7)
O2 O 0.4477(2) 0.2687(2) 0.25270(6)
C8 C 0.2761(3) 0.0595(3) 0.24733(10)
O3 O 0.3441(2) -0.0374(2) 0.23465(6)
N1 N 0.1865(3) 0.1368(2) 0.21587(8)
C9 C 0.1682(3) 0.1401(3) 0.16406(10)
C10 C 0.2701(3) 0.1091(3) 0.13835(10)
C11 C 0.2456(4) 0.1155(3) 0.08729(11)
C12 C 0.1199(4) 0.1527(3) 0.06263(11)
C13 C 0.0178(4) 0.1843(3) 0.08723(10)
C14 C 0.0425(3) 0.1794(3) 0.13827(10)
N2 N 0.0929(5) 0.1578(3) 0.00837(11)
O4 O 0.1897(4) 0.1542(3) -0.01303(9)
O5 O -0.0234(4) 0.1652(3) -0.01317(9)
H1 H 0.4151 0.3079 0.3909
H2 H 0.2899 0.1677 0.4352
H3 H 0.1697 -0.0247 0.3973
H4 H 0.1594 -0.0689 0.3133
H5 H 0.5804 0.4124 0.3078
H6 H 0.1332 0.1916 0.2295
H7 H 0.3560 0.0837 0.1559
H8 H 0.3143 0.0946 0.0693
H9 H -0.0680 0.2089 0.0694
H10 H -0.0262 0.2029 0.1560
C15 C 0.7592(3) 0.5837(3) 0.20613(10)
C16 C 0.6580(3) 0.6660(3) 0.17796(9)
C17 C 0.6527(3) 0.6808(3) 0.12706(10)
C18 C 0.7479(3) 0.6161(3) 0.10455(10)
C19 C 0.8471(3) 0.5355(3) 0.13237(10)
C20 C 0.8537(3) 0.5177(3) 0.18256(10)
C21 C 0.5577(3) 0.7361(3) 0.20288(10)
O6 O 0.4810(2) 0.8287(2) 0.17438(6)
O7 O 0.5477(2) 0.7108(2) 0.24543(7)
C22 C 0.7660(3) 0.5572(3) 0.26046(10)
O8 O 0.7182(2) 0.4479(2) 0.27463(6)
N3 N 0.8348(3) 0.6565(2) 0.29067(8)
C23 C 0.8544(3) 0.6668(3) 0.34262(9)
C24 C 0.8215(3) 0.5588(3) 0.37331(10)
C25 C 0.8455(3) 0.5783(3) 0.42414(10)
C26 C 0.9009(3) 0.7043(3) 0.44392(10)
C27 C 0.9350(3) 0.8112(3) 0.41438(10)
C28 C 0.9125(3) 0.7919(3) 0.36378(10)
N4 N 0.9234(3) 0.7250(3) 0.49769(9)
O9 O 0.9035(3) 0.6260(3) 0.52431(8)
O10 O 0.9610(3) 0.8420(3) 0.51405(8)
H11 H 0.5835 0.7353 0.1078
H12 H 0.7448 0.6274 0.0699
H13 H 0.9121 0.4914 0.1166
H14 H 0.9222 0.4608 0.2012
H15 H 0.4355 0.8748 0.1916
H16 H 0.8725 0.7240 0.2757
H17 H 0.7829 0.4724 0.3593
H18 H 0.8238 0.5053 0.4453
H19 H 0.9736 0.8972 0.4287
H20 H 0.9368 0.8648 0.3430
loop_
_geom_bond_atom_site_label_1
_geom_bond_atom_site_label_2
_geom_bond_site_symmetry_1
_geom_bond_site_symmetry_2
C1 C2 1_555 1_555
C2 C3 1_555 1_555
C3 C4 1_555 1_555
C4 C5 1_555 1_555
C5 C6 1_555 1_555
C6 C1 1_555 1_555
C7 C2 1_555 1_555
O1 C7 1_555 1_555
O2 C7 1_555 1_555
C8 C1 1_555 1_555
O3 C8 1_555 1_555
N1 C8 1_555 1_555
C9 N1 1_555 1_555
C10 C9 1_555 1_555
C11 C10 1_555 1_555
C12 C11 1_555 1_555
C13 C12 1_555 1_555
C14 C9 1_555 1_555
N2 C12 1_555 1_555
O4 N2 1_555 1_555
O5 N2 1_555 1_555
C15 C16 1_555 1_555
C16 C17 1_555 1_555
C17 C18 1_555 1_555
C18 C19 1_555 1_555
C19 C20 1_555 1_555
C20 C15 1_555 1_555
C21 C16 1_555 1_555
O6 C21 1_555 1_555
O7 C21 1_555 1_555
C22 C15 1_555 1_555
O8 C22 1_555 1_555
N3 C22 1_555 1_555
C23 N3 1_555 1_555
C24 C23 1_555 1_555
C25 C24 1_555 1_555
C26 C25 1_555 1_555
C27 C26 1_555 1_555
C28 C23 1_555 1_555
N4 C26 1_555 1_555
O9 N4 1_555 1_555
O10 N4 1_555 1_555
H1 C3 1_555 1_555
H2 C4 1_555 1_555
H3 C5 1_555 1_555
H4 C6 1_555 1_555
H5 O1 1_555 1_555
H6 N1 1_555 1_555
H7 C10 1_555 1_555
H8 C11 1_555 1_555
H9 C13 1_555 1_555
H10 C14 1_555 1_555
H11 C17 1_555 1_555
H12 C18 1_555 1_555
H13 C19 1_555 1_555
H14 C20 1_555 1_555
H15 O6 1_555 1_555
H16 N3 1_555 1_555
H17 C24 1_555 1_555
H18 C25 1_555 1_555
H19 C27 1_555 1_555
H20 C28 1_555 1_555
C13 C14 1_555 1_555
C27 C28 1_555 1_555

#END
