
#######################################################################
#
#                 Cambridge Crystallographic Data Centre
#                                CCDC 
#
#######################################################################
#
# If this CIF has been generated from an entry in the Cambridge 
# Structural Database, then it will include bibliographic, chemical, 
# crystal, experimental, refinement or atomic coordinate data resulting 
# from the CCDC's data processing and validation procedures.
#
#######################################################################

data_INODUK01
_chemical_name_common            'N-(4-Nitrophenyl)benzamide-2-carboxylic acid'
_chemical_formula_moiety         'C14 H10 N2 O5'
_chemical_name_systematic        '2-(4-Nitrophenylaminocarbonyl)benzoic acid'
_symmetry_cell_setting           orthorhombic
_symmetry_space_group_name_H-M   'P 21 21 21'
_symmetry_Int_Tables_number      19
_space_group_name_Hall           'P 2ac 2ab'
loop_
_symmetry_equiv_pos_site_id
_symmetry_equiv_pos_as_xyz
1 x,y,z
2 1/2-x,-y,1/2+z
3 -x,1/2+y,1/2-z
4 1/2+x,1/2-y,-z
_cell_length_a                   3.9188(2)
_cell_length_b                   12.6896(6)
_cell_length_c                   27.7029(16)
_cell_angle_alpha                90
_cell_angle_beta                 90
_cell_angle_gamma                90
_cell_volume                     1377.61
_exptl_crystal_colour            colorless
_exptl_crystal_description       needle
_chemical_melting_point          '475-477 K'
_cell_formula_units_Z            4
_exptl_crystal_recrystallization_method ethanol
loop_
_atom_site_label
_atom_site_type_symbol
_atom_site_fract_x
_atom_site_fract_y
_atom_site_fract_z
N1 N 0.4342(8) 0.5589(2) 0.70323(8)
C1 C 0.5423(9) 0.5098(2) 0.78643(10)
C2 C 0.6198(10) 0.6014(2) 0.81186(10)
C3 C 0.5374(10) 0.6055(3) 0.86087(11)
C4 C 0.3895(10) 0.5198(3) 0.88373(11)
C5 C 0.3207(11) 0.4297(3) 0.85830(11)
C6 C 0.3992(10) 0.4238(2) 0.80935(11)
C7 C 0.6123(10) 0.4948(3) 0.73279(11)
C8 C 0.8051(9) 0.6899(2) 0.78949(10)
O1 O 0.8145(7) 0.77547(16) 0.81683(7)
O2 O 0.9420(6) 0.68670(16) 0.74998(7)
O3 O 0.8074(7) 0.42565(17) 0.71936(7)
C9 C 0.4494(9) 0.5637(2) 0.65252(10)
C10 C 0.5861(10) 0.4840(3) 0.62427(11)
C11 C 0.5869(10) 0.4974(3) 0.57478(11)
C12 C 0.4558(10) 0.5856(3) 0.55435(11)
C13 C 0.3161(10) 0.6659(3) 0.58184(10)
C14 C 0.3130(10) 0.6534(3) 0.63148(10)
N2 N 0.4617(9) 0.5952(3) 0.50187(10)
O4 O 0.2980(9) 0.6661(3) 0.48315(8)
O5 O 0.6302(9) 0.5322(3) 0.47881(9)
H1 H 0.3011 0.6027 0.7191
H2 H 0.5833 0.6678 0.8787
H3 H 0.3357 0.5236 0.9171
H4 H 0.2191 0.3711 0.8741
H5 H 0.3546 0.3609 0.7918
H6 H 0.9303 0.8223 0.8030
H7 H 0.6768 0.4220 0.6385
H8 H 0.6807 0.4440 0.5548
H9 H 0.2254 0.7274 0.5671
H10 H 0.2166 0.7068 0.6513
loop_
_geom_bond_atom_site_label_1
_geom_bond_atom_site_label_2
_geom_bond_site_symmetry_1
_geom_bond_site_symmetry_2
N1 C7 1_555 1_555
C1 C2 1_555 1_555
C2 C3 1_555 1_555
C3 C4 1_555 1_555
C4 C5 1_555 1_555
C5 C6 1_555 1_555
C6 C1 1_555 1_555
C7 C1 1_555 1_555
C8 C2 1_555 1_555
O1 C8 1_555 1_555
O2 C8 1_555 1_555
O3 C7 1_555 1_555
C9 N1 1_555 1_555
C10 C9 1_555 1_555
C11 C10 1_555 1_555
C12 C11 1_555 1_555
C13 C12 1_555 1_555
C14 C9 1_555 1_555
N2 C12 1_555 1_555
O4 N2 1_555 1_555
O5 N2 1_555 1_555
H1 N1 1_555 1_555
H2 C3 1_555 1_555
H3 C4 1_555 1_555
H4 C5 1_555 1_555
H5 C6 1_555 1_555
H6 O1 1_555 1_555
H7 C10 1_555 1_555
H8 C11 1_555 1_555
H9 C13 1_555 1_555
H10 C14 1_555 1_555
C13 C14 1_555 1_555

#END
