
#######################################################################
#
#                 Cambridge Crystallographic Data Centre
#                                CCDC 
#
#######################################################################
#
# If this CIF has been generated from an entry in the Cambridge 
# Structural Database, then it will include bibliographic, chemical, 
# crystal, experimental, refinement or atomic coordinate data resulting 
# from the CCDC's data processing and validation procedures.
#
#######################################################################

data_INOFEX
_chemical_formula_moiety         'C70 H110 Na2 O8,2(C7 H8)'
_chemical_name_systematic        
"bis(\m~2~-2,4-Di-t-butyl-6-(1-(3,5-di-t-butyl-2-(2-(2-methoxyethoxy)ethoxy)phenyl)ethyl)phenolato-O,O',O'':O'')-di-sodium(i) toluene solvate"
_symmetry_cell_setting           monoclinic
_symmetry_space_group_name_H-M   'P 21/c'
_symmetry_Int_Tables_number      14
_space_group_name_Hall           '-P 2ybc'
loop_
_symmetry_equiv_pos_site_id
_symmetry_equiv_pos_as_xyz
1 x,y,z
2 -x,1/2+y,1/2-z
3 -x,-y,-z
4 x,1/2-y,1/2+z
_cell_length_a                   16.6089(4)
_cell_length_b                   14.6139(4)
_cell_length_c                   17.1502(4)
_cell_angle_alpha                90
_cell_angle_beta                 91.724(1)
_cell_angle_gamma                90
_cell_volume                     4160.83
_exptl_crystal_colour            colorless
_exptl_crystal_description       block
_cell_formula_units_Z            2
_exptl_crystal_recrystallization_method toluene
loop_
_atom_site_label
_atom_site_type_symbol
_atom_site_fract_x
_atom_site_fract_y
_atom_site_fract_z
C32 C 0.4462(7) 0.5302(6) 0.4521(7)
H47 H 0.4080 0.5537 0.4168
C33 C 0.4152(8) 0.4898(8) 0.5170(9)
H48 H 0.3605 0.4836 0.5258
C36 C 0.5229(8) 0.5410(6) 0.4316(7)
C39 C 0.5550(11) 0.5719(13) 0.3728(10)
H54 H 0.5142 0.5946 0.3370
H55 H 0.5849 0.5242 0.3482
H56 H 0.5909 0.6208 0.3877
C32B C 0.5538(7) 0.4698(6) 0.5479(7)
H47B H 0.5920 0.4463 0.5832
C33B C 0.5848(8) 0.5102(8) 0.4830(9)
H48B H 0.6395 0.5164 0.4742
C36B C 0.4771(8) 0.4590(6) 0.5684(7)
C39B C 0.4450(11) 0.4281(13) 0.6272(10)
H54B H 0.4858 0.4054 0.6630
H55B H 0.4151 0.4758 0.6518
H56B H 0.4091 0.3792 0.6123
C34 C 0.0297(10) 0.5345(9) 0.9282(17)
C35 C 0.0735(8) 0.5251(9) 0.9991(11)
H49 H 0.1265 0.5454 0.9978
C37 C 0.060(2) 0.558(2) 0.874(2)
H50 H 0.1154 0.5722 0.8867
H51 H 0.0333 0.6112 0.8538
H52 H 0.0576 0.5099 0.8359
C38 C -0.0509(11) 0.5099(9) 0.9279(12)
H53 H -0.0860 0.5157 0.8849
C34B C -0.0297(10) 0.4655(9) 1.0718(17)
C35B C -0.0735(8) 0.4749(9) 1.0009(11)
H49B H -0.1265 0.4546 1.0022
C37B C -0.060(2) 0.442(2) 1.126(2)
H50B H -0.1154 0.4278 1.1133
H51B H -0.0333 0.3888 1.1462
H52B H -0.0576 0.4901 1.1641
C38B C 0.0509(11) 0.4901(9) 1.0721(12)
H53B H 0.0860 0.4843 1.1151
O1 O 0.72440(13) 0.68107(15) -0.08194(13)
C1 C 0.75427(17) 0.6473(2) -0.15169(17)
C2 C 0.81134(18) 0.6994(2) -0.19074(19)
C3 C 0.84312(18) 0.6602(2) -0.25731(18)
H1 H 0.8821 0.6926 -0.2836
C4 C 0.81967(17) 0.5756(2) -0.28623(17)
C5 C 0.75814(16) 0.53148(19) -0.24911(16)
H2 H 0.7381 0.4772 -0.2703
C6 C 0.72494(16) 0.56472(19) -0.18139(16)
C7 C 0.65767(16) 0.51212(19) -0.14253(17)
H3 H 0.6311 0.5556 -0.1082
C8 C 0.68744(15) 0.43371(19) -0.09103(16)
C9 C 0.74856(16) 0.3757(2) -0.11354(17)
H4 H 0.7728 0.3867 -0.1608
C10 C 0.77503(18) 0.3024(2) -0.06883(18)
C11 C 0.74025(19) 0.2926(2) 0.00343(18)
H5 H 0.7589 0.2456 0.0357
C12 C 0.67978(17) 0.3483(2) 0.03050(17)
C13 C 0.64864(16) 0.41867(19) -0.01954(17)
C14 C 0.8585(2) 0.5312(2) -0.35644(18)
C15 C 0.8865(3) 0.4366(3) -0.3362(3)
H6 H 0.9264 0.4396 -0.2945
H7 H 0.8416 0.4007 -0.3199
H8 H 0.9095 0.4088 -0.3810
C16 C 0.7947(3) 0.5212(4) -0.4235(2)
H9 H 0.8189 0.4930 -0.4676
H10 H 0.7511 0.4838 -0.4064
H11 H 0.7745 0.5805 -0.4380
C17 C 0.9257(3) 0.5869(4) -0.3875(3)
H12 H 0.9669 0.5945 -0.3476
H13 H 0.9478 0.5562 -0.4315
H14 H 0.9056 0.6458 -0.4034
C18 C 0.8390(2) 0.7961(2) -0.1650(2)
C19 C 0.8920(3) 0.8420(3) -0.2255(3)
H15 H 0.8621 0.8483 -0.2740
H16 H 0.9083 0.9014 -0.2070
H17 H 0.9389 0.8051 -0.2334
C20 C 0.8896(3) 0.7888(3) -0.0885(3)
H18 H 0.8576 0.7619 -0.0488
H19 H 0.9360 0.7513 -0.0967
H20 H 0.9066 0.8488 -0.0722
C21 C 0.7660(3) 0.8570(3) -0.1534(3)
H21 H 0.7318 0.8295 -0.1159
H22 H 0.7835 0.9159 -0.1349
H23 H 0.7367 0.8639 -0.2022
C22 C 0.59343(17) 0.4797(2) -0.20192(19)
H24 H 0.5520 0.4473 -0.1754
H25 H 0.5703 0.5316 -0.2286
H26 H 0.6176 0.4398 -0.2390
C23 C 0.8386(2) 0.2337(3) -0.0954(2)
C24 C 0.8793(3) 0.2649(3) -0.1692(2)
H27 H 0.9187 0.2203 -0.1836
H28 H 0.8396 0.2714 -0.2107
H29 H 0.9054 0.3227 -0.1598
C25 C 0.7980(3) 0.1417(3) -0.1116(3)
H30 H 0.7728 0.1206 -0.0653
H31 H 0.7580 0.1487 -0.1528
H32 H 0.8377 0.0981 -0.1270
C26 C 0.9045(2) 0.2217(3) -0.0315(2)
H33 H 0.8805 0.2022 0.0159
H34 H 0.9425 0.1765 -0.0477
H35 H 0.9317 0.2789 -0.0228
C27 C 0.6480(2) 0.3368(2) 0.11335(19)
C28 C 0.6891(3) 0.2563(3) 0.1564(2)
H36 H 0.6681 0.2510 0.2077
H37 H 0.6788 0.2007 0.1280
H38 H 0.7461 0.2669 0.1604
C29 C 0.5566(2) 0.3180(3) 0.1111(2)
H39 H 0.5383 0.3114 0.1634
H40 H 0.5289 0.3682 0.0861
H41 H 0.5457 0.2627 0.0825
C30 C 0.6664(3) 0.4247(3) 0.1606(2)
H42 H 0.6465 0.4181 0.2123
H43 H 0.7235 0.4346 0.1635
H44 H 0.6405 0.4759 0.1353
C31 C 0.7522(2) 0.6321(3) -0.01372(19)
H45 H 0.7240 0.5741 -0.0108
H46 H 0.8093 0.6195 -0.0173
O2 O 0.50294(15) 0.72243(18) 0.12334(16)
O3 O 0.65652(14) 0.68981(18) 0.07534(14)
C40 C 0.4326(3) 0.7746(3) 0.1234(3)
H57 H 0.4367 0.8195 0.1641
H58 H 0.4253 0.8047 0.0739
H59 H 0.3874 0.7354 0.1321
C41 C 0.5693(3) 0.7700(5) 0.1513(4)
H60 H 0.5637 0.7751 0.2073
H61 H 0.5645 0.8316 0.1305
C42 C 0.6415(3) 0.7447(4) 0.1406(3)
H62 H 0.6744 0.7993 0.1370
H63 H 0.6601 0.7117 0.1867
C43 C 0.7381(2) 0.6861(3) 0.0574(2)
H64 H 0.7580 0.7478 0.0502
H65 H 0.7682 0.6591 0.1009
Na1 Na 0.53495(7) 0.59807(8) 0.03742(7)
O4 O 0.58604(11) 0.46875(13) -0.00133(11)
O1B O 0.27560(13) 0.31893(15) 0.08194(13)
C1B C 0.24573(17) 0.3527(2) 0.15169(17)
C2B C 0.18866(18) 0.3006(2) 0.19074(19)
C3B C 0.15688(18) 0.3398(2) 0.25731(18)
H1B H 0.1179 0.3074 0.2836
C4B C 0.18033(17) 0.4244(2) 0.28623(17)
C5B C 0.24186(16) 0.46852(19) 0.24911(16)
H2B H 0.2619 0.5228 0.2703
C6B C 0.27506(16) 0.43528(19) 0.18139(16)
C7B C 0.34233(16) 0.48788(19) 0.14253(17)
H3B H 0.3689 0.4444 0.1082
C8B C 0.31256(15) 0.56629(19) 0.09103(16)
C9B C 0.25144(16) 0.6243(2) 0.11354(17)
H4B H 0.2272 0.6133 0.1608
C10B C 0.22497(18) 0.6976(2) 0.06883(18)
C11B C 0.25975(19) 0.7074(2) -0.00343(18)
H5B H 0.2411 0.7544 -0.0357
C12B C 0.32022(17) 0.6517(2) -0.03050(17)
C13B C 0.35136(16) 0.58133(19) 0.01954(17)
C14B C 0.1415(2) 0.4688(2) 0.35644(18)
C15B C 0.1135(3) 0.5634(3) 0.3362(3)
H6B H 0.0736 0.5604 0.2945
H7B H 0.1584 0.5993 0.3199
H8B H 0.0905 0.5912 0.3810
C16B C 0.2053(3) 0.4788(4) 0.4235(2)
H9B H 0.1811 0.5070 0.4676
H10B H 0.2489 0.5162 0.4064
H11B H 0.2255 0.4195 0.4380
C17B C 0.0743(3) 0.4131(4) 0.3875(3)
H12B H 0.0331 0.4055 0.3476
H13B H 0.0522 0.4438 0.4315
H14B H 0.0944 0.3542 0.4034
C18B C 0.1610(2) 0.2039(2) 0.1650(2)
C19B C 0.1080(3) 0.1580(3) 0.2255(3)
H15B H 0.1379 0.1517 0.2740
H16B H 0.0917 0.0986 0.2070
H17B H 0.0611 0.1949 0.2334
C20B C 0.1104(3) 0.2112(3) 0.0885(3)
H18B H 0.1424 0.2381 0.0488
H19B H 0.0640 0.2487 0.0967
H20B H 0.0934 0.1512 0.0722
C21B C 0.2340(3) 0.1430(3) 0.1534(3)
H21B H 0.2682 0.1705 0.1159
H22B H 0.2165 0.0841 0.1349
H23B H 0.2633 0.1361 0.2022
C22B C 0.40657(17) 0.5203(2) 0.20192(19)
H24B H 0.4480 0.5527 0.1754
H25B H 0.4297 0.4684 0.2286
H26B H 0.3824 0.5602 0.2390
C23B C 0.1614(2) 0.7663(3) 0.0954(2)
C24B C 0.1207(3) 0.7351(3) 0.1692(2)
H27B H 0.0813 0.7797 0.1836
H28B H 0.1604 0.7286 0.2107
H29B H 0.0946 0.6773 0.1598
C25B C 0.2020(3) 0.8583(3) 0.1116(3)
H30B H 0.2272 0.8794 0.0653
H31B H 0.2420 0.8513 0.1528
H32B H 0.1623 0.9019 0.1270
C26B C 0.0955(2) 0.7783(3) 0.0315(2)
H33B H 0.1195 0.7978 -0.0159
H34B H 0.0575 0.8235 0.0477
H35B H 0.0683 0.7211 0.0228
C27B C 0.3520(2) 0.6632(2) -0.11335(19)
C28B C 0.3109(3) 0.7437(3) -0.1564(2)
H36B H 0.3319 0.7490 -0.2077
H37B H 0.3212 0.7993 -0.1280
H38B H 0.2539 0.7331 -0.1604
C29B C 0.4434(2) 0.6820(3) -0.1111(2)
H39B H 0.4617 0.6886 -0.1634
H40B H 0.4711 0.6318 -0.0861
H41B H 0.4543 0.7373 -0.0825
C30B C 0.3336(3) 0.5753(3) -0.1606(2)
H42B H 0.3535 0.5819 -0.2123
H43B H 0.2765 0.5654 -0.1635
H44B H 0.3595 0.5241 -0.1353
C31B C 0.2478(2) 0.3679(3) 0.01372(19)
H45B H 0.2760 0.4259 0.0108
H46B H 0.1907 0.3805 0.0173
O2B O 0.49706(15) 0.27757(18) -0.12334(16)
O3B O 0.34348(14) 0.31019(18) -0.07534(14)
C40B C 0.5674(3) 0.2254(3) -0.1234(3)
H57B H 0.5633 0.1805 -0.1641
H58B H 0.5747 0.1953 -0.0739
H59B H 0.6126 0.2646 -0.1321
C41B C 0.4307(3) 0.2300(5) -0.1513(4)
H60B H 0.4363 0.2249 -0.2073
H61B H 0.4355 0.1684 -0.1305
C42B C 0.3585(3) 0.2553(4) -0.1406(3)
H62B H 0.3256 0.2007 -0.1370
H63B H 0.3399 0.2883 -0.1867
C43B C 0.2619(2) 0.3139(3) -0.0574(2)
H64B H 0.2420 0.2522 -0.0502
H65B H 0.2318 0.3409 -0.1009
Na1B Na 0.46505(7) 0.40193(8) -0.03742(7)
O4B O 0.41396(11) 0.53125(13) 0.00133(11)
loop_
_geom_bond_atom_site_label_1
_geom_bond_atom_site_label_2
_geom_bond_site_symmetry_1
_geom_bond_site_symmetry_2
O1 C1 1_555 1_555
C1 C2 1_555 1_555
C2 C3 1_555 1_555
C3 H1 1_555 1_555
C4 C3 1_555 1_555
C5 C4 1_555 1_555
H2 C5 1_555 1_555
C6 C1 1_555 1_555
C7 C6 1_555 1_555
H3 C7 1_555 1_555
C8 C7 1_555 1_555
C9 C8 1_555 1_555
H4 C9 1_555 1_555
C10 C9 1_555 1_555
C11 C10 1_555 1_555
H5 C11 1_555 1_555
C12 C11 1_555 1_555
C13 C8 1_555 1_555
C14 C4 1_555 1_555
C15 C14 1_555 1_555
H6 C15 1_555 1_555
H7 C15 1_555 1_555
H8 C15 1_555 1_555
C16 C14 1_555 1_555
H9 C16 1_555 1_555
H10 C16 1_555 1_555
H11 C16 1_555 1_555
C17 C14 1_555 1_555
H12 C17 1_555 1_555
H13 C17 1_555 1_555
H14 C17 1_555 1_555
C18 C2 1_555 1_555
C19 C18 1_555 1_555
H15 C19 1_555 1_555
H16 C19 1_555 1_555
H17 C19 1_555 1_555
C20 C18 1_555 1_555
H18 C20 1_555 1_555
H19 C20 1_555 1_555
H20 C20 1_555 1_555
C21 C18 1_555 1_555
H21 C21 1_555 1_555
H22 C21 1_555 1_555
H23 C21 1_555 1_555
C22 C7 1_555 1_555
H24 C22 1_555 1_555
H25 C22 1_555 1_555
H26 C22 1_555 1_555
C23 C10 1_555 1_555
C24 C23 1_555 1_555
H27 C24 1_555 1_555
H28 C24 1_555 1_555
H29 C24 1_555 1_555
C25 C23 1_555 1_555
H30 C25 1_555 1_555
H31 C25 1_555 1_555
H32 C25 1_555 1_555
C26 C23 1_555 1_555
H33 C26 1_555 1_555
H34 C26 1_555 1_555
H35 C26 1_555 1_555
C27 C12 1_555 1_555
C28 C27 1_555 1_555
H36 C28 1_555 1_555
H37 C28 1_555 1_555
H38 C28 1_555 1_555
C29 C27 1_555 1_555
H39 C29 1_555 1_555
H40 C29 1_555 1_555
H41 C29 1_555 1_555
C30 C27 1_555 1_555
H42 C30 1_555 1_555
H43 C30 1_555 1_555
H44 C30 1_555 1_555
C31 O1 1_555 1_555
H45 C31 1_555 1_555
H46 C31 1_555 1_555
C32 H47 1_555 1_555
C33 C32 1_555 1_555
H48 C33 1_555 1_555
C34 C35 1_555 1_555
C35 H49 1_555 1_555
C36 C32 1_555 1_555
C37 C34 1_555 1_555
H50 C37 1_555 1_555
H51 C37 1_555 1_555
H52 C37 1_555 1_555
C38 C34 1_555 1_555
H53 C38 1_555 1_555
C39 C36 1_555 1_555
H54 C39 1_555 1_555
H55 C39 1_555 1_555
H56 C39 1_555 1_555
O2 C40 1_555 1_555
O3 C42 1_555 1_555
C40 H57 1_555 1_555
H58 C40 1_555 1_555
H59 C40 1_555 1_555
C41 O2 1_555 1_555
H60 C41 1_555 1_555
H61 C41 1_555 1_555
C42 C41 1_555 1_555
H62 C42 1_555 1_555
H63 C42 1_555 1_555
C43 C31 1_555 1_555
H64 C43 1_555 1_555
H65 C43 1_555 1_555
Na1 O2 1_555 1_555
O4 C13 1_555 1_555
O1B C1B 1_555 1_555
C1B C2B 1_555 1_555
C2B C3B 1_555 1_555
C3B H1B 1_555 1_555
C4B C3B 1_555 1_555
C5B C4B 1_555 1_555
H2B C5B 1_555 1_555
C6B C1B 1_555 1_555
C7B C6B 1_555 1_555
H3B C7B 1_555 1_555
C8B C7B 1_555 1_555
C9B C8B 1_555 1_555
H4B C9B 1_555 1_555
C10B C9B 1_555 1_555
C11B C10B 1_555 1_555
H5B C11B 1_555 1_555
C12B C11B 1_555 1_555
C13B C8B 1_555 1_555
C14B C4B 1_555 1_555
C15B C14B 1_555 1_555
H6B C15B 1_555 1_555
H7B C15B 1_555 1_555
H8B C15B 1_555 1_555
C16B C14B 1_555 1_555
H9B C16B 1_555 1_555
H10B C16B 1_555 1_555
H11B C16B 1_555 1_555
C17B C14B 1_555 1_555
H12B C17B 1_555 1_555
H13B C17B 1_555 1_555
H14B C17B 1_555 1_555
C18B C2B 1_555 1_555
C19B C18B 1_555 1_555
H15B C19B 1_555 1_555
H16B C19B 1_555 1_555
H17B C19B 1_555 1_555
C20B C18B 1_555 1_555
H18B C20B 1_555 1_555
H19B C20B 1_555 1_555
H20B C20B 1_555 1_555
C21B C18B 1_555 1_555
H21B C21B 1_555 1_555
H22B C21B 1_555 1_555
H23B C21B 1_555 1_555
C22B C7B 1_555 1_555
H24B C22B 1_555 1_555
H25B C22B 1_555 1_555
H26B C22B 1_555 1_555
C23B C10B 1_555 1_555
C24B C23B 1_555 1_555
H27B C24B 1_555 1_555
H28B C24B 1_555 1_555
H29B C24B 1_555 1_555
C25B C23B 1_555 1_555
H30B C25B 1_555 1_555
H31B C25B 1_555 1_555
H32B C25B 1_555 1_555
C26B C23B 1_555 1_555
H33B C26B 1_555 1_555
H34B C26B 1_555 1_555
H35B C26B 1_555 1_555
C27B C12B 1_555 1_555
C28B C27B 1_555 1_555
H36B C28B 1_555 1_555
H37B C28B 1_555 1_555
H38B C28B 1_555 1_555
C29B C27B 1_555 1_555
H39B C29B 1_555 1_555
H40B C29B 1_555 1_555
H41B C29B 1_555 1_555
C30B C27B 1_555 1_555
H42B C30B 1_555 1_555
H43B C30B 1_555 1_555
H44B C30B 1_555 1_555
C31B O1B 1_555 1_555
H45B C31B 1_555 1_555
H46B C31B 1_555 1_555
C32B H47B 1_555 1_555
C33B C36 1_555 1_555
H48B C33B 1_555 1_555
C34B C35B 1_555 1_555
C35B C38 1_555 1_555
H49B C35B 1_555 1_555
C36B C33 1_555 1_555
C37B C34B 1_555 1_555
H50B C37B 1_555 1_555
H51B C37B 1_555 1_555
H52B C37B 1_555 1_555
C38B C35 1_555 1_555
H53B C38B 1_555 1_555
C39B C36B 1_555 1_555
H54B C39B 1_555 1_555
H55B C39B 1_555 1_555
H56B C39B 1_555 1_555
O2B C40B 1_555 1_555
O3B C42B 1_555 1_555
C40B H57B 1_555 1_555
H58B C40B 1_555 1_555
H59B C40B 1_555 1_555
C41B O2B 1_555 1_555
H60B C41B 1_555 1_555
H61B C41B 1_555 1_555
C42B C41B 1_555 1_555
H62B C42B 1_555 1_555
H63B C42B 1_555 1_555
C43B C31B 1_555 1_555
H64B C43B 1_555 1_555
H65B C43B 1_555 1_555
Na1B O4 1_555 1_555
O4B Na1 1_555 1_555
C5 C6 1_555 1_555
C12 C13 1_555 1_555
O3 C43 1_555 1_555
O3 Na1 1_555 1_555
Na1 O4 1_555 1_555
C5B C6B 1_555 1_555
C12B C13B 1_555 1_555
C13B O4B 1_555 1_555
C32B C33B 1_555 1_555
C32B C36B 1_555 1_555
C34B C38B 1_555 1_555
O2B Na1B 1_555 1_555
O3B C43B 1_555 1_555
O3B Na1B 1_555 1_555
Na1B O4B 1_555 1_555

#END
