
#######################################################################
#
#                 Cambridge Crystallographic Data Centre
#                                CCDC 
#
#######################################################################
#
# If this CIF has been generated from an entry in the Cambridge 
# Structural Database, then it will include bibliographic, chemical, 
# crystal, experimental, refinement or atomic coordinate data resulting 
# from the CCDC's data processing and validation procedures.
#
#######################################################################

data_INOFAT
_chemical_formula_moiety         'C70 H110 K2 O8,2(C7 H8)'
_chemical_name_systematic        
"bis(\m~2~-2,4-Di-t-butyl-6-(1-(3,5-di-t-butyl-2-(2-(2-methoxyethoxy)ethoxy)phenyl)ethyl)phenolato-O,O',O'':O'')-di-potassium(i) toluene solvate"
_symmetry_cell_setting           monoclinic
_symmetry_space_group_name_H-M   'P 21/c'
_symmetry_Int_Tables_number      14
_space_group_name_Hall           '-P 2ybc'
loop_
_symmetry_equiv_pos_site_id
_symmetry_equiv_pos_as_xyz
1 x,y,z
2 -x,1/2+y,1/2-z
3 -x,-y,-z
4 x,1/2-y,1/2+z
_cell_length_a                   16.6160(4)
_cell_length_b                   15.0181(4)
_cell_length_c                   17.1759(5)
_cell_angle_alpha                90
_cell_angle_beta                 90.311(1)
_cell_angle_gamma                90
_cell_volume                     4286.02
_exptl_crystal_colour            colorless
_exptl_crystal_description       block
_cell_formula_units_Z            2
_exptl_crystal_recrystallization_method toluene
loop_
_atom_site_label
_atom_site_type_symbol
_atom_site_fract_x
_atom_site_fract_y
_atom_site_fract_z
C32 C -0.054(2) 0.5342(13) 0.4467(17)
H47 H -0.0898 0.5578 0.4101
C33 C 0.030(2) 0.5390(12) 0.4372(15)
C34 C -0.0803(16) 0.4935(16) 0.512(2)
H48 H -0.1353 0.4887 0.5206
C39 C 0.053(2) 0.572(2) 0.3726(19)
H54 H 0.1104 0.5722 0.3703
H55 H 0.0329 0.6316 0.3679
H56 H 0.0317 0.5363 0.3307
C32B C 0.054(2) 0.4658(13) 0.5533(17)
H47B H 0.0898 0.4422 0.5899
C33B C -0.030(2) 0.4610(12) 0.5628(15)
C34B C 0.0803(16) 0.5065(16) 0.488(2)
H48B H 0.1353 0.5113 0.4794
C39B C -0.053(2) 0.428(2) 0.6274(19)
H54B H -0.1104 0.4278 0.6297
H55B H -0.0329 0.3684 0.6321
H56B H -0.0317 0.4637 0.6693
C35 C 0.5328(12) 0.9665(9) 0.4301(15)
C36 C 0.559(2) 0.948(2) 0.3693(16)
H49 H 0.6127 0.9253 0.3757
H50 H 0.5601 0.9999 0.3369
H51 H 0.5258 0.9032 0.3454
C37 C 0.5734(9) 0.9655(9) 0.4996(15)
H52 H 0.6240 0.9390 0.5001
C38 C 0.4535(14) 1.0002(10) 0.4317(14)
H53 H 0.4208 0.9990 0.3876
C35B C 0.4672(12) 1.0335(9) 0.5699(15)
C36B C 0.441(2) 1.052(2) 0.6307(16)
H49B H 0.3873 1.0747 0.6243
H50B H 0.4399 1.0001 0.6631
H51B H 0.4742 1.0968 0.6546
C37B C 0.4266(9) 1.0345(9) 0.5004(15)
H52B H 0.3760 1.0610 0.4999
C38B C 0.5465(14) 0.9998(10) 0.5683(14)
H53B H 0.5792 1.0010 0.6124
O1 O -0.22835(15) 1.16842(18) 0.56973(16)
C1 C -0.1546(2) 0.9130(3) 0.5086(2)
O2 O -0.09704(15) 0.96624(17) 0.48476(15)
C2 C -0.1838(2) 0.8411(3) 0.4610(2)
C3 C -0.2404(2) 0.7846(3) 0.4920(2)
H1 H -0.2571 0.7368 0.4616
C4 C -0.2746(2) 0.7938(3) 0.5658(2)
C5 C -0.2487(2) 0.8668(3) 0.6083(2)
H2 H -0.2715 0.8770 0.6569
C6 C -0.1905(2) 0.9255(2) 0.5819(2)
C7 C -0.1626(2) 1.0041(2) 0.6318(2)
H3 H -0.1356 1.0457 0.5965
C8 C -0.2297(2) 1.0557(2) 0.6705(2)
C9 C -0.2593(2) 1.1360(3) 0.6401(2)
C10 C -0.3163(2) 1.1877(3) 0.6800(2)
C11 C -0.3480(2) 1.1506(3) 0.7477(2)
H4 H -0.3874 1.1824 0.7741
C12 C -0.3241(2) 1.0695(3) 0.7778(2)
C13 C -0.2631(2) 1.0253(2) 0.7393(2)
H5 H -0.2436 0.9726 0.7607
C14 C -0.3439(3) 1.2804(3) 0.6526(3)
C15 C -0.3977(3) 1.2712(4) 0.5800(3)
H6 H -0.4146 1.3292 0.5630
H7 H -0.3680 1.2427 0.5392
H8 H -0.4441 1.2360 0.5924
C16 C -0.2718(4) 1.3401(3) 0.6363(4)
H9 H -0.2392 1.3448 0.6824
H10 H -0.2405 1.3149 0.5950
H11 H -0.2903 1.3982 0.6213
C17 C -0.3949(4) 1.3273(3) 0.7152(3)
H12 H -0.3633 1.3346 0.7617
H13 H -0.4116 1.3845 0.6964
H14 H -0.4414 1.2918 0.7265
C18 C -0.3627(3) 1.0290(3) 0.8498(2)
C19 C -0.2979(4) 1.0223(5) 0.9155(3)
H15 H -0.3216 0.9968 0.9612
H16 H -0.2544 0.9852 0.8983
H17 H -0.2778 1.0806 0.9274
C20 C -0.3863(4) 0.9351(4) 0.8365(4)
H18 H -0.4265 0.9325 0.7962
H19 H -0.3400 0.9014 0.8209
H20 H -0.4076 0.9106 0.8837
C21 C -0.4274(5) 1.0826(5) 0.8830(5)
H21 H -0.4696 1.0897 0.8451
H22 H -0.4483 1.0532 0.9282
H23 H -0.4068 1.1400 0.8974
C22 C -0.0989(2) 0.9739(3) 0.6914(2)
H24 H -0.0819 1.0240 0.7220
H25 H -0.1215 0.9293 0.7248
H26 H -0.0534 0.9495 0.6645
C23 C -0.3367(3) 0.7268(3) 0.5949(2)
C24 C -0.4049(3) 0.7169(4) 0.5341(3)
H27 H -0.4439 0.6750 0.5527
H28 H -0.4303 0.7736 0.5260
H29 H -0.3829 0.6961 0.4859
C25 C -0.2961(4) 0.6369(3) 0.6068(4)
H30 H -0.2536 0.6427 0.6446
H31 H -0.3349 0.5945 0.6249
H32 H -0.2741 0.6168 0.5583
C26 C -0.3755(3) 0.7563(4) 0.6709(3)
H33 H -0.3347 0.7634 0.7101
H34 H -0.4027 0.8120 0.6630
H35 H -0.4135 0.7122 0.6874
C27 C -0.1547(3) 0.8301(3) 0.3768(2)
C28 C -0.1941(3) 0.7499(4) 0.3365(3)
H36 H -0.1804 0.6964 0.3641
H37 H -0.2515 0.7573 0.3362
H38 H -0.1751 0.7458 0.2839
C29 C -0.1779(3) 0.9143(4) 0.3309(3)
H39 H -0.1602 0.9086 0.2780
H40 H -0.2353 0.9217 0.3316
H41 H -0.1528 0.9653 0.3543
C30 C -0.0632(3) 0.8169(4) 0.3727(3)
H42 H -0.0484 0.7645 0.4014
H43 H -0.0475 0.8102 0.3194
H44 H -0.0366 0.8677 0.3948
C31 C -0.2543(3) 1.1217(3) 0.5008(2)
H45 H -0.2218 1.0686 0.4939
H46 H -0.3099 1.1033 0.5065
C40 C -0.2465(3) 1.1802(3) 0.4314(3)
H57 H -0.2773 1.2343 0.4395
H58 H -0.2686 1.1500 0.3862
O3 O -0.0121(2) 1.2454(2) 0.3649(2)
O4 O -0.16590(18) 1.2024(2) 0.41724(17)
C41 C -0.1534(4) 1.2537(5) 0.3511(4)
H59 H -0.1589 1.2159 0.3056
H60 H -0.1950 1.2990 0.3482
C42 C -0.0773(4) 1.2956(5) 0.3492(4)
H61 H -0.0781 1.3445 0.3861
H62 H -0.0705 1.3213 0.2978
C43 C 0.0621(4) 1.2874(4) 0.3730(3)
H63 H 0.0670 1.3331 0.3341
H64 H 0.0661 1.3137 0.4238
H65 H 0.1044 1.2446 0.3665
K1 K -0.03484(6) 1.11545(6) 0.47001(7)
O1B O 0.22835(15) 0.83158(18) 0.43027(16)
C1B C 0.1546(2) 1.0870(3) 0.4914(2)
O2B O 0.09704(15) 1.03376(17) 0.51524(15)
C2B C 0.1838(2) 1.1589(3) 0.5390(2)
C3B C 0.2404(2) 1.2154(3) 0.5080(2)
H1B H 0.2571 1.2632 0.5384
C4B C 0.2746(2) 1.2062(3) 0.4342(2)
C5B C 0.2487(2) 1.1332(3) 0.3917(2)
H2B H 0.2715 1.1230 0.3431
C6B C 0.1905(2) 1.0745(2) 0.4181(2)
C7B C 0.1626(2) 0.9959(2) 0.3682(2)
H3B H 0.1356 0.9543 0.4035
C8B C 0.2297(2) 0.9443(2) 0.3295(2)
C9B C 0.2593(2) 0.8640(3) 0.3599(2)
C10B C 0.3163(2) 0.8123(3) 0.3200(2)
C11B C 0.3480(2) 0.8494(3) 0.2523(2)
H4B H 0.3874 0.8176 0.2259
C12B C 0.3241(2) 0.9305(3) 0.2222(2)
C13B C 0.2631(2) 0.9747(2) 0.2607(2)
H5B H 0.2436 1.0274 0.2393
C14B C 0.3439(3) 0.7196(3) 0.3474(3)
C15B C 0.3977(3) 0.7288(4) 0.4200(3)
H6B H 0.4146 0.6708 0.4370
H7B H 0.3680 0.7573 0.4608
H8B H 0.4441 0.7640 0.4076
C16B C 0.2718(4) 0.6599(3) 0.3637(4)
H9B H 0.2392 0.6552 0.3176
H10B H 0.2405 0.6851 0.4050
H11B H 0.2903 0.6018 0.3787
C17B C 0.3949(4) 0.6727(3) 0.2848(3)
H12B H 0.3633 0.6654 0.2383
H13B H 0.4116 0.6155 0.3036
H14B H 0.4414 0.7082 0.2735
C18B C 0.3627(3) 0.9710(3) 0.1502(2)
C19B C 0.2979(4) 0.9777(5) 0.0845(3)
H15B H 0.3216 1.0032 0.0388
H16B H 0.2544 1.0148 0.1017
H17B H 0.2778 0.9194 0.0726
C20B C 0.3863(4) 1.0649(4) 0.1635(4)
H18B H 0.4265 1.0675 0.2038
H19B H 0.3400 1.0986 0.1791
H20B H 0.4076 1.0894 0.1163
C21B C 0.4274(5) 0.9174(5) 0.1170(5)
H21B H 0.4696 0.9103 0.1549
H22B H 0.4483 0.9468 0.0718
H23B H 0.4068 0.8600 0.1026
C22B C 0.0989(2) 1.0261(3) 0.3086(2)
H24B H 0.0819 0.9760 0.2780
H25B H 0.1215 1.0707 0.2752
H26B H 0.0534 1.0505 0.3355
C23B C 0.3367(3) 1.2732(3) 0.4051(2)
C24B C 0.4049(3) 1.2831(4) 0.4659(3)
H27B H 0.4439 1.3250 0.4473
H28B H 0.4303 1.2264 0.4740
H29B H 0.3829 1.3039 0.5141
C25B C 0.2961(4) 1.3631(3) 0.3932(4)
H30B H 0.2536 1.3573 0.3554
H31B H 0.3349 1.4055 0.3751
H32B H 0.2741 1.3832 0.4417
C26B C 0.3755(3) 1.2437(4) 0.3291(3)
H33B H 0.3347 1.2366 0.2899
H34B H 0.4027 1.1880 0.3370
H35B H 0.4135 1.2878 0.3126
C27B C 0.1547(3) 1.1699(3) 0.6232(2)
C28B C 0.1941(3) 1.2501(4) 0.6635(3)
H36B H 0.1804 1.3036 0.6359
H37B H 0.2515 1.2427 0.6638
H38B H 0.1751 1.2542 0.7161
C29B C 0.1779(3) 1.0857(4) 0.6691(3)
H39B H 0.1602 1.0914 0.7220
H40B H 0.2353 1.0783 0.6684
H41B H 0.1528 1.0347 0.6457
C30B C 0.0632(3) 1.1831(4) 0.6273(3)
H42B H 0.0484 1.2355 0.5986
H43B H 0.0475 1.1898 0.6806
H44B H 0.0366 1.1323 0.6052
C31B C 0.2543(3) 0.8783(3) 0.4992(2)
H45B H 0.2218 0.9314 0.5061
H46B H 0.3099 0.8967 0.4935
C40B C 0.2465(3) 0.8198(3) 0.5686(3)
H57B H 0.2773 0.7657 0.5605
H58B H 0.2686 0.8500 0.6138
O3B O 0.0121(2) 0.7546(2) 0.6351(2)
O4B O 0.16590(18) 0.7976(2) 0.58276(17)
C41B C 0.1534(4) 0.7463(5) 0.6489(4)
H59B H 0.1589 0.7841 0.6944
H60B H 0.1950 0.7010 0.6518
C42B C 0.0773(4) 0.7044(5) 0.6508(4)
H61B H 0.0781 0.6555 0.6139
H62B H 0.0705 0.6787 0.7022
C43B C -0.0621(4) 0.7126(4) 0.6270(3)
H63B H -0.0670 0.6669 0.6659
H64B H -0.0661 0.6863 0.5762
H65B H -0.1044 0.7554 0.6335
K1B K 0.03484(6) 0.88455(6) 0.52999(7)
loop_
_geom_bond_atom_site_label_1
_geom_bond_atom_site_label_2
_geom_bond_site_symmetry_1
_geom_bond_site_symmetry_2
O1 C9 1_555 1_555
C1 O2 1_555 1_555
O2 K1 1_555 1_555
C2 C1 1_555 1_555
C3 C2 1_555 1_555
H1 C3 1_555 1_555
C4 C3 1_555 1_555
C5 C4 1_555 1_555
H2 C5 1_555 1_555
C6 C1 1_555 1_555
C7 C6 1_555 1_555
H3 C7 1_555 1_555
C8 C7 1_555 1_555
C9 C8 1_555 1_555
C10 C9 1_555 1_555
C11 C10 1_555 1_555
H4 C11 1_555 1_555
C12 C11 1_555 1_555
C13 C8 1_555 1_555
H5 C13 1_555 1_555
C14 C10 1_555 1_555
C15 C14 1_555 1_555
H6 C15 1_555 1_555
H7 C15 1_555 1_555
H8 C15 1_555 1_555
C16 C14 1_555 1_555
H9 C16 1_555 1_555
H10 C16 1_555 1_555
H11 C16 1_555 1_555
C17 C14 1_555 1_555
H12 C17 1_555 1_555
H13 C17 1_555 1_555
H14 C17 1_555 1_555
C18 C12 1_555 1_555
C19 C18 1_555 1_555
H15 C19 1_555 1_555
H16 C19 1_555 1_555
H17 C19 1_555 1_555
C20 C18 1_555 1_555
H18 C20 1_555 1_555
H19 C20 1_555 1_555
H20 C20 1_555 1_555
C21 C18 1_555 1_555
H21 C21 1_555 1_555
H22 C21 1_555 1_555
H23 C21 1_555 1_555
C22 C7 1_555 1_555
H24 C22 1_555 1_555
H25 C22 1_555 1_555
H26 C22 1_555 1_555
C23 C4 1_555 1_555
C24 C23 1_555 1_555
H27 C24 1_555 1_555
H28 C24 1_555 1_555
H29 C24 1_555 1_555
C25 C23 1_555 1_555
H30 C25 1_555 1_555
H31 C25 1_555 1_555
H32 C25 1_555 1_555
C26 C23 1_555 1_555
H33 C26 1_555 1_555
H34 C26 1_555 1_555
H35 C26 1_555 1_555
C27 C2 1_555 1_555
C28 C27 1_555 1_555
H36 C28 1_555 1_555
H37 C28 1_555 1_555
H38 C28 1_555 1_555
C29 C27 1_555 1_555
H39 C29 1_555 1_555
H40 C29 1_555 1_555
H41 C29 1_555 1_555
C30 C27 1_555 1_555
H42 C30 1_555 1_555
H43 C30 1_555 1_555
H44 C30 1_555 1_555
C31 O1 1_555 1_555
H45 C31 1_555 1_555
H46 C31 1_555 1_555
C32 H47 1_555 1_555
C33 C32 1_555 1_555
C34 C32 1_555 1_555
H48 C34 1_555 1_555
C35 C36 1_555 1_555
C36 H49 1_555 1_555
H50 C36 1_555 1_555
H51 C36 1_555 1_555
C37 C35 1_555 1_555
H52 C37 1_555 1_555
C38 C35 1_555 1_555
H53 C38 1_555 1_555
C39 C33 1_555 1_555
H54 C39 1_555 1_555
H55 C39 1_555 1_555
H56 C39 1_555 1_555
C40 C31 1_555 1_555
H57 C40 1_555 1_555
H58 C40 1_555 1_555
O3 C42 1_555 1_555
O4 C40 1_555 1_555
C41 O4 1_555 1_555
H59 C41 1_555 1_555
H60 C41 1_555 1_555
C42 C41 1_555 1_555
H61 C42 1_555 1_555
H62 C42 1_555 1_555
C43 O3 1_555 1_555
H63 C43 1_555 1_555
H64 C43 1_555 1_555
H65 C43 1_555 1_555
K1 O3 1_555 1_555
O1B C9B 1_555 1_555
C1B O2B 1_555 1_555
O2B K1 1_555 1_555
C2B C1B 1_555 1_555
C3B C2B 1_555 1_555
H1B C3B 1_555 1_555
C4B C3B 1_555 1_555
C5B C4B 1_555 1_555
H2B C5B 1_555 1_555
C6B C1B 1_555 1_555
C7B C6B 1_555 1_555
H3B C7B 1_555 1_555
C8B C7B 1_555 1_555
C9B C8B 1_555 1_555
C10B C9B 1_555 1_555
C11B C10B 1_555 1_555
H4B C11B 1_555 1_555
C12B C11B 1_555 1_555
C13B C8B 1_555 1_555
H5B C13B 1_555 1_555
C14B C10B 1_555 1_555
C15B C14B 1_555 1_555
H6B C15B 1_555 1_555
H7B C15B 1_555 1_555
H8B C15B 1_555 1_555
C16B C14B 1_555 1_555
H9B C16B 1_555 1_555
H10B C16B 1_555 1_555
H11B C16B 1_555 1_555
C17B C14B 1_555 1_555
H12B C17B 1_555 1_555
H13B C17B 1_555 1_555
H14B C17B 1_555 1_555
C18B C12B 1_555 1_555
C19B C18B 1_555 1_555
H15B C19B 1_555 1_555
H16B C19B 1_555 1_555
H17B C19B 1_555 1_555
C20B C18B 1_555 1_555
H18B C20B 1_555 1_555
H19B C20B 1_555 1_555
H20B C20B 1_555 1_555
C21B C18B 1_555 1_555
H21B C21B 1_555 1_555
H22B C21B 1_555 1_555
H23B C21B 1_555 1_555
C22B C7B 1_555 1_555
H24B C22B 1_555 1_555
H25B C22B 1_555 1_555
H26B C22B 1_555 1_555
C23B C4B 1_555 1_555
C24B C23B 1_555 1_555
H27B C24B 1_555 1_555
H28B C24B 1_555 1_555
H29B C24B 1_555 1_555
C25B C23B 1_555 1_555
H30B C25B 1_555 1_555
H31B C25B 1_555 1_555
H32B C25B 1_555 1_555
C26B C23B 1_555 1_555
H33B C26B 1_555 1_555
H34B C26B 1_555 1_555
H35B C26B 1_555 1_555
C27B C2B 1_555 1_555
C28B C27B 1_555 1_555
H36B C28B 1_555 1_555
H37B C28B 1_555 1_555
H38B C28B 1_555 1_555
C29B C27B 1_555 1_555
H39B C29B 1_555 1_555
H40B C29B 1_555 1_555
H41B C29B 1_555 1_555
C30B C27B 1_555 1_555
H42B C30B 1_555 1_555
H43B C30B 1_555 1_555
H44B C30B 1_555 1_555
C31B O1B 1_555 1_555
H45B C31B 1_555 1_555
H46B C31B 1_555 1_555
C32B H47B 1_555 1_555
C33B C34 1_555 1_555
C34B C33 1_555 1_555
H48B C34B 1_555 1_555
C35B C36B 1_555 1_555
C36B H49B 1_555 1_555
H50B C36B 1_555 1_555
H51B C36B 1_555 1_555
C37B C38 1_555 1_555
H52B C37B 1_555 1_555
C38B C37 1_555 1_555
H53B C38B 1_555 1_555
C39B C33B 1_555 1_555
H54B C39B 1_555 1_555
H55B C39B 1_555 1_555
H56B C39B 1_555 1_555
C40B C31B 1_555 1_555
H57B C40B 1_555 1_555
H58B C40B 1_555 1_555
O3B C42B 1_555 1_555
O4B C40B 1_555 1_555
C41B O4B 1_555 1_555
H59B C41B 1_555 1_555
H60B C41B 1_555 1_555
C42B C41B 1_555 1_555
H61B C42B 1_555 1_555
H62B C42B 1_555 1_555
C43B O3B 1_555 1_555
H63B C43B 1_555 1_555
H64B C43B 1_555 1_555
H65B C43B 1_555 1_555
K1B O2 1_555 1_555
C5 C6 1_555 1_555
C12 C13 1_555 1_555
O4 K1 1_555 1_555
O2B K1B 1_555 1_555
C5B C6B 1_555 1_555
C12B C13B 1_555 1_555
C32B C33B 1_555 1_555
C32B C34B 1_555 1_555
C35B C37B 1_555 1_555
C35B C38B 1_555 1_555
O3B K1B 1_555 1_555
O4B K1B 1_555 1_555

#END
