
#######################################################################
#
#                 Cambridge Crystallographic Data Centre
#                                CCDC 
#
#######################################################################
#
# If this CIF has been generated from an entry in the Cambridge 
# Structural Database, then it will include bibliographic, chemical, 
# crystal, experimental, refinement or atomic coordinate data resulting 
# from the CCDC's data processing and validation procedures.
#
#######################################################################

data_INOLUT
_chemical_name_common            
1,4-bis(2,2-bis(4-n-Butoxyphenyl)vinyl)benzene
_chemical_formula_moiety         'C50 H58 O4'
_chemical_name_systematic        
1,1',1'',1'''-(1,4-Phenylenediethene-2,1,1-triyl)tetrakis(4-butoxybenzene)
_symmetry_cell_setting           monoclinic
_symmetry_space_group_name_H-M   'P 21/c'
_symmetry_Int_Tables_number      14
_space_group_name_Hall           '-P 2ybc'
loop_
_symmetry_equiv_pos_site_id
_symmetry_equiv_pos_as_xyz
1 x,y,z
2 -x,1/2+y,1/2-z
3 -x,-y,-z
4 x,1/2-y,1/2+z
_cell_length_a                   15.644(5)
_cell_length_b                   29.507(10)
_cell_length_c                   9.359(3)
_cell_angle_alpha                90
_cell_angle_beta                 92.468(7)
_cell_angle_gamma                90
_cell_volume                     4316.18
_exptl_crystal_colour            yellow
_exptl_crystal_description       stick
_chemical_melting_point          '128-131 deg.C'
_cell_formula_units_Z            4
_exptl_crystal_recrystallization_method acetone/petroleum
loop_
_atom_site_label
_atom_site_type_symbol
_atom_site_fract_x
_atom_site_fract_y
_atom_site_fract_z
C1 C 0.9274(4) 1.25878(17) 0.5906(8)
H1 H 0.9841 1.2569 0.5555
H2 H 0.9281 1.2778 0.6739
H3 H 0.8894 1.2715 0.5179
C2 C 0.8961(3) 1.21065(16) 0.6301(6)
H4 H 0.9329 1.1986 0.7071
H5 H 0.8385 1.2126 0.6641
C3 C 0.8965(3) 1.17956(15) 0.5070(5)
H6 H 0.9531 1.1795 0.4687
H7 H 0.8566 1.1907 0.4329
C4 C 0.8723(3) 1.13107(13) 0.5451(5)
H8 H 0.8778 1.1114 0.4630
H9 H 0.9098 1.1199 0.6225
C5 C 0.7458(2) 1.09061(12) 0.6039(3)
C6 C 0.7867(2) 1.04886(12) 0.6040(3)
H10 H 0.8456 1.0472 0.5961
C7 C 0.7391(2) 1.00997(11) 0.6160(3)
H11 H 0.7669 0.9821 0.6145
C8 C 0.6513(2) 1.01069(11) 0.6301(3)
C9 C 0.6117(2) 1.05288(12) 0.6303(3)
H12 H 0.5528 1.0546 0.6392
C10 C 0.6584(2) 1.09200(12) 0.6175(4)
H13 H 0.6306 1.1199 0.6180
C11 C 0.5994(2) 0.96806(11) 0.6327(4)
C12 C 0.5422(2) 0.95876(11) 0.7321(4)
H14 H 0.5080 0.9337 0.7106
C13 C 0.5236(2) 0.98079(11) 0.8681(4)
C14 C 0.5771(2) 1.01086(12) 0.9440(4)
H15 H 0.6298 1.0184 0.9081
C15 C 0.5537(2) 1.02958(12) 1.0706(4)
H16 H 0.5907 1.0499 1.1173
C16 C 0.6054(2) 0.93694(11) 0.5076(4)
C17 C 0.5811(2) 0.89164(12) 0.5122(4)
H17 H 0.5642 0.8797 0.5985
C18 C 0.5809(2) 0.86385(13) 0.3948(4)
H18 H 0.5643 0.8337 0.4025
C19 C 0.6055(3) 0.88062(13) 0.2649(4)
C20 C 0.6317(2) 0.92534(12) 0.2570(4)
H19 H 0.6499 0.9370 0.1710
C21 C 0.6310(2) 0.95278(12) 0.3771(4)
H20 H 0.6484 0.9828 0.3697
C22 C 0.6498(8) 0.8638(3) 0.0260(10)
H21 H 0.7075 0.8731 0.0549
H22 H 0.6215 0.8892 -0.0222
C23 C 0.6526(6) 0.8233(4) -0.0747(12)
H23 H 0.6796 0.8327 -0.1612
H24 H 0.6884 0.8001 -0.0296
C24 C 0.5675(7) 0.8029(4) -0.1155(12)
H25 H 0.5298 0.8265 -0.1535
H26 H 0.5425 0.7908 -0.0304
C25 C 0.5730(10) 0.7653(5) -0.2260(16)
H27 H 0.5825 0.7783 -0.3180
H28 H 0.5204 0.7485 -0.2305
H29 H 0.6194 0.7453 -0.1992
O1 O 0.78521(16) 1.13149(8) 0.5880(3)
O2 O 0.6024(2) 0.85062(9) 0.1530(3)
C1B C 0.0726(4) 0.74122(17) 1.4094(8)
H1B H 0.0159 0.7431 1.4445
H2B H 0.0719 0.7222 1.3261
H3B H 0.1106 0.7285 1.4821
C2B C 0.1039(3) 0.78935(16) 1.3699(6)
H4B H 0.0671 0.8014 1.2929
H5B H 0.1615 0.7874 1.3359
C3B C 0.1035(3) 0.82044(15) 1.4930(5)
H6B H 0.0469 0.8205 1.5313
H7B H 0.1434 0.8093 1.5671
C4B C 0.1277(3) 0.86893(13) 1.4549(5)
H8B H 0.1222 0.8886 1.5370
H9B H 0.0902 0.8801 1.3775
C5B C 0.2542(2) 0.90939(12) 1.3961(3)
C6B C 0.2133(2) 0.95114(12) 1.3960(3)
H10B H 0.1544 0.9528 1.4039
C7B C 0.2609(2) 0.99003(11) 1.3840(3)
H11B H 0.2331 1.0179 1.3855
C8B C 0.3487(2) 0.98931(11) 1.3699(3)
C9B C 0.3883(2) 0.94712(12) 1.3697(3)
H12B H 0.4472 0.9454 1.3608
C10B C 0.3416(2) 0.90800(12) 1.3825(4)
H13B H 0.3694 0.8801 1.3820
C11B C 0.4006(2) 1.03194(11) 1.3673(4)
C12B C 0.4578(2) 1.04124(11) 1.2679(4)
H14B H 0.4920 1.0663 1.2894
C13B C 0.4764(2) 1.01921(11) 1.1319(4)
C14B C 0.4229(2) 0.98914(12) 1.0560(4)
H15B H 0.3702 0.9816 1.0919
C15B C 0.4463(2) 0.97042(12) 0.9294(4)
H16B H 0.4093 0.9501 0.8827
C16B C 0.3946(2) 1.06306(11) 1.4924(4)
C17B C 0.4189(2) 1.10836(12) 1.4878(4)
H17B H 0.4358 1.1203 1.4015
C18B C 0.4191(2) 1.13615(13) 1.6052(4)
H18B H 0.4357 1.1663 1.5975
C19B C 0.3945(3) 1.11938(13) 1.7351(4)
C20B C 0.3683(2) 1.07466(12) 1.7430(4)
H19B H 0.3501 1.0630 1.8290
C21B C 0.3690(2) 1.04722(12) 1.6229(4)
H20B H 0.3516 1.0172 1.6303
C22B C 0.3502(8) 1.1362(3) 1.9740(10)
H21B H 0.2925 1.1269 1.9451
H22B H 0.3785 1.1108 2.0222
C23B C 0.3474(6) 1.1767(4) 2.0747(12)
H23B H 0.3204 1.1673 2.1612
H24B H 0.3116 1.1999 2.0296
C24B C 0.4325(7) 1.1971(4) 2.1155(12)
H25B H 0.4702 1.1735 2.1535
H26B H 0.4575 1.2092 2.0304
C25B C 0.4270(10) 1.2347(5) 2.2260(16)
H27B H 0.4175 1.2217 2.3180
H28B H 0.4796 1.2515 2.2305
H29B H 0.3806 1.2547 2.1992
O1B O 0.21479(16) 0.86851(8) 1.4120(3)
O2B O 0.3976(2) 1.14938(9) 1.8470(3)
C26 C 0.1424(4) 0.2947(2) 1.3109(7)
H30 H 0.0876 0.2984 1.3519
H31 H 0.1868 0.2998 1.3830
H32 H 0.1471 0.2644 1.2744
C27 C 0.1517(5) 0.3309(2) 1.1812(8)
H33 H 0.0955 0.3420 1.1509
H34 H 0.1858 0.3565 1.2152
C28 C 0.1890(4) 0.3117(2) 1.0692(6)
H35 H 0.1532 0.2873 1.0315
H36 H 0.2437 0.2989 1.1007
C29 C 0.2028(3) 0.34715(16) 0.9492(5)
H37 H 0.2131 0.3769 0.9905
H38 H 0.2518 0.3388 0.8947
C30 C 0.1275(3) 0.37569(12) 0.7401(4)
C31 C 0.0539(2) 0.37492(12) 0.6533(4)
H39 H 0.0093 0.3556 0.6746
C32 C 0.0461(2) 0.40295(12) 0.5342(4)
H40 H -0.0041 0.4023 0.4774
C33 C 0.1121(2) 0.43215(11) 0.4978(4)
C34 C 0.1849(2) 0.43165(11) 0.5869(4)
H41 H 0.2298 0.4510 0.5671
C35 C 0.1936(2) 0.40322(12) 0.7052(4)
H42 H 0.2444 0.4030 0.7607
C36 C 0.1024(2) 0.46348(11) 0.3717(4)
C37 C 0.0566(2) 0.45013(11) 0.2537(4)
H43 H 0.0392 0.4200 0.2535
C38 C 0.0300(2) 0.47630(11) 0.1245(3)
C39 C -0.0016(2) 0.52035(11) 0.1316(3)
H44 H -0.0037 0.5345 0.2202
C40 C -0.0297(2) 0.54341(11) 0.0109(4)
H45 H -0.0492 0.5730 0.0198
C41 C 0.1465(2) 0.50779(11) 0.3834(3)
C42 C 0.1920(2) 0.52460(13) 0.2704(4)
H46 H 0.1941 0.5077 0.1868
C43 C 0.2338(2) 0.56542(14) 0.2787(4)
H47 H 0.2636 0.5758 0.2013
C44 C 0.2318(2) 0.59106(13) 0.4012(4)
C45 C 0.1893(2) 0.57487(12) 0.5170(4)
H48 H 0.1887 0.5916 0.6010
C46 C 0.1476(2) 0.53343(11) 0.5072(3)
H49 H 0.1197 0.5226 0.5859
C47 C 0.2806(3) 0.65813(15) 0.5236(5)
H50 H 0.3148 0.6429 0.5979
H51 H 0.2239 0.6634 0.5584
C48 C 0.3224(3) 0.70337(16) 0.4843(5)
H52 H 0.3781 0.6971 0.4470
H53 H 0.2877 0.7176 0.4085
C49 C 0.3334(4) 0.73547(18) 0.6026(6)
H54 H 0.3714 0.7222 0.6759
H55 H 0.2784 0.7403 0.6442
C50 C 0.3695(4) 0.78101(16) 0.5595(6)
H56 H 0.4257 0.7768 0.5244
H57 H 0.3726 0.8008 0.6411
H58 H 0.3328 0.7942 0.4858
O3 O 0.12721(18) 0.34768(8) 0.8590(3)
O4 O 0.27530(18) 0.63150(10) 0.3990(3)
C26B C -0.1424(4) 0.7053(2) -1.3109(7)
H30B H -0.0876 0.7016 -1.3519
H31B H -0.1868 0.7002 -1.3830
H32B H -0.1471 0.7356 -1.2744
C27B C -0.1517(5) 0.6691(2) -1.1812(8)
H33B H -0.0955 0.6580 -1.1509
H34B H -0.1858 0.6435 -1.2152
C28B C -0.1890(4) 0.6883(2) -1.0692(6)
H35B H -0.1532 0.7127 -1.0315
H36B H -0.2437 0.7011 -1.1007
C29B C -0.2028(3) 0.65285(16) -0.9492(5)
H37B H -0.2131 0.6231 -0.9905
H38B H -0.2518 0.6612 -0.8947
C30B C -0.1275(3) 0.62431(12) -0.7401(4)
C31B C -0.0539(2) 0.62508(12) -0.6533(4)
H39B H -0.0093 0.6444 -0.6746
C32B C -0.0461(2) 0.59705(12) -0.5342(4)
H40B H 0.0041 0.5977 -0.4774
C33B C -0.1121(2) 0.56785(11) -0.4978(4)
C34B C -0.1849(2) 0.56835(11) -0.5869(4)
H41B H -0.2298 0.5490 -0.5671
C35B C -0.1936(2) 0.59678(12) -0.7052(4)
H42B H -0.2444 0.5970 -0.7607
C36B C -0.1024(2) 0.53652(11) -0.3717(4)
C37B C -0.0566(2) 0.54987(11) -0.2537(4)
H43B H -0.0392 0.5800 -0.2535
C38B C -0.0300(2) 0.52370(11) -0.1245(3)
C39B C 0.0016(2) 0.47965(11) -0.1316(3)
H44B H 0.0037 0.4655 -0.2202
C40B C 0.0297(2) 0.45659(11) -0.0109(4)
H45B H 0.0492 0.4270 -0.0198
C41B C -0.1465(2) 0.49221(11) -0.3834(3)
C42B C -0.1920(2) 0.47540(13) -0.2704(4)
H46B H -0.1941 0.4923 -0.1868
C43B C -0.2338(2) 0.43458(14) -0.2787(4)
H47B H -0.2636 0.4242 -0.2013
C44B C -0.2318(2) 0.40894(13) -0.4012(4)
C45B C -0.1893(2) 0.42513(12) -0.5170(4)
H48B H -0.1887 0.4084 -0.6010
C46B C -0.1476(2) 0.46657(11) -0.5072(3)
H49B H -0.1197 0.4774 -0.5859
C47B C -0.2806(3) 0.34187(15) -0.5236(5)
H50B H -0.3148 0.3571 -0.5979
H51B H -0.2239 0.3366 -0.5584
C48B C -0.3224(3) 0.29663(16) -0.4843(5)
H52B H -0.3781 0.3029 -0.4470
H53B H -0.2877 0.2824 -0.4085
C49B C -0.3334(4) 0.26453(18) -0.6026(6)
H54B H -0.3714 0.2778 -0.6759
H55B H -0.2784 0.2597 -0.6442
C50B C -0.3695(4) 0.21899(16) -0.5595(6)
H56B H -0.4257 0.2232 -0.5244
H57B H -0.3726 0.1992 -0.6411
H58B H -0.3328 0.2058 -0.4858
O3B O -0.12721(18) 0.65232(8) -0.8590(3)
O4B O -0.27530(18) 0.36850(10) -0.3990(3)
C51? C 0.6005(9) 0.8711(4) 0.0116(9)
C52? C 0.5762(9) 0.8364(4) -0.1007(12)
C53? C 0.6336(9) 0.7958(4) -0.1078(14)
C54? C 0.6163(11) 0.7689(6) -0.2465(17)
H59? H 0.6564 0.8835 -0.0069
H60? H 0.5595 0.8957 0.0074
H61? H 0.5187 0.8258 -0.0840
H62? H 0.5745 0.8512 -0.1934
H63? H 0.6246 0.7764 -0.0263
H64? H 0.6928 0.8057 -0.1025
H65? H 0.6287 0.7375 -0.2295
H66? H 0.6521 0.7802 -0.3193
H67? H 0.5573 0.7723 -0.2774
loop_
_geom_bond_atom_site_label_1
_geom_bond_atom_site_label_2
_geom_bond_site_symmetry_1
_geom_bond_site_symmetry_2
C1 H1 1_555 1_555
H2 C1 1_555 1_555
H3 C1 1_555 1_555
C2 C1 1_555 1_555
H4 C2 1_555 1_555
H5 C2 1_555 1_555
C3 C2 1_555 1_555
H6 C3 1_555 1_555
H7 C3 1_555 1_555
C4 C3 1_555 1_555
H8 C4 1_555 1_555
H9 C4 1_555 1_555
C5 C6 1_555 1_555
C6 H10 1_555 1_555
C7 C6 1_555 1_555
H11 C7 1_555 1_555
C8 C7 1_555 1_555
C9 C8 1_555 1_555
H12 C9 1_555 1_555
C10 C5 1_555 1_555
H13 C10 1_555 1_555
C11 C8 1_555 1_555
C12 C11 1_555 1_555
H14 C12 1_555 1_555
C13 C12 1_555 1_555
C14 C13 1_555 1_555
H15 C14 1_555 1_555
C15 C14 1_555 1_555
H16 C15 1_555 1_555
C16 C11 1_555 1_555
C17 C16 1_555 1_555
H17 C17 1_555 1_555
C18 C17 1_555 1_555
H18 C18 1_555 1_555
C19 C18 1_555 1_555
C20 C19 1_555 1_555
H19 C20 1_555 1_555
C21 C16 1_555 1_555
H20 C21 1_555 1_555
C22 H21 1_555 1_555
H22 C22 1_555 1_555
C23 C22 1_555 1_555
H23 C23 1_555 1_555
H24 C23 1_555 1_555
C24 C23 1_555 1_555
H25 C24 1_555 1_555
H26 C24 1_555 1_555
C25 C24 1_555 1_555
H27 C25 1_555 1_555
H28 C25 1_555 1_555
H29 C25 1_555 1_555
C26 H30 1_555 1_555
H31 C26 1_555 1_555
H32 C26 1_555 1_555
C27 C26 1_555 1_555
H33 C27 1_555 1_555
H34 C27 1_555 1_555
C28 C27 1_555 1_555
H35 C28 1_555 1_555
H36 C28 1_555 1_555
C29 C28 1_555 1_555
H37 C29 1_555 1_555
H38 C29 1_555 1_555
C30 C31 1_555 1_555
C31 H39 1_555 1_555
C32 C31 1_555 1_555
H40 C32 1_555 1_555
C33 C32 1_555 1_555
C34 C33 1_555 1_555
H41 C34 1_555 1_555
C35 C30 1_555 1_555
H42 C35 1_555 1_555
C36 C33 1_555 1_555
C37 C36 1_555 1_555
H43 C37 1_555 1_555
C38 C37 1_555 1_555
C39 C38 1_555 1_555
H44 C39 1_555 1_555
C40 C39 1_555 1_555
H45 C40 1_555 1_555
C41 C36 1_555 1_555
C42 C41 1_555 1_555
H46 C42 1_555 1_555
C43 C42 1_555 1_555
H47 C43 1_555 1_555
C44 C43 1_555 1_555
C45 C44 1_555 1_555
H48 C45 1_555 1_555
C46 C41 1_555 1_555
H49 C46 1_555 1_555
C47 H50 1_555 1_555
H51 C47 1_555 1_555
C48 C47 1_555 1_555
H52 C48 1_555 1_555
H53 C48 1_555 1_555
C49 C48 1_555 1_555
H54 C49 1_555 1_555
H55 C49 1_555 1_555
C50 C49 1_555 1_555
H56 C50 1_555 1_555
H57 C50 1_555 1_555
H58 C50 1_555 1_555
O1 C4 1_555 1_555
O2 C19 1_555 1_555
O3 C29 1_555 1_555
O4 C44 1_555 1_555
C1B H1B 1_555 1_555
H2B C1B 1_555 1_555
H3B C1B 1_555 1_555
C2B C1B 1_555 1_555
H4B C2B 1_555 1_555
H5B C2B 1_555 1_555
C3B C2B 1_555 1_555
H6B C3B 1_555 1_555
H7B C3B 1_555 1_555
C4B C3B 1_555 1_555
H8B C4B 1_555 1_555
H9B C4B 1_555 1_555
C5B C6B 1_555 1_555
C6B H10B 1_555 1_555
C7B C6B 1_555 1_555
H11B C7B 1_555 1_555
C8B C7B 1_555 1_555
C9B C8B 1_555 1_555
H12B C9B 1_555 1_555
C10B C5B 1_555 1_555
H13B C10B 1_555 1_555
C11B C8B 1_555 1_555
C12B C11B 1_555 1_555
H14B C12B 1_555 1_555
C13B C15 1_555 1_555
C14B C13B 1_555 1_555
H15B C14B 1_555 1_555
C15B C13 1_555 1_555
H16B C15B 1_555 1_555
C16B C11B 1_555 1_555
C17B C16B 1_555 1_555
H17B C17B 1_555 1_555
C18B C17B 1_555 1_555
H18B C18B 1_555 1_555
C19B C18B 1_555 1_555
C20B C19B 1_555 1_555
H19B C20B 1_555 1_555
C21B C16B 1_555 1_555
H20B C21B 1_555 1_555
C22B H21B 1_555 1_555
H22B C22B 1_555 1_555
C23B C22B 1_555 1_555
H23B C23B 1_555 1_555
H24B C23B 1_555 1_555
C24B C23B 1_555 1_555
H25B C24B 1_555 1_555
H26B C24B 1_555 1_555
C25B C24B 1_555 1_555
H27B C25B 1_555 1_555
H28B C25B 1_555 1_555
H29B C25B 1_555 1_555
C26B H30B 1_555 1_555
H31B C26B 1_555 1_555
H32B C26B 1_555 1_555
C27B C26B 1_555 1_555
H33B C27B 1_555 1_555
H34B C27B 1_555 1_555
C28B C27B 1_555 1_555
H35B C28B 1_555 1_555
H36B C28B 1_555 1_555
C29B C28B 1_555 1_555
H37B C29B 1_555 1_555
H38B C29B 1_555 1_555
C30B C31B 1_555 1_555
C31B H39B 1_555 1_555
C32B C31B 1_555 1_555
H40B C32B 1_555 1_555
C33B C32B 1_555 1_555
C34B C33B 1_555 1_555
H41B C34B 1_555 1_555
C35B C30B 1_555 1_555
H42B C35B 1_555 1_555
C36B C33B 1_555 1_555
C37B C36B 1_555 1_555
H43B C37B 1_555 1_555
C38B C40 1_555 1_555
C39B C38B 1_555 1_555
H44B C39B 1_555 1_555
C40B C38 1_555 1_555
H45B C40B 1_555 1_555
C41B C36B 1_555 1_555
C42B C41B 1_555 1_555
H46B C42B 1_555 1_555
C43B C42B 1_555 1_555
H47B C43B 1_555 1_555
C44B C43B 1_555 1_555
C45B C44B 1_555 1_555
H48B C45B 1_555 1_555
C46B C41B 1_555 1_555
H49B C46B 1_555 1_555
C47B H50B 1_555 1_555
H51B C47B 1_555 1_555
C48B C47B 1_555 1_555
H52B C48B 1_555 1_555
H53B C48B 1_555 1_555
C49B C48B 1_555 1_555
H54B C49B 1_555 1_555
H55B C49B 1_555 1_555
C50B C49B 1_555 1_555
H56B C50B 1_555 1_555
H57B C50B 1_555 1_555
H58B C50B 1_555 1_555
O1B C4B 1_555 1_555
O2B C19B 1_555 1_555
O3B C29B 1_555 1_555
O4B C44B 1_555 1_555
C5 O1 1_555 1_555
C9 C10 1_555 1_555
C20 C21 1_555 1_555
C22 O2 1_555 1_555
C30 O3 1_555 1_555
C34 C35 1_555 1_555
C45 C46 1_555 1_555
C47 O4 1_555 1_555
C5B O1B 1_555 1_555
C9B C10B 1_555 1_555
C12B C13B 1_555 1_555
C14B C15B 1_555 1_555
C20B C21B 1_555 1_555
C22B O2B 1_555 1_555
C30B O3B 1_555 1_555
C34B C35B 1_555 1_555
C37B C38B 1_555 1_555
C39B C40B 1_555 1_555
C45B C46B 1_555 1_555
C47B O4B 1_555 1_555

#END
