
#######################################################################
#
#                 Cambridge Crystallographic Data Centre
#                                CCDC 
#
#######################################################################
#
# If this CIF has been generated from an entry in the Cambridge 
# Structural Database, then it will include bibliographic, chemical, 
# crystal, experimental, refinement or atomic coordinate data resulting 
# from the CCDC's data processing and validation procedures.
#
#######################################################################

data_INOLIH
_chemical_name_common            1,4-bis(2,2-bis(4-Methoxyphenyl)vinyl)benzene
_chemical_formula_moiety         'C38 H34 O4'
_chemical_name_systematic        
1,1',1'',1'''-(1,4-Phenylenediethene-2,1,1-triyl)tetrakis(4-methoxybenzene)
_symmetry_cell_setting           triclinic
_symmetry_space_group_name_H-M   'P -1'
_symmetry_Int_Tables_number      2
_space_group_name_Hall           '-P 1'
loop_
_symmetry_equiv_pos_site_id
_symmetry_equiv_pos_as_xyz
1 x,y,z
2 -x,-y,-z
_cell_length_a                   7.272(3)
_cell_length_b                   12.692(5)
_cell_length_c                   17.264(7)
_cell_angle_alpha                97.762(11)
_cell_angle_beta                 100.795(9)
_cell_angle_gamma                101.825(9)
_cell_volume                     1506.86
_exptl_crystal_colour            yellow
_exptl_crystal_description       block
_chemical_melting_point          '171-172 deg.C'
_cell_formula_units_Z            2
_exptl_crystal_recrystallization_method acetone/petroleum
loop_
_atom_site_label
_atom_site_type_symbol
_atom_site_fract_x
_atom_site_fract_y
_atom_site_fract_z
C1 C -0.8296(10) -0.2272(6) 0.4941(4)
H1 H -0.8263 -0.2964 0.5102
H2 H -0.9236 -0.2383 0.4448
H3 H -0.8634 -0.1805 0.5350
C2 C -0.5039(10) -0.1335(5) 0.5503(5)
C3 C -0.5208(10) -0.1393(5) 0.6276(5)
H4 H -0.6362 -0.1761 0.6373
C4 C -0.3686(10) -0.0914(5) 0.6901(4)
H5 H -0.3842 -0.0962 0.7418
C5 C -0.1918(9) -0.0358(4) 0.6804(4)
C6 C -0.1773(9) -0.0311(5) 0.6016(4)
H6 H -0.0622 0.0060 0.5917
C7 C -0.3297(10) -0.0804(5) 0.5379(4)
H7 H -0.3146 -0.0777 0.4858
C8 C -0.0278(8) 0.0183(5) 0.7484(4)
C9 C 0.1150(9) 0.1089(5) 0.7322(3)
C10 C 0.2958(10) 0.1007(5) 0.7274(4)
H8 H 0.3332 0.0363 0.7350
C11 C 0.4314(9) 0.1910(6) 0.7106(4)
H9 H 0.5562 0.1870 0.7076
C12 C 0.3651(11) 0.2820(6) 0.6995(4)
C13 C 0.1907(11) 0.2922(6) 0.7053(4)
H10 H 0.1539 0.3571 0.6992
C14 C 0.0670(9) 0.2064(5) 0.7204(4)
H11 H -0.0567 0.2132 0.7230
C15 C 0.6795(9) 0.3714(6) 0.6831(4)
H12 H 0.7281 0.3391 0.7274
H13 H 0.7562 0.4443 0.6885
H14 H 0.6853 0.3282 0.6339
C16 C -0.0129(8) -0.0114(5) 0.8201(4)
H15 H -0.1029 -0.0739 0.8225
C17 C 0.1231(9) 0.0398(5) 0.8950(4)
C18 C 0.2033(10) 0.1525(5) 0.9159(4)
H16 H 0.1747 0.1976 0.8794
C19 C 0.3227(9) 0.1975(5) 0.9888(4)
H17 H 0.3694 0.2731 1.0008
C20 C 0.3782(8) 0.1368(5) 1.0460(4)
C21 C 0.3013(8) 0.0244(5) 1.0257(4)
H18 H 0.3349 -0.0203 1.0618
C22 C 0.1754(8) -0.0219(5) 0.9528(4)
H19 H 0.1236 -0.0970 0.9419
C23 C 0.5136(8) 0.1832(5) 1.1229(4)
H20 H 0.5756 0.1342 1.1461
C24 C 0.5620(8) 0.2846(5) 1.1647(4)
C25 C 0.4551(9) 0.3687(5) 1.1451(3)
C26 C 0.2626(9) 0.3535(5) 1.1473(4)
H21 H 0.2010 0.2897 1.1617
C27 C 0.1597(9) 0.4292(7) 1.1289(4)
H22 H 0.0294 0.4156 1.1296
C28 C 0.2475(11) 0.5245(7) 1.1095(4)
C29 C 0.4363(11) 0.5432(5) 1.1064(4)
H23 H 0.4954 0.6072 1.0915
C30 C 0.5414(9) 0.4663(5) 1.1256(3)
H24 H 0.6719 0.4809 1.1253
C31 C 0.2066(12) 0.6912(7) 1.0665(5)
H25 H 0.3139 0.7344 1.1074
H26 H 0.1098 0.7321 1.0567
H27 H 0.2491 0.6731 1.0181
C32 C 0.7213(9) 0.3188(5) 1.2383(4)
C33 C 0.7243(9) 0.4024(5) 1.2994(4)
H28 H 0.6241 0.4380 1.2944
C34 C 0.8702(9) 0.4344(5) 1.3670(4)
H29 H 0.8680 0.4911 1.4068
C35 C 1.0199(9) 0.3826(5) 1.3761(4)
C36 C 1.0219(9) 0.2972(5) 1.3178(4)
H30 H 1.1209 0.2607 1.3240
C37 C 0.8720(9) 0.2665(5) 1.2492(4)
H31 H 0.8734 0.2093 1.2097
C38 C 1.3131(9) 0.3645(6) 1.4597(4)
H32 H 1.2589 0.2884 1.4582
H33 H 1.3962 0.3959 1.5113
H34 H 1.3859 0.3717 1.4189
O1 O -0.6455(8) -0.1775(4) 0.4829(3)
O2 O 0.4870(7) 0.3752(4) 0.6823(3)
O3 O 0.1285(7) 0.5940(5) 1.0921(3)
O4 O 1.1604(6) 0.4208(3) 1.4456(3)
loop_
_geom_bond_atom_site_label_1
_geom_bond_atom_site_label_2
_geom_bond_site_symmetry_1
_geom_bond_site_symmetry_2
C1 H1 1_555 1_555
H2 C1 1_555 1_555
H3 C1 1_555 1_555
C2 C3 1_555 1_555
C3 H4 1_555 1_555
C4 C3 1_555 1_555
H5 C4 1_555 1_555
C5 C4 1_555 1_555
C6 C5 1_555 1_555
H6 C6 1_555 1_555
C7 C2 1_555 1_555
H7 C7 1_555 1_555
C8 C5 1_555 1_555
C9 C8 1_555 1_555
C10 C9 1_555 1_555
H8 C10 1_555 1_555
C11 C10 1_555 1_555
H9 C11 1_555 1_555
C12 C11 1_555 1_555
C13 C12 1_555 1_555
H10 C13 1_555 1_555
C14 C9 1_555 1_555
H11 C14 1_555 1_555
C15 H12 1_555 1_555
H13 C15 1_555 1_555
H14 C15 1_555 1_555
C16 C8 1_555 1_555
H15 C16 1_555 1_555
C17 C16 1_555 1_555
C18 C17 1_555 1_555
H16 C18 1_555 1_555
C19 C18 1_555 1_555
H17 C19 1_555 1_555
C20 C19 1_555 1_555
C21 C20 1_555 1_555
H18 C21 1_555 1_555
C22 C17 1_555 1_555
H19 C22 1_555 1_555
C23 C20 1_555 1_555
H20 C23 1_555 1_555
C24 C23 1_555 1_555
C25 C24 1_555 1_555
C26 C25 1_555 1_555
H21 C26 1_555 1_555
C27 C26 1_555 1_555
H22 C27 1_555 1_555
C28 C27 1_555 1_555
C29 C28 1_555 1_555
H23 C29 1_555 1_555
C30 C25 1_555 1_555
H24 C30 1_555 1_555
C31 H25 1_555 1_555
H26 C31 1_555 1_555
H27 C31 1_555 1_555
C32 C24 1_555 1_555
C33 C32 1_555 1_555
H28 C33 1_555 1_555
C34 C33 1_555 1_555
H29 C34 1_555 1_555
C35 C34 1_555 1_555
C36 C35 1_555 1_555
H30 C36 1_555 1_555
C37 C32 1_555 1_555
H31 C37 1_555 1_555
C38 H32 1_555 1_555
H33 C38 1_555 1_555
H34 C38 1_555 1_555
O1 C1 1_555 1_555
O2 C12 1_555 1_555
O3 C28 1_555 1_555
O4 C35 1_555 1_555
C2 O1 1_555 1_555
C6 C7 1_555 1_555
C13 C14 1_555 1_555
C15 O2 1_555 1_555
C21 C22 1_555 1_555
C29 C30 1_555 1_555
C31 O3 1_555 1_555
C36 C37 1_555 1_555
C38 O4 1_555 1_555

#END
