
#######################################################################
#
#                 Cambridge Crystallographic Data Centre
#                                CCDC 
#
#######################################################################
#
# If this CIF has been generated from an entry in the Cambridge 
# Structural Database, then it will include bibliographic, chemical, 
# crystal, experimental, refinement or atomic coordinate data resulting 
# from the CCDC's data processing and validation procedures.
#
#######################################################################

data_INOMOO
_chemical_name_common            
1,4-bis(2,2-bis(4-Isopropoxyphenyl)vinyl)benzene
_chemical_formula_moiety         'C46 H50 O4'
_chemical_name_systematic        
1,1',1'',1'''-(1,4-Phenylenediethene-2,1,1-triyl)tetrakis(4-isopropoxybenzene)
_symmetry_cell_setting           triclinic
_symmetry_space_group_name_H-M   'P -1'
_symmetry_Int_Tables_number      2
_space_group_name_Hall           '-P 1'
loop_
_symmetry_equiv_pos_site_id
_symmetry_equiv_pos_as_xyz
1 x,y,z
2 -x,-y,-z
_cell_length_a                   12.763(5)
_cell_length_b                   13.447(5)
_cell_length_c                   14.340(5)
_cell_angle_alpha                65.731(7)
_cell_angle_beta                 66.619(7)
_cell_angle_gamma                62.460(6)
_cell_volume                     1923.16
_exptl_crystal_colour            yellow
_exptl_crystal_description       block
_chemical_melting_point          '150-151 deg.C'
_cell_formula_units_Z            2
_exptl_crystal_recrystallization_method acetone/petroleum
loop_
_atom_site_label
_atom_site_type_symbol
_atom_site_fract_x
_atom_site_fract_y
_atom_site_fract_z
C1 C 1.0341(5) 0.4637(6) -0.3094(6)
H1 H 1.0420 0.4833 -0.3836
H2 H 1.0872 0.3847 -0.2860
H3 H 1.0562 0.5157 -0.2971
C2 C 0.8661(6) 0.4087(6) -0.2775(6)
H4 H 0.7827 0.4182 -0.2385
H5 H 0.9164 0.3276 -0.2597
H6 H 0.8716 0.4366 -0.3519
C3 C 0.9078(6) 0.4750(6) -0.2507(5)
H7 H 0.9020 0.4463 -0.1746
C4 C 0.7187(5) 0.6396(5) -0.2113(4)
C5 C 0.6504(5) 0.7538(5) -0.2486(4)
H8 H 0.6796 0.7965 -0.3163
C6 C 0.5378(4) 0.8070(4) -0.1865(4)
H9 H 0.4923 0.8849 -0.2133
C7 C 0.4920(4) 0.7452(5) -0.0847(4)
C8 C 0.5609(4) 0.6315(5) -0.0515(4)
H10 H 0.5304 0.5881 0.0154
C9 C 0.6749(5) 0.5752(4) -0.1113(4)
H11 H 0.7198 0.4971 -0.0847
C10 C 0.3706(4) 0.7998(4) -0.0186(3)
C11 C 0.2648(4) 0.8008(4) -0.0359(3)
C12 C 0.2772(4) 0.7558(4) -0.1123(3)
H12 H 0.3554 0.7220 -0.1516
C13 C 0.1792(4) 0.7587(4) -0.1327(4)
H13 H 0.1934 0.7269 -0.1851
C14 C 0.0629(5) 0.8061(4) -0.0791(4)
C15 C 0.0485(5) 0.8468(5) 0.0017(4)
H14 H -0.0294 0.8763 0.0437
C16 C 0.1472(5) 0.8440(5) 0.0203(4)
H15 H 0.1332 0.8732 0.0745
C17 C -0.0342(5) 0.7612(6) -0.1652(5)
H16 H 0.0437 0.7497 -0.2193
C18 C -0.0444(7) 0.6485(6) -0.0965(5)
H17 H 0.0225 0.6041 -0.0639
H18 H -0.0423 0.6064 -0.1379
H19 H -0.1201 0.6609 -0.0428
C19 C -0.1373(5) 0.8395(6) -0.2151(4)
H20 H -0.2132 0.8459 -0.1617
H21 H -0.1341 0.8078 -0.2656
H22 H -0.1312 0.9154 -0.2504
C20 C 0.3564(4) 0.8439(4) 0.0570(3)
H23 H 0.2756 0.8746 0.0937
C21 C 0.4448(4) 0.8521(4) 0.0912(3)
C22 C 0.5630(4) 0.8469(4) 0.0354(3)
H24 H 0.5923 0.8374 -0.0321
C23 C 0.6387(4) 0.8553(4) 0.0759(3)
H25 H 0.7173 0.8518 0.0349
C24 C 0.6006(4) 0.8691(3) 0.1778(3)
C25 C 0.4814(4) 0.8783(4) 0.2321(4)
H26 H 0.4517 0.8892 0.2992
C26 C 0.4052(4) 0.8720(4) 0.1911(4)
H27 H 0.3248 0.8810 0.2302
C27 C 0.6883(4) 0.8743(4) 0.2155(3)
H28 H 0.7489 0.9008 0.1629
C28 C 0.6942(4) 0.8462(4) 0.3156(3)
C29 C 0.6121(4) 0.7890(4) 0.4070(3)
C30 C 0.6233(4) 0.6781(4) 0.4208(4)
H29 H 0.6815 0.6393 0.3708
C31 C 0.5515(4) 0.6216(4) 0.5059(4)
H30 H 0.5596 0.5470 0.5120
C32 C 0.4663(4) 0.6784(5) 0.5831(4)
C33 C 0.4534(4) 0.7890(5) 0.5706(4)
H31 H 0.3953 0.8279 0.6205
C34 C 0.5252(4) 0.8432(4) 0.4854(4)
H32 H 0.5161 0.9182 0.4792
C35 C 0.4299(5) 0.5041(5) 0.7102(4)
H33 H 0.4517 0.4707 0.6529
C36 C 0.3207(5) 0.4772(4) 0.7933(4)
H34 H 0.2981 0.5098 0.8498
H35 H 0.3412 0.3941 0.8206
H36 H 0.2534 0.5107 0.7621
C37 C 0.5410(5) 0.4602(5) 0.7486(4)
H37 H 0.6062 0.4786 0.6903
H38 H 0.5654 0.3771 0.7791
H39 H 0.5225 0.4968 0.8012
C38 C 0.7896(4) 0.8571(4) 0.3407(4)
C39 C 0.8230(4) 0.7914(4) 0.4350(4)
H40 H 0.7803 0.7432 0.4848
C40 C 0.9157(4) 0.7937(4) 0.4588(4)
H41 H 0.9351 0.7477 0.5231
C41 C 0.9790(4) 0.8641(4) 0.3875(4)
C42 C 0.9477(4) 0.9312(4) 0.2922(4)
H42 H 0.9919 0.9780 0.2422
C43 C 0.8536(4) 0.9300(4) 0.2702(4)
H43 H 0.8321 0.9787 0.2071
C44 C 1.1154(4) 0.8110(5) 0.4936(4)
H44 H 1.0454 0.8049 0.5547
C45 C 1.2043(5) 0.6901(5) 0.4855(4)
H45 H 1.1635 0.6493 0.4794
H46 H 1.2346 0.6479 0.5477
H47 H 1.2714 0.6965 0.4242
C46 C 1.1739(4) 0.8792(5) 0.5030(4)
H48 H 1.2424 0.8850 0.4431
H49 H 1.2013 0.8403 0.5667
H50 H 1.1155 0.9560 0.5054
O1 O 0.8321(3) 0.5971(3) -0.2769(2)
O2 O -0.0415(3) 0.8230(3) -0.0973(3)
O3 O 0.3891(3) 0.6290(3) 0.6694(2)
O4 O 1.0737(3) 0.8774(3) 0.3982(3)
loop_
_geom_bond_atom_site_label_1
_geom_bond_atom_site_label_2
_geom_bond_site_symmetry_1
_geom_bond_site_symmetry_2
C1 H1 1_555 1_555
H2 C1 1_555 1_555
H3 C1 1_555 1_555
C2 H4 1_555 1_555
H5 C2 1_555 1_555
H6 C2 1_555 1_555
C3 C1 1_555 1_555
H7 C3 1_555 1_555
C4 C5 1_555 1_555
C5 H8 1_555 1_555
C6 C5 1_555 1_555
H9 C6 1_555 1_555
C7 C6 1_555 1_555
C8 C7 1_555 1_555
H10 C8 1_555 1_555
C9 C4 1_555 1_555
H11 C9 1_555 1_555
C10 C7 1_555 1_555
C11 C10 1_555 1_555
C12 C11 1_555 1_555
H12 C12 1_555 1_555
C13 C12 1_555 1_555
H13 C13 1_555 1_555
C14 C13 1_555 1_555
C15 C14 1_555 1_555
H14 C15 1_555 1_555
C16 C11 1_555 1_555
H15 C16 1_555 1_555
C17 H16 1_555 1_555
C18 C17 1_555 1_555
H17 C18 1_555 1_555
H18 C18 1_555 1_555
H19 C18 1_555 1_555
C19 C17 1_555 1_555
H20 C19 1_555 1_555
H21 C19 1_555 1_555
H22 C19 1_555 1_555
C20 C10 1_555 1_555
H23 C20 1_555 1_555
C21 C20 1_555 1_555
C22 C21 1_555 1_555
H24 C22 1_555 1_555
C23 C22 1_555 1_555
H25 C23 1_555 1_555
C24 C23 1_555 1_555
C25 C24 1_555 1_555
H26 C25 1_555 1_555
C26 C21 1_555 1_555
H27 C26 1_555 1_555
C27 C24 1_555 1_555
H28 C27 1_555 1_555
C28 C27 1_555 1_555
C29 C28 1_555 1_555
C30 C29 1_555 1_555
H29 C30 1_555 1_555
C31 C30 1_555 1_555
H30 C31 1_555 1_555
C32 C31 1_555 1_555
C33 C32 1_555 1_555
H31 C33 1_555 1_555
C34 C29 1_555 1_555
H32 C34 1_555 1_555
C35 H33 1_555 1_555
C36 C35 1_555 1_555
H34 C36 1_555 1_555
H35 C36 1_555 1_555
H36 C36 1_555 1_555
C37 C35 1_555 1_555
H37 C37 1_555 1_555
H38 C37 1_555 1_555
H39 C37 1_555 1_555
C38 C28 1_555 1_555
C39 C38 1_555 1_555
H40 C39 1_555 1_555
C40 C39 1_555 1_555
H41 C40 1_555 1_555
C41 C40 1_555 1_555
C42 C41 1_555 1_555
H42 C42 1_555 1_555
C43 C38 1_555 1_555
H43 C43 1_555 1_555
C44 H44 1_555 1_555
C45 C44 1_555 1_555
H45 C45 1_555 1_555
H46 C45 1_555 1_555
H47 C45 1_555 1_555
C46 C44 1_555 1_555
H48 C46 1_555 1_555
H49 C46 1_555 1_555
H50 C46 1_555 1_555
O1 C3 1_555 1_555
O2 C14 1_555 1_555
O3 C32 1_555 1_555
O4 C41 1_555 1_555
C2 C3 1_555 1_555
C4 O1 1_555 1_555
C8 C9 1_555 1_555
C15 C16 1_555 1_555
C17 O2 1_555 1_555
C25 C26 1_555 1_555
C33 C34 1_555 1_555
C35 O3 1_555 1_555
C42 C43 1_555 1_555
C44 O4 1_555 1_555

#END
