
#######################################################################
#
#                 Cambridge Crystallographic Data Centre
#                                CCDC 
#
#######################################################################
#
# If this CIF has been generated from an entry in the Cambridge 
# Structural Database, then it will include bibliographic, chemical, 
# crystal, experimental, refinement or atomic coordinate data resulting 
# from the CCDC's data processing and validation procedures.
#
#######################################################################

data_INONIK
_chemical_formula_moiety         '2(C6 H10 N3 1+),C8 F4 O4 2-,2(H2 O1)'
_chemical_name_systematic        
'bis(2-amino-4,6-dimethylpyrimidin-1-ium) tetrafluoroterephthalate dihydrate'
_symmetry_cell_setting           monoclinic
_symmetry_space_group_name_H-M   'P 21/n'
_symmetry_Int_Tables_number      14
_space_group_name_Hall           '-P 2yn'
loop_
_symmetry_equiv_pos_site_id
_symmetry_equiv_pos_as_xyz
1 x,y,z
2 1/2-x,1/2+y,1/2-z
3 -x,-y,-z
4 1/2+x,1/2-y,1/2+z
_cell_length_a                   10.7926(10)
_cell_length_b                   6.9044(6)
_cell_length_c                   15.7057(15)
_cell_angle_alpha                90
_cell_angle_beta                 102.428(9)
_cell_angle_gamma                90
_cell_volume                     1142.91
_exptl_crystal_colour            colorless
_exptl_crystal_description       block
_cell_formula_units_Z            2
loop_
_atom_site_label
_atom_site_type_symbol
_atom_site_fract_x
_atom_site_fract_y
_atom_site_fract_z
F1 F 0.26561(17) 0.3641(3) 0.50175(12)
F2 F 0.43873(17) 0.3575(3) 0.64630(12)
O1 O 0.1930(2) 0.5602(4) 0.34982(15)
O2 O 0.3295(2) 0.4879(4) 0.26726(15)
C1 C 0.3810(3) 0.4354(5) 0.4986(2)
C2 C 0.4049(3) 0.5068(4) 0.4214(2)
C3 C 0.4721(3) 0.4300(4) 0.57480(19)
C4 C 0.3009(3) 0.5187(5) 0.3381(2)
F1B F 0.73439(17) 0.6359(3) 0.49825(12)
F2B F 0.56127(17) 0.6425(3) 0.35370(12)
O1B O 0.8070(2) 0.4398(4) 0.65018(15)
O2B O 0.6705(2) 0.5121(4) 0.73274(15)
C1B C 0.6190(3) 0.5646(5) 0.5014(2)
C2B C 0.5951(3) 0.4932(4) 0.5786(2)
C3B C 0.5279(3) 0.5700(4) 0.42520(19)
C4B C 0.6991(3) 0.4813(5) 0.6619(2)
N1 N 0.4967(2) 0.8900(4) 0.71974(16)
H1 H 0.5654 0.8963 0.7593
N2 N 0.3968(2) 0.9226(4) 0.57140(16)
N3 N 0.6109(2) 0.9855(4) 0.61900(17)
H2 H 0.6154 1.0133 0.5664
H3 H 0.6776 0.9921 0.6602
C5 C 0.2885(3) 0.8711(5) 0.5926(2)
C6 C 0.5004(3) 0.9322(4) 0.63661(19)
C7 C 0.3874(3) 0.8379(5) 0.7422(2)
C8 C 0.2800(3) 0.8273(5) 0.6776(2)
H4 H 0.2029 0.7915 0.6902
C9 C 0.1732(3) 0.8636(6) 0.5194(2)
H5 H 0.1647 0.9841 0.4881
H6 H 0.0991 0.8423 0.5427
H7 H 0.1820 0.7597 0.4805
C10 C 0.3947(3) 0.7961(6) 0.8363(2)
H8 H 0.4402 0.6774 0.8519
H9 H 0.3105 0.7839 0.8465
H10 H 0.4380 0.9000 0.8710
O3 O 0.0383(3) 0.1967(5) 0.3450(2)
H11 H 0.0845 0.2905 0.3681
H12 H 0.0736 0.1398 0.3085
loop_
_geom_bond_atom_site_label_1
_geom_bond_atom_site_label_2
_geom_bond_site_symmetry_1
_geom_bond_site_symmetry_2
F1 C1 1_555 1_555
F2 C3 1_555 1_555
O1 C4 1_555 1_555
O2 C4 1_555 1_555
C1 C2 1_555 1_555
C2 C4 1_555 1_555
C3 C1 1_555 1_555
N1 H1 1_555 1_555
N2 C5 1_555 1_555
N3 H2 1_555 1_555
H3 N3 1_555 1_555
C5 C8 1_555 1_555
C6 N1 1_555 1_555
C7 N1 1_555 1_555
C8 C7 1_555 1_555
H4 C8 1_555 1_555
C9 C5 1_555 1_555
H5 C9 1_555 1_555
H6 C9 1_555 1_555
H7 C9 1_555 1_555
C10 C7 1_555 1_555
H8 C10 1_555 1_555
H9 C10 1_555 1_555
H10 C10 1_555 1_555
O3 H11 1_555 1_555
H12 O3 1_555 1_555
F1B C1B 1_555 1_555
F2B C3B 1_555 1_555
O1B C4B 1_555 1_555
O2B C4B 1_555 1_555
C1B C2B 1_555 1_555
C2B C3 1_555 1_555
C3B C2 1_555 1_555
C4B C2B 1_555 1_555
N2 C6 1_555 1_555
N3 C6 1_555 1_555
C1B C3B 1_555 1_555

#END
