
#######################################################################
#
#                 Cambridge Crystallographic Data Centre
#                                CCDC 
#
#######################################################################
#
# If this CIF has been generated from an entry in the Cambridge 
# Structural Database, then it will include bibliographic, chemical, 
# crystal, experimental, refinement or atomic coordinate data resulting 
# from the CCDC's data processing and validation procedures.
#
#######################################################################

data_INOPAE
_chemical_formula_moiety         '2(C7 H8 N3 1+),C8 F4 O4 2-'
_chemical_name_systematic        
'bis(1,3-dihydro-2H-benzimidazol-2-iminium) 2,3,5,6-tetrafluoroterephthalate'
_symmetry_cell_setting           monoclinic
_symmetry_space_group_name_H-M   'P 21/c'
_symmetry_Int_Tables_number      14
_space_group_name_Hall           '-P 2ybc'
loop_
_symmetry_equiv_pos_site_id
_symmetry_equiv_pos_as_xyz
1 x,y,z
2 -x,1/2+y,1/2-z
3 -x,-y,-z
4 x,1/2-y,1/2+z
_cell_length_a                   7.7041(4)
_cell_length_b                   12.6974(6)
_cell_length_c                   11.5715(6)
_cell_angle_alpha                90
_cell_angle_beta                 96.689(5)
_cell_angle_gamma                90
_cell_volume                     1124.24
_exptl_crystal_colour            colorless
_exptl_crystal_description       block
_cell_formula_units_Z            2
loop_
_atom_site_label
_atom_site_type_symbol
_atom_site_fract_x
_atom_site_fract_y
_atom_site_fract_z
F1 F 0.71450(15) 0.11456(8) 0.88027(11)
F2 F 0.42598(16) 0.20108(8) 0.93704(12)
O1 O 0.91814(17) -0.14095(11) 1.01856(12)
O2 O 0.84774(18) -0.09601(10) 0.83359(12)
C1 C 0.8231(2) -0.09819(13) 0.93786(17)
C2 C 0.6105(2) 0.05579(13) 0.94012(15)
C3 C 0.6573(2) -0.04652(13) 0.97047(14)
C4 C 0.4588(2) 0.10046(13) 0.96915(16)
F1B F 0.28550(15) -0.11456(8) 1.11973(11)
F2B F 0.57402(16) -0.20108(8) 1.06296(12)
O1B O 0.08186(17) 0.14095(11) 0.98144(12)
O2B O 0.15226(18) 0.09601(10) 1.16641(12)
C1B C 0.1769(2) 0.09819(13) 1.06214(17)
C2B C 0.3895(2) -0.05579(13) 1.05988(15)
C3B C 0.3427(2) 0.04652(13) 1.02953(14)
C4B C 0.5412(2) -0.10046(13) 1.03085(16)
N1 N 0.8738(2) 0.05344(11) 0.66122(14)
H1 H 0.8811 0.0139 0.7219
N2 N 0.8968(2) 0.18990(12) 0.54995(13)
H2 H 0.9215 0.2522 0.5276
N3 N 1.0247(2) 0.20294(13) 0.74357(14)
H3 H 1.0598 0.2662 0.7330
H4 H 1.0468 0.1736 0.8106
C5 C 0.8080(2) 0.11294(14) 0.48027(17)
C6 C 0.9376(2) 0.15125(14) 0.65724(16)
C7 C 0.7940(2) 0.02618(15) 0.55151(17)
C8 C 0.7132(3) -0.06539(16) 0.5102(2)
H5 H 0.7032 -0.1233 0.5581
C9 C 0.7409(3) 0.11198(18) 0.36529(19)
H6 H 0.7491 0.1704 0.3178
C10 C 0.6607(3) 0.0203(2) 0.3233(2)
H7 H 0.6142 0.0168 0.2455
C11 C 0.6479(3) -0.0666(2) 0.3941(3)
H8 H 0.5939 -0.1273 0.3625
loop_
_geom_bond_atom_site_label_1
_geom_bond_atom_site_label_2
_geom_bond_site_symmetry_1
_geom_bond_site_symmetry_2
F1 C2 1_555 1_555
F2 C4 1_555 1_555
O1 C1 1_555 1_555
O2 C1 1_555 1_555
C1 C3 1_555 1_555
C2 C3 1_555 1_555
C3 C4B 1_555 1_555
C4 C2 1_555 1_555
N1 H1 1_555 1_555
N2 H2 1_555 1_555
N3 H3 1_555 1_555
H4 N3 1_555 1_555
C5 N2 1_555 1_555
C6 N1 1_555 1_555
C7 N1 1_555 1_555
C8 C7 1_555 1_555
H5 C8 1_555 1_555
C9 C5 1_555 1_555
H6 C9 1_555 1_555
C10 C9 1_555 1_555
H7 C10 1_555 1_555
C11 C8 1_555 1_555
H8 C11 1_555 1_555
F1B C2B 1_555 1_555
F2B C4B 1_555 1_555
O1B C1B 1_555 1_555
O2B C1B 1_555 1_555
C1B C3B 1_555 1_555
C2B C3B 1_555 1_555
C3B C4 1_555 1_555
C4B C2B 1_555 1_555
N2 C6 1_555 1_555
N3 C6 1_555 1_555
C5 C7 1_555 1_555
C10 C11 1_555 1_555

#END
