
#######################################################################
#
#                 Cambridge Crystallographic Data Centre
#                                CCDC 
#
#######################################################################
#
# If this CIF has been generated from an entry in the Cambridge 
# Structural Database, then it will include bibliographic, chemical, 
# crystal, experimental, refinement or atomic coordinate data resulting 
# from the CCDC's data processing and validation procedures.
#
#######################################################################

data_INOZUI
_chemical_formula_moiety         'C31 H30 N2'
_chemical_name_systematic        
2,4-bis(4-methylphenyl)-1-phenyl-2,3,3a,4,5,9b-hexahydro-1H-pyrrolo[3,2-c]quinoline
_symmetry_cell_setting           triclinic
_symmetry_space_group_name_H-M   'P -1'
_symmetry_Int_Tables_number      2
_space_group_name_Hall           '-P 1'
loop_
_symmetry_equiv_pos_site_id
_symmetry_equiv_pos_as_xyz
1 x,y,z
2 -x,-y,-z
_cell_length_a                   10.116(2)
_cell_length_b                   10.554(2)
_cell_length_c                   11.501(2)
_cell_angle_alpha                105.31(3)
_cell_angle_beta                 93.11(3)
_cell_angle_gamma                96.37(3)
_cell_volume                     1172.53
_cell_formula_units_Z            2
loop_
_atom_site_label
_atom_site_type_symbol
_atom_site_fract_x
_atom_site_fract_y
_atom_site_fract_z
N1 N -0.04625(11) 0.13182(11) 0.86296(10)
N2 N 0.16567(11) 0.18255(11) 0.58453(10)
C1 C -0.05591(13) -0.01085(13) 0.80096(12)
H1 H -0.0304 -0.0592 0.8610
C2 C -0.19148(13) -0.07414(13) 0.73731(12)
C3 C -0.22850(14) -0.20924(14) 0.71906(13)
H2 H -0.1716 -0.2591 0.7521
C4 C -0.34853(15) -0.27252(15) 0.65262(13)
H3 H -0.3716 -0.3651 0.6403
C5 C -0.43447(14) -0.20215(16) 0.60437(13)
C6 C -0.39813(14) -0.06634(16) 0.62517(13)
H4 H -0.4565 -0.0160 0.5944
C7 C -0.27770(14) -0.00251(14) 0.69035(13)
H5 H -0.2546 0.0901 0.7026
C8 C -0.56297(15) -0.26999(19) 0.53054(15)
H6 H -0.6357 -0.2182 0.5573
H7 H -0.5833 -0.3589 0.5415
H8 H -0.5534 -0.2770 0.4448
C9 C -0.10564(13) 0.17857(13) 0.96860(12)
C10 C -0.20602(14) 0.09701(14) 1.00526(13)
H9 H -0.2310 0.0082 0.9579
C11 C -0.26846(14) 0.14461(15) 1.10910(13)
H10 H -0.3371 0.0885 1.1309
C12 C -0.23270(15) 0.27270(15) 1.18187(13)
H11 H -0.2756 0.3043 1.2534
C13 C -0.13347(14) 0.35353(15) 1.14846(13)
H12 H -0.1072 0.4410 1.1984
C14 C -0.07150(13) 0.30916(14) 1.04326(13)
H13 H -0.0052 0.3674 1.0212
C15 C 0.06079(12) 0.20957(13) 0.81991(12)
H14 H 0.1104 0.2794 0.8896
C16 C 0.00628(13) 0.27244(13) 0.72583(12)
C17 C -0.10321(13) 0.34209(13) 0.74706(12)
H15 H -0.1428 0.3502 0.8213
C18 C -0.15584(13) 0.39968(14) 0.66322(13)
H16 H -0.2303 0.4471 0.6798
C19 C -0.09881(14) 0.38740(14) 0.55480(13)
H17 H -0.1340 0.4270 0.4967
C20 C 0.00887(14) 0.31804(14) 0.53054(12)
H18 H 0.0472 0.3104 0.4558
C21 C 0.06245(13) 0.25865(12) 0.61481(12)
C22 C 0.05096(13) -0.01695(13) 0.71012(12)
H19 H 0.0938 -0.0986 0.7001
H20 H 0.0114 -0.0145 0.6302
C23 C 0.15155(13) 0.10585(13) 0.76628(12)
H21 H 0.2074 0.0893 0.8339
C24 C 0.24393(13) 0.14635(13) 0.67729(12)
H22 H 0.2847 0.0660 0.6361
C25 C 0.35892(13) 0.25281(13) 0.74243(12)
C26 C 0.46143(13) 0.21960(14) 0.80954(13)
H23 H 0.4597 0.1306 0.8132
C27 C 0.56665(14) 0.31383(14) 0.87151(13)
H24 H 0.6351 0.2884 0.9171
C28 C 0.57241(13) 0.44479(14) 0.86730(13)
C29 C 0.47042(14) 0.47809(14) 0.79970(13)
H25 H 0.4725 0.5670 0.7957
C30 C 0.36497(14) 0.38354(14) 0.73751(13)
H26 H 0.2968 0.4087 0.6915
C31 C 0.68455(14) 0.54866(15) 0.93562(14)
H27 H 0.7351 0.5132 0.9922
H28 H 0.6474 0.6272 0.9807
H29 H 0.7440 0.5731 0.8783
loop_
_geom_bond_atom_site_label_1
_geom_bond_atom_site_label_2
_geom_bond_site_symmetry_1
_geom_bond_site_symmetry_2
N1 C1 1_555 1_555
N2 C21 1_555 1_555
C1 H1 1_555 1_555
C2 C1 1_555 1_555
C3 C2 1_555 1_555
H2 C3 1_555 1_555
C4 C3 1_555 1_555
H3 C4 1_555 1_555
C5 C4 1_555 1_555
C6 C5 1_555 1_555
H4 C6 1_555 1_555
C7 C2 1_555 1_555
H5 C7 1_555 1_555
C8 C5 1_555 1_555
H6 C8 1_555 1_555
H7 C8 1_555 1_555
H8 C8 1_555 1_555
C9 N1 1_555 1_555
C10 C9 1_555 1_555
H9 C10 1_555 1_555
C11 C10 1_555 1_555
H10 C11 1_555 1_555
C12 C11 1_555 1_555
H11 C12 1_555 1_555
C13 C12 1_555 1_555
H12 C13 1_555 1_555
C14 C9 1_555 1_555
H13 C14 1_555 1_555
C15 N1 1_555 1_555
H14 C15 1_555 1_555
C16 C15 1_555 1_555
C17 C16 1_555 1_555
H15 C17 1_555 1_555
C18 C17 1_555 1_555
H16 C18 1_555 1_555
C19 C18 1_555 1_555
H17 C19 1_555 1_555
C20 C19 1_555 1_555
H18 C20 1_555 1_555
C21 C16 1_555 1_555
C22 C1 1_555 1_555
H19 C22 1_555 1_555
H20 C22 1_555 1_555
C23 C15 1_555 1_555
H21 C23 1_555 1_555
C24 N2 1_555 1_555
H22 C24 1_555 1_555
C25 C24 1_555 1_555
C26 C25 1_555 1_555
H23 C26 1_555 1_555
C27 C26 1_555 1_555
H24 C27 1_555 1_555
C28 C27 1_555 1_555
C29 C28 1_555 1_555
H25 C29 1_555 1_555
C30 C25 1_555 1_555
H26 C30 1_555 1_555
C31 C28 1_555 1_555
H27 C31 1_555 1_555
H28 C31 1_555 1_555
H29 C31 1_555 1_555
C6 C7 1_555 1_555
C13 C14 1_555 1_555
C20 C21 1_555 1_555
C22 C23 1_555 1_555
C23 C24 1_555 1_555
C29 C30 1_555 1_555

#END
