
#######################################################################
#
#                 Cambridge Crystallographic Data Centre
#                                CCDC 
#
#######################################################################
#
# If this CIF has been generated from an entry in the Cambridge 
# Structural Database, then it will include bibliographic, chemical, 
# crystal, experimental, refinement or atomic coordinate data resulting 
# from the CCDC's data processing and validation procedures.
#
#######################################################################

data_INUGED
_chemical_formula_moiety         'C6 H4 Br2 O2 S1'
_chemical_name_systematic        2,5-Dibromo-3,4-ethylenedioxythiophene
_symmetry_cell_setting           monoclinic
_symmetry_space_group_name_H-M   'C c'
_symmetry_Int_Tables_number      9
_space_group_name_Hall           'C -2yc'
loop_
_symmetry_equiv_pos_site_id
_symmetry_equiv_pos_as_xyz
1 x,y,z
2 x,-y,1/2+z
3 1/2+x,1/2+y,z
4 1/2+x,1/2-y,1/2+z
_cell_length_a                   25.270(6)
_cell_length_b                   5.0127(12)
_cell_length_c                   15.667(4)
_cell_angle_alpha                90
_cell_angle_beta                 123.959(4)
_cell_angle_gamma                90
_cell_volume                     1646.06
_exptl_crystal_colour            purple
_exptl_crystal_description       plate
_chemical_melting_point          96-97deg.C
_cell_formula_units_Z            8
loop_
_atom_site_label
_atom_site_type_symbol
_atom_site_fract_x
_atom_site_fract_y
_atom_site_fract_z
Br1 Br 0.32737(5) -0.04563(16) 0.39045(6)
Br2 Br 0.30905(5) 0.65695(17) 0.05794(6)
S1 S 0.35131(12) 0.3624(4) 0.26367(19)
C1 C 0.3009(5) 0.1332(15) 0.2664(7)
O1 O 0.1967(4) -0.0562(11) 0.1582(5)
O2 O 0.1887(3) 0.2786(11) 0.0011(5)
C2 C 0.2454(5) 0.1044(16) 0.1770(7)
C3 C 0.1506(5) -0.0962(16) 0.0502(7)
H1 H 0.1116 -0.1781 0.0393
H2 H 0.1681 -0.2193 0.0224
C4 C 0.1340(5) 0.1675(16) -0.0058(7)
H3 H 0.0992 0.1410 -0.0790
H4 H 0.1188 0.2934 0.0246
C5 C 0.2410(4) 0.2740(15) 0.0984(6)
C6 C 0.2956(5) 0.4190(15) 0.1361(7)
O3 O 0.6037(3) 0.1188(11) 0.1755(5)
O4 O 0.5988(3) -0.2176(11) 0.3227(5)
C7 C 0.5021(5) 0.2842(15) 0.1358(7)
C8 C 0.5535(5) 0.1248(14) 0.1864(7)
C9 C 0.6588(5) 0.0035(16) 0.2634(7)
H5 H 0.6767 0.1299 0.3217
H6 H 0.6915 -0.0277 0.2485
C10 C 0.6435(5) -0.2562(16) 0.2933(7)
H7 H 0.6250 -0.3820 0.2347
H8 H 0.6834 -0.3360 0.3516
C11 C 0.5522(5) -0.0432(15) 0.2600(7)
C12 C 0.4997(5) -0.0026(16) 0.2600(7)
Br3 Br 0.48151(5) -0.15965(18) 0.34924(6)
Br4 Br 0.48498(4) 0.54012(15) 0.03567(6)
S2 S 0.44985(12) 0.2392(4) 0.17203(17)
loop_
_geom_bond_atom_site_label_1
_geom_bond_atom_site_label_2
_geom_bond_site_symmetry_1
_geom_bond_site_symmetry_2
Br1 C1 1_555 1_555
Br2 C6 1_555 1_555
S1 C1 1_555 1_555
C1 C2 1_555 1_555
O1 C2 1_555 1_555
O2 C4 1_555 1_555
C2 C5 1_555 1_555
C3 O1 1_555 1_555
H1 C3 1_555 1_555
H2 C3 1_555 1_555
C4 C3 1_555 1_555
H3 C4 1_555 1_555
H4 C4 1_555 1_555
C5 O2 1_555 1_555
C6 S1 1_555 1_555
O3 C8 1_555 1_555
O4 C10 1_555 1_555
C7 C8 1_555 1_555
C8 C11 1_555 1_555
C9 O3 1_555 1_555
H5 C9 1_555 1_555
H6 C9 1_555 1_555
C10 C9 1_555 1_555
H7 C10 1_555 1_555
H8 C10 1_555 1_555
C11 O4 1_555 1_555
C12 C11 1_555 1_555
Br3 C12 1_555 1_555
Br4 C7 1_555 1_555
S2 C7 1_555 1_555
C5 C6 1_555 1_555
C12 S2 1_555 1_555

#END
