
#######################################################################
#
#                 Cambridge Crystallographic Data Centre
#                                CCDC 
#
#######################################################################
#
# If this CIF has been generated from an entry in the Cambridge 
# Structural Database, then it will include bibliographic, chemical, 
# crystal, experimental, refinement or atomic coordinate data resulting 
# from the CCDC's data processing and validation procedures.
#
#######################################################################

data_INUHAB
_chemical_formula_moiety         'C11 H15 N1 O2'
_chemical_name_systematic        
cis-9-Ethenylidene-8-hydroxyoctahydro-3H-pyrrolo[1,2-a]azepin-3-one
_symmetry_cell_setting           monoclinic
_symmetry_space_group_name_H-M   'P 21/c'
_symmetry_Int_Tables_number      14
_space_group_name_Hall           '-P 2ybc'
loop_
_symmetry_equiv_pos_site_id
_symmetry_equiv_pos_as_xyz
1 x,y,z
2 -x,1/2+y,1/2-z
3 -x,-y,-z
4 x,1/2-y,1/2+z
_cell_length_a                   9.3602(17)
_cell_length_b                   9.1464(16)
_cell_length_c                   12.432(2)
_cell_angle_alpha                90
_cell_angle_beta                 99.202(3)
_cell_angle_gamma                90
_cell_volume                     1050.63
_exptl_crystal_colour            colorless
_exptl_crystal_description       prismatic
_cell_formula_units_Z            4
loop_
_atom_site_label
_atom_site_type_symbol
_atom_site_fract_x
_atom_site_fract_y
_atom_site_fract_z
O1 O 0.94046(13) 1.06056(15) 0.12535(11)
O2 O 0.84407(13) 0.74856(13) 0.29972(9)
N1 N 0.82379(12) 0.84977(14) 0.07161(9)
C1 C 0.94129(17) 0.9272(2) 0.11070(12)
C2 C 1.06795(18) 0.8266(2) 0.13251(15)
H1 H 1.1074 0.8258 0.2096
H2 H 1.1432 0.8572 0.0921
C3 C 1.01208(18) 0.6780(2) 0.09599(16)
H3 H 1.0359 0.6074 0.1543
H4 H 1.0544 0.6457 0.0337
C4 C 0.84681(16) 0.69341(18) 0.06495(11)
H5 H 0.8185 0.6624 -0.0109
C5 C 0.75878(15) 0.60810(17) 0.13549(11)
C6 C 0.72400(17) 0.67497(19) 0.24033(12)
H6 H 0.6972 0.5954 0.2860
C7 C 0.5978(2) 0.7814(2) 0.22025(16)
H7 H 0.5669 0.8020 0.2895
H8 H 0.5179 0.7335 0.1743
C8 C 0.62720(19) 0.9260(2) 0.16744(15)
H9 H 0.5388 0.9832 0.1570
H10 H 0.6988 0.9795 0.2173
C9 C 0.68023(17) 0.9132(2) 0.05906(13)
H11 H 0.6137 0.8527 0.0103
H12 H 0.6819 1.0094 0.0265
C10 C 0.71240(18) 0.4789(2) 0.10538(13)
C11 C 0.6692(3) 0.3487(3) 0.0758(2)
H13 H 0.906(2) 0.681(2) 0.3224(16)
H14 H 0.577(2) 0.338(3) 0.0322(18)
H15 H 0.723(3) 0.260(3) 0.091(2)
loop_
_geom_bond_atom_site_label_1
_geom_bond_atom_site_label_2
_geom_bond_site_symmetry_1
_geom_bond_site_symmetry_2
O1 C1 1_555 1_555
O2 C6 1_555 1_555
N1 C1 1_555 1_555
C1 C2 1_555 1_555
C2 H1 1_555 1_555
H2 C2 1_555 1_555
C3 C2 1_555 1_555
H3 C3 1_555 1_555
H4 C3 1_555 1_555
C4 N1 1_555 1_555
H5 C4 1_555 1_555
C5 C4 1_555 1_555
C6 C5 1_555 1_555
H6 C6 1_555 1_555
C7 C6 1_555 1_555
H7 C7 1_555 1_555
H8 C7 1_555 1_555
C8 C7 1_555 1_555
H9 C8 1_555 1_555
H10 C8 1_555 1_555
C9 N1 1_555 1_555
H11 C9 1_555 1_555
H12 C9 1_555 1_555
C10 C5 1_555 1_555
C11 C10 1_555 1_555
H13 O2 1_555 1_555
H14 C11 1_555 1_555
H15 C11 1_555 1_555
C3 C4 1_555 1_555
C8 C9 1_555 1_555

#END
