
#######################################################################
#
#                 Cambridge Crystallographic Data Centre
#                                CCDC 
#
#######################################################################
#
# If this CIF has been generated from an entry in the Cambridge 
# Structural Database, then it will include bibliographic, chemical, 
# crystal, experimental, refinement or atomic coordinate data resulting 
# from the CCDC's data processing and validation procedures.
#
#######################################################################

data_INUJAD
_chemical_formula_moiety         'C32 H32 N2 O5 S1'
_chemical_name_systematic        
5-Ethoxy-7-p-tosyl-2,8-diphenyl-3a,4,6,7,8,9,9a,9b-octahydro-1H-pyrrolo[3,4-f]isoquinoline-1,3(2H)-dione
_symmetry_cell_setting           triclinic
_symmetry_space_group_name_H-M   'P -1'
_symmetry_Int_Tables_number      2
_space_group_name_Hall           '-P 1'
loop_
_symmetry_equiv_pos_site_id
_symmetry_equiv_pos_as_xyz
1 x,y,z
2 -x,-y,-z
_cell_length_a                   10.179(2)
_cell_length_b                   10.718(2)
_cell_length_c                   14.103(3)
_cell_angle_alpha                70.142(2)
_cell_angle_beta                 74.680(2)
_cell_angle_gamma                86.416(3)
_cell_volume                     1395.07
_exptl_crystal_colour            colorless
_exptl_crystal_description       block
_cell_formula_units_Z            2
loop_
_atom_site_label
_atom_site_type_symbol
_atom_site_fract_x
_atom_site_fract_y
_atom_site_fract_z
S1 S 0.96462(3) 0.61387(3) 0.64826(3)
O1 O 0.21761(11) 0.72153(11) 0.84205(8)
O2 O 0.42975(11) 0.42631(10) 0.68732(8)
O3 O 1.06785(10) 0.58829(11) 0.56565(9)
O4 O 1.00109(10) 0.68765(10) 0.70618(9)
O5 O 0.55321(10) 0.91110(10) 0.74255(8)
N1 N 0.84511(11) 0.69579(11) 0.59695(9)
N2 N 0.32236(11) 0.55198(12) 0.78753(9)
C1 C 0.88951(13) 0.46181(14) 0.74023(11)
C2 C 0.84562(16) 0.45001(15) 0.84519(12)
H1 H 0.8572 0.5227 0.8666
C3 C 0.78505(17) 0.33193(16) 0.91835(12)
H2 H 0.7550 0.3245 0.9899
C4 C 0.76764(16) 0.22437(15) 0.88880(12)
C5 C 0.81012(14) 0.23879(15) 0.78295(12)
H3 H 0.7976 0.1663 0.7616
C6 C 0.87006(14) 0.35624(14) 0.70813(11)
H4 H 0.8974 0.3647 0.6364
C7 C 0.7060(2) 0.09459(17) 0.96901(14)
H5 H 0.6865 0.1014 1.0389
H6 H 0.7701 0.0235 0.9643
H7 H 0.6211 0.0746 0.9559
C8 C 0.73230(14) 0.72888(15) 0.67544(11)
H8 H 0.7651 0.7989 0.6955
H9 H 0.7071 0.6493 0.7388
C9 C 0.60761(13) 0.77583(13) 0.63683(10)
C10 C 0.56658(13) 0.71511(13) 0.56622(10)
H10 H 0.5753 0.7874 0.4975
C11 C 0.66594(13) 0.60822(13) 0.54592(11)
H11 H 0.6470 0.5799 0.4908
H12 H 0.6533 0.5299 0.6103
C12 C 0.81309(13) 0.66214(13) 0.51155(11)
H13 H 0.8737 0.5885 0.5003
C13 C 0.84511(13) 0.77833(13) 0.40886(11)
C14 C 0.81530(14) 0.76349(15) 0.32229(11)
H14 H 0.7708 0.6841 0.3297
C15 C 0.84954(15) 0.86291(16) 0.22527(12)
H15 H 0.8286 0.8511 0.1671
C16 C 0.91429(16) 0.97939(15) 0.21344(13)
H16 H 0.9385 1.0472 0.1471
C17 C 0.94333(15) 0.99603(15) 0.29874(13)
H17 H 0.9866 1.0762 0.2910
C18 C 0.90968(14) 0.89621(14) 0.39634(12)
H18 H 0.9308 0.9086 0.4543
C19 C 0.52601(13) 0.86280(13) 0.67017(10)
C20 C 0.39235(13) 0.89291(13) 0.64115(11)
H19 H 0.4084 0.9512 0.5674
H20 H 0.3330 0.9393 0.6856
C21 C 0.32297(13) 0.76105(13) 0.65692(10)
H21 H 0.2407 0.7805 0.6288
C22 C 0.41415(13) 0.66679(14) 0.60781(10)
H22 H 0.3808 0.6603 0.5489
C23 C 0.39336(13) 0.53293(14) 0.69446(11)
C24 C 0.27904(13) 0.68182(14) 0.77295(11)
C25 C 0.29169(14) 0.44667(14) 0.88665(11)
C26 C 0.39642(16) 0.38950(17) 0.93101(13)
H23 H 0.4880 0.4203 0.8970
C27 C 0.36576(19) 0.28637(17) 1.02615(13)
H24 H 0.4368 0.2459 1.0572
C28 C 0.23238(19) 0.24269(15) 1.07553(12)
H25 H 0.2121 0.1719 1.1404
C29 C 0.12828(17) 0.30127(16) 1.03121(12)
H26 H 0.0366 0.2714 1.0658
C30 C 0.15776(15) 0.40396(15) 0.93597(12)
H27 H 0.0866 0.4444 0.9050
C31 C 0.55147(18) 1.05290(16) 0.71611(16)
H28 H 0.5549 1.0766 0.7774
H29 H 0.4655 1.0858 0.6974
C32 C 0.6703(3) 1.1182(2) 0.62616(16)
H30 H 0.7552 1.0810 0.6427
H31 H 0.6714 1.2139 0.6135
H32 H 0.6619 1.1023 0.5636
loop_
_geom_bond_atom_site_label_1
_geom_bond_atom_site_label_2
_geom_bond_site_symmetry_1
_geom_bond_site_symmetry_2
S1 O3 1_555 1_555
O1 C24 1_555 1_555
O2 C23 1_555 1_555
O4 S1 1_555 1_555
O5 C19 1_555 1_555
N1 S1 1_555 1_555
N2 C23 1_555 1_555
C1 S1 1_555 1_555
C2 C1 1_555 1_555
H1 C2 1_555 1_555
C3 C2 1_555 1_555
H2 C3 1_555 1_555
C4 C3 1_555 1_555
C5 C4 1_555 1_555
H3 C5 1_555 1_555
C6 C1 1_555 1_555
H4 C6 1_555 1_555
C7 C4 1_555 1_555
H5 C7 1_555 1_555
H6 C7 1_555 1_555
H7 C7 1_555 1_555
C8 N1 1_555 1_555
H8 C8 1_555 1_555
H9 C8 1_555 1_555
C9 C8 1_555 1_555
C10 C9 1_555 1_555
H10 C10 1_555 1_555
C11 C10 1_555 1_555
H11 C11 1_555 1_555
H12 C11 1_555 1_555
C12 N1 1_555 1_555
H13 C12 1_555 1_555
C13 C12 1_555 1_555
C14 C13 1_555 1_555
H14 C14 1_555 1_555
C15 C14 1_555 1_555
H15 C15 1_555 1_555
C16 C15 1_555 1_555
H16 C16 1_555 1_555
C17 C16 1_555 1_555
H17 C17 1_555 1_555
C18 C13 1_555 1_555
H18 C18 1_555 1_555
C19 C9 1_555 1_555
C20 C19 1_555 1_555
H19 C20 1_555 1_555
H20 C20 1_555 1_555
C21 C20 1_555 1_555
H21 C21 1_555 1_555
C22 C10 1_555 1_555
H22 C22 1_555 1_555
C23 C22 1_555 1_555
C24 N2 1_555 1_555
C25 N2 1_555 1_555
C26 C25 1_555 1_555
H23 C26 1_555 1_555
C27 C26 1_555 1_555
H24 C27 1_555 1_555
C28 C27 1_555 1_555
H25 C28 1_555 1_555
C29 C28 1_555 1_555
H26 C29 1_555 1_555
C30 C25 1_555 1_555
H27 C30 1_555 1_555
C31 O5 1_555 1_555
H28 C31 1_555 1_555
H29 C31 1_555 1_555
C32 C31 1_555 1_555
H30 C32 1_555 1_555
H31 C32 1_555 1_555
H32 C32 1_555 1_555
C5 C6 1_555 1_555
C11 C12 1_555 1_555
C17 C18 1_555 1_555
C21 C22 1_555 1_555
C21 C24 1_555 1_555
C29 C30 1_555 1_555

#END
