
#######################################################################
#
#                 Cambridge Crystallographic Data Centre
#                                CCDC 
#
#######################################################################
#
# If this CIF has been generated from an entry in the Cambridge 
# Structural Database, then it will include bibliographic, chemical, 
# crystal, experimental, refinement or atomic coordinate data resulting 
# from the CCDC's data processing and validation procedures.
#
#######################################################################

data_INUJUX
_chemical_formula_moiety         'C28 H25 N1 O5 S1'
_chemical_name_systematic        
5-Ethoxy-3-(p-tosyl)-2-phenyl-1,2,3,4-tetrahydrobenzo[f]isoquinoline-7,10-dione
_symmetry_cell_setting           triclinic
_symmetry_space_group_name_H-M   'P -1'
_symmetry_Int_Tables_number      2
_space_group_name_Hall           '-P 1'
loop_
_symmetry_equiv_pos_site_id
_symmetry_equiv_pos_as_xyz
1 x,y,z
2 -x,-y,-z
_cell_length_a                   9.7720(13)
_cell_length_b                   11.3550(15)
_cell_length_c                   12.0575(16)
_cell_angle_alpha                64.9190(10)
_cell_angle_beta                 80.4630(11)
_cell_angle_gamma                76.6060(10)
_cell_volume                     1175.34
_exptl_crystal_colour            yellow
_exptl_crystal_description       platelet
_cell_formula_units_Z            2
loop_
_atom_site_label
_atom_site_type_symbol
_atom_site_fract_x
_atom_site_fract_y
_atom_site_fract_z
S1 S 0.65427(4) 0.10105(4) 0.05288(4)
O1 O 0.50505(13) 0.13945(12) 0.04280(11)
O2 O 0.75066(13) 0.14169(12) -0.05416(10)
O3 O 1.07976(12) 0.23587(12) 0.14304(10)
O4 O 0.66911(12) 0.00887(12) 0.62675(10)
O5 O 1.10355(14) 0.24846(14) 0.55516(12)
N1 N 0.69231(14) 0.15920(13) 0.14497(12)
C1 C 0.60090(18) -0.13769(17) 0.22063(16)
H1 H 0.5134 -0.0899 0.2396
C2 C 0.6356(2) -0.27297(18) 0.28602(17)
H2 H 0.5717 -0.3177 0.3504
C3 C 0.7632(2) -0.34430(18) 0.25836(18)
C4 C 0.8540(2) -0.27727(19) 0.16317(18)
H3 H 0.9403 -0.3253 0.1426
C5 C 0.82167(19) -0.14140(18) 0.09708(17)
H4 H 0.8853 -0.0967 0.0324
C6 C 0.69503(17) -0.07217(16) 0.12705(15)
C7 C 0.8009(3) -0.4910(2) 0.3313(2)
H5 H 0.8191 -0.5367 0.2758
H6 H 0.7226 -0.5216 0.3916
H7 H 0.8856 -0.5103 0.3740
C8 C 0.84498(17) 0.14590(18) 0.15138(15)
H8 H 0.8819 0.2147 0.0765
H9 H 0.8933 0.0587 0.1523
C9 C 0.88037(17) 0.15841(15) 0.26276(14)
C10 C 0.79881(16) 0.11508(15) 0.37381(14)
C11 C 0.67092(17) 0.06218(15) 0.37202(14)
H10 H 0.6054 0.0587 0.4449
H11 H 0.7007 -0.0288 0.3756
C12 C 0.59527(16) 0.15110(15) 0.25476(14)
H12 H 0.5168 0.1086 0.2540
C13 C 0.52986(16) 0.28707(15) 0.25361(14)
C14 C 0.42592(17) 0.29599(17) 0.34609(15)
H13 H 0.3988 0.2177 0.4084
C15 C 0.36209(19) 0.41775(18) 0.34780(17)
H14 H 0.2917 0.4226 0.4111
C16 C 0.40105(19) 0.53260(18) 0.25699(18)
H15 H 0.3572 0.6162 0.2578
C17 C 0.50368(19) 0.52500(17) 0.16545(17)
H16 H 0.5310 0.6034 0.1036
C18 C 0.56699(18) 0.40297(16) 0.16367(15)
H17 H 0.6368 0.3988 0.0998
C19 C 1.00378(17) 0.20656(16) 0.25309(14)
C20 C 1.20680(18) 0.28801(19) 0.12507(16)
H18 H 1.2676 0.2739 0.0559
H19 H 1.2593 0.2394 0.1998
C21 C 1.1752(2) 0.43342(19) 0.09831(18)
H20 H 1.1288 0.4825 0.0214
H21 H 1.2635 0.4643 0.0905
H22 H 1.1129 0.4481 0.1656
C22 C 1.04071(16) 0.21921(15) 0.35349(14)
H23 H 1.1228 0.2536 0.3472
C23 C 0.95663(16) 0.18110(15) 0.46290(14)
C24 C 0.83704(16) 0.12599(15) 0.47653(14)
C25 C 0.75969(16) 0.07781(15) 0.59925(14)
C26 C 0.79655(18) 0.11149(17) 0.69544(15)
H24 H 0.7398 0.0907 0.7709
C27 C 0.90572(18) 0.16956(17) 0.68034(15)
H25 H 0.9246 0.1895 0.7446
C28 C 0.99775(17) 0.20339(16) 0.56597(15)
loop_
_geom_bond_atom_site_label_1
_geom_bond_atom_site_label_2
_geom_bond_site_symmetry_1
_geom_bond_site_symmetry_2
S1 O1 1_555 1_555
O2 S1 1_555 1_555
O3 C19 1_555 1_555
O4 C25 1_555 1_555
O5 C28 1_555 1_555
N1 S1 1_555 1_555
C1 H1 1_555 1_555
C2 C1 1_555 1_555
H2 C2 1_555 1_555
C3 C2 1_555 1_555
C4 C3 1_555 1_555
H3 C4 1_555 1_555
C5 C4 1_555 1_555
H4 C5 1_555 1_555
C6 S1 1_555 1_555
C7 C3 1_555 1_555
H5 C7 1_555 1_555
H6 C7 1_555 1_555
H7 C7 1_555 1_555
C8 N1 1_555 1_555
H8 C8 1_555 1_555
H9 C8 1_555 1_555
C9 C8 1_555 1_555
C10 C9 1_555 1_555
C11 C10 1_555 1_555
H10 C11 1_555 1_555
H11 C11 1_555 1_555
C12 N1 1_555 1_555
H12 C12 1_555 1_555
C13 C12 1_555 1_555
C14 C13 1_555 1_555
H13 C14 1_555 1_555
C15 C14 1_555 1_555
H14 C15 1_555 1_555
C16 C15 1_555 1_555
H15 C16 1_555 1_555
C17 C16 1_555 1_555
H16 C17 1_555 1_555
C18 C13 1_555 1_555
H17 C18 1_555 1_555
C19 C9 1_555 1_555
C20 O3 1_555 1_555
H18 C20 1_555 1_555
H19 C20 1_555 1_555
C21 C20 1_555 1_555
H20 C21 1_555 1_555
H21 C21 1_555 1_555
H22 C21 1_555 1_555
C22 C19 1_555 1_555
H23 C22 1_555 1_555
C23 C22 1_555 1_555
C24 C10 1_555 1_555
C25 C24 1_555 1_555
C26 C25 1_555 1_555
H24 C26 1_555 1_555
C27 C26 1_555 1_555
H25 C27 1_555 1_555
C28 C23 1_555 1_555
C1 C6 1_555 1_555
C5 C6 1_555 1_555
C11 C12 1_555 1_555
C17 C18 1_555 1_555
C23 C24 1_555 1_555
C27 C28 1_555 1_555

#END
