
#######################################################################
#
#                 Cambridge Crystallographic Data Centre
#                                CCDC 
#
#######################################################################
#
# If this CIF has been generated from an entry in the Cambridge 
# Structural Database, then it will include bibliographic, chemical, 
# crystal, experimental, refinement or atomic coordinate data resulting 
# from the CCDC's data processing and validation procedures.
#
#######################################################################

data_INUKEI
_chemical_formula_moiety         'C25 H26 N2 O5 S1'
_chemical_name_systematic        
2-Ethyl-7-p-tosyl-6-phenyloctahydropyrrolo[3,4-e]isoindole-1,3,5(2H)-trione
_symmetry_cell_setting           monoclinic
_symmetry_space_group_name_H-M   'P 21/c'
_symmetry_Int_Tables_number      14
_space_group_name_Hall           '-P 2ybc'
loop_
_symmetry_equiv_pos_site_id
_symmetry_equiv_pos_as_xyz
1 x,y,z
2 -x,1/2+y,1/2-z
3 -x,-y,-z
4 x,1/2-y,1/2+z
_cell_length_a                   10.6098(12)
_cell_length_b                   15.4475(17)
_cell_length_c                   14.1433(16)
_cell_angle_alpha                90
_cell_angle_beta                 90.0410(10)
_cell_angle_gamma                90
_cell_volume                     2318.01
_exptl_crystal_colour            colorless
_exptl_crystal_description       block
_cell_formula_units_Z            4
loop_
_atom_site_label
_atom_site_type_symbol
_atom_site_fract_x
_atom_site_fract_y
_atom_site_fract_z
S1 S 1.02741(4) 1.05467(2) 0.17706(3)
O1 O 1.07702(13) 1.11392(7) 0.24547(9)
O2 O 1.07448(13) 1.05734(8) 0.08244(9)
O3 O 0.58339(13) 0.83168(12) 0.42280(11)
O4 O 0.98246(13) 0.88286(10) 0.52330(9)
O5 O 0.82113(13) 0.79796(10) 0.09837(10)
N1 N 1.05265(13) 0.95783(8) 0.21751(9)
N2 N 0.77217(14) 0.87013(9) 0.48766(10)
C1 C 0.8026(2) 1.10833(13) 0.25082(16)
H1 H 0.8483 1.1278 0.3027
C2 C 0.6736(2) 1.11832(15) 0.24763(19)
H2 H 0.6329 1.1456 0.2977
C3 C 0.6030(2) 1.08881(15) 0.17178(19)
C4 C 0.6646(2) 1.04659(15) 0.09917(16)
H3 H 0.6182 1.0244 0.0489
C5 C 0.79402(19) 1.03665(13) 0.09984(13)
H4 H 0.8343 1.0086 0.0501
C6 C 0.86323(18) 1.06870(10) 0.17509(13)
C7 C 0.4620(2) 1.1048(2) 0.1667(2)
H5 H 0.4466 1.1610 0.1399
H6 H 0.4268 1.1023 0.2291
H7 H 0.4234 1.0614 0.1277
C8 C 1.05850(14) 0.88079(9) 0.15469(11)
H8 H 1.0142 0.8929 0.0953
C9 C 1.19331(16) 0.85414(10) 0.13400(12)
C10 C 1.29485(18) 0.88863(15) 0.18043(17)
H9 H 1.2819 0.9300 0.2272
C11 C 1.4165(2) 0.86290(18) 0.1589(2)
H10 H 1.4840 0.8871 0.1915
C12 C 1.4389(2) 0.80256(15) 0.09055(18)
H11 H 1.5208 0.7856 0.0763
C13 C 1.3392(2) 0.76755(14) 0.04358(16)
H12 H 1.3533 0.7265 -0.0033
C14 C 1.21641(19) 0.79243(12) 0.06493(13)
H13 H 1.1493 0.7675 0.0326
C15 C 1.00253(19) 0.93710(10) 0.31192(12)
H14 H 0.9170 0.9584 0.3190
H15 H 1.0548 0.9620 0.3612
C16 C 1.00620(15) 0.83846(10) 0.31525(11)
H16 H 1.0917 0.8210 0.3333
C17 C 0.98543(14) 0.81186(10) 0.21179(11)
H17 H 1.0241 0.7551 0.2012
C18 C 0.84847(16) 0.80851(11) 0.18073(13)
C19 C 0.74940(18) 0.82259(18) 0.25345(14)
H18 H 0.6711 0.7976 0.2307
H19 H 0.7362 0.8844 0.2606
C20 C 0.77919(16) 0.78391(12) 0.35112(13)
H20 H 0.7603 0.7218 0.3508
C21 C 0.91398(15) 0.79833(10) 0.38684(12)
H21 H 0.9481 0.7422 0.4067
C22 C 0.89949(17) 0.85444(11) 0.47416(12)
C23 C 0.69655(17) 0.82869(12) 0.42232(13)
C24 C 0.7213(2) 0.92320(15) 0.56460(15)
H22 H 0.7806 0.9240 0.6168
H23 H 0.6432 0.8978 0.5871
C25 C 0.6967(3) 1.01497(17) 0.53195(19)
H24 H 0.7746 1.0412 0.5127
H25 H 0.6607 1.0477 0.5829
H26 H 0.6392 1.0142 0.4795
loop_
_geom_bond_atom_site_label_1
_geom_bond_atom_site_label_2
_geom_bond_site_symmetry_1
_geom_bond_site_symmetry_2
S1 O1 1_555 1_555
O2 S1 1_555 1_555
O3 C23 1_555 1_555
O4 C22 1_555 1_555
O5 C18 1_555 1_555
N1 S1 1_555 1_555
N2 C22 1_555 1_555
C1 H1 1_555 1_555
C2 C1 1_555 1_555
H2 C2 1_555 1_555
C3 C2 1_555 1_555
C4 C3 1_555 1_555
H3 C4 1_555 1_555
C5 C4 1_555 1_555
H4 C5 1_555 1_555
C6 S1 1_555 1_555
C7 C3 1_555 1_555
H5 C7 1_555 1_555
H6 C7 1_555 1_555
H7 C7 1_555 1_555
C8 N1 1_555 1_555
H8 C8 1_555 1_555
C9 C8 1_555 1_555
C10 C9 1_555 1_555
H9 C10 1_555 1_555
C11 C10 1_555 1_555
H10 C11 1_555 1_555
C12 C11 1_555 1_555
H11 C12 1_555 1_555
C13 C12 1_555 1_555
H12 C13 1_555 1_555
C14 C9 1_555 1_555
H13 C14 1_555 1_555
C15 N1 1_555 1_555
H14 C15 1_555 1_555
H15 C15 1_555 1_555
C16 C15 1_555 1_555
H16 C16 1_555 1_555
C17 C8 1_555 1_555
H17 C17 1_555 1_555
C18 C17 1_555 1_555
C19 C18 1_555 1_555
H18 C19 1_555 1_555
H19 C19 1_555 1_555
C20 C19 1_555 1_555
H20 C20 1_555 1_555
C21 C16 1_555 1_555
H21 C21 1_555 1_555
C22 C21 1_555 1_555
C23 N2 1_555 1_555
C24 N2 1_555 1_555
H22 C24 1_555 1_555
H23 C24 1_555 1_555
C25 C24 1_555 1_555
H24 C25 1_555 1_555
H25 C25 1_555 1_555
H26 C25 1_555 1_555
C1 C6 1_555 1_555
C5 C6 1_555 1_555
C13 C14 1_555 1_555
C16 C17 1_555 1_555
C20 C21 1_555 1_555
C20 C23 1_555 1_555

#END
