
#######################################################################
#
#                 Cambridge Crystallographic Data Centre
#                                CCDC 
#
#######################################################################
#
# If this CIF has been generated from an entry in the Cambridge 
# Structural Database, then it will include bibliographic, chemical, 
# crystal, experimental, refinement or atomic coordinate data resulting 
# from the CCDC's data processing and validation procedures.
#
#######################################################################

data_INUKOS
_chemical_formula_moiety         'C30 H28 N2 O5 S1'
_chemical_name_systematic        
7-p-Tosyl-2,8-diphenyloctahydro-1H-pyrrolo[3,4-f]isoquinoline-1,3,5(2H,4H)-trione
_symmetry_cell_setting           monoclinic
_symmetry_space_group_name_H-M   'P 21/n'
_symmetry_Int_Tables_number      14
_space_group_name_Hall           '-P 2yn'
loop_
_symmetry_equiv_pos_site_id
_symmetry_equiv_pos_as_xyz
1 x,y,z
2 1/2-x,1/2+y,1/2-z
3 -x,-y,-z
4 1/2+x,1/2-y,1/2+z
_cell_length_a                   14.652(3)
_cell_length_b                   6.9843(13)
_cell_length_c                   24.951(5)
_cell_angle_alpha                90
_cell_angle_beta                 96.334(2)
_cell_angle_gamma                90
_cell_volume                     2537.75
_exptl_crystal_colour            colorless
_exptl_crystal_description       needle
_cell_formula_units_Z            4
loop_
_atom_site_label
_atom_site_type_symbol
_atom_site_fract_x
_atom_site_fract_y
_atom_site_fract_z
S1 S 0.27833(3) 0.94308(6) 0.010513(15)
O1 O 0.35980(8) 0.85692(18) -0.00631(4)
O2 O 0.25603(8) 1.13534(17) -0.00648(5)
O3 O 0.41742(9) 0.46118(18) 0.06051(5)
O4 O 0.56021(8) 0.98743(17) 0.22555(5)
O5 O 0.67190(10) 0.4691(2) 0.14271(5)
N1 N 0.28006(9) 0.9407(2) 0.07658(5)
N2 N 0.62092(9) 0.7069(2) 0.19615(5)
C1 C 0.20093(12) 0.6012(3) -0.02367(7)
H1 H 0.2601 0.5463 -0.0152
C2 C 0.12854(12) 0.4904(3) -0.04683(7)
H2 H 0.1384 0.3585 -0.0534
C3 C 0.04168(12) 0.5682(3) -0.06067(6)
C4 C 0.02828(12) 0.7608(3) -0.04897(7)
H3 H -0.0309 0.8157 -0.0574
C5 C 0.09914(11) 0.8734(3) -0.02542(6)
H4 H 0.0888 1.0043 -0.0177
C6 C 0.18613(11) 0.7929(2) -0.01307(6)
C7 C -0.03530(13) 0.4480(3) -0.08768(7)
H5 H -0.0108 0.3255 -0.0988
H6 H -0.0646 0.5156 -0.1195
H7 H -0.0807 0.4246 -0.0624
C8 C 0.30958(11) 1.1165(2) 0.10723(6)
H8 H 0.3130 1.2230 0.0807
C9 C 0.40646(11) 1.0907(2) 0.13831(6)
H9 H 0.4387 1.2155 0.1410
H10 H 0.4006 1.0450 0.1753
C10 C 0.46216(11) 0.9472(2) 0.10949(6)
H11 H 0.4570 0.9853 0.0706
C11 C 0.41738(11) 0.7490(2) 0.11216(6)
H12 H 0.4341 0.6999 0.1496
C12 C 0.31174(10) 0.7626(2) 0.10379(6)
H13 H 0.2869 0.6521 0.0820
H14 H 0.2876 0.7557 0.1393
C13 C 0.24011(11) 1.1730(3) 0.14541(6)
C14 C 0.15777(12) 1.0766(3) 0.14778(7)
H15 H 0.1428 0.9703 0.1247
C15 C 0.09684(12) 1.1344(3) 0.18375(7)
H16 H 0.0408 1.0671 0.1851
C16 C 0.11744(13) 1.2885(3) 0.21737(7)
H17 H 0.0755 1.3280 0.2416
C17 C 0.19955(13) 1.3861(3) 0.21573(7)
H18 H 0.2141 1.4920 0.2390
C18 C 0.26045(12) 1.3286(3) 0.18003(7)
H19 H 0.3166 1.3957 0.1791
C19 C 0.45691(11) 0.6081(3) 0.07433(6)
C20 C 0.54947(11) 0.6616(3) 0.05745(6)
H20 H 0.5404 0.7455 0.0253
H21 H 0.5811 0.5441 0.0472
C21 C 0.61039(11) 0.7647(3) 0.10215(6)
H22 H 0.6665 0.8128 0.0870
C22 C 0.56518(11) 0.9331(3) 0.12932(6)
H23 H 0.5966 1.0556 0.1216
C23 C 0.58125(11) 0.8888(2) 0.18922(6)
C24 C 0.63939(12) 0.6264(3) 0.14725(7)
C25 C 0.63751(11) 0.6120(2) 0.24753(6)
C26 C 0.60790(12) 0.4246(3) 0.25232(7)
H24 H 0.5780 0.3588 0.2220
C27 C 0.62265(12) 0.3347(3) 0.30222(7)
H25 H 0.6038 0.2057 0.3060
C28 C 0.66476(11) 0.4327(3) 0.34647(7)
H26 H 0.6735 0.3718 0.3807
C29 C 0.69420(12) 0.6194(3) 0.34095(7)
H27 H 0.7232 0.6860 0.3714
C30 C 0.68138(11) 0.7097(3) 0.29104(6)
H28 H 0.7025 0.8368 0.2869
loop_
_geom_bond_atom_site_label_1
_geom_bond_atom_site_label_2
_geom_bond_site_symmetry_1
_geom_bond_site_symmetry_2
S1 O1 1_555 1_555
O2 S1 1_555 1_555
O3 C19 1_555 1_555
O4 C23 1_555 1_555
O5 C24 1_555 1_555
N1 S1 1_555 1_555
N2 C23 1_555 1_555
C1 H1 1_555 1_555
C2 C1 1_555 1_555
H2 C2 1_555 1_555
C3 C2 1_555 1_555
C4 C3 1_555 1_555
H3 C4 1_555 1_555
C5 C4 1_555 1_555
H4 C5 1_555 1_555
C6 S1 1_555 1_555
C7 C3 1_555 1_555
H5 C7 1_555 1_555
H6 C7 1_555 1_555
H7 C7 1_555 1_555
C8 N1 1_555 1_555
H8 C8 1_555 1_555
C9 C8 1_555 1_555
H9 C9 1_555 1_555
H10 C9 1_555 1_555
C10 C9 1_555 1_555
H11 C10 1_555 1_555
C11 C10 1_555 1_555
H12 C11 1_555 1_555
C12 N1 1_555 1_555
H13 C12 1_555 1_555
H14 C12 1_555 1_555
C13 C8 1_555 1_555
C14 C13 1_555 1_555
H15 C14 1_555 1_555
C15 C14 1_555 1_555
H16 C15 1_555 1_555
C16 C15 1_555 1_555
H17 C16 1_555 1_555
C17 C16 1_555 1_555
H18 C17 1_555 1_555
C18 C13 1_555 1_555
H19 C18 1_555 1_555
C19 C11 1_555 1_555
C20 C19 1_555 1_555
H20 C20 1_555 1_555
H21 C20 1_555 1_555
C21 C20 1_555 1_555
H22 C21 1_555 1_555
C22 C10 1_555 1_555
H23 C22 1_555 1_555
C23 C22 1_555 1_555
C24 N2 1_555 1_555
C25 N2 1_555 1_555
C26 C25 1_555 1_555
H24 C26 1_555 1_555
C27 C26 1_555 1_555
H25 C27 1_555 1_555
C28 C27 1_555 1_555
H26 C28 1_555 1_555
C29 C28 1_555 1_555
H27 C29 1_555 1_555
C30 C25 1_555 1_555
H28 C30 1_555 1_555
C1 C6 1_555 1_555
C5 C6 1_555 1_555
C11 C12 1_555 1_555
C17 C18 1_555 1_555
C21 C22 1_555 1_555
C21 C24 1_555 1_555
C29 C30 1_555 1_555

#END
