
#######################################################################
#
#                 Cambridge Crystallographic Data Centre
#                                CCDC 
#
#######################################################################
#
# If this CIF has been generated from an entry in the Cambridge 
# Structural Database, then it will include bibliographic, chemical, 
# crystal, experimental, refinement or atomic coordinate data resulting 
# from the CCDC's data processing and validation procedures.
#
#######################################################################

data_INULOT
_chemical_formula_moiety         'C27 H25 N1 O5 S1'
_chemical_name_systematic        
5-Ethoxy-2-phenyl-3-(phenylsulfonyl)-1,2,3,4,4a,10b-hexahydrobenzo[f]isoquinoline-7,10-dione
_symmetry_cell_setting           monoclinic
_symmetry_space_group_name_H-M   'P 21/c'
_symmetry_Int_Tables_number      14
_space_group_name_Hall           '-P 2ybc'
loop_
_symmetry_equiv_pos_site_id
_symmetry_equiv_pos_as_xyz
1 x,y,z
2 -x,1/2+y,1/2-z
3 -x,-y,-z
4 x,1/2-y,1/2+z
_cell_length_a                   14.935(5)
_cell_length_b                   12.344(5)
_cell_length_c                   13.429(4)
_cell_angle_alpha                90
_cell_angle_beta                 114.042(4)
_cell_angle_gamma                90
_cell_volume                     2260.96
_exptl_crystal_colour            red
_exptl_crystal_description       platelet
_cell_formula_units_Z            4
loop_
_atom_site_label
_atom_site_type_symbol
_atom_site_fract_x
_atom_site_fract_y
_atom_site_fract_z
S1 S 0.07456(5) 0.25301(6) 0.49160(6)
O1 O 0.02191(15) 0.33609(16) 0.41562(16)
O2 O 0.03803(15) 0.21389(16) 0.56814(16)
O3 O 0.55357(15) 0.30858(15) 0.59300(16)
O4 O 0.54153(14) -0.11571(15) 0.64910(15)
O5 O 0.25658(14) 0.03883(14) 0.72534(16)
N1 N 0.18408(16) 0.29962(17) 0.56189(17)
C1 C 0.08533(19) 0.1422(2) 0.4141(2)
C2 C 0.0790(2) 0.1585(2) 0.3092(2)
H1 H 0.0674 0.2289 0.2779
C3 C 0.0897(2) 0.0709(2) 0.2508(2)
H2 H 0.0856 0.0813 0.1790
C4 C 0.1064(2) -0.0321(2) 0.2961(2)
H3 H 0.1142 -0.0918 0.2556
C5 C 0.1117(2) -0.0478(2) 0.4005(2)
H4 H 0.1225 -0.1184 0.4313
C6 C 0.1011(2) 0.0395(2) 0.4603(2)
H5 H 0.1047 0.0290 0.5319
C7 C 0.2390(2) 0.3484(2) 0.5028(2)
H6 H 0.1919 0.3555 0.4248
C8 C 0.2709(2) 0.4636(2) 0.5458(2)
C9 C 0.2018(2) 0.5325(2) 0.5579(2)
H7 H 0.1383 0.5058 0.5448
C10 C 0.2252(3) 0.6402(2) 0.5891(2)
H8 H 0.1780 0.6867 0.5972
C11 C 0.3177(3) 0.6789(2) 0.6080(2)
H9 H 0.3337 0.7522 0.6293
C12 C 0.3865(2) 0.6125(2) 0.5963(2)
H10 H 0.4498 0.6399 0.6095
C13 C 0.3632(2) 0.5039(2) 0.5649(2)
H11 H 0.4108 0.4579 0.5567
C14 C 0.3201(2) 0.2718(2) 0.5053(2)
H12 H 0.3600 0.3083 0.4718
H13 H 0.2900 0.2068 0.4610
C15 C 0.3875(2) 0.2361(2) 0.6220(2)
H14 H 0.4191 0.3023 0.6648
C16 C 0.3244(2) 0.1857(2) 0.6734(3)
H15 H 0.3703 0.2017 0.7503
C17 C 0.24383(19) 0.2596(2) 0.6727(2)
H16 H 0.2013 0.2199 0.7008
H17 H 0.2730 0.3219 0.7217
C18 C 0.32281(19) 0.0760(2) 0.6872(2)
C19 C 0.3899(2) 0.0027(2) 0.6690(2)
H18 H 0.3852 -0.0737 0.6742
C20 C 0.4662(2) 0.0545(2) 0.6419(2)
C21 C 0.4672(2) 0.1612(2) 0.6228(2)
C22 C 0.5496(2) 0.2099(2) 0.6043(2)
C23 C 0.6293(2) 0.1389(2) 0.6057(2)
H19 H 0.6828 0.1692 0.5943
C24 C 0.6273(2) 0.0328(2) 0.6228(2)
H20 H 0.6800 -0.0113 0.6242
C25 C 0.5452(2) -0.0174(2) 0.6394(2)
C26 C 0.2407(2) -0.0745(2) 0.7273(3)
H21 H 0.3027 -0.1113 0.7735
H22 H 0.2175 -0.1046 0.6526
C27 C 0.1659(2) -0.0929(2) 0.7721(2)
H23 H 0.1939 -0.0751 0.8500
H24 H 0.1456 -0.1690 0.7622
H25 H 0.1088 -0.0466 0.7337
loop_
_geom_bond_atom_site_label_1
_geom_bond_atom_site_label_2
_geom_bond_site_symmetry_1
_geom_bond_site_symmetry_2
S1 O1 1_555 1_555
O2 S1 1_555 1_555
O3 C22 1_555 1_555
O4 C25 1_555 1_555
O5 C18 1_555 1_555
N1 S1 1_555 1_555
C1 S1 1_555 1_555
C2 C1 1_555 1_555
H1 C2 1_555 1_555
C3 C2 1_555 1_555
H2 C3 1_555 1_555
C4 C3 1_555 1_555
H3 C4 1_555 1_555
C5 C4 1_555 1_555
H4 C5 1_555 1_555
C6 C1 1_555 1_555
H5 C6 1_555 1_555
C7 N1 1_555 1_555
H6 C7 1_555 1_555
C8 C7 1_555 1_555
C9 C8 1_555 1_555
H7 C9 1_555 1_555
C10 C9 1_555 1_555
H8 C10 1_555 1_555
C11 C10 1_555 1_555
H9 C11 1_555 1_555
C12 C11 1_555 1_555
H10 C12 1_555 1_555
C13 C8 1_555 1_555
H11 C13 1_555 1_555
C14 C7 1_555 1_555
H12 C14 1_555 1_555
H13 C14 1_555 1_555
C15 C14 1_555 1_555
H14 C15 1_555 1_555
C16 C15 1_555 1_555
H15 C16 1_555 1_555
C17 N1 1_555 1_555
H16 C17 1_555 1_555
H17 C17 1_555 1_555
C18 C16 1_555 1_555
C19 C18 1_555 1_555
H18 C19 1_555 1_555
C20 C19 1_555 1_555
C21 C15 1_555 1_555
C22 C21 1_555 1_555
C23 C22 1_555 1_555
H19 C23 1_555 1_555
C24 C23 1_555 1_555
H20 C24 1_555 1_555
C25 C20 1_555 1_555
C26 O5 1_555 1_555
H21 C26 1_555 1_555
H22 C26 1_555 1_555
C27 C26 1_555 1_555
H23 C27 1_555 1_555
H24 C27 1_555 1_555
H25 C27 1_555 1_555
C5 C6 1_555 1_555
C12 C13 1_555 1_555
C16 C17 1_555 1_555
C20 C21 1_555 1_555
C24 C25 1_555 1_555

#END
