
#######################################################################
#
#                 Cambridge Crystallographic Data Centre
#                                CCDC 
#
#######################################################################
#
# If this CIF has been generated from an entry in the Cambridge 
# Structural Database, then it will include bibliographic, chemical, 
# crystal, experimental, refinement or atomic coordinate data resulting 
# from the CCDC's data processing and validation procedures.
#
#######################################################################

data_INULEJ
_chemical_formula_moiety         'C29 H28 N4 O5 S1'
_chemical_name_systematic        
6-Ethoxy-8-p-tosyl-2,7-diphenyl-7,8,9,9a-tetrahydro-1H,5H-pyrrolo[3,4-c][1,2,4]triazolo[1,2-a]pyridazine-1,3(2H)-dione
_symmetry_cell_setting           monoclinic
_symmetry_space_group_name_H-M   'P 21/n'
_symmetry_Int_Tables_number      14
_space_group_name_Hall           '-P 2yn'
loop_
_symmetry_equiv_pos_site_id
_symmetry_equiv_pos_as_xyz
1 x,y,z
2 1/2-x,1/2+y,1/2-z
3 -x,-y,-z
4 1/2+x,1/2-y,1/2+z
_cell_length_a                   8.4104(7)
_cell_length_b                   32.032(3)
_cell_length_c                   19.8550(17)
_cell_angle_alpha                90
_cell_angle_beta                 95.7420(10)
_cell_angle_gamma                90
_cell_volume                     5322.14
_exptl_crystal_colour            colorless
_exptl_crystal_description       platelet
_cell_formula_units_Z            8
loop_
_atom_site_label
_atom_site_type_symbol
_atom_site_fract_x
_atom_site_fract_y
_atom_site_fract_z
S1 S 0.94987(4) 0.219615(12) 0.70151(2)
O1 O 1.05202(13) 0.21882(4) 0.76378(7)
O2 O 1.01390(14) 0.22732(4) 0.63848(7)
O3 O 0.45065(14) 0.26141(4) 0.84290(6)
O4 O 0.10041(14) 0.35946(4) 0.66209(6)
O5 O 0.47466(14) 0.30252(4) 0.53410(6)
N1 N 0.81806(15) 0.25636(4) 0.70979(7)
N2 N 0.43118(15) 0.29788(4) 0.64710(7)
N3 N 0.33217(15) 0.32120(4) 0.68748(7)
N4 N 0.26529(16) 0.33723(4) 0.58036(7)
C1 C 0.82061(18) 0.14999(5) 0.75332(8)
H1 H 0.8621 0.1603 0.7964
C2 C 0.73453(18) 0.11275(5) 0.74798(8)
H2 H 0.7173 0.0978 0.7879
C3 C 0.67336(17) 0.09706(5) 0.68546(8)
C4 C 0.70065(19) 0.11950(5) 0.62759(8)
H3 H 0.6601 0.1091 0.5844
C5 C 0.78593(19) 0.15674(5) 0.63166(8)
H4 H 0.8036 0.1717 0.5917
C6 C 0.84494(17) 0.17189(5) 0.69477(8)
C7 C 0.58130(19) 0.05671(5) 0.68118(9)
H5 H 0.6103 0.0402 0.7221
H6 H 0.6071 0.0410 0.6414
H7 H 0.4665 0.0627 0.6773
C8 C 0.74240(18) 0.25961(5) 0.77451(8)
H8 H 0.7212 0.2311 0.7920
C9 C 0.84245(18) 0.28455(5) 0.82823(8)
C10 C 0.92020(18) 0.32129(5) 0.81233(9)
H9 H 0.9162 0.3303 0.7666
C11 C 1.0034(2) 0.34462(5) 0.86337(9)
H10 H 1.0572 0.3694 0.8523
C12 C 1.0085(2) 0.33193(6) 0.93032(10)
H11 H 1.0639 0.3482 0.9651
C13 C 0.9324(2) 0.29540(7) 0.94612(10)
H12 H 0.9360 0.2865 0.9919
C14 C 0.8511(2) 0.27181(6) 0.89521(10)
H13 H 0.8006 0.2466 0.9064
C15 C 0.58620(18) 0.28101(5) 0.75087(8)
C16 C 0.59434(18) 0.29723(5) 0.68020(8)
H14 H 0.6427 0.3258 0.6810
C17 C 0.70303(19) 0.26548(5) 0.65029(8)
H15 H 0.6433 0.2402 0.6341
H16 H 0.7568 0.2776 0.6127
C18 C 0.45280(18) 0.28135(5) 0.78205(8)
C19 C 0.3134(2) 0.26748(6) 0.88045(9)
H17 H 0.2160 0.2565 0.8543
H18 H 0.2976 0.2976 0.8887
C20 C 0.3429(3) 0.24475(8) 0.94649(11)
H19 H 0.3572 0.2149 0.9379
H20 H 0.2513 0.2486 0.9727
H21 H 0.4394 0.2558 0.9721
C21 C 0.30087(18) 0.30151(5) 0.75067(8)
H22 H 0.2161 0.2802 0.7421
H23 H 0.2638 0.3227 0.7819
C22 C 0.21758(19) 0.34154(5) 0.64561(8)
C23 C 0.39984(19) 0.31179(5) 0.58080(9)
C24 C 0.18906(19) 0.35716(5) 0.52106(8)
C25 C 0.1507(2) 0.33382(6) 0.46339(9)
H24 H 0.1734 0.3048 0.4631
C26 C 0.0786(2) 0.35322(6) 0.40591(10)
H25 H 0.0538 0.3376 0.3656
C27 C 0.0424(2) 0.39544(6) 0.40706(10)
H26 H -0.0088 0.4085 0.3678
C28 C 0.0807(2) 0.41853(6) 0.46504(9)
H27 H 0.0553 0.4474 0.4658
C29 C 0.1562(2) 0.39950(5) 0.52229(9)
H28 H 0.1852 0.4154 0.5620
S2 S 0.02395(4) 1.023759(11) 0.710802(19)
O6 O -0.06484(13) 1.01400(3) 0.64721(6)
O7 O -0.05481(13) 1.02551(3) 0.77144(6)
O8 O 0.53338(13) 0.95558(4) 0.60357(5)
O9 O 0.89376(13) 0.90243(4) 0.82691(6)
O10 O 0.49903(13) 0.97854(3) 0.91634(5)
N5 N 0.16177(14) 0.98802(4) 0.72339(6)
N6 N 0.65522(15) 0.93186(4) 0.78227(6)
N7 N 0.54994(15) 0.96150(4) 0.80750(6)
N8 N 0.71941(16) 0.93830(4) 0.89214(6)
C30 C 0.18516(18) 1.09367(5) 0.75896(9)
H29 H 0.1735 1.0834 0.8031
C31 C 0.26583(19) 1.13080(5) 0.75025(10)
H30 H 0.3085 1.1460 0.7890
C32 C 0.28563(19) 1.14630(5) 0.68643(10)
C33 C 0.2195(2) 1.12424(5) 0.63041(9)
H31 H 0.2306 1.1347 0.5863
C34 C 0.13710(19) 1.08704(5) 0.63774(8)
H32 H 0.0918 1.0723 0.5989
C35 C 0.12163(17) 1.07172(4) 0.70192(8)
C36 C 0.3766(2) 1.18624(5) 0.67848(12)
H33 H 0.4909 1.1800 0.6794
H34 H 0.3590 1.2053 0.7156
H35 H 0.3391 1.1994 0.6352
C37 C 0.23933(17) 0.97059(4) 0.66497(7)
H36 H 0.2563 0.9931 0.6315
C38 C 0.14495(16) 0.93469(4) 0.63062(7)
C39 C 0.14914(19) 0.92810(5) 0.56171(8)
H37 H 0.2044 0.9472 0.5359
C40 C 0.0728(2) 0.89361(6) 0.53012(9)
H38 H 0.0780 0.8891 0.4831
C41 C -0.0104(2) 0.86603(5) 0.56704(9)
H39 H -0.0633 0.8427 0.5454
C42 C -0.01617(19) 0.87253(5) 0.63574(9)
H40 H -0.0741 0.8537 0.6611
C43 C 0.06244(17) 0.90644(5) 0.66779(8)
H41 H 0.0599 0.9104 0.7151
C44 C 0.27522(18) 0.99128(5) 0.78519(8)
H42 H 0.2206 0.9875 0.8267
H43 H 0.3321 1.0184 0.7874
C45 C 0.38846(17) 0.95507(5) 0.77484(7)
H44 H 0.3432 0.9280 0.7893
C46 C 0.39792(17) 0.95589(4) 0.69982(7)
C47 C 0.53241(17) 0.94962(4) 0.67144(7)
C48 C 0.6733(2) 0.94437(6) 0.57201(8)
H45 H 0.6962 0.9143 0.5787
H46 H 0.7666 0.9604 0.5924
C49 C 0.6435(3) 0.95385(9) 0.49917(10)
H47 H 0.5474 0.9391 0.4800
H48 H 0.7353 0.9448 0.4761
H49 H 0.6280 0.9840 0.4930
C50 C 0.68699(17) 0.93799(5) 0.71237(7)
H50 H 0.7305 0.9120 0.6943
H51 H 0.7667 0.9605 0.7096
C51 C 0.77171(18) 0.92168(5) 0.83281(8)
C52 C 0.57969(18) 0.96134(5) 0.87768(8)
C53 C 0.80155(19) 0.93245(5) 0.95823(8)
C54 C 0.8339(2) 0.96666(6) 1.00005(9)
H52 H 0.7975 0.9937 0.9863
C55 C 0.9211(2) 0.96051(7) 1.06254(9)
H53 H 0.9440 0.9836 1.0920
C56 C 0.9746(2) 0.92110(7) 1.08214(9)
H54 H 1.0375 0.9174 1.1242
C57 C 0.9369(2) 0.88709(7) 1.04092(9)
H55 H 0.9713 0.8600 1.0553
C58 C 0.8489(2) 0.89247(6) 0.97843(9)
H56 H 0.8215 0.8692 0.9500
loop_
_geom_bond_atom_site_label_1
_geom_bond_atom_site_label_2
_geom_bond_site_symmetry_1
_geom_bond_site_symmetry_2
S1 O1 1_555 1_555
O2 S1 1_555 1_555
O3 C18 1_555 1_555
O4 C22 1_555 1_555
O5 C23 1_555 1_555
N1 S1 1_555 1_555
N2 N3 1_555 1_555
N3 C21 1_555 1_555
N4 C22 1_555 1_555
C1 H1 1_555 1_555
C2 C1 1_555 1_555
H2 C2 1_555 1_555
C3 C2 1_555 1_555
C4 C3 1_555 1_555
H3 C4 1_555 1_555
C5 C4 1_555 1_555
H4 C5 1_555 1_555
C6 S1 1_555 1_555
C7 C3 1_555 1_555
H5 C7 1_555 1_555
H6 C7 1_555 1_555
H7 C7 1_555 1_555
C8 N1 1_555 1_555
H8 C8 1_555 1_555
C9 C8 1_555 1_555
C10 C9 1_555 1_555
H9 C10 1_555 1_555
C11 C10 1_555 1_555
H10 C11 1_555 1_555
C12 C11 1_555 1_555
H11 C12 1_555 1_555
C13 C12 1_555 1_555
H12 C13 1_555 1_555
C14 C9 1_555 1_555
H13 C14 1_555 1_555
C15 C8 1_555 1_555
C16 N2 1_555 1_555
H14 C16 1_555 1_555
C17 N1 1_555 1_555
H15 C17 1_555 1_555
H16 C17 1_555 1_555
C18 C15 1_555 1_555
C19 O3 1_555 1_555
H17 C19 1_555 1_555
H18 C19 1_555 1_555
C20 C19 1_555 1_555
H19 C20 1_555 1_555
H20 C20 1_555 1_555
H21 C20 1_555 1_555
C21 C18 1_555 1_555
H22 C21 1_555 1_555
H23 C21 1_555 1_555
C22 N3 1_555 1_555
C23 N2 1_555 1_555
C24 N4 1_555 1_555
C25 C24 1_555 1_555
H24 C25 1_555 1_555
C26 C25 1_555 1_555
H25 C26 1_555 1_555
C27 C26 1_555 1_555
H26 C27 1_555 1_555
C28 C27 1_555 1_555
H27 C28 1_555 1_555
C29 C24 1_555 1_555
H28 C29 1_555 1_555
S2 O6 1_555 1_555
O7 S2 1_555 1_555
O8 C47 1_555 1_555
O9 C51 1_555 1_555
O10 C52 1_555 1_555
N5 S2 1_555 1_555
N6 N7 1_555 1_555
N7 C45 1_555 1_555
N8 C51 1_555 1_555
C30 H29 1_555 1_555
C31 C30 1_555 1_555
H30 C31 1_555 1_555
C32 C31 1_555 1_555
C33 C32 1_555 1_555
H31 C33 1_555 1_555
C34 C33 1_555 1_555
H32 C34 1_555 1_555
C35 S2 1_555 1_555
C36 C32 1_555 1_555
H33 C36 1_555 1_555
H34 C36 1_555 1_555
H35 C36 1_555 1_555
C37 N5 1_555 1_555
H36 C37 1_555 1_555
C38 C37 1_555 1_555
C39 C38 1_555 1_555
H37 C39 1_555 1_555
C40 C39 1_555 1_555
H38 C40 1_555 1_555
C41 C40 1_555 1_555
H39 C41 1_555 1_555
C42 C41 1_555 1_555
H40 C42 1_555 1_555
C43 C38 1_555 1_555
H41 C43 1_555 1_555
C44 N5 1_555 1_555
H42 C44 1_555 1_555
H43 C44 1_555 1_555
C45 C44 1_555 1_555
H44 C45 1_555 1_555
C46 C37 1_555 1_555
C47 C46 1_555 1_555
C48 O8 1_555 1_555
H45 C48 1_555 1_555
H46 C48 1_555 1_555
C49 C48 1_555 1_555
H47 C49 1_555 1_555
H48 C49 1_555 1_555
H49 C49 1_555 1_555
C50 N6 1_555 1_555
H50 C50 1_555 1_555
H51 C50 1_555 1_555
C51 N6 1_555 1_555
C52 N7 1_555 1_555
C53 N8 1_555 1_555
C54 C53 1_555 1_555
H52 C54 1_555 1_555
C55 C54 1_555 1_555
H53 C55 1_555 1_555
C56 C55 1_555 1_555
H54 C56 1_555 1_555
C57 C56 1_555 1_555
H55 C57 1_555 1_555
C58 C53 1_555 1_555
H56 C58 1_555 1_555
N4 C23 1_555 1_555
C1 C6 1_555 1_555
C5 C6 1_555 1_555
C13 C14 1_555 1_555
C15 C16 1_555 1_555
C16 C17 1_555 1_555
C28 C29 1_555 1_555
N8 C52 1_555 1_555
C30 C35 1_555 1_555
C34 C35 1_555 1_555
C42 C43 1_555 1_555
C45 C46 1_555 1_555
C47 C50 1_555 1_555
C57 C58 1_555 1_555

#END
