
#######################################################################
#
#                 Cambridge Crystallographic Data Centre
#                                CCDC 
#
#######################################################################
#
# If this CIF has been generated from an entry in the Cambridge 
# Structural Database, then it will include bibliographic, chemical, 
# crystal, experimental, refinement or atomic coordinate data resulting 
# from the CCDC's data processing and validation procedures.
#
#######################################################################

data_INUPEM
_chemical_formula_moiety         'C36 H60 O30,C26 H16 N8 O12,C1 H4 O1,H2 O1'
_chemical_name_systematic        
"[2]-[(E)-4,4'-bis(2,4,6-trinitrophenylamino)stilbene]-[\a-cyclodextrin]-rotaxane methanol solvate hydrate"
_symmetry_cell_setting           monoclinic
_symmetry_space_group_name_H-M   'P 21'
_symmetry_Int_Tables_number      4
_space_group_name_Hall           'P 2yb'
loop_
_symmetry_equiv_pos_site_id
_symmetry_equiv_pos_as_xyz
1 x,y,z
2 -x,1/2+y,-z
_cell_length_a                   13.4291(2)
_cell_length_b                   17.6940(3)
_cell_length_c                   35.7701(7)
_cell_angle_alpha                90
_cell_angle_beta                 95.0575(7)
_cell_angle_gamma                90
_cell_volume                     8466.4
_exptl_crystal_colour            red
_exptl_crystal_description       prism
_cell_formula_units_Z            4
loop_
_atom_site_label
_atom_site_type_symbol
_atom_site_fract_x
_atom_site_fract_y
_atom_site_fract_z
O7 O 0.646(1) 0.4260(7) 0.0919(4)
O8 O 0.4874(11) 0.2131(8) 0.0774(4)
O9 O 0.196(1) 0.2277(8) 0.1034(4)
O10 O 0.073(1) 0.4422(8) 0.1440(4)
O35 O 0.7080(11) 0.3130(9) 0.1188(4)
O36 O 0.6993(13) 0.400(1) 0.0234(5)
O37 O 0.5798(13) 0.250(1) 0.0118(5)
O38 O 0.6915(13) 0.168(1) 0.1462(5)
O39 O 0.4215(11) 0.1141(9) 0.1104(4)
O40 O 0.4093(12) 0.155(1) 0.0123(5)
O41 O 0.1997(12) 0.175(1) 0.0276(5)
O42 O 0.2835(14) 0.0611(11) 0.1589(5)
O43 O 0.098(1) 0.2368(8) 0.1541(4)
O44 O 0.0293(13) 0.244(1) 0.0513(5)
O45 O -0.0393(12) 0.392(1) 0.0766(5)
O46 O 0.0311(12) 0.3202(9) 0.2168(4)
O47 O 0.067(1) 0.5157(8) 0.1970(4)
O48 O -0.0669(12) 0.5326(9) 0.1028(4)
O49 O 0.0527(11) 0.6734(9) 0.1136(4)
O50 O 0.1502(12) 0.625(1) 0.2493(5)
O51 O 0.238(1) 0.6494(8) 0.1581(4)
O52 O 0.352(1) 0.7169(8) 0.1979(4)
O53 O 0.2124(11) 0.7697(9) 0.1077(4)
O54 O 0.4243(12) 0.755(1) 0.0866(5)
O55 O 0.4791(12) 0.638(1) 0.2486(4)
O56 O 0.524(1) 0.6404(8) 0.1326(4)
O57 O 0.665(1) 0.5848(8) 0.1602(4)
O58 O 0.6197(12) 0.693(1) 0.0731(5)
O59 O 0.6768(12) 0.551(1) 0.0450(4)
O60 O 0.7826(12) 0.460(1) 0.1843(5)
C37 C 0.7134(16) 0.3695(11) 0.0911(5)
C38 C 0.6952(18) 0.3340(14) 0.0509(6)
C39 C 0.5959(16) 0.2933(12) 0.0473(6)
C40 C 0.5874(15) 0.2400(11) 0.0803(5)
C41 C 0.6090(15) 0.2789(12) 0.1165(5)
C42 C 0.6138(19) 0.2245(13) 0.1506(7)
C43 C 0.4559(16) 0.1384(12) 0.0755(6)
C44 C 0.3697(16) 0.1295(14) 0.0467(6)
C45 C 0.2885(15) 0.1782(13) 0.0561(6)
C46 C 0.2569(16) 0.1642(13) 0.0946(6)
C47 C 0.3439(19) 0.1631(17) 0.1231(7)
C48 C 0.327(3) 0.1320(19) 0.1625(9)
C49 C 0.1004(13) 0.2169(12) 0.1147(5)
C50 C 0.0218(14) 0.265(1) 0.0916(5)
C51 C 0.046(2) 0.3484(14) 0.0967(7)
C52 C 0.0552(12) 0.3658(8) 0.1396(4)
C53 C 0.1270(15) 0.317(1) 0.1610(5)
C54 C 0.1242(17) 0.3263(15) 0.2031(6)
C55 C 0.0136(16) 0.4915(12) 0.1639(6)
C56 C -0.0147(15) 0.5624(12) 0.1380(6)
C57 C 0.0756(14) 0.5991(11) 0.1348(5)
C58 C 0.1404(12) 0.617(1) 0.1679(5)
C59 C 0.1615(13) 0.553(1) 0.1901(5)
C60 C 0.203(2) 0.5709(17) 0.2312(7)
C61 C 0.2646(16) 0.7196(12) 0.1698(6)
C62 C 0.2991(18) 0.7581(16) 0.1338(7)
C63 C 0.3844(16) 0.7134(14) 0.1176(6)
C64 C 0.4663(13) 0.6994(11) 0.1488(5)
C65 C 0.4299(14) 0.6707(12) 0.1841(5)
C66 C 0.5064(15) 0.6734(13) 0.2182(5)
C67 C 0.6278(15) 0.6405(13) 0.1371(6)
C68 C 0.663(2) 0.6341(14) 0.0965(6)
C69 C 0.6361(16) 0.5577(11) 0.0812(5)
C70 C 0.681(2) 0.4950(14) 0.1105(7)
C71 C 0.6380(15) 0.5091(11) 0.1464(5)
C72 C 0.6744(17) 0.4554(15) 0.1769(7)
H43 H 0.7826(16) 0.3901(11) 0.0959(5)
H44 H 0.7441(18) 0.2946(14) 0.0443(6)
H45 H 0.5439(16) 0.3336(12) 0.0480(6)
H46 H 0.6411(15) 0.2010(11) 0.0796(5)
H47 H 0.5540(15) 0.3161(12) 0.1191(5)
H48 H 0.5481(19) 0.1980(13) 0.1513(7)
H49 H 0.6300(19) 0.2519(13) 0.1748(7)
H50 H 0.5156(16) 0.1089(12) 0.0691(6)
H51 H 0.3395(16) 0.0779(14) 0.0441(6)
H52 H 0.3224(15) 0.2285(13) 0.0568(6)
H53 H 0.2204(16) 0.1150(13) 0.0958(6)
H54 H 0.3629(19) 0.2178(17) 0.1243(7)
H55 H 0.279(3) 0.1657(19) 0.1748(9)
H56 H 0.391(3) 0.1287(19) 0.1787(9)
H57 H 0.0885(13) 0.1617(12) 0.1104(5)
H58 H -0.0442(14) 0.254(1) 0.1015(5)
H59 H 0.109(2) 0.3591(14) 0.0848(7)
H60 H -0.0112(12) 0.3533(8) 0.1487(4)
H61 H 0.1926(15) 0.334(1) 0.1529(5)
H62 H 0.1623(17) 0.2822(15) 0.2145(6)
H63 H 0.1580(17) 0.3743(15) 0.2119(6)
H64 H -0.0507(16) 0.4657(12) 0.1682(6)
H65 H -0.0611(15) 0.6010(12) 0.1472(6)
H66 H 0.1131(14) 0.5585(11) 0.1225(5)
H67 H 0.1098(12) 0.657(1) 0.1833(5)
H68 H 0.2069(13) 0.521(1) 0.1758(5)
H69 H 0.207(2) 0.5226(17) 0.2458(7)
H70 H 0.271(2) 0.5919(17) 0.2297(7)
H71 H 0.2095(16) 0.7419(12) 0.1833(6)
H72 H 0.3282(18) 0.8093(16) 0.1393(7)
H73 H 0.3553(16) 0.6643(14) 0.1080(6)
H74 H 0.5024(13) 0.7476(11) 0.1557(5)
H75 H 0.4074(14) 0.6188(12) 0.1762(5)
H76 H 0.5708(15) 0.6512(13) 0.2112(5)
H77 H 0.5164(15) 0.7281(13) 0.2244(5)
H78 H 0.6544(15) 0.6884(13) 0.1490(6)
H79 H 0.737(2) 0.6382(14) 0.0959(6)
H80 H 0.5627(16) 0.5472(11) 0.0793(5)
H81 H 0.756(2) 0.4979(14) 0.1137(7)
H82 H 0.5653(15) 0.4996(11) 0.1394(5)
H83 H 0.6551(17) 0.4025(15) 0.1698(7)
H84 H 0.6432(17) 0.4698(15) 0.2003(7)
O61 O -0.1018(12) -0.290(1) 0.1813(5)
O62 O -0.1703(12) -0.243(1) 0.1288(5)
O63 O -0.0390(14) -0.048(1) 0.0663(5)
O64 O 0.0976(19) 0.0093(15) 0.0911(7)
O65 O 0.2046(17) -0.0353(14) 0.2239(6)
O66 O 0.2202(14) -0.1547(11) 0.2319(5)
O67 O 0.3605(11) 0.1289(9) 0.5812(4)
O68 O 0.4438(12) 0.077(1) 0.6281(4)
O69 O 0.2944(15) -0.0945(12) 0.7048(6)
O70 O 0.1728(14) -0.1681(11) 0.6833(5)
O71 O 0.0597(13) -0.139(1) 0.5485(5)
O72 O 0.0243(11) -0.0231(9) 0.5410(4)
N1 N 0.0157(13) -0.197(1) 0.2227(5)
N2 N -0.1097(13) -0.245(1) 0.1566(5)
N3 N 0.0333(18) -0.0434(14) 0.0887(6)
N4 N 0.1827(17) -0.0995(15) 0.2150(6)
N5 N 0.2312(13) 0.039(1) 0.5418(5)
N6 N 0.3694(12) 0.082(1) 0.6069(5)
N7 N 0.2277(16) -0.1117(12) 0.6805(6)
N8 N 0.0745(13) -0.0725(11) 0.5539(5)
C73 C 0.0958(17) -0.0657(14) 0.3693(6)
C74 C 0.0754(13) -0.0990(11) 0.3317(5)
C75 C 0.0866(18) -0.1776(13) 0.3236(7)
C76 C 0.0717(19) -0.2052(16) 0.2894(7)
C77 C 0.0311(17) -0.1634(12) 0.2585(6)
C78 C 0.0157(17) -0.0869(13) 0.2690(7)
C79 C 0.0345(15) -0.0558(13) 0.3014(6)
C80 C 0.0266(14) -0.165(1) 0.1915(5)
C81 C -0.0305(15) -0.1800(11) 0.1570(5)
C82 C -0.0300(16) -0.1432(12) 0.1232(6)
C83 C 0.0423(15) -0.0865(12) 0.1221(6)
C84 C 0.1051(17) -0.0692(13) 0.1532(6)
C85 C 0.0967(16) -0.1089(13) 0.1850(6)
C86 C 0.1438(14) -0.0908(11) 0.3987(5)
C87 C 0.1634(15) -0.0578(11) 0.4352(5)
C88 C 0.1247(16) 0.0126(12) 0.4431(6)
C89 C 0.1478(15) 0.0433(12) 0.4785(5)
C90 C 0.2055(15) 0.0063(12) 0.5064(6)
C91 C 0.2389(13) -0.067(1) 0.4985(5)
C92 C 0.2169(15) -0.0958(13) 0.4643(6)
C93 C 0.2278(14) 0.0063(12) 0.5741(5)
C94 C 0.2949(14) 0.0194(11) 0.6081(5)
C95 C 0.2935(14) -0.0158(11) 0.6419(5)
C96 C 0.2254(16) -0.0719(13) 0.6453(6)
C97 C 0.1575(15) -0.0910(12) 0.6163(6)
C98 C 0.1589(16) -0.0536(13) 0.5834(6)
H85 H 0.0639(17) -0.0153(14) 0.3726(6)
H86 H 0.1043(18) -0.2126(13) 0.3451(7)
H87 H 0.0986(19) -0.2567(16) 0.2848(7)
H88 H -0.0179(17) -0.0549(13) 0.2485(7)
H89 H 0.0221(15) -0.0004(13) 0.3042(6)
H90 H -0.0766(16) -0.1571(12) 0.1010(6)
H91 H 0.1570(17) -0.0291(13) 0.1514(6)
H92 H 0.1768(14) -0.1409(11) 0.3958(5)
H93 H 0.0761(16) 0.0389(12) 0.4247(6)
H94 H 0.1178(15) 0.0929(12) 0.4849(5)
H95 H 0.2757(13) -0.100(1) 0.5182(5)
H96 H 0.2381(15) -0.1486(13) 0.4588(6)
H97 H 0.3447(14) -0.0030(11) 0.6629(5)
H98 H 0.1067(15) -0.1312(12) 0.6196(6)
O73 O 0.4794(14) 0.4831(11) -0.0196(5)
O74 O 0.4473(18) 0.3655(15) -0.0322(7)
O75 O 0.3513(14) 0.3309(11) -0.1645(5)
O76 O 0.2159(15) 0.3920(12) -0.1879(6)
O77 O 0.0845(14) 0.5932(11) -0.1179(5)
O78 O 0.1773(15) 0.6430(12) -0.0716(6)
O79 O 0.2712(13) 0.3376(11) 0.2877(5)
O80 O 0.2593(15) 0.4520(12) 0.3020(6)
O81 O 0.3901(13) 0.509(1) 0.4288(5)
O82 O 0.5366(18) 0.4582(13) 0.4471(6)
O83 O 0.6869(15) 0.2778(11) 0.3784(6)
O84 O 0.5987(16) 0.2173(13) 0.3334(6)
N9 N 0.2713(15) 0.5454(12) -0.0293(6)
N10 N 0.4323(18) 0.4358(15) -0.0385(7)
N11 N 0.2807(16) 0.3827(13) -0.1599(6)
N12 N 0.1527(16) 0.5984(12) -0.0955(6)
N13 N 0.4814(14) 0.3108(11) 0.2929(5)
N14 N 0.3022(14) 0.3912(12) 0.3064(5)
N15 N 0.4650(18) 0.4640(13) 0.4251(7)
N16 N 0.6233(16) 0.2716(12) 0.3539(6)
C99 C 0.3491(17) 0.4130(15) 0.1142(6)
C100 C 0.3288(14) 0.4460(11) 0.0788(5)
C101 C 0.2800(19) 0.4102(16) 0.0501(7)
C102 C 0.2620(17) 0.4384(12) 0.0152(6)
C103 C 0.3002(17) 0.5112(14) 0.0038(7)
C104 C 0.341(2) 0.5497(19) 0.0366(8)
C105 C 0.3619(17) 0.5172(13) 0.0692(7)
C106 C 0.2781(15) 0.5118(12) -0.0609(6)
C107 C 0.3491(19) 0.4472(15) -0.0661(7)
C108 C 0.350(2) 0.4046(19) -0.0973(8)
C109 C 0.2866(16) 0.4237(12) -0.1262(6)
C110 C 0.2227(17) 0.4874(13) -0.1290(7)
C111 C 0.2175(19) 0.5241(15) -0.0955(7)
C112 C 0.3805(18) 0.4415(16) 0.1507(7)
C113 C 0.3991(17) 0.4079(13) 0.1878(6)
C114 C 0.4308(18) 0.4523(15) 0.2153(7)
C115 C 0.451(2) 0.4171(18) 0.2497(9)
C116 C 0.448(2) 0.3363(16) 0.2572(7)
C117 C 0.4161(18) 0.3010(15) 0.2223(7)
C118 C 0.3985(19) 0.3272(14) 0.1891(7)
C119 C 0.4701(15) 0.3413(12) 0.3248(6)
C120 C 0.3892(15) 0.3913(12) 0.3343(6)
C121 C 0.3859(15) 0.4327(12) 0.3640(5)
C122 C 0.4559(17) 0.4206(13) 0.3919(6)
C123 C 0.5315(17) 0.3671(13) 0.3899(7)
C124 C 0.5382(17) 0.3292(13) 0.3578(6)
H99 H 0.3348(17) 0.3575(15) 0.1146(6)
H100 H 0.2628(19) 0.3560(16) 0.0544(7)
H101 H 0.2141(17) 0.4096(12) -0.0025(6)
H102 H 0.353(2) 0.6054(19) 0.0346(8)
H103 H 0.4062(17) 0.5457(13) 0.0882(7)
H104 H 0.403(2) 0.3654(19) -0.0999(8)
H105 H 0.1849(17) 0.5018(13) -0.1533(7)
H106 H 0.3897(18) 0.4976(16) 0.1513(7)
H107 H 0.4457(18) 0.5070(15) 0.2113(7)
H108 H 0.466(2) 0.4509(18) 0.2719(9)
H109 H 0.4050(18) 0.2453(15) 0.2243(7)
H110 H 0.3854(19) 0.2947(14) 0.1664(7)
H111 H 0.3334(15) 0.4721(12) 0.3662(5)
H112 H 0.5808(17) 0.3597(13) 0.4122(7)
O1 O -0.0179(9) 0.1423(7) 0.3350(3)
O2 O 0.2807(9) 0.0834(7) 0.3293(4)
O3 O 0.3903(9) -0.1465(7) 0.3460(4)
O4 O 0.218(1) -0.3180(8) 0.3895(4)
O5 O -0.080(1) -0.2638(8) 0.3937(4)
O6 O -0.1978(11) -0.0360(8) 0.3657(4)
O11 O 0.103(1) 0.2218(8) 0.3609(4)
O12 O 0.002(1) 0.2013(8) 0.2653(4)
O13 O 0.206(1) 0.1532(8) 0.2590(4)
O14 O 0.3094(11) 0.2407(9) 0.3936(4)
O15 O 0.428(1) 0.0553(8) 0.3661(4)
O16 O 0.3833(12) 0.0699(9) 0.2643(4)
O17 O 0.4273(11) -0.0891(8) 0.2753(4)
O18 O 0.5420(12) -0.047(1) 0.4160(5)
O19 O 0.467(1) -0.2335(8) 0.3901(4)
O20 O 0.4018(12) -0.250(1) 0.2867(4)
O21 O 0.2744(12) -0.366(1) 0.3168(5)
O22 O 0.4252(11) -0.2209(9) 0.4679(4)
O23 O 0.1466(11) -0.3477(9) 0.4446(4)
O24 O 0.1484(13) -0.4532(11) 0.3541(5)
O25 O -0.0603(11) -0.4051(9) 0.3572(4)
O26 O -0.0197(12) -0.302(1) 0.4889(4)
O27 O -0.1704(11) -0.1951(8) 0.4330(4)
O28 O -0.2433(11) -0.3084(9) 0.3473(4)
O29 O -0.3055(13) -0.152(1) 0.3266(5)
O30 O -0.2329(18) -0.0594(14) 0.4645(7)
O31 O -0.2186(11) 0.0827(9) 0.3917(4)
O32 O -0.3201(13) 0.003(1) 0.3016(5)
O33 O -0.1893(12) 0.126(1) 0.2823(5)
O34 O -0.0810(12) 0.1329(9) 0.4510(4)
C1 C 0.0287(14) 0.2100(11) 0.3311(5)
C2 C 0.0818(15) 0.2110(12) 0.2948(5)
C3 C 0.1552(13) 0.1513(11) 0.2937(5)
C4 C 0.2293(13) 0.1535(11) 0.3288(5)
C5 C 0.1786(14) 0.1620(11) 0.3633(5)
C6 C 0.2485(17) 0.1787(13) 0.3975(6)
C7 C 0.3870(13) 0.0873(11) 0.3328(5)
C8 C 0.4210(16) 0.0354(11) 0.2993(5)
C9 C 0.3945(16) -0.0439(11) 0.3050(5)
C10 C 0.4352(15) -0.074(1) 0.3442(5)
C11 C 0.3979(17) -0.0250(12) 0.3736(6)
C12 C 0.4372(14) -0.0446(12) 0.4133(5)
C13 C 0.4591(15) -0.2086(11) 0.3510(5)
C14 C 0.4126(17) -0.2741(13) 0.3274(6)
C15 C 0.3125(16) -0.2981(13) 0.3382(6)
C16 C 0.3222(14) -0.3173(12) 0.3810(5)
C17 C 0.3717(15) -0.2571(13) 0.4031(6)
C18 C 0.393(2) -0.2798(14) 0.4425(6)
C19 C 0.1857(15) -0.3773(11) 0.4119(5)
C20 C 0.1058(14) -0.4185(12) 0.3869(5)
C21 C 0.0236(15) -0.3634(13) 0.3761(6)
C22 C -0.0139(16) -0.3218(13) 0.4085(6)
C23 C 0.0674(16) -0.2916(14) 0.4348(6)
C24 C 0.0418(17) -0.2553(13) 0.4697(6)
C25 C -0.1712(16) -0.2565(13) 0.4081(6)
C26 C -0.2464(19) -0.2441(13) 0.3722(7)
C27 C -0.2234(18) -0.1658(12) 0.3548(6)
C28 C -0.2234(14) -0.104(1) 0.3848(5)
C29 C -0.1488(15) -0.1220(11) 0.4155(5)
C30 C -0.137(2) -0.0696(16) 0.4491(7)
C31 C -0.2640(18) 0.0284(13) 0.3667(6)
C32 C -0.2751(18) 0.0598(15) 0.3266(7)
C33 C -0.1746(15) 0.0882(12) 0.3186(5)
C34 C -0.1187(14) 0.1397(12) 0.3443(5)
C35 C -0.1198(16) 0.1094(13) 0.3829(6)
C36 C -0.0918(16) 0.1666(12) 0.4149(5)
H1 H -0.0250(14) 0.2493(11) 0.3300(5)
H2 H 0.1222(15) 0.2574(12) 0.2911(5)
H3 H 0.1202(13) 0.1017(11) 0.2953(5)
H4 H 0.2754(13) 0.1977(11) 0.3278(5)
H5 H 0.1432(14) 0.1126(11) 0.3651(5)
H6 H 0.2963(17) 0.1354(13) 0.4013(6)
H7 H 0.2112(17) 0.1848(13) 0.4203(6)
H8 H 0.4077(13) 0.1414(11) 0.3311(5)
H9 H 0.4955(16) 0.0312(11) 0.3009(5)
H10 H 0.3199(16) -0.0465(11) 0.3036(5)
H11 H 0.5099(15) -0.075(1) 0.3474(5)
H12 H 0.3245(17) -0.0357(12) 0.3715(6)
H13 H 0.4082(14) -0.0930(12) 0.4219(5)
H14 H 0.4184(14) -0.0023(12) 0.4297(5)
H15 H 0.5260(15) -0.1944(11) 0.3430(5)
H16 H 0.4549(17) -0.3201(13) 0.3326(6)
H17 H 0.2622(16) -0.2568(13) 0.3335(6)
H18 H 0.3606(14) -0.3649(12) 0.3869(5)
H19 H 0.3255(15) -0.2131(13) 0.3984(6)
H20 H 0.329(2) -0.2986(14) 0.4510(6)
H21 H 0.444(2) -0.3214(14) 0.4445(6)
H22 H 0.2424(15) -0.4119(11) 0.4199(5)
H23 H 0.0735(14) -0.4595(12) 0.4007(5)
H24 H 0.0521(15) -0.3235(13) 0.3604(6)
H25 H -0.0515(16) -0.3574(13) 0.4238(6)
H26 H 0.0910(16) -0.2534(14) 0.4170(6)
H27 H 0.0067(17) -0.2061(13) 0.4643(6)
H28 H 0.1044(17) -0.2463(13) 0.4864(6)
H29 H -0.1865(16) -0.3029(13) 0.4225(6)
H30 H -0.3168(19) -0.2365(13) 0.3785(7)
H31 H -0.1575(18) -0.1679(12) 0.3439(6)
H32 H -0.2909(14) -0.103(1) 0.3945(5)
H33 H -0.0872(15) -0.1140(11) 0.4023(5)
H34 H -0.112(2) -0.0189(16) 0.4416(7)
H35 H -0.087(2) -0.0922(16) 0.4685(7)
H36 H -0.3295(18) 0.0105(13) 0.3748(6)
H37 H -0.3181(18) 0.1057(15) 0.3224(7)
H38 H -0.1315(15) 0.0422(12) 0.3220(5)
H39 H -0.1471(14) 0.1919(12) 0.3423(5)
H40 H -0.0700(16) 0.0678(13) 0.3813(6)
H41 H -0.1467(16) 0.2050(12) 0.4138(5)
H42 H -0.0273(16) 0.1921(12) 0.4107(5)
loop_
_geom_bond_atom_site_label_1
_geom_bond_atom_site_label_2
_geom_bond_site_symmetry_1
_geom_bond_site_symmetry_2
O1 C1 1_555 1_555
O2 C4 1_555 1_555
O3 C10 1_555 1_555
O4 C16 1_555 1_555
O5 C22 1_555 1_555
O6 C28 1_555 1_555
O7 C37 1_555 1_555
O8 C40 1_555 1_555
O9 C46 1_555 1_555
O10 C52 1_555 1_555
O11 C1 1_555 1_555
O12 C2 1_555 1_555
O13 C3 1_555 1_555
O14 C6 1_555 1_555
O15 C7 1_555 1_555
O16 C8 1_555 1_555
O17 C9 1_555 1_555
O18 C12 1_555 1_555
O19 C13 1_555 1_555
O20 C14 1_555 1_555
O21 C15 1_555 1_555
O22 C18 1_555 1_555
O23 C19 1_555 1_555
O24 C20 1_555 1_555
O25 C21 1_555 1_555
O26 C24 1_555 1_555
O27 C25 1_555 1_555
O28 C26 1_555 1_555
O29 C27 1_555 1_555
O30 C30 1_555 1_555
O31 C31 1_555 1_555
O32 C32 1_555 1_555
O33 C33 1_555 1_555
O34 C36 1_555 1_555
O35 C37 1_555 1_555
O36 C38 1_555 1_555
O37 C39 1_555 1_555
O38 C42 1_555 1_555
O39 C43 1_555 1_555
O40 C44 1_555 1_555
O41 C45 1_555 1_555
O42 C48 1_555 1_555
O43 C49 1_555 1_555
O44 C50 1_555 1_555
O45 C51 1_555 1_555
O46 C54 1_555 1_555
O47 C55 1_555 1_555
O48 C56 1_555 1_555
O49 C57 1_555 1_555
O50 C60 1_555 1_555
O51 C58 1_555 1_555
O52 C61 1_555 1_555
O53 C62 1_555 1_555
O54 C63 1_555 1_555
O55 C66 1_555 1_555
O56 C64 1_555 1_555
O57 C67 1_555 1_555
O58 C68 1_555 1_555
O59 C69 1_555 1_555
O60 C72 1_555 1_555
O61 N2 1_555 1_555
O62 N2 1_555 1_555
O63 N3 1_555 1_555
O64 N3 1_555 1_555
O65 N4 1_555 1_555
O66 N4 1_555 1_555
O67 N6 1_555 1_555
O68 N6 1_555 1_555
O69 N7 1_555 1_555
O70 N7 1_555 1_555
O71 N8 1_555 1_555
O72 N8 1_555 1_555
O73 N10 1_555 1_555
O74 N10 1_555 1_555
O75 N11 1_555 1_555
O76 N11 1_555 1_555
O77 N12 1_555 1_555
O78 N12 1_555 1_555
O79 N14 1_555 1_555
O80 N14 1_555 1_555
O81 N15 1_555 1_555
O82 N15 1_555 1_555
O83 N16 1_555 1_555
O84 N16 1_555 1_555
N1 C77 1_555 1_555
N2 C81 1_555 1_555
N3 C83 1_555 1_555
N4 C85 1_555 1_555
N5 C90 1_555 1_555
N6 C94 1_555 1_555
N7 C96 1_555 1_555
N8 C98 1_555 1_555
N9 C103 1_555 1_555
N10 C107 1_555 1_555
N11 C109 1_555 1_555
N12 C111 1_555 1_555
N13 C116 1_555 1_555
N14 C120 1_555 1_555
N15 C122 1_555 1_555
N16 C124 1_555 1_555
C1 C2 1_555 1_555
C2 C3 1_555 1_555
C3 C4 1_555 1_555
C4 C5 1_555 1_555
C5 O11 1_555 1_555
C6 C5 1_555 1_555
C7 O2 1_555 1_555
C8 C7 1_555 1_555
C9 C8 1_555 1_555
C10 C9 1_555 1_555
C11 O15 1_555 1_555
C12 C11 1_555 1_555
C13 O3 1_555 1_555
C14 C13 1_555 1_555
C15 C14 1_555 1_555
C16 C15 1_555 1_555
C17 O19 1_555 1_555
C18 C17 1_555 1_555
C19 O4 1_555 1_555
C20 C19 1_555 1_555
C21 C20 1_555 1_555
C22 C21 1_555 1_555
C23 O23 1_555 1_555
C24 C23 1_555 1_555
C25 O5 1_555 1_555
C26 C25 1_555 1_555
C27 C26 1_555 1_555
C28 C27 1_555 1_555
C29 O27 1_555 1_555
C30 C29 1_555 1_555
C31 O6 1_555 1_555
C32 C31 1_555 1_555
C33 C32 1_555 1_555
C34 O1 1_555 1_555
C35 O31 1_555 1_555
C36 C35 1_555 1_555
C37 C38 1_555 1_555
C38 C39 1_555 1_555
C39 C40 1_555 1_555
C40 C41 1_555 1_555
C41 O35 1_555 1_555
C42 C41 1_555 1_555
C43 O8 1_555 1_555
C44 C43 1_555 1_555
C45 C44 1_555 1_555
C46 C45 1_555 1_555
C47 O39 1_555 1_555
C48 C47 1_555 1_555
C49 O9 1_555 1_555
C50 C49 1_555 1_555
C51 C50 1_555 1_555
C52 C51 1_555 1_555
C53 O43 1_555 1_555
C54 C53 1_555 1_555
C55 O10 1_555 1_555
C56 C55 1_555 1_555
C57 C56 1_555 1_555
C58 C57 1_555 1_555
C59 O47 1_555 1_555
C60 C59 1_555 1_555
C61 O51 1_555 1_555
C62 C61 1_555 1_555
C63 C62 1_555 1_555
C64 C63 1_555 1_555
C65 O52 1_555 1_555
C66 C65 1_555 1_555
C67 O56 1_555 1_555
C68 C67 1_555 1_555
C69 C68 1_555 1_555
C70 O7 1_555 1_555
C71 O57 1_555 1_555
C72 C71 1_555 1_555
C73 C74 1_555 1_555
C74 C75 1_555 1_555
C75 C76 1_555 1_555
C76 C77 1_555 1_555
C77 C78 1_555 1_555
C78 C79 1_555 1_555
C79 C74 1_555 1_555
C80 N1 1_555 1_555
C81 C80 1_555 1_555
C82 C81 1_555 1_555
C83 C82 1_555 1_555
C84 C83 1_555 1_555
C85 C80 1_555 1_555
C86 C73 1_555 1_555
C87 C86 1_555 1_555
C88 C87 1_555 1_555
C89 C88 1_555 1_555
C90 C89 1_555 1_555
C91 C90 1_555 1_555
C92 C87 1_555 1_555
C93 N5 1_555 1_555
C94 C93 1_555 1_555
C95 C94 1_555 1_555
C96 C95 1_555 1_555
C97 C96 1_555 1_555
C98 C93 1_555 1_555
C99 C100 1_555 1_555
C100 C101 1_555 1_555
C101 C102 1_555 1_555
C102 C103 1_555 1_555
C103 C104 1_555 1_555
C104 C105 1_555 1_555
C105 C100 1_555 1_555
C106 N9 1_555 1_555
C107 C106 1_555 1_555
C108 C107 1_555 1_555
C109 C108 1_555 1_555
C110 C109 1_555 1_555
C111 C106 1_555 1_555
C112 C99 1_555 1_555
C113 C112 1_555 1_555
C114 C113 1_555 1_555
C115 C114 1_555 1_555
C116 C115 1_555 1_555
C117 C116 1_555 1_555
C118 C113 1_555 1_555
C119 N13 1_555 1_555
C120 C119 1_555 1_555
C121 C120 1_555 1_555
C122 C121 1_555 1_555
C123 C122 1_555 1_555
C124 C119 1_555 1_555
H1 C1 1_555 1_555
H2 C2 1_555 1_555
H3 C3 1_555 1_555
H4 C4 1_555 1_555
H5 C5 1_555 1_555
H6 C6 1_555 1_555
H7 C6 1_555 1_555
H8 C7 1_555 1_555
H9 C8 1_555 1_555
H10 C9 1_555 1_555
H11 C10 1_555 1_555
H12 C11 1_555 1_555
H13 C12 1_555 1_555
H14 C12 1_555 1_555
H15 C13 1_555 1_555
H16 C14 1_555 1_555
H17 C15 1_555 1_555
H18 C16 1_555 1_555
H19 C17 1_555 1_555
H20 C18 1_555 1_555
H21 C18 1_555 1_555
H22 C19 1_555 1_555
H23 C20 1_555 1_555
H24 C21 1_555 1_555
H25 C22 1_555 1_555
H26 C23 1_555 1_555
H27 C24 1_555 1_555
H28 C24 1_555 1_555
H29 C25 1_555 1_555
H30 C26 1_555 1_555
H31 C27 1_555 1_555
H32 C28 1_555 1_555
H33 C29 1_555 1_555
H34 C30 1_555 1_555
H35 C30 1_555 1_555
H36 C31 1_555 1_555
H37 C32 1_555 1_555
H38 C33 1_555 1_555
H39 C34 1_555 1_555
H40 C35 1_555 1_555
H41 C36 1_555 1_555
H42 C36 1_555 1_555
H43 C37 1_555 1_555
H44 C38 1_555 1_555
H45 C39 1_555 1_555
H46 C40 1_555 1_555
H47 C41 1_555 1_555
H48 C42 1_555 1_555
H49 C42 1_555 1_555
H50 C43 1_555 1_555
H51 C44 1_555 1_555
H52 C45 1_555 1_555
H53 C46 1_555 1_555
H54 C47 1_555 1_555
H55 C48 1_555 1_555
H56 C48 1_555 1_555
H57 C49 1_555 1_555
H58 C50 1_555 1_555
H59 C51 1_555 1_555
H60 C52 1_555 1_555
H61 C53 1_555 1_555
H62 C54 1_555 1_555
H63 C54 1_555 1_555
H64 C55 1_555 1_555
H65 C56 1_555 1_555
H66 C57 1_555 1_555
H67 C58 1_555 1_555
H68 C59 1_555 1_555
H69 C60 1_555 1_555
H70 C60 1_555 1_555
H71 C61 1_555 1_555
H72 C62 1_555 1_555
H73 C63 1_555 1_555
H74 C64 1_555 1_555
H75 C65 1_555 1_555
H76 C66 1_555 1_555
H77 C66 1_555 1_555
H78 C67 1_555 1_555
H79 C68 1_555 1_555
H80 C69 1_555 1_555
H81 C70 1_555 1_555
H82 C71 1_555 1_555
H83 C72 1_555 1_555
H84 C72 1_555 1_555
H85 C73 1_555 1_555
H86 C75 1_555 1_555
H87 C76 1_555 1_555
H88 C78 1_555 1_555
H89 C79 1_555 1_555
H90 C82 1_555 1_555
H91 C84 1_555 1_555
H92 C86 1_555 1_555
H93 C88 1_555 1_555
H94 C89 1_555 1_555
H95 C91 1_555 1_555
H96 C92 1_555 1_555
H97 C95 1_555 1_555
H98 C97 1_555 1_555
H99 C99 1_555 1_555
H100 C101 1_555 1_555
H101 C102 1_555 1_555
H102 C104 1_555 1_555
H103 C105 1_555 1_555
H104 C108 1_555 1_555
H105 C110 1_555 1_555
H106 C112 1_555 1_555
H107 C114 1_555 1_555
H108 C115 1_555 1_555
H109 C117 1_555 1_555
H110 C118 1_555 1_555
H111 C121 1_555 1_555
H112 C123 1_555 1_555
C10 C11 1_555 1_555
C16 C17 1_555 1_555
C22 C23 1_555 1_555
C28 C29 1_555 1_555
C33 C34 1_555 1_555
C34 C35 1_555 1_555
C46 C47 1_555 1_555
C52 C53 1_555 1_555
C58 C59 1_555 1_555
C64 C65 1_555 1_555
C69 C70 1_555 1_555
C70 C71 1_555 1_555
C84 C85 1_555 1_555
C91 C92 1_555 1_555
C97 C98 1_555 1_555
C110 C111 1_555 1_555
C117 C118 1_555 1_555
C123 C124 1_555 1_555

#END
