
#######################################################################
#
#                 Cambridge Crystallographic Data Centre
#                                CCDC 
#
#######################################################################
#
# If this CIF has been generated from an entry in the Cambridge 
# Structural Database, then it will include bibliographic, chemical, 
# crystal, experimental, refinement or atomic coordinate data resulting 
# from the CCDC's data processing and validation procedures.
#
#######################################################################

data_INUPIQ
_chemical_formula_moiety         'C26 H16 N8 O12,2(C3 H7 N1 O1)'
_chemical_name_systematic        
"(E)-4,4'-bis(2,4,6-trinitrophenylamino)stilbene dimethylformamide solvate"
_symmetry_cell_setting           monoclinic
_symmetry_space_group_name_H-M   'C 2/c'
_symmetry_Int_Tables_number      15
_space_group_name_Hall           '-C 2yn'
loop_
_symmetry_equiv_pos_site_id
_symmetry_equiv_pos_as_xyz
1 x,y,z
2 1/2+x,1/2+y,z
3 x,-y,1/2+z
4 1/2+x,1/2-y,1/2+z
5 -x,-y,-z
6 1/2-x,1/2-y,-z
7 -x,y,1/2-z
8 1/2-x,1/2+y,1/2-z
_cell_length_a                   29.2792(6)
_cell_length_b                   6.8221(2)
_cell_length_c                   18.7367(6)
_cell_angle_alpha                90
_cell_angle_beta                 114.7760(11)
_cell_angle_gamma                90
_cell_volume                     3398.08
_exptl_crystal_colour            red
_exptl_crystal_description       plate
_cell_formula_units_Z            4
loop_
_atom_site_label
_atom_site_type_symbol
_atom_site_fract_x
_atom_site_fract_y
_atom_site_fract_z
C1 C 0.4750(2) 0.0122(6) 0.4862(3)
C2 C 0.4474(2) 0.0666(4) 0.5332(4)
C3 C 0.4687(2) 0.0589(5) 0.6146(4)
C4 C 0.4414(2) 0.1116(5) 0.6572(3)
C5 C 0.3920(2) 0.1730(4) 0.6174(4)
C6 C 0.3697(2) 0.1824(5) 0.5369(4)
C7 C 0.3974(2) 0.1295(5) 0.4951(3)
N1 N 0.3651(2) 0.2265(5) 0.6648(3)
C8 C 0.3358(2) 0.3933(8) 0.6467(2)
C9 C 0.3462(2) 0.5628(8) 0.6119(2)
C10 C 0.3176(2) 0.7280(8) 0.5939(3)
C11 C 0.2754(2) 0.7334(8) 0.6103(3)
C12 C 0.2624(2) 0.5784(9) 0.6436(3)
C13 C 0.2917(2) 0.4123(9) 0.6615(3)
N2 N 0.3961(2) 0.5866(7) 0.6102(3)
O1 O 0.3952(2) 0.6567(7) 0.5498(3)
O2 O 0.4334(1) 0.5416(6) 0.6670(3)
N3 N 0.2425(2) 0.9038(7) 0.5862(3)
O3 O 0.2541(2) 1.0405(7) 0.5542(3)
O4 O 0.2048(2) 0.9028(6) 0.5981(3)
N4 N 0.2774(2) 0.2586(7) 0.7022(3)
O5 O 0.2342(2) 0.2623(7) 0.6978(3)
O6 O 0.3081(2) 0.1296(6) 0.7383(3)
H1 H 0.3639(26) 0.1075(99) 0.7030(45)
H2 H 0.4547 -0.0086 0.4286
H3 H 0.5043 0.0146 0.6433
H4 H 0.4573 0.1052 0.7160
H5 H 0.3341 0.2269 0.5087
H6 H 0.3811 0.1363 0.4364
H7 H 0.3267 0.8431 0.5694
H8 H 0.2320 0.5852 0.6549
C1D C 0.5250(2) -0.0122(6) 0.5138(3)
C2D C 0.5526(2) -0.0666(4) 0.4668(4)
C3D C 0.5313(2) -0.0589(5) 0.3854(4)
C4D C 0.5586(2) -0.1116(5) 0.3428(3)
C5D C 0.6080(2) -0.1730(4) 0.3826(4)
C6D C 0.6303(2) -0.1824(5) 0.4631(4)
C7D C 0.6026(2) -0.1295(5) 0.5049(3)
H6D H 0.6189 -0.1363 0.5636
H5D H 0.6659 -0.2269 0.4913
N1D N 0.6349(2) -0.2265(5) 0.3352(3)
C8D C 0.6642(2) -0.3933(8) 0.3533(2)
C9D C 0.6538(2) -0.5628(8) 0.3881(2)
C10D C 0.6824(2) -0.7280(8) 0.4061(3)
C11D C 0.7246(2) -0.7334(8) 0.3897(3)
C12D C 0.7376(2) -0.5784(9) 0.3564(3)
C13D C 0.7083(2) -0.4123(9) 0.3385(3)
N4D N 0.7226(2) -0.2586(7) 0.2978(3)
O5D O 0.7658(2) -0.2623(7) 0.3022(3)
O6D O 0.6919(2) -0.1296(6) 0.2617(3)
H8D H 0.7680 -0.5852 0.3451
N3D N 0.7575(2) -0.9038(7) 0.4138(3)
O3D O 0.7459(2) -1.0405(7) 0.4458(3)
O4D O 0.7952(2) -0.9028(6) 0.4019(3)
H7D H 0.6733 -0.8431 0.4306
N2D N 0.6039(2) -0.5866(7) 0.3898(3)
O1D O 0.6048(2) -0.6567(7) 0.4502(3)
O2D O 0.5666(1) -0.5416(6) 0.3330(3)
H1D H 0.6361(26) -0.1075(99) 0.2970(45)
H4D H 0.5427 -0.1052 0.2840
H3D H 0.4957 -0.0146 0.3567
H2D H 0.5453 0.0086 0.5714
O7 O 0.4031(2) 0.8965(6) 0.7699(3)
C14 C 0.3876(2) 0.7636(9) 0.7978(3)
N5 N 0.4140(2) 0.6090(7) 0.8362(2)
C15 C 0.3924(3) 0.4600(10) 0.8668(4)
C16 C 0.4665(2) 0.5831(10) 0.8491(4)
H9 H 0.3519 0.7723 0.7910
H10 H 0.4181 0.3566 0.8936
H11 H 0.3811 0.5201 0.9054
H12 H 0.3628 0.3998 0.8227
H13 H 0.4799 0.4588 0.8790
H14 H 0.4686 0.5762 0.7973
H15 H 0.4869 0.6964 0.8800
loop_
_geom_bond_atom_site_label_1
_geom_bond_atom_site_label_2
_geom_bond_site_symmetry_1
_geom_bond_site_symmetry_2
C1 C2 1_555 1_555
C2 C3 1_555 1_555
C3 C4 1_555 1_555
C4 C5 1_555 1_555
C5 C6 1_555 1_555
C6 C7 1_555 1_555
C7 C2 1_555 1_555
N1 C5 1_555 1_555
C8 N1 1_555 1_555
C9 C8 1_555 1_555
C10 C9 1_555 1_555
C11 C10 1_555 1_555
C12 C11 1_555 1_555
C13 C8 1_555 1_555
N2 C9 1_555 1_555
O1 N2 1_555 1_555
O2 N2 1_555 1_555
N3 C11 1_555 1_555
O3 N3 1_555 1_555
O4 N3 1_555 1_555
N4 C13 1_555 1_555
O5 N4 1_555 1_555
O6 N4 1_555 1_555
O7 C14 1_555 1_555
C14 N5 1_555 1_555
N5 C15 1_555 1_555
C15 H10 1_555 1_555
C16 N5 1_555 1_555
H1 N1 1_555 1_555
H2 C1 1_555 1_555
H3 C3 1_555 1_555
H4 C4 1_555 1_555
H5 C6 1_555 1_555
H6 C7 1_555 1_555
H7 C10 1_555 1_555
H8 C12 1_555 1_555
H9 C14 1_555 1_555
H11 C15 1_555 1_555
H12 C15 1_555 1_555
H13 C16 1_555 1_555
H14 C16 1_555 1_555
H15 C16 1_555 1_555
C1D C1 1_555 1_555
C2D C1D 1_555 1_555
C3D C2D 1_555 1_555
C4D C3D 1_555 1_555
C5D C4D 1_555 1_555
C6D C5D 1_555 1_555
C7D C2D 1_555 1_555
H6D C7D 1_555 1_555
H5D C6D 1_555 1_555
N1D C5D 1_555 1_555
C8D N1D 1_555 1_555
C9D C8D 1_555 1_555
C10D C9D 1_555 1_555
C11D C10D 1_555 1_555
C12D C11D 1_555 1_555
C13D C8D 1_555 1_555
N4D C13D 1_555 1_555
O5D N4D 1_555 1_555
O6D N4D 1_555 1_555
H8D C12D 1_555 1_555
N3D C11D 1_555 1_555
O3D N3D 1_555 1_555
O4D N3D 1_555 1_555
H7D C10D 1_555 1_555
N2D C9D 1_555 1_555
O1D N2D 1_555 1_555
O2D N2D 1_555 1_555
H1D N1D 1_555 1_555
H4D C4D 1_555 1_555
H3D C3D 1_555 1_555
H2D C1D 1_555 1_555
C12 C13 1_555 1_555
C6D C7D 1_555 1_555
C12D C13D 1_555 1_555

#END
