
#######################################################################
#
#                 Cambridge Crystallographic Data Centre
#                                CCDC 
#
#######################################################################
#
# If this CIF has been generated from an entry in the Cambridge 
# Structural Database, then it will include bibliographic, chemical, 
# crystal, experimental, refinement or atomic coordinate data resulting 
# from the CCDC's data processing and validation procedures.
#
#######################################################################

data_INUSIV
_chemical_formula_moiety         'C17 H22 O6'
_chemical_name_systematic        
12,14-dihydroxy-7-methoxy-3-methyl-3,4,5,6,7,8-hexahydro-1H-2-benzoxacyclododecine-1,9(10H)-dione
_symmetry_cell_setting           monoclinic
_symmetry_space_group_name_H-M   'P 21'
_symmetry_Int_Tables_number      4
_space_group_name_Hall           'P 2yb'
loop_
_symmetry_equiv_pos_site_id
_symmetry_equiv_pos_as_xyz
1 x,y,z
2 -x,1/2+y,-z
_cell_length_a                   5.05804(7)
_cell_length_b                   11.74745(14)
_cell_length_c                   13.77837(18)
_cell_angle_alpha                90
_cell_angle_beta                 100.1922(13)
_cell_angle_gamma                90
_cell_volume                     805.779
_cell_formula_units_Z            2
loop_
_atom_site_label
_atom_site_type_symbol
_atom_site_fract_x
_atom_site_fract_y
_atom_site_fract_z
O1 O 0.09976(16) 0.24159(8) 0.14651(7)
O2 O -0.03984(19) 0.60821(9) 0.33759(8)
H1 H -0.0778 0.5522 0.3704
O3 O 0.4603(2) 0.70790(8) 0.09151(7)
H2 H 0.4091 0.7733 0.1045
O4 O 0.29093(18) 0.28453(8) 0.36167(6)
O5 O 0.27681(18) -0.07692(7) 0.10716(6)
O6 O 0.0163(2) 0.41098(10) 0.41253(8)
C1 C 0.4129(2) 0.43710(10) 0.21309(8)
C2 C 0.2390(2) 0.46321(10) 0.28110(8)
C3 C 0.1699(2) 0.38533(11) 0.35630(9)
C4 C 0.3413(2) 0.22805(10) 0.16438(7)
C5 C 0.1935(3) 0.65669(10) 0.21330(10)
H3 H 0.1136 0.7300 0.2111
C6 C 0.4613(2) 0.11390(9) 0.14335(8)
H4 H 0.6518 0.1115 0.1762
H5 H 0.4562 0.1066 0.0715
C7 C 0.4767(2) 0.52030(10) 0.15095(9)
H6 H 0.5927 0.5022 0.1060
C8 C 0.3119(2) 0.01291(9) 0.17901(8)
H7 H 0.1303 0.0396 0.1883
C9 C 0.5363(2) 0.32141(9) 0.20361(8)
H8 H 0.6701 0.3285 0.1595
H9 H 0.6338 0.2982 0.2693
C10 C 0.2421(2) 0.20521(12) 0.43870(8)
H10 H 0.0633 0.2220 0.4569
C11 C 0.4987(2) 0.05022(11) 0.36038(8)
H11 H 0.5892 0.1182 0.3392
H12 H 0.6190 0.0168 0.4178
C12 C 0.0440(3) -0.05978(12) 0.03270(9)
H13 H 0.0435 -0.1154 -0.0203
H14 H 0.0474 0.0173 0.0058
H15 H -0.1182 -0.0695 0.0616
C13 C 0.2360(2) 0.08723(12) 0.39228(8)
H16 H 0.0906 0.0854 0.3338
H17 H 0.1905 0.0309 0.4402
C14 C 0.1290(2) 0.57493(10) 0.27746(9)
C15 C 0.4560(2) -0.03674(11) 0.27614(9)
H18 H 0.6328 -0.0666 0.2668
H19 H 0.3499 -0.1014 0.2948
C16 C 0.4610(3) 0.22269(14) 0.52803(9)
H20 H 0.6370 0.2104 0.5093
H21 H 0.4364 0.1685 0.5797
H22 H 0.4512 0.3005 0.5527
C17 C 0.3749(3) 0.63107(10) 0.15233(9)
loop_
_geom_bond_atom_site_label_1
_geom_bond_atom_site_label_2
_geom_bond_site_symmetry_1
_geom_bond_site_symmetry_2
O1 C4 1_555 1_555
O2 H1 1_555 1_555
O3 H2 1_555 1_555
O4 C3 1_555 1_555
O5 C8 1_555 1_555
O6 C3 1_555 1_555
C1 C2 1_555 1_555
C2 C3 1_555 1_555
C4 C6 1_555 1_555
C5 H3 1_555 1_555
C6 H4 1_555 1_555
H5 C6 1_555 1_555
C7 C1 1_555 1_555
H6 C7 1_555 1_555
C8 C6 1_555 1_555
H7 C8 1_555 1_555
C9 C1 1_555 1_555
H8 C9 1_555 1_555
H9 C9 1_555 1_555
C10 O4 1_555 1_555
H10 C10 1_555 1_555
C11 H11 1_555 1_555
H12 C11 1_555 1_555
C12 O5 1_555 1_555
H13 C12 1_555 1_555
H14 C12 1_555 1_555
H15 C12 1_555 1_555
C13 C10 1_555 1_555
H16 C13 1_555 1_555
H17 C13 1_555 1_555
C14 O2 1_555 1_555
C15 C8 1_555 1_555
H18 C15 1_555 1_555
H19 C15 1_555 1_555
C16 C10 1_555 1_555
H20 C16 1_555 1_555
H21 C16 1_555 1_555
H22 C16 1_555 1_555
C17 O3 1_555 1_555
C2 C14 1_555 1_555
C4 C9 1_555 1_555
C5 C14 1_555 1_555
C5 C17 1_555 1_555
C7 C17 1_555 1_555
C11 C13 1_555 1_555
C11 C15 1_555 1_555

#END
