
#######################################################################
#
#                 Cambridge Crystallographic Data Centre
#                                CCDC 
#
#######################################################################
#
# If this CIF has been generated from an entry in the Cambridge 
# Structural Database, then it will include bibliographic, chemical, 
# crystal, experimental, refinement or atomic coordinate data resulting 
# from the CCDC's data processing and validation procedures.
#
#######################################################################

data_INUTOB
_chemical_formula_moiety         'C23 H24 Cl1 N1 O4'
_chemical_name_systematic        
N-(4-Benzoyl-2-(2-chloroethyl)-6,7-dimethoxy-1,2-dihydronaphthalen-1-yl)acetamide
_symmetry_cell_setting           triclinic
_symmetry_space_group_name_H-M   'P -1'
_symmetry_Int_Tables_number      2
_space_group_name_Hall           '-P 1'
loop_
_symmetry_equiv_pos_site_id
_symmetry_equiv_pos_as_xyz
1 x,y,z
2 -x,-y,-z
_cell_length_a                   9.3617(9)
_cell_length_b                   9.7644(9)
_cell_length_c                   12.0191(11)
_cell_angle_alpha                96.157(2)
_cell_angle_beta                 106.074(2)
_cell_angle_gamma                98.581(2)
_cell_volume                     1031.07
_exptl_crystal_colour            colorless
_exptl_crystal_description       prismatic
_cell_formula_units_Z            2
loop_
_atom_site_label
_atom_site_type_symbol
_atom_site_fract_x
_atom_site_fract_y
_atom_site_fract_z
Cl1 Cl 0.11926(6) 0.25610(5) 0.21602(5)
N1 N 0.27293(16) 0.74465(15) 0.24023(12)
O1 O 0.16260(19) 0.66273(15) 0.05020(11)
O2 O 0.63082(13) 0.96349(12) 0.60317(10)
O3 O 0.84128(14) 0.70087(15) 0.18862(11)
O4 O 0.98010(13) 0.80540(14) 0.40453(11)
C1 C 0.34471(17) 0.62505(16) 0.26803(14)
H1 H 0.3149 0.5548 0.1971
C2 C 0.29613(17) 0.55768(16) 0.36433(14)
H2 H 0.3406 0.4733 0.3732
C3 C 0.36229(18) 0.65641(16) 0.47784(14)
H3 H 0.3070 0.6602 0.5312
C4 C 0.49828(17) 0.73921(16) 0.50483(13)
C5 C 0.58988(17) 0.72766(16) 0.42251(13)
C6 C 0.51519(17) 0.66928(16) 0.30654(14)
C7 C 0.59697(18) 0.65991(17) 0.22596(14)
H4 H 0.5465 0.6227 0.1479
C8 C 0.75196(19) 0.70511(17) 0.26045(15)
C9 C 0.82763(17) 0.76137(17) 0.37853(15)
C10 C 0.74708(18) 0.77218(17) 0.45804(14)
H5 H 0.7976 0.8094 0.5361
C11 C 0.19062(19) 0.75613(17) 0.13280(15)
C12 C 0.1345(2) 0.8921(2) 0.12109(18)
H6 H 0.0704 0.8878 0.0426
H7 H 0.2191 0.9679 0.1377
H8 H 0.0780 0.9072 0.1755
C13 C 0.12440(18) 0.51248(18) 0.33650(15)
H9 H 0.1042 0.4666 0.3997
H10 H 0.0797 0.5960 0.3353
C14 C 0.04637(19) 0.41547(18) 0.22248(16)
H11 H 0.0594 0.4629 0.1581
H12 H -0.0612 0.3931 0.2132
C15 C 0.54516(17) 0.85736(17) 0.60462(13)
C16 C 0.47541(17) 0.84824(17) 0.70214(14)
C17 C 0.4253(2) 0.96462(19) 0.74213(17)
H13 H 0.4362 1.0458 0.7089
C18 C 0.3591(3) 0.9607(2) 0.8312(2)
H14 H 0.3233 1.0384 0.8568
C19 C 0.3460(3) 0.8420(2) 0.8823(2)
H15 H 0.3018 0.8396 0.9427
C20 C 0.3975(3) 0.7277(2) 0.84456(19)
H16 H 0.3899 0.6481 0.8802
C21 C 0.4609(2) 0.72940(19) 0.75396(16)
H17 H 0.4939 0.6503 0.7276
C22 C 0.7713(2) 0.6511(2) 0.06699(17)
H18 H 0.7204 0.5556 0.0565
H19 H 0.8470 0.6561 0.0268
H20 H 0.6993 0.7080 0.0356
C23 C 1.0656(2) 0.8439(2) 0.52492(18)
H21 H 1.0273 0.9173 0.5605
H22 H 1.1699 0.8763 0.5311
H23 H 1.0572 0.7639 0.5643
H24 H 0.290(2) 0.817(2) 0.2905(19)
loop_
_geom_bond_atom_site_label_1
_geom_bond_atom_site_label_2
_geom_bond_site_symmetry_1
_geom_bond_site_symmetry_2
Cl1 C14 1_555 1_555
N1 C1 1_555 1_555
O1 C11 1_555 1_555
O2 C15 1_555 1_555
O3 C8 1_555 1_555
O4 C9 1_555 1_555
C1 H1 1_555 1_555
C2 C1 1_555 1_555
H2 C2 1_555 1_555
C3 C2 1_555 1_555
H3 C3 1_555 1_555
C4 C3 1_555 1_555
C5 C4 1_555 1_555
C6 C1 1_555 1_555
C7 C6 1_555 1_555
H4 C7 1_555 1_555
C8 C7 1_555 1_555
C9 C8 1_555 1_555
C10 C5 1_555 1_555
H5 C10 1_555 1_555
C11 N1 1_555 1_555
C12 C11 1_555 1_555
H6 C12 1_555 1_555
H7 C12 1_555 1_555
H8 C12 1_555 1_555
C13 C2 1_555 1_555
H9 C13 1_555 1_555
H10 C13 1_555 1_555
C14 C13 1_555 1_555
H11 C14 1_555 1_555
H12 C14 1_555 1_555
C15 C4 1_555 1_555
C16 C15 1_555 1_555
C17 C16 1_555 1_555
H13 C17 1_555 1_555
C18 C17 1_555 1_555
H14 C18 1_555 1_555
C19 C18 1_555 1_555
H15 C19 1_555 1_555
C20 C19 1_555 1_555
H16 C20 1_555 1_555
C21 C16 1_555 1_555
H17 C21 1_555 1_555
C22 O3 1_555 1_555
H18 C22 1_555 1_555
H19 C22 1_555 1_555
H20 C22 1_555 1_555
C23 O4 1_555 1_555
H21 C23 1_555 1_555
H22 C23 1_555 1_555
H23 C23 1_555 1_555
H24 N1 1_555 1_555
C5 C6 1_555 1_555
C9 C10 1_555 1_555
C20 C21 1_555 1_555

#END
