
#######################################################################
#
#                 Cambridge Crystallographic Data Centre
#                                CCDC 
#
#######################################################################
#
# If this CIF has been generated from an entry in the Cambridge 
# Structural Database, then it will include bibliographic, chemical, 
# crystal, experimental, refinement or atomic coordinate data resulting 
# from the CCDC's data processing and validation procedures.
#
#######################################################################

data_INUVUK
_chemical_formula_moiety         'C19 H20 Cl1 N1 O3 S2'
_chemical_name_systematic        
4-chloro-1-((4-methylphenyl)sulfonyl)-3-(3-thienyl)octahydro-2H-indol-2-one
_symmetry_cell_setting           monoclinic
_symmetry_space_group_name_H-M   'C 2/c'
_symmetry_Int_Tables_number      15
_space_group_name_Hall           '-C 2yn'
loop_
_symmetry_equiv_pos_site_id
_symmetry_equiv_pos_as_xyz
1 x,y,z
2 -x,y,1/2-z
3 1/2+x,1/2+y,z
4 1/2-x,1/2+y,1/2-z
5 -x,-y,-z
6 x,-y,1/2+z
7 1/2-x,1/2-y,-z
8 1/2+x,1/2-y,1/2+z
_cell_length_a                   12.314(4)
_cell_length_b                   16.902(6)
_cell_length_c                   19.984(8)
_cell_angle_alpha                90
_cell_angle_beta                 107.769(6)
_cell_angle_gamma                90
_cell_volume                     3960.87
_exptl_crystal_colour            colorless
_exptl_crystal_description       prism
_cell_formula_units_Z            8
loop_
_atom_site_label
_atom_site_type_symbol
_atom_site_fract_x
_atom_site_fract_y
_atom_site_fract_z
C1 C 0.7400(2) 0.93138(14) 0.66247(13)
C2 C 0.8345(2) 0.92228(16) 0.72071(14)
H1 H 0.8945 0.9600 0.7307
C3 C 0.8412(2) 0.85796(18) 0.76437(14)
H2 H 0.9063 0.8517 0.8044
C4 C 0.7546(3) 0.80243(17) 0.75088(14)
C5 C 0.7615(4) 0.7325(2) 0.79902(19)
H3 H 0.8334 0.7345 0.8374
H4 H 0.7581 0.6834 0.7724
H5 H 0.6974 0.7343 0.8184
C6 C 0.6606(2) 0.81281(16) 0.69228(15)
H6 H 0.6005 0.7752 0.6823
C7 C 0.6523(2) 0.87683(15) 0.64790(14)
H7 H 0.5871 0.8832 0.6079
C8 C 0.8789(2) 0.95294(13) 0.54637(13)
C9 C 0.87655(19) 0.92063(13) 0.47460(12)
H8 H 0.8954 0.9647 0.4466
C10 C 0.9576(2) 0.85375(13) 0.47745(13)
C11 C 0.9685(3) 0.78629(16) 0.52134(14)
H9 H 0.9271 0.7790 0.5540
C12 C 1.0458(3) 0.73295(17) 0.51099(16)
H10 H 1.0644 0.6843 0.5357
C13 C 1.0257(2) 0.84900(16) 0.43544(15)
H11 H 1.0294 0.8884 0.4023
C14 C 0.75006(19) 0.89926(14) 0.44213(12)
H12 H 0.7359 0.8486 0.4640
C15 C 0.7123(2) 0.88762(18) 0.36283(13)
H13 H 0.7713 0.8555 0.3502
C16 C 0.6957(3) 0.9647(2) 0.32188(16)
H14 H 0.6599 0.9534 0.2713
H15 H 0.7711 0.9891 0.3275
C17 C 0.6209(3) 1.0235(2) 0.34661(18)
H16 H 0.6134 1.0731 0.3193
H17 H 0.5438 1.0008 0.3383
C18 C 0.6735(3) 1.04128(18) 0.42451(17)
H18 H 0.6238 1.0786 0.4398
H19 H 0.7487 1.0668 0.4323
C19 C 0.6882(2) 0.96571(16) 0.46841(13)
H20 H 0.6128 0.9467 0.4712
N1 N 0.76872(18) 0.97817(12) 0.54003(11)
O1 O 0.61192(17) 1.03392(12) 0.57656(11)
O2 O 0.8095(2) 1.07173(11) 0.64298(12)
O3 O 0.95877(15) 0.95623(10) 0.59910(9)
S1 S 0.72904(6) 1.01331(4) 0.60721(4)
S2 S 1.10391(6) 0.76389(5) 0.44922(4)
Cl1 Cl 0.57998(7) 0.83274(6) 0.33849(4)
loop_
_geom_bond_atom_site_label_1
_geom_bond_atom_site_label_2
_geom_bond_site_symmetry_1
_geom_bond_site_symmetry_2
C1 C2 1_555 1_555
C2 H1 1_555 1_555
C3 C2 1_555 1_555
H2 C3 1_555 1_555
C4 C3 1_555 1_555
C5 C4 1_555 1_555
H3 C5 1_555 1_555
H4 C5 1_555 1_555
H5 C5 1_555 1_555
C6 C4 1_555 1_555
H6 C6 1_555 1_555
C7 C1 1_555 1_555
H7 C7 1_555 1_555
C8 C9 1_555 1_555
C9 H8 1_555 1_555
C10 C9 1_555 1_555
C11 C10 1_555 1_555
H9 C11 1_555 1_555
C12 C11 1_555 1_555
H10 C12 1_555 1_555
C13 C10 1_555 1_555
H11 C13 1_555 1_555
C14 C9 1_555 1_555
H12 C14 1_555 1_555
C15 C14 1_555 1_555
H13 C15 1_555 1_555
C16 C15 1_555 1_555
H14 C16 1_555 1_555
H15 C16 1_555 1_555
C17 C16 1_555 1_555
H16 C17 1_555 1_555
H17 C17 1_555 1_555
C18 C17 1_555 1_555
H18 C18 1_555 1_555
H19 C18 1_555 1_555
C19 C14 1_555 1_555
H20 C19 1_555 1_555
N1 C8 1_555 1_555
O1 S1 1_555 1_555
O2 S1 1_555 1_555
O3 C8 1_555 1_555
S1 C1 1_555 1_555
S2 C12 1_555 1_555
Cl1 C15 1_555 1_555
C6 C7 1_555 1_555
C13 S2 1_555 1_555
C18 C19 1_555 1_555
C19 N1 1_555 1_555
N1 S1 1_555 1_555

#END
