
#######################################################################
#
#                 Cambridge Crystallographic Data Centre
#                                CCDC 
#
#######################################################################
#
# If this CIF has been generated from an entry in the Cambridge 
# Structural Database, then it will include bibliographic, chemical, 
# crystal, experimental, refinement or atomic coordinate data resulting 
# from the CCDC's data processing and validation procedures.
#
#######################################################################

data_INUWAR
_chemical_formula_moiety         'C16 H20 Cl1 N1 O3 S1'
_chemical_name_systematic        
4-chloro-3-methyl-1-((4-methylphenyl)sulfonyl)octahydro-2H-indol-2-one
_symmetry_cell_setting           monoclinic
_symmetry_space_group_name_H-M   'P 21/n'
_symmetry_Int_Tables_number      14
_space_group_name_Hall           '-P 2yn'
loop_
_symmetry_equiv_pos_site_id
_symmetry_equiv_pos_as_xyz
1 x,y,z
2 1/2-x,1/2+y,1/2-z
3 -x,-y,-z
4 1/2+x,1/2-y,1/2+z
_cell_length_a                   12.0887(9)
_cell_length_b                   7.0949(5)
_cell_length_c                   19.8803(14)
_cell_angle_alpha                90
_cell_angle_beta                 101.8600(10)
_cell_angle_gamma                90
_cell_volume                     1668.7
_exptl_crystal_colour            colorless
_exptl_crystal_description       prism
_cell_formula_units_Z            4
loop_
_atom_site_label
_atom_site_type_symbol
_atom_site_fract_x
_atom_site_fract_y
_atom_site_fract_z
C1 C -0.04496(15) 0.8411(3) 0.20001(9)
C2 C -0.03081(17) 0.6473(3) 0.19835(10)
H1 H 0.0425 0.5931 0.2101
C3 C -0.12545(19) 0.5339(3) 0.17930(11)
H2 H -0.1164 0.4010 0.1780
C4 C -0.23304(18) 0.6103(3) 0.16212(11)
C5 C -0.3340(2) 0.4847(4) 0.13918(15)
H3 H -0.3906 0.5281 0.1559
H4 H -0.3172 0.3588 0.1628
H5 H -0.3447 0.4823 0.0955
C6 C -0.24483(18) 0.8043(3) 0.16514(13)
H6 H -0.3182 0.8584 0.1542
C7 C -0.15189(17) 0.9201(3) 0.18371(12)
H7 H -0.1612 1.0529 0.1853
C8 C 0.06031(15) 1.1198(2) 0.09571(9)
C9 C 0.13431(15) 1.1299(3) 0.04281(8)
H8 H 0.1165 1.0193 0.0113
C10 C 0.1156(2) 1.3089(3) 0.00004(11)
H9 H 0.0408 1.3135 -0.0258
H10 H 0.1258 1.4218 0.0305
H11 H 0.1619 1.3001 -0.0342
C11 C 0.25331(15) 1.1029(3) 0.08712(8)
H12 H 0.2779 1.2252 0.1104
C12 C 0.34254(17) 1.0415(3) 0.04760(10)
H13 H 0.3350 1.1211 0.0054
C13 C 0.33483(18) 0.8362(3) 0.02636(10)
H14 H 0.4011 0.8031 0.0066
H15 H 0.2660 0.8168 -0.0097
C14 C 0.33081(17) 0.7068(3) 0.08691(11)
H16 H 0.4013 0.7205 0.1221
H17 H 0.3250 0.5740 0.0712
C15 C 0.22920(16) 0.7565(3) 0.11818(10)
H18 H 0.1588 0.7360 0.0835
H19 H 0.2276 0.6722 0.1576
C16 C 0.23417(14) 0.9605(3) 0.14226(9)
H20 H 0.2931 0.9762 0.1852
N1 N 0.12240(12) 1.0269(2) 0.15310(7)
O1 O 0.16262(11) 0.8844(2) 0.26787(6)
O2 O 0.03696(12) 1.1635(2) 0.24691(7)
O3 O -0.03530(11) 1.1775(2) 0.09035(7)
S1 S 0.07401(4) 0.98746(7) 0.22465(2)
Cl1 Cl 0.48037(4) 1.08633(10) 0.10258(3)
loop_
_geom_bond_atom_site_label_1
_geom_bond_atom_site_label_2
_geom_bond_site_symmetry_1
_geom_bond_site_symmetry_2
C1 C2 1_555 1_555
C2 H1 1_555 1_555
C3 C2 1_555 1_555
H2 C3 1_555 1_555
C4 C3 1_555 1_555
C5 C4 1_555 1_555
H3 C5 1_555 1_555
H4 C5 1_555 1_555
H5 C5 1_555 1_555
C6 C4 1_555 1_555
H6 C6 1_555 1_555
C7 C1 1_555 1_555
H7 C7 1_555 1_555
C8 C9 1_555 1_555
C9 H8 1_555 1_555
C10 C9 1_555 1_555
H9 C10 1_555 1_555
H10 C10 1_555 1_555
H11 C10 1_555 1_555
C11 C9 1_555 1_555
H12 C11 1_555 1_555
C12 C11 1_555 1_555
H13 C12 1_555 1_555
C13 C12 1_555 1_555
H14 C13 1_555 1_555
H15 C13 1_555 1_555
C14 C13 1_555 1_555
H16 C14 1_555 1_555
H17 C14 1_555 1_555
C15 C14 1_555 1_555
H18 C15 1_555 1_555
H19 C15 1_555 1_555
C16 C11 1_555 1_555
H20 C16 1_555 1_555
N1 C8 1_555 1_555
O1 S1 1_555 1_555
O2 S1 1_555 1_555
O3 C8 1_555 1_555
S1 C1 1_555 1_555
Cl1 C12 1_555 1_555
C6 C7 1_555 1_555
C15 C16 1_555 1_555
C16 N1 1_555 1_555
N1 S1 1_555 1_555

#END
