
#######################################################################
#
#                 Cambridge Crystallographic Data Centre
#                                CCDC 
#
#######################################################################
#
# If this CIF has been generated from an entry in the Cambridge 
# Structural Database, then it will include bibliographic, chemical, 
# crystal, experimental, refinement or atomic coordinate data resulting 
# from the CCDC's data processing and validation procedures.
#
#######################################################################

data_INUXOG
_chemical_formula_moiety         'C18 H17 N1'
_chemical_name_systematic        
1-methyl-2-phenyl-5,6-dihydro-4H-pyrrolo[3,2,1-ij]quinoline
_symmetry_cell_setting           orthorhombic
_symmetry_space_group_name_H-M   'F d d 2'
_symmetry_Int_Tables_number      43
_space_group_name_Hall           'F 2 -2d'
loop_
_symmetry_equiv_pos_site_id
_symmetry_equiv_pos_as_xyz
1 x,y,z
2 -x,-y,z
3 1/4+x,1/4-y,1/4+z
4 1/4-x,1/4+y,1/4+z
5 x,1/2+y,1/2+z
6 -x,1/2-y,1/2+z
7 1/4+x,3/4-y,3/4+z
8 1/4-x,3/4+y,3/4+z
9 1/2+x,y,1/2+z
10 1/2-x,-y,1/2+z
11 3/4+x,1/4-y,3/4+z
12 3/4-x,1/4+y,3/4+z
13 1/2+x,1/2+y,z
14 1/2-x,1/2-y,z
15 3/4+x,3/4-y,1/4+z
16 3/4-x,3/4+y,1/4+z
_cell_length_a                   30.399(6)
_cell_length_b                   12.677(3)
_cell_length_c                   14.356(3)
_cell_angle_alpha                90
_cell_angle_beta                 90
_cell_angle_gamma                90
_cell_volume                     5532.34
_exptl_crystal_description       block
_cell_formula_units_Z            16
loop_
_atom_site_label
_atom_site_type_symbol
_atom_site_fract_x
_atom_site_fract_y
_atom_site_fract_z
N1 N 0.06090(10) 0.1296(3) 0.9782(2)
C1 C 0.06310(11) 0.2150(3) 0.8394(3)
C2 C 0.06025(12) 0.3064(4) 0.7852(4)
H1 H 0.0644 0.3033 0.7211
C3 C 0.05138(17) 0.3998(5) 0.8278(7)
H2 H 0.0484 0.4601 0.7915
C4 C 0.04649(18) 0.4085(5) 0.9251(8)
H3 H 0.0411 0.4741 0.9517
C5 C 0.04959(16) 0.3210(5) 0.9811(5)
C6 C 0.05774(12) 0.2260(4) 0.9374(3)
C7 C 0.0428(2) 0.3134(7) 1.0859(6)
H4 H 0.0697 0.3347 1.1170
H5 H 0.0198 0.3622 1.1042
C8 C 0.0309(2) 0.2073(6) 1.1172(4)
H6 H 0.0357 0.2046 1.1840
H7 H -0.0005 0.1990 1.1073
C9 C 0.05206(19) 0.1172(5) 1.0774(3)
H8 H 0.0336 0.0558 1.0865
H9 H 0.0796 0.1049 1.1097
C10 C 0.06745(10) 0.0559(3) 0.9084(3)
C11 C 0.06917(10) 0.1049(3) 0.8228(2)
C12 C 0.07728(13) 0.0566(3) 0.7298(2)
H10 H 0.0801 -0.0184 0.7364
H11 H 0.1039 0.0850 0.7039
H12 H 0.0531 0.0722 0.6892
C13 C 0.07213(10) -0.0579(3) 0.9315(2)
C14 C 0.09980(12) -0.0905(3) 1.0035(2)
H13 H 0.1152 -0.0407 1.0381
C15 C 0.10443(14) -0.1959(4) 1.0237(3)
H14 H 0.1231 -0.2168 1.0716
C16 C 0.08189(17) -0.2701(4) 0.9739(4)
H15 H 0.0852 -0.3412 0.9882
C17 C 0.05444(13) -0.2404(3) 0.9029(3)
H16 H 0.0394 -0.2910 0.8684
C18 C 0.04923(11) -0.1348(3) 0.8828(3)
H17 H 0.0300 -0.1147 0.8357
loop_
_geom_bond_atom_site_label_1
_geom_bond_atom_site_label_2
_geom_bond_site_symmetry_1
_geom_bond_site_symmetry_2
N1 C6 1_555 1_555
C1 C2 1_555 1_555
C2 H1 1_555 1_555
C3 C2 1_555 1_555
H2 C3 1_555 1_555
C4 C3 1_555 1_555
H3 C4 1_555 1_555
C5 C4 1_555 1_555
C6 C1 1_555 1_555
C7 C5 1_555 1_555
H4 C7 1_555 1_555
H5 C7 1_555 1_555
C8 C7 1_555 1_555
H6 C8 1_555 1_555
H7 C8 1_555 1_555
C9 N1 1_555 1_555
H8 C9 1_555 1_555
H9 C9 1_555 1_555
C10 N1 1_555 1_555
C11 C1 1_555 1_555
C12 C11 1_555 1_555
H10 C12 1_555 1_555
H11 C12 1_555 1_555
H12 C12 1_555 1_555
C13 C10 1_555 1_555
C14 C13 1_555 1_555
H13 C14 1_555 1_555
C15 C14 1_555 1_555
H14 C15 1_555 1_555
C16 C15 1_555 1_555
H15 C16 1_555 1_555
C17 C16 1_555 1_555
H16 C17 1_555 1_555
C18 C13 1_555 1_555
H17 C18 1_555 1_555
C5 C6 1_555 1_555
C8 C9 1_555 1_555
C10 C11 1_555 1_555
C17 C18 1_555 1_555

#END
