
#######################################################################
#
#                 Cambridge Crystallographic Data Centre
#                                CCDC 
#
#######################################################################
#
# If this CIF has been generated from an entry in the Cambridge 
# Structural Database, then it will include bibliographic, chemical, 
# crystal, experimental, refinement or atomic coordinate data resulting 
# from the CCDC's data processing and validation procedures.
#
#######################################################################

data_INUXEW
_chemical_formula_moiety         'C12 H15 N1 O3'
_chemical_name_systematic        
'methyl 3-(5-methoxy-2-(methylamino)phenyl)acrylate'
_symmetry_cell_setting           monoclinic
_symmetry_space_group_name_H-M   'P 21/c'
_symmetry_Int_Tables_number      14
_space_group_name_Hall           '-P 2ybc'
loop_
_symmetry_equiv_pos_site_id
_symmetry_equiv_pos_as_xyz
1 x,y,z
2 -x,1/2+y,1/2-z
3 -x,-y,-z
4 x,1/2-y,1/2+z
_cell_length_a                   14.736(3)
_cell_length_b                   5.8810(12)
_cell_length_c                   14.065(3)
_cell_angle_alpha                90
_cell_angle_beta                 107.90(3)
_cell_angle_gamma                90
_cell_volume                     1159.9
_exptl_crystal_description       block
_cell_formula_units_Z            4
loop_
_atom_site_label
_atom_site_type_symbol
_atom_site_fract_x
_atom_site_fract_y
_atom_site_fract_z
N1 N 0.27550(15) 0.5903(4) 0.16260(15)
H1 H 0.3232 0.5049 0.1636
O1 O 0.06371(11) 0.4213(3) 0.42149(13)
C1 C 0.20034(14) 0.3260(4) 0.36517(15)
H2 H 0.2187 0.2088 0.4115
O2 O 0.46989(11) -0.2651(3) 0.40395(12)
C2 C 0.11978(14) 0.4504(4) 0.36056(16)
O3 O 0.52222(11) 0.0309(3) 0.33617(13)
C3 C 0.09246(16) 0.6237(4) 0.29050(18)
H3 H 0.0385 0.7094 0.2870
C4 C 0.14376(16) 0.6704(4) 0.22650(18)
H4 H 0.1235 0.7866 0.1799
C5 C 0.22621(15) 0.5470(4) 0.22954(16)
C6 C 0.25538(14) 0.3716(3) 0.30178(15)
C7 C 0.0841(2) 0.2347(5) 0.4881(2)
H5 H 0.0401 0.2334 0.5262
H6 H 0.1480 0.2481 0.5324
H7 H 0.0780 0.0958 0.4507
C8 C 0.2502(2) 0.7737(5) 0.0907(2)
H8 H 0.2932 0.7748 0.0515
H9 H 0.2545 0.9160 0.1253
H10 H 0.1862 0.7520 0.0477
C9 C 0.34281(14) 0.2449(4) 0.31189(15)
H11 H 0.3869 0.3143 0.2861
C10 C 0.36711(15) 0.0416(4) 0.35365(15)
H12 H 0.3242 -0.0381 0.3777
C11 C 0.46020(15) -0.0581(4) 0.36227(14)
C12 C 0.55835(17) -0.3821(4) 0.41426(17)
H13 H 0.5575 -0.5273 0.4452
H14 H 0.6105 -0.2932 0.4550
H15 H 0.5659 -0.4037 0.3495
loop_
_geom_bond_atom_site_label_1
_geom_bond_atom_site_label_2
_geom_bond_site_symmetry_1
_geom_bond_site_symmetry_2
N1 H1 1_555 1_555
O1 C2 1_555 1_555
C1 H2 1_555 1_555
O2 C11 1_555 1_555
C2 C1 1_555 1_555
O3 C11 1_555 1_555
C3 C2 1_555 1_555
H3 C3 1_555 1_555
C4 C3 1_555 1_555
H4 C4 1_555 1_555
C5 N1 1_555 1_555
C6 C1 1_555 1_555
C7 O1 1_555 1_555
H5 C7 1_555 1_555
H6 C7 1_555 1_555
H7 C7 1_555 1_555
C8 N1 1_555 1_555
H8 C8 1_555 1_555
H9 C8 1_555 1_555
H10 C8 1_555 1_555
C9 C6 1_555 1_555
H11 C9 1_555 1_555
C10 C9 1_555 1_555
H12 C10 1_555 1_555
C11 C10 1_555 1_555
C12 O2 1_555 1_555
H13 C12 1_555 1_555
H14 C12 1_555 1_555
H15 C12 1_555 1_555
C4 C5 1_555 1_555
C5 C6 1_555 1_555

#END
