
#######################################################################
#
#                 Cambridge Crystallographic Data Centre
#                                CCDC 
#
#######################################################################
#
# If this CIF has been generated from an entry in the Cambridge 
# Structural Database, then it will include bibliographic, chemical, 
# crystal, experimental, refinement or atomic coordinate data resulting 
# from the CCDC's data processing and validation procedures.
#
#######################################################################

data_INUZEY
_chemical_formula_moiety         'C23 H30 F2 N2 O2'
_chemical_name_systematic        
N,N'-dicyclohexyl-4,4-difluoro-2-phenylpent-2-enediamide
_symmetry_cell_setting           monoclinic
_symmetry_space_group_name_H-M   'P 21/n'
_symmetry_Int_Tables_number      14
_space_group_name_Hall           '-P 2yn'
loop_
_symmetry_equiv_pos_site_id
_symmetry_equiv_pos_as_xyz
1 x,y,z
2 1/2-x,1/2+y,1/2-z
3 -x,-y,-z
4 1/2+x,1/2-y,1/2+z
_cell_length_a                   13.5393(8)
_cell_length_b                   9.9243(4)
_cell_length_c                   17.0947(10)
_cell_angle_alpha                90
_cell_angle_beta                 103.566(6)
_cell_angle_gamma                90
_cell_volume                     2232.9
_exptl_crystal_colour            colorless
_exptl_crystal_description       block
_cell_formula_units_Z            4
loop_
_atom_site_label
_atom_site_type_symbol
_atom_site_fract_x
_atom_site_fract_y
_atom_site_fract_z
F1 F 0.52004(14) 0.74083(15) 0.16781(10)
F2 F 0.48845(12) 0.54118(14) 0.11600(10)
O1 O 0.70038(17) 0.65981(16) -0.05144(13)
O2 O 0.36460(16) 0.84269(17) 0.05155(14)
N1 N 0.71862(19) 0.8841(2) -0.05070(15)
H1 H 0.7059 0.9583 -0.0290
N2 N 0.31711(18) 0.6271(2) 0.02077(15)
H2 H 0.3346 0.5440 0.0287
C1 C 0.8600(3) 0.9901(3) -0.0894(2)
H3 H 0.9060 0.9576 -0.0408
H4 H 0.8334 1.0764 -0.0773
C2 C 0.9184(3) 1.0092(4) -0.1543(3)
H5 H 0.9704 1.0772 -0.1371
H6 H 0.9520 0.9254 -0.1618
C3 C 0.8515(4) 1.0503(4) -0.2310(3)
H7 H 0.8907 1.0558 -0.2717
H8 H 0.8243 1.1392 -0.2251
C4 C 0.7666(4) 0.9546(6) -0.2578(2)
H9 H 0.7934 0.8686 -0.2702
H10 H 0.7217 0.9884 -0.3066
C5 C 0.7057(3) 0.9338(4) -0.1934(2)
H11 H 0.6710 1.0168 -0.1863
H12 H 0.6547 0.8648 -0.2112
C6 C 0.7739(2) 0.8925(2) -0.11414(18)
H13 H 0.8022 0.8034 -0.1207
C7 C 0.6865(2) 0.7709(2) -0.02379(17)
C8 C 0.6307(2) 0.7859(2) 0.04214(16)
C9 C 0.6606(2) 0.8998(2) 0.09982(17)
C10 C 0.7609(3) 0.9110(3) 0.1428(2)
H14 H 0.8077 0.8461 0.1359
C11 C 0.7925(4) 1.0161(5) 0.1953(2)
H15 H 0.8599 1.0217 0.2238
C12 C 0.7242(4) 1.1118(4) 0.2050(3)
H16 H 0.7451 1.1825 0.2407
C13 C 0.6246(4) 1.1048(3) 0.1624(2)
H17 H 0.5788 1.1714 0.1687
C14 C 0.5925(3) 0.9984(3) 0.11006(19)
H18 H 0.5250 0.9933 0.0817
C15 C 0.5594(2) 0.6933(2) 0.04252(17)
H19 H 0.5527 0.6286 0.0022
C16 C 0.4892(2) 0.6763(2) 0.09633(17)
C17 C 0.3815(2) 0.7217(2) 0.05533(17)
C18 C 0.2173(2) 0.6589(2) -0.03040(18)
H20 H 0.2172 0.7547 -0.0445
C19 C 0.1335(2) 0.6369(3) 0.01350(19)
H21 H 0.1330 0.5432 0.0297
H22 H 0.1460 0.6922 0.0616
C20 C 0.0315(3) 0.6732(4) -0.0407(2)
H23 H -0.0217 0.6529 -0.0131
H24 H 0.0297 0.7692 -0.0514
C21 C 0.0111(3) 0.5975(4) -0.1194(2)
H25 H 0.0039 0.5022 -0.1094
H26 H -0.0521 0.6289 -0.1539
C22 C 0.0955(3) 0.6172(4) -0.1611(2)
H27 H 0.0970 0.7109 -0.1771
H28 H 0.0827 0.5625 -0.2094
C23 C 0.1983(3) 0.5793(3) -0.1073(2)
H29 H 0.1994 0.4837 -0.0952
H30 H 0.2515 0.5976 -0.1352
loop_
_geom_bond_atom_site_label_1
_geom_bond_atom_site_label_2
_geom_bond_site_symmetry_1
_geom_bond_site_symmetry_2
F1 C16 1_555 1_555
F2 C16 1_555 1_555
O1 C7 1_555 1_555
O2 C17 1_555 1_555
N1 H1 1_555 1_555
N2 H2 1_555 1_555
C1 H3 1_555 1_555
H4 C1 1_555 1_555
C2 C1 1_555 1_555
H5 C2 1_555 1_555
H6 C2 1_555 1_555
C3 C2 1_555 1_555
H7 C3 1_555 1_555
H8 C3 1_555 1_555
C4 C3 1_555 1_555
H9 C4 1_555 1_555
H10 C4 1_555 1_555
C5 C4 1_555 1_555
H11 C5 1_555 1_555
H12 C5 1_555 1_555
C6 N1 1_555 1_555
H13 C6 1_555 1_555
C7 N1 1_555 1_555
C8 C7 1_555 1_555
C9 C8 1_555 1_555
C10 C9 1_555 1_555
H14 C10 1_555 1_555
C11 C10 1_555 1_555
H15 C11 1_555 1_555
C12 C11 1_555 1_555
H16 C12 1_555 1_555
C13 C12 1_555 1_555
H17 C13 1_555 1_555
C14 C9 1_555 1_555
H18 C14 1_555 1_555
C15 C8 1_555 1_555
H19 C15 1_555 1_555
C16 C15 1_555 1_555
C17 N2 1_555 1_555
C18 N2 1_555 1_555
H20 C18 1_555 1_555
C19 C18 1_555 1_555
H21 C19 1_555 1_555
H22 C19 1_555 1_555
C20 C19 1_555 1_555
H23 C20 1_555 1_555
H24 C20 1_555 1_555
C21 C20 1_555 1_555
H25 C21 1_555 1_555
H26 C21 1_555 1_555
C22 C21 1_555 1_555
H27 C22 1_555 1_555
H28 C22 1_555 1_555
C23 C18 1_555 1_555
H29 C23 1_555 1_555
H30 C23 1_555 1_555
C1 C6 1_555 1_555
C5 C6 1_555 1_555
C13 C14 1_555 1_555
C16 C17 1_555 1_555
C22 C23 1_555 1_555

#END
