
#######################################################################
#
#                 Cambridge Crystallographic Data Centre
#                                CCDC 
#
#######################################################################
#
# If this CIF has been generated from an entry in the Cambridge 
# Structural Database, then it will include bibliographic, chemical, 
# crystal, experimental, refinement or atomic coordinate data resulting 
# from the CCDC's data processing and validation procedures.
#
#######################################################################

data_IONCAH01
_chemical_formula_moiety         'C41 H70 Ca1 O9,0.5(C7 H16)'
_chemical_name_systematic        'Ionomycin-calcium heptane solvate'
_chemical_properties_biological  
'Ionomycin is a narrow-spectrum ionophore antibiotic'
_symmetry_cell_setting           orthorhombic
_symmetry_space_group_name_H-M   'P 21 21 2'
_symmetry_Int_Tables_number      18
_space_group_name_Hall           'P 2 2ab'
loop_
_symmetry_equiv_pos_site_id
_symmetry_equiv_pos_as_xyz
1 x,y,z
2 -x,-y,z
3 1/2+x,1/2-y,-z
4 1/2-x,1/2+y,-z
_cell_length_a                   18.8953(11)
_cell_length_b                   22.0317(13)
_cell_length_c                   12.1100(8)
_cell_angle_alpha                90
_cell_angle_beta                 90
_cell_angle_gamma                90
_cell_volume                     5041.34
_exptl_crystal_colour            colorless
_chemical_melting_point          199-200deg.C
_cell_formula_units_Z            4
_exptl_crystal_recrystallization_method heptane
loop_
_atom_site_label
_atom_site_type_symbol
_atom_site_fract_x
_atom_site_fract_y
_atom_site_fract_z
Ca1 Ca 0.30468(3) 0.02742(2) 0.40986(5)
O1 O 0.42098(13) 0.09489(13) 0.2035(3)
C1 C 0.36471(16) 0.07117(12) 0.1627(3)
O2 O 0.31889(10) 0.04555(9) 0.22035(18)
C2 C 0.3517(2) 0.07537(17) 0.0383(3)
H1 H 0.3884 0.1014 0.0044
H2 H 0.3555 0.0344 0.0053
H3 H 0.0662(17) 0.0344(13) 0.317(3)
O3 O 0.21046(9) 0.09410(9) 0.4033(2)
C3 C 0.2789(2) 0.10151(18) 0.0132(3)
H4 H 0.2424 0.0732 0.0413
H5 H 0.2731 0.1044 -0.0679
O4 O 0.20961(9) -0.03639(9) 0.38086(17)
C4 C 0.26607(19) 0.16478(16) 0.0642(4)
H6 H 0.2778 0.1625 0.1446
O5 O 0.44253(10) -0.07802(9) 0.16605(18)
H7 H 0.4856 -0.0749 0.1822
C5 C 0.1871(2) 0.1836(2) 0.0534(4)
H8 H 0.1834 0.2280 0.0643
H9 H 0.1710 0.1745 -0.0227
O6 O 0.38874(12) -0.04924(9) 0.36010(19)
H10 H 0.4006 -0.0410 0.2949
C6 C 0.13675(19) 0.15190(17) 0.1354(3)
H11 H 0.1523 0.1087 0.1431
O7 O 0.33421(12) -0.02966(13) 0.57123(17)
C7 C 0.14060(19) 0.18200(15) 0.2502(4)
H12 H 0.1910 0.1886 0.2687
H13 H 0.1179 0.2224 0.2454
O8 O 0.31717(12) 0.09178(13) 0.5960(2)
C8 C 0.10622(16) 0.14698(14) 0.3450(3)
H14 H 0.0567 0.1362 0.3233
O9 O 0.40312(12) 0.10081(11) 0.4189(3)
H15 H 0.4125 0.1050 0.3515
C9 C 0.14779(13) 0.08787(13) 0.3668(2)
C10 C 0.11440(13) 0.03227(13) 0.3414(3)
C11 C 0.14770(13) -0.02560(13) 0.3444(2)
C12 C 0.10719(14) -0.07942(12) 0.2946(3)
H16 H 0.0588 -0.0656 0.2724
C13 C 0.14670(14) -0.10322(13) 0.1910(3)
H17 H 0.1914 -0.1226 0.2152
H18 H 0.1173 -0.1350 0.1559
C14 C 0.16433(14) -0.05503(15) 0.1040(3)
H19 H 0.1927 -0.0226 0.1410
C15 C 0.2096(2) -0.0810(2) 0.0079(3)
H20 H 0.2109 -0.0518 -0.0543
H21 H 0.1890 -0.1196 -0.0189
C16 C 0.2873(2) -0.0921(2) 0.0546(4)
H22 H 0.3052 -0.0638 0.1066
C17 C 0.32444(17) -0.13304(19) 0.0293(3)
H23 H 0.3058 -0.1528 -0.0341
C18 C 0.39144(15) -0.16351(15) 0.0651(3)
H24 H 0.3802 -0.2075 0.0748
C19 C 0.42070(14) -0.14073(12) 0.1767(2)
H25 H 0.4640 -0.1651 0.1938
C20 C 0.36882(15) -0.14825(14) 0.2755(3)
H26 H 0.3218 -0.1312 0.2536
C21 C 0.39503(15) -0.11373(13) 0.3782(2)
H27 H 0.4461 -0.1237 0.3899
C22 C 0.35439(19) -0.12755(16) 0.4856(3)
H28 H 0.3030 -0.1239 0.4709
H29 H 0.3639 -0.1701 0.5073
C23 C 0.37324(19) -0.08657(19) 0.5808(3)
H30 H 0.4252 -0.0780 0.5793
C24 C 0.3520(3) -0.1093(3) 0.6975(4)
H31 H 0.3060 -0.1309 0.6956
H32 H 0.3885 -0.1367 0.7283
C25 C 0.3468(3) -0.0508(3) 0.7643(4)
H33 H 0.3940 -0.0371 0.7892
H34 H 0.3158 -0.0562 0.8296
C26 C 0.3137(2) -0.0049(3) 0.6804(3)
C27 C 0.3439(2) 0.0590(3) 0.6879(4)
H35 H 0.3256 0.0784 0.7569
C28 C 0.4235(2) 0.0691(3) 0.6823(4)
H36 H 0.4459 0.0630 0.7554
H37 H 0.4459 0.0414 0.6281
C29 C 0.4294(3) 0.1349(3) 0.6453(5)
H38 H 0.4708 0.1406 0.5964
H39 H 0.4340 0.1623 0.7097
C30 C 0.35941(19) 0.1478(2) 0.5818(4)
C31 C 0.37038(19) 0.15539(18) 0.4598(4)
H40 H 0.3229 0.1595 0.4241
C32 C 0.4151(2) 0.2112(2) 0.4277(6)
H41 H 0.4627 0.2072 0.4592
H42 H 0.3927 0.2480 0.4565
H43 H 0.4185 0.2138 0.3471
C33 C 0.3161(3) 0.1993(3) 0.6360(6)
H44 H 0.2734 0.2070 0.5922
H45 H 0.3449 0.2363 0.6391
H46 H 0.3026 0.1872 0.7109
C34 C 0.2326(2) -0.0059(3) 0.6845(4)
H47 H 0.2137 0.0226 0.6300
H48 H 0.2166 0.0059 0.7585
H49 H 0.2157 -0.0469 0.6678
C35 C 0.3594(3) -0.21682(18) 0.3006(4)
H50 H 0.4038 -0.2333 0.3300
H51 H 0.3469 -0.2383 0.2325
H52 H 0.3217 -0.2222 0.3552
C36 C 0.44884(18) -0.15938(18) -0.0254(3)
H53 H 0.4309 -0.1774 -0.0939
H54 H 0.4912 -0.1814 -0.0014
H55 H 0.4609 -0.1167 -0.0385
C37 C 0.09781(16) -0.02514(17) 0.0551(3)
H56 H 0.0667 -0.0565 0.0247
H57 H 0.1116 0.0030 -0.0038
H58 H 0.0727 -0.0028 0.1132
C38 C 0.10015(19) -0.13048(15) 0.3822(3)
H59 H 0.1471 -0.1409 0.4107
H60 H 0.0787 -0.1664 0.3481
H61 H 0.0701 -0.1164 0.4430
C39 C 0.1037(2) 0.18490(19) 0.4531(4)
H62 H 0.0848 0.1598 0.5132
H63 H 0.0731 0.2203 0.4423
H64 H 0.1516 0.1985 0.4721
C40 C 0.0611(2) 0.1522(2) 0.0887(4)
H65 H 0.0294 0.1309 0.1397
H66 H 0.0606 0.1316 0.0169
H67 H 0.0450 0.1942 0.0796
C41 C 0.3152(3) 0.2123(2) 0.0109(6)
H68 H 0.3090 0.2117 -0.0695
H69 H 0.3645 0.2028 0.0290
H70 H 0.3034 0.2527 0.0392
C42 C 0.0000 0.0000 -0.3455
C43 C -0.0071 0.0530 -0.2629
C44 C -0.0002 0.1183 -0.2762
C45 C -0.0458 0.1621 -0.2074
C43A C 0.0071 -0.0530 -0.2629
C44A C 0.0002 -0.1183 -0.2762
C45A C 0.0458 -0.1621 -0.2074
C46? C 0.2096(2) -0.0810(2) 0.0079(3)
C47? C 0.26178(17) -0.13432(19) 0.0380(3)
C48? C 0.32444(17) -0.13304(19) 0.0293(3)
H71? H 0.2377 -0.0473 -0.0239
H72? H 0.1770 -0.0955 -0.0504
H73? H 0.2414 -0.1707 0.0655
H74? H 0.3365 -0.1004 -0.0183
loop_
_geom_bond_atom_site_label_1
_geom_bond_atom_site_label_2
_geom_bond_site_symmetry_1
_geom_bond_site_symmetry_2
Ca1 O2 1_555 1_555
O1 C1 1_555 1_555
C1 O2 1_555 1_555
C2 C1 1_555 1_555
H1 C2 1_555 1_555
H2 C2 1_555 1_555
H3 C10 1_555 1_555
O3 Ca1 1_555 1_555
C3 C2 1_555 1_555
H4 C3 1_555 1_555
H5 C3 1_555 1_555
O4 Ca1 1_555 1_555
C4 C3 1_555 1_555
H6 C4 1_555 1_555
O5 H7 1_555 1_555
C5 C4 1_555 1_555
H8 C5 1_555 1_555
H9 C5 1_555 1_555
O6 Ca1 1_555 1_555
H10 O6 1_555 1_555
C6 C5 1_555 1_555
H11 C6 1_555 1_555
O7 Ca1 1_555 1_555
C7 C6 1_555 1_555
H12 C7 1_555 1_555
H13 C7 1_555 1_555
O8 C27 1_555 1_555
C8 C7 1_555 1_555
H14 C8 1_555 1_555
O9 Ca1 1_555 1_555
H15 O9 1_555 1_555
C9 O3 1_555 1_555
C10 C9 1_555 1_555
C11 O4 1_555 1_555
C12 C11 1_555 1_555
H16 C12 1_555 1_555
C13 C12 1_555 1_555
H17 C13 1_555 1_555
H18 C13 1_555 1_555
C14 C13 1_555 1_555
H19 C14 1_555 1_555
C15 C14 1_555 1_555
H20 C15 1_555 1_555
H21 C15 1_555 1_555
C16 C15 1_555 1_555
H22 C16 1_555 1_555
C17 C16 1_555 1_555
H23 C17 1_555 1_555
C18 C17 1_555 1_555
H24 C18 1_555 1_555
C19 O5 1_555 1_555
H25 C19 1_555 1_555
C20 C19 1_555 1_555
H26 C20 1_555 1_555
C21 O6 1_555 1_555
H27 C21 1_555 1_555
C22 C21 1_555 1_555
H28 C22 1_555 1_555
H29 C22 1_555 1_555
C23 O7 1_555 1_555
H30 C23 1_555 1_555
C24 C23 1_555 1_555
H31 C24 1_555 1_555
H32 C24 1_555 1_555
C25 C24 1_555 1_555
H33 C25 1_555 1_555
H34 C25 1_555 1_555
C26 O7 1_555 1_555
C27 C26 1_555 1_555
H35 C27 1_555 1_555
C28 C27 1_555 1_555
H36 C28 1_555 1_555
H37 C28 1_555 1_555
C29 C28 1_555 1_555
H38 C29 1_555 1_555
H39 C29 1_555 1_555
C30 O8 1_555 1_555
C31 O9 1_555 1_555
H40 C31 1_555 1_555
C32 C31 1_555 1_555
H41 C32 1_555 1_555
H42 C32 1_555 1_555
H43 C32 1_555 1_555
C33 C30 1_555 1_555
H44 C33 1_555 1_555
H45 C33 1_555 1_555
H46 C33 1_555 1_555
C34 C26 1_555 1_555
H47 C34 1_555 1_555
H48 C34 1_555 1_555
H49 C34 1_555 1_555
C35 C20 1_555 1_555
H50 C35 1_555 1_555
H51 C35 1_555 1_555
H52 C35 1_555 1_555
C36 C18 1_555 1_555
H53 C36 1_555 1_555
H54 C36 1_555 1_555
H55 C36 1_555 1_555
C37 C14 1_555 1_555
H56 C37 1_555 1_555
H57 C37 1_555 1_555
H58 C37 1_555 1_555
C38 C12 1_555 1_555
H59 C38 1_555 1_555
H60 C38 1_555 1_555
H61 C38 1_555 1_555
C39 C8 1_555 1_555
H62 C39 1_555 1_555
H63 C39 1_555 1_555
H64 C39 1_555 1_555
C40 C6 1_555 1_555
H65 C40 1_555 1_555
H66 C40 1_555 1_555
H67 C40 1_555 1_555
C41 C4 1_555 1_555
H68 C41 1_555 1_555
H69 C41 1_555 1_555
H70 C41 1_555 1_555
C42 C43 1_555 1_555
C43 C44 1_555 1_555
C44 C45 1_555 1_555
C43A C42 1_555 1_555
C44A C43A 1_555 1_555
C45A C44A 1_555 1_555
C8 C9 1_555 1_555
C10 C11 1_555 1_555
C18 C19 1_555 1_555
C20 C21 1_555 1_555
C22 C23 1_555 1_555
C25 C26 1_555 1_555
C29 C30 1_555 1_555
C30 C31 1_555 1_555

#END
