
#######################################################################
#
#                 Cambridge Crystallographic Data Centre
#                                CCDC 
#
#######################################################################
#
# If this CIF has been generated from an entry in the Cambridge 
# Structural Database, then it will include bibliographic, chemical, 
# crystal, experimental, refinement or atomic coordinate data resulting 
# from the CCDC's data processing and validation procedures.
#
#######################################################################

data_IPAHIS
_chemical_formula_moiety         'C21 H22 Cl1 N1 O3 S1'
_chemical_name_systematic        
(3S*,3aR*,4R*,7aR*)-4-Chloro-1-((4-methylphenyl)sulfonyl)-3-phenyloctahydro-2H-indol-2-one
_symmetry_cell_setting           orthorhombic
_symmetry_space_group_name_H-M   'P n a 21'
_symmetry_Int_Tables_number      33
_space_group_name_Hall           'P 2c -2n'
loop_
_symmetry_equiv_pos_site_id
_symmetry_equiv_pos_as_xyz
1 x,y,z
2 -x,-y,1/2+z
3 1/2+x,1/2-y,z
4 1/2-x,1/2+y,1/2+z
_cell_length_a                   23.2992(11)
_cell_length_b                   6.8926(3)
_cell_length_c                   24.2950(13)
_cell_angle_alpha                90
_cell_angle_beta                 90
_cell_angle_gamma                90
_cell_volume                     3901.58
_exptl_crystal_colour            yellow
_exptl_crystal_description       prism
_chemical_melting_point          '179-180 deg.C'
_cell_formula_units_Z            8
loop_
_atom_site_label
_atom_site_type_symbol
_atom_site_fract_x
_atom_site_fract_y
_atom_site_fract_z
C1 C 0.25948(14) 0.7462(5) 0.37614(15)
C2 C 0.27814(15) 0.8975(5) 0.34320(14)
H1 H 0.3146 0.8916 0.3257
C3 C 0.24306(15) 1.0567(5) 0.33619(13)
H2 H 0.2560 1.1619 0.3142
C4 C 0.18936(15) 1.0665(5) 0.36058(14)
C5 C 0.15165(18) 1.2429(6) 0.35321(17)
H3 H 0.1711 1.3370 0.3294
H4 H 0.1441 1.3020 0.3892
H5 H 0.1153 1.2041 0.3362
C6 C 0.17167(14) 0.9115(5) 0.39264(15)
H6 H 0.1347 0.9151 0.4092
C7 C 0.20599(14) 0.7532(5) 0.40115(15)
H7 H 0.1934 0.6495 0.4239
C8 C 0.34002(14) 0.7199(4) 0.48168(14)
C9 C 0.39552(13) 0.7948(5) 0.50707(14)
H8 H 0.4118 0.6923 0.5317
C10 C 0.38879(13) 0.9801(5) 0.53960(12)
C11 C 0.34789(14) 1.1182(5) 0.52635(15)
H9 H 0.3217 1.0944 0.4971
C12 C 0.34485(15) 1.2915(5) 0.55556(16)
H10 H 0.3160 1.3839 0.5469
C13 C 0.38299(16) 1.3289(6) 0.59648(16)
H11 H 0.3811 1.4486 0.6158
C14 C 0.42449(16) 1.1947(6) 0.61023(16)
H12 H 0.4512 1.2224 0.6387
C15 C 0.42719(14) 1.0194(5) 0.58248(13)
H13 H 0.4552 0.9256 0.5926
C16 C 0.43456(13) 0.8162(5) 0.45604(14)
H14 H 0.4243 0.9402 0.4371
C17 C 0.49901(14) 0.8204(6) 0.46858(15)
H15 H 0.5056 0.9092 0.5005
C18 C 0.52407(14) 0.6247(6) 0.48234(15)
H16 H 0.5091 0.5818 0.5185
H17 H 0.5663 0.6366 0.4855
C19 C 0.50982(15) 0.4733(6) 0.43938(17)
H18 H 0.5263 0.3466 0.4504
H19 H 0.5269 0.5108 0.4036
C20 C 0.44459(14) 0.4549(5) 0.43333(16)
H20 H 0.4358 0.3594 0.4041
H21 H 0.4281 0.4061 0.4683
C21 C 0.41680(12) 0.6485(5) 0.41895(14)
H22 H 0.4239 0.6816 0.3795
N1 N 0.35386(10) 0.6428(4) 0.43061(11)
O1 O 0.27480(9) 0.4014(3) 0.41667(12)
O2 O 0.33663(9) 0.5027(4) 0.33951(10)
O3 O 0.29278(9) 0.7229(4) 0.50123(10)
S1 S 0.30522(3) 0.54875(13) 0.38824(4)
Cl1 Cl 0.53548(4) 0.91992(15) 0.40898(4)
C22 C 0.48672(13) 0.2650(5) 0.24320(14)
C23 C 0.54182(14) 0.2665(5) 0.22117(15)
H23 H 0.5554 0.1613 0.1995
C24 C 0.57613(13) 0.4249(6) 0.23163(15)
H24 H 0.6143 0.4248 0.2178
C25 C 0.55770(14) 0.5829(5) 0.26116(14)
C26 C 0.59514(17) 0.7553(6) 0.27061(19)
H25 H 0.6326 0.7337 0.2533
H26 H 0.6003 0.7751 0.3103
H27 H 0.5771 0.8705 0.2545
C27 C 0.50233(14) 0.5770(5) 0.28254(14)
H28 H 0.4886 0.6837 0.3035
C28 C 0.46693(13) 0.4196(5) 0.27392(14)
H29 H 0.4293 0.4175 0.2890
C29 C 0.40504(15) 0.2598(5) 0.13721(15)
C30 C 0.35021(12) 0.3471(4) 0.11416(13)
H30 H 0.3313 0.2483 0.0901
C31 C 0.35786(12) 0.5306(4) 0.08150(12)
C32 C 0.40005(13) 0.6650(5) 0.09470(14)
H31 H 0.4257 0.6388 0.1242
C33 C 0.40520(15) 0.8350(5) 0.06584(17)
H32 H 0.4347 0.9247 0.0749
C34 C 0.36732(17) 0.8761(6) 0.02335(16)
H33 H 0.3705 0.9944 0.0035
C35 C 0.32532(17) 0.7450(6) 0.01023(17)
H34 H 0.2992 0.7726 -0.0187
C36 C 0.32096(15) 0.5738(5) 0.03885(14)
H35 H 0.2919 0.4833 0.0291
C37 C 0.31388(12) 0.3703(5) 0.16723(13)
H36 H 0.3279 0.4883 0.1871
C38 C 0.24960(14) 0.3943(5) 0.15751(15)
H37 H 0.2435 0.4898 0.1271
C39 C 0.21995(14) 0.2068(6) 0.14293(15)
H38 H 0.2317 0.1674 0.1054
H39 H 0.1780 0.2288 0.1425
C40 C 0.23334(14) 0.0430(6) 0.18262(15)
H40 H 0.2184 0.0758 0.2196
H41 H 0.2141 -0.0772 0.1701
C41 C 0.29748(13) 0.0095(5) 0.18594(15)
H42 H 0.3115 -0.0371 0.1498
H43 H 0.3054 -0.0929 0.2135
C42 C 0.32992(12) 0.1929(5) 0.20176(14)
H44 H 0.3250 0.2212 0.2419
N2 N 0.39189(10) 0.1762(4) 0.18765(11)
O4 O 0.47062(10) -0.0717(3) 0.19828(11)
O5 O 0.40916(9) 0.0185(4) 0.27672(10)
O6 O 0.45274(10) 0.2601(3) 0.11679(11)
S2 S 0.44055(3) 0.07212(12) 0.22857(4)
Cl2 Cl 0.21875(4) 0.49077(15) 0.22054(4)
loop_
_geom_bond_atom_site_label_1
_geom_bond_atom_site_label_2
_geom_bond_site_symmetry_1
_geom_bond_site_symmetry_2
C1 C2 1_555 1_555
C2 H1 1_555 1_555
C3 C2 1_555 1_555
H2 C3 1_555 1_555
C4 C3 1_555 1_555
C5 C4 1_555 1_555
H3 C5 1_555 1_555
H4 C5 1_555 1_555
H5 C5 1_555 1_555
C6 C4 1_555 1_555
H6 C6 1_555 1_555
C7 C1 1_555 1_555
H7 C7 1_555 1_555
C8 C9 1_555 1_555
C9 H8 1_555 1_555
C10 C9 1_555 1_555
C11 C10 1_555 1_555
H9 C11 1_555 1_555
C12 C11 1_555 1_555
H10 C12 1_555 1_555
C13 C12 1_555 1_555
H11 C13 1_555 1_555
C14 C13 1_555 1_555
H12 C14 1_555 1_555
C15 C10 1_555 1_555
H13 C15 1_555 1_555
C16 C9 1_555 1_555
H14 C16 1_555 1_555
C17 C16 1_555 1_555
H15 C17 1_555 1_555
C18 C17 1_555 1_555
H16 C18 1_555 1_555
H17 C18 1_555 1_555
C19 C18 1_555 1_555
H18 C19 1_555 1_555
H19 C19 1_555 1_555
C20 C19 1_555 1_555
H20 C20 1_555 1_555
H21 C20 1_555 1_555
C21 C16 1_555 1_555
H22 C21 1_555 1_555
N1 C8 1_555 1_555
O1 S1 1_555 1_555
O2 S1 1_555 1_555
O3 C8 1_555 1_555
S1 C1 1_555 1_555
Cl1 C17 1_555 1_555
C22 C23 1_555 1_555
C23 H23 1_555 1_555
C24 C23 1_555 1_555
H24 C24 1_555 1_555
C25 C24 1_555 1_555
C26 C25 1_555 1_555
H25 C26 1_555 1_555
H26 C26 1_555 1_555
H27 C26 1_555 1_555
C27 C25 1_555 1_555
H28 C27 1_555 1_555
C28 C22 1_555 1_555
H29 C28 1_555 1_555
C29 C30 1_555 1_555
C30 H30 1_555 1_555
C31 C30 1_555 1_555
C32 C31 1_555 1_555
H31 C32 1_555 1_555
C33 C32 1_555 1_555
H32 C33 1_555 1_555
C34 C33 1_555 1_555
H33 C34 1_555 1_555
C35 C34 1_555 1_555
H34 C35 1_555 1_555
C36 C31 1_555 1_555
H35 C36 1_555 1_555
C37 C30 1_555 1_555
H36 C37 1_555 1_555
C38 C37 1_555 1_555
H37 C38 1_555 1_555
C39 C38 1_555 1_555
H38 C39 1_555 1_555
H39 C39 1_555 1_555
C40 C39 1_555 1_555
H40 C40 1_555 1_555
H41 C40 1_555 1_555
C41 C40 1_555 1_555
H42 C41 1_555 1_555
H43 C41 1_555 1_555
C42 C37 1_555 1_555
H44 C42 1_555 1_555
N2 C29 1_555 1_555
O4 S2 1_555 1_555
O5 S2 1_555 1_555
O6 C29 1_555 1_555
S2 C22 1_555 1_555
Cl2 C38 1_555 1_555
C6 C7 1_555 1_555
C14 C15 1_555 1_555
C20 C21 1_555 1_555
C21 N1 1_555 1_555
N1 S1 1_555 1_555
C27 C28 1_555 1_555
C35 C36 1_555 1_555
C41 C42 1_555 1_555
C42 N2 1_555 1_555
N2 S2 1_555 1_555

#END
