
#######################################################################
#
#                 Cambridge Crystallographic Data Centre
#                                CCDC 
#
#######################################################################
#
# If this CIF has been generated from an entry in the Cambridge 
# Structural Database, then it will include bibliographic, chemical, 
# crystal, experimental, refinement or atomic coordinate data resulting 
# from the CCDC's data processing and validation procedures.
#
#######################################################################

data_IPAKER
_chemical_formula_moiety         'C29 H27 N1 O4 S1'
_chemical_name_systematic        
'4-(4-Methoxyphenyl)-4-(2-(2-methylphenyl)-2-phenylethyl)-3,4-dihydro-1,2,3-benzoxathiazine 2,2-dioxide'
_symmetry_cell_setting           orthorhombic
_symmetry_space_group_name_H-M   'P 21 21 21'
_symmetry_Int_Tables_number      19
_space_group_name_Hall           'P 2ac 2ab'
loop_
_symmetry_equiv_pos_site_id
_symmetry_equiv_pos_as_xyz
1 x,y,z
2 1/2+x,1/2-y,-z
3 -x,1/2+y,1/2-z
4 1/2-x,-y,1/2+z
_cell_length_a                   8.3536(10)
_cell_length_b                   13.8716(16)
_cell_length_c                   21.444(3)
_cell_angle_alpha                90
_cell_angle_beta                 90
_cell_angle_gamma                90
_cell_volume                     2484.88
_exptl_crystal_colour            'metallic light black'
_exptl_crystal_description       block
_cell_formula_units_Z            4
loop_
_atom_site_label
_atom_site_type_symbol
_atom_site_fract_x
_atom_site_fract_y
_atom_site_fract_z
C1 C 0.7990(4) 0.3293(2) 0.14095(14)
H1 H 0.8849 0.2989 0.1623
C2 C 0.7508(4) 0.2925(2) 0.08446(14)
H2 H 0.8041 0.2383 0.0670
O1 O 0.5703(3) 0.30569(18) -0.00465(10)
C3 C 1.2813(5) 0.4336(3) 0.38280(19)
H3 H 1.3937 0.4410 0.3878
C4 C 1.0189(4) 0.5024(2) 0.37909(16)
H4 H 0.9510 0.5570 0.3829
C5 C 1.0568(4) 0.3346(2) 0.36125(14)
H5 H 1.0147 0.2725 0.3523
C6 C 0.6665(5) 0.4706(3) 0.47517(15)
H6 H 0.6081 0.5133 0.4467
H7 H 0.7807 0.4867 0.4742
H8 H 0.6254 0.4789 0.5176
N1 N 0.9685(3) 0.44612(17) 0.22673(11)
H9 H 1.018(4) 0.437(2) 0.2587(16)
O2 O 0.9866(3) 0.55204(18) 0.13447(10)
O3 O 1.2188(3) 0.53378(18) 0.20418(11)
C7 C 0.5974(3) 0.4501(2) 0.13625(14)
H10 H 0.5432 0.5040 0.1536
C8 C 0.5471(4) 0.4126(2) 0.07937(14)
H11 H 0.4586 0.4409 0.0585
C9 C 0.5500(5) 0.2065(3) 0.47978(16)
H12 H 0.4992 0.1635 0.5080
C10 C 0.6044(5) 0.1741(3) 0.42324(17)
H13 H 0.5941 0.1079 0.4126
C11 C 0.6745(4) 0.2379(2) 0.38148(15)
H14 H 0.7089 0.2150 0.3420
C12 C 1.1825(5) 0.5130(3) 0.38808(19)
H15 H 1.2262 0.5744 0.3978
C13 C 1.2193(4) 0.3449(3) 0.37056(16)
H16 H 1.2876 0.2903 0.3684
C14 C 0.5696(5) 0.3024(3) 0.49540(15)
H17 H 0.5316 0.3245 0.5346
C15 C 0.7743(4) 0.7165(2) 0.27404(15)
H18 H 0.8455 0.7698 0.2762
C16 C 0.6171(5) 0.7269(3) 0.29215(17)
H19 H 0.5801 0.7869 0.3081
C17 C 0.5696(4) 0.5615(2) 0.26574(14)
H20 H 0.4976 0.5087 0.2630
C18 C 0.6952(4) 0.3340(2) 0.39616(13)
C19 C 0.7759(3) 0.4031(2) 0.35032(13)
H21 H 0.7262 0.4680 0.3567
C20 C 0.7432(3) 0.3737(2) 0.28218(12)
H22 H 0.6276 0.3593 0.2781
H23 H 0.8019 0.3130 0.2738
C21 C 0.7891(3) 0.4477(2) 0.23046(12)
C22 C 0.7261(3) 0.4096(2) 0.16803(13)
C23 C 0.6240(4) 0.3350(2) 0.05305(14)
C24 C 0.6598(5) 0.2328(4) -0.03501(19)
H24 H 0.6223 0.2261 -0.0781
H25 H 0.6456 0.1716 -0.0129
H26 H 0.7734 0.2504 -0.0350
C25 C 0.9528(4) 0.4132(2) 0.36466(12)
C26 C 0.6438(4) 0.3676(2) 0.45511(14)
O4 O 0.9923(3) 0.62639(15) 0.23763(11)
C27 C 0.8279(4) 0.6286(2) 0.25273(14)
C28 C 0.5127(4) 0.6492(2) 0.28702(16)
H27 H 0.4032 0.6563 0.2980
C29 C 0.7289(3) 0.5479(2) 0.24815(13)
S1 S 1.05166(9) 0.53836(6) 0.19451(3)
loop_
_geom_bond_atom_site_label_1
_geom_bond_atom_site_label_2
_geom_bond_site_symmetry_1
_geom_bond_site_symmetry_2
C1 H1 1_555 1_555
C2 C1 1_555 1_555
H2 C2 1_555 1_555
O1 C23 1_555 1_555
C3 H3 1_555 1_555
C4 H4 1_555 1_555
C5 H5 1_555 1_555
C6 H6 1_555 1_555
H7 C6 1_555 1_555
H8 C6 1_555 1_555
N1 H9 1_555 1_555
O2 S1 1_555 1_555
O3 S1 1_555 1_555
C7 H10 1_555 1_555
C8 C7 1_555 1_555
H11 C8 1_555 1_555
C9 H12 1_555 1_555
C10 C9 1_555 1_555
H13 C10 1_555 1_555
C11 C10 1_555 1_555
H14 C11 1_555 1_555
C12 C3 1_555 1_555
H15 C12 1_555 1_555
C13 C3 1_555 1_555
H16 C13 1_555 1_555
C14 C9 1_555 1_555
H17 C14 1_555 1_555
C15 H18 1_555 1_555
C16 C15 1_555 1_555
H19 C16 1_555 1_555
C17 H20 1_555 1_555
C18 C11 1_555 1_555
C19 C18 1_555 1_555
H21 C19 1_555 1_555
C20 C19 1_555 1_555
H22 C20 1_555 1_555
H23 C20 1_555 1_555
C21 N1 1_555 1_555
C22 C1 1_555 1_555
C23 C2 1_555 1_555
C24 O1 1_555 1_555
H24 C24 1_555 1_555
H25 C24 1_555 1_555
H26 C24 1_555 1_555
C25 C4 1_555 1_555
C26 C6 1_555 1_555
O4 C27 1_555 1_555
C27 C15 1_555 1_555
C28 C16 1_555 1_555
H27 C28 1_555 1_555
C29 C17 1_555 1_555
S1 N1 1_555 1_555
C4 C12 1_555 1_555
C5 C13 1_555 1_555
C5 C25 1_555 1_555
C7 C22 1_555 1_555
C8 C23 1_555 1_555
C14 C26 1_555 1_555
C17 C28 1_555 1_555
C18 C26 1_555 1_555
C19 C25 1_555 1_555
C20 C21 1_555 1_555
C21 C22 1_555 1_555
C21 C29 1_555 1_555
O4 S1 1_555 1_555
C27 C29 1_555 1_555

#END
