
#######################################################################
#
#                 Cambridge Crystallographic Data Centre
#                                CCDC 
#
#######################################################################
#
# If this CIF has been generated from an entry in the Cambridge 
# Structural Database, then it will include bibliographic, chemical, 
# crystal, experimental, refinement or atomic coordinate data resulting 
# from the CCDC's data processing and validation procedures.
#
#######################################################################

data_IPAKUH
_chemical_formula_moiety         'C21 H22 N2 O4 Si1'
_chemical_name_systematic        
1-((4-methoxyphenyl)amino)-2-(4-nitrophenyl)-5-(trimethylsilyl)pent-1-en-4-yn-3-one
_symmetry_cell_setting           triclinic
_symmetry_space_group_name_H-M   'P -1'
_symmetry_Int_Tables_number      2
_space_group_name_Hall           '-P 1'
loop_
_symmetry_equiv_pos_site_id
_symmetry_equiv_pos_as_xyz
1 x,y,z
2 -x,-y,-z
_cell_length_a                   6.6005(3)
_cell_length_b                   10.3300(3)
_cell_length_c                   15.2977(5)
_cell_angle_alpha                96.372(3)
_cell_angle_beta                 95.057(3)
_cell_angle_gamma                98.899(3)
_cell_volume                     1018.22
_exptl_crystal_colour            orange
_exptl_crystal_description       prism
_chemical_melting_point          '337 K'
_cell_formula_units_Z            2
loop_
_atom_site_label
_atom_site_type_symbol
_atom_site_fract_x
_atom_site_fract_y
_atom_site_fract_z
Si1 Si 0.31770(8) 0.01061(5) 0.70409(4)
N1 N 0.7738(2) -0.53474(14) 0.86488(12)
H1 H 0.6736 -0.5041 0.8877
O1 O 0.4950(2) -0.38035(14) 0.85527(12)
O2 O 1.12960(19) -0.86800(13) 1.07148(10)
C1 C 0.7832(3) -0.37854(17) 0.65796(14)
C2 C 0.8167(3) -0.49743(17) 0.78794(14)
H2 H 0.9193 -0.5334 0.7606
O3 O 1.1526(3) -0.28873(17) 0.39765(12)
N2 N 0.9678(3) -0.31929(18) 0.40476(13)
C3 C 0.7200(3) -0.40821(17) 0.74437(14)
C4 C 0.8797(3) -0.73606(17) 1.04202(15)
H3 H 0.8234 -0.7585 1.0930
C5 C 1.0515(3) -0.66493(18) 0.89100(15)
H4 H 1.1102 -0.6401 0.8411
O4 O 0.8337(3) -0.33959(18) 0.34098(11)
C6 C 0.4233(3) -0.13891(19) 0.73095(15)
C7 C 0.9923(3) -0.36045(18) 0.64316(14)
H5 H 1.0919 -0.3632 0.6896
C8 C 1.1410(3) -0.74790(18) 0.94286(15)
H6 H 1.2595 -0.7788 0.9271
C9 C 1.0555(3) -0.78484(17) 1.01759(14)
C10 C 0.7900(3) -0.65446(17) 0.99033(15)
H7 H 0.6726 -0.6226 1.0065
C11 C 0.8737(3) -0.61947(17) 0.91437(14)
C12 C 1.2998(3) -0.92755(19) 1.04410(16)
H8 H 1.2641 -0.9732 0.9853
H9 H 1.3312 -0.9891 1.0839
H10 H 1.4180 -0.8602 1.0448
C13 C 0.9031(3) -0.33510(19) 0.49209(14)
C14 C 0.5650(3) -0.34670(18) 0.78651(16)
C15 C 0.4921(3) -0.23405(18) 0.75069(15)
C16 C 0.6379(3) -0.37127(18) 0.58677(15)
H11 H 0.4990 -0.3808 0.5954
C17 C 1.0526(3) -0.33880(19) 0.56148(14)
H12 H 1.1916 -0.3268 0.5527
C18 C 0.0531(3) -0.0007(2) 0.73823(17)
H13 H -0.0357 -0.0734 0.7026
H14 H 0.0021 0.0798 0.7303
H15 H 0.0563 -0.0143 0.7994
C19 C 0.6958(3) -0.35031(19) 0.50410(15)
H16 H 0.5973 -0.3465 0.4575
C20 C 0.4968(3) 0.15555(19) 0.76569(17)
H17 H 0.5109 0.1459 0.8275
H18 H 0.4424 0.2349 0.7575
H19 H 0.6293 0.1606 0.7438
C21 C 0.3160(5) 0.0162(3) 0.58374(18)
H20 H 0.4550 0.0270 0.5685
H21 H 0.2528 0.0892 0.5678
H22 H 0.2391 -0.0647 0.5525
loop_
_geom_bond_atom_site_label_1
_geom_bond_atom_site_label_2
_geom_bond_site_symmetry_1
_geom_bond_site_symmetry_2
Si1 C6 1_555 1_555
N1 H1 1_555 1_555
O1 C14 1_555 1_555
O2 C9 1_555 1_555
C1 C3 1_555 1_555
C2 N1 1_555 1_555
H2 C2 1_555 1_555
O3 N2 1_555 1_555
N2 O4 1_555 1_555
C3 C2 1_555 1_555
C4 H3 1_555 1_555
C5 H4 1_555 1_555
C6 C15 1_555 1_555
C7 C1 1_555 1_555
H5 C7 1_555 1_555
C8 C5 1_555 1_555
H6 C8 1_555 1_555
C9 C4 1_555 1_555
C10 C4 1_555 1_555
H7 C10 1_555 1_555
C11 N1 1_555 1_555
C12 O2 1_555 1_555
H8 C12 1_555 1_555
H9 C12 1_555 1_555
H10 C12 1_555 1_555
C13 N2 1_555 1_555
C14 C3 1_555 1_555
C15 C14 1_555 1_555
C16 C1 1_555 1_555
H11 C16 1_555 1_555
C17 C7 1_555 1_555
H12 C17 1_555 1_555
C18 Si1 1_555 1_555
H13 C18 1_555 1_555
H14 C18 1_555 1_555
H15 C18 1_555 1_555
C19 C13 1_555 1_555
H16 C19 1_555 1_555
C20 Si1 1_555 1_555
H17 C20 1_555 1_555
H18 C20 1_555 1_555
H19 C20 1_555 1_555
C21 Si1 1_555 1_555
H20 C21 1_555 1_555
H21 C21 1_555 1_555
H22 C21 1_555 1_555
C5 C11 1_555 1_555
C8 C9 1_555 1_555
C10 C11 1_555 1_555
C13 C17 1_555 1_555
C16 C19 1_555 1_555

#END
