
#######################################################################
#
#                 Cambridge Crystallographic Data Centre
#                                CCDC 
#
#######################################################################
#
# If this CIF has been generated from an entry in the Cambridge 
# Structural Database, then it will include bibliographic, chemical, 
# crystal, experimental, refinement or atomic coordinate data resulting 
# from the CCDC's data processing and validation procedures.
#
#######################################################################

data_IPALUI
_chemical_formula_moiety         'C19 H20 N2 O4 Si1'
_chemical_name_systematic        
(E)-1-(2-furylmethyl)-4-(4-nitrophenyl)-2-((trimethylsilyl)methylene)-1,2-dihydro-3H-pyrrol-3-one
_symmetry_cell_setting           orthorhombic
_symmetry_space_group_name_H-M   'P b c a'
_symmetry_Int_Tables_number      61
_space_group_name_Hall           '-P 2ac 2ab'
loop_
_symmetry_equiv_pos_site_id
_symmetry_equiv_pos_as_xyz
1 x,y,z
2 1/2-x,-y,1/2+z
3 1/2+x,1/2-y,-z
4 -x,1/2+y,1/2-z
5 -x,-y,-z
6 1/2+x,y,1/2-z
7 1/2-x,1/2+y,z
8 x,1/2-y,1/2+z
_cell_length_a                   10.7185(10)
_cell_length_b                   16.4457(17)
_cell_length_c                   21.179(2)
_cell_angle_alpha                90
_cell_angle_beta                 90
_cell_angle_gamma                90
_cell_volume                     3733.29
_exptl_crystal_colour            red
_chemical_melting_point          '390-391 K'
_cell_formula_units_Z            8
loop_
_atom_site_label
_atom_site_type_symbol
_atom_site_fract_x
_atom_site_fract_y
_atom_site_fract_z
Si1 Si 0.44041(4) 0.38564(3) 0.68010(2)
O1 O 0.21990(10) 0.49669(7) 0.64280(5)
O2 O -0.11339(10) 0.21388(7) 0.65719(6)
O3 O -0.35912(11) 0.70545(8) 0.50040(6)
O4 O -0.21291(12) 0.78446(7) 0.53660(6)
N1 N 0.09499(12) 0.30686(8) 0.60220(6)
N2 N -0.25664(13) 0.71622(9) 0.52621(6)
C1 C 0.15651(14) 0.43938(9) 0.62329(7)
C2 C 0.19591(14) 0.35154(9) 0.62800(7)
C3 C 0.30487(14) 0.32308(10) 0.65019(7)
H1 H 0.3146 0.2669 0.6509
C4 C -0.04257(14) 0.50980(10) 0.57774(7)
C5 C -0.18404(15) 0.64509(10) 0.54484(8)
C6 C 0.00722(14) 0.18522(10) 0.65365(8)
C7 C 0.08325(15) 0.21825(9) 0.60055(8)
H2 H 0.1659 0.1943 0.6021
H3 H 0.0452 0.2024 0.5609
C8 C 0.03338(14) 0.43926(10) 0.59343(7)
C9 C 0.00392(14) 0.35912(10) 0.58343(7)
H4 H -0.0710 0.3422 0.5656
C10 C 0.00737(15) 0.58858(10) 0.58270(7)
H5 H 0.0887 0.5954 0.5970
C11 C 0.02743(16) 0.12932(10) 0.69888(8)
H6 H 0.1012 0.1011 0.7062
C12 C 0.50156(15) 0.45229(11) 0.61579(8)
H7 H 0.5253 0.4194 0.5803
H8 H 0.5729 0.4818 0.6309
H9 H 0.4379 0.4900 0.6031
C13 C -0.16641(15) 0.50150(10) 0.55590(8)
H10 H -0.2013 0.4499 0.5527
C14 C -0.23694(15) 0.56861(10) 0.53910(8)
H11 H -0.3181 0.5625 0.5243
C15 C -0.06273(15) 0.65610(10) 0.56656(8)
H12 H -0.0292 0.7081 0.5702
C16 C 0.39350(17) 0.43541(11) 0.75572(8)
H13 H 0.3222 0.4695 0.7485
H14 H 0.4613 0.4679 0.7712
H15 H 0.3729 0.3945 0.7863
C17 C -0.08707(17) 0.12158(10) 0.73365(8)
H16 H -0.1022 0.0873 0.7677
C18 C -0.16774(16) 0.17370(11) 0.70718(9)
H17 H -0.2494 0.1817 0.7207
C19 C 0.56867(16) 0.31259(11) 0.69923(9)
H18 H 0.5371 0.2705 0.7263
H19 H 0.6350 0.3409 0.7203
H20 H 0.5998 0.2888 0.6609
loop_
_geom_bond_atom_site_label_1
_geom_bond_atom_site_label_2
_geom_bond_site_symmetry_1
_geom_bond_site_symmetry_2
Si1 C3 1_555 1_555
O1 C1 1_555 1_555
O2 C6 1_555 1_555
O3 N2 1_555 1_555
O4 N2 1_555 1_555
N1 C2 1_555 1_555
N2 C5 1_555 1_555
C1 C2 1_555 1_555
C2 C3 1_555 1_555
C3 H1 1_555 1_555
C4 C8 1_555 1_555
C5 C14 1_555 1_555
C6 C7 1_555 1_555
C7 N1 1_555 1_555
H2 C7 1_555 1_555
H3 C7 1_555 1_555
C8 C1 1_555 1_555
C9 N1 1_555 1_555
H4 C9 1_555 1_555
C10 C4 1_555 1_555
H5 C10 1_555 1_555
C11 C6 1_555 1_555
H6 C11 1_555 1_555
C12 Si1 1_555 1_555
H7 C12 1_555 1_555
H8 C12 1_555 1_555
H9 C12 1_555 1_555
C13 C4 1_555 1_555
H10 C13 1_555 1_555
C14 C13 1_555 1_555
H11 C14 1_555 1_555
C15 C5 1_555 1_555
H12 C15 1_555 1_555
C16 Si1 1_555 1_555
H13 C16 1_555 1_555
H14 C16 1_555 1_555
H15 C16 1_555 1_555
C17 C11 1_555 1_555
H16 C17 1_555 1_555
C18 O2 1_555 1_555
H17 C18 1_555 1_555
C19 Si1 1_555 1_555
H18 C19 1_555 1_555
H19 C19 1_555 1_555
H20 C19 1_555 1_555
C8 C9 1_555 1_555
C10 C15 1_555 1_555
C17 C18 1_555 1_555

#END
