
#######################################################################
#
#                 Cambridge Crystallographic Data Centre
#                                CCDC 
#
#######################################################################
#
# If this CIF has been generated from an entry in the Cambridge 
# Structural Database, then it will include bibliographic, chemical, 
# crystal, experimental, refinement or atomic coordinate data resulting 
# from the CCDC's data processing and validation procedures.
#
#######################################################################

data_IPAMUH01
_chemical_formula_moiety         'C16 H20 N2 O2'
_chemical_name_systematic        4,4'-(p-Phenylenediimino)dipent-3-en-2-one
_symmetry_cell_setting           orthorhombic
_symmetry_space_group_name_H-M   'P b c n'
_symmetry_Int_Tables_number      60
_space_group_name_Hall           '-P 2n 2ab'
loop_
_symmetry_equiv_pos_site_id
_symmetry_equiv_pos_as_xyz
1 x,y,z
2 1/2-x,1/2-y,1/2+z
3 -x,y,1/2-z
4 1/2+x,1/2-y,-z
5 -x,-y,-z
6 1/2+x,1/2+y,1/2-z
7 x,-y,1/2+z
8 1/2-x,1/2+y,z
_cell_length_a                   10.675(2)
_cell_length_b                   8.8373(18)
_cell_length_c                   14.995(3)
_cell_angle_alpha                90
_cell_angle_beta                 90
_cell_angle_gamma                90
_cell_volume                     1414.6
_exptl_crystal_colour            colorless
_exptl_crystal_description       block
_cell_formula_units_Z            4
_exptl_crystal_recrystallization_method ethanol
loop_
_atom_site_label
_atom_site_type_symbol
_atom_site_fract_x
_atom_site_fract_y
_atom_site_fract_z
O1 O 0.53222(9) 0.34729(11) 0.41410(6)
N1 N 0.56091(10) 0.19379(11) 0.56670(7)
C1 C 0.67529(12) 0.30665(15) 0.29393(8)
H1 H 0.6074 0.3331 0.2549
H2 H 0.7172 0.2186 0.2712
H3 H 0.7334 0.3893 0.2972
C2 C 0.62440(11) 0.27335(14) 0.38626(8)
C3 C 0.68631(12) 0.15931(14) 0.43742(8)
H4 H 0.7516 0.1067 0.4105
C4 C 0.65573(11) 0.12185(13) 0.52417(8)
C5 C 0.73048(12) 0.00274(15) 0.57165(8)
H5 H 0.7448 0.0337 0.6322
H6 H 0.8094 -0.0107 0.5420
H7 H 0.6851 -0.0910 0.5712
C6 C 0.53065(11) 0.18780(13) 0.65904(8)
C7 C 0.51441(11) 0.05151(13) 0.70470(8)
H8 H 0.5229 -0.0398 0.6745
C8 C 0.51516(11) 0.32417(13) 0.70475(8)
H9 H 0.5251 0.4155 0.6747
H10 H 0.5266(16) 0.271(2) 0.5333(11)
O1B O 0.46778(9) 0.34729(11) 1.08590(6)
N1B N 0.43909(10) 0.19379(11) 0.93330(7)
C1B C 0.32471(12) 0.30665(15) 1.20607(8)
H1B H 0.3926 0.3331 1.2451
H2B H 0.2828 0.2186 1.2288
H3B H 0.2666 0.3893 1.2028
C2B C 0.37560(11) 0.27335(14) 1.11374(8)
C3B C 0.31369(12) 0.15931(14) 1.06258(8)
H4B H 0.2484 0.1067 1.0895
C4B C 0.34427(11) 0.12185(13) 0.97583(8)
C5B C 0.26952(12) 0.00274(15) 0.92835(8)
H5B H 0.2552 0.0337 0.8678
H6B H 0.1906 -0.0107 0.9580
H7B H 0.3149 -0.0910 0.9288
C6B C 0.46935(11) 0.18780(13) 0.84096(8)
C7B C 0.48559(11) 0.05151(13) 0.79530(8)
H8B H 0.4771 -0.0398 0.8255
C8B C 0.48484(11) 0.32417(13) 0.79525(8)
H9B H 0.4749 0.4155 0.8253
H10B H 0.4734(16) 0.271(2) 0.9667(11)
loop_
_geom_bond_atom_site_label_1
_geom_bond_atom_site_label_2
_geom_bond_site_symmetry_1
_geom_bond_site_symmetry_2
O1 C2 1_555 1_555
N1 C4 1_555 1_555
C1 H1 1_555 1_555
H2 C1 1_555 1_555
H3 C1 1_555 1_555
C2 C1 1_555 1_555
C3 C2 1_555 1_555
H4 C3 1_555 1_555
C4 C3 1_555 1_555
C5 C4 1_555 1_555
H5 C5 1_555 1_555
H6 C5 1_555 1_555
H7 C5 1_555 1_555
C6 N1 1_555 1_555
C7 C6 1_555 1_555
H8 C7 1_555 1_555
C8 C6 1_555 1_555
H9 C8 1_555 1_555
H10 N1 1_555 1_555
O1B C2B 1_555 1_555
N1B C4B 1_555 1_555
C1B H1B 1_555 1_555
H2B C1B 1_555 1_555
H3B C1B 1_555 1_555
C2B C1B 1_555 1_555
C3B C2B 1_555 1_555
H4B C3B 1_555 1_555
C4B C3B 1_555 1_555
C5B C4B 1_555 1_555
H5B C5B 1_555 1_555
H6B C5B 1_555 1_555
H7B C5B 1_555 1_555
C6B N1B 1_555 1_555
C7B C7 1_555 1_555
H8B C7B 1_555 1_555
C8B C8 1_555 1_555
H9B C8B 1_555 1_555
H10B N1B 1_555 1_555
C6B C7B 1_555 1_555
C6B C8B 1_555 1_555

#END
