
#######################################################################
#
#                 Cambridge Crystallographic Data Centre
#                                CCDC 
#
#######################################################################
#
# If this CIF has been generated from an entry in the Cambridge 
# Structural Database, then it will include bibliographic, chemical, 
# crystal, experimental, refinement or atomic coordinate data resulting 
# from the CCDC's data processing and validation procedures.
#
#######################################################################

data_IPARAT
_chemical_compound_source        'leaves of Neolitsea hiiranensis'
_chemical_name_common            '(+)-Villosine monohydrate'
_chemical_formula_moiety         'C15 H16 O7,H2 O1'
_chemical_name_systematic        
'8-Hydroxy-6,11-dimethyl-5,9,15,17-tetraoxapentacyclo[11.2.2.0^1,14^.0^4,6^.0^8,12^]heptadec-11-ene-10,16-dione monohydrate'
_chemical_properties_biological  'no anti-inflammatory effects detected'
_symmetry_cell_setting           orthorhombic
_symmetry_space_group_name_H-M   'P 21 21 21'
_symmetry_Int_Tables_number      19
_space_group_name_Hall           'P 2ac 2ab'
loop_
_symmetry_equiv_pos_site_id
_symmetry_equiv_pos_as_xyz
1 x,y,z
2 1/2-x,-y,1/2+z
3 1/2+x,1/2-y,-z
4 -x,1/2+y,1/2-z
_cell_length_a                   6.7218(2)
_cell_length_b                   7.9533(2)
_cell_length_c                   27.3969(8)
_cell_angle_alpha                90
_cell_angle_beta                 90
_cell_angle_gamma                90
_cell_volume                     1464.65
_exptl_crystal_colour            colorless
_exptl_crystal_description       cubic
_cell_formula_units_Z            4
loop_
_atom_site_label
_atom_site_type_symbol
_atom_site_fract_x
_atom_site_fract_y
_atom_site_fract_z
O1 O 0.80060(17) 1.37072(12) 0.59007(4)
O2 O 0.67409(18) 0.72439(13) 0.52612(4)
O3 O 0.64724(14) 0.99735(13) 0.70541(3)
H1 H 0.6217 0.9000 0.7130
O4 O 1.25342(16) 0.84564(13) 0.73516(4)
O5 O 0.98730(15) 1.00039(13) 0.71797(3)
O6 O 0.53232(15) 0.82615(13) 0.61706(4)
O7 O 0.30440(16) 0.96029(13) 0.57227(4)
C1 C 0.7145(2) 1.23077(17) 0.61766(5)
C2 C 0.7779(2) 1.21094(17) 0.56598(5)
H2 H 0.9021 1.1483 0.5616
C3 C 0.6398(2) 1.20556(19) 0.52273(5)
H3 H 0.6811 1.2886 0.4989
H4 H 0.5058 1.2331 0.5332
C4 C 0.6413(2) 1.02988(19) 0.49922(5)
H5 H 0.5287 1.0187 0.4773
H6 H 0.7621 1.0154 0.4803
C5 C 0.6305(2) 0.89814(18) 0.53785(5)
C6 C 0.7973(2) 0.81084(18) 0.56121(5)
H7 H 0.9350 0.8408 0.5533
C7 C 0.7383(2) 0.76857(17) 0.61293(5)
H8 H 0.7398 0.6460 0.6165
C8 C 0.8688(2) 0.84307(17) 0.65203(5)
C9 C 0.8261(2) 1.00243(18) 0.68132(5)
C10 C 0.8584(2) 1.17342(17) 0.65658(5)
H9 H 0.8593 1.2583 0.6820
H10 H 0.9902 1.1724 0.6422
C11 C 1.0320(2) 0.76768(17) 0.66876(5)
C12 C 1.1084(2) 0.86896(18) 0.70994(5)
C13 C 1.1311(2) 0.60729(18) 0.65490(5)
H11 H 1.0596 0.5559 0.6285
H12 H 1.1324 0.5326 0.6824
H13 H 1.2653 0.6299 0.6448
C14 C 0.5035(2) 1.2635(2) 0.63325(6)
H14 H 0.4287 1.3053 0.6060
H15 H 0.5024 1.3452 0.6590
H16 H 0.4448 1.1607 0.6447
C15 C 0.4679(2) 0.90141(18) 0.57554(5)
O8 O 0.5995(2) 0.65806(15) 0.72008(4)
H17 H 0.672(3) 0.581(3) 0.7348(8)
H18 H 0.488(4) 0.653(3) 0.7337(8)
loop_
_geom_bond_atom_site_label_1
_geom_bond_atom_site_label_2
_geom_bond_site_symmetry_1
_geom_bond_site_symmetry_2
O1 C1 1_555 1_555
O2 C5 1_555 1_555
O3 H1 1_555 1_555
O4 C12 1_555 1_555
O5 C9 1_555 1_555
O6 C7 1_555 1_555
O7 C15 1_555 1_555
C1 C2 1_555 1_555
C2 O1 1_555 1_555
H2 C2 1_555 1_555
C3 C2 1_555 1_555
H3 C3 1_555 1_555
H4 C3 1_555 1_555
C4 C3 1_555 1_555
H5 C4 1_555 1_555
H6 C4 1_555 1_555
C5 C4 1_555 1_555
C6 O2 1_555 1_555
H7 C6 1_555 1_555
C7 C6 1_555 1_555
H8 C7 1_555 1_555
C8 C7 1_555 1_555
C9 O3 1_555 1_555
C10 C1 1_555 1_555
H9 C10 1_555 1_555
H10 C10 1_555 1_555
C11 C8 1_555 1_555
C12 O5 1_555 1_555
C13 C11 1_555 1_555
H11 C13 1_555 1_555
H12 C13 1_555 1_555
H13 C13 1_555 1_555
C14 C1 1_555 1_555
H14 C14 1_555 1_555
H15 C14 1_555 1_555
H16 C14 1_555 1_555
C15 O6 1_555 1_555
O8 H17 1_555 1_555
H18 O8 1_555 1_555
C5 C6 1_555 1_555
C5 C15 1_555 1_555
C8 C9 1_555 1_555
C9 C10 1_555 1_555
C11 C12 1_555 1_555

#END
