
#######################################################################
#
#                 Cambridge Crystallographic Data Centre
#                                CCDC 
#
#######################################################################
#
# If this CIF has been generated from an entry in the Cambridge 
# Structural Database, then it will include bibliographic, chemical, 
# crystal, experimental, refinement or atomic coordinate data resulting 
# from the CCDC's data processing and validation procedures.
#
#######################################################################

data_IPEJOC
_chemical_formula_moiety         'C64 H108 Ba2 N8 O8'
_chemical_name_systematic        
bis(\m~2~-2,2,6,6-Tetramethylheptane-3,5-dionato-O,O,O')-bis(2,2,6,6-tetramethylheptane-3,5-dionato)-tetrakis(3,5-dimethylpyrazole)-di-barium
_symmetry_cell_setting           monoclinic
_symmetry_space_group_name_H-M   'P 21/n'
_symmetry_Int_Tables_number      14
_space_group_name_Hall           '-P 2yn'
loop_
_symmetry_equiv_pos_site_id
_symmetry_equiv_pos_as_xyz
1 x,y,z
2 1/2+x,1/2-y,1/2+z
3 -x,-y,-z
4 1/2-x,1/2+y,1/2-z
_cell_length_a                   14.104(3)
_cell_length_b                   13.118(3)
_cell_length_c                   19.832(4)
_cell_angle_alpha                90
_cell_angle_beta                 95.33(3)
_cell_angle_gamma                90
_cell_volume                     3653.38
_exptl_crystal_colour            colorless
_exptl_crystal_description       block
_chemical_melting_point          153-155deg.C
_cell_formula_units_Z            2
loop_
_atom_site_label
_atom_site_type_symbol
_atom_site_fract_x
_atom_site_fract_y
_atom_site_fract_z
Ba1 Ba 0.967383(6) 0.075668(7) 0.081612(5)
O1 O 1.13810(8) 0.00806(9) 0.02632(7)
O2 O 1.00219(9) -0.13535(9) 0.06209(7)
O3 O 1.00331(10) 0.08355(11) 0.21326(8)
O4 O 0.81870(9) 0.02551(11) 0.15183(7)
N1 N 0.82944(13) 0.24090(14) 0.07388(10)
N2 N 0.74393(13) 0.19899(15) 0.08424(11)
H1 H 0.7376 0.1384 0.1024
N3 N 1.09170(12) 0.24926(13) 0.07921(10)
N4 N 1.13593(13) 0.25300(13) 0.02167(10)
H2 H 1.1203 0.2146 -0.0140
C1 C 1.32574(16) 0.0491(2) 0.02194(16)
H3 H 1.3935 0.0669 0.0285
H4 H 1.2880 0.1110 0.0125
H5 H 1.3149 0.0019 -0.0163
C2 C 1.29588(13) -0.00160(16) 0.08600(12)
C3 C 1.18975(12) -0.03403(14) 0.07425(10)
C4 C 1.15600(15) -0.10669(18) 0.11799(12)
H6 H 1.1973 -0.1249 0.1567
C5 C 1.06684(13) -0.15502(14) 0.10993(10)
C6 C 1.36092(16) -0.0937(2) 0.10242(16)
H7 H 1.3477 -0.1462 0.0677
H8 H 1.3490 -0.1214 0.1468
H9 H 1.4276 -0.0724 0.1033
C7 C 1.3058(2) 0.0734(2) 0.14551(19)
H10 H 1.3723 0.0955 0.1536
H11 H 1.2865 0.0399 0.1862
H12 H 1.2650 0.1328 0.1348
C8 C 1.13469(15) 0.0903(2) 0.32117(14)
H13 H 1.1730 0.1040 0.3640
H14 H 1.1407 0.1474 0.2900
H15 H 1.1573 0.0276 0.3010
C9 C 1.02983(14) 0.07750(14) 0.33456(11)
C10 C 0.96775(13) 0.05963(13) 0.26624(10)
C11 C 0.87485(14) 0.01982(17) 0.26870(11)
H16 H 0.8565 0.0020 0.3121
C12 C 0.80680(13) 0.00400(16) 0.21271(11)
C13 C 0.99534(19) 0.1758(2) 0.36523(15)
H17 H 0.9288 0.1678 0.3747
H18 H 1.0005 0.2320 0.3333
H19 H 1.0346 0.1906 0.4075
C14 C 1.02287(19) -0.0108(2) 0.38436(13)
H20 H 1.0679 0.0003 0.4243
H21 H 1.0382 -0.0749 0.3625
H22 H 0.9580 -0.0144 0.3981
C15 C 0.80819(19) 0.33191(17) 0.04617(13)
C16 C 0.7085(2) 0.3460(2) 0.03917(14)
H23 H 0.6752 0.4042 0.0209
C17 C 0.66927(17) 0.2603(2) 0.06362(14)
C18 C 0.8850(3) 0.4040(2) 0.03100(18)
H24 H 0.8962 0.4529 0.0682
H25 H 0.8656 0.4406 -0.0111
H26 H 0.9436 0.3658 0.0259
C19 C 0.56850(19) 0.2301(3) 0.06993(19)
H27 H 0.5559 0.2323 0.1177
H28 H 0.5578 0.1608 0.0524
H29 H 0.5256 0.2775 0.0439
C20 C 1.13491(15) 0.31941(15) 0.12003(12)
C21 C 1.20804(17) 0.36681(16) 0.08767(13)
H30 H 1.2497 0.4190 0.1056
C22 C 1.20699(15) 0.32248(15) 0.02525(13)
C23 C 1.1040(2) 0.3380(2) 0.18879(15)
H31 H 1.0738 0.4052 0.1899
H32 H 1.1595 0.3357 0.2224
H33 H 1.0583 0.2854 0.1993
C24 C 1.2677(2) 0.3389(2) -0.03180(17)
H34 H 1.2816 0.2731 -0.0521
H35 H 1.3275 0.3718 -0.0145
H36 H 1.2338 0.3826 -0.0661
C25 C 1.04543(15) -0.23811(16) 0.16195(12)
C26 C 0.9420(4) -0.2140(4) 0.1813(3)
H37 H 0.8972 -0.2163 0.1405
H38 H 0.9409 -0.1460 0.2016
H39 H 0.9236 -0.2648 0.2139
C27 C 1.0527(5) -0.3374(4) 0.1339(4)
H40 H 1.0073 -0.3440 0.0936
H41 H 1.0383 -0.3886 0.1675
H42 H 1.1175 -0.3481 0.1213
C28 C 1.1101(5) -0.2264(6) 0.2310(3)
H43 H 1.0861 -0.2710 0.2652
H44 H 1.1085 -0.1555 0.2463
H45 H 1.1757 -0.2455 0.2242
C29 C 0.7083(6) -0.0432(10) 0.2258(6)
C30 C 0.6669(9) 0.0040(11) 0.2786(8)
H46 H 0.6637 0.0777 0.2705
H47 H 0.7054 -0.0095 0.3213
H48 H 0.6025 -0.0228 0.2811
C31 C 0.6467(4) -0.0633(6) 0.1611(4)
H49 H 0.5910 -0.1034 0.1710
H50 H 0.6833 -0.1013 0.1298
H51 H 0.6256 0.0016 0.1404
C32 C 0.7316(4) -0.1635(4) 0.2526(4)
H52 H 0.7769 -0.1621 0.2931
H53 H 0.7591 -0.2021 0.2168
H54 H 0.6724 -0.1963 0.2633
Ba1B Ba 1.032617(6) -0.075668(7) -0.081612(5)
O1B O 0.86190(8) -0.00806(9) -0.02632(7)
O2B O 0.99781(9) 0.13535(9) -0.06209(7)
C5B C 0.93316(13) 0.15502(14) -0.10993(10)
C4B C 0.84400(15) 0.10669(18) -0.11799(12)
C3B C 0.81025(12) 0.03403(14) -0.07425(10)
C2B C 0.70412(13) 0.00160(16) -0.08600(12)
C1B C 0.67426(16) -0.0491(2) -0.02194(16)
H3B H 0.6065 -0.0669 -0.0285
H4B H 0.7120 -0.1110 -0.0125
H5B H 0.6851 -0.0019 0.0163
C6B C 0.63908(16) 0.0937(2) -0.10242(16)
H7B H 0.6523 0.1462 -0.0677
H8B H 0.6510 0.1214 -0.1468
H9B H 0.5724 0.0724 -0.1033
C7B C 0.6942(2) -0.0734(2) -0.14551(19)
H10B H 0.6277 -0.0955 -0.1536
H11B H 0.7135 -0.0399 -0.1862
H12B H 0.7350 -0.1328 -0.1348
H6B H 0.8027 0.1249 -0.1567
C25B C 0.95457(15) 0.23811(16) -0.16195(12)
C26B C 1.0580(4) 0.2140(4) -0.1813(3)
H37B H 1.1028 0.2163 -0.1405
H38B H 1.0591 0.1460 -0.2016
H39B H 1.0764 0.2648 -0.2139
C27B C 0.9473(5) 0.3374(4) -0.1339(4)
H40B H 0.9927 0.3440 -0.0936
H41B H 0.9617 0.3886 -0.1675
H42B H 0.8825 0.3481 -0.1213
C28B C 0.8899(5) 0.2264(6) -0.2310(3)
H43B H 0.9139 0.2710 -0.2652
H44B H 0.8915 0.1555 -0.2463
H45B H 0.8243 0.2455 -0.2242
O3B O 0.99669(10) -0.08355(11) -0.21326(8)
C10B C 1.03225(13) -0.05963(13) -0.26624(10)
C9B C 0.97017(14) -0.07750(14) -0.33456(11)
C8B C 0.86531(15) -0.0903(2) -0.32117(14)
H13B H 0.8270 -0.1040 -0.3640
H14B H 0.8593 -0.1474 -0.2900
H15B H 0.8427 -0.0276 -0.3010
C13B C 1.00466(19) -0.1758(2) -0.36523(15)
H17B H 1.0712 -0.1678 -0.3747
H18B H 0.9995 -0.2320 -0.3333
H19B H 0.9654 -0.1906 -0.4075
C14B C 0.97713(19) 0.0108(2) -0.38436(13)
H20B H 0.9321 -0.0003 -0.4243
H21B H 0.9618 0.0749 -0.3625
H22B H 1.0420 0.0144 -0.3981
C11B C 1.12515(14) -0.01982(17) -0.26870(11)
H16B H 1.1435 -0.0020 -0.3121
C12B C 1.19320(13) -0.00400(16) -0.21271(11)
O4B O 1.18130(9) -0.02551(11) -0.15183(7)
N1B N 1.17056(13) -0.24090(14) -0.07388(10)
N2B N 1.25607(13) -0.19899(15) -0.08424(11)
H1B H 1.2624 -0.1384 -0.1024
C17B C 1.33073(17) -0.2603(2) -0.06362(14)
C16B C 1.2915(2) -0.3460(2) -0.03917(14)
C15B C 1.19181(19) -0.33191(17) -0.04617(13)
C18B C 1.1150(3) -0.4040(2) -0.03100(18)
H24B H 1.1038 -0.4529 -0.0682
H25B H 1.1344 -0.4406 0.0111
H26B H 1.0564 -0.3658 -0.0259
H23B H 1.3248 -0.4042 -0.0209
C19B C 1.43150(19) -0.2301(3) -0.06993(19)
H27B H 1.4441 -0.2323 -0.1177
H28B H 1.4422 -0.1608 -0.0524
H29B H 1.4744 -0.2775 -0.0439
N3B N 0.90830(12) -0.24926(13) -0.07921(10)
N4B N 0.86407(13) -0.25300(13) -0.02167(10)
H2B H 0.8797 -0.2146 0.0140
C22B C 0.79301(15) -0.32248(15) -0.02525(13)
C21B C 0.79196(17) -0.36681(16) -0.08767(13)
C20B C 0.86509(15) -0.31941(15) -0.12003(12)
C23B C 0.8960(2) -0.3380(2) -0.18879(15)
H31B H 0.9262 -0.4052 -0.1899
H32B H 0.8405 -0.3357 -0.2224
H33B H 0.9417 -0.2854 -0.1993
H30B H 0.7503 -0.4190 -0.1056
C24B C 0.7323(2) -0.3389(2) 0.03180(17)
H34B H 0.7184 -0.2731 0.0521
H35B H 0.6725 -0.3718 0.0145
H36B H 0.7662 -0.3826 0.0661
C29B C 1.2917(6) 0.0432(10) -0.2258(6)
C30B C 1.3331(9) -0.0040(11) -0.2786(8)
H46B H 1.3363 -0.0777 -0.2705
H47B H 1.2946 0.0095 -0.3213
H48B H 1.3975 0.0228 -0.2811
C31B C 1.3533(4) 0.0633(6) -0.1611(4)
H49B H 1.4090 0.1034 -0.1710
H50B H 1.3167 0.1013 -0.1298
H51B H 1.3744 -0.0016 -0.1404
C32B C 1.2684(4) 0.1635(4) -0.2526(4)
H52B H 1.2231 0.1621 -0.2931
H53B H 1.2409 0.2021 -0.2168
H54B H 1.3276 0.1963 -0.2633
C33? C 1.04543(15) -0.23811(16) 0.16195(12)
C34? C 1.1270(4) -0.3234(4) 0.1639(3)
H55? H 1.1872 -0.2945 0.1840
H56? H 1.1346 -0.3465 0.1178
H57? H 1.1091 -0.3813 0.1913
C35? C 1.0418(5) -0.1954(4) 0.2291(3)
H58? H 1.1020 -0.1606 0.2430
H59? H 1.0317 -0.2502 0.2613
H60? H 0.9892 -0.1464 0.2285
C36? C 0.9509(4) -0.2977(5) 0.1362(3)
H61? H 0.9384 -0.3507 0.1690
H62? H 0.9587 -0.3292 0.0923
H63? H 0.8973 -0.2499 0.1315
C37? C 0.7126(10) -0.0480(11) 0.2263(9)
C38? C 0.6279(3) 0.0353(8) 0.1881(4)
H64? H 0.6348 0.0391 0.1395
H65? H 0.6371 0.1032 0.2083
H66? H 0.5639 0.0106 0.1952
C39? C 0.6984(7) -0.1341(7) 0.1880(6)
H67? H 0.7561 -0.1761 0.1928
H68? H 0.6840 -0.1151 0.1403
H69? H 0.6450 -0.1729 0.2033
C40? C 0.6858(8) -0.0418(11) 0.2973(5)
H70? H 0.6198 -0.0645 0.2986
H71? H 0.6919 0.0289 0.3132
H72? H 0.7282 -0.0855 0.3266
loop_
_geom_bond_atom_site_label_1
_geom_bond_atom_site_label_2
_geom_bond_site_symmetry_1
_geom_bond_site_symmetry_2
Ba1 O1 1_555 1_555
O1 C3 1_555 1_555
O2 Ba1 1_555 1_555
O3 Ba1 1_555 1_555
O4 Ba1 1_555 1_555
N1 Ba1 1_555 1_555
N2 N1 1_555 1_555
H1 N2 1_555 1_555
N3 Ba1 1_555 1_555
N4 N3 1_555 1_555
H2 N4 1_555 1_555
C1 H3 1_555 1_555
H4 C1 1_555 1_555
H5 C1 1_555 1_555
C2 C1 1_555 1_555
C3 C2 1_555 1_555
C4 C3 1_555 1_555
H6 C4 1_555 1_555
C5 O2 1_555 1_555
C6 C2 1_555 1_555
H7 C6 1_555 1_555
H8 C6 1_555 1_555
H9 C6 1_555 1_555
C7 C2 1_555 1_555
H10 C7 1_555 1_555
H11 C7 1_555 1_555
H12 C7 1_555 1_555
C8 H13 1_555 1_555
H14 C8 1_555 1_555
H15 C8 1_555 1_555
C9 C8 1_555 1_555
C10 O3 1_555 1_555
C11 C10 1_555 1_555
H16 C11 1_555 1_555
C12 O4 1_555 1_555
C13 C9 1_555 1_555
H17 C13 1_555 1_555
H18 C13 1_555 1_555
H19 C13 1_555 1_555
C14 C9 1_555 1_555
H20 C14 1_555 1_555
H21 C14 1_555 1_555
H22 C14 1_555 1_555
C15 N1 1_555 1_555
C16 C15 1_555 1_555
H23 C16 1_555 1_555
C17 N2 1_555 1_555
C18 C15 1_555 1_555
H24 C18 1_555 1_555
H25 C18 1_555 1_555
H26 C18 1_555 1_555
C19 C17 1_555 1_555
H27 C19 1_555 1_555
H28 C19 1_555 1_555
H29 C19 1_555 1_555
C20 N3 1_555 1_555
C21 C20 1_555 1_555
H30 C21 1_555 1_555
C22 N4 1_555 1_555
C23 C20 1_555 1_555
H31 C23 1_555 1_555
H32 C23 1_555 1_555
H33 C23 1_555 1_555
C24 C22 1_555 1_555
H34 C24 1_555 1_555
H35 C24 1_555 1_555
H36 C24 1_555 1_555
C25 C5 1_555 1_555
C26 C25 1_555 1_555
H37 C26 1_555 1_555
H38 C26 1_555 1_555
H39 C26 1_555 1_555
C27 C25 1_555 1_555
H40 C27 1_555 1_555
H41 C27 1_555 1_555
H42 C27 1_555 1_555
C28 C25 1_555 1_555
H43 C28 1_555 1_555
H44 C28 1_555 1_555
H45 C28 1_555 1_555
C29 C12 1_555 1_555
C30 C29 1_555 1_555
H46 C30 1_555 1_555
H47 C30 1_555 1_555
H48 C30 1_555 1_555
C31 C29 1_555 1_555
H49 C31 1_555 1_555
H50 C31 1_555 1_555
H51 C31 1_555 1_555
C32 C29 1_555 1_555
H52 C32 1_555 1_555
H53 C32 1_555 1_555
H54 C32 1_555 1_555
Ba1B O1 1_555 1_555
O1B Ba1 1_555 1_555
O2B Ba1 1_555 1_555
C5B O2B 1_555 1_555
C4B C5B 1_555 1_555
C3B O1B 1_555 1_555
C2B C3B 1_555 1_555
C1B C2B 1_555 1_555
H3B C1B 1_555 1_555
H4B C1B 1_555 1_555
H5B C1B 1_555 1_555
C6B C2B 1_555 1_555
H7B C6B 1_555 1_555
H8B C6B 1_555 1_555
H9B C6B 1_555 1_555
C7B C2B 1_555 1_555
H10B C7B 1_555 1_555
H11B C7B 1_555 1_555
H12B C7B 1_555 1_555
H6B C4B 1_555 1_555
C25B C5B 1_555 1_555
C26B C25B 1_555 1_555
H37B C26B 1_555 1_555
H38B C26B 1_555 1_555
H39B C26B 1_555 1_555
C27B C25B 1_555 1_555
H40B C27B 1_555 1_555
H41B C27B 1_555 1_555
H42B C27B 1_555 1_555
C28B C25B 1_555 1_555
H43B C28B 1_555 1_555
H44B C28B 1_555 1_555
H45B C28B 1_555 1_555
O3B Ba1B 1_555 1_555
C10B O3B 1_555 1_555
C9B C10B 1_555 1_555
C8B C9B 1_555 1_555
H13B C8B 1_555 1_555
H14B C8B 1_555 1_555
H15B C8B 1_555 1_555
C13B C9B 1_555 1_555
H17B C13B 1_555 1_555
H18B C13B 1_555 1_555
H19B C13B 1_555 1_555
C14B C9B 1_555 1_555
H20B C14B 1_555 1_555
H21B C14B 1_555 1_555
H22B C14B 1_555 1_555
C11B C10B 1_555 1_555
H16B C11B 1_555 1_555
C12B C11B 1_555 1_555
O4B Ba1B 1_555 1_555
N1B Ba1B 1_555 1_555
N2B N1B 1_555 1_555
H1B N2B 1_555 1_555
C17B N2B 1_555 1_555
C16B C17B 1_555 1_555
C15B N1B 1_555 1_555
C18B C15B 1_555 1_555
H24B C18B 1_555 1_555
H25B C18B 1_555 1_555
H26B C18B 1_555 1_555
H23B C16B 1_555 1_555
C19B C17B 1_555 1_555
H27B C19B 1_555 1_555
H28B C19B 1_555 1_555
H29B C19B 1_555 1_555
N3B Ba1B 1_555 1_555
N4B N3B 1_555 1_555
H2B N4B 1_555 1_555
C22B N4B 1_555 1_555
C21B C22B 1_555 1_555
C20B N3B 1_555 1_555
C23B C20B 1_555 1_555
H31B C23B 1_555 1_555
H32B C23B 1_555 1_555
H33B C23B 1_555 1_555
H30B C21B 1_555 1_555
C24B C22B 1_555 1_555
H34B C24B 1_555 1_555
H35B C24B 1_555 1_555
H36B C24B 1_555 1_555
C29B C12B 1_555 1_555
C30B C29B 1_555 1_555
H46B C30B 1_555 1_555
H47B C30B 1_555 1_555
H48B C30B 1_555 1_555
C31B C29B 1_555 1_555
H49B C31B 1_555 1_555
H50B C31B 1_555 1_555
H51B C31B 1_555 1_555
C32B C29B 1_555 1_555
H52B C32B 1_555 1_555
H53B C32B 1_555 1_555
H54B C32B 1_555 1_555
O2 Ba1B 1_555 1_555
C4 C5 1_555 1_555
C9 C10 1_555 1_555
C11 C12 1_555 1_555
C16 C17 1_555 1_555
C21 C22 1_555 1_555
Ba1B O1B 1_555 1_555
Ba1B O2B 1_555 1_555
C4B C3B 1_555 1_555
C12B O4B 1_555 1_555
C16B C15B 1_555 1_555
C21B C20B 1_555 1_555

#END
