
#######################################################################
#
#                 Cambridge Crystallographic Data Centre
#                                CCDC 
#
#######################################################################
#
# If this CIF has been generated from an entry in the Cambridge 
# Structural Database, then it will include bibliographic, chemical, 
# crystal, experimental, refinement or atomic coordinate data resulting 
# from the CCDC's data processing and validation procedures.
#
#######################################################################

data_IPEJES
_chemical_formula_moiety         'C56 H92 Ba2 N8 O8'
_chemical_name_systematic        
bis(\m~2~-2,2,6,6-Tetramethylheptane-3,5-dionato-O,O,O')-bis(2,2,6,6-tetramethylheptane-3,5-dionato)-tetrakis(pyrazole)-di-barium
_symmetry_cell_setting           triclinic
_symmetry_space_group_name_H-M   'P -1'
_symmetry_Int_Tables_number      2
_space_group_name_Hall           '-P 1'
loop_
_symmetry_equiv_pos_site_id
_symmetry_equiv_pos_as_xyz
1 x,y,z
2 -x,-y,-z
_cell_length_a                   11.356(2)
_cell_length_b                   13.474(3)
_cell_length_c                   13.566(3)
_cell_angle_alpha                118.81(3)
_cell_angle_beta                 108.09(3)
_cell_angle_gamma                97.08(3)
_cell_volume                     1633.48
_exptl_crystal_colour            colorless
_exptl_crystal_description       plate
_chemical_melting_point          100-103deg.C
_cell_formula_units_Z            1
loop_
_atom_site_label
_atom_site_type_symbol
_atom_site_fract_x
_atom_site_fract_y
_atom_site_fract_z
Ba1 Ba 0.004913(9) 0.032643(8) 0.161025(9)
O1 O -0.19822(12) -0.00785(12) -0.06818(15)
O2 O 0.04639(12) 0.17456(11) 0.07708(14)
O3 O 0.07385(15) -0.04565(12) 0.30617(15)
O4 O 0.16844(13) 0.20228(11) 0.40225(14)
N1 N -0.2413(2) -0.1411(2) 0.0751(2)
N2 N -0.3193(2) -0.18043(15) -0.0422(2)
H1 H -0.3051(2) -0.14576(15) -0.0801(2)
N3 N -0.1126(2) 0.2155(2) 0.2720(2)
N4 N -0.0339(2) 0.29389(14) 0.3938(2)
H2 H 0.0476(2) 0.29845(14) 0.4295(2)
C1 C -0.4635(2) 0.0306(2) -0.1041(2)
H3 H -0.4427(14) -0.0190(14) -0.0713(15)
H4 H -0.5570(2) -0.0019(16) -0.1601(5)
H5 H -0.4429(14) 0.1129(3) -0.0351(11)
C2 C -0.3818(2) 0.0303(2) -0.1759(2)
C3 C -0.2358(2) 0.0699(2) -0.0874(2)
C4 C -0.1536(2) 0.1859(2) -0.0322(2)
H6 H -0.1894(2) 0.2351(2) -0.0562(2)
C5 C -0.0210(2) 0.2365(2) 0.0571(2)
C6 C 0.0472(2) 0.3735(2) 0.1310(2)
C7 C -0.0452(3) 0.4438(2) 0.1678(3)
H7 H -0.1173(14) 0.4257(17) 0.0927(4)
H8 H 0.0036(7) 0.5299(2) 0.2204(20)
H9 H -0.0807(19) 0.4207(17) 0.2137(20)
C8 C 0.1663(3) 0.4131(2) 0.2487(3)
H10 H 0.2286(10) 0.3727(16) 0.2261(3)
H11 H 0.1383(4) 0.3919(18) 0.2995(10)
H12 H 0.2084(13) 0.5001(4) 0.2961(11)
C9 C 0.0911(4) 0.3991(2) 0.0469(4)
H13 H 0.0145(5) 0.3714(20) -0.0296(11)
H14 H 0.1528(19) 0.3568(18) 0.0263(19)
H15 H 0.1341(22) 0.4855(3) 0.0905(10)
C10 C -0.4201(2) -0.0976(3) -0.2886(3)
H16 H -0.3699(17) -0.0975(4) -0.3357(12)
H17 H -0.5140(5) -0.1265(8) -0.3420(12)
H18 H -0.4008(21) -0.1506(5) -0.2600(3)
C11 C -0.4112(2) 0.1133(3) -0.2198(4)
H19 H -0.3571(18) 0.1171(17) -0.2627(20)
H20 H -0.3913(22) 0.1938(6) -0.1480(4)
H21 H -0.5041(6) 0.0823(12) -0.2770(18)
C12 C 0.1827(2) -0.0552(2) 0.5821(2)
H22 H 0.2718(6) 0.0025(11) 0.6334(2)
H23 H 0.1766(16) -0.1193(3) 0.5973(4)
H24 H 0.1202(10) -0.0144(13) 0.6035(4)
C13 C 0.1504(2) -0.1089(2) 0.4447(2)
C14 C 0.1538(2) -0.0133(2) 0.4117(2)
C15 C 0.2484(2) 0.1040(2) 0.5010(2)
H25 H 0.3150(2) 0.1153(2) 0.5721(2)
C16 C 0.2509(2) 0.2032(2) 0.4921(2)
C17 C 0.3555(2) 0.3279(2) 0.5998(2)
C18 C 0.4079(3) 0.3881(2) 0.5441(3)
H26 H 0.3345(4) 0.3920(20) 0.4861(18)
H27 H 0.4549(21) 0.3414(12) 0.4997(20)
H28 H 0.4678(19) 0.4693(8) 0.6108(4)
C19 C 0.2863(3) 0.4050(2) 0.6727(3)
H29 H 0.2518(21) 0.3674(12) 0.7088(19)
H30 H 0.2139(15) 0.4117(18) 0.6164(6)
H31 H 0.3491(7) 0.4852(7) 0.7393(15)
C20 C 0.4696(3) 0.3217(2) 0.6904(3)
H32 H 0.4378(5) 0.2956(21) 0.7362(16)
H33 H 0.5366(11) 0.4012(5) 0.7490(15)
H34 H 0.5076(15) 0.2644(16) 0.6441(4)
C21 C 0.0127(2) -0.2033(2) 0.3655(2)
H35 H -0.0087(7) -0.2392(12) 0.2771(2)
H36 H -0.0518(3) -0.1650(3) 0.3858(12)
H37 H 0.0108(5) -0.2660(9) 0.3830(12)
C22 C 0.2502(2) -0.1708(2) 0.4108(3)
H38 H 0.2246(11) -0.2111(14) 0.3213(4)
H39 H 0.2519(14) -0.2300(12) 0.4331(16)
H40 H 0.3376(4) -0.1107(3) 0.4565(14)
C23 C -0.2960(2) -0.2169(2) 0.0971(2)
H41 H -0.2623(2) -0.2117(2) 0.1735(2)
C24 C -0.4102(2) -0.3055(2) -0.0079(3)
H42 H -0.4672(2) -0.3700(2) -0.0164(3)
C25 C -0.4217(2) -0.2789(2) -0.0955(2)
H43 H -0.4890(2) -0.3216(2) -0.1777(2)
C26 C -0.2253(2) 0.2391(2) 0.2568(2)
H44 H -0.3004(2) 0.1982(2) 0.1796(2)
C27 C -0.2188(2) 0.3319(2) 0.3694(3)
H45 H -0.2859(2) 0.3648(2) 0.3832(3)
C28 C -0.0943(2) 0.3647(2) 0.4551(2)
H46 H -0.0574(2) 0.4256(2) 0.5412(2)
Ba1A Ba -0.004913(9) -0.032643(8) -0.161025(9)
O1A O 0.19822(12) 0.00785(12) 0.06818(15)
O2A O -0.04639(12) -0.17456(11) -0.07708(14)
C5A C 0.0210(2) -0.2365(2) -0.0571(2)
C4A C 0.1536(2) -0.1859(2) 0.0322(2)
C3A C 0.2358(2) -0.0699(2) 0.0874(2)
C2A C 0.3818(2) -0.0303(2) 0.1759(2)
C1A C 0.4635(2) -0.0306(2) 0.1041(2)
H3A H 0.4427(14) 0.0190(14) 0.0713(15)
H4A H 0.5570(2) 0.0019(16) 0.1601(5)
H5A H 0.4429(14) -0.1129(3) 0.0351(11)
C10A C 0.4201(2) 0.0976(3) 0.2886(3)
H16A H 0.3699(17) 0.0975(4) 0.3357(12)
H17A H 0.5140(5) 0.1265(8) 0.3420(12)
H18A H 0.4008(21) 0.1506(5) 0.2600(3)
C11A C 0.4112(2) -0.1133(3) 0.2198(4)
H19A H 0.3571(18) -0.1171(17) 0.2627(20)
H20A H 0.3913(22) -0.1938(6) 0.1480(4)
H21A H 0.5041(6) -0.0823(12) 0.2770(18)
H6A H 0.1894(2) -0.2351(2) 0.0562(2)
C6A C -0.0472(2) -0.3735(2) -0.1310(2)
C7A C 0.0452(3) -0.4438(2) -0.1678(3)
H7A H 0.1173(14) -0.4257(17) -0.0927(4)
H8A H -0.0036(7) -0.5299(2) -0.2204(20)
H9A H 0.0807(19) -0.4207(17) -0.2137(20)
C8A C -0.1663(3) -0.4131(2) -0.2487(3)
H10A H -0.2286(10) -0.3727(16) -0.2261(3)
H11A H -0.1383(4) -0.3919(18) -0.2995(10)
H12A H -0.2084(13) -0.5001(4) -0.2961(11)
C9A C -0.0911(4) -0.3991(2) -0.0469(4)
H13A H -0.0145(5) -0.3714(20) 0.0296(11)
H14A H -0.1528(19) -0.3568(18) -0.0263(19)
H15A H -0.1341(22) -0.4855(3) -0.0905(10)
O3A O -0.07385(15) 0.04565(12) -0.30617(15)
C14A C -0.1538(2) 0.0133(2) -0.4117(2)
C13A C -0.1504(2) 0.1089(2) -0.4447(2)
C12A C -0.1827(2) 0.0552(2) -0.5821(2)
H22A H -0.2718(6) -0.0025(11) -0.6334(2)
H23A H -0.1766(16) 0.1193(3) -0.5973(4)
H24A H -0.1202(10) 0.0144(13) -0.6035(4)
C21A C -0.0127(2) 0.2033(2) -0.3655(2)
H35A H 0.0087(7) 0.2392(12) -0.2771(2)
H36A H 0.0518(3) 0.1650(3) -0.3858(12)
H37A H -0.0108(5) 0.2660(9) -0.3830(12)
C22A C -0.2502(2) 0.1708(2) -0.4108(3)
H38A H -0.2246(11) 0.2111(14) -0.3213(4)
H39A H -0.2519(14) 0.2300(12) -0.4331(16)
H40A H -0.3376(4) 0.1107(3) -0.4565(14)
C15A C -0.2484(2) -0.1040(2) -0.5010(2)
H25A H -0.3150(2) -0.1153(2) -0.5721(2)
C16A C -0.2509(2) -0.2032(2) -0.4921(2)
O4A O -0.16844(13) -0.20228(11) -0.40225(14)
N1A N 0.2413(2) 0.1411(2) -0.0751(2)
N2A N 0.3193(2) 0.18043(15) 0.0422(2)
H1A H 0.3051(2) 0.14576(15) 0.0801(2)
C25A C 0.4217(2) 0.2789(2) 0.0955(2)
C24A C 0.4102(2) 0.3055(2) 0.0079(3)
C23A C 0.2960(2) 0.2169(2) -0.0971(2)
H41A H 0.2623(2) 0.2117(2) -0.1735(2)
H42A H 0.4672(2) 0.3700(2) 0.0164(3)
H43A H 0.4890(2) 0.3216(2) 0.1777(2)
N3A N 0.1126(2) -0.2155(2) -0.2720(2)
N4A N 0.0339(2) -0.29389(14) -0.3938(2)
H2A H -0.0476(2) -0.29845(14) -0.4295(2)
C28A C 0.0943(2) -0.3647(2) -0.4551(2)
C27A C 0.2188(2) -0.3319(2) -0.3694(3)
C26A C 0.2253(2) -0.2391(2) -0.2568(2)
H44A H 0.3004(2) -0.1982(2) -0.1796(2)
H45A H 0.2859(2) -0.3648(2) -0.3832(3)
H46A H 0.0574(2) -0.4256(2) -0.5412(2)
C17A C -0.3555(2) -0.3279(2) -0.5998(2)
C18A C -0.4079(3) -0.3881(2) -0.5441(3)
H26A H -0.3345(4) -0.3920(20) -0.4861(18)
H27A H -0.4549(21) -0.3414(12) -0.4997(20)
H28A H -0.4678(19) -0.4693(8) -0.6108(4)
C19A C -0.2863(3) -0.4050(2) -0.6727(3)
H29A H -0.2518(21) -0.3674(12) -0.7088(19)
H30A H -0.2139(15) -0.4117(18) -0.6164(6)
H31A H -0.3491(7) -0.4852(7) -0.7393(15)
C20A C -0.4696(3) -0.3217(2) -0.6904(3)
H32A H -0.4378(5) -0.2956(21) -0.7362(16)
H33A H -0.5366(11) -0.4012(5) -0.7490(15)
H34A H -0.5076(15) -0.2644(16) -0.6441(4)
loop_
_geom_bond_atom_site_label_1
_geom_bond_atom_site_label_2
_geom_bond_site_symmetry_1
_geom_bond_site_symmetry_2
Ba1 O1 1_555 1_555
O1 C3 1_555 1_555
O2 Ba1 1_555 1_555
O3 Ba1 1_555 1_555
O4 Ba1 1_555 1_555
N1 Ba1 1_555 1_555
N2 N1 1_555 1_555
H1 N2 1_555 1_555
N3 Ba1 1_555 1_555
N4 N3 1_555 1_555
H2 N4 1_555 1_555
C1 H3 1_555 1_555
H4 C1 1_555 1_555
H5 C1 1_555 1_555
C2 C1 1_555 1_555
C3 C2 1_555 1_555
C4 C3 1_555 1_555
H6 C4 1_555 1_555
C5 O2 1_555 1_555
C6 C5 1_555 1_555
C7 C6 1_555 1_555
H7 C7 1_555 1_555
H8 C7 1_555 1_555
H9 C7 1_555 1_555
C8 C6 1_555 1_555
H10 C8 1_555 1_555
H11 C8 1_555 1_555
H12 C8 1_555 1_555
C9 C6 1_555 1_555
H13 C9 1_555 1_555
H14 C9 1_555 1_555
H15 C9 1_555 1_555
C10 C2 1_555 1_555
H16 C10 1_555 1_555
H17 C10 1_555 1_555
H18 C10 1_555 1_555
C11 C2 1_555 1_555
H19 C11 1_555 1_555
H20 C11 1_555 1_555
H21 C11 1_555 1_555
C12 H22 1_555 1_555
H23 C12 1_555 1_555
H24 C12 1_555 1_555
C13 C12 1_555 1_555
C14 O3 1_555 1_555
C15 C14 1_555 1_555
H25 C15 1_555 1_555
C16 O4 1_555 1_555
C17 C16 1_555 1_555
C18 C17 1_555 1_555
H26 C18 1_555 1_555
H27 C18 1_555 1_555
H28 C18 1_555 1_555
C19 C17 1_555 1_555
H29 C19 1_555 1_555
H30 C19 1_555 1_555
H31 C19 1_555 1_555
C20 C17 1_555 1_555
H32 C20 1_555 1_555
H33 C20 1_555 1_555
H34 C20 1_555 1_555
C21 C13 1_555 1_555
H35 C21 1_555 1_555
H36 C21 1_555 1_555
H37 C21 1_555 1_555
C22 C13 1_555 1_555
H38 C22 1_555 1_555
H39 C22 1_555 1_555
H40 C22 1_555 1_555
C23 N1 1_555 1_555
H41 C23 1_555 1_555
C24 C23 1_555 1_555
H42 C24 1_555 1_555
C25 N2 1_555 1_555
H43 C25 1_555 1_555
C26 N3 1_555 1_555
H44 C26 1_555 1_555
C27 C26 1_555 1_555
H45 C27 1_555 1_555
C28 N4 1_555 1_555
H46 C28 1_555 1_555
Ba1A O1 1_555 1_555
O1A Ba1 1_555 1_555
O2A Ba1 1_555 1_555
C5A O2A 1_555 1_555
C4A C5A 1_555 1_555
C3A O1A 1_555 1_555
C2A C3A 1_555 1_555
C1A C2A 1_555 1_555
H3A C1A 1_555 1_555
H4A C1A 1_555 1_555
H5A C1A 1_555 1_555
C10A C2A 1_555 1_555
H16A C10A 1_555 1_555
H17A C10A 1_555 1_555
H18A C10A 1_555 1_555
C11A C2A 1_555 1_555
H19A C11A 1_555 1_555
H20A C11A 1_555 1_555
H21A C11A 1_555 1_555
H6A C4A 1_555 1_555
C6A C5A 1_555 1_555
C7A C6A 1_555 1_555
H7A C7A 1_555 1_555
H8A C7A 1_555 1_555
H9A C7A 1_555 1_555
C8A C6A 1_555 1_555
H10A C8A 1_555 1_555
H11A C8A 1_555 1_555
H12A C8A 1_555 1_555
C9A C6A 1_555 1_555
H13A C9A 1_555 1_555
H14A C9A 1_555 1_555
H15A C9A 1_555 1_555
O3A Ba1A 1_555 1_555
C14A O3A 1_555 1_555
C13A C14A 1_555 1_555
C12A C13A 1_555 1_555
H22A C12A 1_555 1_555
H23A C12A 1_555 1_555
H24A C12A 1_555 1_555
C21A C13A 1_555 1_555
H35A C21A 1_555 1_555
H36A C21A 1_555 1_555
H37A C21A 1_555 1_555
C22A C13A 1_555 1_555
H38A C22A 1_555 1_555
H39A C22A 1_555 1_555
H40A C22A 1_555 1_555
C15A C14A 1_555 1_555
H25A C15A 1_555 1_555
C16A C15A 1_555 1_555
O4A Ba1A 1_555 1_555
N1A Ba1A 1_555 1_555
N2A N1A 1_555 1_555
H1A N2A 1_555 1_555
C25A N2A 1_555 1_555
C24A C25A 1_555 1_555
C23A N1A 1_555 1_555
H41A C23A 1_555 1_555
H42A C24A 1_555 1_555
H43A C25A 1_555 1_555
N3A Ba1A 1_555 1_555
N4A N3A 1_555 1_555
H2A N4A 1_555 1_555
C28A N4A 1_555 1_555
C27A C28A 1_555 1_555
C26A N3A 1_555 1_555
H44A C26A 1_555 1_555
H45A C27A 1_555 1_555
H46A C28A 1_555 1_555
C17A C16A 1_555 1_555
C18A C17A 1_555 1_555
H26A C18A 1_555 1_555
H27A C18A 1_555 1_555
H28A C18A 1_555 1_555
C19A C17A 1_555 1_555
H29A C19A 1_555 1_555
H30A C19A 1_555 1_555
H31A C19A 1_555 1_555
C20A C17A 1_555 1_555
H32A C20A 1_555 1_555
H33A C20A 1_555 1_555
H34A C20A 1_555 1_555
O2 Ba1A 1_555 1_555
C4 C5 1_555 1_555
C13 C14 1_555 1_555
C15 C16 1_555 1_555
C24 C25 1_555 1_555
C27 C28 1_555 1_555
Ba1A O1A 1_555 1_555
Ba1A O2A 1_555 1_555
C4A C3A 1_555 1_555
C16A O4A 1_555 1_555
C24A C23A 1_555 1_555
C27A C26A 1_555 1_555

#END
