
#######################################################################
#
#                 Cambridge Crystallographic Data Centre
#                                CCDC 
#
#######################################################################
#
# If this CIF has been generated from an entry in the Cambridge 
# Structural Database, then it will include bibliographic, chemical, 
# crystal, experimental, refinement or atomic coordinate data resulting 
# from the CCDC's data processing and validation procedures.
#
#######################################################################

data_IPELOF
_chemical_formula_moiety         'C4 H6 O1'
_chemical_name_systematic        cyclobutanone
_symmetry_cell_setting           monoclinic
_symmetry_space_group_name_H-M   'C 2/c'
_symmetry_Int_Tables_number      15
_space_group_name_Hall           '-C 2yn'
loop_
_symmetry_equiv_pos_site_id
_symmetry_equiv_pos_as_xyz
1 x,y,z
2 -x,y,1/2-z
3 1/2+x,1/2+y,z
4 1/2-x,1/2+y,1/2-z
5 -x,-y,-z
6 x,-y,1/2+z
7 1/2-x,1/2-y,-z
8 1/2+x,1/2-y,1/2+z
_cell_length_a                   15.5022(16)
_cell_length_b                   9.0662(9)
_cell_length_c                   8.6531(7)
_cell_angle_alpha                90
_cell_angle_beta                 85.83(3)
_cell_angle_gamma                90
_cell_volume                     1212.94
_exptl_crystal_colour            colorless
_exptl_crystal_description       cylinder
_chemical_melting_point          '218 K'
_cell_formula_units_Z            12
loop_
_atom_site_label
_atom_site_type_symbol
_atom_site_fract_x
_atom_site_fract_y
_atom_site_fract_z
O1 O 0.16529(5) 0.62858(10) 0.49939(11)
C1 C 0.16682(6) 0.70470(11) 0.38539(13)
C2 C 0.20760(8) 0.68827(13) 0.22340(16)
C3 C 0.16675(9) 0.83723(13) 0.18330(17)
C4 C 0.12918(8) 0.85412(11) 0.35121(16)
H2 H 0.1859(9) 0.6060(16) 0.1639(18)
H3 H 0.2693(10) 0.6906(17) 0.2224(19)
H4 H 0.1201(10) 0.8302(17) 0.113(2)
H5 H 0.2084(9) 0.9098(18) 0.1445(19)
H6 H 0.0674(9) 0.8597(15) 0.3670(17)
H7 H 0.1562(10) 0.9319(19) 0.413(2)
O2 O 0.0000 0.59104(11) 0.2500
C5 C 0.0000 0.45850(15) 0.2500
C6 C 0.04292(8) 0.34379(12) 0.34572(17)
C7 C 0.0000 0.22420(18) 0.2500
H1 H 0.0421(9) 0.1647(17) 0.190(2)
H8 H 0.0225(9) 0.3462(15) 0.4496(19)
H9 H 0.1040(9) 0.3508(16) 0.3344(17)
C6A C -0.04292(8) 0.34379(12) 0.15428(17)
H1A H -0.0421(9) 0.1647(17) 0.310(2)
H8A H -0.0225(9) 0.3462(15) 0.0504(19)
H9A H -0.1040(9) 0.3508(16) 0.1656(17)
loop_
_geom_bond_atom_site_label_1
_geom_bond_atom_site_label_2
_geom_bond_site_symmetry_1
_geom_bond_site_symmetry_2
O1 C1 1_555 1_555
O2 C5 1_555 1_555
C1 C2 1_555 1_555
C2 C3 1_555 1_555
C3 C4 1_555 1_555
C4 C1 1_555 1_555
C5 C6 1_555 1_555
C6 C7 1_555 1_555
C7 H1 1_555 1_555
H2 C2 1_555 1_555
H3 C2 1_555 1_555
H4 C3 1_555 1_555
H5 C3 1_555 1_555
H6 C4 1_555 1_555
H7 C4 1_555 1_555
H8 C6 1_555 1_555
H9 C6 1_555 1_555
C6A C5 1_555 1_555
H1A C7 1_555 1_555
H8A C6A 1_555 1_555
H9A C6A 1_555 1_555
C7 C6A 1_555 1_555

#END
