
#######################################################################
#
#                 Cambridge Crystallographic Data Centre
#                                CCDC 
#
#######################################################################
#
# If this CIF has been generated from an entry in the Cambridge 
# Structural Database, then it will include bibliographic, chemical, 
# crystal, experimental, refinement or atomic coordinate data resulting 
# from the CCDC's data processing and validation procedures.
#
#######################################################################

data_IPETUU
_chemical_formula_moiety         'C19 H21 N1 O4 S1'
_chemical_name_systematic        
1-((2S,3S)-5-hydroxy-1-((4-methylphenyl)sulfonyl)-3-phenylpyrrolidin-2-yl)ethanone
_symmetry_cell_setting           orthorhombic
_symmetry_space_group_name_H-M   'P 21 21 21'
_symmetry_Int_Tables_number      19
_space_group_name_Hall           'P 2ac 2ab'
loop_
_symmetry_equiv_pos_site_id
_symmetry_equiv_pos_as_xyz
1 x,y,z
2 1/2-x,-y,1/2+z
3 -x,1/2+y,1/2-z
4 1/2+x,1/2-y,-z
_cell_length_a                   7.3097(11)
_cell_length_b                   10.0954(15)
_cell_length_c                   24.274(4)
_cell_angle_alpha                90
_cell_angle_beta                 90
_cell_angle_gamma                90
_cell_volume                     1791.28
_exptl_crystal_colour            white
_exptl_crystal_description       block
_cell_formula_units_Z            4
loop_
_atom_site_label
_atom_site_type_symbol
_atom_site_fract_x
_atom_site_fract_y
_atom_site_fract_z
N1 N 0.1800(2) 0.00281(17) 0.83114(6)
S1 S 0.03333(7) 0.01574(5) 0.88081(2)
O1 O 0.0755(2) -0.08590(16) 0.91986(7)
O2 O -0.14280(19) 0.01777(17) 0.85445(7)
O3 O 0.4645(2) 0.0621(2) 0.86839(7)
O4 O 0.0055(3) -0.11778(14) 0.74089(7)
C1 C 0.3686(3) -0.0395(2) 0.83987(9)
H1 H 0.3738 -0.1235 0.8600
C2 C 0.4324(3) -0.0560(2) 0.78121(9)
H2 H 0.3872 -0.1380 0.7655
H3 H 0.5648 -0.0548 0.7789
C3 C 0.3486(3) 0.06479(18) 0.75222(8)
H4 H 0.4155 0.1426 0.7656
C4 C 0.1525(2) 0.07190(17) 0.77823(8)
H5 H 0.1170 0.1642 0.7846
C5 C 0.0086(3) 0.00127(18) 0.74314(7)
C6 C -0.1229(3) 0.0857(2) 0.71262(11)
H6 H -0.2052 0.0306 0.6920
H7 H -0.0573 0.1427 0.6879
H8 H -0.1913 0.1386 0.7383
C7 C 0.3592(3) 0.06814(19) 0.69019(8)
C8 C 0.3031(3) 0.1800(2) 0.66165(9)
H9 H 0.2501 0.2494 0.6811
C9 C 0.3231(4) 0.1920(3) 0.60571(10)
H10 H 0.2828 0.2681 0.5879
C10 C 0.4024(4) 0.0919(3) 0.57605(11)
H11 H 0.4175 0.1003 0.5382
C11 C 0.4591(4) -0.0203(3) 0.60253(11)
H12 H 0.5130 -0.0883 0.5824
C12 C 0.4371(3) -0.0340(2) 0.65952(10)
H13 H 0.4746 -0.1114 0.6770
C13 C 0.0616(3) 0.1701(2) 0.91269(8)
C14 C -0.0191(3) 0.2816(2) 0.88983(8)
H14 H -0.0870 0.2748 0.8575
C15 C 0.0019(3) 0.4017(2) 0.91522(9)
H15 H -0.0497 0.4766 0.8992
C16 C 0.0976(3) 0.4150(2) 0.96411(9)
C17 C 0.1756(3) 0.3022(3) 0.98638(10)
H16 H 0.2400 0.3087 1.0193
C18 C 0.1605(3) 0.1809(2) 0.96120(9)
H17 H 0.2160 0.1067 0.9765
C19 C 0.1133(5) 0.5474(3) 0.99223(13)
H18 H 0.0513 0.6134 0.9707
H19 H 0.2400 0.5709 0.9958
H20 H 0.0586 0.5425 1.0281
loop_
_geom_bond_atom_site_label_1
_geom_bond_atom_site_label_2
_geom_bond_site_symmetry_1
_geom_bond_site_symmetry_2
N1 S1 1_555 1_555
S1 O1 1_555 1_555
O2 S1 1_555 1_555
O3 C1 1_555 1_555
O4 C5 1_555 1_555
C1 N1 1_555 1_555
H1 C1 1_555 1_555
C2 C1 1_555 1_555
H2 C2 1_555 1_555
H3 C2 1_555 1_555
C3 C2 1_555 1_555
H4 C3 1_555 1_555
C4 N1 1_555 1_555
H5 C4 1_555 1_555
C5 C4 1_555 1_555
C6 C5 1_555 1_555
H6 C6 1_555 1_555
H7 C6 1_555 1_555
H8 C6 1_555 1_555
C7 C3 1_555 1_555
C8 C7 1_555 1_555
H9 C8 1_555 1_555
C9 C8 1_555 1_555
H10 C9 1_555 1_555
C10 C9 1_555 1_555
H11 C10 1_555 1_555
C11 C10 1_555 1_555
H12 C11 1_555 1_555
C12 C7 1_555 1_555
H13 C12 1_555 1_555
C13 S1 1_555 1_555
C14 C13 1_555 1_555
H14 C14 1_555 1_555
C15 C14 1_555 1_555
H15 C15 1_555 1_555
C16 C15 1_555 1_555
C17 C16 1_555 1_555
H16 C17 1_555 1_555
C18 C13 1_555 1_555
H17 C18 1_555 1_555
C19 C16 1_555 1_555
H18 C19 1_555 1_555
H19 C19 1_555 1_555
H20 C19 1_555 1_555
C3 C4 1_555 1_555
C11 C12 1_555 1_555
C17 C18 1_555 1_555

#END
