
#######################################################################
#
#                 Cambridge Crystallographic Data Centre
#                                CCDC 
#
#######################################################################
#
# If this CIF has been generated from an entry in the Cambridge 
# Structural Database, then it will include bibliographic, chemical, 
# crystal, experimental, refinement or atomic coordinate data resulting 
# from the CCDC's data processing and validation procedures.
#
#######################################################################

data_IPEWEH
_chemical_name_common            
'1$2!,1$5!-dimethyl-3,9-dithia-1(1,4)-benzenacyclodecaphane 3,3,9,9-tetraoxide'
_chemical_formula_moiety         'C15 H22 O4 S2'
_chemical_name_systematic        
'12,14-dimethyl-3,9-dithiabicyclo[9.2.2]pentadeca-1(13),11,14-triene 3,3,9,9-tetraoxide'
_symmetry_cell_setting           monoclinic
_symmetry_space_group_name_H-M   'C c'
_symmetry_Int_Tables_number      9
_space_group_name_Hall           'C -2yc'
loop_
_symmetry_equiv_pos_site_id
_symmetry_equiv_pos_as_xyz
1 x,y,z
2 x,-y,1/2+z
3 1/2+x,1/2+y,z
4 1/2+x,1/2-y,1/2+z
_cell_length_a                   9.2958(3)
_cell_length_b                   14.6345(6)
_cell_length_c                   11.7628(4)
_cell_angle_alpha                90
_cell_angle_beta                 107.986(2)
_cell_angle_gamma                90
_cell_volume                     1522.01
_exptl_crystal_colour            colorless
_exptl_crystal_description       blocks
_cell_formula_units_Z            4
loop_
_atom_site_label
_atom_site_type_symbol
_atom_site_fract_x
_atom_site_fract_y
_atom_site_fract_z
C1 C 0.5804(2) 0.91034(15) 0.7277(2)
H1 H 0.6443 0.8959 0.8100
H2 H 0.6314 0.9592 0.6963
S1 S 0.56270(5) 0.81015(4) 0.63576(5)
O1 O 0.71133(18) 0.79026(12) 0.62609(15)
O2 O 0.49184(17) 0.73835(11) 0.68432(13)
C2 C 0.4371(3) 0.84250(16) 0.49203(19)
H3 H 0.3911 0.9023 0.4996
H4 H 0.4968 0.8504 0.4361
C3 C 0.3107(2) 0.77356(16) 0.43878(19)
H5 H 0.3546 0.7114 0.4526
H6 H 0.2727 0.7832 0.3513
C4 C 0.1756(3) 0.77724(16) 0.4877(2)
H7 H 0.2124 0.7688 0.5755
H8 H 0.1059 0.7262 0.4531
C5 C 0.0884(3) 0.86786(16) 0.4589(2)
H9 H 0.1530 0.9179 0.5038
H10 H 0.0651 0.8811 0.3725
C6 C -0.0595(3) 0.86533(16) 0.4911(2)
H11 H -0.0428 0.8295 0.5654
H12 H -0.1375 0.8334 0.4266
S2 S -0.12913(5) 0.97606(4) 0.51200(4)
O3 O -0.07830(18) 1.03992(11) 0.43855(13)
O4 O -0.29014(18) 0.97164(12) 0.49262(15)
C7 C -0.0403(3) 1.00467(18) 0.66651(19)
H13 H -0.0580 1.0701 0.6789
H14 H -0.0871 0.9684 0.7168
C8 C 0.1276(3) 0.98654(15) 0.7054(2)
C9 C 0.1891(2) 0.90673(17) 0.76573(19)
C10 C 0.3408(3) 0.88813(16) 0.77796(19)
H15 H 0.3855 0.8347 0.8201
C11 C 0.4291(2) 0.94448(16) 0.73101(18)
C12 C 0.3708(3) 1.02862(16) 0.6801(2)
C13 C 0.2204(2) 1.04797(16) 0.66948(19)
H16 H 0.1793 1.1051 0.6366
C14 C 0.1040(3) 0.83805(18) 0.8152(2)
H17 H 0.1102 0.8550 0.8972
H18 H 0.1485 0.7773 0.8151
H19 H -0.0022 0.8370 0.7655
C15 C 0.4622(3) 1.09614(18) 0.6340(2)
H20 H 0.4908 1.0685 0.5682
H21 H 0.5536 1.1128 0.6986
H22 H 0.4015 1.1510 0.6052
loop_
_geom_bond_atom_site_label_1
_geom_bond_atom_site_label_2
_geom_bond_site_symmetry_1
_geom_bond_site_symmetry_2
C1 H1 1_555 1_555
H2 C1 1_555 1_555
S1 C1 1_555 1_555
O1 S1 1_555 1_555
O2 S1 1_555 1_555
C2 S1 1_555 1_555
H3 C2 1_555 1_555
H4 C2 1_555 1_555
C3 C2 1_555 1_555
H5 C3 1_555 1_555
H6 C3 1_555 1_555
C4 C3 1_555 1_555
H7 C4 1_555 1_555
H8 C4 1_555 1_555
C5 C4 1_555 1_555
H9 C5 1_555 1_555
H10 C5 1_555 1_555
C6 C5 1_555 1_555
H11 C6 1_555 1_555
H12 C6 1_555 1_555
S2 C6 1_555 1_555
O3 S2 1_555 1_555
O4 S2 1_555 1_555
C7 S2 1_555 1_555
H13 C7 1_555 1_555
H14 C7 1_555 1_555
C8 C7 1_555 1_555
C9 C8 1_555 1_555
C10 C9 1_555 1_555
H15 C10 1_555 1_555
C11 C1 1_555 1_555
C12 C11 1_555 1_555
C13 C8 1_555 1_555
H16 C13 1_555 1_555
C14 C9 1_555 1_555
H17 C14 1_555 1_555
H18 C14 1_555 1_555
H19 C14 1_555 1_555
C15 C12 1_555 1_555
H20 C15 1_555 1_555
H21 C15 1_555 1_555
H22 C15 1_555 1_555
C10 C11 1_555 1_555
C12 C13 1_555 1_555

#END
