
#######################################################################
#
#                 Cambridge Crystallographic Data Centre
#                                CCDC 
#
#######################################################################
#
# If this CIF has been generated from an entry in the Cambridge 
# Structural Database, then it will include bibliographic, chemical, 
# crystal, experimental, refinement or atomic coordinate data resulting 
# from the CCDC's data processing and validation procedures.
#
#######################################################################

data_IPEZAG01
_chemical_name_common            'AMG 579'
_chemical_formula_moiety         'C25 H23 N5 O3'
_chemical_name_systematic        
1-(4-(3-(4-(1H-benzimidazol-2-ylcarbonyl)phenoxy)pyrazin-2-yl)piperidin-1-yl)ethanone
_chemical_properties_biological  
'selective phosphodiesterase 10 (PDE10A) inhibitor'
_symmetry_cell_setting           monoclinic
_symmetry_space_group_name_H-M   'P 21/c'
_symmetry_Int_Tables_number      14
_space_group_name_Hall           '-P 2ybc'
loop_
_symmetry_equiv_pos_site_id
_symmetry_equiv_pos_as_xyz
1 x,y,z
2 -x,1/2+y,1/2-z
3 -x,-y,-z
4 x,1/2-y,1/2+z
_cell_length_a                   18.0735(13)
_cell_length_b                   12.3153(12)
_cell_length_c                   9.8022(8)
_cell_angle_alpha                90
_cell_angle_beta                 91.823(5)
_cell_angle_gamma                90
_cell_volume                     2180.68
_exptl_crystal_colour            colorless
_exptl_crystal_description       plate
_cell_formula_units_Z            4
loop_
_atom_site_label
_atom_site_type_symbol
_atom_site_fract_x
_atom_site_fract_y
_atom_site_fract_z
O1 O 0.90040(7) 0.76721(12) 0.82222(14)
O2 O 1.14555(7) 0.91089(11) 0.41662(13)
O3 O 0.57537(10) 0.54866(17) 1.14509(17)
N1 N 1.24768(8) 0.74962(14) 0.37120(14)
H1 H 1.2372 0.7838 0.2942
N2 N 1.23907(8) 0.69729(14) 0.58857(14)
N3 N 0.92379(9) 0.91621(15) 0.96186(16)
N4 N 0.78552(9) 0.88507(16) 1.07358(17)
N5 N 0.62236(9) 0.60711(15) 0.94740(17)
C1 C 0.96360(10) 0.78896(17) 0.75028(18)
C2 C 1.01306(10) 0.70459(17) 0.73795(19)
H2 H 1.0050 0.6379 0.7838
C3 C 1.07466(10) 0.71717(16) 0.65858(18)
H3 H 1.1083 0.6586 0.6486
C4 C 1.08719(10) 0.81588(16) 0.59342(17)
C5 C 1.03633(10) 0.90020(16) 0.60921(18)
H4 H 1.0450 0.9680 0.5664
C6 C 0.97413(11) 0.88764(17) 0.68511(19)
H5 H 0.9393 0.9449 0.6927
C7 C 1.14717(10) 0.83420(16) 0.49596(17)
C8 C 1.21021(10) 0.75771(16) 0.48903(17)
C9 C 1.30475(10) 0.67835(16) 0.39492(18)
C10 C 1.35899(10) 0.63777(19) 0.31075(19)
H6 H 1.3617 0.6590 0.2179
C11 C 1.40853(11) 0.56523(19) 0.3695(2)
H7 H 1.4463 0.5353 0.3157
C12 C 1.40454(11) 0.53436(19) 0.5076(2)
H8 H 1.4400 0.4844 0.5443
C13 C 1.35103(10) 0.57415(17) 0.59082(19)
H9 H 1.3490 0.5532 0.6839
C14 C 1.29963(10) 0.64700(16) 0.53238(18)
C15 C 0.87811(10) 0.83919(17) 0.91999(18)
C16 C 0.80763(11) 0.82198(17) 0.97216(18)
C17 C 0.89952(11) 0.98017(18) 1.06234(19)
H10 H 0.9299 1.0380 1.0956
C18 C 0.83163(12) 0.96333(19) 1.1177(2)
H11 H 0.8169 1.0090 1.1900
C19 C 0.75590(10) 0.73513(17) 0.91968(19)
H12 H 0.7759 0.7057 0.8332
C20 C 0.67822(11) 0.78048(17) 0.88774(19)
H13 H 0.6590 0.8154 0.9704
H14 H 0.6809 0.8364 0.8155
C21 C 0.62579(11) 0.69050(19) 0.8406(2)
H15 H 0.5758 0.7208 0.8216
H16 H 0.6435 0.6577 0.7554
C22 C 0.75144(11) 0.64118(17) 1.0228(2)
H17 H 0.8006 0.6062 1.0335
H18 H 0.7381 0.6705 1.1128
C23 C 0.69434(12) 0.55638(18) 0.9769(2)
H19 H 0.7114 0.5192 0.8941
H20 H 0.6893 0.5012 1.0495
C24 C 0.56950(12) 0.6039(2) 1.0411(2)
C25 C 0.50033(13) 0.6702(3) 1.0135(3)
H21 H 0.4645 0.6552 1.0842
H22 H 0.4786 0.6507 0.9239
H23 H 0.5129 0.7476 1.0145
loop_
_geom_bond_atom_site_label_1
_geom_bond_atom_site_label_2
_geom_bond_site_symmetry_1
_geom_bond_site_symmetry_2
O1 C1 1_555 1_555
O2 C7 1_555 1_555
O3 C24 1_555 1_555
N1 H1 1_555 1_555
N2 C8 1_555 1_555
N3 C15 1_555 1_555
N4 C16 1_555 1_555
N5 C21 1_555 1_555
C1 C2 1_555 1_555
C2 H2 1_555 1_555
C3 C2 1_555 1_555
H3 C3 1_555 1_555
C4 C3 1_555 1_555
C5 C4 1_555 1_555
H4 C5 1_555 1_555
C6 C1 1_555 1_555
H5 C6 1_555 1_555
C7 C4 1_555 1_555
C8 N1 1_555 1_555
C9 N1 1_555 1_555
C10 C9 1_555 1_555
H6 C10 1_555 1_555
C11 C10 1_555 1_555
H7 C11 1_555 1_555
C12 C11 1_555 1_555
H8 C12 1_555 1_555
C13 C12 1_555 1_555
H9 C13 1_555 1_555
C14 N2 1_555 1_555
C15 O1 1_555 1_555
C16 C15 1_555 1_555
C17 N3 1_555 1_555
H10 C17 1_555 1_555
C18 N4 1_555 1_555
H11 C18 1_555 1_555
C19 C16 1_555 1_555
H12 C19 1_555 1_555
C20 C19 1_555 1_555
H13 C20 1_555 1_555
H14 C20 1_555 1_555
C21 C20 1_555 1_555
H15 C21 1_555 1_555
H16 C21 1_555 1_555
C22 C19 1_555 1_555
H17 C22 1_555 1_555
H18 C22 1_555 1_555
C23 N5 1_555 1_555
H19 C23 1_555 1_555
H20 C23 1_555 1_555
C24 N5 1_555 1_555
C25 C24 1_555 1_555
H21 C25 1_555 1_555
H22 C25 1_555 1_555
H23 C25 1_555 1_555
C5 C6 1_555 1_555
C7 C8 1_555 1_555
C9 C14 1_555 1_555
C13 C14 1_555 1_555
C17 C18 1_555 1_555
C22 C23 1_555 1_555

#END
