
#######################################################################
#
#                 Cambridge Crystallographic Data Centre
#                                CCDC 
#
#######################################################################
#
# If this CIF has been generated from an entry in the Cambridge 
# Structural Database, then it will include bibliographic, chemical, 
# crystal, experimental, refinement or atomic coordinate data resulting 
# from the CCDC's data processing and validation procedures.
#
#######################################################################

data_IPEZUZ
_chemical_formula_moiety         'C3 H1 N11 O2'
_chemical_name_systematic        4,6-Diazido-N-nitro-1,3,5-triazin-2-amine
_symmetry_cell_setting           orthorhombic
_symmetry_space_group_name_H-M   'P n m a'
_symmetry_Int_Tables_number      62
_space_group_name_Hall           '-P 2ac 2n'
loop_
_symmetry_equiv_pos_site_id
_symmetry_equiv_pos_as_xyz
1 x,y,z
2 1/2-x,-y,1/2+z
3 -x,1/2+y,-z
4 1/2+x,1/2-y,1/2-z
5 -x,-y,-z
6 1/2+x,y,1/2-z
7 x,1/2-y,z
8 1/2-x,1/2+y,1/2+z
_cell_length_a                   14.1327(16)
_cell_length_b                   5.8806(7)
_cell_length_c                   9.7157(11)
_cell_angle_alpha                90
_cell_angle_beta                 90
_cell_angle_gamma                90
_cell_volume                     807.46
_exptl_crystal_colour            colorless
_exptl_crystal_description       plate
_cell_formula_units_Z            4
_exptl_crystal_recrystallization_method water
loop_
_atom_site_label
_atom_site_type_symbol
_atom_site_fract_x
_atom_site_fract_y
_atom_site_fract_z
C1 C 0.99455(7) 0.7500 -0.19486(12)
N1 N 0.96875(7) 0.7500 -0.32751(10)
C2 C 1.04260(8) 0.7500 -0.41331(11)
N2 N 1.13403(7) 0.7500 -0.37912(10)
C3 C 1.14788(7) 0.7500 -0.24380(12)
N3 N 1.08198(7) 0.7500 -0.14468(10)
N4 N 0.91585(7) 0.7500 -0.10974(10)
H1 H 0.8596(12) 0.7500 -0.1468(18)
N5 N 0.91415(7) 0.7500 0.03153(10)
O1 O 0.98817(6) 0.7500 0.09489(9)
O2 O 0.83456(6) 0.7500 0.08130(10)
N6 N 1.01705(7) 0.7500 -0.55191(10)
N7 N 1.08823(7) 0.7500 -0.63149(10)
N8 N 1.14314(7) 0.7500 -0.71395(11)
N9 N 1.24331(7) 0.7500 -0.20743(11)
N10 N 1.25695(7) 0.7500 -0.07784(12)
N11 N 1.27968(8) 0.7500 0.03179(12)
loop_
_geom_bond_atom_site_label_1
_geom_bond_atom_site_label_2
_geom_bond_site_symmetry_1
_geom_bond_site_symmetry_2
C1 N1 1_555 1_555
N1 C2 1_555 1_555
C2 N2 1_555 1_555
N2 C3 1_555 1_555
C3 N3 1_555 1_555
N3 C1 1_555 1_555
N4 C1 1_555 1_555
H1 N4 1_555 1_555
N5 N4 1_555 1_555
O1 N5 1_555 1_555
O2 N5 1_555 1_555
N6 C2 1_555 1_555
N7 N6 1_555 1_555
N8 N7 1_555 1_555
N9 C3 1_555 1_555
N10 N9 1_555 1_555
N11 N10 1_555 1_555

#END
