
#######################################################################
#
#                 Cambridge Crystallographic Data Centre
#                                CCDC 
#
#######################################################################
#
# If this CIF has been generated from an entry in the Cambridge 
# Structural Database, then it will include bibliographic, chemical, 
# crystal, experimental, refinement or atomic coordinate data resulting 
# from the CCDC's data processing and validation procedures.
#
#######################################################################

data_IPHOAC
_chemical_formula_moiety         'C8 H7 I1 O3'
_chemical_name_systematic        p-Iodophenoxy-O-acetate
_symmetry_cell_setting           monoclinic
_symmetry_space_group_name_H-M   'P 21/c'
_symmetry_Int_Tables_number      14
_space_group_name_Hall           '-P 2ybc'
loop_
_symmetry_equiv_pos_site_id
_symmetry_equiv_pos_as_xyz
1 x,y,z
2 -x,1/2+y,1/2-z
3 -x,-y,-z
4 x,1/2-y,1/2+z
_cell_length_a                   13.86
_cell_length_b                   5.28
_cell_length_c                   12.57
_cell_angle_alpha                90
_cell_angle_beta                 100
_cell_angle_gamma                90
_cell_volume                     905.908
_chemical_melting_point          154-6deg.C
_cell_formula_units_Z            4
loop_
_atom_site_label
_atom_site_type_symbol
_atom_site_fract_x
_atom_site_fract_y
_atom_site_fract_z
I1 I 0.06700 0.08900 0.09500
C1 C 0.15100 0.35600 0.18300
C2 C 0.14100 0.39600 0.29100
C3 C 0.19800 0.56900 0.35100
C4 C 0.21800 0.50500 0.14000
C5 C 0.27500 0.67800 0.20300
C6 C 0.26500 0.71800 0.30800
C7 C 0.38300 1.05300 0.32900
C8 C 0.44200 1.21300 0.41200
O1 O 0.32800 0.86600 0.37300
O2 O 0.41500 1.25100 0.50000
O3 O 0.50000 1.38100 0.37800
loop_
_geom_bond_atom_site_label_1
_geom_bond_atom_site_label_2
_geom_bond_site_symmetry_1
_geom_bond_site_symmetry_2
I1 C1 1_555 1_555
C1 C2 1_555 1_555
C2 C3 1_555 1_555
C3 C6 1_555 1_555
C4 C1 1_555 1_555
C5 C4 1_555 1_555
C6 C5 1_555 1_555
C7 C8 1_555 1_555
C8 O2 1_555 1_555
O1 C6 1_555 1_555
O3 C8 1_555 1_555
C7 O1 1_555 1_555

#END
