
#######################################################################
#
#                 Cambridge Crystallographic Data Centre
#                                CCDC 
#
#######################################################################
#
# If this CIF has been generated from an entry in the Cambridge 
# Structural Database, then it will include bibliographic, chemical, 
# crystal, experimental, refinement or atomic coordinate data resulting 
# from the CCDC's data processing and validation procedures.
#
#######################################################################

data_IPIKIC
_chemical_formula_moiety         'C25 H36 Li1 N1 O1 Si1'
_chemical_name_systematic        
'(\h^3^-9-(trimethylsilyl)fluorenyl)-(pivalonitrile)-(diethyl ether)-lithium'
_symmetry_cell_setting           triclinic
_symmetry_space_group_name_H-M   'P -1'
_symmetry_Int_Tables_number      2
_space_group_name_Hall           '-P 1'
loop_
_symmetry_equiv_pos_site_id
_symmetry_equiv_pos_as_xyz
1 x,y,z
2 -x,-y,-z
_cell_length_a                   8.796(7)
_cell_length_b                   9.997(4)
_cell_length_c                   15.932(10)
_cell_angle_alpha                82.49(6)
_cell_angle_beta                 75.12(5)
_cell_angle_gamma                72.52(6)
_cell_volume                     1289.27
_exptl_crystal_colour            colorless
_exptl_crystal_description       block
_cell_formula_units_Z            2
loop_
_atom_site_label
_atom_site_type_symbol
_atom_site_fract_x
_atom_site_fract_y
_atom_site_fract_z
Li1 Li 0.0113(7) 0.7185(7) 0.7956(5)
N1 N 0.1296(4) 0.5194(4) 0.7621(2)
Si1 Si -0.13321(12) 0.76712(10) 0.60526(6)
C1 C -0.3864(5) 0.6136(4) 0.9044(3)
H1 H -0.4198 0.5319 0.9179
O1 O 0.1591(3) 0.7661(3) 0.8521(2)
C2 C -0.2614(4) 0.7670(3) 0.7981(2)
C3 C -0.0843(4) 1.0516(3) 0.6865(2)
H2 H -0.0404 1.0407 0.6273
C4 C -0.3111(4) 0.6423(4) 0.8208(2)
H3 H -0.2922 0.5797 0.7785
C5 C -0.1559(4) 0.9499(3) 0.7381(2)
C6 C -0.2213(4) 0.9717(3) 0.8291(2)
C7 C -0.1845(5) 0.6005(4) 0.6008(3)
H4 H -0.1234 0.5268 0.6342
H5 H -0.1569 0.5756 0.5415
H6 H -0.2996 0.6133 0.6244
C8 C -0.1771(4) 0.8222(3) 0.7173(2)
C9 C 0.3795(4) 0.3081(4) 0.7122(3)
C10 C 0.2357(4) 0.4256(4) 0.7401(3)
C11 C -0.0796(4) 1.1660(4) 0.7237(3)
H7 H -0.0337 1.2327 0.6890
C12 C -0.2122(4) 1.0887(4) 0.8645(3)
H8 H -0.2538 1.1013 0.9237
C13 C -0.3660(4) 0.8233(4) 0.9517(2)
H9 H -0.3851 0.8833 0.9956
C14 C -0.2870(4) 0.8563(3) 0.8665(2)
C15 C -0.4147(5) 0.7033(5) 0.9703(3)
H10 H -0.4667 0.6814 1.0268
C16 C -0.1427(5) 1.1845(4) 0.8130(3)
H11 H -0.1370 1.2623 0.8370
C17 C -0.2557(5) 0.9065(4) 0.5391(2)
H12 H -0.3701 0.9239 0.5663
H13 H -0.2356 0.8757 0.4817
H14 H -0.2241 0.9914 0.5355
C18 C 0.1161(7) 0.7732(7) 0.9449(4)
H15 H 0.0348 0.8615 0.9609
H16 H 0.2122 0.7690 0.9655
C19 C 0.0500(7) 0.6553(7) 0.9858(4)
H17 H -0.0450 0.6598 0.9653
H18 H 0.0203 0.6611 1.0478
H19 H 0.1317 0.5682 0.9710
C20 C 0.0884(4) 0.7378(4) 0.5494(2)
H20 H 0.1543 0.6668 0.5820
H21 H 0.1178 0.8238 0.5456
H22 H 0.1065 0.7079 0.4919
C21 C 0.5291(12) 0.3652(14) 0.673(2)
H23 H 0.5446 0.3775 0.6113
H24 H 0.6249 0.2998 0.6879
H25 H 0.5107 0.4539 0.6969
C22 C 0.3856(8) 0.1917(6) 0.7833(5)
H26 H 0.4031 0.2229 0.8336
H27 H 0.4736 0.1108 0.7630
H28 H 0.2838 0.1676 0.7983
C23 C 0.3197(6) 0.8261(5) 0.7170(4)
H29 H 0.3912 0.7322 0.7140
H30 H 0.3805 0.8909 0.6880
H31 H 0.2326 0.8333 0.6891
C24 C 0.2500(6) 0.8599(5) 0.8090(4)
H32 H 0.3377 0.8530 0.8373
H33 H 0.1795 0.9555 0.8121
C25 C 0.3583(8) 0.2534(7) 0.6331(5)
H34 H 0.2599 0.2239 0.6479
H35 H 0.4506 0.1751 0.6135
H36 H 0.3508 0.3265 0.5875
C26? C 0.515(2) 0.3565(19) 0.733(3)
H37? H 0.5062 0.3467 0.7944
H38? H 0.5032 0.4532 0.7130
H39? H 0.6198 0.3000 0.7038
loop_
_geom_bond_atom_site_label_1
_geom_bond_atom_site_label_2
_geom_bond_site_symmetry_1
_geom_bond_site_symmetry_2
Li1 N1 1_555 1_555
N1 C10 1_555 1_555
Si1 C7 1_555 1_555
C1 H1 1_555 1_555
O1 Li1 1_555 1_555
C2 Li1 1_555 1_555
C3 H2 1_555 1_555
C4 C1 1_555 1_555
H3 C4 1_555 1_555
C5 Li1 1_555 1_555
C6 C5 1_555 1_555
C7 H4 1_555 1_555
H5 C7 1_555 1_555
H6 C7 1_555 1_555
C8 Li1 1_555 1_555
C9 C10 1_555 1_555
C11 C3 1_555 1_555
H7 C11 1_555 1_555
C12 C6 1_555 1_555
H8 C12 1_555 1_555
C13 H9 1_555 1_555
C14 C2 1_555 1_555
C15 C1 1_555 1_555
H10 C15 1_555 1_555
C16 C11 1_555 1_555
H11 C16 1_555 1_555
C17 Si1 1_555 1_555
H12 C17 1_555 1_555
H13 C17 1_555 1_555
H14 C17 1_555 1_555
C18 O1 1_555 1_555
H15 C18 1_555 1_555
H16 C18 1_555 1_555
C19 C18 1_555 1_555
H17 C19 1_555 1_555
H18 C19 1_555 1_555
H19 C19 1_555 1_555
C20 Si1 1_555 1_555
H20 C20 1_555 1_555
H21 C20 1_555 1_555
H22 C20 1_555 1_555
C21 C9 1_555 1_555
H23 C21 1_555 1_555
H24 C21 1_555 1_555
H25 C21 1_555 1_555
C22 C9 1_555 1_555
H26 C22 1_555 1_555
H27 C22 1_555 1_555
H28 C22 1_555 1_555
C23 H29 1_555 1_555
H30 C23 1_555 1_555
H31 C23 1_555 1_555
C24 O1 1_555 1_555
H32 C24 1_555 1_555
H33 C24 1_555 1_555
C25 C9 1_555 1_555
H34 C25 1_555 1_555
H35 C25 1_555 1_555
H36 C25 1_555 1_555
Si1 C8 1_555 1_555
C2 C4 1_555 1_555
C2 C8 1_555 1_555
C3 C5 1_555 1_555
C5 C8 1_555 1_555
C6 C14 1_555 1_555
C12 C16 1_555 1_555
C13 C14 1_555 1_555
C13 C15 1_555 1_555
C23 C24 1_555 1_555

#END
