
#######################################################################
#
#                 Cambridge Crystallographic Data Centre
#                                CCDC 
#
#######################################################################
#
# If this CIF has been generated from an entry in the Cambridge 
# Structural Database, then it will include bibliographic, chemical, 
# crystal, experimental, refinement or atomic coordinate data resulting 
# from the CCDC's data processing and validation procedures.
#
#######################################################################

data_IPIKOI
_chemical_formula_moiety         'C46 H44 Li2 N2 Si2'
_chemical_name_systematic        
'bis(\m~2~-\h^6^,\h^3^-N-(9H-fluoren-9-ylidene(phenyl)methyl)-1,1,1-trimethylsilanaminato)-di-lithium unknown solvate'
_symmetry_cell_setting           triclinic
_symmetry_space_group_name_H-M   'P -1'
_symmetry_Int_Tables_number      2
_space_group_name_Hall           '-P 1'
loop_
_symmetry_equiv_pos_site_id
_symmetry_equiv_pos_as_xyz
1 x,y,z
2 -x,-y,-z
_cell_length_a                   8.821(7)
_cell_length_b                   11.244(6)
_cell_length_c                   12.619(10)
_cell_angle_alpha                101.76(4)
_cell_angle_beta                 93.72(7)
_cell_angle_gamma                111.46(5)
_cell_volume                     1126.94
_exptl_crystal_colour            colorless
_exptl_crystal_description       block
_cell_formula_units_Z            1
loop_
_atom_site_label
_atom_site_type_symbol
_atom_site_fract_x
_atom_site_fract_y
_atom_site_fract_z
Li1 Li -0.1102(4) 0.0277(3) 0.1623(3)
Si1 Si 0.06574(7) 0.29383(6) 0.37304(5)
N1 N 0.06973(19) 0.17769(15) 0.26041(13)
C1 C -0.2458(2) 0.07491(18) 0.01060(16)
C2 C 0.3081(2) 0.31468(17) 0.18802(15)
C3 C -0.3396(2) -0.14885(19) 0.03409(16)
H1 H -0.3485 -0.2366 0.0130
C4 C 0.1167(2) -0.06294(17) 0.14296(15)
C5 C 0.1804(2) 0.18488(18) 0.19386(15)
C6 C 0.1835(2) 0.06903(17) 0.12475(15)
C7 C -0.4021(2) -0.10773(19) 0.12572(17)
H2 H -0.4538 -0.1686 0.1663
C8 C -0.1556(2) 0.14985(18) -0.06146(16)
C9 C 0.0336(2) -0.1137(2) 0.22591(17)
H3 H 0.0081 -0.0585 0.2821
C10 C 0.4736(2) 0.34452(19) 0.21966(17)
H4 H 0.5058 0.2835 0.2459
C11 C 0.2631(3) 0.40537(19) 0.14850(19)
H5 H 0.1510 0.3871 0.1279
C12 C -0.2621(2) -0.05833(17) -0.02779(15)
C13 C -0.3123(2) 0.11343(19) 0.10205(16)
H6 H -0.3040 0.2009 0.1244
C14 C 0.5918(3) 0.4626(2) 0.21310(19)
H7 H 0.7037 0.4831 0.2368
C15 C -0.3904(2) 0.0226(2) 0.15970(17)
H8 H -0.4357 0.0478 0.2216
C16 C 0.3808(3) 0.5217(2) 0.1392(2)
H9 H 0.3492 0.5816 0.1107
C17 C -0.0096(3) -0.2456(2) 0.22345(19)
H10 H -0.0665 -0.2795 0.2781
C18 C 0.5455(3) 0.5507(2) 0.1716(2)
H11 H 0.6260 0.6304 0.1654
C19 C -0.1117(3) 0.28252(19) -0.06233(18)
H12 H -0.1392 0.3388 -0.0082
C20 C 0.0287(3) -0.3297(2) 0.1423(2)
H13 H -0.0027 -0.4190 0.1426
C21 C -0.022(3) 0.4076(17) 0.3303(14)
H14 H 0.0438 0.4525 0.2811
H15 H -0.0222 0.4721 0.3945
H16 H -0.1345 0.3574 0.2931
C22 C 0.2693(3) 0.4070(3) 0.4507(2)
H17 H 0.3280 0.3564 0.4738
H18 H 0.2550 0.4642 0.5146
H19 H 0.3319 0.4600 0.4046
C23 C -0.071(3) 0.2046(19) 0.4618(14)
H20 H -0.0282 0.1437 0.4843
H21 H -0.1810 0.1561 0.4214
H22 H -0.0734 0.2675 0.5261
Li1A Li 0.1102(4) -0.0277(3) -0.1623(3)
Si1A Si -0.06574(7) -0.29383(6) -0.37304(5)
N1A N -0.06973(19) -0.17769(15) -0.26041(13)
C1A C 0.2458(2) -0.07491(18) -0.01060(16)
C2A C -0.3081(2) -0.31468(17) -0.18802(15)
C3A C 0.3396(2) 0.14885(19) -0.03409(16)
H1A H 0.3485 0.2366 -0.0130
C4A C -0.1167(2) 0.06294(17) -0.14296(15)
C5A C -0.1804(2) -0.18488(18) -0.19386(15)
C6A C -0.1835(2) -0.06903(17) -0.12475(15)
C7A C 0.4021(2) 0.10773(19) -0.12572(17)
H2A H 0.4538 0.1686 -0.1663
C8A C 0.1556(2) -0.14985(18) 0.06146(16)
C9A C -0.0336(2) 0.1137(2) -0.22591(17)
H3A H -0.0081 0.0585 -0.2821
C10A C -0.4736(2) -0.34452(19) -0.21966(17)
H4A H -0.5058 -0.2835 -0.2459
C11A C -0.2631(3) -0.40537(19) -0.14850(19)
H5A H -0.1510 -0.3871 -0.1279
C12A C 0.2621(2) 0.05833(17) 0.02779(15)
C13A C 0.3123(2) -0.11343(19) -0.10205(16)
H6A H 0.3040 -0.2009 -0.1244
C14A C -0.5918(3) -0.4626(2) -0.21310(19)
H7A H -0.7037 -0.4831 -0.2368
C15A C 0.3904(2) -0.0226(2) -0.15970(17)
H8A H 0.4357 -0.0478 -0.2216
C16A C -0.3808(3) -0.5217(2) -0.1392(2)
H9A H -0.3492 -0.5816 -0.1107
C17A C 0.0096(3) 0.2456(2) -0.22345(19)
H10A H 0.0665 0.2795 -0.2781
C18A C -0.5455(3) -0.5507(2) -0.1716(2)
H11A H -0.6260 -0.6304 -0.1654
C19A C 0.1117(3) -0.28252(19) 0.06233(18)
H12A H 0.1392 -0.3388 0.0082
C20A C -0.0287(3) 0.3297(2) -0.1423(2)
H13A H 0.0027 0.4190 -0.1426
C21A C 0.022(3) -0.4076(17) -0.3303(14)
H14A H -0.0438 -0.4525 -0.2811
H15A H 0.0222 -0.4721 -0.3945
H16A H 0.1345 -0.3574 -0.2931
C22A C -0.2693(3) -0.4070(3) -0.4507(2)
H17A H -0.3280 -0.3564 -0.4738
H18A H -0.2550 -0.4642 -0.5146
H19A H -0.3319 -0.4600 -0.4046
C23A C 0.071(3) -0.2046(19) -0.4618(14)
H20A H 0.0282 -0.1437 -0.4843
H21A H 0.1810 -0.1561 -0.4214
H22A H 0.0734 -0.2675 -0.5261
C24? C -0.074(3) 0.376(2) 0.342(2)
C25? C -0.028(4) 0.183(2) 0.4628(15)
H23? H -0.1832 0.3277 0.3569
H24? H -0.0798 0.3788 0.2657
H25? H -0.0319 0.4655 0.3880
H26? H 0.0365 0.1313 0.4726
H27? H -0.1400 0.1240 0.4291
H28? H -0.0309 0.2351 0.5335
loop_
_geom_bond_atom_site_label_1
_geom_bond_atom_site_label_2
_geom_bond_site_symmetry_1
_geom_bond_site_symmetry_2
Li1 N1 1_555 1_555
Si1 N1 1_555 1_555
N1 C5 1_555 1_555
C1 Li1 1_555 1_555
C2 C5 1_555 1_555
C3 Li1 1_555 1_555
H1 C3 1_555 1_555
C4 C6 1_555 1_555
C5 Li1 1_555 1_555
C6 Li1 1_555 1_555
C7 Li1 1_555 1_555
H2 C7 1_555 1_555
C8 C1 1_555 1_555
C9 C4 1_555 1_555
H3 C9 1_555 1_555
C10 C2 1_555 1_555
H4 C10 1_555 1_555
C11 C2 1_555 1_555
H5 C11 1_555 1_555
C12 Li1 1_555 1_555
C13 Li1 1_555 1_555
H6 C13 1_555 1_555
C14 C10 1_555 1_555
H7 C14 1_555 1_555
C15 Li1 1_555 1_555
H8 C15 1_555 1_555
C16 C11 1_555 1_555
H9 C16 1_555 1_555
C17 C9 1_555 1_555
H10 C17 1_555 1_555
C18 C14 1_555 1_555
H11 C18 1_555 1_555
C19 C8 1_555 1_555
H12 C19 1_555 1_555
C20 C17 1_555 1_555
H13 C20 1_555 1_555
C21 Si1 1_555 1_555
H14 C21 1_555 1_555
H15 C21 1_555 1_555
H16 C21 1_555 1_555
C22 Si1 1_555 1_555
H17 C22 1_555 1_555
H18 C22 1_555 1_555
H19 C22 1_555 1_555
C23 Si1 1_555 1_555
H20 C23 1_555 1_555
H21 C23 1_555 1_555
H22 C23 1_555 1_555
Li1A N1A 1_555 1_555
Si1A N1A 1_555 1_555
N1A C5A 1_555 1_555
C1A Li1A 1_555 1_555
C2A C5A 1_555 1_555
C3A Li1A 1_555 1_555
H1A C3A 1_555 1_555
C4A C8 1_555 1_555
C5A Li1A 1_555 1_555
C6A C12 1_555 1_555
C7A Li1A 1_555 1_555
H2A C7A 1_555 1_555
C8A C4 1_555 1_555
C9A C4A 1_555 1_555
H3A C9A 1_555 1_555
C10A C2A 1_555 1_555
H4A C10A 1_555 1_555
C11A C2A 1_555 1_555
H5A C11A 1_555 1_555
C12A C6 1_555 1_555
C13A Li1A 1_555 1_555
H6A C13A 1_555 1_555
C14A C10A 1_555 1_555
H7A C14A 1_555 1_555
C15A Li1A 1_555 1_555
H8A C15A 1_555 1_555
C16A C11A 1_555 1_555
H9A C16A 1_555 1_555
C17A C9A 1_555 1_555
H10A C17A 1_555 1_555
C18A C14A 1_555 1_555
H11A C18A 1_555 1_555
C19A C20 1_555 1_555
H12A C19A 1_555 1_555
C20A C19 1_555 1_555
H13A C20A 1_555 1_555
C21A Si1A 1_555 1_555
H14A C21A 1_555 1_555
H15A C21A 1_555 1_555
H16A C21A 1_555 1_555
C22A Si1A 1_555 1_555
H17A C22A 1_555 1_555
H18A C22A 1_555 1_555
H19A C22A 1_555 1_555
C23A Si1A 1_555 1_555
H20A C23A 1_555 1_555
H21A C23A 1_555 1_555
H22A C23A 1_555 1_555
C1 C12 1_555 1_555
C1 C13 1_555 1_555
C3 C7 1_555 1_555
C3 C12 1_555 1_555
C5 C6 1_555 1_555
C7 C15 1_555 1_555
C13 C15 1_555 1_555
C16 C18 1_555 1_555
Li1A C6A 1_555 1_555
Li1A C12A 1_555 1_555
C1A C8A 1_555 1_555
C1A C12A 1_555 1_555
C1A C13A 1_555 1_555
C3A C7A 1_555 1_555
C3A C12A 1_555 1_555
C4A C6A 1_555 1_555
C5A C6A 1_555 1_555
C7A C15A 1_555 1_555
C8A C19A 1_555 1_555
C13A C15A 1_555 1_555
C16A C18A 1_555 1_555
C17A C20A 1_555 1_555

#END
