
#######################################################################
#
#                 Cambridge Crystallographic Data Centre
#                                CCDC 
#
#######################################################################
#
# If this CIF has been generated from an entry in the Cambridge 
# Structural Database, then it will include bibliographic, chemical, 
# crystal, experimental, refinement or atomic coordinate data resulting 
# from the CCDC's data processing and validation procedures.
#
#######################################################################

data_IPIKUO
_chemical_formula_moiety         'C27 H43 Li1 N2 O2 Si1'
_chemical_name_systematic        
"(\h^3^-N,N-dimethyl-N'-(trimethylsilyl)-9H-fluorene-9-carboximidamido)-bis(diethyl ether)-lithium"
_symmetry_cell_setting           triclinic
_symmetry_space_group_name_H-M   'P -1'
_symmetry_Int_Tables_number      2
_space_group_name_Hall           '-P 1'
loop_
_symmetry_equiv_pos_site_id
_symmetry_equiv_pos_as_xyz
1 x,y,z
2 -x,-y,-z
_cell_length_a                   8.489(4)
_cell_length_b                   11.482(6)
_cell_length_c                   14.705(10)
_cell_angle_alpha                84.29(5)
_cell_angle_beta                 86.40(4)
_cell_angle_gamma                81.15(4)
_cell_volume                     1407.57
_exptl_crystal_colour            colorless
_exptl_crystal_description       block
_cell_formula_units_Z            2
loop_
_atom_site_label
_atom_site_type_symbol
_atom_site_fract_x
_atom_site_fract_y
_atom_site_fract_z
Li1 Li 0.3220(9) 0.2318(7) 0.2788(5)
N1 N 0.0544(4) 0.1822(3) 0.0993(2)
N2 N 0.2336(4) 0.1102(3) 0.2158(2)
O1 O 0.4678(5) 0.2125(4) 0.3759(3)
O2 O 0.3979(4) 0.3620(3) 0.1990(2)
Si1 Si 0.28892(16) -0.03995(11) 0.21200(9)
C1 C 0.0311(5) 0.2732(4) 0.2425(3)
C2 C -0.0399(5) 0.3935(4) 0.2158(3)
C3 C -0.0594(5) 0.4600(4) 0.1311(3)
H1 H -0.0277 0.4241 0.0768
C4 C -0.1246(6) 0.5776(4) 0.1271(4)
H2 H -0.1381 0.6211 0.0698
C5 C -0.1712(6) 0.6339(4) 0.2067(4)
H3 H -0.2149 0.7145 0.2026
C6 C -0.1533(6) 0.5715(4) 0.2905(4)
H4 H -0.1849 0.6093 0.3439
C7 C -0.0880(5) 0.4519(4) 0.2968(3)
C8 C -0.0534(5) 0.3675(4) 0.3746(3)
C9 C -0.0845(5) 0.3762(4) 0.4682(3)
H5 H -0.1309 0.4487 0.4896
C10 C -0.0472(6) 0.2790(5) 0.5287(3)
H6 H -0.0681 0.2848 0.5918
C11 C 0.0224(6) 0.1705(5) 0.4972(3)
H7 H 0.0458 0.1040 0.5395
C12 C 0.0570(5) 0.1595(4) 0.4053(3)
H8 H 0.1050 0.0866 0.3852
C13 C 0.0198(5) 0.2585(4) 0.3418(3)
C14 C 0.1080(5) 0.1825(3) 0.1864(3)
C15 C -0.1132(6) 0.2064(5) 0.0809(3)
H9 H -0.1533 0.1324 0.0770
H10 H -0.1273 0.2551 0.0234
H11 H -0.1715 0.2478 0.1298
C16 C 0.1558(6) 0.1242(4) 0.0286(3)
H12 H 0.2669 0.1247 0.0402
H13 H 0.1320 0.1661 -0.0307
H14 H 0.1362 0.0431 0.0291
C17 C 0.1138(7) -0.1154(5) 0.1932(4)
H15 H 0.0370 -0.1066 0.2447
H16 H 0.1501 -0.1989 0.1877
H17 H 0.0638 -0.0798 0.1375
C18 C 0.3642(6) -0.1016(4) 0.3258(3)
H18 H 0.4396 -0.0538 0.3439
H19 H 0.4168 -0.1823 0.3220
H20 H 0.2755 -0.1008 0.3707
C19 C 0.4578(7) -0.0807(5) 0.1274(4)
H21 H 0.4202 -0.0637 0.0658
H22 H 0.4979 -0.1645 0.1380
H23 H 0.5427 -0.0351 0.1344
C20 C 0.3599(6) 0.3821(5) 0.1047(3)
H24 H 0.3299 0.4673 0.0890
H25 H 0.2675 0.3435 0.0957
C21 C 0.4936(7) 0.3372(6) 0.0419(4)
H26 H 0.5838 0.3779 0.0482
H27 H 0.4604 0.3512 -0.0206
H28 H 0.5243 0.2529 0.0571
C22 C 0.4658(8) 0.4548(6) 0.2322(5)
H29 H 0.5338 0.4891 0.1836
H30 H 0.5326 0.4227 0.2835
C23 C 0.3386(12) 0.5483(7) 0.2627(6)
H31 H 0.2792 0.5854 0.2106
H32 H 0.3864 0.6074 0.2897
H33 H 0.2670 0.5133 0.3077
C24 C 0.4779(14) 0.3628(12) 0.4965(8)
H34 H 0.4257 0.3840 0.5544
H35 H 0.4588 0.4296 0.4508
H36 H 0.5917 0.3414 0.5038
C25 C 0.4097(15) 0.2563(12) 0.4656(7)
H37 H 0.4313 0.1901 0.5128
H38 H 0.2935 0.2778 0.4644
C26 C 0.6722(16) 0.1264(17) 0.3015(7)
H39 H 0.7771 0.0789 0.3017
H40 H 0.6787 0.2024 0.2674
H41 H 0.5990 0.0857 0.2730
C27 C 0.6114(12) 0.1455(11) 0.4006(7)
H42 H 0.5975 0.0715 0.4374
H43 H 0.6783 0.1899 0.4318
C28? C 0.6302(16) 0.1753(16) 0.3406(14)
H44? H 0.6963 0.2087 0.3807
H45? H 0.6366 0.2225 0.2816
C29? C 0.729(2) 0.0550(15) 0.3226(16)
C30? C 0.460(5) 0.1769(16) 0.4704(8)
C31? C 0.4108(19) 0.3071(15) 0.4861(15)
H46? H 0.8394 0.0647 0.3089
H47? H 0.6874 0.0247 0.2711
H48? H 0.7212 -0.0004 0.3765
H49? H 0.5628 0.1418 0.4951
H50? H 0.3773 0.1273 0.4893
H51? H 0.3900 0.3146 0.5510
H52? H 0.3150 0.3383 0.4538
H53? H 0.4962 0.3511 0.4635
loop_
_geom_bond_atom_site_label_1
_geom_bond_atom_site_label_2
_geom_bond_site_symmetry_1
_geom_bond_site_symmetry_2
Li1 N2 1_555 1_555
N1 C14 1_555 1_555
N2 Si1 1_555 1_555
O1 Li1 1_555 1_555
O2 Li1 1_555 1_555
Si1 C17 1_555 1_555
C1 Li1 1_555 1_555
C2 C1 1_555 1_555
C3 C2 1_555 1_555
H1 C3 1_555 1_555
C4 C3 1_555 1_555
H2 C4 1_555 1_555
C5 C4 1_555 1_555
H3 C5 1_555 1_555
C6 C5 1_555 1_555
H4 C6 1_555 1_555
C7 C2 1_555 1_555
C8 C7 1_555 1_555
C9 C8 1_555 1_555
H5 C9 1_555 1_555
C10 C9 1_555 1_555
H6 C10 1_555 1_555
C11 C10 1_555 1_555
H7 C11 1_555 1_555
C12 C11 1_555 1_555
H8 C12 1_555 1_555
C13 C1 1_555 1_555
C14 Li1 1_555 1_555
C15 N1 1_555 1_555
H9 C15 1_555 1_555
H10 C15 1_555 1_555
H11 C15 1_555 1_555
C16 N1 1_555 1_555
H12 C16 1_555 1_555
H13 C16 1_555 1_555
H14 C16 1_555 1_555
C17 H15 1_555 1_555
H16 C17 1_555 1_555
H17 C17 1_555 1_555
C18 Si1 1_555 1_555
H18 C18 1_555 1_555
H19 C18 1_555 1_555
H20 C18 1_555 1_555
C19 Si1 1_555 1_555
H21 C19 1_555 1_555
H22 C19 1_555 1_555
H23 C19 1_555 1_555
C20 O2 1_555 1_555
H24 C20 1_555 1_555
H25 C20 1_555 1_555
C21 C20 1_555 1_555
H26 C21 1_555 1_555
H27 C21 1_555 1_555
H28 C21 1_555 1_555
C22 O2 1_555 1_555
H29 C22 1_555 1_555
H30 C22 1_555 1_555
C23 C22 1_555 1_555
H31 C23 1_555 1_555
H32 C23 1_555 1_555
H33 C23 1_555 1_555
C24 H34 1_555 1_555
H35 C24 1_555 1_555
H36 C24 1_555 1_555
C25 O1 1_555 1_555
H37 C25 1_555 1_555
H38 C25 1_555 1_555
C26 H39 1_555 1_555
H40 C26 1_555 1_555
H41 C26 1_555 1_555
C27 O1 1_555 1_555
H42 C27 1_555 1_555
H43 C27 1_555 1_555
N2 C14 1_555 1_555
C1 C14 1_555 1_555
C6 C7 1_555 1_555
C8 C13 1_555 1_555
C12 C13 1_555 1_555
C24 C25 1_555 1_555
C26 C27 1_555 1_555

#END
