
#######################################################################
#
#                 Cambridge Crystallographic Data Centre
#                                CCDC 
#
#######################################################################
#
# If this CIF has been generated from an entry in the Cambridge 
# Structural Database, then it will include bibliographic, chemical, 
# crystal, experimental, refinement or atomic coordinate data resulting 
# from the CCDC's data processing and validation procedures.
#
#######################################################################

data_IPIWIP
_chemical_formula_moiety         'C25 H22 N4 O2 S1'
_chemical_name_systematic        
1-benzyl-5-((4-methylphenyl)sulfonyl)-6-phenyl-4,5-dihydro-1H-[1,2,3]triazolo[4,5-c]pyridine
_symmetry_cell_setting           orthorhombic
_symmetry_space_group_name_H-M   'P b c a'
_symmetry_Int_Tables_number      61
_space_group_name_Hall           '-P 2ac 2ab'
loop_
_symmetry_equiv_pos_site_id
_symmetry_equiv_pos_as_xyz
1 x,y,z
2 1/2+x,1/2-y,-z
3 -x,1/2+y,1/2-z
4 1/2-x,-y,1/2+z
5 -x,-y,-z
6 1/2-x,1/2+y,z
7 x,1/2-y,1/2+z
8 1/2+x,y,1/2-z
_cell_length_a                   19.1187(5)
_cell_length_b                   10.2219(2)
_cell_length_c                   21.9587(5)
_cell_angle_alpha                90
_cell_angle_beta                 90
_cell_angle_gamma                90
_cell_volume                     4291.38
_exptl_crystal_colour            yellow
_exptl_crystal_description       Block
_cell_formula_units_Z            8
loop_
_atom_site_label
_atom_site_type_symbol
_atom_site_fract_x
_atom_site_fract_y
_atom_site_fract_z
S1 S 0.10594(2) 0.01699(3) 0.17212(2)
O1 O 0.04709(6) -0.06799(10) 0.17859(5)
O2 O 0.17539(6) -0.03390(10) 0.17810(4)
N1 N 0.09759(5) 0.13013(11) 0.22560(5)
N2 N -0.02270(6) 0.39057(11) 0.17261(5)
N3 N 0.00457(6) 0.50101(11) 0.15183(5)
N4 N 0.07401(6) 0.49874(10) 0.16406(5)
C1 C 0.02809(6) 0.19299(13) 0.23145(6)
H1 H 0.0173 0.2089 0.2749
H2 H -0.0085 0.1351 0.2144
C2 C 0.02943(7) 0.31960(13) 0.19753(6)
C3 C 0.09142(7) 0.38592(12) 0.19262(6)
C4 C 0.15545(7) 0.33935(12) 0.21940(6)
H3 H 0.1946 0.3954 0.2245
C5 C 0.15766(6) 0.21276(12) 0.23695(5)
C6 C 0.21497(6) 0.15539(12) 0.27311(6)
C7 C 0.20262(7) 0.05106(13) 0.31290(6)
H4 H 0.1576 0.0120 0.3147
C8 C 0.25611(8) 0.00453(14) 0.34974(6)
H5 H 0.2475 -0.0663 0.3767
C9 C 0.32192(7) 0.06065(14) 0.34748(7)
H6 H 0.3583 0.0286 0.3729
C10 C 0.33457(7) 0.16367(14) 0.30807(7)
H7 H 0.3797 0.2024 0.3065
C11 C 0.28176(7) 0.21046(13) 0.27094(6)
H8 H 0.2910 0.2806 0.2437
C12 C 0.11837(8) 0.60823(13) 0.14633(6)
H9 H 0.1659 0.5937 0.1629
H10 H 0.0997 0.6891 0.1651
C13 C 0.12396(7) 0.62889(13) 0.07836(6)
C14 C 0.09775(8) 0.54150(15) 0.03590(7)
H11 H 0.0759 0.4630 0.0491
C15 C 0.10338(9) 0.56848(17) -0.02584(7)
H12 H 0.0849 0.5086 -0.0547
C16 C 0.13555(8) 0.68129(16) -0.04556(7)
H13 H 0.1393 0.6991 -0.0879
C17 C 0.16234(8) 0.76846(15) -0.00361(7)
H14 H 0.1848 0.8462 -0.0170
C18 C 0.15642(7) 0.74240(14) 0.05818(6)
H15 H 0.1747 0.8028 0.0869
C19 C 0.09990(7) 0.09025(13) 0.09949(6)
C20 C 0.03466(7) 0.11146(15) 0.07338(7)
H16 H -0.0067 0.0932 0.0958
C21 C 0.03041(8) 0.15932(15) 0.01458(7)
H17 H -0.0143 0.1747 -0.0030
C22 C 0.09001(8) 0.18532(13) -0.01928(6)
C23 C 0.15454(8) 0.16646(15) 0.00816(7)
H18 H 0.1959 0.1861 -0.0140
C24 C 0.16002(7) 0.11945(15) 0.06734(7)
H19 H 0.2047 0.1075 0.0855
C25 C 0.08369(10) 0.23039(16) -0.08441(7)
H20 H 0.1297 0.2579 -0.0993
H21 H 0.0511 0.3042 -0.0866
H22 H 0.0662 0.1583 -0.1096
loop_
_geom_bond_atom_site_label_1
_geom_bond_atom_site_label_2
_geom_bond_site_symmetry_1
_geom_bond_site_symmetry_2
S1 O1 1_555 1_555
O2 S1 1_555 1_555
N1 S1 1_555 1_555
N2 N3 1_555 1_555
N3 N4 1_555 1_555
N4 C3 1_555 1_555
C1 N1 1_555 1_555
H1 C1 1_555 1_555
H2 C1 1_555 1_555
C2 N2 1_555 1_555
C3 C2 1_555 1_555
C4 C3 1_555 1_555
H3 C4 1_555 1_555
C5 N1 1_555 1_555
C6 C5 1_555 1_555
C7 C6 1_555 1_555
H4 C7 1_555 1_555
C8 C7 1_555 1_555
H5 C8 1_555 1_555
C9 C8 1_555 1_555
H6 C9 1_555 1_555
C10 C9 1_555 1_555
H7 C10 1_555 1_555
C11 C6 1_555 1_555
H8 C11 1_555 1_555
C12 N4 1_555 1_555
H9 C12 1_555 1_555
H10 C12 1_555 1_555
C13 C12 1_555 1_555
C14 C13 1_555 1_555
H11 C14 1_555 1_555
C15 C14 1_555 1_555
H12 C15 1_555 1_555
C16 C15 1_555 1_555
H13 C16 1_555 1_555
C17 C16 1_555 1_555
H14 C17 1_555 1_555
C18 C13 1_555 1_555
H15 C18 1_555 1_555
C19 S1 1_555 1_555
C20 C19 1_555 1_555
H16 C20 1_555 1_555
C21 C20 1_555 1_555
H17 C21 1_555 1_555
C22 C21 1_555 1_555
C23 C22 1_555 1_555
H18 C23 1_555 1_555
C24 C19 1_555 1_555
H19 C24 1_555 1_555
C25 C22 1_555 1_555
H20 C25 1_555 1_555
H21 C25 1_555 1_555
H22 C25 1_555 1_555
C1 C2 1_555 1_555
C4 C5 1_555 1_555
C10 C11 1_555 1_555
C17 C18 1_555 1_555
C23 C24 1_555 1_555

#END
