
#######################################################################
#
#                 Cambridge Crystallographic Data Centre
#                                CCDC 
#
#######################################################################
#
# If this CIF has been generated from an entry in the Cambridge 
# Structural Database, then it will include bibliographic, chemical, 
# crystal, experimental, refinement or atomic coordinate data resulting 
# from the CCDC's data processing and validation procedures.
#
#######################################################################

data_IPOBOG
_chemical_formula_moiety         'C21 H17 N1 O1'
_chemical_name_systematic        3-(4-methoxyphenyl)-2-phenyl-1H-indole
_symmetry_cell_setting           orthorhombic
_symmetry_space_group_name_H-M   'P n a 21'
_symmetry_Int_Tables_number      33
_space_group_name_Hall           'P 2c -2n'
loop_
_symmetry_equiv_pos_site_id
_symmetry_equiv_pos_as_xyz
1 x,y,z
2 -x,-y,1/2+z
3 1/2-x,1/2+y,1/2+z
4 1/2+x,1/2-y,z
_cell_length_a                   9.2902(9)
_cell_length_b                   18.1269(13)
_cell_length_c                   9.1449(6)
_cell_angle_alpha                90
_cell_angle_beta                 90
_cell_angle_gamma                90
_cell_volume                     1540.02
_cell_formula_units_Z            4
loop_
_atom_site_label
_atom_site_type_symbol
_atom_site_fract_x
_atom_site_fract_y
_atom_site_fract_z
C1 C 0.3568(6) 0.2862(3) 0.7466(6)
C2 C 0.3725(6) 0.3516(3) 0.8383(7)
C3 C 0.3987(7) 0.3594(3) 0.9861(8)
H1 H 0.4141 0.3173 1.0460
C4 C 0.4024(8) 0.4308(5) 1.0466(8)
H2 H 0.4194 0.4377 1.1481
C5 C 0.3800(7) 0.4924(3) 0.9522(9)
H3 H 0.3851 0.5410 0.9911
C6 C 0.3519(7) 0.4829(3) 0.8087(8)
H4 H 0.3350 0.5241 0.7470
C7 C 0.3482(7) 0.4125(3) 0.7537(7)
C8 C 0.3235(6) 0.3126(3) 0.6132(7)
C9 C 0.3668(6) 0.2080(3) 0.7977(6)
C10 C 0.4871(7) 0.1850(3) 0.8744(7)
H5 H 0.5656 0.2182 0.8852
C11 C 0.4971(6) 0.1155(3) 0.9358(6)
H6 H 0.5815 0.1010 0.9869
C12 C 0.3812(6) 0.0669(3) 0.9219(6)
C13 C 0.2593(6) 0.0876(3) 0.8433(6)
H7 H 0.1809 0.0545 0.8324
C14 C 0.2541(6) 0.1577(3) 0.7812(6)
H8 H 0.1718 0.1716 0.7261
C15 C 0.4947(8) -0.0211(3) 1.0794(7)
H9 H 0.5846 -0.0240 1.0237
H10 H 0.4750 -0.0689 1.1253
H11 H 0.5038 0.0168 1.1553
C16 C 0.2926(7) 0.2707(3) 0.4741(7)
C17 C 0.3542(8) 0.2040(3) 0.4446(7)
H12 H 0.4182 0.1827 0.5138
C18 C 0.3251(9) 0.1670(4) 0.3161(8)
H13 H 0.3713 0.1213 0.2965
C19 C 0.2324(8) 0.1950(4) 0.2187(8)
H14 H 0.2060 0.1667 0.1355
C20 C 0.1761(10) 0.2626(4) 0.2371(8)
H15 H 0.1172 0.2837 0.1631
C21 C 0.2048(9) 0.3020(4) 0.3666(9)
H16 H 0.1647 0.3496 0.3809
N1 N 0.3182(6) 0.3874(3) 0.6109(7)
O1 O 0.3787(4) -0.00226(19) 0.9831(5)
H17 H 0.287(14) 0.408(5) 0.532(12)
loop_
_geom_bond_atom_site_label_1
_geom_bond_atom_site_label_2
_geom_bond_site_symmetry_1
_geom_bond_site_symmetry_2
C1 C2 1_555 1_555
C2 C3 1_555 1_555
C3 H1 1_555 1_555
C4 C3 1_555 1_555
H2 C4 1_555 1_555
C5 C4 1_555 1_555
H3 C5 1_555 1_555
C6 C5 1_555 1_555
H4 C6 1_555 1_555
C7 C2 1_555 1_555
C8 C1 1_555 1_555
C9 C1 1_555 1_555
C10 C9 1_555 1_555
H5 C10 1_555 1_555
C11 C10 1_555 1_555
H6 C11 1_555 1_555
C12 C11 1_555 1_555
C13 C12 1_555 1_555
H7 C13 1_555 1_555
C14 C9 1_555 1_555
H8 C14 1_555 1_555
C15 H9 1_555 1_555
H10 C15 1_555 1_555
H11 C15 1_555 1_555
C16 C8 1_555 1_555
C17 C16 1_555 1_555
H12 C17 1_555 1_555
C18 C17 1_555 1_555
H13 C18 1_555 1_555
C19 C18 1_555 1_555
H14 C19 1_555 1_555
C20 C19 1_555 1_555
H15 C20 1_555 1_555
C21 C16 1_555 1_555
H16 C21 1_555 1_555
N1 C7 1_555 1_555
O1 C12 1_555 1_555
H17 N1 1_555 1_555
C6 C7 1_555 1_555
C8 N1 1_555 1_555
C13 C14 1_555 1_555
C15 O1 1_555 1_555
C20 C21 1_555 1_555

#END
