
#######################################################################
#
#                 Cambridge Crystallographic Data Centre
#                                CCDC 
#
#######################################################################
#
# If this CIF has been generated from an entry in the Cambridge 
# Structural Database, then it will include bibliographic, chemical, 
# crystal, experimental, refinement or atomic coordinate data resulting 
# from the CCDC's data processing and validation procedures.
#
#######################################################################

data_IPOBEV
_chemical_formula_moiety         'C28 H27 N1 O6'
_chemical_name_systematic        
'Trimethyl 3-((diphenylmethylene)amino)-2-phenylpropane-1,1,3-tricarboxylate'
_symmetry_cell_setting           orthorhombic
_symmetry_space_group_name_H-M   'P 21 21 21'
_symmetry_Int_Tables_number      19
_space_group_name_Hall           'P 2ac 2ab'
loop_
_symmetry_equiv_pos_site_id
_symmetry_equiv_pos_as_xyz
1 x,y,z
2 1/2-x,-y,1/2+z
3 -x,1/2+y,1/2-z
4 1/2+x,1/2-y,-z
_cell_length_a                   10.4200(17)
_cell_length_b                   12.888(2)
_cell_length_c                   19.103(3)
_cell_angle_alpha                90
_cell_angle_beta                 90
_cell_angle_gamma                90
_cell_volume                     2565.4
_exptl_crystal_colour            colorless
_exptl_crystal_description       prismatic
_cell_formula_units_Z            4
loop_
_atom_site_label
_atom_site_type_symbol
_atom_site_fract_x
_atom_site_fract_y
_atom_site_fract_z
O1 O 0.1640(3) 0.1591(2) 0.37324(14)
O2 O 0.1393(3) 0.32968(19) 0.36328(13)
O3 O 0.4591(3) 0.20807(19) 0.40693(13)
O4 O 0.4958(3) 0.35763(17) 0.35446(13)
O5 O 0.0285(2) 0.1601(2) 0.22644(15)
O6 O 0.1467(2) 0.01609(17) 0.24062(13)
N1 N 0.2360(2) 0.26495(18) 0.17004(12)
C1 C 0.2538(3) 0.1621(2) 0.20031(14)
H1 H 0.2895 0.1168 0.1640
C2 C 0.3538(3) 0.1698(2) 0.26079(13)
H2 H 0.3497 0.1049 0.2874
C3 C 0.3232(3) 0.2597(2) 0.31201(14)
H3 H 0.3151 0.3245 0.2855
C4 C 0.1996(3) 0.2407(3) 0.35268(15)
C5 C 0.0180(5) 0.3207(4) 0.4008(3)
H4 H -0.0382 0.2747 0.3758
H5 H -0.0212 0.3878 0.4045
H6 H 0.0335 0.2935 0.4468
C6 C 0.4321(3) 0.2702(2) 0.36398(17)
C7 C 0.6098(5) 0.3716(3) 0.3976(3)
H7 H 0.5871 0.3651 0.4461
H8 H 0.6453 0.4393 0.3893
H9 H 0.6722 0.3197 0.3857
C8 C 0.1292(4) 0.1164(3) 0.22391(16)
C9 C 0.0368(4) -0.0369(3) 0.2719(2)
H10 H 0.0173 -0.0058 0.3163
H11 H 0.0571 -0.1089 0.2785
H12 H -0.0360 -0.0307 0.2414
C10 C 0.4882(3) 0.1793(2) 0.23132(13)
C11 C 0.5705(3) 0.0962(3) 0.23402(18)
H13 H 0.5433 0.0342 0.2540
C12 C 0.6933(4) 0.1038(4) 0.2074(2)
H14 H 0.7483 0.0471 0.2103
C13 C 0.7345(4) 0.1922(4) 0.17731(19)
H15 H 0.8173 0.1965 0.1594
C14 C 0.6543(4) 0.2753(3) 0.17336(19)
H16 H 0.6827 0.3366 0.1529
C15 C 0.5320(3) 0.2692(3) 0.19932(18)
H17 H 0.4775 0.3260 0.1954
C16 C 0.2200(3) 0.2747(2) 0.10439(14)
C17 C 0.2084(3) 0.1865(2) 0.05435(14)
C18 C 0.0897(4) 0.1420(3) 0.04238(18)
H18 H 0.0174 0.1679 0.0649
C19 C 0.0784(5) 0.0592(3) -0.0029(2)
H19 H -0.0016 0.0294 -0.0109
C20 C 0.1833(7) 0.0212(3) -0.0357(2)
H20 H 0.1746 -0.0347 -0.0661
C21 C 0.3013(5) 0.0632(3) -0.02492(19)
H21 H 0.3727 0.0359 -0.0476
C22 C 0.3145(4) 0.1473(3) 0.02017(15)
H22 H 0.3948 0.1771 0.0273
C23 C 0.2129(3) 0.3822(2) 0.07508(14)
C24 C 0.1877(4) 0.4003(2) 0.00602(16)
H23 H 0.1723 0.3444 -0.0237
C25 C 0.1846(4) 0.4998(3) -0.02065(18)
H24 H 0.1676 0.5107 -0.0679
C26 C 0.2066(5) 0.5821(3) 0.0224(2)
H25 H 0.2027 0.6494 0.0050
C27 C 0.2345(4) 0.5653(3) 0.0916(2)
H26 H 0.2515 0.6211 0.1210
C28 C 0.2373(4) 0.4664(2) 0.11745(16)
H27 H 0.2561 0.4558 0.1645
loop_
_geom_bond_atom_site_label_1
_geom_bond_atom_site_label_2
_geom_bond_site_symmetry_1
_geom_bond_site_symmetry_2
O1 C4 1_555 1_555
O2 C4 1_555 1_555
O3 C6 1_555 1_555
O4 C6 1_555 1_555
O5 C8 1_555 1_555
O6 C8 1_555 1_555
N1 C1 1_555 1_555
C1 H1 1_555 1_555
C2 C1 1_555 1_555
H2 C2 1_555 1_555
C3 C2 1_555 1_555
H3 C3 1_555 1_555
C4 C3 1_555 1_555
C5 O2 1_555 1_555
H4 C5 1_555 1_555
H5 C5 1_555 1_555
H6 C5 1_555 1_555
C6 C3 1_555 1_555
C7 O4 1_555 1_555
H7 C7 1_555 1_555
H8 C7 1_555 1_555
H9 C7 1_555 1_555
C8 C1 1_555 1_555
C9 O6 1_555 1_555
H10 C9 1_555 1_555
H11 C9 1_555 1_555
H12 C9 1_555 1_555
C10 C2 1_555 1_555
C11 C10 1_555 1_555
H13 C11 1_555 1_555
C12 C11 1_555 1_555
H14 C12 1_555 1_555
C13 C12 1_555 1_555
H15 C13 1_555 1_555
C14 C13 1_555 1_555
H16 C14 1_555 1_555
C15 C10 1_555 1_555
H17 C15 1_555 1_555
C16 N1 1_555 1_555
C17 C16 1_555 1_555
C18 C17 1_555 1_555
H18 C18 1_555 1_555
C19 C18 1_555 1_555
H19 C19 1_555 1_555
C20 C19 1_555 1_555
H20 C20 1_555 1_555
C21 C20 1_555 1_555
H21 C21 1_555 1_555
C22 C17 1_555 1_555
H22 C22 1_555 1_555
C23 C16 1_555 1_555
C24 C23 1_555 1_555
H23 C24 1_555 1_555
C25 C24 1_555 1_555
H24 C25 1_555 1_555
C26 C25 1_555 1_555
H25 C26 1_555 1_555
C27 C26 1_555 1_555
H26 C27 1_555 1_555
C28 C23 1_555 1_555
H27 C28 1_555 1_555
C14 C15 1_555 1_555
C21 C22 1_555 1_555
C27 C28 1_555 1_555

#END
