
#######################################################################
#
#                 Cambridge Crystallographic Data Centre
#                                CCDC 
#
#######################################################################
#
# If this CIF has been generated from an entry in the Cambridge 
# Structural Database, then it will include bibliographic, chemical, 
# crystal, experimental, refinement or atomic coordinate data resulting 
# from the CCDC's data processing and validation procedures.
#
#######################################################################

data_IPOTIS
_chemical_formula_moiety         'C36 H46'
_chemical_name_systematic        
4,4''-bis(4-propylcyclohexyl)-1,1':3',1''-terphenyl
_symmetry_cell_setting           monoclinic
_symmetry_space_group_name_H-M   'P 21/n'
_symmetry_Int_Tables_number      14
_space_group_name_Hall           '-P 2yn'
loop_
_symmetry_equiv_pos_site_id
_symmetry_equiv_pos_as_xyz
1 x,y,z
2 1/2-x,1/2+y,1/2-z
3 -x,-y,-z
4 1/2+x,1/2-y,1/2+z
_cell_length_a                   11.1817(10)
_cell_length_b                   6.9046(4)
_cell_length_c                   37.409(3)
_cell_angle_alpha                90
_cell_angle_beta                 91.463(3)
_cell_angle_gamma                90
_cell_volume                     2887.23
_exptl_crystal_colour            colorless
_exptl_crystal_description       blocks
_cell_formula_units_Z            4
loop_
_atom_site_label
_atom_site_type_symbol
_atom_site_fract_x
_atom_site_fract_y
_atom_site_fract_z
C1 C 0.78212(17) -0.0457(2) 0.48275(5)
H1 H 0.7530 -0.1675 0.4722
H2 H 0.8114 0.0386 0.4638
H3 H 0.8474 -0.0729 0.5000
C2 C 0.68063(15) 0.0546(2) 0.50164(4)
H4 H 0.6144 0.0788 0.4842
H5 H 0.6503 -0.0327 0.5203
C3 C 0.71771(14) 0.24500(19) 0.51875(4)
H6 H 0.7525 0.3282 0.5001
H7 H 0.7816 0.2185 0.5369
C4 C 0.61830(13) 0.35872(19) 0.53670(4)
H8 H 0.5563 0.3913 0.5179
C5 C 0.55724(13) 0.24672(19) 0.56596(4)
H9 H 0.6187 0.1998 0.5834
H10 H 0.5171 0.1320 0.5553
C6 C 0.46502(13) 0.36641(19) 0.58574(4)
H11 H 0.4328 0.2883 0.6055
H12 H 0.3978 0.3990 0.5691
C7 C 0.51933(13) 0.55340(18) 0.60098(4)
H13 H 0.5864 0.5145 0.6177
C8 C 0.57432(14) 0.66724(19) 0.57096(4)
H14 H 0.6120 0.7862 0.5808
H15 H 0.5106 0.7067 0.5536
C9 C 0.66797(14) 0.5487(2) 0.55179(4)
H16 H 0.7351 0.5197 0.5687
H17 H 0.7000 0.6267 0.5320
C10 C 0.43072(13) 0.66542(19) 0.62287(4)
C11 C 0.36832(13) 0.82782(19) 0.61029(4)
H18 H 0.3805 0.8717 0.5866
C12 C 0.28910(13) 0.92628(19) 0.63155(4)
H19 H 0.2481 1.0360 0.6221
C13 C 0.26801(12) 0.86888(18) 0.66643(4)
C14 C 0.32945(13) 0.70448(19) 0.67904(4)
H20 H 0.3166 0.6595 0.7026
C15 C 0.40845(13) 0.60683(19) 0.65765(4)
H21 H 0.4488 0.4961 0.6670
C16 C 0.18500(12) 0.97674(19) 0.68944(4)
C17 C 0.16832(13) 1.1766(2) 0.68610(4)
H22 H 0.2123 1.2468 0.6690
C18 C 0.08880(14) 1.2734(2) 0.70734(4)
H23 H 0.0782 1.4091 0.7046
C19 C 0.02439(13) 1.17473(19) 0.73267(4)
H24 H -0.0294 1.2434 0.7473
C20 C 0.03797(13) 0.97412(19) 0.73685(4)
C21 C 0.11854(12) 0.88039(19) 0.71496(4)
H25 H 0.1287 0.7445 0.7175
C22 C -0.03156(13) 0.86477(19) 0.76345(4)
C23 C 0.01684(13) 0.70178(19) 0.78065(4)
H26 H 0.0944 0.6582 0.7747
C24 C -0.04634(13) 0.60307(19) 0.80619(4)
H27 H -0.0107 0.4935 0.8175
C25 C -0.16058(13) 0.65937(19) 0.81578(4)
C26 C -0.20947(13) 0.82014(19) 0.79824(4)
H28 H -0.2876 0.8622 0.8039
C27 C -0.14663(13) 0.91942(19) 0.77276(4)
H29 H -0.1829 1.0280 0.7612
C28 C -0.22642(13) 0.54364(18) 0.84351(4)
H30 H -0.1657 0.5021 0.8621
C29 C -0.32315(13) 0.65527(19) 0.86282(4)
H31 H -0.2875 0.7717 0.8742
H32 H -0.3852 0.6986 0.8452
C30 C -0.38041(13) 0.53075(19) 0.89105(4)
H33 H -0.4429 0.6071 0.9030
H34 H -0.3190 0.4949 0.9094
C31 C -0.43648(13) 0.34659(18) 0.87553(4)
H35 H -0.5016 0.3863 0.8582
C32 C -0.34366(13) 0.23469(19) 0.85478(4)
H36 H -0.3833 0.1244 0.8424
H37 H -0.2830 0.1813 0.8718
C33 C -0.28093(13) 0.35887(18) 0.82722(4)
H38 H -0.3392 0.3950 0.8080
H39 H -0.2168 0.2817 0.8163
C34 C -0.49343(13) 0.22563(19) 0.90470(4)
H40 H -0.4297 0.1862 0.9221
H41 H -0.5500 0.3091 0.9176
C35 C -0.56013(13) 0.0446(2) 0.89230(4)
H42 H -0.6232 0.0815 0.8745
H43 H -0.5037 -0.0434 0.8804
C36 C -0.61714(15) -0.0621(2) 0.92302(4)
H44 H -0.6589 -0.1772 0.9138
H45 H -0.5549 -0.1013 0.9405
H46 H -0.6744 0.0236 0.9346
loop_
_geom_bond_atom_site_label_1
_geom_bond_atom_site_label_2
_geom_bond_site_symmetry_1
_geom_bond_site_symmetry_2
C1 H1 1_555 1_555
H2 C1 1_555 1_555
H3 C1 1_555 1_555
C2 C1 1_555 1_555
H4 C2 1_555 1_555
H5 C2 1_555 1_555
C3 C2 1_555 1_555
H6 C3 1_555 1_555
H7 C3 1_555 1_555
C4 C3 1_555 1_555
H8 C4 1_555 1_555
C5 C4 1_555 1_555
H9 C5 1_555 1_555
H10 C5 1_555 1_555
C6 C5 1_555 1_555
H11 C6 1_555 1_555
H12 C6 1_555 1_555
C7 C6 1_555 1_555
H13 C7 1_555 1_555
C8 C7 1_555 1_555
H14 C8 1_555 1_555
H15 C8 1_555 1_555
C9 C4 1_555 1_555
H16 C9 1_555 1_555
H17 C9 1_555 1_555
C10 C7 1_555 1_555
C11 C10 1_555 1_555
H18 C11 1_555 1_555
C12 C11 1_555 1_555
H19 C12 1_555 1_555
C13 C12 1_555 1_555
C14 C13 1_555 1_555
H20 C14 1_555 1_555
C15 C10 1_555 1_555
H21 C15 1_555 1_555
C16 C13 1_555 1_555
C17 C16 1_555 1_555
H22 C17 1_555 1_555
C18 C17 1_555 1_555
H23 C18 1_555 1_555
C19 C18 1_555 1_555
H24 C19 1_555 1_555
C20 C19 1_555 1_555
C21 C16 1_555 1_555
H25 C21 1_555 1_555
C22 C20 1_555 1_555
C23 C22 1_555 1_555
H26 C23 1_555 1_555
C24 C23 1_555 1_555
H27 C24 1_555 1_555
C25 C24 1_555 1_555
C26 C25 1_555 1_555
H28 C26 1_555 1_555
C27 C22 1_555 1_555
H29 C27 1_555 1_555
C28 C25 1_555 1_555
H30 C28 1_555 1_555
C29 C28 1_555 1_555
H31 C29 1_555 1_555
H32 C29 1_555 1_555
C30 C29 1_555 1_555
H33 C30 1_555 1_555
H34 C30 1_555 1_555
C31 C30 1_555 1_555
H35 C31 1_555 1_555
C32 C31 1_555 1_555
H36 C32 1_555 1_555
H37 C32 1_555 1_555
C33 C28 1_555 1_555
H38 C33 1_555 1_555
H39 C33 1_555 1_555
C34 C31 1_555 1_555
H40 C34 1_555 1_555
H41 C34 1_555 1_555
C35 C34 1_555 1_555
H42 C35 1_555 1_555
H43 C35 1_555 1_555
C36 C35 1_555 1_555
H44 C36 1_555 1_555
H45 C36 1_555 1_555
H46 C36 1_555 1_555
C8 C9 1_555 1_555
C14 C15 1_555 1_555
C20 C21 1_555 1_555
C26 C27 1_555 1_555
C32 C33 1_555 1_555

#END
