
#######################################################################
#
#                 Cambridge Crystallographic Data Centre
#                                CCDC 
#
#######################################################################
#
# If this CIF has been generated from an entry in the Cambridge 
# Structural Database, then it will include bibliographic, chemical, 
# crystal, experimental, refinement or atomic coordinate data resulting 
# from the CCDC's data processing and validation procedures.
#
#######################################################################

data_IPUDOO
_chemical_formula_moiety         'C18 H18 Br2 N2 O5'
_chemical_name_systematic        
'methyl 5,6-dibromo-1-hydroxy-2-(1-(isonicotinoyloxy)ethyl)-3-methyl-2,3-dihydro-1H-pyrrolizine-1-carboxylate'
_symmetry_cell_setting           orthorhombic
_symmetry_space_group_name_H-M   'P 21 21 21'
_symmetry_Int_Tables_number      19
_space_group_name_Hall           'P 2ac 2ab'
loop_
_symmetry_equiv_pos_site_id
_symmetry_equiv_pos_as_xyz
1 x,y,z
2 1/2-x,-y,1/2+z
3 -x,1/2+y,1/2-z
4 1/2+x,1/2-y,-z
_cell_length_a                   9.9911(7)
_cell_length_b                   10.4994(7)
_cell_length_c                   18.8049(13)
_cell_angle_alpha                90
_cell_angle_beta                 90
_cell_angle_gamma                90
_cell_volume                     1972.64
_exptl_crystal_colour            colorless
_exptl_crystal_description       block
_cell_formula_units_Z            4
loop_
_atom_site_label
_atom_site_type_symbol
_atom_site_fract_x
_atom_site_fract_y
_atom_site_fract_z
C1 C 0.6695(6) 0.6043(5) 0.1878(3)
H1 H 0.7129 0.6372 0.2307
C2 C 0.7597(6) 0.4976(5) 0.1540(2)
O1 O 0.7019(4) 0.3773(3) 0.1672(2)
H2 H 0.7459 0.3220 0.1472
C3 C 0.9024(7) 0.4941(5) 0.1810(3)
O2 O 0.9736(5) 0.4005(5) 0.1756(3)
O3 O 0.9441(4) 0.6019(4) 0.2099(2)
C4 C 1.0809(6) 0.6081(7) 0.2339(3)
H3 H 1.0978 0.5396 0.2665
H4 H 1.0960 0.6880 0.2574
H5 H 1.1400 0.6009 0.1939
C5 C 0.7611(5) 0.5351(5) 0.0762(3)
C6 C 0.8025(6) 0.4907(5) 0.0110(3)
H6 H 0.8510 0.4167 0.0022
C7 C 0.7576(6) 0.5783(5) -0.0396(3)
Br1 Br 0.77454(9) 0.56865(8) -0.13823(3)
C8 C 0.6929(6) 0.6742(6) -0.0032(3)
Br2 Br 0.59819(9) 0.81626(6) -0.03740(4)
N1 N 0.6965(5) 0.6480(4) 0.0669(2)
C9 C 0.6576(6) 0.7140(5) 0.1317(3)
H7 H 0.5642 0.7418 0.1280
C10 C 0.7466(7) 0.8277(5) 0.1452(3)
H8 H 0.8380 0.8001 0.1485
H9 H 0.7207 0.8680 0.1889
H10 H 0.7378 0.8872 0.1067
C11 C 0.5300(6) 0.5536(5) 0.2069(3)
H11 H 0.5398 0.4733 0.2329
C12 C 0.4473(6) 0.6453(6) 0.2513(3)
H12 H 0.4355 0.7236 0.2257
H13 H 0.4927 0.6621 0.2953
H14 H 0.3614 0.6082 0.2610
O4 O 0.4650(4) 0.5282(3) 0.1391(2)
C13 C 0.3786(6) 0.4325(5) 0.1348(3)
O5 O 0.3341(5) 0.3738(4) 0.1850(2)
C14 C 0.3440(6) 0.4037(5) 0.0589(3)
C15 C 0.2207(6) 0.3497(5) 0.0424(3)
H15 H 0.1569 0.3349 0.0775
C16 C 0.1963(7) 0.3190(6) -0.0274(3)
H16 H 0.1115 0.2888 -0.0389
N2 N 0.2852(6) 0.3294(5) -0.0798(2)
C17 C 0.4026(7) 0.3804(6) -0.0626(3)
H17 H 0.4670 0.3891 -0.0979
C18 C 0.4331(6) 0.4210(6) 0.0053(3)
H18 H 0.5149 0.4602 0.0143
loop_
_geom_bond_atom_site_label_1
_geom_bond_atom_site_label_2
_geom_bond_site_symmetry_1
_geom_bond_site_symmetry_2
C1 H1 1_555 1_555
C2 C1 1_555 1_555
O1 C2 1_555 1_555
H2 O1 1_555 1_555
C3 C2 1_555 1_555
O2 C3 1_555 1_555
O3 C3 1_555 1_555
C4 O3 1_555 1_555
H3 C4 1_555 1_555
H4 C4 1_555 1_555
H5 C4 1_555 1_555
C5 C2 1_555 1_555
C6 C5 1_555 1_555
H6 C6 1_555 1_555
C7 C6 1_555 1_555
Br1 C7 1_555 1_555
C8 C7 1_555 1_555
Br2 C8 1_555 1_555
N1 C5 1_555 1_555
C9 C1 1_555 1_555
H7 C9 1_555 1_555
C10 C9 1_555 1_555
H8 C10 1_555 1_555
H9 C10 1_555 1_555
H10 C10 1_555 1_555
C11 C1 1_555 1_555
H11 C11 1_555 1_555
C12 C11 1_555 1_555
H12 C12 1_555 1_555
H13 C12 1_555 1_555
H14 C12 1_555 1_555
O4 C11 1_555 1_555
C13 O4 1_555 1_555
O5 C13 1_555 1_555
C14 C13 1_555 1_555
C15 C14 1_555 1_555
H15 C15 1_555 1_555
C16 C15 1_555 1_555
H16 C16 1_555 1_555
N2 C16 1_555 1_555
C17 N2 1_555 1_555
H17 C17 1_555 1_555
C18 C14 1_555 1_555
H18 C18 1_555 1_555
C8 N1 1_555 1_555
N1 C9 1_555 1_555
C17 C18 1_555 1_555

#END
