
#######################################################################
#
#                 Cambridge Crystallographic Data Centre
#                                CCDC 
#
#######################################################################
#
# If this CIF has been generated from an entry in the Cambridge 
# Structural Database, then it will include bibliographic, chemical, 
# crystal, experimental, refinement or atomic coordinate data resulting 
# from the CCDC's data processing and validation procedures.
#
#######################################################################

data_IPUKUB
_chemical_formula_moiety         'C28 H38 O9'
_chemical_name_systematic        
'8-(3-furyl)-6,7,11-trihydroxy-1,1,5a,7a,10b-pentamethyl-3,10-dioxohexadecahydro-1H-cyclopenta[5,6]naphtho[2,1-c]oxepin-5-yl acetate'
_symmetry_cell_setting           orthorhombic
_symmetry_space_group_name_H-M   'P 21 21 21'
_symmetry_Int_Tables_number      19
_space_group_name_Hall           'P 2ac 2ab'
loop_
_symmetry_equiv_pos_site_id
_symmetry_equiv_pos_as_xyz
1 x,y,z
2 1/2-x,-y,1/2+z
3 1/2+x,1/2-y,-z
4 -x,1/2+y,1/2-z
_cell_length_a                   6.4698(2)
_cell_length_b                   15.2985(3)
_cell_length_c                   26.1064(5)
_cell_angle_alpha                90
_cell_angle_beta                 90
_cell_angle_gamma                90
_cell_volume                     2583.97
_cell_formula_units_Z            4
loop_
_atom_site_label
_atom_site_type_symbol
_atom_site_fract_x
_atom_site_fract_y
_atom_site_fract_z
O1 O 0.20005(16) 0.17762(7) 0.27566(4)
O2 O 0.04477(17) 0.19644(8) 0.44707(5)
H1 H -0.0084 0.1651 0.4689
O3 O 0.65596(18) 0.01302(8) 0.35638(5)
H2 H 0.7058 -0.0223 0.3362
O4 O 0.2157(2) 0.37836(8) 0.29791(4)
O5 O 0.2056(2) 0.36810(9) 0.21489(5)
C1 C 0.4482(2) 0.20484(9) 0.34413(5)
O6 O 0.1263(2) -0.02687(8) 0.32223(5)
H3 H 0.0649 -0.0725 0.3158
O7 O 0.1588(3) 0.04155(9) 0.52973(5)
C2 C 0.2651(2) 0.19156(9) 0.45134(5)
H4 H 0.3006 0.1919 0.4878
O8 O 0.2937(3) 0.10168(12) 0.20619(6)
C3 C 0.3618(2) 0.10805(9) 0.42690(5)
C4 C 0.3480(3) 0.27524(9) 0.42768(5)
H5 H 0.4949 0.2799 0.4346
H6 H 0.2800 0.3251 0.4433
C5 C 0.3655(2) 0.11584(9) 0.36721(5)
H7 H 0.2187 0.1160 0.3579
C6 C 0.3121(2) 0.27727(9) 0.36925(5)
H8 H 0.1692 0.2578 0.3644
O9 O 0.3872(3) -0.34731(8) 0.44012(6)
C7 C 0.2147(2) 0.02935(9) 0.43851(5)
H9 H 0.0722 0.0486 0.4326
C8 C 0.3042(3) -0.04563(9) 0.35307(5)
H10 H 0.3692 -0.0993 0.3404
C9 C 0.2471(2) -0.05820(9) 0.40979(5)
C10 C 0.4177(2) -0.10536(9) 0.44278(5)
H11 H 0.5517 -0.0791 0.4345
C11 C 0.0450(2) -0.11053(11) 0.41344(7)
H12 H -0.0664 -0.0765 0.3996
H13 H 0.0166 -0.1239 0.4487
H14 H 0.0585 -0.1639 0.3944
C12 C 0.1611(3) 0.12739(11) 0.23431(6)
C13 C 0.4142(2) 0.19963(9) 0.28573(5)
H15 H 0.5002 0.1520 0.2725
C14 C 0.4480(2) 0.03165(10) 0.34199(5)
H16 H 0.4470 0.0411 0.3049
C15 C 0.5753(2) 0.09944(11) 0.45296(6)
H17 H 0.6493 0.0514 0.4381
H18 H 0.5568 0.0892 0.4889
H19 H 0.6523 0.1524 0.4480
C16 C 0.6843(2) 0.21607(11) 0.35173(6)
H20 H 0.7499 0.1598 0.3509
H21 H 0.7102 0.2434 0.3842
H22 H 0.7390 0.2520 0.3248
C17 C 0.4619(3) 0.28168(10) 0.25420(6)
H23 H 0.5850 0.3094 0.2678
H24 H 0.4906 0.2647 0.2191
C18 C 0.3168(3) 0.37296(10) 0.34960(6)
C19 C 0.2877(3) 0.34620(10) 0.25460(6)
C20 C 0.4338(3) -0.20267(10) 0.43419(6)
C21 C 0.2343(3) 0.00239(10) 0.49417(6)
C22 C 0.3371(3) -0.26749(12) 0.45968(8)
H25 H 0.2477 -0.2588 0.4871
C23 C 0.3622(3) -0.07986(11) 0.49821(6)
H26 H 0.2836 -0.1261 0.5146
H27 H 0.4863 -0.0692 0.5181
C24 C 0.5558(3) -0.24556(11) 0.39643(6)
H28 H 0.6427 -0.2188 0.3728
C25 C 0.1627(6) 0.42817(13) 0.38059(8)
H29 H 0.1315 0.4808 0.3621
H30 H 0.2223 0.4428 0.4131
H31 H 0.0379 0.3954 0.3858
C26 C 0.5221(4) -0.33161(12) 0.40131(7)
H32 H 0.5825 -0.3745 0.3810
C27 C -0.0643(4) 0.10921(18) 0.22914(9)
H33 H -0.1205 0.1443 0.2020
H34 H -0.1329 0.1232 0.2607
H35 H -0.0845 0.0485 0.2214
C28 C 0.5236(5) 0.41973(13) 0.34788(8)
H36 H 0.6148 0.3895 0.3249
H37 H 0.5830 0.4207 0.3816
H38 H 0.5037 0.4786 0.3361
loop_
_geom_bond_atom_site_label_1
_geom_bond_atom_site_label_2
_geom_bond_site_symmetry_1
_geom_bond_site_symmetry_2
O1 C12 1_555 1_555
O2 H1 1_555 1_555
O3 H2 1_555 1_555
O4 C18 1_555 1_555
O5 C19 1_555 1_555
C1 C5 1_555 1_555
O6 H3 1_555 1_555
O7 C21 1_555 1_555
C2 O2 1_555 1_555
H4 C2 1_555 1_555
O8 C12 1_555 1_555
C3 C2 1_555 1_555
C4 C2 1_555 1_555
H5 C4 1_555 1_555
H6 C4 1_555 1_555
C5 C3 1_555 1_555
H7 C5 1_555 1_555
C6 C1 1_555 1_555
H8 C6 1_555 1_555
O9 C22 1_555 1_555
C7 C3 1_555 1_555
H9 C7 1_555 1_555
C8 O6 1_555 1_555
H10 C8 1_555 1_555
C9 C7 1_555 1_555
C10 C9 1_555 1_555
H11 C10 1_555 1_555
C11 C9 1_555 1_555
H12 C11 1_555 1_555
H13 C11 1_555 1_555
H14 C11 1_555 1_555
C12 C27 1_555 1_555
C13 O1 1_555 1_555
H15 C13 1_555 1_555
C14 O3 1_555 1_555
H16 C14 1_555 1_555
C15 C3 1_555 1_555
H17 C15 1_555 1_555
H18 C15 1_555 1_555
H19 C15 1_555 1_555
C16 C1 1_555 1_555
H20 C16 1_555 1_555
H21 C16 1_555 1_555
H22 C16 1_555 1_555
C17 C13 1_555 1_555
H23 C17 1_555 1_555
H24 C17 1_555 1_555
C18 C6 1_555 1_555
C19 O4 1_555 1_555
C20 C10 1_555 1_555
C21 C7 1_555 1_555
C22 C20 1_555 1_555
H25 C22 1_555 1_555
C23 C10 1_555 1_555
H26 C23 1_555 1_555
H27 C23 1_555 1_555
C24 C20 1_555 1_555
H28 C24 1_555 1_555
C25 C18 1_555 1_555
H29 C25 1_555 1_555
H30 C25 1_555 1_555
H31 C25 1_555 1_555
C26 O9 1_555 1_555
H32 C26 1_555 1_555
C27 H33 1_555 1_555
H34 C27 1_555 1_555
H35 C27 1_555 1_555
C28 C18 1_555 1_555
H36 C28 1_555 1_555
H37 C28 1_555 1_555
H38 C28 1_555 1_555
C1 C13 1_555 1_555
C4 C6 1_555 1_555
C5 C14 1_555 1_555
C8 C9 1_555 1_555
C8 C14 1_555 1_555
C17 C19 1_555 1_555
C21 C23 1_555 1_555
C24 C26 1_555 1_555

#END
