
#######################################################################
#
#                 Cambridge Crystallographic Data Centre
#                                CCDC 
#
#######################################################################
#
# If this CIF has been generated from an entry in the Cambridge 
# Structural Database, then it will include bibliographic, chemical, 
# crystal, experimental, refinement or atomic coordinate data resulting 
# from the CCDC's data processing and validation procedures.
#
#######################################################################

data_IPULAI
_chemical_formula_moiety         'C26 H34 O7'
_chemical_name_systematic        
8-(3-furyl)-6,7,11-trihydroxy-1,1,5a,7a,10b-pentamethyl-5a,5b,6,7,7a,8,9,10a,10b,11,12,12a-dodecahydro-1H-cyclopenta[5,6]naphtho[2,1-c]oxepine-3,10-dione
_symmetry_cell_setting           orthorhombic
_symmetry_space_group_name_H-M   'P 21 21 21'
_symmetry_Int_Tables_number      19
_space_group_name_Hall           'P 2ac 2ab'
loop_
_symmetry_equiv_pos_site_id
_symmetry_equiv_pos_as_xyz
1 x,y,z
2 1/2-x,-y,1/2+z
3 1/2+x,1/2-y,-z
4 -x,1/2+y,1/2-z
_cell_length_a                   8.06300(10)
_cell_length_b                   14.9648(2)
_cell_length_c                   20.7157(2)
_cell_angle_alpha                90
_cell_angle_beta                 90
_cell_angle_gamma                90
_cell_volume                     2499.58
_cell_formula_units_Z            4
loop_
_atom_site_label
_atom_site_type_symbol
_atom_site_fract_x
_atom_site_fract_y
_atom_site_fract_z
O1 O 0.50767(18) 0.75046(8) 0.01307(5)
H1 H 0.5350 0.7028 -0.0055
O2 O 0.07891(15) 0.90504(8) 0.05490(6)
H2 H -0.0231 0.9152 0.0587
O3 O 0.22981(17) 0.87487(9) 0.21998(6)
H3 H 0.1505 0.9002 0.2389
O4 O 0.75648(17) 0.94815(10) 0.06417(7)
O5 O 0.28908(19) 0.49659(9) 0.18609(7)
O6 O 0.0482(2) 0.45611(12) 0.22266(11)
C1 C 0.3000(2) 0.78253(11) 0.12525(7)
H4 H 0.2599 0.7776 0.0797
C2 C 0.5775(2) 0.75222(12) 0.07648(8)
H5 H 0.6949 0.7732 0.0734
C3 C 0.4673(2) 0.90882(11) 0.07816(7)
H6 H 0.4594 0.8933 0.0313
C4 C 0.3281(2) 0.97664(11) 0.09435(7)
C5 C 0.1633(2) 0.93276(11) 0.11279(8)
H7 H 0.0930 0.9779 0.1355
C6 C 0.1798(2) 0.84980(11) 0.15622(8)
H8 H 0.0683 0.8208 0.1593
C7 C 0.3991(2) 0.62196(11) 0.11167(7)
H9 H 0.3534 0.6241 0.0668
C8 C 0.2833(2) 0.68417(11) 0.15238(8)
C9 C 0.3034(3) 1.03752(12) 0.03557(9)
H10 H 0.4069 1.0694 0.0263
H11 H 0.2153 1.0808 0.0447
H12 H 0.2721 1.0013 -0.0019
C10 C 0.5762(2) 0.65878(11) 0.10619(8)
H13 H 0.6271 0.6611 0.1496
H14 H 0.6435 0.6181 0.0791
C11 C 0.5762(2) 0.83145(12) 0.18176(8)
H15 H 0.5236 0.8782 0.2078
H16 H 0.6907 0.8488 0.1719
H17 H 0.5763 0.7751 0.2059
C12 C 0.1094(2) 0.65367(12) 0.13466(8)
H18 H 0.0409 0.6956 0.1129
O7 O 0.2511(3) 1.26612(13) 0.16750(11)
C13 C 0.5886(2) 1.04132(13) 0.13311(10)
H19 H 0.6103 1.0988 0.1110
H20 H 0.6595 1.0378 0.1721
C14 C 0.6228(2) 0.96369(12) 0.08847(9)
C15 C 0.4787(2) 0.81915(11) 0.11823(7)
C16 C 0.4045(2) 1.03328(12) 0.15138(8)
H21 H 0.3978 0.9960 0.1914
C17 C 0.0438(3) 0.57354(13) 0.14676(11)
H22 H -0.0618 0.5604 0.1288
C18 C 0.3455(3) 0.46318(13) 0.07349(9)
H23 H 0.3490 0.3998 0.0854
H24 H 0.4216 0.4740 0.0374
H25 H 0.2324 0.4793 0.0606
C19 C 0.3152(3) 0.67792(13) 0.22615(8)
H26 H 0.2297 0.6405 0.2461
H27 H 0.3115 0.7379 0.2451
H28 H 0.4246 0.6514 0.2338
C20 C 0.3191(3) 1.12020(13) 0.16523(9)
C21 C 0.3972(2) 0.51959(12) 0.13097(8)
C22 C 0.5623(3) 0.48489(14) 0.15702(10)
H29 H 0.5478 0.4238 0.1731
H30 H 0.6001 0.5235 0.1923
H31 H 0.6450 0.4851 0.1224
C23 C 0.1392(3) 1.21723(17) 0.20915(16)
H32 H 0.0518 1.2417 0.2343
C24 C 0.1818(3) 1.13164(17) 0.20568(13)
H33 H 0.1264 1.0846 0.2277
C25 C 0.1240(3) 0.50472(14) 0.18595(11)
C26 C 0.3551(4) 1.20477(14) 0.14357(11)
H34 H 0.4436 1.2182 0.1149
loop_
_geom_bond_atom_site_label_1
_geom_bond_atom_site_label_2
_geom_bond_site_symmetry_1
_geom_bond_site_symmetry_2
O1 H1 1_555 1_555
O2 H2 1_555 1_555
O3 H3 1_555 1_555
O4 C14 1_555 1_555
O5 C21 1_555 1_555
O6 C25 1_555 1_555
C1 H4 1_555 1_555
C2 O1 1_555 1_555
H5 C2 1_555 1_555
C3 H6 1_555 1_555
C4 C3 1_555 1_555
C5 O2 1_555 1_555
H7 C5 1_555 1_555
C6 O3 1_555 1_555
H8 C6 1_555 1_555
C7 H9 1_555 1_555
C8 C1 1_555 1_555
C9 C4 1_555 1_555
H10 C9 1_555 1_555
H11 C9 1_555 1_555
H12 C9 1_555 1_555
C10 C2 1_555 1_555
H13 C10 1_555 1_555
H14 C10 1_555 1_555
C11 H15 1_555 1_555
H16 C11 1_555 1_555
H17 C11 1_555 1_555
C12 C8 1_555 1_555
H18 C12 1_555 1_555
O7 C23 1_555 1_555
C13 H19 1_555 1_555
H20 C13 1_555 1_555
C14 C3 1_555 1_555
C15 C1 1_555 1_555
C16 C4 1_555 1_555
H21 C16 1_555 1_555
C17 C12 1_555 1_555
H22 C17 1_555 1_555
C18 H23 1_555 1_555
H24 C18 1_555 1_555
H25 C18 1_555 1_555
C19 C8 1_555 1_555
H26 C19 1_555 1_555
H27 C19 1_555 1_555
H28 C19 1_555 1_555
C20 C16 1_555 1_555
C21 C7 1_555 1_555
C22 C21 1_555 1_555
H29 C22 1_555 1_555
H30 C22 1_555 1_555
H31 C22 1_555 1_555
C23 H32 1_555 1_555
C24 C20 1_555 1_555
H33 C24 1_555 1_555
C25 O5 1_555 1_555
C26 O7 1_555 1_555
H34 C26 1_555 1_555
C1 C6 1_555 1_555
C2 C15 1_555 1_555
C3 C15 1_555 1_555
C4 C5 1_555 1_555
C5 C6 1_555 1_555
C7 C8 1_555 1_555
C7 C10 1_555 1_555
C11 C15 1_555 1_555
C13 C14 1_555 1_555
C13 C16 1_555 1_555
C17 C25 1_555 1_555
C18 C21 1_555 1_555
C20 C26 1_555 1_555
C23 C24 1_555 1_555

#END
