
#######################################################################
#
#                 Cambridge Crystallographic Data Centre
#                                CCDC 
#
#######################################################################
#
# If this CIF has been generated from an entry in the Cambridge 
# Structural Database, then it will include bibliographic, chemical, 
# crystal, experimental, refinement or atomic coordinate data resulting 
# from the CCDC's data processing and validation procedures.
#
#######################################################################

data_IPUMIR
_chemical_formula_moiety         'C22 H19 N1 O4'
_chemical_name_systematic        
2-(4-nitrophenyl)-3-(2-phenylvinyl)-3,5,6,7-tetrahydro-1-benzofuran-4(2H)-one
_symmetry_cell_setting           monoclinic
_symmetry_space_group_name_H-M   'C c'
_symmetry_Int_Tables_number      9
_space_group_name_Hall           'C -2yc'
loop_
_symmetry_equiv_pos_site_id
_symmetry_equiv_pos_as_xyz
1 x,y,z
2 x,-y,1/2+z
3 1/2+x,1/2+y,z
4 1/2+x,1/2-y,1/2+z
_cell_length_a                   7.6114(15)
_cell_length_b                   24.482(5)
_cell_length_c                   10.557(2)
_cell_angle_alpha                90
_cell_angle_beta                 110.043(2)
_cell_angle_gamma                90
_cell_volume                     1848.07
_cell_formula_units_Z            4
loop_
_atom_site_label
_atom_site_type_symbol
_atom_site_fract_x
_atom_site_fract_y
_atom_site_fract_z
O1 O 0.4190(3) 1.06830(12) 0.4801(2)
C1 C 0.2346(4) 1.07130(14) 0.4633(3)
C2 C 0.5968(4) 1.08967(15) 0.7144(3)
C3 C 0.7478(5) 1.16960(16) 0.9043(4)
C4 C 0.1859(5) 1.04247(14) 0.5550(3)
O2 O -0.0544(4) 1.01376(14) 0.6319(4)
C5 C -0.0030(5) 1.04158(15) 0.5551(4)
O3 O 0.9035(7) 1.19894(18) 1.1229(4)
C6 C 0.6976(6) 1.07585(16) 0.8472(4)
H1 H 0.7143 1.0393 0.8720
C7 C 0.5119(5) 1.04479(15) 0.6142(4)
H2 H 0.6102 1.0195 0.6110
C8 C 0.1102(5) 1.10465(18) 0.3511(4)
H3 H 0.1321 1.0959 0.2682
H4 H 0.1368 1.1431 0.3701
C9 C 0.3582(5) 0.95205(16) 0.6185(4)
H5 H 0.4353 0.9303 0.6874
C10 C 0.2677(7) 0.86865(18) 0.4731(5)
C11 C 0.7736(6) 1.11595(17) 0.9430(4)
H6 H 0.8408 1.1066 1.0318
C12 C 0.2616(6) 0.92780(18) 0.5058(5)
H7 H 0.1806 0.9497 0.4391
N1 N 0.8251(6) 1.21251(17) 1.0058(4)
C13 C -0.1360(6) 1.0813(2) 0.4563(6)
H8 H -0.2618 1.0667 0.4310
H9 H -0.1344 1.1156 0.5029
C14 C 0.3550(5) 1.01231(15) 0.6460(4)
H10 H 0.3665 1.0181 0.7404
C15 C 0.5756(6) 1.14458(17) 0.6777(4)
H11 H 0.5114 1.1543 0.5887
C16 C 0.6503(7) 1.18490(17) 0.7741(5)
H12 H 0.6343 1.2216 0.7506
O4 O 0.8073(8) 1.25977(15) 0.9681(5)
C17 C -0.0965(7) 1.0927(3) 0.3346(5)
H13 H -0.1711 1.1239 0.2907
H14 H -0.1379 1.0617 0.2745
C18 C 0.3282(10) 0.8283(2) 0.5709(7)
H15 H 0.3689 0.8377 0.6618
C19 C 0.3281(13) 0.7731(3) 0.5327(11)
H16 H 0.3649 0.7459 0.5980
C20 C 0.2127(9) 0.8532(2) 0.3431(6)
H17 H 0.1684 0.8797 0.2767
C21 C 0.2731(13) 0.7598(3) 0.3979(11)
H18 H 0.2732 0.7235 0.3718
C22 C 0.2191(13) 0.7994(3) 0.3039(9)
H19 H 0.1863 0.7907 0.2130
loop_
_geom_bond_atom_site_label_1
_geom_bond_atom_site_label_2
_geom_bond_site_symmetry_1
_geom_bond_site_symmetry_2
O1 C1 1_555 1_555
C1 C4 1_555 1_555
C2 C6 1_555 1_555
C3 C11 1_555 1_555
C4 C5 1_555 1_555
O2 C5 1_555 1_555
C5 C13 1_555 1_555
O3 N1 1_555 1_555
C6 H1 1_555 1_555
C7 O1 1_555 1_555
H2 C7 1_555 1_555
C8 C1 1_555 1_555
H3 C8 1_555 1_555
H4 C8 1_555 1_555
C9 H5 1_555 1_555
C10 C12 1_555 1_555
C11 C6 1_555 1_555
H6 C11 1_555 1_555
C12 C9 1_555 1_555
H7 C12 1_555 1_555
N1 C3 1_555 1_555
C13 H8 1_555 1_555
H9 C13 1_555 1_555
C14 C4 1_555 1_555
H10 C14 1_555 1_555
C15 C2 1_555 1_555
H11 C15 1_555 1_555
C16 C3 1_555 1_555
H12 C16 1_555 1_555
O4 N1 1_555 1_555
C17 C8 1_555 1_555
H13 C17 1_555 1_555
H14 C17 1_555 1_555
C18 C10 1_555 1_555
H15 C18 1_555 1_555
C19 C18 1_555 1_555
H16 C19 1_555 1_555
C20 C10 1_555 1_555
H17 C20 1_555 1_555
C21 C19 1_555 1_555
H18 C21 1_555 1_555
C22 C20 1_555 1_555
H19 C22 1_555 1_555
C2 C7 1_555 1_555
C7 C14 1_555 1_555
C9 C14 1_555 1_555
C13 C17 1_555 1_555
C15 C16 1_555 1_555
C21 C22 1_555 1_555

#END
