
#######################################################################
#
#                 Cambridge Crystallographic Data Centre
#                                CCDC 
#
#######################################################################
#
# If this CIF has been generated from an entry in the Cambridge 
# Structural Database, then it will include bibliographic, chemical, 
# crystal, experimental, refinement or atomic coordinate data resulting 
# from the CCDC's data processing and validation procedures.
#
#######################################################################

data_IPUMEN
_chemical_formula_moiety         'C22 H21 N1 O4'
_chemical_name_systematic        
6,6-dimethyl-2-(4-nitrophenyl)-3-phenyl-3,5,6,7-tetrahydro-1-benzofuran-4(2H)-one
_symmetry_cell_setting           monoclinic
_symmetry_space_group_name_H-M   'P 21/c'
_symmetry_Int_Tables_number      14
_space_group_name_Hall           '-P 2ybc'
loop_
_symmetry_equiv_pos_site_id
_symmetry_equiv_pos_as_xyz
1 x,y,z
2 -x,1/2+y,1/2-z
3 -x,-y,-z
4 x,1/2-y,1/2+z
_cell_length_a                   12.6450(18)
_cell_length_b                   11.5032(16)
_cell_length_c                   13.9685(19)
_cell_angle_alpha                90
_cell_angle_beta                 109.305(2)
_cell_angle_gamma                90
_cell_volume                     1917.58
_cell_formula_units_Z            4
loop_
_atom_site_label
_atom_site_type_symbol
_atom_site_fract_x
_atom_site_fract_y
_atom_site_fract_z
O1 O 0.22743(9) 0.19537(9) 0.01930(8)
O2 O 0.39700(10) 0.12583(13) 0.36039(9)
C1 C 0.29024(13) 0.39398(14) 0.05914(12)
C2 C 0.22045(13) 0.14415(13) 0.10459(12)
C3 C 0.31712(14) 0.10990(14) 0.28260(13)
C4 C 0.40090(12) 0.22168(14) 0.15697(12)
H1 H 0.4297 0.2862 0.2042
C5 C 0.31229(12) 0.15698(14) 0.18586(12)
C6 C 0.49773(13) 0.14705(15) 0.15120(12)
C7 C 0.11617(13) 0.08313(14) 0.10019(14)
H2 H 0.1170 0.0051 0.0741
H3 H 0.0522 0.1240 0.0545
C8 C 0.23328(15) 0.62181(15) 0.07616(14)
C9 C 0.34053(15) 0.59683(15) 0.07929(14)
H4 H 0.3933 0.6556 0.0874
C10 C 0.32639(13) 0.27010(14) 0.05200(12)
H5 H 0.3670 0.2652 0.0033
C11 C 0.18292(14) 0.42269(15) 0.05650(15)
H6 H 0.1298 0.3644 0.0487
C12 C 0.21752(14) 0.03668(17) 0.28195(14)
H7 H 0.2120 0.0371 0.3496
H8 H 0.2309 -0.0429 0.2661
C13 C 0.36792(14) 0.48236(15) 0.07018(13)
H9 H 0.4400 0.4640 0.0715
C14 C 0.15408(15) 0.53673(17) 0.06536(16)
H10 H 0.0821 0.5557 0.0640
C15 C 0.10500(14) 0.07688(16) 0.20637(15)
C16 C 0.49010(16) 0.02751(17) 0.14110(14)
H11 H 0.4241 -0.0096 0.1392
C17 C 0.59646(15) 0.1991(2) 0.15320(17)
H12 H 0.6038 0.2794 0.1600
O3 O 0.27359(16) 0.81747(13) 0.10161(16)
C18 C 0.6761(2) 0.0151(3) 0.13593(18)
H13 H 0.7359 -0.0289 0.1311
N1 N 0.20247(17) 0.74251(16) 0.08568(15)
C19 C 0.57919(19) -0.0381(2) 0.13378(15)
H14 H 0.5727 -0.1185 0.1274
O4 O 0.10564(15) 0.76303(15) 0.0795(2)
C20 C 0.07406(18) 0.19614(19) 0.2380(2)
H15 H 0.0032 0.2204 0.1911
H16 H 0.1307 0.2517 0.2379
H17 H 0.0689 0.1911 0.3049
C21 C 0.01224(18) -0.0106(2) 0.2046(2)
H18 H 0.0037 -0.0135 0.2704
H19 H 0.0322 -0.0862 0.1872
H20 H -0.0571 0.0135 0.1552
C22 C 0.68555(18) 0.1333(3) 0.1452(2)
H21 H 0.7515 0.1697 0.1462
loop_
_geom_bond_atom_site_label_1
_geom_bond_atom_site_label_2
_geom_bond_site_symmetry_1
_geom_bond_site_symmetry_2
O1 C2 1_555 1_555
O2 C3 1_555 1_555
C1 C10 1_555 1_555
C2 C5 1_555 1_555
C3 C5 1_555 1_555
C4 H1 1_555 1_555
C5 C4 1_555 1_555
C6 C4 1_555 1_555
C7 C2 1_555 1_555
H2 C7 1_555 1_555
H3 C7 1_555 1_555
C8 C9 1_555 1_555
C9 H4 1_555 1_555
C10 O1 1_555 1_555
H5 C10 1_555 1_555
C11 C1 1_555 1_555
H6 C11 1_555 1_555
C12 C3 1_555 1_555
H7 C12 1_555 1_555
H8 C12 1_555 1_555
C13 C1 1_555 1_555
H9 C13 1_555 1_555
C14 C8 1_555 1_555
H10 C14 1_555 1_555
C15 C7 1_555 1_555
C16 C6 1_555 1_555
H11 C16 1_555 1_555
C17 C6 1_555 1_555
H12 C17 1_555 1_555
O3 N1 1_555 1_555
C18 H13 1_555 1_555
N1 C8 1_555 1_555
C19 C16 1_555 1_555
H14 C19 1_555 1_555
O4 N1 1_555 1_555
C20 C15 1_555 1_555
H15 C20 1_555 1_555
H16 C20 1_555 1_555
H17 C20 1_555 1_555
C21 C15 1_555 1_555
H18 C21 1_555 1_555
H19 C21 1_555 1_555
H20 C21 1_555 1_555
C22 C17 1_555 1_555
H21 C22 1_555 1_555
C4 C10 1_555 1_555
C9 C13 1_555 1_555
C11 C14 1_555 1_555
C12 C15 1_555 1_555
C18 C19 1_555 1_555
C18 C22 1_555 1_555

#END
