
#######################################################################
#
#                 Cambridge Crystallographic Data Centre
#                                CCDC 
#
#######################################################################
#
# If this CIF has been generated from an entry in the Cambridge 
# Structural Database, then it will include bibliographic, chemical, 
# crystal, experimental, refinement or atomic coordinate data resulting 
# from the CCDC's data processing and validation procedures.
#
#######################################################################

data_IPURES
_chemical_compound_source        
'Schisandra grandiflora (Wall.) Hook. f. & Thoms.'
_chemical_name_common            'Schigrandilactone A'
_chemical_formula_moiety         'C29 H36 O11,H2 O1'
_chemical_name_systematic        
"13'-hydroxy-9'-(hydroxymethyl)-4,9',19',21'-tetramethyldihydro-5H,5'H,14'H,20'H-spiro[furan-2,17'-[4,8,16,24]tetraoxaheptacyclo[13.8.1.1^15,18^.0^1,13^.0^3,7^.0^3,10^.0^21,25^]pentacosane]-5,5',14',20'-tetrone hydrate"
_chemical_properties_biological  'cytotoxic activity'
_symmetry_cell_setting           orthorhombic
_symmetry_space_group_name_H-M   'P 21 21 21'
_symmetry_Int_Tables_number      19
_space_group_name_Hall           'P 2ac 2ab'
loop_
_symmetry_equiv_pos_site_id
_symmetry_equiv_pos_as_xyz
1 x,y,z
2 1/2-x,-y,1/2+z
3 1/2+x,1/2-y,-z
4 -x,1/2+y,1/2-z
_cell_length_a                   12.406(1)
_cell_length_b                   13.593(1)
_cell_length_c                   16.490(1)
_cell_angle_alpha                90
_cell_angle_beta                 90
_cell_angle_gamma                90
_cell_volume                     2780.79
_exptl_crystal_colour            colorless
_exptl_crystal_description       plate
_chemical_melting_point          '195-196 deg.C'
_cell_formula_units_Z            4
loop_
_atom_site_label
_atom_site_type_symbol
_atom_site_fract_x
_atom_site_fract_y
_atom_site_fract_z
O1 O -0.4962(2) -0.18046(18) -0.15112(19)
O2 O -0.8280(3) -0.1406(3) -0.1085(2)
O3 O -0.73673(18) -0.25492(18) -0.17554(17)
O4 O -0.6236(2) -0.50664(19) -0.38195(18)
H1 H -0.5942 -0.5568 -0.3655
O5 O -0.83610(17) -0.35756(16) -0.30388(15)
O6 O -0.94773(19) -0.46484(19) -0.23714(15)
O7 O -0.8211(2) -0.61182(19) -0.3382(2)
O8 O -0.9631(3) -0.2124(3) -0.4740(3)
O9 O -1.1296(2) -0.4868(2) -0.21831(17)
O10 O -1.2223(3) -0.5335(3) -0.1101(3)
O11 O -0.4827(3) -0.3099(3) -0.0157(2)
H2 H -0.4529 -0.3237 0.0273
C1 C -0.5776(3) -0.1654(3) -0.2105(3)
H3 H -0.5465 -0.1424 -0.2617
C2 C -0.6633(3) -0.0960(3) -0.1805(3)
H4 H -0.6895 -0.0547 -0.2242
H5 H -0.6357 -0.0543 -0.1375
C3 C -0.7516(3) -0.1625(3) -0.1493(2)
C4 C -0.4585(3) -0.2818(3) -0.1590(3)
C5 C -0.5633(3) -0.3393(2) -0.1766(2)
H6 H -0.5977 -0.3529 -0.1242
C6 C -0.5476(3) -0.4379(2) -0.2191(3)
H7 H -0.5036 -0.4802 -0.1852
H8 H -0.5093 -0.4274 -0.2697
C7 C -0.6551(3) -0.4893(3) -0.2368(2)
H9 H -0.7087 -0.4656 -0.1987
H10 H -0.6465 -0.5594 -0.2278
C8 C -0.6972(3) -0.4729(2) -0.3235(2)
C9 C -0.7315(3) -0.3658(2) -0.3431(2)
C10 C -0.6355(3) -0.2656(2) -0.2216(2)
C11 C -0.7449(3) -0.3473(3) -0.4348(2)
H11 H -0.7572 -0.2775 -0.4425
H12 H -0.6769 -0.3630 -0.4608
C12 C -0.8341(3) -0.4029(3) -0.4799(2)
H13 H -0.8182 -0.4726 -0.4765
H14 H -0.8303 -0.3846 -0.5367
C13 C -0.9511(3) -0.3876(3) -0.4515(2)
C14 C -0.9814(3) -0.4436(3) -0.3744(2)
H15 H -1.0085 -0.5095 -0.3873
C15 C -0.8930(3) -0.4484(2) -0.3106(2)
C16 C -0.8058(3) -0.5253(2) -0.3252(2)
C17 C -0.9812(3) -0.2820(3) -0.4312(3)
C18 C -1.0291(4) -0.4186(4) -0.5203(3)
H16 H -1.1022 -0.4088 -0.5029
H17 H -1.0181 -0.4868 -0.5330
H18 H -1.0153 -0.3795 -0.5676
C19 C -0.6610(3) -0.2823(2) -0.3114(2)
H19 H -0.6932 -0.2218 -0.3309
H20 H -0.5921 -0.2885 -0.3387
C20 C -1.0443(3) -0.2749(3) -0.3511(3)
H21 H -0.9963 -0.2470 -0.3099
C21 C -1.1422(4) -0.2083(3) -0.3583(3)
H22 H -1.1194 -0.1430 -0.3724
H23 H -1.1797 -0.2066 -0.3073
H24 H -1.1894 -0.2332 -0.3996
C22 C -1.0670(3) -0.3831(3) -0.3283(2)
H25 H -1.1395 -0.4020 -0.3461
C23 C -1.0493(3) -0.4138(3) -0.2399(2)
C24 C -1.0546(3) -0.3381(3) -0.1718(3)
H26 H -1.1049 -0.2858 -0.1849
H27 H -0.9842 -0.3096 -0.1616
C25 C -1.0937(4) -0.3979(4) -0.0984(3)
H28 H -1.1417 -0.3577 -0.0648
C26 C -1.1566(3) -0.4795(4) -0.1385(3)
C27 C -1.0020(5) -0.4391(4) -0.0470(3)
H29 H -1.0314 -0.4753 -0.0021
H30 H -0.9585 -0.3860 -0.0269
H31 H -0.9583 -0.4821 -0.0795
C28 C -0.4064(4) -0.3088(3) -0.0782(4)
H32 H -0.3731 -0.3732 -0.0826
H33 H -0.3503 -0.2615 -0.0655
C29 C -0.3734(3) -0.2867(3) -0.2260(4)
H34 H -0.3112 -0.2493 -0.2101
H35 H -0.4026 -0.2599 -0.2752
H36 H -0.3529 -0.3539 -0.2349
O12 O -0.8116(5) -0.1028(5) -0.5630(4)
H37 H -0.7660 -0.1221 -0.5280
H38 H -0.8576 -0.1396 -0.5398
loop_
_geom_bond_atom_site_label_1
_geom_bond_atom_site_label_2
_geom_bond_site_symmetry_1
_geom_bond_site_symmetry_2
O1 C1 1_555 1_555
O2 C3 1_555 1_555
O3 C3 1_555 1_555
O4 H1 1_555 1_555
O5 C9 1_555 1_555
O6 C15 1_555 1_555
O7 C16 1_555 1_555
O8 C17 1_555 1_555
O9 C23 1_555 1_555
O10 C26 1_555 1_555
O11 H2 1_555 1_555
C1 H3 1_555 1_555
C2 C1 1_555 1_555
H4 C2 1_555 1_555
H5 C2 1_555 1_555
C3 C2 1_555 1_555
C4 O1 1_555 1_555
C5 C4 1_555 1_555
H6 C5 1_555 1_555
C6 C5 1_555 1_555
H7 C6 1_555 1_555
H8 C6 1_555 1_555
C7 C6 1_555 1_555
H9 C7 1_555 1_555
H10 C7 1_555 1_555
C8 O4 1_555 1_555
C9 C8 1_555 1_555
C10 O3 1_555 1_555
C11 C9 1_555 1_555
H11 C11 1_555 1_555
H12 C11 1_555 1_555
C12 C11 1_555 1_555
H13 C12 1_555 1_555
H14 C12 1_555 1_555
C13 C12 1_555 1_555
C14 C13 1_555 1_555
H15 C14 1_555 1_555
C15 O5 1_555 1_555
C16 C8 1_555 1_555
C17 C13 1_555 1_555
C18 C13 1_555 1_555
H16 C18 1_555 1_555
H17 C18 1_555 1_555
H18 C18 1_555 1_555
C19 C9 1_555 1_555
H19 C19 1_555 1_555
H20 C19 1_555 1_555
C20 C17 1_555 1_555
H21 C20 1_555 1_555
C21 C20 1_555 1_555
H22 C21 1_555 1_555
H23 C21 1_555 1_555
H24 C21 1_555 1_555
C22 C14 1_555 1_555
H25 C22 1_555 1_555
C23 O6 1_555 1_555
C24 C23 1_555 1_555
H26 C24 1_555 1_555
H27 C24 1_555 1_555
C25 C24 1_555 1_555
H28 C25 1_555 1_555
C26 O9 1_555 1_555
C27 C25 1_555 1_555
H29 C27 1_555 1_555
H30 C27 1_555 1_555
H31 C27 1_555 1_555
C28 O11 1_555 1_555
H32 C28 1_555 1_555
H33 C28 1_555 1_555
C29 C4 1_555 1_555
H34 C29 1_555 1_555
H35 C29 1_555 1_555
H36 C29 1_555 1_555
O12 H37 1_555 1_555
H38 O12 1_555 1_555
C1 C10 1_555 1_555
C4 C28 1_555 1_555
C5 C10 1_555 1_555
C7 C8 1_555 1_555
C10 C19 1_555 1_555
C14 C15 1_555 1_555
C15 C16 1_555 1_555
C20 C22 1_555 1_555
C22 C23 1_555 1_555
C25 C26 1_555 1_555

#END
