
#######################################################################
#
#                 Cambridge Crystallographic Data Centre
#                                CCDC 
#
#######################################################################
#
# If this CIF has been generated from an entry in the Cambridge 
# Structural Database, then it will include bibliographic, chemical, 
# crystal, experimental, refinement or atomic coordinate data resulting 
# from the CCDC's data processing and validation procedures.
#
#######################################################################

data_IPUTOD
_chemical_name_common            2,3,4,5-tetramethyl-9-phenylindane
_chemical_formula_moiety         'C19 H22'
_chemical_name_systematic        4,5,6,7-Tetramethyl-1-phenylindan
_symmetry_cell_setting           monoclinic
_symmetry_space_group_name_H-M   'P 21/n'
_symmetry_Int_Tables_number      14
_space_group_name_Hall           '-P 2yn'
loop_
_symmetry_equiv_pos_site_id
_symmetry_equiv_pos_as_xyz
1 x,y,z
2 1/2-x,1/2+y,1/2-z
3 -x,-y,-z
4 1/2+x,1/2-y,1/2+z
_cell_length_a                   11.8978(9)
_cell_length_b                   5.9298(5)
_cell_length_c                   20.7696(16)
_cell_angle_alpha                90
_cell_angle_beta                 95.062(2)
_cell_angle_gamma                90
_cell_volume                     1459.61
_exptl_crystal_colour            colorless
_exptl_crystal_description       block
_cell_formula_units_Z            4
_exptl_crystal_recrystallization_method hexane
loop_
_atom_site_label
_atom_site_type_symbol
_atom_site_fract_x
_atom_site_fract_y
_atom_site_fract_z
C1 C 0.4592(3) 0.7116(5) 0.11530(13)
H1 H 0.4667 0.5517 0.1267
C2 C 0.5576(2) 0.7797(6) 0.07474(12)
H2 H 0.6198 0.6744 0.0822
H3 H 0.5325 0.7788 0.0290
C3 C 0.34039(16) 0.7520(3) 0.07910(8)
C4 C 0.29467(18) 0.5925(3) 0.03603(9)
H4 H 0.3298 0.4529 0.0338
C5 C 0.19827(19) 0.6353(4) -0.00375(10)
H5 H 0.1696 0.5259 -0.0328
C6 C 0.14455(17) 0.8385(4) -0.00067(10)
H6 H 0.0794 0.8676 -0.0275
C7 C 0.18763(17) 0.9994(4) 0.04235(10)
H7 H 0.1516 1.1379 0.0446
C8 C 0.28467(17) 0.9556(3) 0.08232(10)
H8 H 0.3126 1.0646 0.1117
C9 C 0.48172(14) 0.8510(3) 0.17548(8)
C10 C 0.43933(15) 0.8315(3) 0.23509(8)
C11 C 0.47775(16) 0.9830(3) 0.28413(8)
C12 C 0.55681(19) 1.1502(4) 0.27203(11)
C13 C 0.59779(17) 1.1687(4) 0.21114(12)
C14 C 0.55956(15) 1.0172(4) 0.16312(10)
C15 C 0.59350(19) 1.0057(5) 0.09511(11)
H9 H 0.5550 1.1200 0.0680
H10 H 0.6744 1.0240 0.0942
C16 C 0.35418(18) 0.6483(4) 0.24357(10)
H11 H 0.3404 0.5657 0.2039
H12 H 0.2850 0.7145 0.2549
H13 H 0.3829 0.5477 0.2773
C17 C 0.4344(2) 0.9631(6) 0.35029(10)
H14 H 0.4031 1.1049 0.3620
H15 H 0.4956 0.9231 0.3815
H16 H 0.3772 0.8487 0.3493
C18 C 0.6004(3) 1.3104(5) 0.32520(14)
H17 H 0.6709 1.2554 0.3453
H18 H 0.5466 1.3205 0.3569
H19 H 0.6114 1.4570 0.3072
C19 C 0.6836(2) 1.3464(5) 0.19749(16)
H20 H 0.7005 1.3352 0.1532
H21 H 0.7513 1.3237 0.2254
H22 H 0.6535 1.4933 0.2051
C20? C 0.3663(7) 0.5084(14) 0.1865(4)
C21? C 0.4148(8) 0.6567(16) 0.1346(6)
H23? H 0.6468 1.1234 0.0887
H24? H 0.5280 1.0246 0.0652
H25? H 0.6274 0.8619 0.0881
H26? H 0.2934 0.4484 0.1701
H27? H 0.4166 0.3830 0.1977
H28? H 0.3725 0.5644 0.2832
H29? H 0.2785 0.7090 0.2435
H30? H 0.4719 0.5652 0.1156
loop_
_geom_bond_atom_site_label_1
_geom_bond_atom_site_label_2
_geom_bond_site_symmetry_1
_geom_bond_site_symmetry_2
C1 H1 1_555 1_555
C2 C1 1_555 1_555
H2 C2 1_555 1_555
H3 C2 1_555 1_555
C3 C1 1_555 1_555
C4 C3 1_555 1_555
H4 C4 1_555 1_555
C5 C4 1_555 1_555
H5 C5 1_555 1_555
C6 C5 1_555 1_555
H6 C6 1_555 1_555
C7 C6 1_555 1_555
H7 C7 1_555 1_555
C8 C3 1_555 1_555
H8 C8 1_555 1_555
C9 C1 1_555 1_555
C10 C9 1_555 1_555
C11 C10 1_555 1_555
C12 C11 1_555 1_555
C13 C12 1_555 1_555
C14 C9 1_555 1_555
C15 C2 1_555 1_555
H9 C15 1_555 1_555
H10 C15 1_555 1_555
C16 C10 1_555 1_555
H11 C16 1_555 1_555
H12 C16 1_555 1_555
H13 C16 1_555 1_555
C17 C11 1_555 1_555
H14 C17 1_555 1_555
H15 C17 1_555 1_555
H16 C17 1_555 1_555
C18 C12 1_555 1_555
H17 C18 1_555 1_555
H18 C18 1_555 1_555
H19 C18 1_555 1_555
C19 C13 1_555 1_555
H20 C19 1_555 1_555
H21 C19 1_555 1_555
H22 C19 1_555 1_555
C7 C8 1_555 1_555
C13 C14 1_555 1_555
C14 C15 1_555 1_555

#END
