
#######################################################################
#
#                 Cambridge Crystallographic Data Centre
#                                CCDC 
#
#######################################################################
#
# If this CIF has been generated from an entry in the Cambridge 
# Structural Database, then it will include bibliographic, chemical, 
# crystal, experimental, refinement or atomic coordinate data resulting 
# from the CCDC's data processing and validation procedures.
#
#######################################################################

data_IPUTAQ
_chemical_formula_moiety         'C40 H28 Cl2 N2 O6'
_chemical_name_systematic        
3-((1-(bis(4-methoxyphenyl)methylene)-6-methoxy-3-(4-methoxyphenyl)-1H-inden-2-yl)oxy)-4,5-dichloro-6-hydroxyphthalonitrile
_symmetry_cell_setting           triclinic
_symmetry_space_group_name_H-M   'P -1'
_symmetry_Int_Tables_number      2
_space_group_name_Hall           '-P 1'
loop_
_symmetry_equiv_pos_site_id
_symmetry_equiv_pos_as_xyz
1 x,y,z
2 -x,-y,-z
_cell_length_a                   11.671(3)
_cell_length_b                   12.033(3)
_cell_length_c                   13.182(3)
_cell_angle_alpha                78.404(5)
_cell_angle_beta                 77.638(5)
_cell_angle_gamma                68.010(5)
_cell_volume                     1661.77
_exptl_crystal_colour            orange
_exptl_crystal_description       rhombohedral
_cell_formula_units_Z            2
_exptl_crystal_recrystallization_method dichloromethane/hexanes
loop_
_atom_site_label
_atom_site_type_symbol
_atom_site_fract_x
_atom_site_fract_y
_atom_site_fract_z
Cl1 Cl -0.25039(4) 0.82758(4) 0.49862(3)
Cl2 Cl -0.43372(4) 1.06041(5) 0.38172(3)
O1 O 0.10771(12) 0.94473(12) 0.58683(10)
O2 O -0.51476(11) 0.74001(12) 0.16364(9)
O3 O 0.75317(11) 0.30363(13) 0.22575(10)
O4 O -0.03451(11) 0.69684(11) 0.36579(9)
O5 O -0.35738(11) 1.08933(12) 0.14987(9)
H1 H -0.4299 1.1059 0.1841
O6 O 0.38937(11) 0.12521(11) 0.19487(10)
N1 N 0.14008(16) 0.71829(16) 0.10773(12)
N2 N -0.11804(15) 0.97744(15) -0.05085(12)
C1 C 0.01263(18) 0.95495(19) 0.67687(15)
H2 H -0.0626 0.9518 0.6577
H3 H -0.0072 1.0320 0.7026
H4 H 0.0426 0.8881 0.7320
C2 C 0.13792(17) 0.84630(16) 0.53644(13)
C3 C 0.08335(16) 0.75814(16) 0.56791(13)
H5 H 0.0223 0.7626 0.6290
C4 C 0.11837(16) 0.66320(16) 0.50968(13)
H6 H 0.0806 0.6030 0.5315
C5 C 0.20809(16) 0.65452(16) 0.41965(13)
C6 C 0.24296(16) 0.55639(16) 0.35469(12)
C7 C 0.15773(16) 0.52195(16) 0.32466(12)
C8 C 0.02428(15) 0.58900(16) 0.32254(12)
C9 C -0.02674(16) 0.54055(16) 0.26728(13)
C10 C -0.15362(16) 0.58893(16) 0.23906(13)
C11 C -0.25953(16) 0.62810(16) 0.31431(13)
H7 H -0.2499 0.6202 0.3855
C12 C -0.37824(16) 0.67827(16) 0.28640(14)
H8 H -0.4492 0.7048 0.3382
C13 C -0.39348(16) 0.68986(16) 0.18233(14)
C14 C -0.53605(18) 0.75190(19) 0.05836(14)
H9 H -0.4956 0.8061 0.0128
H10 H -0.6261 0.7855 0.0561
H11 H -0.5009 0.6723 0.0342
C15 C 0.79745(17) 0.28981(19) 0.11737(14)
H12 H 0.7930 0.3687 0.0768
H13 H 0.7454 0.2570 0.0918
H14 H 0.8843 0.2343 0.1093
C16 C 0.63011(16) 0.37122(17) 0.25087(14)
C17 C 0.58729(17) 0.38167(17) 0.35696(14)
H15 H 0.6435 0.3451 0.4065
C18 C 0.46331(16) 0.44505(17) 0.38986(13)
H16 H 0.4351 0.4530 0.4621
C19 C 0.37835(16) 0.49784(16) 0.31852(13)
C20 C 0.23028(17) 0.83783(17) 0.44832(14)
H17 H 0.2688 0.8975 0.4276
C21 C 0.26553(16) 0.74249(16) 0.39119(13)
H18 H 0.3294 0.7364 0.3320
C22 C -0.10962(16) 0.79542(16) 0.30995(13)
C23 C -0.21902(16) 0.86793(17) 0.36579(13)
C24 C -0.30013(16) 0.96940(17) 0.31415(13)
C25 C -0.27728(16) 0.99766(16) 0.20482(13)
C26 C -0.16511(16) 0.92917(16) 0.15038(13)
C27 C -0.07921(16) 0.82959(16) 0.20340(13)
C28 C 0.04169(17) 0.76570(17) 0.14834(13)
C29 C -0.13916(16) 0.95781(16) 0.03799(14)
C30 C 0.07232(16) 0.43038(16) 0.23383(13)
C31 C 0.18306(16) 0.41656(16) 0.27016(12)
C32 C 0.28625(16) 0.31149(16) 0.25850(13)
H19 H 0.3598 0.2992 0.2858
C33 C 0.28026(17) 0.22463(16) 0.20633(13)
C34 C 0.3828(2) 0.02285(19) 0.16024(19)
H20 H 0.3665 0.0440 0.0877
H21 H 0.3150 -0.0012 0.2051
H22 H 0.4623 -0.0444 0.1642
C35 C 0.17296(17) 0.23902(17) 0.16751(14)
H23 H 0.1713 0.1792 0.1310
C36 C 0.06769(16) 0.34250(16) 0.18285(13)
H24 H -0.0069 0.3526 0.1584
C37 C -0.28962(16) 0.65100(17) 0.10648(14)
H25 H -0.2995 0.6587 0.0354
C38 C -0.17123(17) 0.60075(16) 0.13569(13)
H26 H -0.1005 0.5738 0.0838
C39 C 0.42371(16) 0.49143(16) 0.21260(13)
H27 H 0.3681 0.5307 0.1628
C40 C 0.54853(16) 0.42891(17) 0.17790(13)
H28 H 0.5780 0.4255 0.1052
loop_
_geom_bond_atom_site_label_1
_geom_bond_atom_site_label_2
_geom_bond_site_symmetry_1
_geom_bond_site_symmetry_2
Cl1 C23 1_555 1_555
Cl2 C24 1_555 1_555
O1 C1 1_555 1_555
O2 C13 1_555 1_555
O3 C15 1_555 1_555
O4 C8 1_555 1_555
O5 H1 1_555 1_555
O6 C33 1_555 1_555
N1 C28 1_555 1_555
N2 C29 1_555 1_555
C1 H2 1_555 1_555
H3 C1 1_555 1_555
H4 C1 1_555 1_555
C2 O1 1_555 1_555
C3 C2 1_555 1_555
H5 C3 1_555 1_555
C4 C3 1_555 1_555
H6 C4 1_555 1_555
C5 C4 1_555 1_555
C6 C5 1_555 1_555
C7 C6 1_555 1_555
C8 C7 1_555 1_555
C9 C8 1_555 1_555
C10 C9 1_555 1_555
C11 C10 1_555 1_555
H7 C11 1_555 1_555
C12 C11 1_555 1_555
H8 C12 1_555 1_555
C13 C12 1_555 1_555
C14 O2 1_555 1_555
H9 C14 1_555 1_555
H10 C14 1_555 1_555
H11 C14 1_555 1_555
C15 H12 1_555 1_555
H13 C15 1_555 1_555
H14 C15 1_555 1_555
C16 O3 1_555 1_555
C17 C16 1_555 1_555
H15 C17 1_555 1_555
C18 C17 1_555 1_555
H16 C18 1_555 1_555
C19 C6 1_555 1_555
C20 C2 1_555 1_555
H17 C20 1_555 1_555
C21 C5 1_555 1_555
H18 C21 1_555 1_555
C22 O4 1_555 1_555
C23 C22 1_555 1_555
C24 C23 1_555 1_555
C25 O5 1_555 1_555
C26 C25 1_555 1_555
C27 C22 1_555 1_555
C28 C27 1_555 1_555
C29 C26 1_555 1_555
C30 C9 1_555 1_555
C31 C7 1_555 1_555
C32 C31 1_555 1_555
H19 C32 1_555 1_555
C33 C32 1_555 1_555
C34 O6 1_555 1_555
H20 C34 1_555 1_555
H21 C34 1_555 1_555
H22 C34 1_555 1_555
C35 C33 1_555 1_555
H23 C35 1_555 1_555
C36 C30 1_555 1_555
H24 C36 1_555 1_555
C37 C13 1_555 1_555
H25 C37 1_555 1_555
C38 C10 1_555 1_555
H26 C38 1_555 1_555
C39 C19 1_555 1_555
H27 C39 1_555 1_555
C40 C16 1_555 1_555
H28 C40 1_555 1_555
C18 C19 1_555 1_555
C20 C21 1_555 1_555
C24 C25 1_555 1_555
C26 C27 1_555 1_555
C30 C31 1_555 1_555
C35 C36 1_555 1_555
C37 C38 1_555 1_555
C39 C40 1_555 1_555

#END
