
#######################################################################
#
#                 Cambridge Crystallographic Data Centre
#                                CCDC 
#
#######################################################################
#
# If this CIF has been generated from an entry in the Cambridge 
# Structural Database, then it will include bibliographic, chemical, 
# crystal, experimental, refinement or atomic coordinate data resulting 
# from the CCDC's data processing and validation procedures.
#
#######################################################################

data_IPUVIZ
_chemical_formula_moiety         'C29 H27 N1 O4'
_chemical_name_systematic        
'Ethyl 2-(4-methoxyphenyl)-5-oxo-1,7-diphenyl-6,7-dihydro-1H-pyrrolizine-7a(5H)-carboxylate'
_symmetry_cell_setting           triclinic
_symmetry_space_group_name_H-M   'P -1'
_symmetry_Int_Tables_number      2
_space_group_name_Hall           '-P 1'
loop_
_symmetry_equiv_pos_site_id
_symmetry_equiv_pos_as_xyz
1 x,y,z
2 -x,-y,-z
_cell_length_a                   13.5358(12)
_cell_length_b                   13.8850(12)
_cell_length_c                   14.5352(13)
_cell_angle_alpha                106.721(2)
_cell_angle_beta                 97.056(2)
_cell_angle_gamma                107.953(2)
_cell_volume                     2420.91
_cell_formula_units_Z            4
loop_
_atom_site_label
_atom_site_type_symbol
_atom_site_fract_x
_atom_site_fract_y
_atom_site_fract_z
O1 O 0.37231(16) 0.85721(16) 0.06391(14)
O2 O 0.64701(16) 0.63885(16) 0.08753(15)
O3 O 0.51791(17) 0.84431(17) 0.01112(16)
N1 N 0.50736(19) 0.69648(17) 0.10943(16)
C1 C 0.4606(2) 0.8348(2) 0.0677(2)
C2 C 0.6194(2) 0.9919(2) 0.2445(2)
C3 C 0.2248(2) 0.5634(2) 0.1070(2)
C4 C 0.3354(2) 0.6328(2) 0.1179(2)
C5 C 0.3836(2) 0.7491(2) 0.19075(19)
H1 H 0.3352 0.7874 0.1823
C6 C 0.6119(2) 0.7096(2) 0.1208(2)
C7 C 0.4848(2) 0.7938(2) 0.15314(19)
C8 C 0.5401(2) 1.0353(2) 0.2455(2)
H2 H 0.4698 0.9908 0.2363
C9 C 0.1540(2) 0.6055(2) 0.1497(2)
H3 H 0.1767 0.6794 0.1832
C10 C 0.0509(2) 0.5415(3) 0.1443(2)
H4 H 0.0057 0.5722 0.1743
C11 C 0.4115(2) 0.6063(2) 0.0778(2)
H5 H 0.4024 0.5382 0.0352
O4 O -0.0841(2) 0.35985(19) 0.0860(2)
C12 C 0.4469(3) 0.6825(2) 0.3236(2)
H6 H 0.4614 0.6315 0.2755
C13 C 0.5937(2) 0.8721(2) 0.2250(2)
H7 H 0.5928 0.8614 0.2887
C14 C 0.4054(2) 0.7521(2) 0.2970(2)
C15 C 0.5631(3) 1.1431(2) 0.2598(2)
H8 H 0.5080 1.1698 0.2578
C16 C 0.7228(3) 1.0613(2) 0.2620(2)
H9 H 0.7778 1.0345 0.2623
C17 C 0.6749(2) 0.8267(2) 0.1815(2)
H10 H 0.7071 0.8653 0.1404
H11 H 0.7309 0.8329 0.2338
C18 C 0.6662(3) 1.2110(3) 0.2768(2)
H12 H 0.6817 1.2839 0.2867
C19 C 0.1856(3) 0.4527(2) 0.0541(2)
H13 H 0.2296 0.4217 0.0222
C20 C 0.0152(3) 0.4317(3) 0.0941(2)
C21 C 0.3501(3) 0.9074(3) -0.0073(3)
H14 H 0.3475 0.8627 -0.0732
H15 H 0.4058 0.9773 0.0086
C22 C 0.4671(3) 0.6870(3) 0.4197(3)
H16 H 0.4963 0.6400 0.4361
C23 C 0.0833(3) 0.3889(3) 0.0485(3)
H17 H 0.0595 0.3153 0.0133
C24 C 0.3840(3) 0.8256(3) 0.3698(3)
H18 H 0.3560 0.8737 0.3540
C25 C 0.7465(3) 1.1704(3) 0.2792(3)
H19 H 0.8171 1.2162 0.2924
C26 C 0.2460(3) 0.9198(3) -0.0029(3)
H20 H 0.2296 0.9532 -0.0491
H21 H 0.2494 0.9641 0.0626
H22 H 0.1914 0.8502 -0.0193
C27 C 0.4036(4) 0.8290(3) 0.4666(3)
H23 H 0.3883 0.8790 0.5151
C28 C -0.1550(3) 0.4014(3) 0.1341(3)
H24 H -0.2212 0.3435 0.1231
H25 H -0.1680 0.4536 0.1079
H26 H -0.1238 0.4351 0.2036
C29 C 0.4450(3) 0.7598(3) 0.4915(3)
H27 H 0.4579 0.7621 0.5566
O5 O 0.23382(16) 0.14690(16) 0.42549(16)
O6 O 0.17054(19) 0.09647(17) 0.54622(17)
C30 C 0.3840(2) 0.4941(2) 0.6820(2)
N2 N 0.1206(2) 0.27530(19) 0.61174(18)
C31 C 0.2812(2) 0.4047(2) 0.6360(2)
O7 O 0.67957(18) 0.74471(18) 0.80267(17)
O8 O -0.01971(19) 0.25073(19) 0.68672(18)
C32 C 0.2031(2) 0.4312(2) 0.4808(2)
C33 C 0.4422(2) 0.5454(2) 0.6256(2)
H28 H 0.4148 0.5232 0.5580
C34 C 0.2368(2) 0.3559(2) 0.5245(2)
H29 H 0.2914 0.3367 0.4930
C35 C 0.1441(2) 0.2494(2) 0.5145(2)
C36 C 0.0160(3) 0.2356(2) 0.6130(3)
C37 C 0.1856(2) 0.1558(2) 0.4999(2)
C38 C 0.5824(3) 0.6624(2) 0.7686(2)
C39 C 0.0124(2) 0.1332(3) 0.3408(2)
C40 C 0.5394(2) 0.6283(2) 0.6684(2)
H30 H 0.5765 0.6617 0.6294
C41 C 0.5262(3) 0.6136(3) 0.8261(2)
H31 H 0.5536 0.6364 0.8938
C42 C 0.2161(2) 0.4307(3) 0.3876(2)
H32 H 0.2448 0.3834 0.3518
C43 C 0.1595(3) 0.5015(2) 0.5316(2)
H33 H 0.1497 0.5033 0.5942
C44 C 0.0319(2) 0.2113(2) 0.4445(2)
H34 H 0.0223 0.2761 0.4374
C45 C -0.0445(2) 0.1724(2) 0.5071(2)
H35 H -0.1095 0.1867 0.4933
H36 H -0.0630 0.0956 0.4935
C46 C 0.4292(3) 0.5309(2) 0.7825(2)
H37 H 0.3923 0.4981 0.8219
C47 C -0.0124(2) 0.0235(3) 0.3204(3)
H38 H -0.0178 -0.0041 0.3715
C48 C 0.2096(3) 0.3572(2) 0.6806(2)
H39 H 0.2182 0.3764 0.7487
C49 C 0.7268(3) 0.7841(3) 0.9047(3)
H40 H 0.7943 0.8412 0.9185
H41 H 0.7374 0.7267 0.9239
H42 H 0.6807 0.8110 0.9412
C50 C 0.0181(2) 0.1714(3) 0.2625(3)
H43 H 0.0344 0.2446 0.2740
C51 C -0.0295(3) -0.0455(3) 0.2250(3)
H44 H -0.0452 -0.1188 0.2127
C52 C 0.2597(3) 0.0504(3) 0.3912(3)
H45 H 0.2044 -0.0111 0.3955
H46 H 0.3270 0.0599 0.4314
C53 C 0.1444(3) 0.5690(3) 0.3984(3)
H47 H 0.1254 0.6155 0.3711
C54 C 0.1299(3) 0.5701(3) 0.4898(3)
H48 H 0.1000 0.6169 0.5245
C55 C 0.2672(3) 0.0328(3) 0.2870(3)
H49 H 0.2843 -0.0305 0.2619
H50 H 0.3221 0.0942 0.2838
H51 H 0.2000 0.0234 0.2480
C56 C 0.1873(3) 0.4988(3) 0.3471(3)
H52 H 0.1969 0.4973 0.2845
C57 C -0.0004(3) 0.1009(4) 0.1671(3)
H53 H 0.0027 0.1272 0.1151
C58 C -0.0232(3) -0.0063(4) 0.1490(3)
H54 H -0.0345 -0.0528 0.0849
loop_
_geom_bond_atom_site_label_1
_geom_bond_atom_site_label_2
_geom_bond_site_symmetry_1
_geom_bond_site_symmetry_2
O1 C1 1_555 1_555
O2 C6 1_555 1_555
O3 C1 1_555 1_555
N1 C6 1_555 1_555
C1 C7 1_555 1_555
C2 C8 1_555 1_555
C3 C4 1_555 1_555
C4 C5 1_555 1_555
C5 H1 1_555 1_555
C6 C17 1_555 1_555
C7 N1 1_555 1_555
C8 H2 1_555 1_555
C9 C3 1_555 1_555
H3 C9 1_555 1_555
C10 C9 1_555 1_555
H4 C10 1_555 1_555
C11 N1 1_555 1_555
H5 C11 1_555 1_555
O4 C20 1_555 1_555
C12 H6 1_555 1_555
C13 C2 1_555 1_555
H7 C13 1_555 1_555
C14 C5 1_555 1_555
C15 C8 1_555 1_555
H8 C15 1_555 1_555
C16 C2 1_555 1_555
H9 C16 1_555 1_555
C17 C13 1_555 1_555
H10 C17 1_555 1_555
H11 C17 1_555 1_555
C18 C15 1_555 1_555
H12 C18 1_555 1_555
C19 C3 1_555 1_555
H13 C19 1_555 1_555
C20 C10 1_555 1_555
C21 O1 1_555 1_555
H14 C21 1_555 1_555
H15 C21 1_555 1_555
C22 C12 1_555 1_555
H16 C22 1_555 1_555
C23 C19 1_555 1_555
H17 C23 1_555 1_555
C24 C14 1_555 1_555
H18 C24 1_555 1_555
C25 C16 1_555 1_555
H19 C25 1_555 1_555
C26 C21 1_555 1_555
H20 C26 1_555 1_555
H21 C26 1_555 1_555
H22 C26 1_555 1_555
C27 C24 1_555 1_555
H23 C27 1_555 1_555
C28 O4 1_555 1_555
H24 C28 1_555 1_555
H25 C28 1_555 1_555
H26 C28 1_555 1_555
C29 C22 1_555 1_555
H27 C29 1_555 1_555
O5 C37 1_555 1_555
O6 C37 1_555 1_555
C30 C31 1_555 1_555
N2 C35 1_555 1_555
C31 C34 1_555 1_555
O7 C38 1_555 1_555
O8 C36 1_555 1_555
C32 C34 1_555 1_555
C33 C30 1_555 1_555
H28 C33 1_555 1_555
C34 H29 1_555 1_555
C35 C34 1_555 1_555
C36 N2 1_555 1_555
C37 C35 1_555 1_555
C38 C40 1_555 1_555
C39 C44 1_555 1_555
C40 C33 1_555 1_555
H30 C40 1_555 1_555
C41 C38 1_555 1_555
H31 C41 1_555 1_555
C42 C32 1_555 1_555
H32 C42 1_555 1_555
C43 C32 1_555 1_555
H33 C43 1_555 1_555
C44 C35 1_555 1_555
H34 C44 1_555 1_555
C45 C36 1_555 1_555
H35 C45 1_555 1_555
H36 C45 1_555 1_555
C46 C30 1_555 1_555
H37 C46 1_555 1_555
C47 C39 1_555 1_555
H38 C47 1_555 1_555
C48 N2 1_555 1_555
H39 C48 1_555 1_555
C49 O7 1_555 1_555
H40 C49 1_555 1_555
H41 C49 1_555 1_555
H42 C49 1_555 1_555
C50 C39 1_555 1_555
H43 C50 1_555 1_555
C51 C47 1_555 1_555
H44 C51 1_555 1_555
C52 O5 1_555 1_555
H45 C52 1_555 1_555
H46 C52 1_555 1_555
C53 H47 1_555 1_555
C54 C43 1_555 1_555
H48 C54 1_555 1_555
C55 C52 1_555 1_555
H49 C55 1_555 1_555
H50 C55 1_555 1_555
H51 C55 1_555 1_555
C56 C42 1_555 1_555
H52 C56 1_555 1_555
C57 C50 1_555 1_555
H53 C57 1_555 1_555
C58 C51 1_555 1_555
H54 C58 1_555 1_555
C4 C11 1_555 1_555
C5 C7 1_555 1_555
C7 C13 1_555 1_555
C12 C14 1_555 1_555
C18 C25 1_555 1_555
C20 C23 1_555 1_555
C27 C29 1_555 1_555
C31 C48 1_555 1_555
C41 C46 1_555 1_555
C44 C45 1_555 1_555
C53 C54 1_555 1_555
C53 C56 1_555 1_555
C57 C58 1_555 1_555

#END
