
#######################################################################
#
#                 Cambridge Crystallographic Data Centre
#                                CCDC 
#
#######################################################################
#
# If this CIF has been generated from an entry in the Cambridge 
# Structural Database, then it will include bibliographic, chemical, 
# crystal, experimental, refinement or atomic coordinate data resulting 
# from the CCDC's data processing and validation procedures.
#
#######################################################################

data_IPUWIA
_chemical_name_common            
't-Butyl (1-(2-(4-cyanobenzylidene)hydrazino)-3-hydroxy-1-oxopropan-2-yl)carbamate'
_chemical_formula_moiety         'C16 H20 N4 O4'
_chemical_name_systematic        
't-butyl (1S)-2-[(2E)-2-(4-cyanobenzylidene)hydrazino]-1-(hydroxymethyl)-2-oxoethylcarbamate'
_symmetry_cell_setting           triclinic
_symmetry_space_group_name_H-M   'P 1'
_symmetry_Int_Tables_number      1
_space_group_name_Hall           'P 1'
loop_
_symmetry_equiv_pos_site_id
_symmetry_equiv_pos_as_xyz
1 x,y,z
_cell_length_a                   5.3128(5)
_cell_length_b                   5.7979(6)
_cell_length_c                   14.1442(15)
_cell_angle_alpha                79.506(5)
_cell_angle_beta                 91.598(7)
_cell_angle_gamma                75.034(7)
_cell_volume                     412.577
_exptl_crystal_colour            colorless
_exptl_crystal_description       plate
_cell_formula_units_Z            1
loop_
_atom_site_label
_atom_site_type_symbol
_atom_site_fract_x
_atom_site_fract_y
_atom_site_fract_z
O1 O 0.3753(5) 0.9482(5) 0.4931(2)
O2 O 0.8621(5) 1.1004(5) 0.4972(2)
H1 H 1.019(11) 1.055(10) 0.510(4)
O3 O 1.1701(4) 0.6259(5) 0.30854(19)
O4 O 0.8748(5) 0.5441(5) 0.20736(19)
N1 N 0.3446(5) 0.5116(6) 0.5870(2)
N2 N 0.5423(5) 0.5368(6) 0.5282(2)
H2 H 0.655(7) 0.406(5) 0.516(3)
N3 N 0.7388(6) 0.6973(6) 0.3347(2)
H3 H 0.584(4) 0.697(8) 0.312(3)
N4 N -0.5265(7) 0.0784(7) 0.9549(3)
C1 C 0.1592(7) 0.2489(7) 0.6958(3)
C2 C 0.1679(7) 0.0103(7) 0.7395(3)
H4 H 0.2939 -0.1218 0.7226
C3 C -0.0057(7) -0.0352(7) 0.8072(3)
H5 H 0.0030 -0.1979 0.8372
C4 C -0.1912(7) 0.1561(7) 0.8309(3)
C5 C -0.2052(7) 0.3962(7) 0.7866(3)
H6 H -0.3337 0.5274 0.8029
C6 C -0.0315(7) 0.4420(7) 0.7191(3)
H7 H -0.0419 0.6047 0.6886
C7 C 0.3555(7) 0.2924(7) 0.6284(3)
H8 H 0.4890 0.1598 0.6157
C8 C 0.5418(6) 0.7614(6) 0.4842(3)
C9 C 0.7737(7) 0.7801(6) 0.4238(2)
H9 H 0.9370 0.6704 0.4609
C10 C 0.7976(7) 1.0400(7) 0.4068(3)
H10 H 0.9356 1.0565 0.3624
H11 H 0.6305 1.1536 0.3765
C11 C 0.9496(6) 0.6206(6) 0.2840(3)
C12 C 1.0646(6) 0.4596(6) 0.1381(3)
C13 C 1.2759(7) 0.2370(7) 0.1874(3)
H12 H 1.1951 0.1174 0.2234
H13 H 1.3889 0.2843 0.2320
H14 H 1.3804 0.1652 0.1389
C14 C 1.1733(7) 0.6664(7) 0.0902(3)
H15 H 1.3010 0.6928 0.1355
H16 H 1.0303 0.8154 0.0713
H17 H 1.2586 0.6241 0.0328
C15 C 0.8932(8) 0.3928(8) 0.0644(3)
H18 H 0.7630 0.5400 0.0310
H19 H 0.8042 0.2766 0.0977
H20 H 1.0027 0.3190 0.0174
C16 C -0.3755(8) 0.1130(7) 0.9000(3)
loop_
_geom_bond_atom_site_label_1
_geom_bond_atom_site_label_2
_geom_bond_site_symmetry_1
_geom_bond_site_symmetry_2
O1 C8 1_555 1_555
O2 H1 1_555 1_555
O3 C11 1_555 1_555
O4 C11 1_555 1_555
N1 N2 1_555 1_555
N2 H2 1_555 1_555
N3 H3 1_555 1_555
N4 C16 1_555 1_555
C1 C2 1_555 1_555
C2 H4 1_555 1_555
C3 C2 1_555 1_555
H5 C3 1_555 1_555
C4 C3 1_555 1_555
C5 C4 1_555 1_555
H6 C5 1_555 1_555
C6 C1 1_555 1_555
H7 C6 1_555 1_555
C7 N1 1_555 1_555
H8 C7 1_555 1_555
C8 N2 1_555 1_555
C9 N3 1_555 1_555
H9 C9 1_555 1_555
C10 O2 1_555 1_555
H10 C10 1_555 1_555
H11 C10 1_555 1_555
C11 N3 1_555 1_555
C12 O4 1_555 1_555
C13 C12 1_555 1_555
H12 C13 1_555 1_555
H13 C13 1_555 1_555
H14 C13 1_555 1_555
C14 C12 1_555 1_555
H15 C14 1_555 1_555
H16 C14 1_555 1_555
H17 C14 1_555 1_555
C15 C12 1_555 1_555
H18 C15 1_555 1_555
H19 C15 1_555 1_555
H20 C15 1_555 1_555
C16 C4 1_555 1_555
C1 C7 1_555 1_555
C5 C6 1_555 1_555
C8 C9 1_555 1_555
C9 C10 1_555 1_555

#END
