
#######################################################################
#
#                 Cambridge Crystallographic Data Centre
#                                CCDC 
#
#######################################################################
#
# If this CIF has been generated from an entry in the Cambridge 
# Structural Database, then it will include bibliographic, chemical, 
# crystal, experimental, refinement or atomic coordinate data resulting 
# from the CCDC's data processing and validation procedures.
#
#######################################################################

data_IPUWOG
_chemical_name_common            
't-Butyl (3-hydroxy-1-(2-(2-nitrobenzylidene)hydrazino)-1-oxopropan-2-yl)carbamate'
_chemical_formula_moiety         'C15 H20 N4 O6'
_chemical_name_systematic        
't-butyl (1S)-1-(hydroxymethyl)-2-[(2E)-2-(2-nitrobenzylidene)hydrazino]-2-oxoethylcarbamate'
_symmetry_cell_setting           monoclinic
_symmetry_space_group_name_H-M   'P 21'
_symmetry_Int_Tables_number      4
_space_group_name_Hall           'P 2yb'
loop_
_symmetry_equiv_pos_site_id
_symmetry_equiv_pos_as_xyz
1 x,y,z
2 -x,1/2+y,-z
_cell_length_a                   5.9135(2)
_cell_length_b                   10.2917(3)
_cell_length_c                   13.4274(5)
_cell_angle_alpha                90
_cell_angle_beta                 90.947(2)
_cell_angle_gamma                90
_cell_volume                     817.08
_exptl_crystal_colour            'pale yellow'
_exptl_crystal_description       plate
_cell_formula_units_Z            2
loop_
_atom_site_label
_atom_site_type_symbol
_atom_site_fract_x
_atom_site_fract_y
_atom_site_fract_z
O1 O 0.3058(3) 0.36622(16) 0.44448(13)
O2 O 0.7023(3) 0.59158(18) 0.45996(13)
H1 H 0.747(5) 0.674(4) 0.458(2)
O3 O 0.3737(3) 0.44686(17) 0.14003(13)
O4 O 0.1538(2) 0.61623(16) 0.18914(12)
O5 O 0.8633(3) -0.17670(17) 0.35135(13)
O6 O 1.1942(3) -0.23969(17) 0.40258(13)
N1 N 0.7724(3) 0.20620(18) 0.34848(14)
N2 N 0.5889(3) 0.23038(19) 0.40551(15)
H2 H 0.537(4) 0.172(3) 0.454(2)
N3 N 0.4144(3) 0.5378(2) 0.29309(15)
H3 H 0.359(5) 0.587(3) 0.339(2)
N4 N 1.0692(3) -0.1638(2) 0.35739(15)
C1 C 1.0671(4) 0.0658(2) 0.30241(17)
C2 C 1.1727(4) -0.0558(2) 0.30389(17)
C3 C 1.3687(4) -0.0828(2) 0.25313(18)
H4 H 1.4379 -0.1659 0.2586
C4 C 1.4622(4) 0.0121(3) 0.19465(19)
H5 H 1.5957 -0.0051 0.1585
C5 C 1.3591(4) 0.1337(2) 0.18887(19)
H6 H 1.4212 0.1990 0.1474
C6 C 1.1683(4) 0.1604(2) 0.24250(18)
H7 H 1.1036 0.2448 0.2389
C7 C 0.8710(4) 0.0968(2) 0.36348(18)
H8 H 0.8189 0.0379 0.4125
C8 C 0.4773(4) 0.3457(2) 0.39726(16)
C9 C 0.5820(3) 0.4451(2) 0.32814(17)
H9 H 0.6415 0.3979 0.2690
C10 C 0.7797(4) 0.5150(2) 0.37925(19)
H10 H 0.8907 0.4503 0.4042
H11 H 0.8562 0.5715 0.3305
C11 C 0.3179(4) 0.5249(2) 0.20157(17)
C12 C 0.0409(4) 0.6311(2) 0.09096(17)
C13 C -0.0784(4) 0.5064(3) 0.0610(2)
H12 H -0.1734 0.4769 0.1156
H13 H 0.0342 0.4395 0.0462
H14 H -0.1732 0.5221 0.0016
C14 C 0.2137(4) 0.6736(3) 0.01536(19)
H15 H 0.3253 0.6043 0.0065
H16 H 0.2902 0.7524 0.0392
H17 H 0.1372 0.6915 -0.0485
C15 C -0.1308(4) 0.7380(3) 0.10995(19)
H18 H -0.0516 0.8171 0.1313
H19 H -0.2339 0.7101 0.1622
H20 H -0.2174 0.7555 0.0486
loop_
_geom_bond_atom_site_label_1
_geom_bond_atom_site_label_2
_geom_bond_site_symmetry_1
_geom_bond_site_symmetry_2
O1 C8 1_555 1_555
O2 H1 1_555 1_555
O3 C11 1_555 1_555
O4 C11 1_555 1_555
O5 N4 1_555 1_555
O6 N4 1_555 1_555
N1 N2 1_555 1_555
N2 H2 1_555 1_555
N3 H3 1_555 1_555
N4 C2 1_555 1_555
C1 C2 1_555 1_555
C2 C3 1_555 1_555
C3 H4 1_555 1_555
C4 C3 1_555 1_555
H5 C4 1_555 1_555
C5 C4 1_555 1_555
H6 C5 1_555 1_555
C6 C1 1_555 1_555
H7 C6 1_555 1_555
C7 N1 1_555 1_555
H8 C7 1_555 1_555
C8 N2 1_555 1_555
C9 N3 1_555 1_555
H9 C9 1_555 1_555
C10 O2 1_555 1_555
H10 C10 1_555 1_555
H11 C10 1_555 1_555
C11 N3 1_555 1_555
C12 O4 1_555 1_555
C13 C12 1_555 1_555
H12 C13 1_555 1_555
H13 C13 1_555 1_555
H14 C13 1_555 1_555
C14 C12 1_555 1_555
H15 C14 1_555 1_555
H16 C14 1_555 1_555
H17 C14 1_555 1_555
C15 C12 1_555 1_555
H18 C15 1_555 1_555
H19 C15 1_555 1_555
H20 C15 1_555 1_555
C1 C7 1_555 1_555
C5 C6 1_555 1_555
C8 C9 1_555 1_555
C9 C10 1_555 1_555

#END
