
#######################################################################
#
#                 Cambridge Crystallographic Data Centre
#                                CCDC 
#
#######################################################################
#
# If this CIF has been generated from an entry in the Cambridge 
# Structural Database, then it will include bibliographic, chemical, 
# crystal, experimental, refinement or atomic coordinate data resulting 
# from the CCDC's data processing and validation procedures.
#
#######################################################################

data_IPUYOJ
_chemical_formula_moiety         'C12 H11 N3 O3'
_chemical_name_systematic        
3-(3-methoxyphenyl)-6,7-dihydro-4H-[1,2,3]triazolo[5,1-c][1,4]oxazin-4-one
_symmetry_cell_setting           orthorhombic
_symmetry_space_group_name_H-M   'P n 21 a'
_symmetry_Int_Tables_number      33
_space_group_name_Hall           'P -2ac -2n'
loop_
_symmetry_equiv_pos_site_id
_symmetry_equiv_pos_as_xyz
1 x,y,z
2 -x,1/2+y,-z
3 1/2+x,y,1/2-z
4 1/2-x,1/2+y,1/2+z
_cell_length_a                   7.355(2)
_cell_length_b                   10.208(3)
_cell_length_c                   15.140(5)
_cell_angle_alpha                90
_cell_angle_beta                 90
_cell_angle_gamma                90
_cell_volume                     1136.71
_exptl_crystal_colour            'metallic light colorless'
_exptl_crystal_description       block
_cell_formula_units_Z            4
loop_
_atom_site_label
_atom_site_type_symbol
_atom_site_fract_x
_atom_site_fract_y
_atom_site_fract_z
C1 C 0.0378(8) 0.9287(6) 0.1729(4)
C2 C -0.0288(8) 1.0483(6) 0.2161(4)
C3 C 0.0984(8) 0.8191(6) 0.2218(4)
H1 H 0.0932 0.8205 0.2832
N1 N -0.1078(7) 1.2143(5) 0.2972(4)
C4 C -0.0422(8) 1.0906(6) 0.3039(4)
O1 O 0.0742(7) 0.9353(5) 0.4049(3)
C5 C 0.1653(9) 0.7097(7) 0.1789(5)
N2 N -0.1336(10) 1.2496(6) 0.2137(5)
O2 O 0.2228(7) 0.5995(5) 0.2211(4)
C6 C 0.1726(10) 0.7076(8) 0.0864(5)
H2 H 0.2181 0.6346 0.0570
N3 N -0.0872(9) 1.1493(6) 0.1642(4)
C7 C 0.0447(9) 0.9238(8) 0.0809(4)
H3 H 0.0039 0.9946 0.0477
O3 O -0.0448(6) 1.1127(5) 0.4605(3)
C8 C 0.2068(10) 0.5931(8) 0.3155(6)
H4 H 0.0809 0.5986 0.3319
H5 H 0.2723 0.6647 0.3416
H6 H 0.2565 0.5118 0.3362
C9 C -0.0005(8) 1.0379(8) 0.3912(4)
C10 C -0.1317(12) 1.3011(8) 0.3743(6)
H7 H -0.0203 1.3489 0.3861
H8 H -0.2282 1.3638 0.3632
C11 C 0.1119(10) 0.8146(8) 0.0396(5)
H9 H 0.1166 0.8127 -0.0218
C12 C -0.1785(13) 1.2173(9) 0.4500(6)
H10 H -0.1825 1.2699 0.5033
H11 H -0.2980 1.1795 0.4409
loop_
_geom_bond_atom_site_label_1
_geom_bond_atom_site_label_2
_geom_bond_site_symmetry_1
_geom_bond_site_symmetry_2
C1 C2 1_555 1_555
C2 C4 1_555 1_555
C3 C1 1_555 1_555
H1 C3 1_555 1_555
N1 C4 1_555 1_555
C4 C9 1_555 1_555
O1 C9 1_555 1_555
C5 C3 1_555 1_555
N2 N1 1_555 1_555
O2 C5 1_555 1_555
C6 C5 1_555 1_555
H2 C6 1_555 1_555
N3 C2 1_555 1_555
C7 C1 1_555 1_555
H3 C7 1_555 1_555
O3 C9 1_555 1_555
C8 O2 1_555 1_555
H4 C8 1_555 1_555
H5 C8 1_555 1_555
H6 C8 1_555 1_555
C10 N1 1_555 1_555
H7 C10 1_555 1_555
H8 C10 1_555 1_555
C11 C6 1_555 1_555
H9 C11 1_555 1_555
C12 O3 1_555 1_555
H10 C12 1_555 1_555
H11 C12 1_555 1_555
N2 N3 1_555 1_555
C7 C11 1_555 1_555
C10 C12 1_555 1_555

#END
