
#######################################################################
#
#                 Cambridge Crystallographic Data Centre
#                                CCDC 
#
#######################################################################
#
# If this CIF has been generated from an entry in the Cambridge 
# Structural Database, then it will include bibliographic, chemical, 
# crystal, experimental, refinement or atomic coordinate data resulting 
# from the CCDC's data processing and validation procedures.
#
#######################################################################

data_IPUZEZ
_chemical_formula_moiety         'C15 H15 N1 O5'
_chemical_name_systematic        
3-(4-Methoxyphenyl)-2-nitro-3,5,6,7-tetrahydro-1-benzofuran-4(2H)-one
_symmetry_cell_setting           monoclinic
_symmetry_space_group_name_H-M   'C 2/c'
_symmetry_Int_Tables_number      15
_space_group_name_Hall           '-C 2yn'
loop_
_symmetry_equiv_pos_site_id
_symmetry_equiv_pos_as_xyz
1 x,y,z
2 -x,y,1/2-z
3 1/2+x,1/2+y,z
4 1/2-x,1/2+y,1/2-z
5 -x,-y,-z
6 x,-y,1/2+z
7 1/2-x,1/2-y,-z
8 1/2+x,1/2-y,1/2+z
_cell_length_a                   22.0833(10)
_cell_length_b                   7.0950(3)
_cell_length_c                   20.9180(10)
_cell_angle_alpha                90
_cell_angle_beta                 119.360(6)
_cell_angle_gamma                90
_cell_volume                     2856.49
_exptl_crystal_colour            colorless
_exptl_crystal_description       block
_cell_formula_units_Z            8
loop_
_atom_site_label
_atom_site_type_symbol
_atom_site_fract_x
_atom_site_fract_y
_atom_site_fract_z
N1 N 0.61514(8) 0.3815(2) 0.38804(10)
O1 O 0.57908(10) 0.2577(2) 0.34799(12)
O2 O 0.67104(8) 0.3587(2) 0.44222(10)
O3 O 0.63729(5) 0.70790(15) 0.40636(5)
O4 O 0.49947(6) 0.73919(16) 0.51477(6)
O5 O 0.26631(6) 0.86773(18) 0.17807(6)
C1 C 0.25811(10) 1.0442(3) 0.14375(11)
H1 H 0.2099 1.0647 0.1095
H2 H 0.2843 1.0460 0.1182
H3 H 0.2746 1.1419 0.1802
C2 C 0.33191(7) 0.8132(2) 0.22922(7)
C3 C 0.39071(7) 0.9222(2) 0.25301(7)
H4 H 0.3878 1.0415 0.2333
C4 C 0.45425(7) 0.85256(19) 0.30657(7)
H5 H 0.4937 0.9272 0.3228
C5 C 0.46037(7) 0.67569(19) 0.33637(7)
C6 C 0.40094(8) 0.5664(2) 0.31051(9)
H6 H 0.4039 0.4456 0.3291
C7 C 0.33740(8) 0.6342(2) 0.25755(9)
H7 H 0.2980 0.5589 0.2408
C8 C 0.52939(7) 0.59945(19) 0.39509(7)
H8 H 0.5223 0.4773 0.4123
C9 C 0.58371(7) 0.5785(2) 0.36852(8)
H9 H 0.5618 0.5997 0.3155
C10 C 0.62845(7) 0.78212(19) 0.46203(7)
C11 C 0.56975(7) 0.7274(2) 0.45959(7)
C12 C 0.55325(8) 0.7849(2) 0.51607(7)
C13 C 0.60955(9) 0.8968(3) 0.57806(8)
H10 H 0.6403 0.8101 0.6160
H11 H 0.5883 0.9771 0.5991
C14 C 0.65230(10) 1.0182(3) 0.55563(10)
H12 H 0.6899 1.0752 0.5991
H13 H 0.6233 1.1189 0.5242
C15 C 0.68252(8) 0.9084(2) 0.51547(9)
H14 H 0.6979 0.9947 0.4903
H15 H 0.7222 0.8353 0.5502
loop_
_geom_bond_atom_site_label_1
_geom_bond_atom_site_label_2
_geom_bond_site_symmetry_1
_geom_bond_site_symmetry_2
N1 O1 1_555 1_555
O2 N1 1_555 1_555
O3 C9 1_555 1_555
O4 C12 1_555 1_555
O5 C1 1_555 1_555
C1 H1 1_555 1_555
H2 C1 1_555 1_555
H3 C1 1_555 1_555
C2 O5 1_555 1_555
C3 C2 1_555 1_555
H4 C3 1_555 1_555
C4 C3 1_555 1_555
H5 C4 1_555 1_555
C5 C4 1_555 1_555
C6 C5 1_555 1_555
H6 C6 1_555 1_555
C7 C2 1_555 1_555
H7 C7 1_555 1_555
C8 C5 1_555 1_555
H8 C8 1_555 1_555
C9 N1 1_555 1_555
H9 C9 1_555 1_555
C10 O3 1_555 1_555
C11 C8 1_555 1_555
C12 C11 1_555 1_555
C13 C12 1_555 1_555
H10 C13 1_555 1_555
H11 C13 1_555 1_555
C14 C13 1_555 1_555
H12 C14 1_555 1_555
H13 C14 1_555 1_555
C15 C10 1_555 1_555
H14 C15 1_555 1_555
H15 C15 1_555 1_555
C6 C7 1_555 1_555
C8 C9 1_555 1_555
C10 C11 1_555 1_555
C14 C15 1_555 1_555

#END
