
#######################################################################
#
#                 Cambridge Crystallographic Data Centre
#                                CCDC 
#
#######################################################################
#
# If this CIF has been generated from an entry in the Cambridge 
# Structural Database, then it will include bibliographic, chemical, 
# crystal, experimental, refinement or atomic coordinate data resulting 
# from the CCDC's data processing and validation procedures.
#
#######################################################################

data_IQABAE
_chemical_formula_moiety         'C40 H24'
_chemical_name_systematic        5,10-Diphenyldibenzo[h,rst]pentaphene
_symmetry_cell_setting           monoclinic
_symmetry_space_group_name_H-M   'C 2/c'
_symmetry_Int_Tables_number      15
_space_group_name_Hall           '-C 2yn'
loop_
_symmetry_equiv_pos_site_id
_symmetry_equiv_pos_as_xyz
1 x,y,z
2 -x,y,1/2-z
3 1/2+x,1/2+y,z
4 1/2-x,1/2+y,1/2-z
5 -x,-y,-z
6 x,-y,1/2+z
7 1/2-x,1/2-y,-z
8 1/2+x,1/2-y,1/2+z
_cell_length_a                   27.083(3)
_cell_length_b                   5.8323(7)
_cell_length_c                   34.230(4)
_cell_angle_alpha                90
_cell_angle_beta                 111.812(3)
_cell_angle_gamma                90
_cell_volume                     5019.75
_exptl_crystal_colour            yellow
_exptl_crystal_description       plate
_cell_formula_units_Z            8
loop_
_atom_site_label
_atom_site_type_symbol
_atom_site_fract_x
_atom_site_fract_y
_atom_site_fract_z
C1 C 0.40185(14) 0.4870(5) 0.15615(10)
H1 H 0.4103 0.5721 0.1362
C2 C 0.43978(14) 0.3512(5) 0.18393(11)
H2 H 0.4742 0.3460 0.1833
C3 C 0.42785(15) 0.2207(6) 0.21313(10)
H3 H 0.4541 0.1268 0.2321
C4 C 0.37814(15) 0.2286(6) 0.21437(10)
H4 H 0.3704 0.1389 0.2342
C5 C 0.33817(14) 0.3690(5) 0.18644(10)
C6 C 0.34995(13) 0.5021(5) 0.15689(9)
C7 C 0.31020(14) 0.6517(5) 0.12863(9)
C8 C 0.26068(13) 0.6792(5) 0.13253(9)
C9 C 0.24719(13) 0.5347(5) 0.16122(9)
C10 C 0.28524(14) 0.3784(5) 0.18722(9)
C11 C 0.27066(15) 0.2276(6) 0.21302(10)
H5 H 0.2959 0.1230 0.2300
C12 C 0.22138(15) 0.2285(6) 0.21413(10)
H6 H 0.2131 0.1255 0.2319
C13 C 0.18200(14) 0.3819(5) 0.18899(9)
C14 C 0.19421(13) 0.5371(5) 0.16232(8)
C15 C 0.15346(14) 0.6845(5) 0.13454(9)
C16 C 0.10082(14) 0.6578(5) 0.13208(9)
C17 C 0.08881(14) 0.5067(5) 0.16061(9)
C18 C 0.12905(14) 0.3740(5) 0.18958(9)
C19 C 0.11602(16) 0.2346(6) 0.21817(10)
H7 H 0.1428 0.1466 0.2379
C20 C 0.06531(16) 0.2245(6) 0.21782(11)
H8 H 0.0577 0.1318 0.2373
C21 C 0.02500(15) 0.3530(6) 0.18827(11)
H9 H -0.0099 0.3465 0.1878
C22 C 0.03636(14) 0.4874(5) 0.16017(10)
H10 H 0.0087 0.5695 0.1399
C23 C 0.32643(12) 0.7589(5) 0.09556(10)
C24 C 0.36078(13) 0.9465(5) 0.10496(11)
H11 H 0.3727 1.0107 0.1321
C25 C 0.37742(14) 1.0387(6) 0.07487(12)
H12 H 0.4003 1.1663 0.0815
C26 C 0.36068(15) 0.9447(7) 0.03522(12)
H13 H 0.3719 1.0080 0.0147
C27 C 0.32727(16) 0.7568(8) 0.02579(12)
H14 H 0.3158 0.6919 -0.0013
C28 C 0.31078(15) 0.6647(6) 0.05572(11)
H15 H 0.2885 0.5354 0.0491
C29 C 0.22154(13) 0.8556(5) 0.10909(9)
C30 C 0.23436(16) 1.0362(6) 0.08771(13)
H16 H 0.2690 1.0407 0.0875
C31 C 0.20002(15) 1.2063(6) 0.06713(11)
H17 H 0.2102 1.3176 0.0517
C32 C 0.15143(15) 1.2126(6) 0.06921(11)
H18 H 0.1272 1.3292 0.0555
C33 C 0.13777(16) 1.0471(7) 0.09150(13)
H19 H 0.1046 1.0598 0.0943
C34 C 0.17007(14) 0.8593(5) 0.11051(9)
C35 C 0.05320(14) 0.7691(5) 0.09958(9)
C36 C 0.03233(17) 0.6802(7) 0.05991(12)
H20 H 0.0489 0.5543 0.0527
C37 C -0.01312(19) 0.7743(8) 0.03015(13)
H21 H -0.0268 0.7123 0.0029
C38 C -0.03818(16) 0.9555(7) 0.03995(12)
H22 H -0.0691 1.0181 0.0197
C39 C -0.01783(15) 1.0450(6) 0.07964(11)
H23 H -0.0346 1.1705 0.0868
C40 C 0.02738(14) 0.9511(5) 0.10931(10)
H24 H 0.0408 1.0124 0.1367
loop_
_geom_bond_atom_site_label_1
_geom_bond_atom_site_label_2
_geom_bond_site_symmetry_1
_geom_bond_site_symmetry_2
C1 H1 1_555 1_555
C2 C1 1_555 1_555
H2 C2 1_555 1_555
C3 C2 1_555 1_555
H3 C3 1_555 1_555
C4 C3 1_555 1_555
H4 C4 1_555 1_555
C5 C4 1_555 1_555
C6 C1 1_555 1_555
C7 C6 1_555 1_555
C8 C7 1_555 1_555
C9 C8 1_555 1_555
C10 C5 1_555 1_555
C11 C10 1_555 1_555
H5 C11 1_555 1_555
C12 C11 1_555 1_555
H6 C12 1_555 1_555
C13 C12 1_555 1_555
C14 C9 1_555 1_555
C15 C14 1_555 1_555
C16 C15 1_555 1_555
C17 C16 1_555 1_555
C18 C13 1_555 1_555
C19 C18 1_555 1_555
H7 C19 1_555 1_555
C20 C19 1_555 1_555
H8 C20 1_555 1_555
C21 C20 1_555 1_555
H9 C21 1_555 1_555
C22 C17 1_555 1_555
H10 C22 1_555 1_555
C23 C7 1_555 1_555
C24 C23 1_555 1_555
H11 C24 1_555 1_555
C25 C24 1_555 1_555
H12 C25 1_555 1_555
C26 C25 1_555 1_555
H13 C26 1_555 1_555
C27 C26 1_555 1_555
H14 C27 1_555 1_555
C28 C23 1_555 1_555
H15 C28 1_555 1_555
C29 C8 1_555 1_555
C30 C29 1_555 1_555
H16 C30 1_555 1_555
C31 C30 1_555 1_555
H17 C31 1_555 1_555
C32 C31 1_555 1_555
H18 C32 1_555 1_555
C33 C32 1_555 1_555
H19 C33 1_555 1_555
C34 C15 1_555 1_555
C35 C16 1_555 1_555
C36 C35 1_555 1_555
H20 C36 1_555 1_555
C37 C36 1_555 1_555
H21 C37 1_555 1_555
C38 C37 1_555 1_555
H22 C38 1_555 1_555
C39 C38 1_555 1_555
H23 C39 1_555 1_555
C40 C35 1_555 1_555
H24 C40 1_555 1_555
C5 C6 1_555 1_555
C9 C10 1_555 1_555
C13 C14 1_555 1_555
C17 C18 1_555 1_555
C21 C22 1_555 1_555
C27 C28 1_555 1_555
C29 C34 1_555 1_555
C33 C34 1_555 1_555
C39 C40 1_555 1_555

#END
