
#######################################################################
#
#                 Cambridge Crystallographic Data Centre
#                                CCDC 
#
#######################################################################
#
# If this CIF has been generated from an entry in the Cambridge 
# Structural Database, then it will include bibliographic, chemical, 
# crystal, experimental, refinement or atomic coordinate data resulting 
# from the CCDC's data processing and validation procedures.
#
#######################################################################

data_IQABEI
_chemical_formula_moiety         'C72 H84'
_chemical_name_systematic        
2,7,12,17-Tetraoctyltetrabenzo[a,d,j,m]coronene
_symmetry_cell_setting           triclinic
_symmetry_space_group_name_H-M   'P -1'
_symmetry_Int_Tables_number      2
_space_group_name_Hall           '-P 1'
loop_
_symmetry_equiv_pos_site_id
_symmetry_equiv_pos_as_xyz
1 x,y,z
2 -x,-y,-z
_cell_length_a                   10.7924(18)
_cell_length_b                   10.9938(18)
_cell_length_c                   13.144(2)
_cell_angle_alpha                101.931(3)
_cell_angle_beta                 109.727(4)
_cell_angle_gamma                107.943(4)
_cell_volume                     1309.84
_exptl_crystal_colour            yellow
_exptl_crystal_description       block
_cell_formula_units_Z            1
loop_
_atom_site_label
_atom_site_type_symbol
_atom_site_fract_x
_atom_site_fract_y
_atom_site_fract_z
C1 C 0.3899(3) 0.1293(3) 1.0494(2)
C2 C 0.5386(3) 0.1594(3) 1.1002(2)
H1 H 0.5695 0.1048 1.1415
C3 C 0.6407(3) 0.2639(3) 1.0929(2)
C4 C 0.5913(3) 0.3453(3) 1.0345(2)
H2 H 0.6596 0.4212 1.0311
C5 C 0.4482(3) 0.3189(3) 0.9827(2)
H3 H 0.4199 0.3772 0.9449
C6 C 0.3408(3) 0.2061(3) 0.9840(2)
C7 C 0.1868(3) 0.1730(3) 0.9300(2)
C8 C 0.1237(3) 0.2243(3) 0.8405(2)
C9 C 0.1905(3) 0.2703(3) 0.7716(2)
H4 H 0.2818 0.2687 0.7836
C10 C 0.1276(3) 0.3170(3) 0.6881(2)
H5 H 0.1764 0.3473 0.6439
C11 C -0.0071(3) 0.3211(3) 0.6663(2)
C12 C -0.0780(3) 0.2687(3) 0.7270(2)
H6 H -0.1716 0.2664 0.7108
C13 C -0.0165(3) 0.2180(3) 0.8129(2)
C14 C -0.1035(3) 0.1472(3) 0.8630(2)
C15 C -0.0518(3) 0.0729(3) 0.9297(2)
C16 C 0.0952(3) 0.0889(3) 0.9645(2)
C17 C 0.1462(3) 0.0150(3) 1.0362(2)
C18 C 0.2886(3) 0.0260(3) 1.0693(2)
C19 C 0.3304(3) -0.0598(3) 1.1261(2)
H7 H 0.4233 -0.0591 1.1422
C20 C -0.2422(3) 0.1430(3) 0.8414(2)
H8 H -0.2741 0.1998 0.8034
C21 C 0.7998(3) 0.2943(3) 1.1467(2)
H9 H 0.8538 0.3910 1.1977
H10 H 0.8322 0.2822 1.0847
C22 C 0.8386(3) 0.2058(3) 1.2164(2)
H11 H 0.7805 0.1088 1.1666
H12 H 0.8113 0.2219 1.2811
C23 C 0.9979(3) 0.2312(3) 1.2651(2)
H13 H 1.0239 0.2058 1.2008
H14 H 1.0577 0.3295 1.3097
C24 C 1.0297(3) 0.1489(3) 1.3426(2)
H15 H 1.0082 0.1791 1.4085
H16 H 0.9630 0.0519 1.2987
C25 C 1.1829(3) 0.1588(3) 1.3894(2)
H17 H 1.2514 0.2560 1.4256
H18 H 1.2012 0.1163 1.3250
C26 C 1.2093(3) 0.0880(3) 1.4781(3)
H19 H 1.1999 0.1369 1.5454
H20 H 1.1329 -0.0058 1.4439
C27 C 1.3543(3) 0.0805(3) 1.5197(3)
H21 H 1.4309 0.1717 1.5416
H22 H 1.3575 0.0169 1.4562
C28 C 1.3840(4) 0.0326(4) 1.6226(3)
H23 H 1.4011 0.1044 1.6904
H24 H 1.4695 0.0124 1.6379
H25 H 1.3006 -0.0498 1.6058
C29 C -0.0710(3) 0.3764(3) 0.5744(2)
H26 H -0.0611 0.3348 0.5048
H27 H -0.0122 0.4758 0.6024
C30 C -0.2286(3) 0.3536(3) 0.5387(2)
H28 H -0.2407 0.3945 0.6072
H29 H -0.2897 0.2545 0.5075
C31 C -0.2783(3) 0.4164(3) 0.4478(2)
H30 H -0.2250 0.5168 0.4831
H31 H -0.2520 0.3854 0.3849
C32 C -0.4396(3) 0.3819(3) 0.3957(2)
H32 H -0.4933 0.2829 0.3517
H33 H -0.4688 0.4032 0.4586
C33 C -0.4803(3) 0.4597(3) 0.3165(2)
H34 H -0.4448 0.4429 0.2569
H35 H -0.4304 0.5584 0.3620
C34 C -0.6415(3) 0.4225(3) 0.2568(2)
H36 H -0.6791 0.4340 0.3155
H37 H -0.6916 0.3254 0.2064
C35 C -0.6747(3) 0.5104(3) 0.1846(3)
H38 H -0.6286 0.6068 0.2360
H39 H -0.6314 0.5031 0.1293
C36 C -0.8354(3) 0.4710(3) 0.1179(3)
H40 H -0.8828 0.3745 0.0693
H41 H -0.8492 0.5268 0.0693
H42 H -0.8775 0.4865 0.1722
C1A C -0.3899(3) -0.1293(3) 0.9506(2)
C2A C -0.5386(3) -0.1594(3) 0.8998(2)
H1A H -0.5695 -0.1048 0.8585
C3A C -0.6407(3) -0.2639(3) 0.9071(2)
C4A C -0.5913(3) -0.3453(3) 0.9655(2)
H2A H -0.6596 -0.4212 0.9689
C5A C -0.4482(3) -0.3189(3) 1.0173(2)
H3A H -0.4199 -0.3772 1.0551
C6A C -0.3408(3) -0.2061(3) 1.0160(2)
C7A C -0.1868(3) -0.1730(3) 1.0700(2)
C8A C -0.1237(3) -0.2243(3) 1.1595(2)
C9A C -0.1905(3) -0.2703(3) 1.2284(2)
H4A H -0.2818 -0.2687 1.2164
C10A C -0.1276(3) -0.3170(3) 1.3119(2)
H5A H -0.1764 -0.3473 1.3561
C11A C 0.0071(3) -0.3211(3) 1.3337(2)
C12A C 0.0780(3) -0.2687(3) 1.2730(2)
H6A H 0.1716 -0.2664 1.2892
C13A C 0.0165(3) -0.2180(3) 1.1871(2)
C14A C 0.1035(3) -0.1472(3) 1.1370(2)
C15A C 0.0518(3) -0.0729(3) 1.0703(2)
C16A C -0.0952(3) -0.0889(3) 1.0355(2)
C17A C -0.1462(3) -0.0150(3) 0.9638(2)
C18A C -0.2886(3) -0.0260(3) 0.9307(2)
C19A C -0.3304(3) 0.0598(3) 0.8739(2)
H7A H -0.4233 0.0591 0.8578
C20A C 0.2422(3) -0.1430(3) 1.1586(2)
H8A H 0.2741 -0.1998 1.1966
C21A C -0.7998(3) -0.2943(3) 0.8533(2)
H9A H -0.8538 -0.3910 0.8023
H10A H -0.8322 -0.2822 0.9153
C22A C -0.8386(3) -0.2058(3) 0.7836(2)
H11A H -0.7805 -0.1088 0.8334
H12A H -0.8113 -0.2219 0.7189
C23A C -0.9979(3) -0.2312(3) 0.7349(2)
H13A H -1.0239 -0.2058 0.7992
H14A H -1.0577 -0.3295 0.6903
C24A C -1.0297(3) -0.1489(3) 0.6574(2)
H15A H -1.0082 -0.1791 0.5915
H16A H -0.9630 -0.0519 0.7013
C25A C -1.1829(3) -0.1588(3) 0.6106(2)
H17A H -1.2514 -0.2560 0.5744
H18A H -1.2012 -0.1163 0.6750
C26A C -1.2093(3) -0.0880(3) 0.5219(3)
H19A H -1.1999 -0.1369 0.4546
H20A H -1.1329 0.0058 0.5561
C27A C -1.3543(3) -0.0805(3) 0.4803(3)
H21A H -1.4309 -0.1717 0.4584
H22A H -1.3575 -0.0169 0.5438
C28A C -1.3840(4) -0.0326(4) 0.3774(3)
H23A H -1.4011 -0.1044 0.3096
H24A H -1.4695 -0.0124 0.3621
H25A H -1.3006 0.0498 0.3942
C29A C 0.0710(3) -0.3764(3) 1.4256(2)
H26A H 0.0611 -0.3348 1.4952
H27A H 0.0122 -0.4758 1.3976
C30A C 0.2286(3) -0.3536(3) 1.4613(2)
H28A H 0.2407 -0.3945 1.3928
H29A H 0.2897 -0.2545 1.4925
C31A C 0.2783(3) -0.4164(3) 1.5522(2)
H30A H 0.2250 -0.5168 1.5169
H31A H 0.2520 -0.3854 1.6151
C32A C 0.4396(3) -0.3819(3) 1.6043(2)
H32A H 0.4933 -0.2829 1.6483
H33A H 0.4688 -0.4032 1.5414
C33A C 0.4803(3) -0.4597(3) 1.6835(2)
H34A H 0.4448 -0.4429 1.7431
H35A H 0.4304 -0.5584 1.6380
C34A C 0.6415(3) -0.4225(3) 1.7432(2)
H36A H 0.6791 -0.4340 1.6845
H37A H 0.6916 -0.3254 1.7936
C35A C 0.6747(3) -0.5104(3) 1.8154(3)
H38A H 0.6286 -0.6068 1.7640
H39A H 0.6314 -0.5031 1.8707
C36A C 0.8354(3) -0.4710(3) 1.8821(3)
H40A H 0.8828 -0.3745 1.9307
H41A H 0.8492 -0.5268 1.9307
H42A H 0.8775 -0.4865 1.8278
loop_
_geom_bond_atom_site_label_1
_geom_bond_atom_site_label_2
_geom_bond_site_symmetry_1
_geom_bond_site_symmetry_2
C1 C2 1_555 1_555
C2 H1 1_555 1_555
C3 C2 1_555 1_555
C4 C3 1_555 1_555
H2 C4 1_555 1_555
C5 C4 1_555 1_555
H3 C5 1_555 1_555
C6 C1 1_555 1_555
C7 C6 1_555 1_555
C8 C7 1_555 1_555
C9 C8 1_555 1_555
H4 C9 1_555 1_555
C10 C9 1_555 1_555
H5 C10 1_555 1_555
C11 C10 1_555 1_555
C12 C11 1_555 1_555
H6 C12 1_555 1_555
C13 C8 1_555 1_555
C14 C13 1_555 1_555
C15 C14 1_555 1_555
C16 C7 1_555 1_555
C17 C16 1_555 1_555
C18 C1 1_555 1_555
C19 C18 1_555 1_555
H7 C19 1_555 1_555
C20 C14 1_555 1_555
H8 C20 1_555 1_555
C21 C3 1_555 1_555
H9 C21 1_555 1_555
H10 C21 1_555 1_555
C22 C21 1_555 1_555
H11 C22 1_555 1_555
H12 C22 1_555 1_555
C23 C22 1_555 1_555
H13 C23 1_555 1_555
H14 C23 1_555 1_555
C24 C23 1_555 1_555
H15 C24 1_555 1_555
H16 C24 1_555 1_555
C25 C24 1_555 1_555
H17 C25 1_555 1_555
H18 C25 1_555 1_555
C26 C25 1_555 1_555
H19 C26 1_555 1_555
H20 C26 1_555 1_555
C27 C26 1_555 1_555
H21 C27 1_555 1_555
H22 C27 1_555 1_555
C28 C27 1_555 1_555
H23 C28 1_555 1_555
H24 C28 1_555 1_555
H25 C28 1_555 1_555
C29 C11 1_555 1_555
H26 C29 1_555 1_555
H27 C29 1_555 1_555
C30 C29 1_555 1_555
H28 C30 1_555 1_555
H29 C30 1_555 1_555
C31 C30 1_555 1_555
H30 C31 1_555 1_555
H31 C31 1_555 1_555
C32 C31 1_555 1_555
H32 C32 1_555 1_555
H33 C32 1_555 1_555
C33 C32 1_555 1_555
H34 C33 1_555 1_555
H35 C33 1_555 1_555
C34 C33 1_555 1_555
H36 C34 1_555 1_555
H37 C34 1_555 1_555
C35 C34 1_555 1_555
H38 C35 1_555 1_555
H39 C35 1_555 1_555
C36 C35 1_555 1_555
H40 C36 1_555 1_555
H41 C36 1_555 1_555
H42 C36 1_555 1_555
C1A C2A 1_555 1_555
C2A H1A 1_555 1_555
C3A C2A 1_555 1_555
C4A C3A 1_555 1_555
H2A C4A 1_555 1_555
C5A C4A 1_555 1_555
H3A C5A 1_555 1_555
C6A C1A 1_555 1_555
C7A C6A 1_555 1_555
C8A C7A 1_555 1_555
C9A C8A 1_555 1_555
H4A C9A 1_555 1_555
C10A C9A 1_555 1_555
H5A C10A 1_555 1_555
C11A C10A 1_555 1_555
C12A C11A 1_555 1_555
H6A C12A 1_555 1_555
C13A C8A 1_555 1_555
C14A C13A 1_555 1_555
C15A C17 1_555 1_555
C16A C7A 1_555 1_555
C17A C15 1_555 1_555
C18A C1A 1_555 1_555
C19A C20 1_555 1_555
H7A C19A 1_555 1_555
C20A C19 1_555 1_555
H8A C20A 1_555 1_555
C21A C3A 1_555 1_555
H9A C21A 1_555 1_555
H10A C21A 1_555 1_555
C22A C21A 1_555 1_555
H11A C22A 1_555 1_555
H12A C22A 1_555 1_555
C23A C22A 1_555 1_555
H13A C23A 1_555 1_555
H14A C23A 1_555 1_555
C24A C23A 1_555 1_555
H15A C24A 1_555 1_555
H16A C24A 1_555 1_555
C25A C24A 1_555 1_555
H17A C25A 1_555 1_555
H18A C25A 1_555 1_555
C26A C25A 1_555 1_555
H19A C26A 1_555 1_555
H20A C26A 1_555 1_555
C27A C26A 1_555 1_555
H21A C27A 1_555 1_555
H22A C27A 1_555 1_555
C28A C27A 1_555 1_555
H23A C28A 1_555 1_555
H24A C28A 1_555 1_555
H25A C28A 1_555 1_555
C29A C11A 1_555 1_555
H26A C29A 1_555 1_555
H27A C29A 1_555 1_555
C30A C29A 1_555 1_555
H28A C30A 1_555 1_555
H29A C30A 1_555 1_555
C31A C30A 1_555 1_555
H30A C31A 1_555 1_555
H31A C31A 1_555 1_555
C32A C31A 1_555 1_555
H32A C32A 1_555 1_555
H33A C32A 1_555 1_555
C33A C32A 1_555 1_555
H34A C33A 1_555 1_555
H35A C33A 1_555 1_555
C34A C33A 1_555 1_555
H36A C34A 1_555 1_555
H37A C34A 1_555 1_555
C35A C34A 1_555 1_555
H38A C35A 1_555 1_555
H39A C35A 1_555 1_555
C36A C35A 1_555 1_555
H40A C36A 1_555 1_555
H41A C36A 1_555 1_555
H42A C36A 1_555 1_555
C5 C6 1_555 1_555
C12 C13 1_555 1_555
C15 C16 1_555 1_555
C17 C18 1_555 1_555
C5A C6A 1_555 1_555
C12A C13A 1_555 1_555
C14A C15A 1_555 1_555
C14A C20A 1_555 1_555
C15A C16A 1_555 1_555
C16A C17A 1_555 1_555
C17A C18A 1_555 1_555
C18A C19A 1_555 1_555

#END
