
#######################################################################
#
#                 Cambridge Crystallographic Data Centre
#                                CCDC 
#
#######################################################################
#
# If this CIF has been generated from an entry in the Cambridge 
# Structural Database, then it will include bibliographic, chemical, 
# crystal, experimental, refinement or atomic coordinate data resulting 
# from the CCDC's data processing and validation procedures.
#
#######################################################################

data_IQAFIP
_chemical_formula_moiety         'C66 H38,2(C4 H8 O1)'
_chemical_name_systematic        
'6,8,15,17-Tetraphenyl-1,18:4,5:9,10:13,14-tetrabenzoheptacene tetrahydrofuran solvate'
_symmetry_cell_setting           monoclinic
_symmetry_space_group_name_H-M   'P 21/n'
_symmetry_Int_Tables_number      14
_space_group_name_Hall           '-P 2yn'
loop_
_symmetry_equiv_pos_site_id
_symmetry_equiv_pos_as_xyz
1 x,y,z
2 1/2+x,1/2-y,1/2+z
3 -x,-y,-z
4 1/2-x,1/2+y,1/2-z
_cell_length_a                   13.153(2)
_cell_length_b                   15.005(3)
_cell_length_c                   14.196(3)
_cell_angle_alpha                90
_cell_angle_beta                 110.845(4)
_cell_angle_gamma                90
_cell_volume                     2618.35
_exptl_crystal_colour            red
_exptl_crystal_description       block
_cell_formula_units_Z            2
_exptl_crystal_preparation       fluorescent
loop_
_atom_site_label
_atom_site_type_symbol
_atom_site_fract_x
_atom_site_fract_y
_atom_site_fract_z
C1 C 0.5832(7) 0.1742(6) 0.5640(7)
C2 C 0.6084(7) 0.1985(6) 0.6636(7)
C3 C 0.6257(7) 0.2924(7) 0.6998(8)
C4 C 0.5861(8) 0.3656(7) 0.6353(8)
H1 H 0.5465 0.3560 0.5674
C5 C 0.6054(9) 0.4518(7) 0.6720(9)
H2 H 0.5791 0.4992 0.6277
C6 C 0.6610(9) 0.4690(7) 0.7699(10)
H3 H 0.6756 0.5277 0.7917
C7 C 0.6963(8) 0.4006(7) 0.8379(9)
C8 C 0.6752(7) 0.3097(7) 0.8037(8)
C9 C 0.7536(9) 0.4150(9) 0.9444(10)
H4 H 0.7672 0.4731 0.9683
C10 C 0.7882(9) 0.3468(9) 1.0105(9)
H5 H 0.8267 0.3593 1.0780
C11 C 0.7671(8) 0.2566(8) 0.9792(9)
C12 C 0.8065(8) 0.1865(9) 1.0449(8)
H6 H 0.8478 0.1984 1.1119
C13 C 0.7865(8) 0.1006(8) 1.0140(8)
H7 H 0.8147 0.0542 1.0592
C14 C 0.7231(7) 0.0821(7) 0.9136(7)
H8 H 0.7102 0.0231 0.8928
C15 C 0.6787(8) 0.1501(7) 0.8439(7)
C16 C 0.7062(7) 0.2391(7) 0.8754(8)
C17 C 0.6130(7) 0.1305(6) 0.7367(7)
C18 C 0.5598(7) 0.0505(6) 0.7066(6)
C19 C 0.5245(7) 0.0265(6) 0.6018(7)
C20 C 0.5470(7) 0.0853(6) 0.5318(7)
C21 C 0.5276(7) -0.0073(6) 0.7757(7)
C22 C 0.4556(8) 0.0245(7) 0.8175(7)
H9 H 0.4297 0.0825 0.8034
C23 C 0.4205(10) -0.0274(9) 0.8800(9)
H10 H 0.3739 -0.0029 0.9093
C24 C 0.4529(10) -0.1141(9) 0.8996(9)
H11 H 0.4267 -0.1494 0.9398
C25 C 0.5234(9) -0.1472(7) 0.8595(7)
H12 H 0.5466 -0.2060 0.8733
C26 C 0.5634(8) -0.0957(6) 0.7969(7)
H13 H 0.6126 -0.1198 0.7703
C27 C 0.5926(9) 0.2370(6) 0.4862(8)
C28 C 0.5026(9) 0.2610(6) 0.4022(7)
H14 H 0.4348 0.2367 0.3932
C29 C 0.5134(13) 0.3211(8) 0.3318(9)
H15 H 0.4527 0.3386 0.2774
C30 C 0.6141(19) 0.3543(9) 0.3433(13)
H16 H 0.6214 0.3933 0.2953
C31 C 0.7038(15) 0.3311(9) 0.4238(13)
H17 H 0.7717 0.3550 0.4321
C32 C 0.6914(9) 0.2715(7) 0.4924(9)
H18 H 0.7531 0.2536 0.5457
C33 C 0.4747(7) -0.0563(6) 0.5670(7)
H19 H 0.4556 -0.0927 0.6111
C33B C 0.5253(7) 0.0563(6) 0.4330(7)
C19B C 0.4755(7) -0.0265(6) 0.3982(7)
C18B C 0.4402(7) -0.0505(6) 0.2934(6)
C17B C 0.3870(7) -0.1305(6) 0.2633(7)
C2B C 0.3916(7) -0.1985(6) 0.3364(7)
C1B C 0.4168(7) -0.1742(6) 0.4360(7)
C20B C 0.4530(7) -0.0853(6) 0.4682(7)
C27B C 0.4074(9) -0.2370(6) 0.5138(8)
C28B C 0.4974(9) -0.2610(6) 0.5978(7)
H14B H 0.5652 -0.2367 0.6068
C29B C 0.4866(13) -0.3211(8) 0.6682(9)
H15B H 0.5473 -0.3386 0.7226
C30B C 0.3859(19) -0.3543(9) 0.6567(13)
H16B H 0.3786 -0.3933 0.7047
C31B C 0.2962(15) -0.3311(9) 0.5762(13)
H17B H 0.2283 -0.3550 0.5679
C32B C 0.3086(9) -0.2715(7) 0.5076(9)
H18B H 0.2469 -0.2536 0.4543
C3B C 0.3743(7) -0.2924(7) 0.3002(8)
C4B C 0.4139(8) -0.3656(7) 0.3647(8)
H1B H 0.4535 -0.3560 0.4326
C5B C 0.3946(9) -0.4518(7) 0.3280(9)
H2B H 0.4209 -0.4992 0.3723
C6B C 0.3390(9) -0.4690(7) 0.2301(10)
H3B H 0.3244 -0.5277 0.2083
C7B C 0.3037(8) -0.4006(7) 0.1621(9)
C8B C 0.3248(7) -0.3097(7) 0.1963(8)
C16B C 0.2938(7) -0.2391(7) 0.1246(8)
C11B C 0.2329(8) -0.2566(8) 0.0208(9)
C10B C 0.2118(9) -0.3468(9) -0.0105(9)
C9B C 0.2464(9) -0.4150(9) 0.0556(10)
H4B H 0.2328 -0.4731 0.0317
H5B H 0.1733 -0.3593 -0.0780
C12B C 0.1935(8) -0.1865(9) -0.0449(8)
H6B H 0.1522 -0.1984 -0.1119
C13B C 0.2135(8) -0.1006(8) -0.0140(8)
H7B H 0.1853 -0.0542 -0.0592
C14B C 0.2769(7) -0.0821(7) 0.0864(7)
H8B H 0.2898 -0.0231 0.1072
C15B C 0.3213(8) -0.1501(7) 0.1561(7)
C21B C 0.4724(7) 0.0073(6) 0.2243(7)
C22B C 0.5444(8) -0.0245(7) 0.1825(7)
H9B H 0.5703 -0.0825 0.1966
C23B C 0.5795(10) 0.0274(9) 0.1200(9)
H10B H 0.6261 0.0029 0.0907
C24B C 0.5471(10) 0.1141(9) 0.1004(9)
H11B H 0.5733 0.1494 0.0602
C25B C 0.4766(9) 0.1472(7) 0.1405(7)
H12B H 0.4534 0.2060 0.1267
C26B C 0.4366(8) 0.0957(6) 0.2031(7)
H13B H 0.3874 0.1198 0.2297
H19B H 0.5444 0.0927 0.3889
O2 O 0.632(2) 0.5957(15) 0.1945(10)
C35 C 0.648(3) 0.5465(17) 0.1140(17)
H22 H 0.6049 0.4924 0.1001
H23 H 0.7241 0.5304 0.1320
C36 C 0.6139(15) 0.6051(12) 0.0255(10)
H26 H 0.6573 0.6356 -0.0073
H27 H 0.5697 0.5604 -0.0204
C37 C 0.5427(12) 0.6678(11) 0.0457(11)
H28 H 0.4691 0.6444 0.0239
H29 H 0.5419 0.7233 0.0104
C38 C 0.5839(16) 0.6819(12) 0.1526(12)
H32 H 0.5308 0.6993 0.1822
H33 H 0.6397 0.7275 0.1667
O1? O 0.7015(16) 0.665(2) 0.1840(16)
C34? C 0.7063(19) 0.592(2) 0.1179(17)
H20? H 0.7738 0.5932 0.1049
H21? H 0.7009 0.5345 0.1481
H24? H 0.6382 0.6277 -0.0270
H25? H 0.5762 0.5491 0.0027
H30? H 0.5503 0.6411 0.1858
H31? H 0.5702 0.7426 0.1686
loop_
_geom_bond_atom_site_label_1
_geom_bond_atom_site_label_2
_geom_bond_site_symmetry_1
_geom_bond_site_symmetry_2
C1 C2 1_555 1_555
C2 C3 1_555 1_555
C3 C4 1_555 1_555
C4 H1 1_555 1_555
C5 C4 1_555 1_555
H2 C5 1_555 1_555
C6 C5 1_555 1_555
H3 C6 1_555 1_555
C7 C6 1_555 1_555
C8 C3 1_555 1_555
C9 C7 1_555 1_555
H4 C9 1_555 1_555
C10 C9 1_555 1_555
H5 C10 1_555 1_555
C11 C10 1_555 1_555
C12 C11 1_555 1_555
H6 C12 1_555 1_555
C13 C12 1_555 1_555
H7 C13 1_555 1_555
C14 C13 1_555 1_555
H8 C14 1_555 1_555
C15 C14 1_555 1_555
C16 C8 1_555 1_555
C17 C2 1_555 1_555
C18 C17 1_555 1_555
C19 C18 1_555 1_555
C20 C1 1_555 1_555
C21 C18 1_555 1_555
C22 C21 1_555 1_555
H9 C22 1_555 1_555
C23 C22 1_555 1_555
H10 C23 1_555 1_555
C24 C23 1_555 1_555
H11 C24 1_555 1_555
C25 C24 1_555 1_555
H12 C25 1_555 1_555
C26 C21 1_555 1_555
H13 C26 1_555 1_555
C27 C1 1_555 1_555
C28 C27 1_555 1_555
H14 C28 1_555 1_555
C29 C28 1_555 1_555
H15 C29 1_555 1_555
C30 C29 1_555 1_555
H16 C30 1_555 1_555
C31 C30 1_555 1_555
H17 C31 1_555 1_555
C32 C27 1_555 1_555
H18 C32 1_555 1_555
C33 C19 1_555 1_555
H19 C33 1_555 1_555
O2 C35 1_555 1_555
C35 H22 1_555 1_555
H23 C35 1_555 1_555
C36 C35 1_555 1_555
H26 C36 1_555 1_555
H27 C36 1_555 1_555
C37 C36 1_555 1_555
H28 C37 1_555 1_555
H29 C37 1_555 1_555
C38 O2 1_555 1_555
H32 C38 1_555 1_555
H33 C38 1_555 1_555
C33B C20 1_555 1_555
C19B C33B 1_555 1_555
C18B C19B 1_555 1_555
C17B C18B 1_555 1_555
C2B C17B 1_555 1_555
C1B C2B 1_555 1_555
C20B C33 1_555 1_555
C27B C1B 1_555 1_555
C28B C27B 1_555 1_555
H14B C28B 1_555 1_555
C29B C28B 1_555 1_555
H15B C29B 1_555 1_555
C30B C29B 1_555 1_555
H16B C30B 1_555 1_555
C31B C30B 1_555 1_555
H17B C31B 1_555 1_555
C32B C27B 1_555 1_555
H18B C32B 1_555 1_555
C3B C2B 1_555 1_555
C4B C3B 1_555 1_555
H1B C4B 1_555 1_555
C5B C4B 1_555 1_555
H2B C5B 1_555 1_555
C6B C5B 1_555 1_555
H3B C6B 1_555 1_555
C7B C6B 1_555 1_555
C8B C3B 1_555 1_555
C16B C8B 1_555 1_555
C11B C16B 1_555 1_555
C10B C11B 1_555 1_555
C9B C7B 1_555 1_555
H4B C9B 1_555 1_555
H5B C10B 1_555 1_555
C12B C11B 1_555 1_555
H6B C12B 1_555 1_555
C13B C12B 1_555 1_555
H7B C13B 1_555 1_555
C14B C13B 1_555 1_555
H8B C14B 1_555 1_555
C15B C17B 1_555 1_555
C21B C18B 1_555 1_555
C22B C21B 1_555 1_555
H9B C22B 1_555 1_555
C23B C22B 1_555 1_555
H10B C23B 1_555 1_555
C24B C23B 1_555 1_555
H11B C24B 1_555 1_555
C25B C24B 1_555 1_555
H12B C25B 1_555 1_555
C26B C21B 1_555 1_555
H13B C26B 1_555 1_555
H19B C33B 1_555 1_555
C7 C8 1_555 1_555
C11 C16 1_555 1_555
C15 C17 1_555 1_555
C15 C16 1_555 1_555
C19 C20 1_555 1_555
C25 C26 1_555 1_555
C31 C32 1_555 1_555
C37 C38 1_555 1_555
C19B C20B 1_555 1_555
C1B C20B 1_555 1_555
C31B C32B 1_555 1_555
C7B C8B 1_555 1_555
C16B C15B 1_555 1_555
C10B C9B 1_555 1_555
C14B C15B 1_555 1_555
C25B C26B 1_555 1_555

#END
