
#######################################################################
#
#                 Cambridge Crystallographic Data Centre
#                                CCDC 
#
#######################################################################
#
# If this CIF has been generated from an entry in the Cambridge 
# Structural Database, then it will include bibliographic, chemical, 
# crystal, experimental, refinement or atomic coordinate data resulting 
# from the CCDC's data processing and validation procedures.
#
#######################################################################

data_IQAPAR
_chemical_formula_moiety         'C14 H20 Cl2 O3'
_chemical_name_systematic        
(5S)-3,4-Dichloro-5-((1R,2S,5R)-menthyloxy)furan-2(5H)-one
_symmetry_cell_setting           monoclinic
_symmetry_space_group_name_H-M   'P 21'
_symmetry_Int_Tables_number      4
_space_group_name_Hall           'P 2yb'
loop_
_symmetry_equiv_pos_site_id
_symmetry_equiv_pos_as_xyz
1 x,y,z
2 -x,1/2+y,-z
_cell_length_a                   6.650(2)
_cell_length_b                   8.038(3)
_cell_length_c                   14.858(8)
_cell_angle_alpha                90
_cell_angle_beta                 97.01(3)
_cell_angle_gamma                90
_cell_volume                     788.263
_exptl_crystal_colour            colorless
_cell_formula_units_Z            2
_exptl_crystal_recrystallization_method dichloromethane/heptane
loop_
_atom_site_label
_atom_site_type_symbol
_atom_site_fract_x
_atom_site_fract_y
_atom_site_fract_z
Cl1 Cl 0.3137(7) -0.172 0.3934(4)
Cl2 Cl 0.0683(6) 0.154(1) 0.4864(4)
O1 O 0.547(1) 0.055(1) 0.2686(6)
O2 O 0.538(2) 0.274(1) 0.3686(7)
O3 O 0.336(2) 0.450(2) 0.4305(9)
C1 C 0.365(2) 0.029(2) 0.394(1)
C2 C 0.549(2) 0.091(2) 0.356(1)
C3 C 0.374(2) 0.308(3) 0.410(1)
C4 C 0.276(2) 0.155(3) 0.430(1)
C5 C 0.742(2) 0.025(2) 0.236(1)
C6 C 0.701(2) -0.083(2) 0.154(1)
C7 C 0.908(3) -0.112(2) 0.117(1)
C8 C 1.015(3) 0.051(2) 0.097(1)
C9 C 1.040(2) 0.161(3) 0.180(1)
C10 C 0.838(2) 0.192(2) 0.216(1)
C11 C 0.585(3) -0.242(2) 0.169(1)
C12 C 0.687(3) -0.358(4) 0.237(2)
C13 C 0.530(3) -0.332(4) 0.080(2)
C14 C 1.140(3) 0.319(3) 0.160(1)
loop_
_geom_bond_atom_site_label_1
_geom_bond_atom_site_label_2
_geom_bond_site_symmetry_1
_geom_bond_site_symmetry_2
Cl1 C1 1_555 1_555
Cl2 C4 1_555 1_555
O1 C2 1_555 1_555
O2 C2 1_555 1_555
O3 C3 1_555 1_555
C1 C2 1_555 1_555
C3 O2 1_555 1_555
C4 C1 1_555 1_555
C5 O1 1_555 1_555
C6 C5 1_555 1_555
C7 C6 1_555 1_555
C8 C7 1_555 1_555
C9 C8 1_555 1_555
C10 C5 1_555 1_555
C11 C6 1_555 1_555
C12 C11 1_555 1_555
C13 C11 1_555 1_555
C14 C9 1_555 1_555
C3 C4 1_555 1_555
C9 C10 1_555 1_555

#END
