
#######################################################################
#
#                 Cambridge Crystallographic Data Centre
#                                CCDC 
#
#######################################################################
#
# If this CIF has been generated from an entry in the Cambridge 
# Structural Database, then it will include bibliographic, chemical, 
# crystal, experimental, refinement or atomic coordinate data resulting 
# from the CCDC's data processing and validation procedures.
#
#######################################################################

data_IQAQEX
_chemical_formula_moiety         'C12 H30 N6 2+,2(C1 H1 O3 1-),6(H2 O1)'
_chemical_name_systematic        
"N,N,N',N'-Tetramethyl-N''-[2-(N,N,N',N'-tetramethylguanidinio)ethyl]guanidinium bis(hydrogen carbonate) hexahydrate"
_symmetry_cell_setting           monoclinic
_symmetry_space_group_name_H-M   'P 21/n'
_symmetry_Int_Tables_number      14
_space_group_name_Hall           '-P 2yn'
loop_
_symmetry_equiv_pos_site_id
_symmetry_equiv_pos_as_xyz
1 x,y,z
2 1/2-x,1/2+y,1/2-z
3 -x,-y,-z
4 1/2+x,1/2-y,1/2+z
_cell_length_a                   7.4886(3)
_cell_length_b                   15.5597(8)
_cell_length_c                   11.1616(6)
_cell_angle_alpha                90
_cell_angle_beta                 96.481(3)
_cell_angle_gamma                90
_cell_volume                     1292.24
_exptl_crystal_colour            colorless
_exptl_crystal_description       plate
_cell_formula_units_Z            2
loop_
_atom_site_label
_atom_site_type_symbol
_atom_site_fract_x
_atom_site_fract_y
_atom_site_fract_z
C1 C 0.1383(3) 0.61935(15) 0.1977(2)
N1 N 0.0841(3) 0.58803(12) 0.29801(16)
C2 C -0.0113(4) 0.64001(17) 0.3785(2)
H1 H 0.0653 0.6504 0.4520
H2 H -0.1173 0.6101 0.3963
H3 H -0.0448 0.6938 0.3404
C3 C 0.1139(4) 0.49829(15) 0.3350(2)
H4 H 0.0014 0.4680 0.3258
H5 H 0.1646 0.4963 0.4178
H6 H 0.1951 0.4718 0.2854
N2 N 0.1844(3) 0.70268(11) 0.19183(17)
C4 C 0.1678(5) 0.74897(16) 0.0780(2)
H7 H 0.2827 0.7512 0.0478
H8 H 0.1263 0.8063 0.0902
H9 H 0.0833 0.7199 0.0207
C5 C 0.2746(4) 0.74902(16) 0.2949(2)
H10 H 0.3064 0.7095 0.3599
H11 H 0.1954 0.7922 0.3203
H12 H 0.3813 0.7758 0.2723
N3 N 0.1506(3) 0.56981(13) 0.1018(2)
H13 H 0.220(4) 0.5856(14) 0.048(2)
C6 C 0.0348(4) 0.49610(14) 0.06643(19)
H14 H -0.0653 0.4947 0.1145
H15 H 0.1024 0.4432 0.0804
C1B C -0.1383(3) 0.38065(15) -0.1977(2)
N1B N -0.0841(3) 0.41197(12) -0.29801(16)
C2B C 0.0113(4) 0.35999(17) -0.3785(2)
H1B H -0.0653 0.3496 -0.4520
H2B H 0.1173 0.3899 -0.3963
H3B H 0.0448 0.3062 -0.3404
C3B C -0.1139(4) 0.50171(15) -0.3350(2)
H4B H -0.0014 0.5320 -0.3258
H5B H -0.1646 0.5037 -0.4178
H6B H -0.1951 0.5282 -0.2854
N2B N -0.1844(3) 0.29732(11) -0.19183(17)
C4B C -0.1678(5) 0.25103(16) -0.0780(2)
H7B H -0.2827 0.2488 -0.0478
H8B H -0.1263 0.1937 -0.0902
H9B H -0.0833 0.2801 -0.0207
C5B C -0.2746(4) 0.25098(16) -0.2949(2)
H10B H -0.3064 0.2905 -0.3599
H11B H -0.1954 0.2078 -0.3203
H12B H -0.3813 0.2242 -0.2723
N3B N -0.1506(3) 0.43019(13) -0.1018(2)
H13B H -0.220(4) 0.4144(14) -0.048(2)
C6B C -0.0348(4) 0.50390(14) -0.06643(19)
H14B H 0.0653 0.5053 -0.1145
H15B H -0.1024 0.5568 -0.0804
C7 C 0.0798(4) 0.99184(17) 0.8369(3)
O1 O 0.0295(3) 0.91888(11) 0.8888(2)
H16 H -0.016(5) 0.9261(19) 0.957(3)
O2 O 0.0812(3) 1.05963(10) 0.89894(16)
O3 O 0.1211(3) 0.98472(11) 0.73317(17)
O4 O 0.3842(4) 0.61685(15) -0.0758(2)
H17 H 0.402(5) 0.577(2) -0.125(3)
H18 H 0.465(5) 0.623(2) -0.026(3)
O5 O 0.1854(3) 0.84970(14) 0.58628(18)
H19 H 0.160(8) 0.802(3) 0.635(5)
H20 H 0.157(4) 0.8853(16) 0.6460(19)
O6 O 0.2781(3) 1.18814(13) 0.8040(3)
H21 H 0.244(5) 1.1789(19) 0.723(3)
H22 H 0.222(4) 1.1487(18) 0.843(2)
loop_
_geom_bond_atom_site_label_1
_geom_bond_atom_site_label_2
_geom_bond_site_symmetry_1
_geom_bond_site_symmetry_2
C1 N1 1_555 1_555
N1 C2 1_555 1_555
C2 H1 1_555 1_555
H2 C2 1_555 1_555
H3 C2 1_555 1_555
C3 N1 1_555 1_555
H4 C3 1_555 1_555
H5 C3 1_555 1_555
H6 C3 1_555 1_555
N2 C1 1_555 1_555
C4 N2 1_555 1_555
H7 C4 1_555 1_555
H8 C4 1_555 1_555
H9 C4 1_555 1_555
C5 N2 1_555 1_555
H10 C5 1_555 1_555
H11 C5 1_555 1_555
H12 C5 1_555 1_555
N3 C1 1_555 1_555
H13 N3 1_555 1_555
C6 N3 1_555 1_555
H14 C6 1_555 1_555
H15 C6 1_555 1_555
C7 O1 1_555 1_555
O1 H16 1_555 1_555
O2 C7 1_555 1_555
O3 C7 1_555 1_555
O4 H17 1_555 1_555
H18 O4 1_555 1_555
O5 H19 1_555 1_555
H20 O5 1_555 1_555
O6 H21 1_555 1_555
H22 O6 1_555 1_555
C1B N1B 1_555 1_555
N1B C2B 1_555 1_555
C2B H1B 1_555 1_555
H2B C2B 1_555 1_555
H3B C2B 1_555 1_555
C3B N1B 1_555 1_555
H4B C3B 1_555 1_555
H5B C3B 1_555 1_555
H6B C3B 1_555 1_555
N2B C1B 1_555 1_555
C4B N2B 1_555 1_555
H7B C4B 1_555 1_555
H8B C4B 1_555 1_555
H9B C4B 1_555 1_555
C5B N2B 1_555 1_555
H10B C5B 1_555 1_555
H11B C5B 1_555 1_555
H12B C5B 1_555 1_555
N3B C1B 1_555 1_555
H13B N3B 1_555 1_555
C6B C6 1_555 1_555
H14B C6B 1_555 1_555
H15B C6B 1_555 1_555
N3B C6B 1_555 1_555

#END
