
#######################################################################
#
#                 Cambridge Crystallographic Data Centre
#                                CCDC 
#
#######################################################################
#
# If this CIF has been generated from an entry in the Cambridge 
# Structural Database, then it will include bibliographic, chemical, 
# crystal, experimental, refinement or atomic coordinate data resulting 
# from the CCDC's data processing and validation procedures.
#
#######################################################################

data_IQATEB
_chemical_formula_moiety         'C22 H14 F3 N1 O3'
_chemical_name_systematic        
'methyl 3-benzoyl-1-(trifluoromethyl)pyrrolo[1,2-a]quinoline-2-carboxylate'
_symmetry_cell_setting           monoclinic
_symmetry_space_group_name_H-M   'P 21'
_symmetry_Int_Tables_number      4
_space_group_name_Hall           'P 2yb'
loop_
_symmetry_equiv_pos_site_id
_symmetry_equiv_pos_as_xyz
1 x,y,z
2 -x,1/2+y,-z
_cell_length_a                   9.030(7)
_cell_length_b                   5.952(5)
_cell_length_c                   17.093(14)
_cell_angle_alpha                90
_cell_angle_beta                 99.663(9)
_cell_angle_gamma                90
_cell_volume                     905.656
_cell_formula_units_Z            2
loop_
_atom_site_label
_atom_site_type_symbol
_atom_site_fract_x
_atom_site_fract_y
_atom_site_fract_z
C1 C 0.6108(2) 0.4848(4) 0.36119(11)
C2 C 0.7029(3) 0.6517(4) 0.40195(13)
H1 H 0.8065 0.6448 0.4043
C3 C 0.6409(3) 0.8250(4) 0.43830(13)
H2 H 0.7031 0.9326 0.4663
C4 C 0.4846(3) 0.8422(4) 0.43379(13)
H3 H 0.4432 0.9597 0.4588
C5 C 0.3944(3) 0.6840(4) 0.39222(13)
H4 H 0.2909 0.6965 0.3887
C6 C 0.4532(2) 0.5019(4) 0.35435(11)
C7 C 0.3575(2) 0.3465(4) 0.30590(12)
H5 H 0.2542 0.3530 0.3047
C8 C 0.4145(2) 0.1911(4) 0.26202(12)
H6 H 0.3505 0.0989 0.2277
C9 C 0.5723(2) 0.1685(4) 0.26832(11)
C10 C 0.6592(2) 0.0268(3) 0.22967(11)
C11 C 0.8115(2) 0.0687(4) 0.26254(11)
C12 C 0.8159(2) 0.2321(4) 0.32073(11)
C13 C 0.5936(2) -0.1382(4) 0.16840(11)
C14 C 0.6639(2) -0.1714(4) 0.09571(11)
C15 C 0.6379(3) -0.3725(4) 0.05337(13)
H7 H 0.5798 -0.4844 0.0711
C16 C 0.6985(3) -0.4052(6) -0.01509(14)
H8 H 0.6811 -0.5393 -0.0430
C17 C 0.7838(3) -0.2407(6) -0.04173(15)
H9 H 0.8250 -0.2645 -0.0874
C18 C 0.8092(3) -0.0387(6) -0.00109(14)
H10 H 0.8660 0.0733 -0.0198
C19 C 0.7494(2) -0.0051(4) 0.06771(12)
H11 H 0.7668 0.1297 0.0952
C20 C 0.9452(2) 0.2732(4) 0.38561(12)
C21 C 0.9444(2) -0.0369(4) 0.23620(12)
C22 C 1.0350(3) -0.3670(5) 0.18564(17)
H12 H 1.0208 -0.3178 0.1314
H13 H 1.0217 -0.5268 0.1873
H14 H 1.1346 -0.3288 0.2114
F1 F 0.90351(14) 0.2821(3) 0.45755(7)
F2 F 1.02217(13) 0.4636(3) 0.37894(8)
F3 F 1.04628(15) 0.1068(3) 0.38899(8)
N1 N 0.66779(16) 0.3018(3) 0.32218(8)
O1 O 0.47890(18) -0.2396(3) 0.17500(10)
O2 O 0.92548(17) -0.2570(3) 0.22637(9)
O3 O 1.05188(17) 0.0669(3) 0.22243(10)
loop_
_geom_bond_atom_site_label_1
_geom_bond_atom_site_label_2
_geom_bond_site_symmetry_1
_geom_bond_site_symmetry_2
C1 C2 1_555 1_555
C2 H1 1_555 1_555
C3 C2 1_555 1_555
H2 C3 1_555 1_555
C4 C3 1_555 1_555
H3 C4 1_555 1_555
C5 C4 1_555 1_555
H4 C5 1_555 1_555
C6 C1 1_555 1_555
C7 C6 1_555 1_555
H5 C7 1_555 1_555
C8 C7 1_555 1_555
H6 C8 1_555 1_555
C9 C8 1_555 1_555
C10 C9 1_555 1_555
C11 C10 1_555 1_555
C12 C11 1_555 1_555
C13 C10 1_555 1_555
C14 C13 1_555 1_555
C15 C14 1_555 1_555
H7 C15 1_555 1_555
C16 C15 1_555 1_555
H8 C16 1_555 1_555
C17 C16 1_555 1_555
H9 C17 1_555 1_555
C18 C17 1_555 1_555
H10 C18 1_555 1_555
C19 C14 1_555 1_555
H11 C19 1_555 1_555
C20 C12 1_555 1_555
C21 C11 1_555 1_555
C22 H12 1_555 1_555
H13 C22 1_555 1_555
H14 C22 1_555 1_555
F1 C20 1_555 1_555
F2 C20 1_555 1_555
F3 C20 1_555 1_555
N1 C1 1_555 1_555
O1 C13 1_555 1_555
O2 C21 1_555 1_555
O3 C21 1_555 1_555
C5 C6 1_555 1_555
C9 N1 1_555 1_555
C12 N1 1_555 1_555
C18 C19 1_555 1_555
C22 O2 1_555 1_555

#END
