
#######################################################################
#
#                 Cambridge Crystallographic Data Centre
#                                CCDC 
#
#######################################################################
#
# If this CIF has been generated from an entry in the Cambridge 
# Structural Database, then it will include bibliographic, chemical, 
# crystal, experimental, refinement or atomic coordinate data resulting 
# from the CCDC's data processing and validation procedures.
#
#######################################################################

data_IQATAX
_chemical_formula_moiety         'C23 H18 F3 N1 O3'
_chemical_name_systematic        
'methyl 4,4,4-trifluoro-3-(2-((4-methoxyphenyl)ethynyl)quinolin-1(2H)-yl)but-2-enoate'
_symmetry_cell_setting           triclinic
_symmetry_space_group_name_H-M   'P -1'
_symmetry_Int_Tables_number      2
_space_group_name_Hall           '-P 1'
loop_
_symmetry_equiv_pos_site_id
_symmetry_equiv_pos_as_xyz
1 x,y,z
2 -x,-y,-z
_cell_length_a                   10.345(17)
_cell_length_b                   14.56(2)
_cell_length_c                   14.79(3)
_cell_angle_alpha                77.04(2)
_cell_angle_beta                 74.643(14)
_cell_angle_gamma                89.93(2)
_cell_volume                     2089.44
_cell_formula_units_Z            4
loop_
_atom_site_label
_atom_site_type_symbol
_atom_site_fract_x
_atom_site_fract_y
_atom_site_fract_z
C1 C 0.8673(5) 0.8656(4) 0.2359(4)
C2 C 0.8635(6) 0.7712(4) 0.2820(4)
H1 H 0.7837 0.7417 0.3244
C3 C 0.9783(7) 0.7201(5) 0.2654(5)
H2 H 0.9754 0.6577 0.2993
C4 C 1.0970(7) 0.7616(5) 0.1987(5)
H3 H 1.1729 0.7271 0.1864
C5 C 1.0995(6) 0.8568(5) 0.1503(5)
H4 H 1.1784 0.8856 0.1060
C6 C 0.9852(5) 0.9093(4) 0.1677(4)
C7 C 0.9855(6) 1.0082(4) 0.1166(4)
H5 H 1.0667 1.0424 0.0840
C8 C 0.8704(6) 1.0492(4) 0.1165(4)
H6 H 0.8713 1.1119 0.0842
C9 C 0.7373(5) 0.9932(4) 0.1692(4)
H7 H 0.6727 1.0373 0.1932
C10 C 0.6839(5) 0.9513(4) 0.1026(4)
C11 C 0.6384(5) 0.9199(4) 0.0481(4)
C12 C 0.5810(5) 0.8839(4) -0.0169(4)
C13 C 0.6334(6) 0.9119(5) -0.1162(4)
H8 H 0.7068 0.9556 -0.1414
C14 C 0.5790(6) 0.8763(5) -0.1793(4)
H9 H 0.6171 0.8949 -0.2455
C15 C 0.4685(6) 0.8134(4) -0.1423(4)
C16 C 0.4138(6) 0.7842(4) -0.0422(4)
H10 H 0.3397 0.7412 -0.0173
C17 C 0.4687(6) 0.8187(4) 0.0188(4)
H11 H 0.4314 0.7987 0.0850
C18 C 0.4659(10) 0.7947(7) -0.2987(5)
H12 H 0.4615 0.8603 -0.3272
H13 H 0.4190 0.7568 -0.3268
H14 H 0.5581 0.7790 -0.3103
C19 C 0.6430(5) 0.8954(4) 0.3343(4)
C20 C 0.6726(6) 0.8784(5) 0.4326(4)
C21 C 0.5157(6) 0.8964(4) 0.3250(4)
H15 H 0.5086 0.9103 0.2621
C22 C 0.3870(6) 0.8785(5) 0.4015(5)
C23 C 0.1510(7) 0.8812(7) 0.4221(7)
H16 H 0.1363 0.8154 0.4541
H17 H 0.0881 0.8975 0.3845
H18 H 0.1386 0.9186 0.4692
F1 F 0.8036(4) 0.8921(3) 0.4250(3)
F2 F 0.6096(4) 0.9382(3) 0.4838(3)
F3 F 0.6352(4) 0.7898(3) 0.4857(3)
N1 N 0.7541(4) 0.9224(3) 0.2539(3)
O1 O 0.3685(5) 0.8473(4) 0.4873(4)
O2 O 0.2878(4) 0.8993(4) 0.3589(4)
O3 O 0.4051(5) 0.7766(4) -0.1976(3)
C24 C 0.3484(5) 0.5211(4) 0.2461(4)
C25 C 0.3326(7) 0.5889(4) 0.3013(5)
H19 H 0.2508 0.5935 0.3447
C26 C 0.4443(9) 0.6497(5) 0.2891(6)
H20 H 0.4366 0.6943 0.3262
C27 C 0.5661(9) 0.6446(6) 0.2229(7)
H21 H 0.6389 0.6857 0.2155
C28 C 0.5784(7) 0.5784(6) 0.1681(6)
H22 H 0.6603 0.5756 0.1239
C29 C 0.4719(6) 0.5155(5) 0.1770(5)
C30 C 0.4808(7) 0.4444(5) 0.1192(5)
H23 H 0.5643 0.4283 0.0865
C31 C 0.3709(7) 0.4036(5) 0.1138(5)
H24 H 0.3777 0.3581 0.0779
C32 C 0.2342(6) 0.4292(4) 0.1644(4)
H25 H 0.1728 0.3729 0.1823
C33 C 0.1826(6) 0.5041(5) 0.0997(4)
C34 C 0.1350(6) 0.5587(5) 0.0472(5)
C35 C 0.0793(5) 0.6271(4) -0.0200(4)
C36 C 0.1388(6) 0.6459(5) -0.1193(5)
H26 H 0.2148 0.6152 -0.1430
C37 C 0.0862(7) 0.7098(5) -0.1832(5)
H27 H 0.1275 0.7223 -0.2491
C38 C -0.0276(6) 0.7546(4) -0.1484(5)
C39 C -0.0893(7) 0.7366(5) -0.0496(5)
H28 H -0.1660 0.7669 -0.0266
C40 C -0.0360(6) 0.6732(5) 0.0145(5)
H29 H -0.0770 0.6615 0.0803
C41 C 0.1288(5) 0.4360(4) 0.3342(4)
C42 C 0.1553(6) 0.3888(5) 0.4308(4)
C43 C 0.0037(6) 0.4449(4) 0.3230(4)
H30 H -0.0013 0.4753 0.2617
C44 C -0.1279(6) 0.4124(5) 0.3961(5)
C45 C -0.3607(7) 0.4265(7) 0.4222(6)
H31 H -0.3678 0.3621 0.4580
H32 H -0.4245 0.4346 0.3846
H33 H -0.3790 0.4676 0.4659
C46 C -0.0194(12) 0.8508(7) -0.3035(7)
H34 H 0.0710 0.8710 -0.3083
H35 H -0.0634 0.9031 -0.3320
H36 H -0.0180 0.8011 -0.3367
F4 F 0.2864(4) 0.3948(3) 0.4268(3)
F5 F 0.0913(5) 0.4258(4) 0.5032(3)
F6 F 0.1192(4) 0.2964(3) 0.4555(3)
N2 N 0.2420(4) 0.4548(3) 0.2549(3)
O4 O -0.1483(5) 0.3622(4) 0.4744(4)
O5 O -0.2257(4) 0.4495(4) 0.3583(3)
O6 O -0.0894(6) 0.8175(4) -0.2058(4)
loop_
_geom_bond_atom_site_label_1
_geom_bond_atom_site_label_2
_geom_bond_site_symmetry_1
_geom_bond_site_symmetry_2
C1 C2 1_555 1_555
C2 H1 1_555 1_555
C3 C2 1_555 1_555
H2 C3 1_555 1_555
C4 C3 1_555 1_555
H3 C4 1_555 1_555
C5 C4 1_555 1_555
H4 C5 1_555 1_555
C6 C1 1_555 1_555
C7 C6 1_555 1_555
H5 C7 1_555 1_555
C8 C7 1_555 1_555
H6 C8 1_555 1_555
C9 C8 1_555 1_555
H7 C9 1_555 1_555
C10 C9 1_555 1_555
C11 C10 1_555 1_555
C12 C11 1_555 1_555
C13 C12 1_555 1_555
H8 C13 1_555 1_555
C14 C13 1_555 1_555
H9 C14 1_555 1_555
C15 C14 1_555 1_555
C16 C15 1_555 1_555
H10 C16 1_555 1_555
C17 C12 1_555 1_555
H11 C17 1_555 1_555
C18 H12 1_555 1_555
H13 C18 1_555 1_555
H14 C18 1_555 1_555
C19 C20 1_555 1_555
C20 F1 1_555 1_555
C21 C19 1_555 1_555
H15 C21 1_555 1_555
C22 C21 1_555 1_555
C23 H16 1_555 1_555
H17 C23 1_555 1_555
H18 C23 1_555 1_555
F2 C20 1_555 1_555
F3 C20 1_555 1_555
N1 C1 1_555 1_555
O1 C22 1_555 1_555
O2 C22 1_555 1_555
O3 C15 1_555 1_555
C24 C25 1_555 1_555
C25 H19 1_555 1_555
C26 C25 1_555 1_555
H20 C26 1_555 1_555
C27 C26 1_555 1_555
H21 C27 1_555 1_555
C28 C27 1_555 1_555
H22 C28 1_555 1_555
C29 C24 1_555 1_555
C30 C29 1_555 1_555
H23 C30 1_555 1_555
C31 C30 1_555 1_555
H24 C31 1_555 1_555
C32 C31 1_555 1_555
H25 C32 1_555 1_555
C33 C32 1_555 1_555
C34 C33 1_555 1_555
C35 C34 1_555 1_555
C36 C35 1_555 1_555
H26 C36 1_555 1_555
C37 C36 1_555 1_555
H27 C37 1_555 1_555
C38 C37 1_555 1_555
C39 C38 1_555 1_555
H28 C39 1_555 1_555
C40 C35 1_555 1_555
H29 C40 1_555 1_555
C41 C42 1_555 1_555
C42 F4 1_555 1_555
C43 C41 1_555 1_555
H30 C43 1_555 1_555
C44 C43 1_555 1_555
C45 H31 1_555 1_555
H32 C45 1_555 1_555
H33 C45 1_555 1_555
C46 H34 1_555 1_555
H35 C46 1_555 1_555
H36 C46 1_555 1_555
F5 C42 1_555 1_555
F6 C42 1_555 1_555
N2 C24 1_555 1_555
O4 C44 1_555 1_555
O5 C44 1_555 1_555
O6 C38 1_555 1_555
C5 C6 1_555 1_555
C9 N1 1_555 1_555
C16 C17 1_555 1_555
C18 O3 1_555 1_555
C19 N1 1_555 1_555
C23 O2 1_555 1_555
C28 C29 1_555 1_555
C32 N2 1_555 1_555
C39 C40 1_555 1_555
C41 N2 1_555 1_555
C45 O5 1_555 1_555
C46 O6 1_555 1_555

#END
