
#######################################################################
#
#                 Cambridge Crystallographic Data Centre
#                                CCDC 
#
#######################################################################
#
# If this CIF has been generated from an entry in the Cambridge 
# Structural Database, then it will include bibliographic, chemical, 
# crystal, experimental, refinement or atomic coordinate data resulting 
# from the CCDC's data processing and validation procedures.
#
#######################################################################

data_IQAWII
_chemical_formula_moiety         'C18 H10 Br2'
_chemical_name_systematic        3,10-dibromotetraphene
_symmetry_cell_setting           orthorhombic
_symmetry_space_group_name_H-M   'P n a 21'
_symmetry_Int_Tables_number      33
_space_group_name_Hall           'P 2c -2n'
loop_
_symmetry_equiv_pos_site_id
_symmetry_equiv_pos_as_xyz
1 x,y,z
2 -x,-y,1/2+z
3 1/2-x,1/2+y,1/2+z
4 1/2+x,1/2-y,z
_cell_length_a                   13.3649(19)
_cell_length_b                   28.600(3)
_cell_length_c                   7.4174(11)
_cell_angle_alpha                90
_cell_angle_beta                 90
_cell_angle_gamma                90
_cell_volume                     2835.2
_exptl_crystal_colour            colorless
_exptl_crystal_description       block
_cell_formula_units_Z            8
loop_
_atom_site_label
_atom_site_type_symbol
_atom_site_fract_x
_atom_site_fract_y
_atom_site_fract_z
C1 C 0.0435(12) 0.0918(6) 0.539(3)
Br1 Br -0.0391(2) 0.04004(7) 0.5708(4)
C2 C 0.1369(12) 0.0806(6) 0.451(3)
H1 H 0.1517 0.0499 0.4194
Br2 Br -0.0157(2) 0.46062(7) 0.5465(4)
C3 C 0.1985(12) 0.1131(6) 0.416(3)
H2 H 0.2594 0.1059 0.3626
C4 C 0.1750(12) 0.1618(6) 0.460(3)
C5 C 0.2524(12) 0.1987(5) 0.417(3)
H3 H 0.3153 0.1915 0.3707
C6 C 0.2215(11) 0.2451(5) 0.451(4)
C7 C 0.2829(12) 0.2849(6) 0.415(3)
H4 H 0.3498 0.2790 0.3884
C8 C 0.2564(12) 0.3268(6) 0.416(2)
H5 H 0.3011 0.3492 0.3740
C9 C 0.1615(12) 0.3416(6) 0.476(3)
C10 C 0.1303(12) 0.3881(6) 0.478(3)
H6 H 0.1734 0.4110 0.4342
C11 C 0.0365(12) 0.4013(6) 0.542(3)
C12 C -0.0331(12) 0.3656(5) 0.589(3)
H7 H -0.0985 0.3727 0.6209
C13 C 0.0011(12) 0.3185(6) 0.584(3)
H8 H -0.0439 0.2947 0.6115
C14 C 0.0930(12) 0.3072(6) 0.542(3)
C15 C 0.1211(12) 0.2572(5) 0.522(3)
C16 C 0.0593(12) 0.2182(6) 0.564(3)
H9 H -0.0031 0.2241 0.6153
C17 C 0.0844(12) 0.1751(6) 0.537(2)
C18 C 0.0130(12) 0.1364(6) 0.576(3)
H10 H -0.0500 0.1423 0.6239
Br3 Br 0.21612(18) 0.45321(7) -0.0642(4)
Br4 Br 0.2403(2) 0.03255(8) -0.0565(5)
C19 C 0.2999(12) 0.4010(6) -0.027(3)
C20 C 0.3944(12) 0.4120(6) 0.029(2)
H11 H 0.4149 0.4430 0.0369
C21 C 0.4635(12) 0.3736(6) 0.078(3)
H12 H 0.5220 0.3803 0.1406
C22 C 0.4432(12) 0.3303(6) 0.033(2)
C23 C 0.5082(12) 0.2916(6) 0.082(3)
H13 H 0.5711 0.2968 0.1313
C24 C 0.4730(12) 0.2460(5) 0.052(4)
C25 C 0.5397(13) 0.2083(6) 0.101(3)
H14 H 0.6030 0.2147 0.1464
C26 C 0.5073(11) 0.1611(6) 0.078(2)
H15 H 0.5505 0.1363 0.1002
C27 C 0.4170(12) 0.1538(6) 0.025(3)
C28 C 0.3887(12) 0.1023(6) 0.012(2)
H16 H 0.4343 0.0783 0.0320
C29 C 0.2905(12) 0.0941(6) -0.033(3)
C30 C 0.2279(12) 0.1286(6) -0.103(3)
H17 H 0.1677 0.1194 -0.1553
C31 C 0.2500(12) 0.1746(6) -0.100(2)
H18 H 0.2053 0.1972 -0.1407
C32 C 0.3451(11) 0.1863(6) -0.031(3)
C33 C 0.3756(11) 0.2371(6) -0.024(3)
C34 C 0.3179(12) 0.2724(6) -0.059(3)
H19 H 0.2543 0.2659 -0.1035
C35 C 0.3431(12) 0.3185(5) -0.036(3)
C36 C 0.2713(12) 0.3572(6) -0.078(3)
H20 H 0.2107 0.3517 -0.1362
loop_
_geom_bond_atom_site_label_1
_geom_bond_atom_site_label_2
_geom_bond_site_symmetry_1
_geom_bond_site_symmetry_2
C1 Br1 1_555 1_555
C2 C1 1_555 1_555
H1 C2 1_555 1_555
Br2 C11 1_555 1_555
C3 C2 1_555 1_555
H2 C3 1_555 1_555
C4 C3 1_555 1_555
C5 C4 1_555 1_555
H3 C5 1_555 1_555
C6 C5 1_555 1_555
C7 C6 1_555 1_555
H4 C7 1_555 1_555
C8 C7 1_555 1_555
H5 C8 1_555 1_555
C9 C8 1_555 1_555
C10 C9 1_555 1_555
H6 C10 1_555 1_555
C11 C10 1_555 1_555
C12 C11 1_555 1_555
H7 C12 1_555 1_555
C13 C12 1_555 1_555
H8 C13 1_555 1_555
C14 C9 1_555 1_555
C15 C6 1_555 1_555
C16 C15 1_555 1_555
H9 C16 1_555 1_555
C17 C4 1_555 1_555
C18 C1 1_555 1_555
H10 C18 1_555 1_555
Br3 C19 1_555 1_555
Br4 C29 1_555 1_555
C19 C20 1_555 1_555
C20 H11 1_555 1_555
C21 C20 1_555 1_555
H12 C21 1_555 1_555
C22 C21 1_555 1_555
C23 C22 1_555 1_555
H13 C23 1_555 1_555
C24 C23 1_555 1_555
C25 C24 1_555 1_555
H14 C25 1_555 1_555
C26 C25 1_555 1_555
H15 C26 1_555 1_555
C27 C26 1_555 1_555
C28 C27 1_555 1_555
H16 C28 1_555 1_555
C29 C28 1_555 1_555
C30 C29 1_555 1_555
H17 C30 1_555 1_555
C31 C30 1_555 1_555
H18 C31 1_555 1_555
C32 C27 1_555 1_555
C33 C24 1_555 1_555
C34 C33 1_555 1_555
H19 C34 1_555 1_555
C35 C22 1_555 1_555
C36 C19 1_555 1_555
H20 C36 1_555 1_555
C13 C14 1_555 1_555
C14 C15 1_555 1_555
C16 C17 1_555 1_555
C17 C18 1_555 1_555
C31 C32 1_555 1_555
C32 C33 1_555 1_555
C34 C35 1_555 1_555
C35 C36 1_555 1_555

#END
