
#######################################################################
#
#                 Cambridge Crystallographic Data Centre
#                                CCDC 
#
#######################################################################
#
# If this CIF has been generated from an entry in the Cambridge 
# Structural Database, then it will include bibliographic, chemical, 
# crystal, experimental, refinement or atomic coordinate data resulting 
# from the CCDC's data processing and validation procedures.
#
#######################################################################

data_IQAZUX
_chemical_compound_source        
'leaves of Croton laevigatus Vahl. (Euphorbiaceae)'
_chemical_name_common            'Laevigatlactone A'
_chemical_formula_moiety         'C20 H30 O3'
_chemical_name_systematic        
9-hydroxy-12-isopropyl-5,9-dimethyl-13-oxabicyclo[10.2.2]hexadeca-1,5,10-trien-14-one
_symmetry_cell_setting           monoclinic
_symmetry_space_group_name_H-M   'C 2/c'
_symmetry_Int_Tables_number      15
_space_group_name_Hall           '-C 2yn'
loop_
_symmetry_equiv_pos_site_id
_symmetry_equiv_pos_as_xyz
1 x,y,z
2 -x,y,1/2-z
3 1/2+x,1/2+y,z
4 1/2-x,1/2+y,1/2-z
5 -x,-y,-z
6 x,-y,1/2+z
7 1/2-x,1/2-y,-z
8 1/2+x,1/2-y,1/2+z
_cell_length_a                   23.345(5)
_cell_length_b                   10.440(2)
_cell_length_c                   17.519(4)
_cell_angle_alpha                90
_cell_angle_beta                 123.19(3)
_cell_angle_gamma                90
_cell_volume                     3573.19
_exptl_crystal_colour            colorless
_exptl_crystal_description       block
_chemical_melting_point          '134-136 deg.C'
_cell_formula_units_Z            8
_exptl_crystal_recrystallization_method 'ethyl acetate/petroleum ether'
loop_
_atom_site_label
_atom_site_type_symbol
_atom_site_fract_x
_atom_site_fract_y
_atom_site_fract_z
O1 O 0.30272(7) 0.70490(15) 0.19139(10)
O2 O 0.24784(7) 0.88548(13) 0.13587(9)
C1 C 0.18837(10) 0.95803(19) 0.06529(13)
C2 C 0.13701(10) 0.9758(2) 0.09093(13)
H1 H 0.1014 1.0353 0.0547
C3 C 0.13461(11) 0.9201(2) 0.15688(14)
H2 H 0.1670 0.8543 0.1904
C4 C 0.08409(13) 0.9527(2) 0.18352(17)
C5 C 0.02545(15) 0.8537(3) 0.1506(2)
H3 H -0.0070 0.8862 0.1658
H4 H 0.0003 0.8466 0.0834
C6 C 0.0492(2) 0.7201(3) 0.1918(3)
H5 H 0.0887 0.7291 0.2556
H6 H 0.0118 0.6780 0.1932
C7 C 0.0696(3) 0.6353(4) 0.1419(3)
H7 H 0.0802 0.6761 0.1026
O3 O 0.12273(11) 0.96808(17) 0.28005(11)
H8 H 0.1652 0.9806 0.3124
C8 C 0.04488(12) 1.0754(3) 0.14116(17)
H9 H 0.0772 1.1463 0.1580
H10 H 0.0152 1.0930 0.1634
H11 H 0.0168 1.0663 0.0746
C9 C 0.07437(11) 0.5088(2) 0.14698(16)
C10 C 0.09774(12) 0.4222(2) 0.10043(16)
H12 H 0.0608 0.3595 0.0633
H13 H 0.1380 0.3734 0.1481
C11 C 0.11684(12) 0.4861(2) 0.03900(16)
H14 H 0.1259 0.4191 0.0069
H15 H 0.0777 0.5381 -0.0076
C12 C 0.17846(11) 0.5700(2) 0.09108(15)
H16 H 0.2159 0.5368 0.1468
C13 C 0.18613(10) 0.68682(19) 0.06715(13)
C14 C 0.13318(11) 0.7545(2) -0.01930(14)
H17 H 0.0901 0.7624 -0.0212
H18 H 0.1235 0.7031 -0.0726
C15 C 0.15765(11) 0.8869(2) -0.02490(14)
H19 H 0.1187 0.9365 -0.0740
H20 H 0.1925 0.8787 -0.0402
C16 C 0.21821(11) 1.0898(2) 0.06347(14)
H21 H 0.1794 1.1424 0.0151
C17 C 0.27069(15) 1.0828(3) 0.0405(2)
H22 H 0.2519 1.0365 -0.0172
H23 H 0.3112 1.0377 0.0891
H24 H 0.2836 1.1697 0.0342
C18 C 0.24853(12) 1.1622(2) 0.15336(15)
H25 H 0.2665 1.2449 0.1491
H26 H 0.2857 1.1117 0.2029
H27 H 0.2129 1.1765 0.1658
C19 C 0.06314(14) 0.4393(3) 0.21346(19)
H28 H 0.0474 0.5002 0.2408
H29 H 0.1062 0.4001 0.2616
H30 H 0.0285 0.3724 0.1812
C20 C 0.24931(10) 0.7567(2) 0.13461(13)
C21? C 0.0689(4) 0.8128(8) 0.2147(6)
H31? H 0.1124 0.7654 0.2529
H32? H 0.0489 0.8277 0.2514
C22? C 0.0196(5) 0.7337(8) 0.1310(8)
H33? H -0.0054 0.7920 0.0781
H34? H -0.0144 0.6939 0.1407
C23? C 0.0533(6) 0.6267(8) 0.1072(8)
H35? H 0.0600 0.6451 0.0595
C24? C 0.1672(5) 1.1700(9) -0.0184(6)
H36? H 0.1494 1.1198 -0.0743
H37? H 0.1900 1.2470 -0.0213
H38? H 0.1293 1.1949 -0.0126
loop_
_geom_bond_atom_site_label_1
_geom_bond_atom_site_label_2
_geom_bond_site_symmetry_1
_geom_bond_site_symmetry_2
O1 C20 1_555 1_555
O2 C1 1_555 1_555
C1 C2 1_555 1_555
C2 H1 1_555 1_555
C3 C2 1_555 1_555
H2 C3 1_555 1_555
C4 C3 1_555 1_555
C5 C4 1_555 1_555
H3 C5 1_555 1_555
H4 C5 1_555 1_555
C6 C5 1_555 1_555
H5 C6 1_555 1_555
H6 C6 1_555 1_555
C7 C6 1_555 1_555
H7 C7 1_555 1_555
O3 C4 1_555 1_555
H8 O3 1_555 1_555
C8 C4 1_555 1_555
H9 C8 1_555 1_555
H10 C8 1_555 1_555
H11 C8 1_555 1_555
C9 C7 1_555 1_555
C10 C9 1_555 1_555
H12 C10 1_555 1_555
H13 C10 1_555 1_555
C11 C10 1_555 1_555
H14 C11 1_555 1_555
H15 C11 1_555 1_555
C12 C11 1_555 1_555
H16 C12 1_555 1_555
C13 C12 1_555 1_555
C14 C13 1_555 1_555
H17 C14 1_555 1_555
H18 C14 1_555 1_555
C15 C1 1_555 1_555
H19 C15 1_555 1_555
H20 C15 1_555 1_555
C16 C1 1_555 1_555
H21 C16 1_555 1_555
C17 C16 1_555 1_555
H22 C17 1_555 1_555
H23 C17 1_555 1_555
H24 C17 1_555 1_555
C18 C16 1_555 1_555
H25 C18 1_555 1_555
H26 C18 1_555 1_555
H27 C18 1_555 1_555
C19 C9 1_555 1_555
H28 C19 1_555 1_555
H29 C19 1_555 1_555
H30 C19 1_555 1_555
C20 O2 1_555 1_555
C13 C20 1_555 1_555
C14 C15 1_555 1_555

#END
