
#######################################################################
#
#                 Cambridge Crystallographic Data Centre
#                                CCDC 
#
#######################################################################
#
# If this CIF has been generated from an entry in the Cambridge 
# Structural Database, then it will include bibliographic, chemical, 
# crystal, experimental, refinement or atomic coordinate data resulting 
# from the CCDC's data processing and validation procedures.
#
#######################################################################

data_IQEKIA
_chemical_compound_source        'fruits of Flueggea virosa'
_chemical_name_common            'Norsecurinamine B unknown solvate'
_chemical_formula_moiety         'C24 H29 N3 O4'
_chemical_name_systematic        
'7-((3-oxo-2-oxa-9-azatetracyclo[6.5.1.0^1,5^.0^9,13^]tetradec-4-en-7-yl)amino)-2-oxa-9-azatetracyclo[6.5.1.0^1,5^.0^9,13^]tetradec-4-en-3-one unknown solvate'
_symmetry_cell_setting           orthorhombic
_symmetry_space_group_name_H-M   'P 21 21 21'
_symmetry_Int_Tables_number      19
_space_group_name_Hall           'P 2ac 2ab'
loop_
_symmetry_equiv_pos_site_id
_symmetry_equiv_pos_as_xyz
1 x,y,z
2 1/2-x,-y,1/2+z
3 -x,1/2+y,1/2-z
4 1/2+x,1/2-y,-z
_cell_length_a                   6.8162(4)
_cell_length_b                   19.0040(13)
_cell_length_c                   22.9252(15)
_cell_angle_alpha                90
_cell_angle_beta                 90
_cell_angle_gamma                90
_cell_volume                     2969.62
_exptl_crystal_colour            colorless
_exptl_crystal_description       block
_cell_formula_units_Z            4
loop_
_atom_site_label
_atom_site_type_symbol
_atom_site_fract_x
_atom_site_fract_y
_atom_site_fract_z
O1 O 1.0144(6) 0.9258(2) 0.00947(15)
O2 O 1.0576(7) 1.0248(2) -0.04057(19)
O3 O 0.9696(6) 1.0487(2) 0.46009(17)
O4 O 1.0171(7) 1.0061(2) 0.55039(16)
N1 N 0.8421(7) 0.8263(3) 0.13895(18)
N2 N 0.9559(7) 0.8942(3) 0.2522(2)
H1 H 0.8645 0.8632 0.2549
N3 N 0.8193(7) 1.0363(2) 0.3049(2)
C1 C 0.8026(8) 0.8608(3) 0.0800(2)
H2 H 0.6854 0.8904 0.0828
C2 C 0.7661(11) 0.8018(3) 0.0363(3)
H3 H 0.6679 0.8152 0.0078
H4 H 0.8860 0.7888 0.0162
C3 C 0.6937(11) 0.7429(3) 0.0749(3)
H5 H 0.7103 0.6976 0.0560
H6 H 0.5565 0.7493 0.0847
C4 C 0.8240(10) 0.7488(3) 0.1294(3)
H7 H 0.7628 0.7261 0.1626
H8 H 0.9515 0.7276 0.1227
C5 C 1.0452(8) 0.8476(3) 0.1569(2)
H9 H 1.1123 0.8089 0.1769
C6 C 1.1467(9) 0.8652(3) 0.0995(2)
H10 H 1.1800 0.8232 0.0776
H11 H 1.2637 0.8934 0.1055
C7 C 0.9833(9) 0.9073(3) 0.0700(3)
C8 C 1.0276(8) 0.9959(3) 0.0057(3)
C9 C 0.9950(9) 1.0280(3) 0.0627(3)
H12 H 0.9935 1.0760 0.0705
C10 C 0.9673(8) 0.9761(3) 0.1022(2)
C11 C 0.9261(9) 0.9745(3) 0.1657(3)
H13 H 0.7862 0.9688 0.1718
H14 H 0.9657 1.0188 0.1830
C12 C 1.0369(9) 0.9135(3) 0.1958(2)
H15 H 1.1721 0.9291 0.2023
C13 C 0.9924(9) 0.9942(3) 0.4985(3)
C14 C 0.7659(8) 1.0432(3) 0.3686(3)
H16 H 0.6559 1.0120 0.3778
C15 C 0.7041(9) 1.1205(3) 0.3774(2)
H17 H 0.5958 1.1242 0.4046
H18 H 0.8128 1.1487 0.3915
C16 C 0.6414(10) 1.1437(4) 0.3157(3)
H19 H 0.5101 1.1276 0.3064
H20 H 0.6479 1.1944 0.3113
C17 C 0.7936(10) 1.1072(4) 0.2790(3)
H21 H 0.7495 1.1035 0.2388
H22 H 0.9163 1.1330 0.2797
C18 C 1.0243(9) 1.0104(3) 0.3043(3)
H23 H 1.0936 1.0290 0.2702
C19 C 1.1164(8) 1.0396(3) 0.3605(2)
H24 H 1.2385 1.0162 0.3703
H25 H 1.1372 1.0900 0.3586
C20 C 0.9505(10) 1.0200(4) 0.4025(3)
C21 C 0.9781(9) 0.9281(3) 0.4676(3)
H26 H 0.9866 0.8835 0.4843
C22 C 0.9508(8) 0.9417(3) 0.4120(2)
C23 C 0.9287(9) 0.8978(3) 0.3574(2)
H27 H 0.7901 0.8930 0.3485
H28 H 0.9803 0.8511 0.3648
C24 C 1.0330(8) 0.9287(3) 0.3042(2)
H29 H 1.1716 0.9155 0.3073
loop_
_geom_bond_atom_site_label_1
_geom_bond_atom_site_label_2
_geom_bond_site_symmetry_1
_geom_bond_site_symmetry_2
O1 C7 1_555 1_555
O2 C8 1_555 1_555
O3 C13 1_555 1_555
O4 C13 1_555 1_555
N1 C1 1_555 1_555
N2 H1 1_555 1_555
N3 C14 1_555 1_555
C1 H2 1_555 1_555
C2 C1 1_555 1_555
H3 C2 1_555 1_555
H4 C2 1_555 1_555
C3 C2 1_555 1_555
H5 C3 1_555 1_555
H6 C3 1_555 1_555
C4 N1 1_555 1_555
H7 C4 1_555 1_555
H8 C4 1_555 1_555
C5 N1 1_555 1_555
H9 C5 1_555 1_555
C6 C5 1_555 1_555
H10 C6 1_555 1_555
H11 C6 1_555 1_555
C7 C1 1_555 1_555
C8 O1 1_555 1_555
C9 C8 1_555 1_555
H12 C9 1_555 1_555
C10 C7 1_555 1_555
C11 C10 1_555 1_555
H13 C11 1_555 1_555
H14 C11 1_555 1_555
C12 N2 1_555 1_555
H15 C12 1_555 1_555
C13 C21 1_555 1_555
C14 H16 1_555 1_555
C15 C14 1_555 1_555
H17 C15 1_555 1_555
H18 C15 1_555 1_555
C16 C15 1_555 1_555
H19 C16 1_555 1_555
H20 C16 1_555 1_555
C17 N3 1_555 1_555
H21 C17 1_555 1_555
H22 C17 1_555 1_555
C18 N3 1_555 1_555
H23 C18 1_555 1_555
C19 C18 1_555 1_555
H24 C19 1_555 1_555
H25 C19 1_555 1_555
C20 O3 1_555 1_555
C21 H26 1_555 1_555
C22 C20 1_555 1_555
C23 C22 1_555 1_555
H27 C23 1_555 1_555
H28 C23 1_555 1_555
C24 N2 1_555 1_555
H29 C24 1_555 1_555
C3 C4 1_555 1_555
C5 C12 1_555 1_555
C6 C7 1_555 1_555
C9 C10 1_555 1_555
C11 C12 1_555 1_555
C14 C20 1_555 1_555
C16 C17 1_555 1_555
C18 C24 1_555 1_555
C19 C20 1_555 1_555
C21 C22 1_555 1_555
C23 C24 1_555 1_555

#END
