
#######################################################################
#
#                 Cambridge Crystallographic Data Centre
#                                CCDC 
#
#######################################################################
#
# If this CIF has been generated from an entry in the Cambridge 
# Structural Database, then it will include bibliographic, chemical, 
# crystal, experimental, refinement or atomic coordinate data resulting 
# from the CCDC's data processing and validation procedures.
#
#######################################################################

data_IQEKEW
_chemical_compound_source        'fruits of Flueggea virosa'
_chemical_name_common            'Norsecurinamine A monohydrate'
_chemical_formula_moiety         'C23 H27 N3 O4,H2 O1'
_chemical_name_systematic        
'7-((2-(3-hydroxy-1-methyl-2-oxopyrrolidin-3-yl)phenyl)amino)-2-oxa-9-azatetracyclo[6.5.1.0^1,5^.0^9,13^]tetradec-4-en-3-one monohydrate'
_symmetry_cell_setting           monoclinic
_symmetry_space_group_name_H-M   'P 21'
_symmetry_Int_Tables_number      4
_space_group_name_Hall           'P 2yb'
loop_
_symmetry_equiv_pos_site_id
_symmetry_equiv_pos_as_xyz
1 x,y,z
2 -x,1/2+y,-z
_cell_length_a                   6.4683(3)
_cell_length_b                   8.8763(5)
_cell_length_c                   18.4197(8)
_cell_angle_alpha                90
_cell_angle_beta                 92.467(4)
_cell_angle_gamma                90
_cell_volume                     1056.58
_exptl_crystal_colour            colorless
_exptl_crystal_description       block
_cell_formula_units_Z            2
loop_
_atom_site_label
_atom_site_type_symbol
_atom_site_fract_x
_atom_site_fract_y
_atom_site_fract_z
N1 N 0.6291(2) 0.7729(2) 0.18487(9)
N2 N 0.7795(3) 1.0509(3) 0.26047(10)
H1 H 0.792(4) 0.957(4) 0.2791(13)
N3 N 1.1047(3) 0.9888(3) 0.51214(9)
O1 O 0.0401(2) 0.9657(3) -0.03899(8)
O2 O 1.0000(2) 0.83077(19) 0.34386(8)
H2 H 1.1111 0.8126 0.3259
O3 O 1.3529(2) 0.8777(2) 0.44589(7)
O4 O 0.3020(2) 0.8498(2) 0.02114(7)
C1 C 0.4304(3) 0.7512(3) 0.13995(10)
H3 H 0.3111 0.7611 0.1707
C2 C 0.4394(3) 0.5934(3) 0.10905(12)
H4 H 0.4971 0.5938 0.0613
H5 H 0.3030 0.5479 0.1056
C3 C 0.5800(3) 0.5107(3) 0.16367(13)
H6 H 0.6421 0.4231 0.1419
H7 H 0.5049 0.4791 0.2055
C4 C 0.7429(3) 0.6279(3) 0.18484(12)
H8 H 0.8049 0.6066 0.2326
H9 H 0.8509 0.6300 0.1499
C5 C 0.7417(3) 0.8978(3) 0.14998(10)
H10 H 0.8910 0.8785 0.1530
C6 C 0.6621(3) 0.8967(3) 0.07065(10)
H11 H 0.7152 0.8120 0.0438
H12 H 0.6918 0.9901 0.0458
C7 C 0.4321(3) 0.8797(3) 0.08499(10)
C8 C 0.1638(3) 0.9664(3) 0.01232(11)
C9 C 0.1997(3) 1.0742(3) 0.07096(12)
H13 H 0.1267 1.1632 0.0770
C10 C 0.3551(3) 1.0241(3) 0.11468(11)
C11 C 0.4579(3) 1.0792(3) 0.18386(12)
H14 H 0.3978 1.0290 0.2247
H15 H 0.4337 1.1866 0.1887
C12 C 0.6946(3) 1.0487(3) 0.18547(11)
H16 H 0.7611 1.1288 0.1583
C13 C 0.9457(3) 1.1427(3) 0.28284(11)
C14 C 1.0705(3) 1.1027(3) 0.34509(11)
C15 C 1.2301(3) 1.1994(3) 0.36761(11)
H17 H 1.3145 1.1731 0.4078
C16 C 1.2673(3) 1.3334(3) 0.33213(12)
H18 H 1.3754 1.3959 0.3481
C17 C 1.1423(3) 1.3732(3) 0.27290(12)
H19 H 1.1635 1.4643 0.2494
C18 C 0.9848(3) 1.2779(3) 0.24818(12)
H20 H 0.9034 1.3051 0.2074
C19 C 1.1818(3) 0.9363(3) 0.45134(11)
C20 C 1.0199(3) 0.9616(3) 0.38820(11)
C21 C 0.8218(3) 0.9830(3) 0.43014(11)
H21 H 0.7254 1.0494 0.4040
H22 H 0.7544 0.8872 0.4382
C22 C 0.8978(3) 1.0531(3) 0.50146(12)
H23 H 0.9032 1.1620 0.4980
H24 H 0.8100 1.0252 0.5407
C23 C 1.2222(4) 0.9949(4) 0.58127(12)
H25 H 1.1704 0.9202 0.6135
H26 H 1.2081 1.0930 0.6024
H27 H 1.3655 0.9754 0.5735
O5 O 0.3991(2) 0.7354(2) 0.31457(9)
H28 H 0.489(4) 0.757(4) 0.2861(12)
H29 H 0.419(4) 0.777(3) 0.3551(8)
loop_
_geom_bond_atom_site_label_1
_geom_bond_atom_site_label_2
_geom_bond_site_symmetry_1
_geom_bond_site_symmetry_2
N1 C1 1_555 1_555
N2 H1 1_555 1_555
N3 C19 1_555 1_555
O1 C8 1_555 1_555
O2 H2 1_555 1_555
O3 C19 1_555 1_555
O4 C7 1_555 1_555
C1 H3 1_555 1_555
C2 C1 1_555 1_555
H4 C2 1_555 1_555
H5 C2 1_555 1_555
C3 C2 1_555 1_555
H6 C3 1_555 1_555
H7 C3 1_555 1_555
C4 N1 1_555 1_555
H8 C4 1_555 1_555
H9 C4 1_555 1_555
C5 N1 1_555 1_555
H10 C5 1_555 1_555
C6 C5 1_555 1_555
H11 C6 1_555 1_555
H12 C6 1_555 1_555
C7 C1 1_555 1_555
C8 O4 1_555 1_555
C9 C8 1_555 1_555
H13 C9 1_555 1_555
C10 C7 1_555 1_555
C11 C10 1_555 1_555
H14 C11 1_555 1_555
H15 C11 1_555 1_555
C12 N2 1_555 1_555
H16 C12 1_555 1_555
C13 N2 1_555 1_555
C14 C13 1_555 1_555
C15 C14 1_555 1_555
H17 C15 1_555 1_555
C16 C15 1_555 1_555
H18 C16 1_555 1_555
C17 C16 1_555 1_555
H19 C17 1_555 1_555
C18 C13 1_555 1_555
H20 C18 1_555 1_555
C19 C20 1_555 1_555
C20 O2 1_555 1_555
C21 C20 1_555 1_555
H21 C21 1_555 1_555
H22 C21 1_555 1_555
C22 N3 1_555 1_555
H23 C22 1_555 1_555
H24 C22 1_555 1_555
C23 N3 1_555 1_555
H25 C23 1_555 1_555
H26 C23 1_555 1_555
H27 C23 1_555 1_555
O5 H28 1_555 1_555
H29 O5 1_555 1_555
C3 C4 1_555 1_555
C5 C12 1_555 1_555
C6 C7 1_555 1_555
C9 C10 1_555 1_555
C11 C12 1_555 1_555
C14 C20 1_555 1_555
C17 C18 1_555 1_555
C21 C22 1_555 1_555

#END
