
#######################################################################
#
#                 Cambridge Crystallographic Data Centre
#                                CCDC 
#
#######################################################################
#
# If this CIF has been generated from an entry in the Cambridge 
# Structural Database, then it will include bibliographic, chemical, 
# crystal, experimental, refinement or atomic coordinate data resulting 
# from the CCDC's data processing and validation procedures.
#
#######################################################################

data_IQELAT
_chemical_formula_moiety         'C23 H27 N3 O4 S1,C1 H4 O1'
_chemical_name_systematic        
'3-(1,3-bis(4-hydroxybenzyl)-2-sulfanylidene-2,3-dihydro-1H-imidazol-4-yl)-2-(trimethylazaniumyl)propanoate methanol solvate'
_symmetry_cell_setting           orthorhombic
_symmetry_space_group_name_H-M   'P 21 21 21'
_symmetry_Int_Tables_number      19
_space_group_name_Hall           'P 2ac 2ab'
loop_
_symmetry_equiv_pos_site_id
_symmetry_equiv_pos_as_xyz
1 x,y,z
2 1/2-x,-y,1/2+z
3 -x,1/2+y,1/2-z
4 1/2+x,1/2-y,-z
_cell_length_a                   8.7361(11)
_cell_length_b                   9.9339(12)
_cell_length_c                   27.352(3)
_cell_angle_alpha                90
_cell_angle_beta                 90
_cell_angle_gamma                90
_cell_volume                     2373.7
_exptl_crystal_colour            colorless
_exptl_crystal_description       plate
_cell_formula_units_Z            4
loop_
_atom_site_label
_atom_site_type_symbol
_atom_site_fract_x
_atom_site_fract_y
_atom_site_fract_z
S1 S 0.6624(2) 0.7209(2) 0.46244(8)
O1 O -0.0313(5) 0.5188(4) 0.34022(19)
O2 O 0.1901(5) 0.5244(5) 0.3004(2)
O3 O 0.3347(6) 0.2172(5) 0.63909(18)
H1 H 0.3593 0.1378 0.6417
O4 O 0.4006(6) 1.2263(4) 0.26617(15)
H2 H 0.4400 1.1851 0.2434
N1 N 0.3682(6) 0.7587(5) 0.43072(18)
N2 N 0.4302(6) 0.5489(5) 0.43901(19)
N3 N -0.0146(6) 0.8122(5) 0.3123(2)
C1 C 0.0852(8) 0.5730(6) 0.3253(3)
C2 C 0.1046(6) 0.7259(5) 0.3390(2)
H3 H 0.2061 0.7545 0.3278
C3 C 0.1002(7) 0.7423(6) 0.3947(2)
H4 H 0.0942 0.8371 0.4030
H5 H 0.0102 0.6978 0.4077
C4 C 0.2402(7) 0.6826(6) 0.4166(2)
C5 C 0.2811(7) 0.5536(6) 0.4227(2)
H6 H 0.2189 0.4794 0.4168
C6 C 0.4847(7) 0.6768(6) 0.4453(2)
C7 C 0.5121(8) 0.4264(6) 0.4544(2)
H7 H 0.6202 0.4471 0.4575
H8 H 0.5012 0.3586 0.4291
C8 C 0.4562(7) 0.3696(6) 0.5018(2)
C9 C 0.4929(8) 0.2378(6) 0.5150(3)
H9 H 0.5464 0.1841 0.4930
C10 C 0.4518(7) 0.1846(6) 0.5598(3)
H10 H 0.4786 0.0967 0.5678
C11 C 0.3710(7) 0.2625(6) 0.5927(2)
C12 C 0.3268(8) 0.3892(6) 0.5797(2)
H11 H 0.2677 0.4397 0.6012
C13 C 0.3675(8) 0.4432(6) 0.5358(3)
H12 H 0.3363 0.5301 0.5280
C14 C 0.3711(8) 0.9055(6) 0.4377(2)
H13 H 0.4602 0.9286 0.4572
H14 H 0.2811 0.9317 0.4562
C15 C 0.3753(7) 0.9864(6) 0.3907(2)
C16 C 0.4527(7) 0.9415(6) 0.3502(2)
H15 H 0.4986 0.8571 0.3512
C17 C 0.4645(7) 1.0180(6) 0.3080(2)
H16 H 0.5178 0.9856 0.2810
C18 C 0.3946(7) 1.1448(6) 0.3067(2)
C19 C 0.3151(7) 1.1910(6) 0.3471(2)
H17 H 0.2683 1.2751 0.3465
C20 C 0.3058(7) 1.1116(6) 0.3883(2)
H18 H 0.2513 1.1428 0.4152
C21 C 0.0288(8) 0.9585(6) 0.3149(3)
H19 H 0.0463 0.9833 0.3484
H20 H -0.0527 1.0123 0.3017
H21 H 0.1203 0.9734 0.2963
C22 C -0.1735(6) 0.7957(7) 0.3322(3)
H22 H -0.1768 0.8280 0.3653
H23 H -0.2013 0.7022 0.3316
H24 H -0.2441 0.8463 0.3126
C23 C -0.0156(8) 0.7737(7) 0.2594(2)
H25 H -0.0772 0.8364 0.2413
H26 H -0.0573 0.6848 0.2559
H27 H 0.0872 0.7751 0.2469
O5 O 0.5198(5) 0.1036(4) 0.19011(19)
H28 H 0.6101 0.0812 0.1895
C24 C 0.4274(8) -0.0057(7) 0.1748(3)
H29 H 0.4901 -0.0843 0.1707
H30 H 0.3791 0.0162 0.1443
H31 H 0.3505 -0.0232 0.1990
loop_
_geom_bond_atom_site_label_1
_geom_bond_atom_site_label_2
_geom_bond_site_symmetry_1
_geom_bond_site_symmetry_2
S1 C6 1_555 1_555
O1 C1 1_555 1_555
O2 C1 1_555 1_555
O3 H1 1_555 1_555
O4 H2 1_555 1_555
N1 C4 1_555 1_555
N2 C5 1_555 1_555
N3 C2 1_555 1_555
C1 C2 1_555 1_555
C2 H3 1_555 1_555
C3 C2 1_555 1_555
H4 C3 1_555 1_555
H5 C3 1_555 1_555
C4 C3 1_555 1_555
C5 C4 1_555 1_555
H6 C5 1_555 1_555
C6 N1 1_555 1_555
C7 N2 1_555 1_555
H7 C7 1_555 1_555
H8 C7 1_555 1_555
C8 C7 1_555 1_555
C9 C8 1_555 1_555
H9 C9 1_555 1_555
C10 C9 1_555 1_555
H10 C10 1_555 1_555
C11 O3 1_555 1_555
C12 C11 1_555 1_555
H11 C12 1_555 1_555
C13 C8 1_555 1_555
H12 C13 1_555 1_555
C14 N1 1_555 1_555
H13 C14 1_555 1_555
H14 C14 1_555 1_555
C15 C14 1_555 1_555
C16 C15 1_555 1_555
H15 C16 1_555 1_555
C17 C16 1_555 1_555
H16 C17 1_555 1_555
C18 O4 1_555 1_555
C19 C18 1_555 1_555
H17 C19 1_555 1_555
C20 C15 1_555 1_555
H18 C20 1_555 1_555
C21 N3 1_555 1_555
H19 C21 1_555 1_555
H20 C21 1_555 1_555
H21 C21 1_555 1_555
C22 N3 1_555 1_555
H22 C22 1_555 1_555
H23 C22 1_555 1_555
H24 C22 1_555 1_555
C23 N3 1_555 1_555
H25 C23 1_555 1_555
H26 C23 1_555 1_555
H27 C23 1_555 1_555
O5 H28 1_555 1_555
C24 O5 1_555 1_555
H29 C24 1_555 1_555
H30 C24 1_555 1_555
H31 C24 1_555 1_555
N2 C6 1_555 1_555
C10 C11 1_555 1_555
C12 C13 1_555 1_555
C17 C18 1_555 1_555
C19 C20 1_555 1_555

#END
