
#######################################################################
#
#                 Cambridge Crystallographic Data Centre
#                                CCDC 
#
#######################################################################
#
# If this CIF has been generated from an entry in the Cambridge 
# Structural Database, then it will include bibliographic, chemical, 
# crystal, experimental, refinement or atomic coordinate data resulting 
# from the CCDC's data processing and validation procedures.
#
#######################################################################

data_IQEMOI
_chemical_formula_moiety         'C29 H25 N1 O2'
_chemical_name_systematic        
6-methoxy-1-(4-methoxyphenyl)-3,4-diphenyl-3,4-dihydroisoquinoline
_symmetry_cell_setting           orthorhombic
_symmetry_space_group_name_H-M   'P c c n'
_symmetry_Int_Tables_number      56
_space_group_name_Hall           '-P 2ab 2ac'
loop_
_symmetry_equiv_pos_site_id
_symmetry_equiv_pos_as_xyz
1 x,y,z
2 1/2-x,1/2-y,z
3 -x,1/2+y,1/2-z
4 1/2+x,-y,1/2-z
5 -x,-y,-z
6 1/2+x,1/2+y,-z
7 x,1/2-y,1/2+z
8 1/2-x,y,1/2+z
_cell_length_a                   10.143(3)
_cell_length_b                   43.908(13)
_cell_length_c                   10.058(3)
_cell_angle_alpha                90
_cell_angle_beta                 90
_cell_angle_gamma                90
_cell_volume                     4479.42
_exptl_crystal_colour            colorless
_exptl_crystal_description       block
_cell_formula_units_Z            8
loop_
_atom_site_label
_atom_site_type_symbol
_atom_site_fract_x
_atom_site_fract_y
_atom_site_fract_z
C1 C 0.5709(3) 0.09945(7) 0.5713(3)
H1 H 0.5959 0.0872 0.6488
C2 C 0.4707(4) 0.08089(8) 0.4922(4)
C3 C 0.6991(4) 0.10742(8) 0.4962(3)
H2 H 0.7564 0.1179 0.5599
C4 C 0.4022(4) 0.09229(9) 0.3830(4)
H3 H 0.4129 0.1126 0.3592
C5 C 0.7288(4) 0.06208(8) 0.3437(4)
H4 H 0.6518 0.0676 0.2994
C6 C 0.7745(4) 0.07982(8) 0.4483(4)
C7 C 0.7972(5) 0.03631(10) 0.3051(5)
H5 H 0.7662 0.0246 0.2347
C8 C 0.3193(4) 0.07417(10) 0.3100(5)
H6 H 0.2758 0.0822 0.2366
C9 C 0.9577(5) 0.04558(13) 0.4709(6)
H7 H 1.0360 0.0403 0.5129
C10 C 0.8898(4) 0.07118(10) 0.5108(4)
H8 H 0.9221 0.0828 0.5809
C11 C 0.4475(5) 0.05110(9) 0.5258(4)
H9 H 0.4899 0.0429 0.5997
C12 C 0.3621(5) 0.03269(10) 0.4523(6)
H10 H 0.3477 0.0126 0.4770
C13 C 0.9099(6) 0.02796(12) 0.3697(6)
H11 H 0.9543 0.0103 0.3448
C14 C 0.3002(5) 0.04457(11) 0.3438(5)
H12 H 0.2447 0.0324 0.2929
C15 C 0.5175(3) 0.12929(8) 0.6230(3)
C16 C 0.4897(4) 0.18306(8) 0.5936(4)
H13 H 0.4993 0.2005 0.5424
C17 C 0.5323(3) 0.15513(7) 0.5432(3)
C18 C 0.4175(4) 0.15942(9) 0.7951(4)
C19 C 0.4598(4) 0.13132(8) 0.7478(3)
H14 H 0.4494 0.1139 0.7996
C20 C 0.4338(4) 0.18515(9) 0.7173(4)
H15 H 0.4066 0.2040 0.7493
C21 C 0.3656(5) 0.13987(10) 1.0110(4)
H16 H 0.3288 0.1216 0.9740
H17 H 0.3167 0.1456 1.0888
H18 H 0.4560 0.1363 1.0348
C22 C 0.5977(3) 0.15139(7) 0.4123(3)
C23 C 0.5727(4) 0.17368(7) 0.3048(3)
C24 C 0.6693(4) 0.18005(8) 0.2135(4)
H19 H 0.7512 0.1707 0.2221
C25 C 0.5268(7) 0.21381(9) 0.0955(4)
C26 C 0.4275(6) 0.20719(10) 0.1843(5)
H20 H 0.3447 0.2160 0.1741
C27 C 0.4509(4) 0.18748(8) 0.2886(4)
H21 H 0.3838 0.1834 0.3490
C28 C 0.6484(6) 0.19996(10) 0.1091(4)
H22 H 0.7155 0.2040 0.0487
N1 N 0.6753(3) 0.12889(6) 0.3864(3)
O1 O 0.3589(3) 0.16374(6) 0.9153(3)
O2 O 0.5029(5) 0.23377(7) -0.0075(3)
C29 C 0.6257(9) 0.24133(18) -0.0982(8)
C30? C 0.3547(9) 0.24196(18) -0.0253(9)
loop_
_geom_bond_atom_site_label_1
_geom_bond_atom_site_label_2
_geom_bond_site_symmetry_1
_geom_bond_site_symmetry_2
C1 H1 1_555 1_555
C2 C1 1_555 1_555
C3 C1 1_555 1_555
H2 C3 1_555 1_555
C4 C2 1_555 1_555
H3 C4 1_555 1_555
C5 H4 1_555 1_555
C6 C3 1_555 1_555
C7 C5 1_555 1_555
H5 C7 1_555 1_555
C8 C4 1_555 1_555
H6 C8 1_555 1_555
C9 H7 1_555 1_555
C10 C6 1_555 1_555
H8 C10 1_555 1_555
C11 C2 1_555 1_555
H9 C11 1_555 1_555
C12 C11 1_555 1_555
H10 C12 1_555 1_555
C13 C7 1_555 1_555
H11 C13 1_555 1_555
C14 C8 1_555 1_555
H12 C14 1_555 1_555
C15 C1 1_555 1_555
C16 H13 1_555 1_555
C17 C15 1_555 1_555
C18 C19 1_555 1_555
C19 C15 1_555 1_555
H14 C19 1_555 1_555
C20 C16 1_555 1_555
H15 C20 1_555 1_555
C21 H16 1_555 1_555
H17 C21 1_555 1_555
H18 C21 1_555 1_555
C22 C17 1_555 1_555
C23 C22 1_555 1_555
C24 C23 1_555 1_555
H19 C24 1_555 1_555
C25 C26 1_555 1_555
C26 H20 1_555 1_555
C27 C23 1_555 1_555
H21 C27 1_555 1_555
C28 C24 1_555 1_555
H22 C28 1_555 1_555
N1 C3 1_555 1_555
O1 C18 1_555 1_555
O2 C25 1_555 1_555
C29 O2 1_555 1_555
C5 C6 1_555 1_555
C9 C10 1_555 1_555
C9 C13 1_555 1_555
C12 C14 1_555 1_555
C16 C17 1_555 1_555
C18 C20 1_555 1_555
C21 O1 1_555 1_555
C22 N1 1_555 1_555
C25 C28 1_555 1_555
C26 C27 1_555 1_555

#END
