
#######################################################################
#
#                 Cambridge Crystallographic Data Centre
#                                CCDC 
#
#######################################################################
#
# If this CIF has been generated from an entry in the Cambridge 
# Structural Database, then it will include bibliographic, chemical, 
# crystal, experimental, refinement or atomic coordinate data resulting 
# from the CCDC's data processing and validation procedures.
#
#######################################################################

data_IQENEZ
_chemical_compound_source        'isolated from the roots of Euphorbia kansui'
_chemical_name_common            'Euphorikanin A'
_chemical_formula_moiety         'C20 H26 O3'
_chemical_name_systematic        
14-hydroxy-3,6,9,9,13-pentamethyl-16-oxapentacyclo[9.5.0.0^1,5^.0^2,14^.0^8,10^]hexadeca-3,12-dien-15-one
_symmetry_cell_setting           orthorhombic
_symmetry_space_group_name_H-M   'P 21 21 21'
_symmetry_Int_Tables_number      19
_space_group_name_Hall           'P 2ac 2ab'
loop_
_symmetry_equiv_pos_site_id
_symmetry_equiv_pos_as_xyz
1 x,y,z
2 1/2-x,-y,1/2+z
3 1/2+x,1/2-y,-z
4 -x,1/2+y,1/2-z
_cell_length_a                   6.66247(9)
_cell_length_b                   16.2362(2)
_cell_length_c                   16.4824(3)
_cell_angle_alpha                90
_cell_angle_beta                 90
_cell_angle_gamma                90
_cell_volume                     1782.95
_exptl_crystal_colour            colorless
_exptl_crystal_description       plate
_cell_formula_units_Z            4
loop_
_atom_site_label
_atom_site_type_symbol
_atom_site_fract_x
_atom_site_fract_y
_atom_site_fract_z
O1 O 0.1800(2) 0.52034(9) 0.96943(11)
O2 O 0.2277(3) 0.73505(9) 0.97587(13)
H1 H 0.3218 0.7668 0.9829
O3 O -0.0611(2) 0.61235(11) 0.99588(15)
C1 C 0.3808(5) 0.53592(16) 0.81063(16)
H2 H 0.3555 0.5225 0.7567
C2 C 0.3790(4) 0.61286(15) 0.83793(15)
C3 C 0.4310(3) 0.61395(12) 0.92776(13)
H3 H 0.5707 0.6307 0.9364
C4 C 0.3989(3) 0.52349(12) 0.95130(13)
C5 C 0.4273(4) 0.47215(14) 0.87433(14)
H4 H 0.3257 0.4285 0.8725
C6 C 0.6369(5) 0.43364(15) 0.86958(16)
H5 H 0.7330 0.4728 0.8927
C7 C 0.6499(6) 0.35251(16) 0.91900(18)
H6 H 0.5964 0.3091 0.8848
H7 H 0.7913 0.3406 0.9266
C8 C 0.5505(4) 0.34396(13) 1.00097(16)
H8 H 0.4589 0.2968 1.0037
C9 C 0.6565(4) 0.36019(13) 1.08055(16)
C10 C 0.4846(4) 0.41525(13) 1.05482(14)
H9 H 0.3589 0.4059 1.0842
C11 C 0.5161(3) 0.50270(12) 1.02693(13)
H10 H 0.6585 0.5081 1.0132
C12 C 0.4713(4) 0.56688(14) 1.09041(15)
H11 H 0.5133 0.5569 1.1433
C13 C 0.3749(3) 0.63730(13) 1.07519(14)
C14 C 0.2920(3) 0.65390(12) 0.98981(14)
C15 C 0.1128(3) 0.59684(13) 0.98537(15)
C16 C 0.3446(5) 0.68922(18) 0.78887(18)
H12 H 0.2398 0.7213 0.8134
H13 H 0.3058 0.6743 0.7347
H14 H 0.4659 0.7210 0.7870
C17 C 0.7009(8) 0.4150(2) 0.7827(2)
H15 H 0.5980 0.3835 0.7562
H16 H 0.8236 0.3840 0.7832
H17 H 0.7213 0.4658 0.7539
C18 C 0.6164(5) 0.30020(18) 1.1491(2)
H18 H 0.4767 0.2857 1.1495
H19 H 0.6511 0.3254 1.1999
H20 H 0.6959 0.2515 1.1415
C19 C 0.8687(4) 0.39209(17) 1.0803(2)
H21 H 0.9605 0.3465 1.0812
H22 H 0.8900 0.4259 1.1273
H23 H 0.8909 0.4242 1.0322
C20 C 0.3258(5) 0.69936(18) 1.13977(18)
H24 H 0.3813 0.7519 1.1251
H25 H 0.3819 0.6818 1.1905
H26 H 0.1827 0.7041 1.1449
loop_
_geom_bond_atom_site_label_1
_geom_bond_atom_site_label_2
_geom_bond_site_symmetry_1
_geom_bond_site_symmetry_2
O1 C4 1_555 1_555
O2 H1 1_555 1_555
O3 C15 1_555 1_555
C1 H2 1_555 1_555
C2 C1 1_555 1_555
C3 C2 1_555 1_555
H3 C3 1_555 1_555
C4 C3 1_555 1_555
C5 C1 1_555 1_555
H4 C5 1_555 1_555
C6 C5 1_555 1_555
H5 C6 1_555 1_555
C7 C6 1_555 1_555
H6 C7 1_555 1_555
H7 C7 1_555 1_555
C8 C7 1_555 1_555
H8 C8 1_555 1_555
C9 C8 1_555 1_555
C10 C8 1_555 1_555
H9 C10 1_555 1_555
C11 C4 1_555 1_555
H10 C11 1_555 1_555
C12 C11 1_555 1_555
H11 C12 1_555 1_555
C13 C12 1_555 1_555
C14 O2 1_555 1_555
C15 O1 1_555 1_555
C16 C2 1_555 1_555
H12 C16 1_555 1_555
H13 C16 1_555 1_555
H14 C16 1_555 1_555
C17 C6 1_555 1_555
H15 C17 1_555 1_555
H16 C17 1_555 1_555
H17 C17 1_555 1_555
C18 C9 1_555 1_555
H18 C18 1_555 1_555
H19 C18 1_555 1_555
H20 C18 1_555 1_555
C19 C9 1_555 1_555
H21 C19 1_555 1_555
H22 C19 1_555 1_555
H23 C19 1_555 1_555
C20 C13 1_555 1_555
H24 C20 1_555 1_555
H25 C20 1_555 1_555
H26 C20 1_555 1_555
C3 C14 1_555 1_555
C4 C5 1_555 1_555
C9 C10 1_555 1_555
C10 C11 1_555 1_555
C13 C14 1_555 1_555
C14 C15 1_555 1_555

#END
