
#######################################################################
#
#                 Cambridge Crystallographic Data Centre
#                                CCDC 
#
#######################################################################
#
# If this CIF has been generated from an entry in the Cambridge 
# Structural Database, then it will include bibliographic, chemical, 
# crystal, experimental, refinement or atomic coordinate data resulting 
# from the CCDC's data processing and validation procedures.
#
#######################################################################

data_IQENAU
_chemical_formula_moiety         'C19 H18 N2 O4'
_chemical_name_systematic        
'Methyl 5-(2-hydroxyphenyl)-1-(4-methoxybenzyl)-1H-imidazole-4-carboxylate'
_symmetry_cell_setting           monoclinic
_symmetry_space_group_name_H-M   'P 21/c'
_symmetry_Int_Tables_number      14
_space_group_name_Hall           '-P 2ybc'
loop_
_symmetry_equiv_pos_site_id
_symmetry_equiv_pos_as_xyz
1 x,y,z
2 -x,1/2+y,1/2-z
3 -x,-y,-z
4 x,1/2-y,1/2+z
_cell_length_a                   7.7536(19)
_cell_length_b                   16.818(4)
_cell_length_c                   12.776(3)
_cell_angle_alpha                90
_cell_angle_beta                 96.330(5)
_cell_angle_gamma                90
_cell_volume                     1655.83
_exptl_crystal_colour            colorless
_exptl_crystal_description       prismatic
_cell_formula_units_Z            4
loop_
_atom_site_label
_atom_site_type_symbol
_atom_site_fract_x
_atom_site_fract_y
_atom_site_fract_z
O1 O 0.5014(4) 0.43100(15) 0.75366(18)
O2 O 0.9473(3) 0.40691(16) 1.05055(19)
O3 O 0.8404(3) 0.48885(14) 1.16436(17)
O4 O 0.2776(4) -0.00486(15) 0.9741(2)
N1 N 0.4006(3) 0.37071(15) 0.97181(19)
N2 N 0.5110(3) 0.43939(15) 1.1108(2)
C1 C 0.5774(4) 0.37298(17) 0.9672(2)
C2 C 0.6434(4) 0.41551(17) 1.0549(2)
C3 C 0.3692(4) 0.41085(18) 1.0596(2)
H1 H 0.2593 0.4174 1.0810
C4 C 0.6550(4) 0.33871(17) 0.8774(2)
C5 C 0.7704(4) 0.2757(2) 0.8895(3)
H2 H 0.8032 0.2561 0.9568
C6 C 0.8381(5) 0.2413(2) 0.8058(3)
H3 H 0.9164 0.1994 0.8163
C7 C 0.7883(5) 0.2696(2) 0.7054(3)
H4 H 0.8302 0.2457 0.6477
C8 C 0.6771(5) 0.3331(2) 0.6910(3)
H5 H 0.6457 0.3523 0.6233
C9 C 0.6110(4) 0.36890(19) 0.7751(2)
C10 C 0.8242(4) 0.43489(18) 1.0870(2)
C11 C 1.0142(5) 0.5122(2) 1.2028(3)
H6 H 1.0758 0.4673 1.2347
H7 H 1.0103 0.5537 1.2542
H8 H 1.0726 0.5313 1.1453
C12 C 0.2703(4) 0.32651(19) 0.9034(3)
H9 H 0.2891 0.3355 0.8305
H10 H 0.1559 0.3466 0.9132
C13 C 0.2756(4) 0.2386(2) 0.9250(3)
C14 C 0.2166(5) 0.2085(2) 1.0150(3)
H11 H 0.1762 0.2434 1.0633
C15 C 0.2163(5) 0.1276(2) 1.0352(3)
H12 H 0.1759 0.1084 1.0963
C16 C 0.2761(5) 0.0761(2) 0.9641(3)
C17 C 0.3378(5) 0.1049(2) 0.8746(3)
H13 H 0.3795 0.0699 0.8269
C18 C 0.3379(5) 0.1851(2) 0.8556(3)
H14 H 0.3805 0.2039 0.7950
C19 C 0.2290(6) -0.0382(2) 1.0677(3)
H15 H 0.3057 -0.0194 1.1266
H16 H 0.2361 -0.0951 1.0640
H17 H 0.1121 -0.0229 1.0763
H18 H 0.504(6) 0.466(2) 0.799(3)
loop_
_geom_bond_atom_site_label_1
_geom_bond_atom_site_label_2
_geom_bond_site_symmetry_1
_geom_bond_site_symmetry_2
O1 C9 1_555 1_555
O2 C10 1_555 1_555
O3 C10 1_555 1_555
O4 C16 1_555 1_555
N1 C1 1_555 1_555
N2 C2 1_555 1_555
C1 C2 1_555 1_555
C2 C10 1_555 1_555
C3 N1 1_555 1_555
H1 C3 1_555 1_555
C4 C1 1_555 1_555
C5 C4 1_555 1_555
H2 C5 1_555 1_555
C6 C5 1_555 1_555
H3 C6 1_555 1_555
C7 C6 1_555 1_555
H4 C7 1_555 1_555
C8 C7 1_555 1_555
H5 C8 1_555 1_555
C9 C4 1_555 1_555
C11 O3 1_555 1_555
H6 C11 1_555 1_555
H7 C11 1_555 1_555
H8 C11 1_555 1_555
C12 N1 1_555 1_555
H9 C12 1_555 1_555
H10 C12 1_555 1_555
C13 C12 1_555 1_555
C14 C13 1_555 1_555
H11 C14 1_555 1_555
C15 C14 1_555 1_555
H12 C15 1_555 1_555
C16 C15 1_555 1_555
C17 C16 1_555 1_555
H13 C17 1_555 1_555
C18 C13 1_555 1_555
H14 C18 1_555 1_555
C19 O4 1_555 1_555
H15 C19 1_555 1_555
H16 C19 1_555 1_555
H17 C19 1_555 1_555
H18 O1 1_555 1_555
N2 C3 1_555 1_555
C8 C9 1_555 1_555
C17 C18 1_555 1_555

#END
