
#######################################################################
#
#                 Cambridge Crystallographic Data Centre
#                                CCDC 
#
#######################################################################
#
# If this CIF has been generated from an entry in the Cambridge 
# Structural Database, then it will include bibliographic, chemical, 
# crystal, experimental, refinement or atomic coordinate data resulting 
# from the CCDC's data processing and validation procedures.
#
#######################################################################

data_IQEREC
_chemical_formula_moiety         'C25 H27 N3 O11,C2 H3 N1'
_chemical_name_systematic        
'N^4^-Benzoyl-1-(2,3,4,6-tetra-O-acetyl-\b-D-glucopyranosyl)cytosine acetonitrile solvate'
_symmetry_cell_setting           orthorhombic
_symmetry_space_group_name_H-M   'P 21 21 21'
_symmetry_Int_Tables_number      19
_space_group_name_Hall           'P 2ac 2ab'
loop_
_symmetry_equiv_pos_site_id
_symmetry_equiv_pos_as_xyz
1 x,y,z
2 1/2-x,-y,1/2+z
3 -x,1/2+y,1/2-z
4 1/2+x,1/2-y,-z
_cell_length_a                   7.0931(5)
_cell_length_b                   18.4798(14)
_cell_length_c                   20.6669(15)
_cell_angle_alpha                90
_cell_angle_beta                 90
_cell_angle_gamma                90
_cell_volume                     2709
_exptl_crystal_colour            colorless
_exptl_crystal_description       prismatic
_cell_formula_units_Z            4
loop_
_atom_site_label
_atom_site_type_symbol
_atom_site_fract_x
_atom_site_fract_y
_atom_site_fract_z
O1 O 0.2808(3) 0.65975(12) 0.19214(9)
O2 O 0.1846(5) 0.86566(13) 0.21770(11)
O3 O 0.0838(5) 0.72212(14) 0.49413(12)
O4 O -0.3358(5) 0.74828(17) 0.20155(17)
O5 O -0.1067(4) 0.76843(11) 0.12926(10)
O6 O -0.1012(4) 0.71635(15) -0.02997(12)
O7 O -0.1258(3) 0.63773(11) 0.05208(10)
O8 O 0.0515(5) 0.47211(13) 0.05961(12)
O9 O 0.2303(3) 0.56922(11) 0.03651(9)
O10 O 0.5464(5) 0.44741(15) 0.09022(14)
O11 O 0.4164(4) 0.50987(13) 0.17067(11)
N1 N 0.1271(4) 0.74902(13) 0.24776(11)
N2 N 0.1468(5) 0.84297(15) 0.32516(12)
N3 N 0.1178(5) 0.82263(14) 0.43248(12)
C1 C 0.1675(5) 0.72170(17) 0.18305(15)
H1 H 0.2391 0.7582 0.1589
C2 C -0.0110(5) 0.70256(17) 0.14550(15)
H2 H -0.0928 0.6712 0.1715
C3 C 0.0419(5) 0.66539(17) 0.08201(14)
H3 H 0.1044 0.6999 0.0530
C4 C 0.1720(5) 0.60284(16) 0.09653(13)
H4 H 0.1067 0.5673 0.1237
C5 C 0.3480(5) 0.63068(17) 0.13171(14)
H5 H 0.4035 0.6701 0.1063
C6 C 0.4976(5) 0.57602(18) 0.14567(17)
H6 H 0.5669 0.5656 0.1063
H7 H 0.5855 0.5956 0.1771
C7 C 0.1549(6) 0.82242(18) 0.26187(15)
C8 C 0.1097(5) 0.79523(18) 0.37019(15)
C9 C 0.0628(5) 0.72230(18) 0.35710(15)
H8 H 0.0239 0.6907 0.3895
C10 C 0.0778(5) 0.70149(18) 0.29507(16)
H9 H 0.0541 0.6535 0.2842
C11 C 0.1092(5) 0.78626(19) 0.49089(15)
C12 C 0.1325(5) 0.83233(18) 0.54924(14)
C13 C 0.0492(6) 0.8083(2) 0.60608(17)
H10 H -0.0168 0.7648 0.6060
C14 C 0.0622(6) 0.8475(2) 0.66280(16)
H11 H 0.0046 0.8309 0.7004
C15 C 0.1612(6) 0.9111(2) 0.66271(17)
H12 H 0.1681 0.9385 0.7003
C16 C 0.2492(6) 0.9345(2) 0.60835(16)
H13 H 0.3206 0.9766 0.6095
C17 C 0.2334(6) 0.89591(18) 0.55106(16)
H14 H 0.2912 0.9131 0.5137
C18 C -0.2639(6) 0.7868(2) 0.16248(18)
C19 C -0.3279(7) 0.8607(2) 0.1439(2)
H15 H -0.4414 0.8724 0.1669
H16 H -0.3520 0.8621 0.0982
H17 H -0.2317 0.8953 0.1545
C20 C -0.1788(5) 0.66563(19) -0.00505(15)
C21 C -0.3423(6) 0.6257(2) -0.03283(17)
H18 H -0.4573 0.6492 -0.0201
H19 H -0.3420 0.5769 -0.0171
H20 H -0.3330 0.6255 -0.0792
C22 C 0.1625(6) 0.50165(18) 0.02436(16)
C23 C 0.2452(7) 0.4710(2) -0.03668(18)
H21 H 0.2913 0.4230 -0.0285
H22 H 0.3474 0.5011 -0.0509
H23 H 0.1499 0.4692 -0.0696
C24 C 0.4532(6) 0.4486(2) 0.13871(19)
C25 C 0.3584(8) 0.3858(2) 0.1694(3)
H24 H 0.3324 0.3497 0.1372
H25 H 0.2423 0.4014 0.1888
H26 H 0.4391 0.3657 0.2021
H27 H 0.141(7) 0.8679(11) 0.4335(18)
N4 N -0.1163(7) 0.5020(2) 0.2080(2)
C26 C 0.005(3) 0.4947(11) 0.2390(8)
C27 C 0.144(2) 0.5218(7) 0.2965(6)
loop_
_geom_bond_atom_site_label_1
_geom_bond_atom_site_label_2
_geom_bond_site_symmetry_1
_geom_bond_site_symmetry_2
O1 C1 1_555 1_555
O2 C7 1_555 1_555
O3 C11 1_555 1_555
O4 C18 1_555 1_555
O5 C2 1_555 1_555
O6 C20 1_555 1_555
O7 C3 1_555 1_555
O8 C22 1_555 1_555
O9 C4 1_555 1_555
O10 C24 1_555 1_555
O11 C6 1_555 1_555
N1 C1 1_555 1_555
N2 C7 1_555 1_555
N3 C8 1_555 1_555
N4 C26 1_555 1_555
C1 H1 1_555 1_555
C2 C1 1_555 1_555
H2 C2 1_555 1_555
C3 C2 1_555 1_555
H3 C3 1_555 1_555
C4 C3 1_555 1_555
H4 C4 1_555 1_555
C5 O1 1_555 1_555
H5 C5 1_555 1_555
C6 C5 1_555 1_555
H6 C6 1_555 1_555
H7 C6 1_555 1_555
C7 N1 1_555 1_555
C8 N2 1_555 1_555
C9 C8 1_555 1_555
H8 C9 1_555 1_555
C10 N1 1_555 1_555
H9 C10 1_555 1_555
C11 N3 1_555 1_555
C12 C11 1_555 1_555
C13 C12 1_555 1_555
H10 C13 1_555 1_555
C14 C13 1_555 1_555
H11 C14 1_555 1_555
C15 C14 1_555 1_555
H12 C15 1_555 1_555
C16 C15 1_555 1_555
H13 C16 1_555 1_555
C17 C12 1_555 1_555
H14 C17 1_555 1_555
C18 O5 1_555 1_555
C19 C18 1_555 1_555
H15 C19 1_555 1_555
H16 C19 1_555 1_555
H17 C19 1_555 1_555
C20 O7 1_555 1_555
C21 C20 1_555 1_555
H18 C21 1_555 1_555
H19 C21 1_555 1_555
H20 C21 1_555 1_555
C22 O9 1_555 1_555
C23 C22 1_555 1_555
H21 C23 1_555 1_555
H22 C23 1_555 1_555
H23 C23 1_555 1_555
C24 O11 1_555 1_555
C25 C24 1_555 1_555
H24 C25 1_555 1_555
H25 C25 1_555 1_555
H26 C25 1_555 1_555
C26 C27 1_555 1_555
H27 N3 1_555 1_555
C4 C5 1_555 1_555
C9 C10 1_555 1_555
C16 C17 1_555 1_555

#END
