
#######################################################################
#
#                 Cambridge Crystallographic Data Centre
#                                CCDC 
#
#######################################################################
#
# If this CIF has been generated from an entry in the Cambridge 
# Structural Database, then it will include bibliographic, chemical, 
# crystal, experimental, refinement or atomic coordinate data resulting 
# from the CCDC's data processing and validation procedures.
#
#######################################################################

data_IQEROM
_chemical_formula_moiety         'C14 H19 N1 O3 S1'
_chemical_name_systematic        
1-(trans-4-Methyl-1-p-tosylpyrrolidin-3-yl)ethanone
_symmetry_cell_setting           monoclinic
_symmetry_space_group_name_H-M   'P 21/c'
_symmetry_Int_Tables_number      14
_space_group_name_Hall           '-P 2ybc'
loop_
_symmetry_equiv_pos_site_id
_symmetry_equiv_pos_as_xyz
1 x,y,z
2 -x,1/2+y,1/2-z
3 -x,-y,-z
4 x,1/2-y,1/2+z
_cell_length_a                   11.2099(9)
_cell_length_b                   13.2975(11)
_cell_length_c                   9.8511(8)
_cell_angle_alpha                90
_cell_angle_beta                 90.7580(10)
_cell_angle_gamma                90
_cell_volume                     1468.31
_exptl_crystal_colour            colorless
_exptl_crystal_description       block
_cell_formula_units_Z            4
loop_
_atom_site_label
_atom_site_type_symbol
_atom_site_fract_x
_atom_site_fract_y
_atom_site_fract_z
S1 S 0.24161(4) 0.46260(4) 0.05844(5)
O1 O -0.02334(17) 0.63145(15) 0.50248(16)
O2 O 0.16256(13) 0.38453(13) 0.01325(16)
O3 O 0.31932(14) 0.51063(16) -0.03493(16)
N1 N 0.15868(13) 0.54957(12) 0.12179(16)
C1 C 0.05493(16) 0.52195(14) 0.20393(19)
H1 H 0.0764 0.4733 0.2735
H2 H -0.0091 0.4948 0.1478
C2 C 0.01990(17) 0.62300(14) 0.26636(18)
H3 H -0.0256 0.6615 0.1984
C3 C 0.13771(18) 0.67555(15) 0.2918(2)
H4 H 0.1744 0.6474 0.3743
C4 C 0.2119(2) 0.64487(16) 0.1714(2)
H5 H 0.2086 0.6960 0.1012
H6 H 0.2946 0.6348 0.1986
C5 C -0.05751(19) 0.60828(15) 0.3901(2)
C6 C -0.1770(2) 0.5623(2) 0.3668(3)
H7 H -0.2178 0.5572 0.4516
H8 H -0.1676 0.4964 0.3285
H9 H -0.2226 0.6035 0.3053
C7 C 0.1286(3) 0.78861(17) 0.3083(3)
H10 H 0.0804 0.8038 0.3855
H11 H 0.0927 0.8173 0.2282
H12 H 0.2069 0.8164 0.3218
C8 C 0.33029(15) 0.41268(15) 0.19201(19)
C9 C 0.44347(17) 0.44968(17) 0.2164(2)
H13 H 0.4748 0.4996 0.1612
C10 C 0.50961(18) 0.41179(19) 0.3237(3)
H14 H 0.5859 0.4368 0.3398
C11 C 0.46606(19) 0.33779(18) 0.4079(2)
C12 C 0.35315(19) 0.30128(17) 0.3798(2)
H15 H 0.3222 0.2507 0.4342
C13 C 0.28540(17) 0.33756(15) 0.2738(2)
H16 H 0.2095 0.3118 0.2570
C14 C 0.5388(3) 0.2991(3) 0.5270(3)
H17 H 0.5470 0.2274 0.5198
H18 H 0.4992 0.3154 0.6099
H19 H 0.6163 0.3297 0.5268
loop_
_geom_bond_atom_site_label_1
_geom_bond_atom_site_label_2
_geom_bond_site_symmetry_1
_geom_bond_site_symmetry_2
S1 O2 1_555 1_555
O1 C5 1_555 1_555
O3 S1 1_555 1_555
N1 S1 1_555 1_555
C1 N1 1_555 1_555
H1 C1 1_555 1_555
H2 C1 1_555 1_555
C2 C1 1_555 1_555
H3 C2 1_555 1_555
C3 C2 1_555 1_555
H4 C3 1_555 1_555
C4 N1 1_555 1_555
H5 C4 1_555 1_555
H6 C4 1_555 1_555
C5 C2 1_555 1_555
C6 C5 1_555 1_555
H7 C6 1_555 1_555
H8 C6 1_555 1_555
H9 C6 1_555 1_555
C7 C3 1_555 1_555
H10 C7 1_555 1_555
H11 C7 1_555 1_555
H12 C7 1_555 1_555
C8 S1 1_555 1_555
C9 C8 1_555 1_555
H13 C9 1_555 1_555
C10 C9 1_555 1_555
H14 C10 1_555 1_555
C11 C10 1_555 1_555
C12 C11 1_555 1_555
H15 C12 1_555 1_555
C13 C8 1_555 1_555
H16 C13 1_555 1_555
C14 C11 1_555 1_555
H17 C14 1_555 1_555
H18 C14 1_555 1_555
H19 C14 1_555 1_555
C3 C4 1_555 1_555
C12 C13 1_555 1_555

#END
