
#######################################################################
#
#                 Cambridge Crystallographic Data Centre
#                                CCDC 
#
#######################################################################
#
# If this CIF has been generated from an entry in the Cambridge 
# Structural Database, then it will include bibliographic, chemical, 
# crystal, experimental, refinement or atomic coordinate data resulting 
# from the CCDC's data processing and validation procedures.
#
#######################################################################

data_IQESII
_chemical_formula_moiety         'C55 H41 N3 O2 S1,C1 H2 Cl2'
_chemical_name_systematic        
"1-(4-t-butylphenyl)-2-(4'-((4-(9H-carbazol-9-yl)phenyl)sulfonyl)biphenyl-4-yl)-1H-phenanthro[9,10-d]imidazole dichloromethane solvate"
_symmetry_cell_setting           triclinic
_symmetry_space_group_name_H-M   'P -1'
_symmetry_Int_Tables_number      2
_space_group_name_Hall           '-P 1'
loop_
_symmetry_equiv_pos_site_id
_symmetry_equiv_pos_as_xyz
1 x,y,z
2 -x,-y,-z
_cell_length_a                   10.1994(3)
_cell_length_b                   10.2834(4)
_cell_length_c                   23.9507(8)
_cell_angle_alpha                84.458(3)
_cell_angle_beta                 79.792(3)
_cell_angle_gamma                72.903(3)
_cell_volume                     2360.4
_exptl_crystal_colour            colorless
_exptl_crystal_description       Block
_cell_formula_units_Z            2
loop_
_atom_site_label
_atom_site_type_symbol
_atom_site_fract_x
_atom_site_fract_y
_atom_site_fract_z
S1 S 0.03137(10) 0.01095(11) 0.24466(4)
O1 O -0.0055(3) 0.1178(4) 0.28390(14)
O2 O -0.0558(3) -0.0782(4) 0.24812(15)
N1 N 0.0470(4) 0.2762(4) 0.01317(16)
N2 N 1.0690(4) -0.6274(4) 0.34093(14)
N3 N 1.1274(3) -0.5674(3) 0.24933(14)
C1 C 0.0442(4) 0.0862(4) 0.17533(18)
C2 C 0.0688(5) 0.2123(4) 0.16603(19)
H1 H 0.0832 0.2550 0.1960
C3 C 0.0721(5) 0.2748(4) 0.1124(2)
H2 H 0.0882 0.3598 0.1060
C4 C 0.0510(4) 0.2095(4) 0.06814(19)
C5 C 0.0310(5) 0.0810(4) 0.07754(19)
H3 H 0.0201 0.0367 0.0474
C6 C 0.0272(4) 0.0192(4) 0.13045(19)
H4 H 0.0134 -0.0669 0.1366
C7 C 0.1454(5) 0.3351(5) -0.0193(2)
C8 C 0.2654(6) 0.3491(6) -0.0049(3)
H5 H 0.2906 0.3223 0.0308
C9 C 0.3472(6) 0.4069(7) -0.0482(4)
H6 H 0.4291 0.4194 -0.0408
C10 C 0.3097(8) 0.4453(7) -0.1009(4)
H7 H 0.3674 0.4819 -0.1283
C11 C 0.1919(7) 0.4313(6) -0.1140(3)
H8 H 0.1677 0.4583 -0.1499
C12 C 0.1074(5) 0.3759(5) -0.0729(2)
C13 C -0.0557(5) 0.2839(4) -0.01998(18)
C14 C -0.0227(5) 0.3461(5) -0.0736(2)
C15 C -0.1147(7) 0.3683(5) -0.1123(2)
H9 H -0.0947 0.4089 -0.1479
C16 C -0.2330(7) 0.3309(6) -0.0981(2)
H10 H -0.2933 0.3452 -0.1245
C17 C -0.2667(6) 0.2710(6) -0.0446(2)
H11 H -0.3494 0.2471 -0.0356
C18 C -0.1780(5) 0.2473(5) -0.0051(2)
H12 H -0.1997 0.2078 0.0307
C19 C 0.2006(4) -0.0911(4) 0.25160(16)
C20 C 0.2935(5) -0.0316(4) 0.2680(2)
H13 H 0.2661 0.0606 0.2752
C21 C 0.4254(5) -0.1096(5) 0.2734(2)
H14 H 0.4874 -0.0697 0.2842
C22 C 0.4683(4) -0.2497(4) 0.26277(17)
C23 C 0.3746(4) -0.3060(4) 0.24651(19)
H15 H 0.4013 -0.3982 0.2394
C24 C 0.2409(4) -0.2272(4) 0.24059(18)
H16 H 0.1790 -0.2664 0.2293
C25 C 0.6109(4) -0.3324(4) 0.27056(18)
C26 C 0.7215(5) -0.2760(5) 0.2585(2)
H17 H 0.7064 -0.1859 0.2448
C27 C 0.8535(5) -0.3520(5) 0.2666(2)
H18 H 0.9262 -0.3123 0.2580
C28 C 0.8795(4) -0.4845(4) 0.28703(17)
C29 C 0.7701(4) -0.5421(5) 0.2980(2)
H19 H 0.7859 -0.6328 0.3110
C30 C 0.6389(4) -0.4669(4) 0.2901(2)
H20 H 0.5669 -0.5075 0.2981
C31 C 1.0243(4) -0.5597(4) 0.29191(17)
C32 C 1.2440(4) -0.6440(4) 0.27077(19)
C33 C 1.2135(4) -0.6799(4) 0.32688(19)
C34 C 1.3197(5) -0.7513(5) 0.3607(2)
C35 C 1.2921(7) -0.7772(7) 0.4197(3)
H21 H 1.2013 -0.7530 0.4389
C36 C 1.4043(10) -0.8408(9) 0.4495(4)
H22 H 1.3890 -0.8571 0.4887
C37 C 1.5397(9) -0.8788(10) 0.4184(5)
H23 H 1.6137 -0.9235 0.4373
C38 C 1.5642(7) -0.8528(8) 0.3635(4)
H24 H 1.6555 -0.8784 0.3450
C39 C 1.4575(5) -0.7873(5) 0.3308(3)
C40 C 1.3818(4) -0.6873(4) 0.2394(2)
C41 C 1.4091(5) -0.6635(5) 0.1811(2)
H25 H 1.3372 -0.6150 0.1616
C42 C 1.5412(6) -0.7109(6) 0.1516(3)
H26 H 1.5586 -0.6957 0.1125
C43 C 1.6473(6) -0.7813(7) 0.1809(4)
H27 H 1.7369 -0.8123 0.1612
C44 C 1.6236(5) -0.8058(6) 0.2376(4)
H28 H 1.6976 -0.8532 0.2562
C45 C 1.4886(5) -0.7612(5) 0.2697(3)
C46 C 0.9822(5) -0.6447(5) 0.39349(18)
C47 C 0.9220(6) -0.5369(6) 0.4279(2)
H29 H 0.9348 -0.4518 0.4168
C48 C 0.8412(8) -0.5565(7) 0.4797(2)
H30 H 0.7996 -0.4828 0.5027
C49 C 0.8212(7) -0.6789(7) 0.4978(2)
C50 C 0.8824(7) -0.7854(6) 0.4617(2)
H31 H 0.8698 -0.8707 0.4727
C51 C 0.9619(6) -0.7684(5) 0.4095(2)
H32 H 1.0007 -0.8410 0.3858
C52 C 0.7359(10) -0.7014(9) 0.5569(3)
C53 C 0.715(3) -0.8327(16) 0.5682(9)
H33 H 0.6617 -0.8367 0.6054
H34 H 0.8029 -0.9005 0.5665
H35 H 0.6650 -0.8493 0.5404
C54 C 0.780(2) -0.637(2) 0.5978(7)
H36 H 0.7288 -0.6485 0.6347
H37 H 0.7629 -0.5413 0.5876
H38 H 0.8773 -0.6771 0.5984
C55 C 0.5964(16) -0.616(3) 0.5539(10)
H39 H 0.5378 -0.6244 0.5893
H40 H 0.5613 -0.6441 0.5239
H41 H 0.5976 -0.5229 0.5465
Cl1 Cl 0.6851(4) -0.0112(3) 0.0650(2)
Cl2 Cl 0.4065(3) -0.0180(5) 0.10723(17)
C59 C 0.5733(10) -0.0686(10) 0.1141(5)
H49 H 0.6039 -0.1271 0.1442
H50 H 0.5586 0.0116 0.1360
C56? C 0.704(2) -0.598(2) 0.5956(8)
H42? H 0.6517 -0.6235 0.6302
H43? H 0.6501 -0.5147 0.5795
H44? H 0.7885 -0.5858 0.6035
C57? C 0.633(2) -0.765(3) 0.5556(9)
H45? H 0.6172 -0.7854 0.5191
H46? H 0.5530 -0.7481 0.5854
C58? C 0.799(3) -0.8382(16) 0.5749(11)
H47? H 0.8062 -0.8586 0.6148
H48? H 0.8704 -0.8959 0.5484
loop_
_geom_bond_atom_site_label_1
_geom_bond_atom_site_label_2
_geom_bond_site_symmetry_1
_geom_bond_site_symmetry_2
S1 O1 1_555 1_555
O2 S1 1_555 1_555
N1 C4 1_555 1_555
N2 C31 1_555 1_555
N3 C31 1_555 1_555
C1 S1 1_555 1_555
C2 C1 1_555 1_555
H1 C2 1_555 1_555
C3 C2 1_555 1_555
H2 C3 1_555 1_555
C4 C3 1_555 1_555
C5 C4 1_555 1_555
H3 C5 1_555 1_555
C6 C1 1_555 1_555
H4 C6 1_555 1_555
C7 N1 1_555 1_555
C8 C7 1_555 1_555
H5 C8 1_555 1_555
C9 C8 1_555 1_555
H6 C9 1_555 1_555
C10 C9 1_555 1_555
H7 C10 1_555 1_555
C11 C10 1_555 1_555
H8 C11 1_555 1_555
C12 C7 1_555 1_555
C13 N1 1_555 1_555
C14 C12 1_555 1_555
C15 C14 1_555 1_555
H9 C15 1_555 1_555
C16 C15 1_555 1_555
H10 C16 1_555 1_555
C17 C16 1_555 1_555
H11 C17 1_555 1_555
C18 C13 1_555 1_555
H12 C18 1_555 1_555
C19 S1 1_555 1_555
C20 C19 1_555 1_555
H13 C20 1_555 1_555
C21 C20 1_555 1_555
H14 C21 1_555 1_555
C22 C21 1_555 1_555
C23 C22 1_555 1_555
H15 C23 1_555 1_555
C24 C19 1_555 1_555
H16 C24 1_555 1_555
C25 C22 1_555 1_555
C26 C25 1_555 1_555
H17 C26 1_555 1_555
C27 C26 1_555 1_555
H18 C27 1_555 1_555
C28 C27 1_555 1_555
C29 C28 1_555 1_555
H19 C29 1_555 1_555
C30 C25 1_555 1_555
H20 C30 1_555 1_555
C31 C28 1_555 1_555
C32 N3 1_555 1_555
C33 N2 1_555 1_555
C34 C33 1_555 1_555
C35 C34 1_555 1_555
H21 C35 1_555 1_555
C36 C35 1_555 1_555
H22 C36 1_555 1_555
C37 C36 1_555 1_555
H23 C37 1_555 1_555
C38 C37 1_555 1_555
H24 C38 1_555 1_555
C39 C34 1_555 1_555
C40 C32 1_555 1_555
C41 C40 1_555 1_555
H25 C41 1_555 1_555
C42 C41 1_555 1_555
H26 C42 1_555 1_555
C43 C42 1_555 1_555
H27 C43 1_555 1_555
C44 C43 1_555 1_555
H28 C44 1_555 1_555
C45 C39 1_555 1_555
C46 N2 1_555 1_555
C47 C46 1_555 1_555
H29 C47 1_555 1_555
C48 C47 1_555 1_555
H30 C48 1_555 1_555
C49 C48 1_555 1_555
C50 C49 1_555 1_555
H31 C50 1_555 1_555
C51 C46 1_555 1_555
H32 C51 1_555 1_555
C52 C49 1_555 1_555
C53 C52 1_555 1_555
H33 C53 1_555 1_555
H34 C53 1_555 1_555
H35 C53 1_555 1_555
C54 C52 1_555 1_555
H36 C54 1_555 1_555
H37 C54 1_555 1_555
H38 C54 1_555 1_555
C55 C52 1_555 1_555
H39 C55 1_555 1_555
H40 C55 1_555 1_555
H41 C55 1_555 1_555
Cl1 C59 1_555 1_555
Cl2 C59 1_555 1_555
C59 H49 1_555 1_555
H50 C59 1_555 1_555
C5 C6 1_555 1_555
C11 C12 1_555 1_555
C13 C14 1_555 1_555
C17 C18 1_555 1_555
C23 C24 1_555 1_555
C29 C30 1_555 1_555
C32 C33 1_555 1_555
C38 C39 1_555 1_555
C40 C45 1_555 1_555
C44 C45 1_555 1_555
C50 C51 1_555 1_555

#END
