
#######################################################################
#
#                 Cambridge Crystallographic Data Centre
#                                CCDC 
#
#######################################################################
#
# If this CIF has been generated from an entry in the Cambridge 
# Structural Database, then it will include bibliographic, chemical, 
# crystal, experimental, refinement or atomic coordinate data resulting 
# from the CCDC's data processing and validation procedures.
#
#######################################################################

data_IQETUV
_chemical_formula_moiety         'C30 H22 F3 N1 O2'
_chemical_name_systematic        
6-methoxy-1-(4-methoxyphenyl)-4-phenyl-3-(4-(trifluoromethyl)phenyl)isoquinoline
_symmetry_cell_setting           triclinic
_symmetry_space_group_name_H-M   'P -1'
_symmetry_Int_Tables_number      2
_space_group_name_Hall           '-P 1'
loop_
_symmetry_equiv_pos_site_id
_symmetry_equiv_pos_as_xyz
1 x,y,z
2 -x,-y,-z
_cell_length_a                   8.959(2)
_cell_length_b                   10.483(2)
_cell_length_c                   13.867(3)
_cell_angle_alpha                77.615(3)
_cell_angle_beta                 85.443(3)
_cell_angle_gamma                71.589(3)
_cell_volume                     1206.84
_exptl_crystal_colour            colorless
_exptl_crystal_description       block
_cell_formula_units_Z            2
loop_
_atom_site_label
_atom_site_type_symbol
_atom_site_fract_x
_atom_site_fract_y
_atom_site_fract_z
F1 F 0.3173(4) 0.2354(2) 0.59936(14)
F2 F 0.1448(3) 0.4196(3) 0.54746(16)
F3 F 0.3784(3) 0.4024(3) 0.51727(15)
N1 N 0.3009(2) 0.25494(17) 0.07629(13)
O1 O 0.3939(2) 0.67608(19) -0.29942(13)
O2 O 0.1917(2) -0.23232(17) -0.08960(13)
C1 C 0.2767(3) 0.3336(3) 0.52311(19)
C2 C 0.2681(3) 0.2874(2) 0.42979(16)
C3 C 0.1950(3) 0.3808(2) 0.34765(17)
H1 H 0.1455 0.4720 0.3517
C4 C 0.1955(3) 0.3388(2) 0.25994(17)
H2 H 0.1463 0.4024 0.2052
C5 C 0.2681(3) 0.2030(2) 0.25170(15)
C6 C 0.3400(3) 0.1101(2) 0.33506(18)
H3 H 0.3891 0.0187 0.3315
C7 C 0.3391(3) 0.1523(3) 0.42324(18)
H4 H 0.3869 0.0889 0.4784
C8 C 0.1127(4) -0.2224(3) 0.3936(2)
H5 H 0.0857 -0.2801 0.4482
C9 C 0.0131(4) -0.0908(3) 0.3630(2)
H6 H -0.0807 -0.0602 0.3971
C10 C 0.0529(3) -0.0047(3) 0.28182(19)
H7 H -0.0148 0.0837 0.2615
C11 C 0.1926(3) -0.0488(2) 0.23044(16)
C12 C 0.2909(3) -0.1824(2) 0.26204(18)
H8 H 0.3844 -0.2141 0.2279
C13 C 0.2515(4) -0.2680(3) 0.3433(2)
H9 H 0.3186 -0.3564 0.3640
C14 C 0.2477(2) 0.0153(2) 0.04764(16)
C15 C 0.2377(2) 0.0449(2) 0.14441(16)
C16 C 0.2697(2) 0.1622(2) 0.15451(15)
C17 C 0.2937(2) 0.1053(2) -0.03256(15)
C18 C 0.3119(2) 0.2283(2) -0.01392(15)
C19 C 0.3185(3) 0.0676(2) -0.12672(17)
H10 H 0.3561 0.1214 -0.1790
C20 C 0.2879(3) -0.0460(2) -0.14128(18)
H11 H 0.3068 -0.0701 -0.2029
C21 C 0.2274(3) -0.1273(2) -0.06334(18)
C22 C 0.2100(3) -0.0994(2) 0.02942(17)
H12 H 0.1734 -0.1555 0.0808
C23 C 0.1277(3) -0.3187(3) -0.0163(2)
H13 H 0.2025 -0.3646 0.0356
H14 H 0.1048 -0.3856 -0.0453
H15 H 0.0327 -0.2643 0.0105
C24 C 0.3369(2) 0.3395(2) -0.09431(15)
C25 C 0.4473(3) 0.4042(2) -0.08334(16)
H16 H 0.5100 0.3726 -0.0275
C26 C 0.4656(3) 0.5136(2) -0.15319(17)
H17 H 0.5414 0.5538 -0.1449
C27 C 0.3710(3) 0.5641(2) -0.23610(16)
C28 C 0.2449(3) 0.3903(2) -0.17877(17)
H18 H 0.1713 0.3486 -0.1883
C29 C 0.2606(3) 0.5017(2) -0.24893(17)
H19 H 0.1973 0.5345 -0.3044
C30 C 0.3004(4) 0.7299(3) -0.3853(2)
H20 H 0.3207 0.6612 -0.4248
H21 H 0.3260 0.8087 -0.4227
H22 H 0.1912 0.7561 -0.3664
loop_
_geom_bond_atom_site_label_1
_geom_bond_atom_site_label_2
_geom_bond_site_symmetry_1
_geom_bond_site_symmetry_2
F1 C1 1_555 1_555
F2 C1 1_555 1_555
F3 C1 1_555 1_555
N1 C16 1_555 1_555
O1 C27 1_555 1_555
O2 C21 1_555 1_555
C1 C2 1_555 1_555
C2 C3 1_555 1_555
C3 H1 1_555 1_555
C4 C3 1_555 1_555
H2 C4 1_555 1_555
C5 C4 1_555 1_555
C6 C5 1_555 1_555
H3 C6 1_555 1_555
C7 C2 1_555 1_555
H4 C7 1_555 1_555
C8 H5 1_555 1_555
C9 C8 1_555 1_555
H6 C9 1_555 1_555
C10 C9 1_555 1_555
H7 C10 1_555 1_555
C11 C10 1_555 1_555
C12 C11 1_555 1_555
H8 C12 1_555 1_555
C13 C8 1_555 1_555
H9 C13 1_555 1_555
C14 C15 1_555 1_555
C15 C11 1_555 1_555
C16 C5 1_555 1_555
C17 C14 1_555 1_555
C18 N1 1_555 1_555
C19 C17 1_555 1_555
H10 C19 1_555 1_555
C20 C19 1_555 1_555
H11 C20 1_555 1_555
C21 C20 1_555 1_555
C22 C14 1_555 1_555
H12 C22 1_555 1_555
C23 O2 1_555 1_555
H13 C23 1_555 1_555
H14 C23 1_555 1_555
H15 C23 1_555 1_555
C24 C18 1_555 1_555
C25 C24 1_555 1_555
H16 C25 1_555 1_555
C26 C25 1_555 1_555
H17 C26 1_555 1_555
C27 C26 1_555 1_555
C28 C24 1_555 1_555
H18 C28 1_555 1_555
C29 C27 1_555 1_555
H19 C29 1_555 1_555
C30 O1 1_555 1_555
H20 C30 1_555 1_555
H21 C30 1_555 1_555
H22 C30 1_555 1_555
C6 C7 1_555 1_555
C12 C13 1_555 1_555
C15 C16 1_555 1_555
C17 C18 1_555 1_555
C21 C22 1_555 1_555
C28 C29 1_555 1_555

#END
