
#######################################################################
#
#                 Cambridge Crystallographic Data Centre
#                                CCDC 
#
#######################################################################
#
# If this CIF has been generated from an entry in the Cambridge 
# Structural Database, then it will include bibliographic, chemical, 
# crystal, experimental, refinement or atomic coordinate data resulting 
# from the CCDC's data processing and validation procedures.
#
#######################################################################

data_IQEWIM
_chemical_formula_moiety         'C27 H21 F4 N3 O4'
_chemical_name_systematic        
5'-fluoro-1-(4-methoxyphenyl)-7,7-dimethyl-3-(trifluoromethyl)-7,8-dihydro-1H-spiro[chromeno[2,3-c]pyrazole-4,3'-indole]-2',5(1'H,6H)-dione
_symmetry_cell_setting           triclinic
_symmetry_space_group_name_H-M   'P -1'
_symmetry_Int_Tables_number      2
_space_group_name_Hall           '-P 1'
loop_
_symmetry_equiv_pos_site_id
_symmetry_equiv_pos_as_xyz
1 x,y,z
2 -x,-y,-z
_cell_length_a                   10.3703(4)
_cell_length_b                   11.2328(5)
_cell_length_c                   11.2911(5)
_cell_angle_alpha                83.9630(10)
_cell_angle_beta                 76.7590(10)
_cell_angle_gamma                72.0160(10)
_cell_volume                     1216.91
_exptl_crystal_colour            colorless
_exptl_crystal_description       block
_cell_formula_units_Z            2
loop_
_atom_site_label
_atom_site_type_symbol
_atom_site_fract_x
_atom_site_fract_y
_atom_site_fract_z
O1 O 0.30613(14) 0.98253(13) 0.90995(11)
O2 O 0.57565(14) 1.10269(13) 0.74252(12)
O3 O 0.10199(15) 1.71631(14) 0.17137(12)
O4 O 0.25567(15) 1.26756(11) 0.57356(11)
F1 F 0.4339(2) 1.59697(14) 0.81893(14)
F2 F 0.27799(16) 1.53678(16) 0.94274(14)
F3 F 0.47903(14) 1.41416(12) 0.90069(11)
F4 F -0.03755(16) 1.35663(18) 1.18636(13)
N1 N 0.29280(17) 1.46383(13) 0.57730(13)
N2 N 0.49015(16) 1.14050(14) 0.94576(14)
H1 H 0.5657 1.1082 0.9718
N3 N 0.33004(17) 1.52880(13) 0.65269(13)
C1 C 0.1568(2) 1.4913(2) 0.4202(2)
H2 H 0.1236 1.4252 0.4561
C2 C 0.1109(2) 1.5560(2) 0.3203(2)
H3 H 0.0469 1.5333 0.2887
C3 C 0.1592(2) 1.65421(18) 0.26688(16)
C4 C 0.2555(2) 1.68558(18) 0.31300(16)
H4 H 0.2896 1.7512 0.2769
C5 C 0.3017(2) 1.61979(17) 0.41292(16)
H5 H 0.3674 1.6410 0.4434
C6 C 0.2520(2) 1.52383(17) 0.46753(16)
C7 C 0.3494(2) 1.45320(16) 0.74916(16)
C8 C 0.32564(19) 1.33766(16) 0.74023(15)
C9 C 0.2906(2) 1.35054(16) 0.62957(16)
C10 C 0.2437(2) 1.16230(16) 0.64484(16)
C11 C 0.1910(2) 1.08348(17) 0.58060(18)
H6 H 0.2323 1.0857 0.4944
H7 H 0.0915 1.1191 0.5896
C12 C 0.2226(2) 0.94679(17) 0.62796(16)
C13 C 0.1879(2) 0.94689(18) 0.76695(16)
H8 H 0.0885 0.9822 0.7942
H9 H 0.2132 0.8610 0.7986
C14 C 0.25995(19) 1.01940(17) 0.81857(15)
C15 C 0.27332(19) 1.13844(16) 0.75593(15)
C16 C 0.33089(19) 1.21935(16) 0.81817(15)
C17 C 0.4827(2) 1.14577(17) 0.82750(17)
C18 C 0.3611(2) 1.19348(17) 1.02153(16)
C19 C 0.3280(3) 1.1976(2) 1.14607(18)
H10 H 0.3952 1.1641 1.1924
C20 C 0.1920(3) 1.2530(2) 1.20027(19)
H11 H 0.1658 1.2574 1.2845
C21 C 0.0955(3) 1.3015(2) 1.1295(2)
C22 C 0.1262(2) 1.29775(19) 1.00455(18)
H12 H 0.0585 1.3314 0.9587
C23 C 0.2612(2) 1.24205(16) 0.95114(15)
C24 C 0.3858(2) 1.50094(19) 0.85141(19)
C25 C 0.1315(3) 0.8838(2) 0.5841(2)
H13 H 0.1509 0.7982 0.6139
H14 H 0.1508 0.8864 0.4967
H15 H 0.0357 0.9273 0.6141
C26 C 0.3752(2) 0.8776(2) 0.58389(19)
H16 H 0.3938 0.7924 0.6150
H17 H 0.4310 0.9179 0.6124
H18 H 0.3970 0.8787 0.4965
C27 C 0.1663(2) 1.8012(2) 0.09841(19)
H19 H 0.1163 1.8384 0.0354
H20 H 0.2601 1.7572 0.0623
H21 H 0.1660 1.8656 0.1481
loop_
_geom_bond_atom_site_label_1
_geom_bond_atom_site_label_2
_geom_bond_site_symmetry_1
_geom_bond_site_symmetry_2
O1 C14 1_555 1_555
O2 C17 1_555 1_555
O3 C3 1_555 1_555
O4 C9 1_555 1_555
F1 C24 1_555 1_555
F2 C24 1_555 1_555
F3 C24 1_555 1_555
F4 C21 1_555 1_555
N1 N3 1_555 1_555
N2 H1 1_555 1_555
N3 C7 1_555 1_555
C1 H2 1_555 1_555
C2 C1 1_555 1_555
H3 C2 1_555 1_555
C3 C2 1_555 1_555
C4 C3 1_555 1_555
H4 C4 1_555 1_555
C5 C4 1_555 1_555
H5 C5 1_555 1_555
C6 N1 1_555 1_555
C7 C8 1_555 1_555
C8 C9 1_555 1_555
C9 N1 1_555 1_555
C10 O4 1_555 1_555
C11 C10 1_555 1_555
H6 C11 1_555 1_555
H7 C11 1_555 1_555
C12 C11 1_555 1_555
C13 C12 1_555 1_555
H8 C13 1_555 1_555
H9 C13 1_555 1_555
C14 C13 1_555 1_555
C15 C10 1_555 1_555
C16 C8 1_555 1_555
C17 N2 1_555 1_555
C18 N2 1_555 1_555
C19 C18 1_555 1_555
H10 C19 1_555 1_555
C20 C19 1_555 1_555
H11 C20 1_555 1_555
C21 C20 1_555 1_555
C22 C21 1_555 1_555
H12 C22 1_555 1_555
C23 C16 1_555 1_555
C24 C7 1_555 1_555
C25 C12 1_555 1_555
H13 C25 1_555 1_555
H14 C25 1_555 1_555
H15 C25 1_555 1_555
C26 C12 1_555 1_555
H16 C26 1_555 1_555
H17 C26 1_555 1_555
H18 C26 1_555 1_555
C27 O3 1_555 1_555
H19 C27 1_555 1_555
H20 C27 1_555 1_555
H21 C27 1_555 1_555
C1 C6 1_555 1_555
C5 C6 1_555 1_555
C14 C15 1_555 1_555
C15 C16 1_555 1_555
C16 C17 1_555 1_555
C18 C23 1_555 1_555
C22 C23 1_555 1_555

#END
