
#######################################################################
#
#                 Cambridge Crystallographic Data Centre
#                                CCDC 
#
#######################################################################
#
# If this CIF has been generated from an entry in the Cambridge 
# Structural Database, then it will include bibliographic, chemical, 
# crystal, experimental, refinement or atomic coordinate data resulting 
# from the CCDC's data processing and validation procedures.
#
#######################################################################

data_IQEWAE
_chemical_formula_moiety         'C14 H15 N1 O2'
_chemical_name_systematic        2-(butylamino)-1,4-naphthoquinone
_symmetry_cell_setting           triclinic
_symmetry_space_group_name_H-M   'P -1'
_symmetry_Int_Tables_number      2
_space_group_name_Hall           '-P 1'
loop_
_symmetry_equiv_pos_site_id
_symmetry_equiv_pos_as_xyz
1 x,y,z
2 -x,-y,-z
_cell_length_a                   8.0059(2)
_cell_length_b                   9.0734(3)
_cell_length_c                   9.2039(3)
_cell_angle_alpha                81.740(2)
_cell_angle_beta                 71.3360(10)
_cell_angle_gamma                67.9180(10)
_cell_volume                     586.747
_exptl_crystal_colour            red
_exptl_crystal_description       block
_cell_formula_units_Z            2
loop_
_atom_site_label
_atom_site_type_symbol
_atom_site_fract_x
_atom_site_fract_y
_atom_site_fract_z
O1 O 0.7672(4) 0.5923(4) 0.0480(4)
O2 O 0.2752(4) 0.3830(4) 0.4849(4)
N1 N 0.9036(5) 0.3414(4) 0.2203(4)
H1 H 0.9737 0.3807 0.1466
C1 C 0.6508(6) 0.5436(5) 0.1426(5)
C2 C 0.7167(6) 0.4057(5) 0.2469(5)
C3 C 0.5883(6) 0.3567(5) 0.3581(5)
H2 H 0.6316 0.2725 0.4231
C4 C 0.3896(6) 0.4280(5) 0.3803(5)
C5 C 0.1305(6) 0.6256(6) 0.2840(5)
H3 H 0.0448 0.5894 0.3601
C6 C 0.0684(6) 0.7460(6) 0.1821(6)
H4 H -0.0593 0.7900 0.1896
C7 C 0.1936(7) 0.8011(6) 0.0701(6)
H5 H 0.1505 0.8827 0.0027
C8 C 0.3838(6) 0.7353(5) 0.0575(6)
H6 H 0.4686 0.7724 -0.0187
C9 C 0.4483(6) 0.6142(5) 0.1583(5)
C10 C 0.3213(6) 0.5591(5) 0.2723(5)
C11 C 0.9932(6) 0.2083(5) 0.3103(5)
H7 H 0.9515 0.1211 0.3093
H8 H 0.9547 0.2397 0.4158
C12 C 1.2045(6) 0.1525(5) 0.2498(5)
H9 H 1.2456 0.2412 0.2460
H10 H 1.2432 0.1164 0.1459
C13 C 1.2997(6) 0.0185(6) 0.3477(6)
H11 H 1.2601 -0.0708 0.3500
H12 H 1.2592 0.0540 0.4520
C14 C 1.5141(6) -0.0367(6) 0.2884(6)
H13 H 1.5550 -0.0713 0.1849
H14 H 1.5677 -0.1234 0.3521
H15 H 1.5545 0.0497 0.2908
loop_
_geom_bond_atom_site_label_1
_geom_bond_atom_site_label_2
_geom_bond_site_symmetry_1
_geom_bond_site_symmetry_2
O1 C1 1_555 1_555
O2 C4 1_555 1_555
N1 H1 1_555 1_555
C1 C2 1_555 1_555
C2 N1 1_555 1_555
C3 C2 1_555 1_555
H2 C3 1_555 1_555
C4 C3 1_555 1_555
C5 H3 1_555 1_555
C6 C5 1_555 1_555
H4 C6 1_555 1_555
C7 C6 1_555 1_555
H5 C7 1_555 1_555
C8 C7 1_555 1_555
H6 C8 1_555 1_555
C9 C1 1_555 1_555
C10 C4 1_555 1_555
C11 N1 1_555 1_555
H7 C11 1_555 1_555
H8 C11 1_555 1_555
C12 C11 1_555 1_555
H9 C12 1_555 1_555
H10 C12 1_555 1_555
C13 C12 1_555 1_555
H11 C13 1_555 1_555
H12 C13 1_555 1_555
C14 C13 1_555 1_555
H13 C14 1_555 1_555
H14 C14 1_555 1_555
H15 C14 1_555 1_555
C5 C10 1_555 1_555
C8 C9 1_555 1_555
C9 C10 1_555 1_555

#END
