
#######################################################################
#
#                 Cambridge Crystallographic Data Centre
#                                CCDC 
#
#######################################################################
#
# If this CIF has been generated from an entry in the Cambridge 
# Structural Database, then it will include bibliographic, chemical, 
# crystal, experimental, refinement or atomic coordinate data resulting 
# from the CCDC's data processing and validation procedures.
#
#######################################################################

data_IQEXIN
_chemical_compound_source        
'isolated from Penicillium simplicissimum MA-332, a fungus derived from the rhizosphere of the marine mangrove plant Bruguiera sexangula var. rhynchopetala'
_chemical_name_common            'Penicisimpin A'
_chemical_formula_moiety         'C15 H20 O4'
_chemical_name_systematic        
6,8-dihydroxy-7-methyl-3-pentyl-3,4-dihydro-1H-isochromen-1-one
_chemical_properties_biological  
'brine shrimp (Artemia salina) lethality as well as broad-spectrum antimicrobial activities'
_symmetry_cell_setting           triclinic
_symmetry_space_group_name_H-M   'P 1'
_symmetry_Int_Tables_number      1
_space_group_name_Hall           'P 1'
loop_
_symmetry_equiv_pos_site_id
_symmetry_equiv_pos_as_xyz
1 x,y,z
_cell_length_a                   4.9852(5)
_cell_length_b                   10.7280(11)
_cell_length_c                   14.697(3)
_cell_angle_alpha                107.479(2)
_cell_angle_beta                 91.6190(10)
_cell_angle_gamma                99.11
_cell_volume                     737.862
_cell_formula_units_Z            2
loop_
_atom_site_label
_atom_site_type_symbol
_atom_site_fract_x
_atom_site_fract_y
_atom_site_fract_z
O1 O 0.9118(16) 0.3253(8) 0.7591(7)
O2 O 0.9577(18) 0.1531(8) 0.6387(7)
O3 O 0.7670(18) 0.1171(7) 0.4654(7)
H1 H 0.8672 0.1072 0.5070
O4 O 0.1442(18) 0.3849(9) 0.4244(6)
H2 H 0.0761 0.4489 0.4531
C1 C 0.855(2) 0.2549(11) 0.6685(10)
C2 C 0.670(3) 0.2865(12) 0.6042(10)
C3 C 0.634(2) 0.2200(11) 0.5050(9)
C4 C 0.455(3) 0.2506(13) 0.4451(10)
C5 C 0.315(2) 0.3551(10) 0.4876(9)
C6 C 0.349(2) 0.4216(11) 0.5804(10)
H3 H 0.2561 0.4919 0.6037
C7 C 0.517(2) 0.3909(10) 0.6436(9)
C8 C 0.561(2) 0.4555(12) 0.7475(9)
H4 H 0.4344 0.4074 0.7793
H5 H 0.5239 0.5452 0.7625
C9 C 0.847(2) 0.4601(10) 0.7848(9)
H6 H 0.9743 0.5147 0.7566
C10 C 0.897(3) 0.5124(13) 0.8932(10)
H7 H 1.0774 0.5006 0.9117
H8 H 0.7652 0.4612 0.9212
C11 C 0.875(4) 0.6585(15) 0.9325(12)
H9 H 0.6885 0.6682 0.9209
H10 H 0.9891 0.7076 0.8979
C12 C 0.960(5) 0.7194(18) 1.0393(14)
H11 H 1.1495 0.7133 1.0510
H12 H 0.8507 0.6693 1.0742
C13 C 0.926(5) 0.865(2) 1.0763(18)
H13 H 1.0584 0.9174 1.0493
H14 H 0.7458 0.8729 1.0549
C14 C 0.964(7) 0.919(4) 1.184(3)
H15 H 0.8545 0.8597 1.2114
H16 H 0.9084 1.0046 1.2047
H17 H 1.1521 0.9286 1.2050
C15 C 0.425(3) 0.1826(14) 0.3431(10)
H18 H 0.5617 0.2258 0.3124
H19 H 0.2477 0.1852 0.3176
H20 H 0.4472 0.0920 0.3316
O5 O 0.7015(18) 0.6191(8) 0.3967(7)
O6 O 0.9293(17) 0.6018(8) 0.5200(7)
O7 O 0.8456(18) 0.7278(8) 0.6926(7)
H21 H 0.9003 0.6712 0.6497
O8 O 0.2941(19) 1.0531(9) 0.7383(7)
H22 H 0.2023 1.0877 0.7090
C16 C 0.762(3) 0.6570(11) 0.4911(11)
C17 C 0.641(3) 0.7608(13) 0.5547(11)
C18 C 0.681(2) 0.7923(11) 0.6535(10)
C19 C 0.569(3) 0.8893(13) 0.7162(9)
C20 C 0.404(3) 0.9577(13) 0.6752(10)
C21 C 0.362(2) 0.9252(11) 0.5756(9)
H23 H 0.2516 0.9706 0.5502
C22 C 0.474(2) 0.8330(11) 0.5166(8)
C23 C 0.446(3) 0.7986(11) 0.4106(9)
H24 H 0.5935 0.8513 0.3896
H25 H 0.2753 0.8189 0.3906
C24 C 0.452(3) 0.6523(13) 0.3646(10)
H26 H 0.2958 0.5996 0.3826
C25 C 0.445(4) 0.6142(14) 0.2556(11)
H27 H 0.6119 0.6571 0.2373
H28 H 0.2933 0.6447 0.2314
C26 C 0.415(4) 0.4638(18) 0.2116(14)
H29 H 0.5822 0.4363 0.2274
H30 H 0.2689 0.4213 0.2400
C27 C 0.356(5) 0.416(2) 0.1043(15)
H31 H 0.5102 0.4511 0.0748
H32 H 0.1979 0.4491 0.0874
C28 C 0.304(6) 0.264(2) 0.0667(19)
H33 H 0.4506 0.2308 0.0918
H34 H 0.1352 0.2296 0.0891
C29 C 0.285(8) 0.214(3) -0.042(2)
H35 H 0.1788 0.2656 -0.0665
H36 H 0.2005 0.1226 -0.0636
H37 H 0.4652 0.2236 -0.0632
C30 C 0.619(4) 0.9231(15) 0.8225(11)
H38 H 0.4483 0.9179 0.8507
H39 H 0.7213 1.0116 0.8479
H40 H 0.7211 0.8616 0.8369
loop_
_geom_bond_atom_site_label_1
_geom_bond_atom_site_label_2
_geom_bond_site_symmetry_1
_geom_bond_site_symmetry_2
O1 C1 1_555 1_555
O2 C1 1_555 1_555
O3 H1 1_555 1_555
O4 H2 1_555 1_555
C1 C2 1_555 1_555
C2 C3 1_555 1_555
C3 O3 1_555 1_555
C4 C3 1_555 1_555
C5 O4 1_555 1_555
C6 C5 1_555 1_555
H3 C6 1_555 1_555
C7 C2 1_555 1_555
C8 C7 1_555 1_555
H4 C8 1_555 1_555
H5 C8 1_555 1_555
C9 O1 1_555 1_555
H6 C9 1_555 1_555
C10 C9 1_555 1_555
H7 C10 1_555 1_555
H8 C10 1_555 1_555
C11 C10 1_555 1_555
H9 C11 1_555 1_555
H10 C11 1_555 1_555
C12 C11 1_555 1_555
H11 C12 1_555 1_555
H12 C12 1_555 1_555
C13 C12 1_555 1_555
H13 C13 1_555 1_555
H14 C13 1_555 1_555
C14 C13 1_555 1_555
H15 C14 1_555 1_555
H16 C14 1_555 1_555
H17 C14 1_555 1_555
C15 C4 1_555 1_555
H18 C15 1_555 1_555
H19 C15 1_555 1_555
H20 C15 1_555 1_555
O5 C16 1_555 1_555
O6 C16 1_555 1_555
O7 H21 1_555 1_555
O8 H22 1_555 1_555
C16 C17 1_555 1_555
C17 C18 1_555 1_555
C18 O7 1_555 1_555
C19 C18 1_555 1_555
C20 O8 1_555 1_555
C21 C20 1_555 1_555
H23 C21 1_555 1_555
C22 C17 1_555 1_555
C23 C22 1_555 1_555
H24 C23 1_555 1_555
H25 C23 1_555 1_555
C24 O5 1_555 1_555
H26 C24 1_555 1_555
C25 C24 1_555 1_555
H27 C25 1_555 1_555
H28 C25 1_555 1_555
C26 C25 1_555 1_555
H29 C26 1_555 1_555
H30 C26 1_555 1_555
C27 C26 1_555 1_555
H31 C27 1_555 1_555
H32 C27 1_555 1_555
C28 C27 1_555 1_555
H33 C28 1_555 1_555
H34 C28 1_555 1_555
C29 C28 1_555 1_555
H35 C29 1_555 1_555
H36 C29 1_555 1_555
H37 C29 1_555 1_555
C30 C19 1_555 1_555
H38 C30 1_555 1_555
H39 C30 1_555 1_555
H40 C30 1_555 1_555
C4 C5 1_555 1_555
C6 C7 1_555 1_555
C8 C9 1_555 1_555
C19 C20 1_555 1_555
C21 C22 1_555 1_555
C23 C24 1_555 1_555

#END
