
#######################################################################
#
#                 Cambridge Crystallographic Data Centre
#                                CCDC 
#
#######################################################################
#
# If this CIF has been generated from an entry in the Cambridge 
# Structural Database, then it will include bibliographic, chemical, 
# crystal, experimental, refinement or atomic coordinate data resulting 
# from the CCDC's data processing and validation procedures.
#
#######################################################################

data_IQEZUA
_chemical_formula_moiety         'C13 H22 O2'
_chemical_name_systematic        
9-Methyltricyclo[6.2.2.0^1,6^]dodecane-4,9-diol
_symmetry_cell_setting           monoclinic
_symmetry_space_group_name_H-M   'P 21/c'
_symmetry_Int_Tables_number      14
_space_group_name_Hall           '-P 2ybc'
loop_
_symmetry_equiv_pos_site_id
_symmetry_equiv_pos_as_xyz
1 x,y,z
2 -x,1/2+y,1/2-z
3 -x,-y,-z
4 x,1/2-y,1/2+z
_cell_length_a                   7.6077(15)
_cell_length_b                   18.811(4)
_cell_length_c                   8.1161(16)
_cell_angle_alpha                90
_cell_angle_beta                 106.29(3)
_cell_angle_gamma                90
_cell_volume                     1114.85
_exptl_crystal_colour            colorless
_exptl_crystal_description       block
_cell_formula_units_Z            4
loop_
_atom_site_label
_atom_site_type_symbol
_atom_site_fract_x
_atom_site_fract_y
_atom_site_fract_z
O1 O -0.09288(14) 0.30800(5) 0.61241(12)
H1 H -0.1324 0.3149 0.5062
O2 O 0.75919(13) 0.31147(6) 1.24845(12)
H2 H 0.8155 0.2809 1.2075
C1 C 0.00475(17) 0.35889(7) 0.89413(16)
H3 H -0.0714 0.3876 0.9501
H4 H -0.0196 0.3081 0.9108
C2 C 0.20804(17) 0.37478(7) 0.98036(15)
C3 C 0.46313(18) 0.35249(7) 1.25829(16)
H5 H 0.5090 0.4020 1.2679
H6 H 0.4858 0.3331 1.3758
C4 C 0.32189(17) 0.33209(7) 0.88382(15)
H7 H 0.2833 0.2812 0.8823
C5 C 0.56668(17) 0.30839(7) 1.15937(16)
H8 H 0.5249 0.2579 1.1568
C6 C 0.25695(17) 0.35220(7) 1.16919(16)
H9 H 0.1957 0.3847 1.2316
H10 H 0.2087 0.3037 1.1762
C7 C 0.52757(17) 0.33526(7) 0.97544(16)
H11 H 0.5950 0.3058 0.9124
H12 H 0.5711 0.3849 0.9762
C8 C 0.11498(18) 0.40999(7) 0.65660(16)
H13 H 0.0806 0.4236 0.5325
C9 C 0.23563(18) 0.45501(7) 0.96056(17)
H14 H 0.3658 0.4674 1.0131
H15 H 0.1608 0.4819 1.0213
C10 C 0.27526(18) 0.35759(8) 0.69490(17)
H16 H 0.3838 0.3809 0.6742
H17 H 0.2427 0.3162 0.6170
C11 C -0.05068(17) 0.37569(7) 0.69999(16)
C12 C 0.1790(2) 0.47603(8) 0.76796(18)
H18 H 0.0788 0.5114 0.7457
H19 H 0.2845 0.4978 0.7381
C13 C -0.21923(19) 0.42294(8) 0.64550(18)
H20 H -0.3231 0.3989 0.6707
H21 H -0.2482 0.4324 0.5220
H22 H -0.1950 0.4679 0.7087
loop_
_geom_bond_atom_site_label_1
_geom_bond_atom_site_label_2
_geom_bond_site_symmetry_1
_geom_bond_site_symmetry_2
O1 H1 1_555 1_555
O2 H2 1_555 1_555
C1 H3 1_555 1_555
H4 C1 1_555 1_555
C2 C1 1_555 1_555
C3 H5 1_555 1_555
H6 C3 1_555 1_555
C4 C2 1_555 1_555
H7 C4 1_555 1_555
C5 O2 1_555 1_555
H8 C5 1_555 1_555
C6 C2 1_555 1_555
H9 C6 1_555 1_555
H10 C6 1_555 1_555
C7 C4 1_555 1_555
H11 C7 1_555 1_555
H12 C7 1_555 1_555
C8 H13 1_555 1_555
C9 C2 1_555 1_555
H14 C9 1_555 1_555
H15 C9 1_555 1_555
C10 C4 1_555 1_555
H16 C10 1_555 1_555
H17 C10 1_555 1_555
C11 O1 1_555 1_555
C12 C8 1_555 1_555
H18 C12 1_555 1_555
H19 C12 1_555 1_555
C13 C11 1_555 1_555
H20 C13 1_555 1_555
H21 C13 1_555 1_555
H22 C13 1_555 1_555
C1 C11 1_555 1_555
C3 C5 1_555 1_555
C3 C6 1_555 1_555
C5 C7 1_555 1_555
C8 C10 1_555 1_555
C8 C11 1_555 1_555
C9 C12 1_555 1_555

#END
