
#######################################################################
#
#                 Cambridge Crystallographic Data Centre
#                                CCDC 
#
#######################################################################
#
# If this CIF has been generated from an entry in the Cambridge 
# Structural Database, then it will include bibliographic, chemical, 
# crystal, experimental, refinement or atomic coordinate data resulting 
# from the CCDC's data processing and validation procedures.
#
#######################################################################

data_IQIFAR01
_chemical_formula_moiety         'C11 H14 O5'
_chemical_name_systematic        '4-(2,4-dihydroxybutoxy)benzoic acid'
_symmetry_cell_setting           monoclinic
_symmetry_space_group_name_H-M   'P 21'
_symmetry_Int_Tables_number      4
_space_group_name_Hall           'P 2yb'
loop_
_symmetry_equiv_pos_site_id
_symmetry_equiv_pos_as_xyz
1 x,y,z
2 -x,1/2+y,-z
_cell_length_a                   6.2406(2)
_cell_length_b                   7.6844(3)
_cell_length_c                   11.3856(3)
_cell_angle_alpha                90
_cell_angle_beta                 101.971(2)
_cell_angle_gamma                90
_cell_volume                     534.125
_cell_formula_units_Z            2
loop_
_atom_site_label
_atom_site_type_symbol
_atom_site_fract_x
_atom_site_fract_y
_atom_site_fract_z
C1 C 0.3909(12) 0.4124(12) 1.0705(7)
H1 H 0.4799 0.3580 1.1358
C2 C 0.4514(13) 0.4105(12) 0.9622(7)
H2 H 0.5796 0.3542 0.9543
C3 C 0.1991(12) 0.4940(11) 1.0859(6)
C4 C 0.5485(13) 0.4085(12) 0.7286(7)
C5 C 0.1318(13) 0.5781(12) 0.8782(7)
H3 H 0.0459 0.6355 0.8132
C6 C 0.1361(11) 0.4897(11) 1.2033(6)
C7 C 0.3228(12) 0.4922(11) 0.8633(6)
C8 C 0.5517(12) 0.4281(11) 0.5968(7)
C9 C 0.0704(12) 0.5790(12) 0.9853(6)
H4 H -0.0575 0.6360 0.9929
C10 C 0.7820(13) 0.3729(11) 0.4391(7)
C11 C 0.7626(13) 0.3504(12) 0.5690(7)
O1 O 0.3639(9) 0.4997(8) 0.7526(5)
O2 O 0.3641(9) 0.3352(8) 0.5320(5)
H5 H 0.3074 0.3907 0.4721
O3 O 0.2411(10) 0.4151(10) 1.2901(6)
H6 H 0.1898 0.3177 1.2948
O4 O -0.0490(10) 0.5731(10) 1.2060(5)
O5 O 0.8452(10) 0.5462(10) 0.4129(6)
H7 H 0.7368 0.6004 0.3788
loop_
_geom_bond_atom_site_label_1
_geom_bond_atom_site_label_2
_geom_bond_site_symmetry_1
_geom_bond_site_symmetry_2
C1 H1 1_555 1_555
C2 C1 1_555 1_555
H2 C2 1_555 1_555
C3 C1 1_555 1_555
C4 C8 1_555 1_555
C5 H3 1_555 1_555
C6 C3 1_555 1_555
C7 C2 1_555 1_555
C8 C11 1_555 1_555
C9 C3 1_555 1_555
H4 C9 1_555 1_555
C10 C11 1_555 1_555
O1 C4 1_555 1_555
O2 C8 1_555 1_555
H5 O2 1_555 1_555
O3 C6 1_555 1_555
H6 O3 1_555 1_555
O4 C6 1_555 1_555
O5 C10 1_555 1_555
H7 O5 1_555 1_555
C5 C7 1_555 1_555
C5 C9 1_555 1_555
C7 O1 1_555 1_555

#END
