
#######################################################################
#
#                 Cambridge Crystallographic Data Centre
#                                CCDC 
#
#######################################################################
#
# If this CIF has been generated from an entry in the Cambridge 
# Structural Database, then it will include bibliographic, chemical, 
# crystal, experimental, refinement or atomic coordinate data resulting 
# from the CCDC's data processing and validation procedures.
#
#######################################################################

data_IQIFAR
_chemical_formula_moiety         'C11 H14 O5'
_chemical_name_systematic        '4-(2,4-dihydroxybutoxy)benzoic acid'
_symmetry_cell_setting           monoclinic
_symmetry_space_group_name_H-M   'P 21'
_symmetry_Int_Tables_number      4
_space_group_name_Hall           'P 2yb'
loop_
_symmetry_equiv_pos_site_id
_symmetry_equiv_pos_as_xyz
1 x,y,z
2 -x,1/2+y,-z
_cell_length_a                   6.2420(4)
_cell_length_b                   7.6826(4)
_cell_length_c                   11.3760(6)
_cell_angle_alpha                90
_cell_angle_beta                 101.962(2)
_cell_angle_gamma                90
_cell_volume                     533.688
_exptl_crystal_colour            colorless
_exptl_crystal_description       block
_cell_formula_units_Z            2
loop_
_atom_site_label
_atom_site_type_symbol
_atom_site_fract_x
_atom_site_fract_y
_atom_site_fract_z
O1 O -0.0470(3) 0.6123(3) 0.20528(15)
O2 O 0.2411(3) 0.4535(3) 0.28924(14)
O3 O 0.3643(2) 0.5406(2) -0.24853(13)
O4 O 0.3646(2) 0.3772(2) -0.46795(13)
H1 H 0.3326 0.4142 -0.5369
O5 O 0.8427(3) 0.5863(3) -0.58810(16)
C1 C 0.1353(3) 0.5302(3) 0.20288(18)
C2 C 0.2001(3) 0.5354(3) 0.08546(17)
C3 C 0.0712(3) 0.6194(3) -0.01307(18)
H2 H -0.0567 0.6756 -0.0048
C4 C 0.1325(3) 0.6193(3) -0.12236(18)
H3 H 0.0468 0.6768 -0.1874
C5 C 0.3219(3) 0.5339(3) -0.13599(18)
C6 C 0.4515(3) 0.4510(3) -0.03891(18)
H4 H 0.5791 0.3943 -0.0473
C7 C 0.3895(3) 0.4533(3) 0.07082(19)
H5 H 0.4774 0.3984 0.1363
C8 C 0.5487(4) 0.4481(3) -0.27178(18)
H6 H 0.5382 0.3259 -0.2521
H7 H 0.6826 0.4946 -0.2231
C9 C 0.5512(3) 0.4683(3) -0.40282(19)
H8 H 0.5389 0.5919 -0.4244
C10 C 0.7614(3) 0.3948(3) -0.43151(19)
H9 H 0.8853 0.4518 -0.3805
H10 H 0.7700 0.2718 -0.4117
C11 C 0.7808(4) 0.4158(3) -0.5607(2)
H11 H 0.8884 0.3337 -0.5779
H12 H 0.6412 0.3875 -0.6126
H13 H -0.081(4) 0.606(3) 0.270(2)
H14 H 0.748(6) 0.675(6) -0.582(3)
loop_
_geom_bond_atom_site_label_1
_geom_bond_atom_site_label_2
_geom_bond_site_symmetry_1
_geom_bond_site_symmetry_2
O1 C1 1_555 1_555
O2 C1 1_555 1_555
O3 C5 1_555 1_555
O4 H1 1_555 1_555
O5 C11 1_555 1_555
C1 C2 1_555 1_555
C2 C3 1_555 1_555
C3 H2 1_555 1_555
C4 C3 1_555 1_555
H3 C4 1_555 1_555
C5 C4 1_555 1_555
C6 C5 1_555 1_555
H4 C6 1_555 1_555
C7 C2 1_555 1_555
H5 C7 1_555 1_555
C8 O3 1_555 1_555
H6 C8 1_555 1_555
H7 C8 1_555 1_555
C9 O4 1_555 1_555
H8 C9 1_555 1_555
C10 C9 1_555 1_555
H9 C10 1_555 1_555
H10 C10 1_555 1_555
C11 C10 1_555 1_555
H11 C11 1_555 1_555
H12 C11 1_555 1_555
H13 O1 1_555 1_555
H14 O5 1_555 1_555
C6 C7 1_555 1_555
C8 C9 1_555 1_555

#END
