
#######################################################################
#
#                 Cambridge Crystallographic Data Centre
#                                CCDC 
#
#######################################################################
#
# If this CIF has been generated from an entry in the Cambridge 
# Structural Database, then it will include bibliographic, chemical, 
# crystal, experimental, refinement or atomic coordinate data resulting 
# from the CCDC's data processing and validation procedures.
#
#######################################################################

data_IQIFUL
_chemical_formula_moiety         'C24 H27 N2 O1 1+,C7 H7 O3 S1 1-'
_chemical_name_systematic        
'2-(2-(4-(4-(hydroxymethyl)piperidin-1-yl)phenyl)vinyl)-1-methylquinolinium 4-methylbenzenesulfonate'
_symmetry_cell_setting           monoclinic
_symmetry_space_group_name_H-M   'P 21'
_symmetry_Int_Tables_number      4
_space_group_name_Hall           'P 2yb'
loop_
_symmetry_equiv_pos_site_id
_symmetry_equiv_pos_as_xyz
1 x,y,z
2 -x,1/2+y,-z
_cell_length_a                   6.4400(4)
_cell_length_b                   16.3764(10)
_cell_length_c                   12.5711(10)
_cell_angle_alpha                90
_cell_angle_beta                 93.626(2)
_cell_angle_gamma                90
_cell_volume                     1323.14
_exptl_crystal_colour            black
_exptl_crystal_description       Plate
_cell_formula_units_Z            2
loop_
_atom_site_label
_atom_site_type_symbol
_atom_site_fract_x
_atom_site_fract_y
_atom_site_fract_z
S1 S 0.5170(2) 1.08252(10) 0.79432(11)
O1 O 0.3971(7) 1.0141(3) 0.8314(4)
O2 O 0.3832(8) 1.1446(3) 0.7428(3)
O3 O 0.6631(7) 1.1161(3) 0.8754(3)
C1 C 0.6683(10) 1.0425(4) 0.6926(5)
C2 C 0.8729(10) 1.0684(4) 0.6843(5)
H1 H 0.9337 1.1056 0.7328
C3 C 0.9843(10) 1.0375(4) 0.6019(5)
H2 H 1.1208 1.0546 0.5959
C4 C 0.8981(10) 0.9822(4) 0.5287(5)
C5 C 0.6966(10) 0.9559(4) 0.5402(5)
H3 H 0.6372 0.9176 0.4929
C6 C 0.5822(10) 0.9859(4) 0.6216(5)
H4 H 0.4468 0.9678 0.6282
C7 C 1.0196(11) 0.9500(4) 0.4383(5)
H5 H 1.0055 0.8917 0.4345
H6 H 1.1638 0.9640 0.4509
H7 H 0.9664 0.9738 0.3724
O4 O 1.6478(8) 0.7352(3) 0.4390(3)
H8 H 1.5991 0.7127 0.3847
N1 N -0.0232(7) 0.9159(3) 1.0386(4)
N2 N 1.0989(8) 0.7333(3) 0.7270(4)
C8 C -0.1974(9) 0.9241(4) 1.0993(4)
C9 C -0.3394(9) 0.9882(4) 1.0839(4)
H9 H -0.3220 1.0267 1.0308
C10 C -0.5045(10) 0.9944(4) 1.1473(5)
H10 H -0.5977 1.0374 1.1365
C11 C -0.5358(10) 0.9379(4) 1.2274(5)
H11 H -0.6479 0.9437 1.2700
C12 C -0.4008(10) 0.8738(4) 1.2431(5)
H12 H -0.4225 0.8355 1.2959
C13 C -0.2277(9) 0.8655(4) 1.1793(4)
C14 C -0.0875(10) 0.7999(4) 1.1927(5)
H13 H -0.1064 0.7611 1.2452
C15 C 0.0745(10) 0.7926(4) 1.1300(5)
H14 H 0.1651 0.7487 1.1396
C16 C 0.1081(9) 0.8512(4) 1.0498(5)
C17 C 0.2808(10) 0.8448(4) 0.9830(5)
H15 H 0.2955 0.8847 0.9314
C18 C 0.4227(10) 0.7841(4) 0.9908(5)
H16 H 0.4067 0.7447 1.0429
C19 C 0.5985(9) 0.7751(4) 0.9248(5)
C20 C 0.7272(10) 0.7065(4) 0.9380(5)
H17 H 0.7013 0.6690 0.9911
C21 C 0.8920(10) 0.6927(4) 0.8746(5)
H18 H 0.9749 0.6467 0.8863
C22 C 0.9355(9) 0.7478(4) 0.7922(5)
C23 C 0.8109(10) 0.8176(4) 0.7817(5)
H19 H 0.8380 0.8563 0.7303
C24 C 0.6475(11) 0.8303(4) 0.8466(5)
H20 H 0.5681 0.8775 0.8374
C25 C 1.1532(12) 0.6480(4) 0.7045(6)
H21 H 1.0512 0.6256 0.6524
H22 H 1.1486 0.6161 0.7693
C26 C 1.3676(10) 0.6411(4) 0.6625(5)
H23 H 1.4709 0.6572 0.7181
H24 H 1.3936 0.5845 0.6446
C27 C 1.3911(11) 0.6936(4) 0.5654(5)
H25 H 1.2938 0.6738 0.5081
C28 C 1.3328(10) 0.7801(4) 0.5911(5)
H26 H 1.3333 0.8125 0.5265
H27 H 1.4382 0.8023 0.6415
C29 C 1.1234(11) 0.7886(4) 0.6371(5)
H28 H 1.1061 0.8444 0.6606
H29 H 1.0152 0.7773 0.5818
C30 C 1.6081(11) 0.6868(4) 0.5286(5)
H30 H 1.7057 0.7022 0.5872
H31 H 1.6345 0.6301 0.5116
C31 C 0.0128(10) 0.9794(4) 0.9579(5)
H32 H 0.1582 0.9926 0.9601
H33 H -0.0656 1.0274 0.9729
H34 H -0.0309 0.9592 0.8883
loop_
_geom_bond_atom_site_label_1
_geom_bond_atom_site_label_2
_geom_bond_site_symmetry_1
_geom_bond_site_symmetry_2
S1 O1 1_555 1_555
O2 S1 1_555 1_555
O3 S1 1_555 1_555
C1 S1 1_555 1_555
C2 C1 1_555 1_555
H1 C2 1_555 1_555
C3 C2 1_555 1_555
H2 C3 1_555 1_555
C4 C3 1_555 1_555
C5 C4 1_555 1_555
H3 C5 1_555 1_555
C6 C1 1_555 1_555
H4 C6 1_555 1_555
C7 C4 1_555 1_555
H5 C7 1_555 1_555
H6 C7 1_555 1_555
H7 C7 1_555 1_555
O4 H8 1_555 1_555
N1 C8 1_555 1_555
N2 C22 1_555 1_555
C8 C9 1_555 1_555
C9 H9 1_555 1_555
C10 C9 1_555 1_555
H10 C10 1_555 1_555
C11 C10 1_555 1_555
H11 C11 1_555 1_555
C12 C11 1_555 1_555
H12 C12 1_555 1_555
C13 C8 1_555 1_555
C14 C13 1_555 1_555
H13 C14 1_555 1_555
C15 C14 1_555 1_555
H14 C15 1_555 1_555
C16 N1 1_555 1_555
C17 C16 1_555 1_555
H15 C17 1_555 1_555
C18 C17 1_555 1_555
H16 C18 1_555 1_555
C19 C18 1_555 1_555
C20 C19 1_555 1_555
H17 C20 1_555 1_555
C21 C20 1_555 1_555
H18 C21 1_555 1_555
C22 C21 1_555 1_555
C23 C22 1_555 1_555
H19 C23 1_555 1_555
C24 C19 1_555 1_555
H20 C24 1_555 1_555
C25 N2 1_555 1_555
H21 C25 1_555 1_555
H22 C25 1_555 1_555
C26 C25 1_555 1_555
H23 C26 1_555 1_555
H24 C26 1_555 1_555
C27 C26 1_555 1_555
H25 C27 1_555 1_555
C28 C27 1_555 1_555
H26 C28 1_555 1_555
H27 C28 1_555 1_555
C29 N2 1_555 1_555
H28 C29 1_555 1_555
H29 C29 1_555 1_555
C30 O4 1_555 1_555
H30 C30 1_555 1_555
H31 C30 1_555 1_555
C31 N1 1_555 1_555
H32 C31 1_555 1_555
H33 C31 1_555 1_555
H34 C31 1_555 1_555
C5 C6 1_555 1_555
C12 C13 1_555 1_555
C15 C16 1_555 1_555
C23 C24 1_555 1_555
C27 C30 1_555 1_555
C28 C29 1_555 1_555

#END
