
#######################################################################
#
#                 Cambridge Crystallographic Data Centre
#                                CCDC 
#
#######################################################################
#
# If this CIF has been generated from an entry in the Cambridge 
# Structural Database, then it will include bibliographic, chemical, 
# crystal, experimental, refinement or atomic coordinate data resulting 
# from the CCDC's data processing and validation procedures.
#
#######################################################################

data_IQIGOG
_chemical_name_common            
'8-fluoro-10-methyl-9-p-tosyl-9,10-dihydro-8H-naphtho[1 ,2 :4 ,5 ][1,3,2]oxazaborolo-[3 ,2 :2,3][1,2,4,3]triazaborinino[5,6-b]indol-16-ium-8-uide'
_chemical_formula_moiety         'C26 H20 B1 F1 N4 O3 S1'
_chemical_name_systematic        
fluoro(N-(3-((2-(oxy)-1-naphthyl)diazenyl)-1-methyl-1H-indol-2-yl)-4-methylbenzenesulfonamidato)boron
_symmetry_cell_setting           monoclinic
_symmetry_space_group_name_H-M   'P 21/n'
_symmetry_Int_Tables_number      14
_space_group_name_Hall           '-P 2yn'
loop_
_symmetry_equiv_pos_site_id
_symmetry_equiv_pos_as_xyz
1 x,y,z
2 1/2-x,1/2+y,1/2-z
3 -x,-y,-z
4 1/2+x,1/2-y,1/2+z
_cell_length_a                   11.8786(8)
_cell_length_b                   14.6539(7)
_cell_length_c                   14.7921(10)
_cell_angle_alpha                90
_cell_angle_beta                 112.989(8)
_cell_angle_gamma                90
_cell_volume                     2370.34
_exptl_crystal_colour            black
_exptl_crystal_description       block
_chemical_melting_point          '208.6-209.8 deg.C'
_cell_formula_units_Z            4
loop_
_atom_site_label
_atom_site_type_symbol
_atom_site_fract_x
_atom_site_fract_y
_atom_site_fract_z
S1 S 0.12515(4) 0.81877(3) 0.02193(4)
F1 F 0.23591(11) 0.99487(8) -0.11912(8)
O1 O 0.09371(14) 0.83942(10) 0.10322(11)
O2 O 0.03144(12) 0.79619(10) -0.07014(10)
O3 O 0.20846(12) 0.83697(9) -0.15041(9)
N1 N 0.25848(15) 0.99739(11) 0.15632(12)
N2 N 0.19870(14) 0.91013(10) 0.00321(11)
N3 N 0.39196(14) 0.88554(10) -0.02713(10)
N4 N 0.46733(14) 0.91023(11) 0.05980(11)
C1 C 0.3881(2) 1.07266(17) 0.31535(17)
H1 H 0.3231 1.0893 0.3320
C2 C 0.5064(3) 1.09351(19) 0.37465(18)
H2 H 0.5219 1.1252 0.4328
C3 C 0.6035(2) 1.06867(17) 0.35034(17)
H3 H 0.6826 1.0841 0.3924
C4 C 0.5854(2) 1.02150(15) 0.26498(15)
H4 H 0.6510 1.0049 0.2490
C5 C 0.46621(19) 0.99966(13) 0.20376(14)
C6 C 0.36952(19) 1.02572(14) 0.22960(14)
C7 C 0.28325(17) 0.95378(12) 0.08580(13)
C8 C 0.41004(17) 0.95448(13) 0.10996(13)
C9 C 0.1399(2) 1.02892(17) 0.15145(18)
H5 H 0.0789 1.0170 0.0872
H6 H 0.1436 1.0933 0.1643
H7 H 0.1192 0.9972 0.1996
C10 C 0.41893(18) 0.82388(13) -0.08758(13)
C11 C 0.30788(18) 0.79779(14) -0.15881(13)
C12 C 0.3011(2) 0.73462(16) -0.23155(15)
H8 H 0.2261 0.7158 -0.2781
C13 C 0.4077(2) 0.70162(16) -0.23203(16)
H9 H 0.4046 0.6601 -0.2805
C14 C 0.5238(2) 0.72806(15) -0.16140(15)
C15 C 0.53195(18) 0.79069(13) -0.08532(14)
C16 C 0.64784(18) 0.81723(15) -0.01710(14)
H10 H 0.6539 0.8577 0.0330
C17 C 0.7511(2) 0.78395(18) -0.02419(17)
H11 H 0.8272 0.8023 0.0211
C18 C 0.7445(2) 0.7228(2) -0.09825(18)
H12 H 0.8159 0.7005 -0.1019
C19 C 0.6342(2) 0.69586(18) -0.16496(17)
H13 H 0.6311 0.6553 -0.2142
C20 C 0.23722(16) 0.73349(13) 0.05691(13)
C21 C 0.33141(18) 0.73822(13) 0.14902(14)
H14 H 0.3313 0.7831 0.1934
C22 C 0.42508(19) 0.67575(14) 0.17400(15)
H15 H 0.4891 0.6793 0.2353
C23 C 0.4257(2) 0.60760(16) 0.10935(17)
C24 C 0.3285(2) 0.60355(16) 0.01832(17)
H16 H 0.3267 0.5574 -0.0253
C25 C 0.23496(19) 0.66622(14) -0.00861(15)
H17 H 0.1712 0.6632 -0.0701
C26 C 0.5294(3) 0.5407(2) 0.1364(2)
H18 H 0.5933 0.5655 0.1195
H19 H 0.5007 0.4846 0.1014
H20 H 0.5605 0.5291 0.2058
B1 B 0.2506(2) 0.90895(15) -0.07776(16)
loop_
_geom_bond_atom_site_label_1
_geom_bond_atom_site_label_2
_geom_bond_site_symmetry_1
_geom_bond_site_symmetry_2
S1 O1 1_555 1_555
F1 B1 1_555 1_555
O2 S1 1_555 1_555
O3 C11 1_555 1_555
N1 C6 1_555 1_555
N2 S1 1_555 1_555
N3 N4 1_555 1_555
N4 C8 1_555 1_555
C1 H1 1_555 1_555
C2 C1 1_555 1_555
H2 C2 1_555 1_555
C3 C2 1_555 1_555
H3 C3 1_555 1_555
C4 C3 1_555 1_555
H4 C4 1_555 1_555
C5 C4 1_555 1_555
C6 C1 1_555 1_555
C7 N1 1_555 1_555
C8 C5 1_555 1_555
C9 N1 1_555 1_555
H5 C9 1_555 1_555
H6 C9 1_555 1_555
H7 C9 1_555 1_555
C10 N3 1_555 1_555
C11 C10 1_555 1_555
C12 C11 1_555 1_555
H8 C12 1_555 1_555
C13 C12 1_555 1_555
H9 C13 1_555 1_555
C14 C13 1_555 1_555
C15 C10 1_555 1_555
C16 C15 1_555 1_555
H10 C16 1_555 1_555
C17 C16 1_555 1_555
H11 C17 1_555 1_555
C18 C17 1_555 1_555
H12 C18 1_555 1_555
C19 C14 1_555 1_555
H13 C19 1_555 1_555
C20 S1 1_555 1_555
C21 C20 1_555 1_555
H14 C21 1_555 1_555
C22 C21 1_555 1_555
H15 C22 1_555 1_555
C23 C22 1_555 1_555
C24 C23 1_555 1_555
H16 C24 1_555 1_555
C25 C20 1_555 1_555
H17 C25 1_555 1_555
C26 C23 1_555 1_555
H18 C26 1_555 1_555
H19 C26 1_555 1_555
H20 C26 1_555 1_555
B1 O3 1_555 1_555
N2 C7 1_555 1_555
N2 B1 1_555 1_555
N3 B1 1_555 1_555
C5 C6 1_555 1_555
C7 C8 1_555 1_555
C14 C15 1_555 1_555
C18 C19 1_555 1_555
C24 C25 1_555 1_555

#END
