
#######################################################################
#
#                 Cambridge Crystallographic Data Centre
#                                CCDC 
#
#######################################################################
#
# If this CIF has been generated from an entry in the Cambridge 
# Structural Database, then it will include bibliographic, chemical, 
# crystal, experimental, refinement or atomic coordinate data resulting 
# from the CCDC's data processing and validation procedures.
#
#######################################################################

data_IQIGEW
_chemical_formula_moiety         'C26 H22 N4 O3 S1'
_chemical_name_systematic        
(E)-N-(3-((2-hydroxy-1-naphthyl)diazenyl)-1-methyl-1H-indol-2-yl)-4-methylbenzenesulfonamide
_symmetry_cell_setting           triclinic
_symmetry_space_group_name_H-M   'P -1'
_symmetry_Int_Tables_number      2
_space_group_name_Hall           '-P 1'
loop_
_symmetry_equiv_pos_site_id
_symmetry_equiv_pos_as_xyz
1 x,y,z
2 -x,-y,-z
_cell_length_a                   8.2558(6)
_cell_length_b                   10.1328(7)
_cell_length_c                   13.9082(11)
_cell_angle_alpha                77.492(6)
_cell_angle_beta                 79.130(6)
_cell_angle_gamma                85.572(6)
_cell_volume                     1114.68
_exptl_crystal_colour            black
_exptl_crystal_description       block
_chemical_melting_point          '174.9-175.8 deg.C'
_cell_formula_units_Z            2
loop_
_atom_site_label
_atom_site_type_symbol
_atom_site_fract_x
_atom_site_fract_y
_atom_site_fract_z
S1 S 0.19896(8) 0.86256(6) 0.27986(5)
N1 N 0.3059(2) 0.46294(19) 0.48731(14)
O1 O 0.4710(2) 0.24073(18) 0.54357(13)
H1 H 0.3975 0.2987 0.5513
C1 C 0.4968(3) 0.3633(2) 0.37150(17)
C2 C 0.5732(3) 0.3699(2) 0.26970(18)
N2 N 0.2102(3) 0.71421(19) 0.35156(15)
H2 H 0.2665 0.6521 0.3251
C3 C 0.1421(3) 0.6799(2) 0.44553(18)
N3 N 0.0195(2) 0.7395(2) 0.50402(16)
C4 C 0.1016(3) 0.5505(2) 0.60953(18)
C5 C 0.3827(3) 0.8580(2) 0.19341(19)
O2 O 0.2103(3) 0.96575(18) 0.33421(16)
C6 C 0.6823(3) 0.2607(3) 0.2455(2)
C7 C 0.5482(3) 0.4790(3) 0.19101(19)
H3 H 0.4772 0.5511 0.2047
C8 C 0.5330(3) 0.2531(2) 0.44450(18)
O3 O 0.0633(2) 0.8730(2) 0.22759(16)
C9 C 0.1010(4) 0.4599(3) 0.6995(2)
H4 H 0.1717 0.3837 0.7041
C10 C -0.0052(3) 0.6643(3) 0.6034(2)
C11 C 0.6401(3) 0.1480(3) 0.4187(2)
H5 H 0.6616 0.0746 0.4682
C12 C 0.6773(4) 0.8485(3) 0.0588(2)
C13 C 0.3817(4) 0.8322(3) 0.0998(2)
H6 H 0.2831 0.8173 0.0816
C14 C 0.5307(4) 0.8813(3) 0.2194(2)
H7 H 0.5317 0.9009 0.2816
C15 C 0.7132(3) 0.1513(3) 0.3224(2)
H8 H 0.7847 0.0804 0.3069
C16 C 0.6262(4) 0.4807(3) 0.0955(2)
H9 H 0.6087 0.5543 0.0450
C17 C 0.7588(4) 0.2665(3) 0.1453(2)
H10 H 0.8292 0.1953 0.1291
C18 C -0.1131(3) 0.6913(3) 0.6864(2)
H11 H -0.1833 0.7678 0.6821
C19 C 0.7320(4) 0.3737(3) 0.0720(2)
H12 H 0.7840 0.3760 0.0063
C20 C -0.0956(3) 0.8497(3) 0.4703(2)
H13 H -0.0496 0.9350 0.4673
H14 H -0.1985 0.8415 0.5164
H15 H -0.1142 0.8450 0.4050
C21 C -0.1125(4) 0.6003(3) 0.7758(2)
H16 H -0.1840 0.6160 0.8327
C22 C 0.5292(4) 0.8289(3) 0.0337(2)
H17 H 0.5279 0.8129 -0.0295
C23 C 0.6755(4) 0.8752(3) 0.1530(2)
H18 H 0.7744 0.8893 0.1714
C24 C -0.0082(4) 0.4860(3) 0.7831(2)
H19 H -0.0113 0.4262 0.8444
C25 C 0.8377(4) 0.8407(4) -0.0127(3)
H20 H 0.8657 0.7480 -0.0165
H21 H 0.9234 0.8771 0.0107
H22 H 0.8261 0.8921 -0.0778
N4 N 0.3885(2) 0.47087(19) 0.39432(14)
C26 C 0.1956(3) 0.5553(2) 0.50986(18)
loop_
_geom_bond_atom_site_label_1
_geom_bond_atom_site_label_2
_geom_bond_site_symmetry_1
_geom_bond_site_symmetry_2
S1 N2 1_555 1_555
N1 N4 1_555 1_555
O1 H1 1_555 1_555
C1 C2 1_555 1_555
C2 C6 1_555 1_555
N2 H2 1_555 1_555
C3 N2 1_555 1_555
N3 C3 1_555 1_555
C4 C9 1_555 1_555
C5 S1 1_555 1_555
O2 S1 1_555 1_555
C6 C15 1_555 1_555
C7 C2 1_555 1_555
H3 C7 1_555 1_555
C8 O1 1_555 1_555
O3 S1 1_555 1_555
C9 H4 1_555 1_555
C10 N3 1_555 1_555
C11 C8 1_555 1_555
H5 C11 1_555 1_555
C12 C22 1_555 1_555
C13 C5 1_555 1_555
H6 C13 1_555 1_555
C14 C5 1_555 1_555
H7 C14 1_555 1_555
C15 C11 1_555 1_555
H8 C15 1_555 1_555
C16 C7 1_555 1_555
H9 C16 1_555 1_555
C17 C6 1_555 1_555
H10 C17 1_555 1_555
C18 C10 1_555 1_555
H11 C18 1_555 1_555
C19 C16 1_555 1_555
H12 C19 1_555 1_555
C20 N3 1_555 1_555
H13 C20 1_555 1_555
H14 C20 1_555 1_555
H15 C20 1_555 1_555
C21 C18 1_555 1_555
H16 C21 1_555 1_555
C22 C13 1_555 1_555
H17 C22 1_555 1_555
C23 C12 1_555 1_555
H18 C23 1_555 1_555
C24 C9 1_555 1_555
H19 C24 1_555 1_555
C25 C12 1_555 1_555
H20 C25 1_555 1_555
H21 C25 1_555 1_555
H22 C25 1_555 1_555
N4 C1 1_555 1_555
C26 N1 1_555 1_555
C1 C8 1_555 1_555
C3 C26 1_555 1_555
C4 C10 1_555 1_555
C4 C26 1_555 1_555
C14 C23 1_555 1_555
C17 C19 1_555 1_555
C21 C24 1_555 1_555

#END
