
#######################################################################
#
#                 Cambridge Crystallographic Data Centre
#                                CCDC 
#
#######################################################################
#
# If this CIF has been generated from an entry in the Cambridge 
# Structural Database, then it will include bibliographic, chemical, 
# crystal, experimental, refinement or atomic coordinate data resulting 
# from the CCDC's data processing and validation procedures.
#
#######################################################################

data_IQIHAT
_chemical_compound_source        
'obtained from whole plants of Valeriana jatamansi'
_chemical_name_common            'Jatamanin A dihydrate'
_chemical_formula_moiety         'C10 H14 O4,2(H2 O1)'
_chemical_name_systematic        
'6-hydroxy-4,7-dimethyl-1-oxooctahydrocyclopenta[c]pyran-4-ylium-7-olate dihydrate'
_symmetry_cell_setting           monoclinic
_symmetry_space_group_name_H-M   'P 21'
_symmetry_Int_Tables_number      4
_space_group_name_Hall           'P 2yb'
loop_
_symmetry_equiv_pos_site_id
_symmetry_equiv_pos_as_xyz
1 x,y,z
2 -x,1/2+y,-z
_cell_length_a                   5.957(14)
_cell_length_b                   13.28(3)
_cell_length_c                   7.662(17)
_cell_angle_alpha                90
_cell_angle_beta                 104.54(3)
_cell_angle_gamma                90
_cell_volume                     586.72
_exptl_crystal_colour            colorless
_exptl_crystal_description       block
_cell_formula_units_Z            2
loop_
_atom_site_label
_atom_site_type_symbol
_atom_site_fract_x
_atom_site_fract_y
_atom_site_fract_z
O1 O 0.3806(4) 0.14325(17) 0.7408(3)
O2 O 0.2798(3) 0.11558(17) 0.4541(3)
O3 O -0.2439(3) -0.11160(17) 0.7514(3)
O4 O 0.2848(3) -0.10507(16) 0.5957(2)
C1 C 0.2448(5) 0.1016(2) 0.6161(4)
C2 C 0.1280(6) 0.0654(3) 0.2992(4)
H1 H 0.1726 -0.0047 0.2971
H2 H 0.1444 0.0969 0.1888
C3 C -0.1158(6) 0.0720(2) 0.3091(4)
C4 C -0.1612(4) 0.0253(2) 0.4740(3)
H3 H -0.2994 0.0560 0.4991
C5 C -0.1960(5) -0.0897(2) 0.4533(4)
H4 H -0.3595 -0.1063 0.4144
H5 H -0.1179 -0.1163 0.3664
C6 C -0.0898(4) -0.1317(2) 0.6399(4)
H6 H -0.0578 -0.2039 0.6352
C7 C 0.1352(4) -0.0707(2) 0.7017(4)
C8 C 0.0485(4) 0.03789(19) 0.6414(3)
H7 H -0.0096 0.0679 0.7383
C9 C 0.2536(6) -0.0794(3) 0.9004(4)
H8 H 0.3020 -0.1477 0.9282
H9 H 0.1473 -0.0600 0.9701
H10 H 0.3866 -0.0359 0.9290
C10 C -0.2789(7) 0.1175(3) 0.1829(5)
O5 O 0.8483(4) 0.7539(2) 0.0255(3)
H11 H 0.970(4) 0.767(3) 0.103(4)
H12 H 0.753(5) 0.726(3) 0.077(5)
O6 O 0.2359(4) 0.7587(2) 0.3053(4)
H13 H 0.363(5) 0.731(3) 0.302(5)
H14 H 0.259(15) 0.820(3) 0.28(2)
H15? H -0.4007 0.0704 0.1335
H16? H -0.2125 0.1415 0.0888
H17? H -0.3411 0.1732 0.2354
loop_
_geom_bond_atom_site_label_1
_geom_bond_atom_site_label_2
_geom_bond_site_symmetry_1
_geom_bond_site_symmetry_2
O1 C1 1_555 1_555
O2 C1 1_555 1_555
O3 C6 1_555 1_555
O4 C7 1_555 1_555
C1 C8 1_555 1_555
C2 O2 1_555 1_555
H1 C2 1_555 1_555
H2 C2 1_555 1_555
C3 C2 1_555 1_555
C4 C3 1_555 1_555
H3 C4 1_555 1_555
C5 C4 1_555 1_555
H4 C5 1_555 1_555
H5 C5 1_555 1_555
C6 C5 1_555 1_555
H6 C6 1_555 1_555
C7 C6 1_555 1_555
C8 C4 1_555 1_555
H7 C8 1_555 1_555
C9 C7 1_555 1_555
H8 C9 1_555 1_555
H9 C9 1_555 1_555
H10 C9 1_555 1_555
C10 C3 1_555 1_555
O5 H11 1_555 1_555
H12 O5 1_555 1_555
O6 H13 1_555 1_555
H14 O6 1_555 1_555
C7 C8 1_555 1_555

#END
