
#######################################################################
#
#                 Cambridge Crystallographic Data Centre
#                                CCDC 
#
#######################################################################
#
# If this CIF has been generated from an entry in the Cambridge 
# Structural Database, then it will include bibliographic, chemical, 
# crystal, experimental, refinement or atomic coordinate data resulting 
# from the CCDC's data processing and validation procedures.
#
#######################################################################

data_IQIHIB
_chemical_compound_source        
'isolated from the seeds of an Indian mangrove, Xylocarpus moluccensis'
_chemical_name_common            'Moluccensin A'
_chemical_formula_moiety         'C35 H44 O11'
_chemical_name_systematic        
'6-(3-furyl)-13-hydroxy-18-(2-methoxy-2-oxoethyl)-1,5,15-trimethyl-8,12-dioxo-7-oxapentacyclo[13.2.1.0^2,11^.0^5,10^.0^13,17^]octadec-10-ene-14,17-diyl bis(2-methylpropanoate)'
_symmetry_cell_setting           orthorhombic
_symmetry_space_group_name_H-M   'P 21 21 21'
_symmetry_Int_Tables_number      19
_space_group_name_Hall           'P 2ac 2ab'
loop_
_symmetry_equiv_pos_site_id
_symmetry_equiv_pos_as_xyz
1 x,y,z
2 1/2-x,-y,1/2+z
3 -x,1/2+y,1/2-z
4 1/2+x,1/2-y,-z
_cell_length_a                   8.8804(4)
_cell_length_b                   16.4376(8)
_cell_length_c                   22.1252(10)
_cell_angle_alpha                90
_cell_angle_beta                 90
_cell_angle_gamma                90
_cell_volume                     3229.67
_exptl_crystal_colour            colorless
_exptl_crystal_description       block
_cell_formula_units_Z            4
loop_
_atom_site_label
_atom_site_type_symbol
_atom_site_fract_x
_atom_site_fract_y
_atom_site_fract_z
C1 C 0.9703(3) 0.51337(14) 0.95125(10)
C2 C 1.0520(3) 0.52106(15) 0.89029(11)
C3 C 0.9874(3) 0.60474(15) 0.86833(11)
H1 H 1.0714 0.6453 0.8689
C4 C 0.8718(3) 0.63035(14) 0.91628(11)
C5 C 0.7371(3) 0.57025(14) 0.91418(11)
H2 H 0.7133 0.5598 0.8707
C6 C 0.5935(3) 0.59936(16) 0.94453(11)
H3 H 0.5302 0.5515 0.9543
H4 H 0.6199 0.6264 0.9831
C7 C 0.5029(3) 0.65757(15) 0.90646(12)
C8 C 0.8641(3) 0.42620(13) 0.83889(10)
C9 C 0.7786(3) 0.41606(14) 0.89767(10)
H5 H 0.8253 0.3680 0.9181
C10 C 0.8020(3) 0.48866(14) 0.94170(10)
C11 C 0.6142(3) 0.39178(16) 0.88553(11)
H6 H 0.6086 0.3318 0.8824
H7 H 0.5523 0.4083 0.9207
C12 C 0.5461(3) 0.42872(16) 0.82865(11)
H8 H 0.5429 0.4887 0.8328
H9 H 0.4414 0.4090 0.8239
C13 C 0.6369(3) 0.40639(13) 0.77244(10)
C14 C 0.8046(3) 0.41471(13) 0.78381(10)
C15 C 0.8999(3) 0.41362(15) 0.72754(10)
H10 H 0.9758 0.4574 0.7312
H11 H 0.9552 0.3613 0.7266
C16 C 0.8221(3) 0.42365(15) 0.66777(11)
C17 C 0.6038(3) 0.47095(15) 0.72332(11)
H12 H 0.6421 0.5245 0.7382
C18 C 0.5983(3) 0.31970(14) 0.75090(12)
H13 H 0.6087 0.2816 0.7847
H14 H 0.6673 0.3039 0.7184
H15 H 0.4945 0.3184 0.7359
C19 C 0.7371(4) 0.46477(17) 1.00377(11)
H16 H 0.7857 0.4147 1.0179
H17 H 0.6284 0.4558 1.0001
H18 H 0.7561 0.5086 1.0328
C20 C 0.4425(3) 0.48182(17) 0.70544(12)
C21 C 0.3469(3) 0.53968(19) 0.72498(14)
H19 H 0.3706 0.5795 0.7546
C22 C 0.3621(3) 0.4362(2) 0.66121(13)
H20 H 0.3982 0.3911 0.6387
C23 C 0.2241(3) 0.4703(2) 0.65780(15)
H21 H 0.1460 0.4522 0.6317
C24 C 0.8348(4) 0.72098(15) 0.91210(13)
H22 H 0.9276 0.7528 0.9164
H23 H 0.7645 0.7357 0.9444
H24 H 0.7888 0.7326 0.8728
C25 C 0.9584(4) 0.60192(15) 0.97226(12)
H25 H 1.0578 0.6286 0.9764
H26 H 0.8997 0.6080 1.0100
C26 C 1.0226(3) 0.45256(14) 0.84471(10)
C27 C 0.3142(3) 0.75806(16) 0.91012(12)
H27 H 0.2717 0.7301 0.8749
H28 H 0.3697 0.8063 0.8967
H29 H 0.2327 0.7746 0.9373
C28 C 0.9786(3) 0.65893(15) 0.76829(12)
C29 C 0.8869(3) 0.65808(16) 0.71087(11)
H30 H 0.8603 0.6004 0.7011
C30 C 0.9753(4) 0.6933(2) 0.65809(13)
H31 H 1.0689 0.6626 0.6528
H32 H 0.9991 0.7505 0.6663
H33 H 0.9148 0.6896 0.6212
C31 C 0.7418(3) 0.7055(2) 0.72137(14)
H34 H 0.6793 0.7032 0.6849
H35 H 0.7661 0.7623 0.7306
H36 H 0.6867 0.6815 0.7554
C32 C 1.1111(3) 0.39563(15) 0.98323(11)
C33 C 1.2038(4) 0.36401(16) 1.03552(11)
H37 H 1.2763 0.4074 1.0480
C34 C 1.0989(4) 0.34646(18) 1.08857(12)
H38 H 1.0254 0.3049 1.0768
H39 H 1.0460 0.3964 1.1000
H40 H 1.1581 0.3267 1.1230
C35 C 1.2928(4) 0.28983(18) 1.01597(14)
H41 H 1.3602 0.3046 0.9827
H42 H 1.2233 0.2472 1.0025
H43 H 1.3524 0.2697 1.0501
O1 O 0.5030(2) 0.66050(12) 0.85220(8)
O2 O 0.4148(2) 0.70406(11) 0.94153(8)
O3 O 1.0521(2) 0.46863(10) 0.99665(7)
O4 O 1.0900(2) 0.36016(10) 0.93661(7)
O5 O 1.2096(2) 0.52833(12) 0.89895(8)
H44 H 1.2549 0.5011 0.8725
O6 O 0.2118(2) 0.53334(15) 0.69645(10)
O7 O 0.68056(19) 0.45250(12) 0.66673(8)
O8 O 0.8816(2) 0.40840(12) 0.62056(7)
O9 O 0.9258(2) 0.60294(10) 0.80812(7)
O10 O 1.0795(3) 0.70430(13) 0.77906(10)
O11 O 1.1268(2) 0.42916(11) 0.81378(8)
loop_
_geom_bond_atom_site_label_1
_geom_bond_atom_site_label_2
_geom_bond_site_symmetry_1
_geom_bond_site_symmetry_2
C1 C2 1_555 1_555
C2 C3 1_555 1_555
C3 H1 1_555 1_555
C4 C3 1_555 1_555
C5 C4 1_555 1_555
H2 C5 1_555 1_555
C6 C5 1_555 1_555
H3 C6 1_555 1_555
H4 C6 1_555 1_555
C7 C6 1_555 1_555
C8 C9 1_555 1_555
C9 H5 1_555 1_555
C10 C1 1_555 1_555
C11 C9 1_555 1_555
H6 C11 1_555 1_555
H7 C11 1_555 1_555
C12 C11 1_555 1_555
H8 C12 1_555 1_555
H9 C12 1_555 1_555
C13 C12 1_555 1_555
C14 C8 1_555 1_555
C15 C14 1_555 1_555
H10 C15 1_555 1_555
H11 C15 1_555 1_555
C16 C15 1_555 1_555
C17 C13 1_555 1_555
H12 C17 1_555 1_555
C18 C13 1_555 1_555
H13 C18 1_555 1_555
H14 C18 1_555 1_555
H15 C18 1_555 1_555
C19 C10 1_555 1_555
H16 C19 1_555 1_555
H17 C19 1_555 1_555
H18 C19 1_555 1_555
C20 C17 1_555 1_555
C21 C20 1_555 1_555
H19 C21 1_555 1_555
C22 C20 1_555 1_555
H20 C22 1_555 1_555
C23 C22 1_555 1_555
H21 C23 1_555 1_555
C24 C4 1_555 1_555
H22 C24 1_555 1_555
H23 C24 1_555 1_555
H24 C24 1_555 1_555
C25 C1 1_555 1_555
H25 C25 1_555 1_555
H26 C25 1_555 1_555
C26 C2 1_555 1_555
C27 H27 1_555 1_555
H28 C27 1_555 1_555
H29 C27 1_555 1_555
C28 C29 1_555 1_555
C29 H30 1_555 1_555
C30 C29 1_555 1_555
H31 C30 1_555 1_555
H32 C30 1_555 1_555
H33 C30 1_555 1_555
C31 C29 1_555 1_555
H34 C31 1_555 1_555
H35 C31 1_555 1_555
H36 C31 1_555 1_555
C32 C33 1_555 1_555
C33 H37 1_555 1_555
C34 C33 1_555 1_555
H38 C34 1_555 1_555
H39 C34 1_555 1_555
H40 C34 1_555 1_555
C35 C33 1_555 1_555
H41 C35 1_555 1_555
H42 C35 1_555 1_555
H43 C35 1_555 1_555
O1 C7 1_555 1_555
O2 C7 1_555 1_555
O3 C1 1_555 1_555
O4 C32 1_555 1_555
O5 C2 1_555 1_555
H44 O5 1_555 1_555
O6 C21 1_555 1_555
O7 C16 1_555 1_555
O8 C16 1_555 1_555
O9 C3 1_555 1_555
O10 C28 1_555 1_555
O11 C26 1_555 1_555
C4 C25 1_555 1_555
C5 C10 1_555 1_555
C8 C26 1_555 1_555
C9 C10 1_555 1_555
C13 C14 1_555 1_555
C17 O7 1_555 1_555
C23 O6 1_555 1_555
C27 O2 1_555 1_555
C28 O9 1_555 1_555
C32 O3 1_555 1_555

#END
