
#######################################################################
#
#                 Cambridge Crystallographic Data Centre
#                                CCDC 
#
#######################################################################
#
# If this CIF has been generated from an entry in the Cambridge 
# Structural Database, then it will include bibliographic, chemical, 
# crystal, experimental, refinement or atomic coordinate data resulting 
# from the CCDC's data processing and validation procedures.
#
#######################################################################

data_IQIVOU
_chemical_compound_source        'Abies delavayi'
_chemical_name_common            'Abiespiroside A'
_chemical_formula_moiety         'C21 H30 O9'
_chemical_name_systematic        
(1R,5R,6R,7S,9R)-6,9\a-Epoxy-9,15-bisabolanolide-5-O-\b-D-glucopyranoside
_symmetry_cell_setting           monoclinic
_symmetry_space_group_name_H-M   'P 21'
_symmetry_Int_Tables_number      4
_space_group_name_Hall           'P 2yb'
loop_
_symmetry_equiv_pos_site_id
_symmetry_equiv_pos_as_xyz
1 x,y,z
2 -x,1/2+y,-z
_cell_length_a                   9.018(7)
_cell_length_b                   5.918(4)
_cell_length_c                   20.075(14)
_cell_angle_alpha                90
_cell_angle_beta                 92.424(9)
_cell_angle_gamma                90
_cell_volume                     1070.41
_exptl_crystal_colour            colorless
_exptl_crystal_description       plate
_cell_formula_units_Z            2
loop_
_atom_site_label
_atom_site_type_symbol
_atom_site_fract_x
_atom_site_fract_y
_atom_site_fract_z
O1 O 0.4783(3) 1.0808(5) 0.90282(12)
O2 O 0.4692(2) 0.9849(4) 0.79545(9)
O3 O 0.54113(16) 0.6875(3) 0.72828(7)
O4 O 0.85612(16) 0.6479(3) 0.70530(7)
O5 O 0.84043(17) 0.6184(3) 0.81679(7)
O6 O 0.9385(2) 0.7279(3) 0.95099(8)
H1 H 0.9664 0.6837 0.9882
O7 O 0.90606(19) 0.1611(3) 0.93587(8)
H2 H 0.9263 0.0298 0.9268
O8 O 1.0481(2) -0.0015(4) 0.81957(9)
H3 H 1.0128 -0.1292 0.8191
O9 O 0.9295(2) 0.1854(4) 0.69733(8)
H4 H 0.9918 0.0846 0.6965
C1 C 0.5098(3) 0.8964(5) 0.62373(11)
H5 H 0.4715 0.7617 0.6004
C2 C 0.5969(3) 1.0340(6) 0.57533(13)
H6 H 0.5367 1.0566 0.5347
H7 H 0.6183 1.1813 0.5946
C3 C 0.7387(3) 0.9232(6) 0.55869(12)
H8 H 0.7854 0.9733 0.5210
C4 C 0.8026(3) 0.7592(6) 0.59364(11)
C5 C 0.7369(2) 0.6704(5) 0.65595(10)
H9 H 0.6955 0.5201 0.6465
C6 C 0.6149(2) 0.8203(5) 0.68001(10)
H10 H 0.6592 0.9534 0.7020
C7 C 0.3789(3) 1.0216(7) 0.65215(14)
H11 H 0.4174 1.1571 0.6750
C8 C 0.3078(3) 0.8716(7) 0.70371(14)
H12 H 0.2299 0.9555 0.7246
H13 H 0.2627 0.7417 0.6815
C9 C 0.4196(3) 0.7911(5) 0.75687(11)
C10 C 0.3651(3) 0.6304(6) 0.80775(12)
H14 H 0.3259 0.4880 0.7983
C11 C 0.3802(3) 0.7181(6) 0.86736(12)
C12 C 0.3474(4) 0.6218(7) 0.93406(13)
H15 H 0.3056 0.4735 0.9284
H16 H 0.2779 0.7177 0.9555
H17 H 0.4375 0.6125 0.9611
C13 C 0.9400(3) 0.6364(8) 0.57265(13)
H18 H 0.9748 0.7040 0.5327
H19 H 0.9166 0.4804 0.5644
H20 H 1.0159 0.6470 0.6075
C14 C 0.2646(4) 1.0968(11) 0.59803(18)
H21 H 0.3118 1.1924 0.5666
H22 H 0.1863 1.1788 0.6182
H23 H 0.2240 0.9664 0.5754
C15 C 0.4453(3) 0.9445(6) 0.86102(14)
C16 C 0.8317(2) 0.4929(4) 0.75646(10)
H24 H 0.7328 0.4255 0.7501
C17 C 0.9488(3) 0.3096(5) 0.75805(10)
H25 H 1.0476 0.3789 0.7603
C18 C 0.9317(2) 0.1598(5) 0.81783(11)
H26 H 0.8366 0.0801 0.8130
C19 C 0.9324(3) 0.3013(4) 0.88015(10)
H27 H 1.0289 0.3761 0.8867
C20 C 0.8112(3) 0.4778(4) 0.87279(10)
H28 H 0.7158 0.4014 0.8644
C21 C 0.8000(3) 0.6288(5) 0.93307(11)
H29 H 0.7277 0.7469 0.9234
H30 H 0.7660 0.5408 0.9702
loop_
_geom_bond_atom_site_label_1
_geom_bond_atom_site_label_2
_geom_bond_site_symmetry_1
_geom_bond_site_symmetry_2
O1 C15 1_555 1_555
O2 C9 1_555 1_555
O3 C6 1_555 1_555
O4 C5 1_555 1_555
O5 C16 1_555 1_555
O6 H1 1_555 1_555
O7 H2 1_555 1_555
O8 H3 1_555 1_555
O9 H4 1_555 1_555
C1 H5 1_555 1_555
C2 C1 1_555 1_555
H6 C2 1_555 1_555
H7 C2 1_555 1_555
C3 C2 1_555 1_555
H8 C3 1_555 1_555
C4 C3 1_555 1_555
C5 C4 1_555 1_555
H9 C5 1_555 1_555
C6 C1 1_555 1_555
H10 C6 1_555 1_555
C7 C1 1_555 1_555
H11 C7 1_555 1_555
C8 C7 1_555 1_555
H12 C8 1_555 1_555
H13 C8 1_555 1_555
C9 O3 1_555 1_555
C10 C9 1_555 1_555
H14 C10 1_555 1_555
C11 C10 1_555 1_555
C12 C11 1_555 1_555
H15 C12 1_555 1_555
H16 C12 1_555 1_555
H17 C12 1_555 1_555
C13 C4 1_555 1_555
H18 C13 1_555 1_555
H19 C13 1_555 1_555
H20 C13 1_555 1_555
C14 C7 1_555 1_555
H21 C14 1_555 1_555
H22 C14 1_555 1_555
H23 C14 1_555 1_555
C15 O2 1_555 1_555
C16 O4 1_555 1_555
H24 C16 1_555 1_555
C17 O9 1_555 1_555
H25 C17 1_555 1_555
C18 O8 1_555 1_555
H26 C18 1_555 1_555
C19 O7 1_555 1_555
H27 C19 1_555 1_555
C20 O5 1_555 1_555
H28 C20 1_555 1_555
C21 O6 1_555 1_555
H29 C21 1_555 1_555
H30 C21 1_555 1_555
C5 C6 1_555 1_555
C8 C9 1_555 1_555
C11 C15 1_555 1_555
C16 C17 1_555 1_555
C17 C18 1_555 1_555
C18 C19 1_555 1_555
C19 C20 1_555 1_555
C20 C21 1_555 1_555

#END
