
#######################################################################
#
#                 Cambridge Crystallographic Data Centre
#                                CCDC 
#
#######################################################################
#
# If this CIF has been generated from an entry in the Cambridge 
# Structural Database, then it will include bibliographic, chemical, 
# crystal, experimental, refinement or atomic coordinate data resulting 
# from the CCDC's data processing and validation procedures.
#
#######################################################################

data_IQIXOX
_chemical_formula_moiety         'C31 H25 N1 O2'
_chemical_name_systematic        
2-((1-(4-methylphenyl)-3-phenyl-2,3-dihydro-1H-inden-2-yl)methyl)-1H-isoindole-1,3(2H)-dione
_symmetry_cell_setting           triclinic
_symmetry_space_group_name_H-M   'P -1'
_symmetry_Int_Tables_number      2
_space_group_name_Hall           '-P 1'
loop_
_symmetry_equiv_pos_site_id
_symmetry_equiv_pos_as_xyz
1 x,y,z
2 -x,-y,-z
_cell_length_a                   10.5494(14)
_cell_length_b                   10.8018(7)
_cell_length_c                   11.7551(8)
_cell_angle_alpha                110.5370(10)
_cell_angle_beta                 104.461(2)
_cell_angle_gamma                101.542(2)
_cell_volume                     1151.9
_exptl_crystal_colour            colorless
_exptl_crystal_description       block
_cell_formula_units_Z            2
loop_
_atom_site_label
_atom_site_type_symbol
_atom_site_fract_x
_atom_site_fract_y
_atom_site_fract_z
N1 N 0.65410(10) 0.49377(10) 0.13548(9)
O1 O 0.43800(9) 0.32894(10) 0.01594(8)
O2 O 0.88667(10) 0.61473(10) 0.20403(9)
C1 C 0.56033(12) 0.36909(12) 0.03594(10)
C2 C 0.64290(12) 0.30016(12) -0.03652(10)
C3 C 0.60311(15) 0.17424(13) -0.14309(11)
H1 H 0.5113 0.1182 -0.1842
C4 C 0.70681(17) 0.13478(14) -0.18629(12)
H2 H 0.6833 0.0514 -0.2587
C5 C 0.84417(16) 0.21716(16) -0.12363(13)
H3 H 0.9111 0.1871 -0.1537
C6 C 0.88336(14) 0.34403(14) -0.01646(12)
H4 H 0.9753 0.3995 0.0262
C7 C 0.77969(12) 0.38408(12) 0.02383(10)
C8 C 0.78759(12) 0.51257(12) 0.13228(11)
C9 C 0.61899(13) 0.59064(12) 0.23591(11)
H5 H 0.5198 0.5611 0.2150
H6 H 0.6468 0.6828 0.2379
C10 C 0.68972(11) 0.59765(11) 0.36922(10)
H7 H 0.7897 0.6283 0.3889
C11 C 0.65023(11) 0.45998(11) 0.38491(10)
H8 H 0.5494 0.4204 0.3490
C12 C 0.70842(11) 0.34920(11) 0.31887(10)
C13 C 0.62064(12) 0.21647(11) 0.22862(11)
H9 H 0.5261 0.1947 0.2122
C14 C 0.67314(13) 0.11609(11) 0.16282(11)
H10 H 0.6128 0.0285 0.1028
C15 C 0.81345(13) 0.14419(12) 0.18509(11)
C16 C 0.86726(16) 0.03483(15) 0.11046(14)
H11 H 0.9659 0.0711 0.1380
H12 H 0.8278 0.0102 0.0195
H13 H 0.8423 -0.0464 0.1264
C17 C 0.90173(12) 0.27654(12) 0.27628(11)
H14 H 0.9963 0.2977 0.2933
C18 C 0.84977(12) 0.37703(11) 0.34199(11)
H15 H 0.9103 0.4644 0.4024
C19 C 0.69385(11) 0.51566(11) 0.53174(10)
C20 C 0.72434(12) 0.44751(12) 0.61054(11)
H16 H 0.7232 0.3554 0.5750
C21 C 0.75675(13) 0.51919(13) 0.74403(11)
H17 H 0.7765 0.4742 0.7975
C22 C 0.75972(12) 0.65718(13) 0.79751(11)
H18 H 0.7814 0.7038 0.8865
C23 C 0.73035(11) 0.72626(12) 0.71845(11)
H19 H 0.7329 0.8188 0.7542
C24 C 0.69725(11) 0.65458(11) 0.58536(10)
C25 C 0.65643(11) 0.70208(11) 0.47841(10)
H20 H 0.5562 0.6828 0.4501
C26 C 0.72276(12) 0.85269(11) 0.50885(10)
C27 C 0.86302(12) 0.92104(12) 0.57962(11)
H21 H 0.9166 0.8748 0.6133
C28 C 0.92382(14) 1.05734(13) 0.60049(12)
H22 H 1.0171 1.1024 0.6493
C29 C 0.84555(16) 1.12646(13) 0.54852(13)
H23 H 0.8865 1.2171 0.5611
C30 C 0.70587(16) 1.05948(14) 0.47768(13)
H24 H 0.6532 1.1054 0.4425
C31 C 0.64403(14) 0.92380(13) 0.45898(11)
H25 H 0.5499 0.8804 0.4131
loop_
_geom_bond_atom_site_label_1
_geom_bond_atom_site_label_2
_geom_bond_site_symmetry_1
_geom_bond_site_symmetry_2
N1 C1 1_555 1_555
O1 C1 1_555 1_555
O2 C8 1_555 1_555
C1 C2 1_555 1_555
C2 C3 1_555 1_555
C3 H1 1_555 1_555
C4 C3 1_555 1_555
H2 C4 1_555 1_555
C5 C4 1_555 1_555
H3 C5 1_555 1_555
C6 C5 1_555 1_555
H4 C6 1_555 1_555
C7 C2 1_555 1_555
C8 N1 1_555 1_555
C9 N1 1_555 1_555
H5 C9 1_555 1_555
H6 C9 1_555 1_555
C10 C9 1_555 1_555
H7 C10 1_555 1_555
C11 C10 1_555 1_555
H8 C11 1_555 1_555
C12 C11 1_555 1_555
C13 C12 1_555 1_555
H9 C13 1_555 1_555
C14 C13 1_555 1_555
H10 C14 1_555 1_555
C15 C14 1_555 1_555
C16 C15 1_555 1_555
H11 C16 1_555 1_555
H12 C16 1_555 1_555
H13 C16 1_555 1_555
C17 C15 1_555 1_555
H14 C17 1_555 1_555
C18 C12 1_555 1_555
H15 C18 1_555 1_555
C19 C11 1_555 1_555
C20 C19 1_555 1_555
H16 C20 1_555 1_555
C21 C20 1_555 1_555
H17 C21 1_555 1_555
C22 C21 1_555 1_555
H18 C22 1_555 1_555
C23 C22 1_555 1_555
H19 C23 1_555 1_555
C24 C19 1_555 1_555
C25 C10 1_555 1_555
H20 C25 1_555 1_555
C26 C25 1_555 1_555
C27 C26 1_555 1_555
H21 C27 1_555 1_555
C28 C27 1_555 1_555
H22 C28 1_555 1_555
C29 C28 1_555 1_555
H23 C29 1_555 1_555
C30 C29 1_555 1_555
H24 C30 1_555 1_555
C31 C26 1_555 1_555
H25 C31 1_555 1_555
C6 C7 1_555 1_555
C7 C8 1_555 1_555
C17 C18 1_555 1_555
C23 C24 1_555 1_555
C24 C25 1_555 1_555
C30 C31 1_555 1_555

#END
