
#######################################################################
#
#                 Cambridge Crystallographic Data Centre
#                                CCDC 
#
#######################################################################
#
# If this CIF has been generated from an entry in the Cambridge 
# Structural Database, then it will include bibliographic, chemical, 
# crystal, experimental, refinement or atomic coordinate data resulting 
# from the CCDC's data processing and validation procedures.
#
#######################################################################

data_IQODUP
_chemical_formula_moiety         'C19 H19 F6 N1 O4'
_chemical_name_systematic        
N,N-diethyl-2-((6-(1,1,1,3,3,3-hexafluoro-2-hydroxypropan-2-yl)-7-hydroxy-2-naphthyl)oxy)acetamide
_chemical_properties_biological  
'no appreciable protein tyrosine phosphatase (PTP) inhibitory activity'
_symmetry_cell_setting           triclinic
_symmetry_space_group_name_H-M   'P -1'
_symmetry_Int_Tables_number      2
_space_group_name_Hall           '-P 1'
loop_
_symmetry_equiv_pos_site_id
_symmetry_equiv_pos_as_xyz
1 x,y,z
2 -x,-y,-z
_cell_length_a                   7.7617(14)
_cell_length_b                   9.9794(18)
_cell_length_c                   13.124(2)
_cell_angle_alpha                101.841(3)
_cell_angle_beta                 100.386(3)
_cell_angle_gamma                97.192(3)
_cell_volume                     964.626
_exptl_crystal_colour            colorless
_exptl_crystal_description       block
_cell_formula_units_Z            2
loop_
_atom_site_label
_atom_site_type_symbol
_atom_site_fract_x
_atom_site_fract_y
_atom_site_fract_z
C1 C 0.1902(3) -0.02159(18) 0.68351(14)
C2 C 0.2355(3) -0.07017(18) 0.58338(14)
C3 C 0.2602(3) 0.01693(19) 0.51743(14)
H1 H 0.2918 -0.0170 0.4531
C4 C 0.2389(2) 0.15700(18) 0.54493(13)
C5 C 0.2673(2) 0.25175(18) 0.47979(14)
H2 H 0.3039 0.2228 0.4163
C6 C 0.2408(3) 0.38481(19) 0.51069(15)
C7 C 0.1856(3) 0.4307(2) 0.60611(17)
H3 H 0.1664 0.5217 0.6254
C8 C 0.1602(3) 0.34327(19) 0.67001(16)
H4 H 0.1244 0.3749 0.7333
C9 C 0.1872(2) 0.20467(17) 0.64203(14)
C10 C 0.1663(2) 0.11338(18) 0.70900(14)
H5 H 0.1347 0.1463 0.7735
C11 C 0.1767(3) -0.11682(18) 0.76048(15)
C12 C 0.0456(4) -0.0812(2) 0.83292(18)
C13 C 0.3616(4) -0.1090(3) 0.82882(19)
C14 C 0.3158(3) 0.45454(19) 0.35830(15)
H6 H 0.2293 0.3803 0.3090
H7 H 0.4305 0.4244 0.3677
C15 C 0.3260(2) 0.58531(19) 0.31582(14)
C16 C 0.4132(4) 0.4527(2) 0.15711(18)
H8 H 0.4118 0.3809 0.1970
H9 H 0.5334 0.4750 0.1472
C17 C 0.2915(4) 0.3965(3) 0.0500(2)
H10 H 0.1712 0.3786 0.0587
H11 H 0.3239 0.3117 0.0156
H12 H 0.3013 0.4632 0.0072
C18 C 0.3816(3) 0.7033(2) 0.17988(17)
H13 H 0.4565 0.6943 0.1280
H14 H 0.4396 0.7811 0.2386
C19 C 0.2061(4) 0.7340(3) 0.1292(2)
H15 H 0.1490 0.6585 0.0700
H16 H 0.2251 0.8179 0.1048
H17 H 0.1321 0.7454 0.1806
F1 F -0.1091(2) -0.06777(16) 0.77681(12)
F2 F 0.1023(2) 0.03495(13) 0.90784(10)
F3 F 0.0122(2) -0.18176(14) 0.88316(12)
F4 F 0.4331(2) 0.02002(16) 0.88345(12)
F5 F 0.3608(2) -0.18682(16) 0.89997(12)
F6 F 0.4721(2) -0.15397(19) 0.76821(14)
N1 N 0.3663(2) 0.57645(16) 0.21984(13)
O1 O 0.2531(3) -0.20709(13) 0.55832(11)
H18 H 0.2648 -0.2285 0.4965
O2 O 0.2645(2) 0.48808(13) 0.45697(11)
O3 O 0.2964(2) 0.69483(14) 0.36594(10)
O4 O 0.1102(2) -0.25596(13) 0.70979(12)
H19 H 0.1322 -0.2724 0.6501
loop_
_geom_bond_atom_site_label_1
_geom_bond_atom_site_label_2
_geom_bond_site_symmetry_1
_geom_bond_site_symmetry_2
C1 C2 1_555 1_555
C2 C3 1_555 1_555
C3 H1 1_555 1_555
C4 C3 1_555 1_555
C5 C4 1_555 1_555
H2 C5 1_555 1_555
C6 C5 1_555 1_555
C7 C6 1_555 1_555
H3 C7 1_555 1_555
C8 C7 1_555 1_555
H4 C8 1_555 1_555
C9 C4 1_555 1_555
C10 C1 1_555 1_555
H5 C10 1_555 1_555
C11 C1 1_555 1_555
C12 C11 1_555 1_555
C13 C11 1_555 1_555
C14 H6 1_555 1_555
H7 C14 1_555 1_555
C15 C14 1_555 1_555
C16 H8 1_555 1_555
H9 C16 1_555 1_555
C17 C16 1_555 1_555
H10 C17 1_555 1_555
H11 C17 1_555 1_555
H12 C17 1_555 1_555
C18 H13 1_555 1_555
H14 C18 1_555 1_555
C19 C18 1_555 1_555
H15 C19 1_555 1_555
H16 C19 1_555 1_555
H17 C19 1_555 1_555
F1 C12 1_555 1_555
F2 C12 1_555 1_555
F3 C12 1_555 1_555
F4 C13 1_555 1_555
F5 C13 1_555 1_555
F6 C13 1_555 1_555
N1 C15 1_555 1_555
O1 C2 1_555 1_555
H18 O1 1_555 1_555
O2 C6 1_555 1_555
O3 C15 1_555 1_555
O4 C11 1_555 1_555
H19 O4 1_555 1_555
C8 C9 1_555 1_555
C9 C10 1_555 1_555
C14 O2 1_555 1_555
C16 N1 1_555 1_555
C18 N1 1_555 1_555

#END
