
#######################################################################
#
#                 Cambridge Crystallographic Data Centre
#                                CCDC 
#
#######################################################################
#
# If this CIF has been generated from an entry in the Cambridge 
# Structural Database, then it will include bibliographic, chemical, 
# crystal, experimental, refinement or atomic coordinate data resulting 
# from the CCDC's data processing and validation procedures.
#
#######################################################################

data_IQOFOL
_chemical_formula_moiety         'C30 H42 P2 Si1'
_chemical_name_systematic        
((phenylsilanediyl)di-2,1-phenylene)bis(diisopropylphosphine)
_symmetry_cell_setting           monoclinic
_symmetry_space_group_name_H-M   'P 21/c'
_symmetry_Int_Tables_number      14
_space_group_name_Hall           '-P 2ybc'
loop_
_symmetry_equiv_pos_site_id
_symmetry_equiv_pos_as_xyz
1 x,y,z
2 -x,1/2+y,1/2-z
3 -x,-y,-z
4 x,1/2-y,1/2+z
_cell_length_a                   13.1415(6)
_cell_length_b                   14.3471(6)
_cell_length_c                   16.6192(7)
_cell_angle_alpha                90
_cell_angle_beta                 112.798(2)
_cell_angle_gamma                90
_cell_volume                     2888.63
_exptl_crystal_colour            white
_exptl_crystal_description       platy
_cell_formula_units_Z            4
_chemical_properties_physical    Air-sensitive,Oxygen-sensitive
loop_
_atom_site_label
_atom_site_type_symbol
_atom_site_fract_x
_atom_site_fract_y
_atom_site_fract_z
P1 P 0.86368(5) 0.62782(3) 1.02919(3)
P2 P 0.59556(4) 0.86094(4) 0.81402(3)
Si1 Si 0.85786(4) 0.81189(4) 0.90220(3)
C1 C 1.01052(16) 0.80788(13) 0.93099(12)
C2 C 1.05574(17) 0.77449(14) 0.87301(13)
H1 H 1.0085 0.7486 0.8187
C3 C 1.16847(18) 0.77852(15) 0.89351(15)
H2 H 1.1975 0.7561 0.8530
C4 C 1.23882(17) 0.81496(14) 0.97240(15)
H3 H 1.3161 0.8169 0.9864
C5 C 1.19641(17) 0.84854(14) 1.03090(14)
H4 H 1.2443 0.8740 1.0851
C6 C 1.08379(16) 0.84499(13) 1.01023(13)
H5 H 1.0555 0.8683 1.0509
C7 C 0.83251(15) 0.82132(12) 1.00592(11)
C8 C 0.83225(15) 0.74476(13) 1.05912(12)
C9 C 0.81179(16) 0.76034(14) 1.13482(12)
H6 H 0.8091 0.7086 1.1697
C10 C 0.79538(16) 0.84915(14) 1.16003(13)
H7 H 0.7815 0.8580 1.2115
C11 C 0.79928(16) 0.92482(14) 1.11007(12)
H8 H 0.7900 0.9861 1.1278
C12 C 0.81682(15) 0.91091(13) 1.03383(12)
H9 H 0.8183 0.9634 0.9994
C13 C 0.80560(15) 0.92068(12) 0.83355(11)
C14 C 0.69157(15) 0.94001(13) 0.79122(12)
C15 C 0.65724(17) 1.01752(14) 0.73579(13)
H10 H 0.5806 1.0295 0.7059
C16 C 0.73336(17) 1.07681(14) 0.72392(13)
H11 H 0.7088 1.1291 0.6863
C17 C 0.84493(17) 1.05991(13) 0.76680(12)
H12 H 0.8973 1.1012 0.7596
C18 C 0.88029(16) 0.98246(13) 0.82029(12)
H13 H 0.9572 0.9709 0.8487
C19 C 0.63493(19) 0.61112(17) 0.96404(16)
H14 H 0.5699 0.5766 0.9626
H15 H 0.6352 0.6135 0.9052
H16 H 0.6327 0.6746 0.9849
C20 C 0.73925(18) 0.56223(14) 1.02540(14)
H17 H 0.7386 0.5603 1.0853
C21 C 0.7398(2) 0.46251(17) 0.9931(2)
H18 H 0.6738 0.4297 0.9919
H19 H 0.8059 0.4300 1.0326
H20 H 0.7400 0.4639 0.9342
C22 C 1.0113(2) 0.49247(15) 1.13514(15)
H21 H 1.0687 0.4773 1.1921
H22 H 1.0408 0.4848 1.0897
H23 H 0.9481 0.4506 1.1233
C23 C 0.97411(17) 0.59324(14) 1.13563(13)
H24 H 0.9452 0.6005 1.1828
C24 C 1.07262(19) 0.65837(17) 1.15477(16)
H25 H 1.1311 0.6412 1.2106
H26 H 1.0495 0.7228 1.1578
H27 H 1.1005 0.6530 1.1081
C25 C 0.38900(19) 0.79057(18) 0.71080(17)
H28 H 0.3297 0.7847 0.6528
H29 H 0.3604 0.8212 0.7504
H30 H 0.4166 0.7285 0.7333
C26 C 0.48290(17) 0.84864(15) 0.70434(14)
H31 H 0.4542 0.9119 0.6814
C27 C 0.52877(19) 0.80266(17) 0.64280(15)
H32 H 0.4697 0.7961 0.5848
H33 H 0.5580 0.7409 0.6653
H34 H 0.5881 0.8413 0.6387
C28 C 0.4963(2) 0.88066(17) 0.93403(16)
H35 H 0.4663 0.9216 0.9667
H36 H 0.5577 0.8444 0.9750
H37 H 0.4384 0.8382 0.8975
C29 C 0.53763(17) 0.93980(15) 0.87599(13)
H38 H 0.6015 0.9765 0.9167
C30 C 0.4514(2) 1.01120(17) 0.82355(16)
H39 H 0.4284 1.0481 0.8632
H40 H 0.3873 0.9788 0.7813
H41 H 0.4832 1.0525 0.7925
H42 H 0.8098(19) 0.7340(16) 0.8514(15)
loop_
_geom_bond_atom_site_label_1
_geom_bond_atom_site_label_2
_geom_bond_site_symmetry_1
_geom_bond_site_symmetry_2
P1 C8 1_555 1_555
P2 C14 1_555 1_555
Si1 C1 1_555 1_555
C1 C2 1_555 1_555
C2 H1 1_555 1_555
C3 C2 1_555 1_555
H2 C3 1_555 1_555
C4 C3 1_555 1_555
H3 C4 1_555 1_555
C5 C4 1_555 1_555
H4 C5 1_555 1_555
C6 C1 1_555 1_555
H5 C6 1_555 1_555
C7 Si1 1_555 1_555
C8 C7 1_555 1_555
C9 C8 1_555 1_555
H6 C9 1_555 1_555
C10 C9 1_555 1_555
H7 C10 1_555 1_555
C11 C10 1_555 1_555
H8 C11 1_555 1_555
C12 C7 1_555 1_555
H9 C12 1_555 1_555
C13 Si1 1_555 1_555
C14 C13 1_555 1_555
C15 C14 1_555 1_555
H10 C15 1_555 1_555
C16 C15 1_555 1_555
H11 C16 1_555 1_555
C17 C16 1_555 1_555
H12 C17 1_555 1_555
C18 C13 1_555 1_555
H13 C18 1_555 1_555
C19 H14 1_555 1_555
H15 C19 1_555 1_555
H16 C19 1_555 1_555
C20 P1 1_555 1_555
H17 C20 1_555 1_555
C21 C20 1_555 1_555
H18 C21 1_555 1_555
H19 C21 1_555 1_555
H20 C21 1_555 1_555
C22 H21 1_555 1_555
H22 C22 1_555 1_555
H23 C22 1_555 1_555
C23 P1 1_555 1_555
H24 C23 1_555 1_555
C24 C23 1_555 1_555
H25 C24 1_555 1_555
H26 C24 1_555 1_555
H27 C24 1_555 1_555
C25 H28 1_555 1_555
H29 C25 1_555 1_555
H30 C25 1_555 1_555
C26 P2 1_555 1_555
H31 C26 1_555 1_555
C27 C26 1_555 1_555
H32 C27 1_555 1_555
H33 C27 1_555 1_555
H34 C27 1_555 1_555
C28 H35 1_555 1_555
H36 C28 1_555 1_555
H37 C28 1_555 1_555
C29 P2 1_555 1_555
H38 C29 1_555 1_555
C30 C29 1_555 1_555
H39 C30 1_555 1_555
H40 C30 1_555 1_555
H41 C30 1_555 1_555
H42 Si1 1_555 1_555
C5 C6 1_555 1_555
C11 C12 1_555 1_555
C17 C18 1_555 1_555
C19 C20 1_555 1_555
C22 C23 1_555 1_555
C25 C26 1_555 1_555
C28 C29 1_555 1_555

#END
