
#######################################################################
#
#                 Cambridge Crystallographic Data Centre
#                                CCDC 
#
#######################################################################
#
# If this CIF has been generated from an entry in the Cambridge 
# Structural Database, then it will include bibliographic, chemical, 
# crystal, experimental, refinement or atomic coordinate data resulting 
# from the CCDC's data processing and validation procedures.
#
#######################################################################

data_IQOHIH
_chemical_formula_moiety         'C14 H14 Br1 F1 O4'
_chemical_name_systematic        
'dimethyl (S)-(1-(4-bromophenyl)prop-2-en-1-yl)(fluoro)malonate'
_symmetry_cell_setting           monoclinic
_symmetry_space_group_name_H-M   'P 21'
_symmetry_Int_Tables_number      4
_space_group_name_Hall           'P 2yb'
loop_
_symmetry_equiv_pos_site_id
_symmetry_equiv_pos_as_xyz
1 x,y,z
2 -x,1/2+y,-z
_cell_length_a                   10.6347(7)
_cell_length_b                   5.7454(4)
_cell_length_c                   25.1891(15)
_cell_angle_alpha                90
_cell_angle_beta                 94.578(2)
_cell_angle_gamma                90
_cell_volume                     1534.16
_exptl_crystal_colour            colorless
_exptl_crystal_description       sheet
_cell_formula_units_Z            4
_chemical_properties_physical    Heat-sensitive
_exptl_crystal_preparation       Luminescent
loop_
_atom_site_label
_atom_site_type_symbol
_atom_site_fract_x
_atom_site_fract_y
_atom_site_fract_z
Br1 Br 0.39050(13) 0.2604(3) 0.41846(3)
F1 F 0.1639(5) 0.7452(7) 0.64375(16)
O1 O 0.3987(5) 0.6455(9) 0.6728(3)
O2 O 0.3526(3) 0.2738(7) 0.68481(15)
O3 O 0.0786(4) 0.7028(7) 0.7361(2)
O4 O 0.1183(4) 0.3210(7) 0.73912(14)
C1 C 0.1190(6) 0.3428(10) 0.6263(2)
H1 H 0.1292 0.1909 0.6439
C2 C 0.1846(6) 0.3285(10) 0.5750(2)
C3 C 0.1692(11) 0.4949(19) 0.5361(3)
H2 H 0.1166 0.6213 0.5407
C4 C 0.2316(13) 0.477(2) 0.4896(3)
H3 H 0.2229 0.5935 0.4640
C5 C 0.3055(8) 0.2882(16) 0.4819(2)
C6 C 0.3242(9) 0.1252(16) 0.5194(3)
H4 H 0.3783 0.0012 0.5146
C7 C 0.2618(7) 0.1426(12) 0.5661(2)
H5 H 0.2727 0.0259 0.5916
C8 C -0.0201(8) 0.3903(18) 0.6183(3)
H6 H -0.0462 0.5262 0.6007
C9 C -0.1046(9) 0.256(3) 0.6343(4)
H7 H -0.0814 0.1183 0.6520
H8 H -0.1894 0.2945 0.6281
C10 C 0.1820(5) 0.5255(9) 0.6650(2)
C11 C 0.3250(5) 0.4911(10) 0.6746(2)
C12 C 0.4851(6) 0.2116(15) 0.6929(3)
H9 H 0.5291 0.2702 0.6639
H10 H 0.4932 0.0452 0.6945
H11 H 0.5206 0.2781 0.7257
C13 C 0.1192(4) 0.5296(10) 0.7180(2)
C14 C 0.0593(6) 0.3014(15) 0.7885(3)
H12 H 0.1105 0.3783 0.8164
H13 H 0.0506 0.1401 0.7975
H14 H -0.0226 0.3729 0.7847
Br2 Br 1.21431(9) 0.5086(4) 0.94902(5)
F2 F 0.6017(4) 0.3688(6) 0.85463(19)
O5 O 0.3861(4) 0.5186(8) 0.8094(2)
O6 O 0.4520(3) 0.8832(6) 0.81455(19)
O7 O 0.6942(4) 0.8191(8) 0.77309(16)
O8 O 0.7373(5) 0.4419(10) 0.7732(3)
C15 C 0.6574(5) 0.7537(9) 0.88389(18)
H15 H 0.6556 0.9145 0.8709
C16 C 0.7937(5) 0.6907(10) 0.90027(19)
C17 C 0.8257(6) 0.4910(15) 0.9286(3)
H16 H 0.7625 0.3920 0.9384
C18 C 0.9525(8) 0.4351(15) 0.9427(3)
H17 H 0.9735 0.2997 0.9616
C19 C 1.0445(6) 0.5826(15) 0.9283(3)
C20 C 1.0143(6) 0.7853(18) 0.9014(3)
H18 H 1.0780 0.8868 0.8931
C21 C 0.8891(6) 0.8393(12) 0.8866(2)
H19 H 0.8692 0.9747 0.8675
C22 C 0.5751(7) 0.7401(16) 0.9294(2)
H20 H 0.5719 0.6008 0.9480
C23 C 0.5069(9) 0.918(2) 0.9442(4)
H21 H 0.5087 1.0587 0.9261
H22 H 0.4571 0.9019 0.9727
C24 C 0.6028(5) 0.5955(7) 0.8379(2)
C25 C 0.4664(4) 0.6596(9) 0.8194(2)
C26 C 0.3252(5) 0.9635(11) 0.8013(3)
H23 H 0.2999 0.9249 0.7649
H24 H 0.3218 1.1292 0.8058
H25 H 0.2692 0.8899 0.8242
C27 C 0.6862(5) 0.6066(11) 0.7906(3)
C28 C 0.7690(7) 0.858(2) 0.7294(3)
H26 H 0.8367 0.7466 0.7307
H27 H 0.8032 1.0122 0.7315
H28 H 0.7175 0.8399 0.6966
loop_
_geom_bond_atom_site_label_1
_geom_bond_atom_site_label_2
_geom_bond_site_symmetry_1
_geom_bond_site_symmetry_2
Br1 C5 1_555 1_555
F1 C10 1_555 1_555
O1 C11 1_555 1_555
O2 C11 1_555 1_555
O3 C13 1_555 1_555
O4 C13 1_555 1_555
C1 H1 1_555 1_555
C2 C1 1_555 1_555
C3 C2 1_555 1_555
H2 C3 1_555 1_555
C4 C3 1_555 1_555
H3 C4 1_555 1_555
C5 C4 1_555 1_555
C6 C5 1_555 1_555
H4 C6 1_555 1_555
C7 C2 1_555 1_555
H5 C7 1_555 1_555
C8 C1 1_555 1_555
H6 C8 1_555 1_555
C9 C8 1_555 1_555
H7 C9 1_555 1_555
H8 C9 1_555 1_555
C10 C1 1_555 1_555
C11 C10 1_555 1_555
C12 O2 1_555 1_555
H9 C12 1_555 1_555
H10 C12 1_555 1_555
H11 C12 1_555 1_555
C13 C10 1_555 1_555
C14 O4 1_555 1_555
H12 C14 1_555 1_555
H13 C14 1_555 1_555
H14 C14 1_555 1_555
Br2 C19 1_555 1_555
F2 C24 1_555 1_555
O5 C25 1_555 1_555
O6 C25 1_555 1_555
O7 C27 1_555 1_555
O8 C27 1_555 1_555
C15 H15 1_555 1_555
C16 C15 1_555 1_555
C17 C16 1_555 1_555
H16 C17 1_555 1_555
C18 C17 1_555 1_555
H17 C18 1_555 1_555
C19 C18 1_555 1_555
C20 C19 1_555 1_555
H18 C20 1_555 1_555
C21 C16 1_555 1_555
H19 C21 1_555 1_555
C22 C15 1_555 1_555
H20 C22 1_555 1_555
C23 C22 1_555 1_555
H21 C23 1_555 1_555
H22 C23 1_555 1_555
C24 C15 1_555 1_555
C25 C24 1_555 1_555
C26 O6 1_555 1_555
H23 C26 1_555 1_555
H24 C26 1_555 1_555
H25 C26 1_555 1_555
C27 C24 1_555 1_555
C28 O7 1_555 1_555
H26 C28 1_555 1_555
H27 C28 1_555 1_555
H28 C28 1_555 1_555
C6 C7 1_555 1_555
C20 C21 1_555 1_555

#END
