
#######################################################################
#
#                 Cambridge Crystallographic Data Centre
#                                CCDC 
#
#######################################################################
#
# If this CIF has been generated from an entry in the Cambridge 
# Structural Database, then it will include bibliographic, chemical, 
# crystal, experimental, refinement or atomic coordinate data resulting 
# from the CCDC's data processing and validation procedures.
#
#######################################################################

data_IQUCEE
_chemical_formula_moiety         'C23 H20 Br1 N1 O2'
_chemical_name_systematic        
N,N-dibenzyl-3-(4-bromophenyl)oxirane-2-carboxamide
_symmetry_cell_setting           monoclinic
_symmetry_space_group_name_H-M   'P 21'
_symmetry_Int_Tables_number      4
_space_group_name_Hall           'P 2yb'
loop_
_symmetry_equiv_pos_site_id
_symmetry_equiv_pos_as_xyz
1 x,y,z
2 -x,1/2+y,-z
_cell_length_a                   11.3241(13)
_cell_length_b                   7.2605(8)
_cell_length_c                   12.4999(15)
_cell_angle_alpha                90
_cell_angle_beta                 100.628(2)
_cell_angle_gamma                90
_cell_volume                     1010.09
_exptl_crystal_colour            colorless
_exptl_crystal_description       block
_cell_formula_units_Z            2
loop_
_atom_site_label
_atom_site_type_symbol
_atom_site_fract_x
_atom_site_fract_y
_atom_site_fract_z
Br1 Br 0.07443(4) 0.90452(10) 0.62594(5)
O1 O 0.4672(3) -0.1610(5) 0.9157(3)
O2 O 0.3123(3) 0.1247(6) 0.8857(3)
N1 N 0.6064(3) -0.0211(5) 0.8363(3)
C1 C 0.2135(4) 0.6656(7) 0.7796(4)
H1 H 0.2093 0.7592 0.8295
C2 C 0.1637(4) 0.6871(7) 0.6720(4)
C3 C 0.1739(5) 0.5534(8) 0.5978(4)
H2 H 0.1430 0.5723 0.5243
C4 C 0.2299(4) 0.3912(10) 0.6319(4)
H3 H 0.2366 0.2999 0.5811
C5 C 0.2769(3) 0.3608(6) 0.7410(3)
C6 C 0.2700(4) 0.5017(7) 0.8121(4)
H4 H 0.3046 0.4863 0.8850
C7 C 0.3273(4) 0.1782(7) 0.7785(4)
H5 H 0.3137 0.0802 0.7237
C8 C 0.4319(3) 0.1516(7) 0.8660(3)
H6 H 0.4742 0.2627 0.8968
C9 C 0.5029(4) -0.0241(7) 0.8748(3)
C10 C 0.6454(4) 0.1320(6) 0.7738(4)
H7 H 0.5835 0.2260 0.7628
H8 H 0.6548 0.0871 0.7027
C11 C 0.7626(4) 0.2176(6) 0.8296(4)
C12 C 0.7681(4) 0.3225(7) 0.9219(4)
H9 H 0.7000 0.3351 0.9530
C13 C 0.8745(4) 0.4107(10) 0.9698(4)
H10 H 0.8770 0.4834 1.0315
C14 C 0.9761(4) 0.3883(11) 0.9240(5)
H11 H 1.0475 0.4459 0.9553
C15 C 0.9720(5) 0.2822(10) 0.8335(6)
H12 H 1.0408 0.2675 0.8037
C16 C 0.8662(4) 0.1960(8) 0.7854(5)
H13 H 0.8643 0.1238 0.7236
C17 C 0.6806(4) -0.1872(6) 0.8431(4)
H14 H 0.6592 -0.2674 0.8986
H15 H 0.7641 -0.1523 0.8663
C18 C 0.6687(5) -0.2916(7) 0.7399(4)
C19 C 0.7693(5) -0.3413(8) 0.6979(5)
H16 H 0.8447 -0.3047 0.7344
C20 C 0.7614(8) -0.4410(12) 0.6058(7)
H17 H 0.8306 -0.4722 0.5800
C21 C 0.6518(10) -0.4959(10) 0.5506(6)
H18 H 0.6464 -0.5640 0.4869
C22 C 0.5493(8) -0.4508(11) 0.5890(6)
H19 H 0.4746 -0.4883 0.5514
C23 C 0.5579(5) -0.3489(8) 0.6844(5)
H20 H 0.4887 -0.3192 0.7109
loop_
_geom_bond_atom_site_label_1
_geom_bond_atom_site_label_2
_geom_bond_site_symmetry_1
_geom_bond_site_symmetry_2
Br1 C2 1_555 1_555
O1 C9 1_555 1_555
O2 C7 1_555 1_555
N1 C9 1_555 1_555
C1 H1 1_555 1_555
C2 C1 1_555 1_555
C3 C2 1_555 1_555
H2 C3 1_555 1_555
C4 C3 1_555 1_555
H3 C4 1_555 1_555
C5 C4 1_555 1_555
C6 C1 1_555 1_555
H4 C6 1_555 1_555
C7 C5 1_555 1_555
H5 C7 1_555 1_555
C8 O2 1_555 1_555
H6 C8 1_555 1_555
C9 C8 1_555 1_555
C10 N1 1_555 1_555
H7 C10 1_555 1_555
H8 C10 1_555 1_555
C11 C10 1_555 1_555
C12 C11 1_555 1_555
H9 C12 1_555 1_555
C13 C12 1_555 1_555
H10 C13 1_555 1_555
C14 C13 1_555 1_555
H11 C14 1_555 1_555
C15 C14 1_555 1_555
H12 C15 1_555 1_555
C16 C11 1_555 1_555
H13 C16 1_555 1_555
C17 N1 1_555 1_555
H14 C17 1_555 1_555
H15 C17 1_555 1_555
C18 C17 1_555 1_555
C19 C18 1_555 1_555
H16 C19 1_555 1_555
C20 C19 1_555 1_555
H17 C20 1_555 1_555
C21 C20 1_555 1_555
H18 C21 1_555 1_555
C22 C21 1_555 1_555
H19 C22 1_555 1_555
C23 C18 1_555 1_555
H20 C23 1_555 1_555
C5 C6 1_555 1_555
C7 C8 1_555 1_555
C15 C16 1_555 1_555
C22 C23 1_555 1_555

#END
