
#######################################################################
#
#                 Cambridge Crystallographic Data Centre
#                                CCDC 
#
#######################################################################
#
# If this CIF has been generated from an entry in the Cambridge 
# Structural Database, then it will include bibliographic, chemical, 
# crystal, experimental, refinement or atomic coordinate data resulting 
# from the CCDC's data processing and validation procedures.
#
#######################################################################

data_IQUFOR
_chemical_formula_moiety         'C20 H18 O4'
_chemical_name_systematic        
1-(methoxymethoxy)-4-(4-(4-(methoxymethoxy)phenyl)buta-1,3-diyn-1-yl)benzene
_symmetry_cell_setting           triclinic
_symmetry_space_group_name_H-M   'P -1'
_symmetry_Int_Tables_number      2
_space_group_name_Hall           '-P 1'
loop_
_symmetry_equiv_pos_site_id
_symmetry_equiv_pos_as_xyz
1 x,y,z
2 -x,-y,-z
_cell_length_a                   8.2971(16)
_cell_length_b                   9.2537(18)
_cell_length_c                   11.383(2)
_cell_angle_alpha                105.153(2)
_cell_angle_beta                 91.136(3)
_cell_angle_gamma                100.458(2)
_cell_volume                     827.487
_exptl_crystal_colour            colorless
_exptl_crystal_description       block
_cell_formula_units_Z            2
loop_
_atom_site_label
_atom_site_type_symbol
_atom_site_fract_x
_atom_site_fract_y
_atom_site_fract_z
O1 O 0.93859(8) 1.24667(8) 0.52846(6)
O2 O 0.73470(8) 1.28691(7) 0.40121(6)
O3 O 0.18747(9) -0.11814(7) 0.93814(6)
O4 O 0.14789(9) -0.36703(8) 0.94190(6)
C1 C 0.73694(12) 1.01015(11) 0.50259(9)
H1 H 0.6932 1.0149 0.4262
C2 C 0.67512(12) 0.88889(11) 0.54976(9)
H2 H 0.5901 0.8096 0.5044
C3 C 0.73639(11) 0.88173(10) 0.66331(8)
C4 C 0.86047(11) 1.00063(11) 0.72978(8)
H3 H 0.9009 0.9989 0.8080
C5 C 0.92459(11) 1.12058(11) 0.68235(9)
H4 H 1.0099 1.1999 0.7274
C6 C 0.86374(11) 1.12479(10) 0.56828(8)
C7 C 0.67257(11) 0.75534(10) 0.71023(9)
C8 C 0.61624(11) 0.64741(10) 0.74754(8)
C9 C 0.54909(11) 0.52114(10) 0.78485(8)
C10 C 0.48814(11) 0.40860(11) 0.81468(8)
C11 C 0.41536(11) 0.27389(10) 0.84785(8)
C12 C 0.27797(11) 0.27193(10) 0.91810(8)
H5 H 0.2340 0.3619 0.9456
C13 C 0.20625(11) 0.14026(10) 0.94757(8)
H6 H 0.1133 0.1400 0.9949
C14 C 0.27044(11) 0.00694(10) 0.90769(8)
C15 C 0.40897(11) 0.00808(10) 0.83996(8)
H7 H 0.4546 -0.0812 0.8146
C16 C 0.47969(11) 0.14062(10) 0.80991(8)
H8 H 0.5731 0.1408 0.7629
C17 C 0.25776(12) -0.25413(10) 0.90991(9)
H9 H 0.2750 -0.2858 0.8218
H10 H 0.3650 -0.2347 0.9566
C18 C 0.01454(13) -0.43810(11) 0.85215(9)
H11 H -0.0457 -0.3610 0.8395
H12 H -0.0596 -0.5155 0.8802
H13 H 0.0574 -0.4866 0.7752
C19 C 0.88960(11) 1.25092(11) 0.40889(9)
H14 H 0.9711 1.3275 0.3839
H15 H 0.8893 1.1502 0.3512
C20 C 0.72881(13) 1.43818(12) 0.47101(10)
H16 H 0.7518 1.4475 0.5577
H17 H 0.6193 1.4596 0.4584
H18 H 0.8113 1.5113 0.4448
loop_
_geom_bond_atom_site_label_1
_geom_bond_atom_site_label_2
_geom_bond_site_symmetry_1
_geom_bond_site_symmetry_2
O1 C6 1_555 1_555
O2 C19 1_555 1_555
O3 C14 1_555 1_555
O4 C17 1_555 1_555
C1 H1 1_555 1_555
C2 C1 1_555 1_555
H2 C2 1_555 1_555
C3 C2 1_555 1_555
C4 C3 1_555 1_555
H3 C4 1_555 1_555
C5 C4 1_555 1_555
H4 C5 1_555 1_555
C6 C1 1_555 1_555
C7 C3 1_555 1_555
C8 C7 1_555 1_555
C9 C8 1_555 1_555
C10 C9 1_555 1_555
C11 C10 1_555 1_555
C12 C11 1_555 1_555
H5 C12 1_555 1_555
C13 C12 1_555 1_555
H6 C13 1_555 1_555
C14 C13 1_555 1_555
C15 C14 1_555 1_555
H7 C15 1_555 1_555
C16 C11 1_555 1_555
H8 C16 1_555 1_555
C17 O3 1_555 1_555
H9 C17 1_555 1_555
H10 C17 1_555 1_555
C18 O4 1_555 1_555
H11 C18 1_555 1_555
H12 C18 1_555 1_555
H13 C18 1_555 1_555
C19 O1 1_555 1_555
H14 C19 1_555 1_555
H15 C19 1_555 1_555
C20 O2 1_555 1_555
H16 C20 1_555 1_555
H17 C20 1_555 1_555
H18 C20 1_555 1_555
C5 C6 1_555 1_555
C15 C16 1_555 1_555

#END
