
#######################################################################
#
#                 Cambridge Crystallographic Data Centre
#                                CCDC 
#
#######################################################################
#
# If this CIF has been generated from an entry in the Cambridge 
# Structural Database, then it will include bibliographic, chemical, 
# crystal, experimental, refinement or atomic coordinate data resulting 
# from the CCDC's data processing and validation procedures.
#
#######################################################################

data_IQUFUX
_chemical_formula_moiety         'C28 H22 O4'
_chemical_name_systematic        
2-(methoxymethoxy)-6-(4-(6-(methoxymethoxy)-2-naphthyl)buta-1,3-diyn-1-yl)naphthalene
_symmetry_cell_setting           monoclinic
_symmetry_space_group_name_H-M   'C 2/c'
_symmetry_Int_Tables_number      15
_space_group_name_Hall           '-C 2yn'
loop_
_symmetry_equiv_pos_site_id
_symmetry_equiv_pos_as_xyz
1 x,y,z
2 -x,y,1/2-z
3 1/2+x,1/2+y,z
4 1/2-x,1/2+y,1/2-z
5 -x,-y,-z
6 x,-y,1/2+z
7 1/2-x,1/2-y,-z
8 1/2+x,1/2-y,1/2+z
_cell_length_a                   37.2047(18)
_cell_length_b                   6.1595(3)
_cell_length_c                   9.1502(5)
_cell_angle_alpha                90
_cell_angle_beta                 90.038(3)
_cell_angle_gamma                90
_cell_volume                     2096.88
_exptl_crystal_colour            'light green'
_exptl_crystal_description       needle
_cell_formula_units_Z            4
loop_
_atom_site_label
_atom_site_type_symbol
_atom_site_fract_x
_atom_site_fract_y
_atom_site_fract_z
O1 O 0.31784(2) 0.66275(14) 0.72226(9)
O2 O 0.28578(2) 0.36172(13) 0.63968(9)
C1 C 0.48739(3) 0.9598(2) 0.04735(13)
C2 C 0.46565(3) 0.8890(2) 0.13268(13)
C3 C 0.44068(3) 0.8086(2) 0.23837(12)
C4 C 0.44508(3) 0.5970(2) 0.29915(13)
H1 H 0.4642 0.5072 0.2665
C5 C 0.42200(3) 0.5221(2) 0.40383(13)
H2 H 0.4253 0.3807 0.4431
C6 C 0.39308(3) 0.6524(2) 0.45480(12)
C7 C 0.38847(3) 0.86331(19) 0.39394(12)
C8 C 0.41256(3) 0.9367(2) 0.28515(13)
H3 H 0.4093 1.0767 0.2436
C9 C 0.36904(3) 0.57832(19) 0.56456(12)
H4 H 0.3719 0.4376 0.6055
C10 C 0.34175(3) 0.71070(19) 0.61112(12)
C11 C 0.33699(3) 0.9206(2) 0.55115(13)
H5 H 0.3179 1.0101 0.5846
C12 C 0.35974(3) 0.9944(2) 0.44548(13)
H6 H 0.3563 1.1354 0.4058
C13 C 0.30844(3) 0.4429(2) 0.74824(13)
H7 H 0.3306 0.3539 0.7522
H8 H 0.2963 0.4314 0.8442
C14 C 0.25156(3) 0.4679(2) 0.63748(15)
H9 H 0.2415 0.4705 0.7365
H10 H 0.2352 0.3890 0.5724
H11 H 0.2545 0.6170 0.6020
O1D O 0.68216(2) 1.33725(14) -0.72226(9)
O2D O 0.71422(2) 1.63828(13) -0.63968(9)
C1D C 0.51261(3) 1.0402(2) -0.04735(13)
C2D C 0.53435(3) 1.1110(2) -0.13268(13)
C3D C 0.55932(3) 1.1914(2) -0.23837(12)
C4D C 0.55492(3) 1.4030(2) -0.29915(13)
H1D H 0.5358 1.4928 -0.2665
C5D C 0.57800(3) 1.4779(2) -0.40383(13)
H2D H 0.5747 1.6193 -0.4431
C6D C 0.60692(3) 1.3476(2) -0.45480(12)
C7D C 0.61153(3) 1.13669(19) -0.39394(12)
C8D C 0.58744(3) 1.0633(2) -0.28515(13)
H3D H 0.5907 0.9233 -0.2436
C9D C 0.63096(3) 1.42168(19) -0.56456(12)
H4D H 0.6281 1.5624 -0.6055
C10D C 0.65825(3) 1.28930(19) -0.61112(12)
C11D C 0.66301(3) 1.0794(2) -0.55115(13)
H5D H 0.6821 0.9899 -0.5846
C12D C 0.64026(3) 1.0056(2) -0.44548(13)
H6D H 0.6437 0.8646 -0.4058
C13D C 0.69156(3) 1.5571(2) -0.74824(13)
H7D H 0.6694 1.6461 -0.7522
H8D H 0.7037 1.5686 -0.8442
C14D C 0.74844(3) 1.5321(2) -0.63748(15)
H9D H 0.7585 1.5295 -0.7365
H10D H 0.7648 1.6110 -0.5724
H11D H 0.7455 1.3830 -0.6020
loop_
_geom_bond_atom_site_label_1
_geom_bond_atom_site_label_2
_geom_bond_site_symmetry_1
_geom_bond_site_symmetry_2
O1 C10 1_555 1_555
O2 C13 1_555 1_555
C1 C2 1_555 1_555
C2 C3 1_555 1_555
C3 C4 1_555 1_555
C4 H1 1_555 1_555
C5 C4 1_555 1_555
H2 C5 1_555 1_555
C6 C5 1_555 1_555
C7 C6 1_555 1_555
C8 C3 1_555 1_555
H3 C8 1_555 1_555
C9 C6 1_555 1_555
H4 C9 1_555 1_555
C10 C9 1_555 1_555
C11 C10 1_555 1_555
H5 C11 1_555 1_555
C12 C7 1_555 1_555
H6 C12 1_555 1_555
C13 O1 1_555 1_555
H7 C13 1_555 1_555
H8 C13 1_555 1_555
C14 O2 1_555 1_555
H9 C14 1_555 1_555
H10 C14 1_555 1_555
H11 C14 1_555 1_555
O1D C10D 1_555 1_555
O2D C13D 1_555 1_555
C1D C1 1_555 1_555
C2D C1D 1_555 1_555
C3D C2D 1_555 1_555
C4D C3D 1_555 1_555
H1D C4D 1_555 1_555
C5D C4D 1_555 1_555
H2D C5D 1_555 1_555
C6D C5D 1_555 1_555
C7D C6D 1_555 1_555
C8D C3D 1_555 1_555
H3D C8D 1_555 1_555
C9D C6D 1_555 1_555
H4D C9D 1_555 1_555
C10D C9D 1_555 1_555
C11D C10D 1_555 1_555
H5D C11D 1_555 1_555
C12D C7D 1_555 1_555
H6D C12D 1_555 1_555
C13D O1D 1_555 1_555
H7D C13D 1_555 1_555
H8D C13D 1_555 1_555
C14D O2D 1_555 1_555
H9D C14D 1_555 1_555
H10D C14D 1_555 1_555
H11D C14D 1_555 1_555
C7 C8 1_555 1_555
C11 C12 1_555 1_555
C7D C8D 1_555 1_555
C11D C12D 1_555 1_555

#END
