
#######################################################################
#
#                 Cambridge Crystallographic Data Centre
#                                CCDC 
#
#######################################################################
#
# If this CIF has been generated from an entry in the Cambridge 
# Structural Database, then it will include bibliographic, chemical, 
# crystal, experimental, refinement or atomic coordinate data resulting 
# from the CCDC's data processing and validation procedures.
#
#######################################################################

data_IQUNIT
_chemical_name_common            'dichotocejpin B'
_chemical_formula_moiety         'C15 H16 N2 O5'
_chemical_name_systematic        
'10a-hydroxy-2-methyl-3-methylene-1,4-dioxo-1,2,3,4,5a,6,10,10a-octahydropyrazino[1,2-a]indol-6-yl acetate'
_symmetry_cell_setting           orthorhombic
_symmetry_space_group_name_H-M   'P 21 21 21'
_symmetry_Int_Tables_number      19
_space_group_name_Hall           'P 2ac 2ab'
loop_
_symmetry_equiv_pos_site_id
_symmetry_equiv_pos_as_xyz
1 x,y,z
2 1/2-x,-y,1/2+z
3 1/2+x,1/2-y,-z
4 -x,1/2+y,1/2-z
_cell_length_a                   8.58255(15)
_cell_length_b                   10.5549(2)
_cell_length_c                   16.0203(3)
_cell_angle_alpha                90
_cell_angle_beta                 90
_cell_angle_gamma                90
_cell_volume                     1451.25
_exptl_crystal_colour            colorless
_exptl_crystal_description       block
_cell_formula_units_Z            4
loop_
_atom_site_label
_atom_site_type_symbol
_atom_site_fract_x
_atom_site_fract_y
_atom_site_fract_z
C1 C 0.3210(3) 0.2457(2) 0.17414(15)
N1 N 0.3066(2) 0.36112(18) 0.13592(12)
C2 C 0.2786(3) 0.4722(3) 0.18775(17)
H1 H 0.2604 0.4456 0.2455
H2 H 0.1869 0.5177 0.1670
H3 H 0.3697 0.5282 0.1856
C3 C 0.3436(2) 0.3806(2) 0.05156(14)
C4 C 0.3378(3) 0.4928(2) 0.01459(17)
H4 H 0.3073 0.5656 0.0455
H5 H 0.3641 0.5005 -0.0428
C5 C 0.3958(2) 0.2699(2) 0.00083(14)
N2 N 0.3698(2) 0.15388(17) 0.03233(11)
C6 C 0.4412(2) 0.0416(2) -0.00640(14)
H6 H 0.5436 0.0677 -0.0306
C7 C 0.3498(3) -0.0265(2) -0.07395(14)
H7 H 0.2372 -0.0334 -0.0586
C8 C 0.4206(3) -0.1560(2) -0.08810(16)
H8 H 0.4121 -0.1941 -0.1416
C9 C 0.4943(3) -0.2179(2) -0.02748(16)
H9 H 0.5417 -0.2973 -0.0392
C10 C 0.5034(3) -0.1656(2) 0.05686(16)
H10 H 0.5304 -0.2182 0.1028
C11 C 0.4734(2) -0.0434(2) 0.06830(15)
C12 C 0.4568(3) 0.0351(2) 0.14564(15)
H11 H 0.5549 0.0799 0.1593
H12 H 0.4243 -0.0170 0.1940
C13 C 0.3285(3) 0.1280(2) 0.11966(13)
C14 C 0.2662(3) 0.1328(2) -0.17133(15)
C15 C 0.3143(3) 0.1999(2) -0.24904(15)
H13 H 0.2249 0.2460 -0.2720
H14 H 0.3514 0.1380 -0.2901
H15 H 0.3981 0.2598 -0.2361
O1 O 0.3191(2) 0.23314(19) 0.24999(11)
O2 O 0.45710(17) 0.28449(15) -0.06829(10)
O3 O 0.36910(18) 0.04028(15) -0.15255(9)
O4 O 0.15347(19) 0.15742(17) -0.12987(11)
O5 O 0.18597(18) 0.06266(15) 0.12384(10)
H16 H 0.109(3) 0.112(3) 0.1041(17)
loop_
_geom_bond_atom_site_label_1
_geom_bond_atom_site_label_2
_geom_bond_site_symmetry_1
_geom_bond_site_symmetry_2
C1 N1 1_555 1_555
N1 C2 1_555 1_555
C2 H1 1_555 1_555
H2 C2 1_555 1_555
H3 C2 1_555 1_555
C3 N1 1_555 1_555
C4 C3 1_555 1_555
H4 C4 1_555 1_555
H5 C4 1_555 1_555
C5 C3 1_555 1_555
N2 C5 1_555 1_555
C6 N2 1_555 1_555
H6 C6 1_555 1_555
C7 C6 1_555 1_555
H7 C7 1_555 1_555
C8 C7 1_555 1_555
H8 C8 1_555 1_555
C9 C8 1_555 1_555
H9 C9 1_555 1_555
C10 C9 1_555 1_555
H10 C10 1_555 1_555
C11 C6 1_555 1_555
C12 C11 1_555 1_555
H11 C12 1_555 1_555
H12 C12 1_555 1_555
C13 C1 1_555 1_555
C14 C15 1_555 1_555
C15 H13 1_555 1_555
H14 C15 1_555 1_555
H15 C15 1_555 1_555
O1 C1 1_555 1_555
O2 C5 1_555 1_555
O3 C7 1_555 1_555
O4 C14 1_555 1_555
O5 C13 1_555 1_555
H16 O5 1_555 1_555
N2 C13 1_555 1_555
C10 C11 1_555 1_555
C12 C13 1_555 1_555
C14 O3 1_555 1_555

#END
