
#######################################################################
#
#                 Cambridge Crystallographic Data Centre
#                                CCDC 
#
#######################################################################
#
# If this CIF has been generated from an entry in the Cambridge 
# Structural Database, then it will include bibliographic, chemical, 
# crystal, experimental, refinement or atomic coordinate data resulting 
# from the CCDC's data processing and validation procedures.
#
#######################################################################

data_IQUPIU01
_chemical_formula_moiety         'C13 H10 S1'
_chemical_name_systematic        3-methyldibenzo[b,d]thiophene
_symmetry_cell_setting           orthorhombic
_symmetry_space_group_name_H-M   'P c a 21'
_symmetry_Int_Tables_number      29
_space_group_name_Hall           'P 2c -2ac'
loop_
_symmetry_equiv_pos_site_id
_symmetry_equiv_pos_as_xyz
1 x,y,z
2 -x,-y,1/2+z
3 1/2-x,y,1/2+z
4 1/2+x,-y,z
_cell_length_a                   11.028(5)
_cell_length_b                   11.815(5)
_cell_length_c                   7.995(5)
_cell_angle_alpha                90
_cell_angle_beta                 90
_cell_angle_gamma                90
_cell_volume                     1041.72
_exptl_crystal_colour            colorless
_exptl_crystal_description       prism
_chemical_melting_point          '351-352 K'
_cell_formula_units_Z            4
_exptl_crystal_recrystallization_method chloroform/hexane
loop_
_atom_site_label
_atom_site_type_symbol
_atom_site_fract_x
_atom_site_fract_y
_atom_site_fract_z
S1 S -0.95155(5) -0.74560(6) 1.01627(16)
C1 C -1.0422(2) -0.6290(3) 0.9703(3)
C2 C -1.0196(2) -0.5186(2) 1.0142(4)
H1 H -0.9507 -0.5004 1.0757
C3 C -1.0999(2) -0.4342(2) 0.9658(3)
C4 C -1.2029(2) -0.4650(3) 0.8750(4)
H2 H -1.2573 -0.4090 0.8426
C5 C -1.2264(2) -0.5750(3) 0.8322(3)
H3 H -1.2958 -0.5928 0.7716
C6 C -1.14594(19) -0.6609(2) 0.8798(3)
C7 C -1.1513(2) -0.7803(2) 0.8475(3)
C8 C -1.0511(2) -0.8377(3) 0.9134(4)
C9 C -1.0391(3) -0.9532(3) 0.8958(5)
H4 H -0.9724 -0.9905 0.9407
C10 C -1.1268(4) -1.0126(3) 0.8115(5)
H5 H -1.1198 -1.0906 0.7989
C11 C -1.2255(4) -0.9563(3) 0.7452(5)
H6 H -1.2839 -0.9973 0.6872
C12 C -1.2397(3) -0.8426(3) 0.7626(4)
H7 H -1.3075 -0.8066 0.7184
C13 C -1.0766(3) -0.3137(3) 1.0130(6)
H8 H -1.1400 -0.2667 0.9688
H9 H -1.0747 -0.3068 1.1326
H10 H -1.0001 -0.2903 0.9675
loop_
_geom_bond_atom_site_label_1
_geom_bond_atom_site_label_2
_geom_bond_site_symmetry_1
_geom_bond_site_symmetry_2
S1 C1 1_555 1_555
C1 C2 1_555 1_555
C2 H1 1_555 1_555
C3 C2 1_555 1_555
C4 C3 1_555 1_555
H2 C4 1_555 1_555
C5 C4 1_555 1_555
H3 C5 1_555 1_555
C6 C1 1_555 1_555
C7 C6 1_555 1_555
C8 S1 1_555 1_555
C9 C8 1_555 1_555
H4 C9 1_555 1_555
C10 C9 1_555 1_555
H5 C10 1_555 1_555
C11 C10 1_555 1_555
H6 C11 1_555 1_555
C12 C7 1_555 1_555
H7 C12 1_555 1_555
C13 C3 1_555 1_555
H8 C13 1_555 1_555
H9 C13 1_555 1_555
H10 C13 1_555 1_555
C5 C6 1_555 1_555
C7 C8 1_555 1_555
C11 C12 1_555 1_555

#END
