
#######################################################################
#
#                 Cambridge Crystallographic Data Centre
#                                CCDC 
#
#######################################################################
#
# If this CIF has been generated from an entry in the Cambridge 
# Structural Database, then it will include bibliographic, chemical, 
# crystal, experimental, refinement or atomic coordinate data resulting 
# from the CCDC's data processing and validation procedures.
#
#######################################################################

data_IQUSUK
_chemical_formula_moiety         'C29 H27 Br1 O6 S2'
_chemical_name_systematic        
'ethyl 6-(4-bromophenyl)-2-ethylidene-3,5-bis(phenylsulfonyl)cyclohex-3-ene-1-carboxylate'
_symmetry_cell_setting           monoclinic
_symmetry_space_group_name_H-M   'P 21/n'
_symmetry_Int_Tables_number      14
_space_group_name_Hall           '-P 2yn'
loop_
_symmetry_equiv_pos_site_id
_symmetry_equiv_pos_as_xyz
1 x,y,z
2 1/2-x,1/2+y,1/2-z
3 -x,-y,-z
4 1/2+x,1/2-y,1/2+z
_cell_length_a                   12.889(3)
_cell_length_b                   17.313(4)
_cell_length_c                   12.922(3)
_cell_angle_alpha                90
_cell_angle_beta                 107.10(3)
_cell_angle_gamma                90
_cell_volume                     2756.04
_cell_formula_units_Z            4
loop_
_atom_site_label
_atom_site_type_symbol
_atom_site_fract_x
_atom_site_fract_y
_atom_site_fract_z
Br1 Br 1.020867(17) 1.082075(13) 0.856692(18)
S1 S 0.66206(4) 0.83115(3) 0.45925(4)
S2 S 0.28473(4) 0.76392(3) 0.51713(4)
O1 O 0.74997(12) 0.88498(9) 0.47252(12)
O2 O 0.59164(12) 0.81527(9) 0.35170(11)
O3 O 0.25398(11) 0.77779(9) 0.40192(11)
O4 O 0.27841(12) 0.68577(9) 0.55311(13)
O5 O 0.47149(12) 0.98708(10) 0.63400(12)
O6 O 0.46234(12) 0.96297(9) 0.80190(12)
C1 C 0.54991(15) 0.86944(12) 0.72683(15)
H1 H 0.5895 0.8620 0.8053
C2 C 0.63304(15) 0.86233(12) 0.66178(15)
H2 H 0.6646 0.8093 0.6763
C3 C 0.57684(15) 0.86669(12) 0.53872(15)
H3 H 0.5637 0.9227 0.5206
C4 C 0.46786(15) 0.82790(12) 0.50454(16)
H4 H 0.4320 0.8226 0.4293
C5 C 0.41892(15) 0.80053(12) 0.57460(16)
C6 C 0.46264(15) 0.80752(12) 0.69343(15)
C7 C 0.42710(17) 0.76660(13) 0.76379(17)
H5 H 0.3733 0.7288 0.7336
C8 C 0.46197(19) 0.77332(16) 0.88472(17)
H6 H 0.4220 0.7357 0.9150
H7 H 0.4467 0.8256 0.9054
H8 H 0.5400 0.7630 0.9129
C9 C 0.72672(16) 0.91816(12) 0.70555(16)
C10 C 0.72744(16) 0.99327(12) 0.66772(16)
H9 H 0.6680 1.0111 0.6100
C11 C 0.81428(17) 1.04288(13) 0.71327(16)
H10 H 0.8142 1.0941 0.6870
C12 C 0.90022(16) 1.01625(12) 0.79707(16)
C13 C 0.90069(17) 0.94250(13) 0.83797(16)
H11 H 0.9595 0.9254 0.8968
C14 C 0.81367(16) 0.89374(12) 0.79170(16)
H12 H 0.8135 0.8429 0.8193
C15 C 0.71685(16) 0.74236(13) 0.51718(16)
C16 C 0.81611(18) 0.74241(15) 0.59745(17)
H13 H 0.8529 0.7895 0.6220
C17 C 0.86043(19) 0.67244(17) 0.64101(19)
H14 H 0.9274 0.6715 0.6971
C18 C 0.8074(2) 0.60407(16) 0.60312(19)
H15 H 0.8389 0.5563 0.6326
C19 C 0.70830(19) 0.60461(14) 0.5221(2)
H16 H 0.6723 0.5574 0.4962
C20 C 0.66264(17) 0.67449(13) 0.47946(17)
H17 H 0.5947 0.6757 0.4248
C21 C 0.20500(15) 0.82359(12) 0.57466(16)
C22 C 0.20065(17) 0.90230(13) 0.55221(17)
H18 H 0.2432 0.9237 0.5106
C23 C 0.13314(18) 0.94919(14) 0.59151(19)
H19 H 0.1286 1.0030 0.5762
C24 C 0.07247(19) 0.91703(15) 0.6532(2)
H20 H 0.0253 0.9489 0.6789
C25 C 0.08000(17) 0.83903(15) 0.67771(17)
H21 H 0.0394 0.8180 0.7216
C26 C 0.14650(16) 0.79138(14) 0.63845(16)
H22 H 0.1518 0.7378 0.6550
C27 C 0.49229(16) 0.94692(12) 0.71398(16)
C28 C 0.39141(18) 1.02973(14) 0.79549(19)
H23 H 0.3414 1.0347 0.7213
H24 H 0.4352 1.0775 0.8132
C29 C 0.3285(6) 1.0182(6) 0.8742(7)
H25 H 0.2801 1.0624 0.8710
H26 H 0.3786 1.0137 0.9475
H27 H 0.2852 0.9709 0.8560
H28? H 0.3214 1.0218 0.7388
H29? H 0.4260 1.0770 0.7780
C30? C 0.3740(8) 1.0367(6) 0.9041(8)
H30? H 0.3265 1.0809 0.9044
H31? H 0.4439 1.0444 0.9592
H32? H 0.3400 0.9894 0.9203
loop_
_geom_bond_atom_site_label_1
_geom_bond_atom_site_label_2
_geom_bond_site_symmetry_1
_geom_bond_site_symmetry_2
Br1 C12 1_555 1_555
S1 O1 1_555 1_555
S2 O3 1_555 1_555
O2 S1 1_555 1_555
O4 S2 1_555 1_555
O5 C27 1_555 1_555
O6 C27 1_555 1_555
C1 H1 1_555 1_555
C2 C1 1_555 1_555
H2 C2 1_555 1_555
C3 S1 1_555 1_555
H3 C3 1_555 1_555
C4 C3 1_555 1_555
H4 C4 1_555 1_555
C5 S2 1_555 1_555
C6 C1 1_555 1_555
C7 C6 1_555 1_555
H5 C7 1_555 1_555
C8 C7 1_555 1_555
H6 C8 1_555 1_555
H7 C8 1_555 1_555
H8 C8 1_555 1_555
C9 C2 1_555 1_555
C10 C9 1_555 1_555
H9 C10 1_555 1_555
C11 C10 1_555 1_555
H10 C11 1_555 1_555
C12 C11 1_555 1_555
C13 C12 1_555 1_555
H11 C13 1_555 1_555
C14 C9 1_555 1_555
H12 C14 1_555 1_555
C15 S1 1_555 1_555
C16 C15 1_555 1_555
H13 C16 1_555 1_555
C17 C16 1_555 1_555
H14 C17 1_555 1_555
C18 C17 1_555 1_555
H15 C18 1_555 1_555
C19 C18 1_555 1_555
H16 C19 1_555 1_555
C20 C15 1_555 1_555
H17 C20 1_555 1_555
C21 S2 1_555 1_555
C22 C21 1_555 1_555
H18 C22 1_555 1_555
C23 C22 1_555 1_555
H19 C23 1_555 1_555
C24 C23 1_555 1_555
H20 C24 1_555 1_555
C25 C24 1_555 1_555
H21 C25 1_555 1_555
C26 C21 1_555 1_555
H22 C26 1_555 1_555
C27 C1 1_555 1_555
C28 O6 1_555 1_555
H23 C28 1_555 1_555
H24 C28 1_555 1_555
C29 C28 1_555 1_555
H25 C29 1_555 1_555
H26 C29 1_555 1_555
H27 C29 1_555 1_555
C2 C3 1_555 1_555
C4 C5 1_555 1_555
C5 C6 1_555 1_555
C13 C14 1_555 1_555
C19 C20 1_555 1_555
C25 C26 1_555 1_555

#END
