
#######################################################################
#
#                 Cambridge Crystallographic Data Centre
#                                CCDC 
#
#######################################################################
#
# If this CIF has been generated from an entry in the Cambridge 
# Structural Database, then it will include bibliographic, chemical, 
# crystal, experimental, refinement or atomic coordinate data resulting 
# from the CCDC's data processing and validation procedures.
#
#######################################################################

data_IQUTEU
_chemical_formula_moiety         'C18 H20 Br1 N1 O1'
_chemical_name_systematic        
anti-1-((4-Bromophenyl)amino)-2-methyl-1-phenylpentan-3-one
_symmetry_cell_setting           triclinic
_symmetry_space_group_name_H-M   'P -1'
_symmetry_Int_Tables_number      2
_space_group_name_Hall           '-P 1'
loop_
_symmetry_equiv_pos_site_id
_symmetry_equiv_pos_as_xyz
1 x,y,z
2 -x,-y,-z
_cell_length_a                   8.4660(3)
_cell_length_b                   8.7381(3)
_cell_length_c                   12.4696(4)
_cell_angle_alpha                82.463(2)
_cell_angle_beta                 83.111(2)
_cell_angle_gamma                69.026(2)
_cell_volume                     851.24
_exptl_crystal_colour            colorless
_exptl_crystal_description       block
_cell_formula_units_Z            2
loop_
_atom_site_label
_atom_site_type_symbol
_atom_site_fract_x
_atom_site_fract_y
_atom_site_fract_z
Br1 Br -0.05110(4) 0.78107(5) 0.57793(3)
C1 C 0.3633(3) 0.4700(3) 0.40679(19)
H1 H 0.4610 0.3821 0.4240
C2 C 0.2484(3) 0.5454(3) 0.4892(2)
H2 H 0.2690 0.5076 0.5613
C3 C 0.1049(3) 0.6752(3) 0.4650(2)
C4 C 0.0728(4) 0.7301(4) 0.3584(2)
H3 H -0.0255 0.8177 0.3420
C5 C 0.1864(3) 0.6549(3) 0.2763(2)
H4 H 0.1637 0.6924 0.2045
C6 C 0.3347(3) 0.5237(3) 0.29871(18)
C7 C 0.5954(3) 0.3096(3) 0.22723(19)
H5 H 0.6596 0.3213 0.2841
C8 C 0.5472(3) 0.1575(3) 0.26149(19)
C9 C 0.4291(4) 0.1266(4) 0.2088(2)
H6 H 0.3783 0.1990 0.1510
C10 C 0.3860(4) -0.0119(4) 0.2418(3)
H7 H 0.3058 -0.0320 0.2063
C11 C 0.4612(4) -0.1197(4) 0.3268(3)
H8 H 0.4323 -0.2128 0.3486
C12 C 0.5781(4) -0.0904(3) 0.3791(2)
H9 H 0.6292 -0.1635 0.4365
C13 C 0.6205(3) 0.0477(3) 0.3469(2)
H10 H 0.6999 0.0673 0.3834
C14 C 0.7097(3) 0.2936(3) 0.1204(2)
H11 H 0.6498 0.2708 0.0653
C15 C 0.7415(3) 0.4526(3) 0.0808(2)
C16 C 0.8059(5) 0.5337(4) 0.1555(2)
H12 H 0.7331 0.5464 0.2224
H13 H 0.9186 0.4613 0.1732
C17 C 0.8144(5) 0.6978(4) 0.1114(3)
H14 H 0.8918 0.6859 0.0476
H15 H 0.8531 0.7426 0.1650
H16 H 0.7037 0.7706 0.0931
C18 C 0.8776(4) 0.1506(4) 0.1309(3)
H17 H 0.9467 0.1465 0.0637
H18 H 0.8559 0.0492 0.1479
H19 H 0.9359 0.1660 0.1878
H20 H 0.409(3) 0.481(3) 0.154(2)
N1 N 0.4514(3) 0.4608(3) 0.21334(17)
O1 O 0.7199(3) 0.5097(3) -0.01187(15)
loop_
_geom_bond_atom_site_label_1
_geom_bond_atom_site_label_2
_geom_bond_site_symmetry_1
_geom_bond_site_symmetry_2
Br1 C3 1_555 1_555
C1 H1 1_555 1_555
C2 C1 1_555 1_555
H2 C2 1_555 1_555
C3 C2 1_555 1_555
C4 C3 1_555 1_555
H3 C4 1_555 1_555
C5 C4 1_555 1_555
H4 C5 1_555 1_555
C6 C1 1_555 1_555
C7 H5 1_555 1_555
C8 C7 1_555 1_555
C9 C8 1_555 1_555
H6 C9 1_555 1_555
C10 C9 1_555 1_555
H7 C10 1_555 1_555
C11 C10 1_555 1_555
H8 C11 1_555 1_555
C12 C11 1_555 1_555
H9 C12 1_555 1_555
C13 C8 1_555 1_555
H10 C13 1_555 1_555
C14 C7 1_555 1_555
H11 C14 1_555 1_555
C15 C14 1_555 1_555
C16 C15 1_555 1_555
H12 C16 1_555 1_555
H13 C16 1_555 1_555
C17 C16 1_555 1_555
H14 C17 1_555 1_555
H15 C17 1_555 1_555
H16 C17 1_555 1_555
C18 C14 1_555 1_555
H17 C18 1_555 1_555
H18 C18 1_555 1_555
H19 C18 1_555 1_555
H20 N1 1_555 1_555
N1 C6 1_555 1_555
O1 C15 1_555 1_555
C5 C6 1_555 1_555
C7 N1 1_555 1_555
C12 C13 1_555 1_555

#END
