
#######################################################################
#
#                 Cambridge Crystallographic Data Centre
#                                CCDC 
#
#######################################################################
#
# If this CIF has been generated from an entry in the Cambridge 
# Structural Database, then it will include bibliographic, chemical, 
# crystal, experimental, refinement or atomic coordinate data resulting 
# from the CCDC's data processing and validation procedures.
#
#######################################################################

data_IQUTAR
_chemical_formula_moiety         'C29 H25 Br1 O6 S2'
_chemical_name_systematic        
"ethyl 4'-bromo-3-ethyl-4,6-bis(phenylsulfonyl)biphenyl-2-carboxylate"
_symmetry_cell_setting           orthorhombic
_symmetry_space_group_name_H-M   'P n a 21'
_symmetry_Int_Tables_number      33
_space_group_name_Hall           'P 2c -2n'
loop_
_symmetry_equiv_pos_site_id
_symmetry_equiv_pos_as_xyz
1 x,y,z
2 -x,-y,1/2+z
3 1/2-x,1/2+y,1/2+z
4 1/2+x,1/2-y,z
_cell_length_a                   17.088(3)
_cell_length_b                   8.3597(17)
_cell_length_c                   18.284(4)
_cell_angle_alpha                90
_cell_angle_beta                 90
_cell_angle_gamma                90
_cell_volume                     2611.88
_cell_formula_units_Z            4
loop_
_atom_site_label
_atom_site_type_symbol
_atom_site_fract_x
_atom_site_fract_y
_atom_site_fract_z
Br1 Br 0.246256(10) 0.56717(2) 0.460065(16)
S1 S 0.01622(2) 0.03294(5) -0.02835(2)
S2 S 0.19304(2) 0.00116(5) 0.21293(3)
O1 O 0.01193(7) 0.13512(15) -0.09131(7)
O2 O 0.06131(6) -0.11199(14) -0.03217(8)
O3 O 0.21719(7) -0.12757(15) 0.16536(8)
O4 O 0.15860(7) -0.03955(15) 0.28199(8)
O5 O 0.07215(7) 0.65187(15) 0.11541(8)
O6 O -0.00207(7) 0.54890(13) 0.20566(8)
C1 C 0.05211(9) 0.1414(2) 0.04928(10)
C2 C 0.09901(9) 0.0530(2) 0.09616(11)
H1 H 0.1119 -0.0546 0.0846
C3 C 0.12721(9) 0.1220(2) 0.16018(10)
C4 C 0.10752(9) 0.2800(2) 0.17921(10)
C5 C 0.06212(9) 0.3671(2) 0.12915(11)
C6 C 0.03402(9) 0.3033(2) 0.06328(11)
C7 C -0.01123(10) 0.4066(2) 0.01137(11)
H2 H -0.0401 0.4890 0.0393
H3 H -0.0500 0.3402 -0.0150
C8 C 0.04314(10) 0.4890(2) -0.04441(13)
H4 H 0.0776 0.5641 -0.0189
H5 H 0.0115 0.5471 -0.0804
H6 H 0.0748 0.4080 -0.0695
C9 C -0.07998(10) -0.0215(2) -0.00270(10)
C10 C -0.08873(10) -0.1419(2) 0.04884(11)
H7 H -0.0441 -0.1908 0.0703
C11 C -0.16344(11) -0.1901(2) 0.06864(12)
H8 H -0.1704 -0.2726 0.1038
C12 C -0.22791(11) -0.1174(3) 0.03680(12)
H9 H -0.2791 -0.1497 0.0508
C13 C -0.21868(11) 0.0019(2) -0.01510(12)
H10 H -0.2634 0.0502 -0.0367
C14 C -0.14394(9) 0.0510(2) -0.03563(14)
H11 H -0.1369 0.1322 -0.0714
C15 C 0.27465(9) 0.1273(2) 0.22761(11)
C16 C 0.31278(10) 0.1917(2) 0.16751(12)
H12 H 0.2959 0.1673 0.1193
C17 C 0.37632(10) 0.2928(3) 0.17925(14)
H13 H 0.4025 0.3400 0.1388
C18 C 0.40122(11) 0.3246(2) 0.24961(14)
H14 H 0.4450 0.3926 0.2572
C19 C 0.36304(11) 0.2585(2) 0.30927(13)
H15 H 0.3807 0.2808 0.3575
C20 C 0.29841(10) 0.1587(2) 0.29825(11)
H16 H 0.2714 0.1133 0.3386
C21 C 0.13640(9) 0.3565(2) 0.24785(10)
C22 C 0.18651(10) 0.4885(2) 0.24385(11)
H17 H 0.2000 0.5322 0.1976
C23 C 0.21651(10) 0.5556(2) 0.30710(11)
H18 H 0.2501 0.6459 0.3045
C24 C 0.19713(10) 0.4899(2) 0.37395(11)
C25 C 0.14445(10) 0.3648(2) 0.37955(11)
H19 H 0.1295 0.3248 0.4261
C26 C 0.11376(10) 0.2985(2) 0.31598(11)
H20 H 0.0772 0.2132 0.3191
C27 C 0.04497(9) 0.5399(2) 0.14858(11)
C28 C -0.01266(11) 0.7056(2) 0.23968(14)
H21 H -0.0027 0.7912 0.2034
H22 H 0.0248 0.7188 0.2806
C29 C -0.09392(10) 0.7172(2) 0.26723(12)
H23 H -0.1305 0.7126 0.2260
H24 H -0.1007 0.8187 0.2933
H25 H -0.1044 0.6281 0.3006
loop_
_geom_bond_atom_site_label_1
_geom_bond_atom_site_label_2
_geom_bond_site_symmetry_1
_geom_bond_site_symmetry_2
Br1 C24 1_555 1_555
S1 O1 1_555 1_555
S2 O3 1_555 1_555
O2 S1 1_555 1_555
O4 S2 1_555 1_555
O5 C27 1_555 1_555
O6 C27 1_555 1_555
C1 S1 1_555 1_555
C2 C1 1_555 1_555
H1 C2 1_555 1_555
C3 S2 1_555 1_555
C4 C3 1_555 1_555
C5 C4 1_555 1_555
C6 C1 1_555 1_555
C7 C6 1_555 1_555
H2 C7 1_555 1_555
H3 C7 1_555 1_555
C8 C7 1_555 1_555
H4 C8 1_555 1_555
H5 C8 1_555 1_555
H6 C8 1_555 1_555
C9 S1 1_555 1_555
C10 C9 1_555 1_555
H7 C10 1_555 1_555
C11 C10 1_555 1_555
H8 C11 1_555 1_555
C12 C11 1_555 1_555
H9 C12 1_555 1_555
C13 C12 1_555 1_555
H10 C13 1_555 1_555
C14 C9 1_555 1_555
H11 C14 1_555 1_555
C15 S2 1_555 1_555
C16 C15 1_555 1_555
H12 C16 1_555 1_555
C17 C16 1_555 1_555
H13 C17 1_555 1_555
C18 C17 1_555 1_555
H14 C18 1_555 1_555
C19 C18 1_555 1_555
H15 C19 1_555 1_555
C20 C15 1_555 1_555
H16 C20 1_555 1_555
C21 C4 1_555 1_555
C22 C21 1_555 1_555
H17 C22 1_555 1_555
C23 C22 1_555 1_555
H18 C23 1_555 1_555
C24 C23 1_555 1_555
C25 C24 1_555 1_555
H19 C25 1_555 1_555
C26 C21 1_555 1_555
H20 C26 1_555 1_555
C27 C5 1_555 1_555
C28 O6 1_555 1_555
H21 C28 1_555 1_555
H22 C28 1_555 1_555
C29 C28 1_555 1_555
H23 C29 1_555 1_555
H24 C29 1_555 1_555
H25 C29 1_555 1_555
C2 C3 1_555 1_555
C5 C6 1_555 1_555
C13 C14 1_555 1_555
C19 C20 1_555 1_555
C25 C26 1_555 1_555

#END
