
#######################################################################
#
#                 Cambridge Crystallographic Data Centre
#                                CCDC 
#
#######################################################################
#
# If this CIF has been generated from an entry in the Cambridge 
# Structural Database, then it will include bibliographic, chemical, 
# crystal, experimental, refinement or atomic coordinate data resulting 
# from the CCDC's data processing and validation procedures.
#
#######################################################################

data_IQUTAQ
_chemical_formula_moiety         'C18 H20 Br1 N1 O1'
_chemical_name_systematic        
syn-1-((4-Bromophenyl)amino)-2-methyl-1-phenylpentan-3-one
_symmetry_cell_setting           monoclinic
_symmetry_space_group_name_H-M   'P 21/c'
_symmetry_Int_Tables_number      14
_space_group_name_Hall           '-P 2ybc'
loop_
_symmetry_equiv_pos_site_id
_symmetry_equiv_pos_as_xyz
1 x,y,z
2 -x,1/2+y,1/2-z
3 -x,-y,-z
4 x,1/2-y,1/2+z
_cell_length_a                   13.2779(6)
_cell_length_b                   5.7740(3)
_cell_length_c                   22.2981(9)
_cell_angle_alpha                90
_cell_angle_beta                 101.186(2)
_cell_angle_gamma                90
_cell_volume                     1677.04
_exptl_crystal_colour            colorless
_exptl_crystal_description       stick
_cell_formula_units_Z            4
loop_
_atom_site_label
_atom_site_type_symbol
_atom_site_fract_x
_atom_site_fract_y
_atom_site_fract_z
Br1 Br 0.08577(3) 1.22420(9) 0.380409(18)
C1 C 0.1266(2) 1.1704(7) 0.30417(15)
C2 C 0.1052(2) 1.3353(6) 0.25924(16)
H1 H 0.0722 1.4718 0.2663
C3 C 0.1328(2) 1.2975(6) 0.20375(15)
H2 H 0.1175 1.4087 0.1732
C4 C 0.1836(2) 1.0945(5) 0.19250(13)
C5 C 0.2048(2) 0.9321(6) 0.23893(13)
H3 H 0.2389 0.7960 0.2328
C6 C 0.1756(2) 0.9707(6) 0.29466(14)
H4 H 0.1896 0.8601 0.3255
C7 C 0.2573(2) 0.8579(5) 0.11734(12)
H5 H 0.2276 0.7227 0.1340
C8 C 0.3723(2) 0.8519(5) 0.14147(12)
C9 C 0.4343(3) 1.0344(6) 0.13046(13)
H6 H 0.4048 1.1615 0.1081
C10 C 0.5396(3) 1.0300(6) 0.15236(15)
H7 H 0.5802 1.1532 0.1445
C11 C 0.5837(3) 0.8438(7) 0.18566(14)
H8 H 0.6542 0.8404 0.2005
C12 C 0.5230(3) 0.6617(6) 0.19704(14)
H9 H 0.5525 0.5356 0.2198
C13 C 0.4192(3) 0.6662(6) 0.17485(13)
H10 H 0.3794 0.5411 0.1824
C14 C 0.2314(2) 0.8378(6) 0.04712(12)
H11 H 0.2616 0.9701 0.0295
C15 C 0.1157(3) 0.8350(7) 0.02197(16)
H12 H 0.1035 0.8212 -0.0218
H13 H 0.0858 0.9763 0.0330
H14 H 0.0853 0.7058 0.0389
C16 C 0.2760(2) 0.6172(6) 0.02669(13)
C17 C 0.3376(3) 0.6377(7) -0.02208(15)
H15 H 0.3968 0.7347 -0.0071
H16 H 0.2964 0.7154 -0.0570
C18 C 0.3748(3) 0.4089(8) -0.04335(18)
H17 H 0.4124 0.3260 -0.0088
H18 H 0.4185 0.4377 -0.0721
H19 H 0.3168 0.3182 -0.0626
N1 N 0.2074(2) 1.0610(5) 0.13568(13)
O1 O 0.26012(18) 0.4323(4) 0.04844(10)
H20 H 0.207(2) 1.171(5) 0.1162(12)
loop_
_geom_bond_atom_site_label_1
_geom_bond_atom_site_label_2
_geom_bond_site_symmetry_1
_geom_bond_site_symmetry_2
Br1 C1 1_555 1_555
C1 C2 1_555 1_555
C2 H1 1_555 1_555
C3 C2 1_555 1_555
H2 C3 1_555 1_555
C4 C3 1_555 1_555
C5 C4 1_555 1_555
H3 C5 1_555 1_555
C6 C1 1_555 1_555
H4 C6 1_555 1_555
C7 H5 1_555 1_555
C8 C7 1_555 1_555
C9 C8 1_555 1_555
H6 C9 1_555 1_555
C10 C9 1_555 1_555
H7 C10 1_555 1_555
C11 C10 1_555 1_555
H8 C11 1_555 1_555
C12 C11 1_555 1_555
H9 C12 1_555 1_555
C13 C8 1_555 1_555
H10 C13 1_555 1_555
C14 C7 1_555 1_555
H11 C14 1_555 1_555
C15 C14 1_555 1_555
H12 C15 1_555 1_555
H13 C15 1_555 1_555
H14 C15 1_555 1_555
C16 C14 1_555 1_555
C17 C16 1_555 1_555
H15 C17 1_555 1_555
H16 C17 1_555 1_555
C18 C17 1_555 1_555
H17 C18 1_555 1_555
H18 C18 1_555 1_555
H19 C18 1_555 1_555
N1 C4 1_555 1_555
O1 C16 1_555 1_555
H20 N1 1_555 1_555
C5 C6 1_555 1_555
C7 N1 1_555 1_555
C12 C13 1_555 1_555

#END
