
#######################################################################
#
#                 Cambridge Crystallographic Data Centre
#                                CCDC 
#
#######################################################################
#
# If this CIF has been generated from an entry in the Cambridge 
# Structural Database, then it will include bibliographic, chemical, 
# crystal, experimental, refinement or atomic coordinate data resulting 
# from the CCDC's data processing and validation procedures.
#
#######################################################################

data_IQUVEW
_chemical_formula_moiety         'C18 H19 N1 O5'
_chemical_name_systematic        
"Methyl 4-oxo-7',8'-dihydrospiro[cyclohex-2-ene-1,9'-[1,3]dioxolo[4,5-h][2]benzazepine]-6'(5'H)-carboxylate"
_symmetry_cell_setting           triclinic
_symmetry_space_group_name_H-M   'P -1'
_symmetry_Int_Tables_number      2
_space_group_name_Hall           '-P 1'
loop_
_symmetry_equiv_pos_site_id
_symmetry_equiv_pos_as_xyz
1 x,y,z
2 -x,-y,-z
_cell_length_a                   6.993(15)
_cell_length_b                   8.628(18)
_cell_length_c                   14.08(3)
_cell_angle_alpha                99.54(3)
_cell_angle_beta                 102.82(3)
_cell_angle_gamma                92.29(3)
_cell_volume                     814.287
_exptl_crystal_colour            colorless
_exptl_crystal_description       block
_cell_formula_units_Z            2
loop_
_atom_site_label
_atom_site_type_symbol
_atom_site_fract_x
_atom_site_fract_y
_atom_site_fract_z
C1 C 0.329(2) 1.2615(12) 0.3290(9)
H1 H 0.1952 1.2620 0.2908
H2 H 0.3654 1.3629 0.3725
N1 N 0.8220(13) 0.5761(8) 0.3210(6)
O1 O 0.4595(10) 1.2344(7) 0.2644(5)
C2 C 0.4378(14) 1.0214(12) 0.3386(7)
O2 O 0.3416(10) 1.1358(8) 0.3869(5)
C3 C 0.5023(14) 1.0798(10) 0.2633(7)
O3 O 1.1554(11) 0.6018(9) 0.3936(6)
C4 C 0.6140(13) 0.9951(11) 0.2064(7)
H3 H 0.6648 1.0392 0.1603
O4 O 0.9360(10) 0.7218(8) 0.4719(5)
C5 C 0.6485(14) 0.8392(10) 0.2208(7)
O5 O 1.0977(13) 0.8064(9) -0.0611(6)
C6 C 0.5868(13) 0.7820(10) 0.2968(7)
C7 C 0.4812(14) 0.8725(11) 0.3569(7)
H4 H 0.4414 0.8332 0.4077
C8 C 0.6262(14) 0.6195(11) 0.3241(8)
H5 H 0.6067 0.6194 0.3901
H6 H 0.5315 0.5408 0.2786
C9 C 0.988(2) 0.6276(10) 0.3959(9)
C10 C 1.0962(16) 0.7889(14) 0.5546(8)
H7 H 1.0988 0.7320 0.6079
H8 H 1.0778 0.8976 0.5763
H9 H 1.2185 0.7817 0.5344
C11 C 0.8465(18) 0.4945(11) 0.2250(8)
H10 H 0.8045 0.3837 0.2174
H11 H 0.9852 0.5020 0.2248
C12 C 0.7325(16) 0.5587(11) 0.1370(7)
H12 H 0.5938 0.5269 0.1269
H13 H 0.7747 0.5119 0.0783
C13 C 0.7604(13) 0.7475(11) 0.1497(7)
C14 C 0.6782(16) 0.7748(12) 0.0434(8)
H14 H 0.5427 0.7780 0.0228
C15 C 0.7867(19) 0.7942(12) -0.0218(9)
H15 H 0.7233 0.8119 -0.0841
C16 C 0.9981(19) 0.7889(12) 0.0005(9)
C17 C 1.0958(15) 0.7530(13) 0.1016(8)
H16 H 1.1075 0.6403 0.0959
H17 H 1.2275 0.8053 0.1226
C18 C 0.9833(13) 0.8054(11) 0.1785(7)
H18 H 0.9950 0.9197 0.1932
H19 H 1.0441 0.7684 0.2386
loop_
_geom_bond_atom_site_label_1
_geom_bond_atom_site_label_2
_geom_bond_site_symmetry_1
_geom_bond_site_symmetry_2
C1 H1 1_555 1_555
H2 C1 1_555 1_555
N1 C8 1_555 1_555
O1 C1 1_555 1_555
C2 O2 1_555 1_555
O2 C1 1_555 1_555
C3 O1 1_555 1_555
O3 C9 1_555 1_555
C4 C3 1_555 1_555
H3 C4 1_555 1_555
O4 C9 1_555 1_555
C5 C4 1_555 1_555
O5 C16 1_555 1_555
C6 C5 1_555 1_555
C7 C2 1_555 1_555
H4 C7 1_555 1_555
C8 C6 1_555 1_555
H5 C8 1_555 1_555
H6 C8 1_555 1_555
C9 N1 1_555 1_555
C10 O4 1_555 1_555
H7 C10 1_555 1_555
H8 C10 1_555 1_555
H9 C10 1_555 1_555
C11 N1 1_555 1_555
H10 C11 1_555 1_555
H11 C11 1_555 1_555
C12 C11 1_555 1_555
H12 C12 1_555 1_555
H13 C12 1_555 1_555
C13 C5 1_555 1_555
C14 C13 1_555 1_555
H14 C14 1_555 1_555
C15 C14 1_555 1_555
H15 C15 1_555 1_555
C16 C15 1_555 1_555
C17 C16 1_555 1_555
H16 C17 1_555 1_555
H17 C17 1_555 1_555
C18 C13 1_555 1_555
H18 C18 1_555 1_555
H19 C18 1_555 1_555
C2 C3 1_555 1_555
C6 C7 1_555 1_555
C12 C13 1_555 1_555
C17 C18 1_555 1_555

#END
