
#######################################################################
#
#                 Cambridge Crystallographic Data Centre
#                                CCDC 
#
#######################################################################
#
# If this CIF has been generated from an entry in the Cambridge 
# Structural Database, then it will include bibliographic, chemical, 
# crystal, experimental, refinement or atomic coordinate data resulting 
# from the CCDC's data processing and validation procedures.
#
#######################################################################

data_IQUWIB
_chemical_formula_moiety         'C18 H8 Cl2 N6 O4,C1 H1 Cl3'
_chemical_name_systematic        
'12,25-Dichloro-2,9,15,22-tetraoxa-11,13,24,26,27,28-hexaazapentacyclo[21.3.1.1^10,14^.0^3,8^.0^16,21^]octacosa-1(27),3,5,7,10(28),11,13,16,18,20,23,25-dodecaene chloroform solvate'
_symmetry_cell_setting           orthorhombic
_symmetry_space_group_name_H-M   'P m m n'
_symmetry_Int_Tables_number      59
_space_group_name_Hall           '-P 2ab 2a'
loop_
_symmetry_equiv_pos_site_id
_symmetry_equiv_pos_as_xyz
1 x,y,z
2 1/2-x,1/2-y,z
3 -x,1/2+y,-z
4 1/2+x,-y,-z
5 -x,-y,-z
6 1/2+x,1/2+y,-z
7 x,1/2-y,z
8 1/2-x,y,z
_cell_length_a                   11.4790(13)
_cell_length_b                   12.2555(14)
_cell_length_c                   8.2846(9)
_cell_angle_alpha                90
_cell_angle_beta                 90
_cell_angle_gamma                90
_cell_volume                     1165.48
_exptl_crystal_colour            colorless
_exptl_crystal_description       block
_cell_formula_units_Z            2
loop_
_atom_site_label
_atom_site_type_symbol
_atom_site_fract_x
_atom_site_fract_y
_atom_site_fract_z
C1 C 0.2500 0.4626(3) 0.7352(5)
C2 C 0.1542(2) 0.3915(2) 0.5316(3)
C3 C 0.0519(2) 0.3060(3) 0.3205(3)
C4 C 0.0434(3) 0.3629(3) 0.1787(4)
H1 H 0.0426 0.4388 0.1791
C5 C 0.0361(3) 0.3064(3) 0.0356(4)
H2 H 0.0311 0.3442 -0.0615
Cl1 Cl 0.2500 0.52987(12) 0.91733(13)
N1 N 0.1465(2) 0.4400(2) 0.6756(3)
N2 N 0.2500 0.3687(3) 0.4511(4)
O1 O 0.05120(16) 0.3627(2) 0.4687(3)
C1A C 0.2500 0.0374(3) 0.7352(5)
C2G C 0.3458(2) 0.3915(2) 0.5316(3)
C2A C 0.3458(2) 0.1085(2) 0.5316(3)
C2F C 0.1542(2) 0.1085(2) 0.5316(3)
C3G C 0.4481(2) 0.3060(3) 0.3205(3)
C3A C 0.4481(2) 0.1940(3) 0.3205(3)
C3F C 0.0519(2) 0.1940(3) 0.3205(3)
C4A C 0.4566(3) 0.1371(3) 0.1787(4)
C4G C 0.4566(3) 0.3629(3) 0.1787(4)
C4F C 0.0434(3) 0.1371(3) 0.1787(4)
H1A H 0.4574 0.0612 0.1791
H1G H 0.4574 0.4388 0.1791
H1F H 0.0426 0.0612 0.1791
C5A C 0.4639(3) 0.1936(3) 0.0356(4)
C5G C 0.4639(3) 0.3064(3) 0.0356(4)
C5F C 0.0361(3) 0.1936(3) 0.0356(4)
H2G H 0.4689 0.3442 -0.0615
H2A H 0.4689 0.1558 -0.0615
H2F H 0.0311 0.1558 -0.0615
Cl1A Cl 0.2500 -0.02987(12) 0.91733(13)
N1G N 0.3535(2) 0.4400(2) 0.6756(3)
N1A N 0.3535(2) 0.0600(2) 0.6756(3)
N1F N 0.1465(2) 0.0600(2) 0.6756(3)
N2A N 0.2500 0.1313(3) 0.4511(4)
O1G O 0.44880(16) 0.3627(2) 0.4687(3)
O1A O 0.44880(16) 0.1373(2) 0.4687(3)
O1F O 0.05120(16) 0.1373(2) 0.4687(3)
C6? C 0.2025(8) 0.7500 0.3946(14)
H3? H 0.1193 0.7500 0.3892
Cl2? Cl 0.2500 0.7500 0.5932(3)
Cl3? Cl 0.2500 0.63249(19) 0.2998(3)
loop_
_geom_bond_atom_site_label_1
_geom_bond_atom_site_label_2
_geom_bond_site_symmetry_1
_geom_bond_site_symmetry_2
C1 Cl1 1_555 1_555
C2 N1 1_555 1_555
C3 C4 1_555 1_555
C4 H1 1_555 1_555
C5 C4 1_555 1_555
H2 C5 1_555 1_555
N1 C1 1_555 1_555
N2 C2 1_555 1_555
O1 C2 1_555 1_555
C1A Cl1A 1_555 1_555
C2G N2 1_555 1_555
C2A N1A 1_555 1_555
C2F N1F 1_555 1_555
C3G C3A 1_555 1_555
C3A C4A 1_555 1_555
C3F C3 1_555 1_555
C4A H1A 1_555 1_555
C4G C3G 1_555 1_555
C4F C3F 1_555 1_555
H1G C4G 1_555 1_555
H1F C4F 1_555 1_555
C5A C4A 1_555 1_555
C5G C4G 1_555 1_555
C5F C5 1_555 1_555
H2G C5G 1_555 1_555
H2A C5A 1_555 1_555
H2F C5F 1_555 1_555
N1G C1 1_555 1_555
N1A C1A 1_555 1_555
N1F C1A 1_555 1_555
N2A C2A 1_555 1_555
O1G C2G 1_555 1_555
O1A C2A 1_555 1_555
O1F C2F 1_555 1_555
C3 O1 1_555 1_555
C2G N1G 1_555 1_555
C2F N2A 1_555 1_555
C3G O1G 1_555 1_555
C3A O1A 1_555 1_555
C3F O1F 1_555 1_555
C4F C5F 1_555 1_555
C5A C5G 1_555 1_555

#END
