
#######################################################################
#
#                 Cambridge Crystallographic Data Centre
#                                CCDC 
#
#######################################################################
#
# If this CIF has been generated from an entry in the Cambridge 
# Structural Database, then it will include bibliographic, chemical, 
# crystal, experimental, refinement or atomic coordinate data resulting 
# from the CCDC's data processing and validation procedures.
#
#######################################################################

data_IQUYID
_chemical_formula_moiety         'C10 H10 Br1 N1 O1'
_chemical_name_systematic        5-Bromo-1-ethyl-1,3-dihydro-2H-indol-2-one
_symmetry_cell_setting           monoclinic
_symmetry_space_group_name_H-M   'P 21/c'
_symmetry_Int_Tables_number      14
_space_group_name_Hall           '-P 2ybc'
loop_
_symmetry_equiv_pos_site_id
_symmetry_equiv_pos_as_xyz
1 x,y,z
2 -x,1/2+y,1/2-z
3 -x,-y,-z
4 x,1/2-y,1/2+z
_cell_length_a                   7.85920(10)
_cell_length_b                   10.6600(2)
_cell_length_c                   12.4028(2)
_cell_angle_alpha                90
_cell_angle_beta                 104.4850(10)
_cell_angle_gamma                90
_cell_volume                     1006.07
_exptl_crystal_colour            colorless
_exptl_crystal_description       plank
_cell_formula_units_Z            4
loop_
_atom_site_label
_atom_site_type_symbol
_atom_site_fract_x
_atom_site_fract_y
_atom_site_fract_z
Br1 Br 0.05373(3) -0.28006(3) 0.32386(3)
N1 N 0.3816(2) 0.17985(15) 0.56982(13)
C1 C 0.3036(2) 0.08138(17) 0.50003(15)
O1 O 0.4697(2) 0.21789(16) 0.75717(13)
C2 C 0.4023(3) 0.1502(2) 0.67939(16)
C3 C 0.2658(2) -0.01732(17) 0.56419(15)
C4 C 0.1557(2) -0.13208(19) 0.39830(18)
C5 C 0.1907(3) -0.12531(19) 0.51309(19)
C6 C 0.3260(3) 0.0202(2) 0.68365(18)
C7 C 0.4334(3) 0.30037(19) 0.5313(2)
C8 C 0.1936(3) -0.0351(2) 0.33502(18)
C9 C 0.2693(3) 0.07446(19) 0.38594(16)
C10 C 0.2817(5) 0.3895(3) 0.4990(4)
H1 H 0.300(3) 0.138(2) 0.3464(16)
H2 H 0.175(3) -0.043(2) 0.2607(18)
H3 H 0.164(3) -0.188(2) 0.5558(19)
H4 H 0.408(3) -0.026(2) 0.7223(19)
H5 H 0.232(3) 0.027(2) 0.7222(18)
H6 H 0.527(3) 0.328(2) 0.5962(19)
H7 H 0.481(3) 0.285(2) 0.469(2)
H8 H 0.237(5) 0.406(3) 0.563(3)
H9 H 0.320(5) 0.469(4) 0.474(3)
H10 H 0.177(4) 0.356(4) 0.446(3)
loop_
_geom_bond_atom_site_label_1
_geom_bond_atom_site_label_2
_geom_bond_site_symmetry_1
_geom_bond_site_symmetry_2
Br1 C4 1_555 1_555
N1 C1 1_555 1_555
C1 C3 1_555 1_555
O1 C2 1_555 1_555
C2 N1 1_555 1_555
C3 C5 1_555 1_555
C4 C5 1_555 1_555
C5 H3 1_555 1_555
C6 C2 1_555 1_555
C7 N1 1_555 1_555
C8 C4 1_555 1_555
C9 C1 1_555 1_555
C10 C7 1_555 1_555
H1 C9 1_555 1_555
H2 C8 1_555 1_555
H4 C6 1_555 1_555
H5 C6 1_555 1_555
H6 C7 1_555 1_555
H7 C7 1_555 1_555
H8 C10 1_555 1_555
H9 C10 1_555 1_555
H10 C10 1_555 1_555
C3 C6 1_555 1_555
C8 C9 1_555 1_555

#END
