
#######################################################################
#
#                 Cambridge Crystallographic Data Centre
#                                CCDC 
#
#######################################################################
#
# If this CIF has been generated from an entry in the Cambridge 
# Structural Database, then it will include bibliographic, chemical, 
# crystal, experimental, refinement or atomic coordinate data resulting 
# from the CCDC's data processing and validation procedures.
#
#######################################################################

data_IQUYEZ
_chemical_formula_moiety         'C45 H51 N3 Si3'
_chemical_name_systematic        
5,10,15-Triethyl-3,8,13-tris((trimethylsilyl)ethynyl)-10,15-dihydro-5H-diindolo[3,2-a:3',2'-c]carbazole
_symmetry_cell_setting           rhombohedral
_symmetry_space_group_name_H-M   'R -3'
_symmetry_Int_Tables_number      148
_space_group_name_Hall           '-R 3'
loop_
_symmetry_equiv_pos_site_id
_symmetry_equiv_pos_as_xyz
1 x,y,z
2 -y,x-y,z
3 -x+y,-x,z
4 2/3+x,1/3+y,1/3+z
5 2/3-y,1/3+x-y,1/3+z
6 2/3-x+y,1/3-x,1/3+z
7 1/3+x,2/3+y,2/3+z
8 1/3-y,2/3+x-y,2/3+z
9 1/3-x+y,2/3-x,2/3+z
10 -x,-y,-z
11 y,-x+y,-z
12 x-y,x,-z
13 1/3-x,2/3-y,2/3-z
14 1/3+y,2/3-x+y,2/3-z
15 1/3+x-y,2/3+x,2/3-z
16 2/3-x,1/3-y,1/3-z
17 2/3+y,1/3-x+y,1/3-z
18 2/3+x-y,1/3+x,1/3-z
_cell_length_a                   29.1610(4)
_cell_length_b                   29.1610(4)
_cell_length_c                   17.6054(3)
_cell_angle_alpha                90
_cell_angle_beta                 90
_cell_angle_gamma                120
_cell_volume                     12965.3
_exptl_crystal_description       parallelepiped
_cell_formula_units_Z            12
loop_
_atom_site_label
_atom_site_type_symbol
_atom_site_fract_x
_atom_site_fract_y
_atom_site_fract_z
Si1 Si 0.35942(3) 0.18586(4) 0.52607(5)
N2 N 0.04243(8) -0.06692(8) 0.60280(11)
C4 C 0.10604(9) 0.01996(9) 0.59042(12)
C5 C 0.15773(10) 0.05968(11) 0.57499(14)
C9 C 0.01683(9) -0.03733(9) 0.60270(12)
C11 C 0.09605(10) -0.03257(10) 0.59407(13)
C12 C -0.03809(9) -0.05537(8) 0.60021(12)
C14 C 0.19811(10) 0.04760(11) 0.56732(14)
C16 C 0.13604(12) -0.04517(13) 0.58677(16)
C18 C 0.18674(12) -0.00498(13) 0.57389(16)
C19 C 0.25074(11) 0.09044(13) 0.55254(16)
C21 C 0.29401(12) 0.12751(13) 0.54093(18)
C23 C 0.36797(16) 0.20119(15) 0.4236(2)
H4 H 0.3723 0.1748 0.3973
H5 H 0.3987 0.2353 0.4158
H6 H 0.3373 0.2014 0.4043
C27 C 0.02172(12) -0.12000(10) 0.63443(19)
H16 H 0.0341 -0.1393 0.6036
H17 H -0.0166 -0.1386 0.6316
C28 C 0.0387(4) -0.1198(2) 0.7189(3)
H18 H 0.0279 -0.0996 0.7494
H19 H 0.0765 -0.1043 0.7215
H20 H 0.0221 -0.1556 0.7374
C29 C 0.40932(14) 0.17011(17) 0.5612(3)
C30 C 0.36195(17) 0.24189(16) 0.5789(2)
H21 H 0.3329 0.2465 0.5634
H22 H 0.3948 0.2736 0.5682
H23 H 0.3594 0.2346 0.6324
H24 H 0.1675(9) 0.0929(10) 0.5647(13)
H25 H 0.2145(11) -0.0116(11) 0.5680(16)
H26 H 0.1300(11) -0.0757(11) 0.5893(16)
H32 H 0.4434(15) 0.1963(14) 0.5526(18)
H33 H 0.4070(16) 0.1384(17) 0.538(2)
H34 H 0.4040(15) 0.1657(16) 0.614(2)
Si1A Si -0.18586(4) 0.17356(5) 0.52607(5)
Si1B Si -0.17356(5) -0.35942(3) 0.52607(5)
N2A N 0.06692(8) 0.10935(11) 0.60280(11)
N2B N -0.10935(11) -0.04243(8) 0.60280(11)
C4A C -0.01996(9) 0.08608(13) 0.59042(12)
C4B C -0.08608(13) -0.10604(9) 0.59042(12)
C5A C -0.05968(11) 0.09805(15) 0.57499(14)
C5B C -0.09805(15) -0.15773(10) 0.57499(14)
C9A C 0.03733(9) 0.05416(13) 0.60270(12)
C9B C -0.05416(13) -0.01683(9) 0.60270(12)
C11A C 0.03257(10) 0.12862(14) 0.59407(13)
C11B C -0.12862(14) -0.09605(10) 0.59407(13)
C12A C 0.05537(8) 0.01728(12) 0.60021(12)
C12B C -0.01728(12) 0.03809(9) 0.60021(12)
C14A C -0.04760(11) 0.15051(15) 0.56732(14)
C14B C -0.15051(15) -0.19811(10) 0.56732(14)
C16A C 0.04517(13) 0.18121(18) 0.58677(16)
C16B C -0.18121(18) -0.13604(12) 0.58677(16)
C18A C 0.00498(13) 0.19172(18) 0.57389(16)
C18B C -0.19172(18) -0.18674(12) 0.57389(16)
C19A C -0.09044(13) 0.16030(17) 0.55254(16)
C19B C -0.16030(17) -0.25074(11) 0.55254(16)
C21A C -0.12751(13) 0.16650(18) 0.54093(18)
C21B C -0.16650(18) -0.29401(12) 0.54093(18)
C23A C -0.20119(15) 0.16678(22) 0.4236(2)
C23B C -0.16678(22) -0.36797(16) 0.4236(2)
H4A H -0.1748 0.1975 0.3973
H4B H -0.1975 -0.3723 0.3973
H5A H -0.2353 0.1634 0.4158
H5B H -0.1634 -0.3987 0.4158
H6A H -0.2014 0.1359 0.4043
H6B H -0.1359 -0.3373 0.4043
C27A C 0.12000(10) 0.14172(16) 0.63443(19)
C27B C -0.14172(16) -0.02172(12) 0.63443(19)
H16A H 0.1393 0.1734 0.6036
H16B H -0.1734 -0.0341 0.6036
H17A H 0.1386 0.1220 0.6316
H17B H -0.1220 0.0166 0.6316
C28A C 0.1198(2) 0.1585(4) 0.7189(3)
C28B C -0.1585(4) -0.0387(4) 0.7189(3)
H18A H 0.0996 0.1275 0.7494
H18B H -0.1275 -0.0279 0.7494
H19A H 0.1043 0.1808 0.7215
H19B H -0.1808 -0.0765 0.7215
H20A H 0.1556 0.1777 0.7374
H20B H -0.1777 -0.0221 0.7374
C29A C -0.17011(17) 0.23921(22) 0.5612(3)
C29B C -0.23921(22) -0.40932(14) 0.5612(3)
C30A C -0.24189(16) 0.12006(23) 0.5789(2)
C30B C -0.12006(23) -0.36195(17) 0.5789(2)
H21A H -0.2465 0.0864 0.5634
H21B H -0.0864 -0.3329 0.5634
H22A H -0.2736 0.1212 0.5682
H22B H -0.1212 -0.3948 0.5682
H23A H -0.2346 0.1248 0.6324
H23B H -0.1248 -0.3594 0.6324
H24A H -0.0929(10) 0.0746(13) 0.5647(13)
H24B H -0.0746(13) -0.1675(9) 0.5647(13)
H25A H 0.0116(11) 0.2261(16) 0.5680(16)
H25B H -0.2261(16) -0.2145(11) 0.5680(16)
H26A H 0.0757(11) 0.2057(16) 0.5893(16)
H26B H -0.2057(16) -0.1300(11) 0.5893(16)
H32A H -0.1963(14) 0.2471(21) 0.5526(18)
H32B H -0.2471(21) -0.4434(15) 0.5526(18)
H33A H -0.1384(17) 0.2686(23) 0.538(2)
H33B H -0.2686(23) -0.4070(16) 0.538(2)
H34A H -0.1657(16) 0.2383(22) 0.614(2)
H34B H -0.2383(22) -0.4040(15) 0.614(2)
Si2 Si 0.33084(4) 0.28091(4) 1.03402(6)
N1 N 0.00800(7) 0.09895(7) 0.89457(10)
C1 C -0.00052(9) 0.04756(8) 0.89615(12)
C2 C 0.08870(8) 0.10508(8) 0.90932(12)
C3 C 0.14213(9) 0.13276(9) 0.92962(13)
C6 C 0.08766(10) 0.18858(9) 0.90729(14)
C7 C 0.04861(8) 0.04935(8) 0.89925(11)
C8 C 0.16801(9) 0.18767(9) 0.93765(13)
C10 C 0.06183(9) 0.13376(9) 0.90260(12)
C13 C 0.14069(10) 0.21519(10) 0.92388(14)
C15 C -0.02658(11) 0.11526(11) 0.85828(15)
C17 C 0.22163(11) 0.21620(10) 0.96526(15)
C20 C 0.26562(11) 0.24072(11) 0.99084(18)
C22 C -0.01109(13) 0.13196(16) 0.77714(17)
H1 H 0.0239 0.1623 0.7757
H2 H -0.0357 0.1408 0.7547
H3 H -0.0115 0.1034 0.7493
C24 C 0.3383(4) 0.2432(3) 1.1075(8)
H7 H 0.3708 0.2650 1.1344
H8 H 0.3392 0.2135 1.0857
H9 H 0.3090 0.2308 1.1421
C25 C 0.38264(15) 0.2996(2) 0.9592(4)
H10 H 0.3758 0.3170 0.9182
H11 H 0.3818 0.2683 0.9405
H12 H 0.4169 0.3230 0.9805
C26 C 0.3345(5) 0.3359(9) 1.0733(11)
H13 H 0.3200 0.3508 1.0387
H14 H 0.3709 0.3615 1.0836
H15 H 0.3147 0.3265 1.1199
H27 H 0.1603(9) 0.1152(9) 0.9424(13)
H28 H 0.1617(10) 0.2524(11) 0.9268(14)
H29 H 0.0717(10) 0.2077(10) 0.9017(14)
H30 H -0.0247(11) 0.1435(12) 0.8869(16)
H31 H -0.0596(10) 0.0881(10) 0.8550(13)
Si2A Si -0.28091(4) 0.04993(6) 1.03402(6)
Si2B Si -0.04993(6) -0.33084(4) 1.03402(6)
N1A N -0.09895(7) -0.09095(10) 0.89457(10)
N1B N 0.09095(10) -0.00800(7) 0.89457(10)
C1A C -0.04756(8) -0.04808(12) 0.89615(12)
C1B C 0.04808(12) 0.00052(9) 0.89615(12)
C2A C -0.10508(8) -0.01638(11) 0.90932(12)
C2B C 0.01638(11) -0.08870(8) 0.90932(12)
C3A C -0.13276(9) 0.00937(13) 0.92962(13)
C3B C -0.00937(13) -0.14213(9) 0.92962(13)
C6A C -0.18858(9) -0.10092(13) 0.90729(14)
C6B C 0.10092(13) -0.08766(10) 0.90729(14)
C7A C -0.04935(8) -0.00074(11) 0.89925(11)
C7B C 0.00074(11) -0.04861(8) 0.89925(11)
C8A C -0.18767(9) -0.01966(13) 0.93765(13)
C8B C 0.01966(13) -0.16801(9) 0.93765(13)
C10A C -0.13376(9) -0.07193(13) 0.90260(12)
C10B C 0.07193(13) -0.06183(9) 0.90260(12)
C13A C -0.21519(10) -0.07450(14) 0.92388(14)
C13B C 0.07450(14) -0.14069(10) 0.92388(14)
C15A C -0.11526(11) -0.14184(16) 0.85828(15)
C15B C 0.14184(16) 0.02658(11) 0.85828(15)
C17A C -0.21620(10) 0.00543(15) 0.96526(15)
C17B C -0.00543(15) -0.22163(11) 0.96526(15)
C20A C -0.24072(11) 0.02490(16) 0.99084(18)
C20B C -0.02490(16) -0.26562(11) 0.99084(18)
C22A C -0.13196(16) -0.14305(21) 0.77714(17)
C22B C 0.14305(21) 0.01109(13) 0.77714(17)
H1A H -0.1623 -0.1384 0.7757
H1B H 0.1384 -0.0239 0.7757
H2A H -0.1408 -0.1765 0.7547
H2B H 0.1765 0.0357 0.7547
H3A H -0.1034 -0.1149 0.7493
H3B H 0.1149 0.0115 0.7493
C24A C -0.2432(3) 0.0951(5) 1.1075(8)
C24B C -0.0951(5) -0.3383(4) 1.1075(8)
H7A H -0.2650 0.1058 1.1344
H7B H -0.1058 -0.3708 1.1344
H8A H -0.2135 0.1257 1.0857
H8B H -0.1257 -0.3392 1.0857
H9A H -0.2308 0.0782 1.1421
H9B H -0.0782 -0.3090 1.1421
C25A C -0.2996(2) 0.08304(25) 0.9592(4)
C25B C -0.08304(25) -0.38264(15) 0.9592(4)
H10A H -0.3170 0.0588 0.9182
H10B H -0.0588 -0.3758 0.9182
H11A H -0.2683 0.1135 0.9405
H11B H -0.1135 -0.3818 0.9405
H12A H -0.3230 0.0939 0.9805
H12B H -0.0939 -0.4169 0.9805
C26A C -0.3359(9) -0.0014(10) 1.0733(11)
C26B C 0.0014(10) -0.3345(5) 1.0733(11)
H13A H -0.3508 -0.0308 1.0387
H13B H 0.0308 -0.3200 1.0387
H14A H -0.3615 0.0094 1.0836
H14B H -0.0094 -0.3709 1.0836
H15A H -0.3265 -0.0118 1.1199
H15B H 0.0118 -0.3147 1.1199
H27A H -0.1152(9) 0.0451(13) 0.9424(13)
H27B H -0.0451(13) -0.1603(9) 0.9424(13)
H28A H -0.2524(11) -0.0907(15) 0.9268(14)
H28B H 0.0907(15) -0.1617(10) 0.9268(14)
H29A H -0.2077(10) -0.1360(14) 0.9017(14)
H29B H 0.1360(14) -0.0717(10) 0.9017(14)
H30A H -0.1435(12) -0.1682(16) 0.8869(16)
H30B H 0.1682(16) 0.0247(11) 0.8869(16)
H31A H -0.0881(10) -0.1477(14) 0.8550(13)
H31B H 0.1477(14) 0.0596(10) 0.8550(13)
C31? C 0.0069(5) -0.1267(3) 0.7043(5)
C32? C 0.3347(9) 0.3475(6) 1.0662(12)
C33? C 0.3728(14) 0.2698(17) 1.015(3)
C34? C 0.316(2) 0.246(2) 1.159(5)
H35? H -0.0081 -0.1445 0.6035
H36? H 0.0488 -0.1298 0.6295
H37? H 0.0367 -0.1046 0.7361
H38? H -0.0069 -0.1631 0.7182
H39? H -0.0201 -0.1173 0.7109
H40? H 0.3024 0.3397 1.0913
H41? H 0.3397 0.3692 1.0225
H42? H 0.3639 0.3660 1.1005
H43? H 0.4043 0.2935 1.0424
H44? H 0.3797 0.2748 0.9613
H45? H 0.3620 0.2339 1.0282
H46? H 0.2863 0.2480 1.1809
H47? H 0.3467 0.2666 1.1892
H48? H 0.3074 0.2100 1.1574
loop_
_geom_bond_atom_site_label_1
_geom_bond_atom_site_label_2
_geom_bond_site_symmetry_1
_geom_bond_site_symmetry_2
Si1 C21 1_555 1_555
Si2 C20 1_555 1_555
N1 C1 1_555 1_555
N2 C9 1_555 1_555
C1 C7 1_555 1_555
C2 C3 1_555 1_555
C3 C8 1_555 1_555
C4 C5 1_555 1_555
C5 C14 1_555 1_555
C6 C10 1_555 1_555
C7 C2 1_555 1_555
C8 C13 1_555 1_555
C9 C12 1_555 1_555
C10 N1 1_555 1_555
C11 N2 1_555 1_555
C12 C4B 1_555 1_555
C13 C6 1_555 1_555
C14 C18 1_555 1_555
C15 N1 1_555 1_555
C16 C11 1_555 1_555
C17 C8 1_555 1_555
C18 C16 1_555 1_555
C19 C14 1_555 1_555
C20 C17 1_555 1_555
C21 C19 1_555 1_555
C22 C15 1_555 1_555
H1 C22 1_555 1_555
H2 C22 1_555 1_555
H3 C22 1_555 1_555
C23 Si1 1_555 1_555
H4 C23 1_555 1_555
H5 C23 1_555 1_555
H6 C23 1_555 1_555
C24 Si2 1_555 1_555
H7 C24 1_555 1_555
H8 C24 1_555 1_555
H9 C24 1_555 1_555
C25 Si2 1_555 1_555
H10 C25 1_555 1_555
H11 C25 1_555 1_555
H12 C25 1_555 1_555
C26 Si2 1_555 1_555
H13 C26 1_555 1_555
H14 C26 1_555 1_555
H15 C26 1_555 1_555
C27 N2 1_555 1_555
H16 C27 1_555 1_555
H17 C27 1_555 1_555
C28 C27 1_555 1_555
H18 C28 1_555 1_555
H19 C28 1_555 1_555
H20 C28 1_555 1_555
C29 Si1 1_555 1_555
C30 Si1 1_555 1_555
H21 C30 1_555 1_555
H22 C30 1_555 1_555
H23 C30 1_555 1_555
H24 C5 1_555 1_555
H25 C18 1_555 1_555
H26 C16 1_555 1_555
H27 C3 1_555 1_555
H28 C13 1_555 1_555
H29 C6 1_555 1_555
H30 C15 1_555 1_555
H31 C15 1_555 1_555
H32 C29 1_555 1_555
H33 C29 1_555 1_555
H34 C29 1_555 1_555
Si1A C21A 1_555 1_555
Si1B C21B 1_555 1_555
Si2A C20A 1_555 1_555
Si2B C20B 1_555 1_555
N1A C1A 1_555 1_555
N1B C1B 1_555 1_555
N2A C9A 1_555 1_555
N2B C9B 1_555 1_555
C1A C7A 1_555 1_555
C1B C7 1_555 1_555
C2A C3A 1_555 1_555
C2B C3B 1_555 1_555
C3A C8A 1_555 1_555
C3B C8B 1_555 1_555
C4A C5A 1_555 1_555
C4B C5B 1_555 1_555
C5A C14A 1_555 1_555
C5B C14B 1_555 1_555
C6A C10A 1_555 1_555
C6B C10B 1_555 1_555
C7A C1 1_555 1_555
C7B C1A 1_555 1_555
C8A C13A 1_555 1_555
C8B C13B 1_555 1_555
C9A C12A 1_555 1_555
C9B C12 1_555 1_555
C10A N1A 1_555 1_555
C10B N1B 1_555 1_555
C11A N2A 1_555 1_555
C11B N2B 1_555 1_555
C12A C4 1_555 1_555
C12B C4A 1_555 1_555
C13A C6A 1_555 1_555
C13B C6B 1_555 1_555
C14A C18A 1_555 1_555
C14B C18B 1_555 1_555
C15A N1A 1_555 1_555
C15B N1B 1_555 1_555
C16A C11A 1_555 1_555
C16B C11B 1_555 1_555
C17A C8A 1_555 1_555
C17B C8B 1_555 1_555
C18A C16A 1_555 1_555
C18B C16B 1_555 1_555
C19A C14A 1_555 1_555
C19B C14B 1_555 1_555
C20A C17A 1_555 1_555
C20B C17B 1_555 1_555
C21A C19A 1_555 1_555
C21B C19B 1_555 1_555
C22A C15A 1_555 1_555
C22B C15B 1_555 1_555
H1A C22A 1_555 1_555
H1B C22B 1_555 1_555
H2A C22A 1_555 1_555
H2B C22B 1_555 1_555
H3A C22A 1_555 1_555
H3B C22B 1_555 1_555
C23A Si1A 1_555 1_555
C23B Si1B 1_555 1_555
H4A C23A 1_555 1_555
H4B C23B 1_555 1_555
H5A C23A 1_555 1_555
H5B C23B 1_555 1_555
H6A C23A 1_555 1_555
H6B C23B 1_555 1_555
C24A Si2A 1_555 1_555
C24B Si2B 1_555 1_555
H7A C24A 1_555 1_555
H7B C24B 1_555 1_555
H8A C24A 1_555 1_555
H8B C24B 1_555 1_555
H9A C24A 1_555 1_555
H9B C24B 1_555 1_555
C25A Si2A 1_555 1_555
C25B Si2B 1_555 1_555
H10A C25A 1_555 1_555
H10B C25B 1_555 1_555
H11A C25A 1_555 1_555
H11B C25B 1_555 1_555
H12A C25A 1_555 1_555
H12B C25B 1_555 1_555
C26A Si2A 1_555 1_555
C26B Si2B 1_555 1_555
H13A C26A 1_555 1_555
H13B C26B 1_555 1_555
H14A C26A 1_555 1_555
H14B C26B 1_555 1_555
H15A C26A 1_555 1_555
H15B C26B 1_555 1_555
C27A N2A 1_555 1_555
C27B N2B 1_555 1_555
H16A C27A 1_555 1_555
H16B C27B 1_555 1_555
H17A C27A 1_555 1_555
H17B C27B 1_555 1_555
C28A C27A 1_555 1_555
C28B C27B 1_555 1_555
H18A C28A 1_555 1_555
H18B C28B 1_555 1_555
H19A C28A 1_555 1_555
H19B C28B 1_555 1_555
H20A C28A 1_555 1_555
H20B C28B 1_555 1_555
C29A Si1A 1_555 1_555
C29B Si1B 1_555 1_555
C30A Si1A 1_555 1_555
C30B Si1B 1_555 1_555
H21A C30A 1_555 1_555
H21B C30B 1_555 1_555
H22A C30A 1_555 1_555
H22B C30B 1_555 1_555
H23A C30A 1_555 1_555
H23B C30B 1_555 1_555
H24A C5A 1_555 1_555
H24B C5B 1_555 1_555
H25A C18A 1_555 1_555
H25B C18B 1_555 1_555
H26A C16A 1_555 1_555
H26B C16B 1_555 1_555
H27A C3A 1_555 1_555
H27B C3B 1_555 1_555
H28A C13A 1_555 1_555
H28B C13B 1_555 1_555
H29A C6A 1_555 1_555
H29B C6B 1_555 1_555
H30A C15A 1_555 1_555
H30B C15B 1_555 1_555
H31A C15A 1_555 1_555
H31B C15B 1_555 1_555
H32A C29A 1_555 1_555
H32B C29B 1_555 1_555
H33A C29A 1_555 1_555
H33B C29B 1_555 1_555
H34A C29A 1_555 1_555
H34B C29B 1_555 1_555
C2 C10 1_555 1_555
C4 C11 1_555 1_555
C9 C12A 1_555 1_555
C1B C7B 1_555 1_555
C2A C7A 1_555 1_555
C2A C10A 1_555 1_555
C2B C7B 1_555 1_555
C2B C10B 1_555 1_555
C4A C11A 1_555 1_555
C4B C11B 1_555 1_555
C9A C12B 1_555 1_555
C9B C12B 1_555 1_555

#END
