
#######################################################################
#
#                 Cambridge Crystallographic Data Centre
#                                CCDC 
#
#######################################################################
#
# If this CIF has been generated from an entry in the Cambridge 
# Structural Database, then it will include bibliographic, chemical, 
# crystal, experimental, refinement or atomic coordinate data resulting 
# from the CCDC's data processing and validation procedures.
#
#######################################################################

data_IRABIN01
_chemical_formula_moiety         'C22 H16 N2'
_chemical_name_systematic        
(2,5-dimethyl-3,4-diphenylcyclopenta-2,4-dien-1-ylidene)malononitrile
_symmetry_cell_setting           triclinic
_symmetry_space_group_name_H-M   'P -1'
_symmetry_Int_Tables_number      2
_space_group_name_Hall           '-P 1'
loop_
_symmetry_equiv_pos_site_id
_symmetry_equiv_pos_as_xyz
1 x,y,z
2 -x,-y,-z
_cell_length_a                   8.6104(4)
_cell_length_b                   9.3055(4)
_cell_length_c                   10.9260(5)
_cell_angle_alpha                70.567(2)
_cell_angle_beta                 82.526(2)
_cell_angle_gamma                86.954(2)
_cell_volume                     818.504
_exptl_crystal_colour            brown
_exptl_crystal_description       prism
_cell_formula_units_Z            2
loop_
_atom_site_label
_atom_site_type_symbol
_atom_site_fract_x
_atom_site_fract_y
_atom_site_fract_z
H1 H -0.2346 0.1447 1.2931
H2 H -0.318 0.2393 1.1716
H3 H -0.2345 0.3232 1.2474
H4 H 0.4052 0.2215 1.0921
H5 H 0.4046 0.1783 0.9651
H6 H 0.376 0.0526 1.1029
C1 C 0.07600(16) 0.19158(16) 1.17336(15)
C2 C -0.08078(17) 0.23756(17) 1.13069(15)
C3 C -0.06525(17) 0.26566(16) 1.00007(14)
C4 C 0.10211(16) 0.23566(16) 0.95379(14)
C5 C 0.18542(17) 0.18967(17) 1.05703(14)
C6 C 0.11405(17) 0.16223(17) 1.29621(15)
C7 C 0.00591(17) 0.17678(17) 1.40408(15)
C8 C 0.26910(18) 0.11696(18) 1.33240(15)
C9 C -0.23048(17) 0.23604(18) 1.21866(15)
C10 C -0.18893(17) 0.31279(17) 0.91321(14)
C11 C -0.28954(17) 0.43516(17) 0.91679(15)
H7 H -0.2784 0.4868 0.9748
C12 C -0.40533(17) 0.47962(18) 0.83464(15)
H8 H -0.4709 0.5615 0.8373
C13 C -0.42428(17) 0.40332(18) 0.74821(15)
H9 H -0.5035 0.4326 0.6943
C14 C -0.32453(17) 0.28300(18) 0.74267(15)
H10 H -0.3363 0.2319 0.6844
C15 C -0.20733(17) 0.23900(17) 0.82358(15)
H11 H -0.14 0.1591 0.8185
C16 C 0.16185(16) 0.26304(17) 0.81534(14)
C17 C 0.12801(17) 0.40021(17) 0.71963(15)
H12 H 0.0643 0.4727 0.7435
C18 C 0.18812(18) 0.42927(18) 0.58999(15)
H13 H 0.1664 0.5216 0.5275
C19 C 0.28099(18) 0.32028(18) 0.55338(15)
H14 H 0.3216 0.3399 0.4664
C20 C 0.31307(17) 0.18249(18) 0.64627(15)
H15 H 0.374 0.1091 0.6213
C21 C 0.25451(17) 0.15396(17) 0.77634(15)
H16 H 0.2769 0.0615 0.8383
C22 C 0.35842(17) 0.15760(18) 1.05402(15)
N1 N -0.07360(16) 0.18676(16) 1.49423(13)
N2 N 0.39045(16) 0.08331(18) 1.36549(14)
loop_
_geom_bond_atom_site_label_1
_geom_bond_atom_site_label_2
_geom_bond_site_symmetry_1
_geom_bond_site_symmetry_2
H1 C9 1_555 1_555
H2 C9 1_555 1_555
H3 C9 1_555 1_555
H4 C22 1_555 1_555
H5 C22 1_555 1_555
H6 C22 1_555 1_555
C1 C2 1_555 1_555
C2 C3 1_555 1_555
C3 C4 1_555 1_555
C4 C5 1_555 1_555
C5 C1 1_555 1_555
C6 C1 1_555 1_555
C7 C6 1_555 1_555
C8 C6 1_555 1_555
C9 C2 1_555 1_555
C10 C3 1_555 1_555
C11 C10 1_555 1_555
H7 C11 1_555 1_555
C12 C11 1_555 1_555
H8 C12 1_555 1_555
C13 C12 1_555 1_555
H9 C13 1_555 1_555
C14 C13 1_555 1_555
H10 C14 1_555 1_555
C15 C10 1_555 1_555
H11 C15 1_555 1_555
C16 C4 1_555 1_555
C17 C16 1_555 1_555
H12 C17 1_555 1_555
C18 C17 1_555 1_555
H13 C18 1_555 1_555
C19 C18 1_555 1_555
H14 C19 1_555 1_555
C20 C19 1_555 1_555
H15 C20 1_555 1_555
C21 C16 1_555 1_555
H16 C21 1_555 1_555
C22 C5 1_555 1_555
N1 C7 1_555 1_555
N2 C8 1_555 1_555
C14 C15 1_555 1_555
C20 C21 1_555 1_555

#END
