
#######################################################################
#
#                 Cambridge Crystallographic Data Centre
#                                CCDC 
#
#######################################################################
#
# If this CIF has been generated from an entry in the Cambridge 
# Structural Database, then it will include bibliographic, chemical, 
# crystal, experimental, refinement or atomic coordinate data resulting 
# from the CCDC's data processing and validation procedures.
#
#######################################################################

data_IRADIQ
_chemical_formula_moiety         'C19 H26 O4,H2 O1'
_chemical_name_systematic        
'1\a,6\b-dihydroxyandrost-4-ene-3,17-dione monohydrate'
_symmetry_cell_setting           orthorhombic
_symmetry_space_group_name_H-M   'P 21 21 21'
_symmetry_Int_Tables_number      19
_space_group_name_Hall           'P 2ac 2ab'
loop_
_symmetry_equiv_pos_site_id
_symmetry_equiv_pos_as_xyz
1 x,y,z
2 1/2-x,-y,1/2+z
3 -x,1/2+y,1/2-z
4 1/2+x,1/2-y,-z
_cell_length_a                   8.081(2)
_cell_length_b                   10.285(3)
_cell_length_c                   21.306(6)
_cell_angle_alpha                90
_cell_angle_beta                 90
_cell_angle_gamma                90
_cell_volume                     1770.81
_exptl_crystal_colour            colorless
_exptl_crystal_description       block
_cell_formula_units_Z            4
loop_
_atom_site_label
_atom_site_type_symbol
_atom_site_fract_x
_atom_site_fract_y
_atom_site_fract_z
O1 O 0.7221(3) 0.0876(2) 1.01545(9)
O2 O 0.4527(3) 0.1875(2) 0.52318(9)
O3 O 1.0051(2) 0.1250(2) 0.66923(9)
H1 H 1.0035 0.1036 0.6307
O4 O 0.3488(2) 0.1653(2) 0.69910(9)
H2 H 0.2471 0.1524 0.6911
C1 C 0.7880(4) 0.1144(3) 0.96589(13)
C2 C 0.9398(5) 0.1995(4) 0.96049(15)
H3 H 1.0312 0.1620 0.9838
H4 H 0.9173 0.2856 0.9770
C3 C 0.9817(4) 0.2067(4) 0.89046(14)
H5 H 1.0661 0.1439 0.8793
H6 H 1.0190 0.2931 0.8788
C4 C 0.8153(3) 0.1739(3) 0.85922(12)
H7 H 0.7450 0.2508 0.8643
C5 C 0.7397(3) 0.0671(3) 0.90107(11)
C6 C 0.5572(3) 0.0549(3) 0.88500(12)
H8 H 0.5013 0.1364 0.8937
H9 H 0.5071 -0.0122 0.9107
C7 C 0.5371(3) 0.0201(3) 0.81518(12)
H10 H 0.4203 0.0222 0.8047
H11 H 0.5758 -0.0682 0.8087
C8 C 0.6308(3) 0.1109(2) 0.76999(11)
H12 H 0.5727 0.1945 0.7717
C9 C 0.8108(3) 0.1395(3) 0.78983(11)
H13 H 0.8776 0.0613 0.7830
C10 C 0.8803(3) 0.2494(3) 0.74964(13)
H14 H 0.8168 0.3279 0.7573
H15 H 0.9938 0.2662 0.7620
C11 C 0.8754(3) 0.2179(3) 0.68037(12)
H16 H 0.8998 0.2972 0.6566
C12 C 0.7103(3) 0.1648(3) 0.65872(11)
C13 C 0.6210(3) 0.0656(2) 0.70007(11)
C14 C 0.4386(3) 0.0534(3) 0.67889(12)
H17 H 0.3903 -0.0236 0.6988
C15 C 0.4223(3) 0.0393(3) 0.60811(13)
H18 H 0.4724 -0.0420 0.5951
H19 H 0.3059 0.0364 0.5970
C16 C 0.5033(3) 0.1492(3) 0.57412(12)
C17 C 0.6522(3) 0.2034(3) 0.60283(13)
H20 H 0.7095 0.2679 0.5813
C18 C 0.8276(4) -0.0647(3) 0.89580(14)
H21 H 0.7746 -0.1264 0.9230
H22 H 0.9414 -0.0551 0.9079
H23 H 0.8218 -0.0950 0.8532
C19 C 0.7047(3) -0.0677(2) 0.69091(12)
H24 H 0.8165 -0.0638 0.7060
H25 H 0.6447 -0.1329 0.7138
H26 H 0.7050 -0.0895 0.6471
O5 O 0.5334(3) 0.4178(2) 0.45556(10)
H27 H 0.4592 0.4621 0.4741
H28 H 0.5441 0.3468 0.4756
loop_
_geom_bond_atom_site_label_1
_geom_bond_atom_site_label_2
_geom_bond_site_symmetry_1
_geom_bond_site_symmetry_2
O1 C1 1_555 1_555
O2 C16 1_555 1_555
O3 H1 1_555 1_555
O4 H2 1_555 1_555
C1 C2 1_555 1_555
C2 H3 1_555 1_555
H4 C2 1_555 1_555
C3 C2 1_555 1_555
H5 C3 1_555 1_555
H6 C3 1_555 1_555
C4 C3 1_555 1_555
H7 C4 1_555 1_555
C5 C1 1_555 1_555
C6 C5 1_555 1_555
H8 C6 1_555 1_555
H9 C6 1_555 1_555
C7 C6 1_555 1_555
H10 C7 1_555 1_555
H11 C7 1_555 1_555
C8 C7 1_555 1_555
H12 C8 1_555 1_555
C9 C4 1_555 1_555
H13 C9 1_555 1_555
C10 C9 1_555 1_555
H14 C10 1_555 1_555
H15 C10 1_555 1_555
C11 O3 1_555 1_555
H16 C11 1_555 1_555
C12 C11 1_555 1_555
C13 C8 1_555 1_555
C14 O4 1_555 1_555
H17 C14 1_555 1_555
C15 C14 1_555 1_555
H18 C15 1_555 1_555
H19 C15 1_555 1_555
C16 C15 1_555 1_555
C17 C12 1_555 1_555
H20 C17 1_555 1_555
C18 C5 1_555 1_555
H21 C18 1_555 1_555
H22 C18 1_555 1_555
H23 C18 1_555 1_555
C19 C13 1_555 1_555
H24 C19 1_555 1_555
H25 C19 1_555 1_555
H26 C19 1_555 1_555
O5 H27 1_555 1_555
H28 O5 1_555 1_555
C4 C5 1_555 1_555
C8 C9 1_555 1_555
C10 C11 1_555 1_555
C12 C13 1_555 1_555
C13 C14 1_555 1_555
C16 C17 1_555 1_555

#END
