
#######################################################################
#
#                 Cambridge Crystallographic Data Centre
#                                CCDC 
#
#######################################################################
#
# If this CIF has been generated from an entry in the Cambridge 
# Structural Database, then it will include bibliographic, chemical, 
# crystal, experimental, refinement or atomic coordinate data resulting 
# from the CCDC's data processing and validation procedures.
#
#######################################################################

data_IRAFIS
_chemical_formula_moiety         'C21 H18 O2'
_chemical_name_systematic        
8-methoxy-4',5'-dihydro-3'H-spiro[benzo[a]fluorene-11,2'-furan]
_symmetry_cell_setting           orthorhombic
_symmetry_space_group_name_H-M   'P b c a'
_symmetry_Int_Tables_number      61
_space_group_name_Hall           '-P 2ac 2ab'
loop_
_symmetry_equiv_pos_site_id
_symmetry_equiv_pos_as_xyz
1 x,y,z
2 1/2-x,-y,1/2+z
3 -x,1/2+y,1/2-z
4 1/2+x,1/2-y,-z
5 -x,-y,-z
6 1/2+x,y,1/2-z
7 x,1/2-y,1/2+z
8 1/2-x,1/2+y,z
_cell_length_a                   7.5079(9)
_cell_length_b                   14.0053(17)
_cell_length_c                   29.564(4)
_cell_angle_alpha                90
_cell_angle_beta                 90
_cell_angle_gamma                90
_cell_volume                     3108.67
_exptl_crystal_colour            colorless
_exptl_crystal_description       prismatic
_cell_formula_units_Z            8
loop_
_atom_site_label
_atom_site_type_symbol
_atom_site_fract_x
_atom_site_fract_y
_atom_site_fract_z
O1 O 0.15598(18) 0.11120(10) 0.19540(4)
O2 O 0.14279(18) 0.35912(10) 0.01320(5)
C1 C 0.0552(2) 0.20455(13) 0.04371(6)
H1 H -0.0185 0.1905 0.0193
C2 C 0.1497(2) 0.28963(13) 0.04547(6)
C3 C 0.2609(2) 0.30913(13) 0.08185(6)
H2 H 0.3232 0.3665 0.0826
C4 C 0.2805(2) 0.24503(13) 0.11677(7)
H3 H 0.3563 0.2586 0.1408
C5 C 0.1864(2) 0.16027(13) 0.11579(6)
C6 C 0.0742(2) 0.14130(12) 0.07938(6)
C7 C -0.0225(2) 0.05247(12) 0.08939(6)
C8 C 0.0214(2) 0.02137(12) 0.13200(6)
C9 C 0.1781(2) 0.07891(13) 0.14986(6)
C10 C 0.3502(2) 0.01945(15) 0.15099(7)
H4 H 0.3259 -0.0463 0.1592
H5 H 0.4102 0.0207 0.1219
C11 C 0.4592(3) 0.06854(18) 0.18666(8)
H6 H 0.5366 0.0235 0.2020
H7 H 0.5314 0.1189 0.1736
C12 C 0.3240(3) 0.1084(2) 0.21827(8)
H8 H 0.3154 0.0686 0.2450
H9 H 0.3583 0.1722 0.2276
C13 C -0.0675(2) -0.05700(12) 0.15202(6)
C14 C -0.0378(3) -0.09008(15) 0.19657(7)
H10 H 0.0488 -0.0610 0.2144
C15 C -0.1344(3) -0.16409(16) 0.21379(8)
H11 H -0.1138 -0.1846 0.2432
C16 C -0.2648(3) -0.20966(16) 0.18747(8)
H12 H -0.3304 -0.2599 0.1996
C17 C -0.2950(3) -0.18047(15) 0.14454(8)
H13 H -0.3810 -0.2116 0.1274
C18 C -0.1996(2) -0.10416(13) 0.12524(7)
C19 C -0.2321(3) -0.07362(14) 0.08064(7)
H14 H -0.3143 -0.1067 0.0631
C20 C -0.1466(2) 0.00286(13) 0.06247(7)
H15 H -0.1695 0.0220 0.0329
C21 C 0.0362(3) 0.3413(2) -0.02569(9)
H16 H 0.0774 0.2844 -0.0405
H17 H 0.0451 0.3944 -0.0461
H18 H -0.0857 0.3330 -0.0167
loop_
_geom_bond_atom_site_label_1
_geom_bond_atom_site_label_2
_geom_bond_site_symmetry_1
_geom_bond_site_symmetry_2
O1 C9 1_555 1_555
O2 C2 1_555 1_555
C1 H1 1_555 1_555
C2 C1 1_555 1_555
C3 C2 1_555 1_555
H2 C3 1_555 1_555
C4 C3 1_555 1_555
H3 C4 1_555 1_555
C5 C4 1_555 1_555
C6 C1 1_555 1_555
C7 C6 1_555 1_555
C8 C7 1_555 1_555
C9 C5 1_555 1_555
C10 C9 1_555 1_555
H4 C10 1_555 1_555
H5 C10 1_555 1_555
C11 C10 1_555 1_555
H6 C11 1_555 1_555
H7 C11 1_555 1_555
C12 O1 1_555 1_555
H8 C12 1_555 1_555
H9 C12 1_555 1_555
C13 C8 1_555 1_555
C14 C13 1_555 1_555
H10 C14 1_555 1_555
C15 C14 1_555 1_555
H11 C15 1_555 1_555
C16 C15 1_555 1_555
H12 C16 1_555 1_555
C17 C16 1_555 1_555
H13 C17 1_555 1_555
C18 C13 1_555 1_555
C19 C18 1_555 1_555
H14 C19 1_555 1_555
C20 C7 1_555 1_555
H15 C20 1_555 1_555
C21 O2 1_555 1_555
H16 C21 1_555 1_555
H17 C21 1_555 1_555
H18 C21 1_555 1_555
C5 C6 1_555 1_555
C8 C9 1_555 1_555
C11 C12 1_555 1_555
C17 C18 1_555 1_555
C19 C20 1_555 1_555

#END
