
#######################################################################
#
#                 Cambridge Crystallographic Data Centre
#                                CCDC 
#
#######################################################################
#
# If this CIF has been generated from an entry in the Cambridge 
# Structural Database, then it will include bibliographic, chemical, 
# crystal, experimental, refinement or atomic coordinate data resulting 
# from the CCDC's data processing and validation procedures.
#
#######################################################################

data_IRAMUL
_chemical_formula_moiety         'C22 H19 F1 N2 O1'
_chemical_name_systematic        
(E)-5-(4-fluorobenzylidene)-3,3-dimethyl-1-(quinolin-8-yl)pyrrolidin-2-one
_symmetry_cell_setting           orthorhombic
_symmetry_space_group_name_H-M   'P b c a'
_symmetry_Int_Tables_number      61
_space_group_name_Hall           '-P 2ac 2ab'
loop_
_symmetry_equiv_pos_site_id
_symmetry_equiv_pos_as_xyz
1 x,y,z
2 1/2-x,-y,1/2+z
3 1/2+x,1/2-y,-z
4 -x,1/2+y,1/2-z
5 -x,-y,-z
6 1/2+x,y,1/2-z
7 1/2-x,1/2+y,z
8 x,1/2-y,1/2+z
_cell_length_a                   9.2417(4)
_cell_length_b                   14.1706(6)
_cell_length_c                   27.2603(12)
_cell_angle_alpha                90
_cell_angle_beta                 90
_cell_angle_gamma                90
_cell_volume                     3570.02
_exptl_crystal_colour            yellow
_exptl_crystal_description       block
_cell_formula_units_Z            8
loop_
_atom_site_label
_atom_site_type_symbol
_atom_site_fract_x
_atom_site_fract_y
_atom_site_fract_z
F1 F 1.32245(15) 0.16102(11) 0.48816(5)
O1 O 0.40272(14) 0.06248(9) 0.67302(5)
N1 N 0.49926(16) 0.31497(11) 0.64112(5)
N2 N 0.61362(16) 0.13384(10) 0.64911(5)
C1 C 0.4475(2) 0.40134(16) 0.63869(8)
H1 H 0.4015 0.4191 0.6098
C2 C 0.4562(2) 0.46833(15) 0.67610(9)
H2 H 0.4159 0.5280 0.6720
C3 C 0.5236(2) 0.44539(13) 0.71791(8)
H3 H 0.5308 0.4892 0.7432
C4 C 0.58333(18) 0.35477(12) 0.72335(6)
C5 C 0.56753(16) 0.29113(11) 0.68370(6)
C6 C 0.62540(17) 0.19929(12) 0.68893(6)
C7 C 0.6953(2) 0.17378(14) 0.73054(7)
H4 H 0.7322 0.1130 0.7334
C8 C 0.7127(2) 0.23774(17) 0.76925(7)
H5 H 0.7624 0.2196 0.7974
C9 C 0.6577(2) 0.32567(15) 0.76585(7)
H6 H 0.6689 0.3675 0.7918
C10 C 0.50716(19) 0.06722(11) 0.64607(7)
C11 C 0.54931(18) -0.00154(11) 0.60581(7)
C12 C 0.6584(2) 0.05600(13) 0.57591(7)
H7 H 0.7336 0.0157 0.5626
H8 H 0.6110 0.0887 0.5491
C13 C 0.72005(19) 0.12476(11) 0.61219(6)
C14 C 0.84693(19) 0.16846(12) 0.61426(6)
H9 H 0.8614 0.2062 0.6417
C15 C 0.96738(19) 0.16565(11) 0.57936(6)
C16 C 0.9549(2) 0.14043(15) 0.53019(7)
H10 H 0.8648 0.1238 0.5177
C17 C 1.0742(3) 0.13979(16) 0.49980(8)
H11 H 1.0650 0.1224 0.4671
C18 C 1.2045(2) 0.16465(14) 0.51807(8)
C19 C 1.2227(2) 0.19228(13) 0.56539(8)
H12 H 1.3130 0.2103 0.5771
C20 C 1.1030(2) 0.19268(12) 0.59537(7)
H13 H 1.1139 0.2119 0.6278
C21 C 0.6268(2) -0.08286(13) 0.63176(8)
H14 H 0.7077 -0.0586 0.6499
H15 H 0.6604 -0.1275 0.6078
H16 H 0.5609 -0.1135 0.6538
C22 C 0.4207(2) -0.03781(15) 0.57703(8)
H17 H 0.3539 -0.0680 0.5990
H18 H 0.4531 -0.0824 0.5529
H19 H 0.3735 0.0140 0.5610
loop_
_geom_bond_atom_site_label_1
_geom_bond_atom_site_label_2
_geom_bond_site_symmetry_1
_geom_bond_site_symmetry_2
F1 C18 1_555 1_555
O1 C10 1_555 1_555
N1 C1 1_555 1_555
N2 C6 1_555 1_555
C1 H1 1_555 1_555
C2 C1 1_555 1_555
H2 C2 1_555 1_555
C3 C2 1_555 1_555
H3 C3 1_555 1_555
C4 C3 1_555 1_555
C5 N1 1_555 1_555
C6 C5 1_555 1_555
C7 C6 1_555 1_555
H4 C7 1_555 1_555
C8 C7 1_555 1_555
H5 C8 1_555 1_555
C9 C4 1_555 1_555
H6 C9 1_555 1_555
C10 N2 1_555 1_555
C11 C10 1_555 1_555
C12 C11 1_555 1_555
H7 C12 1_555 1_555
H8 C12 1_555 1_555
C13 N2 1_555 1_555
C14 C13 1_555 1_555
H9 C14 1_555 1_555
C15 C14 1_555 1_555
C16 C15 1_555 1_555
H10 C16 1_555 1_555
C17 C16 1_555 1_555
H11 C17 1_555 1_555
C18 C17 1_555 1_555
C19 C18 1_555 1_555
H12 C19 1_555 1_555
C20 C15 1_555 1_555
H13 C20 1_555 1_555
C21 C11 1_555 1_555
H14 C21 1_555 1_555
H15 C21 1_555 1_555
H16 C21 1_555 1_555
C22 C11 1_555 1_555
H17 C22 1_555 1_555
H18 C22 1_555 1_555
H19 C22 1_555 1_555
C4 C5 1_555 1_555
C8 C9 1_555 1_555
C12 C13 1_555 1_555
C19 C20 1_555 1_555

#END
