
#######################################################################
#
#                 Cambridge Crystallographic Data Centre
#                                CCDC 
#
#######################################################################
#
# If this CIF has been generated from an entry in the Cambridge 
# Structural Database, then it will include bibliographic, chemical, 
# crystal, experimental, refinement or atomic coordinate data resulting 
# from the CCDC's data processing and validation procedures.
#
#######################################################################

data_IRAMOF
_chemical_formula_moiety         'C24 H15 F1 N2 O1'
_chemical_name_systematic        
(E)-3-(4-fluorobenzylidene)-2-(quinolin-8-yl)isoindolin-1-one
_symmetry_cell_setting           triclinic
_symmetry_space_group_name_H-M   'P -1'
_symmetry_Int_Tables_number      2
_space_group_name_Hall           '-P 1'
loop_
_symmetry_equiv_pos_site_id
_symmetry_equiv_pos_as_xyz
1 x,y,z
2 -x,-y,-z
_cell_length_a                   7.6983(5)
_cell_length_b                   8.5912(7)
_cell_length_c                   13.9684(12)
_cell_angle_alpha                98.663(7)
_cell_angle_beta                 97.523(6)
_cell_angle_gamma                100.573(6)
_cell_volume                     885.76
_exptl_crystal_colour            'light yellow'
_exptl_crystal_description       block
_cell_formula_units_Z            2
loop_
_atom_site_label
_atom_site_type_symbol
_atom_site_fract_x
_atom_site_fract_y
_atom_site_fract_z
F1 F 0.21298(15) -0.03731(14) 0.85259(8)
O1 O 1.19682(16) 0.50622(15) 0.76416(8)
N1 N 0.93656(16) 0.31474(15) 0.70736(9)
N2 N 0.80897(18) 0.56565(17) 0.80591(9)
C1 C 1.2368(2) 0.4475(2) 0.54167(13)
H1 H 1.3300 0.5319 0.5731
C2 C 1.2188(2) 0.3899(2) 0.44256(13)
H2 H 1.2994 0.4372 0.4060
C3 C 1.0817(2) 0.2623(2) 0.39718(13)
H3 H 1.0725 0.2245 0.3303
C4 C 0.9579(2) 0.1892(2) 0.44823(12)
H4 H 0.8671 0.1024 0.4172
C5 C 0.9734(2) 0.24984(19) 0.54746(11)
C6 C 1.1118(2) 0.37564(19) 0.59289(11)
C7 C 1.0946(2) 0.41381(19) 0.69725(12)
C8 C 0.85467(19) 0.20970(19) 0.61853(10)
C9 C 0.7017(2) 0.1002(2) 0.59995(11)
H5 H 0.6760 0.0372 0.5375
C10 C 0.56800(19) 0.06471(19) 0.66403(11)
C11 C 0.4902(2) 0.1839(2) 0.70907(11)
H6 H 0.5190 0.2880 0.6965
C12 C 0.3705(2) 0.1496(2) 0.77235(12)
H7 H 0.3190 0.2296 0.8027
C13 C 0.3296(2) -0.0037(2) 0.78925(12)
C14 C 0.3969(2) -0.1263(2) 0.74460(13)
H8 H 0.3640 -0.2305 0.7564
C15 C 0.5157(2) -0.0903(2) 0.68118(12)
H9 H 0.5619 -0.1725 0.6491
C16 C 0.88599(19) 0.30695(19) 0.80192(10)
C17 C 0.8968(2) 0.1751(2) 0.84358(12)
H10 H 0.9365 0.0898 0.8102
C18 C 0.8487(2) 0.1664(2) 0.93637(12)
H11 H 0.8551 0.0749 0.9636
C19 C 0.7931(2) 0.2909(2) 0.98643(12)
H12 H 0.7638 0.2851 1.0485
C20 C 0.77925(19) 0.4286(2) 0.94549(11)
C21 C 0.82513(19) 0.43829(18) 0.85134(10)
C22 C 0.7502(2) 0.6833(2) 0.85478(13)
H13 H 0.7388 0.7713 0.8248
C23 C 0.7038(2) 0.6858(2) 0.94823(13)
H14 H 0.6633 0.7730 0.9788
C24 C 0.7187(2) 0.5594(2) 0.99366(12)
H15 H 0.6892 0.5590 1.0561
loop_
_geom_bond_atom_site_label_1
_geom_bond_atom_site_label_2
_geom_bond_site_symmetry_1
_geom_bond_site_symmetry_2
F1 C13 1_555 1_555
O1 C7 1_555 1_555
N1 C7 1_555 1_555
N2 C21 1_555 1_555
C1 H1 1_555 1_555
C2 C1 1_555 1_555
H2 C2 1_555 1_555
C3 C2 1_555 1_555
H3 C3 1_555 1_555
C4 C3 1_555 1_555
H4 C4 1_555 1_555
C5 C4 1_555 1_555
C6 C1 1_555 1_555
C7 C6 1_555 1_555
C8 N1 1_555 1_555
C9 C8 1_555 1_555
H5 C9 1_555 1_555
C10 C9 1_555 1_555
C11 C10 1_555 1_555
H6 C11 1_555 1_555
C12 C11 1_555 1_555
H7 C12 1_555 1_555
C13 C12 1_555 1_555
C14 C13 1_555 1_555
H8 C14 1_555 1_555
C15 C10 1_555 1_555
H9 C15 1_555 1_555
C16 N1 1_555 1_555
C17 C16 1_555 1_555
H10 C17 1_555 1_555
C18 C17 1_555 1_555
H11 C18 1_555 1_555
C19 C18 1_555 1_555
H12 C19 1_555 1_555
C20 C19 1_555 1_555
C21 C16 1_555 1_555
C22 N2 1_555 1_555
H13 C22 1_555 1_555
C23 C22 1_555 1_555
H14 C23 1_555 1_555
C24 C20 1_555 1_555
H15 C24 1_555 1_555
C5 C6 1_555 1_555
C5 C8 1_555 1_555
C14 C15 1_555 1_555
C20 C21 1_555 1_555
C23 C24 1_555 1_555

#END
