
#######################################################################
#
#                 Cambridge Crystallographic Data Centre
#                                CCDC 
#
#######################################################################
#
# If this CIF has been generated from an entry in the Cambridge 
# Structural Database, then it will include bibliographic, chemical, 
# crystal, experimental, refinement or atomic coordinate data resulting 
# from the CCDC's data processing and validation procedures.
#
#######################################################################

data_IRAMIY
_chemical_formula_moiety         'C18 H17 N1'
_chemical_name_systematic        3,4-Diphenylcyclopentanecarbonitrile
_symmetry_cell_setting           orthorhombic
_symmetry_space_group_name_H-M   'P b c a'
_symmetry_Int_Tables_number      61
_space_group_name_Hall           '-P 2ac 2ab'
loop_
_symmetry_equiv_pos_site_id
_symmetry_equiv_pos_as_xyz
1 x,y,z
2 1/2-x,-y,1/2+z
3 -x,1/2+y,1/2-z
4 1/2+x,1/2-y,-z
5 -x,-y,-z
6 1/2+x,y,1/2-z
7 x,1/2-y,1/2+z
8 1/2-x,1/2+y,z
_cell_length_a                   5.981(2)
_cell_length_b                   18.648(6)
_cell_length_c                   24.581(7)
_cell_angle_alpha                90
_cell_angle_beta                 90
_cell_angle_gamma                90
_cell_volume                     2741.61
_exptl_crystal_colour            colorless
_exptl_crystal_description       prismatic
_cell_formula_units_Z            8
loop_
_atom_site_label
_atom_site_type_symbol
_atom_site_fract_x
_atom_site_fract_y
_atom_site_fract_z
N1 N 0.4348(6) 0.05260(19) 0.31831(15)
C1 C 0.0317(6) 0.0169(2) 0.34867(15)
H1 H -0.0705 0.0586 0.3426
C2 C -0.0584(6) -0.0479(2) 0.31643(14)
H2 H -0.2029 -0.0359 0.2990
H3 H 0.0490 -0.0623 0.2878
C3 C -0.0885(11) -0.1079(3) 0.3578(2)
H4 H 0.0588 -0.1310 0.3657
C4 C -0.1678(11) -0.0644(3) 0.4075(2)
H5 H -0.3192 -0.0432 0.4014
C5 C 0.0163(6) -0.0057(2) 0.40912(14)
H6 H -0.0287 0.0351 0.4325
H7 H 0.1601 -0.0253 0.4224
C6 C 0.2588(8) 0.0375(2) 0.33184(16)
C7 C -0.2573(8) -0.1639(2) 0.34143(13)
C8 C -0.4681(7) -0.1557(2) 0.31912(13)
H8 H -0.5324 -0.1091 0.3173
C9 C -0.5868(6) -0.2135(3) 0.29955(13)
H9 H -0.7311 -0.2067 0.2842
C10 C -0.4956(7) -0.2805(2) 0.30231(14)
H10 H -0.5757 -0.3205 0.2884
C11 C -0.2894(8) -0.2903(3) 0.32507(15)
H11 H -0.2275 -0.3371 0.3274
C12 C -0.1715(6) -0.2325(3) 0.34457(15)
H12 H -0.0286 -0.2398 0.3605
C13 C -0.1595(9) -0.1085(2) 0.46148(16)
C14 C -0.3533(7) -0.1008(2) 0.49107(18)
H13 H -0.4701 -0.0714 0.4773
C15 C -0.3806(8) -0.1352(3) 0.54049(19)
H14 H -0.5151 -0.1295 0.5606
C16 C -0.2119(11) -0.1774(3) 0.56013(17)
H15 H -0.2274 -0.2009 0.5942
C17 C -0.0204(9) -0.1857(2) 0.5302(2)
H16 H 0.0963 -0.2156 0.5434
C18 C 0.0033(8) -0.1513(3) 0.48199(17)
H17 H 0.1377 -0.1575 0.4619
C19? C -0.2082(19) -0.0840(6) 0.3617(5)
C20? C -0.0368(19) -0.0855(6) 0.4090(4)
H18? H -0.3466 -0.0561 0.3704
H19? H 0.0967 -0.1159 0.4009
loop_
_geom_bond_atom_site_label_1
_geom_bond_atom_site_label_2
_geom_bond_site_symmetry_1
_geom_bond_site_symmetry_2
N1 C6 1_555 1_555
C1 H1 1_555 1_555
C2 C1 1_555 1_555
H2 C2 1_555 1_555
H3 C2 1_555 1_555
C3 C2 1_555 1_555
H4 C3 1_555 1_555
C4 C3 1_555 1_555
H5 C4 1_555 1_555
C5 C1 1_555 1_555
H6 C5 1_555 1_555
H7 C5 1_555 1_555
C6 C1 1_555 1_555
C7 C3 1_555 1_555
C8 C7 1_555 1_555
H8 C8 1_555 1_555
C9 C8 1_555 1_555
H9 C9 1_555 1_555
C10 C9 1_555 1_555
H10 C10 1_555 1_555
C11 C10 1_555 1_555
H11 C11 1_555 1_555
C12 C7 1_555 1_555
H12 C12 1_555 1_555
C13 C4 1_555 1_555
C14 C13 1_555 1_555
H13 C14 1_555 1_555
C15 C14 1_555 1_555
H14 C15 1_555 1_555
C16 C15 1_555 1_555
H15 C16 1_555 1_555
C17 C16 1_555 1_555
H16 C17 1_555 1_555
C18 C13 1_555 1_555
H17 C18 1_555 1_555
C4 C5 1_555 1_555
C11 C12 1_555 1_555
C17 C18 1_555 1_555

#END
