
#######################################################################
#
#                 Cambridge Crystallographic Data Centre
#                                CCDC 
#
#######################################################################
#
# If this CIF has been generated from an entry in the Cambridge 
# Structural Database, then it will include bibliographic, chemical, 
# crystal, experimental, refinement or atomic coordinate data resulting 
# from the CCDC's data processing and validation procedures.
#
#######################################################################

data_IRAPIB
_chemical_formula_moiety         'C22 H18 N2 O1'
_chemical_name_systematic        
2-(4-Methoxyphenyl)-3-(4-methylphenyl)quinoxaline
_symmetry_cell_setting           triclinic
_symmetry_space_group_name_H-M   'P -1'
_symmetry_Int_Tables_number      2
_space_group_name_Hall           '-P 1'
loop_
_symmetry_equiv_pos_site_id
_symmetry_equiv_pos_as_xyz
1 x,y,z
2 -x,-y,-z
_cell_length_a                   10.6600(16)
_cell_length_b                   10.809(2)
_cell_length_c                   17.610(4)
_cell_angle_alpha                81.63(2)
_cell_angle_beta                 74.62(2)
_cell_angle_gamma                64.290(10)
_cell_volume                     1761.66
_exptl_crystal_colour            'pale yellow'
_exptl_crystal_description       block
_cell_formula_units_Z            4
loop_
_atom_site_label
_atom_site_type_symbol
_atom_site_fract_x
_atom_site_fract_y
_atom_site_fract_z
C1 C 0.4506(4) -0.0342(4) 0.1209(2)
C2 C 0.6554(4) -0.2375(4) 0.1139(2)
C3 C 0.8044(4) -0.3081(4) 0.0991(2)
H1 H 0.8624 -0.2585 0.0812
C4 C 0.8667(5) -0.4458(4) 0.1102(3)
H2 H 0.9679 -0.4925 0.0994
C5 C 0.7823(5) -0.5205(4) 0.1376(3)
H3 H 0.8270 -0.6169 0.1473
C6 C 0.6356(4) -0.4552(4) 0.1505(2)
H4 H 0.5794 -0.5065 0.1678
C7 C 0.5698(4) -0.3126(4) 0.1382(2)
C8 C 0.3653(4) -0.1121(4) 0.1349(2)
C9 C 0.2106(4) -0.0486(4) 0.1343(2)
C10 C 0.1139(4) -0.0896(4) 0.1916(2)
H5 H 0.1476 -0.1586 0.2304
C11 C -0.0307(4) -0.0291(4) 0.1913(3)
H6 H -0.0955 -0.0547 0.2314
C12 C -0.0820(4) 0.0684(4) 0.1331(3)
C13 C 0.0146(4) 0.1039(5) 0.0745(3)
H7 H -0.0181 0.1673 0.0332
C14 C 0.1584(4) 0.0471(4) 0.0759(2)
H8 H 0.2225 0.0742 0.0361
C15 C 0.3855(4) 0.1195(4) 0.1225(2)
C16 C 0.2637(4) 0.1897(4) 0.1796(2)
H9 H 0.2202 0.1402 0.2181
C17 C 0.2064(5) 0.3319(4) 0.1801(3)
H10 H 0.1239 0.3791 0.2194
C18 C 0.2675(5) 0.4067(4) 0.1239(3)
C19 C 0.3906(5) 0.3361(4) 0.0685(3)
H11 H 0.4346 0.3855 0.0304
C20 C 0.4500(4) 0.1933(4) 0.0685(2)
H12 H 0.5356 0.1459 0.0312
N1 N 0.5924(3) -0.0960(3) 0.10760(18)
N2 N 0.4236(3) -0.2484(3) 0.14684(19)
O1 O 0.1861(7) 0.5474(7) 0.1301(4)
C21 C 0.2372(8) 0.6260(7) 0.0678(4)
H13 H 0.3313 0.6157 0.0716
H14 H 0.1702 0.7230 0.0720
H15 H 0.2451 0.5931 0.0170
C22 C -0.2370(11) 0.1239(12) 0.1298(7)
H16 H -0.2567 0.1968 0.0887
H17 H -0.2977 0.1614 0.1809
H18 H -0.2574 0.0498 0.1178
O2 O 0.8266(6) -0.4015(6) 0.3579(4)
C23 C 0.9214(8) -0.3499(8) 0.3061(4)
H19 H 0.9155 -0.3512 0.2517
H20 H 1.0194 -0.4074 0.3117
H21 H 0.8947 -0.2554 0.3194
C24 C 0.3705(15) -0.7998(12) 0.3763(7)
H22 H 0.4220 -0.8466 0.4179
H23 H 0.4359 -0.8267 0.3247
H24 H 0.2911 -0.8259 0.3819
N3 N 0.1694(4) 0.0005(4) 0.3696(2)
N4 N -0.0001(4) -0.1514(4) 0.4085(2)
C25 C 0.2284(4) -0.1348(4) 0.3796(2)
C26 C 0.0243(5) 0.0639(4) 0.3771(3)
C27 C -0.0405(5) 0.2063(5) 0.3604(3)
H25 H 0.0158 0.2578 0.3459
C28 C -0.1857(6) 0.2708(6) 0.3651(3)
H26 H -0.2287 0.3663 0.3524
C29 C -0.2704(6) 0.1967(5) 0.3883(3)
H27 H -0.3703 0.2423 0.3911
C30 C -0.2104(5) 0.0584(5) 0.4071(3)
H28 H -0.2689 0.0094 0.4247
C31 C -0.0603(5) -0.0105(5) 0.3999(3)
C32 C 0.1411(4) -0.2114(4) 0.3954(2)
C33 C 0.2043(4) -0.3651(4) 0.3918(2)
C34 C 0.3105(4) -0.4328(4) 0.3263(2)
H29 H 0.3451 -0.3811 0.2846
C35 C 0.3647(5) -0.5742(4) 0.3221(3)
H30 H 0.4363 -0.6190 0.2777
C36 C 0.3146(5) -0.6509(4) 0.3828(3)
C37 C 0.2079(5) -0.5845(5) 0.4461(3)
H31 H 0.1721 -0.6365 0.4870
C38 C 0.1526(4) -0.4433(4) 0.4508(2)
H32 H 0.0786 -0.3993 0.4946
C39 C 0.3864(4) -0.2003(4) 0.3734(2)
C40 C 0.4718(4) -0.1446(4) 0.3211(2)
H33 H 0.4288 -0.0648 0.2902
C41 C 0.6196(5) -0.2030(5) 0.3125(3)
H34 H 0.6769 -0.1642 0.2757
C42 C 0.6822(5) -0.3184(5) 0.3584(3)
C43 C 0.5963(5) -0.3714(5) 0.4135(3)
H35 H 0.6387 -0.4485 0.4462
C44 C 0.4504(5) -0.3136(4) 0.4212(3)
H36 H 0.3930 -0.3509 0.4591
C45? C 0.222(2) 0.5594(17) 0.1214(11)
C46? C 0.8457(16) -0.3649(17) 0.3377(10)
C47? C -0.3196(13) 0.1279(13) 0.1913(7)
C48? C 0.3520(16) -0.8667(12) 0.4473(7)
H37? H 0.3062 0.5795 0.1089
H38? H 0.1622 0.5960 0.1729
H39? H 0.1663 0.6023 0.0809
H40? H 0.8768 -0.3397 0.2825
H41? H 0.8928 -0.4647 0.3458
H42? H 0.8714 -0.3197 0.3717
H43? H 0.3665 -0.8397 0.4939
H44? H 0.4093 -0.9654 0.4401
H45? H 0.2506 -0.8463 0.4544
H46? H -0.3087 0.0345 0.1859
H47? H -0.4169 0.1935 0.1885
H48? H -0.3020 0.1342 0.2422
O3? O -0.2257(12) 0.1570(12) 0.1331(6)
O4? O 0.3947(19) -0.7924(17) 0.3797(10)
loop_
_geom_bond_atom_site_label_1
_geom_bond_atom_site_label_2
_geom_bond_site_symmetry_1
_geom_bond_site_symmetry_2
C1 C8 1_555 1_555
C2 C3 1_555 1_555
C3 H1 1_555 1_555
C4 C3 1_555 1_555
H2 C4 1_555 1_555
C5 C4 1_555 1_555
H3 C5 1_555 1_555
C6 C5 1_555 1_555
H4 C6 1_555 1_555
C7 C2 1_555 1_555
C8 C9 1_555 1_555
C9 C10 1_555 1_555
C10 H5 1_555 1_555
C11 C10 1_555 1_555
H6 C11 1_555 1_555
C12 C11 1_555 1_555
C13 C12 1_555 1_555
H7 C13 1_555 1_555
C14 C9 1_555 1_555
H8 C14 1_555 1_555
C15 C1 1_555 1_555
C16 C15 1_555 1_555
H9 C16 1_555 1_555
C17 C16 1_555 1_555
H10 C17 1_555 1_555
C18 C17 1_555 1_555
C19 C18 1_555 1_555
H11 C19 1_555 1_555
C20 C15 1_555 1_555
H12 C20 1_555 1_555
N1 C1 1_555 1_555
N2 C7 1_555 1_555
O1 C18 1_555 1_555
C21 O1 1_555 1_555
H13 C21 1_555 1_555
H14 C21 1_555 1_555
H15 C21 1_555 1_555
C22 C12 1_555 1_555
H16 C22 1_555 1_555
H17 C22 1_555 1_555
H18 C22 1_555 1_555
O2 C23 1_555 1_555
C23 H19 1_555 1_555
H20 C23 1_555 1_555
H21 C23 1_555 1_555
C24 H22 1_555 1_555
H23 C24 1_555 1_555
H24 C24 1_555 1_555
N3 C25 1_555 1_555
N4 C31 1_555 1_555
C25 C32 1_555 1_555
C26 N3 1_555 1_555
C27 C26 1_555 1_555
H25 C27 1_555 1_555
C28 C27 1_555 1_555
H26 C28 1_555 1_555
C29 C28 1_555 1_555
H27 C29 1_555 1_555
C30 C29 1_555 1_555
H28 C30 1_555 1_555
C31 C26 1_555 1_555
C32 N4 1_555 1_555
C33 C32 1_555 1_555
C34 C33 1_555 1_555
H29 C34 1_555 1_555
C35 C34 1_555 1_555
H30 C35 1_555 1_555
C36 C24 1_555 1_555
C37 C36 1_555 1_555
H31 C37 1_555 1_555
C38 C33 1_555 1_555
H32 C38 1_555 1_555
C39 C25 1_555 1_555
C40 C39 1_555 1_555
H33 C40 1_555 1_555
C41 C40 1_555 1_555
H34 C41 1_555 1_555
C42 O2 1_555 1_555
C43 C42 1_555 1_555
H35 C43 1_555 1_555
C44 C39 1_555 1_555
H36 C44 1_555 1_555
C2 N1 1_555 1_555
C6 C7 1_555 1_555
C8 N2 1_555 1_555
C13 C14 1_555 1_555
C19 C20 1_555 1_555
C30 C31 1_555 1_555
C35 C36 1_555 1_555
C37 C38 1_555 1_555
C41 C42 1_555 1_555
C43 C44 1_555 1_555

#END
