
#######################################################################
#
#                 Cambridge Crystallographic Data Centre
#                                CCDC 
#
#######################################################################
#
# If this CIF has been generated from an entry in the Cambridge 
# Structural Database, then it will include bibliographic, chemical, 
# crystal, experimental, refinement or atomic coordinate data resulting 
# from the CCDC's data processing and validation procedures.
#
#######################################################################

data_IRASEB
_chemical_formula_moiety         'C14 H16 N2 O3 S1'
_chemical_name_systematic        
'7a-methyl-3-(4-methylphenyl)-1,3a,4,7a-tetrahydro-2,1,3-benzothiadiazol-5(3H)-one 2,2-dioxide'
_symmetry_cell_setting           monoclinic
_symmetry_space_group_name_H-M   'P 21/c'
_symmetry_Int_Tables_number      14
_space_group_name_Hall           '-P 2ybc'
loop_
_symmetry_equiv_pos_site_id
_symmetry_equiv_pos_as_xyz
1 x,y,z
2 -x,1/2+y,1/2-z
3 -x,-y,-z
4 x,1/2-y,1/2+z
_cell_length_a                   13.7423(6)
_cell_length_b                   7.2929(4)
_cell_length_c                   14.5618(8)
_cell_angle_alpha                90
_cell_angle_beta                 105.371(3)
_cell_angle_gamma                90
_cell_volume                     1407.2
_exptl_crystal_colour            brown
_exptl_crystal_description       platelet
_cell_formula_units_Z            4
loop_
_atom_site_label
_atom_site_type_symbol
_atom_site_fract_x
_atom_site_fract_y
_atom_site_fract_z
S1 S 0.18733(5) 0.39523(8) 0.12051(4)
O1 O 0.12200(14) 0.2806(2) 0.15667(13)
O2 O 0.25726(15) 0.3010(3) 0.08040(14)
O3 O 0.17683(19) 0.9455(3) 0.36354(13)
N1 N 0.24213(14) 0.5435(2) 0.20431(13)
N2 N 0.12544(16) 0.5479(3) 0.04634(15)
H1 H 0.144(2) 0.539(4) -0.003(2)
C1 C 0.48424(19) 0.3221(3) 0.41794(18)
C2 C 0.3850(2) 0.2781(4) 0.41195(18)
H2 H 0.3710 0.1952 0.4552
C3 C 0.30623(19) 0.3540(4) 0.34331(18)
H3 H 0.2400 0.3247 0.3418
C4 C 0.32603(17) 0.4739(3) 0.27674(16)
C5 C 0.42440(19) 0.5200(4) 0.28130(18)
H4 H 0.4383 0.5998 0.2366
C6 C 0.50273(19) 0.4476(4) 0.35256(18)
H5 H 0.5687 0.4835 0.3567
C7 C 0.5698(2) 0.2381(4) 0.4935(2)
H6 H 0.5451 0.1979 0.5460
H7 H 0.6219 0.3278 0.5154
H8 H 0.5966 0.1352 0.4671
C8 C 0.23977(17) 0.7290(3) 0.16332(15)
H9 H 0.2934 0.7414 0.1308
C9 C 0.25131(18) 0.8752(3) 0.23934(16)
H10 H 0.3125 0.8512 0.2892
H11 H 0.2591 0.9933 0.2115
C10 C 0.1646(2) 0.8853(3) 0.28290(18)
C11 C 0.0652(2) 0.8285(4) 0.2249(2)
H12 H 0.0096 0.8411 0.2493
C12 C 0.0526(2) 0.7596(4) 0.1383(2)
H13 H -0.0124 0.7254 0.1049
C13 C 0.13581(18) 0.7326(3) 0.09006(16)
C14 C 0.1289(2) 0.8756(4) 0.01255(18)
H14 H 0.1825 0.8565 -0.0174
H15 H 0.1349 0.9959 0.0402
H16 H 0.0651 0.8646 -0.0341
loop_
_geom_bond_atom_site_label_1
_geom_bond_atom_site_label_2
_geom_bond_site_symmetry_1
_geom_bond_site_symmetry_2
S1 O1 1_555 1_555
O2 S1 1_555 1_555
O3 C10 1_555 1_555
N1 S1 1_555 1_555
N2 S1 1_555 1_555
H1 N2 1_555 1_555
C1 C2 1_555 1_555
C2 H2 1_555 1_555
C3 C2 1_555 1_555
H3 C3 1_555 1_555
C4 N1 1_555 1_555
C5 C4 1_555 1_555
H4 C5 1_555 1_555
C6 C1 1_555 1_555
H5 C6 1_555 1_555
C7 C1 1_555 1_555
H6 C7 1_555 1_555
H7 C7 1_555 1_555
H8 C7 1_555 1_555
C8 N1 1_555 1_555
H9 C8 1_555 1_555
C9 C8 1_555 1_555
H10 C9 1_555 1_555
H11 C9 1_555 1_555
C10 C9 1_555 1_555
C11 C10 1_555 1_555
H12 C11 1_555 1_555
C12 C11 1_555 1_555
H13 C12 1_555 1_555
C13 N2 1_555 1_555
C14 C13 1_555 1_555
H14 C14 1_555 1_555
H15 C14 1_555 1_555
H16 C14 1_555 1_555
C3 C4 1_555 1_555
C5 C6 1_555 1_555
C8 C13 1_555 1_555
C12 C13 1_555 1_555

#END
