
#######################################################################
#
#                 Cambridge Crystallographic Data Centre
#                                CCDC 
#
#######################################################################
#
# If this CIF has been generated from an entry in the Cambridge 
# Structural Database, then it will include bibliographic, chemical, 
# crystal, experimental, refinement or atomic coordinate data resulting 
# from the CCDC's data processing and validation procedures.
#
#######################################################################

data_IRATEC
_chemical_formula_moiety         'C35 H41 N1 O8'
_chemical_name_systematic        
'1,1-diethyl 3-methyl 2-(dibenzylamino)-4-(3,4-dimethoxyphenyl)cyclopentane-1,1,3-tricarboxylate'
_symmetry_cell_setting           triclinic
_symmetry_space_group_name_H-M   'P -1'
_symmetry_Int_Tables_number      2
_space_group_name_Hall           '-P 1'
loop_
_symmetry_equiv_pos_site_id
_symmetry_equiv_pos_as_xyz
1 x,y,z
2 -x,-y,-z
_cell_length_a                   10.106(5)
_cell_length_b                   11.882(5)
_cell_length_c                   15.168(5)
_cell_angle_alpha                75.206(5)
_cell_angle_beta                 71.749(5)
_cell_angle_gamma                75.342(5)
_cell_volume                     1642.42
_exptl_crystal_colour            colorless
_exptl_crystal_description       block
_cell_formula_units_Z            2
loop_
_atom_site_label
_atom_site_type_symbol
_atom_site_fract_x
_atom_site_fract_y
_atom_site_fract_z
N1 N 0.1231(2) 0.32945(18) 0.16658(15)
O1 O 0.6022(3) -0.2785(2) 0.49827(18)
C1 C 0.2716(2) 0.1379(2) 0.09502(17)
O2 O 0.4736(3) 0.2316(3) 0.0146(2)
O3 O 0.4211(4) -0.3586(2) 0.4593(2)
O4 O 0.2942(2) 0.2694(2) -0.05083(17)
O5 O 0.0693(2) 0.0951(3) 0.0663(2)
O6 O -0.0115(3) 0.0732(3) 0.3494(2)
C2 C 0.1578(2) 0.2018(2) 0.17552(16)
H1 H 0.0685 0.1780 0.1824
C3 C 0.2012(3) 0.1380(2) 0.26751(17)
H2 H 0.2679 0.1788 0.2762
O7 O 0.2840(2) 0.0180(3) -0.0099(2)
C4 C 0.5282(3) -0.1993(3) 0.4391(2)
C5 C -0.1246(3) 0.3610(2) 0.1567(2)
C6 C 0.0221(3) 0.3891(2) 0.11066(19)
H3 H 0.0574 0.3660 0.0493
H4 H 0.0159 0.4741 0.1004
C7 C 0.3644(3) -0.0587(3) 0.3177(2)
C8 C 0.1820(3) 0.5022(3) 0.1980(2)
C9 C 0.1948(3) 0.0816(3) 0.0501(2)
C10 C 0.3670(3) 0.0407(3) 0.1480(2)
H5 H 0.3970 -0.0295 0.1199
H6 H 0.4507 0.0684 0.1458
C11 C 0.4289(4) -0.2439(3) 0.4180(2)
O8 O 0.0500(3) 0.1938(3) 0.41204(19)
C12 C 0.3600(3) 0.2181(2) 0.0164(2)
C13 C 0.2363(3) 0.3947(2) 0.1520(2)
H7 H 0.2764 0.4196 0.0847
H8 H 0.3112 0.3425 0.1782
C14 C 0.5443(3) -0.0851(3) 0.4001(2)
H9 H 0.6091 -0.0536 0.4140
C15 C 0.4623(4) -0.0152(3) 0.3388(2)
H10 H 0.4746 0.0624 0.3119
C16 C -0.1903(3) 0.3629(3) 0.2506(2)
H11 H -0.1401 0.3747 0.2884
C17 C 0.0740(3) 0.1385(3) 0.3512(2)
C18 C 0.3491(4) -0.1726(3) 0.3580(2)
H12 H 0.2831 -0.2035 0.3448
C19 C -0.2004(4) 0.3386(3) 0.1037(3)
H13 H -0.1573 0.3334 0.0406
C20 C 0.2791(3) 0.0135(3) 0.2482(2)
H14 H 0.2087 -0.0310 0.2498
C21 C 0.0916(4) 0.4965(3) 0.2882(3)
H15 H 0.0649 0.4249 0.3217
C22 C -0.4024(4) 0.3270(4) 0.2366(4)
H16 H -0.4951 0.3147 0.2634
C23 C -0.3305(4) 0.3477(4) 0.2904(3)
H17 H -0.3741 0.3519 0.3537
C24 C 0.1967(6) 0.0347(7) -0.1430(4)
H18 H 0.1578 -0.0060 -0.1733
H19 H 0.1303 0.1050 -0.1275
H20 H 0.2837 0.0560 -0.1850
C25 C 0.2256(5) 0.6080(3) 0.1512(3)
H21 H 0.2896 0.6131 0.0916
C26 C 0.7112(4) -0.2421(4) 0.5169(3)
H22 H 0.7543 -0.3051 0.5590
H23 H 0.7814 -0.2228 0.4588
H24 H 0.6723 -0.1736 0.5458
C27 C 0.1731(8) 0.7072(4) 0.1938(5)
H25 H 0.2021 0.7784 0.1617
C28 C 0.0402(5) 0.5958(5) 0.3294(4)
H26 H -0.0217 0.5913 0.3897
C29 C 0.0819(6) 0.7022(5) 0.2797(5)
H27 H 0.0466 0.7699 0.3062
C30 C 0.3684(5) 0.3395(5) -0.1382(3)
H28 H 0.4690 0.3060 -0.1541
H29 H 0.3563 0.4205 -0.1308
C31 C 0.2245(4) -0.0422(5) -0.0574(4)
H30 H 0.2907 -0.1138 -0.0728
H31 H 0.1370 -0.0647 -0.0153
C32 C -0.3402(4) 0.3239(4) 0.1431(4)
H32 H -0.3913 0.3119 0.1060
C33 C 0.3191(7) -0.4102(4) 0.4444(5)
H33 H 0.3257 -0.4910 0.4776
H34 H 0.2257 -0.3666 0.4676
H35 H 0.3371 -0.4079 0.3780
C34 C -0.1445(5) 0.0753(5) 0.4235(4)
H36 H -0.1984 0.0246 0.4153
H37 H -0.1248 0.0477 0.4841
H38 H -0.1979 0.1548 0.4198
C35 C 0.3026(10) 0.3362(5) -0.2163(3)
H39 H 0.3484 0.3814 -0.2752
H40 H 0.3152 0.2556 -0.2228
H41 H 0.2031 0.3695 -0.1996
loop_
_geom_bond_atom_site_label_1
_geom_bond_atom_site_label_2
_geom_bond_site_symmetry_1
_geom_bond_site_symmetry_2
N1 C2 1_555 1_555
O1 C4 1_555 1_555
C1 C2 1_555 1_555
O2 C12 1_555 1_555
O3 C11 1_555 1_555
O4 C12 1_555 1_555
O5 C9 1_555 1_555
O6 C17 1_555 1_555
C2 H1 1_555 1_555
C3 C2 1_555 1_555
H2 C3 1_555 1_555
O7 C9 1_555 1_555
C4 C11 1_555 1_555
C5 C6 1_555 1_555
C6 N1 1_555 1_555
H3 C6 1_555 1_555
H4 C6 1_555 1_555
C7 C15 1_555 1_555
C8 C13 1_555 1_555
C9 C1 1_555 1_555
C10 C1 1_555 1_555
H5 C10 1_555 1_555
H6 C10 1_555 1_555
C11 C18 1_555 1_555
O8 C17 1_555 1_555
C12 C1 1_555 1_555
C13 N1 1_555 1_555
H7 C13 1_555 1_555
H8 C13 1_555 1_555
C14 C4 1_555 1_555
H9 C14 1_555 1_555
C15 C14 1_555 1_555
H10 C15 1_555 1_555
C16 C5 1_555 1_555
H11 C16 1_555 1_555
C17 C3 1_555 1_555
C18 C7 1_555 1_555
H12 C18 1_555 1_555
C19 C5 1_555 1_555
H13 C19 1_555 1_555
C20 C3 1_555 1_555
H14 C20 1_555 1_555
C21 C8 1_555 1_555
H15 C21 1_555 1_555
C22 H16 1_555 1_555
C23 C16 1_555 1_555
H17 C23 1_555 1_555
C24 H18 1_555 1_555
H19 C24 1_555 1_555
H20 C24 1_555 1_555
C25 C8 1_555 1_555
H21 C25 1_555 1_555
C26 O1 1_555 1_555
H22 C26 1_555 1_555
H23 C26 1_555 1_555
H24 C26 1_555 1_555
C27 C25 1_555 1_555
H25 C27 1_555 1_555
C28 C21 1_555 1_555
H26 C28 1_555 1_555
C29 C27 1_555 1_555
H27 C29 1_555 1_555
C30 O4 1_555 1_555
H28 C30 1_555 1_555
H29 C30 1_555 1_555
C31 O7 1_555 1_555
H30 C31 1_555 1_555
H31 C31 1_555 1_555
C32 C19 1_555 1_555
H32 C32 1_555 1_555
C33 O3 1_555 1_555
H33 C33 1_555 1_555
H34 C33 1_555 1_555
H35 C33 1_555 1_555
C34 O6 1_555 1_555
H36 C34 1_555 1_555
H37 C34 1_555 1_555
H38 C34 1_555 1_555
C35 C30 1_555 1_555
H39 C35 1_555 1_555
H40 C35 1_555 1_555
H41 C35 1_555 1_555
C7 C20 1_555 1_555
C10 C20 1_555 1_555
C22 C23 1_555 1_555
C22 C32 1_555 1_555
C24 C31 1_555 1_555
C28 C29 1_555 1_555

#END
