
#######################################################################
#
#                 Cambridge Crystallographic Data Centre
#                                CCDC 
#
#######################################################################
#
# If this CIF has been generated from an entry in the Cambridge 
# Structural Database, then it will include bibliographic, chemical, 
# crystal, experimental, refinement or atomic coordinate data resulting 
# from the CCDC's data processing and validation procedures.
#
#######################################################################

data_IREKEW
_chemical_formula_moiety         
'2(C28 H40 O12),C14 H18 N2 O2 2+,2(C3 H6 O1),4(H2 O1),2(F6 P1 1-)'
_chemical_name_systematic        
"bis(2,2'-Dihydroxybis(m-phenylene)-32-crown-10) N,N'-bis(2-hydroxyethyl)-4,4'-bipyridinium bis(hexafluorophosphate) acetone solvate tetrahydrate"
_symmetry_cell_setting           triclinic
_symmetry_space_group_name_H-M   'P -1'
_symmetry_Int_Tables_number      2
_space_group_name_Hall           '-P 1'
loop_
_symmetry_equiv_pos_site_id
_symmetry_equiv_pos_as_xyz
1 x,y,z
2 -x,-y,-z
_cell_length_a                   10.7683(15)
_cell_length_b                   16.466(2)
_cell_length_c                   25.100(3)
_cell_angle_alpha                94.298(7)
_cell_angle_beta                 97.914(6)
_cell_angle_gamma                91.566(7)
_cell_volume                     4392.52
_exptl_crystal_colour            yellow
_exptl_crystal_description       prism
_cell_formula_units_Z            2
loop_
_atom_site_label
_atom_site_type_symbol
_atom_site_fract_x
_atom_site_fract_y
_atom_site_fract_z
P1 P 0.20351(7) 0.99819(5) 0.11216(3)
F1 F 0.18199(16) 1.04538(10) 0.05816(7)
F2 F 0.05456(15) 0.99353(10) 0.11287(7)
F3 F 0.35219(15) 1.00342(10) 0.11090(8)
F4 F 0.19332(15) 0.91291(10) 0.07654(8)
F5 F 0.21319(16) 1.08345(10) 0.14814(7)
F6 F 0.22486(16) 0.95067(10) 0.16548(7)
P2 P 0.25880(8) 0.96578(5) 0.37447(3)
F7 F 0.27612(16) 1.04804(10) 0.34583(7)
F8 F 0.2410(2) 0.88381(11) 0.40354(8)
F9 F 0.11130(16) 0.97962(11) 0.37062(8)
F10 F 0.27999(19) 1.01690(12) 0.43191(7)
F11 F 0.23753(19) 0.91467(11) 0.31746(7)
F12 F 0.40672(18) 0.95291(12) 0.37913(9)
O1 O 0.65801(17) 0.65628(11) 0.05376(8)
H1 H 0.6714 0.7062 0.0608
H2 H 0.6048 0.6448 0.0260
O2 O 0.63511(17) 0.57767(12) 0.44800(8)
H3 H 0.6998 0.6087 0.4453
O3 O 1.05660(18) 0.46477(12) 0.27320(8)
O9 O 0.63463(17) 0.18102(12) 0.43792(8)
O10 O 0.60464(18) 0.73700(12) 0.43685(8)
O11 O 0.46732(17) 0.30127(12) 0.39313(8)
O12 O 1.02908(17) 0.40539(11) 0.36836(7)
H6 H 1.0233 0.4568 0.3638
O13 O 0.44671(17) 0.46885(12) 0.42712(8)
O15 O 0.88282(18) 0.14876(12) 0.43609(8)
O24 O 1.05368(18) 0.25074(12) 0.38430(8)
O29 O 0.8238(2) 0.81462(14) 0.41571(10)
C2 C 1.0567(2) 0.35445(18) 0.32618(11)
C4 C 1.0696(2) 0.38213(18) 0.27575(12)
C21 C 0.4988(3) 0.68714(18) 0.42343(11)
C25 C 1.0991(3) 0.21804(19) 0.29221(12)
H38 H 1.1120 0.1623 0.2979
O31 O 0.9491(2) 0.60604(13) 0.24327(9)
C27 C 1.0921(3) 0.3278(2) 0.23331(12)
H40 H 1.0966 0.3463 0.1986
C30 C 0.6002(3) 0.81774(18) 0.41856(13)
H45 H 0.5340 0.8486 0.4339
H46 H 0.5817 0.8151 0.3787
C31 C 0.5036(3) 0.16451(19) 0.42364(13)
H47 H 0.4600 0.1772 0.4553
H48 H 0.4874 0.1061 0.4117
C32 C 1.0863(3) 0.49999(19) 0.22574(12)
H49 H 1.0284 0.4773 0.1937
H50 H 1.1732 0.4878 0.2200
C37 C 0.3787(3) 0.71301(19) 0.40565(12)
H52 H 0.3650 0.7690 0.4011
C38 C 1.0647(3) 0.16617(18) 0.39412(13)
H53 H 1.1535 0.1511 0.3965
H54 H 1.0153 0.1316 0.3642
O32 O 0.9118(3) 0.72634(16) 0.32356(11)
C43 C 1.0713(3) 0.27171(19) 0.33365(12)
C44 C 0.8280(3) 0.1436(2) 0.48455(12)
H61 H 0.8384 0.1968 0.5062
H62 H 0.8699 0.1020 0.5064
C46 C 0.4182(3) 0.54847(18) 0.41954(11)
C47 C 0.2805(3) 0.6563(2) 0.39483(12)
H64 H 0.1987 0.6736 0.3828
C48 C 0.6920(3) 0.1209(2) 0.46945(13)
H65 H 0.6818 0.0671 0.4486
H66 H 0.6518 0.1173 0.5024
C50 C 0.2983(3) 0.57385(19) 0.40121(11)
H69 H 0.2296 0.5354 0.3932
C51 C 0.3421(3) 0.41103(18) 0.41900(12)
H70 H 0.3009 0.4089 0.3811
H71 H 0.2798 0.4276 0.4429
C52 C 0.4554(3) 0.21582(18) 0.37895(12)
H72 H 0.5013 0.2030 0.3480
H73 H 0.3657 0.2007 0.3670
C53 C 0.5184(3) 0.60485(18) 0.43014(11)
C59 C 1.0164(3) 0.15321(19) 0.44604(12)
H80 H 1.0482 0.1020 0.4602
H81 H 1.0456 0.1989 0.4732
C63 C 1.1078(3) 0.2468(2) 0.24211(12)
H90 H 1.1250 0.2099 0.2133
C64 C 0.3893(3) 0.32901(18) 0.43166(12)
H91 H 0.4376 0.3326 0.4683
H92 H 0.3175 0.2898 0.4308
C66 C 0.7256(3) 0.8580(2) 0.43729(16)
H96 H 0.7259 0.9143 0.4261
H97 H 0.7418 0.8610 0.4772
C69 C 1.0729(3) 0.5904(2) 0.23417(13)
H102 H 1.1330 0.6130 0.2656
H103 H 1.0917 0.6170 0.2019
C70 C 0.8774(4) 0.8514(2) 0.37576(16)
H104 H 0.9207 0.9036 0.3908
H105 H 0.8114 0.8629 0.3460
C73 C 0.9687(4) 0.7950(2) 0.35507(18)
H110 H 1.0212 0.8252 0.3331
H111 H 1.0249 0.7765 0.3861
C75 C 0.9135(6) 0.6873(2) 0.23306(19)
H115 H 0.9901 0.7225 0.2348
H116 H 0.8671 0.6868 0.1961
C76 C 0.8408(7) 0.7193(4) 0.2687(3)
H117 H 0.7647 0.6838 0.2678
H118 H 0.8141 0.7737 0.2586
O4 O 0.47042(17) 0.46834(11) 0.13580(8)
H4 H 0.4989 0.5172 0.1424
O5 O 0.52967(17) 0.18653(12) 0.04736(8)
O6 O 0.86421(16) 0.57016(11) 0.06233(8)
H5 H 0.8122 0.6080 0.0597
O7 O 0.91405(17) 0.73177(11) 0.07796(8)
O8 O 0.43658(17) 0.30975(11) 0.12717(8)
O16 O 0.4437(2) 0.56023(13) 0.22762(8)
O17 O 1.00449(18) 0.29172(12) 0.09368(8)
O19 O 1.03846(17) 0.46302(11) 0.07565(8)
O21 O 0.79028(18) 0.16098(12) 0.06709(8)
O22 O 0.50464(19) 0.77974(12) 0.14261(9)
O25 O 0.70379(17) 0.81845(11) 0.08512(8)
O28 O 0.5355(2) 0.72074(14) 0.24510(10)
C10 C 1.0709(3) 0.32255(17) 0.05358(12)
H22 H 1.0117 0.3282 0.0203
H23 H 1.1349 0.2837 0.0447
C12 C 0.8158(3) 0.85907(17) 0.07524(13)
H25 H 0.8196 0.9159 0.0915
H26 H 0.8156 0.8606 0.0359
C14 C 1.2308(3) 0.65316(18) 0.11118(12)
H27 H 1.3155 0.6715 0.1223
C16 C 1.0148(3) 0.68264(17) 0.08833(11)
C17 C 0.4123(3) 0.43684(19) 0.27418(12)
H30 H 0.4066 0.4671 0.3074
C18 C 0.4034(3) 0.22425(18) 0.11961(12)
H31 H 0.3186 0.2143 0.1293
H32 H 0.4639 0.1937 0.1430
C19 C 0.4451(2) 0.43225(18) 0.18086(11)
C20 C 0.9847(2) 0.59970(17) 0.07899(11)
C22 C 1.1336(3) 0.40411(17) 0.07340(12)
H33 H 1.1819 0.4011 0.1097
H34 H 1.1923 0.4201 0.0486
C23 C 0.9124(3) 0.15857(19) 0.05100(13)
H35 H 0.9118 0.1833 0.0162
H36 H 0.9372 0.1013 0.0461
C24 C 0.4067(3) 0.30800(19) 0.22220(12)
H37 H 0.3973 0.2503 0.2201
C28 C 0.9272(3) 0.81605(16) 0.09875(12)
H41 H 1.0045 0.8413 0.0889
H42 H 0.9334 0.8200 0.1386
C29 C 0.4058(3) 0.19615(19) 0.06108(12)
H43 H 0.3581 0.1434 0.0528
H44 H 0.3627 0.2362 0.0382
C33 C 0.4277(2) 0.34778(18) 0.17722(12)
C35 C 1.0786(3) 0.54357(17) 0.08556(11)
C36 C 0.4336(3) 0.47677(18) 0.22917(12)
C39 C 0.3997(3) 0.35375(19) 0.27016(12)
H55 H 0.3858 0.3267 0.3011
C40 C 0.5983(3) 0.86912(18) 0.08537(13)
H56 H 0.5822 0.8950 0.0509
H57 H 0.6153 0.9127 0.1151
C42 C 1.1390(3) 0.71013(18) 0.10481(11)
H60 H 1.1599 0.7667 0.1115
C45 C 1.2031(3) 0.57045(18) 0.10184(11)
H63 H 1.2678 0.5325 0.1064
C55 C 1.0046(3) 0.20494(18) 0.09380(13)
H74 H 0.9869 0.1899 0.1295
H75 H 1.0899 0.1871 0.0895
C57 C 0.7017(3) 0.10313(19) 0.03680(13)
H76 H 0.7328 0.0474 0.0398
H77 H 0.6902 0.1143 -0.0017
C58 C 0.5793(3) 0.10967(18) 0.05870(13)
H78 H 0.5198 0.0653 0.0416
H79 H 0.5925 0.1048 0.0981
C61 C 0.4864(3) 0.81716(19) 0.09283(14)
H85 H 0.4119 0.8513 0.0919
H86 H 0.4698 0.7743 0.0626
C67 C 0.4289(3) 0.61012(19) 0.27493(13)
H98 H 0.5019 0.6057 0.3031
H99 H 0.3522 0.5925 0.2893
C68 C 0.4188(3) 0.6957(2) 0.25997(14)
H100 H 0.3509 0.6990 0.2294
H101 H 0.3991 0.7315 0.2909
C71 C 0.4768(4) 0.8303(2) 0.18786(15)
H106 H 0.3858 0.8259 0.1900
H107 H 0.4991 0.8879 0.1833
C72 C 0.5488(4) 0.8049(2) 0.23873(17)
H108 H 0.6388 0.8193 0.2391
H109 H 0.5203 0.8359 0.2698
O14 O 0.51353(17) 0.38861(12) 0.03425(8)
H7 H 0.4927 0.3976 0.0662
O23 O 0.96515(18) 0.36163(13) 0.46908(8)
H12 H 0.9719 0.3544 0.4350
N1 N 0.74667(19) 0.37875(14) 0.11311(9)
N2 N 0.7349(2) 0.37344(14) 0.39108(9)
C1 C 0.7471(2) 0.37340(17) 0.22308(11)
C3 C 0.7412(3) 0.38296(18) 0.05386(11)
H15 H 0.7357 0.3270 0.0361
H16 H 0.8193 0.4101 0.0462
C5 C 0.7199(3) 0.30365(17) 0.18790(12)
H17 H 0.7021 0.2531 0.2017
C6 C 0.7171(2) 0.44298(17) 0.31168(12)
H18 H 0.7025 0.4920 0.2945
C7 C 0.7596(2) 0.30412(17) 0.36361(12)
H19 H 0.7745 0.2562 0.3820
C8 C 0.7135(2) 0.44185(18) 0.36595(12)
H20 H 0.6956 0.4902 0.3861
C9 C 0.7759(2) 0.44584(18) 0.20096(11)
H21 H 0.7958 0.4944 0.2238
C11 C 0.7188(2) 0.30779(17) 0.13326(12)
H24 H 0.6981 0.2602 0.1095
C13 C 0.7424(2) 0.37218(17) 0.28157(11)
C15 C 0.7394(3) 0.37779(18) 0.45069(11)
H28 H 0.7261 0.3225 0.4624
H29 H 0.6716 0.4121 0.4615
C26 C 0.7754(2) 0.44699(17) 0.14620(12)
H39 H 0.7956 0.4964 0.1315
C34 C 0.7635(2) 0.30205(17) 0.30884(12)
H51 H 0.7807 0.2526 0.2896
C41 C 0.6297(2) 0.42931(18) 0.03067(12)
H58 H 0.6324 0.4839 0.0503
H59 H 0.6356 0.4369 -0.0077
C49 C 0.8655(3) 0.41366(18) 0.47772(12)
H67 H 0.8813 0.4668 0.4634
H68 H 0.8633 0.4234 0.5170
O18 O 0.9720(2) 0.56397(13) 0.36307(8)
H8 H 0.9606 0.5884 0.3298
H9 H 0.9336 0.5885 0.3904
O20 O 0.60158(19) 0.60714(13) 0.15157(8)
H10 H 0.6107 0.6288 0.1229
H11 H 0.5639 0.6426 0.1689
O26 O 0.85937(18) 0.65358(12) 0.44229(8)
H13 H 0.8540 0.7030 0.4352
H14 H 0.9098 0.6504 0.4708
O27 O 0.6337(2) 1.13933(14) 0.25099(11)
C54 C 0.5841(3) 1.0834(2) 0.27002(14)
C62 C 0.6509(4) 1.0409(2) 0.31557(15)
H87 H 0.7358 1.0652 0.3257
H88 H 0.6561 0.9829 0.3042
H89 H 0.6048 1.0466 0.3466
C65 C 0.4523(3) 1.0548(2) 0.24848(14)
H93 H 0.4192 1.0878 0.2192
H94 H 0.4000 1.0604 0.2775
H95 H 0.4515 0.9975 0.2347
O30 O 0.7829(3) 0.93560(17) 0.21323(12)
C56 C 0.8639(3) 0.9882(2) 0.21391(13)
C60 C 0.8422(4) 1.0627(2) 0.18500(16)
H82 H 0.7557 1.0611 0.1666
H83 H 0.9004 1.0657 0.1584
H84 H 0.8563 1.1108 0.2109
C74 C 0.9909(4) 0.9799(3) 0.24388(17)
H112 H 0.9940 0.9283 0.2610
H113 H 1.0096 1.0253 0.2717
H114 H 1.0530 0.9807 0.2188
C77? C 0.9475(7) 0.7501(4) 0.2675(3)
H119? H 0.9027 0.7990 0.2559
H120? H 1.0389 0.7619 0.2702
H121? H 0.9440 0.6994 0.1990
H122? H 0.8207 0.6859 0.2258
loop_
_geom_bond_atom_site_label_1
_geom_bond_atom_site_label_2
_geom_bond_site_symmetry_1
_geom_bond_site_symmetry_2
P1 F1 1_555 1_555
P2 F7 1_555 1_555
F2 P1 1_555 1_555
F3 P1 1_555 1_555
F4 P1 1_555 1_555
F5 P1 1_555 1_555
F6 P1 1_555 1_555
F8 P2 1_555 1_555
F9 P2 1_555 1_555
F10 P2 1_555 1_555
F11 P2 1_555 1_555
F12 P2 1_555 1_555
O1 H1 1_555 1_555
H2 O1 1_555 1_555
O2 H3 1_555 1_555
O3 C4 1_555 1_555
O4 H4 1_555 1_555
O5 C29 1_555 1_555
O6 H5 1_555 1_555
O7 C16 1_555 1_555
O8 C18 1_555 1_555
O9 C31 1_555 1_555
O10 C21 1_555 1_555
O11 C52 1_555 1_555
O12 H6 1_555 1_555
O13 C46 1_555 1_555
O14 H7 1_555 1_555
O15 C44 1_555 1_555
O16 C36 1_555 1_555
O17 C10 1_555 1_555
O18 H8 1_555 1_555
H9 O18 1_555 1_555
O19 C22 1_555 1_555
O20 H10 1_555 1_555
H11 O20 1_555 1_555
O21 C23 1_555 1_555
O22 C61 1_555 1_555
O23 H12 1_555 1_555
O24 C38 1_555 1_555
O25 C12 1_555 1_555
O26 H13 1_555 1_555
H14 O26 1_555 1_555
O27 C54 1_555 1_555
O28 C68 1_555 1_555
O29 C66 1_555 1_555
O30 C56 1_555 1_555
N1 C3 1_555 1_555
N2 C7 1_555 1_555
C1 C5 1_555 1_555
C2 O12 1_555 1_555
C3 H15 1_555 1_555
H16 C3 1_555 1_555
C4 C2 1_555 1_555
C5 H17 1_555 1_555
C6 H18 1_555 1_555
C7 H19 1_555 1_555
C8 N2 1_555 1_555
H20 C8 1_555 1_555
C9 C1 1_555 1_555
H21 C9 1_555 1_555
C10 H22 1_555 1_555
H23 C10 1_555 1_555
C11 N1 1_555 1_555
H24 C11 1_555 1_555
C12 H25 1_555 1_555
H26 C12 1_555 1_555
C13 C1 1_555 1_555
C14 H27 1_555 1_555
C15 N2 1_555 1_555
H28 C15 1_555 1_555
H29 C15 1_555 1_555
C16 C20 1_555 1_555
C17 H30 1_555 1_555
C18 H31 1_555 1_555
H32 C18 1_555 1_555
C19 O4 1_555 1_555
C20 O6 1_555 1_555
C21 C37 1_555 1_555
C22 C10 1_555 1_555
H33 C22 1_555 1_555
H34 C22 1_555 1_555
C23 H35 1_555 1_555
H36 C23 1_555 1_555
C24 H37 1_555 1_555
C25 H38 1_555 1_555
C26 N1 1_555 1_555
H39 C26 1_555 1_555
O31 C69 1_555 1_555
C27 C4 1_555 1_555
H40 C27 1_555 1_555
C28 O7 1_555 1_555
H41 C28 1_555 1_555
H42 C28 1_555 1_555
C29 C18 1_555 1_555
H43 C29 1_555 1_555
H44 C29 1_555 1_555
C30 O10 1_555 1_555
H45 C30 1_555 1_555
H46 C30 1_555 1_555
C31 H47 1_555 1_555
H48 C31 1_555 1_555
C32 O3 1_555 1_555
H49 C32 1_555 1_555
H50 C32 1_555 1_555
C33 O8 1_555 1_555
C34 C7 1_555 1_555
H51 C34 1_555 1_555
C35 O19 1_555 1_555
C36 C17 1_555 1_555
C37 H52 1_555 1_555
C38 H53 1_555 1_555
H54 C38 1_555 1_555
C39 C17 1_555 1_555
H55 C39 1_555 1_555
C40 O25 1_555 1_555
H56 C40 1_555 1_555
H57 C40 1_555 1_555
C41 O14 1_555 1_555
H58 C41 1_555 1_555
H59 C41 1_555 1_555
C42 C14 1_555 1_555
H60 C42 1_555 1_555
O32 C73 1_555 1_555
C43 O24 1_555 1_555
C44 H61 1_555 1_555
H62 C44 1_555 1_555
C45 C14 1_555 1_555
H63 C45 1_555 1_555
C46 C50 1_555 1_555
C47 C37 1_555 1_555
H64 C47 1_555 1_555
C48 O9 1_555 1_555
H65 C48 1_555 1_555
H66 C48 1_555 1_555
C49 O23 1_555 1_555
H67 C49 1_555 1_555
H68 C49 1_555 1_555
C50 C47 1_555 1_555
H69 C50 1_555 1_555
C51 O13 1_555 1_555
H70 C51 1_555 1_555
H71 C51 1_555 1_555
C52 C31 1_555 1_555
H72 C52 1_555 1_555
H73 C52 1_555 1_555
C53 O2 1_555 1_555
C54 C62 1_555 1_555
C55 O17 1_555 1_555
H74 C55 1_555 1_555
H75 C55 1_555 1_555
C56 C60 1_555 1_555
C57 O21 1_555 1_555
H76 C57 1_555 1_555
H77 C57 1_555 1_555
C58 O5 1_555 1_555
H78 C58 1_555 1_555
H79 C58 1_555 1_555
C59 O15 1_555 1_555
H80 C59 1_555 1_555
H81 C59 1_555 1_555
C60 H82 1_555 1_555
H83 C60 1_555 1_555
H84 C60 1_555 1_555
C61 C40 1_555 1_555
H85 C61 1_555 1_555
H86 C61 1_555 1_555
C62 H87 1_555 1_555
H88 C62 1_555 1_555
H89 C62 1_555 1_555
C63 C25 1_555 1_555
H90 C63 1_555 1_555
C64 O11 1_555 1_555
H91 C64 1_555 1_555
H92 C64 1_555 1_555
C65 C54 1_555 1_555
H93 C65 1_555 1_555
H94 C65 1_555 1_555
H95 C65 1_555 1_555
C66 C30 1_555 1_555
H96 C66 1_555 1_555
H97 C66 1_555 1_555
C67 O16 1_555 1_555
H98 C67 1_555 1_555
H99 C67 1_555 1_555
C68 C67 1_555 1_555
H100 C68 1_555 1_555
H101 C68 1_555 1_555
C69 C32 1_555 1_555
H102 C69 1_555 1_555
H103 C69 1_555 1_555
C70 O29 1_555 1_555
H104 C70 1_555 1_555
H105 C70 1_555 1_555
C71 O22 1_555 1_555
H106 C71 1_555 1_555
H107 C71 1_555 1_555
C72 O28 1_555 1_555
H108 C72 1_555 1_555
H109 C72 1_555 1_555
C73 C70 1_555 1_555
H110 C73 1_555 1_555
H111 C73 1_555 1_555
C74 C56 1_555 1_555
H112 C74 1_555 1_555
H113 C74 1_555 1_555
H114 C74 1_555 1_555
C75 O31 1_555 1_555
H115 C75 1_555 1_555
H116 C75 1_555 1_555
C76 O32 1_555 1_555
H117 C76 1_555 1_555
H118 C76 1_555 1_555
C2 C43 1_555 1_555
C3 C41 1_555 1_555
C5 C11 1_555 1_555
C6 C8 1_555 1_555
C6 C13 1_555 1_555
C9 C26 1_555 1_555
C12 C28 1_555 1_555
C13 C34 1_555 1_555
C15 C49 1_555 1_555
C16 C42 1_555 1_555
C19 C33 1_555 1_555
C19 C36 1_555 1_555
C20 C35 1_555 1_555
C21 C53 1_555 1_555
C23 C55 1_555 1_555
C24 C33 1_555 1_555
C24 C39 1_555 1_555
C25 C43 1_555 1_555
C27 C63 1_555 1_555
C35 C45 1_555 1_555
C38 C59 1_555 1_555
C44 C48 1_555 1_555
C46 C53 1_555 1_555
C51 C64 1_555 1_555
C57 C58 1_555 1_555
C71 C72 1_555 1_555
C75 C76 1_555 1_555

#END
