
#######################################################################
#
#                 Cambridge Crystallographic Data Centre
#                                CCDC 
#
#######################################################################
#
# If this CIF has been generated from an entry in the Cambridge 
# Structural Database, then it will include bibliographic, chemical, 
# crystal, experimental, refinement or atomic coordinate data resulting 
# from the CCDC's data processing and validation procedures.
#
#######################################################################

data_IREKOG
_chemical_formula_moiety         'C37 H49 N1 O14,C12 H14 N2 2+,2(F6 P1 1-)'
_chemical_name_systematic        
"6,9,12,15,18,24,27,30,33,36,38,46-Dodecaoxa-48-azapentacyclo[17.17.11.1^40,44^.0^5,37^.0^23,47^]octatetraconta-1(37),2,4,19(47),20,22,40(48),41,43-nonaene-3,21-diyldimethanol N,N'-dimethyl-4,4'-bipyridinium bis(hexafluorophosphate)"
_symmetry_cell_setting           monoclinic
_symmetry_space_group_name_H-M   'P 21/n'
_symmetry_Int_Tables_number      14
_space_group_name_Hall           '-P 2yn'
loop_
_symmetry_equiv_pos_site_id
_symmetry_equiv_pos_as_xyz
1 x,y,z
2 1/2-x,1/2+y,1/2-z
3 -x,-y,-z
4 1/2+x,1/2-y,1/2+z
_cell_length_a                   14.3609(4)
_cell_length_b                   16.6091(5)
_cell_length_c                   30.3567(10)
_cell_angle_alpha                90
_cell_angle_beta                 91.915(3)
_cell_angle_gamma                90
_cell_volume                     7236.69
_exptl_crystal_colour            yellow
_exptl_crystal_description       bloc
_cell_formula_units_Z            4
loop_
_atom_site_label
_atom_site_type_symbol
_atom_site_fract_x
_atom_site_fract_y
_atom_site_fract_z
O1 O 0.9930(2) 0.61091(19) 0.35658(9)
O2 O 0.99383(17) 0.53219(15) 0.43335(8)
O3 O 1.0097(2) 0.37091(16) 0.43583(9)
O4 O 0.9469(4) 0.2841(3) 0.27287(13)
H1 H 0.9506 0.2621 0.2488
O5 O 0.9259(2) 0.28663(18) 0.50279(9)
O6 O 0.7537(2) 0.28032(17) 0.54746(10)
O7 O 0.5817(2) 0.28737(18) 0.50008(10)
O8 O 0.9130(2) 0.7673(2) 0.35072(11)
O9 O 0.7530(2) 0.86285(19) 0.36380(11)
O10 O 0.5815(2) 0.77906(19) 0.35326(11)
O11 O 0.48928(19) 0.62410(17) 0.36055(8)
O12 O 0.4936(2) 0.37662(15) 0.43362(9)
O13 O 0.5160(4) 0.4277(4) 0.23624(16)
H2 H 0.5124 0.4035 0.2127
O14 O 0.49956(17) 0.53936(14) 0.43538(7)
N1 N 0.7476(2) 0.52690(17) 0.45745(9)
C1 C 0.6674(3) 0.5644(2) 0.44660(11)
C2 C 0.8271(3) 0.5606(2) 0.44466(11)
C3 C 0.4957(3) 0.4143(2) 0.39379(12)
C4 C 0.4935(3) 0.5428(2) 0.35618(12)
C5 C 0.4993(2) 0.4987(2) 0.39585(11)
C6 C 0.9919(3) 0.4883(2) 0.39437(12)
C7 C 0.9996(3) 0.4043(3) 0.39464(13)
C8 C 0.5805(3) 0.5260(2) 0.46360(11)
H3 H 0.5907 0.4686 0.4667
H4 H 0.5689 0.5475 0.4926
C9 C 0.9909(3) 0.5280(3) 0.35401(13)
C10 C 0.8301(3) 0.6305(2) 0.41984(12)
H5 H 0.8865 0.6518 0.4112
C11 C 0.4941(3) 0.3750(3) 0.35339(13)
H6 H 0.4946 0.3190 0.3523
C12 C 0.6648(3) 0.6351(2) 0.42201(12)
H7 H 0.6081 0.6599 0.4150
C13 C 0.9155(3) 0.5191(2) 0.46116(12)
H8 H 0.9315 0.5384 0.4906
H9 H 0.9039 0.4617 0.4631
C14 C 0.4917(3) 0.4197(3) 0.31434(13)
C15 C 1.0164(3) 0.2840(2) 0.43866(14)
H10 H 1.0740 0.2654 0.4263
H11 H 0.9645 0.2589 0.4227
C16 C 0.7460(3) 0.6679(2) 0.40816(13)
H12 H 0.7452 0.7145 0.3912
C17 C 0.4930(3) 0.2654(2) 0.48128(16)
H13 H 0.4437 0.2924 0.4966
H14 H 0.4838 0.2077 0.4837
C18 C 0.9926(3) 0.4017(3) 0.31579(14)
C19 C 1.0144(3) 0.2642(2) 0.48663(14)
H15 H 1.0246 0.2070 0.4910
H16 H 1.0636 0.2931 0.5026
C20 C 0.4901(3) 0.5018(3) 0.31579(12)
H17 H 0.4869 0.5310 0.2896
C21 C 0.9901(3) 0.4862(3) 0.31509(14)
H18 H 0.9878 0.5137 0.2884
C22 C 0.9994(3) 0.3621(3) 0.35534(13)
H19 H 1.0039 0.3062 0.3558
C23 C 0.9187(3) 0.2748(3) 0.54877(15)
H20 H 0.9744 0.2949 0.5640
H21 H 0.9133 0.2177 0.5550
C24 C 0.6727(3) 0.3163(3) 0.56389(14)
H22 H 0.6702 0.3726 0.5554
H23 H 0.6746 0.3135 0.5958
C25 C 0.4855(3) 0.3757(4) 0.27118(14)
H24 H 0.5243 0.3280 0.2728
H25 H 0.4217 0.3589 0.2650
C26 C 0.4910(3) 0.2899(2) 0.43430(15)
H26 H 0.5444 0.2679 0.4196
H27 H 0.4347 0.2705 0.4193
C27 C 0.4899(3) 0.6718(3) 0.32148(14)
H28 H 0.4348 0.6605 0.3031
H29 H 0.5444 0.6593 0.3048
C28 C 0.5883(3) 0.2740(3) 0.54606(14)
H30 H 0.5930 0.2168 0.5521
H31 H 0.5332 0.2945 0.5599
C29 C 0.8366(3) 0.3173(3) 0.56455(17)
H32 H 0.8372 0.3162 0.5965
H33 H 0.8383 0.3732 0.5552
C30 C 0.5871(4) 0.8634(3) 0.36248(18)
H34 H 0.5335 0.8802 0.3787
H35 H 0.5875 0.8936 0.3351
C31 C 0.4913(3) 0.7586(3) 0.33475(15)
H36 H 0.4773 0.7922 0.3092
H37 H 0.4442 0.7683 0.3563
C32 C 0.9964(4) 0.3578(4) 0.27265(15)
H38 H 0.9705 0.3919 0.2494
H39 H 1.0610 0.3471 0.2662
C33 C 0.9181(4) 0.8497(3) 0.36231(17)
H40 H 0.9177 0.8824 0.3358
H41 H 0.9758 0.8600 0.3789
C34 C 0.6750(4) 0.8798(3) 0.38921(18)
H42 H 0.6765 0.9358 0.3983
H43 H 0.6766 0.8465 0.4155
C35 C 0.8372(4) 0.8719(3) 0.38946(18)
H44 H 0.8358 0.8374 0.4152
H45 H 0.8435 0.9272 0.3994
C36 C 0.9847(4) 0.6546(3) 0.31645(15)
H46 H 0.9254 0.6430 0.3016
H47 H 1.0341 0.6393 0.2971
C37 C 0.9914(4) 0.7423(3) 0.32710(17)
H48 H 1.0479 0.7525 0.3447
H49 H 0.9947 0.7731 0.3000
N2 N 0.7332(3) 0.7140(3) 0.07268(15)
N3 N 0.7750(3) 1.0060(3) 0.23720(13)
C38 C 0.7571(3) 0.9730(3) 0.16224(14)
H50 H 0.7528 0.9895 0.1330
C39 C 0.7520(3) 0.8917(3) 0.17241(14)
C40 C 0.7445(3) 0.8307(3) 0.13727(15)
C41 C 0.7498(3) 0.7898(3) 0.06196(17)
H51 H 0.7564 0.8037 0.0326
C42 C 0.7685(4) 1.0288(4) 0.19508(15)
H52 H 0.7717 1.0832 0.1880
C43 C 0.7572(4) 0.8470(3) 0.09356(16)
H53 H 0.7716 0.8994 0.0854
C44 C 0.7669(4) 0.9284(4) 0.24807(17)
H54 H 0.7681 0.9136 0.2776
C45 C 0.7570(3) 0.8714(4) 0.21685(16)
H55 H 0.7534 0.8176 0.2251
C46 C 0.7209(6) 0.7512(4) 0.1469(2)
H56 H 0.7074 0.7362 0.1755
C47 C 0.7180(6) 0.6976(4) 0.1147(2)
H57 H 0.7045 0.6446 0.1220
C48 C 0.7300(5) 0.6513(3) 0.0389(2)
H58 H 0.7431 0.6746 0.0109
H59 H 0.6692 0.6273 0.0376
H60 H 0.7757 0.6108 0.0462
C49 C 0.7949(8) 1.0662(5) 0.2719(2)
H61 H 0.7976 1.0401 0.3001
H62 H 0.7465 1.1060 0.2714
H63 H 0.8536 1.0916 0.2667
P1 P -0.04349(18) 0.60230(10) 0.17573(6)
F1 F 0.0440(5) 0.6186(4) 0.20962(18)
F2 F -0.0043(6) 0.6643(3) 0.14460(19)
F3 F -0.0744(5) 0.5368(3) 0.21039(15)
F4 F -0.1025(4) 0.6672(3) 0.19966(17)
F5 F -0.1284(4) 0.5752(3) 0.14616(15)
F6 F 0.0194(4) 0.5337(3) 0.15139(18)
P2? P 0.0146(3) 0.0878(3) 0.33079(15)
P3? P 0.0071(5) 0.0696(4) 0.3749(2)
F7? F -0.0807(13) 0.0468(7) 0.3649(6)
F8? F -0.0117(12) 0.1094(8) 0.4196(5)
F9? F 0.029(3) 0.1523(7) 0.3574(6)
F10? F 0.0452(10) -0.0104(8) 0.4009(7)
F11? F 0.0482(11) 0.1358(11) 0.2899(5)
F12? F 0.1170(9) 0.1053(8) 0.3772(4)
F13? F -0.0349(13) 0.0273(8) 0.2956(4)
F14? F 0.1137(16) 0.0360(18) 0.3207(13)
F15? F 0.0278(11) 0.0237(6) 0.3385(5)
F16? F 0.0970(13) 0.1672(12) 0.3096(17)
F17? F -0.059(3) 0.104(5) 0.3537(16)
F18? F -0.0699(8) 0.1542(6) 0.3174(6)
loop_
_geom_bond_atom_site_label_1
_geom_bond_atom_site_label_2
_geom_bond_site_symmetry_1
_geom_bond_site_symmetry_2
O1 C9 1_555 1_555
O2 C6 1_555 1_555
O3 C7 1_555 1_555
O4 H1 1_555 1_555
O5 C19 1_555 1_555
O6 C24 1_555 1_555
O7 C17 1_555 1_555
O8 C33 1_555 1_555
O9 C34 1_555 1_555
O10 C30 1_555 1_555
O11 C4 1_555 1_555
O12 C3 1_555 1_555
O13 H2 1_555 1_555
O14 C5 1_555 1_555
N1 C1 1_555 1_555
C1 C8 1_555 1_555
C2 N1 1_555 1_555
C3 C5 1_555 1_555
C4 C5 1_555 1_555
C6 C7 1_555 1_555
C7 C22 1_555 1_555
C8 O14 1_555 1_555
H3 C8 1_555 1_555
H4 C8 1_555 1_555
C9 C6 1_555 1_555
C10 C2 1_555 1_555
H5 C10 1_555 1_555
C11 C3 1_555 1_555
H6 C11 1_555 1_555
C12 C1 1_555 1_555
H7 C12 1_555 1_555
C13 O2 1_555 1_555
H8 C13 1_555 1_555
H9 C13 1_555 1_555
C14 C11 1_555 1_555
C15 O3 1_555 1_555
H10 C15 1_555 1_555
H11 C15 1_555 1_555
C16 C10 1_555 1_555
H12 C16 1_555 1_555
C17 H13 1_555 1_555
H14 C17 1_555 1_555
C18 C21 1_555 1_555
C19 C15 1_555 1_555
H15 C19 1_555 1_555
H16 C19 1_555 1_555
C20 C4 1_555 1_555
H17 C20 1_555 1_555
C21 C9 1_555 1_555
H18 C21 1_555 1_555
C22 C18 1_555 1_555
H19 C22 1_555 1_555
C23 O5 1_555 1_555
H20 C23 1_555 1_555
H21 C23 1_555 1_555
C24 H22 1_555 1_555
H23 C24 1_555 1_555
C25 O13 1_555 1_555
H24 C25 1_555 1_555
H25 C25 1_555 1_555
C26 O12 1_555 1_555
H26 C26 1_555 1_555
H27 C26 1_555 1_555
C27 O11 1_555 1_555
H28 C27 1_555 1_555
H29 C27 1_555 1_555
C28 O7 1_555 1_555
H30 C28 1_555 1_555
H31 C28 1_555 1_555
C29 O6 1_555 1_555
H32 C29 1_555 1_555
H33 C29 1_555 1_555
C30 H34 1_555 1_555
H35 C30 1_555 1_555
C31 O10 1_555 1_555
H36 C31 1_555 1_555
H37 C31 1_555 1_555
C32 O4 1_555 1_555
H38 C32 1_555 1_555
H39 C32 1_555 1_555
C33 H40 1_555 1_555
H41 C33 1_555 1_555
C34 C30 1_555 1_555
H42 C34 1_555 1_555
H43 C34 1_555 1_555
C35 O9 1_555 1_555
H44 C35 1_555 1_555
H45 C35 1_555 1_555
C36 O1 1_555 1_555
H46 C36 1_555 1_555
H47 C36 1_555 1_555
C37 O8 1_555 1_555
H48 C37 1_555 1_555
H49 C37 1_555 1_555
N2 C41 1_555 1_555
N3 C42 1_555 1_555
C38 H50 1_555 1_555
C39 C38 1_555 1_555
C40 C39 1_555 1_555
C41 H51 1_555 1_555
C42 C38 1_555 1_555
H52 C42 1_555 1_555
C43 C40 1_555 1_555
H53 C43 1_555 1_555
C44 N3 1_555 1_555
H54 C44 1_555 1_555
C45 C39 1_555 1_555
H55 C45 1_555 1_555
C46 C40 1_555 1_555
H56 C46 1_555 1_555
C47 N2 1_555 1_555
H57 C47 1_555 1_555
C48 N2 1_555 1_555
H58 C48 1_555 1_555
H59 C48 1_555 1_555
H60 C48 1_555 1_555
C49 N3 1_555 1_555
H61 C49 1_555 1_555
H62 C49 1_555 1_555
H63 C49 1_555 1_555
P1 F1 1_555 1_555
F2 P1 1_555 1_555
F3 P1 1_555 1_555
F4 P1 1_555 1_555
F5 P1 1_555 1_555
F6 P1 1_555 1_555
C2 C13 1_555 1_555
C12 C16 1_555 1_555
C14 C20 1_555 1_555
C14 C25 1_555 1_555
C17 C26 1_555 1_555
C18 C32 1_555 1_555
C23 C29 1_555 1_555
C24 C28 1_555 1_555
C27 C31 1_555 1_555
C33 C35 1_555 1_555
C36 C37 1_555 1_555
C41 C43 1_555 1_555
C44 C45 1_555 1_555
C46 C47 1_555 1_555

#END
