
#######################################################################
#
#                 Cambridge Crystallographic Data Centre
#                                CCDC 
#
#######################################################################
#
# If this CIF has been generated from an entry in the Cambridge 
# Structural Database, then it will include bibliographic, chemical, 
# crystal, experimental, refinement or atomic coordinate data resulting 
# from the CCDC's data processing and validation procedures.
#
#######################################################################

data_IREKEV
_chemical_formula_moiety         'C18 H12 F3 N1 O1 S1'
_chemical_name_systematic        
2-((2-thienyl)carbonyl)-1-(trifluoromethyl)-1-(2-naphthylamino)ethene
_symmetry_cell_setting           monoclinic
_symmetry_space_group_name_H-M   'C 2/c'
_symmetry_Int_Tables_number      15
_space_group_name_Hall           '-C 2yn'
loop_
_symmetry_equiv_pos_site_id
_symmetry_equiv_pos_as_xyz
1 x,y,z
2 1/2+x,1/2+y,z
3 x,-y,1/2+z
4 1/2+x,1/2-y,1/2+z
5 -x,-y,-z
6 1/2-x,1/2-y,-z
7 -x,y,1/2-z
8 1/2-x,1/2+y,1/2-z
_cell_length_a                   10.413(3)
_cell_length_b                   16.080(5)
_cell_length_c                   19.188(6)
_cell_angle_alpha                90.00
_cell_angle_beta                 94.023(7)
_cell_angle_gamma                90.00
_cell_volume                     3204.94
_exptl_crystal_colour            yellow
_exptl_crystal_description       prism
_cell_formula_units_Z            8
loop_
_atom_site_label
_atom_site_type_symbol
_atom_site_fract_x
_atom_site_fract_y
_atom_site_fract_z
S1 S 0.05458(10) 0.04038(5) 0.12845(5)
N1 N 0.3605(3) 0.15394(19) 0.35203(15)
H1 H 0.327(3) 0.1132(18) 0.3380(15)
O1 O 0.2250(3) 0.06685(13) 0.25412(12)
C1 C 0.1870(3) 0.13409(19) 0.22916(15)
C2 C 0.2290(3) 0.2119(2) 0.25817(16)
H2 H 0.201(3) 0.2610(16) 0.2385(14)
C3 C 0.3124(3) 0.21937(18) 0.31534(15)
C4 C 0.3501(4) 0.3037(2) 0.34123(19)
F1 F 0.2828(2) 0.36371(11) 0.30927(10)
F2 F 0.3353(3) 0.31285(13) 0.40876(11)
F3 F 0.4725(3) 0.32083(13) 0.33330(15)
C5 C 0.0954(3) 0.13369(16) 0.16737(14)
C6 C 0.0370(3) 0.1983(2) 0.13134(15)
H3 H 0.046(2) 0.2507(16) 0.1443(13)
C7 C -0.0410(3) 0.1708(2) 0.07308(18)
H4 H -0.089(3) 0.2070(18) 0.0446(15)
C8 C -0.0399(3) 0.0887(2) 0.06549(19)
H5 H -0.088(3) 0.0556(19) 0.0334(15)
C9 C 0.4509(3) 0.14865(18) 0.41117(16)
C10 C 0.4137(3) 0.11653(18) 0.47199(16)
H6 H 0.331(3) 0.1009(16) 0.4747(12)
C11 C 0.5046(3) 0.10402(17) 0.52949(14)
C12 C 0.4699(5) 0.0704(2) 0.59360(19)
H7 H 0.387(3) 0.0523(18) 0.5977(14)
C13 C 0.5631(7) 0.0590(2) 0.6481(2)
H8 H 0.524(3) 0.035(2) 0.6872(18)
C14 C 0.6892(6) 0.0805(3) 0.6402(2)
H9 H 0.749(4) 0.068(3) 0.680(2)
C15 C 0.7246(4) 0.1127(2) 0.5801(2)
H10 H 0.806(4) 0.127(2) 0.578(2)
C16 C 0.6338(3) 0.12636(18) 0.52287(16)
C17 C 0.6683(4) 0.1597(2) 0.4593(2)
H11 H 0.760(3) 0.174(2) 0.4520(18)
C18 C 0.5797(4) 0.1697(2) 0.40533(19)
H12 H 0.605(3) 0.1894(18) 0.3640(16)
loop_
_geom_bond_atom_site_label_1
_geom_bond_atom_site_label_2
_geom_bond_site_symmetry_1
_geom_bond_site_symmetry_2
S1 C5 1_555 1_555
N1 H1 1_555 1_555
O1 C1 1_555 1_555
C1 C2 1_555 1_555
C2 H2 1_555 1_555
C3 N1 1_555 1_555
C4 C3 1_555 1_555
F1 C4 1_555 1_555
F2 C4 1_555 1_555
F3 C4 1_555 1_555
C5 C1 1_555 1_555
C6 C5 1_555 1_555
H3 C6 1_555 1_555
C7 C6 1_555 1_555
H4 C7 1_555 1_555
C8 S1 1_555 1_555
H5 C8 1_555 1_555
C9 N1 1_555 1_555
C10 C9 1_555 1_555
H6 C10 1_555 1_555
C11 C10 1_555 1_555
C12 C11 1_555 1_555
H7 C12 1_555 1_555
C13 C12 1_555 1_555
H8 C13 1_555 1_555
C14 C13 1_555 1_555
H9 C14 1_555 1_555
C15 C14 1_555 1_555
H10 C15 1_555 1_555
C16 C11 1_555 1_555
C17 C16 1_555 1_555
H11 C17 1_555 1_555
C18 C9 1_555 1_555
H12 C18 1_555 1_555
C2 C3 1_555 1_555
C7 C8 1_555 1_555
C15 C16 1_555 1_555
C17 C18 1_555 1_555

#END
