
#######################################################################
#
#                 Cambridge Crystallographic Data Centre
#                                CCDC 
#
#######################################################################
#
# If this CIF has been generated from an entry in the Cambridge 
# Structural Database, then it will include bibliographic, chemical, 
# crystal, experimental, refinement or atomic coordinate data resulting 
# from the CCDC's data processing and validation procedures.
#
#######################################################################

data_IRELUM
_chemical_formula_moiety         'C13 H13 N1 O2 S1'
_chemical_name_systematic        3-Acetyl-2-(ethylsulfanyl)-1H-4-quinolinone
_symmetry_cell_setting           monoclinic
_symmetry_space_group_name_H-M   'P 21/n'
_symmetry_Int_Tables_number      14
_space_group_name_Hall           '-P 2yn'
loop_
_symmetry_equiv_pos_site_id
_symmetry_equiv_pos_as_xyz
1 x,y,z
2 1/2-x,1/2+y,1/2-z
3 -x,-y,-z
4 1/2+x,1/2-y,1/2+z
_cell_length_a                   13.7279(17)
_cell_length_b                   10.0230(12)
_cell_length_c                   18.039(3)
_cell_angle_alpha                90
_cell_angle_beta                 107.080(11)
_cell_angle_gamma                90
_cell_volume                     2372.6
_exptl_crystal_colour            yellow
_exptl_crystal_description       block
_cell_formula_units_Z            8
loop_
_atom_site_label
_atom_site_type_symbol
_atom_site_fract_x
_atom_site_fract_y
_atom_site_fract_z
S1 S 0.49653(4) 0.55071(5) 0.09959(3)
O1 O 0.25800(10) 0.81381(17) 0.21488(8)
O2 O 0.29041(13) 0.54678(17) 0.05972(11)
N1 N 0.54615(11) 0.73209(15) 0.21398(8)
H1 H 0.6075 0.7101 0.2162
C1 C 0.46881(13) 0.67289(17) 0.16024(10)
C2 C 0.36787(13) 0.70715(18) 0.15428(10)
C3 C 0.34625(13) 0.79461(19) 0.21096(10)
C4 C 0.42046(16) 0.9533(2) 0.31971(12)
H2 H 0.3551 0.9776 0.3199
C5 C 0.50321(17) 1.0101(2) 0.37188(13)
H3 H 0.4940 1.0723 0.4074
C6 C 0.60127(16) 0.9748(2) 0.37178(13)
H4 H 0.6572 1.0128 0.4079
C7 C 0.61633(14) 0.8847(2) 0.31910(11)
H5 H 0.6820 0.8626 0.3188
C8 C 0.53198(13) 0.82651(18) 0.26583(10)
C9 C 0.43327(13) 0.85906(19) 0.26600(10)
C10 C 0.28351(14) 0.6537(2) 0.08988(11)
C11 C 0.19037(17) 0.7373(3) 0.05695(14)
H6 H 0.1428 0.6893 0.0159
H7 H 0.2092 0.8189 0.0369
H8 H 0.1594 0.7572 0.0969
C12 C 0.63161(15) 0.5709(2) 0.11233(12)
H9 H 0.6669 0.5780 0.1673
H10 H 0.6568 0.4918 0.0930
C13 C 0.65675(18) 0.6917(2) 0.07152(15)
H11 H 0.7291 0.6968 0.0805
H12 H 0.6336 0.7707 0.0912
H13 H 0.6235 0.6845 0.0168
S2 S 1.16682(4) 0.61278(5) 0.38607(3)
O3 O 0.79200(10) 0.72981(16) 0.26814(9)
O4 O 0.97367(19) 0.47695(17) 0.38951(11)
N2 N 1.08652(11) 0.78632(15) 0.27165(9)
H14 H 1.1481 0.7920 0.2695
C14 C 1.06533(14) 0.69981(18) 0.32222(10)
C15 C 0.96661(13) 0.68190(18) 0.32471(11)
C16 C 0.88288(14) 0.75173(19) 0.27168(11)
C17 C 0.83824(14) 0.9383(2) 0.17565(12)
H15 H 0.7704 0.9315 0.1750
C18 C 0.86595(16) 1.0325(2) 0.13099(12)
H16 H 0.8171 1.0897 0.1004
C19 C 0.96688(16) 1.0432(2) 0.13112(12)
H17 H 0.9848 1.1068 0.0999
C20 C 1.04021(15) 0.9616(2) 0.17651(11)
H18 H 1.1076 0.9694 0.1763
C21 C 1.01268(13) 0.86602(18) 0.22325(10)
C22 C 0.91077(13) 0.85170(18) 0.22244(10)
C23 C 0.94553(15) 0.5912(2) 0.38399(11)
C24 C 0.89505(18) 0.6501(3) 0.43896(13)
H19 H 0.8858 0.5823 0.4739
H20 H 0.8299 0.6858 0.4104
H21 H 0.9369 0.7202 0.4680
C25 C 1.27257(16) 0.7274(2) 0.39831(13)
H22 H 1.2971 0.7243 0.3531
H23 H 1.2505 0.8178 0.4039
C26 C 1.35659(18) 0.6880(3) 0.46944(14)
H24 H 1.4129 0.7484 0.4765
H25 H 1.3786 0.5989 0.4632
H26 H 1.3319 0.6917 0.5140
loop_
_geom_bond_atom_site_label_1
_geom_bond_atom_site_label_2
_geom_bond_site_symmetry_1
_geom_bond_site_symmetry_2
S1 C1 1_555 1_555
O1 C3 1_555 1_555
O2 C10 1_555 1_555
N1 H1 1_555 1_555
C1 N1 1_555 1_555
C2 C1 1_555 1_555
C3 C2 1_555 1_555
C4 H2 1_555 1_555
C5 C4 1_555 1_555
H3 C5 1_555 1_555
C6 C5 1_555 1_555
H4 C6 1_555 1_555
C7 C6 1_555 1_555
H5 C7 1_555 1_555
C8 N1 1_555 1_555
C9 C3 1_555 1_555
C10 C2 1_555 1_555
C11 C10 1_555 1_555
H6 C11 1_555 1_555
H7 C11 1_555 1_555
H8 C11 1_555 1_555
C12 S1 1_555 1_555
H9 C12 1_555 1_555
H10 C12 1_555 1_555
C13 C12 1_555 1_555
H11 C13 1_555 1_555
H12 C13 1_555 1_555
H13 C13 1_555 1_555
S2 C14 1_555 1_555
O3 C16 1_555 1_555
O4 C23 1_555 1_555
N2 H14 1_555 1_555
C14 N2 1_555 1_555
C15 C14 1_555 1_555
C16 C15 1_555 1_555
C17 H15 1_555 1_555
C18 C17 1_555 1_555
H16 C18 1_555 1_555
C19 C18 1_555 1_555
H17 C19 1_555 1_555
C20 C19 1_555 1_555
H18 C20 1_555 1_555
C21 N2 1_555 1_555
C22 C16 1_555 1_555
C23 C15 1_555 1_555
C24 C23 1_555 1_555
H19 C24 1_555 1_555
H20 C24 1_555 1_555
H21 C24 1_555 1_555
C25 S2 1_555 1_555
H22 C25 1_555 1_555
H23 C25 1_555 1_555
C26 C25 1_555 1_555
H24 C26 1_555 1_555
H25 C26 1_555 1_555
H26 C26 1_555 1_555
C4 C9 1_555 1_555
C7 C8 1_555 1_555
C8 C9 1_555 1_555
C17 C22 1_555 1_555
C20 C21 1_555 1_555
C21 C22 1_555 1_555

#END
