
#######################################################################
#
#                 Cambridge Crystallographic Data Centre
#                                CCDC 
#
#######################################################################
#
# If this CIF has been generated from an entry in the Cambridge 
# Structural Database, then it will include bibliographic, chemical, 
# crystal, experimental, refinement or atomic coordinate data resulting 
# from the CCDC's data processing and validation procedures.
#
#######################################################################

data_IREMEX
_chemical_formula_moiety         'C17 H23 N1 O4 S2'
_chemical_name_systematic        
3-((Z)-1-((2-(Methoxy)ethoxy)methoxy)ethylidene)-4,4-bis(methylsulfanyl)-1-phenyl-azetidin-2-one
_symmetry_cell_setting           monoclinic
_symmetry_space_group_name_H-M   'P 21/c'
_symmetry_Int_Tables_number      14
_space_group_name_Hall           '-P 2ybc'
loop_
_symmetry_equiv_pos_site_id
_symmetry_equiv_pos_as_xyz
1 x,y,z
2 -x,1/2+y,1/2-z
3 -x,-y,-z
4 x,1/2-y,1/2+z
_cell_length_a                   12.014(3)
_cell_length_b                   7.036(2)
_cell_length_c                   22.814(7)
_cell_angle_alpha                90
_cell_angle_beta                 93.98(2)
_cell_angle_gamma                90
_cell_volume                     1923.83
_exptl_crystal_colour            'pale yellow'
_exptl_crystal_description       block
_chemical_melting_point          '53-54 deg.C'
_cell_formula_units_Z            4
_exptl_crystal_recrystallization_method 'ethyl acetate/hexane'
loop_
_atom_site_label
_atom_site_type_symbol
_atom_site_fract_x
_atom_site_fract_y
_atom_site_fract_z
N1 N 0.13690(18) 0.8089(4) 0.07495(9)
C1 C 0.0802(2) 0.7543(4) 0.02235(11)
C2 C 0.1848(2) 0.6825(4) 0.00023(12)
C3 C 0.2463(2) 0.7406(4) 0.05759(12)
C4 C 0.2126(3) 0.5942(4) -0.04802(13)
O1 O 0.32193(19) 0.5455(4) -0.04980(10)
C5 C 0.3618(4) 0.4690(6) -0.10176(17)
H1 H 0.4374 0.4230 -0.0934
H2 H 0.3157 0.3616 -0.1145
O2 O 0.3612(2) 0.6018(4) -0.14673(11)
C6 C 0.4398(3) 0.7517(6) -0.1362(2)
H3 H 0.5149 0.7001 -0.1329
H4 H 0.4265 0.8152 -0.0996
C7 C 0.4288(4) 0.8891(7) -0.1852(2)
H5 H 0.4925 0.9741 -0.1833
H6 H 0.4266 0.8220 -0.2224
O3 O 0.3322(3) 0.9918(5) -0.18135(13)
C8 C 0.3122(5) 1.1184(8) -0.2289(2)
H7 H 0.2443 1.1871 -0.2242
H8 H 0.3054 1.0479 -0.2650
H9 H 0.3732 1.2063 -0.2298
C9 C 0.1294(3) 0.5432(5) -0.09667(14)
H10 H 0.0572 0.5892 -0.0879
H11 H 0.1268 0.4075 -0.1010
H12 H 0.1504 0.5999 -0.1325
O4 O -0.01691(16) 0.7657(3) 0.00550(8)
C10 C 0.1032(3) 0.8887(4) 0.12773(12)
C11 C -0.0024(3) 0.9622(4) 0.12945(14)
H13 H -0.0515 0.9614 0.0961
C12 C -0.0345(4) 1.0385(5) 0.18232(17)
H14 H -0.1058 1.0886 0.1841
C13 C 0.0378(4) 1.0404(5) 0.23148(16)
H15 H 0.0154 1.0909 0.2665
C14 C 0.1425(4) 0.9683(5) 0.22902(14)
H16 H 0.1913 0.9697 0.2625
C15 C 0.1771(3) 0.8927(5) 0.17721(13)
H17 H 0.2491 0.8452 0.1756
S1 S 0.31020(7) 0.54904(13) 0.10169(4)
C16 C 0.1927(3) 0.4031(5) 0.11350(15)
H18 H 0.2164 0.2946 0.1366
H19 H 0.1589 0.3614 0.0763
H20 H 0.1394 0.4747 0.1339
S2 S 0.35556(7) 0.91707(13) 0.05670(4)
C17 C 0.3010(3) 1.0737(5) -0.00030(17)
H21 H 0.3530 1.1752 -0.0052
H22 H 0.2312 1.1255 0.0102
H23 H 0.2896 1.0044 -0.0365
loop_
_geom_bond_atom_site_label_1
_geom_bond_atom_site_label_2
_geom_bond_site_symmetry_1
_geom_bond_site_symmetry_2
N1 C1 1_555 1_555
C1 C2 1_555 1_555
C2 C3 1_555 1_555
C3 N1 1_555 1_555
C4 C2 1_555 1_555
O1 C4 1_555 1_555
C5 O1 1_555 1_555
H1 C5 1_555 1_555
H2 C5 1_555 1_555
O2 C5 1_555 1_555
C6 O2 1_555 1_555
H3 C6 1_555 1_555
H4 C6 1_555 1_555
C7 C6 1_555 1_555
H5 C7 1_555 1_555
H6 C7 1_555 1_555
O3 C7 1_555 1_555
C8 O3 1_555 1_555
H7 C8 1_555 1_555
H8 C8 1_555 1_555
H9 C8 1_555 1_555
C9 C4 1_555 1_555
H10 C9 1_555 1_555
H11 C9 1_555 1_555
H12 C9 1_555 1_555
O4 C1 1_555 1_555
C10 N1 1_555 1_555
C11 C10 1_555 1_555
H13 C11 1_555 1_555
C12 C11 1_555 1_555
H14 C12 1_555 1_555
C13 C12 1_555 1_555
H15 C13 1_555 1_555
C14 C13 1_555 1_555
H16 C14 1_555 1_555
C15 C10 1_555 1_555
H17 C15 1_555 1_555
S1 C3 1_555 1_555
C16 S1 1_555 1_555
H18 C16 1_555 1_555
H19 C16 1_555 1_555
H20 C16 1_555 1_555
S2 C3 1_555 1_555
C17 S2 1_555 1_555
H21 C17 1_555 1_555
H22 C17 1_555 1_555
H23 C17 1_555 1_555
C14 C15 1_555 1_555

#END
