
#######################################################################
#
#                 Cambridge Crystallographic Data Centre
#                                CCDC 
#
#######################################################################
#
# If this CIF has been generated from an entry in the Cambridge 
# Structural Database, then it will include bibliographic, chemical, 
# crystal, experimental, refinement or atomic coordinate data resulting 
# from the CCDC's data processing and validation procedures.
#
#######################################################################

data_IREPOL
_chemical_formula_moiety         'C42 H54 N4 O2,2(C1 H4 O1)'
_chemical_name_systematic        
'1,20,25,25,34,34-Hexamethyl-7,14-dioxa-39,40,41,42-tetraazaheptacyclo[18.9.9.1^21,24^.1^26,29^.1^30,33^.1^35,38^.0^8,13^]dotetraconta-8,10,12,21,23,26,28,30,32,35,37-undecaene methanol solvate'
_symmetry_cell_setting           monoclinic
_symmetry_space_group_name_H-M   'P 21/c'
_symmetry_Int_Tables_number      14
_space_group_name_Hall           '-P 2ybc'
loop_
_symmetry_equiv_pos_site_id
_symmetry_equiv_pos_as_xyz
1 x,y,z
2 -x,1/2+y,1/2-z
3 -x,-y,-z
4 x,1/2-y,1/2+z
_cell_length_a                   12.7028(15)
_cell_length_b                   9.8713(7)
_cell_length_c                   32.070(4)
_cell_angle_alpha                90
_cell_angle_beta                 91.157(10)
_cell_angle_gamma                90
_cell_volume                     4020.54
_exptl_crystal_colour            colorless
_exptl_crystal_description       plate
_cell_formula_units_Z            4
loop_
_atom_site_label
_atom_site_type_symbol
_atom_site_fract_x
_atom_site_fract_y
_atom_site_fract_z
C1 C 0.4519(3) 0.1934(4) 0.06138(12)
C2 C 0.4897(3) 0.3200(4) 0.05531(13)
H1 H 0.5565 0.3495 0.0635
C3 C 0.4135(4) 0.3999(4) 0.03489(13)
H2 H 0.4215 0.4901 0.0272
C4 C 0.3258(3) 0.3233(4) 0.02826(11)
C5 C 0.2202(3) 0.3586(3) 0.00892(12)
C6 C 0.1372(3) 0.3728(4) 0.04174(11)
C7 C 0.0839(3) 0.4834(3) 0.05439(12)
H3 H 0.0917 0.5708 0.0441
C8 C 0.0145(3) 0.4437(3) 0.08597(12)
H4 H -0.0304 0.5009 0.1002
C9 C 0.0242(3) 0.3083(4) 0.09203(11)
C10 C -0.0327(3) 0.2185(3) 0.12230(12)
C11 C 0.0020(3) 0.0719(3) 0.11997(11)
C12 C -0.0486(3) -0.0421(4) 0.10666(10)
H5 H -0.1154 -0.0457 0.0943
C13 C 0.0179(3) -0.1539(3) 0.11487(11)
H6 H 0.0031 -0.2437 0.1083
C14 C 0.1072(3) -0.1080(4) 0.13399(11)
C15 C 0.2061(3) -0.1813(3) 0.14882(13)
C16 C 0.2929(3) -0.1586(4) 0.11831(12)
C17 C 0.3326(3) -0.2385(3) 0.08762(13)
H7 H 0.3095 -0.3253 0.0808
C18 C 0.4145(3) -0.1676(4) 0.06786(11)
H8 H 0.4547 -0.2004 0.0461
C19 C 0.4246(3) -0.0441(4) 0.08587(12)
C20 C 0.5028(3) 0.0694(4) 0.08054(12)
C21 C -0.0106(3) 0.2738(3) 0.16670(11)
H9 H 0.0650 0.2744 0.1717
H10 H -0.0347 0.3670 0.1678
C22 C -0.0621(3) 0.1950(3) 0.20207(12)
H11 H -0.0878 0.1091 0.1913
H12 H -0.1222 0.2459 0.2117
C23 C 0.0137(3) 0.1679(3) 0.23932(12)
H13 H -0.0230 0.1137 0.2597
H14 H 0.0724 0.1146 0.2296
C24 C 0.0564(3) 0.2917(3) 0.26069(12)
H15 H -0.0018 0.3453 0.2708
H16 H 0.0938 0.3462 0.2407
C25 C 0.1301(3) 0.2573(4) 0.29690(12)
H17 H 0.1453 0.3374 0.3134
H18 H 0.0986 0.1896 0.3147
C26 C 0.2990(4) 0.1613(4) 0.30719(14)
C27 C 0.2879(4) 0.1548(4) 0.34998(15)
H19 H 0.2249 0.1805 0.3619
C28 C 0.3715(4) 0.1095(4) 0.37515(14)
H20 H 0.3641 0.1045 0.4039
C29 C 0.4631(4) 0.0729(4) 0.35790(15)
H21 H 0.5187 0.0425 0.3747
C30 C 0.4739(4) 0.0806(4) 0.31571(16)
H22 H 0.5375 0.0555 0.3041
C31 C 0.3941(4) 0.1240(5) 0.29042(16)
C32 C 0.6429(3) 0.0470(5) 0.19163(13)
H23 H 0.7050 0.1028 0.1882
H24 H 0.6652 -0.0335 0.2067
C33 C 0.6055(3) 0.0019(4) 0.14803(12)
H25 H 0.6658 -0.0290 0.1326
H26 H 0.5579 -0.0742 0.1508
C34 C 0.5498(3) 0.1129(3) 0.12316(12)
H27 H 0.5995 0.1857 0.1186
H28 H 0.4935 0.1490 0.1399
C35 C 0.2312(3) 0.4969(3) -0.01340(10)
H29 H 0.2502 0.5652 0.0067
H30 H 0.1654 0.5204 -0.0267
H31 H 0.2848 0.4907 -0.0340
C36 C 0.1861(3) 0.2532(3) -0.02433(10)
H32 H 0.2385 0.2482 -0.0455
H33 H 0.1199 0.2797 -0.0368
H34 H 0.1789 0.1660 -0.0114
C37 C 0.1839(3) -0.3342(3) 0.15055(11)
H35 H 0.1623 -0.3656 0.1234
H36 H 0.1290 -0.3515 0.1700
H37 H 0.2467 -0.3812 0.1594
C38 C 0.2406(3) -0.1349(3) 0.19267(11)
H38 H 0.3060 -0.1779 0.2004
H39 H 0.1877 -0.1593 0.2123
H40 H 0.2499 -0.0384 0.1928
C39 C 0.5924(3) 0.0204(3) 0.05169(10)
H41 H 0.6227 -0.0614 0.0628
H42 H 0.6457 0.0891 0.0503
H43 H 0.5640 0.0034 0.0242
C40 C -0.1520(3) 0.2278(3) 0.11202(11)
H44 H -0.1745 0.3204 0.1139
H45 H -0.1902 0.1737 0.1315
H46 H -0.1655 0.1950 0.0842
C43 C 0.4717(13) 0.0365(12) 0.2274(3)
H53 H 0.4465 0.0007 0.2009
H54 H 0.4934 -0.0395 0.2447
C44 C 0.5662(14) 0.1265(13) 0.2201(3)
H55 H 0.6008 0.1488 0.2464
H56 H 0.5441 0.2101 0.2066
O1 O 0.3881(10) 0.106(2) 0.2470(3)
N1 N 0.3508(3) 0.1968(3) 0.04423(10)
N2 N 0.0990(3) 0.2665(3) 0.06476(10)
N3 N 0.0970(3) 0.0304(3) 0.13662(10)
N4 N 0.3493(3) -0.0388(3) 0.11652(10)
O2 O 0.2250(2) 0.2055(3) 0.27895(9)
H57 H 0.114(2) 0.187(2) 0.0613(8)
H58 H 0.343(2) 0.026(2) 0.1340(8)
H59 H 0.144(2) 0.082(2) 0.1488(8)
H60 H 0.312(2) 0.132(2) 0.0444(8)
C41 C 0.2932(3) 0.3287(3) 0.15695(12)
H47 H 0.2370 0.3861 0.1659
H48 H 0.2933 0.3258 0.1270
H49 H 0.3593 0.3641 0.1672
O3 O 0.2786(3) 0.1958(3) 0.17285(13)
H61 H 0.292(4) 0.191(5) 0.1953(14)
C42 C 0.1315(3) 0.8917(3) 0.00893(12)
H50 H 0.0739 0.8425 0.0205
H51 H 0.1851 0.8293 0.0006
H52 H 0.1070 0.9423 -0.0149
O4 O 0.1732(3) 0.9805(3) 0.03890(12)
H62 H 0.188(3) 0.943(3) 0.0573(12)
C45? C 0.5181(18) 0.176(2) 0.2291(6)
C46? C 0.536(2) 0.0338(19) 0.2163(6)
H63? H 0.5174 0.2345 0.2049
H64? H 0.5739 0.2053 0.2481
H65? H 0.4793 0.0006 0.1985
H66? H 0.5443 -0.0254 0.2403
O5? O 0.4151(15) 0.182(3) 0.2501(5)
loop_
_geom_bond_atom_site_label_1
_geom_bond_atom_site_label_2
_geom_bond_site_symmetry_1
_geom_bond_site_symmetry_2
C1 C2 1_555 1_555
C2 H1 1_555 1_555
C3 C2 1_555 1_555
H2 C3 1_555 1_555
C4 C3 1_555 1_555
C5 C4 1_555 1_555
C6 C5 1_555 1_555
C7 C6 1_555 1_555
H3 C7 1_555 1_555
C8 C7 1_555 1_555
H4 C8 1_555 1_555
C9 C8 1_555 1_555
C10 C9 1_555 1_555
C11 C10 1_555 1_555
C12 C11 1_555 1_555
H5 C12 1_555 1_555
C13 C12 1_555 1_555
H6 C13 1_555 1_555
C14 C13 1_555 1_555
C15 C14 1_555 1_555
C16 C15 1_555 1_555
C17 C16 1_555 1_555
H7 C17 1_555 1_555
C18 C17 1_555 1_555
H8 C18 1_555 1_555
C19 C18 1_555 1_555
C20 C1 1_555 1_555
C21 C10 1_555 1_555
H9 C21 1_555 1_555
H10 C21 1_555 1_555
C22 C21 1_555 1_555
H11 C22 1_555 1_555
H12 C22 1_555 1_555
C23 C22 1_555 1_555
H13 C23 1_555 1_555
H14 C23 1_555 1_555
C24 C23 1_555 1_555
H15 C24 1_555 1_555
H16 C24 1_555 1_555
C25 C24 1_555 1_555
H17 C25 1_555 1_555
H18 C25 1_555 1_555
C26 C27 1_555 1_555
C27 H19 1_555 1_555
C28 C27 1_555 1_555
H20 C28 1_555 1_555
C29 C28 1_555 1_555
H21 C29 1_555 1_555
C30 C29 1_555 1_555
H22 C30 1_555 1_555
C31 C26 1_555 1_555
C32 H23 1_555 1_555
H24 C32 1_555 1_555
C33 C32 1_555 1_555
H25 C33 1_555 1_555
H26 C33 1_555 1_555
C34 C20 1_555 1_555
H27 C34 1_555 1_555
H28 C34 1_555 1_555
C35 C5 1_555 1_555
H29 C35 1_555 1_555
H30 C35 1_555 1_555
H31 C35 1_555 1_555
C36 C5 1_555 1_555
H32 C36 1_555 1_555
H33 C36 1_555 1_555
H34 C36 1_555 1_555
C37 C15 1_555 1_555
H35 C37 1_555 1_555
H36 C37 1_555 1_555
H37 C37 1_555 1_555
C38 C15 1_555 1_555
H38 C38 1_555 1_555
H39 C38 1_555 1_555
H40 C38 1_555 1_555
C39 C20 1_555 1_555
H41 C39 1_555 1_555
H42 C39 1_555 1_555
H43 C39 1_555 1_555
C40 C10 1_555 1_555
H44 C40 1_555 1_555
H45 C40 1_555 1_555
H46 C40 1_555 1_555
C41 H47 1_555 1_555
H48 C41 1_555 1_555
H49 C41 1_555 1_555
C42 H50 1_555 1_555
H51 C42 1_555 1_555
H52 C42 1_555 1_555
C43 H53 1_555 1_555
H54 C43 1_555 1_555
C44 C32 1_555 1_555
H55 C44 1_555 1_555
H56 C44 1_555 1_555
O1 C31 1_555 1_555
N1 C1 1_555 1_555
N2 C6 1_555 1_555
N3 C11 1_555 1_555
N4 C16 1_555 1_555
O2 C25 1_555 1_555
O3 C41 1_555 1_555
O4 C42 1_555 1_555
H57 N2 1_555 1_555
H58 N4 1_555 1_555
H59 N3 1_555 1_555
H60 N1 1_555 1_555
H61 O3 1_555 1_555
H62 O4 1_555 1_555
C4 N1 1_555 1_555
C9 N2 1_555 1_555
C14 N3 1_555 1_555
C19 C20 1_555 1_555
C19 N4 1_555 1_555
C26 O2 1_555 1_555
C30 C31 1_555 1_555
C33 C34 1_555 1_555
C43 C44 1_555 1_555
C43 O1 1_555 1_555

#END
