
#######################################################################
#
#                 Cambridge Crystallographic Data Centre
#                                CCDC 
#
#######################################################################
#
# If this CIF has been generated from an entry in the Cambridge 
# Structural Database, then it will include bibliographic, chemical, 
# crystal, experimental, refinement or atomic coordinate data resulting 
# from the CCDC's data processing and validation procedures.
#
#######################################################################

data_IREQON
_chemical_formula_moiety         'C4 H4 Br1 O4 1-,C3 H5 N2 1+'
_chemical_name_systematic        '1H-imidazol-3-ium 2-bromo-3-carboxypropanoate'
_symmetry_cell_setting           triclinic
_symmetry_space_group_name_H-M   'P -1'
_symmetry_Int_Tables_number      2
_space_group_name_Hall           '-P 1'
loop_
_symmetry_equiv_pos_site_id
_symmetry_equiv_pos_as_xyz
1 x,y,z
2 -x,-y,-z
_cell_length_a                   8.0994(4)
_cell_length_b                   8.3605(4)
_cell_length_c                   8.8967(7)
_cell_angle_alpha                101.264(3)
_cell_angle_beta                 106.468(3)
_cell_angle_gamma                118.411(2)
_cell_volume                     467.586
_exptl_crystal_colour            colorless
_exptl_crystal_description       prism
_chemical_melting_point          '403-406 K'
_cell_formula_units_Z            2
loop_
_atom_site_label
_atom_site_type_symbol
_atom_site_fract_x
_atom_site_fract_y
_atom_site_fract_z
Br1 Br 0.19737(5) 0.79891(5) 0.84041(4)
O1 O -0.1861(4) 0.6572(4) 0.4194(3)
O2 O -0.1093(4) 0.9058(4) 0.6376(3)
O3 O 0.5004(4) 0.7467(4) 0.5235(3)
H1 H 0.629(4) 0.793(7) 0.557(6)
O4 O 0.5881(4) 1.0170(4) 0.7244(3)
C1 C -0.0647(5) 0.8021(5) 0.5559(4)
C2 C 0.1628(5) 0.8682(5) 0.6379(4)
H2 H 0.2557 1.0149 0.6766
C3 C 0.2258(5) 0.7739(5) 0.5244(4)
H3 H 0.1876 0.7913 0.4157
H4 H 0.1466 0.6303 0.4981
C4 C 0.4568(5) 0.8591(5) 0.6028(4)
N1 N -0.5860(5) 0.4560(5) 0.1779(4)
H5 H -0.474(5) 0.520(6) 0.267(4)
N2 N -0.8417(4) 0.2300(4) -0.0622(4)
H6 H -0.917(6) 0.124(4) -0.151(4)
C5 C -0.6821(6) 0.2713(6) 0.0723(5)
H7 H -0.6435 0.1831 0.0898
C6 C -0.6867(5) 0.5367(5) 0.1089(5)
H8 H -0.6508 0.6670 0.1577
C7 C -0.8472(6) 0.3928(6) -0.0424(5)
H9 H -0.9455 0.4035 -0.1204
loop_
_geom_bond_atom_site_label_1
_geom_bond_atom_site_label_2
_geom_bond_site_symmetry_1
_geom_bond_site_symmetry_2
Br1 C2 1_555 1_555
O1 C1 1_555 1_555
O2 C1 1_555 1_555
O3 H1 1_555 1_555
O4 C4 1_555 1_555
C1 C2 1_555 1_555
C2 H2 1_555 1_555
C3 C2 1_555 1_555
H3 C3 1_555 1_555
H4 C3 1_555 1_555
C4 O3 1_555 1_555
N1 H5 1_555 1_555
N2 H6 1_555 1_555
C5 N1 1_555 1_555
H7 C5 1_555 1_555
C6 N1 1_555 1_555
H8 C6 1_555 1_555
C7 N2 1_555 1_555
H9 C7 1_555 1_555
C3 C4 1_555 1_555
N2 C5 1_555 1_555
C6 C7 1_555 1_555

#END
