
#######################################################################
#
#                 Cambridge Crystallographic Data Centre
#                                CCDC 
#
#######################################################################
#
# If this CIF has been generated from an entry in the Cambridge 
# Structural Database, then it will include bibliographic, chemical, 
# crystal, experimental, refinement or atomic coordinate data resulting 
# from the CCDC's data processing and validation procedures.
#
#######################################################################

data_IREQOM
_chemical_formula_moiety         'C8 H8 F3 N1 O2'
_chemical_name_systematic        
1-(4,5-Dimethyl-1,3-oxazol-2-yl)-3,3,3-trifluoroprop-1-en-2-ol
_symmetry_cell_setting           orthorhombic
_symmetry_space_group_name_H-M   'F d d d'
_symmetry_Int_Tables_number      70
_space_group_name_Hall           '-F 2uv 2vw'
loop_
_symmetry_equiv_pos_site_id
_symmetry_equiv_pos_as_xyz
1 x,y,z
2 1/4-x,1/4-y,z
3 x,1/4-y,1/4-z
4 1/4-x,y,1/4-z
5 x,1/2+y,1/2+z
6 1/4-x,3/4-y,1/2+z
7 x,3/4-y,3/4-z
8 1/4-x,1/2+y,3/4-z
9 1/2+x,y,1/2+z
10 3/4-x,1/4-y,1/2+z
11 1/2+x,1/4-y,3/4-z
12 3/4-x,y,3/4-z
13 1/2+x,1/2+y,z
14 3/4-x,3/4-y,z
15 1/2+x,3/4-y,1/4-z
16 3/4-x,1/2+y,1/4-z
17 -x,-y,-z
18 3/4+x,3/4+y,-z
19 -x,3/4+y,3/4+z
20 3/4+x,-y,3/4+z
21 -x,1/2-y,1/2-z
22 3/4+x,1/4+y,1/2-z
23 -x,1/4+y,1/4+z
24 3/4+x,1/2-y,1/4+z
25 1/2-x,-y,1/2-z
26 1/4+x,3/4+y,1/2-z
27 1/2-x,3/4+y,1/4+z
28 1/4+x,-y,1/4+z
29 1/2-x,1/2-y,-z
30 1/4+x,1/4+y,-z
31 1/2-x,1/4+y,3/4+z
32 1/4+x,1/2-y,3/4+z
_cell_length_a                   10.9729(11)
_cell_length_b                   24.074(3)
_cell_length_c                   28.356(3)
_cell_angle_alpha                90
_cell_angle_beta                 90
_cell_angle_gamma                90
_cell_volume                     7490.57
_exptl_crystal_colour            colorless
_exptl_crystal_description       rhombic
_cell_formula_units_Z            32
loop_
_atom_site_label
_atom_site_type_symbol
_atom_site_fract_x
_atom_site_fract_y
_atom_site_fract_z
O1 O 0.1369(3) 0.05660(11) 0.27421(9)
O2 O -0.0061(3) 0.02258(14) 0.14067(10)
H1 H 0.0592 0.0376 0.1466
F1 F -0.2224(4) -0.04353(19) 0.21024(14)
N1 N 0.1836(3) 0.05579(13) 0.19961(13)
F2 F -0.1857(5) -0.0516(3) 0.13814(18)
F3 F -0.2684(4) 0.0193(2) 0.1651(3)
C1 C 0.0970(4) 0.04365(17) 0.23077(14)
C2 C -0.0180(4) 0.01948(18) 0.22352(15)
H2 H -0.0662 0.0096 0.2492
C3 C 0.2560(4) 0.07744(16) 0.26946(15)
C4 C 0.2855(4) 0.07671(16) 0.22402(15)
C5 C -0.0588(4) 0.01042(18) 0.17830(16)
C6 C 0.3988(4) 0.0930(2) 0.19845(17)
H3 H 0.3874 0.0876 0.1652
H4 H 0.4655 0.0704 0.2091
H5 H 0.4165 0.1314 0.2046
C7 C 0.3170(5) 0.09501(19) 0.31365(16)
H6 H 0.2641 0.0880 0.3399
H7 H 0.3352 0.1340 0.3121
H8 H 0.3912 0.0744 0.3175
C8 C -0.1816(5) -0.0169(3) 0.17247(18)
loop_
_geom_bond_atom_site_label_1
_geom_bond_atom_site_label_2
_geom_bond_site_symmetry_1
_geom_bond_site_symmetry_2
O1 C1 1_555 1_555
O2 H1 1_555 1_555
F1 C8 1_555 1_555
N1 C1 1_555 1_555
F2 C8 1_555 1_555
F3 C8 1_555 1_555
C1 C2 1_555 1_555
C2 H2 1_555 1_555
C3 O1 1_555 1_555
C4 N1 1_555 1_555
C5 O2 1_555 1_555
C6 C4 1_555 1_555
H3 C6 1_555 1_555
H4 C6 1_555 1_555
H5 C6 1_555 1_555
C7 C3 1_555 1_555
H6 C7 1_555 1_555
H7 C7 1_555 1_555
H8 C7 1_555 1_555
C8 C5 1_555 1_555
C2 C5 1_555 1_555
C3 C4 1_555 1_555

#END
