
#######################################################################
#
#                 Cambridge Crystallographic Data Centre
#                                CCDC 
#
#######################################################################
#
# If this CIF has been generated from an entry in the Cambridge 
# Structural Database, then it will include bibliographic, chemical, 
# crystal, experimental, refinement or atomic coordinate data resulting 
# from the CCDC's data processing and validation procedures.
#
#######################################################################

data_IREREE
_chemical_formula_moiety         
'C4 H4 Br1 O4 1-,C4 H4 Cl1 O4 1-,2(C3 H5 N2 1+)'
_chemical_name_systematic        
'bis(1H-imidazol-3-ium) 2-bromo-3-carboxypropanoate 3-carboxy-2-chloropropanoate'
_symmetry_cell_setting           triclinic
_symmetry_space_group_name_H-M   'P 1'
_symmetry_Int_Tables_number      1
_space_group_name_Hall           'P 1'
loop_
_symmetry_equiv_pos_site_id
_symmetry_equiv_pos_as_xyz
1 x,y,z
_cell_length_a                   8.1185(8)
_cell_length_b                   8.2996(8)
_cell_length_c                   8.8998(9)
_cell_angle_alpha                100.911(5)
_cell_angle_beta                 106.931(5)
_cell_angle_gamma                117.952(4)
_cell_volume                     467.581
_exptl_crystal_colour            colorless
_exptl_crystal_description       prism
_chemical_melting_point          '398-400 K'
_cell_formula_units_Z            1
loop_
_atom_site_label
_atom_site_type_symbol
_atom_site_fract_x
_atom_site_fract_y
_atom_site_fract_z
Br1 Br 0.22327(8) 0.04752(8) 0.51218(7)
O1 O 0.5359(7) -0.0536(7) 0.7108(6)
O2 O 0.6080(6) 0.1832(6) 0.9375(5)
O3 O -0.1664(9) -0.1741(8) 0.6269(7)
O4 O -0.0774(8) 0.0974(7) 0.8266(7)
H1 H -0.207(5) 0.042(10) 0.777(9)
C1 C -0.0355(11) -0.0183(11) 0.7471(8)
C2 C 0.1962(10) 0.0663(9) 0.8276(8)
H2 H 0.2750 0.2108 0.8569
H3 H 0.2330 0.0444 0.9346
C3 C 0.2601(10) -0.0236(10) 0.7140(8)
H4 H 0.1698 -0.1707 0.6749
C4 C 0.4889(9) 0.0438(9) 0.7954(8)
Cl1 Cl -0.3728(2) -0.3526(2) 1.18585(16)
O5 O -0.6882(7) -0.2595(7) 0.9949(6)
O6 O -0.7586(7) -0.4977(6) 0.7706(5)
O7 O 0.0115(7) -0.1409(7) 1.0783(6)
O8 O -0.0807(8) -0.4169(9) 0.8772(6)
H5 H 0.047(5) -0.370(11) 0.924(9)
C5 C -0.6409(9) -0.3580(8) 0.9080(8)
C6 C -0.4132(9) -0.2911(9) 0.9936(8)
H6 H -0.3224 -0.1445 1.0302
C7 C -0.3505(10) -0.3862(10) 0.8801(8)
H7 H -0.3902 -0.3693 0.7709
H8 H -0.4278 -0.5298 0.8551
C8 C -0.1195(9) -0.3002(9) 0.9586(8)
N1 N -0.4187(9) 0.0704(8) 1.2879(7)
H9 H -0.505(11) -0.036(8) 1.200(8)
N2 N -0.1595(8) 0.2966(8) 1.5253(6)
H10 H -0.058(7) 0.346(9) 1.618(5)
C9 C -0.2581(11) 0.1099(10) 1.4203(8)
H11 H -0.2199 0.0203 1.4373
C10 C -0.2629(11) 0.3780(10) 1.4569(8)
H12 H -0.2272 0.5085 1.5066
C11 C -0.4214(12) 0.2393(11) 1.3087(9)
H13 H -0.5182 0.2531 1.2315
N3 N 0.2687(8) -0.3810(8) 0.4124(6)
H14 H 0.342(10) -0.273(6) 0.492(7)
N4 N 0.0071(8) -0.6140(8) 0.1765(7)
H15 H -0.115(6) -0.672(9) 0.104(7)
C12 C 0.1010(11) -0.4277(10) 0.2825(8)
H16 H 0.0553 -0.3429 0.2674
C13 C 0.1181(10) -0.6880(10) 0.2408(8)
H17 H 0.0864 -0.8171 0.1921
C14 C 0.2848(10) -0.5384(10) 0.3899(8)
H18 H 0.3915 -0.5441 0.4636
loop_
_geom_bond_atom_site_label_1
_geom_bond_atom_site_label_2
_geom_bond_site_symmetry_1
_geom_bond_site_symmetry_2
Br1 C3 1_555 1_555
O1 C4 1_555 1_555
O2 C4 1_555 1_555
O3 C1 1_555 1_555
O4 H1 1_555 1_555
C1 O4 1_555 1_555
C2 C1 1_555 1_555
H2 C2 1_555 1_555
H3 C2 1_555 1_555
C3 C2 1_555 1_555
H4 C3 1_555 1_555
C4 C3 1_555 1_555
Cl1 C6 1_555 1_555
O5 C5 1_555 1_555
O6 C5 1_555 1_555
O7 C8 1_555 1_555
O8 H5 1_555 1_555
C5 C6 1_555 1_555
C6 H6 1_555 1_555
C7 C6 1_555 1_555
H7 C7 1_555 1_555
H8 C7 1_555 1_555
C8 O8 1_555 1_555
N1 H9 1_555 1_555
N2 H10 1_555 1_555
C9 N1 1_555 1_555
H11 C9 1_555 1_555
C10 N2 1_555 1_555
H12 C10 1_555 1_555
C11 N1 1_555 1_555
H13 C11 1_555 1_555
N3 H14 1_555 1_555
N4 H15 1_555 1_555
C12 N3 1_555 1_555
H16 C12 1_555 1_555
C13 N4 1_555 1_555
H17 C13 1_555 1_555
C14 N3 1_555 1_555
H18 C14 1_555 1_555
C7 C8 1_555 1_555
N2 C9 1_555 1_555
C10 C11 1_555 1_555
N4 C12 1_555 1_555
C13 C14 1_555 1_555

#END
