
#######################################################################
#
#                 Cambridge Crystallographic Data Centre
#                                CCDC 
#
#######################################################################
#
# If this CIF has been generated from an entry in the Cambridge 
# Structural Database, then it will include bibliographic, chemical, 
# crystal, experimental, refinement or atomic coordinate data resulting 
# from the CCDC's data processing and validation procedures.
#
#######################################################################

data_IRETII
_chemical_formula_moiety         'C10 H10 N2 2+,2(C10 H5 O8 1-)'
_chemical_name_systematic        
"4,4'-Bipyridin-1-ium bis(trihydrogen benzene-1,2,4,5-tetracarboxylate)"
_symmetry_cell_setting           monoclinic
_symmetry_space_group_name_H-M   'C 2/c'
_symmetry_Int_Tables_number      15
_space_group_name_Hall           '-C 2yn'
loop_
_symmetry_equiv_pos_site_id
_symmetry_equiv_pos_as_xyz
1 x,y,z
2 1/2+x,1/2+y,z
3 -x,y,1/2-z
4 1/2-x,1/2+y,1/2-z
5 -x,-y,-z
6 1/2-x,1/2-y,-z
7 x,-y,1/2+z
8 1/2+x,1/2-y,1/2+z
_cell_length_a                   12.021(6)
_cell_length_b                   15.469(7)
_cell_length_c                   15.436(7)
_cell_angle_alpha                90
_cell_angle_beta                 110.806(7)
_cell_angle_gamma                90
_cell_volume                     2683.19
_exptl_crystal_colour            colorless
_exptl_crystal_description       block
_cell_formula_units_Z            4
loop_
_atom_site_label
_atom_site_type_symbol
_atom_site_fract_x
_atom_site_fract_y
_atom_site_fract_z
N1 N 0.6251(2) 0.0725(3) 0.0789(2)
H1 H 0.6548 0.0734 0.0358
C1 C 0.6208(3) -0.0015(3) 0.1207(3)
H2 H 0.6503 -0.0517 0.1037
C2 C 0.5723(2) -0.00411(19) 0.1898(2)
H3 H 0.5700 -0.0559 0.2197
C3 C 0.5278(2) 0.07011(16) 0.21371(18)
C4 C 0.5346(2) 0.14677(19) 0.1687(2)
H4 H 0.5057 0.1982 0.1838
C5 C 0.5846(3) 0.1450(3) 0.1020(2)
H5 H 0.5903 0.1960 0.0721
C3B C 0.4722(2) 0.07011(16) 0.28629(18)
C2B C 0.4277(2) -0.00411(19) 0.3102(2)
C1B C 0.3792(3) -0.0015(3) 0.3793(3)
N1B N 0.3749(2) 0.0725(3) 0.4211(2)
H1B H 0.3452 0.0734 0.4642
C5B C 0.4154(3) 0.1450(3) 0.3980(2)
C4B C 0.4654(2) 0.14677(19) 0.3313(2)
H4B H 0.4943 0.1982 0.3162
H5B H 0.4097 0.1960 0.4279
H2B H 0.3497 -0.0517 0.3963
H3B H 0.4300 -0.0559 0.2803
O1 O -0.12334(16) -0.07119(12) 0.14442(15)
O2 O 0.02654(17) -0.15033(12) 0.14563(16)
H6 H 0.0926 -0.1437 0.1423
O3 O 0.21187(18) -0.13618(14) 0.12095(18)
O4 O 0.29340(18) -0.04145(13) 0.05565(16)
O5 O 0.27975(17) 0.27348(13) 0.16618(15)
H7 H 0.3059 0.3199 0.1562
O6 O 0.1459(2) 0.29693(18) 0.0277(2)
O7 O -0.0014(2) 0.31032(16) 0.1431(3)
O8 O -0.15531(18) 0.22841(14) 0.1184(2)
H8 H -0.1863 0.2744 0.1234
C6 C 0.0384(2) 0.00505(16) 0.12634(17)
C7 C 0.1458(2) 0.01202(17) 0.10874(18)
C8 C 0.1879(2) 0.09478(17) 0.1003(2)
C9 C 0.1306(2) 0.16898(17) 0.10856(18)
C10 C 0.0216(2) 0.16227(16) 0.12278(18)
C11 C -0.0215(2) 0.08170(17) 0.13164(18)
C12 C -0.0250(2) -0.07636(17) 0.13887(18)
C13 C 0.2216(2) -0.06008(19) 0.09267(19)
C14 C 0.1841(2) 0.25399(19) 0.0965(2)
C15 C -0.0446(2) 0.24122(18) 0.1303(2)
H9 H 0.255(2) 0.0993(16) 0.0867(17)
H10 H -0.0957(19) 0.0799(14) 0.1375(14)
loop_
_geom_bond_atom_site_label_1
_geom_bond_atom_site_label_2
_geom_bond_site_symmetry_1
_geom_bond_site_symmetry_2
N1 H1 1_555 1_555
C1 N1 1_555 1_555
H2 C1 1_555 1_555
C2 C1 1_555 1_555
H3 C2 1_555 1_555
C3 C2 1_555 1_555
C4 C3 1_555 1_555
H4 C4 1_555 1_555
C5 N1 1_555 1_555
H5 C5 1_555 1_555
O1 C12 1_555 1_555
O2 H6 1_555 1_555
O3 C13 1_555 1_555
O4 C13 1_555 1_555
O5 H7 1_555 1_555
O6 C14 1_555 1_555
O7 C15 1_555 1_555
O8 H8 1_555 1_555
C6 C7 1_555 1_555
C7 C8 1_555 1_555
C8 C9 1_555 1_555
C9 C10 1_555 1_555
C10 C11 1_555 1_555
C11 C6 1_555 1_555
C12 O2 1_555 1_555
C13 C7 1_555 1_555
C14 O5 1_555 1_555
C15 O8 1_555 1_555
H9 C8 1_555 1_555
H10 C11 1_555 1_555
C3B C3 1_555 1_555
C2B C3B 1_555 1_555
C1B C2B 1_555 1_555
N1B C1B 1_555 1_555
H1B N1B 1_555 1_555
C5B N1B 1_555 1_555
C4B C3B 1_555 1_555
H4B C4B 1_555 1_555
H5B C5B 1_555 1_555
H2B C1B 1_555 1_555
H3B C2B 1_555 1_555
C4 C5 1_555 1_555
C6 C12 1_555 1_555
C9 C14 1_555 1_555
C10 C15 1_555 1_555
C5B C4B 1_555 1_555

#END
