
#######################################################################
#
#                 Cambridge Crystallographic Data Centre
#                                CCDC 
#
#######################################################################
#
# If this CIF has been generated from an entry in the Cambridge 
# Structural Database, then it will include bibliographic, chemical, 
# crystal, experimental, refinement or atomic coordinate data resulting 
# from the CCDC's data processing and validation procedures.
#
#######################################################################

data_IRETII02
_chemical_formula_moiety         'C10 H10 N2 2+,2(C10 H5 O8 1-)'
_chemical_name_systematic        
"4,4'-Bipyridinium bis(2,4,5-tricarboxybenzene-1-carboxylate)"
_symmetry_cell_setting           monoclinic
_symmetry_space_group_name_H-M   'C c'
_symmetry_Int_Tables_number      9
_space_group_name_Hall           'C -2yc'
loop_
_symmetry_equiv_pos_site_id
_symmetry_equiv_pos_as_xyz
1 x,y,z
2 x,-y,1/2+z
3 1/2+x,1/2+y,z
4 1/2+x,1/2-y,1/2+z
_cell_length_a                   12.0090(10)
_cell_length_b                   15.4840(10)
_cell_length_c                   15.2210(10)
_cell_angle_alpha                90
_cell_angle_beta                 112.273(3)
_cell_angle_gamma                90
_cell_volume                     2619.13
_exptl_crystal_colour            yellow
_exptl_crystal_description       bar
_cell_formula_units_Z            4
loop_
_atom_site_label
_atom_site_type_symbol
_atom_site_fract_x
_atom_site_fract_y
_atom_site_fract_z
C1 C -0.02585(16) 0.01978(10) 0.32559(12)
C2 C -0.10372(16) -0.05104(11) 0.34288(12)
O1 O -0.0897(2) -0.12915(13) 0.32169(15)
O2 O -0.17851(19) -0.02952(13) 0.37614(14)
C3 C 0.08184(16) 0.01060(10) 0.30855(12)
C4 C 0.14296(17) -0.07179(11) 0.29533(12)
O3 O 0.2412(2) -0.06715(13) 0.28831(15)
O4 O 0.0895(2) -0.14538(13) 0.28821(15)
H1 H 0.0054(4) -0.1396(2) 0.2981(3)
C5 C 0.14419(16) 0.08568(10) 0.30354(12)
H2 H 0.2289(4) 0.0785(2) 0.2930(3)
C6 C 0.10133(16) 0.16827(11) 0.30958(12)
C7 C 0.16879(16) 0.24571(11) 0.29760(12)
O5 O 0.11818(19) 0.30858(13) 0.25209(14)
O6 O 0.2867(2) 0.23794(14) 0.33981(16)
H3 H 0.3259(4) 0.2928(3) 0.3298(3)
C8 C -0.00809(16) 0.17731(11) 0.32113(11)
C9 C -0.05829(16) 0.26450(11) 0.33068(12)
O7 O -0.00113(19) 0.31685(13) 0.39014(14)
O8 O -0.16931(19) 0.27591(13) 0.26897(14)
H4 H -0.2007(4) 0.3332(3) 0.2802(3)
C10 C -0.06866(17) 0.10359(11) 0.33095(12)
H5 H -0.1495(4) 0.1099(2) 0.3460(3)
C11 C 0.26194(16) -0.00288(11) 0.04469(11)
C12 C 0.33821(16) -0.07622(11) 0.03064(12)
O9 O 0.3294(2) -0.15188(13) 0.06138(15)
O10 O 0.40846(19) -0.05742(13) -0.00837(14)
C13 C 0.15475(16) -0.00837(11) 0.06262(12)
C14 C 0.08964(16) -0.08873(11) 0.07489(11)
O11 O -0.01035(19) -0.08158(13) 0.07975(15)
O12 O 0.1397(2) -0.16417(13) 0.08156(14)
H6 H 0.2270(4) -0.1603(2) 0.0773(3)
C15 C 0.09598(16) 0.06901(11) 0.06722(12)
H7 H 0.0128(4) 0.0647(2) 0.0787(3)
C16 C 0.14084(16) 0.14986(11) 0.05683(11)
C17 C 0.07055(16) 0.22953(11) 0.05574(12)
O13 O 0.10632(19) 0.30079(12) 0.04431(14)
O14 O -0.0328(2) 0.21514(13) 0.06514(15)
H8 H -0.0765(4) 0.2712(2) 0.0628(3)
C18 C 0.24940(17) 0.15523(11) 0.04274(12)
C19 C 0.30686(16) 0.23839(11) 0.02922(12)
O15 O 0.2867(2) 0.26998(13) -0.04818(14)
O16 O 0.3879(2) 0.26864(14) 0.10973(15)
H9 H 0.4288(4) 0.3208(3) 0.0967(3)
C20 C 0.30659(16) 0.07918(11) 0.03543(12)
H10 H 0.3883(4) 0.0820(3) 0.0202(3)
N1 N 0.25025(12) 0.54080(9) 0.02222(9)
H11 H 0.2875(4) 0.5340(3) -0.0296(3)
C21 C 0.21526(17) 0.61984(12) 0.03756(13)
H12 H 0.2289(4) 0.6721(3) -0.0042(3)
C22 C 0.16171(17) 0.63087(11) 0.10270(13)
H13 H 0.1330(4) 0.6956(3) 0.1117(3)
C23 C 0.14557(16) 0.55956(11) 0.15303(12)
C24 C 0.09120(15) 0.57118(11) 0.22506(12)
C25 C 0.09392(17) 0.65222(11) 0.26597(12)
H14 H 0.1351(4) 0.7080(2) 0.2481(3)
C26 C 0.04651(16) 0.66202(11) 0.33511(12)
H15 H 0.0479(4) 0.7221(3) 0.3704(3)
N2 N -0.00120(12) 0.59413(8) 0.36272(9)
H16 H -0.0331(4) 0.5995(2) 0.4179(3)
C27 C -0.00672(17) 0.51495(11) 0.32450(13)
H17 H -0.0460(4) 0.4641(3) 0.3521(3)
C28 C 0.03842(16) 0.50142(11) 0.25453(12)
H18 H 0.0347(4) 0.4369(2) 0.2263(3)
C29 C 0.18161(16) 0.47781(11) 0.13427(12)
H19 H 0.1706(4) 0.4202(2) 0.1704(3)
C30 C 0.23438(17) 0.47026(11) 0.06797(13)
H20 H 0.2626(4) 0.4089(3) 0.0495(3)
loop_
_geom_bond_atom_site_label_1
_geom_bond_atom_site_label_2
_geom_bond_site_symmetry_1
_geom_bond_site_symmetry_2
C1 C2 1_555 1_555
C2 O1 1_555 1_555
O2 C2 1_555 1_555
C3 C1 1_555 1_555
C4 C3 1_555 1_555
O3 C4 1_555 1_555
O4 C4 1_555 1_555
H1 O4 1_555 1_555
C5 C3 1_555 1_555
H2 C5 1_555 1_555
C6 C5 1_555 1_555
C7 C6 1_555 1_555
O5 C7 1_555 1_555
O6 C7 1_555 1_555
H3 O6 1_555 1_555
C8 C6 1_555 1_555
C9 C8 1_555 1_555
O7 C9 1_555 1_555
O8 C9 1_555 1_555
H4 O8 1_555 1_555
C10 C1 1_555 1_555
H5 C10 1_555 1_555
C11 C12 1_555 1_555
C12 O9 1_555 1_555
O10 C12 1_555 1_555
C13 C11 1_555 1_555
C14 C13 1_555 1_555
O11 C14 1_555 1_555
O12 C14 1_555 1_555
H6 O12 1_555 1_555
C15 C13 1_555 1_555
H7 C15 1_555 1_555
C16 C15 1_555 1_555
C17 C16 1_555 1_555
O13 C17 1_555 1_555
O14 C17 1_555 1_555
H8 O14 1_555 1_555
C18 C16 1_555 1_555
C19 C18 1_555 1_555
O15 C19 1_555 1_555
O16 C19 1_555 1_555
H9 O16 1_555 1_555
C20 C11 1_555 1_555
H10 C20 1_555 1_555
N1 H11 1_555 1_555
C21 N1 1_555 1_555
H12 C21 1_555 1_555
C22 C21 1_555 1_555
H13 C22 1_555 1_555
C23 C22 1_555 1_555
C24 C23 1_555 1_555
C25 C24 1_555 1_555
H14 C25 1_555 1_555
C26 C25 1_555 1_555
H15 C26 1_555 1_555
N2 C26 1_555 1_555
H16 N2 1_555 1_555
C27 N2 1_555 1_555
H17 C27 1_555 1_555
C28 C24 1_555 1_555
H18 C28 1_555 1_555
C29 C23 1_555 1_555
H19 C29 1_555 1_555
C30 N1 1_555 1_555
H20 C30 1_555 1_555
C8 C10 1_555 1_555
C18 C20 1_555 1_555
C27 C28 1_555 1_555
C29 C30 1_555 1_555

#END
