
#######################################################################
#
#                 Cambridge Crystallographic Data Centre
#                                CCDC 
#
#######################################################################
#
# If this CIF has been generated from an entry in the Cambridge 
# Structural Database, then it will include bibliographic, chemical, 
# crystal, experimental, refinement or atomic coordinate data resulting 
# from the CCDC's data processing and validation procedures.
#
#######################################################################

data_IRIGAS
_chemical_formula_moiety         'C21 H26 O6 Si1'
_chemical_name_systematic        
Hydrido-bis(4-ethoxy-2-formyl-5-methoxyphenyl-C,O)-methyl-silicon
_symmetry_cell_setting           monoclinic
_symmetry_space_group_name_H-M   'C 2/c'
_symmetry_Int_Tables_number      15
_space_group_name_Hall           '-C 2yn'
loop_
_symmetry_equiv_pos_site_id
_symmetry_equiv_pos_as_xyz
1 x,y,z
2 -x,y,1/2-z
3 1/2+x,1/2+y,z
4 1/2-x,1/2+y,1/2-z
5 -x,-y,-z
6 x,-y,1/2+z
7 1/2-x,1/2-y,-z
8 1/2+x,1/2-y,1/2+z
_cell_length_a                   21.420(3)
_cell_length_b                   10.3742(13)
_cell_length_c                   9.8589(12)
_cell_angle_alpha                90
_cell_angle_beta                 105.740(3)
_cell_angle_gamma                90
_cell_volume                     2108.65
_exptl_crystal_colour            colorless
_exptl_crystal_description       block
_cell_formula_units_Z            4
_exptl_crystal_recrystallization_method chloroform
loop_
_atom_site_label
_atom_site_type_symbol
_atom_site_fract_x
_atom_site_fract_y
_atom_site_fract_z
Si1 Si 1.0000 0.65607(17) 0.2500
O1 O 0.93889(15) 0.6729(3) 0.3997(3)
O2 O 0.77223(12) 0.9528(3) -0.1025(3)
O3 O 0.86331(12) 0.8948(3) -0.2150(2)
C1 C 0.93114(16) 0.7459(3) 0.1338(3)
C2 C 0.88006(17) 0.7746(3) 0.1915(4)
C3 C 0.82536(17) 0.8416(3) 0.1151(4)
H2 H 0.7917 0.8592 0.1553
C4 C 0.82140(15) 0.8815(3) -0.0202(4)
C5 C 0.87226(16) 0.8517(3) -0.0816(3)
C6 C 0.92579(16) 0.7855(3) -0.0040(3)
H3 H 0.9592 0.7667 -0.0445
C7 C 0.8861(2) 0.7351(4) 0.3376(4)
H4 H 0.8543 0.7535 0.3828
C8 C 0.72510(18) 1.0046(4) -0.0371(4)
H5 H 0.7467 1.0475 0.0505
H6 H 0.6982 0.9360 -0.0168
C9 C 0.6852(2) 1.0973(5) -0.1374(6)
H7 H 0.7115 1.1689 -0.1494
H8 H 0.6504 1.1276 -0.1014
H9 H 0.6675 1.0557 -0.2266
C10 C 0.9181(2) 0.8907(4) -0.2704(4)
H10 H 0.9539 0.9340 -0.2069
H11 H 0.9077 0.9328 -0.3605
H12 H 0.9296 0.8026 -0.2811
C11 C 1.0000 0.4852(6) 0.2500
O1A O 1.06111(15) 0.6729(3) 0.1003(3)
O2A O 1.22777(12) 0.9528(3) 0.6025(3)
O3A O 1.13669(12) 0.8948(3) 0.7150(2)
C1A C 1.06886(16) 0.7459(3) 0.3662(3)
C2A C 1.11994(17) 0.7746(3) 0.3085(4)
C3A C 1.17464(17) 0.8416(3) 0.3849(4)
H2A H 1.2083 0.8592 0.3447
C4A C 1.17860(15) 0.8815(3) 0.5202(4)
C5A C 1.12774(16) 0.8517(3) 0.5816(3)
C6A C 1.07421(16) 0.7855(3) 0.5040(3)
H3A H 1.0408 0.7667 0.5445
C7A C 1.1139(2) 0.7351(4) 0.1624(4)
H4A H 1.1457 0.7535 0.1172
C8A C 1.27490(18) 1.0046(4) 0.5371(4)
H5A H 1.2533 1.0475 0.4495
H6A H 1.3018 0.9360 0.5168
C9A C 1.3148(2) 1.0973(5) 0.6374(6)
H7A H 1.2885 1.1689 0.6494
H8A H 1.3496 1.1276 0.6014
H9A H 1.3325 1.0557 0.7266
C10A C 1.0819(2) 0.8907(4) 0.7704(4)
H10A H 1.0461 0.9340 0.7069
H11A H 1.0923 0.9328 0.8605
H12A H 1.0704 0.8026 0.7811
H1? H 1.0329 0.7267 0.1773
H13? H 1.0366 0.4544 0.2209
H14? H 0.9607 0.4544 0.1859
H15? H 1.0027 0.4544 0.3432
loop_
_geom_bond_atom_site_label_1
_geom_bond_atom_site_label_2
_geom_bond_site_symmetry_1
_geom_bond_site_symmetry_2
Si1 O1 1_555 1_555
O1 C7 1_555 1_555
O2 C4 1_555 1_555
O3 C5 1_555 1_555
C1 Si1 1_555 1_555
C2 C1 1_555 1_555
C3 C2 1_555 1_555
H2 C3 1_555 1_555
C4 C3 1_555 1_555
C5 C4 1_555 1_555
C6 C1 1_555 1_555
H3 C6 1_555 1_555
C7 C2 1_555 1_555
H4 C7 1_555 1_555
C8 O2 1_555 1_555
H5 C8 1_555 1_555
H6 C8 1_555 1_555
C9 C8 1_555 1_555
H7 C9 1_555 1_555
H8 C9 1_555 1_555
H9 C9 1_555 1_555
C10 O3 1_555 1_555
H10 C10 1_555 1_555
H11 C10 1_555 1_555
H12 C10 1_555 1_555
C11 Si1 1_555 1_555
O1A Si1 1_555 1_555
O2A C4A 1_555 1_555
O3A C5A 1_555 1_555
C1A Si1 1_555 1_555
C2A C1A 1_555 1_555
C3A C2A 1_555 1_555
H2A C3A 1_555 1_555
C4A C3A 1_555 1_555
C5A C4A 1_555 1_555
C6A C1A 1_555 1_555
H3A C6A 1_555 1_555
C7A O1A 1_555 1_555
H4A C7A 1_555 1_555
C8A O2A 1_555 1_555
H5A C8A 1_555 1_555
H6A C8A 1_555 1_555
C9A C8A 1_555 1_555
H7A C9A 1_555 1_555
H8A C9A 1_555 1_555
H9A C9A 1_555 1_555
C10A O3A 1_555 1_555
H10A C10A 1_555 1_555
H11A C10A 1_555 1_555
H12A C10A 1_555 1_555
C5 C6 1_555 1_555
C2A C7A 1_555 1_555
C5A C6A 1_555 1_555

#END
