
#######################################################################
#
#                 Cambridge Crystallographic Data Centre
#                                CCDC 
#
#######################################################################
#
# If this CIF has been generated from an entry in the Cambridge 
# Structural Database, then it will include bibliographic, chemical, 
# crystal, experimental, refinement or atomic coordinate data resulting 
# from the CCDC's data processing and validation procedures.
#
#######################################################################

data_IRIHIC
_chemical_formula_moiety         
'C36 H36 N24 O12,C20 H25 N2 O4 1+,N1 O3 1-,x(H2 O1)'
_chemical_name_systematic        
'[2]-(4-(((4-((4-carboxybenzyl)azaniumyl)butyl)azaniumyl)methyl)benzoate)-(cucurbit[6]uril)-pseudorotaxane nitrate hydrate'
_symmetry_cell_setting           monoclinic
_symmetry_space_group_name_H-M   'P 21/n'
_symmetry_Int_Tables_number      14
_space_group_name_Hall           '-P 2yn'
loop_
_symmetry_equiv_pos_site_id
_symmetry_equiv_pos_as_xyz
1 x,y,z
2 1/2-x,1/2+y,1/2-z
3 -x,-y,-z
4 1/2+x,1/2-y,1/2+z
_cell_length_a                   12.5848(3)
_cell_length_b                   22.9017(5)
_cell_length_c                   24.2719(6)
_cell_angle_alpha                90
_cell_angle_beta                 102.982(3)
_cell_angle_gamma                90
_cell_volume                     6816.68
_exptl_crystal_colour            colorless
_exptl_crystal_description       block
_cell_formula_units_Z            4
loop_
_atom_site_label
_atom_site_type_symbol
_atom_site_fract_x
_atom_site_fract_y
_atom_site_fract_z
N25 N 0.3798(4) 0.8244(2) 0.12831(18)
H37 H 0.3083 0.8321 0.1159
H38 H 0.3972 0.7956 0.1067
N26 N 0.3248(4) 0.6572(2) 0.32619(18)
H39 H 0.3274 0.6866 0.3511
H40 H 0.3924 0.6421 0.3313
C37 C 0.3999(5) 0.8043(2) 0.1875(2)
H41 H 0.3842 0.8362 0.2107
H42 H 0.4767 0.7950 0.2001
C38 C 0.2931(4) 0.6813(2) 0.2684(2)
H43 H 0.2188 0.6956 0.2621
H44 H 0.2944 0.6501 0.2415
C39 C 0.3343(5) 0.7520(2) 0.1973(2)
H45 H 0.2575 0.7621 0.1885
H46 H 0.3447 0.7208 0.1719
C40 C 0.3661(4) 0.7304(2) 0.2571(2)
H47 H 0.3623 0.7625 0.2826
H48 H 0.4410 0.7168 0.2648
O13 O 0.4050(9) 0.5343(4) 0.6069(4)
C41 C 0.4439(6) 0.8778(3) 0.1213(3)
H49 H 0.4197 0.9100 0.1414
H50 H 0.5203 0.8708 0.1383
C42 C 0.2506(5) 0.6115(3) 0.3387(2)
H51 H 0.2474 0.5798 0.3119
H52 H 0.1779 0.6277 0.3337
C43 C 0.4329(6) 0.8946(3) 0.0617(3)
C44 C 0.5319(11) 0.9087(6) 0.0468(6)
H53 H 0.5994 0.9079 0.0721
C45 C 0.5171(13) 0.9246(7) -0.0124(6)
H54 H 0.5786 0.9371 -0.0243
C46 C 0.4222(9) 0.9228(5) -0.0520(4)
C47 C 0.3347(9) 0.9147(4) -0.0341(4)
H55 H 0.2677 0.9181 -0.0595
C48 C 0.3368(9) 0.9008(5) 0.0228(4)
H56 H 0.2714 0.8957 0.0340
O14 O 0.3352(8) 0.9425(4) -0.1461(3)
O15 O 0.4096(12) 0.4502(5) 0.5574(5)
H57 H 0.4080 0.4342 0.5874
C49 C 0.4213(9) 0.9365(5) -0.1109(5)
C50 C 0.3466(8) 0.5032(5) 0.4575(4)
H58 H 0.3631 0.4636 0.4613
C51 C 0.3542(8) 0.5390(5) 0.5032(4)
C52 C 0.3252(9) 0.5973(5) 0.4990(3)
H59 H 0.3273 0.6197 0.5312
C53 C 0.2916(9) 0.6222(4) 0.4435(3)
H60 H 0.2738 0.6616 0.4393
C54 C 0.2860(5) 0.5880(3) 0.3972(2)
C55 C 0.3126(7) 0.5299(4) 0.4048(3)
H61 H 0.3075 0.5069 0.3728
O16 O 0.5033(11) 0.9330(7) -0.1300(5)
C56 C 0.3944(11) 0.5119(6) 0.5625(6)
O17 O -0.0798(6) 0.5498(3) 0.0701(3)
N27 N -0.1168(5) 0.5255(2) 0.0249(3)
O18 O -0.0961(5) 0.5423(3) -0.0184(3)
O19 O -0.1714(5) 0.4793(2) 0.0280(3)
O1 O 0.2322(3) 0.76799(15) 0.03433(15)
O2 O 0.4717(3) 0.71609(15) 0.41976(15)
O3 O 0.2043(3) 0.75438(16) 0.36698(16)
O4 O 0.3200(3) 0.94894(16) 0.22482(15)
O5 O 0.1567(3) 0.86765(15) 0.11438(15)
O6 O 0.5507(3) 0.61827(15) 0.34627(16)
O7 O 0.5773(3) 0.89965(17) 0.26238(15)
O8 O 0.1076(3) 0.59255(17) 0.19450(15)
O9 O 0.4920(3) 0.72791(17) 0.08376(17)
O10 O 0.3769(3) 0.54565(17) 0.23688(16)
N1 N 0.2952(3) 0.84212(17) 0.37209(16)
N2 N 0.1728(3) 0.60151(18) 0.11397(17)
N3 N 0.0351(3) 0.65837(17) 0.12355(16)
N4 N 0.5670(3) 0.64872(19) 0.13650(17)
O11 O -0.0039(3) 0.69544(19) 0.26353(16)
N5 N 0.6559(3) 0.83279(18) 0.33127(18)
O12 O 0.6830(4) 0.78997(18) 0.18820(17)
N6 N 0.0197(4) 0.8012(2) 0.11194(18)
N7 N 0.6434(3) 0.62497(18) 0.27430(17)
N8 N 0.6211(3) 0.76288(18) 0.39981(18)
N9 N 0.1271(3) 0.83668(18) 0.31938(17)
N10 N 0.6862(3) 0.68614(19) 0.34616(18)
N11 N 0.4832(3) 0.81645(18) 0.41136(18)
N12 N 0.0792(3) 0.72584(17) 0.05489(17)
N13 N 0.5219(3) 0.88943(18) 0.34604(18)
N14 N 0.4029(3) 0.64004(18) 0.08039(17)
N15 N 0.3367(3) 0.92603(17) 0.31916(17)
N16 N -0.0473(4) 0.73107(19) 0.17216(18)
N17 N 0.1785(3) 0.91098(19) 0.25965(17)
N18 N 0.0546(3) 0.86419(18) 0.18158(18)
N19 N 0.7310(4) 0.75788(19) 0.28059(18)
N20 N 0.2143(3) 0.66865(18) 0.04314(18)
N21 N 0.7044(3) 0.6925(2) 0.21111(19)
N22 N 0.5206(3) 0.57413(19) 0.19799(18)
N23 N 0.3579(3) 0.56432(19) 0.14123(18)
N24 N -0.0079(4) 0.7940(2) 0.24327(17)
C1 C 0.2078(4) 0.8059(2) 0.3543(2)
C2 C 0.4880(4) 0.6767(2) 0.0992(2)
C3 C 0.1048(4) 0.6147(2) 0.1487(2)
C4 C 0.0429(4) 0.6683(2) 0.06595(19)
H1 H -0.0252 0.6580 0.0393
C5 C 0.5848(4) 0.8765(2) 0.3081(2)
C6 C 0.2699(4) 0.9016(2) 0.3546(2)
H2 H 0.2681 0.9270 0.3869
C7 C 0.5582(4) 0.8589(2) 0.3990(2)
H3 H 0.5816 0.8862 0.4305
C8 C 0.1376(4) 0.6286(2) 0.0582(2)
H4 H 0.1132 0.5994 0.0286
C9 C 0.5194(4) 0.7601(2) 0.41021(19)
C10 C 0.1812(4) 0.7256(2) 0.04401(18)
C11 C 0.3771(4) 0.8291(2) 0.4229(2)
H5 H 0.3534 0.7957 0.4417
H6 H 0.3838 0.8621 0.4485
C12 C 0.6197(4) 0.6405(2) 0.3240(2)
C13 C 0.0842(4) 0.8467(2) 0.1340(2)
C14 C 0.6541(4) 0.8211(2) 0.3895(2)
H7 H 0.7230 0.8318 0.4153
C15 C 0.1567(4) 0.8970(2) 0.3139(2)
H8 H 0.1039 0.9239 0.3243
C16 C 0.2835(4) 0.9304(2) 0.2639(2)
C17 C 0.4146(4) 0.5605(2) 0.1966(2)
C18 C -0.0359(4) 0.8314(2) 0.1937(2)
H9 H -0.0986 0.8565 0.1946
C19 C 0.0929(4) 0.9188(2) 0.2096(2)
H10 H 0.1196 0.9436 0.1833
H11 H 0.0321 0.9386 0.2199
C20 C -0.0619(4) 0.7865(2) 0.1444(2)
H12 H -0.1363 0.7912 0.1217
C21 C 0.7026(4) 0.7515(2) 0.2229(2)
C22 C -0.0176(4) 0.7362(3) 0.2304(2)
C23 C 0.5389(4) 0.5879(2) 0.1431(2)
H13 H 0.5918 0.5613 0.1323
C24 C 0.0174(4) 0.7784(2) 0.0551(2)
H14 H -0.0578 0.7710 0.0361
H15 H 0.0456 0.8081 0.0337
C25 C 0.6888(4) 0.7111(2) 0.4015(2)
H16 H 0.7635 0.7211 0.4193
H17 H 0.6646 0.6817 0.4248
C26 C -0.0587(4) 0.6755(2) 0.1441(2)
H18 H -0.0728 0.6460 0.1703
H19 H -0.1215 0.6769 0.1126
C27 C 0.3166(4) 0.6522(2) 0.0309(2)
H20 H 0.3406 0.6834 0.0095
H21 H 0.3053 0.6177 0.0071
C28 C 0.7324(4) 0.6573(2) 0.2616(2)
H22 H 0.7953 0.6322 0.2615
C29 C 0.6062(4) 0.5690(2) 0.2488(2)
H23 H 0.6676 0.5486 0.2397
H24 H 0.5796 0.5455 0.2762
C30 C 0.6767(4) 0.6709(2) 0.1539(2)
H25 H 0.6862 0.7021 0.1285
H26 H 0.7272 0.6399 0.1502
C31 C 0.7457(4) 0.8148(2) 0.3067(2)
H27 H 0.7547 0.8433 0.2786
H28 H 0.8122 0.8145 0.3361
C32 C 0.7582(4) 0.7035(2) 0.3097(2)
H29 H 0.8350 0.7022 0.3297
C33 C 0.4249(4) 0.5819(2) 0.1032(2)
H30 H 0.4243 0.5529 0.0735
C34 C 0.4519(4) 0.9396(2) 0.3394(2)
H31 H 0.4738 0.9664 0.3131
H32 H 0.4618 0.9594 0.3756
C35 C 0.0167(4) 0.8140(3) 0.3002(2)
H33 H 0.0066 0.7820 0.3247
H34 H -0.0347 0.8445 0.3040
C36 C 0.2420(4) 0.5505(2) 0.1238(2)
H35 H 0.2297 0.5275 0.0894
H36 H 0.2214 0.5268 0.1528
loop_
_geom_bond_atom_site_label_1
_geom_bond_atom_site_label_2
_geom_bond_site_symmetry_1
_geom_bond_site_symmetry_2
O1 C10 1_555 1_555
O2 C9 1_555 1_555
O3 C1 1_555 1_555
O4 C16 1_555 1_555
O5 C13 1_555 1_555
O6 C12 1_555 1_555
O7 C5 1_555 1_555
O8 C3 1_555 1_555
O9 C2 1_555 1_555
O10 C17 1_555 1_555
N1 C1 1_555 1_555
N2 C3 1_555 1_555
N3 C3 1_555 1_555
N4 C2 1_555 1_555
O11 C22 1_555 1_555
N5 C5 1_555 1_555
O12 C21 1_555 1_555
N6 C13 1_555 1_555
N7 C12 1_555 1_555
N8 C9 1_555 1_555
N9 C1 1_555 1_555
N10 C12 1_555 1_555
N11 C7 1_555 1_555
N12 C4 1_555 1_555
N13 C5 1_555 1_555
N14 C2 1_555 1_555
N15 C6 1_555 1_555
N16 C20 1_555 1_555
N17 C15 1_555 1_555
N18 C13 1_555 1_555
N19 C21 1_555 1_555
N20 C8 1_555 1_555
N21 C21 1_555 1_555
N22 C17 1_555 1_555
N23 C17 1_555 1_555
N24 C18 1_555 1_555
C4 N3 1_555 1_555
H1 C4 1_555 1_555
C6 N1 1_555 1_555
H2 C6 1_555 1_555
C7 N13 1_555 1_555
H3 C7 1_555 1_555
C8 N2 1_555 1_555
H4 C8 1_555 1_555
C9 N11 1_555 1_555
C10 N12 1_555 1_555
C11 N1 1_555 1_555
H5 C11 1_555 1_555
H6 C11 1_555 1_555
C14 N5 1_555 1_555
H7 C14 1_555 1_555
C15 N9 1_555 1_555
H8 C15 1_555 1_555
C16 N15 1_555 1_555
C18 N18 1_555 1_555
H9 C18 1_555 1_555
C19 N17 1_555 1_555
H10 C19 1_555 1_555
H11 C19 1_555 1_555
C20 N6 1_555 1_555
H12 C20 1_555 1_555
C22 N16 1_555 1_555
C23 N4 1_555 1_555
H13 C23 1_555 1_555
C24 N6 1_555 1_555
H14 C24 1_555 1_555
H15 C24 1_555 1_555
C25 N8 1_555 1_555
H16 C25 1_555 1_555
H17 C25 1_555 1_555
C26 N3 1_555 1_555
H18 C26 1_555 1_555
H19 C26 1_555 1_555
C27 N14 1_555 1_555
H20 C27 1_555 1_555
H21 C27 1_555 1_555
C28 N7 1_555 1_555
H22 C28 1_555 1_555
C29 N7 1_555 1_555
H23 C29 1_555 1_555
H24 C29 1_555 1_555
C30 N4 1_555 1_555
H25 C30 1_555 1_555
H26 C30 1_555 1_555
C31 N5 1_555 1_555
H27 C31 1_555 1_555
H28 C31 1_555 1_555
C32 N10 1_555 1_555
H29 C32 1_555 1_555
C33 N14 1_555 1_555
H30 C33 1_555 1_555
C34 N13 1_555 1_555
H31 C34 1_555 1_555
H32 C34 1_555 1_555
C35 N9 1_555 1_555
H33 C35 1_555 1_555
H34 C35 1_555 1_555
C36 N2 1_555 1_555
H35 C36 1_555 1_555
H36 C36 1_555 1_555
N25 H37 1_555 1_555
H38 N25 1_555 1_555
N26 H39 1_555 1_555
H40 N26 1_555 1_555
C37 N25 1_555 1_555
H41 C37 1_555 1_555
H42 C37 1_555 1_555
C38 N26 1_555 1_555
H43 C38 1_555 1_555
H44 C38 1_555 1_555
C39 C37 1_555 1_555
H45 C39 1_555 1_555
H46 C39 1_555 1_555
C40 C38 1_555 1_555
H47 C40 1_555 1_555
H48 C40 1_555 1_555
O13 C56 1_555 1_555
C41 N25 1_555 1_555
H49 C41 1_555 1_555
H50 C41 1_555 1_555
C42 N26 1_555 1_555
H51 C42 1_555 1_555
H52 C42 1_555 1_555
C43 C41 1_555 1_555
C44 C43 1_555 1_555
H53 C44 1_555 1_555
C45 C44 1_555 1_555
H54 C45 1_555 1_555
C46 C45 1_555 1_555
C47 C46 1_555 1_555
H55 C47 1_555 1_555
C48 C43 1_555 1_555
H56 C48 1_555 1_555
O14 C49 1_555 1_555
O15 H57 1_555 1_555
C49 C46 1_555 1_555
C50 H58 1_555 1_555
C51 C50 1_555 1_555
C52 C51 1_555 1_555
H59 C52 1_555 1_555
C53 C52 1_555 1_555
H60 C53 1_555 1_555
C54 C42 1_555 1_555
C55 C50 1_555 1_555
H61 C55 1_555 1_555
O16 C49 1_555 1_555
C56 O15 1_555 1_555
O17 N27 1_555 1_555
N27 O18 1_555 1_555
O19 N27 1_555 1_555
N8 C14 1_555 1_555
N10 C25 1_555 1_555
N11 C11 1_555 1_555
N12 C24 1_555 1_555
N15 C34 1_555 1_555
N16 C26 1_555 1_555
N17 C16 1_555 1_555
N18 C19 1_555 1_555
N19 C31 1_555 1_555
N19 C32 1_555 1_555
N20 C10 1_555 1_555
N20 C27 1_555 1_555
N21 C28 1_555 1_555
N21 C30 1_555 1_555
N22 C23 1_555 1_555
N22 C29 1_555 1_555
N23 C33 1_555 1_555
N23 C36 1_555 1_555
N24 C22 1_555 1_555
N24 C35 1_555 1_555
C4 C8 1_555 1_555
C6 C15 1_555 1_555
C7 C14 1_555 1_555
C18 C20 1_555 1_555
C23 C33 1_555 1_555
C28 C32 1_555 1_555
C39 C40 1_555 1_555
C47 C48 1_555 1_555
C51 C56 1_555 1_555
C53 C54 1_555 1_555
C54 C55 1_555 1_555

#END
