
#######################################################################
#
#                 Cambridge Crystallographic Data Centre
#                                CCDC 
#
#######################################################################
#
# If this CIF has been generated from an entry in the Cambridge 
# Structural Database, then it will include bibliographic, chemical, 
# crystal, experimental, refinement or atomic coordinate data resulting 
# from the CCDC's data processing and validation procedures.
#
#######################################################################

data_IRIHUO
_chemical_formula_moiety         
'C36 H36 N24 O12,C20 H24 N4 2+,x(H2 O1),O4 S1 2-'
_chemical_name_systematic        
"[2]-(N,N'-bis(4-cyanobenzyl)butane-1,4-diaminium)-(cucurbit[6]uril)-pseudorotaxane sulfate hydrate"
_symmetry_cell_setting           monoclinic
_symmetry_space_group_name_H-M   'C 2/c'
_symmetry_Int_Tables_number      15
_space_group_name_Hall           '-C 2yn'
loop_
_symmetry_equiv_pos_site_id
_symmetry_equiv_pos_as_xyz
1 x,y,z
2 -x,y,1/2-z
3 1/2+x,1/2+y,z
4 1/2-x,1/2+y,1/2-z
5 -x,-y,-z
6 x,-y,1/2+z
7 1/2-x,1/2-y,-z
8 1/2+x,1/2-y,1/2+z
_cell_length_a                   27.391(6)
_cell_length_b                   20.230(4)
_cell_length_c                   13.282(3)
_cell_angle_alpha                90
_cell_angle_beta                 116.53(3)
_cell_angle_gamma                90
_cell_volume                     6584.84
_exptl_crystal_colour            colorless
_exptl_crystal_description       block
_cell_formula_units_Z            4
loop_
_atom_site_label
_atom_site_type_symbol
_atom_site_fract_x
_atom_site_fract_y
_atom_site_fract_z
C19 C 0.7843(2) 0.6699(3) 0.5788(5)
H19 H 0.7543 0.6548 0.5928
H20 H 0.7832 0.6454 0.5151
C20 C 0.7774(3) 0.7427(3) 0.5507(5)
H21 H 0.8068 0.7574 0.5344
H22 H 0.7797 0.7673 0.6154
C21 C 0.8953(2) 0.5780(3) 0.8230(5)
C22 C 1.0341(3) 0.5871(4) 1.1365(7)
C23 C 0.9475(3) 0.5862(3) 0.8281(6)
H23 H 0.9514 0.5904 0.7624
C24 C 0.9922(3) 0.5878(3) 0.9305(6)
H24 H 1.0267 0.5928 0.9341
C25 C 0.8452(3) 0.5848(3) 0.7105(5)
H25 H 0.8503 0.5601 0.6533
H26 H 0.8134 0.5674 0.7158
C26 C 0.9868(3) 0.5821(3) 1.0297(6)
C27 C 0.8902(3) 0.5703(3) 0.9205(6)
H27 H 0.8559 0.5631 0.9167
C28 C 0.9347(3) 0.5731(4) 1.0226(6)
H28 H 0.9305 0.5689 1.0881
N13 N 0.8369(2) 0.6562(2) 0.6798(4)
H29 H 0.8379 0.6794 0.7385
H30 H 0.8646 0.6704 0.6664
N14 N 1.0728(3) 0.5901(3) 1.2203(6)
C19F C 0.7157(2) 0.8301(3) 0.4212(5)
H19F H 0.7457 0.8452 0.4072
H20F H 0.7168 0.8546 0.4849
C20F C 0.7226(3) 0.7573(3) 0.4493(5)
H21F H 0.6932 0.7426 0.4656
H22F H 0.7203 0.7327 0.3846
C21F C 0.6047(2) 0.9220(3) 0.1770(5)
C22F C 0.4659(3) 0.9129(4) -0.1365(7)
C23F C 0.5525(3) 0.9138(3) 0.1719(6)
H23F H 0.5486 0.9096 0.2376
C24F C 0.5078(3) 0.9122(3) 0.0695(6)
H24F H 0.4733 0.9072 0.0659
C25F C 0.6548(3) 0.9152(3) 0.2895(5)
H25F H 0.6497 0.9399 0.3467
H26F H 0.6866 0.9326 0.2842
C26F C 0.5132(3) 0.9179(3) -0.0297(6)
C27F C 0.6098(3) 0.9297(3) 0.0795(6)
H27F H 0.6441 0.9369 0.0833
C28F C 0.5653(3) 0.9269(4) -0.0226(6)
H28F H 0.5695 0.9311 -0.0881
N13F N 0.6631(2) 0.8438(2) 0.3202(4)
H29F H 0.6621 0.8206 0.2615
H30F H 0.6354 0.8296 0.3336
N14F N 0.4272(3) 0.9099(3) -0.2203(6)
O7 O 0.7078(2) 0.8981(2) 0.9824(4)
S1 S 0.49960(13) 0.56639(18) 0.6429(3)
O8 O 0.52981(19) 0.5194(3) 0.6109(4)
O9 O 0.5076(3) 0.6458(6) 0.6127(5)
O10 O 0.5244(3) 0.5614(5) 0.7708(7)
O11 O 0.4419(3) 0.5523(4) 0.5950(7)
S1A S 0.50040(13) 0.56639(18) 0.8571(3)
O8A O 0.47019(19) 0.5194(3) 0.8891(4)
O9A O 0.4924(3) 0.6458(6) 0.8873(5)
O10A O 0.4756(3) 0.5614(5) 0.7292(7)
O11A O 0.5581(3) 0.5523(4) 0.9050(7)
O12 O 0.6274(2) 0.6401(3) 0.8965(4)
O13 O 0.6019(3) 0.7798(4) 0.9103(5)
O1 O 0.75326(15) 0.65548(18) 0.8000(3)
O2 O 0.73014(15) 0.97641(18) 0.5745(3)
O3 O 0.56667(15) 0.76111(18) 0.2725(3)
O4 O 0.70267(16) 0.54068(17) 0.5735(3)
N1 N 0.81711(18) 0.9578(2) 0.7191(4)
N2 N 0.74489(18) 0.9199(2) 0.7370(4)
O5 O 0.61688(15) 0.86501(18) 0.4875(3)
N3 N 0.79788(18) 0.8272(2) 0.8502(3)
N4 N 0.71894(17) 0.7580(2) 0.8174(4)
N5 N 0.60241(17) 0.7733(2) 0.5760(3)
N6 N 0.63496(18) 0.5636(2) 0.3935(4)
N7 N 0.92770(18) 0.8532(2) 0.7314(4)
C1 C 0.6594(2) 0.5664(2) 0.5101(4)
N8 N 0.66937(18) 0.8430(2) 0.6783(4)
N9 N 0.66315(18) 0.6863(2) 0.6914(4)
C2 C 0.7912(2) 0.8980(3) 0.8413(4)
H1 H 0.7902 0.9173 0.9081
N10 N 0.62670(17) 0.6037(2) 0.5416(4)
N11 N 0.57276(17) 0.6944(2) 0.4204(4)
C3 C 0.7150(2) 0.6956(3) 0.7709(4)
C4 C 0.6412(2) 0.6191(3) 0.6571(4)
H2 H 0.6681 0.5874 0.7049
H3 H 0.6091 0.6140 0.6696
C5 C 0.7701(2) 0.7855(3) 0.8984(4)
H4 H 0.7942 0.7495 0.9391
H5 H 0.7633 0.8115 0.9523
C6 C 0.9242(2) 0.8581(3) 0.8370(4)
H6 H 0.9427 0.8204 0.8836
H7 H 0.9434 0.8976 0.8762
C7 C 0.6282(2) 0.8300(3) 0.5717(5)
C8 C 0.8445(2) 0.8070(3) 0.8463(4)
C9 C 0.5566(2) 0.7445(3) 0.4773(5)
H8 H 0.5310 0.7252 0.5011
H9 H 0.5378 0.7796 0.4243
C10 C 0.6689(2) 0.7950(2) 0.7599(4)
H10 H 0.6572 0.8151 0.8129
C11 C 0.7613(2) 0.9539(2) 0.6668(5)
C12 C 0.8485(2) 0.9858(2) 0.6653(5)
H11 H 0.8808 1.0071 0.7221
H12 H 0.8267 1.0194 0.6121
C13 C 0.5762(2) 0.6238(3) 0.4465(4)
H13 H 0.5441 0.6085 0.4545
C14 C 0.8413(2) 0.9224(2) 0.8262(4)
H14 H 0.8650 0.9512 0.8882
C15 C 0.6886(2) 0.9110(3) 0.7111(5)
H15 H 0.6665 0.9406 0.6502
H16 H 0.6834 0.9230 0.7763
C16 C 0.6276(2) 0.7419(3) 0.6846(4)
H17 H 0.6009 0.7302 0.7120
O6 O 0.86235(15) 0.74977(18) 0.8609(3)
C17 C 0.5796(2) 0.5911(2) 0.3440(4)
H18 H 0.5517 0.5570 0.3088
C18 C 0.5703(2) 0.7068(3) 0.3166(4)
N12 N 0.86892(17) 0.8605(2) 0.8239(4)
O1F O 0.74674(15) 0.84452(18) 0.2000(3)
O2F O 0.76986(15) 0.52359(18) 0.4255(3)
O3F O 0.93333(15) 0.73889(18) 0.7275(3)
O4F O 0.79733(16) 0.95932(17) 0.4265(3)
N1F N 0.68289(18) 0.5422(2) 0.2809(4)
N2F N 0.75511(18) 0.5801(2) 0.2630(4)
O5F O 0.88312(15) 0.63499(18) 0.5125(3)
N3F N 0.70212(18) 0.6728(2) 0.1498(3)
N4F N 0.78106(17) 0.7420(2) 0.1826(4)
N5F N 0.89759(17) 0.7267(2) 0.4240(3)
N6F N 0.86504(18) 0.9364(2) 0.6065(4)
N7F N 0.57230(18) 0.6468(2) 0.2686(4)
C1F C 0.8406(2) 0.9336(2) 0.4899(4)
N8F N 0.83063(18) 0.6570(2) 0.3217(4)
N9F N 0.83685(18) 0.8137(2) 0.3086(4)
C2F C 0.7088(2) 0.6020(3) 0.1587(4)
H1F H 0.7098 0.5827 0.0919
N10F N 0.87330(17) 0.8963(2) 0.4584(4)
N11F N 0.92724(17) 0.8056(2) 0.5796(4)
C3F C 0.7850(2) 0.8044(3) 0.2291(4)
C4F C 0.8588(2) 0.8809(3) 0.3429(4)
H2F H 0.8319 0.9126 0.2951
H3F H 0.8909 0.8860 0.3304
C5F C 0.7299(2) 0.7145(3) 0.1016(4)
H4F H 0.7058 0.7505 0.0609
H5F H 0.7367 0.6885 0.0477
C6F C 0.5758(2) 0.6419(3) 0.1630(4)
H6F H 0.5573 0.6796 0.1164
H7F H 0.5566 0.6024 0.1238
C7F C 0.8718(2) 0.6700(3) 0.4283(5)
C8F C 0.6555(2) 0.6930(3) 0.1537(4)
C9F C 0.9434(2) 0.7555(3) 0.5227(5)
H8F H 0.9690 0.7748 0.4989
H9F H 0.9622 0.7204 0.5757
C10F C 0.8311(2) 0.7050(2) 0.2401(4)
H10F H 0.8428 0.6849 0.1871
C11F C 0.7387(2) 0.5461(2) 0.3332(5)
C12F C 0.6515(2) 0.5142(2) 0.3347(5)
H11F H 0.6192 0.4929 0.2779
H12F H 0.6733 0.4806 0.3879
C13F C 0.9238(2) 0.8762(3) 0.5535(4)
H13F H 0.9559 0.8915 0.5455
C14F C 0.6587(2) 0.5776(2) 0.1738(4)
H14F H 0.6350 0.5488 0.1118
C15F C 0.8114(2) 0.5890(3) 0.2889(5)
H15F H 0.8335 0.5594 0.3498
H16F H 0.8166 0.5770 0.2237
C16F C 0.8724(2) 0.7581(3) 0.3154(4)
H17F H 0.8991 0.7698 0.2880
O6F O 0.63765(15) 0.75023(18) 0.1391(3)
C17F C 0.9204(2) 0.9089(2) 0.6560(4)
H18F H 0.9483 0.9430 0.6912
C18F C 0.9297(2) 0.7932(3) 0.6834(4)
N12F N 0.63108(17) 0.6395(2) 0.1761(4)
loop_
_geom_bond_atom_site_label_1
_geom_bond_atom_site_label_2
_geom_bond_site_symmetry_1
_geom_bond_site_symmetry_2
O1 C3 1_555 1_555
O2 C11 1_555 1_555
O3 C18 1_555 1_555
O4 C1 1_555 1_555
N1 C11 1_555 1_555
N2 C2 1_555 1_555
O5 C7 1_555 1_555
N3 C2 1_555 1_555
N4 C3 1_555 1_555
N5 C7 1_555 1_555
N6 C1 1_555 1_555
N7 C6 1_555 1_555
C1 N10 1_555 1_555
N8 C7 1_555 1_555
N9 C3 1_555 1_555
C2 H1 1_555 1_555
N10 C4 1_555 1_555
N11 C9 1_555 1_555
C4 N9 1_555 1_555
H2 C4 1_555 1_555
H3 C4 1_555 1_555
C5 N3 1_555 1_555
H4 C5 1_555 1_555
H5 C5 1_555 1_555
C6 H6 1_555 1_555
H7 C6 1_555 1_555
C8 N3 1_555 1_555
C9 N5 1_555 1_555
H8 C9 1_555 1_555
H9 C9 1_555 1_555
C10 N4 1_555 1_555
H10 C10 1_555 1_555
C11 N2 1_555 1_555
C12 N1 1_555 1_555
H11 C12 1_555 1_555
H12 C12 1_555 1_555
C13 N10 1_555 1_555
H13 C13 1_555 1_555
C14 N1 1_555 1_555
H14 C14 1_555 1_555
C15 N2 1_555 1_555
H15 C15 1_555 1_555
H16 C15 1_555 1_555
C16 N5 1_555 1_555
H17 C16 1_555 1_555
O6 C8 1_555 1_555
C17 N6 1_555 1_555
H18 C17 1_555 1_555
C18 N11 1_555 1_555
N12 C6 1_555 1_555
C19 H19 1_555 1_555
H20 C19 1_555 1_555
C20 C19 1_555 1_555
H21 C20 1_555 1_555
H22 C20 1_555 1_555
C21 C23 1_555 1_555
C22 C26 1_555 1_555
C23 H23 1_555 1_555
C24 C23 1_555 1_555
H24 C24 1_555 1_555
C25 C21 1_555 1_555
H25 C25 1_555 1_555
H26 C25 1_555 1_555
C26 C24 1_555 1_555
C27 C21 1_555 1_555
H27 C27 1_555 1_555
C28 C26 1_555 1_555
H28 C28 1_555 1_555
N13 C19 1_555 1_555
H29 N13 1_555 1_555
H30 N13 1_555 1_555
N14 C22 1_555 1_555
S1 O8 1_555 1_555
O9 S1 1_555 1_555
O10 S1 1_555 1_555
O11 S1 1_555 1_555
O1F C3F 1_555 1_555
O2F C11F 1_555 1_555
O3F C18F 1_555 1_555
O4F C1F 1_555 1_555
N1F C11F 1_555 1_555
N2F C2F 1_555 1_555
O5F C7F 1_555 1_555
N3F C2F 1_555 1_555
N4F C3F 1_555 1_555
N5F C7F 1_555 1_555
N6F C12 1_555 1_555
N7F C17 1_555 1_555
C1F N6F 1_555 1_555
N8F C7F 1_555 1_555
N9F C3F 1_555 1_555
C2F H1F 1_555 1_555
N10F C1F 1_555 1_555
N11F C9F 1_555 1_555
C4F N9F 1_555 1_555
H2F C4F 1_555 1_555
H3F C4F 1_555 1_555
C5F N3F 1_555 1_555
H4F C5F 1_555 1_555
H5F C5F 1_555 1_555
C6F N7F 1_555 1_555
H6F C6F 1_555 1_555
H7F C6F 1_555 1_555
C8F N3F 1_555 1_555
C9F N5F 1_555 1_555
H8F C9F 1_555 1_555
H9F C9F 1_555 1_555
C10F N4F 1_555 1_555
H10F C10F 1_555 1_555
C11F N2F 1_555 1_555
C12F N6 1_555 1_555
H11F C12F 1_555 1_555
H12F C12F 1_555 1_555
C13F N10F 1_555 1_555
H13F C13F 1_555 1_555
C14F N1F 1_555 1_555
H14F C14F 1_555 1_555
C15F N2F 1_555 1_555
H15F C15F 1_555 1_555
H16F C15F 1_555 1_555
C16F N5F 1_555 1_555
H17F C16F 1_555 1_555
O6F C8F 1_555 1_555
C17F N7 1_555 1_555
H18F C17F 1_555 1_555
C18F N7 1_555 1_555
N12F C6F 1_555 1_555
C19F H19F 1_555 1_555
H20F C19F 1_555 1_555
C20F C20 1_555 1_555
H21F C20F 1_555 1_555
H22F C20F 1_555 1_555
C21F C23F 1_555 1_555
C22F C26F 1_555 1_555
C23F H23F 1_555 1_555
C24F C23F 1_555 1_555
H24F C24F 1_555 1_555
C25F C21F 1_555 1_555
H25F C25F 1_555 1_555
H26F C25F 1_555 1_555
C26F C24F 1_555 1_555
C27F C21F 1_555 1_555
H27F C27F 1_555 1_555
C28F C26F 1_555 1_555
H28F C28F 1_555 1_555
N13F C19F 1_555 1_555
H29F N13F 1_555 1_555
H30F N13F 1_555 1_555
N14F C22F 1_555 1_555
S1A O10 1_555 1_555
O8A S1A 1_555 1_555
O9A S1A 1_555 1_555
O10A S1 1_555 1_555
O11A S1A 1_555 1_555
N4 C5 1_555 1_555
N8 C10 1_555 1_555
N8 C15 1_555 1_555
N9 C16 1_555 1_555
C2 C14 1_555 1_555
N11 C13 1_555 1_555
C8 N12 1_555 1_555
C10 C16 1_555 1_555
C13 C17 1_555 1_555
C14 N12 1_555 1_555
C18 N7F 1_555 1_555
C25 N13 1_555 1_555
C27 C28 1_555 1_555
N1F C12F 1_555 1_555
N4F C5F 1_555 1_555
N6F C17F 1_555 1_555
N8F C10F 1_555 1_555
N8F C15F 1_555 1_555
N9F C16F 1_555 1_555
C2F C14F 1_555 1_555
N10F C4F 1_555 1_555
N11F C13F 1_555 1_555
N11F C18F 1_555 1_555
C8F N12F 1_555 1_555
C10F C16F 1_555 1_555
C13F C17F 1_555 1_555
C14F N12F 1_555 1_555
C19F C20F 1_555 1_555
C25F N13F 1_555 1_555
C27F C28F 1_555 1_555
S1A O10A 1_555 1_555

#END
