
#######################################################################
#
#                 Cambridge Crystallographic Data Centre
#                                CCDC 
#
#######################################################################
#
# If this CIF has been generated from an entry in the Cambridge 
# Structural Database, then it will include bibliographic, chemical, 
# crystal, experimental, refinement or atomic coordinate data resulting 
# from the CCDC's data processing and validation procedures.
#
#######################################################################

data_IRIJEZ
_chemical_name_common            
(2aS,5S,6aR,8aS,8bR)-Hexahydro-5-phenoxy-8b-propyl-4H-1,3,8-trioxa-3a-azadicyclopenta[a,gh]pentalen-2(2aH)-one
_chemical_formula_moiety         'C18 H21 N1 O5'
_chemical_name_systematic        
(1R,4S,7S,11S,13R)-11-Phenoxy-13-propyl-3,5,8-trioxa-9-azatetracyclo[5,5,1.0^1,9^.0^4,13^]tridecan-6-one
_symmetry_cell_setting           orthorhombic
_symmetry_space_group_name_H-M   'P 21 21 21'
_symmetry_Int_Tables_number      19
_space_group_name_Hall           'P 2ac 2ab'
loop_
_symmetry_equiv_pos_site_id
_symmetry_equiv_pos_as_xyz
1 x,y,z
2 1/2-x,-y,1/2+z
3 -x,1/2+y,1/2-z
4 1/2+x,1/2-y,-z
_cell_length_a                   9.5465(2)
_cell_length_b                   12.3280(4)
_cell_length_c                   14.2587(3)
_cell_angle_alpha                90
_cell_angle_beta                 90
_cell_angle_gamma                90
_cell_volume                     1678.1
_exptl_crystal_colour            colorless
_chemical_melting_point          '164-165 deg.C'
_cell_formula_units_Z            4
loop_
_atom_site_label
_atom_site_type_symbol
_atom_site_fract_x
_atom_site_fract_y
_atom_site_fract_z
O1 O 0.7989(2) 0.83697(12) 0.04360(15)
O2 O 0.9563(4) 1.0140(2) 0.0854(3)
O3 O 1.0435(3) 0.9200(2) 0.2132(2)
O4 O 1.1127(2) 0.7660(2) 0.2326(2)
O5 O 0.9246(2) 0.54329(15) -0.0082(2)
N1 N 0.9229(2) 0.77514(15) 0.03717(17)
C1 C 0.8208(3) 0.8768(2) 0.1464(2)
H1 H 0.7395 0.9186 0.1679
C2 C 0.9448(4) 0.9455(3) 0.1422(3)
C3 C 1.0118(3) 0.8321(3) 0.2632(2)
H2 H 1.0114 0.8435 0.3312
C4 C 1.0509(3) 0.6885(3) 0.1766(3)
H3 H 1.0420 0.6218 0.2122
H4 H 1.1119 0.6741 0.1237
C5 C 0.9067(3) 0.7208(2) 0.1399(2)
C6 C 0.8007(3) 0.6437(2) 0.1118(3)
H5 H 0.7078 0.6730 0.1224
H6 H 0.8101 0.5767 0.1469
C7 C 0.8286(3) 0.6213(2) -0.0063(3)
H7 H 0.7425 0.5997 -0.0386
C8 C 0.8965(4) 0.70984(19) -0.0523(2)
H8 H 0.8355 0.7472 -0.0960
H9 H 0.9825 0.6884 -0.0834
C9 C 0.8680(3) 0.7983(2) 0.2215(2)
C10 C 0.7653(3) 0.7764(3) 0.3131(3)
H10 H 0.7451 0.8463 0.3412
H11 H 0.6773 0.7480 0.2896
C11 C 0.8140(5) 0.7017(4) 0.3909(3)
H12 H 0.9100 0.7207 0.4058
H13 H 0.8151 0.6284 0.3662
C12 C 0.7226(6) 0.6997(4) 0.4923(4)
H14 H 0.7662 0.6503 0.5354
H15 H 0.6284 0.6766 0.4801
H16 H 0.7214 0.7712 0.5191
C13 C 0.9683(3) 0.5109(2) -0.1067(3)
C14 C 0.9198(4) 0.5428(2) -0.2064(3)
H17 H 0.8448 0.5908 -0.2090
C15 C 0.9777(4) 0.5064(3) -0.3018(3)
H18 H 0.9414 0.5311 -0.3584
C16 C 1.0800(5) 0.4394(3) -0.2972(4)
H19 H 1.1239 0.4121 -0.3504
C17 C 1.1248(4) 0.4074(3) -0.1977(5)
H20 H 1.1973 0.3572 -0.1953
C18 C 1.0724(4) 0.4428(2) -0.1047(4)
H21 H 1.1113 0.4181 -0.0489
loop_
_geom_bond_atom_site_label_1
_geom_bond_atom_site_label_2
_geom_bond_site_symmetry_1
_geom_bond_site_symmetry_2
O1 N1 1_555 1_555
O2 C2 1_555 1_555
O3 C2 1_555 1_555
O4 C3 1_555 1_555
O5 C7 1_555 1_555
N1 C5 1_555 1_555
C1 O1 1_555 1_555
H1 C1 1_555 1_555
C2 C1 1_555 1_555
C3 O3 1_555 1_555
H2 C3 1_555 1_555
C4 O4 1_555 1_555
H3 C4 1_555 1_555
H4 C4 1_555 1_555
C5 C4 1_555 1_555
C6 C5 1_555 1_555
H5 C6 1_555 1_555
H6 C6 1_555 1_555
C7 C6 1_555 1_555
H7 C7 1_555 1_555
C8 N1 1_555 1_555
H8 C8 1_555 1_555
H9 C8 1_555 1_555
C9 C1 1_555 1_555
C10 C9 1_555 1_555
H10 C10 1_555 1_555
H11 C10 1_555 1_555
C11 C10 1_555 1_555
H12 C11 1_555 1_555
H13 C11 1_555 1_555
C12 C11 1_555 1_555
H14 C12 1_555 1_555
H15 C12 1_555 1_555
H16 C12 1_555 1_555
C13 O5 1_555 1_555
C14 C13 1_555 1_555
H17 C14 1_555 1_555
C15 C14 1_555 1_555
H18 C15 1_555 1_555
C16 C15 1_555 1_555
H19 C16 1_555 1_555
C17 C16 1_555 1_555
H20 C17 1_555 1_555
C18 C13 1_555 1_555
H21 C18 1_555 1_555
C3 C9 1_555 1_555
C5 C9 1_555 1_555
C7 C8 1_555 1_555
C17 C18 1_555 1_555

#END
