
#######################################################################
#
#                 Cambridge Crystallographic Data Centre
#                                CCDC 
#
#######################################################################
#
# If this CIF has been generated from an entry in the Cambridge 
# Structural Database, then it will include bibliographic, chemical, 
# crystal, experimental, refinement or atomic coordinate data resulting 
# from the CCDC's data processing and validation procedures.
#
#######################################################################

data_IRIKUQ
_chemical_compound_source        'rhizomes of Dioscorea bulbifera'
_chemical_name_common            'Diosbulbin M'
_chemical_formula_moiety         'C19 H20 O7'
_chemical_name_systematic        
8-(3-Furyl)-2-hydroxy-10-methyl-7,14-dioxatetracyclo[11.2.1.0^2,11^.0^5,10^]hexadecane-3,6,15-trione
_chemical_properties_biological  
'no in vitro anti-cancer or anti-bacterial activities'
_symmetry_cell_setting           monoclinic
_symmetry_space_group_name_H-M   'P 21'
_symmetry_Int_Tables_number      4
_space_group_name_Hall           'P 2yb'
loop_
_symmetry_equiv_pos_site_id
_symmetry_equiv_pos_as_xyz
1 x,y,z
2 -x,1/2+y,-z
_cell_length_a                   11.0648(17)
_cell_length_b                   6.8967(11)
_cell_length_c                   11.4490(18)
_cell_angle_alpha                90
_cell_angle_beta                 113.592(3)
_cell_angle_gamma                90
_cell_volume                     800.657
_exptl_crystal_colour            colorless
_exptl_crystal_description       prismatic
_cell_formula_units_Z            2
loop_
_atom_site_label
_atom_site_type_symbol
_atom_site_fract_x
_atom_site_fract_y
_atom_site_fract_z
O1 O 0.83729(18) 0.9591(3) 0.09784(18)
O2 O 1.0102(2) 0.6986(4) -0.0055(2)
O3 O 1.0796(2) 0.9845(4) 0.3581(2)
O4 O 0.89843(18) 0.9606(3) 0.38900(17)
O5 O 0.6550(2) 0.9447(4) 0.6063(2)
O6 O 0.5681(2) 1.0270(5) -0.1479(2)
O7 O 0.5302(2) 0.7111(4) -0.14221(19)
C1 C 0.6694(3) 0.4812(5) 0.0164(3)
H1 H 0.7289 0.3725 0.0285
H2 H 0.6003 0.4406 0.0429
C2 C 0.6087(3) 0.5340(6) -0.1228(3)
H3 H 0.5554 0.4270 -0.1741
C3 C 0.7147(3) 0.5906(5) -0.1668(3)
H4 H 0.6820 0.5965 -0.2590
H5 H 0.7900 0.5041 -0.1339
C4 C 0.7465(3) 0.7914(5) -0.1061(2)
H6 H 0.7933 0.8726 -0.1448
C5 C 0.8216(2) 0.7735(4) 0.0391(2)
C6 C 0.9626(3) 0.7016(5) 0.0728(3)
C7 C 1.0387(3) 0.6484(5) 0.2076(3)
H7 H 1.1205 0.7214 0.2392
H8 H 1.0614 0.5120 0.2115
C8 C 0.9685(3) 0.6839(5) 0.2965(2)
H9 H 1.0181 0.6064 0.3724
C9 C 0.8289(3) 0.5948(4) 0.2436(2)
C10 C 0.7460(2) 0.6515(4) 0.1007(2)
H10 H 0.6775 0.7387 0.1040
C11 C 0.7616(3) 0.6666(5) 0.3291(3)
H11 H 0.6705 0.6237 0.2935
H12 H 0.8046 0.6076 0.4125
C12 C 0.7643(3) 0.8827(5) 0.3446(2)
H13 H 0.7110 0.9413 0.2619
C13 C 0.7110(3) 0.9477(5) 0.4400(2)
C14 C 0.6492(3) 1.1257(6) 0.4448(3)
H14 H 0.6337 1.2292 0.3886
C15 C 0.6177(3) 1.1163(7) 0.5457(3)
H15 H 0.5758 1.2146 0.5708
C16 C 0.7130(3) 0.8463(6) 0.5399(3)
H16 H 0.7496 0.7232 0.5614
C17 C 0.9845(3) 0.8900(5) 0.3444(2)
C18 C 0.6090(3) 0.8651(6) -0.1342(3)
C19 C 0.8460(4) 0.3754(5) 0.2621(3)
H17 H 0.7609 0.3146 0.2327
H18 H 0.8942 0.3471 0.3509
H19 H 0.8937 0.3266 0.2144
H20 H 0.882(3) 1.032(5) 0.072(3)
loop_
_geom_bond_atom_site_label_1
_geom_bond_atom_site_label_2
_geom_bond_site_symmetry_1
_geom_bond_site_symmetry_2
O1 C5 1_555 1_555
O2 C6 1_555 1_555
O3 C17 1_555 1_555
O4 C12 1_555 1_555
O5 C15 1_555 1_555
O6 C18 1_555 1_555
O7 C2 1_555 1_555
C1 H1 1_555 1_555
H2 C1 1_555 1_555
C2 C1 1_555 1_555
H3 C2 1_555 1_555
C3 C2 1_555 1_555
H4 C3 1_555 1_555
H5 C3 1_555 1_555
C4 C3 1_555 1_555
H6 C4 1_555 1_555
C5 C4 1_555 1_555
C6 C5 1_555 1_555
C7 C6 1_555 1_555
H7 C7 1_555 1_555
H8 C7 1_555 1_555
C8 C7 1_555 1_555
H9 C8 1_555 1_555
C9 C8 1_555 1_555
C10 C1 1_555 1_555
H10 C10 1_555 1_555
C11 C9 1_555 1_555
H11 C11 1_555 1_555
H12 C11 1_555 1_555
C12 C11 1_555 1_555
H13 C12 1_555 1_555
C13 C12 1_555 1_555
C14 C13 1_555 1_555
H14 C14 1_555 1_555
C15 C14 1_555 1_555
H15 C15 1_555 1_555
C16 O5 1_555 1_555
H16 C16 1_555 1_555
C17 O4 1_555 1_555
C18 O7 1_555 1_555
C19 C9 1_555 1_555
H17 C19 1_555 1_555
H18 C19 1_555 1_555
H19 C19 1_555 1_555
H20 O1 1_555 1_555
C4 C18 1_555 1_555
C5 C10 1_555 1_555
C8 C17 1_555 1_555
C9 C10 1_555 1_555
C13 C16 1_555 1_555

#END
