
#######################################################################
#
#                 Cambridge Crystallographic Data Centre
#                                CCDC 
#
#######################################################################
#
# If this CIF has been generated from an entry in the Cambridge 
# Structural Database, then it will include bibliographic, chemical, 
# crystal, experimental, refinement or atomic coordinate data resulting 
# from the CCDC's data processing and validation procedures.
#
#######################################################################

data_IRILAX
_chemical_compound_source        'rhizomes of Dioscorea bulbifera'
_chemical_name_common            'Diosbulbin F'
_chemical_formula_moiety         'C20 H24 O7'
_chemical_name_systematic        
'Methyl 2-(3-furyl)-9-hydroxy-10b-methyl-4,6-dioxododecahydro-2H-benzo[f]isochromene-7-carboxylate'
_chemical_properties_biological  
'no in vitro anti-cancer or anti-bacterial activities'
_symmetry_cell_setting           orthorhombic
_symmetry_space_group_name_H-M   'P 21 21 21'
_symmetry_Int_Tables_number      19
_space_group_name_Hall           'P 2ac 2ab'
loop_
_symmetry_equiv_pos_site_id
_symmetry_equiv_pos_as_xyz
1 x,y,z
2 1/2-x,-y,1/2+z
3 -x,1/2+y,1/2-z
4 1/2+x,1/2-y,-z
_cell_length_a                   7.4787(7)
_cell_length_b                   14.7311(15)
_cell_length_c                   16.6040(16)
_cell_angle_alpha                90
_cell_angle_beta                 90
_cell_angle_gamma                90
_cell_volume                     1829.25
_exptl_crystal_colour            colorless
_exptl_crystal_description       prismatic
_cell_formula_units_Z            4
loop_
_atom_site_label
_atom_site_type_symbol
_atom_site_fract_x
_atom_site_fract_y
_atom_site_fract_z
O1 O 0.1130(3) 0.70471(12) 0.03078(10)
H1 H 0.0935 0.7425 -0.0044
O2 O 0.6199(4) 0.70674(15) 0.26561(17)
O3 O 0.8257(3) 1.01941(13) 0.18685(12)
O4 O 0.6499(3) 1.05764(11) 0.08700(11)
O5 O 0.4469(4) 1.18616(17) -0.13609(15)
O6 O 0.5319(3) 0.65529(12) 0.08695(12)
O7 O 0.3622(3) 0.53596(11) 0.11757(11)
C1 C 0.1096(3) 0.83103(16) 0.12462(15)
H2 H 0.0548 0.8524 0.1740
H3 H 0.0754 0.8721 0.0816
C2 C 0.0415(4) 0.73607(17) 0.10566(15)
H4 H -0.0893 0.7373 0.1022
C3 C 0.0970(4) 0.66893(18) 0.16892(16)
H5 H 0.0636 0.6085 0.1513
H6 H 0.0320 0.6818 0.2182
C4 C 0.2971(4) 0.67035(17) 0.18690(15)
H7 H 0.3135 0.6366 0.2372
C5 C 0.3615(4) 0.76748(17) 0.20329(14)
H8 H 0.2908 0.7884 0.2494
C6 C 0.5531(4) 0.76988(19) 0.23153(16)
C7 C 0.6544(4) 0.85695(17) 0.22309(15)
H9 H 0.7812 0.8435 0.2199
H10 H 0.6350 0.8936 0.2708
C8 C 0.5999(3) 0.91160(16) 0.14905(15)
H11 H 0.6338 0.8755 0.1019
C9 C 0.3952(3) 0.92716(16) 0.14341(15)
C10 C 0.3121(3) 0.83187(15) 0.13392(14)
H12 H 0.3621 0.8056 0.0846
C11 C 0.3575(4) 0.98502(19) 0.06807(17)
H13 H 0.2936 0.9479 0.0293
H14 H 0.2793 1.0347 0.0833
C12 C 0.5208(4) 1.02409(17) 0.02737(16)
H15 H 0.5779 0.9763 -0.0046
C13 C 0.4785(4) 1.10200(18) -0.02661(18)
C14 C 0.3918(6) 1.1846(2) -0.0049(2)
H16 H 0.3539 1.2020 0.0461
C15 C 0.3765(6) 1.2321(2) -0.0738(3)
H17 H 0.3241 1.2892 -0.0778
C16 C 0.5077(5) 1.1070(2) -0.10564(19)
H18 H 0.5627 1.0618 -0.1359
C17 C 0.7029(3) 0.99909(17) 0.14404(16)
C18 C 0.3258(4) 0.97695(18) 0.21789(17)
H19 H 0.3867 1.0340 0.2232
H20 H 0.3473 0.9406 0.2649
H21 H 0.1997 0.9875 0.2123
C19 C 0.4099(4) 0.62320(16) 0.12437(15)
C20 C 0.4678(4) 0.4812(2) 0.06370(18)
H22 H 0.4578 0.5047 0.0100
H23 H 0.4253 0.4198 0.0649
H24 H 0.5907 0.4828 0.0803
loop_
_geom_bond_atom_site_label_1
_geom_bond_atom_site_label_2
_geom_bond_site_symmetry_1
_geom_bond_site_symmetry_2
O1 H1 1_555 1_555
O2 C6 1_555 1_555
O3 C17 1_555 1_555
O4 C12 1_555 1_555
O5 C15 1_555 1_555
O6 C19 1_555 1_555
O7 C19 1_555 1_555
C1 H2 1_555 1_555
H3 C1 1_555 1_555
C2 O1 1_555 1_555
H4 C2 1_555 1_555
C3 C2 1_555 1_555
H5 C3 1_555 1_555
H6 C3 1_555 1_555
C4 C3 1_555 1_555
H7 C4 1_555 1_555
C5 C4 1_555 1_555
H8 C5 1_555 1_555
C6 C5 1_555 1_555
C7 C6 1_555 1_555
H9 C7 1_555 1_555
H10 C7 1_555 1_555
C8 C7 1_555 1_555
H11 C8 1_555 1_555
C9 C8 1_555 1_555
C10 C1 1_555 1_555
H12 C10 1_555 1_555
C11 C9 1_555 1_555
H13 C11 1_555 1_555
H14 C11 1_555 1_555
C12 C11 1_555 1_555
H15 C12 1_555 1_555
C13 C12 1_555 1_555
C14 C13 1_555 1_555
H16 C14 1_555 1_555
C15 C14 1_555 1_555
H17 C15 1_555 1_555
C16 O5 1_555 1_555
H18 C16 1_555 1_555
C17 O4 1_555 1_555
C18 C9 1_555 1_555
H19 C18 1_555 1_555
H20 C18 1_555 1_555
H21 C18 1_555 1_555
C19 C4 1_555 1_555
C20 O7 1_555 1_555
H22 C20 1_555 1_555
H23 C20 1_555 1_555
H24 C20 1_555 1_555
C1 C2 1_555 1_555
C5 C10 1_555 1_555
C8 C17 1_555 1_555
C9 C10 1_555 1_555
C13 C16 1_555 1_555

#END
