
#######################################################################
#
#                 Cambridge Crystallographic Data Centre
#                                CCDC 
#
#######################################################################
#
# If this CIF has been generated from an entry in the Cambridge 
# Structural Database, then it will include bibliographic, chemical, 
# crystal, experimental, refinement or atomic coordinate data resulting 
# from the CCDC's data processing and validation procedures.
#
#######################################################################

data_IRINUS
_chemical_formula_moiety         'C18 H23 N1'
_chemical_name_systematic        
exo,endo-6-(4-Cyanophenyl)-3-n-pentylbicyclo(3.1.0)hexane
_symmetry_cell_setting           triclinic
_symmetry_space_group_name_H-M   'P -1'
_symmetry_Int_Tables_number      2
_space_group_name_Hall           '-P 1'
loop_
_symmetry_equiv_pos_site_id
_symmetry_equiv_pos_as_xyz
1 x,y,z
2 -x,-y,-z
_cell_length_a                   6.0817(5)
_cell_length_b                   8.5321(7)
_cell_length_c                   15.048(3)
_cell_angle_alpha                81.97(3)
_cell_angle_beta                 85.25(3)
_cell_angle_gamma                87.91(3)
_cell_volume                     770.279
_exptl_crystal_colour            colorless
_chemical_melting_point          45-47deg.C
_cell_formula_units_Z            2
_exptl_crystal_recrystallization_method 'diethyl ether/hexane'
loop_
_atom_site_label
_atom_site_type_symbol
_atom_site_fract_x
_atom_site_fract_y
_atom_site_fract_z
N1 N 1.3865(2) 0.69899(16) 0.42268(8)
C1 C 0.7982(2) -0.05082(15) 0.31507(10)
C2 C 1.0105(2) -0.05494(16) 0.25663(11)
C3 C 1.01736(19) 0.10101(15) 0.19320(9)
C4 C 0.7736(2) 0.15106(18) 0.18500(10)
C5 C 0.6499(2) 0.07542(16) 0.27027(10)
C6 C 0.73410(19) 0.09326(15) 0.35909(9)
C7 C 0.88338(18) 0.22078(14) 0.37181(8)
C8 C 1.0773(2) 0.18902(16) 0.41443(8)
C9 C 1.2097(2) 0.30962(16) 0.42842(8)
C10 C 1.14872(19) 0.46538(15) 0.39954(8)
C11 C 0.9548(2) 0.49944(16) 0.35705(9)
C12 C 0.8239(2) 0.37786(15) 0.34437(9)
C13 C 1.1527(2) 0.08990(16) 0.10486(9)
C14 C 1.1733(3) 0.24428(19) 0.04296(10)
C15 C 1.3450(3) 0.2362(2) -0.03565(11)
C16 C 1.3677(3) 0.3892(2) -0.09965(13)
C19 C 1.5565(4) 0.3821(3) -0.17015(15)
C20 C 1.2825(2) 0.59425(16) 0.41324(8)
H1 H 0.742(2) -0.1529(17) 0.3442(10)
H2 H 1.141(2) -0.0726(16) 0.2901(9)
H3 H 1.003(2) -0.1431(18) 0.2182(10)
H4 H 1.081(2) 0.1831(15) 0.2223(8)
H5 H 0.748(2) 0.2651(19) 0.1760(10)
H6 H 0.724(2) 0.1142(17) 0.1338(10)
H7 H 0.499(2) 0.0588(16) 0.2681(9)
H8 H 0.627(2) 0.0731(15) 0.4090(9)
H9 H 1.122(2) 0.0832(16) 0.4327(8)
H10 H 1.343(2) 0.2848(16) 0.4574(9)
H11 H 0.908(2) 0.6076(17) 0.3380(9)
H12 H 0.690(2) 0.3972(15) 0.3150(9)
H13 H 1.088(2) 0.0087(17) 0.0717(9)
H14 H 1.311(3) 0.0509(18) 0.1171(10)
H15 H 1.031(2) 0.2936(16) 0.0233(9)
H16 H 1.201(3) 0.336(2) 0.0773(11)
H17 H 1.497(3) 0.205(2) -0.0134(12)
H18 H 1.308(3) 0.150(2) -0.0691(13)
H19 H 1.374(3) 0.476(3) -0.0646(15)
H20 H 1.218(4) 0.415(3) -0.1256(15)
H21 H 1.695(3) 0.345(2) -0.1418(13)
H22 H 1.521(4) 0.288(3) -0.2040(16)
H23 H 1.568(3) 0.487(3) -0.2090(15)
C17? C 1.222(4) 0.311(3) -0.0584(16)
C18? C 1.466(5) 0.298(4) -0.061(2)
loop_
_geom_bond_atom_site_label_1
_geom_bond_atom_site_label_2
_geom_bond_site_symmetry_1
_geom_bond_site_symmetry_2
N1 C20 1_555 1_555
C1 C2 1_555 1_555
C2 C3 1_555 1_555
C3 C4 1_555 1_555
C4 C5 1_555 1_555
C5 C1 1_555 1_555
C6 C1 1_555 1_555
C7 C6 1_555 1_555
C8 C7 1_555 1_555
C9 C8 1_555 1_555
C10 C9 1_555 1_555
C11 C10 1_555 1_555
C12 C7 1_555 1_555
C13 C3 1_555 1_555
C14 C13 1_555 1_555
C15 C14 1_555 1_555
C16 C15 1_555 1_555
C19 C16 1_555 1_555
C20 C10 1_555 1_555
H1 C1 1_555 1_555
H2 C2 1_555 1_555
H3 C2 1_555 1_555
H4 C3 1_555 1_555
H5 C4 1_555 1_555
H6 C4 1_555 1_555
H7 C5 1_555 1_555
H8 C6 1_555 1_555
H9 C8 1_555 1_555
H10 C9 1_555 1_555
H11 C11 1_555 1_555
H12 C12 1_555 1_555
H13 C13 1_555 1_555
H14 C13 1_555 1_555
H15 C14 1_555 1_555
H16 C14 1_555 1_555
H17 C15 1_555 1_555
H18 C15 1_555 1_555
H19 C16 1_555 1_555
H20 C16 1_555 1_555
H21 C19 1_555 1_555
H22 C19 1_555 1_555
H23 C19 1_555 1_555
C5 C6 1_555 1_555
C11 C12 1_555 1_555

#END
