
#######################################################################
#
#                 Cambridge Crystallographic Data Centre
#                                CCDC 
#
#######################################################################
#
# If this CIF has been generated from an entry in the Cambridge 
# Structural Database, then it will include bibliographic, chemical, 
# crystal, experimental, refinement or atomic coordinate data resulting 
# from the CCDC's data processing and validation procedures.
#
#######################################################################

data_IRINIG
_chemical_formula_moiety         'C28 H42 O2'
_chemical_name_systematic        
't-Butyl endo,exo-3-((4-(trans-4-n-pentyl)cyclohexyl)phenyl)bicyclo(3.1.0)hexane-6-carboxylate'
_symmetry_cell_setting           monoclinic
_symmetry_space_group_name_H-M   'P 21/c'
_symmetry_Int_Tables_number      14
_space_group_name_Hall           '-P 2ybc'
loop_
_symmetry_equiv_pos_site_id
_symmetry_equiv_pos_as_xyz
1 x,y,z
2 x,1/2-y,1/2+z
3 -x,-y,-z
4 -x,1/2+y,1/2-z
_cell_length_a                   20.075(1)
_cell_length_b                   9.9072(6)
_cell_length_c                   12.7752(7)
_cell_angle_alpha                90
_cell_angle_beta                 101.10(2)
_cell_angle_gamma                90
_cell_volume                     2493.29
_exptl_crystal_colour            colorless
_exptl_crystal_description       plate
_chemical_melting_point          68-70deg.C
_cell_formula_units_Z            4
_exptl_crystal_recrystallization_method 'methanol/diethyl ether'
_exptl_crystal_preparation       'potential liquid crystal properties'
loop_
_atom_site_label
_atom_site_type_symbol
_atom_site_fract_x
_atom_site_fract_y
_atom_site_fract_z
O1 O 0.44760(10) 0.7403(2) 1.17640(16)
O2 O 0.42361(11) 0.9385(2) 1.0902(2)
C1 C 0.52117(15) 0.8155(3) 1.0670(3)
C2 C 0.58369(14) 0.7569(3) 1.1376(3)
C3 C 0.65155(16) 0.7929(3) 1.1056(3)
C4 C 0.66078(16) 0.6835(3) 1.0241(3)
C5 C 0.58714(16) 0.6542(4) 0.9647(3)
C6 C 0.54405(15) 0.6729(3) 1.0495(3)
C7 C 0.45917(15) 0.8402(3) 1.1116(3)
C8 C 0.38859(14) 0.7427(3) 1.2295(2)
C9 C 0.39355(18) 0.8628(4) 1.3049(3)
C10 C 0.3959(2) 0.6113(4) 1.2911(3)
C11 C 0.32333(17) 0.7431(4) 1.1463(3)
C12 C 0.70983(14) 0.7168(3) 0.9522(3)
C13 C 0.70935(16) 0.8387(3) 0.8990(3)
C14 C 0.75607(16) 0.8665(3) 0.8342(3)
C15 C 0.80428(14) 0.7708(3) 0.8178(2)
C16 C 0.80398(16) 0.6481(3) 0.8702(3)
C17 C 0.75845(15) 0.6231(3) 0.9359(3)
C18 C 0.85597(16) 0.8069(3) 0.7497(3)
C19 C 0.87325(17) 0.6915(4) 0.6798(3)
C20 C 0.92526(16) 0.7336(4) 0.6135(3)
C21 C 0.99053(16) 0.7911(3) 0.6811(3)
C22 C 0.97279(19) 0.9042(4) 0.7518(3)
C23 C 0.92156(17) 0.8602(4) 0.8189(3)
C24 C 1.04155(19) 0.8389(4) 0.6133(3)
C25 C 1.07579(16) 0.7262(3) 0.5631(3)
C26 C 1.12392(16) 0.7738(3) 0.4920(3)
H1 H 1.0985 0.8280 0.4346
H2 H 1.1582 0.8314 0.5336
C27 C 1.1586(2) 0.6621(4) 0.4444(4)
C28 C 1.2034(2) 0.7082(5) 0.3679(3)
H3 H 1.2215 0.6307 0.3378
H4 H 1.2401 0.7619 0.4059
H5 H 1.1771 0.7610 0.3119
H6 H 0.5323(16) 0.884(3) 1.016(3)
H7 H 0.5764(14) 0.737(3) 1.213(2)
H8 H 0.6859(19) 0.800(4) 1.164(3)
H9 H 0.6520(18) 0.891(4) 1.076(3)
H10 H 0.6781(16) 0.592(3) 1.068(3)
H11 H 0.5717(17) 0.722(4) 0.908(3)
H12 H 0.5802(17) 0.570(4) 0.935(3)
H13 H 0.5127(14) 0.598(3) 1.065(2)
H14 H 0.3896(15) 0.949(3) 1.264(2)
H15 H 0.442(2) 0.866(4) 1.357(4)
H16 H 0.3598(19) 0.859(4) 1.347(3)
H17 H 0.440(2) 0.600(4) 1.337(3)
H18 H 0.3637(19) 0.601(4) 1.336(3)
H19 H 0.3964(18) 0.533(4) 1.242(3)
H20 H 0.2876(17) 0.733(3) 1.187(3)
H21 H 0.3250(17) 0.662(4) 1.094(3)
H22 H 0.317(2) 0.830(4) 1.100(4)
H23 H 0.6733(16) 0.905(3) 0.903(3)
H24 H 0.7566(15) 0.951(3) 0.797(3)
H25 H 0.8350(16) 0.584(3) 0.861(2)
H26 H 0.7554(14) 0.539(3) 0.967(2)
H27 H 0.8389(14) 0.891(3) 0.700(2)
H28 H 0.8339(17) 0.652(3) 0.630(3)
H29 H 0.8912(18) 0.616(4) 0.727(3)
H30 H 0.9009(17) 0.816(3) 0.559(3)
H31 H 0.9352(18) 0.655(4) 0.575(3)
H32 H 1.0103(18) 0.722(4) 0.735(3)
H33 H 0.9573(19) 0.979(4) 0.704(3)
H34 H 1.0118(18) 0.942(4) 0.798(3)
H35 H 0.9436(17) 0.776(3) 0.867(3)
H36 H 0.9098(16) 0.935(4) 0.862(3)
H37 H 1.0144(18) 0.894(3) 0.554(3)
H38 H 1.077(2) 0.899(4) 0.651(3)
H39 H 1.0434(17) 0.663(3) 0.522(3)
H40 H 1.107(2) 0.669(4) 0.624(3)
H41 H 1.126(2) 0.601(4) 0.408(4)
H42 H 1.188(2) 0.609(4) 0.509(3)
loop_
_geom_bond_atom_site_label_1
_geom_bond_atom_site_label_2
_geom_bond_site_symmetry_1
_geom_bond_site_symmetry_2
O1 C7 1_555 1_555
O2 C7 1_555 1_555
C1 C2 1_555 1_555
C2 C3 1_555 1_555
C3 C4 1_555 1_555
C4 C5 1_555 1_555
C5 C6 1_555 1_555
C6 C1 1_555 1_555
C7 C1 1_555 1_555
C8 O1 1_555 1_555
C9 C8 1_555 1_555
C10 C8 1_555 1_555
C11 C8 1_555 1_555
C12 C4 1_555 1_555
C13 C12 1_555 1_555
C14 C13 1_555 1_555
C15 C14 1_555 1_555
C16 C15 1_555 1_555
C17 C12 1_555 1_555
C18 C15 1_555 1_555
C19 C18 1_555 1_555
C20 C19 1_555 1_555
C21 C20 1_555 1_555
C22 C21 1_555 1_555
C23 C18 1_555 1_555
C24 C21 1_555 1_555
C25 C24 1_555 1_555
C26 C25 1_555 1_555
H1 C26 1_555 1_555
H2 C26 1_555 1_555
C27 C26 1_555 1_555
C28 C27 1_555 1_555
H3 C28 1_555 1_555
H4 C28 1_555 1_555
H5 C28 1_555 1_555
H6 C1 1_555 1_555
H7 C2 1_555 1_555
H8 C3 1_555 1_555
H9 C3 1_555 1_555
H10 C4 1_555 1_555
H11 C5 1_555 1_555
H12 C5 1_555 1_555
H13 C6 1_555 1_555
H14 C9 1_555 1_555
H15 C9 1_555 1_555
H16 C9 1_555 1_555
H17 C10 1_555 1_555
H18 C10 1_555 1_555
H19 C10 1_555 1_555
H20 C11 1_555 1_555
H21 C11 1_555 1_555
H22 C11 1_555 1_555
H23 C13 1_555 1_555
H24 C14 1_555 1_555
H25 C16 1_555 1_555
H26 C17 1_555 1_555
H27 C18 1_555 1_555
H28 C19 1_555 1_555
H29 C19 1_555 1_555
H30 C20 1_555 1_555
H31 C20 1_555 1_555
H32 C21 1_555 1_555
H33 C22 1_555 1_555
H34 C22 1_555 1_555
H35 C23 1_555 1_555
H36 C23 1_555 1_555
H37 C24 1_555 1_555
H38 C24 1_555 1_555
H39 C25 1_555 1_555
H40 C25 1_555 1_555
H41 C27 1_555 1_555
H42 C27 1_555 1_555
C2 C6 1_555 1_555
C16 C17 1_555 1_555
C22 C23 1_555 1_555

#END
