
#######################################################################
#
#                 Cambridge Crystallographic Data Centre
#                                CCDC 
#
#######################################################################
#
# If this CIF has been generated from an entry in the Cambridge 
# Structural Database, then it will include bibliographic, chemical, 
# crystal, experimental, refinement or atomic coordinate data resulting 
# from the CCDC's data processing and validation procedures.
#
#######################################################################

data_IRINOM
_chemical_formula_moiety         'C17 H19 F3 O2'
_chemical_name_systematic        
't-Butyl exo,exo-3-(3,4,5-trifluorophenyl)bicyclo(3.1.0)hexane-6-carboxylate'
_symmetry_cell_setting           triclinic
_symmetry_space_group_name_H-M   'P -1'
_symmetry_Int_Tables_number      2
_space_group_name_Hall           '-P 1'
loop_
_symmetry_equiv_pos_site_id
_symmetry_equiv_pos_as_xyz
1 x,y,z
2 -x,-y,-z
_cell_length_a                   5.7364(3)
_cell_length_b                   11.0353(6)
_cell_length_c                   12.8208(7)
_cell_angle_alpha                76.584(2)
_cell_angle_beta                 87.759(2)
_cell_angle_gamma                87.674(2)
_cell_volume                     788.428
_exptl_crystal_colour            colorless
_exptl_crystal_description       block
_chemical_melting_point          88deg.C
_cell_formula_units_Z            2
_exptl_crystal_recrystallization_method 'methanol/diethyl ether'
_exptl_crystal_preparation       'potential liquid crystal properties'
loop_
_atom_site_label
_atom_site_type_symbol
_atom_site_fract_x
_atom_site_fract_y
_atom_site_fract_z
O1 O 0.23330(16) 0.23606(9) 0.65650(7)
O2 O -0.03981(15) 0.14894(8) 0.57508(7)
F1 F 0.17065(17) 0.66508(9) -0.10491(7)
F2 F 0.54870(17) 0.80876(8) -0.11840(7)
F3 F 0.81940(16) 0.78598(9) 0.05353(7)
C1 C 0.1812(2) 0.30452(11) 0.46753(10)
C2 C 0.2693(2) 0.43420(11) 0.46181(10)
C3 C 0.2372(2) 0.52997(11) 0.35701(10)
C4 C 0.3218(2) 0.46228(11) 0.26832(10)
C5 C 0.5132(2) 0.36829(12) 0.32264(10)
C6 C 0.4380(2) 0.33473(11) 0.44059(10)
C7 C 0.1310(2) 0.22767(11) 0.57735(10)
C8 C -0.1162(2) 0.05470(11) 0.67233(10)
C9 C 0.0871(3) -0.03432(14) 0.71336(14)
C10 C -0.3014(2) -0.01181(13) 0.62700(12)
C11 C -0.2211(3) 0.11842(13) 0.75756(11)
C12 C 0.3917(2) 0.55187(11) 0.16429(10)
C13 C 0.2520(2) 0.56495(12) 0.07523(10)
C14 C 0.3063(2) 0.65140(12) -0.01852(10)
C15 C 0.4965(3) 0.72542(12) -0.02650(10)
C16 C 0.6347(2) 0.71202(12) 0.06220(11)
C17 C 0.5852(2) 0.62694(12) 0.15721(10)
H1 H 0.080(3) 0.2906(13) 0.4141(12)
H2 H 0.264(3) 0.4612(15) 0.5289(13)
H3 H 0.336(3) 0.6016(15) 0.3558(13)
H4 H 0.071(3) 0.5613(16) 0.3477(13)
H5 H 0.189(3) 0.4140(15) 0.2517(13)
H6 H 0.533(3) 0.2961(15) 0.2900(13)
H7 H 0.667(3) 0.4118(16) 0.3167(14)
H8 H 0.550(3) 0.2953(15) 0.4919(13)
H9 H 0.021(3) -0.1012(18) 0.7715(15)
H10 H 0.204(3) 0.0065(17) 0.7442(14)
H11 H 0.160(4) -0.0688(19) 0.6540(17)
H12 H -0.431(3) 0.0455(17) 0.5956(14)
H13 H -0.234(3) -0.0486(16) 0.5696(15)
H14 H -0.365(3) -0.0802(17) 0.6872(15)
H15 H -0.104(3) 0.1660(17) 0.7852(15)
H16 H -0.351(3) 0.1736(17) 0.7269(15)
H17 H -0.282(3) 0.0527(16) 0.8188(14)
H18 H 0.114(3) 0.5149(16) 0.0781(14)
H19 H 0.686(3) 0.6246(16) 0.2163(14)
loop_
_geom_bond_atom_site_label_1
_geom_bond_atom_site_label_2
_geom_bond_site_symmetry_1
_geom_bond_site_symmetry_2
O1 C7 1_555 1_555
O2 C7 1_555 1_555
F1 C14 1_555 1_555
F2 C15 1_555 1_555
F3 C16 1_555 1_555
C1 C2 1_555 1_555
C2 C3 1_555 1_555
C3 C4 1_555 1_555
C4 C5 1_555 1_555
C5 C6 1_555 1_555
C6 C1 1_555 1_555
C7 C1 1_555 1_555
C8 O2 1_555 1_555
C9 C8 1_555 1_555
C10 C8 1_555 1_555
C11 C8 1_555 1_555
C12 C4 1_555 1_555
C13 C12 1_555 1_555
C14 C13 1_555 1_555
C15 C14 1_555 1_555
C16 C15 1_555 1_555
C17 C12 1_555 1_555
H1 C1 1_555 1_555
H2 C2 1_555 1_555
H3 C3 1_555 1_555
H4 C3 1_555 1_555
H5 C4 1_555 1_555
H6 C5 1_555 1_555
H7 C5 1_555 1_555
H8 C6 1_555 1_555
H9 C9 1_555 1_555
H10 C9 1_555 1_555
H11 C9 1_555 1_555
H12 C10 1_555 1_555
H13 C10 1_555 1_555
H14 C10 1_555 1_555
H15 C11 1_555 1_555
H16 C11 1_555 1_555
H17 C11 1_555 1_555
H18 C13 1_555 1_555
H19 C17 1_555 1_555
C2 C6 1_555 1_555
C16 C17 1_555 1_555

#END
