
#######################################################################
#
#                 Cambridge Crystallographic Data Centre
#                                CCDC 
#
#######################################################################
#
# If this CIF has been generated from an entry in the Cambridge 
# Structural Database, then it will include bibliographic, chemical, 
# crystal, experimental, refinement or atomic coordinate data resulting 
# from the CCDC's data processing and validation procedures.
#
#######################################################################

data_IRIPAA
_chemical_formula_moiety         'C30 H38 O4'
_chemical_name_systematic        
'bis(4-(n-Pentyl)phenyl) exo,exo-bicyclo(3.1.0)hexane-3,6-dicarboxylate'
_symmetry_cell_setting           monoclinic
_symmetry_space_group_name_H-M   'C 2/c'
_symmetry_Int_Tables_number      15
_space_group_name_Hall           '-C 2yn'
loop_
_symmetry_equiv_pos_site_id
_symmetry_equiv_pos_as_xyz
1 x,y,z
2 1/2+x,1/2+y,z
3 x,-y,1/2+z
4 1/2+x,1/2-y,1/2+z
5 -x,-y,-z
6 1/2-x,1/2-y,-z
7 -x,y,1/2-z
8 1/2-x,1/2+y,1/2-z
_cell_length_a                   28.7930(13)
_cell_length_b                   5.97100(5)
_cell_length_c                   32.423(3)
_cell_angle_alpha                90
_cell_angle_beta                 111.767(7)
_cell_angle_gamma                90
_cell_volume                     5176.81
_exptl_crystal_colour            colorless
_chemical_melting_point          60-61deg.C
_cell_formula_units_Z            8
_exptl_crystal_recrystallization_method 'diethyl ether/hexane'
_exptl_crystal_preparation       'liquid crystal properties'
loop_
_atom_site_label
_atom_site_type_symbol
_atom_site_fract_x
_atom_site_fract_y
_atom_site_fract_z
O1 O 0.09832(6) 0.4241(3) 0.08680(5)
O2 O 0.02411(6) 0.3003(3) 0.03811(5)
O3 O 0.20931(7) -0.1815(3) -0.04132(5)
O4 O 0.15751(8) 0.0143(4) -0.09793(6)
C1 C 0.08686(11) 0.2953(4) -0.01947(8)
H1 H 0.0580 0.4002 -0.0324
C2 C 0.12278(12) 0.2742(6) -0.04033(9)
H2 H 0.1467 0.4006 -0.0313
H3 H 0.1055 0.2788 -0.0730
C3 C 0.15137(9) 0.0495(4) -0.02638(7)
H4 H 0.1786 0.0635 0.0035
C4 C 0.10853(10) -0.0916(5) -0.02369(9)
H5 H 0.0885 -0.1510 -0.0535
H6 H 0.1222 -0.2204 -0.0036
C5 C 0.07663(11) 0.0410(5) -0.00726(9)
H7 H 0.0416 -0.0092 -0.0131
C6 C 0.10029(8) 0.2116(4) 0.02762(7)
H8 H 0.1366 0.1922 0.0459
C7 C 0.06873(8) 0.3089(4) 0.04996(7)
C8 C 0.07560(8) 0.5628(4) 0.10904(7)
C9 C 0.08707(9) 0.5240(4) 0.15370(7)
H9 H 0.1070 0.3991 0.1679
C10 C 0.06915(9) 0.6696(4) 0.17740(7)
H10 H 0.0770 0.6428 0.2081
C11 C 0.04008(8) 0.8535(4) 0.15767(7)
C12 C 0.02933(9) 0.8882(4) 0.11263(7)
H11 H 0.0095 1.0132 0.0983
C13 C 0.04707(9) 0.7433(4) 0.08835(7)
H12 H 0.0395 0.7690 0.0576
C14 C 0.02199(9) 1.0129(4) 0.18488(7)
H13 H 0.0115 0.9234 0.2056
H14 H 0.0506 1.1071 0.2030
C15 C -0.02076(9) 1.1657(4) 0.15897(7)
H15 H -0.0496 1.0731 0.1407
H16 H -0.0104 1.2582 0.1385
C16 C -0.03724(9) 1.3195(4) 0.18842(7)
H17 H -0.0503 1.2272 0.2071
H18 H -0.0078 1.4026 0.2085
C17 C -0.07692(11) 1.4855(5) 0.16248(8)
H19 H -0.1061 1.4020 0.1421
H20 H -0.0636 1.5785 0.1441
C18 C -0.09437(11) 1.6388(5) 0.19125(9)
H21 H -0.1185 1.7471 0.1724
H22 H -0.0656 1.7188 0.2122
H23 H -0.1103 1.5494 0.2077
C19 C 0.17189(9) -0.0356(4) -0.05985(7)
C20 C 0.24470(9) -0.5622(4) -0.11388(7)
H24 H 0.2348 -0.7036 -0.1278
C21 C 0.23345(9) -0.2684(4) -0.06876(7)
C22 C 0.27259(10) -0.1531(4) -0.07280(8)
H25 H 0.2824 -0.0126 -0.0585
C23 C 0.29796(9) -0.2428(4) -0.09800(8)
H26 H 0.3249 -0.1618 -0.1010
C24 C 0.28450(9) -0.4494(4) -0.11891(7)
C25 C 0.21905(10) -0.4726(4) -0.08892(8)
H27 H 0.1919 -0.5516 -0.0858
C26 C 0.31149(9) -0.5457(4) -0.14685(7)
H28 H 0.3069 -0.7103 -0.1485
H29 H 0.3477 -0.5151 -0.1320
C27 C 0.29346(9) -0.4514(4) -0.19420(7)
H30 H 0.2568 -0.4721 -0.2085
H31 H 0.3004 -0.2887 -0.1928
C28 C 0.31868(9) -0.5644(4) -0.22237(7)
H32 H 0.3107 -0.7263 -0.2242
H33 H 0.3553 -0.5489 -0.2071
C29 C 0.30385(9) -0.4732(4) -0.26926(8)
H34 H 0.2670 -0.4779 -0.2840
H35 H 0.3144 -0.3147 -0.2678
C30 C 0.32708(10) -0.6047(5) -0.29684(8)
H36 H 0.3156 -0.5430 -0.3270
H37 H 0.3170 -0.7622 -0.2981
H38 H 0.3636 -0.5938 -0.2832
loop_
_geom_bond_atom_site_label_1
_geom_bond_atom_site_label_2
_geom_bond_site_symmetry_1
_geom_bond_site_symmetry_2
O1 C7 1_555 1_555
O2 C7 1_555 1_555
O3 C19 1_555 1_555
O4 C19 1_555 1_555
C1 H1 1_555 1_555
C2 C1 1_555 1_555
H2 C2 1_555 1_555
H3 C2 1_555 1_555
C3 C2 1_555 1_555
H4 C3 1_555 1_555
C4 C3 1_555 1_555
H5 C4 1_555 1_555
H6 C4 1_555 1_555
C5 C1 1_555 1_555
H7 C5 1_555 1_555
C6 C1 1_555 1_555
H8 C6 1_555 1_555
C7 C6 1_555 1_555
C8 O1 1_555 1_555
C9 C8 1_555 1_555
H9 C9 1_555 1_555
C10 C9 1_555 1_555
H10 C10 1_555 1_555
C11 C10 1_555 1_555
C12 C11 1_555 1_555
H11 C12 1_555 1_555
C13 C8 1_555 1_555
H12 C13 1_555 1_555
C14 C11 1_555 1_555
H13 C14 1_555 1_555
H14 C14 1_555 1_555
C15 C14 1_555 1_555
H15 C15 1_555 1_555
H16 C15 1_555 1_555
C16 C15 1_555 1_555
H17 C16 1_555 1_555
H18 C16 1_555 1_555
C17 C16 1_555 1_555
H19 C17 1_555 1_555
H20 C17 1_555 1_555
C18 C17 1_555 1_555
H21 C18 1_555 1_555
H22 C18 1_555 1_555
H23 C18 1_555 1_555
C19 C3 1_555 1_555
C20 H24 1_555 1_555
C21 O3 1_555 1_555
C22 C21 1_555 1_555
H25 C22 1_555 1_555
C23 C22 1_555 1_555
H26 C23 1_555 1_555
C24 C20 1_555 1_555
C25 C20 1_555 1_555
H27 C25 1_555 1_555
C26 C24 1_555 1_555
H28 C26 1_555 1_555
H29 C26 1_555 1_555
C27 C26 1_555 1_555
H30 C27 1_555 1_555
H31 C27 1_555 1_555
C28 C27 1_555 1_555
H32 C28 1_555 1_555
H33 C28 1_555 1_555
C29 C28 1_555 1_555
H34 C29 1_555 1_555
H35 C29 1_555 1_555
C30 C29 1_555 1_555
H36 C30 1_555 1_555
H37 C30 1_555 1_555
H38 C30 1_555 1_555
C4 C5 1_555 1_555
C5 C6 1_555 1_555
C12 C13 1_555 1_555
C21 C25 1_555 1_555
C23 C24 1_555 1_555

#END
