
#######################################################################
#
#                 Cambridge Crystallographic Data Centre
#                                CCDC 
#
#######################################################################
#
# If this CIF has been generated from an entry in the Cambridge 
# Structural Database, then it will include bibliographic, chemical, 
# crystal, experimental, refinement or atomic coordinate data resulting 
# from the CCDC's data processing and validation procedures.
#
#######################################################################

data_IRIRUY
_chemical_formula_moiety         'C19 H19 N3,H3 O1 1+,0.5(H2 O1),Cl1 1-'
_chemical_name_systematic        
'Oxonium chloride 4-methyl-N,N-bis(pyridin-2-ylmethyl)aniline hemihydrate'
_symmetry_cell_setting           triclinic
_symmetry_space_group_name_H-M   'P -1'
_symmetry_Int_Tables_number      2
_space_group_name_Hall           '-P 1'
loop_
_symmetry_equiv_pos_site_id
_symmetry_equiv_pos_as_xyz
1 x,y,z
2 -x,-y,-z
_cell_length_a                   11.813(2)
_cell_length_b                   12.191(2)
_cell_length_c                   13.301(3)
_cell_angle_alpha                89.36(3)
_cell_angle_beta                 87.62(3)
_cell_angle_gamma                78.82(3)
_cell_volume                     1877.53
_exptl_crystal_colour            yellow
_cell_formula_units_Z            4
loop_
_atom_site_label
_atom_site_type_symbol
_atom_site_fract_x
_atom_site_fract_y
_atom_site_fract_z
O1 O 0.0113(3) 0.7324(3) 0.9484(3)
N1 N 0.1617(3) -0.0833(2) 0.4527(2)
N2 N 0.2122(2) -0.0003(2) 0.2731(2)
C1 C 0.2709(3) 0.1589(3) 0.4712(3)
C2 C 0.3111(3) 0.0348(3) 0.2522(3)
N3 N 0.3285(3) 0.0542(2) 0.4368(2)
C3 C 0.2285(3) 0.1757(3) 0.5705(3)
H1 H 0.2356 0.1146 0.6138
C4 C 0.3426(3) -0.0407(3) 0.5053(3)
H2 H 0.3715 -0.0190 0.5678
H3 H 0.4004 -0.1006 0.4762
C5 C 0.2528(3) 0.2527(3) 0.4085(3)
H4 H 0.2764 0.2457 0.3409
C6 C 0.3882(3) 0.0423(3) 0.3393(3)
H5 H 0.4480 -0.0246 0.3399
H6 H 0.4258 0.1056 0.3280
C7 C 0.1999(3) 0.3563(3) 0.4465(3)
H7 H 0.1895 0.4175 0.4032
C8 C 0.1768(4) 0.2787(3) 0.6063(3)
H8 H 0.1510 0.2858 0.6734
C9 C 0.1413(4) -0.0110(3) 0.1996(3)
H9 H 0.0723 -0.0343 0.2158
C10 C 0.3417(4) 0.0576(3) 0.1538(3)
H10 H 0.4105 0.0816 0.1385
C11 C 0.2331(3) -0.0846(3) 0.5287(3)
C12 C 0.1620(3) 0.3726(3) 0.5454(3)
C13 C 0.0674(3) -0.1290(3) 0.4664(3)
H11 H 0.0183 -0.1281 0.4134
C14 C 0.2101(4) -0.1291(3) 0.6211(3)
H12 H 0.2594 -0.1277 0.6737
C15 C 0.1087(4) 0.4863(4) 0.5881(4)
H13 H 0.0916 0.5390 0.5340
H14 H 0.1619 0.5105 0.6314
H15 H 0.0387 0.4815 0.6258
C16 C 0.1670(4) 0.0112(4) 0.1016(4)
H16 H 0.1162 0.0040 0.0516
C17 C 0.2683(4) 0.0441(3) 0.0785(3)
H17 H 0.2885 0.0577 0.0119
C18 C 0.1129(4) -0.1758(3) 0.6349(4)
H18 H 0.0959 -0.2063 0.6969
C19 C 0.0414(4) -0.1768(3) 0.5557(4)
H19 H -0.0235 -0.2093 0.5629
N4 N 0.3393(3) 0.5038(2) 0.1485(2)
N5 N 0.5571(3) 0.5498(2) 0.1285(2)
N6 N 0.3764(3) 0.7191(2) 0.2001(2)
C20 C 0.3927(3) 0.6979(3) 0.3027(3)
C21 C 0.5748(4) 0.6571(3) 0.1258(3)
C22 C 0.3212(4) 0.3987(3) 0.1470(3)
H20 H 0.3848 0.3402 0.1438
C23 C 0.4953(3) 0.7083(3) 0.3459(3)
H21 H 0.5529 0.7322 0.3065
C24 C 0.2470(3) 0.5873(3) 0.1547(3)
C25 C 0.7572(4) 0.4800(4) 0.1042(3)
H22 H 0.8186 0.4198 0.0963
C26 C 0.1365(3) 0.5683(3) 0.1595(3)
H23 H 0.0739 0.6277 0.1644
C27 C 0.3277(4) 0.6404(3) 0.4649(3)
H24 H 0.2698 0.6183 0.5051
C28 C 0.2699(4) 0.7070(3) 0.1570(3)
H25 H 0.2693 0.7355 0.0886
H26 H 0.2066 0.7534 0.1948
C29 C 0.5128(4) 0.6838(3) 0.4459(3)
H27 H 0.5824 0.6914 0.4726
C30 C 0.1192(4) 0.4594(4) 0.1568(3)
H28 H 0.0448 0.4446 0.1594
C31 C 0.3078(3) 0.6637(3) 0.3652(3)
H29 H 0.2377 0.6568 0.3391
C32 C 0.6467(4) 0.4631(3) 0.1190(3)
H30 H 0.6332 0.3904 0.1226
C33 C 0.4694(4) 0.7490(3) 0.1382(3)
H31 H 0.4921 0.8135 0.1676
H32 H 0.4408 0.7708 0.0722
C34 C 0.4301(4) 0.6483(3) 0.5079(3)
C35 C 0.2127(4) 0.3741(3) 0.1502(3)
H33 H 0.2030 0.3003 0.1480
C36 C 0.7757(4) 0.5879(4) 0.1011(3)
H34 H 0.8503 0.6012 0.0914
C37 C 0.6838(4) 0.6762(4) 0.1124(3)
H35 H 0.6966 0.7491 0.1109
C38 C 0.4509(5) 0.6202(4) 0.6175(3)
H36 H 0.4293 0.6869 0.6571
H37 H 0.5312 0.5893 0.6253
H38 H 0.4054 0.5666 0.6396
Cl1 Cl 0.59313(10) 0.18904(8) 0.12545(10)
Cl2 Cl 0.90968(10) 0.84831(10) 0.16104(10)
O2 O 0.1389(3) 0.8886(3) 0.8741(3)
O3 O 0.6409(2) 0.9431(2) 0.2121(2)
loop_
_geom_bond_atom_site_label_1
_geom_bond_atom_site_label_2
_geom_bond_site_symmetry_1
_geom_bond_site_symmetry_2
N1 C11 1_555 1_555
N2 C2 1_555 1_555
C1 N3 1_555 1_555
C2 C6 1_555 1_555
N3 C4 1_555 1_555
C3 C1 1_555 1_555
H1 C3 1_555 1_555
C4 H2 1_555 1_555
H3 C4 1_555 1_555
C5 C1 1_555 1_555
H4 C5 1_555 1_555
C6 N3 1_555 1_555
H5 C6 1_555 1_555
H6 C6 1_555 1_555
C7 C5 1_555 1_555
H7 C7 1_555 1_555
C8 C3 1_555 1_555
H8 C8 1_555 1_555
C9 N2 1_555 1_555
H9 C9 1_555 1_555
C10 C2 1_555 1_555
H10 C10 1_555 1_555
C11 C4 1_555 1_555
C12 C7 1_555 1_555
C13 N1 1_555 1_555
H11 C13 1_555 1_555
C14 C11 1_555 1_555
H12 C14 1_555 1_555
C15 C12 1_555 1_555
H13 C15 1_555 1_555
H14 C15 1_555 1_555
H15 C15 1_555 1_555
C16 C9 1_555 1_555
H16 C16 1_555 1_555
C17 C10 1_555 1_555
H17 C17 1_555 1_555
C18 C14 1_555 1_555
H18 C18 1_555 1_555
C19 C13 1_555 1_555
H19 C19 1_555 1_555
N4 C22 1_555 1_555
N5 C21 1_555 1_555
N6 C20 1_555 1_555
C20 C23 1_555 1_555
C21 C33 1_555 1_555
C22 H20 1_555 1_555
C23 H21 1_555 1_555
C24 N4 1_555 1_555
C25 H22 1_555 1_555
C26 C24 1_555 1_555
H23 C26 1_555 1_555
C27 H24 1_555 1_555
C28 N6 1_555 1_555
H25 C28 1_555 1_555
H26 C28 1_555 1_555
C29 C23 1_555 1_555
H27 C29 1_555 1_555
C30 C26 1_555 1_555
H28 C30 1_555 1_555
C31 C20 1_555 1_555
H29 C31 1_555 1_555
C32 N5 1_555 1_555
H30 C32 1_555 1_555
C33 N6 1_555 1_555
H31 C33 1_555 1_555
H32 C33 1_555 1_555
C34 C27 1_555 1_555
C35 C22 1_555 1_555
H33 C35 1_555 1_555
C36 C25 1_555 1_555
H34 C36 1_555 1_555
C37 C21 1_555 1_555
H35 C37 1_555 1_555
C38 C34 1_555 1_555
H36 C38 1_555 1_555
H37 C38 1_555 1_555
H38 C38 1_555 1_555
C8 C12 1_555 1_555
C16 C17 1_555 1_555
C18 C19 1_555 1_555
C24 C28 1_555 1_555
C25 C32 1_555 1_555
C27 C31 1_555 1_555
C29 C34 1_555 1_555
C30 C35 1_555 1_555
C36 C37 1_555 1_555

#END
