
#######################################################################
#
#                 Cambridge Crystallographic Data Centre
#                                CCDC 
#
#######################################################################
#
# If this CIF has been generated from an entry in the Cambridge 
# Structural Database, then it will include bibliographic, chemical, 
# crystal, experimental, refinement or atomic coordinate data resulting 
# from the CCDC's data processing and validation procedures.
#
#######################################################################

data_IRISIN
_chemical_formula_moiety         'C21 H29 Cl1 N1 P1'
_chemical_name_systematic        
'N-t-butyl-N-(2,2-dimethyl-1-phenylpropyl)-P-phenylphosphonamidous chloride'
_symmetry_cell_setting           triclinic
_symmetry_space_group_name_H-M   'P -1'
_symmetry_Int_Tables_number      2
_space_group_name_Hall           '-P 1'
loop_
_symmetry_equiv_pos_site_id
_symmetry_equiv_pos_as_xyz
1 x,y,z
2 -x,-y,-z
_cell_length_a                   9.0089(4)
_cell_length_b                   10.4548(5)
_cell_length_c                   11.9860(5)
_cell_angle_alpha                68.114(4)
_cell_angle_beta                 72.990(4)
_cell_angle_gamma                76.682(4)
_cell_volume                     992.321
_exptl_crystal_colour            colorless
_cell_formula_units_Z            2
loop_
_atom_site_label
_atom_site_type_symbol
_atom_site_fract_x
_atom_site_fract_y
_atom_site_fract_z
P1 P 0.63601(4) 0.22192(4) 0.34537(4)
N1 N 0.72643(13) 0.20693(11) 0.20767(11)
C1 C 0.44886(16) 0.33346(15) 0.33046(13)
C2 C 0.68144(16) -0.02316(14) 0.20897(14)
C3 C 0.80001(16) 0.06258(14) 0.20512(14)
H1 H 0.8689 0.0790 0.1202
C4 C 0.35284(16) 0.29813(15) 0.27631(13)
H2 H 0.3928 0.2289 0.2375
C5 C 0.19991(17) 0.36327(15) 0.27889(14)
H3 H 0.1363 0.3395 0.2407
C6 C 0.13933(18) 0.46274(15) 0.33680(14)
H4 H 0.0346 0.5074 0.3384
C7 C 0.68448(17) 0.28718(15) -0.00566(14)
H5 H 0.5727 0.2801 0.0294
H6 H 0.7392 0.1989 -0.0172
H7 H 0.6980 0.3619 -0.0856
C8 C 0.54913(17) -0.05386(15) 0.30441(14)
H8 H 0.5268 -0.0168 0.3698
C9 C 0.38582(18) 0.43263(15) 0.38966(14)
H9 H 0.4485 0.4565 0.4284
C10 C 0.75252(16) 0.31938(14) 0.08243(13)
C11 C 0.70837(18) -0.07803(15) 0.11392(15)
H10 H 0.7972 -0.0577 0.0472
C12 C 0.91487(17) -0.02355(15) 0.29260(14)
C13 C 0.23271(18) 0.49657(16) 0.39246(15)
H11 H 0.1913 0.5642 0.4329
C14 C 0.44910(18) -0.13789(16) 0.30559(16)
H12 H 0.3599 -0.1584 0.3720
C15 C 0.92827(17) 0.32930(16) 0.02896(15)
H13 H 0.9839 0.2385 0.0241
H14 H 0.9693 0.3570 0.0826
H15 H 0.9437 0.3987 -0.0539
C16 C 0.67413(18) 0.46374(15) 0.08815(14)
H16 H 0.5613 0.4624 0.1224
H17 H 0.6920 0.5319 0.0048
H18 H 0.7189 0.4893 0.1410
C17 C 0.8393(2) -0.09308(18) 0.42833(16)
H19 H 0.9214 -0.1431 0.4737
H20 H 0.7729 -0.1588 0.4346
H21 H 0.7753 -0.0219 0.4637
C18 C 1.03046(19) 0.06763(17) 0.28485(18)
H22 H 1.1011 0.0133 0.3398
H23 H 0.9726 0.1478 0.3101
H24 H 1.0918 0.1003 0.1997
C19 C 0.4785(2) -0.19168(17) 0.21101(17)
H25 H 0.4099 -0.2491 0.2120
C20 C 1.0086(2) -0.14037(17) 0.24158(18)
H26 H 1.0823 -0.1977 0.2930
H27 H 1.0667 -0.0996 0.1566
H28 H 0.9365 -0.1984 0.2426
C21 C 0.6085(2) -0.16141(18) 0.11461(17)
H29 H 0.6294 -0.1978 0.0490
Cl1 Cl 0.75445(4) 0.35908(4) 0.37323(4)
loop_
_geom_bond_atom_site_label_1
_geom_bond_atom_site_label_2
_geom_bond_site_symmetry_1
_geom_bond_site_symmetry_2
P1 N1 1_555 1_555
N1 C3 1_555 1_555
C1 P1 1_555 1_555
C2 C3 1_555 1_555
C3 H1 1_555 1_555
C4 C1 1_555 1_555
H2 C4 1_555 1_555
C5 C4 1_555 1_555
H3 C5 1_555 1_555
C6 C5 1_555 1_555
H4 C6 1_555 1_555
C7 H5 1_555 1_555
H6 C7 1_555 1_555
H7 C7 1_555 1_555
C8 C2 1_555 1_555
H8 C8 1_555 1_555
C9 C1 1_555 1_555
H9 C9 1_555 1_555
C10 N1 1_555 1_555
C11 C2 1_555 1_555
H10 C11 1_555 1_555
C12 C3 1_555 1_555
C13 C6 1_555 1_555
H11 C13 1_555 1_555
C14 C8 1_555 1_555
H12 C14 1_555 1_555
C15 C10 1_555 1_555
H13 C15 1_555 1_555
H14 C15 1_555 1_555
H15 C15 1_555 1_555
C16 C10 1_555 1_555
H16 C16 1_555 1_555
H17 C16 1_555 1_555
H18 C16 1_555 1_555
C17 C12 1_555 1_555
H19 C17 1_555 1_555
H20 C17 1_555 1_555
H21 C17 1_555 1_555
C18 C12 1_555 1_555
H22 C18 1_555 1_555
H23 C18 1_555 1_555
H24 C18 1_555 1_555
C19 C14 1_555 1_555
H25 C19 1_555 1_555
C20 C12 1_555 1_555
H26 C20 1_555 1_555
H27 C20 1_555 1_555
H28 C20 1_555 1_555
C21 C11 1_555 1_555
H29 C21 1_555 1_555
Cl1 P1 1_555 1_555
C7 C10 1_555 1_555
C9 C13 1_555 1_555
C19 C21 1_555 1_555

#END
