
#######################################################################
#
#                 Cambridge Crystallographic Data Centre
#                                CCDC 
#
#######################################################################
#
# If this CIF has been generated from an entry in the Cambridge 
# Structural Database, then it will include bibliographic, chemical, 
# crystal, experimental, refinement or atomic coordinate data resulting 
# from the CCDC's data processing and validation procedures.
#
#######################################################################

data_IRITEJ
_chemical_formula_moiety         'C14 H15 N1 O1'
_chemical_name_systematic        
3-(4-Methylphenyl)-4,5,6,7-tetrahydro-2,1-benzoxazole
_symmetry_cell_setting           monoclinic
_symmetry_space_group_name_H-M   'P 21/n'
_symmetry_Int_Tables_number      14
_space_group_name_Hall           '-P 2yn'
loop_
_symmetry_equiv_pos_site_id
_symmetry_equiv_pos_as_xyz
1 x,y,z
2 1/2-x,1/2+y,1/2-z
3 -x,-y,-z
4 1/2+x,1/2-y,1/2+z
_cell_length_a                   8.2790(17)
_cell_length_b                   11.382(2)
_cell_length_c                   24.807(5)
_cell_angle_alpha                90
_cell_angle_beta                 91.00(3)
_cell_angle_gamma                90
_cell_volume                     2337.25
_chemical_melting_point          '95-6deg. C'
_cell_formula_units_Z            8
_exptl_crystal_recrystallization_method 2-propanol
loop_
_atom_site_label
_atom_site_type_symbol
_atom_site_fract_x
_atom_site_fract_y
_atom_site_fract_z
O1 O 0.0183(2) 0.11854(16) 0.12283(8)
N1 N 0.0856(3) 0.1196(2) 0.17590(10)
C1 C -0.0139(3) 0.2317(3) 0.10773(11)
C2 C 0.0282(3) 0.3052(2) 0.14859(11)
C3 C 0.0895(3) 0.2300(3) 0.18960(11)
C4 C 0.1527(4) 0.2709(3) 0.24298(12)
H1 H 0.2698 0.2677 0.2436
H2 H 0.1137 0.2196 0.2712
C5 C 0.0975(4) 0.3957(3) 0.25328(13)
H3 H -0.0158 0.3949 0.2627
H4 H 0.1582 0.4275 0.2837
C6 C 0.1194(4) 0.4743(3) 0.20525(12)
H5 H 0.2327 0.4751 0.1959
H6 H 0.0890 0.5538 0.2148
C7 C 0.0184(4) 0.4351(3) 0.15573(12)
H7 H -0.0933 0.4580 0.1603
H8 H 0.0581 0.4739 0.1237
C8 C -0.0752(3) 0.2461(2) 0.05247(11)
C9 C -0.0653(4) 0.1542(3) 0.01601(12)
H9 H -0.0208 0.0829 0.0271
C10 C -0.1205(4) 0.1668(3) -0.03641(12)
H10 H -0.1115 0.1039 -0.0601
C11 C -0.1884(3) 0.2698(3) -0.05470(11)
C12 C -0.1991(4) 0.3608(3) -0.01848(12)
H11 H -0.2442 0.4316 -0.0298
C13 C -0.1446(4) 0.3498(3) 0.03416(13)
H12 H -0.1547 0.4129 0.0577
C14 C -0.2486(4) 0.2815(3) -0.11235(12)
H13 H -0.2915 0.3589 -0.1180
H14 H -0.3318 0.2244 -0.1193
H15 H -0.1607 0.2685 -0.1364
O2 O -0.5340(2) 0.57065(18) -0.15793(8)
N2 N -0.4679(3) 0.5698(3) -0.10473(10)
C15 C -0.5666(3) 0.6836(3) -0.17233(12)
C16 C -0.5272(3) 0.7555(3) -0.13101(12)
C17 C -0.4647(3) 0.6804(3) -0.09078(12)
C18 C -0.3977(4) 0.7208(3) -0.03756(12)
H16 H -0.2814 0.7103 -0.0366
H17 H -0.4430 0.6740 -0.0089
C19 C -0.4377(5) 0.8483(4) -0.02896(15)
H18 H -0.5466 0.8536 -0.0154
H19 H -0.3650 0.8795 -0.0014
C20 C -0.4269(5) 0.9217(3) -0.07693(15)
H20 H -0.3156 0.9217 -0.0885
H21 H -0.4539 1.0017 -0.0671
C21 C -0.5337(4) 0.8859(3) -0.12442(12)
H22 H -0.6441 0.9105 -0.1183
H23 H -0.4969 0.9239 -0.1570
C22 C -0.6247(3) 0.7027(3) -0.22750(11)
C23 C -0.5910(3) 0.6225(3) -0.26837(11)
H24 H -0.5351 0.5537 -0.2603
C24 C -0.6404(4) 0.6451(3) -0.32057(12)
H25 H -0.6169 0.5906 -0.3472
C25 C -0.7238(3) 0.7462(3) -0.33483(12)
C26 C -0.7589(3) 0.8238(3) -0.29347(13)
H26 H -0.8166 0.8919 -0.3015
C27 C -0.7110(3) 0.8030(3) -0.24134(12)
H27 H -0.7367 0.8570 -0.2147
C28 C -0.7723(4) 0.7713(4) -0.39259(13)
H28 H -0.8283 0.8451 -0.3945
H29 H -0.8421 0.7099 -0.4057
H30 H -0.6775 0.7749 -0.4143
loop_
_geom_bond_atom_site_label_1
_geom_bond_atom_site_label_2
_geom_bond_site_symmetry_1
_geom_bond_site_symmetry_2
O1 N1 1_555 1_555
N1 C3 1_555 1_555
C1 O1 1_555 1_555
C2 C1 1_555 1_555
C3 C2 1_555 1_555
C4 C3 1_555 1_555
H1 C4 1_555 1_555
H2 C4 1_555 1_555
C5 C4 1_555 1_555
H3 C5 1_555 1_555
H4 C5 1_555 1_555
C6 C5 1_555 1_555
H5 C6 1_555 1_555
H6 C6 1_555 1_555
C7 C2 1_555 1_555
H7 C7 1_555 1_555
H8 C7 1_555 1_555
C8 C1 1_555 1_555
C9 C8 1_555 1_555
H9 C9 1_555 1_555
C10 C9 1_555 1_555
H10 C10 1_555 1_555
C11 C10 1_555 1_555
C12 C11 1_555 1_555
H11 C12 1_555 1_555
C13 C8 1_555 1_555
H12 C13 1_555 1_555
C14 C11 1_555 1_555
H13 C14 1_555 1_555
H14 C14 1_555 1_555
H15 C14 1_555 1_555
O2 N2 1_555 1_555
N2 C17 1_555 1_555
C15 O2 1_555 1_555
C16 C15 1_555 1_555
C17 C16 1_555 1_555
C18 C17 1_555 1_555
H16 C18 1_555 1_555
H17 C18 1_555 1_555
C19 C18 1_555 1_555
H18 C19 1_555 1_555
H19 C19 1_555 1_555
C20 C19 1_555 1_555
H20 C20 1_555 1_555
H21 C20 1_555 1_555
C21 C16 1_555 1_555
H22 C21 1_555 1_555
H23 C21 1_555 1_555
C22 C15 1_555 1_555
C23 C22 1_555 1_555
H24 C23 1_555 1_555
C24 C23 1_555 1_555
H25 C24 1_555 1_555
C25 C24 1_555 1_555
C26 C25 1_555 1_555
H26 C26 1_555 1_555
C27 C22 1_555 1_555
H27 C27 1_555 1_555
C28 C25 1_555 1_555
H28 C28 1_555 1_555
H29 C28 1_555 1_555
H30 C28 1_555 1_555
C6 C7 1_555 1_555
C12 C13 1_555 1_555
C20 C21 1_555 1_555
C26 C27 1_555 1_555

#END
