
#######################################################################
#
#                 Cambridge Crystallographic Data Centre
#                                CCDC 
#
#######################################################################
#
# If this CIF has been generated from an entry in the Cambridge 
# Structural Database, then it will include bibliographic, chemical, 
# crystal, experimental, refinement or atomic coordinate data resulting 
# from the CCDC's data processing and validation procedures.
#
#######################################################################

data_IRIVEL
_chemical_formula_moiety         'C32 H36 N2 O4'
_chemical_name_systematic        "Dihexyl 2,2'-biquinoline-4,4'-dicarboxylate"
_symmetry_cell_setting           monoclinic
_symmetry_space_group_name_H-M   'P 21/c'
_symmetry_Int_Tables_number      14
_space_group_name_Hall           '-P 2ybc'
loop_
_symmetry_equiv_pos_site_id
_symmetry_equiv_pos_as_xyz
1 x,y,z
2 -x,1/2+y,1/2-z
3 -x,-y,-z
4 x,1/2-y,1/2+z
_cell_length_a                   8.2391(14)
_cell_length_b                   16.767(4)
_cell_length_c                   9.618(3)
_cell_angle_alpha                90
_cell_angle_beta                 94.669(8)
_cell_angle_gamma                90
_cell_volume                     1324.27
_chemical_melting_point          '110deg. C'
_cell_formula_units_Z            2
loop_
_atom_site_label
_atom_site_type_symbol
_atom_site_fract_x
_atom_site_fract_y
_atom_site_fract_z
C1 C 0.4736(3) 0.51057(15) 0.5699(3)
N1 N 0.5000(2) 0.58510(13) 0.6122(2)
O1 O 0.2694(2) 0.33786(11) 0.8131(2)
O2 O 0.1994(2) 0.43016(10) 0.96597(19)
C2 C 0.3993(3) 0.45359(15) 0.6510(3)
H1 H 0.3825 0.4009 0.6162
C3 C 0.3507(3) 0.47309(15) 0.7799(3)
C4 C 0.3796(3) 0.55258(15) 0.8318(3)
C5 C 0.3414(3) 0.58263(15) 0.9628(3)
H2 H 0.2916 0.5485 1.0256
C6 C 0.3749(3) 0.66018(16) 1.0006(3)
H3 H 0.3483 0.6788 1.0892
C7 C 0.4488(3) 0.71293(15) 0.9093(3)
H4 H 0.4705 0.7666 0.9362
C8 C 0.4884(3) 0.68604(16) 0.7829(3)
H5 H 0.5395 0.7211 0.7222
C9 C 0.4543(3) 0.60639(15) 0.7405(3)
C10 C 0.2706(3) 0.40608(16) 0.8536(3)
C11 C 0.1211(3) 0.36909(15) 1.0462(3)
H6 H 0.1942 0.3226 1.0634
H7 H 0.0187 0.3507 0.9952
C12 C 0.0866(3) 0.40806(16) 1.1821(3)
H8 H 0.0080 0.4521 1.1626
H9 H 0.1887 0.4315 1.2257
C13 C 0.0180(3) 0.35036(16) 1.2848(3)
H10 H 0.0975 0.3069 1.3063
H11 H -0.0832 0.3261 1.2409
C14 C -0.0192(3) 0.39136(16) 1.4202(3)
H12 H 0.0801 0.4193 1.4593
H13 H -0.1045 0.4321 1.3987
C15 C -0.0756(4) 0.33531(17) 1.5293(3)
H14 H 0.0143 0.2982 1.5584
H15 H -0.1675 0.3031 1.4870
C16 C -0.1296(3) 0.37712(17) 1.6581(3)
H16 H -0.1567 0.3372 1.7270
H17 H -0.2257 0.4099 1.6320
H18 H -0.0412 0.4112 1.6984
C1B C 0.5264(3) 0.48943(15) 0.4301(3)
N1B N 0.5000(2) 0.41490(13) 0.3878(2)
O1B O 0.7306(2) 0.66214(11) 0.1869(2)
O2B O 0.8006(2) 0.56984(10) 0.03403(19)
C2B C 0.6007(3) 0.54641(15) 0.3490(3)
H1B H 0.6175 0.5991 0.3838
C3B C 0.6493(3) 0.52691(15) 0.2201(3)
C4B C 0.6204(3) 0.44742(15) 0.1682(3)
C5B C 0.6586(3) 0.41737(15) 0.0372(3)
H2B H 0.7084 0.4515 -0.0256
C6B C 0.6251(3) 0.33982(16) -0.0006(3)
H3B H 0.6517 0.3212 -0.0892
C7B C 0.5512(3) 0.28707(15) 0.0907(3)
H4B H 0.5295 0.2334 0.0638
C8B C 0.5116(3) 0.31396(16) 0.2171(3)
H5B H 0.4605 0.2789 0.2778
C9B C 0.5457(3) 0.39361(15) 0.2595(3)
C10B C 0.7294(3) 0.59392(16) 0.1464(3)
C11B C 0.8789(3) 0.63091(15) -0.0462(3)
H6B H 0.8058 0.6774 -0.0634
H7B H 0.9813 0.6493 0.0048
C12B C 0.9134(3) 0.59194(16) -0.1821(3)
H8B H 0.9920 0.5479 -0.1626
H9B H 0.8113 0.5685 -0.2257
C13B C 0.9820(3) 0.64964(16) -0.2848(3)
H10B H 0.9025 0.6931 -0.3063
H11B H 1.0832 0.6739 -0.2409
C14B C 1.0192(3) 0.60864(16) -0.4202(3)
H12B H 0.9199 0.5807 -0.4593
H13B H 1.1045 0.5679 -0.3987
C15B C 1.0756(4) 0.66469(17) -0.5293(3)
H14B H 0.9857 0.7018 -0.5584
H15B H 1.1675 0.6969 -0.4870
C16B C 1.1296(3) 0.62288(17) -0.6581(3)
H16B H 1.1567 0.6628 -0.7270
H17B H 1.2257 0.5901 -0.6320
H18B H 1.0412 0.5888 -0.6984
loop_
_geom_bond_atom_site_label_1
_geom_bond_atom_site_label_2
_geom_bond_site_symmetry_1
_geom_bond_site_symmetry_2
C1 N1 1_555 1_555
N1 C9 1_555 1_555
O1 C10 1_555 1_555
O2 C10 1_555 1_555
C2 C1 1_555 1_555
H1 C2 1_555 1_555
C3 C2 1_555 1_555
C4 C3 1_555 1_555
C5 C4 1_555 1_555
H2 C5 1_555 1_555
C6 C5 1_555 1_555
H3 C6 1_555 1_555
C7 C6 1_555 1_555
H4 C7 1_555 1_555
C8 C7 1_555 1_555
H5 C8 1_555 1_555
C9 C4 1_555 1_555
C10 C3 1_555 1_555
C11 O2 1_555 1_555
H6 C11 1_555 1_555
H7 C11 1_555 1_555
C12 C11 1_555 1_555
H8 C12 1_555 1_555
H9 C12 1_555 1_555
C13 C12 1_555 1_555
H10 C13 1_555 1_555
H11 C13 1_555 1_555
C14 C13 1_555 1_555
H12 C14 1_555 1_555
H13 C14 1_555 1_555
C15 C14 1_555 1_555
H14 C15 1_555 1_555
H15 C15 1_555 1_555
C16 C15 1_555 1_555
H16 C16 1_555 1_555
H17 C16 1_555 1_555
H18 C16 1_555 1_555
C1B C1 1_555 1_555
N1B C1B 1_555 1_555
O1B C10B 1_555 1_555
O2B C10B 1_555 1_555
C2B C1B 1_555 1_555
H1B C2B 1_555 1_555
C3B C2B 1_555 1_555
C4B C3B 1_555 1_555
C5B C4B 1_555 1_555
H2B C5B 1_555 1_555
C6B C5B 1_555 1_555
H3B C6B 1_555 1_555
C7B C6B 1_555 1_555
H4B C7B 1_555 1_555
C8B C7B 1_555 1_555
H5B C8B 1_555 1_555
C9B N1B 1_555 1_555
C10B C3B 1_555 1_555
C11B O2B 1_555 1_555
H6B C11B 1_555 1_555
H7B C11B 1_555 1_555
C12B C11B 1_555 1_555
H8B C12B 1_555 1_555
H9B C12B 1_555 1_555
C13B C12B 1_555 1_555
H10B C13B 1_555 1_555
H11B C13B 1_555 1_555
C14B C13B 1_555 1_555
H12B C14B 1_555 1_555
H13B C14B 1_555 1_555
C15B C14B 1_555 1_555
H14B C15B 1_555 1_555
H15B C15B 1_555 1_555
C16B C15B 1_555 1_555
H16B C16B 1_555 1_555
H17B C16B 1_555 1_555
H18B C16B 1_555 1_555
C8 C9 1_555 1_555
C4B C9B 1_555 1_555
C8B C9B 1_555 1_555

#END
