
#######################################################################
#
#                 Cambridge Crystallographic Data Centre
#                                CCDC 
#
#######################################################################
#
# If this CIF has been generated from an entry in the Cambridge 
# Structural Database, then it will include bibliographic, chemical, 
# crystal, experimental, refinement or atomic coordinate data resulting 
# from the CCDC's data processing and validation procedures.
#
#######################################################################

data_IRODEZ
_chemical_formula_moiety         'C24 H22 Cl2 N2 O4'
_chemical_name_systematic        
3,4-trans-4,5-trans-2-amino-3-cyano-1,3-di(ethoxycarbonyl)-4,5-di(2-chlorophenyl)cyclopentene
_symmetry_cell_setting           monoclinic
_symmetry_space_group_name_H-M   'P 21/c'
_symmetry_Int_Tables_number      14
_space_group_name_Hall           '-P 2ybc'
loop_
_symmetry_equiv_pos_site_id
_symmetry_equiv_pos_as_xyz
1 x,y,z
2 -x,1/2+y,1/2-z
3 -x,-y,-z
4 x,1/2-y,1/2+z
_cell_length_a                   16.429(3)
_cell_length_b                   9.948(2)
_cell_length_c                   14.893(4)
_cell_angle_alpha                90
_cell_angle_beta                 105.43(2)
_cell_angle_gamma                90
_cell_volume                     2346.32
_cell_formula_units_Z            4
loop_
_atom_site_label
_atom_site_type_symbol
_atom_site_fract_x
_atom_site_fract_y
_atom_site_fract_z
Cl1 Cl 0.1340(25) 0.1590(40) 0.7020(20)
Cl2 Cl 0.1300(20) 0.5560(40) 0.3910(20)
O1 O 0.3620(50) 0.0960(70) 0.7550(50)
O2 O 0.3310(50) 0.2750(80) 0.8310(50)
O3 O 0.3250(50) 0.7340(70) 0.5570(60)
O4 O 0.4340(50) 0.7200(70) 0.6860(60)
N1 N 0.4610(50) 0.4600(80) 0.7630(60)
N2 N 0.4310(60) 0.1890(90) 0.5740(70)
C1 C 0.1540(60) 0.142(10) 0.5930(70)
C2 C 0.1140(70) 0.037(12) 0.5370(90)
C3 C 0.1240(70) 0.020(12) 0.450(10)
C4 C 0.1740(70) 0.107(11) 0.4180(80)
C5 C 0.2160(60) 0.211(10) 0.4750(80)
C6 C 0.2060(60) 0.2300(90) 0.5640(70)
C7 C 0.1170(70) 0.595(10) 0.5000(80)
C8 C 0.0440(70) 0.661(12) 0.504(11)
C9 C 0.0320(50) 0.696(12) 0.588(13)
C10 C 0.0930(90) 0.667(13) 0.668(10)
C11 C 0.1660(70) 0.602(11) 0.6650(90)
C12 C 0.1800(60) 0.562(10) 0.5810(80)
C13 C 0.2580(50) 0.4820(90) 0.5810(70)
C14 C 0.3400(60) 0.540(10) 0.6430(70)
C15 C 0.3860(60) 0.445(10) 0.7000(70)
C16 C 0.3480(60) 0.3070(90) 0.6790(70)
C17 C 0.2540(50) 0.3420(90) 0.6250(60)
C18 C 0.3930(60) 0.237(10) 0.6200(70)
C19 C 0.3480(60) 0.224(11) 0.7670(80)
C20 C 0.3460(90) 0.001(14) 0.8240(90)
C21 C 0.421(10) 0.011(19) 0.907(11)
C22 C 0.3710(70) 0.671(10) 0.6330(80)
C23 C 0.353(11) 0.865(13) 0.540(10)
C24 C 0.347(12) 0.877(14) 0.438(12)
loop_
_geom_bond_atom_site_label_1
_geom_bond_atom_site_label_2
_geom_bond_site_symmetry_1
_geom_bond_site_symmetry_2
Cl1 C1 1_555 1_555
Cl2 C7 1_555 1_555
O1 C19 1_555 1_555
O2 C19 1_555 1_555
O3 C22 1_555 1_555
O4 C22 1_555 1_555
N1 C15 1_555 1_555
N2 C18 1_555 1_555
C1 C2 1_555 1_555
C2 C3 1_555 1_555
C3 C4 1_555 1_555
C4 C5 1_555 1_555
C5 C6 1_555 1_555
C6 C1 1_555 1_555
C7 C8 1_555 1_555
C8 C9 1_555 1_555
C9 C10 1_555 1_555
C10 C11 1_555 1_555
C11 C12 1_555 1_555
C12 C7 1_555 1_555
C13 C12 1_555 1_555
C14 C13 1_555 1_555
C15 C14 1_555 1_555
C16 C15 1_555 1_555
C17 C6 1_555 1_555
C18 C16 1_555 1_555
C19 C16 1_555 1_555
C20 O1 1_555 1_555
C21 C20 1_555 1_555
C22 C14 1_555 1_555
C23 O3 1_555 1_555
C24 C23 1_555 1_555
C13 C17 1_555 1_555
C16 C17 1_555 1_555

#END
