
#######################################################################
#
#                 Cambridge Crystallographic Data Centre
#                                CCDC 
#
#######################################################################
#
# If this CIF has been generated from an entry in the Cambridge 
# Structural Database, then it will include bibliographic, chemical, 
# crystal, experimental, refinement or atomic coordinate data resulting 
# from the CCDC's data processing and validation procedures.
#
#######################################################################

data_IROKAB
_chemical_formula_moiety         'C18 H19 F3 O4 S1'
_chemical_name_systematic        
(1S*,4R*,7R*)-1,3,3-Trimethyl-5-trifluoromethanesulfonnyloxy-7-phenylbicyclo(2.2.2)oct-5-en-2-one
_symmetry_cell_setting           monoclinic
_symmetry_space_group_name_H-M   'C 2/c'
_symmetry_Int_Tables_number      15
_space_group_name_Hall           '-C 2yn'
loop_
_symmetry_equiv_pos_site_id
_symmetry_equiv_pos_as_xyz
1 x,y,z
2 1/2+x,1/2+y,z
3 x,-y,1/2+z
4 1/2+x,1/2-y,1/2+z
5 -x,-y,-z
6 1/2-x,1/2-y,-z
7 -x,y,1/2-z
8 1/2-x,1/2+y,1/2-z
_cell_length_a                   21.517(4)
_cell_length_b                   7.416(2)
_cell_length_c                   24.716(5)
_cell_angle_alpha                90
_cell_angle_beta                 109.82(2)
_cell_angle_gamma                90
_cell_volume                     3710.3
_exptl_crystal_colour            colorless
_exptl_crystal_description       'irregular block'
_chemical_melting_point          100-101deg.C
_cell_formula_units_Z            8
loop_
_atom_site_label
_atom_site_type_symbol
_atom_site_fract_x
_atom_site_fract_y
_atom_site_fract_z
S1 S 0.33966(6) 0.0237(2) 0.22580(5)
O1 O 0.47926(14) 0.6086(3) 0.41777(13)
O2 O 0.40141(15) 0.1318(5) 0.26239(12)
O3 O 0.2890(2) 0.0211(9) 0.2500(2)
O4 O 0.3302(4) 0.0603(8) 0.1681(2)
C1 C 0.39865(15) 0.3696(4) 0.39444(13)
C2 C 0.4647(2) 0.4561(4) 0.39991(13)
C3 C 0.5130(2) 0.3355(5) 0.38342(14)
C4 C 0.4768(2) 0.1523(5) 0.3646(2)
H1 H 0.5029(2) 0.0693(5) 0.3501(2)
C5 C 0.4124(2) 0.1971(5) 0.31950(13)
C6 C 0.3712(2) 0.3034(5) 0.33317(14)
H2 H 0.3297(2) 0.3345(5) 0.30784(14)
C7 C 0.42056(15) 0.2060(4) 0.43789(13)
H3 H 0.45175(15) 0.2540(4) 0.47379(13)
C8 C 0.4590(2) 0.0683(5) 0.4143(2)
H4 H 0.4991(2) 0.0323(5) 0.4447(2)
H5 H 0.4322(2) -0.0385(5) 0.4007(2)
C9 C 0.3520(2) 0.4995(5) 0.4092(2)
H6 H 0.3714(2) 0.5378(5) 0.4484(2)
H7 H 0.3108(2) 0.4400(5) 0.4042(2)
H8 H 0.3444(2) 0.6025(5) 0.3843(2)
C10 C 0.5301(2) 0.4248(6) 0.3341(2)
H9 H 0.5604(2) 0.3496(6) 0.3236(2)
H10 H 0.5500(2) 0.5402(6) 0.3465(2)
H11 H 0.4905(2) 0.4403(6) 0.3016(2)
C11 C 0.5765(2) 0.3128(7) 0.4356(2)
H12 H 0.6069(2) 0.2370(7) 0.4253(2)
H13 H 0.5660(2) 0.2585(7) 0.4667(2)
H14 H 0.5963(2) 0.4288(7) 0.4474(2)
C12 C 0.3772(5) -0.2011(12) 0.2401(4)
C13 C 0.3637(2) 0.1237(4) 0.4524(2)
C14 C 0.3606(2) 0.1493(5) 0.5075(2)
H15 H 0.3937(2) 0.2146(5) 0.5345(2)
C15 C 0.3095(2) 0.0795(6) 0.5224(2)
H16 H 0.3077(2) 0.1000(6) 0.5589(2)
C16 C 0.2614(2) -0.0199(6) 0.4834(3)
H17 H 0.2271(2) -0.0679(6) 0.4937(3)
C17 C 0.2635(2) -0.0490(7) 0.4298(3)
H18 H 0.2302(2) -0.1154(7) 0.4034(3)
C18 C 0.3159(2) 0.0214(6) 0.4142(2)
H19 H 0.3179(2) -0.0018(6) 0.3779(2)
F1 F 0.3908(5) -0.2313(7) 0.2938(3)
F2 F 0.3281(3) -0.3134(7) 0.2077(3)
F3 F 0.4230(3) -0.2040(10) 0.2196(4)
loop_
_geom_bond_atom_site_label_1
_geom_bond_atom_site_label_2
_geom_bond_site_symmetry_1
_geom_bond_site_symmetry_2
S1 O2 1_555 1_555
O1 C2 1_555 1_555
O2 C5 1_555 1_555
O3 S1 1_555 1_555
O4 S1 1_555 1_555
C1 C2 1_555 1_555
C2 C3 1_555 1_555
C3 C4 1_555 1_555
C4 H1 1_555 1_555
C5 C4 1_555 1_555
C6 C1 1_555 1_555
H2 C6 1_555 1_555
C7 C1 1_555 1_555
H3 C7 1_555 1_555
C8 C4 1_555 1_555
H4 C8 1_555 1_555
H5 C8 1_555 1_555
C9 C1 1_555 1_555
H6 C9 1_555 1_555
H7 C9 1_555 1_555
H8 C9 1_555 1_555
C10 C3 1_555 1_555
H9 C10 1_555 1_555
H10 C10 1_555 1_555
H11 C10 1_555 1_555
C11 C3 1_555 1_555
H12 C11 1_555 1_555
H13 C11 1_555 1_555
H14 C11 1_555 1_555
C12 S1 1_555 1_555
C13 C7 1_555 1_555
C14 C13 1_555 1_555
H15 C14 1_555 1_555
C15 C14 1_555 1_555
H16 C15 1_555 1_555
C16 C15 1_555 1_555
H17 C16 1_555 1_555
C17 C16 1_555 1_555
H18 C17 1_555 1_555
C18 C13 1_555 1_555
H19 C18 1_555 1_555
F1 C12 1_555 1_555
F2 C12 1_555 1_555
F3 C12 1_555 1_555
C5 C6 1_555 1_555
C7 C8 1_555 1_555
C17 C18 1_555 1_555

#END
