
#######################################################################
#
#                 Cambridge Crystallographic Data Centre
#                                CCDC 
#
#######################################################################
#
# If this CIF has been generated from an entry in the Cambridge 
# Structural Database, then it will include bibliographic, chemical, 
# crystal, experimental, refinement or atomic coordinate data resulting 
# from the CCDC's data processing and validation procedures.
#
#######################################################################

data_IROMIM
_chemical_formula_moiety         'C22 H31 N1 O6'
_chemical_name_systematic        
'(3-(4-Methoxybenzyl)-4-(2-methyl-1,3-dioxolan-2-yl)-5-oxopyrrolidin-2-yl)methyl pivalate'
_symmetry_cell_setting           monoclinic
_symmetry_space_group_name_H-M   'I 2/a'
_symmetry_Int_Tables_number      15
_space_group_name_Hall           '-I 2ya'
loop_
_symmetry_equiv_pos_site_id
_symmetry_equiv_pos_as_xyz
1 x,y,z
2 1/2-x,y,-z
3 1/2+x,1/2+y,1/2+z
4 -x,1/2+y,1/2-z
5 -x,-y,-z
6 1/2+x,-y,z
7 1/2-x,1/2-y,1/2-z
8 x,1/2-y,1/2+z
_cell_length_a                   21.7453(16)
_cell_length_b                   18.8909(14)
_cell_length_c                   21.9832(16)
_cell_angle_alpha                90
_cell_angle_beta                 100.6320(10)
_cell_angle_gamma                90
_cell_volume                     8875.41
_exptl_crystal_colour            colorless
_cell_formula_units_Z            16
loop_
_atom_site_label
_atom_site_type_symbol
_atom_site_fract_x
_atom_site_fract_y
_atom_site_fract_z
C1 C 0.04153(7) 0.99767(8) 0.42451(7)
C2 C 0.07642(7) 0.98382(8) 0.37142(7)
H1 H 0.0448 0.9767 0.3327
C3 C 0.11127(7) 0.91333(8) 0.38776(7)
H2 H 0.1573 0.9218 0.3926
C4 C 0.09579(7) 0.89076(8) 0.45126(7)
H3 H 0.0745 0.8436 0.4475
C5 C 0.11872(8) 1.04587(9) 0.36116(7)
C6 C 0.08342(10) 1.11302(10) 0.33916(9)
H4 H 0.0539 1.1034 0.3007
H5 H 0.1131 1.1496 0.3317
H6 H 0.0604 1.1295 0.3709
C7 C 0.21948(10) 1.08033(12) 0.40042(11)
H7 H 0.2557 1.0558 0.4255
H8 H 0.2249 1.1320 0.4067
C8 C 0.21348(10) 1.06155(12) 0.33276(11)
H9 H 0.2124 1.1048 0.3072
H10 H 0.2490 1.0316 0.3260
C9 C 0.09166(9) 0.85750(9) 0.33713(7)
H11 H 0.0454 0.8544 0.3285
H12 H 0.1049 0.8739 0.2988
C10 C 0.11797(8) 0.78407(9) 0.35223(8)
C11 C 0.07931(9) 0.72494(10) 0.34177(9)
H13 H 0.0360 0.7312 0.3255
C12 C 0.10241(9) 0.65734(10) 0.35445(10)
H14 H 0.0751 0.6178 0.3465
C13 C 0.18054(9) 0.77223(10) 0.37548(9)
H15 H 0.2080 0.8117 0.3826
C14 C 0.20476(9) 0.70474(10) 0.38884(9)
H16 H 0.2481 0.6983 0.4048
C15 C 0.16478(9) 0.64700(10) 0.37855(10)
C16 C 0.24808(13) 0.56427(14) 0.40620(19)
H17 H 0.2548 0.5136 0.4142
H18 H 0.2666 0.5911 0.4432
H19 H 0.2678 0.5784 0.3714
C17 C 0.15330(8) 0.88820(10) 0.50104(7)
H20 H 0.1831 0.8524 0.4909
H21 H 0.1744 0.9349 0.5052
C18 C 0.17167(8) 0.88453(9) 0.61060(7)
C19 C 0.14679(9) 0.86529(11) 0.66889(8)
C20 C 0.12859(13) 0.93449(13) 0.69596(13)
H22 H 0.1123 0.9248 0.7338
H23 H 0.0963 0.9581 0.6658
H24 H 0.1654 0.9652 0.7057
C21 C 0.08743(13) 0.81902(12) 0.65570(10)
H25 H 0.0973 0.7736 0.6383
H26 H 0.0551 0.8433 0.6261
H27 H 0.0721 0.8108 0.6943
C22 C 0.19805(16) 0.8266(3) 0.71203(12)
H28 H 0.2080 0.7824 0.6925
H29 H 0.1839 0.8157 0.7508
H30 H 0.2355 0.8565 0.7207
N1 N 0.05336(6) 0.94499(7) 0.46514(6)
O1 O 0.00683(6) 1.04820(7) 0.42863(6)
O2 O 0.16203(6) 1.05695(6) 0.41702(5)
O3 O 0.15574(6) 1.02361(7) 0.31768(5)
O4 O 0.18270(7) 0.57839(7) 0.39141(9)
O5 O 0.13259(6) 0.86947(7) 0.55817(5)
O6 O 0.22207(7) 0.91078(9) 0.61050(6)
H61 H 0.0386(9) 0.9450(10) 0.4975(9)
C23 C 0.33166(7) 0.24683(8) 0.30745(7)
C24 C 0.39083(7) 0.25802(8) 0.35526(7)
H31 H 0.4274 0.2576 0.3335
C25 C 0.38397(7) 0.33338(8) 0.38007(7)
H32 H 0.3918 0.3323 0.4263
C26 C 0.31497(7) 0.35436(8) 0.35549(7)
H33 H 0.3136 0.4023 0.3360
C27 C 0.40109(7) 0.20088(8) 0.40529(7)
C28 C 0.40755(9) 0.12644(9) 0.38116(9)
H34 H 0.4425 0.1249 0.3587
H35 H 0.3688 0.1131 0.3532
H36 H 0.4155 0.0933 0.4160
C29 C 0.38032(15) 0.18712(14) 0.50119(11)
H37 H 0.3776 0.1355 0.5081
H38 H 0.3593 0.2123 0.5311
C30 C 0.44609(14) 0.20950(13) 0.50818(10)
H39 H 0.4531 0.2541 0.5321
H40 H 0.4743 0.1727 0.5299
C31 C 0.42979(8) 0.38499(9) 0.35829(8)
H41 H 0.4731 0.3697 0.3754
H42 H 0.4242 0.3826 0.3126
C32 C 0.42183(7) 0.46079(8) 0.37703(7)
C33 C 0.43027(8) 0.47997(9) 0.43877(8)
H43 H 0.4428 0.4449 0.4695
C34 C 0.42103(8) 0.54867(9) 0.45707(7)
H44 H 0.4269 0.5603 0.4998
C35 C 0.40405(9) 0.51327(10) 0.33317(8)
H45 H 0.3980 0.5017 0.2904
C36 C 0.39508(9) 0.58217(10) 0.35072(8)
H46 H 0.3832 0.6175 0.3200
C37 C 0.40325(8) 0.60018(9) 0.41285(8)
C38 C 0.40288(15) 0.69030(12) 0.48803(11)
H47 H 0.3929 0.7407 0.4907
H48 H 0.4470 0.6824 0.5062
H49 H 0.3764 0.6625 0.5107
C39 C 0.27550(7) 0.35450(9) 0.40544(8)
H50 H 0.2722 0.3058 0.4211
H51 H 0.2955 0.3846 0.4404
C40 C 0.16580(8) 0.33622(9) 0.37178(8)
C41 C 0.10334(8) 0.37427(9) 0.35060(8)
C42 C 0.08544(10) 0.40820(13) 0.40803(10)
H52 H 0.1168 0.4437 0.4249
H53 H 0.0836 0.3717 0.4393
H54 H 0.0444 0.4310 0.3967
C43 C 0.10865(9) 0.43108(9) 0.30224(9)
H55 H 0.1205 0.4089 0.2658
H56 H 0.1406 0.4657 0.3198
H57 H 0.0683 0.4550 0.2901
C44 C 0.05528(9) 0.31857(11) 0.32397(10)
H58 H 0.0672 0.2974 0.2871
H59 H 0.0140 0.3408 0.3126
H60 H 0.0537 0.2817 0.3550
N2 N 0.29378(6) 0.30181(7) 0.30820(6)
O7 O 0.32131(6) 0.19511(7) 0.27256(6)
O8 O 0.35189(6) 0.20508(7) 0.43869(6)
O9 O 0.45695(6) 0.21945(7) 0.44744(6)
O10 O 0.39180(8) 0.66913(7) 0.42529(6)
O11 O 0.21389(5) 0.38139(6) 0.38036(6)
O12 O 0.17225(7) 0.27350(8) 0.38043(9)
H62 H 0.2587(9) 0.3036(10) 0.2851(9)
loop_
_geom_bond_atom_site_label_1
_geom_bond_atom_site_label_2
_geom_bond_site_symmetry_1
_geom_bond_site_symmetry_2
C1 C2 1_555 1_555
C2 H1 1_555 1_555
C3 C2 1_555 1_555
H2 C3 1_555 1_555
C4 C3 1_555 1_555
H3 C4 1_555 1_555
C5 C2 1_555 1_555
C6 C5 1_555 1_555
H4 C6 1_555 1_555
H5 C6 1_555 1_555
H6 C6 1_555 1_555
C7 H7 1_555 1_555
H8 C7 1_555 1_555
C8 C7 1_555 1_555
H9 C8 1_555 1_555
H10 C8 1_555 1_555
C9 C3 1_555 1_555
H11 C9 1_555 1_555
H12 C9 1_555 1_555
C10 C9 1_555 1_555
C11 C10 1_555 1_555
H13 C11 1_555 1_555
C12 C11 1_555 1_555
H14 C12 1_555 1_555
C13 C10 1_555 1_555
H15 C13 1_555 1_555
C14 C13 1_555 1_555
H16 C14 1_555 1_555
C15 C12 1_555 1_555
C16 H17 1_555 1_555
H18 C16 1_555 1_555
H19 C16 1_555 1_555
C17 C4 1_555 1_555
H20 C17 1_555 1_555
H21 C17 1_555 1_555
C18 C19 1_555 1_555
C19 C20 1_555 1_555
C20 H22 1_555 1_555
H23 C20 1_555 1_555
H24 C20 1_555 1_555
C21 C19 1_555 1_555
H25 C21 1_555 1_555
H26 C21 1_555 1_555
H27 C21 1_555 1_555
C22 C19 1_555 1_555
H28 C22 1_555 1_555
H29 C22 1_555 1_555
H30 C22 1_555 1_555
C23 C24 1_555 1_555
C24 H31 1_555 1_555
C25 C24 1_555 1_555
H32 C25 1_555 1_555
C26 C25 1_555 1_555
H33 C26 1_555 1_555
C27 C24 1_555 1_555
C28 C27 1_555 1_555
H34 C28 1_555 1_555
H35 C28 1_555 1_555
H36 C28 1_555 1_555
C29 H37 1_555 1_555
H38 C29 1_555 1_555
C30 C29 1_555 1_555
H39 C30 1_555 1_555
H40 C30 1_555 1_555
C31 C25 1_555 1_555
H41 C31 1_555 1_555
H42 C31 1_555 1_555
C32 C31 1_555 1_555
C33 C32 1_555 1_555
H43 C33 1_555 1_555
C34 C33 1_555 1_555
H44 C34 1_555 1_555
C35 C32 1_555 1_555
H45 C35 1_555 1_555
C36 C35 1_555 1_555
H46 C36 1_555 1_555
C37 C34 1_555 1_555
C38 H47 1_555 1_555
H48 C38 1_555 1_555
H49 C38 1_555 1_555
C39 C26 1_555 1_555
H50 C39 1_555 1_555
H51 C39 1_555 1_555
C40 C41 1_555 1_555
C41 C42 1_555 1_555
C42 H52 1_555 1_555
H53 C42 1_555 1_555
H54 C42 1_555 1_555
C43 C41 1_555 1_555
H55 C43 1_555 1_555
H56 C43 1_555 1_555
H57 C43 1_555 1_555
C44 C41 1_555 1_555
H58 C44 1_555 1_555
H59 C44 1_555 1_555
H60 C44 1_555 1_555
N1 C1 1_555 1_555
N2 C23 1_555 1_555
O1 C1 1_555 1_555
O2 C5 1_555 1_555
O3 C5 1_555 1_555
O4 C15 1_555 1_555
O5 C17 1_555 1_555
O6 C18 1_555 1_555
O7 C23 1_555 1_555
O8 C27 1_555 1_555
O9 C27 1_555 1_555
O10 C37 1_555 1_555
O11 C39 1_555 1_555
O12 C40 1_555 1_555
H61 N1 1_555 1_555
H62 N2 1_555 1_555
C4 N1 1_555 1_555
C7 O2 1_555 1_555
C8 O3 1_555 1_555
C14 C15 1_555 1_555
C16 O4 1_555 1_555
C18 O5 1_555 1_555
C26 N2 1_555 1_555
C29 O8 1_555 1_555
C30 O9 1_555 1_555
C36 C37 1_555 1_555
C38 O10 1_555 1_555
C40 O11 1_555 1_555

#END
