
#######################################################################
#
#                 Cambridge Crystallographic Data Centre
#                                CCDC 
#
#######################################################################
#
# If this CIF has been generated from an entry in the Cambridge 
# Structural Database, then it will include bibliographic, chemical, 
# crystal, experimental, refinement or atomic coordinate data resulting 
# from the CCDC's data processing and validation procedures.
#
#######################################################################

data_IROMOR
_chemical_formula_moiety         'C18 H22 Mg1 O14'
_chemical_name_systematic        
Tetra-aqua-bis(4-carboxyphenoxyacetato-O)-magnesium(ii)
_symmetry_cell_setting           triclinic
_symmetry_space_group_name_H-M   'P -1'
_symmetry_Int_Tables_number      2
_space_group_name_Hall           '-P 1'
loop_
_symmetry_equiv_pos_site_id
_symmetry_equiv_pos_as_xyz
1 x,y,z
2 -x,-y,-z
_cell_length_a                   4.9220(10)
_cell_length_b                   5.7550(10)
_cell_length_c                   18.432(4)
_cell_angle_alpha                94.13(3)
_cell_angle_beta                 91.95(3)
_cell_angle_gamma                96.13(3)
_cell_volume                     517.315
_exptl_crystal_colour            colorless
_exptl_crystal_description       prism
_cell_formula_units_Z            1
loop_
_atom_site_label
_atom_site_type_symbol
_atom_site_fract_x
_atom_site_fract_y
_atom_site_fract_z
Mg1 Mg 0.5000 0.5000 0.0000
O1 O 0.7673(4) 0.3553(3) 0.07109(10)
H1 H 0.879(7) 0.440(6) 0.0971(18)
H2 H 0.715(8) 0.246(5) 0.0960(19)
O2 O 0.7674(4) 0.7976(3) 0.00269(10)
H3 H 0.740(8) 0.862(6) 0.0430(13)
H4 H 0.929(4) 0.783(7) -0.003(2)
O3 O 0.2970(3) 0.6407(3) 0.08755(8)
O4 O 0.5835(3) 0.9494(3) 0.13240(9)
O5 O 0.0146(3) 0.6346(3) 0.20545(9)
O6 O -0.8875(4) 0.3524(4) 0.42565(10)
O7 O -0.7329(4) 0.7041(4) 0.47962(10)
H5 H -0.8582 0.6703 0.5065
C1 C 0.3743(5) 0.8047(4) 0.13468(12)
C2 C 0.2055(5) 0.8371(4) 0.20142(12)
H6 H 0.3247 0.8601 0.2449
H7 H 0.1088 0.9746 0.1983
C3 C -0.1532(5) 0.6267(5) 0.26359(12)
C4 C -0.3264(5) 0.4205(5) 0.26426(13)
H8 H -0.3197 0.3008 0.2279
C5 C -0.5090(5) 0.3937(5) 0.31916(14)
H9 H -0.6245 0.2550 0.3197
C6 C -0.5217(5) 0.5718(5) 0.37346(12)
C7 C -0.3443(5) 0.7764(5) 0.37298(13)
H10 H -0.3493 0.8951 0.4097
C8 C -0.1598(5) 0.8053(5) 0.31825(13)
H11 H -0.0418 0.9427 0.3181
C9 C -0.7268(5) 0.5403(5) 0.43020(13)
O1A O 0.2327(4) 0.6447(3) -0.07109(10)
H1A H 0.121(7) 0.560(6) -0.0971(18)
H2A H 0.285(8) 0.754(5) -0.0960(19)
O2A O 0.2326(4) 0.2024(3) -0.00269(10)
H3A H 0.260(8) 0.138(6) -0.0430(13)
H4A H 0.071(4) 0.217(7) 0.003(2)
O3A O 0.7030(3) 0.3593(3) -0.08755(8)
C1A C 0.6257(5) 0.1953(4) -0.13468(12)
O4A O 0.4165(3) 0.0506(3) -0.13240(9)
C2A C 0.7945(5) 0.1629(4) -0.20142(12)
O5A O 0.9854(3) 0.3654(3) -0.20545(9)
C3A C 1.1532(5) 0.3733(5) -0.26359(12)
C4A C 1.3264(5) 0.5795(5) -0.26426(13)
H8A H 1.3197 0.6992 -0.2279
C5A C 1.5090(5) 0.6063(5) -0.31916(14)
H9A H 1.6245 0.7450 -0.3197
C6A C 1.5217(5) 0.4282(5) -0.37346(12)
C7A C 1.3443(5) 0.2236(5) -0.37298(13)
H10A H 1.3493 0.1049 -0.4097
C8A C 1.1598(5) 0.1947(5) -0.31825(13)
H11A H 1.0418 0.0573 -0.3181
C9A C 1.7268(5) 0.4597(5) -0.43020(13)
O6A O 1.8875(4) 0.6476(4) -0.42565(10)
O7A O 1.7329(4) 0.2959(4) -0.47962(10)
H5A H 1.8582 0.3297 -0.5065
H6A H 0.6753 0.1399 -0.2449
H7A H 0.8912 0.0254 -0.1983
loop_
_geom_bond_atom_site_label_1
_geom_bond_atom_site_label_2
_geom_bond_site_symmetry_1
_geom_bond_site_symmetry_2
Mg1 O1 1_555 1_555
O1 H1 1_555 1_555
H2 O1 1_555 1_555
O2 Mg1 1_555 1_555
H3 O2 1_555 1_555
H4 O2 1_555 1_555
O3 Mg1 1_555 1_555
O4 C1 1_555 1_555
O5 C2 1_555 1_555
O6 C9 1_555 1_555
O7 H5 1_555 1_555
C1 O3 1_555 1_555
C2 C1 1_555 1_555
H6 C2 1_555 1_555
H7 C2 1_555 1_555
C3 O5 1_555 1_555
C4 C3 1_555 1_555
H8 C4 1_555 1_555
C5 C4 1_555 1_555
H9 C5 1_555 1_555
C6 C5 1_555 1_555
C7 C6 1_555 1_555
H10 C7 1_555 1_555
C8 C3 1_555 1_555
H11 C8 1_555 1_555
C9 O7 1_555 1_555
O1A Mg1 1_555 1_555
H1A O1A 1_555 1_555
H2A O1A 1_555 1_555
O2A Mg1 1_555 1_555
H3A O2A 1_555 1_555
H4A O2A 1_555 1_555
O3A Mg1 1_555 1_555
C1A O3A 1_555 1_555
O4A C1A 1_555 1_555
C2A C1A 1_555 1_555
O5A C2A 1_555 1_555
C3A O5A 1_555 1_555
C4A C3A 1_555 1_555
H8A C4A 1_555 1_555
C5A C4A 1_555 1_555
H9A C5A 1_555 1_555
C6A C5A 1_555 1_555
C7A C6A 1_555 1_555
H10A C7A 1_555 1_555
C8A C3A 1_555 1_555
H11A C8A 1_555 1_555
C9A C6A 1_555 1_555
O6A C9A 1_555 1_555
O7A C9A 1_555 1_555
H5A O7A 1_555 1_555
H6A C2A 1_555 1_555
H7A C2A 1_555 1_555
C6 C9 1_555 1_555
C7 C8 1_555 1_555
C7A C8A 1_555 1_555

#END
