
#######################################################################
#
#                 Cambridge Crystallographic Data Centre
#                                CCDC 
#
#######################################################################
#
# If this CIF has been generated from an entry in the Cambridge 
# Structural Database, then it will include bibliographic, chemical, 
# crystal, experimental, refinement or atomic coordinate data resulting 
# from the CCDC's data processing and validation procedures.
#
#######################################################################

data_IROQIR
_chemical_formula_moiety         'C25 H26 Br1 N3 O6'
_chemical_name_systematic        
'ethyl 5-bromo-6-(2,5-dioxopyrrolidin-1-yl)-5-methyl-3-nitro-1,4-diphenylpiperidine-2-carboxylate'
_symmetry_cell_setting           trigonal
_symmetry_space_group_name_H-M   'P 32'
_symmetry_Int_Tables_number      145
_space_group_name_Hall           'P 32'
loop_
_symmetry_equiv_pos_site_id
_symmetry_equiv_pos_as_xyz
1 x,y,z
2 -y,x-y,2/3+z
3 -x+y,-x,1/3+z
_cell_length_a                   11.6975(2)
_cell_length_b                   11.6975(2)
_cell_length_c                   16.1753(3)
_cell_angle_alpha                90
_cell_angle_beta                 90
_cell_angle_gamma                120
_cell_volume                     1916.77
_exptl_crystal_colour            colorless
_exptl_crystal_description       prism
_cell_formula_units_Z            3
loop_
_atom_site_label
_atom_site_type_symbol
_atom_site_fract_x
_atom_site_fract_y
_atom_site_fract_z
C1 C 0.6002(3) 0.5696(3) 0.83265(14)
C2 C 0.4614(3) 0.4488(3) 0.84212(15)
H1 H 0.4455 0.3957 0.7920
C3 C 0.2826(3) 0.4680(4) 0.77426(19)
C4 C 0.1847(4) 0.5103(5) 0.7933(2)
H2 H 0.0969 0.4434 0.7761
H3 H 0.2077 0.5923 0.7653
C5 C 0.1904(4) 0.5285(5) 0.8857(2)
H4 H 0.2040 0.6151 0.8996
H5 H 0.1088 0.4621 0.9111
C6 C 0.3043(4) 0.5144(3) 0.91529(19)
C7 C 0.3236(3) 0.2586(3) 0.93508(18)
C8 C 0.2201(4) 0.1934(4) 0.8820(3)
H6 H 0.2303 0.2163 0.8263
C9 C 0.0988(5) 0.0922(6) 0.9110(4)
H7 H 0.0277 0.0494 0.8750
C10 C 0.0851(6) 0.0564(7) 0.9923(5)
H8 H 0.0036 -0.0093 1.0118
C11 C 0.1884(6) 0.1153(6) 1.0449(3)
H9 H 0.1791 0.0872 1.0995
C12 C 0.3086(4) 0.2179(4) 1.0172(2)
H10 H 0.3792 0.2595 1.0537
C13 C 0.5469(3) 0.3162(3) 0.90752(16)
H11 H 0.5452 0.2768 0.9613
C14 C 0.5076(3) 0.2072(3) 0.84226(19)
C15 C 0.5021(12) 0.0037(10) 0.8190(5)
H12 H 0.5880 0.0228 0.7990
H13 H 0.4470 -0.0048 0.7719
C16 C 0.4398(10) -0.1203(9) 0.8694(5)
H14 H 0.4325 -0.1921 0.8366
H15 H 0.3534 -0.1397 0.8868
H16 H 0.4934 -0.1088 0.9170
C17 C 0.6859(3) 0.4323(3) 0.89571(16)
H17 H 0.7110 0.4860 0.9461
C18 C 0.6998(3) 0.5212(3) 0.82269(14)
H18 H 0.6720 0.4645 0.7736
C19 C 0.8413(3) 0.6270(3) 0.80738(16)
C20 C 0.9310(4) 0.6910(4) 0.8710(2)
H19 H 0.9048 0.6693 0.9257
C21 C 1.0596(4) 0.7872(5) 0.8526(3)
H20 H 1.1192 0.8296 0.8954
C22 C 1.0995(4) 0.8202(6) 0.7733(3)
H21 H 1.1856 0.8858 0.7617
C23 C 1.0131(4) 0.7570(5) 0.7108(3)
H22 H 1.0406 0.7798 0.6564
C24 C 0.8866(4) 0.6607(4) 0.72660(19)
H23 H 0.8299 0.6168 0.6828
C25 C 0.6047(3) 0.6546(3) 0.75991(17)
H24 H 0.5413 0.6827 0.7683
H25 H 0.5843 0.6041 0.7098
H26 H 0.6915 0.7305 0.7558
N1 N 0.3555(2) 0.4812(2) 0.84562(12)
N2 N 0.4519(2) 0.3635(2) 0.91194(13)
N3 N 0.7787(3) 0.3794(3) 0.88508(18)
O1 O 0.3003(2) 0.4300(3) 0.70896(13)
O2 O 0.3439(3) 0.5264(3) 0.98466(14)
O3 O 0.4760(3) 0.2134(2) 0.77244(13)
O4 O 0.5148(2) 0.1079(2) 0.87388(12)
O5 O 0.8409(3) 0.3795(3) 0.94463(16)
O6 O 0.7873(3) 0.3395(3) 0.81766(19)
Br1 Br 0.64604(4) 0.68322(3) 0.93149(2)
C26? C 0.4589(11) -0.0107(9) 0.8203(5)
H27? H 0.4821 0.0127 0.7627
H28? H 0.3637 -0.0627 0.8254
C27? C 0.5269(11) -0.0848(10) 0.8560(6)
H29? H 0.4985 -0.1651 0.8257
H30? H 0.5033 -0.1051 0.9131
H31? H 0.6209 -0.0300 0.8513
loop_
_geom_bond_atom_site_label_1
_geom_bond_atom_site_label_2
_geom_bond_site_symmetry_1
_geom_bond_site_symmetry_2
C1 C2 1_555 1_555
C2 H1 1_555 1_555
C3 C4 1_555 1_555
C4 H2 1_555 1_555
H3 C4 1_555 1_555
C5 C4 1_555 1_555
H4 C5 1_555 1_555
H5 C5 1_555 1_555
C6 C5 1_555 1_555
C7 C8 1_555 1_555
C8 H6 1_555 1_555
C9 C8 1_555 1_555
H7 C9 1_555 1_555
C10 C9 1_555 1_555
H8 C10 1_555 1_555
C11 C10 1_555 1_555
H9 C11 1_555 1_555
C12 C7 1_555 1_555
H10 C12 1_555 1_555
C13 H11 1_555 1_555
C14 C13 1_555 1_555
C15 H12 1_555 1_555
H13 C15 1_555 1_555
C16 C15 1_555 1_555
H14 C16 1_555 1_555
H15 C16 1_555 1_555
H16 C16 1_555 1_555
C17 C13 1_555 1_555
H17 C17 1_555 1_555
C18 C1 1_555 1_555
H18 C18 1_555 1_555
C19 C18 1_555 1_555
C20 C19 1_555 1_555
H19 C20 1_555 1_555
C21 C20 1_555 1_555
H20 C21 1_555 1_555
C22 C21 1_555 1_555
H21 C22 1_555 1_555
C23 C22 1_555 1_555
H22 C23 1_555 1_555
C24 C19 1_555 1_555
H23 C24 1_555 1_555
C25 C1 1_555 1_555
H24 C25 1_555 1_555
H25 C25 1_555 1_555
H26 C25 1_555 1_555
N1 C2 1_555 1_555
N2 C2 1_555 1_555
N3 C17 1_555 1_555
O1 C3 1_555 1_555
O2 C6 1_555 1_555
O3 C14 1_555 1_555
O4 C14 1_555 1_555
O5 N3 1_555 1_555
O6 N3 1_555 1_555
Br1 C1 1_555 1_555
C3 N1 1_555 1_555
C6 N1 1_555 1_555
C7 N2 1_555 1_555
C11 C12 1_555 1_555
C13 N2 1_555 1_555
C15 O4 1_555 1_555
C17 C18 1_555 1_555
C23 C24 1_555 1_555

#END
