
#######################################################################
#
#                 Cambridge Crystallographic Data Centre
#                                CCDC 
#
#######################################################################
#
# If this CIF has been generated from an entry in the Cambridge 
# Structural Database, then it will include bibliographic, chemical, 
# crystal, experimental, refinement or atomic coordinate data resulting 
# from the CCDC's data processing and validation procedures.
#
#######################################################################

data_IROQAJ
_chemical_formula_moiety         'C25 H26 Cl1 N3 O6'
_chemical_name_systematic        
'ethyl 5-chloro-6-(2,5-dioxopyrrolidin-1-yl)-5-methyl-3-nitro-1,4-diphenylpiperidine-2-carboxylate'
_symmetry_cell_setting           trigonal
_symmetry_space_group_name_H-M   'P 32'
_symmetry_Int_Tables_number      145
_space_group_name_Hall           'P 32'
loop_
_symmetry_equiv_pos_site_id
_symmetry_equiv_pos_as_xyz
1 x,y,z
2 -y,x-y,2/3+z
3 -x+y,-x,1/3+z
_cell_length_a                   11.6368(9)
_cell_length_b                   11.6368(9)
_cell_length_c                   15.8560(12)
_cell_angle_alpha                90
_cell_angle_beta                 90
_cell_angle_gamma                120
_cell_volume                     1859.48
_exptl_crystal_colour            colorless
_exptl_crystal_description       prism
_cell_formula_units_Z            3
loop_
_atom_site_label
_atom_site_type_symbol
_atom_site_fract_x
_atom_site_fract_y
_atom_site_fract_z
C1 C 0.7569(3) 0.0620(3) 0.85867(15)
C2 C 0.6693(3) 0.0565(3) 0.93220(17)
H1 H 0.7205 0.0789 0.9847
H2 H 0.5924 -0.0332 0.9366
H3 H 0.6390 0.1202 0.9225
C3 C 0.8792(3) 0.2017(3) 0.84969(16)
H4 H 0.9337 0.2179 0.9018
C4 C 0.8070(3) 0.3553(3) 0.77544(19)
C5 C 0.7936(4) 0.4703(4) 0.8055(2)
H5 H 0.7047 0.4563 0.7914
H6 H 0.8614 0.5536 0.7785
C6 C 0.8131(4) 0.4779(4) 0.89999(19)
H7 H 0.8802 0.5688 0.9175
H8 H 0.7287 0.4521 0.9296
C7 C 0.8598(3) 0.3820(3) 0.91872(17)
C8 C 1.0701(3) 0.3384(3) 0.75239(18)
C9 C 1.1330(4) 0.4450(4) 0.8045(2)
H9 H 1.1075 0.4375 0.8621
C10 C 1.2351(4) 0.5653(4) 0.7735(3)
H10 H 1.2778 0.6401 0.8098
C11 C 1.2740(5) 0.5757(4) 0.6905(3)
H11 H 1.3423 0.6581 0.6692
C12 C 1.2149(4) 0.4686(5) 0.6393(3)
H12 H 1.2442 0.4750 0.5827
C13 C 1.1113(3) 0.3492(4) 0.6691(2)
H13 H 1.0686 0.2749 0.6325
C14 C 1.0116(3) 0.1140(3) 0.78316(16)
H14 H 1.0517 0.1149 0.7272
C15 C 1.1209(3) 0.1544(3) 0.84984(19)
C16 C 1.3394(3) 0.1913(4) 0.8708(2)
H15 H 1.3743 0.2848 0.8878
H16 H 1.3152 0.1362 0.9224
C17 C 1.4369(5) 0.1793(8) 0.8255(3)
H17 H 1.4473 0.2188 0.7694
H18 H 1.4097 0.0852 0.8196
H19 H 1.5215 0.2255 0.8558
C18 C 0.8936(3) -0.0269(3) 0.79652(17)
H20 H 0.8383 -0.0544 0.7442
C19 C 0.8048(3) -0.0388(3) 0.87115(16)
H21 H 0.8631 -0.0091 0.9222
C20 C 0.6976(3) -0.1807(3) 0.88779(18)
C21 C 0.6308(3) -0.2705(3) 0.8229(2)
H22 H 0.6524 -0.2434 0.7658
C22 C 0.5329(4) -0.3996(4) 0.8415(2)
H23 H 0.4889 -0.4604 0.7969
C23 C 0.4990(5) -0.4403(4) 0.9234(2)
H24 H 0.4304 -0.5281 0.9356
C24 C 0.5657(4) -0.3521(4) 0.9880(2)
H25 H 0.5430 -0.3796 1.0449
C25 C 0.6644(3) -0.2248(3) 0.97065(18)
H26 H 0.7108 -0.1661 1.0158
N1 N 0.8454(2) 0.3072(2) 0.84577(12)
N2 N 0.9630(2) 0.2089(2) 0.77808(13)
N3 N 0.9472(3) -0.1196(3) 0.80952(17)
O1 O 0.7922(2) 0.3129(2) 0.70452(12)
O2 O 0.9036(2) 0.3676(2) 0.98463(12)
O3 O 1.1181(2) 0.1918(3) 0.92016(13)
O4 O 1.2223(2) 0.1475(2) 0.81734(12)
O5 O 0.9887(3) -0.1260(3) 0.87908(16)
O6 O 0.9482(3) -0.1836(2) 0.74924(15)
Cl1 Cl 0.65515(7) 0.01893(8) 0.76450(4)
loop_
_geom_bond_atom_site_label_1
_geom_bond_atom_site_label_2
_geom_bond_site_symmetry_1
_geom_bond_site_symmetry_2
C1 C2 1_555 1_555
C2 H1 1_555 1_555
H2 C2 1_555 1_555
H3 C2 1_555 1_555
C3 C1 1_555 1_555
H4 C3 1_555 1_555
C4 C5 1_555 1_555
C5 H5 1_555 1_555
H6 C5 1_555 1_555
C6 C5 1_555 1_555
H7 C6 1_555 1_555
H8 C6 1_555 1_555
C7 C6 1_555 1_555
C8 C9 1_555 1_555
C9 H9 1_555 1_555
C10 C9 1_555 1_555
H10 C10 1_555 1_555
C11 C10 1_555 1_555
H11 C11 1_555 1_555
C12 C11 1_555 1_555
H12 C12 1_555 1_555
C13 C8 1_555 1_555
H13 C13 1_555 1_555
C14 H14 1_555 1_555
C15 C14 1_555 1_555
C16 H15 1_555 1_555
H16 C16 1_555 1_555
C17 C16 1_555 1_555
H17 C17 1_555 1_555
H18 C17 1_555 1_555
H19 C17 1_555 1_555
C18 C14 1_555 1_555
H20 C18 1_555 1_555
C19 C1 1_555 1_555
H21 C19 1_555 1_555
C20 C19 1_555 1_555
C21 C20 1_555 1_555
H22 C21 1_555 1_555
C22 C21 1_555 1_555
H23 C22 1_555 1_555
C23 C22 1_555 1_555
H24 C23 1_555 1_555
C24 C23 1_555 1_555
H25 C24 1_555 1_555
C25 C20 1_555 1_555
H26 C25 1_555 1_555
N1 C3 1_555 1_555
N2 C3 1_555 1_555
N3 C18 1_555 1_555
O1 C4 1_555 1_555
O2 C7 1_555 1_555
O3 C15 1_555 1_555
O4 C15 1_555 1_555
O5 N3 1_555 1_555
O6 N3 1_555 1_555
Cl1 C1 1_555 1_555
C4 N1 1_555 1_555
C7 N1 1_555 1_555
C8 N2 1_555 1_555
C12 C13 1_555 1_555
C14 N2 1_555 1_555
C16 O4 1_555 1_555
C18 C19 1_555 1_555
C24 C25 1_555 1_555

#END
