
#######################################################################
#
#                 Cambridge Crystallographic Data Centre
#                                CCDC 
#
#######################################################################
#
# If this CIF has been generated from an entry in the Cambridge 
# Structural Database, then it will include bibliographic, chemical, 
# crystal, experimental, refinement or atomic coordinate data resulting 
# from the CCDC's data processing and validation procedures.
#
#######################################################################

data_IROTIT
_chemical_formula_moiety         '0.5(C6 H20 N4 2+),H4 B5 O10 1-'
_chemical_name_systematic        
'hemikis(triethylenetetraamine) tetrahydroxypentaborate'
_symmetry_cell_setting           monoclinic
_symmetry_space_group_name_H-M   'P 21/c'
_symmetry_Int_Tables_number      14
_space_group_name_Hall           '-P 2ybc'
loop_
_symmetry_equiv_pos_site_id
_symmetry_equiv_pos_as_xyz
1 x,y,z
2 -x,1/2+y,1/2-z
3 -x,-y,-z
4 x,1/2-y,1/2+z
_cell_length_a                   9.200(3)
_cell_length_b                   14.121(5)
_cell_length_c                   10.330(4)
_cell_angle_alpha                90
_cell_angle_beta                 91.512(4)
_cell_angle_gamma                90
_cell_volume                     1341.54
_cell_formula_units_Z            4
loop_
_atom_site_label
_atom_site_type_symbol
_atom_site_fract_x
_atom_site_fract_y
_atom_site_fract_z
N1 N -0.2822(3) 0.1139(2) 1.2641(3)
H2 H -0.2335 0.0596 1.2713
H3 H -0.2231 0.1619 1.2841
H4 H -0.3562 0.1135 1.3180
C1 C -0.3381(4) 0.1250(3) 1.1307(4)
H5 H -0.4432 0.1308 1.1305
H6 H -0.2987 0.1823 1.0935
N2 N -0.1393(4) 0.0232(2) 1.0548(3)
H7 H -0.1072 0.0301 1.1383
C2 C -0.2955(5) 0.0397(3) 1.0492(4)
H8 H -0.3266 0.0503 0.9599
H9 H -0.3452 -0.0161 1.0801
C3 C -0.0596(5) 0.0903(3) 0.9736(5)
H13 H -0.0904 0.0826 0.8836
H14 H -0.0814 0.1547 0.9994
C4 C -0.1041(5) -0.0727(3) 1.0122(5)
H15 H -0.1559 -0.1184 1.0637
H16 H -0.1350 -0.0808 0.9223
N1B N 0.2822(3) -0.1139(2) 0.7359(3)
H2B H 0.2335 -0.0596 0.7287
H3B H 0.2231 -0.1619 0.7159
H4B H 0.3562 -0.1135 0.6820
C1B C 0.3381(4) -0.1250(3) 0.8693(4)
H5B H 0.4432 -0.1308 0.8695
H6B H 0.2987 -0.1823 0.9065
N2B N 0.1393(4) -0.0232(2) 0.9452(3)
H7B H 0.1072 -0.0301 0.8617
C2B C 0.2955(5) -0.0397(3) 0.9508(4)
H8B H 0.3266 -0.0503 1.0401
H9B H 0.3452 0.0161 0.9199
C3B C 0.0596(5) -0.0903(3) 1.0264(5)
H13B H 0.0904 -0.0826 1.1164
H14B H 0.0814 -0.1547 1.0006
C4B C 0.1041(5) 0.0727(3) 0.9878(5)
H15B H 0.1559 0.1184 0.9363
H16B H 0.1350 0.0808 1.0777
O1 O 0.4498(3) 0.2311(2) 0.3407(3)
H1 H 0.3772 0.2476 0.2987
B1 B 0.4092(4) 0.1868(3) 0.4494(4)
O2 O 0.5194(2) 0.14509(18) 0.5231(2)
B2 B 0.4824(4) 0.0862(3) 0.6237(4)
O3 O 0.5854(2) 0.0330(2) 0.6851(3)
H10 H 0.6639 0.0414 0.6512
B3 B 0.2275(4) 0.1396(3) 0.6077(3)
O4 O 0.3426(2) 0.07793(15) 0.6609(2)
B4 B 0.0596(4) 0.2417(3) 0.7290(3)
O5 O 0.2696(2) 0.18221(17) 0.4856(2)
B5 B -0.0400(4) 0.1158(3) 0.6043(3)
O6 O 0.0964(2) 0.08203(15) 0.5825(2)
O7 O 0.1955(2) 0.21490(15) 0.7034(2)
O8 O 0.0284(2) 0.31231(18) 0.8141(2)
H11 H 0.0954 0.3176 0.8676
O9 O -0.0612(2) 0.19835(16) 0.6702(2)
O10 O -0.1583(2) 0.06661(19) 0.5628(3)
H12 H -0.1326 0.0217 0.5187
loop_
_geom_bond_atom_site_label_1
_geom_bond_atom_site_label_2
_geom_bond_site_symmetry_1
_geom_bond_site_symmetry_2
O1 H1 1_555 1_555
N1 H2 1_555 1_555
H3 N1 1_555 1_555
H4 N1 1_555 1_555
B1 O1 1_555 1_555
C1 N1 1_555 1_555
H5 C1 1_555 1_555
H6 C1 1_555 1_555
O2 B1 1_555 1_555
B2 O2 1_555 1_555
N2 H7 1_555 1_555
C2 C1 1_555 1_555
H8 C2 1_555 1_555
H9 C2 1_555 1_555
O3 B2 1_555 1_555
H10 O3 1_555 1_555
B3 O4 1_555 1_555
O4 B2 1_555 1_555
B4 O7 1_555 1_555
O5 B1 1_555 1_555
B5 O6 1_555 1_555
O6 B3 1_555 1_555
O7 B3 1_555 1_555
O8 B4 1_555 1_555
H11 O8 1_555 1_555
O9 B4 1_555 1_555
O10 B5 1_555 1_555
H12 O10 1_555 1_555
C3 N2 1_555 1_555
H13 C3 1_555 1_555
H14 C3 1_555 1_555
C4 N2 1_555 1_555
H15 C4 1_555 1_555
H16 C4 1_555 1_555
N1B H2B 1_555 1_555
H3B N1B 1_555 1_555
H4B N1B 1_555 1_555
C1B N1B 1_555 1_555
H5B C1B 1_555 1_555
H6B C1B 1_555 1_555
N2B H7B 1_555 1_555
C2B C1B 1_555 1_555
H8B C2B 1_555 1_555
H9B C2B 1_555 1_555
C3B C4 1_555 1_555
H13B C3B 1_555 1_555
H14B C3B 1_555 1_555
C4B C3 1_555 1_555
H15B C4B 1_555 1_555
H16B C4B 1_555 1_555
N2 C2 1_555 1_555
B3 O5 1_555 1_555
B5 O9 1_555 1_555
N2B C2B 1_555 1_555
N2B C3B 1_555 1_555
N2B C4B 1_555 1_555

#END
