
#######################################################################
#
#                 Cambridge Crystallographic Data Centre
#                                CCDC 
#
#######################################################################
#
# If this CIF has been generated from an entry in the Cambridge 
# Structural Database, then it will include bibliographic, chemical, 
# crystal, experimental, refinement or atomic coordinate data resulting 
# from the CCDC's data processing and validation procedures.
#
#######################################################################

data_IROTIU
_chemical_formula_moiety         'C34 H26 S2,2(C1 H1 Cl3)'
_chemical_name_systematic        
'29,34-dithiaheptacyclo[23.7.3.1^11,15^.0^4,31^.0^5,10^.0^16,21^.0^22,27^]hexatriaconta-1,3,5,7,9,11(36),12,14,16,18,20,22,24,26,31-pentadecaene chloroform solvate'
_symmetry_cell_setting           triclinic
_symmetry_space_group_name_H-M   'P -1'
_symmetry_Int_Tables_number      2
_space_group_name_Hall           '-P 1'
loop_
_symmetry_equiv_pos_site_id
_symmetry_equiv_pos_as_xyz
1 x,y,z
2 -x,-y,-z
_cell_length_a                   8.9908(3)
_cell_length_b                   10.1997(5)
_cell_length_c                   19.3637(9)
_cell_angle_alpha                80.763(2)
_cell_angle_beta                 83.296(2)
_cell_angle_gamma                69.966(2)
_cell_volume                     1642.98
_exptl_crystal_colour            colorless
_exptl_crystal_description       plates
_cell_formula_units_Z            2
loop_
_atom_site_label
_atom_site_type_symbol
_atom_site_fract_x
_atom_site_fract_y
_atom_site_fract_z
C1 C 0.6391(2) 0.3687(2) 0.17875(12)
H1 H 0.6901 0.3858 0.1316
H2 H 0.7136 0.2839 0.2040
S1 S 0.61466(6) 0.51629(6) 0.22473(3)
C2 C 0.5769(2) 0.4457(3) 0.31414(12)
H3 H 0.6613 0.3541 0.3247
H4 H 0.5867 0.5097 0.3454
C3 C 0.4186(2) 0.4235(2) 0.33269(11)
C4 C 0.4084(2) 0.3053(2) 0.37690(11)
H5 H 0.5023 0.2355 0.3936
C5 C 0.2625(2) 0.2878(2) 0.39704(11)
H6 H 0.2577 0.2075 0.4285
C6 C 0.1220(2) 0.3866(2) 0.37167(11)
C7 C 0.1318(2) 0.5014(2) 0.32322(11)
C8 C 0.2782(2) 0.5209(2) 0.30686(11)
H7 H 0.2831 0.6033 0.2771
C9 C -0.0143(2) 0.6030(2) 0.28812(11)
H8 H -0.0594 0.6841 0.3151
H9 H -0.0944 0.5552 0.2916
S2 S 0.01513(6) 0.67053(5) 0.19647(3)
C10 C 0.0456(2) 0.5219(2) 0.14949(11)
H10 H -0.0359 0.4779 0.1681
H11 H 0.0267 0.5584 0.0996
C11 C 0.2073(2) 0.4075(2) 0.15261(11)
C12 C 0.2215(2) 0.2684(2) 0.14873(11)
C13 C 0.3699(2) 0.1632(2) 0.15890(11)
H12 H 0.3803 0.0676 0.1580
C14 C 0.5007(2) 0.1969(2) 0.17018(11)
H13 H 0.5989 0.1240 0.1784
C15 C 0.4899(2) 0.3360(2) 0.16959(11)
C16 C 0.3433(2) 0.4392(2) 0.16048(11)
H14 H 0.3349 0.5349 0.1596
C17 C -0.0307(2) 0.3721(2) 0.40586(11)
C18 C -0.1291(2) 0.4773(2) 0.44418(11)
H15 H -0.1073 0.5629 0.4413
C19 C -0.2586(2) 0.4601(2) 0.48653(12)
H16 H -0.3245 0.5333 0.5122
C20 C -0.2909(2) 0.3357(2) 0.49119(11)
H17 H -0.3770 0.3217 0.5213
C21 C -0.1972(2) 0.2316(2) 0.45177(11)
H18 H -0.2214 0.1472 0.4544
C22 C -0.0677(2) 0.2480(2) 0.40814(10)
C23 C 0.0177(2) 0.1387(2) 0.36177(11)
C24 C 0.0825(2) -0.0032(2) 0.38816(11)
H19 H 0.0833 -0.0305 0.4374
C25 C 0.1455(2) -0.1045(2) 0.34340(12)
H20 H 0.1928 -0.2002 0.3621
C26 C 0.1402(2) -0.0677(2) 0.27146(11)
H21 H 0.1812 -0.1384 0.2412
C27 C 0.0745(2) 0.0736(2) 0.24341(11)
C28 C 0.0184(2) 0.1751(2) 0.28909(11)
H22 H -0.0204 0.2717 0.2703
C29 C 0.0453(2) 0.1166(2) 0.16780(11)
C30 C -0.0475(2) 0.0564(2) 0.13829(11)
H23 H -0.0781 -0.0178 0.1651
C31 C -0.0949(2) 0.1038(2) 0.07070(12)
H24 H -0.1550 0.0603 0.0509
C32 C -0.0548(2) 0.2142(2) 0.03200(12)
H25 H -0.0922 0.2504 -0.0134
C33 C 0.0407(2) 0.2724(2) 0.05975(11)
H26 H 0.0695 0.3473 0.0326
C34 C 0.0949(2) 0.2224(2) 0.12703(11)
C35 C 0.5568(2) -0.0442(2) 0.33452(12)
H27 H 0.4658 0.0421 0.3204
Cl1 Cl 0.73234(6) -0.00080(7) 0.32053(3)
Cl2 Cl 0.56734(7) -0.17374(7) 0.28252(4)
Cl3 Cl 0.52532(8) -0.10036(8) 0.42414(4)
C36 C 0.4608(3) 0.2023(3) -0.03508(13)
H28 H 0.4495 0.1455 0.0112
Cl4 Cl 0.32596(7) 0.19035(8) -0.09041(4)
Cl5 Cl 0.42251(9) 0.37589(7) -0.02105(4)
Cl6 Cl 0.65691(8) 0.13102(8) -0.07131(4)
loop_
_geom_bond_atom_site_label_1
_geom_bond_atom_site_label_2
_geom_bond_site_symmetry_1
_geom_bond_site_symmetry_2
C1 H1 1_555 1_555
H2 C1 1_555 1_555
S1 C1 1_555 1_555
C2 S1 1_555 1_555
H3 C2 1_555 1_555
H4 C2 1_555 1_555
C3 C2 1_555 1_555
C4 C3 1_555 1_555
H5 C4 1_555 1_555
C5 C4 1_555 1_555
H6 C5 1_555 1_555
C6 C5 1_555 1_555
C7 C6 1_555 1_555
C8 C3 1_555 1_555
H7 C8 1_555 1_555
C9 C7 1_555 1_555
H8 C9 1_555 1_555
H9 C9 1_555 1_555
S2 C9 1_555 1_555
C10 S2 1_555 1_555
H10 C10 1_555 1_555
H11 C10 1_555 1_555
C11 C10 1_555 1_555
C12 C11 1_555 1_555
C13 C12 1_555 1_555
H12 C13 1_555 1_555
C14 C13 1_555 1_555
H13 C14 1_555 1_555
C15 C1 1_555 1_555
C16 C11 1_555 1_555
H14 C16 1_555 1_555
C17 C6 1_555 1_555
C18 C17 1_555 1_555
H15 C18 1_555 1_555
C19 C18 1_555 1_555
H16 C19 1_555 1_555
C20 C19 1_555 1_555
H17 C20 1_555 1_555
C21 C20 1_555 1_555
H18 C21 1_555 1_555
C22 C17 1_555 1_555
C23 C22 1_555 1_555
C24 C23 1_555 1_555
H19 C24 1_555 1_555
C25 C24 1_555 1_555
H20 C25 1_555 1_555
C26 C25 1_555 1_555
H21 C26 1_555 1_555
C27 C26 1_555 1_555
C28 C23 1_555 1_555
H22 C28 1_555 1_555
C29 C27 1_555 1_555
C30 C29 1_555 1_555
H23 C30 1_555 1_555
C31 C30 1_555 1_555
H24 C31 1_555 1_555
C32 C31 1_555 1_555
H25 C32 1_555 1_555
C33 C32 1_555 1_555
H26 C33 1_555 1_555
C34 C12 1_555 1_555
C35 H27 1_555 1_555
Cl1 C35 1_555 1_555
Cl2 C35 1_555 1_555
Cl3 C35 1_555 1_555
C36 H28 1_555 1_555
Cl4 C36 1_555 1_555
Cl5 C36 1_555 1_555
Cl6 C36 1_555 1_555
C7 C8 1_555 1_555
C14 C15 1_555 1_555
C15 C16 1_555 1_555
C21 C22 1_555 1_555
C27 C28 1_555 1_555
C29 C34 1_555 1_555
C33 C34 1_555 1_555

#END
