
#######################################################################
#
#                 Cambridge Crystallographic Data Centre
#                                CCDC 
#
#######################################################################
#
# If this CIF has been generated from an entry in the Cambridge 
# Structural Database, then it will include bibliographic, chemical, 
# crystal, experimental, refinement or atomic coordinate data resulting 
# from the CCDC's data processing and validation procedures.
#
#######################################################################

data_IROXIW
_chemical_name_common            
1-Cyclohexylmethoxymethyl-5-(2-hydroxy-1-(hydroxymethyl)ethylamino)cyclohexane-1,2,3,4-tetraol
_chemical_formula_moiety         'C17 H33 N1 O7'
_chemical_name_systematic        
5,6-Dideoxy-5-((2-hydroxy-1-(hydroxymethyl)ethyl)amino)-1-C-((cyclohexylmethoxy)methyl)-D-epi-inositol
_symmetry_cell_setting           monoclinic
_symmetry_space_group_name_H-M   'P 21'
_symmetry_Int_Tables_number      4
_space_group_name_Hall           'P 2yb'
loop_
_symmetry_equiv_pos_site_id
_symmetry_equiv_pos_as_xyz
1 x,y,z
2 -x,1/2+y,-z
_cell_length_a                   8.437(2)
_cell_length_b                   6.8530(10)
_cell_length_c                   16.011(3)
_cell_angle_alpha                90
_cell_angle_beta                 94.88(2)
_cell_angle_gamma                90
_cell_volume                     922.38
_exptl_crystal_colour            colorless
_exptl_crystal_description       chunk
_chemical_melting_point          '455-456 K'
_cell_formula_units_Z            2
_exptl_crystal_recrystallization_method water/methanol
loop_
_atom_site_label
_atom_site_type_symbol
_atom_site_fract_x
_atom_site_fract_y
_atom_site_fract_z
O1 O 0.57755(13) 0.5097(2) 0.85655(7)
H1 H 0.5162 0.4199 0.8643
O2 O 0.83954(15) 0.5761(2) 0.97494(8)
H2 H 0.9259 0.6276 0.9697
O3 O 0.86498(14) 0.2105(2) 1.05207(7)
H3 H 0.8158 0.2078 1.0941
O4 O 0.65721(15) -0.0827(2) 0.98326(8)
H4 H 0.6822 -0.1944 0.9716
O5 O 0.74156(16) 0.6273(2) 0.71577(8)
O6 O 0.32776(19) -0.2435(3) 0.81935(10)
H5 H 0.4055 -0.3156 0.8250
N1 N 0.47253(16) 0.1282(2) 0.86054(9)
H7 H 0.449(2) 0.053(4) 0.8983(12)
C1 C 0.73086(19) 0.4315(3) 0.84219(10)
C2 C 0.8274(2) 0.3994(3) 0.92724(11)
H8 H 0.9350 0.3585 0.9163
C3 C 0.75650(19) 0.2428(3) 0.97979(10)
H9 H 0.6540 0.2874 0.9972
C4 C 0.73413(19) 0.0520(3) 0.93179(10)
H10 H 0.8393 0.0000 0.9223
C5 C 0.63877(18) 0.0778(3) 0.84656(10)
H11 H 0.6395 -0.0455 0.8156
C6 C 0.7144(2) 0.2375(3) 0.79565(10)
H12 H 0.8188 0.1944 0.7823
H13 H 0.6496 0.2565 0.7433
C7 C 0.3470(2) -0.1097(3) 0.75441(12)
H14 H 0.2578 -0.1207 0.7122
H15 H 0.4433 -0.1404 0.7281
C8 C 0.3568(2) 0.0989(3) 0.78791(11)
H16 H 0.389(2) 0.179(4) 0.7408(13)
C9 C 0.1945(6) 0.1636(14) 0.8135(6)
H17 H 0.1158 0.1431 0.7666
H18 H 0.1659 0.0815 0.8592
O7 O 0.1882(2) 0.3540(4) 0.83795(15)
H19 H 0.2542 0.3729 0.8777
C11 C 0.8208(2) 0.5817(3) 0.79499(11)
H23 H 0.8333 0.6999 0.8283
H24 H 0.9261 0.5319 0.7871
C12 C 0.8306(3) 0.7701(4) 0.67517(13)
H25 H 0.9344 0.7174 0.6660
H26 H 0.8464 0.8836 0.7111
C13 C 0.7475(3) 0.8309(4) 0.59259(13)
H27 H 0.638(3) 0.864(4) 0.6018(15)
C14 C 0.8309(4) 1.0063(4) 0.55844(15)
H28 H 0.8240 1.1147 0.5970
H29 H 0.9425 0.9754 0.5559
C15 C 0.7622(4) 1.0693(5) 0.47234(17)
H30 H 0.8183 1.1830 0.4540
H31 H 0.6506 1.1022 0.4735
C16 C 0.782(3) 0.900(2) 0.4133(7)
H32 H 0.7359 0.9340 0.3576
H33 H 0.8939 0.8737 0.4100
C17 C 0.7011(14) 0.717(2) 0.4425(8)
H34 H 0.5870 0.7383 0.4386
H35 H 0.7220 0.6100 0.4053
C18 C 0.756(2) 0.6601(17) 0.5313(6)
H36 H 0.8653 0.6138 0.5331
H37 H 0.6909 0.5538 0.5488
H6? H 0.2284 -0.2377 0.8059
C10? C 0.197(2) 0.190(5) 0.7990(18)
H20? H 0.2131 0.3158 0.8261
H21? H 0.1415 0.2124 0.7442
O8? O 0.1015(6) 0.0784(11) 0.8455(3)
H22? H 0.1498 0.0516 0.8906
C19? C 0.727(3) 0.911(2) 0.4095(9)
H38? H 0.8262 0.8577 0.3928
H39? H 0.6683 0.9644 0.3601
C20? C 0.6301(16) 0.748(2) 0.4454(8)
H40? H 0.5247 0.7954 0.4545
H41? H 0.6185 0.6403 0.4059
C21? C 0.713(2) 0.6764(18) 0.5281(8)
H42? H 0.6473 0.5773 0.5511
H43? H 0.8128 0.6150 0.5167
loop_
_geom_bond_atom_site_label_1
_geom_bond_atom_site_label_2
_geom_bond_site_symmetry_1
_geom_bond_site_symmetry_2
O1 H1 1_555 1_555
O2 H2 1_555 1_555
O3 H3 1_555 1_555
O4 H4 1_555 1_555
O5 C11 1_555 1_555
O6 H5 1_555 1_555
N1 H7 1_555 1_555
C1 O1 1_555 1_555
C2 O2 1_555 1_555
H8 C2 1_555 1_555
C3 O3 1_555 1_555
H9 C3 1_555 1_555
C4 O4 1_555 1_555
H10 C4 1_555 1_555
C5 N1 1_555 1_555
H11 C5 1_555 1_555
C6 C1 1_555 1_555
H12 C6 1_555 1_555
H13 C6 1_555 1_555
C7 O6 1_555 1_555
H14 C7 1_555 1_555
H15 C7 1_555 1_555
C8 N1 1_555 1_555
H16 C8 1_555 1_555
C9 C8 1_555 1_555
H17 C9 1_555 1_555
H18 C9 1_555 1_555
O7 C9 1_555 1_555
H19 O7 1_555 1_555
C11 C1 1_555 1_555
H23 C11 1_555 1_555
H24 C11 1_555 1_555
C12 O5 1_555 1_555
H25 C12 1_555 1_555
H26 C12 1_555 1_555
C13 C12 1_555 1_555
H27 C13 1_555 1_555
C14 C13 1_555 1_555
H28 C14 1_555 1_555
H29 C14 1_555 1_555
C15 C14 1_555 1_555
H30 C15 1_555 1_555
H31 C15 1_555 1_555
C16 C15 1_555 1_555
H32 C16 1_555 1_555
H33 C16 1_555 1_555
C17 C16 1_555 1_555
H34 C17 1_555 1_555
H35 C17 1_555 1_555
C18 C13 1_555 1_555
H36 C18 1_555 1_555
H37 C18 1_555 1_555
C1 C2 1_555 1_555
C2 C3 1_555 1_555
C3 C4 1_555 1_555
C4 C5 1_555 1_555
C5 C6 1_555 1_555
C7 C8 1_555 1_555
C17 C18 1_555 1_555

#END
