
#######################################################################
#
#                 Cambridge Crystallographic Data Centre
#                                CCDC 
#
#######################################################################
#
# If this CIF has been generated from an entry in the Cambridge 
# Structural Database, then it will include bibliographic, chemical, 
# crystal, experimental, refinement or atomic coordinate data resulting 
# from the CCDC's data processing and validation procedures.
#
#######################################################################

data_IROYET01
_chemical_formula_moiety         'C8 H4 F6 N2 O4 S1'
_chemical_name_systematic        
'2-(2,2,2-Trifluoroacetylamino)pyridin-3-yl trifluoromethanesulfonate'
_symmetry_cell_setting           triclinic
_symmetry_space_group_name_H-M   'P -1'
_symmetry_Int_Tables_number      2
_space_group_name_Hall           '-P 1'
loop_
_symmetry_equiv_pos_site_id
_symmetry_equiv_pos_as_xyz
1 x,y,z
2 -x,-y,-z
_cell_length_a                   9.8702(5)
_cell_length_b                   10.0063(5)
_cell_length_c                   12.6434(6)
_cell_angle_alpha                101.4360(10)
_cell_angle_beta                 103.4660(10)
_cell_angle_gamma                95.9810(10)
_cell_volume                     1175.37
_exptl_crystal_colour            colorless
_exptl_crystal_description       block
_cell_formula_units_Z            4
_exptl_crystal_recrystallization_method 'ethyl acetate'
loop_
_atom_site_label
_atom_site_type_symbol
_atom_site_fract_x
_atom_site_fract_y
_atom_site_fract_z
S1 S 0.17957(4) 0.31718(4) 0.47542(3)
F1 F 0.43716(10) 0.39387(10) 0.60153(9)
F2 F 0.36556(11) 0.17419(10) 0.55356(9)
F3 F 0.29240(11) 0.30166(10) 0.68054(8)
F4 F 0.20103(11) 0.61626(10) 0.96317(8)
F5 F 0.37646(10) 0.53145(11) 0.91772(8)
F6 F 0.16999(11) 0.40993(10) 0.86389(8)
O1 O 0.07961(11) 0.59044(11) 0.73114(9)
O2 O 0.14068(10) 0.45656(10) 0.53639(8)
O3 O 0.23473(13) 0.33553(11) 0.38497(9)
O4 O 0.06710(13) 0.21416(11) 0.46808(10)
N1 N 0.36916(13) 0.78875(12) 0.63617(10)
N2 N 0.31356(12) 0.62663(12) 0.73514(10)
H1 H 0.3993 0.6251 0.7746
C1 C 0.20230(15) 0.58944(14) 0.77354(12)
C2 C 0.29577(14) 0.66802(14) 0.63303(12)
C3 C 0.21140(15) 0.58445(14) 0.53304(12)
C4 C 0.19481(16) 0.62829(16) 0.43481(12)
H2 H 0.1337 0.5740 0.3668
C5 C 0.27042(17) 0.75433(16) 0.43897(13)
H3 H 0.2630 0.7886 0.3733
C6 C 0.35709(16) 0.82999(16) 0.54033(13)
H4 H 0.4106 0.9153 0.5420
C7 C 0.32842(17) 0.29548(16) 0.58549(13)
C8 C 0.23996(15) 0.53655(15) 0.88163(12)
S2 S 0.88362(4) 1.05916(3) 0.79090(3)
F7 F 1.08241(10) 0.91222(9) 0.76656(8)
F8 F 1.15443(9) 1.11967(10) 0.86615(8)
F9 F 1.07671(10) 1.08374(11) 0.68694(8)
F10 F 0.38621(9) 1.06900(9) 0.78238(7)
F11 F 0.57033(10) 1.22313(10) 0.82276(9)
F12 F 0.45273(10) 1.20925(9) 0.94449(8)
O5 O 0.67195(11) 1.07348(11) 1.00393(9)
O6 O 0.88430(10) 0.99242(10) 0.89455(8)
O7 O 0.78616(11) 0.97844(11) 0.69291(9)
O8 O 0.88334(11) 1.20188(11) 0.82939(9)
N3 N 0.61344(13) 0.69051(12) 0.83363(10)
N4 N 0.58557(12) 0.91885(12) 0.83416(10)
H5 H 0.5203 0.9028 0.7705
C9 C 0.59462(15) 1.03727(14) 0.91078(12)
C10 C 0.67542(15) 0.81987(14) 0.85123(11)
C11 C 0.82140(15) 0.85402(14) 0.87827(11)
C12 C 0.90639(15) 0.75516(15) 0.89412(12)
H6 H 1.0063 0.7783 0.9151
C13 C 0.84099(16) 0.62107(15) 0.87829(12)
H7 H 0.8953 0.5495 0.8889
C14 C 0.69502(16) 0.59280(15) 0.84663(12)
H8 H 0.6507 0.5000 0.8335
C15 C 1.06250(15) 1.04155(16) 0.77676(12)
C16 C 0.49786(15) 1.13541(15) 0.86490(12)
loop_
_geom_bond_atom_site_label_1
_geom_bond_atom_site_label_2
_geom_bond_site_symmetry_1
_geom_bond_site_symmetry_2
S1 O2 1_555 1_555
F1 C7 1_555 1_555
F2 C7 1_555 1_555
F3 C7 1_555 1_555
F4 C8 1_555 1_555
F5 C8 1_555 1_555
F6 C8 1_555 1_555
O1 C1 1_555 1_555
O2 C3 1_555 1_555
O3 S1 1_555 1_555
O4 S1 1_555 1_555
N1 C2 1_555 1_555
N2 H1 1_555 1_555
C1 N2 1_555 1_555
C2 N2 1_555 1_555
C3 C2 1_555 1_555
C4 C3 1_555 1_555
H2 C4 1_555 1_555
C5 C4 1_555 1_555
H3 C5 1_555 1_555
C6 N1 1_555 1_555
H4 C6 1_555 1_555
C7 S1 1_555 1_555
C8 C1 1_555 1_555
S2 O6 1_555 1_555
F7 C15 1_555 1_555
F8 C15 1_555 1_555
F9 C15 1_555 1_555
F10 C16 1_555 1_555
F11 C16 1_555 1_555
F12 C16 1_555 1_555
O5 C9 1_555 1_555
O6 C11 1_555 1_555
O7 S2 1_555 1_555
O8 S2 1_555 1_555
N3 C10 1_555 1_555
N4 H5 1_555 1_555
C9 N4 1_555 1_555
C10 N4 1_555 1_555
C11 C10 1_555 1_555
C12 C11 1_555 1_555
H6 C12 1_555 1_555
C13 C12 1_555 1_555
H7 C13 1_555 1_555
C14 N3 1_555 1_555
H8 C14 1_555 1_555
C15 S2 1_555 1_555
C16 C9 1_555 1_555
C5 C6 1_555 1_555
C13 C14 1_555 1_555

#END
