
#######################################################################
#
#                 Cambridge Crystallographic Data Centre
#                                CCDC 
#
#######################################################################
#
# If this CIF has been generated from an entry in the Cambridge 
# Structural Database, then it will include bibliographic, chemical, 
# crystal, experimental, refinement or atomic coordinate data resulting 
# from the CCDC's data processing and validation procedures.
#
#######################################################################

data_IROYOF
_chemical_formula_moiety         'C23 H25 F7 N3 O1 1+,C1 H3 O3 S1 1-'
_chemical_name_systematic        
'(R)-4-(((R)-1-(3,5-bis(trifluoromethyl)phenyl)ethyl)(methyl)carbamoyl)-3-(4-fluoro-2-methylphenyl)piperazin-1-ium methanesulfonate'
_symmetry_cell_setting           triclinic
_symmetry_space_group_name_H-M   'P 1'
_symmetry_Int_Tables_number      1
_space_group_name_Hall           'P 1'
loop_
_symmetry_equiv_pos_site_id
_symmetry_equiv_pos_as_xyz
1 x,y,z
_cell_length_a                   5.7455(6)
_cell_length_b                   9.7788(8)
_cell_length_c                   25.3422(19)
_cell_angle_alpha                84.351(6)
_cell_angle_beta                 84.532(7)
_cell_angle_gamma                74.058(7)
_cell_volume                     1358.95
_exptl_crystal_colour            colorless
_exptl_crystal_description       needle
_cell_formula_units_Z            2
loop_
_atom_site_label
_atom_site_type_symbol
_atom_site_fract_x
_atom_site_fract_y
_atom_site_fract_z
S1 S 1.8449(4) 0.17644(19) -0.00940(8)
O1 O 1.7834(14) 0.1643(9) 0.0486(3)
O2 O 1.7142(18) 0.1033(10) -0.0374(4)
O3 O 2.0922(13) 0.1433(9) -0.0192(2)
C1 C 1.741(3) 0.3644(13) -0.0288(5)
H1 H 1.8668 0.4094 -0.0246
H2 H 1.5991 0.4066 -0.0068
H3 H 1.7031 0.3774 -0.0653
F1 F 0.858(2) 0.7742(9) 0.2399(4)
O4 O 1.6137(14) 0.2026(9) 0.2345(3)
N1 N 1.3240(14) 0.1275(8) 0.0731(3)
H4 H 1.2422 0.1281 0.0450
H5 H 1.4778 0.1214 0.0619
N2 N 1.3471(13) 0.1384(7) 0.1845(2)
N3 N 1.3828(15) 0.0613(8) 0.2752(3)
C2 C 1.313(2) 0.0030(10) 0.1100(4)
H6 H 1.3839 -0.0842 0.0925
H7 H 1.1449 0.0067 0.1213
C3 C 1.4514(17) 0.0052(8) 0.1580(3)
H8 H 1.4446 -0.0759 0.1829
H9 H 1.6204 -0.0026 0.1466
C4 C 1.2188(17) 0.2623(9) 0.0998(3)
H10 H 1.0486 0.2713 0.1102
H11 H 1.2293 0.3428 0.0750
C5 C 1.3514(16) 0.2655(8) 0.1489(3)
H12 H 1.5200 0.2651 0.1381
C6 C 1.2254(16) 0.4007(8) 0.1751(3)
C7 C 1.024(2) 0.4078(11) 0.2093(5)
H13 H 0.9725 0.3254 0.2174
C8 C 0.893(3) 0.5289(15) 0.2321(5)
H14 H 0.7581 0.5296 0.2555
C9 C 0.973(3) 0.6533(12) 0.2185(5)
C10 C 1.175(3) 0.6489(10) 0.1856(5)
H15 H 1.2276 0.7311 0.1782
C11 C 1.305(2) 0.5251(10) 0.1627(4)
C12 C 1.524(2) 0.5269(12) 0.1252(5)
H16 H 1.6659 0.4623 0.1396
H17 H 1.5450 0.6216 0.1207
H18 H 1.5018 0.4978 0.0914
C13 C 1.4647(16) 0.1400(8) 0.2326(3)
C14 C 1.183(3) 0.0043(15) 0.2758(4)
H19 H 1.0634 0.0660 0.2540
H20 H 1.1137 -0.0037 0.3116
H21 H 1.2353 -0.0884 0.2623
C15 C 1.557(4) -0.0914(14) 0.3535(5)
H22 H 1.4117 -0.1227 0.3597
H23 H 1.6227 -0.0899 0.3868
H24 H 1.6739 -0.1558 0.3315
C16 C 1.498(2) 0.0579(11) 0.3255(4)
H25 H 1.6522 0.0823 0.3162
C17 C 1.343(2) 0.1693(12) 0.3611(4)
C18 C 1.179(3) 0.1454(11) 0.4005(4)
H26 H 1.1637 0.0530 0.4076
C19 C 1.031(3) 0.2526(17) 0.4313(5)
C20 C 1.061(4) 0.3886(15) 0.4204(5)
H27 H 0.9687 0.4617 0.4406
C21 C 1.224(3) 0.4184(12) 0.3803(5)
C22 C 1.364(2) 0.3074(11) 0.3508(4)
H28 H 1.4747 0.3265 0.3237
C23 C 1.259(3) 0.5635(19) 0.3722(8)
C24 C 0.869(3) 0.2209(17) 0.4720(6)
F2 F 1.365(4) 0.593(2) 0.3241(8)
F3 F 1.415(4) 0.579(3) 0.4067(10)
F4 F 1.040(3) 0.663(3) 0.3732(11)
F5 F 0.709(4) 0.334(2) 0.4917(9)
F6 F 0.975(5) 0.145(3) 0.5150(9)
F7 F 0.727(4) 0.139(2) 0.4595(8)
F14 F 0.886(2) 0.2108(9) 0.7626(3)
O5 O 1.0735(14) 0.7903(9) 0.7649(3)
N4 N 0.5566(14) 0.8720(8) 0.9242(3)
H29 H 0.4481 0.8710 0.9517
H30 H 0.6889 0.8849 0.9363
N5 N 0.7011(13) 0.8543(7) 0.8139(3)
N6 N 0.7410(16) 0.9298(9) 0.7240(3)
C25 C 0.4578(18) 0.9893(9) 0.8858(4)
H31 H 0.4196 1.0790 0.9023
H32 H 0.3096 0.9781 0.8736
C26 C 0.6440(18) 0.9901(9) 0.8390(3)
H33 H 0.5801 1.0684 0.8132
H34 H 0.7906 1.0036 0.8512
C27 C 0.6200(18) 0.7319(9) 0.8998(3)
H35 H 0.4735 0.7145 0.8891
H36 H 0.6893 0.6560 0.9260
C28 C 0.8006(16) 0.7295(8) 0.8514(3)
H37 H 0.9568 0.7342 0.8625
C29 C 0.8312(18) 0.5891(9) 0.8262(3)
C30 C 0.665(2) 0.5845(12) 0.7904(4)
H38 H 0.5427 0.6659 0.7815
C31 C 0.683(3) 0.4557(14) 0.7675(5)
H39 H 0.5736 0.4500 0.7434
C32 C 0.865(3) 0.3407(11) 0.7818(5)
C33 C 1.034(3) 0.3422(11) 0.8175(5)
H40 H 1.1555 0.2601 0.8262
C34 C 1.018(2) 0.4701(10) 0.8400(4)
C35 C 1.203(2) 0.4695(12) 0.8780(6)
H41 H 1.3322 0.5033 0.8594
H42 H 1.2669 0.3741 0.8932
H43 H 1.1277 0.5306 0.9058
C36 C 0.8599(16) 0.8537(9) 0.7666(3)
C37 C 0.489(2) 0.9802(15) 0.7216(4)
H44 H 0.4429 1.0826 0.7197
H45 H 0.4102 0.9444 0.7529
H46 H 0.4418 0.9483 0.6907
C38 C 0.827(4) 1.0852(15) 0.6458(5)
H47 H 0.6573 1.1116 0.6398
H48 H 0.9203 1.0849 0.6123
H49 H 0.8596 1.1526 0.6672
C39 C 0.895(2) 0.9395(12) 0.6739(4)
H50 H 1.0623 0.9214 0.6836
C40 C 0.889(2) 0.8206(12) 0.6384(4)
C41 C 0.738(3) 0.8436(14) 0.5975(4)
H51 H 0.6381 0.9345 0.5897
C42 C 0.734(3) 0.7316(17) 0.5674(5)
C43 C 0.885(3) 0.6013(15) 0.5770(5)
H52 H 0.8888 0.5291 0.5554
C44 C 1.035(3) 0.5728(14) 0.6185(5)
C45 C 1.039(3) 0.6845(13) 0.6486(4)
H53 H 1.1433 0.6675 0.6758
C46 C 1.209(4) 0.4353(18) 0.6303(7)
C47 C 0.579(3) 0.7536(17) 0.5273(7)
F15 F 1.129(5) 0.3259(19) 0.6147(10)
F16 F 1.264(5) 0.389(2) 0.6807(8)
F17 F 1.427(4) 0.416(3) 0.6032(10)
F18 F 0.569(6) 0.879(3) 0.4959(12)
F19 F 0.337(3) 0.805(3) 0.5412(11)
F20 F 0.617(6) 0.649(3) 0.4949(12)
S2 S 1.1373(3) 0.71225(18) 0.00622(8)
O6 O 1.1830(18) 0.5595(8) 0.0127(3)
O7 O 1.3361(15) 0.7601(10) 0.0172(3)
O8 O 1.0492(13) 0.7747(8) -0.0452(3)
C48 C 0.897(2) 0.7794(11) 0.0536(4)
H54 H 0.8685 0.8809 0.0534
H55 H 0.9388 0.7360 0.0883
H56 H 0.7525 0.7579 0.0448
F8? F 1.500(3) 0.558(2) 0.3664(12)
F9? F 1.191(5) 0.642(2) 0.4130(9)
F10? F 1.166(6) 0.635(3) 0.3293(11)
F11? F 0.627(4) 0.270(3) 0.4662(11)
F12? F 0.876(4) 0.276(3) 0.5193(7)
F13? F 0.896(5) 0.082(2) 0.4893(10)
F21? F 1.270(5) 0.349(3) 0.5892(9)
F22? F 1.131(6) 0.359(3) 0.6659(14)
F23? F 1.431(5) 0.441(2) 0.6423(11)
F24? F 0.430(4) 0.667(3) 0.5244(10)
F25? F 0.689(4) 0.744(3) 0.4776(6)
F26? F 0.416(4) 0.883(2) 0.5214(10)
loop_
_geom_bond_atom_site_label_1
_geom_bond_atom_site_label_2
_geom_bond_site_symmetry_1
_geom_bond_site_symmetry_2
S1 O1 1_555 1_555
O2 S1 1_555 1_555
O3 S1 1_555 1_555
C1 S1 1_555 1_555
H1 C1 1_555 1_555
H2 C1 1_555 1_555
H3 C1 1_555 1_555
F1 C9 1_555 1_555
O4 C13 1_555 1_555
N1 H4 1_555 1_555
H5 N1 1_555 1_555
N2 C3 1_555 1_555
N3 C13 1_555 1_555
C2 N1 1_555 1_555
H6 C2 1_555 1_555
H7 C2 1_555 1_555
C3 C2 1_555 1_555
H8 C3 1_555 1_555
H9 C3 1_555 1_555
C4 N1 1_555 1_555
H10 C4 1_555 1_555
H11 C4 1_555 1_555
C5 N2 1_555 1_555
H12 C5 1_555 1_555
C6 C5 1_555 1_555
C7 C6 1_555 1_555
H13 C7 1_555 1_555
C8 C7 1_555 1_555
H14 C8 1_555 1_555
C9 C8 1_555 1_555
C10 C9 1_555 1_555
H15 C10 1_555 1_555
C11 C6 1_555 1_555
C12 C11 1_555 1_555
H16 C12 1_555 1_555
H17 C12 1_555 1_555
H18 C12 1_555 1_555
C13 N2 1_555 1_555
C14 N3 1_555 1_555
H19 C14 1_555 1_555
H20 C14 1_555 1_555
H21 C14 1_555 1_555
C15 H22 1_555 1_555
H23 C15 1_555 1_555
H24 C15 1_555 1_555
C16 N3 1_555 1_555
H25 C16 1_555 1_555
C17 C16 1_555 1_555
C18 C17 1_555 1_555
H26 C18 1_555 1_555
C19 C18 1_555 1_555
C20 C19 1_555 1_555
H27 C20 1_555 1_555
C21 C20 1_555 1_555
C22 C17 1_555 1_555
H28 C22 1_555 1_555
C23 C21 1_555 1_555
C24 C19 1_555 1_555
F2 C23 1_555 1_555
F3 C23 1_555 1_555
F4 C23 1_555 1_555
F5 C24 1_555 1_555
F6 C24 1_555 1_555
F7 C24 1_555 1_555
F14 C32 1_555 1_555
O5 C36 1_555 1_555
N4 H29 1_555 1_555
H30 N4 1_555 1_555
N5 C26 1_555 1_555
N6 C36 1_555 1_555
C25 N4 1_555 1_555
H31 C25 1_555 1_555
H32 C25 1_555 1_555
C26 C25 1_555 1_555
H33 C26 1_555 1_555
H34 C26 1_555 1_555
C27 N4 1_555 1_555
H35 C27 1_555 1_555
H36 C27 1_555 1_555
C28 N5 1_555 1_555
H37 C28 1_555 1_555
C29 C28 1_555 1_555
C30 C29 1_555 1_555
H38 C30 1_555 1_555
C31 C30 1_555 1_555
H39 C31 1_555 1_555
C32 C31 1_555 1_555
C33 C32 1_555 1_555
H40 C33 1_555 1_555
C34 C29 1_555 1_555
C35 C34 1_555 1_555
H41 C35 1_555 1_555
H42 C35 1_555 1_555
H43 C35 1_555 1_555
C36 N5 1_555 1_555
C37 N6 1_555 1_555
H44 C37 1_555 1_555
H45 C37 1_555 1_555
H46 C37 1_555 1_555
C38 H47 1_555 1_555
H48 C38 1_555 1_555
H49 C38 1_555 1_555
C39 N6 1_555 1_555
H50 C39 1_555 1_555
C40 C39 1_555 1_555
C41 C40 1_555 1_555
H51 C41 1_555 1_555
C42 C41 1_555 1_555
C43 C42 1_555 1_555
H52 C43 1_555 1_555
C44 C43 1_555 1_555
C45 C40 1_555 1_555
H53 C45 1_555 1_555
C46 C44 1_555 1_555
C47 C42 1_555 1_555
F15 C46 1_555 1_555
F16 C46 1_555 1_555
F17 C46 1_555 1_555
F18 C47 1_555 1_555
F19 C47 1_555 1_555
F20 C47 1_555 1_555
S2 O6 1_555 1_555
O7 S2 1_555 1_555
O8 S2 1_555 1_555
C48 S2 1_555 1_555
H54 C48 1_555 1_555
H55 C48 1_555 1_555
H56 C48 1_555 1_555
C4 C5 1_555 1_555
C10 C11 1_555 1_555
C15 C16 1_555 1_555
C21 C22 1_555 1_555
C27 C28 1_555 1_555
C33 C34 1_555 1_555
C38 C39 1_555 1_555
C44 C45 1_555 1_555

#END
