
#######################################################################
#
#                 Cambridge Crystallographic Data Centre
#                                CCDC 
#
#######################################################################
#
# If this CIF has been generated from an entry in the Cambridge 
# Structural Database, then it will include bibliographic, chemical, 
# crystal, experimental, refinement or atomic coordinate data resulting 
# from the CCDC's data processing and validation procedures.
#
#######################################################################

data_IROYIX
_chemical_formula_moiety         'C10 H12 O4 S1'
_chemical_name_systematic        'Ethyl phenylsulfonylacetate'
_symmetry_cell_setting           monoclinic
_symmetry_space_group_name_H-M   'P 21'
_symmetry_Int_Tables_number      4
_space_group_name_Hall           'P 2yb'
loop_
_symmetry_equiv_pos_site_id
_symmetry_equiv_pos_as_xyz
1 x,y,z
2 -x,1/2+y,-z
_cell_length_a                   8.8812(3)
_cell_length_b                   5.8066(2)
_cell_length_c                   11.5280(5)
_cell_angle_alpha                90
_cell_angle_beta                 111.5830(10)
_cell_angle_gamma                90
_cell_volume                     552.812
_exptl_crystal_colour            colorless
_exptl_crystal_description       block
_cell_formula_units_Z            2
_exptl_crystal_recrystallization_method cyclohexane
loop_
_atom_site_label
_atom_site_type_symbol
_atom_site_fract_x
_atom_site_fract_y
_atom_site_fract_z
S1 S 1.05927(5) 0.50000(8) 0.29261(4)
O1 O 1.20330(10) 0.4115(4) 0.2808(2)
O2 O 1.0662(2) 0.7175(3) 0.3536(2)
O3 O 0.7236(2) 0.1374(4) 0.2874(2)
O4 O 0.7614(2) 0.4816(3) 0.37760(10)
C1 C 0.9054(2) 0.5136(4) 0.1429(2)
C2 C 0.7910(3) 0.6879(4) 0.1151(2)
C3 C 0.6698(3) 0.6913(5) -0.0027(3)
C4 C 0.6635(3) 0.5260(6) -0.0890(2)
C5 C 0.7773(3) 0.3513(6) -0.0597(2)
C6 C 0.8999(3) 0.3445(4) 0.0566(2)
C7 C 0.9901(3) 0.2853(4) 0.3732(2)
C8 C 0.8099(3) 0.2907(4) 0.3413(2)
C9 C 0.5868(3) 0.5080(6) 0.3463(3)
C10 C 0.5595(3) 0.7018(6) 0.4182(3)
H1 H 0.799(3) 0.799(3) 0.176(2)
H2 H 0.593(4) 0.813(5) -0.018(3)
H3 H 0.581(2) 0.530(6) -0.1700(10)
H4 H 0.771(5) 0.229(6) -0.116(3)
H5 H 0.985(2) 0.237(4) 0.079(2)
H6 H 1.051(3) 0.317(5) 0.4590(10)
H7 H 1.021(3) 0.135(3) 0.356(2)
H8 H 0.551(5) 0.355(3) 0.348(3)
H9 H 0.551(3) 0.546(5) 0.2610(10)
H10 H 0.449(2) 0.740(6) 0.396(3)
H11 H 0.606(3) 0.661(6) 0.5040(10)
H12 H 0.613(4) 0.839(4) 0.409(3)
loop_
_geom_bond_atom_site_label_1
_geom_bond_atom_site_label_2
_geom_bond_site_symmetry_1
_geom_bond_site_symmetry_2
S1 O1 1_555 1_555
O2 S1 1_555 1_555
O3 C8 1_555 1_555
O4 C8 1_555 1_555
C1 S1 1_555 1_555
C2 C1 1_555 1_555
C3 C2 1_555 1_555
C4 C3 1_555 1_555
C5 C4 1_555 1_555
C6 C1 1_555 1_555
C7 S1 1_555 1_555
C8 C7 1_555 1_555
C9 O4 1_555 1_555
C10 C9 1_555 1_555
H1 C2 1_555 1_555
H2 C3 1_555 1_555
H3 C4 1_555 1_555
H4 C5 1_555 1_555
H5 C6 1_555 1_555
H6 C7 1_555 1_555
H7 C7 1_555 1_555
H8 C9 1_555 1_555
H9 C9 1_555 1_555
H10 C10 1_555 1_555
H11 C10 1_555 1_555
H12 C10 1_555 1_555
C5 C6 1_555 1_555

#END
