
#######################################################################
#
#                 Cambridge Crystallographic Data Centre
#                                CCDC 
#
#######################################################################
#
# If this CIF has been generated from an entry in the Cambridge 
# Structural Database, then it will include bibliographic, chemical, 
# crystal, experimental, refinement or atomic coordinate data resulting 
# from the CCDC's data processing and validation procedures.
#
#######################################################################

data_IROYOD01
_chemical_compound_source        
'seeds of an Indian mangrove, Xylocarpus moluccensis'
_chemical_name_common            (6R)-Hydroxymexicanolide
_chemical_formula_moiety         'C27 H32 O8'
_chemical_name_systematic        
'Methyl (6-(3-furyl)-1,5,15,15-tetramethyl-8,14,17-trioxo-7-oxatetracyclo[11.3.1.0^2,11^.0^5,10^]heptadec-10-en-16-yl)(hydroxy)acetate'
_chemical_properties_biological  'antifeedant and insecticidal activities'
_symmetry_cell_setting           orthorhombic
_symmetry_space_group_name_H-M   'P 21 21 21'
_symmetry_Int_Tables_number      19
_space_group_name_Hall           'P 2ac 2ab'
loop_
_symmetry_equiv_pos_site_id
_symmetry_equiv_pos_as_xyz
1 x,y,z
2 1/2-x,-y,1/2+z
3 -x,1/2+y,1/2-z
4 1/2+x,1/2-y,-z
_cell_length_a                   10.6167(2)
_cell_length_b                   10.7288(2)
_cell_length_c                   21.4811(4)
_cell_angle_alpha                90
_cell_angle_beta                 90
_cell_angle_gamma                90
_cell_volume                     2446.79
_exptl_crystal_colour            colorless
_exptl_crystal_description       block
_chemical_melting_point          '248-250 deg.C'
_cell_formula_units_Z            4
loop_
_atom_site_label
_atom_site_type_symbol
_atom_site_fract_x
_atom_site_fract_y
_atom_site_fract_z
C1 C 0.7372(3) 0.0881(2) 0.51502(11)
C2 C 0.7046(3) -0.0464(2) 0.51574(11)
H1 H 0.7181 -0.0795 0.5577
C3 C 0.7852(3) -0.1197(2) 0.46959(11)
C4 C 0.8784(3) -0.0456(2) 0.43036(12)
C5 C 0.7982(2) 0.0621(2) 0.40086(10)
H2 H 0.7295 0.0194 0.3791
C6 C 0.8642(2) 0.1388(3) 0.35011(13)
H3 H 0.8063 0.2061 0.3385
C7 C 0.8980(3) 0.0726(4) 0.29165(16)
C8 C 0.5307(2) 0.0170(2) 0.44090(10)
C9 C 0.5822(2) 0.1479(2) 0.43965(10)
H4 H 0.5466 0.1892 0.4763
C10 C 0.7301(2) 0.1472(2) 0.45047(11)
C11 C 0.5360(2) 0.2237(2) 0.38381(11)
H5 H 0.4581 0.2652 0.3951
H6 H 0.5977 0.2876 0.3744
C12 C 0.5134(2) 0.1466(2) 0.32565(10)
H7 H 0.5928 0.1120 0.3115
H8 H 0.4808 0.2000 0.2930
C13 C 0.4200(2) 0.04045(19) 0.33773(9)
C14 C 0.4564(2) -0.0295(2) 0.39621(10)
C15 C 0.3989(3) -0.1590(2) 0.40106(12)
H9 H 0.4668 -0.2178 0.4082
H10 H 0.3454 -0.1606 0.4377
C16 C 0.3233(2) -0.2054(2) 0.34743(11)
C17 C 0.4308(2) -0.0535(2) 0.28388(10)
H11 H 0.5163 -0.0879 0.2838
C18 C 0.2853(2) 0.0900(2) 0.34433(12)
H12 H 0.2289 0.0218 0.3521
H13 H 0.2611 0.1317 0.3066
H14 H 0.2816 0.1477 0.3785
C19 C 0.7784(3) 0.2818(2) 0.45550(14)
H15 H 0.7309 0.3255 0.4866
H16 H 0.7687 0.3228 0.4161
H17 H 0.8658 0.2811 0.4670
C20 C 0.4038(2) -0.0014(2) 0.22060(10)
C21 C 0.4897(3) 0.0310(3) 0.17823(12)
H18 H 0.5763 0.0235 0.1836
C22 C 0.2847(3) 0.0228(3) 0.19321(12)
H19 H 0.2061 0.0085 0.2110
C23 C 0.3078(4) 0.0703(3) 0.13660(14)
H20 H 0.2461 0.0955 0.1085
C24 C 0.9352(3) -0.1325(3) 0.38173(15)
H21 H 0.9828 -0.1966 0.4022
H22 H 0.9897 -0.0858 0.3547
H23 H 0.8690 -0.1697 0.3577
C25 C 0.9856(3) -0.0009(3) 0.47409(16)
H24 H 1.0299 -0.0718 0.4903
H25 H 0.9502 0.0461 0.5079
H26 H 1.0430 0.0508 0.4512
C26 C 0.5629(3) -0.0559(3) 0.49925(11)
H27 H 0.5408 -0.1427 0.4931
H28 H 0.5133 -0.0243 0.5337
C27 C 0.8337(5) -0.0616(4) 0.21129(17)
H29 H 0.7618 -0.1085 0.1978
H30 H 0.9030 -0.1172 0.2186
H31 H 0.8565 -0.0024 0.1797
O1 O 0.7539(2) 0.14771(19) 0.56238(8)
O2 O 0.7733(3) -0.23072(17) 0.46665(9)
O3 O 0.97576(19) 0.1965(3) 0.37295(13)
H32 H 1.0087 0.2370 0.3450
O4 O 0.9986(3) 0.0818(4) 0.26639(13)
O5 O 0.8033(2) 0.0043(2) 0.26871(9)
O6 O 0.2481(2) -0.28826(18) 0.35204(9)
O7 O 0.34193(16) -0.15596(15) 0.29077(7)
O8 O 0.4333(3) 0.0766(2) 0.12596(9)
loop_
_geom_bond_atom_site_label_1
_geom_bond_atom_site_label_2
_geom_bond_site_symmetry_1
_geom_bond_site_symmetry_2
C1 C2 1_555 1_555
C2 H1 1_555 1_555
C3 C2 1_555 1_555
C4 C3 1_555 1_555
C5 C4 1_555 1_555
H2 C5 1_555 1_555
C6 C5 1_555 1_555
H3 C6 1_555 1_555
C7 C6 1_555 1_555
C8 C9 1_555 1_555
C9 H4 1_555 1_555
C10 C1 1_555 1_555
C11 C9 1_555 1_555
H5 C11 1_555 1_555
H6 C11 1_555 1_555
C12 C11 1_555 1_555
H7 C12 1_555 1_555
H8 C12 1_555 1_555
C13 C12 1_555 1_555
C14 C8 1_555 1_555
C15 C14 1_555 1_555
H9 C15 1_555 1_555
H10 C15 1_555 1_555
C16 C15 1_555 1_555
C17 C13 1_555 1_555
H11 C17 1_555 1_555
C18 C13 1_555 1_555
H12 C18 1_555 1_555
H13 C18 1_555 1_555
H14 C18 1_555 1_555
C19 C10 1_555 1_555
H15 C19 1_555 1_555
H16 C19 1_555 1_555
H17 C19 1_555 1_555
C20 C17 1_555 1_555
C21 C20 1_555 1_555
H18 C21 1_555 1_555
C22 C20 1_555 1_555
H19 C22 1_555 1_555
C23 C22 1_555 1_555
H20 C23 1_555 1_555
C24 C4 1_555 1_555
H21 C24 1_555 1_555
H22 C24 1_555 1_555
H23 C24 1_555 1_555
C25 C4 1_555 1_555
H24 C25 1_555 1_555
H25 C25 1_555 1_555
H26 C25 1_555 1_555
C26 C2 1_555 1_555
H27 C26 1_555 1_555
H28 C26 1_555 1_555
C27 H29 1_555 1_555
H30 C27 1_555 1_555
H31 C27 1_555 1_555
O1 C1 1_555 1_555
O2 C3 1_555 1_555
O3 C6 1_555 1_555
H32 O3 1_555 1_555
O4 C7 1_555 1_555
O5 C7 1_555 1_555
O6 C16 1_555 1_555
O7 C16 1_555 1_555
O8 C21 1_555 1_555
C5 C10 1_555 1_555
C8 C26 1_555 1_555
C9 C10 1_555 1_555
C13 C14 1_555 1_555
C17 O7 1_555 1_555
C23 O8 1_555 1_555
C27 O5 1_555 1_555

#END
