
#######################################################################
#
#                 Cambridge Crystallographic Data Centre
#                                CCDC 
#
#######################################################################
#
# If this CIF has been generated from an entry in the Cambridge 
# Structural Database, then it will include bibliographic, chemical, 
# crystal, experimental, refinement or atomic coordinate data resulting 
# from the CCDC's data processing and validation procedures.
#
#######################################################################

data_IRUBUU
_chemical_name_common            
"1,3-phenylenebis(methylene) bis(4'-pentyl-[1,1'-biphenyl]-4-carboxylate)"
_chemical_formula_moiety         'C44 H46 O4'
_chemical_name_systematic        
"3-((((4'-pentylbiphenyl-4-yl)carbonyl)oxy)methyl)benzyl 4'-pentylbiphenyl-4-carboxylate"
_symmetry_cell_setting           triclinic
_symmetry_space_group_name_H-M   'P -1'
_symmetry_Int_Tables_number      2
_space_group_name_Hall           '-P 1'
loop_
_symmetry_equiv_pos_site_id
_symmetry_equiv_pos_as_xyz
1 x,y,z
2 -x,-y,-z
_cell_length_a                   7.4218(2)
_cell_length_b                   9.8421(3)
_cell_length_c                   23.9083(8)
_cell_angle_alpha                95.162(2)
_cell_angle_beta                 90.464(2)
_cell_angle_gamma                101.703(2)
_cell_volume                     1702.55
_exptl_crystal_colour            colorless
_exptl_crystal_description       blocks
_cell_formula_units_Z            2
loop_
_atom_site_label
_atom_site_type_symbol
_atom_site_fract_x
_atom_site_fract_y
_atom_site_fract_z
C1 C -1.52114(17) -0.60827(15) 0.07753(6)
H1 H -1.6416 -0.5821 0.0770
H2 H -1.4528 -0.5767 0.0446
H3 H -1.5381 -0.7098 0.0768
C2 C -1.41377(17) -0.54024(14) 0.13079(6)
H4 H -1.4000 -0.4379 0.1317
H5 H -1.4853 -0.5709 0.1638
C3 C -1.22477(15) -0.57466(12) 0.13552(5)
H6 H -1.1570 -0.5509 0.1011
H7 H -1.2393 -0.6763 0.1376
C4 C -1.11014(16) -0.49850(12) 0.18642(5)
H8 H -1.0928 -0.3967 0.1843
H9 H -1.1773 -0.5213 0.2211
C5 C -0.92254(16) -0.53830(12) 0.18956(5)
H10 H -0.9423 -0.6364 0.1985
H11 H -0.8696 -0.5346 0.1517
C6 C -0.78048(15) -0.45218(11) 0.23115(5)
C7 C -0.67281(16) -0.51723(11) 0.26320(5)
H12 H -0.7007 -0.6160 0.2623
C8 C -0.52557(16) -0.44239(11) 0.29650(5)
H13 H -0.4526 -0.4904 0.3172
C9 C -0.48399(14) -0.29713(11) 0.29978(5)
C10 C -0.59635(15) -0.23057(11) 0.26974(5)
H14 H -0.5738 -0.1316 0.2726
C11 C -0.74062(15) -0.30641(11) 0.23570(5)
H15 H -0.8139 -0.2585 0.2150
C12 C -0.32209(14) -0.21697(11) 0.33404(5)
C13 C -0.15325(15) -0.25943(11) 0.33150(5)
H16 H -0.1424 -0.3400 0.3078
C14 C -0.00180(15) -0.18554(11) 0.36307(5)
H17 H 0.1115 -0.2163 0.3612
C15 C -0.01519(14) -0.06615(11) 0.39756(5)
C16 C -0.18264(15) -0.02294(11) 0.40031(5)
H18 H -0.1929 0.0582 0.4238
C17 C -0.33444(15) -0.09786(11) 0.36897(5)
H19 H -0.4482 -0.0678 0.3713
C18 C 0.15321(15) 0.01077(11) 0.42953(5)
O1 O 0.28948(11) -0.03572(8) 0.43645(4)
O2 O 0.13973(10) 0.14151(7) 0.44841(3)
C19 C 0.30675(14) 0.22717(11) 0.47633(5)
H20 H 0.4156 0.2191 0.4536
H21 H 0.3253 0.1956 0.5137
C20 C 0.28245(14) 0.37539(11) 0.48243(5)
C21 C 0.31376(14) 0.45703(12) 0.43753(5)
H22 H 0.3509 0.4186 0.4027
C22 C 0.29118(14) 0.59429(12) 0.44321(5)
H23 H 0.3129 0.6493 0.4123
C23 C 0.23705(14) 0.65068(12) 0.49392(5)
H24 H 0.2210 0.7444 0.4976
C24 C 0.20599(14) 0.57101(11) 0.53951(5)
C25 C 0.22884(14) 0.43368(11) 0.53310(5)
H25 H 0.2074 0.3787 0.5640
C26 C 0.14703(14) 0.63081(12) 0.59459(5)
H26 H 0.0667 0.6972 0.5882
H27 H 0.0772 0.5555 0.6154
O3 O 0.31278(10) 0.70270(8) 0.62709(3)
C27 C 0.28006(15) 0.75113(11) 0.67978(5)
O4 O 0.12696(11) 0.73896(9) 0.69838(4)
C28 C 0.45133(14) 0.81469(11) 0.71292(5)
C29 C 0.62480(15) 0.84564(11) 0.68918(5)
H28 H 0.6363 0.8308 0.6497
C30 C 0.78032(15) 0.89804(11) 0.72326(5)
H29 H 0.8974 0.9198 0.7067
C31 C 0.76711(15) 0.91914(11) 0.78154(5)
C32 C 0.59164(15) 0.88998(11) 0.80449(5)
H30 H 0.5794 0.9050 0.8440
C33 C 0.43632(15) 0.83986(11) 0.77066(5)
H31 H 0.3185 0.8225 0.7870
C34 C 0.93342(15) 0.96585(11) 0.81900(5)
C35 C 1.08756(15) 1.06045(11) 0.80367(5)
H32 H 1.0869 1.0981 0.7685
C36 C 1.24214(15) 1.10038(12) 0.83923(5)
H33 H 1.3447 1.1660 0.8281
C37 C 1.24980(15) 1.04643(11) 0.89074(5)
C38 C 1.09492(15) 0.95208(12) 0.90584(5)
H34 H 1.0960 0.9138 0.9409
C39 C 0.94043(16) 0.91319(12) 0.87108(5)
H35 H 0.8369 0.8494 0.8828
C40 C 1.41620(15) 1.08029(12) 0.93044(5)
H36 H 1.4557 0.9920 0.9359
H37 H 1.3766 1.1163 0.9673
C41 C 1.58337(15) 1.18414(12) 0.91369(5)
H38 H 1.5503 1.2763 0.9121
H39 H 1.6205 1.1533 0.8757
C42 C 1.74476(15) 1.19824(12) 0.95497(5)
H40 H 1.7083 1.2326 0.9925
H41 H 1.7729 1.1050 0.9579
C43 C 1.91790(16) 1.29641(13) 0.93845(6)
H42 H 1.9587 1.2594 0.9019
H43 H 1.8887 1.3885 0.9336
C44 C 2.07428(17) 1.31492(14) 0.98173(6)
H44 H 2.1821 1.3788 0.9691
H45 H 2.0357 1.3535 1.0178
H46 H 2.1058 1.2244 0.9861
loop_
_geom_bond_atom_site_label_1
_geom_bond_atom_site_label_2
_geom_bond_site_symmetry_1
_geom_bond_site_symmetry_2
C1 H1 1_555 1_555
H2 C1 1_555 1_555
H3 C1 1_555 1_555
C2 C1 1_555 1_555
H4 C2 1_555 1_555
H5 C2 1_555 1_555
C3 C2 1_555 1_555
H6 C3 1_555 1_555
H7 C3 1_555 1_555
C4 C3 1_555 1_555
H8 C4 1_555 1_555
H9 C4 1_555 1_555
C5 C4 1_555 1_555
H10 C5 1_555 1_555
H11 C5 1_555 1_555
C6 C5 1_555 1_555
C7 C6 1_555 1_555
H12 C7 1_555 1_555
C8 C7 1_555 1_555
H13 C8 1_555 1_555
C9 C8 1_555 1_555
C10 C9 1_555 1_555
H14 C10 1_555 1_555
C11 C6 1_555 1_555
H15 C11 1_555 1_555
C12 C9 1_555 1_555
C13 C12 1_555 1_555
H16 C13 1_555 1_555
C14 C13 1_555 1_555
H17 C14 1_555 1_555
C15 C14 1_555 1_555
C16 C15 1_555 1_555
H18 C16 1_555 1_555
C17 C12 1_555 1_555
H19 C17 1_555 1_555
C18 C15 1_555 1_555
O1 C18 1_555 1_555
O2 C18 1_555 1_555
C19 O2 1_555 1_555
H20 C19 1_555 1_555
H21 C19 1_555 1_555
C20 C19 1_555 1_555
C21 C20 1_555 1_555
H22 C21 1_555 1_555
C22 C21 1_555 1_555
H23 C22 1_555 1_555
C23 C22 1_555 1_555
H24 C23 1_555 1_555
C24 C23 1_555 1_555
C25 C20 1_555 1_555
H25 C25 1_555 1_555
C26 C24 1_555 1_555
H26 C26 1_555 1_555
H27 C26 1_555 1_555
O3 C26 1_555 1_555
C27 O3 1_555 1_555
O4 C27 1_555 1_555
C28 C27 1_555 1_555
C29 C28 1_555 1_555
H28 C29 1_555 1_555
C30 C29 1_555 1_555
H29 C30 1_555 1_555
C31 C30 1_555 1_555
C32 C31 1_555 1_555
H30 C32 1_555 1_555
C33 C28 1_555 1_555
H31 C33 1_555 1_555
C34 C31 1_555 1_555
C35 C34 1_555 1_555
H32 C35 1_555 1_555
C36 C35 1_555 1_555
H33 C36 1_555 1_555
C37 C36 1_555 1_555
C38 C37 1_555 1_555
H34 C38 1_555 1_555
C39 C34 1_555 1_555
H35 C39 1_555 1_555
C40 C37 1_555 1_555
H36 C40 1_555 1_555
H37 C40 1_555 1_555
C41 C40 1_555 1_555
H38 C41 1_555 1_555
H39 C41 1_555 1_555
C42 C41 1_555 1_555
H40 C42 1_555 1_555
H41 C42 1_555 1_555
C43 C42 1_555 1_555
H42 C43 1_555 1_555
H43 C43 1_555 1_555
C44 C43 1_555 1_555
H44 C44 1_555 1_555
H45 C44 1_555 1_555
H46 C44 1_555 1_555
C10 C11 1_555 1_555
C16 C17 1_555 1_555
C24 C25 1_555 1_555
C32 C33 1_555 1_555
C38 C39 1_555 1_555

#END
