
#######################################################################
#
#                 Cambridge Crystallographic Data Centre
#                                CCDC 
#
#######################################################################
#
# If this CIF has been generated from an entry in the Cambridge 
# Structural Database, then it will include bibliographic, chemical, 
# crystal, experimental, refinement or atomic coordinate data resulting 
# from the CCDC's data processing and validation procedures.
#
#######################################################################

data_IRUBOO
_chemical_name_common            4-Benzyloxy-[2.2]paracyclophane
_chemical_formula_moiety         'C23 H22 O1'
_chemical_name_systematic        
5-(benzyloxy)tricyclo[8.2.2.2^4,7^]hexadeca-1(12),4,6,10,13,15-hexaene
_symmetry_cell_setting           monoclinic
_symmetry_space_group_name_H-M   'P 21/n'
_symmetry_Int_Tables_number      14
_space_group_name_Hall           '-P 2yn'
loop_
_symmetry_equiv_pos_site_id
_symmetry_equiv_pos_as_xyz
1 x,y,z
2 1/2-x,1/2+y,1/2-z
3 -x,-y,-z
4 1/2+x,1/2-y,1/2+z
_cell_length_a                   7.6983(1)
_cell_length_b                   23.0935(5)
_cell_length_c                   9.3669(2)
_cell_angle_alpha                90
_cell_angle_beta                 97.255(1)
_cell_angle_gamma                90
_cell_volume                     1651.92
_exptl_crystal_colour            colorless
_exptl_crystal_description       blocks
_cell_formula_units_Z            4
loop_
_atom_site_label
_atom_site_type_symbol
_atom_site_fract_x
_atom_site_fract_y
_atom_site_fract_z
C1 C 0.9946(2) 0.64413(8) 0.88696(18)
H1 H 1.0926 0.6655 0.9419
H2 H 0.9719 0.6092 0.9430
C2 C 0.8257(3) 0.68373(8) 0.87049(19)
H3 H 0.7264 0.6615 0.9002
H4 H 0.8467 0.7175 0.9356
C3 C 0.7774(2) 0.70496(8) 0.71816(18)
C4 C 0.6519(2) 0.67662(8) 0.6225(2)
H5 H 0.5598 0.6561 0.6587
C5 C 0.6597(2) 0.67795(8) 0.4752(2)
H6 H 0.5743 0.6577 0.4120
C6 C 0.7910(2) 0.70851(7) 0.41945(18)
C7 C 0.8880(2) 0.74734(7) 0.51176(19)
H7 H 0.9598 0.7753 0.4734
C8 C 0.8808(2) 0.74564(7) 0.65926(19)
H8 H 0.9473 0.7726 0.7204
C9 C 0.8512(3) 0.69229(8) 0.27729(19)
H9 H 0.8915 0.7277 0.2317
H10 H 0.7503 0.6766 0.2129
C10 C 1.0041(2) 0.64610(8) 0.29169(18)
H11 H 0.9664 0.6120 0.2315
H12 H 1.1075 0.6631 0.2543
C11 C 1.0563(2) 0.62645(7) 0.44493(18)
C12 C 1.1837(2) 0.65562(7) 0.53588(19)
H13 H 1.2741 0.6760 0.4971
C13 C 1.1786(2) 0.65488(7) 0.68397(19)
H14 H 1.2665 0.6749 0.7452
C14 C 1.0484(2) 0.62559(7) 0.74432(18)
C15 C 0.9427(2) 0.58747(7) 0.65462(18)
C16 C 0.9479(2) 0.58737(7) 0.50676(19)
H15 H 0.8777 0.5608 0.4474
O1 O 0.82235(16) 0.55706(5) 0.72208(13)
C17 C 0.7002(2) 0.52117(8) 0.63210(19)
H16 H 0.7640 0.4912 0.5838
H17 H 0.6315 0.5450 0.5573
C18 C 0.5806(2) 0.49311(8) 0.72654(18)
C19 C 0.6366(3) 0.44505(8) 0.8090(2)
H18 H 0.7489 0.4290 0.8027
C20 C 0.5284(3) 0.42040(8) 0.9008(2)
H19 H 0.5671 0.3876 0.9573
C21 C 0.3655(3) 0.44355(9) 0.9099(2)
H20 H 0.2926 0.4270 0.9737
C22 C 0.3078(3) 0.49037(9) 0.8273(2)
H21 H 0.1943 0.5057 0.8324
C23 C 0.4152(3) 0.51530(8) 0.7361(2)
H22 H 0.3749 0.5479 0.6796
loop_
_geom_bond_atom_site_label_1
_geom_bond_atom_site_label_2
_geom_bond_site_symmetry_1
_geom_bond_site_symmetry_2
C1 H1 1_555 1_555
H2 C1 1_555 1_555
C2 C1 1_555 1_555
H3 C2 1_555 1_555
H4 C2 1_555 1_555
C3 C2 1_555 1_555
C4 C3 1_555 1_555
H5 C4 1_555 1_555
C5 C4 1_555 1_555
H6 C5 1_555 1_555
C6 C5 1_555 1_555
C7 C6 1_555 1_555
H7 C7 1_555 1_555
C8 C3 1_555 1_555
H8 C8 1_555 1_555
C9 C6 1_555 1_555
H9 C9 1_555 1_555
H10 C9 1_555 1_555
C10 C9 1_555 1_555
H11 C10 1_555 1_555
H12 C10 1_555 1_555
C11 C10 1_555 1_555
C12 C11 1_555 1_555
H13 C12 1_555 1_555
C13 C12 1_555 1_555
H14 C13 1_555 1_555
C14 C1 1_555 1_555
C15 C14 1_555 1_555
C16 C11 1_555 1_555
H15 C16 1_555 1_555
O1 C15 1_555 1_555
C17 O1 1_555 1_555
H16 C17 1_555 1_555
H17 C17 1_555 1_555
C18 C17 1_555 1_555
C19 C18 1_555 1_555
H18 C19 1_555 1_555
C20 C19 1_555 1_555
H19 C20 1_555 1_555
C21 C20 1_555 1_555
H20 C21 1_555 1_555
C22 C21 1_555 1_555
H21 C22 1_555 1_555
C23 C18 1_555 1_555
H22 C23 1_555 1_555
C7 C8 1_555 1_555
C13 C14 1_555 1_555
C15 C16 1_555 1_555
C22 C23 1_555 1_555

#END
