
#######################################################################
#
#                 Cambridge Crystallographic Data Centre
#                                CCDC 
#
#######################################################################
#
# If this CIF has been generated from an entry in the Cambridge 
# Structural Database, then it will include bibliographic, chemical, 
# crystal, experimental, refinement or atomic coordinate data resulting 
# from the CCDC's data processing and validation procedures.
#
#######################################################################

data_IRUBUT
_chemical_name_common            
'4,5,10,11-tetrakis(4-pyridyl)-[5]ladderane benzene solvate'
_chemical_formula_moiety         'C32 H28 N4,2(C6 H6)'
_chemical_name_systematic        
"4,4',4'',4'''-Pentacyclo[6.4.0.0^2,7^.0^3,6^.0^9,12^]dodecane-4,5,10,11-tetrayltetrapyridine benzene solvate"
_symmetry_cell_setting           monoclinic
_symmetry_space_group_name_H-M   'P 21/c'
_symmetry_Int_Tables_number      14
_space_group_name_Hall           '-P 2ybc'
loop_
_symmetry_equiv_pos_site_id
_symmetry_equiv_pos_as_xyz
1 x,y,z
2 -x,1/2+y,1/2-z
3 -x,-y,-z
4 x,1/2-y,1/2+z
_cell_length_a                   17.8888(19)
_cell_length_b                   9.5512(11)
_cell_length_c                   20.427(3)
_cell_angle_alpha                90
_cell_angle_beta                 100.356(5)
_cell_angle_gamma                90
_cell_volume                     3433.29
_exptl_crystal_colour            colorless
_exptl_crystal_description       prism
_cell_formula_units_Z            4
loop_
_atom_site_label
_atom_site_type_symbol
_atom_site_fract_x
_atom_site_fract_y
_atom_site_fract_z
C1 C 0.24980(14) 0.10509(19) 0.23635(11)
C2 C 0.29280(11) 0.21566(17) 0.26606(10)
C3 C 0.26079(10) 0.34815(16) 0.26310(8)
C4 C 0.18601(11) 0.35874(18) 0.23072(10)
C5 C 0.14790(12) 0.2417(2) 0.20322(10)
C6 C 0.30483(9) 0.47350(15) 0.29307(8)
C7 C 0.31138(10) 0.59697(15) 0.24417(8)
C8 C 0.28372(10) 0.70138(16) 0.29207(8)
C9 C 0.34452(10) 0.75339(16) 0.35026(8)
C10 C 0.31182(10) 0.86253(16) 0.39167(8)
C11 C 0.36715(10) 0.91667(16) 0.45204(9)
C12 C 0.32856(10) 1.02276(16) 0.49310(9)
C13 C 0.31555(10) 0.90374(16) 0.54165(9)
C14 C 0.34437(10) 0.79374(16) 0.49615(9)
C15 C 0.28638(10) 0.74175(16) 0.43629(8)
C16 C 0.32098(9) 0.63258(16) 0.39579(8)
C17 C 0.26586(10) 0.57552(16) 0.33613(8)
C18 C 0.38425(10) 0.62549(16) 0.22009(8)
C19 C 0.43914(10) 0.52459(18) 0.21797(9)
C20 C 0.50222(11) 0.5570(2) 0.19096(10)
C21 C 0.46248(11) 0.77914(19) 0.16838(9)
C22 C 0.39810(10) 0.75688(17) 0.19518(9)
C23 C 0.37300(10) 1.14854(16) 0.52202(9)
C24 C 0.41839(10) 1.22136(17) 0.48523(10)
C25 C 0.45584(12) 1.34086(19) 0.51167(12)
C26 C 0.40878(13) 1.3207(2) 0.60682(11)
C27 C 0.36905(11) 1.20094(18) 0.58448(10)
C28 C 0.23935(10) 0.88329(17) 0.56120(8)
C29 C 0.18600(11) 0.98840(19) 0.55820(9)
C30 C 0.11908(12) 0.9634(2) 0.58048(11)
C31 C 0.15266(13) 0.7396(2) 0.60774(11)
C32 C 0.21995(11) 0.75518(19) 0.58569(10)
H1 H 0.2731 0.0154 0.2389
H2 H 0.3436 0.2011 0.2882
H3 H 0.161 0.4469 0.2275
H4 H 0.0965 0.2525 0.1819
H5 H 0.3562 0.4451 0.3174
H6 H 0.2702 0.5859 0.2044
H7 H 0.2413 0.7664 0.2737
H8 H 0.3986 0.7614 0.3442
H9 H 0.2721 0.928 0.3684
H10 H 0.4218 0.9299 0.4487
H11 H 0.2787 1.0533 0.4666
H12 H 0.3545 0.9132 0.5832
H13 H 0.3851 0.7275 0.5169
H14 H 0.2317 0.7337 0.4403
H15 H 0.3615 0.5692 0.4195
H16 H 0.2119 0.5577 0.3407
H17 H 0.4334 0.4334 0.235
H18 H 0.5392 0.4858 0.1904
H19 H 0.4698 0.8693 0.1509
H20 H 0.3631 0.8312 0.1967
H21 H 0.4237 1.1894 0.4423
H22 H 0.486 1.3895 0.4853
H23 H 0.4049 1.3543 0.6498
H24 H 0.3391 1.1547 0.6119
H25 H 0.1954 1.0777 0.5408
H26 H 0.0833 1.0376 0.5776
H27 H 0.1419 0.6513 0.6253
H28 H 0.2537 0.6779 0.5871
N1 N 0.17834(11) 0.11425(16) 0.20444(9)
N2 N 0.51502(9) 0.68151(17) 0.16557(8)
N3 N 0.45241(10) 1.39259(16) 0.57194(9)
N4 N 0.10106(10) 0.8419(2) 0.60592(9)
C33 C 0.9135(5) 0.7388(11) 0.5823(3)
C34 C 0.9377(3) 0.6963(9) 0.5244(3)
C35 C 0.8871(5) 0.6314(6) 0.4739(3)
C36 C 0.8123(5) 0.6089(6) 0.4812(6)
C37 C 0.7881(3) 0.6514(8) 0.5391(7)
C38 C 0.8386(5) 0.7164(11) 0.5896(5)
H29 H 0.948 0.7832 0.6168
H30 H 0.9889 0.7117 0.5194
H31 H 0.9037 0.6023 0.4344
H32 H 0.7778 0.5645 0.4467
H33 H 0.7369 0.6361 0.5441
H34 H 0.822 0.7454 0.6291
C39 C 0.0521(6) 0.6118(7) 0.3369(7)
C40 C 0.0513(6) 0.6672(7) 0.2738(4)
C41 C 0.0649(5) 0.8091(8) 0.2664(2)
C42 C 0.0793(3) 0.8956(5) 0.3220(5)
C43 C 0.0801(4) 0.8401(13) 0.3850(3)
C44 C 0.0665(5) 0.6982(14) 0.3925(4)
H35 H 0.0428 0.5148 0.342
H36 H 0.0414 0.6082 0.2359
H37 H 0.0643 0.847 0.2233
H38 H 0.0885 0.9925 0.3169
H39 H 0.09 0.8992 0.423
H40 H 0.0671 0.6603 0.4356
C45? C 0.9169(5) 0.7397(16) 0.5697(8)
C46? C 0.9132(9) 0.6774(13) 0.5077(8)
C47? C 0.8462(11) 0.6143(8) 0.4764(4)
C48? C 0.7829(7) 0.6136(6) 0.5071(4)
C49? C 0.7866(5) 0.6759(9) 0.5691(5)
C50? C 0.8536(7) 0.7390(15) 0.6004(4)
C51? C 0.0533(8) 0.6103(8) 0.3134(5)
C52? C 0.0633(7) 0.7144(16) 0.2682(3)
C53? C 0.0779(5) 0.8512(12) 0.2899(7)
C54? C 0.0826(4) 0.8841(4) 0.3568(8)
C55? C 0.0726(3) 0.7801(11) 0.4020(4)
C56? C 0.0579(6) 0.6432(7) 0.3803(4)
H41? H 0.9627 0.7828 0.5911
H42? H 0.9565 0.6779 0.4867
H43? H 0.8437 0.5717 0.4341
H44? H 0.7371 0.5704 0.4858
H45? H 0.7433 0.6754 0.5901
H46? H 0.8561 0.7816 0.6428
H47? H 0.0432 0.5168 0.2986
H48? H 0.0601 0.6919 0.2225
H49? H 0.0848 0.9223 0.259
H50? H 0.0926 0.9776 0.3716
H51? H 0.0758 0.8025 0.4477
H52? H 0.0511 0.5721 0.4112
loop_
_geom_bond_atom_site_label_1
_geom_bond_atom_site_label_2
_geom_bond_site_symmetry_1
_geom_bond_site_symmetry_2
C1 C2 1_555 1_555
C2 C3 1_555 1_555
C3 C4 1_555 1_555
C4 C5 1_555 1_555
C5 H4 1_555 1_555
C6 C3 1_555 1_555
C7 C6 1_555 1_555
C8 C7 1_555 1_555
C9 C8 1_555 1_555
C10 C9 1_555 1_555
C11 C10 1_555 1_555
C12 C11 1_555 1_555
C13 C12 1_555 1_555
C14 C11 1_555 1_555
C15 C10 1_555 1_555
C16 C9 1_555 1_555
C17 C6 1_555 1_555
C18 C7 1_555 1_555
C19 C18 1_555 1_555
C20 C19 1_555 1_555
C21 C22 1_555 1_555
C22 C18 1_555 1_555
C23 C12 1_555 1_555
C24 C23 1_555 1_555
C25 C24 1_555 1_555
C26 C27 1_555 1_555
C27 C23 1_555 1_555
C28 C13 1_555 1_555
C29 C28 1_555 1_555
C30 C29 1_555 1_555
C31 C32 1_555 1_555
C32 C28 1_555 1_555
C33 C34 1_555 1_555
C34 C35 1_555 1_555
C35 C36 1_555 1_555
C36 C37 1_555 1_555
C37 C38 1_555 1_555
C38 C33 1_555 1_555
C39 C40 1_555 1_555
C40 C41 1_555 1_555
C41 C42 1_555 1_555
C42 C43 1_555 1_555
C43 C44 1_555 1_555
C44 C39 1_555 1_555
H1 C1 1_555 1_555
H2 C2 1_555 1_555
H3 C4 1_555 1_555
H5 C6 1_555 1_555
H6 C7 1_555 1_555
H7 C8 1_555 1_555
H8 C9 1_555 1_555
H9 C10 1_555 1_555
H10 C11 1_555 1_555
H11 C12 1_555 1_555
H12 C13 1_555 1_555
H13 C14 1_555 1_555
H14 C15 1_555 1_555
H15 C16 1_555 1_555
H16 C17 1_555 1_555
H17 C19 1_555 1_555
H18 C20 1_555 1_555
H19 C21 1_555 1_555
H20 C22 1_555 1_555
H21 C24 1_555 1_555
H22 C25 1_555 1_555
H23 C26 1_555 1_555
H24 C27 1_555 1_555
H25 C29 1_555 1_555
H26 C30 1_555 1_555
H27 C31 1_555 1_555
H28 C32 1_555 1_555
H29 C33 1_555 1_555
H30 C34 1_555 1_555
H31 C35 1_555 1_555
H32 C36 1_555 1_555
H33 C37 1_555 1_555
H34 C38 1_555 1_555
H35 C39 1_555 1_555
H36 C40 1_555 1_555
H37 C41 1_555 1_555
H38 C42 1_555 1_555
H39 C43 1_555 1_555
H40 C44 1_555 1_555
N1 C1 1_555 1_555
N2 C20 1_555 1_555
N3 C25 1_555 1_555
N4 C30 1_555 1_555
C5 N1 1_555 1_555
C8 C17 1_555 1_555
C13 C14 1_555 1_555
C14 C15 1_555 1_555
C15 C16 1_555 1_555
C16 C17 1_555 1_555
C21 N2 1_555 1_555
C26 N3 1_555 1_555
C31 N4 1_555 1_555

#END
