
#######################################################################
#
#                 Cambridge Crystallographic Data Centre
#                                CCDC 
#
#######################################################################
#
# If this CIF has been generated from an entry in the Cambridge 
# Structural Database, then it will include bibliographic, chemical, 
# crystal, experimental, refinement or atomic coordinate data resulting 
# from the CCDC's data processing and validation procedures.
#
#######################################################################

data_IRUDOQ
_chemical_formula_moiety         'C19 H19 N1 O2'
_chemical_name_systematic        
3-(hydroxymethyl)-3-methyl-1-(2-phenylprop-2-en-1-yl)-1,3-dihydro-2H-indol-2-one
_symmetry_cell_setting           orthorhombic
_symmetry_space_group_name_H-M   'P 21 21 21'
_symmetry_Int_Tables_number      19
_space_group_name_Hall           'P 2ac 2ab'
loop_
_symmetry_equiv_pos_site_id
_symmetry_equiv_pos_as_xyz
1 x,y,z
2 1/2-x,-y,1/2+z
3 1/2+x,1/2-y,-z
4 -x,1/2+y,1/2-z
_cell_length_a                   5.9339(2)
_cell_length_b                   12.3047(5)
_cell_length_c                   21.7128(9)
_cell_angle_alpha                90
_cell_angle_beta                 90
_cell_angle_gamma                90
_cell_volume                     1585.36
_exptl_crystal_colour            colorless
_exptl_crystal_description       block
_cell_formula_units_Z            4
loop_
_atom_site_label
_atom_site_type_symbol
_atom_site_fract_x
_atom_site_fract_y
_atom_site_fract_z
C1 C -0.1458(4) -0.65887(18) -0.82236(10)
O1 O -0.2917(3) -0.79167(15) -0.67776(9)
O2 O 0.2622(3) -0.84448(13) -0.68884(8)
H1 H 0.3924 -0.8222 -0.6896
C2 C 0.0403(3) -0.72675(19) -0.62189(10)
N1 N -0.1044(3) -0.63847(15) -0.70900(8)
C3 C -0.1402(3) -0.72490(18) -0.67210(9)
C4 C -0.2720(4) -0.63011(18) -0.87910(11)
C5 C -0.2393(4) -0.6136(2) -0.76284(10)
H2 H -0.2518 -0.5353 -0.7667
H3 H -0.3899 -0.6423 -0.7567
C6 C 0.0860(3) -0.57903(17) -0.68962(10)
C7 C 0.1763(3) -0.62755(18) -0.63743(10)
C8 C 0.3633(4) -0.5828(2) -0.60999(12)
H4 H 0.4263 -0.6145 -0.5751
C9 C 0.3647(5) -0.4423(2) -0.68671(14)
H5 H 0.4300 -0.3799 -0.7029
C10 C -0.0703(4) -0.7233(3) -0.55831(11)
H6 H -0.1496 -0.6558 -0.5535
H7 H 0.0436 -0.7292 -0.5271
H8 H -0.1744 -0.7826 -0.5545
C11 C -0.4763(5) -0.5764(2) -0.87685(14)
H9 H -0.5371 -0.5578 -0.8388
C12 C -0.1877(6) -0.6558(3) -0.93669(14)
H10 H -0.0495 -0.6910 -0.9399
C13 C 0.4566(5) -0.4893(2) -0.63527(14)
H11 H 0.5830 -0.4582 -0.6171
C14 C 0.0350(5) -0.7219(3) -0.82226(13)
C15 C -0.5924(7) -0.5496(3) -0.93011(19)
H12 H -0.7290 -0.5129 -0.9275
C16 C 0.1741(4) -0.83251(19) -0.62895(12)
H13 H 0.2969 -0.8331 -0.5995
H14 H 0.0766 -0.8937 -0.6198
C17 C 0.1759(4) -0.48631(19) -0.71518(12)
H15 H 0.1129 -0.4544 -0.7500
C18 C -0.3059(9) -0.6298(4) -0.98968(15)
H16 H -0.2474 -0.6486 -1.0280
C19 C -0.5075(9) -0.5769(3) -0.98616(18)
H17 H -0.5863 -0.5596 -1.0219
H18 H 0.090(5) -0.764(2) -0.8601(14)
H19 H 0.119(5) -0.741(2) -0.7826(15)
loop_
_geom_bond_atom_site_label_1
_geom_bond_atom_site_label_2
_geom_bond_site_symmetry_1
_geom_bond_site_symmetry_2
C1 C4 1_555 1_555
O1 C3 1_555 1_555
O2 H1 1_555 1_555
C2 C3 1_555 1_555
N1 C3 1_555 1_555
C4 C11 1_555 1_555
C5 C1 1_555 1_555
H2 C5 1_555 1_555
H3 C5 1_555 1_555
C6 N1 1_555 1_555
C7 C2 1_555 1_555
C8 C7 1_555 1_555
H4 C8 1_555 1_555
C9 H5 1_555 1_555
C10 C2 1_555 1_555
H6 C10 1_555 1_555
H7 C10 1_555 1_555
H8 C10 1_555 1_555
C11 H9 1_555 1_555
C12 C4 1_555 1_555
H10 C12 1_555 1_555
C13 C8 1_555 1_555
H11 C13 1_555 1_555
C14 C1 1_555 1_555
C15 C11 1_555 1_555
H12 C15 1_555 1_555
C16 O2 1_555 1_555
H13 C16 1_555 1_555
H14 C16 1_555 1_555
C17 C6 1_555 1_555
H15 C17 1_555 1_555
C18 C12 1_555 1_555
H16 C18 1_555 1_555
C19 C15 1_555 1_555
H17 C19 1_555 1_555
H18 C14 1_555 1_555
H19 C14 1_555 1_555
C2 C16 1_555 1_555
N1 C5 1_555 1_555
C6 C7 1_555 1_555
C9 C13 1_555 1_555
C9 C17 1_555 1_555
C18 C19 1_555 1_555

#END
