
#######################################################################
#
#                 Cambridge Crystallographic Data Centre
#                                CCDC 
#
#######################################################################
#
# If this CIF has been generated from an entry in the Cambridge 
# Structural Database, then it will include bibliographic, chemical, 
# crystal, experimental, refinement or atomic coordinate data resulting 
# from the CCDC's data processing and validation procedures.
#
#######################################################################

data_IRUJEM01
_chemical_formula_moiety         'C38 H30 O2'
_chemical_name_systematic        
7-t-butyl-1,3-bis((4-methoxyphenyl)ethynyl)pyrene
_symmetry_cell_setting           triclinic
_symmetry_space_group_name_H-M   'P -1'
_symmetry_Int_Tables_number      2
_space_group_name_Hall           '-P 1'
loop_
_symmetry_equiv_pos_site_id
_symmetry_equiv_pos_as_xyz
1 x,y,z
2 -x,-y,-z
_cell_length_a                   8.902(2)
_cell_length_b                   12.088(3)
_cell_length_c                   27.070(8)
_cell_angle_alpha                101.774(18)
_cell_angle_beta                 93.904(19)
_cell_angle_gamma                100.502(18)
_cell_volume                     2787.05
_exptl_crystal_colour            yellow
_exptl_crystal_description       block
_chemical_melting_point          '464-465 K'
_cell_formula_units_Z            4
_exptl_crystal_recrystallization_method methanol/chloroform
loop_
_atom_site_label
_atom_site_type_symbol
_atom_site_fract_x
_atom_site_fract_y
_atom_site_fract_z
C1 C 0.4992(4) 0.1768(2) 0.03882(12)
C2 C 0.6027(4) 0.1587(2) 0.07703(12)
C3 C 0.7375(4) 0.1173(2) 0.06443(13)
C4 C 0.8400(4) 0.1035(3) 0.10305(13)
H1 H 0.9289 0.0777 0.0944
C5 C 0.8147(4) 0.1268(3) 0.15381(13)
C6 C 0.6810(4) 0.1652(3) 0.16560(13)
H2 H 0.6615 0.1808 0.1994
C7 C 0.5743(4) 0.1813(3) 0.12861(13)
C8 C 0.4373(4) 0.2228(3) 0.14080(13)
H3 H 0.4154 0.2363 0.1744
C9 C 0.3392(4) 0.2427(3) 0.10484(12)
H4 H 0.2527 0.2712 0.1143
C10 C 0.3659(4) 0.2208(3) 0.05255(13)
C11 C 0.2660(4) 0.2423(3) 0.01416(13)
C12 C 0.2972(4) 0.2182(3) -0.03618(13)
H5 H 0.2307 0.2325 -0.0611
C13 C 0.4255(4) 0.1734(3) -0.05016(13)
C14 C 0.5291(4) 0.1524(2) -0.01259(13)
C15 C 0.6646(4) 0.1091(2) -0.02474(13)
H6 H 0.6848 0.0921 -0.0584
C16 C 0.7638(4) 0.0924(2) 0.01199(13)
H7 H 0.8510 0.0643 0.0030
C17 C 0.9314(4) 0.1144(3) 0.19539(14)
C18 C 1.0199(5) 0.0203(4) 0.17474(16)
H8 H 0.9501 -0.0529 0.1650
H9 H 1.0974 0.0172 0.2006
H10 H 1.0676 0.0378 0.1457
C19 C 1.0439(4) 0.2288(4) 0.21386(14)
H11 H 1.0929 0.2505 0.1858
H12 H 1.1203 0.2210 0.2390
H13 H 0.9897 0.2870 0.2284
C20 C 0.8561(4) 0.0834(3) 0.24121(13)
H14 H 0.8052 0.1436 0.2560
H15 H 0.9335 0.0750 0.2659
H16 H 0.7825 0.0122 0.2305
C21 C 0.1359(4) 0.2933(3) 0.02790(12)
C22 C 0.0334(4) 0.3401(3) 0.04195(13)
C23 C -0.0871(4) 0.3931(3) 0.06227(13)
C24 C -0.1034(4) 0.4091(3) 0.11431(13)
H17 H -0.0340 0.3865 0.1356
C25 C -0.2201(4) 0.4574(3) 0.13433(13)
H18 H -0.2281 0.4681 0.1690
C26 C -0.3262(4) 0.4906(3) 0.10325(14)
C27 C -0.3119(4) 0.4757(3) 0.05157(13)
H19 H -0.3825 0.4976 0.0305
C28 C -0.1933(4) 0.4285(3) 0.03163(13)
H20 H -0.1839 0.4202 -0.0029
O1 O -0.4392(3) 0.53549(19) 0.12684(9)
C29 C -0.5675(4) 0.5499(3) 0.09450(14)
H21 H -0.5311 0.6026 0.0738
H22 H -0.6406 0.5801 0.1152
H23 H -0.6159 0.4767 0.0732
C30 C 0.4536(4) 0.1531(3) -0.10262(14)
C31 C 0.4814(4) 0.1437(3) -0.14582(14)
C32 C 0.5185(4) 0.1359(3) -0.19669(13)
C33 C 0.4728(4) 0.2060(3) -0.22659(13)
H24 H 0.4147 0.2593 -0.2132
C34 C 0.5101(4) 0.2000(3) -0.27591(13)
H25 H 0.4763 0.2477 -0.2953
C35 C 0.5981(4) 0.1224(3) -0.29569(13)
C36 C 0.6439(4) 0.0492(3) -0.26680(13)
H26 H 0.7026 -0.0037 -0.2802
C37 C 0.6027(4) 0.0549(3) -0.21834(13)
H27 H 0.6314 0.0040 -0.1997
O2 O 0.6462(2) 0.11073(19) -0.34280(9)
C38 C 0.5961(4) 0.1785(3) -0.37540(12)
H28 H 0.4858 0.1638 -0.3798
H29 H 0.6337 0.1587 -0.4078
H30 H 0.6349 0.2588 -0.3606
C39 C 1.0093(4) 0.6660(2) 0.52565(13)
C40 C 1.1097(4) 0.6390(3) 0.56246(13)
C41 C 1.2463(4) 0.6008(3) 0.54838(14)
C42 C 1.3465(4) 0.5797(3) 0.58594(15)
H31 H 1.4369 0.5571 0.5767
C43 C 1.3175(4) 0.5908(3) 0.63667(15)
C44 C 1.1807(4) 0.6254(3) 0.64893(14)
H32 H 1.1571 0.6318 0.6822
C45 C 1.0775(4) 0.6509(3) 0.61363(14)
C46 C 0.9390(4) 0.6888(3) 0.62689(13)
H33 H 0.9141 0.6943 0.6600
C47 C 0.8442(4) 0.7168(3) 0.59258(13)
H34 H 0.7565 0.7426 0.6027
C48 C 0.8751(4) 0.7077(3) 0.54071(13)
C49 C 0.7783(4) 0.7396(3) 0.50474(13)
C50 C 0.8142(4) 0.7271(3) 0.45483(13)
H35 H 0.7504 0.7481 0.4312
C51 C 0.9421(4) 0.6841(3) 0.43902(13)
C52 C 1.0430(4) 0.6540(2) 0.47444(13)
C53 C 1.1790(4) 0.6126(2) 0.46129(14)
H36 H 1.2015 0.6023 0.4278
C54 C 1.2760(4) 0.5880(3) 0.49659(14)
H37 H 1.3640 0.5622 0.4868
C55 C 1.4320(4) 0.5714(3) 0.67667(15)
C56 C 1.5208(6) 0.4808(4) 0.65430(18)
H38 H 1.4511 0.4080 0.6421
H39 H 1.5960 0.4735 0.6800
H40 H 1.5715 0.5034 0.6267
C57 C 1.5458(4) 0.6835(3) 0.69824(13)
H41 H 1.5978 0.7088 0.6714
H42 H 1.6195 0.6715 0.7232
H43 H 1.4919 0.7411 0.7138
C58 C 1.3545(4) 0.5378(4) 0.72251(17)
H44 H 1.3063 0.5987 0.7384
H45 H 1.4308 0.5258 0.7466
H46 H 1.2785 0.4681 0.7110
C59 C 0.6475(4) 0.7876(3) 0.51991(12)
C60 C 0.5451(4) 0.8318(3) 0.53511(12)
C61 C 0.4219(4) 0.8810(3) 0.55635(13)
C62 C 0.4049(4) 0.8887(3) 0.60767(13)
H47 H 0.4754 0.8635 0.6275
C63 C 0.2893(4) 0.9315(3) 0.62955(14)
H48 H 0.2821 0.9368 0.6640
C64 C 0.1807(4) 0.9676(3) 0.60008(16)
C65 C 0.1954(4) 0.9627(3) 0.54925(14)
H49 H 0.1243 0.9877 0.5296
C66 C 0.3165(4) 0.9201(3) 0.52734(13)
H50 H 0.3269 0.9179 0.4932
O3 O 0.0673(3) 1.0106(2) 0.62675(10)
C67 C -0.0567(4) 1.0270(3) 0.59653(15)
H51 H -0.0240 1.0913 0.5814
H52 H -0.1374 1.0422 0.6171
H53 H -0.0938 0.9588 0.5703
C68 C 0.9734(4) 0.6741(3) 0.38678(15)
C69 C 0.9985(4) 0.6707(3) 0.34426(15)
C70 C 1.0280(5) 0.6657(4) 0.29336(17)
C71 C 0.9705(5) 0.7327(4) 0.26548(16)
H54 H 0.9074 0.7814 0.2795
C72 C 1.0076(5) 0.7287(3) 0.21296(18)
H55 H 0.9686 0.7727 0.1927
C73 C 1.1013(4) 0.6574(3) 0.19629(15)
C74 C 1.1548(5) 0.5830(4) 0.22226(18)
H56 H 1.2121 0.5308 0.2073
C75 C 1.1202(5) 0.5895(4) 0.27020(17)
H57 H 1.1582 0.5422 0.2890
O4 O 1.1442(3) 0.6456(2) 0.14572(11)
C76 C 1.0810(5) 0.7141(3) 0.11389(14)
H58 H 0.9821 0.7253 0.1235
H59 H 1.0705 0.6742 0.0789
H60 H 1.1490 0.7876 0.1183
loop_
_geom_bond_atom_site_label_1
_geom_bond_atom_site_label_2
_geom_bond_site_symmetry_1
_geom_bond_site_symmetry_2
C1 C2 1_555 1_555
C2 C3 1_555 1_555
C3 C4 1_555 1_555
C4 H1 1_555 1_555
C5 C4 1_555 1_555
C6 C5 1_555 1_555
H2 C6 1_555 1_555
C7 C2 1_555 1_555
C8 C7 1_555 1_555
H3 C8 1_555 1_555
C9 C8 1_555 1_555
H4 C9 1_555 1_555
C10 C1 1_555 1_555
C11 C10 1_555 1_555
C12 C11 1_555 1_555
H5 C12 1_555 1_555
C13 C12 1_555 1_555
C14 C1 1_555 1_555
C15 C14 1_555 1_555
H6 C15 1_555 1_555
C16 C3 1_555 1_555
H7 C16 1_555 1_555
C17 C5 1_555 1_555
C18 C17 1_555 1_555
H8 C18 1_555 1_555
H9 C18 1_555 1_555
H10 C18 1_555 1_555
C19 C17 1_555 1_555
H11 C19 1_555 1_555
H12 C19 1_555 1_555
H13 C19 1_555 1_555
C20 C17 1_555 1_555
H14 C20 1_555 1_555
H15 C20 1_555 1_555
H16 C20 1_555 1_555
C21 C11 1_555 1_555
C22 C21 1_555 1_555
C23 C22 1_555 1_555
C24 C23 1_555 1_555
H17 C24 1_555 1_555
C25 C24 1_555 1_555
H18 C25 1_555 1_555
C26 C25 1_555 1_555
C27 C26 1_555 1_555
H19 C27 1_555 1_555
C28 C23 1_555 1_555
H20 C28 1_555 1_555
O1 C26 1_555 1_555
C29 O1 1_555 1_555
H21 C29 1_555 1_555
H22 C29 1_555 1_555
H23 C29 1_555 1_555
C30 C13 1_555 1_555
C31 C30 1_555 1_555
C32 C31 1_555 1_555
C33 C32 1_555 1_555
H24 C33 1_555 1_555
C34 C33 1_555 1_555
H25 C34 1_555 1_555
C35 C34 1_555 1_555
C36 C35 1_555 1_555
H26 C36 1_555 1_555
C37 C32 1_555 1_555
H27 C37 1_555 1_555
O2 C35 1_555 1_555
C38 O2 1_555 1_555
H28 C38 1_555 1_555
H29 C38 1_555 1_555
H30 C38 1_555 1_555
C39 C40 1_555 1_555
C40 C41 1_555 1_555
C41 C42 1_555 1_555
C42 H31 1_555 1_555
C43 C42 1_555 1_555
C44 C43 1_555 1_555
H32 C44 1_555 1_555
C45 C40 1_555 1_555
C46 C45 1_555 1_555
H33 C46 1_555 1_555
C47 C46 1_555 1_555
H34 C47 1_555 1_555
C48 C39 1_555 1_555
C49 C48 1_555 1_555
C50 C49 1_555 1_555
H35 C50 1_555 1_555
C51 C50 1_555 1_555
C52 C39 1_555 1_555
C53 C52 1_555 1_555
H36 C53 1_555 1_555
C54 C41 1_555 1_555
H37 C54 1_555 1_555
C55 C43 1_555 1_555
C56 C55 1_555 1_555
H38 C56 1_555 1_555
H39 C56 1_555 1_555
H40 C56 1_555 1_555
C57 C55 1_555 1_555
H41 C57 1_555 1_555
H42 C57 1_555 1_555
H43 C57 1_555 1_555
C58 C55 1_555 1_555
H44 C58 1_555 1_555
H45 C58 1_555 1_555
H46 C58 1_555 1_555
C59 C49 1_555 1_555
C60 C59 1_555 1_555
C61 C60 1_555 1_555
C62 C61 1_555 1_555
H47 C62 1_555 1_555
C63 C62 1_555 1_555
H48 C63 1_555 1_555
C64 C63 1_555 1_555
C65 C64 1_555 1_555
H49 C65 1_555 1_555
C66 C61 1_555 1_555
H50 C66 1_555 1_555
O3 C64 1_555 1_555
C67 O3 1_555 1_555
H51 C67 1_555 1_555
H52 C67 1_555 1_555
H53 C67 1_555 1_555
C68 C51 1_555 1_555
C69 C68 1_555 1_555
C70 C69 1_555 1_555
C71 C70 1_555 1_555
H54 C71 1_555 1_555
C72 C71 1_555 1_555
H55 C72 1_555 1_555
C73 C72 1_555 1_555
C74 C73 1_555 1_555
H56 C74 1_555 1_555
C75 C70 1_555 1_555
H57 C75 1_555 1_555
O4 C73 1_555 1_555
C76 O4 1_555 1_555
H58 C76 1_555 1_555
H59 C76 1_555 1_555
H60 C76 1_555 1_555
C6 C7 1_555 1_555
C9 C10 1_555 1_555
C13 C14 1_555 1_555
C15 C16 1_555 1_555
C27 C28 1_555 1_555
C36 C37 1_555 1_555
C44 C45 1_555 1_555
C47 C48 1_555 1_555
C51 C52 1_555 1_555
C53 C54 1_555 1_555
C65 C66 1_555 1_555
C74 C75 1_555 1_555

#END
