
#######################################################################
#
#                 Cambridge Crystallographic Data Centre
#                                CCDC 
#
#######################################################################
#
# If this CIF has been generated from an entry in the Cambridge 
# Structural Database, then it will include bibliographic, chemical, 
# crystal, experimental, refinement or atomic coordinate data resulting 
# from the CCDC's data processing and validation procedures.
#
#######################################################################

data_IRUJUC
_chemical_formula_moiety         'C38 H26 O2'
_chemical_name_systematic        
4-((7-t-butyl-3-((4-formylphenyl)ethynyl)pyren-1-yl)ethynyl)benzaldehyde
_symmetry_cell_setting           triclinic
_symmetry_space_group_name_H-M   'P -1'
_symmetry_Int_Tables_number      2
_space_group_name_Hall           '-P 1'
loop_
_symmetry_equiv_pos_site_id
_symmetry_equiv_pos_as_xyz
1 x,y,z
2 -x,-y,-z
_cell_length_a                   8.9354(5)
_cell_length_b                   11.8785(9)
_cell_length_c                   13.0754(6)
_cell_angle_alpha                97.029(5)
_cell_angle_beta                 102.787(4)
_cell_angle_gamma                100.349(5)
_cell_volume                     1312.22
_exptl_crystal_colour            orange
_exptl_crystal_description       block
_chemical_melting_point          '221-223 deg.C'
_cell_formula_units_Z            2
_exptl_crystal_recrystallization_method dichloromethane/benzene
loop_
_atom_site_label
_atom_site_type_symbol
_atom_site_fract_x
_atom_site_fract_y
_atom_site_fract_z
C1 C 0.4844(2) 0.64250(15) 0.44601(13)
C2 C 0.5493(2) 0.57765(15) 0.37438(13)
C3 C 0.4642(2) 0.53822(16) 0.26686(13)
C4 C 0.5337(2) 0.48040(17) 0.19637(14)
H1 H 0.474(3) 0.4514(19) 0.1202(18)
C5 C 0.6853(2) 0.46082(16) 0.22806(14)
C6 C 0.7664(2) 0.49814(16) 0.33469(14)
H2 H 0.872(3) 0.4858(18) 0.3605(17)
C7 C 0.7014(2) 0.55560(15) 0.40829(13)
C8 C 0.7863(2) 0.59700(16) 0.51736(13)
H3 H 0.892(2) 0.5799(17) 0.5403(16)
C9 C 0.7251(2) 0.65816(16) 0.58598(13)
H4 H 0.783(2) 0.6869(17) 0.6598(16)
C10 C 0.5729(2) 0.68399(15) 0.55266(13)
C11 C 0.5078(2) 0.75166(16) 0.62169(14)
C12 C 0.3610(2) 0.77676(16) 0.58442(15)
H5 H 0.316(3) 0.8194(19) 0.6312(17)
C13 C 0.2739(2) 0.73707(16) 0.47927(14)
C14 C 0.3342(2) 0.66824(15) 0.40885(14)
C15 C 0.2496(2) 0.62463(17) 0.30059(14)
H6 H 0.151(3) 0.6456(18) 0.2801(17)
C16 C 0.3106(2) 0.56194(17) 0.23330(14)
H7 H 0.252(3) 0.5337(18) 0.1603(18)
C17 C 0.7627(2) 0.40714(18) 0.14549(14)
C18 C 0.6432(3) 0.3135(2) 0.06130(19)
H8 H 0.599(2) 0.2514(18) 0.0977(16)
H9 H 0.710(2) 0.2844(17) 0.0081(16)
H10 H 0.563(3) 0.3443(18) 0.0219(17)
C19 C 0.8299(3) 0.5060(2) 0.09033(16)
H11 H 0.755(3) 0.5444(19) 0.0601(18)
H12 H 0.874(3) 0.469(2) 0.038(2)
H13 H 0.908(3) 0.565(2) 0.136(2)
C20 C 0.8977(3) 0.3542(2) 0.19951(17)
H14 H 0.991(3) 0.418(2) 0.2445(19)
H15 H 0.941(3) 0.318(2) 0.148(2)
H16 H 0.860(3) 0.294(2) 0.2411(18)
C21 C 0.5926(2) 0.79606(17) 0.72962(14)
C22 C 0.6607(2) 0.83509(17) 0.82010(14)
C23 C 0.7397(2) 0.88276(17) 0.92861(14)
C24 C 0.8688(2) 0.8421(2) 0.98058(16)
H17 H 0.895(3) 0.779(2) 0.9448(19)
C25 C 0.9479(2) 0.89110(19) 1.08416(15)
H18 H 1.038(3) 0.860(2) 1.1157(19)
C26 C 0.8970(2) 0.97929(18) 1.13799(14)
C27 C 0.7667(2) 1.01893(18) 1.08746(15)
H19 H 0.728(3) 1.079(2) 1.129(2)
C28 C 0.6898(2) 0.97173(17) 0.98374(14)
H20 H 0.603(3) 0.9992(19) 0.9458(18)
C29 C 0.9827(3) 1.0303(2) 1.24907(16)
H21 H 1.085(2) 0.9970(17) 1.2807(16)
O1 O 0.9451(2) 1.10472(14) 1.30389(11)
C30 C 0.1257(2) 0.76752(16) 0.44297(14)
C31 C 0.0025(2) 0.79425(16) 0.41307(15)
C32 C -0.1468(2) 0.82517(16) 0.37935(14)
C33 C -0.2008(2) 0.89626(17) 0.45077(15)
H22 H -0.141(3) 0.917(2) 0.5219(19)
C34 C -0.3442(2) 0.92421(17) 0.41860(15)
H23 H -0.377(3) 0.971(2) 0.4674(19)
C35 C -0.4379(2) 0.88237(17) 0.31540(15)
C36 C -0.3836(2) 0.81174(17) 0.24351(15)
H24 H -0.449(3) 0.7819(19) 0.1757(18)
C37 C -0.2398(2) 0.78447(17) 0.27545(15)
H25 H -0.197(3) 0.734(2) 0.2274(19)
C38 C -0.5951(2) 0.90838(19) 0.28504(17)
H26 H -0.645(3) 0.955(2) 0.3362(18)
O2 O -0.68868(19) 0.87159(15) 0.20023(13)
loop_
_geom_bond_atom_site_label_1
_geom_bond_atom_site_label_2
_geom_bond_site_symmetry_1
_geom_bond_site_symmetry_2
C1 C2 1_555 1_555
C2 C3 1_555 1_555
C3 C4 1_555 1_555
C4 H1 1_555 1_555
C5 C4 1_555 1_555
C6 C5 1_555 1_555
H2 C6 1_555 1_555
C7 C2 1_555 1_555
C8 C7 1_555 1_555
H3 C8 1_555 1_555
C9 C8 1_555 1_555
H4 C9 1_555 1_555
C10 C1 1_555 1_555
C11 C10 1_555 1_555
C12 C11 1_555 1_555
H5 C12 1_555 1_555
C13 C12 1_555 1_555
C14 C1 1_555 1_555
C15 C14 1_555 1_555
H6 C15 1_555 1_555
C16 C3 1_555 1_555
H7 C16 1_555 1_555
C17 C5 1_555 1_555
C18 C17 1_555 1_555
H8 C18 1_555 1_555
H9 C18 1_555 1_555
H10 C18 1_555 1_555
C19 C17 1_555 1_555
H11 C19 1_555 1_555
H12 C19 1_555 1_555
H13 C19 1_555 1_555
C20 C17 1_555 1_555
H14 C20 1_555 1_555
H15 C20 1_555 1_555
H16 C20 1_555 1_555
C21 C11 1_555 1_555
C22 C21 1_555 1_555
C23 C22 1_555 1_555
C24 C23 1_555 1_555
H17 C24 1_555 1_555
C25 C24 1_555 1_555
H18 C25 1_555 1_555
C26 C25 1_555 1_555
C27 C26 1_555 1_555
H19 C27 1_555 1_555
C28 C23 1_555 1_555
H20 C28 1_555 1_555
C29 C26 1_555 1_555
H21 C29 1_555 1_555
O1 C29 1_555 1_555
C30 C13 1_555 1_555
C31 C30 1_555 1_555
C32 C31 1_555 1_555
C33 C32 1_555 1_555
H22 C33 1_555 1_555
C34 C33 1_555 1_555
H23 C34 1_555 1_555
C35 C34 1_555 1_555
C36 C35 1_555 1_555
H24 C36 1_555 1_555
C37 C32 1_555 1_555
H25 C37 1_555 1_555
C38 C35 1_555 1_555
H26 C38 1_555 1_555
O2 C38 1_555 1_555
C6 C7 1_555 1_555
C9 C10 1_555 1_555
C13 C14 1_555 1_555
C15 C16 1_555 1_555
C27 C28 1_555 1_555
C36 C37 1_555 1_555

#END
