
#######################################################################
#
#                 Cambridge Crystallographic Data Centre
#                                CCDC 
#
#######################################################################
#
# If this CIF has been generated from an entry in the Cambridge 
# Structural Database, then it will include bibliographic, chemical, 
# crystal, experimental, refinement or atomic coordinate data resulting 
# from the CCDC's data processing and validation procedures.
#
#######################################################################

data_IRUJEM
_chemical_formula_moiety         'C38 H30 O2'
_chemical_name_systematic        
7-t-butyl-1,3-bis((4-methoxyphenyl)ethynyl)pyrene
_symmetry_cell_setting           triclinic
_symmetry_space_group_name_H-M   'P -1'
_symmetry_Int_Tables_number      2
_space_group_name_Hall           '-P 1'
loop_
_symmetry_equiv_pos_site_id
_symmetry_equiv_pos_as_xyz
1 x,y,z
2 -x,-y,-z
_cell_length_a                   8.926(2)
_cell_length_b                   12.408(3)
_cell_length_c                   13.559(3)
_cell_angle_alpha                99.758(9)
_cell_angle_beta                 100.102(9)
_cell_angle_gamma                98.809(8)
_cell_volume                     1430.93
_exptl_crystal_colour            colorless
_exptl_crystal_description       block
_chemical_melting_point          '464-465 K'
_cell_formula_units_Z            2
_exptl_crystal_recrystallization_method methanol/chloroform
loop_
_atom_site_label
_atom_site_type_symbol
_atom_site_fract_x
_atom_site_fract_y
_atom_site_fract_z
C1 C 0.2465(5) 0.5982(3) 0.3640(3)
C2 C 0.3684(6) 0.6695(5) 0.4555(5)
H1 H 0.4316 0.7261 0.4326
H2 H 0.4325 0.6231 0.4854
H3 H 0.3173 0.7039 0.5056
C3 C 0.1545(5) 0.5121(4) 0.4051(3)
H4 H 0.2220 0.4684 0.4360
H5 H 0.0772 0.4647 0.3504
H6 H 0.1050 0.5479 0.4555
C4 C 0.1393(11) 0.6688(6) 0.3178(5)
H7 H 0.1980 0.7249 0.2917
H8 H 0.0912 0.7037 0.3693
H9 H 0.0609 0.6223 0.2630
C5 C 0.3242(4) 0.5404(3) 0.2830(3)
C6 C 0.2459(4) 0.5067(3) 0.1813(3)
H10 H 0.1477 0.5231 0.1633
C7 C 0.3085(4) 0.4489(2) 0.1044(3)
C8 C 0.4581(3) 0.4235(2) 0.1327(3)
C9 C 0.4703(4) 0.5166(3) 0.3076(3)
H11 H 0.5255 0.5399 0.3747
C10 C 0.5389(4) 0.4584(2) 0.2352(3)
C11 C 0.6898(4) 0.4326(3) 0.2614(3)
H12 H 0.7469 0.4586 0.3278
C12 C 0.7514(4) 0.3716(3) 0.1926(3)
H13 H 0.8481 0.3539 0.2131
C13 C 0.6705(4) 0.3336(2) 0.0885(2)
C14 C 0.5233(3) 0.3622(2) 0.0583(2)
C15 C 0.2912(4) 0.3565(3) -0.0698(3)
H14 H 0.2363 0.3352 -0.1372
C16 C 0.2289(4) 0.4142(3) 0.0001(3)
H15 H 0.1321 0.4320 -0.0197
C17 C 0.4398(3) 0.3267(2) -0.0438(2)
C18 C 0.5057(4) 0.2625(2) -0.1148(2)
C19 C 0.6482(4) 0.2340(3) -0.0843(3)
H16 H 0.6889 0.1908 -0.1322
C20 C 0.7323(4) 0.2678(2) 0.0155(2)
C21 C 0.4242(4) 0.2239(3) -0.2203(3)
C22 C 0.3561(4) 0.1878(3) -0.3056(3)
C23 C 0.8789(4) 0.2345(2) 0.0459(3)
C24 C 0.9967(4) 0.2074(2) 0.0743(3)
C25 C 0.2753(4) 0.1458(3) -0.4074(3)
C26 C 0.1625(5) 0.2017(4) -0.4530(3)
H17 H 0.1453 0.2674 -0.4161
C27 C 0.0794(5) 0.1604(4) -0.5497(4)
H18 H 0.0077 0.1987 -0.5795
C28 C 0.1013(4) 0.0638(3) -0.6023(3)
C29 C 0.2093(6) 0.0079(4) -0.5651(4)
H19 H 0.2262 -0.0567 -0.6041
C30 C 0.2983(5) 0.0523(4) -0.4619(3)
H20 H 0.3722 0.0149 -0.4335
C31 C 1.1424(4) 0.1782(2) 0.1162(3)
C32 C 1.2131(5) 0.2201(3) 0.2187(3)
H21 H 1.1645 0.2660 0.2591
C33 C 1.3494(5) 0.1965(3) 0.2614(3)
H22 H 1.3926 0.2247 0.3303
C34 C 1.4220(4) 0.1322(4) 0.2037(4)
C35 C 1.3587(5) 0.0869(3) 0.1031(4)
H23 H 1.4096 0.0413 0.0644
C36 C 1.2161(4) 0.1101(3) 0.0591(3)
H24 H 1.1714 0.0792 -0.0091
C37 C 0.0310(6) -0.0707(4) -0.7641(3)
H25 H -0.0398 -0.0845 -0.8289
H26 H 0.0116 -0.1328 -0.7314
H27 H 0.1354 -0.0611 -0.7746
C38 C 1.6554(6) 0.0612(4) 0.1959(5)
H28 H 1.7475 0.0521 0.2397
H29 H 1.6834 0.1068 0.1490
H30 H 1.5991 -0.0104 0.1583
O1 O 0.0097(3) 0.0281(3) -0.7006(2)
O2 O 1.5632(4) 0.1120(3) 0.2547(3)
loop_
_geom_bond_atom_site_label_1
_geom_bond_atom_site_label_2
_geom_bond_site_symmetry_1
_geom_bond_site_symmetry_2
C1 C2 1_555 1_555
C2 H1 1_555 1_555
H2 C2 1_555 1_555
H3 C2 1_555 1_555
C3 C1 1_555 1_555
H4 C3 1_555 1_555
H5 C3 1_555 1_555
H6 C3 1_555 1_555
C4 C1 1_555 1_555
H7 C4 1_555 1_555
H8 C4 1_555 1_555
H9 C4 1_555 1_555
C5 C1 1_555 1_555
C6 C5 1_555 1_555
H10 C6 1_555 1_555
C7 C6 1_555 1_555
C8 C7 1_555 1_555
C9 C5 1_555 1_555
H11 C9 1_555 1_555
C10 C8 1_555 1_555
C11 C10 1_555 1_555
H12 C11 1_555 1_555
C12 C11 1_555 1_555
H13 C12 1_555 1_555
C13 C12 1_555 1_555
C14 C8 1_555 1_555
C15 H14 1_555 1_555
C16 C7 1_555 1_555
H15 C16 1_555 1_555
C17 C14 1_555 1_555
C18 C17 1_555 1_555
C19 C18 1_555 1_555
H16 C19 1_555 1_555
C20 C13 1_555 1_555
C21 C18 1_555 1_555
C22 C21 1_555 1_555
C23 C20 1_555 1_555
C24 C23 1_555 1_555
C25 C22 1_555 1_555
C26 C25 1_555 1_555
H17 C26 1_555 1_555
C27 C26 1_555 1_555
H18 C27 1_555 1_555
C28 C27 1_555 1_555
C29 C28 1_555 1_555
H19 C29 1_555 1_555
C30 C25 1_555 1_555
H20 C30 1_555 1_555
C31 C24 1_555 1_555
C32 C31 1_555 1_555
H21 C32 1_555 1_555
C33 C32 1_555 1_555
H22 C33 1_555 1_555
C34 C33 1_555 1_555
C35 C34 1_555 1_555
H23 C35 1_555 1_555
C36 C31 1_555 1_555
H24 C36 1_555 1_555
C37 H25 1_555 1_555
H26 C37 1_555 1_555
H27 C37 1_555 1_555
C38 H28 1_555 1_555
H29 C38 1_555 1_555
H30 C38 1_555 1_555
O1 C28 1_555 1_555
O2 C34 1_555 1_555
C9 C10 1_555 1_555
C13 C14 1_555 1_555
C15 C16 1_555 1_555
C15 C17 1_555 1_555
C19 C20 1_555 1_555
C29 C30 1_555 1_555
C35 C36 1_555 1_555
C37 O1 1_555 1_555
C38 O2 1_555 1_555

#END
