
#######################################################################
#
#                 Cambridge Crystallographic Data Centre
#                                CCDC 
#
#######################################################################
#
# If this CIF has been generated from an entry in the Cambridge 
# Structural Database, then it will include bibliographic, chemical, 
# crystal, experimental, refinement or atomic coordinate data resulting 
# from the CCDC's data processing and validation procedures.
#
#######################################################################

data_IRUKOX
_chemical_formula_moiety         'C21 H19 Br1 O2'
_chemical_name_systematic        
'tetracyclo[9.2.1.0^2,10^.0^3,8^]tetradeca-3,5,7-trien-9-yl 4-bromobenzoate'
_symmetry_cell_setting           monoclinic
_symmetry_space_group_name_H-M   'P 21'
_symmetry_Int_Tables_number      4
_space_group_name_Hall           'P 2yb'
loop_
_symmetry_equiv_pos_site_id
_symmetry_equiv_pos_as_xyz
1 x,y,z
2 -x,1/2+y,-z
_cell_length_a                   11.911(4)
_cell_length_b                   5.8447(13)
_cell_length_c                   12.531(3)
_cell_angle_alpha                90
_cell_angle_beta                 103.47(2)
_cell_angle_gamma                90
_cell_volume                     848.364
_exptl_crystal_colour            colorless
_exptl_crystal_description       prism
_cell_formula_units_Z            2
loop_
_atom_site_label
_atom_site_type_symbol
_atom_site_fract_x
_atom_site_fract_y
_atom_site_fract_z
Br1 Br 0.17205(4) -0.28380(9) 0.10809(3)
O1 O 0.1999(2) 0.3861(6) 0.5609(2)
O2 O 0.0453(3) 0.5576(6) 0.4492(3)
C1 C 0.2003(4) 0.5566(8) 0.6474(3)
H1 H 0.1274 0.6483 0.6301
C2 C 0.2124(4) 0.4311(9) 0.7560(3)
C3 C 0.1423(4) 0.2566(10) 0.7783(4)
H2 H 0.0795 0.2009 0.7231
C4 C 0.1663(4) 0.1655(10) 0.8836(4)
H3 H 0.1196 0.0456 0.9007
C5 C 0.2584(4) 0.2484(11) 0.9644(3)
H4 H 0.2732 0.1852 1.0362
C6 C 0.3281(4) 0.4207(9) 0.9415(4)
H5 H 0.3910 0.4758 0.9968
C7 C 0.3049(4) 0.5140(8) 0.8352(3)
C8 C 0.3715(3) 0.6976(10) 0.7903(3)
H6 H 0.3718 0.8465 0.8297
C9 C 0.4948(4) 0.6229(8) 0.7847(4)
H7 H 0.5405 0.5500 0.8533
C10 C 0.5555(4) 0.8252(8) 0.7431(4)
H8 H 0.6389 0.7946 0.7521
H9 H 0.5456 0.9681 0.7823
C11 C 0.4921(4) 0.8404(9) 0.6184(4)
H10 H 0.4549 0.9915 0.6006
H11 H 0.5463 0.8133 0.5708
C12 C 0.4008(4) 0.6474(7) 0.6053(3)
H12 H 0.3705 0.5946 0.5281
C13 C 0.3067(3) 0.7161(11) 0.6655(3)
H13 H 0.2816 0.8775 0.6470
C14 C 0.4686(4) 0.4628(7) 0.6833(4)
H14 H 0.4203 0.3298 0.6926
H15 H 0.5392 0.4112 0.6615
C15 C 0.1185(4) 0.4124(8) 0.4661(4)
C16 C 0.1344(3) 0.2359(11) 0.3821(3)
C17 C 0.2051(4) 0.0464(8) 0.4072(4)
H16 H 0.2471 0.0229 0.4807
C18 C 0.2156(4) -0.1093(8) 0.3273(4)
H17 H 0.2644 -0.2391 0.3453
C19 C 0.1537(4) -0.0732(8) 0.2196(4)
C20 C 0.0831(5) 0.1165(9) 0.1920(4)
H18 H 0.0426 0.1416 0.1182
C21 C 0.0727(4) 0.2681(8) 0.2734(4)
H19 H 0.0229 0.3964 0.2555
loop_
_geom_bond_atom_site_label_1
_geom_bond_atom_site_label_2
_geom_bond_site_symmetry_1
_geom_bond_site_symmetry_2
Br1 C19 1_555 1_555
O1 C1 1_555 1_555
O2 C15 1_555 1_555
C1 H1 1_555 1_555
C2 C1 1_555 1_555
C3 C2 1_555 1_555
H2 C3 1_555 1_555
C4 C3 1_555 1_555
H3 C4 1_555 1_555
C5 C4 1_555 1_555
H4 C5 1_555 1_555
C6 C5 1_555 1_555
H5 C6 1_555 1_555
C7 C2 1_555 1_555
C8 C7 1_555 1_555
H6 C8 1_555 1_555
C9 C8 1_555 1_555
H7 C9 1_555 1_555
C10 C9 1_555 1_555
H8 C10 1_555 1_555
H9 C10 1_555 1_555
C11 C10 1_555 1_555
H10 C11 1_555 1_555
H11 C11 1_555 1_555
C12 C11 1_555 1_555
H12 C12 1_555 1_555
C13 C1 1_555 1_555
H13 C13 1_555 1_555
C14 C9 1_555 1_555
H14 C14 1_555 1_555
H15 C14 1_555 1_555
C15 O1 1_555 1_555
C16 C15 1_555 1_555
C17 C16 1_555 1_555
H16 C17 1_555 1_555
C18 C17 1_555 1_555
H17 C18 1_555 1_555
C19 C18 1_555 1_555
C20 C19 1_555 1_555
H18 C20 1_555 1_555
C21 C16 1_555 1_555
H19 C21 1_555 1_555
C6 C7 1_555 1_555
C8 C13 1_555 1_555
C12 C13 1_555 1_555
C12 C14 1_555 1_555
C20 C21 1_555 1_555

#END
