
#######################################################################
#
#                 Cambridge Crystallographic Data Centre
#                                CCDC 
#
#######################################################################
#
# If this CIF has been generated from an entry in the Cambridge 
# Structural Database, then it will include bibliographic, chemical, 
# crystal, experimental, refinement or atomic coordinate data resulting 
# from the CCDC's data processing and validation procedures.
#
#######################################################################

data_IRUKAJ
_chemical_formula_moiety         'C20 H25 N1 O4'
_chemical_name_systematic        
'dimethyl 3-benzyl-2-(pyrrolidin-1-yl)cyclopent-3-ene-1,1-dicarboxylate'
_symmetry_cell_setting           monoclinic
_symmetry_space_group_name_H-M   'P 21/n'
_symmetry_Int_Tables_number      14
_space_group_name_Hall           '-P 2yn'
loop_
_symmetry_equiv_pos_site_id
_symmetry_equiv_pos_as_xyz
1 x,y,z
2 1/2-x,1/2+y,1/2-z
3 -x,-y,-z
4 1/2+x,1/2-y,1/2+z
_cell_length_a                   6.1031(6)
_cell_length_b                   11.4651(12)
_cell_length_c                   26.396(3)
_cell_angle_alpha                90
_cell_angle_beta                 95.114(9)
_cell_angle_gamma                90
_cell_volume                     1839.65
_cell_formula_units_Z            4
loop_
_atom_site_label
_atom_site_type_symbol
_atom_site_fract_x
_atom_site_fract_y
_atom_site_fract_z
C1 C 0.8853(5) 0.3171(3) 0.24893(10)
C2 C 1.0405(5) 0.3963(3) 0.27011(11)
H1 H 1.0200 0.4774 0.2638
C3 C 1.2239(5) 0.3585(3) 0.30015(13)
H2 H 1.3278 0.4135 0.3145
C4 C 1.2563(6) 0.2410(3) 0.30928(13)
H3 H 1.3822 0.2152 0.3300
C5 C 1.1050(6) 0.1607(3) 0.28822(12)
H4 H 1.1272 0.0797 0.2942
C6 C 0.9213(5) 0.1993(3) 0.25846(11)
H5 H 0.8175 0.1439 0.2442
C7 C 0.6806(5) 0.3597(3) 0.21762(11)
H6 H 0.5612 0.3688 0.2404
H7 H 0.7112 0.4376 0.2037
C8 C 0.7414(4) 0.2569(2) 0.13087(10)
H8 H 0.8888 0.2283 0.1452
C9 C 0.6011(4) 0.2811(2) 0.17439(10)
C10 C 0.4054(4) 0.2308(3) 0.16651(11)
H9 H 0.2941 0.2379 0.1893
C11 C 0.3769(4) 0.1618(3) 0.11833(11)
H10 H 0.2791 0.2025 0.0921
H11 H 0.3163 0.0834 0.1243
C12 C 0.6147(4) 0.1540(2) 0.10267(10)
C13 C 0.9684(5) 0.4265(3) 0.10930(15)
H12 H 1.1013 0.3853 0.0998
H13 H 0.9880 0.4454 0.1460
C14 C 0.9286(8) 0.5353(3) 0.07820(19)
H14 H 1.0364 0.5415 0.0524
H15 H 0.9423 0.6052 0.1003
C15 C 0.6989(7) 0.5255(3) 0.05280(16)
H16 H 0.7009 0.4992 0.0171
H17 H 0.6213 0.6013 0.0532
C16 C 0.5893(5) 0.4352(3) 0.08432(12)
H18 H 0.5344 0.4706 0.1150
H19 H 0.4664 0.3957 0.0642
C17 C 0.6345(5) 0.1641(3) 0.04589(11)
C18 C 0.8872(7) 0.1456(4) -0.01626(13)
H20 H 0.7864 0.0978 -0.0386
H21 H 1.0390 0.1205 -0.0194
H22 H 0.8709 0.2277 -0.0262
C19 C 0.7131(5) 0.0384(2) 0.12087(10)
C20 C 0.6911(6) -0.1651(3) 0.10808(12)
H23 H 0.8510 -0.1674 0.1067
H24 H 0.6213 -0.2216 0.0839
H25 H 0.6554 -0.1847 0.1425
N1 N 0.7723(4) 0.3551(2) 0.09764(9)
O1 O 0.4933(4) 0.1984(2) 0.01461(8)
O2 O 0.8363(3) 0.13180(18) 0.03575(8)
O3 O 0.8590(4) 0.02473(18) 0.15385(9)
O4 O 0.6111(4) -0.04955(17) 0.09507(8)
H26? H 0.7980 0.3176 0.0645
loop_
_geom_bond_atom_site_label_1
_geom_bond_atom_site_label_2
_geom_bond_site_symmetry_1
_geom_bond_site_symmetry_2
C1 C2 1_555 1_555
C2 H1 1_555 1_555
C3 C2 1_555 1_555
H2 C3 1_555 1_555
C4 C3 1_555 1_555
H3 C4 1_555 1_555
C5 C4 1_555 1_555
H4 C5 1_555 1_555
C6 C1 1_555 1_555
H5 C6 1_555 1_555
C7 C1 1_555 1_555
H6 C7 1_555 1_555
H7 C7 1_555 1_555
C8 H8 1_555 1_555
C9 C7 1_555 1_555
C10 C9 1_555 1_555
H9 C10 1_555 1_555
C11 C10 1_555 1_555
H10 C11 1_555 1_555
H11 C11 1_555 1_555
C12 C8 1_555 1_555
C13 H12 1_555 1_555
H13 C13 1_555 1_555
C14 C13 1_555 1_555
H14 C14 1_555 1_555
H15 C14 1_555 1_555
C15 C14 1_555 1_555
H16 C15 1_555 1_555
H17 C15 1_555 1_555
C16 C15 1_555 1_555
H18 C16 1_555 1_555
H19 C16 1_555 1_555
C17 C12 1_555 1_555
C18 H20 1_555 1_555
H21 C18 1_555 1_555
H22 C18 1_555 1_555
C19 C12 1_555 1_555
C20 H23 1_555 1_555
H24 C20 1_555 1_555
H25 C20 1_555 1_555
N1 C8 1_555 1_555
O1 C17 1_555 1_555
O2 C17 1_555 1_555
O3 C19 1_555 1_555
O4 C19 1_555 1_555
C5 C6 1_555 1_555
C8 C9 1_555 1_555
C11 C12 1_555 1_555
C13 N1 1_555 1_555
C16 N1 1_555 1_555
C18 O2 1_555 1_555
C20 O4 1_555 1_555

#END
