
#######################################################################
#
#                 Cambridge Crystallographic Data Centre
#                                CCDC 
#
#######################################################################
#
# If this CIF has been generated from an entry in the Cambridge 
# Structural Database, then it will include bibliographic, chemical, 
# crystal, experimental, refinement or atomic coordinate data resulting 
# from the CCDC's data processing and validation procedures.
#
#######################################################################

data_IRULOY
_chemical_formula_moiety         '2(C26 H28 F7 N3 O1 S1),C4 H12 N1 1+,Cl1 1-'
_chemical_name_systematic        
'tetramethylammonium chloride bis(1-(3,5-bis(trifluoromethyl)phenyl)-3-(1-(2-(4-fluorophenyl)-2-methylpyrrolidin-1-yl)-3,3-dimethyl-1-oxobutan-2-yl)thiourea)'
_symmetry_cell_setting           triclinic
_symmetry_space_group_name_H-M   'P 1'
_symmetry_Int_Tables_number      1
_space_group_name_Hall           'P 1'
loop_
_symmetry_equiv_pos_site_id
_symmetry_equiv_pos_as_xyz
1 x,y,z
_cell_length_a                   9.7657(13)
_cell_length_b                   12.7259(16)
_cell_length_c                   26.975(3)
_cell_angle_alpha                86.183(7)
_cell_angle_beta                 83.556(7)
_cell_angle_gamma                70.327(7)
_cell_volume                     3135.27
_exptl_crystal_colour            colorless
_exptl_crystal_description       plate
_cell_formula_units_Z            2
loop_
_atom_site_label
_atom_site_type_symbol
_atom_site_fract_x
_atom_site_fract_y
_atom_site_fract_z
C1 C -0.3125(5) 0.4459(4) 1.00233(18)
H1 H -0.2329 0.4705 1.0063
C2 C -0.2840(5) 0.3409(4) 0.9845(2)
H2 H -0.1867 0.2942 0.9755
C3 C -0.4015(6) 0.3055(4) 0.97999(19)
C4 C -0.5428(6) 0.3720(4) 0.99210(17)
H3 H -0.6221 0.3466 0.9886
C5 C -0.5668(5) 0.4765(4) 1.00945(17)
H4 H -0.6644 0.5229 1.0182
C6 C -0.4537(4) 0.5168(3) 1.01466(15)
C7 C -0.4862(5) 0.6323(4) 1.03590(16)
C8 C -0.5177(6) 0.6259(4) 1.09355(17)
H5 H -0.5836 0.6987 1.1062
H6 H -0.5635 0.5682 1.1036
C9 C -0.3701(6) 0.5955(5) 1.11333(19)
H7 H -0.3148 0.5149 1.1100
H8 H -0.3798 0.6152 1.1487
C10 C -0.2969(5) 0.6672(4) 1.07933(16)
H9 H -0.3268 0.7443 1.0913
H10 H -0.1891 0.6341 1.0772
C11 C -0.2879(4) 0.6837(3) 0.98566(14)
C12 C -0.1486(5) 0.7149(3) 0.98304(16)
H11 H -0.1110 0.7004 1.0167
C13 C 0.0345(4) 0.5346(3) 0.95918(15)
C14 C 0.1915(4) 0.3620(3) 0.91446(15)
C15 C 0.3045(5) 0.3336(3) 0.87714(16)
H12 H 0.3215 0.3897 0.8547
C16 C 0.3934(5) 0.2236(4) 0.87236(18)
C17 C 0.3728(5) 0.1408(4) 0.90424(19)
H13 H 0.4362 0.0657 0.9013
C18 C 0.2566(5) 0.1700(4) 0.94096(18)
C19 C 0.1643(5) 0.2792(4) 0.94642(17)
H14 H 0.0842 0.2972 0.9715
C20 C -0.6123(5) 0.7225(4) 1.0132(2)
H15 H -0.5986 0.7179 0.9768
H16 H -0.6145 0.7962 1.0226
H17 H -0.7048 0.7114 1.0257
C21 C -0.1749(5) 0.8399(3) 0.96759(18)
C22 C -0.0319(7) 0.8628(5) 0.9691(3)
H18 H 0.0017 0.8433 1.0025
H19 H -0.0475 0.9421 0.9615
H20 H 0.0420 0.8176 0.9444
C23 C -0.2910(7) 0.9105(4) 1.0059(2)
H21 H -0.3825 0.8951 1.0049
H22 H -0.3072 0.9898 0.9981
H23 H -0.2577 0.8917 1.0393
C24 C -0.2268(7) 0.8706(4) 0.9152(2)
H24 H -0.1518 0.8264 0.8905
H25 H -0.2439 0.9502 0.9078
H26 H -0.3177 0.8547 0.9138
C25 C 0.5155(6) 0.1941(5) 0.8311(2)
F1 F 0.6140(12) 0.2462(10) 0.8411(5)
F2 F 0.4795(14) 0.2324(13) 0.7868(3)
F3 F 0.595(2) 0.0877(10) 0.8283(9)
C26 C 0.2318(7) 0.0817(4) 0.9770(2)
F4 F 0.2674(19) -0.0181(6) 0.9552(4)
F5 F 0.0900(9) 0.1066(14) 0.9949(7)
F6 F 0.3161(16) 0.0662(13) 1.0149(4)
N1 N -0.3521(4) 0.6649(3) 1.03083(12)
N2 N -0.0401(4) 0.6414(3) 0.94759(13)
H27 H -0.0429 0.6692 0.9168
N3 N 0.1071(4) 0.4750(3) 0.91767(13)
H28 H 0.1014 0.5160 0.8899
O1 O -0.3350(3) 0.6725(2) 0.94681(11)
F7 F -0.3737(4) 0.2014(2) 0.96287(14)
S1 S 0.04306(11) 0.48273(9) 1.01753(4)
C27 C 0.4563(6) 0.7361(5) 0.6817(2)
H29 H 0.4170 0.6815 0.6732
C28 C 0.3724(6) 0.8221(6) 0.7120(3)
H30 H 0.2754 0.8270 0.7242
C29 C 0.4285(6) 0.8996(5) 0.7242(2)
C30 C 0.5657(6) 0.8956(5) 0.7062(2)
H31 H 0.6028 0.9516 0.7145
C31 C 0.6505(5) 0.8106(4) 0.6761(2)
H32 H 0.7466 0.8077 0.6637
C32 C 0.5970(5) 0.7288(4) 0.66359(18)
C33 C 0.6904(5) 0.6355(4) 0.6289(2)
C34 C 0.6938(7) 0.6797(6) 0.5738(2)
H33 H 0.6124 0.6714 0.5574
H34 H 0.6857 0.7595 0.5721
C35 C 0.8429(8) 0.6074(6) 0.5484(2)
H35 H 0.8414 0.5330 0.5405
H36 H 0.8716 0.6445 0.5175
C36 C 0.9432(6) 0.5989(5) 0.58850(18)
H37 H 1.0259 0.5277 0.5866
H38 H 0.9823 0.6617 0.5851
C37 C 0.8972(5) 0.5790(3) 0.68150(16)
C38 C 1.0585(5) 0.5683(3) 0.68557(15)
H39 H 1.1022 0.5862 0.6521
C39 C 1.0299(4) 0.7614(3) 0.70741(15)
C40 C 0.9618(4) 0.9431(3) 0.75018(17)
C41 C 0.8801(5) 1.0164(4) 0.71616(18)
H40 H 0.8497 0.9896 0.6887
C42 C 0.8429(5) 1.1308(4) 0.7227(2)
C43 C 0.8871(5) 1.1718(4) 0.7607(2)
H41 H 0.8640 1.2500 0.7636
C44 C 0.9671(5) 1.0974(4) 0.7956(2)
C45 C 1.0060(5) 0.9829(4) 0.79013(17)
H42 H 1.0624 0.9323 0.8135
C46 C 0.6434(7) 0.5319(5) 0.6340(3)
H43 H 0.6328 0.5099 0.6693
H44 H 0.7176 0.4706 0.6159
H45 H 0.5498 0.5486 0.6199
C47 C 1.1542(5) 0.4502(3) 0.70367(18)
C48 C 1.1488(7) 0.3658(5) 0.6673(2)
H46 H 1.0477 0.3677 0.6671
H47 H 1.2097 0.2909 0.6776
H48 H 1.1854 0.3845 0.6337
C49 C 1.1038(6) 0.4169(4) 0.75564(19)
H49 H 1.1071 0.4706 0.7795
H50 H 1.1682 0.3423 0.7648
H51 H 1.0035 0.4164 0.7563
C50 C 1.3094(6) 0.4507(5) 0.7027(3)
H52 H 1.3430 0.4706 0.6689
H53 H 1.3733 0.3764 0.7126
H54 H 1.3124 0.5056 0.7261
C51 C 0.7514(8) 1.2089(5) 0.6870(3)
F8 F 0.6458(11) 1.1747(9) 0.6738(5)
F9 F 0.8267(10) 1.2331(10) 0.6460(3)
F10 F 0.6722(12) 1.3054(6) 0.7107(4)
C52 C 1.0111(8) 1.1408(5) 0.8391(3)
F11 F 1.1446(10) 1.1503(11) 0.8256(4)
F12 F 0.9267(13) 1.2514(7) 0.8446(5)
F13 F 1.0052(19) 1.0853(10) 0.8787(3)
N4 N 0.8501(4) 0.6038(3) 0.63596(14)
N5 N 1.0521(4) 0.6537(3) 0.72029(13)
H55 H 1.0475 0.6297 0.7516
N6 N 1.0014(4) 0.8261(3) 0.74805(14)
H56 H 1.0132 0.7907 0.7772
O2 O 0.8177(3) 0.5730(3) 0.71900(11)
F14 F 0.3464(4) 0.9825(4) 0.75471(18)
S2 S 1.04318(13) 0.80819(9) 0.64829(4)
C53 C 1.2425(11) 0.2763(7) 0.5248(5)
H57 H 1.1591 0.2643 0.5145
C54 C 1.2549(8) 0.3822(6) 0.5201(4)
H58 H 1.1801 0.4427 0.5066
C55 C 1.3768(8) 0.3998(5) 0.5351(3)
C56 C 1.4864(8) 0.3114(6) 0.5549(3)
H59 H 1.5697 0.3234 0.5652
C57 C 1.4739(10) 0.2055(6) 0.5597(4)
H60 H 1.5488 0.1450 0.5732
C58 C 1.3520(12) 0.1879(6) 0.5446(6)
F15 F 1.3826(12) 0.5041(7) 0.5301(4)
C59 C 1.3454(12) 0.0686(8) 0.5516(6)
C60 C 1.325(2) 0.041(2) 0.6073(5)
H61 H 1.3792 0.0743 0.6266
H62 H 1.3579 -0.0409 0.6139
C61 C 1.160(2) 0.093(3) 0.6204(7)
H63 H 1.1278 0.0586 0.6516
H64 H 1.1316 0.1743 0.6244
C62 C 1.0934(10) 0.0676(8) 0.5764(4)
H65 H 1.0746 -0.0043 0.5817
H66 H 1.0010 0.1278 0.5702
N7 N 1.2095(8) 0.0618(11) 0.5343(3)
C63 C 1.1907(7) 0.0656(6) 0.4856(3)
C64 C 1.0500(8) 0.0544(6) 0.4707(2)
H67 H 0.9738 0.0760 0.4997
N8 N 1.0026(8) 0.1364(6) 0.4292(2)
H68 H 1.0696 0.1063 0.3985
C65 C 0.9253(9) 0.2428(7) 0.4339(3)
N9 N 0.9156(8) 0.3014(5) 0.3893(2)
H69 H 0.9511 0.2603 0.3658
O3 O 1.2940(5) 0.0720(3) 0.45333(13)
S3 S 0.8450(4) 0.2971(3) 0.48902(10)
C66 C 0.8341(6) 0.4108(3) 0.37515(16)
C67 C 0.8051(7) 0.4263(3) 0.32541(15)
H70 H 0.8398 0.3650 0.3038
C68 C 0.7253(7) 0.5314(4) 0.30735(13)
C69 C 0.6745(6) 0.6211(3) 0.33903(17)
H71 H 0.6199 0.6930 0.3267
C70 C 0.7035(7) 0.6056(3) 0.38878(16)
C71 C 0.7833(6) 0.5004(4) 0.40684(13)
H72 H 0.8032 0.4898 0.4408
C72 C 1.492(2) -0.0095(12) 0.5271(5)
H73 H 1.5104 0.0181 0.4931
H74 H 1.4880 -0.0851 0.5261
H75 H 1.5716 -0.0108 0.5467
C73 C 1.0651(11) -0.0650(7) 0.4560(3)
C74 C 0.9153(14) -0.0628(11) 0.4419(5)
H76 H 0.8378 -0.0176 0.4657
H77 H 0.9122 -0.1391 0.4430
H78 H 0.9006 -0.0303 0.4082
C75 C 1.1099(16) -0.1456(8) 0.5007(3)
H79 H 1.2051 -0.1466 0.5094
H80 H 1.1165 -0.2209 0.4920
H81 H 1.0367 -0.1209 0.5292
C76 C 1.1782(14) -0.1033(7) 0.4109(3)
H82 H 1.1730 -0.0396 0.3878
H83 H 1.1575 -0.1612 0.3938
H84 H 1.2762 -0.1337 0.4222
C77 C 0.6995(12) 0.5495(9) 0.2553(3)
F16 F 0.8128(7) 0.5705(5) 0.23026(19)
F17 F 0.5936(8) 0.6387(5) 0.2492(2)
F18 F 0.6609(8) 0.4692(5) 0.2398(2)
C78 C 0.6455(14) 0.7023(9) 0.4229(4)
F19 F 0.5777(7) 0.7953(5) 0.40076(19)
F20 F 0.7697(7) 0.7170(5) 0.4387(2)
F21 F 0.5660(8) 0.6853(5) 0.4617(2)
C79 C 0.858(3) 1.0506(15) 0.2532(9)
H85 H 0.8937 1.1116 0.2523
C80 C 0.895(2) 0.9671(14) 0.2902(7)
H86 H 0.9567 0.9711 0.3144
C81 C 0.843(2) 0.8779(12) 0.2916(5)
C82 C 0.753(2) 0.8721(15) 0.2560(7)
H87 H 0.7176 0.8112 0.2570
C83 C 0.716(3) 0.956(2) 0.2191(7)
H88 H 0.6546 0.9516 0.1949
C84 C 0.768(3) 1.0448(19) 0.2177(9)
F22 F 0.877(2) 0.7940(14) 0.3239(7)
C85 C 0.7493(5) 1.1300(4) 0.17558(19)
C86 C 0.8594(6) 1.0824(5) 0.1295(2)
H89 H 0.9485 1.1029 0.1295
H90 H 0.8875 1.0000 0.1293
C87 C 0.7780(7) 1.1351(5) 0.0859(2)
H91 H 0.8215 1.0922 0.0555
H92 H 0.7777 1.2128 0.0798
C88 C 0.6250(5) 1.1327(4) 0.10098(17)
H93 H 0.5517 1.1934 0.0837
H94 H 0.6165 1.0601 0.0936
C89 C 0.4811(5) 1.1748(3) 0.18511(15)
C90 C 0.3431(5) 1.1782(3) 0.16270(15)
H95 H 0.3714 1.1467 0.1286
C91 C 0.2998(5) 0.9984(3) 0.18474(15)
C92 C 0.2153(5) 0.8455(3) 0.22133(16)
C93 C 0.2379(5) 0.7725(4) 0.26254(18)
H96 H 0.2822 0.7870 0.2897
C94 C 0.1961(6) 0.6789(4) 0.26405(19)
C95 C 0.1326(6) 0.6561(4) 0.2252(2)
H97 H 0.1045 0.5913 0.2265
C96 C 0.1096(5) 0.7289(3) 0.18378(17)
C97 C 0.1504(5) 0.8229(3) 0.18146(17)
H98 H 0.1347 0.8721 0.1530
C98 C 0.7565(7) 1.2408(5) 0.1915(2)
H99 H 0.6868 1.2667 0.2209
H100 H 0.7317 1.2964 0.1641
H101 H 0.8554 1.2304 0.1998
C99 C 0.2308(5) 1.2976(4) 0.15833(18)
C100 C 0.1603(6) 1.3467(4) 0.2081(2)
H102 H 0.1067 1.3001 0.2254
H103 H 0.0926 1.4224 0.2028
H104 H 0.2360 1.3494 0.2285
C101 C 0.1116(7) 1.2900(6) 0.1276(3)
H105 H 0.1546 1.2664 0.0939
H106 H 0.0355 1.3633 0.1257
H107 H 0.0687 1.2355 0.1436
C102 C 0.3090(7) 1.3726(5) 0.1308(3)
H108 H 0.3816 1.3804 0.1513
H109 H 0.2378 1.4462 0.1242
H110 H 0.3581 1.3393 0.0991
C103 C 0.2208(9) 0.6007(5) 0.3083(3)
F23 F 0.1299(18) 0.6570(12) 0.3512(4)
F24 F 0.3457(14) 0.5804(12) 0.3292(6)
F25 F 0.1670(18) 0.5177(9) 0.3120(6)
C104 C 0.0351(6) 0.7081(4) 0.1422(2)
F26 F -0.0294(7) 0.6290(5) 0.1543(3)
F27 F 0.1317(6) 0.6631(5) 0.10331(18)
F28 F -0.0590(7) 0.7960(4) 0.1235(2)
N10 N 0.6073(4) 1.1493(3) 0.15531(13)
N11 N 0.2800(4) 1.1057(3) 0.19443(13)
H111 H 0.2481 1.1276 0.2251
N12 N 0.2469(4) 0.9448(3) 0.22302(14)
H112 H 0.2183 0.9870 0.2493
O4 O 0.4754(4) 1.1925(3) 0.22990(11)
S4 S 0.38427(16) 0.93776(10) 0.13134(5)
C105 C 0.5409(11) 0.7028(6) 0.8348(3)
H113 H 0.4362 0.7342 0.8309
H114 H 0.5959 0.7256 0.8059
H115 H 0.5614 0.7303 0.8652
C106 C 0.5057(7) 0.5498(6) 0.8837(2)
H116 H 0.5263 0.5819 0.9129
H117 H 0.5386 0.4682 0.8878
H118 H 0.4004 0.5779 0.8806
C107 C 0.5459(8) 0.5399(7) 0.7928(2)
H119 H 0.4445 0.5822 0.7869
H120 H 0.5570 0.4606 0.7981
H121 H 0.6111 0.5491 0.7637
C108 C 0.7431(7) 0.5346(7) 0.8430(2)
H122 H 0.7974 0.5503 0.8123
H123 H 0.7705 0.4537 0.8490
H124 H 0.7666 0.5684 0.8711
N13 N 0.5843(5) 0.5823(4) 0.83805(15)
C109 C 0.5318(8) 0.2035(7) 0.4165(2)
H125 H 0.4680 0.1771 0.4411
H126 H 0.5271 0.2785 0.4248
H127 H 0.6326 0.1526 0.4169
C110 C 0.5046(8) 0.0936(5) 0.3502(2)
H128 H 0.6071 0.0472 0.3517
H129 H 0.4791 0.0973 0.3158
H130 H 0.4420 0.0609 0.3723
C111 C 0.3237(7) 0.2722(6) 0.3690(3)
H131 H 0.2719 0.2412 0.3962
H132 H 0.2858 0.2677 0.3374
H133 H 0.3086 0.3504 0.3754
C112 C 0.5676(9) 0.2612(6) 0.3302(2)
H134 H 0.5529 0.3365 0.3411
H135 H 0.5339 0.2658 0.2970
H136 H 0.6717 0.2169 0.3289
N14 N 0.4831(5) 0.2070(4) 0.36617(14)
Cl1 Cl 0.12761(14) 0.65902(9) 0.83532(4)
Cl2 Cl 0.12004(17) 0.12406(12) 0.31019(5)
C113? C 0.5155(6) 0.1941(5) 0.8311(2)
F29? F 0.646(2) 0.173(3) 0.8512(10)
F30? F 0.513(5) 0.277(2) 0.7978(12)
F31? F 0.516(3) 0.1060(18) 0.8100(11)
C114? C 0.2318(7) 0.0817(4) 0.9770(2)
F32? F 0.318(2) -0.0216(12) 0.9661(9)
F33? F 0.0897(15) 0.091(3) 0.9810(12)
F34? F 0.262(3) 0.0973(17) 1.0227(6)
C115? C 0.2318(7) 0.0817(4) 0.9770(2)
F35? F 0.347(3) 0.023(3) 1.0026(16)
F36? F 0.200(5) 0.003(3) 0.9535(11)
F37? F 0.127(4) 0.121(3) 1.0149(11)
C116? C 0.7514(8) 1.2089(5) 0.6870(3)
F38? F 0.620(2) 1.193(2) 0.6902(11)
F39? F 0.796(3) 1.182(2) 0.6381(6)
F40? F 0.704(3) 1.3172(11) 0.6970(9)
C117? C 0.7514(8) 1.2089(5) 0.6870(3)
F41? F 0.636(2) 1.289(2) 0.6962(9)
F42? F 0.843(3) 1.265(2) 0.6603(9)
F43? F 0.726(2) 1.1582(12) 0.6465(7)
C118? C 1.0111(8) 1.1408(5) 0.8391(3)
F44? F 1.087(2) 1.0540(12) 0.8706(7)
F45? F 1.100(2) 1.2001(15) 0.8276(6)
F46? F 0.8997(15) 1.2019(14) 0.8688(5)
C119? C 1.223(3) 0.2660(18) 0.5236(14)
H137? H 1.1474 0.2366 0.5198
C120? C 1.2024(19) 0.3782(16) 0.5124(10)
H138? H 1.1128 0.4255 0.5010
C121? C 1.313(2) 0.4213(11) 0.5179(8)
C122? C 1.4440(18) 0.3522(15) 0.5346(8)
H139? H 1.5195 0.3816 0.5384
C123? C 1.465(2) 0.2400(15) 0.5457(10)
H140? H 1.5541 0.1927 0.5571
C124? C 1.354(3) 0.1969(13) 0.5402(14)
F47? F 1.295(3) 0.5292(14) 0.5057(10)
C125? C 1.371(4) 0.0751(18) 0.5559(15)
C126? C 1.348(6) 0.059(6) 0.6125(14)
H141? H 1.3803 0.1106 0.6302
H142? H 1.4005 -0.0189 0.6233
C127? C 1.182(6) 0.086(9) 0.6218(16)
H143? H 1.1558 0.0522 0.6541
H144? H 1.1313 0.1673 0.6221
C128? C 1.141(3) 0.035(2) 0.5789(11)
H145? H 1.1503 -0.0444 0.5862
H146? H 1.0401 0.0768 0.5708
N15? N 1.252(3) 0.047(3) 0.5375(7)
C129? C 1.228(2) 0.040(2) 0.4904(6)
C130? C 1.1073(18) 0.0080(11) 0.4720(6)
H147? H 1.0311 0.0191 0.5011
N16? N 1.038(2) 0.0915(14) 0.4340(7)
H148? H 1.0451 0.0442 0.4108
C131? C 0.949(2) 0.1916(18) 0.4379(7)
N17? N 0.921(2) 0.2535(12) 0.3941(6)
H149? H 0.9584 0.2009 0.3720
S5? S 0.8545(9) 0.2281(6) 0.4948(2)
C132? C 0.8339(15) 0.3661(8) 0.3829(5)
C133? C 0.8325(19) 0.3975(11) 0.3325(4)
H150? H 0.8930 0.3472 0.3082
C134? C 0.743(2) 0.5025(13) 0.3177(3)
C135? C 0.6544(16) 0.5761(9) 0.3533(4)
H151? H 0.5930 0.6479 0.3432
C136? C 0.6557(15) 0.5447(9) 0.4036(4)
C137? C 0.7455(15) 0.4397(10) 0.4184(3)
H152? H 0.7464 0.4182 0.4528
C138? C 1.492(6) -0.033(3) 0.5377(16)
H153? H 1.4536 -0.0699 0.5144
H154? H 1.5234 -0.0841 0.5663
H155? H 1.5758 -0.0152 0.5208
C139? C 1.146(2) -0.1157(14) 0.4584(6)
C140? C 0.998(3) -0.131(3) 0.4518(11)
H156? H 0.9264 -0.0980 0.4798
H157? H 1.0114 -0.2108 0.4509
H158? H 0.9619 -0.0940 0.4204
C141? C 1.222(3) -0.1917(18) 0.5004(8)
H159? H 1.3200 -0.1879 0.5006
H160? H 1.2281 -0.2688 0.4950
H161? H 1.1653 -0.1674 0.5324
C142? C 1.248(3) -0.1449(18) 0.4106(7)
H162? H 1.2022 -0.0966 0.3830
H163? H 1.2664 -0.2231 0.4031
H164? H 1.3401 -0.1338 0.4149
C143? C 0.703(2) 0.5365(15) 0.2651(5)
F48? F 0.7919(16) 0.4682(11) 0.2273(4)
F49? F 0.6689(18) 0.6367(10) 0.2356(5)
F50? F 0.5818(17) 0.5105(12) 0.2513(5)
C144? C 0.597(2) 0.6276(15) 0.4430(6)
F51? F 0.4580(15) 0.6846(11) 0.4374(4)
F52? F 0.6661(17) 0.6995(11) 0.4562(5)
F53? F 0.5702(16) 0.5843(11) 0.4887(4)
C145? C 0.864(4) 1.027(2) 0.2562(13)
H165? H 0.9111 1.0806 0.2589
C146? C 0.878(3) 0.941(2) 0.2918(10)
H166? H 0.9348 0.9354 0.3188
C147? C 0.809(3) 0.8633(19) 0.2879(8)
C148? C 0.725(3) 0.872(2) 0.2484(10)
H167? H 0.6778 0.8184 0.2457
C149? C 0.711(4) 0.958(3) 0.2128(11)
H168? H 0.6540 0.9635 0.1858
C150? C 0.780(4) 1.036(3) 0.2167(13)
F54? F 0.822(3) 0.786(2) 0.3273(11)
C151? C 0.2208(9) 0.6007(5) 0.3083(3)
F55? F 0.212(2) 0.6506(10) 0.3513(4)
F56? F 0.3476(12) 0.5198(9) 0.3024(5)
F57? F 0.1121(12) 0.5544(9) 0.3154(6)
C152? C 0.2208(9) 0.6007(5) 0.3083(3)
F58? F 0.1053(18) 0.5955(18) 0.3359(7)
F59? F 0.308(3) 0.6263(17) 0.3380(9)
F60? F 0.295(2) 0.4950(9) 0.2924(6)
F61? F 0.034(2) 0.6055(11) 0.1411(9)
F62? F 0.0762(17) 0.7486(14) 0.0981(4)
F63? F -0.1104(15) 0.7729(14) 0.1472(7)
F64? F 0.5759(17) 0.2750(10) 0.8188(7)
F65? F 0.4579(16) 0.1839(13) 0.7876(4)
F66? F 0.620(3) 0.1011(12) 0.8381(10)
F67? F 1.1391(13) 1.0668(11) 0.8577(6)
F68? F 1.007(2) 1.2461(10) 0.8391(6)
F69? F 0.9232(18) 1.1336(14) 0.8823(4)
C153? C 0.5155(6) 0.1941(5) 0.8311(2)
C154? C 1.0111(8) 1.1408(5) 0.8391(3)
loop_
_geom_bond_atom_site_label_1
_geom_bond_atom_site_label_2
_geom_bond_site_symmetry_1
_geom_bond_site_symmetry_2
C1 H1 1_555 1_555
C2 C1 1_555 1_555
H2 C2 1_555 1_555
C3 C2 1_555 1_555
C4 C3 1_555 1_555
H3 C4 1_555 1_555
C5 C4 1_555 1_555
H4 C5 1_555 1_555
C6 C1 1_555 1_555
C7 C6 1_555 1_555
C8 C7 1_555 1_555
H5 C8 1_555 1_555
H6 C8 1_555 1_555
C9 C8 1_555 1_555
H7 C9 1_555 1_555
H8 C9 1_555 1_555
C10 C9 1_555 1_555
H9 C10 1_555 1_555
H10 C10 1_555 1_555
C11 C12 1_555 1_555
C12 H11 1_555 1_555
C13 N2 1_555 1_555
C14 C15 1_555 1_555
C15 H12 1_555 1_555
C16 C15 1_555 1_555
C17 C16 1_555 1_555
H13 C17 1_555 1_555
C18 C17 1_555 1_555
C19 C14 1_555 1_555
H14 C19 1_555 1_555
C20 C7 1_555 1_555
H15 C20 1_555 1_555
H16 C20 1_555 1_555
H17 C20 1_555 1_555
C21 C12 1_555 1_555
C22 C21 1_555 1_555
H18 C22 1_555 1_555
H19 C22 1_555 1_555
H20 C22 1_555 1_555
C23 C21 1_555 1_555
H21 C23 1_555 1_555
H22 C23 1_555 1_555
H23 C23 1_555 1_555
C24 C21 1_555 1_555
H24 C24 1_555 1_555
H25 C24 1_555 1_555
H26 C24 1_555 1_555
C25 C16 1_555 1_555
F1 C25 1_555 1_555
F2 C25 1_555 1_555
F3 C25 1_555 1_555
C26 C18 1_555 1_555
F4 C26 1_555 1_555
F5 C26 1_555 1_555
F6 C26 1_555 1_555
N1 C7 1_555 1_555
N2 C12 1_555 1_555
H27 N2 1_555 1_555
N3 C13 1_555 1_555
H28 N3 1_555 1_555
O1 C11 1_555 1_555
F7 C3 1_555 1_555
S1 C13 1_555 1_555
C27 H29 1_555 1_555
C28 C27 1_555 1_555
H30 C28 1_555 1_555
C29 C28 1_555 1_555
C30 C29 1_555 1_555
H31 C30 1_555 1_555
C31 C30 1_555 1_555
H32 C31 1_555 1_555
C32 C27 1_555 1_555
C33 C32 1_555 1_555
C34 C33 1_555 1_555
H33 C34 1_555 1_555
H34 C34 1_555 1_555
C35 C34 1_555 1_555
H35 C35 1_555 1_555
H36 C35 1_555 1_555
C36 C35 1_555 1_555
H37 C36 1_555 1_555
H38 C36 1_555 1_555
C37 C38 1_555 1_555
C38 H39 1_555 1_555
C39 N5 1_555 1_555
C40 C41 1_555 1_555
C41 H40 1_555 1_555
C42 C41 1_555 1_555
C43 C42 1_555 1_555
H41 C43 1_555 1_555
C44 C43 1_555 1_555
C45 C40 1_555 1_555
H42 C45 1_555 1_555
C46 C33 1_555 1_555
H43 C46 1_555 1_555
H44 C46 1_555 1_555
H45 C46 1_555 1_555
C47 C38 1_555 1_555
C48 C47 1_555 1_555
H46 C48 1_555 1_555
H47 C48 1_555 1_555
H48 C48 1_555 1_555
C49 C47 1_555 1_555
H49 C49 1_555 1_555
H50 C49 1_555 1_555
H51 C49 1_555 1_555
C50 C47 1_555 1_555
H52 C50 1_555 1_555
H53 C50 1_555 1_555
H54 C50 1_555 1_555
C51 C42 1_555 1_555
F8 C51 1_555 1_555
F9 C51 1_555 1_555
F10 C51 1_555 1_555
C52 C44 1_555 1_555
F11 C52 1_555 1_555
F12 C52 1_555 1_555
F13 C52 1_555 1_555
N4 C33 1_555 1_555
N5 C38 1_555 1_555
H55 N5 1_555 1_555
N6 C39 1_555 1_555
H56 N6 1_555 1_555
O2 C37 1_555 1_555
F14 C29 1_555 1_555
S2 C39 1_555 1_555
C53 H57 1_555 1_555
C54 C53 1_555 1_555
H58 C54 1_555 1_555
C55 C54 1_555 1_555
C56 C55 1_555 1_555
H59 C56 1_555 1_555
C57 C56 1_555 1_555
H60 C57 1_555 1_555
C58 C53 1_555 1_555
F15 C55 1_555 1_555
C59 C58 1_555 1_555
C60 C59 1_555 1_555
H61 C60 1_555 1_555
H62 C60 1_555 1_555
C61 C60 1_555 1_555
H63 C61 1_555 1_555
H64 C61 1_555 1_555
C62 C61 1_555 1_555
H65 C62 1_555 1_555
H66 C62 1_555 1_555
N7 C59 1_555 1_555
C63 N7 1_555 1_555
C64 C63 1_555 1_555
H67 C64 1_555 1_555
N8 C64 1_555 1_555
H68 N8 1_555 1_555
C65 N8 1_555 1_555
N9 C65 1_555 1_555
H69 N9 1_555 1_555
O3 C63 1_555 1_555
S3 C65 1_555 1_555
C66 N9 1_555 1_555
C67 C66 1_555 1_555
H70 C67 1_555 1_555
C68 C67 1_555 1_555
C69 C68 1_555 1_555
H71 C69 1_555 1_555
C70 C69 1_555 1_555
C71 C66 1_555 1_555
H72 C71 1_555 1_555
C72 C59 1_555 1_555
H73 C72 1_555 1_555
H74 C72 1_555 1_555
H75 C72 1_555 1_555
C73 C64 1_555 1_555
C74 C73 1_555 1_555
H76 C74 1_555 1_555
H77 C74 1_555 1_555
H78 C74 1_555 1_555
C75 C73 1_555 1_555
H79 C75 1_555 1_555
H80 C75 1_555 1_555
H81 C75 1_555 1_555
C76 C73 1_555 1_555
H82 C76 1_555 1_555
H83 C76 1_555 1_555
H84 C76 1_555 1_555
C77 C68 1_555 1_555
F16 C77 1_555 1_555
F17 C77 1_555 1_555
F18 C77 1_555 1_555
C78 C70 1_555 1_555
F19 C78 1_555 1_555
F20 C78 1_555 1_555
F21 C78 1_555 1_555
C79 H85 1_555 1_555
C80 C79 1_555 1_555
H86 C80 1_555 1_555
C81 C80 1_555 1_555
C82 C81 1_555 1_555
H87 C82 1_555 1_555
C83 C82 1_555 1_555
H88 C83 1_555 1_555
C84 C79 1_555 1_555
F22 C81 1_555 1_555
C85 C84 1_555 1_555
C86 C85 1_555 1_555
H89 C86 1_555 1_555
H90 C86 1_555 1_555
C87 C86 1_555 1_555
H91 C87 1_555 1_555
H92 C87 1_555 1_555
C88 C87 1_555 1_555
H93 C88 1_555 1_555
H94 C88 1_555 1_555
C89 C90 1_555 1_555
C90 H95 1_555 1_555
C91 N11 1_555 1_555
C92 C93 1_555 1_555
C93 H96 1_555 1_555
C94 C93 1_555 1_555
C95 C94 1_555 1_555
H97 C95 1_555 1_555
C96 C95 1_555 1_555
C97 C92 1_555 1_555
H98 C97 1_555 1_555
C98 C85 1_555 1_555
H99 C98 1_555 1_555
H100 C98 1_555 1_555
H101 C98 1_555 1_555
C99 C90 1_555 1_555
C100 C99 1_555 1_555
H102 C100 1_555 1_555
H103 C100 1_555 1_555
H104 C100 1_555 1_555
C101 C99 1_555 1_555
H105 C101 1_555 1_555
H106 C101 1_555 1_555
H107 C101 1_555 1_555
C102 C99 1_555 1_555
H108 C102 1_555 1_555
H109 C102 1_555 1_555
H110 C102 1_555 1_555
C103 C94 1_555 1_555
F23 C103 1_555 1_555
F24 C103 1_555 1_555
F25 C103 1_555 1_555
C104 C96 1_555 1_555
F26 C104 1_555 1_555
F27 C104 1_555 1_555
F28 C104 1_555 1_555
N10 C85 1_555 1_555
N11 C90 1_555 1_555
H111 N11 1_555 1_555
N12 C91 1_555 1_555
H112 N12 1_555 1_555
O4 C89 1_555 1_555
S4 C91 1_555 1_555
C105 H113 1_555 1_555
H114 C105 1_555 1_555
H115 C105 1_555 1_555
C106 H116 1_555 1_555
H117 C106 1_555 1_555
H118 C106 1_555 1_555
C107 H119 1_555 1_555
H120 C107 1_555 1_555
H121 C107 1_555 1_555
C108 H122 1_555 1_555
H123 C108 1_555 1_555
H124 C108 1_555 1_555
N13 C105 1_555 1_555
C109 H125 1_555 1_555
H126 C109 1_555 1_555
H127 C109 1_555 1_555
C110 H128 1_555 1_555
H129 C110 1_555 1_555
H130 C110 1_555 1_555
C111 H131 1_555 1_555
H132 C111 1_555 1_555
H133 C111 1_555 1_555
C112 H134 1_555 1_555
H135 C112 1_555 1_555
H136 C112 1_555 1_555
N14 C109 1_555 1_555
C5 C6 1_555 1_555
C10 N1 1_555 1_555
C11 N1 1_555 1_555
C14 N3 1_555 1_555
C18 C19 1_555 1_555
C31 C32 1_555 1_555
C36 N4 1_555 1_555
C37 N4 1_555 1_555
C40 N6 1_555 1_555
C44 C45 1_555 1_555
C57 C58 1_555 1_555
C62 N7 1_555 1_555
C70 C71 1_555 1_555
C83 C84 1_555 1_555
C88 N10 1_555 1_555
C89 N10 1_555 1_555
C92 N12 1_555 1_555
C96 C97 1_555 1_555
C106 N13 1_555 1_555
C107 N13 1_555 1_555
C108 N13 1_555 1_555
C110 N14 1_555 1_555
C111 N14 1_555 1_555
C112 N14 1_555 1_555

#END
