
#######################################################################
#
#                 Cambridge Crystallographic Data Centre
#                                CCDC 
#
#######################################################################
#
# If this CIF has been generated from an entry in the Cambridge 
# Structural Database, then it will include bibliographic, chemical, 
# crystal, experimental, refinement or atomic coordinate data resulting 
# from the CCDC's data processing and validation procedures.
#
#######################################################################

data_IRULUE
_chemical_formula_moiety         
'C26 H28 F7 N3 O2,C4 H12 N1 1+,C1 H1 Cl3,Cl1 1-'
_chemical_name_systematic        
'tetramethylammonium chloride 1-(3,5-bis(trifluoromethyl)phenyl)-3-(1-(2-(4-fluorophenyl)-2-methylpyrrolidin-1-yl)-3,3-dimethyl-1-oxobutan-2-yl)urea chloroform solvate'
_symmetry_cell_setting           orthorhombic
_symmetry_space_group_name_H-M   'P 21 21 21'
_symmetry_Int_Tables_number      19
_space_group_name_Hall           'P 2ac 2ab'
loop_
_symmetry_equiv_pos_site_id
_symmetry_equiv_pos_as_xyz
1 x,y,z
2 1/2-x,-y,1/2+z
3 -x,1/2+y,1/2-z
4 1/2+x,1/2-y,-z
_cell_length_a                   9.2304(8)
_cell_length_b                   13.9651(13)
_cell_length_c                   28.899(2)
_cell_angle_alpha                90
_cell_angle_beta                 90
_cell_angle_gamma                90
_cell_volume                     3725.18
_exptl_crystal_colour            colorless
_exptl_crystal_description       plate
_cell_formula_units_Z            4
loop_
_atom_site_label
_atom_site_type_symbol
_atom_site_fract_x
_atom_site_fract_y
_atom_site_fract_z
Cl1 Cl 0.47981(9) 0.86276(5) 0.52848(2)
C1 C 0.9284(3) 1.0540(2) 0.68911(11)
H1 H 0.8273 1.0432 0.6925
C2 C 0.9764(4) 1.1365(2) 0.66633(12)
H2 H 0.9095 1.1814 0.6540
C3 C 1.1227(4) 1.1507(2) 0.66233(12)
C4 C 1.2224(4) 1.0878(2) 0.67963(11)
H3 H 1.3232 1.1000 0.6765
C5 C 1.1735(4) 1.0060(2) 0.70181(10)
H4 H 1.2419 0.9616 0.7138
C6 C 1.0256(3) 0.9876(2) 0.70684(10)
C7 C 0.9758(3) 0.8991(2) 0.73366(10)
C8 C 0.9782(4) 0.9198(3) 0.78606(10)
H5 H 0.9895 0.8598 0.8040
H6 H 1.0584 0.9638 0.7941
C9 C 0.8321(4) 0.9659(3) 0.79563(11)
H7 H 0.8068 0.9619 0.8289
H8 H 0.8314 1.0339 0.7860
C10 C 0.7287(3) 0.9067(3) 0.76638(10)
H9 H 0.6955 0.8491 0.7833
H10 H 0.6432 0.9449 0.7570
C11 C 0.7684(3) 0.85231(19) 0.68400(9)
C12 C 0.6057(3) 0.83118(19) 0.67950(10)
H11 H 0.5567 0.8539 0.7083
C13 C 0.5481(3) 0.98322(19) 0.64352(10)
C14 C 0.5087(3) 1.1262(2) 0.59438(10)
C15 C 0.4512(4) 1.1565(2) 0.55208(10)
H12 H 0.4209 1.1103 0.5300
C16 C 0.4380(3) 1.2531(2) 0.54211(10)
C17 C 0.4813(3) 1.3214(2) 0.57394(11)
H13 H 0.4701 1.3877 0.5675
C18 C 0.5413(3) 1.2913(2) 0.61539(11)
C19 C 0.5563(3) 1.1950(2) 0.62620(10)
H14 H 0.5983 1.1760 0.6548
C20 C 1.0655(4) 0.8098(3) 0.72287(12)
H15 H 1.0731 0.8018 0.6893
H16 H 1.0182 0.7534 0.7363
H17 H 1.1626 0.8168 0.7361
C21 C 0.5732(3) 0.7229(2) 0.67383(10)
C22 C 0.4113(4) 0.7065(3) 0.68234(13)
H18 H 0.3874 0.7244 0.7142
H19 H 0.3882 0.6388 0.6774
H20 H 0.3548 0.7459 0.6608
C23 C 0.6595(4) 0.6670(2) 0.71033(12)
H21 H 0.7632 0.6722 0.7036
H22 H 0.6305 0.5995 0.7096
H23 H 0.6398 0.6937 0.7411
C24 C 0.6119(4) 0.6855(2) 0.62558(11)
H24 H 0.5462 0.7136 0.6027
H25 H 0.6023 0.6156 0.6250
H26 H 0.7119 0.7032 0.6181
C25 C 0.3837(4) 1.2840(2) 0.49558(12)
C26 C 0.5956(4) 1.3644(2) 0.64915(13)
F1 F 0.5086(6) 1.4417(4) 0.6520(2)
F2 F 0.7274(4) 1.3970(3) 0.6389(2)
F3 F 0.6031(7) 1.3323(2) 0.69328(12)
N1 N 0.8179(3) 0.88016(18) 0.72583(8)
N2 N 0.5481(3) 0.88580(17) 0.64061(9)
N3 N 0.5172(3) 1.02789(17) 0.60222(9)
O1 O 0.5694(2) 1.02575(13) 0.68012(7)
O2 O 0.8490(2) 0.84365(14) 0.65031(7)
F4 F 1.1706(2) 1.23081(14) 0.64011(8)
F5 F 0.4921(3) 1.29352(15) 0.46479(7)
F6 F 0.3191(3) 1.36919(17) 0.49677(8)
F7 F 0.2919(3) 1.22124(17) 0.47683(8)
H27 H 0.553(4) 0.859(2) 0.6175(12)
H28 H 0.499(3) 0.994(2) 0.5795(11)
C27 C 0.8747(4) 0.8774(3) 0.54080(13)
H29 H 0.8329 0.9361 0.5279
H30 H 0.8342 0.8658 0.5716
H31 H 0.8518 0.8232 0.5205
C28 C 1.0986(4) 0.9014(3) 0.49709(11)
H32 H 1.0742 0.8460 0.4778
H33 H 1.2041 0.9075 0.4993
H34 H 1.0583 0.9596 0.4831
C29 C 1.0734(5) 0.9715(2) 0.57447(13)
H35 H 1.0302 1.0298 0.5616
H36 H 1.1789 0.9788 0.5758
H37 H 1.0356 0.9605 0.6057
C30 C 1.0987(4) 0.8004(2) 0.56550(11)
H38 H 1.0591 0.7920 0.5967
H39 H 1.2043 0.8067 0.5673
H40 H 1.0738 0.7447 0.5465
N4 N 1.0362(3) 0.88823(18) 0.54435(8)
C31 C 0.5815(4) 0.9687(3) 0.42704(12)
H41 H 0.5506 0.9496 0.4589
Cl2 Cl 0.46564(13) 0.91467(8) 0.38679(4)
Cl3 Cl 0.57103(13) 1.09323(7) 0.42227(4)
Cl4 Cl 0.76154(9) 0.93003(6) 0.41806(3)
F8? F 0.496(3) 1.426(2) 0.6600(13)
F9? F 0.690(3) 1.4165(18) 0.6216(8)
F10? F 0.667(3) 1.3266(12) 0.6830(7)
loop_
_geom_bond_atom_site_label_1
_geom_bond_atom_site_label_2
_geom_bond_site_symmetry_1
_geom_bond_site_symmetry_2
C1 H1 1_555 1_555
C2 C1 1_555 1_555
H2 C2 1_555 1_555
C3 C2 1_555 1_555
C4 C3 1_555 1_555
H3 C4 1_555 1_555
C5 C4 1_555 1_555
H4 C5 1_555 1_555
C6 C1 1_555 1_555
C7 C6 1_555 1_555
C8 C7 1_555 1_555
H5 C8 1_555 1_555
H6 C8 1_555 1_555
C9 C8 1_555 1_555
H7 C9 1_555 1_555
H8 C9 1_555 1_555
C10 C9 1_555 1_555
H9 C10 1_555 1_555
H10 C10 1_555 1_555
C11 C12 1_555 1_555
C12 H11 1_555 1_555
C13 N2 1_555 1_555
C14 C15 1_555 1_555
C15 H12 1_555 1_555
C16 C15 1_555 1_555
C17 C16 1_555 1_555
H13 C17 1_555 1_555
C18 C17 1_555 1_555
C19 C14 1_555 1_555
H14 C19 1_555 1_555
C20 C7 1_555 1_555
H15 C20 1_555 1_555
H16 C20 1_555 1_555
H17 C20 1_555 1_555
C21 C12 1_555 1_555
C22 C21 1_555 1_555
H18 C22 1_555 1_555
H19 C22 1_555 1_555
H20 C22 1_555 1_555
C23 C21 1_555 1_555
H21 C23 1_555 1_555
H22 C23 1_555 1_555
H23 C23 1_555 1_555
C24 C21 1_555 1_555
H24 C24 1_555 1_555
H25 C24 1_555 1_555
H26 C24 1_555 1_555
C25 C16 1_555 1_555
C26 C18 1_555 1_555
F1 C26 1_555 1_555
F2 C26 1_555 1_555
F3 C26 1_555 1_555
N1 C7 1_555 1_555
N2 C12 1_555 1_555
N3 C13 1_555 1_555
O1 C13 1_555 1_555
O2 C11 1_555 1_555
F4 C3 1_555 1_555
F5 C25 1_555 1_555
F6 C25 1_555 1_555
F7 C25 1_555 1_555
H27 N2 1_555 1_555
H28 N3 1_555 1_555
C27 H29 1_555 1_555
H30 C27 1_555 1_555
H31 C27 1_555 1_555
C28 H32 1_555 1_555
H33 C28 1_555 1_555
H34 C28 1_555 1_555
C29 H35 1_555 1_555
H36 C29 1_555 1_555
H37 C29 1_555 1_555
C30 H38 1_555 1_555
H39 C30 1_555 1_555
H40 C30 1_555 1_555
N4 C27 1_555 1_555
C31 H41 1_555 1_555
Cl2 C31 1_555 1_555
Cl3 C31 1_555 1_555
Cl4 C31 1_555 1_555
C5 C6 1_555 1_555
C10 N1 1_555 1_555
C11 N1 1_555 1_555
C14 N3 1_555 1_555
C18 C19 1_555 1_555
C28 N4 1_555 1_555
C29 N4 1_555 1_555
C30 N4 1_555 1_555

#END
