
#######################################################################
#
#                 Cambridge Crystallographic Data Centre
#                                CCDC 
#
#######################################################################
#
# If this CIF has been generated from an entry in the Cambridge 
# Structural Database, then it will include bibliographic, chemical, 
# crystal, experimental, refinement or atomic coordinate data resulting 
# from the CCDC's data processing and validation procedures.
#
#######################################################################

data_IRUMEP
_chemical_formula_moiety         'C24 H21 Br1 N2 O2 S1'
_chemical_name_systematic        
N-(1-(3-bromobenzyl)-5-phenyl-1H-pyrrol-2-yl)-N-phenylmethanesulfonamide
_symmetry_cell_setting           triclinic
_symmetry_space_group_name_H-M   'P -1'
_symmetry_Int_Tables_number      2
_space_group_name_Hall           '-P 1'
loop_
_symmetry_equiv_pos_site_id
_symmetry_equiv_pos_as_xyz
1 x,y,z
2 -x,-y,-z
_cell_length_a                   9.0001(5)
_cell_length_b                   9.6916(8)
_cell_length_c                   13.9766(5)
_cell_angle_alpha                90.203(5)
_cell_angle_beta                 105.459(4)
_cell_angle_gamma                116.432(7)
_cell_volume                     1041.58
_exptl_crystal_colour            colorless
_exptl_crystal_description       block
_cell_formula_units_Z            2
loop_
_atom_site_label
_atom_site_type_symbol
_atom_site_fract_x
_atom_site_fract_y
_atom_site_fract_z
Br1 Br 0.22625(3) 0.30753(3) 0.44656(2)
S1 S 0.57800(6) 0.84786(5) 0.92225(4)
O1 O 0.4097(2) 0.83986(18) 0.90342(12)
O2 O 0.6435(2) 0.7883(2) 1.00730(12)
N1 N 0.7131(2) 0.58723(19) 0.82349(12)
N2 N 0.5710(2) 0.74998(19) 0.82204(13)
C1 C 0.8743(3) 0.6047(2) 0.82362(15)
C2 C 0.9233(3) 0.4780(2) 0.82223(16)
C3 C 0.9806(3) 0.7605(2) 0.82397(17)
C4 C 1.1324(3) 0.3841(3) 0.89387(19)
C5 C 1.0662(3) 0.4892(2) 0.89838(17)
C6 C 0.4581(3) 0.3258(2) 0.74920(16)
C7 C 0.2765(3) 0.6486(2) 0.70634(16)
C8 C 0.3937(3) 0.1691(2) 0.76030(18)
C9 C 0.4098(3) 0.3679(2) 0.65487(17)
C10 C 1.0569(3) 0.2696(2) 0.81225(19)
C11 C 0.7206(3) 0.7334(2) 0.82430(15)
C12 C 0.4546(3) 0.7423(2) 0.72524(16)
C13 C 0.8823(3) 0.8404(2) 0.82321(16)
C14 C 0.4058(3) 0.8041(3) 0.55748(18)
C15 C 0.8442(3) 0.3571(2) 0.74175(17)
C16 C 0.1645(3) 0.6365(2) 0.61341(17)
C17 C 0.2983(3) 0.2522(3) 0.57480(16)
C18 C 0.5197(3) 0.8205(2) 0.65086(17)
C19 C 0.2345(3) 0.0953(3) 0.58482(19)
C20 C 0.2288(3) 0.7135(3) 0.53897(18)
C21 C 0.5720(3) 0.4471(2) 0.84016(16)
C22 C 0.7283(3) 1.0439(3) 0.92844(19)
C23 C 0.9121(3) 0.2548(2) 0.73707(18)
C24 C 0.2841(3) 0.0550(2) 0.67855(18)
H1 H 0.232(3) 0.595(3) 0.755(2)
H2 H 0.043(4) 0.572(3) 0.601(2)
H3 H 0.618(4) 0.401(3) 0.885(2)
H4 H 0.709(4) 1.076(3) 0.868(2)
H5 H 0.923(3) 0.944(3) 0.8224(19)
H6 H 0.421(4) 0.138(3) 0.818(2)
H7 H 0.838(4) 1.053(3) 0.941(2)
H8 H 0.756(3) 0.347(3) 0.6900(19)
H9 H 0.626(4) 0.881(3) 0.661(2)
H10 H 1.119(3) 0.570(3) 0.953(2)
H11 H 0.863(4) 0.170(4) 0.676(2)
H12 H 0.709(4) 1.091(3) 0.978(2)
H13 H 0.449(4) 0.473(4) 0.644(2)
H14 H 0.500(4) 0.483(3) 0.863(2)
H15 H 1.230(4) 0.392(3) 0.947(2)
H16 H 1.107(4) 0.208(3) 0.805(2)
H17 H 1.093(4) 0.798(3) 0.822(2)
H18 H 0.153(4) 0.701(3) 0.478(2)
H19 H 0.240(4) -0.053(4) 0.686(2)
H20 H 0.156(5) 0.009(4) 0.524(3)
H21 H 0.446(4) 0.858(3) 0.511(2)
loop_
_geom_bond_atom_site_label_1
_geom_bond_atom_site_label_2
_geom_bond_site_symmetry_1
_geom_bond_site_symmetry_2
Br1 C17 1_555 1_555
S1 O1 1_555 1_555
O2 S1 1_555 1_555
N1 C1 1_555 1_555
N2 S1 1_555 1_555
C1 C2 1_555 1_555
C2 C5 1_555 1_555
C3 C1 1_555 1_555
C4 C5 1_555 1_555
C5 H10 1_555 1_555
C6 C8 1_555 1_555
C7 C12 1_555 1_555
C8 C24 1_555 1_555
C9 C6 1_555 1_555
C10 C4 1_555 1_555
C11 N1 1_555 1_555
C12 N2 1_555 1_555
C13 C3 1_555 1_555
C14 C18 1_555 1_555
C15 C2 1_555 1_555
C16 C7 1_555 1_555
C17 C9 1_555 1_555
C18 C12 1_555 1_555
C19 C17 1_555 1_555
C20 C14 1_555 1_555
C21 N1 1_555 1_555
C22 S1 1_555 1_555
C23 C10 1_555 1_555
C24 C19 1_555 1_555
H1 C7 1_555 1_555
H2 C16 1_555 1_555
H3 C21 1_555 1_555
H4 C22 1_555 1_555
H5 C13 1_555 1_555
H6 C8 1_555 1_555
H7 C22 1_555 1_555
H8 C15 1_555 1_555
H9 C18 1_555 1_555
H11 C23 1_555 1_555
H12 C22 1_555 1_555
H13 C9 1_555 1_555
H14 C21 1_555 1_555
H15 C4 1_555 1_555
H16 C10 1_555 1_555
H17 C3 1_555 1_555
H18 C20 1_555 1_555
H19 C24 1_555 1_555
H20 C19 1_555 1_555
H21 C14 1_555 1_555
N2 C11 1_555 1_555
C6 C21 1_555 1_555
C11 C13 1_555 1_555
C15 C23 1_555 1_555
C16 C20 1_555 1_555

#END
