
#######################################################################
#
#                 Cambridge Crystallographic Data Centre
#                                CCDC 
#
#######################################################################
#
# If this CIF has been generated from an entry in the Cambridge 
# Structural Database, then it will include bibliographic, chemical, 
# crystal, experimental, refinement or atomic coordinate data resulting 
# from the CCDC's data processing and validation procedures.
#
#######################################################################

data_IRUNOA
_chemical_compound_source        
'obtained from the culture of a sponge-derived Streptomyces sp. HDN-10-293'
_chemical_name_common            (-)-BE-52440A
_chemical_formula_moiety         'C34 H34 O14 S1,C1 H4 O1'
_chemical_name_systematic        
"dimethyl 2,2'-(sulfanediylbis(9,10a-dihydroxy-1-methyl-5,10-dioxo-1,3,4,5,10,10a-hexahydro-4aH-benzo[g]isochromene-4a,3-diyl))diacetate methanol solvate"
_chemical_properties_biological  'cytotoxicity against NB4 and HL-60 cells'
_symmetry_cell_setting           orthorhombic
_symmetry_space_group_name_H-M   'P 21 21 21'
_symmetry_Int_Tables_number      19
_space_group_name_Hall           'P 2ac 2ab'
loop_
_symmetry_equiv_pos_site_id
_symmetry_equiv_pos_as_xyz
1 x,y,z
2 1/2-x,-y,1/2+z
3 1/2+x,1/2-y,-z
4 -x,1/2+y,1/2-z
_cell_length_a                   13.5014(9)
_cell_length_b                   15.6835(9)
_cell_length_c                   16.2260(11)
_cell_angle_alpha                90
_cell_angle_beta                 90
_cell_angle_gamma                90
_cell_volume                     3435.84
_exptl_crystal_colour            yellow
_exptl_crystal_description       block
_cell_formula_units_Z            4
loop_
_atom_site_label
_atom_site_type_symbol
_atom_site_fract_x
_atom_site_fract_y
_atom_site_fract_z
S1 S 0.04793(8) 0.44963(7) 0.41550(7)
O1 O 0.3409(3) 0.6103(2) 0.3100(3)
H1 H 0.3303 0.5666 0.2837
O2 O 0.2738(3) 0.4571(2) 0.2854(2)
O3 O 0.1844(3) 0.4220(2) 0.6039(2)
O4 O 0.3116(3) 0.3418(2) 0.4403(3)
H2 H 0.3067 0.2919 0.4549
O5 O 0.1733(3) 0.2205(2) 0.3797(2)
O6 O -0.0232(3) 0.1127(3) 0.3481(3)
O7 O 0.0115(4) 0.0057(2) 0.4318(4)
O8 O -0.2131(4) 0.5084(4) 0.1898(3)
H3 H -0.1841 0.5495 0.2098
O9 O -0.1560(3) 0.5950(3) 0.3177(3)
O10 O -0.1318(3) 0.3143(2) 0.5020(3)
O11 O -0.2240(3) 0.5097(2) 0.4856(3)
H4 H -0.2650 0.5454 0.4715
O12 O -0.0852(3) 0.6150(2) 0.5686(2)
O13 O 0.0998(5) 0.6829(4) 0.6798(4)
O14 O -0.0241(5) 0.6836(4) 0.7693(3)
C1 C 0.2452(3) 0.5152(3) 0.5009(3)
C2 C 0.2614(4) 0.5816(3) 0.5546(4)
H5 H 0.2445 0.5763 0.6099
C3 C 0.3037(5) 0.6573(4) 0.5252(4)
H6 H 0.3140 0.7023 0.5614
C4 C 0.3298(5) 0.6663(4) 0.4448(4)
H7 H 0.3575 0.7171 0.4264
C5 C 0.3148(4) 0.5982(3) 0.3892(4)
C6 C 0.2724(3) 0.5230(3) 0.4170(4)
C7 C 0.2574(3) 0.4516(3) 0.3586(3)
C8 C 0.2235(3) 0.3666(3) 0.3965(3)
C9 C 0.1443(3) 0.3822(3) 0.4651(3)
C10 C 0.1920(3) 0.4373(3) 0.5313(3)
C11 C 0.1966(4) 0.2951(3) 0.3343(3)
H8 H 0.2582 0.2821 0.3050
C12 C 0.0883(4) 0.2308(3) 0.4321(3)
H9 H 0.0315 0.2497 0.3993
C13 C 0.1095(4) 0.2956(3) 0.4996(3)
H10 H 0.1602 0.2731 0.5359
H11 H 0.0499 0.3043 0.5320
C14 C 0.1199(5) 0.3142(4) 0.2670(3)
H12 H 0.1153 0.2664 0.2302
H13 H 0.1399 0.3639 0.2366
H14 H 0.0565 0.3243 0.2919
C15 C 0.0663(5) 0.1449(3) 0.4697(4)
H15 H 0.0243 0.1538 0.5174
H16 H 0.1282 0.1209 0.4893
C16 C 0.0165(4) 0.0791(4) 0.4144(4)
C17 C -0.0753(6) 0.0550(5) 0.2942(4)
H17 H -0.0343 0.0065 0.2827
H18 H -0.0911 0.0837 0.2436
H19 H -0.1353 0.0365 0.3205
C18 C -0.1595(4) 0.3692(3) 0.3669(4)
C19 C -0.1826(5) 0.2908(4) 0.3330(5)
H20 H -0.1784 0.2411 0.3642
C20 C -0.2118(7) 0.2885(5) 0.2520(6)
H21 H -0.2262 0.2358 0.2288
C21 C -0.2209(6) 0.3593(6) 0.2037(5)
H22 H -0.2406 0.3543 0.1489
C22 C -0.2000(5) 0.4402(5) 0.2380(4)
C23 C -0.1685(4) 0.4439(4) 0.3197(3)
C24 C -0.1485(4) 0.5280(3) 0.3568(3)
C25 C -0.1299(4) 0.5297(3) 0.4491(3)
C26 C -0.0660(3) 0.4538(3) 0.4792(3)
C27 C -0.1225(4) 0.3739(3) 0.4538(3)
C28 C -0.0936(4) 0.6197(3) 0.4815(3)
H23 H -0.1487 0.6589 0.4709
C29 C -0.0157(4) 0.5510(3) 0.5957(3)
H24 H 0.0489 0.5619 0.5703
C30 C -0.0507(4) 0.4624(3) 0.5718(3)
H25 H -0.1125 0.4501 0.5999
H26 H -0.0022 0.4207 0.5898
C31 C -0.0055(4) 0.6585(3) 0.4398(4)
H27 H 0.0015 0.7168 0.4570
H28 H -0.0146 0.6565 0.3811
H29 H 0.0530 0.6272 0.4544
C32 C -0.0071(6) 0.5612(4) 0.6879(3)
H30 H 0.0384 0.5188 0.7094
H31 H -0.0713 0.5518 0.7131
C33 C 0.0303(6) 0.6506(5) 0.7108(4)
C34 C 0.0075(9) 0.7711(6) 0.7917(5)
H32 H 0.0562 0.7683 0.8348
H33 H -0.0487 0.8031 0.8105
H34 H 0.0357 0.7987 0.7443
O15 O 0.6289(6) 0.6166(7) 0.4895(8)
H35 H 0.5820 0.6243 0.5207
C35 C 0.5978(12) 0.6250(14) 0.4098(9)
H36 H 0.5813 0.6835 0.3992
H37 H 0.5404 0.5900 0.4011
H38 H 0.6497 0.6073 0.3732
loop_
_geom_bond_atom_site_label_1
_geom_bond_atom_site_label_2
_geom_bond_site_symmetry_1
_geom_bond_site_symmetry_2
S1 C9 1_555 1_555
O1 H1 1_555 1_555
O2 C7 1_555 1_555
O3 C10 1_555 1_555
O4 H2 1_555 1_555
O5 C11 1_555 1_555
O6 C16 1_555 1_555
O7 C16 1_555 1_555
O8 H3 1_555 1_555
O9 C24 1_555 1_555
O10 C27 1_555 1_555
O11 H4 1_555 1_555
O12 C28 1_555 1_555
O13 C33 1_555 1_555
O14 C33 1_555 1_555
C1 C2 1_555 1_555
C2 H5 1_555 1_555
C3 C2 1_555 1_555
H6 C3 1_555 1_555
C4 C3 1_555 1_555
H7 C4 1_555 1_555
C5 O1 1_555 1_555
C6 C1 1_555 1_555
C7 C6 1_555 1_555
C8 O4 1_555 1_555
C9 C8 1_555 1_555
C10 C1 1_555 1_555
C11 C8 1_555 1_555
H8 C11 1_555 1_555
C12 O5 1_555 1_555
H9 C12 1_555 1_555
C13 C9 1_555 1_555
H10 C13 1_555 1_555
H11 C13 1_555 1_555
C14 C11 1_555 1_555
H12 C14 1_555 1_555
H13 C14 1_555 1_555
H14 C14 1_555 1_555
C15 C12 1_555 1_555
H15 C15 1_555 1_555
H16 C15 1_555 1_555
C16 C15 1_555 1_555
C17 O6 1_555 1_555
H17 C17 1_555 1_555
H18 C17 1_555 1_555
H19 C17 1_555 1_555
C18 C19 1_555 1_555
C19 H20 1_555 1_555
C20 C19 1_555 1_555
H21 C20 1_555 1_555
C21 C20 1_555 1_555
H22 C21 1_555 1_555
C22 O8 1_555 1_555
C23 C18 1_555 1_555
C24 C23 1_555 1_555
C25 O11 1_555 1_555
C26 S1 1_555 1_555
C27 C18 1_555 1_555
C28 C25 1_555 1_555
H23 C28 1_555 1_555
C29 O12 1_555 1_555
H24 C29 1_555 1_555
C30 C26 1_555 1_555
H25 C30 1_555 1_555
H26 C30 1_555 1_555
C31 C28 1_555 1_555
H27 C31 1_555 1_555
H28 C31 1_555 1_555
H29 C31 1_555 1_555
C32 C29 1_555 1_555
H30 C32 1_555 1_555
H31 C32 1_555 1_555
C33 C32 1_555 1_555
C34 O14 1_555 1_555
H32 C34 1_555 1_555
H33 C34 1_555 1_555
H34 C34 1_555 1_555
O15 H35 1_555 1_555
C35 O15 1_555 1_555
H36 C35 1_555 1_555
H37 C35 1_555 1_555
H38 C35 1_555 1_555
C4 C5 1_555 1_555
C5 C6 1_555 1_555
C7 C8 1_555 1_555
C9 C10 1_555 1_555
C12 C13 1_555 1_555
C21 C22 1_555 1_555
C22 C23 1_555 1_555
C24 C25 1_555 1_555
C25 C26 1_555 1_555
C26 C27 1_555 1_555
C29 C30 1_555 1_555

#END
