
#######################################################################
#
#                 Cambridge Crystallographic Data Centre
#                                CCDC 
#
#######################################################################
#
# If this CIF has been generated from an entry in the Cambridge 
# Structural Database, then it will include bibliographic, chemical, 
# crystal, experimental, refinement or atomic coordinate data resulting 
# from the CCDC's data processing and validation procedures.
#
#######################################################################

data_IRUNEQ
_chemical_formula_moiety         'C19 H28 Cl1 N1 O2 Si1'
_chemical_name_systematic        
2-chloro-N-methoxy-6-((triisopropylsilyl)ethynyl)benzamide
_symmetry_cell_setting           monoclinic
_symmetry_space_group_name_H-M   'P 21/c'
_symmetry_Int_Tables_number      14
_space_group_name_Hall           '-P 2ybc'
loop_
_symmetry_equiv_pos_site_id
_symmetry_equiv_pos_as_xyz
1 x,y,z
2 -x,1/2+y,1/2-z
3 -x,-y,-z
4 x,1/2-y,1/2+z
_cell_length_a                   18.781(5)
_cell_length_b                   13.854(4)
_cell_length_c                   8.134(2)
_cell_angle_alpha                90
_cell_angle_beta                 93.886(4)
_cell_angle_gamma                90
_cell_volume                     2111.54
_exptl_crystal_colour            colorless
_exptl_crystal_description       Tabular
_cell_formula_units_Z            4
loop_
_atom_site_label
_atom_site_type_symbol
_atom_site_fract_x
_atom_site_fract_y
_atom_site_fract_z
Cl1 Cl 0.46545(7) 0.27081(9) 0.44537(18)
Si1 Si 0.81732(7) 0.54843(9) 0.70155(18)
N1 N 0.64045(19) 0.2456(2) 0.5371(4)
H1 H 0.6428 0.2366 0.4330
O1 O 0.61594(16) 0.34945(19) 0.7394(3)
O2 O 0.66590(17) 0.17624(19) 0.6509(4)
C1 C 0.7397(3) 0.1874(4) 0.6875(7)
H2 H 0.7639 0.1860 0.5871
H3 H 0.7570 0.1357 0.7580
H4 H 0.7487 0.2480 0.7422
C2 C 0.6127(2) 0.3256(3) 0.5940(5)
C3 C 0.5798(2) 0.3885(2) 0.4600(4)
C4 C 0.6156(2) 0.4723(3) 0.4148(5)
C5 C 0.6838(2) 0.4952(3) 0.4945(5)
C6 C 0.7402(3) 0.5143(3) 0.5646(6)
C7 C 0.8557(3) 0.4325(4) 0.7869(8)
H5 H 0.8154 0.3977 0.8297
C8 C 0.9106(4) 0.4433(5) 0.9336(10)
H6 H 0.9256 0.3805 0.9721
H7 H 0.8894 0.4775 1.0207
H8 H 0.9511 0.4786 0.9001
C9 C 0.7412(4) 0.7119(4) 0.7987(8)
H9 H 0.7003 0.6923 0.7296
H10 H 0.7726 0.7493 0.7353
H11 H 0.7260 0.7503 0.8881
C10 C 0.7809(3) 0.6220(4) 0.8679(7)
H12 H 0.8214 0.6444 0.9404
C11 C 0.8779(3) 0.6233(4) 0.5776(8)
H13 H 0.8518 0.6835 0.5540
C12 C 0.9461(3) 0.6532(6) 0.6727(10)
H14 H 0.9772 0.5985 0.6869
H15 H 0.9353 0.6775 0.7787
H16 H 0.9691 0.7027 0.6130
C13 C 0.8918(4) 0.5815(5) 0.4101(9)
H17 H 0.9158 0.6287 0.3474
H18 H 0.8473 0.5645 0.3526
H19 H 0.9212 0.5250 0.4245
C14 C 0.5131(2) 0.3708(3) 0.3858(5)
C15 C 0.4826(2) 0.4302(3) 0.2659(5)
H20 H 0.4378 0.4160 0.2157
C16 C 0.5190(3) 0.5109(3) 0.2212(5)
H21 H 0.4985 0.5519 0.1406
C17 C 0.5846(2) 0.5317(3) 0.2932(5)
H22 H 0.6089 0.5862 0.2606
C18 C 0.8845(3) 0.3659(4) 0.6585(10)
H23 H 0.9275 0.3928 0.6204
H24 H 0.8496 0.3592 0.5673
H25 H 0.8946 0.3037 0.7067
C19 C 0.7322(4) 0.5637(5) 0.9728(9)
H26 H 0.7105 0.6058 1.0487
H27 H 0.7597 0.5153 1.0332
H28 H 0.6957 0.5330 0.9028
loop_
_geom_bond_atom_site_label_1
_geom_bond_atom_site_label_2
_geom_bond_site_symmetry_1
_geom_bond_site_symmetry_2
Cl1 C14 1_555 1_555
Si1 C6 1_555 1_555
N1 H1 1_555 1_555
O1 C2 1_555 1_555
O2 N1 1_555 1_555
C1 O2 1_555 1_555
H2 C1 1_555 1_555
H3 C1 1_555 1_555
H4 C1 1_555 1_555
C2 N1 1_555 1_555
C3 C2 1_555 1_555
C4 C3 1_555 1_555
C5 C4 1_555 1_555
C6 C5 1_555 1_555
C7 Si1 1_555 1_555
H5 C7 1_555 1_555
C8 C7 1_555 1_555
H6 C8 1_555 1_555
H7 C8 1_555 1_555
H8 C8 1_555 1_555
C9 H9 1_555 1_555
H10 C9 1_555 1_555
H11 C9 1_555 1_555
C10 Si1 1_555 1_555
H12 C10 1_555 1_555
C11 Si1 1_555 1_555
H13 C11 1_555 1_555
C12 C11 1_555 1_555
H14 C12 1_555 1_555
H15 C12 1_555 1_555
H16 C12 1_555 1_555
C13 C11 1_555 1_555
H17 C13 1_555 1_555
H18 C13 1_555 1_555
H19 C13 1_555 1_555
C14 C3 1_555 1_555
C15 C14 1_555 1_555
H20 C15 1_555 1_555
C16 C15 1_555 1_555
H21 C16 1_555 1_555
C17 C4 1_555 1_555
H22 C17 1_555 1_555
C18 C7 1_555 1_555
H23 C18 1_555 1_555
H24 C18 1_555 1_555
H25 C18 1_555 1_555
C19 C10 1_555 1_555
H26 C19 1_555 1_555
H27 C19 1_555 1_555
H28 C19 1_555 1_555
C9 C10 1_555 1_555
C16 C17 1_555 1_555

#END
