
#######################################################################
#
#                 Cambridge Crystallographic Data Centre
#                                CCDC 
#
#######################################################################
#
# If this CIF has been generated from an entry in the Cambridge 
# Structural Database, then it will include bibliographic, chemical, 
# crystal, experimental, refinement or atomic coordinate data resulting 
# from the CCDC's data processing and validation procedures.
#
#######################################################################

data_IRUQAP
_chemical_formula_moiety         'C28 H20 Br1 Cl1 N2 O4 S2'
_chemical_name_systematic        
3-bromo-8-chloro-5,10-bis((4-methylphenyl)sulfonyl)-5,10-dihydroindolo[3,2-b]indole
_symmetry_cell_setting           monoclinic
_symmetry_space_group_name_H-M   'P 21/n'
_symmetry_Int_Tables_number      14
_space_group_name_Hall           '-P 2yn'
loop_
_symmetry_equiv_pos_site_id
_symmetry_equiv_pos_as_xyz
1 x,y,z
2 1/2-x,1/2+y,1/2-z
3 -x,-y,-z
4 1/2+x,1/2-y,1/2+z
_cell_length_a                   5.4375(8)
_cell_length_b                   10.0119(15)
_cell_length_c                   22.541(3)
_cell_angle_alpha                90
_cell_angle_beta                 94.174(3)
_cell_angle_gamma                90
_cell_volume                     1223.87
_exptl_crystal_colour            colorless
_exptl_crystal_description       Prism
_cell_formula_units_Z            2
loop_
_atom_site_label
_atom_site_type_symbol
_atom_site_fract_x
_atom_site_fract_y
_atom_site_fract_z
Cl1 Cl 0.743(2) 0.5338(9) 1.0677(6)
S1 S 0.55300(7) 0.05192(4) 0.89994(2)
O1 O 0.4756(2) 0.17272(11) 0.92648(5)
O2 O 0.3768(2) -0.04415(11) 0.87709(5)
N1 N 0.7304(2) -0.02585(13) 0.95329(6)
C1 C 0.9043(3) 0.04202(15) 0.99174(6)
C2 C 0.9406(3) 0.16866(15) 1.02150(6)
C3 C 0.8073(3) 0.28793(15) 1.02424(7)
H1 H 0.6539 0.2995 1.0018
C4 C 0.9066(3) 0.38786(15) 1.06059(7)
C5 C 1.1336(3) 0.37586(16) 1.09316(7)
H2 H 1.1965 0.4483 1.1169
C6 C 1.2669(3) 0.25897(16) 1.09091(7)
H3 H 1.4217 0.2494 1.1129
C7 C 1.1684(3) 0.15547(15) 1.05550(7)
C8 C 0.7535(3) 0.09042(16) 0.84465(7)
C9 C 0.8864(3) 0.20909(17) 0.84897(7)
H4 H 0.8653 0.2697 0.8806
C10 C 1.0508(3) 0.23775(18) 0.80619(7)
H5 H 1.1419 0.3188 0.8088
C11 C 1.0845(3) 0.14968(17) 0.75952(7)
C12 C 0.9473(3) 0.03196(17) 0.75597(7)
H6 H 0.9666 -0.0282 0.7240
C13 C 0.7825(3) 0.00090(17) 0.79833(7)
H7 H 0.6912 -0.0800 0.7957
C14 C 1.2709(3) 0.1805(2) 0.71498(8)
H8 H 1.4377 0.1730 0.7343
H9 H 1.2444 0.2714 0.6998
H10 H 1.2515 0.1169 0.6819
Cl1B Cl 1.257(2) -0.5338(9) 0.9323(6)
S1B S 1.44700(7) -0.05192(4) 1.10006(2)
O1B O 1.5244(2) -0.17272(11) 1.07352(5)
O2B O 1.6232(2) 0.04415(11) 1.12291(5)
N1B N 1.2696(2) 0.02585(13) 1.04671(6)
C1B C 1.0957(3) -0.04202(15) 1.00826(6)
C2B C 1.0594(3) -0.16866(15) 0.97850(6)
C3B C 1.1927(3) -0.28793(15) 0.97576(7)
H1B H 1.3461 -0.2995 0.9982
C4B C 1.0934(3) -0.38786(15) 0.93941(7)
C5B C 0.8664(3) -0.37586(16) 0.90684(7)
H2B H 0.8035 -0.4483 0.8831
C6B C 0.7331(3) -0.25897(16) 0.90909(7)
H3B H 0.5783 -0.2494 0.8871
C7B C 0.8316(3) -0.15547(15) 0.94450(7)
C8B C 1.2465(3) -0.09042(16) 1.15535(7)
C9B C 1.1136(3) -0.20909(17) 1.15103(7)
H4B H 1.1347 -0.2697 1.1194
C10B C 0.9492(3) -0.23775(18) 1.19381(7)
H5B H 0.8581 -0.3188 1.1912
C11B C 0.9155(3) -0.14968(17) 1.24048(7)
C12B C 1.0527(3) -0.03196(17) 1.24403(7)
H6B H 1.0334 0.0282 1.2760
C13B C 1.2175(3) -0.00090(17) 1.20167(7)
H7B H 1.3088 0.0800 1.2043
C14B C 0.7291(3) -0.1805(2) 1.28502(8)
H8B H 0.5623 -0.1730 1.2657
H9B H 0.7556 -0.2714 1.3002
H10B H 0.7485 -0.1169 1.3181
Br1? Br 0.7308(9) 0.5498(4) 1.0676(2)
loop_
_geom_bond_atom_site_label_1
_geom_bond_atom_site_label_2
_geom_bond_site_symmetry_1
_geom_bond_site_symmetry_2
Cl1 C4 1_555 1_555
S1 O1 1_555 1_555
O2 S1 1_555 1_555
N1 S1 1_555 1_555
C1 N1 1_555 1_555
C2 C1 1_555 1_555
C3 C2 1_555 1_555
H1 C3 1_555 1_555
C4 C3 1_555 1_555
C5 C4 1_555 1_555
H2 C5 1_555 1_555
C6 C5 1_555 1_555
H3 C6 1_555 1_555
C7 C2 1_555 1_555
C8 S1 1_555 1_555
C9 C8 1_555 1_555
H4 C9 1_555 1_555
C10 C9 1_555 1_555
H5 C10 1_555 1_555
C11 C10 1_555 1_555
C12 C11 1_555 1_555
H6 C12 1_555 1_555
C13 C8 1_555 1_555
H7 C13 1_555 1_555
C14 C11 1_555 1_555
H8 C14 1_555 1_555
H9 C14 1_555 1_555
H10 C14 1_555 1_555
Cl1B C4B 1_555 1_555
S1B O1B 1_555 1_555
O2B S1B 1_555 1_555
N1B C7 1_555 1_555
C1B C1 1_555 1_555
C2B C1B 1_555 1_555
C3B C2B 1_555 1_555
H1B C3B 1_555 1_555
C4B C3B 1_555 1_555
C5B C4B 1_555 1_555
H2B C5B 1_555 1_555
C6B C5B 1_555 1_555
H3B C6B 1_555 1_555
C7B N1 1_555 1_555
C8B S1B 1_555 1_555
C9B C8B 1_555 1_555
H4B C9B 1_555 1_555
C10B C9B 1_555 1_555
H5B C10B 1_555 1_555
C11B C10B 1_555 1_555
C12B C11B 1_555 1_555
H6B C12B 1_555 1_555
C13B C8B 1_555 1_555
H7B C13B 1_555 1_555
C14B C11B 1_555 1_555
H8B C14B 1_555 1_555
H9B C14B 1_555 1_555
H10B C14B 1_555 1_555
C6 C7 1_555 1_555
C12 C13 1_555 1_555
S1B N1B 1_555 1_555
N1B C1B 1_555 1_555
C2B C7B 1_555 1_555
C6B C7B 1_555 1_555
C12B C13B 1_555 1_555

#END
