
#######################################################################
#
#                 Cambridge Crystallographic Data Centre
#                                CCDC 
#
#######################################################################
#
# If this CIF has been generated from an entry in the Cambridge 
# Structural Database, then it will include bibliographic, chemical, 
# crystal, experimental, refinement or atomic coordinate data resulting 
# from the CCDC's data processing and validation procedures.
#
#######################################################################

data_IRUSOF
_chemical_formula_moiety         'C13 H11 F3 O1 S1'
_chemical_name_systematic        
3-(ethylsulfanyl)-5,5-difluoro-2-(4-fluorophenyl)cyclopent-2-en-1-one
_symmetry_cell_setting           monoclinic
_symmetry_space_group_name_H-M   'P 21/c'
_symmetry_Int_Tables_number      14
_space_group_name_Hall           '-P 2ybc'
loop_
_symmetry_equiv_pos_site_id
_symmetry_equiv_pos_as_xyz
1 x,y,z
2 -x,1/2+y,1/2-z
3 -x,-y,-z
4 x,1/2-y,1/2+z
_cell_length_a                   12.9390(10)
_cell_length_b                   8.2520(8)
_cell_length_c                   11.8780(8)
_cell_angle_alpha                90
_cell_angle_beta                 102.167(7)
_cell_angle_gamma                90
_cell_volume                     1239.76
_exptl_crystal_colour            yellow
_exptl_crystal_description       block
_cell_formula_units_Z            4
loop_
_atom_site_label
_atom_site_type_symbol
_atom_site_fract_x
_atom_site_fract_y
_atom_site_fract_z
C1 C 0.49944(18) 0.3609(3) 0.29867(18)
C2 C 0.41822(17) 0.4263(3) 0.35967(17)
H1 H 0.4404 0.5293 0.3961
H2 H 0.4048 0.3508 0.4176
C3 C 0.32195(16) 0.4461(2) 0.26425(16)
C4 C 0.33754(16) 0.3997(2) 0.15918(16)
C5 C 0.44615(16) 0.3483(2) 0.17102(16)
C6 C 0.2409(2) 0.5785(3) 0.44184(19)
H3 H 0.2675 0.4836 0.4869
H4 H 0.2957 0.6606 0.4546
C7 C 0.1441(2) 0.6416(4) 0.4787(2)
H5 H 0.1617 0.6692 0.5590
H6 H 0.0902 0.5597 0.4661
H7 H 0.1186 0.7362 0.4344
C8 C 0.26295(16) 0.4061(2) 0.04681(15)
C9 C 0.15862(18) 0.3561(3) 0.03196(18)
H8 H 0.1339 0.3183 0.0952
C10 C 0.0907(2) 0.3612(4) -0.0743(2)
H9 H 0.0208 0.3274 -0.0836
C11 C 0.1292(2) 0.4173(4) -0.16505(18)
C12 C 0.2297(2) 0.4692(3) -0.15566(19)
H10 H 0.2526 0.5081 -0.2197
C13 C 0.29780(18) 0.4634(3) -0.04910(18)
H11 H 0.3674 0.4979 -0.0414
O1 O 0.49309(12) 0.30224(19) 0.09822(13)
F1 F 0.53595(15) 0.2141(2) 0.33901(12)
F2 F 0.58652(11) 0.4577(2) 0.31242(14)
F3 F 0.06268(14) 0.4215(3) -0.27074(12)
S1 S 0.20641(5) 0.52606(8) 0.28980(5)
loop_
_geom_bond_atom_site_label_1
_geom_bond_atom_site_label_2
_geom_bond_site_symmetry_1
_geom_bond_site_symmetry_2
C1 C2 1_555 1_555
C2 H1 1_555 1_555
H2 C2 1_555 1_555
C3 C2 1_555 1_555
C4 C3 1_555 1_555
C5 C1 1_555 1_555
C6 H3 1_555 1_555
H4 C6 1_555 1_555
C7 C6 1_555 1_555
H5 C7 1_555 1_555
H6 C7 1_555 1_555
H7 C7 1_555 1_555
C8 C4 1_555 1_555
C9 C8 1_555 1_555
H8 C9 1_555 1_555
C10 C9 1_555 1_555
H9 C10 1_555 1_555
C11 C10 1_555 1_555
C12 C11 1_555 1_555
H10 C12 1_555 1_555
C13 C8 1_555 1_555
H11 C13 1_555 1_555
O1 C5 1_555 1_555
F1 C1 1_555 1_555
F2 C1 1_555 1_555
F3 C11 1_555 1_555
S1 C3 1_555 1_555
C4 C5 1_555 1_555
C6 S1 1_555 1_555
C12 C13 1_555 1_555

#END
