
#######################################################################
#
#                 Cambridge Crystallographic Data Centre
#                                CCDC 
#
#######################################################################
#
# If this CIF has been generated from an entry in the Cambridge 
# Structural Database, then it will include bibliographic, chemical, 
# crystal, experimental, refinement or atomic coordinate data resulting 
# from the CCDC's data processing and validation procedures.
#
#######################################################################

data_IRUXAW
_chemical_formula_moiety         'C41 H39 N3 O4 S2'
_chemical_name_systematic        
N-benzyl-N-(2-(benzyl((4-methylphenyl)sulfonyl)amino)-3,5-dimethyl-6-phenylpyridin-4-yl)-4-methylbenzenesulfonamide
_symmetry_cell_setting           monoclinic
_symmetry_space_group_name_H-M   'C 2/c'
_symmetry_Int_Tables_number      15
_space_group_name_Hall           '-C 2yn'
loop_
_symmetry_equiv_pos_site_id
_symmetry_equiv_pos_as_xyz
1 x,y,z
2 -x,y,1/2-z
3 1/2+x,1/2+y,z
4 1/2-x,1/2+y,1/2-z
5 -x,-y,-z
6 x,-y,1/2+z
7 1/2-x,1/2-y,-z
8 1/2+x,1/2-y,1/2+z
_cell_length_a                   38.8089(12)
_cell_length_b                   9.9944(3)
_cell_length_c                   20.8313(7)
_cell_angle_alpha                90
_cell_angle_beta                 111.9150(10)
_cell_angle_gamma                90
_cell_volume                     7496.01
_exptl_crystal_colour            colorless
_exptl_crystal_description       block
_cell_formula_units_Z            8
loop_
_atom_site_label
_atom_site_type_symbol
_atom_site_fract_x
_atom_site_fract_y
_atom_site_fract_z
C1 C 0.17179(14) -0.1736(4) -0.0084(2)
H1 H 0.1730 -0.1548 -0.0512
C2 C 0.19873(11) -0.2537(4) 0.0388(3)
H2 H 0.2180 -0.2884 0.0275
C3 C 0.19691(8) -0.2818(3) 0.1028(3)
H3 H 0.2149 -0.3354 0.1343
C4 C 0.16813(9) -0.2299(3) 0.11962(18)
H4 H 0.1669 -0.2487 0.1624
C5 C 0.14119(7) -0.1498(2) 0.07248(16)
C6 C 0.14301(11) -0.1216(3) 0.00848(15)
H5 H 0.1250 -0.0681 -0.0231
S1 S 0.072950(18) 0.37470(8) -0.11768(3)
S2 S 0.120920(18) 0.04812(7) 0.20667(4)
O1 O 0.04298(6) 0.4612(3) -0.15497(11)
O2 O 0.06875(7) 0.2338(3) -0.12461(12)
O3 O 0.14106(7) 0.1661(3) 0.23623(12)
O4 O 0.13187(6) -0.0781(3) 0.24003(14)
N1 N 0.14609(5) 0.36409(19) 0.02827(10)
N2 N 0.08312(5) 0.4069(2) -0.03473(10)
N3 N 0.12264(6) 0.03412(19) 0.12980(12)
C7 C 0.20406(14) 0.5436(7) -0.1877(3)
H6 H 0.2107 0.4731 -0.2123
H7 H 0.2250 0.5647 -0.1465
H8 H 0.1969 0.6215 -0.2166
C8 C 0.17191(9) 0.4984(5) -0.16839(18)
C9 C 0.16446(11) 0.3659(4) -0.1634(2)
H9 H 0.1800 0.3017 -0.1707
C10 C 0.13451(10) 0.3252(3) -0.14776(16)
H10 H 0.1300 0.2347 -0.1441
C11 C 0.11148(7) 0.4206(3) -0.13768(12)
C12 C 0.11841(9) 0.5552(3) -0.14338(15)
H11 H 0.1027 0.6199 -0.1372
C13 C 0.14866(9) 0.5920(4) -0.15819(16)
H12 H 0.1535 0.6823 -0.1614
C14 C 0.08552(7) 0.5502(2) -0.01384(13)
H13 H 0.0696 0.6037 -0.0524
H14 H 0.1108 0.5816 -0.0013
C15 C 0.07364(7) 0.5666(2) 0.04671(12)
C16 C 0.09785(8) 0.5419(3) 0.11377(14)
H15 H 0.1222 0.5165 0.1222
C17 C 0.08598(10) 0.5548(3) 0.16839(15)
H16 H 0.1025 0.5374 0.2132
C18 C 0.05049(10) 0.5925(3) 0.15747(16)
H17 H 0.0427 0.6001 0.1945
C19 C 0.02649(9) 0.6190(4) 0.09181(19)
H18 H 0.0023 0.6455 0.0840
C20 C 0.03797(8) 0.6067(3) 0.03668(15)
H19 H 0.0214 0.6257 -0.0078
C21 C 0.11146(6) 0.3234(2) 0.01356(12)
C22 C 0.10096(6) 0.2158(2) 0.04477(12)
C23 C 0.13017(6) 0.1489(2) 0.09514(13)
C24 C 0.16740(6) 0.1875(2) 0.11221(13)
C25 C 0.17366(6) 0.2981(2) 0.07670(12)
C26 C 0.21161(7) 0.3514(2) 0.08834(14)
C27 C 0.22070(8) 0.3801(3) 0.03162(17)
H20 H 0.2035 0.3651 -0.0128
C28 C 0.25542(10) 0.4310(4) 0.0409(2)
H21 H 0.2614 0.4497 0.0026
C29 C 0.28108(9) 0.4542(4) 0.1062(2)
H22 H 0.3044 0.4877 0.1121
C30 C 0.27224(9) 0.4279(3) 0.1624(2)
H23 H 0.2895 0.4445 0.2067
C31 C 0.23774(8) 0.3767(3) 0.15363(16)
H24 H 0.2320 0.3590 0.1923
C32 C 0.06071(7) 0.1801(3) 0.02513(14)
H25 H 0.0583 0.1140 0.0566
H26 H 0.0512 0.1449 -0.0211
H27 H 0.0469 0.2587 0.0273
C33 C 0.19866(8) 0.1101(3) 0.16369(18)
H28 H 0.2198 0.1117 0.1502
H29 H 0.1910 0.0192 0.1652
H30 H 0.2052 0.1499 0.2086
C34 C 0.11094(8) -0.0913(3) 0.09015(17)
H31 H 0.0898 -0.0734 0.0479
H32 H 0.1033 -0.1552 0.1173
C35 C 0.07394(8) 0.0732(3) 0.19435(14)
C36 C 0.05089(8) -0.0363(3) 0.18726(17)
H33 H 0.0606 -0.1225 0.1934
C37 C 0.01357(8) -0.0165(3) 0.17108(17)
H34 H -0.0020 -0.0901 0.1654
C38 C -0.00130(9) 0.1106(3) 0.16312(16)
C39 C 0.02221(10) 0.2183(3) 0.17241(18)
H35 H 0.0126 0.3045 0.1682
C40 C 0.05973(9) 0.2011(3) 0.18783(16)
H36 H 0.0752 0.2748 0.1938
C41 C -0.04239(10) 0.1296(5) 0.1446(2)
H37 H -0.0546 0.1341 0.0952
H38 H -0.0466 0.2112 0.1648
H39 H -0.0521 0.0556 0.1620
loop_
_geom_bond_atom_site_label_1
_geom_bond_atom_site_label_2
_geom_bond_site_symmetry_1
_geom_bond_site_symmetry_2
C1 H1 1_555 1_555
C2 C1 1_555 1_555
H2 C2 1_555 1_555
C3 C2 1_555 1_555
H3 C3 1_555 1_555
C4 C3 1_555 1_555
H4 C4 1_555 1_555
C5 C4 1_555 1_555
C6 C1 1_555 1_555
H5 C6 1_555 1_555
S1 O1 1_555 1_555
S2 O3 1_555 1_555
O2 S1 1_555 1_555
O4 S2 1_555 1_555
N1 C21 1_555 1_555
N2 S1 1_555 1_555
N3 S2 1_555 1_555
C7 H6 1_555 1_555
H7 C7 1_555 1_555
H8 C7 1_555 1_555
C8 C7 1_555 1_555
C9 C8 1_555 1_555
H9 C9 1_555 1_555
C10 C9 1_555 1_555
H10 C10 1_555 1_555
C11 S1 1_555 1_555
C12 C11 1_555 1_555
H11 C12 1_555 1_555
C13 C8 1_555 1_555
H12 C13 1_555 1_555
C14 N2 1_555 1_555
H13 C14 1_555 1_555
H14 C14 1_555 1_555
C15 C14 1_555 1_555
C16 C15 1_555 1_555
H15 C16 1_555 1_555
C17 C16 1_555 1_555
H16 C17 1_555 1_555
C18 C17 1_555 1_555
H17 C18 1_555 1_555
C19 C18 1_555 1_555
H18 C19 1_555 1_555
C20 C15 1_555 1_555
H19 C20 1_555 1_555
C21 N2 1_555 1_555
C22 C21 1_555 1_555
C23 N3 1_555 1_555
C24 C23 1_555 1_555
C25 N1 1_555 1_555
C26 C25 1_555 1_555
C27 C26 1_555 1_555
H20 C27 1_555 1_555
C28 C27 1_555 1_555
H21 C28 1_555 1_555
C29 C28 1_555 1_555
H22 C29 1_555 1_555
C30 C29 1_555 1_555
H23 C30 1_555 1_555
C31 C26 1_555 1_555
H24 C31 1_555 1_555
C32 C22 1_555 1_555
H25 C32 1_555 1_555
H26 C32 1_555 1_555
H27 C32 1_555 1_555
C33 C24 1_555 1_555
H28 C33 1_555 1_555
H29 C33 1_555 1_555
H30 C33 1_555 1_555
C34 C5 1_555 1_555
H31 C34 1_555 1_555
H32 C34 1_555 1_555
C35 S2 1_555 1_555
C36 C35 1_555 1_555
H33 C36 1_555 1_555
C37 C36 1_555 1_555
H34 C37 1_555 1_555
C38 C37 1_555 1_555
C39 C38 1_555 1_555
H35 C39 1_555 1_555
C40 C35 1_555 1_555
H36 C40 1_555 1_555
C41 C38 1_555 1_555
H37 C41 1_555 1_555
H38 C41 1_555 1_555
H39 C41 1_555 1_555
C5 C6 1_555 1_555
N3 C34 1_555 1_555
C10 C11 1_555 1_555
C12 C13 1_555 1_555
C19 C20 1_555 1_555
C22 C23 1_555 1_555
C24 C25 1_555 1_555
C30 C31 1_555 1_555
C39 C40 1_555 1_555

#END
