
#######################################################################
#
#                 Cambridge Crystallographic Data Centre
#                                CCDC 
#
#######################################################################
#
# If this CIF has been generated from an entry in the Cambridge 
# Structural Database, then it will include bibliographic, chemical, 
# crystal, experimental, refinement or atomic coordinate data resulting 
# from the CCDC's data processing and validation procedures.
#
#######################################################################

data_ISACUA
_chemical_formula_moiety         'C16 H17 N1 O1,C15 H14 N2 O3'
_chemical_name_systematic        
'(R)-N-(4-Methylbenzoyl)-\a-methylbenzylamine (S)-N-(4-nitrobenzoyl)-\a-methylbenzylamine'
_symmetry_cell_setting           monoclinic
_symmetry_space_group_name_H-M   'P 21'
_symmetry_Int_Tables_number      4
_space_group_name_Hall           'P 2yb'
loop_
_symmetry_equiv_pos_site_id
_symmetry_equiv_pos_as_xyz
1 x,y,z
2 -x,1/2+y,-z
_cell_length_a                   9.4413(9)
_cell_length_b                   5.9721(7)
_cell_length_c                   23.394(3)
_cell_angle_alpha                90
_cell_angle_beta                 93.670(9)
_cell_angle_gamma                90
_cell_volume                     1316.35
_exptl_crystal_colour            colorless
_exptl_crystal_description       block
_chemical_melting_point          128-129deg.C
_cell_formula_units_Z            2
loop_
_atom_site_label
_atom_site_type_symbol
_atom_site_fract_x
_atom_site_fract_y
_atom_site_fract_z
O1 O 0.1797(3) 0.9069(7) 0.74295(13)
O2 O -0.0073(4) 0.0379(7) 0.53911(14)
O3 O 0.1937(4) 0.1784(8) 0.51864(14)
N1 N -0.0525(4) 0.8385(9) 0.75423(16)
N2 N 0.0884(5) 0.1770(11) 0.54623(17)
C1 C 0.0788(5) 0.3421(13) 0.59245(19)
C2 C -0.0162(5) 0.3021(13) 0.63364(19)
H1 H -0.0752 0.1731 0.6319
C3 C -0.0227(5) 0.4557(11) 0.6775(2)
H2 H -0.0874 0.4324 0.7064
C4 C 0.0641(5) 0.6438(11) 0.67997(19)
C5 C 0.1578(5) 0.6796(13) 0.63685(18)
H3 H 0.2169 0.8085 0.6380
C6 C 0.1644(5) 0.5271(13) 0.5924(2)
H4 H 0.2269 0.5504 0.5627
C7 C 0.0681(5) 0.8076(11) 0.72814(19)
C8 C -0.0550(5) 0.9695(11) 0.80730(18)
H5 H 0.0112 1.0992 0.8047
C9 C -0.2045(5) 1.0599(11) 0.8132(2)
H6 H -0.2329 1.1519 0.7797
H7 H -0.2059 1.1513 0.8479
H8 H -0.2708 0.9346 0.8157
C10 C -0.0055(5) 0.8276(12) 0.8587(2)
C11 C -0.0625(5) 0.6164(11) 0.8665(2)
H9 H -0.1307 0.5584 0.8387
C12 C -0.0215(5) 0.4896(12) 0.9139(2)
H10 H -0.0627 0.3464 0.9189
C13 C 0.0795(6) 0.5703(12) 0.9543(2)
H11 H 0.1083 0.4832 0.9870
C14 C 0.1371(6) 0.7769(13) 0.9464(2)
H12 H 0.2073 0.8324 0.9737
C15 C 0.0947(5) 0.9079(12) 0.89909(19)
H13 H 0.1347 1.0523 0.8946
H30 H -0.128(7) 0.753(15) 0.744(3)
O4 O 0.3174(3) 0.0831(7) 0.25493(13)
N3 N 0.5479(4) 0.1534(10) 0.24366(15)
C16 C 0.4251(6) 0.6567(14) 0.4081(2)
C17 C 0.5097(5) 0.6930(13) 0.3623(2)
H14 H 0.5657 0.8251 0.3616
C18 C 0.5138(5) 0.5407(12) 0.3179(2)
H15 H 0.5728 0.5686 0.2873
C19 C 0.4321(5) 0.3472(11) 0.31787(19)
C20 C 0.3450(5) 0.3124(13) 0.36278(18)
H16 H 0.2867 0.1827 0.3629
C21 C 0.3425(6) 0.4640(14) 0.4070(2)
H17 H 0.2830 0.4363 0.4375
C22 C 0.4283(5) 0.1833(11) 0.26998(18)
C23 C 0.5532(5) 0.0253(12) 0.19069(18)
H18 H 0.4875 -0.1054 0.1926
C24 C 0.7033(5) -0.0634(12) 0.1852(2)
H19 H 0.7319 -0.1540 0.2190
H20 H 0.7690 0.0628 0.1826
H21 H 0.7056 -0.1557 0.1507
C25 C 0.5048(5) 0.1674(12) 0.13931(19)
C26 C 0.5618(5) 0.3785(10) 0.1321(2)
H22 H 0.6304 0.4355 0.1599
C27 C 0.5200(5) 0.5064(11) 0.0850(2)
H23 H 0.5609 0.6501 0.0803
C28 C 0.4194(5) 0.4277(13) 0.0447(2)
H24 H 0.3916 0.5164 0.0122
C29 C 0.3587(6) 0.2191(13) 0.0517(2)
H25 H 0.2880 0.1649 0.0244
C30 C 0.4020(5) 0.0908(11) 0.0987(2)
H26 H 0.3609 -0.0527 0.1034
C31 C 0.4219(6) 0.8229(15) 0.4567(2)
H27 H 0.3573 0.7692 0.4848
H28 H 0.3889 0.9682 0.4416
H29 H 0.5176 0.8392 0.4751
H31 H 0.624(4) 0.228(8) 0.2549(14)
loop_
_geom_bond_atom_site_label_1
_geom_bond_atom_site_label_2
_geom_bond_site_symmetry_1
_geom_bond_site_symmetry_2
O1 C7 1_555 1_555
O2 N2 1_555 1_555
O3 N2 1_555 1_555
N1 C7 1_555 1_555
N2 C1 1_555 1_555
C1 C2 1_555 1_555
C2 H1 1_555 1_555
C3 C2 1_555 1_555
H2 C3 1_555 1_555
C4 C3 1_555 1_555
C5 C4 1_555 1_555
H3 C5 1_555 1_555
C6 C1 1_555 1_555
H4 C6 1_555 1_555
C7 C4 1_555 1_555
C8 N1 1_555 1_555
H5 C8 1_555 1_555
C9 C8 1_555 1_555
H6 C9 1_555 1_555
H7 C9 1_555 1_555
H8 C9 1_555 1_555
C10 C8 1_555 1_555
C11 C10 1_555 1_555
H9 C11 1_555 1_555
C12 C11 1_555 1_555
H10 C12 1_555 1_555
C13 C12 1_555 1_555
H11 C13 1_555 1_555
C14 C13 1_555 1_555
H12 C14 1_555 1_555
C15 C10 1_555 1_555
H13 C15 1_555 1_555
O4 C22 1_555 1_555
N3 C22 1_555 1_555
C16 C17 1_555 1_555
C17 H14 1_555 1_555
C18 C17 1_555 1_555
H15 C18 1_555 1_555
C19 C18 1_555 1_555
C20 C19 1_555 1_555
H16 C20 1_555 1_555
C21 C16 1_555 1_555
H17 C21 1_555 1_555
C22 C19 1_555 1_555
C23 N3 1_555 1_555
H18 C23 1_555 1_555
C24 C23 1_555 1_555
H19 C24 1_555 1_555
H20 C24 1_555 1_555
H21 C24 1_555 1_555
C25 C23 1_555 1_555
C26 C25 1_555 1_555
H22 C26 1_555 1_555
C27 C26 1_555 1_555
H23 C27 1_555 1_555
C28 C27 1_555 1_555
H24 C28 1_555 1_555
C29 C28 1_555 1_555
H25 C29 1_555 1_555
C30 C25 1_555 1_555
H26 C30 1_555 1_555
C31 C16 1_555 1_555
H27 C31 1_555 1_555
H28 C31 1_555 1_555
H29 C31 1_555 1_555
H30 N1 1_555 1_555
H31 N3 1_555 1_555
C5 C6 1_555 1_555
C14 C15 1_555 1_555
C20 C21 1_555 1_555
C29 C30 1_555 1_555

#END
