
#######################################################################
#
#                 Cambridge Crystallographic Data Centre
#                                CCDC 
#
#######################################################################
#
# If this CIF has been generated from an entry in the Cambridge 
# Structural Database, then it will include bibliographic, chemical, 
# crystal, experimental, refinement or atomic coordinate data resulting 
# from the CCDC's data processing and validation procedures.
#
#######################################################################

data_ISACOU
_chemical_formula_moiety         'C15 H14 N2 O3'
_chemical_name_systematic        (rac)-N-(4-Nitrobenzoyl)-\a-methylbenzylamine
_symmetry_cell_setting           monoclinic
_symmetry_space_group_name_H-M   'P 21/n'
_symmetry_Int_Tables_number      14
_space_group_name_Hall           '-P 2yn'
loop_
_symmetry_equiv_pos_site_id
_symmetry_equiv_pos_as_xyz
1 x,y,z
2 1/2+x,1/2-y,1/2+z
3 -x,-y,-z
4 1/2-x,1/2+y,1/2-z
_cell_length_a                   11.88500(10)
_cell_length_b                   5.45500(10)
_cell_length_c                   40.4438(6)
_cell_angle_alpha                90.00
_cell_angle_beta                 95.3670(10)
_cell_angle_gamma                90.00
_cell_volume                     2610.58
_chemical_melting_point          113-114deg.C
_cell_formula_units_Z            8
loop_
_atom_site_label
_atom_site_type_symbol
_atom_site_fract_x
_atom_site_fract_y
_atom_site_fract_z
O1 O 0.15646(10) 0.3913(2) 0.82170(3)
O2 O 0.04588(11) 0.0455(2) 0.65715(3)
O3 O 0.06932(10) -0.3323(2) 0.67201(3)
N1 N 0.16442(12) -0.0084(3) 0.83707(3)
N2 N 0.06247(10) -0.1130(2) 0.67755(3)
C1 C 0.07933(12) -0.0370(3) 0.71330(4)
C2 C 0.04762(13) -0.1969(3) 0.73718(4)
H1 H 0.0122 -0.3485 0.7311
C3 C 0.06859(13) -0.1312(3) 0.77030(4)
H2 H 0.0472 -0.2383 0.7871
C4 C 0.12103(12) 0.0915(3) 0.77899(4)
C5 C 0.14888(13) 0.2503(3) 0.75414(4)
H3 H 0.1829 0.4038 0.7600
C6 C 0.12785(12) 0.1883(3) 0.72093(4)
H4 H 0.1463 0.2974 0.7039
C7 C 0.14816(13) 0.1720(3) 0.81449(4)
C8 C 0.19463(14) 0.0423(3) 0.87236(4)
H5 H 0.2302 0.2084 0.8743
C9 C 0.28202(14) -0.1445(3) 0.88624(4)
H6 H 0.2515 -0.3103 0.8827
H7 H 0.2999 -0.1159 0.9101
H8 H 0.3509 -0.1273 0.8749
C10 C 0.09182(13) 0.0441(3) 0.89212(4)
C11 C 0.01242(14) -0.1440(3) 0.88924(4)
H9 H 0.0193 -0.2714 0.8735
C12 C -0.07673(15) -0.1472(4) 0.90906(5)
H10 H -0.1305 -0.2764 0.9068
C13 C -0.08782(15) 0.0364(3) 0.93202(4)
H11 H -0.1488 0.0337 0.9456
C14 C -0.00999(15) 0.2233(3) 0.93508(4)
H12 H -0.0170 0.3499 0.9509
C15 C 0.07898(14) 0.2273(3) 0.91509(4)
H13 H 0.1319 0.3581 0.9172
H27 H 0.1613(15) -0.161(3) 0.8305(4)
O4 O -0.38137(10) -0.1508(2) 0.90506(3)
O5 O -0.17117(10) 0.0938(2) 0.75442(3)
O6 O -0.10142(10) 0.4302(2) 0.77573(3)
N3 N -0.41851(12) 0.2544(3) 0.90963(3)
N4 N -0.15743(11) 0.2449(3) 0.77690(3)
C16 C -0.21337(13) 0.1971(3) 0.80746(4)
C17 C -0.20040(15) 0.3660(3) 0.83287(4)
H14 H -0.1548 0.5076 0.8311
C18 C -0.25545(15) 0.3244(3) 0.86100(4)
H15 H -0.2488 0.4400 0.8786
C19 C -0.32018(13) 0.1154(3) 0.86368(4)
C20 C -0.32996(14) -0.0521(3) 0.83788(4)
H16 H -0.3734 -0.1967 0.8398
C21 C -0.27724(14) -0.0117(3) 0.80929(4)
H17 H -0.2850 -0.1252 0.7914
C22 C -0.37652(13) 0.0606(3) 0.89455(4)
C23 C -0.46221(13) 0.2385(3) 0.94219(4)
H18 H -0.5002 0.0759 0.9438
C24 C -0.55025(14) 0.4377(3) 0.94502(4)
H19 H -0.5157 0.5986 0.9423
H20 H -0.5791 0.4286 0.9669
H21 H -0.6127 0.4142 0.9277
C25 C -0.36554(13) 0.2516(3) 0.96958(4)
C26 C -0.29008(14) 0.4474(3) 0.97140(4)
H22 H -0.2998 0.5768 0.9557
C27 C -0.20086(15) 0.4548(3) 0.99605(4)
H23 H -0.1496 0.5888 0.9971
C28 C -0.18619(15) 0.2667(3) 1.01919(4)
H24 H -0.1252 0.2720 1.0361
C29 C -0.26035(15) 0.0728(3) 1.01745(4)
H25 H -0.2504 -0.0566 1.0332
C30 C -0.34971(14) 0.0653(3) 0.99278(4)
H26 H -0.4006 -0.0693 0.9918
H28 H -0.4131(15) 0.392(3) 0.9016(4)
loop_
_geom_bond_atom_site_label_1
_geom_bond_atom_site_label_2
_geom_bond_site_symmetry_1
_geom_bond_site_symmetry_2
O1 C7 1_555 1_555
O2 N2 1_555 1_555
O3 N2 1_555 1_555
N1 C7 1_555 1_555
N2 C1 1_555 1_555
C1 C2 1_555 1_555
C2 H1 1_555 1_555
C3 C2 1_555 1_555
H2 C3 1_555 1_555
C4 C3 1_555 1_555
C5 C4 1_555 1_555
H3 C5 1_555 1_555
C6 C1 1_555 1_555
H4 C6 1_555 1_555
C7 C4 1_555 1_555
C8 N1 1_555 1_555
H5 C8 1_555 1_555
C9 C8 1_555 1_555
H6 C9 1_555 1_555
H7 C9 1_555 1_555
H8 C9 1_555 1_555
C10 C8 1_555 1_555
C11 C10 1_555 1_555
H9 C11 1_555 1_555
C12 C11 1_555 1_555
H10 C12 1_555 1_555
C13 C12 1_555 1_555
H11 C13 1_555 1_555
C14 C13 1_555 1_555
H12 C14 1_555 1_555
C15 C10 1_555 1_555
H13 C15 1_555 1_555
O4 C22 1_555 1_555
O5 N4 1_555 1_555
O6 N4 1_555 1_555
N3 C22 1_555 1_555
N4 C16 1_555 1_555
C16 C17 1_555 1_555
C17 H14 1_555 1_555
C18 C17 1_555 1_555
H15 C18 1_555 1_555
C19 C18 1_555 1_555
C20 C19 1_555 1_555
H16 C20 1_555 1_555
C21 C16 1_555 1_555
H17 C21 1_555 1_555
C22 C19 1_555 1_555
C23 N3 1_555 1_555
H18 C23 1_555 1_555
C24 C23 1_555 1_555
H19 C24 1_555 1_555
H20 C24 1_555 1_555
H21 C24 1_555 1_555
C25 C23 1_555 1_555
C26 C25 1_555 1_555
H22 C26 1_555 1_555
C27 C26 1_555 1_555
H23 C27 1_555 1_555
C28 C27 1_555 1_555
H24 C28 1_555 1_555
C29 C28 1_555 1_555
H25 C29 1_555 1_555
C30 C25 1_555 1_555
H26 C30 1_555 1_555
H27 N1 1_555 1_555
H28 N3 1_555 1_555
C5 C6 1_555 1_555
C14 C15 1_555 1_555
C20 C21 1_555 1_555
C29 C30 1_555 1_555

#END
