
#######################################################################
#
#                 Cambridge Crystallographic Data Centre
#                                CCDC 
#
#######################################################################
#
# If this CIF has been generated from an entry in the Cambridge 
# Structural Database, then it will include bibliographic, chemical, 
# crystal, experimental, refinement or atomic coordinate data resulting 
# from the CCDC's data processing and validation procedures.
#
#######################################################################

data_ISACAG
_chemical_formula_moiety         'C16 H17 N1 O1'
_chemical_name_systematic        (R)-N-(4-Methylbenzoyl)-\a-methylbenzylamine
_symmetry_cell_setting           monoclinic
_symmetry_space_group_name_H-M   'P 21'
_symmetry_Int_Tables_number      4
_space_group_name_Hall           'P 2yb'
loop_
_symmetry_equiv_pos_site_id
_symmetry_equiv_pos_as_xyz
1 x,y,z
2 -x,1/2+y,-z
_cell_length_a                   8.2681(8)
_cell_length_b                   5.2570(3)
_cell_length_c                   15.7174(9)
_cell_angle_alpha                90
_cell_angle_beta                 99.097(8)
_cell_angle_gamma                90
_cell_volume                     674.57
_exptl_crystal_colour            colorless
_exptl_crystal_description       block
_chemical_melting_point          133-135deg.C
_cell_formula_units_Z            2
loop_
_atom_site_label
_atom_site_type_symbol
_atom_site_fract_x
_atom_site_fract_y
_atom_site_fract_z
N1 N 0.4860(3) 0.3384(4) 0.27383(13)
O1 O 0.4775(2) -0.0749(3) 0.23876(11)
C1 C 0.2047(3) 0.3341(6) -0.03628(14)
C2 C 0.1857(3) 0.4867(5) 0.03236(14)
H1 H 0.1182 0.6334 0.0229
C3 C 0.2627(3) 0.4316(5) 0.11495(14)
H2 H 0.2489 0.5419 0.1611
C4 C 0.3599(2) 0.2166(5) 0.13083(14)
C5 C 0.3774(3) 0.0603(5) 0.06216(15)
H3 H 0.4420 -0.0895 0.0717
C6 C 0.3015(3) 0.1202(6) -0.02041(15)
H4 H 0.3164 0.0120 -0.0670
C7 C 0.4453(3) 0.1453(5) 0.21836(15)
C8 C 0.5764(3) 0.2965(5) 0.36000(13)
H5 H 0.5347 0.1357 0.3828
C9 C 0.5393(3) 0.5135(6) 0.41801(15)
H6 H 0.5745 0.6748 0.3955
H7 H 0.5983 0.4860 0.4764
H8 H 0.4213 0.5196 0.4194
C10 C 0.7581(3) 0.2646(5) 0.35985(13)
C11 C 0.8420(3) 0.4220(9) 0.31413(17)
H9 H 0.7860 0.5561 0.2813
C12 C 1.0097(4) 0.3892(11) 0.3148(2)
H10 H 1.0667 0.5004 0.2822
C13 C 1.0913(4) 0.2011(9) 0.3614(2)
H11 H 1.2048 0.1765 0.3605
C14 C 1.0111(4) 0.0491(9) 0.4090(3)
H12 H 1.0690 -0.0807 0.4432
C15 C 0.8438(3) 0.0795(7) 0.4086(2)
H13 H 0.7886 -0.0298 0.4427
C16 C 0.1248(5) 0.4015(9) -0.12664(17)
H14 H 0.0182 0.3167 -0.1395
H15 H 0.1949 0.3454 -0.1678
H16 H 0.1094 0.5861 -0.1312
H20 H 0.479(3) 0.483(6) 0.2586(15)
H17? H 0.016(8) 0.513(15) -0.124(4)
H18? H 0.088(8) 0.210(16) -0.164(4)
H19? H 0.198(8) 0.505(15) -0.161(4)
loop_
_geom_bond_atom_site_label_1
_geom_bond_atom_site_label_2
_geom_bond_site_symmetry_1
_geom_bond_site_symmetry_2
N1 C7 1_555 1_555
O1 C7 1_555 1_555
C1 C2 1_555 1_555
C2 H1 1_555 1_555
C3 C2 1_555 1_555
H2 C3 1_555 1_555
C4 C3 1_555 1_555
C5 C4 1_555 1_555
H3 C5 1_555 1_555
C6 C1 1_555 1_555
H4 C6 1_555 1_555
C7 C4 1_555 1_555
C8 N1 1_555 1_555
H5 C8 1_555 1_555
C9 C8 1_555 1_555
H6 C9 1_555 1_555
H7 C9 1_555 1_555
H8 C9 1_555 1_555
C10 C8 1_555 1_555
C11 C10 1_555 1_555
H9 C11 1_555 1_555
C12 C11 1_555 1_555
H10 C12 1_555 1_555
C13 C12 1_555 1_555
H11 C13 1_555 1_555
C14 C13 1_555 1_555
H12 C14 1_555 1_555
C15 C10 1_555 1_555
H13 C15 1_555 1_555
C16 C1 1_555 1_555
H14 C16 1_555 1_555
H15 C16 1_555 1_555
H16 C16 1_555 1_555
H20 N1 1_555 1_555
C5 C6 1_555 1_555
C14 C15 1_555 1_555

#END
