
#######################################################################
#
#                 Cambridge Crystallographic Data Centre
#                                CCDC 
#
#######################################################################
#
# If this CIF has been generated from an entry in the Cambridge 
# Structural Database, then it will include bibliographic, chemical, 
# crystal, experimental, refinement or atomic coordinate data resulting 
# from the CCDC's data processing and validation procedures.
#
#######################################################################

data_ISALUL
_chemical_formula_moiety         'C16 H16 N1 1+,Cl1 1-'
_chemical_name_systematic        'N-benzyl-3-phenylprop-2-yn-1-aminium chloride'
_symmetry_cell_setting           orthorhombic
_symmetry_space_group_name_H-M   'P c a 21'
_symmetry_Int_Tables_number      29
_space_group_name_Hall           'P 2c -2ac'
loop_
_symmetry_equiv_pos_site_id
_symmetry_equiv_pos_as_xyz
1 x,y,z
2 -x,-y,1/2+z
3 1/2+x,-y,z
4 1/2-x,y,1/2+z
_cell_length_a                   10.580(2)
_cell_length_b                   4.9003(10)
_cell_length_c                   27.129(5)
_cell_angle_alpha                90
_cell_angle_beta                 90
_cell_angle_gamma                90
_cell_volume                     1406.51
_exptl_crystal_colour            colorless
_exptl_crystal_description       block
_cell_formula_units_Z            4
loop_
_atom_site_label
_atom_site_type_symbol
_atom_site_fract_x
_atom_site_fract_y
_atom_site_fract_z
C1 C 0.7330(4) 0.0151(9) 0.6474(2)
H1 H 0.6484 -0.0586 0.6510
H2 H 0.7925 -0.1354 0.6485
C2 C 0.7593(3) 0.2053(10) 0.68770(18)
C3 C 0.7878(4) 0.3649(9) 0.71818(17)
C4 C 0.8305(4) 0.5663(8) 0.75323(15)
C5 C 0.9467(4) 0.6904(9) 0.74474(18)
H3 H 0.9954 0.6412 0.7176
C6 C 0.9883(5) 0.8857(11) 0.7768(2)
H4 H 1.0658 0.9695 0.7712
C7 C 0.9188(5) 0.9604(10) 0.81681(19)
H5 H 0.9480 1.0940 0.8383
C8 C 0.8040(5) 0.8341(10) 0.82489(18)
H6 H 0.7555 0.8834 0.8521
C9 C 0.7610(4) 0.6380(10) 0.79348(19)
H7 H 0.6840 0.5527 0.7995
C10 C 0.7306(4) -0.0252(9) 0.55601(18)
H8 H 0.6424 -0.0752 0.5522
H9 H 0.7785 -0.1908 0.5618
C11 C 0.7767(4) 0.1090(9) 0.50917(16)
C12 C 0.7064(4) 0.3119(9) 0.4863(2)
H10 H 0.6314 0.3729 0.5004
C13 C 0.7481(5) 0.4221(12) 0.4426(2)
H11 H 0.7000 0.5550 0.4269
C14 C 0.8590(6) 0.3392(11) 0.42209(18)
H12 H 0.8873 0.4174 0.3929
C15 C 0.9289(5) 0.1394(12) 0.4448(2)
H13 H 1.0043 0.0809 0.4307
C16 C 0.8880(4) 0.0252(9) 0.48822(19)
H14 H 0.9361 -0.1095 0.5035
N1 N 0.7443(3) 0.1603(6) 0.59930(18)
H15 H 0.822(3) 0.240(7) 0.6003(16)
H16 H 0.681(3) 0.286(7) 0.6001(14)
Cl1 Cl 0.49381(8) 0.48347(19) 0.59954(6)
loop_
_geom_bond_atom_site_label_1
_geom_bond_atom_site_label_2
_geom_bond_site_symmetry_1
_geom_bond_site_symmetry_2
C1 H1 1_555 1_555
H2 C1 1_555 1_555
C2 C1 1_555 1_555
C3 C2 1_555 1_555
C4 C3 1_555 1_555
C5 C4 1_555 1_555
H3 C5 1_555 1_555
C6 C5 1_555 1_555
H4 C6 1_555 1_555
C7 C6 1_555 1_555
H5 C7 1_555 1_555
C8 C7 1_555 1_555
H6 C8 1_555 1_555
C9 C4 1_555 1_555
H7 C9 1_555 1_555
C10 H8 1_555 1_555
H9 C10 1_555 1_555
C11 C10 1_555 1_555
C12 C11 1_555 1_555
H10 C12 1_555 1_555
C13 C12 1_555 1_555
H11 C13 1_555 1_555
C14 C13 1_555 1_555
H12 C14 1_555 1_555
C15 C14 1_555 1_555
H13 C15 1_555 1_555
C16 C11 1_555 1_555
H14 C16 1_555 1_555
N1 C1 1_555 1_555
H15 N1 1_555 1_555
H16 N1 1_555 1_555
C8 C9 1_555 1_555
C10 N1 1_555 1_555
C15 C16 1_555 1_555

#END
