
#######################################################################
#
#                 Cambridge Crystallographic Data Centre
#                                CCDC 
#
#######################################################################
#
# If this CIF has been generated from an entry in the Cambridge 
# Structural Database, then it will include bibliographic, chemical, 
# crystal, experimental, refinement or atomic coordinate data resulting 
# from the CCDC's data processing and validation procedures.
#
#######################################################################

data_ISAYUY
_chemical_name_common            
21,21,22,22-tetrabromo-10,20-bis(3,5-di-t-butylphenyl)-5,15-porphodimethene
_chemical_formula_moiety         'C50 H52 Br4 N4'
_chemical_name_systematic        
5,15-bis(dibromomethylene)-10,20-bis(3,5-di-t-butylphenyl)-5,15-dihydroporphyrin
_symmetry_cell_setting           triclinic
_symmetry_space_group_name_H-M   'P -1'
_symmetry_Int_Tables_number      2
_space_group_name_Hall           '-P 1'
loop_
_symmetry_equiv_pos_site_id
_symmetry_equiv_pos_as_xyz
1 x,y,z
2 -x,-y,-z
_cell_length_a                   9.5059(16)
_cell_length_b                   15.212(3)
_cell_length_c                   15.908(3)
_cell_angle_alpha                86.794(18)
_cell_angle_beta                 81.145(13)
_cell_angle_gamma                88.895(14)
_cell_volume                     2269.25
_exptl_crystal_colour            red
_exptl_crystal_description       prism
_cell_formula_units_Z            2
_exptl_crystal_recrystallization_method chloroform/methanol
loop_
_atom_site_label
_atom_site_type_symbol
_atom_site_fract_x
_atom_site_fract_y
_atom_site_fract_z
N1 N 0.44023(19) 0.73109(13) 0.21280(12)
N2 N 0.2575(2) 0.70286(14) 0.09967(12)
H1 H 0.3138 0.6736 0.1306
N3 N 0.2581(2) 0.51701(13) 0.16105(12)
N4 N 0.43445(19) 0.54588(13) 0.27687(12)
H2 H 0.4078 0.5718 0.2309
C1 C 0.5408(2) 0.73309(16) 0.26136(14)
C2 C 0.5555(2) 0.81971(17) 0.29207(15)
H3 H 0.6207 0.8366 0.3277
C3 C 0.4575(2) 0.87182(17) 0.25966(15)
H4 H 0.4398 0.9325 0.2687
C4 C 0.3857(2) 0.81755(16) 0.20905(14)
C5 C 0.2808(2) 0.84477(16) 0.16117(15)
C6 C 0.2201(2) 0.78961(16) 0.10718(14)
C7 C 0.1274(2) 0.81002(17) 0.04811(15)
H5 H 0.0826 0.8654 0.0393
C8 C 0.1127(3) 0.73427(17) 0.00468(15)
H6 H 0.0567 0.7287 -0.0393
C9 C 0.1956(2) 0.66828(17) 0.03779(15)
C10 C 0.2186(2) 0.57525(17) 0.02003(15)
C11 C 0.1900(2) 0.51197(16) 0.09562(14)
C12 C 0.0846(2) 0.44351(17) 0.10825(16)
H7 H 0.0227 0.4288 0.0698
C13 C 0.0921(2) 0.40445(17) 0.18627(16)
H8 H 0.0359 0.3570 0.2135
C14 C 0.2029(2) 0.44939(16) 0.21992(14)
C15 C 0.2577(2) 0.42706(16) 0.29332(15)
C16 C 0.3739(2) 0.47152(16) 0.31932(14)
C17 C 0.4450(3) 0.45339(17) 0.38868(15)
H9 H 0.4255 0.4061 0.4302
C18 C 0.5492(3) 0.51623(18) 0.38653(16)
H10 H 0.6143 0.5196 0.4260
C19 C 0.5412(2) 0.57362(16) 0.31600(14)
C20 C 0.6220(2) 0.65345(17) 0.28403(14)
C21 C 0.2311(2) 0.93808(17) 0.16128(15)
C22 C 0.3216(2) 1.00523(16) 0.12259(15)
H11 H 0.4165 0.9910 0.0986
C23 C 0.2750(2) 1.09210(16) 0.11871(14)
C24 C 0.1347(2) 1.11076(17) 0.15648(15)
H12 H 0.1013 1.1700 0.1548
C25 C 0.0428(2) 1.04528(17) 0.19630(15)
C26 C 0.0932(2) 0.95916(17) 0.19733(15)
H13 H 0.0319 0.9135 0.2233
C27 C 0.3689(2) 1.16421(17) 0.06922(16)
C28 C 0.5264(3) 1.14535(19) 0.07226(18)
H14 H 0.5429 1.1414 0.1317
H15 H 0.5836 1.1930 0.0410
H16 H 0.5539 1.0895 0.0461
C29 C 0.3347(3) 1.25482(17) 0.10616(18)
H17 H 0.2395 1.2741 0.0961
H18 H 0.4051 1.2976 0.0783
H19 H 0.3377 1.2505 0.1676
C30 C 0.3398(3) 1.1691(2) -0.02450(16)
H20 H 0.3564 1.1110 -0.0482
H21 H 0.4037 1.2119 -0.0584
H22 H 0.2407 1.1874 -0.0260
C31 C -0.1106(3) 1.06524(18) 0.23675(17)
C32 C -0.1472(3) 1.16347(19) 0.2335(2)
H23 H -0.2462 1.1723 0.2598
H24 H -0.1348 1.1864 0.1740
H25 H -0.0839 1.1947 0.2646
C33 C -0.2127(3) 1.0169(2) 0.1894(2)
H26 H -0.1933 0.9534 0.1936
H27 H -0.1987 1.0377 0.1293
H28 H -0.3113 1.0287 0.2151
C34 C -0.1340(3) 1.0323(2) 0.33058(19)
H29 H -0.1108 0.9694 0.3349
H30 H -0.2338 1.0418 0.3551
H31 H -0.0724 1.0648 0.3618
C35 C 0.1982(2) 0.35088(16) 0.34968(14)
C36 C 0.0633(2) 0.35672(17) 0.39798(15)
H32 H 0.0082 0.4091 0.3936
C37 C 0.0080(2) 0.28623(17) 0.45288(15)
C38 C 0.0915(2) 0.21087(17) 0.45588(15)
H33 H 0.0551 0.1625 0.4926
C39 C 0.2264(2) 0.20224(16) 0.40781(15)
C40 C 0.2788(2) 0.27444(17) 0.35502(15)
H34 H 0.3710 0.2711 0.3223
C41 C -0.1399(3) 0.29451(18) 0.50658(17)
C42 C -0.1513(12) 0.3783(9) 0.5530(7)
H35 H -0.2494 0.3864 0.5812
H36 H -0.1248 0.4282 0.5123
H37 H -0.0870 0.3750 0.5957
C43 C -0.2528(6) 0.2991(6) 0.4425(4)
H38 H -0.2504 0.2436 0.4138
H39 H -0.2295 0.3479 0.4001
H40 H -0.3482 0.3086 0.4743
C44 C -0.1763(8) 0.2175(5) 0.5685(6)
H41 H -0.2655 0.2299 0.6060
H42 H -0.0997 0.2072 0.6028
H43 H -0.1875 0.1650 0.5372
C45 C 0.3162(2) 0.11897(17) 0.41835(16)
C46 C 0.4483(3) 0.11548(18) 0.34994(17)
H44 H 0.5105 0.1648 0.3552
H45 H 0.4190 0.1195 0.2934
H46 H 0.4997 0.0598 0.3574
C47 C 0.3650(3) 0.1190(2) 0.50613(18)
H47 H 0.4298 0.1682 0.5069
H48 H 0.4144 0.0634 0.5172
H49 H 0.2819 0.1255 0.5502
C48 C 0.2306(3) 0.03579(18) 0.4139(2)
H50 H 0.2909 -0.0162 0.4212
H51 H 0.1981 0.0358 0.3583
H52 H 0.1481 0.0345 0.4592
C49 C 0.7656(2) 0.65303(17) 0.27387(15)
C50 C 0.2652(3) 0.54715(17) -0.05753(16)
Br1 Br 0.87649(3) 0.74837(2) 0.222614(19)
Br2 Br 0.87919(3) 0.55543(2) 0.294781(19)
Br3 Br 0.30963(3) 0.621290(19) -0.156266(16)
Br4 Br 0.29859(3) 0.427308(19) -0.077633(17)
C51? C -0.2482(14) 0.2499(15) 0.4693(11)
H53? H -0.2281 0.1865 0.4702
H54? H -0.2471 0.2725 0.4103
H55? H -0.3422 0.2608 0.5023
C52? C -0.1286(12) 0.2510(10) 0.6022(7)
H56? H -0.2216 0.2551 0.6383
H57? H -0.0580 0.2829 0.6271
H58? H -0.0996 0.1890 0.5982
C53? C -0.178(2) 0.3871(16) 0.5295(13)
H59? H -0.2443 0.3862 0.5834
H60? H -0.2240 0.4170 0.4844
H61? H -0.0920 0.4187 0.5358
loop_
_geom_bond_atom_site_label_1
_geom_bond_atom_site_label_2
_geom_bond_site_symmetry_1
_geom_bond_site_symmetry_2
N1 C1 1_555 1_555
N2 H1 1_555 1_555
N3 C11 1_555 1_555
N4 H2 1_555 1_555
C1 C2 1_555 1_555
C2 H3 1_555 1_555
C3 C2 1_555 1_555
H4 C3 1_555 1_555
C4 N1 1_555 1_555
C5 C4 1_555 1_555
C6 N2 1_555 1_555
C7 C6 1_555 1_555
H5 C7 1_555 1_555
C8 C7 1_555 1_555
H6 C8 1_555 1_555
C9 N2 1_555 1_555
C10 C9 1_555 1_555
C11 C10 1_555 1_555
C12 C11 1_555 1_555
H7 C12 1_555 1_555
C13 C12 1_555 1_555
H8 C13 1_555 1_555
C14 N3 1_555 1_555
C15 C14 1_555 1_555
C16 N4 1_555 1_555
C17 C16 1_555 1_555
H9 C17 1_555 1_555
C18 C17 1_555 1_555
H10 C18 1_555 1_555
C19 N4 1_555 1_555
C20 C1 1_555 1_555
C21 C5 1_555 1_555
C22 C21 1_555 1_555
H11 C22 1_555 1_555
C23 C22 1_555 1_555
C24 C23 1_555 1_555
H12 C24 1_555 1_555
C25 C24 1_555 1_555
C26 C21 1_555 1_555
H13 C26 1_555 1_555
C27 C23 1_555 1_555
C28 C27 1_555 1_555
H14 C28 1_555 1_555
H15 C28 1_555 1_555
H16 C28 1_555 1_555
C29 C27 1_555 1_555
H17 C29 1_555 1_555
H18 C29 1_555 1_555
H19 C29 1_555 1_555
C30 C27 1_555 1_555
H20 C30 1_555 1_555
H21 C30 1_555 1_555
H22 C30 1_555 1_555
C31 C25 1_555 1_555
C32 C31 1_555 1_555
H23 C32 1_555 1_555
H24 C32 1_555 1_555
H25 C32 1_555 1_555
C33 C31 1_555 1_555
H26 C33 1_555 1_555
H27 C33 1_555 1_555
H28 C33 1_555 1_555
C34 C31 1_555 1_555
H29 C34 1_555 1_555
H30 C34 1_555 1_555
H31 C34 1_555 1_555
C35 C15 1_555 1_555
C36 C35 1_555 1_555
H32 C36 1_555 1_555
C37 C36 1_555 1_555
C38 C37 1_555 1_555
H33 C38 1_555 1_555
C39 C38 1_555 1_555
C40 C35 1_555 1_555
H34 C40 1_555 1_555
C41 C37 1_555 1_555
C42 C41 1_555 1_555
H35 C42 1_555 1_555
H36 C42 1_555 1_555
H37 C42 1_555 1_555
C43 C41 1_555 1_555
H38 C43 1_555 1_555
H39 C43 1_555 1_555
H40 C43 1_555 1_555
C44 C41 1_555 1_555
H41 C44 1_555 1_555
H42 C44 1_555 1_555
H43 C44 1_555 1_555
C45 C39 1_555 1_555
C46 C45 1_555 1_555
H44 C46 1_555 1_555
H45 C46 1_555 1_555
H46 C46 1_555 1_555
C47 C45 1_555 1_555
H47 C47 1_555 1_555
H48 C47 1_555 1_555
H49 C47 1_555 1_555
C48 C45 1_555 1_555
H50 C48 1_555 1_555
H51 C48 1_555 1_555
H52 C48 1_555 1_555
C49 C20 1_555 1_555
C50 C10 1_555 1_555
Br1 C49 1_555 1_555
Br2 C49 1_555 1_555
Br3 C50 1_555 1_555
Br4 C50 1_555 1_555
C3 C4 1_555 1_555
C5 C6 1_555 1_555
C8 C9 1_555 1_555
C13 C14 1_555 1_555
C15 C16 1_555 1_555
C18 C19 1_555 1_555
C19 C20 1_555 1_555
C25 C26 1_555 1_555
C39 C40 1_555 1_555

#END
