
#######################################################################
#
#                 Cambridge Crystallographic Data Centre
#                                CCDC 
#
#######################################################################
#
# If this CIF has been generated from an entry in the Cambridge 
# Structural Database, then it will include bibliographic, chemical, 
# crystal, experimental, refinement or atomic coordinate data resulting 
# from the CCDC's data processing and validation procedures.
#
#######################################################################

data_ISAZUZ
_chemical_name_common            "10,10'-linked corrole dimer"
_chemical_formula_moiety         'C74 H68 N8,C7 H16,3(C4 H8 O1)'
_chemical_name_systematic        
"5,5',15,15'-tetramesityl-10,10'-bicorrole n-heptane tetrahydrofuran solvate"
_symmetry_cell_setting           triclinic
_symmetry_space_group_name_H-M   'P -1'
_symmetry_Int_Tables_number      2
_space_group_name_Hall           '-P 1'
loop_
_symmetry_equiv_pos_site_id
_symmetry_equiv_pos_as_xyz
1 x,y,z
2 -x,-y,-z
_cell_length_a                   17.233(11)
_cell_length_b                   18.539(13)
_cell_length_c                   26.77(2)
_cell_angle_alpha                105.08(2)
_cell_angle_beta                 97.097(17)
_cell_angle_gamma                92.008(18)
_cell_volume                     8174.59
_exptl_crystal_colour            red
_exptl_crystal_description       Prism
_cell_formula_units_Z            4
_exptl_crystal_recrystallization_method 'Vapour Deposition'
loop_
_atom_site_label
_atom_site_type_symbol
_atom_site_fract_x
_atom_site_fract_y
_atom_site_fract_z
O1 O 0.3080(9) 0.9757(9) 0.2707(6)
C1 C 0.2816(8) 0.9491(8) 0.3120(6)
H1 H 0.3050 0.9821 0.3463
H2 H 0.2979 0.8978 0.3097
C2 C 0.1938(8) 0.9492(8) 0.3064(6)
H3 H 0.1755 0.9985 0.3234
H4 H 0.1693 0.9094 0.3191
C3 C 0.1822(8) 0.9319(8) 0.2466(5)
H5 H 0.1856 0.8778 0.2308
H6 H 0.1302 0.9464 0.2338
C4 C 0.2461(8) 0.9766(9) 0.2329(7)
H7 H 0.2586 0.9529 0.1975
H8 H 0.2316 1.0284 0.2348
O2 O -0.0047(6) 0.3493(6) 0.1795(4)
C5 C 0.0580(8) 0.3020(9) 0.1725(5)
H9 H 0.0422 0.2499 0.1719
H10 H 0.1042 0.3211 0.1992
C6 C 0.0720(8) 0.3089(10) 0.1190(6)
H11 H 0.1030 0.2681 0.1017
H12 H 0.0998 0.3577 0.1216
C7 C -0.0109(8) 0.3028(9) 0.0890(5)
H13 H -0.0155 0.3379 0.0667
H14 H -0.0262 0.2512 0.0671
C8 C -0.0576(8) 0.3237(8) 0.1316(5)
H15 H -0.0915 0.3640 0.1267
H16 H -0.0915 0.2801 0.1327
O3 O 0.4976(10) 0.2600(10) 0.7392(7)
C9 C 0.4831(16) 0.2751(15) 0.7938(9)
C10 C 0.5372(15) 0.1904(14) 0.7256(10)
C11 C 0.4959(16) 0.1928(16) 0.7945(10)
C12 C 0.5317(16) 0.1333(14) 0.7563(11)
N1 N -0.0863(4) 0.3951(6) 0.2717(4)
H17 H -0.0545 0.3589 0.2640
N2 N 0.0519(3) 0.3485(4) 0.3059(2)
H18 H 0.0076 0.3278 0.2868
N3 N -0.0123(3) 0.1979(4) 0.2510(3)
N4 N -0.1442(4) 0.2583(5) 0.2254(3)
H19 H -0.0938 0.2669 0.2370
N5 N 0.4516(4) 0.0919(6) 0.2998(3)
H20 H 0.4048 0.1037 0.3079
N6 N 0.3227(3) 0.1595(3) 0.2754(3)
H21 H 0.3442 0.1441 0.3020
N7 N 0.2802(3) 0.1542(3) 0.3756(3)
N8 N 0.4172(5) 0.0949(6) 0.3916(4)
H22 H 0.3908 0.1199 0.3722
C13 C -0.1651(6) 0.3867(8) 0.2537(4)
C14 C -0.1894(7) 0.4600(8) 0.2736(6)
H23 H -0.2416 0.4744 0.2685
C15 C -0.1287(7) 0.5051(7) 0.3002(6)
H24 H -0.1301 0.5573 0.3154
C16 C -0.0623(6) 0.4645(6) 0.3026(4)
C17 C 0.0132(5) 0.4792(5) 0.3292(4)
C18 C 0.0662(5) 0.4247(5) 0.3309(3)
C19 C 0.1426(5) 0.4334(5) 0.3568(4)
H25 H 0.1681 0.4794 0.3781
C20 C 0.1757(5) 0.3655(5) 0.3469(3)
H26 H 0.2278 0.3566 0.3588
C21 C 0.1163(4) 0.3104(5) 0.3153(3)
C22 C 0.1225(4) 0.2328(4) 0.2970(3)
C23 C 0.0609(4) 0.1804(5) 0.2686(3)
C24 C 0.0642(4) 0.1008(5) 0.2541(3)
H27 H 0.1085 0.0738 0.2605
C25 C -0.0075(5) 0.0713(5) 0.2295(4)
H28 H -0.0231 0.0195 0.2165
C26 C -0.0564(4) 0.1318(5) 0.2265(3)
C27 C -0.1349(4) 0.1265(6) 0.2041(3)
C28 C -0.1789(4) 0.1900(7) 0.2042(4)
C29 C -0.2592(5) 0.2012(8) 0.1892(4)
H29 H -0.2993 0.1631 0.1725
C30 C -0.2684(6) 0.2780(8) 0.2035(5)
H30 H -0.3155 0.3017 0.1980
C31 C -0.1951(5) 0.3137(8) 0.2273(4)
C32 C 0.0377(5) 0.5598(6) 0.3600(5)
C33 C 0.0543(5) 0.6133(7) 0.3320(4)
C34 C 0.0732(6) 0.6862(7) 0.3585(6)
H31 H 0.0806 0.7214 0.3390
C35 C 0.0818(7) 0.7108(6) 0.4106(6)
C36 C 0.0607(8) 0.6567(8) 0.4367(5)
H32 H 0.0596 0.6731 0.4733
C37 C 0.0426(8) 0.5857(7) 0.4133(5)
C38 C 0.0491(6) 0.5877(6) 0.2727(5)
H33 H -0.0023 0.5615 0.2578
H34 H 0.0904 0.5538 0.2631
H35 H 0.0559 0.6314 0.2591
C39 C 0.1038(9) 0.7913(6) 0.4391(5)
H36 H 0.1610 0.7991 0.4477
H37 H 0.0798 0.8041 0.4713
H38 H 0.0851 0.8233 0.4168
C40 C 0.0204(10) 0.5271(7) 0.4437(5)
H39 H 0.0561 0.4866 0.4381
H40 H -0.0336 0.5062 0.4307
H41 H 0.0248 0.5520 0.4811
C41 C -0.1753(5) 0.0502(6) 0.1819(5)
C42 C -0.1645(5) 0.0062(7) 0.1305(5)
C43 C -0.2006(7) -0.0632(7) 0.1103(5)
H42 H -0.1909 -0.0915 0.0769
C44 C -0.2507(9) -0.0939(9) 0.1363(8)
C45 C -0.2614(7) -0.0514(11) 0.1868(8)
H43 H -0.2958 -0.0713 0.2058
C46 C -0.2240(6) 0.0169(8) 0.2086(5)
C47 C -0.1104(6) 0.0388(6) 0.0995(4)
H44 H -0.0565 0.0451 0.1176
H45 H -0.1275 0.0875 0.0965
H46 H -0.1123 0.0046 0.0645
C48 C -0.2941(12) -0.1743(10) 0.1153(7)
H47 H -0.3068 -0.1924 0.1448
H48 H -0.2600 -0.2086 0.0955
H49 H -0.3425 -0.1719 0.0926
C49 C -0.2337(6) 0.0603(8) 0.2643(5)
H50 H -0.2673 0.0300 0.2791
H51 H -0.2579 0.1072 0.2635
H52 H -0.1822 0.0716 0.2858
C50 C 0.5058(5) 0.0638(6) 0.3302(4)
C51 C 0.5696(5) 0.0570(6) 0.3060(4)
H53 H 0.6184 0.0415 0.3188
C52 C 0.5531(5) 0.0764(6) 0.2583(4)
H54 H 0.5871 0.0741 0.2326
C53 C 0.4777(4) 0.0994(5) 0.2565(4)
C54 C 0.4290(4) 0.1283(4) 0.2196(3)
C55 C 0.3565(4) 0.1553(4) 0.2300(4)
C56 C 0.3030(4) 0.1887(4) 0.1981(3)
H55 H 0.3112 0.1959 0.1653
C57 C 0.2398(4) 0.2080(4) 0.2221(3)
H56 H 0.1954 0.2290 0.2082
C58 C 0.2500(4) 0.1916(4) 0.2732(3)
C59 C 0.2000(4) 0.2015(4) 0.3096(3)
C60 C 0.2137(4) 0.1851(4) 0.3578(3)
C61 C 0.1631(5) 0.1970(5) 0.3987(4)
H57 H 0.1138 0.2183 0.3974
C62 C 0.1983(4) 0.1726(5) 0.4387(4)
H58 H 0.1778 0.1730 0.4701
C63 C 0.2721(4) 0.1460(4) 0.4251(4)
C64 C 0.3269(5) 0.1121(5) 0.4537(3)
C65 C 0.3953(5) 0.0854(5) 0.4382(4)
C66 C 0.4546(5) 0.0442(5) 0.4541(4)
H59 H 0.4582 0.0283 0.4853
C67 C 0.5075(5) 0.0294(5) 0.4187(4)
H60 H 0.5525 0.0019 0.4213
C68 C 0.4841(5) 0.0610(5) 0.3795(4)
C69 C 0.4589(4) 0.1306(5) 0.1707(3)
C70 C 0.4976(4) 0.1968(4) 0.1663(4)
C71 C 0.5253(4) 0.1957(5) 0.1196(4)
H61 H 0.5499 0.2407 0.1166
C72 C 0.5197(4) 0.1343(5) 0.0779(4)
C73 C 0.4826(4) 0.0693(4) 0.0831(4)
H62 H 0.4775 0.0252 0.0550
C74 C 0.4524(4) 0.0674(5) 0.1292(4)
C75 C 0.5062(5) 0.2663(5) 0.2119(4)
H63 H 0.5248 0.3094 0.2007
H64 H 0.5441 0.2590 0.2403
H65 H 0.4553 0.2757 0.2242
C76 C 0.5498(5) 0.1356(4) 0.0277(3)
H66 H 0.5055 0.1317 0.0002
H67 H 0.5824 0.0933 0.0175
H68 H 0.5813 0.1827 0.0328
C77 C 0.4097(5) -0.0059(4) 0.1311(4)
H69 H 0.4373 -0.0246 0.1589
H70 H 0.4085 -0.0433 0.0975
H71 H 0.3559 0.0035 0.1380
C78 C 0.3111(5) 0.1044(7) 0.5064(5)
C79 C 0.2646(7) 0.0434(7) 0.5103(7)
C80 C 0.2544(10) 0.0388(10) 0.5603(9)
H72 H 0.2231 -0.0032 0.5624
C81 C 0.2835(13) 0.0865(15) 0.6046(8)
C82 C 0.3313(8) 0.1501(10) 0.6019(5)
H73 H 0.3541 0.1861 0.6329
C83 C 0.3439(7) 0.1585(8) 0.5522(6)
C84 C 0.2272(7) -0.0156(8) 0.4607(7)
H74 H 0.1977 -0.0548 0.4704
H75 H 0.2684 -0.0378 0.4407
H76 H 0.1917 0.0082 0.4393
C85 C 0.2690(10) 0.0755(10) 0.6561(6)
H77 H 0.2623 0.1240 0.6801
H78 H 0.3137 0.0527 0.6707
H79 H 0.2214 0.0425 0.6513
C86 C 0.3945(7) 0.2283(7) 0.5499(4)
H80 H 0.3616 0.2606 0.5340
H81 H 0.4366 0.2121 0.5289
H82 H 0.4173 0.2561 0.5854
N9 N 0.0114(3) 0.8022(4) 0.0499(3)
H83 H 0.0290 0.7728 0.0692
N10 N 0.1387(3) 0.7645(3) 0.1003(2)
N11 N 0.0410(3) 0.6406(3) 0.1138(2)
H84 H 0.0329 0.6800 0.1017
N12 N -0.0782(3) 0.6947(4) 0.0615(3)
H85 H -0.0338 0.7090 0.0824
N13 N 0.4912(4) 0.5370(5) 0.2236(4)
H86 H 0.4541 0.5684 0.2237
N14 N 0.3683(3) 0.5713(4) 0.1683(3)
N15 N 0.3207(3) 0.6572(4) 0.2660(3)
H87 H 0.3564 0.6254 0.2569
N16 N 0.4564(5) 0.6197(5) 0.3127(4)
H88 H 0.4413 0.6342 0.2844
C87 C -0.0616(4) 0.7950(4) 0.0244(3)
C88 C -0.0681(4) 0.8524(4) -0.0017(3)
H89 H -0.1134 0.8621 -0.0224
C89 C 0.0042(4) 0.8914(4) 0.0088(3)
H90 H 0.0176 0.9323 -0.0045
C90 C 0.0557(4) 0.8610(4) 0.0426(3)
C91 C 0.1345(4) 0.8717(4) 0.0616(3)
C92 C 0.1741(4) 0.8257(4) 0.0891(3)
C93 C 0.2540(4) 0.8321(4) 0.1104(4)
H91 H 0.2920 0.8692 0.1084
C94 C 0.2677(4) 0.7762(4) 0.1341(3)
H92 H 0.3165 0.7666 0.1509
C95 C 0.1937(4) 0.7347(4) 0.1287(3)
C96 C 0.1819(4) 0.6703(4) 0.1467(3)
C97 C 0.1115(4) 0.6269(4) 0.1390(3)
C98 C 0.0974(4) 0.5573(4) 0.1519(3)
H93 H 0.1350 0.5331 0.1696
C99 C 0.0225(4) 0.5325(4) 0.1348(3)
H94 H -0.0016 0.4876 0.1385
C100 C -0.0156(4) 0.5834(4) 0.1103(3)
C101 C -0.0921(4) 0.5772(4) 0.0852(3)
C102 C -0.1217(4) 0.6311(4) 0.0581(3)
C103 C -0.1840(5) 0.6296(6) 0.0219(5)
H95 H -0.2260 0.5920 0.0116
C104 C -0.1770(5) 0.6934(6) 0.0014(5)
H96 H -0.2113 0.7050 -0.0255
C105 C -0.1106(4) 0.7338(4) 0.0290(4)
C106 C 0.1813(5) 0.9372(5) 0.0519(4)
C107 C 0.2265(5) 0.9259(5) 0.0123(5)
C108 C 0.2674(4) 0.9889(5) 0.0048(5)
H97 H 0.2989 0.9819 -0.0226
C109 C 0.2631(5) 1.0584(6) 0.0354(6)
C110 C 0.2185(6) 1.0698(5) 0.0744(5)
H98 H 0.2166 1.1194 0.0956
C111 C 0.1742(5) 1.0104(5) 0.0851(4)
C112 C 0.2340(6) 0.8509(5) -0.0211(5)
H99 H 0.2557 0.8190 0.0004
H100 H 0.2690 0.8542 -0.0468
H101 H 0.1823 0.8292 -0.0394
C113 C 0.3080(5) 1.1265(5) 0.0263(5)
H102 H 0.3372 1.1096 -0.0034
H103 H 0.3447 1.1509 0.0576
H104 H 0.2707 1.1621 0.0187
C114 C 0.1250(7) 1.0254(5) 0.1292(4)
H105 H 0.1485 1.0692 0.1568
H106 H 0.1228 0.9817 0.1432
H107 H 0.0718 1.0351 0.1161
C115 C -0.1455(4) 0.5119(5) 0.0840(4)
C116 C -0.1484(4) 0.4454(5) 0.0429(4)
C117 C -0.1999(4) 0.3863(4) 0.0416(3)
H108 H -0.2034 0.3421 0.0136
C118 C -0.2475(4) 0.3905(5) 0.0812(4)
C119 C -0.2417(5) 0.4516(6) 0.1206(4)
H109 H -0.2717 0.4528 0.1483
C120 C -0.1919(5) 0.5153(5) 0.1229(4)
C121 C -0.0952(4) 0.4374(5) 0.0009(3)
H110 H -0.1075 0.3887 -0.0248
H111 H -0.0404 0.4409 0.0169
H112 H -0.1032 0.4775 -0.0165
C122 C -0.3035(4) 0.3233(4) 0.0790(4)
H113 H -0.2855 0.3011 0.1076
H114 H -0.3045 0.2858 0.0455
H115 H -0.3564 0.3399 0.0827
C123 C -0.1891(7) 0.5865(6) 0.1681(5)
H116 H -0.1436 0.5874 0.1942
H117 H -0.2372 0.5868 0.1843
H118 H -0.1848 0.6307 0.1547
C124 C 0.5358(6) 0.5299(6) 0.2682(5)
C125 C 0.5891(5) 0.4744(6) 0.2505(5)
H119 H 0.6279 0.4567 0.2719
C126 C 0.5744(4) 0.4518(5) 0.1980(5)
H120 H 0.6024 0.4156 0.1765
C127 C 0.5111(4) 0.4895(5) 0.1791(5)
C128 C 0.4657(4) 0.4838(4) 0.1318(4)
C129 C 0.3965(4) 0.5213(5) 0.1273(4)
C130 C 0.3446(4) 0.5173(4) 0.0804(3)
H121 H 0.3502 0.4880 0.0464
C131 C 0.2859(4) 0.5630(4) 0.0932(4)
H122 H 0.2434 0.5710 0.0696
C132 C 0.2991(4) 0.5969(4) 0.1484(4)
C133 C 0.2527(4) 0.6465(4) 0.1769(4)
C134 C 0.2634(4) 0.6756(5) 0.2312(4)
C135 C 0.2190(5) 0.7310(5) 0.2635(4)
H123 H 0.1763 0.7557 0.2511
C136 C 0.2495(5) 0.7411(5) 0.3146(4)
H124 H 0.2305 0.7732 0.3437
C137 C 0.3139(5) 0.6961(5) 0.3175(4)
C138 C 0.3609(6) 0.6877(5) 0.3614(4)
C139 C 0.4272(7) 0.6430(6) 0.3582(5)
C140 C 0.4717(8) 0.6143(7) 0.3941(4)
H125 H 0.4673 0.6243 0.4302
C141 C 0.5243(7) 0.5681(6) 0.3679(5)
H126 H 0.5612 0.5402 0.3830
C142 C 0.5138(6) 0.5697(7) 0.3167(5)
C143 C 0.4894(5) 0.4332(5) 0.0838(4)
C144 C 0.4511(5) 0.3609(6) 0.0634(5)
C145 C 0.4714(7) 0.3169(7) 0.0190(6)
H127 H 0.4452 0.2685 0.0057
C146 C 0.5253(12) 0.3362(10) -0.0077(5)
C147 C 0.5647(7) 0.4088(10) 0.0133(6)
H128 H 0.6040 0.4238 -0.0045
C148 C 0.5479(5) 0.4583(6) 0.0587(5)
C149 C 0.3889(5) 0.3343(5) 0.0898(5)
H129 H 0.3798 0.2797 0.0768
H130 H 0.3403 0.3578 0.0825
H131 H 0.4057 0.3478 0.1276
C150 C 0.5512(10) 0.2883(8) -0.0567(5)
H132 H 0.5288 0.2368 -0.0634
H133 H 0.6085 0.2888 -0.0523
H134 H 0.5331 0.3083 -0.0863
C151 C 0.5850(5) 0.5365(5) 0.0796(4)
H135 H 0.6355 0.5396 0.0667
H136 H 0.5933 0.5495 0.1178
H137 H 0.5505 0.5715 0.0678
C152 C 0.3433(6) 0.7251(6) 0.4141(5)
C153 C 0.3705(6) 0.7993(7) 0.4368(6)
C154 C 0.3563(8) 0.8328(7) 0.4870(7)
H138 H 0.3783 0.8824 0.5031
C155 C 0.3120(8) 0.7987(8) 0.5151(5)
C156 C 0.2848(7) 0.7262(8) 0.4912(6)
H139 H 0.2563 0.6998 0.5099
C157 C 0.2970(7) 0.6895(6) 0.4409(5)
C158 C 0.4187(7) 0.8427(6) 0.4111(5)
H140 H 0.4670 0.8637 0.4345
H141 H 0.3891 0.8835 0.4031
H142 H 0.4317 0.8097 0.3787
C159 C 0.2956(8) 0.8377(7) 0.5707(5)
H143 H 0.3093 0.8916 0.5783
H144 H 0.3273 0.8171 0.5960
H145 H 0.2399 0.8293 0.5731
C160 C 0.2628(7) 0.6095(6) 0.4153(4)
H146 H 0.2342 0.5917 0.4397
H147 H 0.3054 0.5770 0.4060
H148 H 0.2269 0.6084 0.3837
C161 C 0.298(3) 0.312(3) 0.7289(17)
C162 C 0.172(2) 0.300(2) 0.5846(16)
C163 C 0.176(2) 0.283(2) 0.638(2)
C164 C 0.220(3) 0.307(3) 0.6938(17)
C165 C 0.282(3) 0.453(3) 0.5123(17)
C166 C 0.185(2) 0.361(2) 0.5569(18)
C167 C 0.223(3) 0.394(3) 0.5193(14)
O4 O 0.2292(10) 0.4673(10) 0.2369(8)
C168 C 0.2625(14) 0.4205(13) 0.1935(9)
H149 H 0.2746 0.4485 0.1683
H150 H 0.2276 0.3754 0.1752
C169 C 0.2901(15) 0.4947(14) 0.2799(10)
C170 C 0.3364(14) 0.4009(13) 0.2230(9)
C171 C 0.3347(14) 0.4281(14) 0.2801(9)
H151 H 0.3066 0.3915 0.2938
H152 H 0.3879 0.4416 0.3000
C172 C 0.032(2) 1.037(2) 0.5873(14)
C173 C 0.0263(19) 0.962(2) 0.6040(13)
C174 C 0.056(2) 0.8853(19) 0.6061(13)
C175 C 0.0598(18) 0.8006(19) 0.5947(12)
C176 C 0.0683(15) 0.7219(18) 0.6054(13)
C177 C 0.223(2) 0.6580(18) 0.6228(14)
C178 C 0.132(2) 0.6656(16) 0.6141(14)
O5 O 0.0281(8) 0.1477(9) 0.8187(5)
C179 C 0.0651(12) 0.1301(12) 0.7681(7)
C180 C 0.0383(10) 0.2216(9) 0.8328(6)
C181 C 0.0252(11) 0.2456(10) 0.7832(7)
C182 C 0.0259(13) 0.1824(12) 0.7362(8)
O6 O 0.4517(15) 0.2640(13) 0.4039(10)
C183 C 0.502(2) 0.296(2) 0.3718(14)
C184 C 0.423(2) 0.365(2) 0.4365(16)
C185 C 0.493(2) 0.316(2) 0.4509(12)
C186 C 0.425(2) 0.339(2) 0.3757(15)
loop_
_geom_bond_atom_site_label_1
_geom_bond_atom_site_label_2
_geom_bond_site_symmetry_1
_geom_bond_site_symmetry_2
O1 C1 1_555 1_555
C1 H1 1_555 1_555
H2 C1 1_555 1_555
C2 C1 1_555 1_555
H3 C2 1_555 1_555
H4 C2 1_555 1_555
C3 C2 1_555 1_555
H5 C3 1_555 1_555
H6 C3 1_555 1_555
C4 O1 1_555 1_555
H7 C4 1_555 1_555
H8 C4 1_555 1_555
O2 C5 1_555 1_555
C5 H9 1_555 1_555
H10 C5 1_555 1_555
C6 C5 1_555 1_555
H11 C6 1_555 1_555
H12 C6 1_555 1_555
C7 C6 1_555 1_555
H13 C7 1_555 1_555
H14 C7 1_555 1_555
C8 O2 1_555 1_555
H15 C8 1_555 1_555
H16 C8 1_555 1_555
O3 C9 1_555 1_555
C9 C11 1_555 1_555
C10 O3 1_555 1_555
C11 C12 1_555 1_555
C12 C10 1_555 1_555
N1 H17 1_555 1_555
N2 H18 1_555 1_555
N3 C23 1_555 1_555
N4 H19 1_555 1_555
N5 H20 1_555 1_555
N6 H21 1_555 1_555
N7 C60 1_555 1_555
N8 H22 1_555 1_555
C13 N1 1_555 1_555
C14 C13 1_555 1_555
H23 C14 1_555 1_555
C15 C14 1_555 1_555
H24 C15 1_555 1_555
C16 N1 1_555 1_555
C17 C16 1_555 1_555
C18 N2 1_555 1_555
C19 C18 1_555 1_555
H25 C19 1_555 1_555
C20 C19 1_555 1_555
H26 C20 1_555 1_555
C21 N2 1_555 1_555
C22 C21 1_555 1_555
C23 C22 1_555 1_555
C24 C23 1_555 1_555
H27 C24 1_555 1_555
C25 C24 1_555 1_555
H28 C25 1_555 1_555
C26 N3 1_555 1_555
C27 C26 1_555 1_555
C28 N4 1_555 1_555
C29 C28 1_555 1_555
H29 C29 1_555 1_555
C30 C29 1_555 1_555
H30 C30 1_555 1_555
C31 N4 1_555 1_555
C32 C17 1_555 1_555
C33 C32 1_555 1_555
C34 C33 1_555 1_555
H31 C34 1_555 1_555
C35 C34 1_555 1_555
C36 C35 1_555 1_555
H32 C36 1_555 1_555
C37 C32 1_555 1_555
C38 C33 1_555 1_555
H33 C38 1_555 1_555
H34 C38 1_555 1_555
H35 C38 1_555 1_555
C39 C35 1_555 1_555
H36 C39 1_555 1_555
H37 C39 1_555 1_555
H38 C39 1_555 1_555
C40 C37 1_555 1_555
H39 C40 1_555 1_555
H40 C40 1_555 1_555
H41 C40 1_555 1_555
C41 C27 1_555 1_555
C42 C41 1_555 1_555
C43 C42 1_555 1_555
H42 C43 1_555 1_555
C44 C43 1_555 1_555
C45 C44 1_555 1_555
H43 C45 1_555 1_555
C46 C41 1_555 1_555
C47 C42 1_555 1_555
H44 C47 1_555 1_555
H45 C47 1_555 1_555
H46 C47 1_555 1_555
C48 C44 1_555 1_555
H47 C48 1_555 1_555
H48 C48 1_555 1_555
H49 C48 1_555 1_555
C49 C46 1_555 1_555
H50 C49 1_555 1_555
H51 C49 1_555 1_555
H52 C49 1_555 1_555
C50 N5 1_555 1_555
C51 C50 1_555 1_555
H53 C51 1_555 1_555
C52 C51 1_555 1_555
H54 C52 1_555 1_555
C53 N5 1_555 1_555
C54 C53 1_555 1_555
C55 N6 1_555 1_555
C56 C55 1_555 1_555
H55 C56 1_555 1_555
C57 C56 1_555 1_555
H56 C57 1_555 1_555
C58 N6 1_555 1_555
C59 C22 1_555 1_555
C60 C59 1_555 1_555
C61 C60 1_555 1_555
H57 C61 1_555 1_555
C62 C61 1_555 1_555
H58 C62 1_555 1_555
C63 N7 1_555 1_555
C64 C63 1_555 1_555
C65 N8 1_555 1_555
C66 C65 1_555 1_555
H59 C66 1_555 1_555
C67 C66 1_555 1_555
H60 C67 1_555 1_555
C68 N8 1_555 1_555
C69 C54 1_555 1_555
C70 C69 1_555 1_555
C71 C70 1_555 1_555
H61 C71 1_555 1_555
C72 C71 1_555 1_555
C73 C72 1_555 1_555
H62 C73 1_555 1_555
C74 C69 1_555 1_555
C75 C70 1_555 1_555
H63 C75 1_555 1_555
H64 C75 1_555 1_555
H65 C75 1_555 1_555
C76 C72 1_555 1_555
H66 C76 1_555 1_555
H67 C76 1_555 1_555
H68 C76 1_555 1_555
C77 C74 1_555 1_555
H69 C77 1_555 1_555
H70 C77 1_555 1_555
H71 C77 1_555 1_555
C78 C64 1_555 1_555
C79 C78 1_555 1_555
C80 C79 1_555 1_555
H72 C80 1_555 1_555
C81 C80 1_555 1_555
C82 C81 1_555 1_555
H73 C82 1_555 1_555
C83 C78 1_555 1_555
C84 C79 1_555 1_555
H74 C84 1_555 1_555
H75 C84 1_555 1_555
H76 C84 1_555 1_555
C85 C81 1_555 1_555
H77 C85 1_555 1_555
H78 C85 1_555 1_555
H79 C85 1_555 1_555
C86 C83 1_555 1_555
H80 C86 1_555 1_555
H81 C86 1_555 1_555
H82 C86 1_555 1_555
N9 H83 1_555 1_555
N10 C92 1_555 1_555
N11 H84 1_555 1_555
N12 H85 1_555 1_555
N13 H86 1_555 1_555
N14 C129 1_555 1_555
N15 H87 1_555 1_555
N16 H88 1_555 1_555
C87 N9 1_555 1_555
C88 C87 1_555 1_555
H89 C88 1_555 1_555
C89 C88 1_555 1_555
H90 C89 1_555 1_555
C90 N9 1_555 1_555
C91 C90 1_555 1_555
C92 C91 1_555 1_555
C93 C92 1_555 1_555
H91 C93 1_555 1_555
C94 C93 1_555 1_555
H92 C94 1_555 1_555
C95 N10 1_555 1_555
C96 C95 1_555 1_555
C97 N11 1_555 1_555
C98 C97 1_555 1_555
H93 C98 1_555 1_555
C99 C98 1_555 1_555
H94 C99 1_555 1_555
C100 N11 1_555 1_555
C101 C100 1_555 1_555
C102 N12 1_555 1_555
C103 C102 1_555 1_555
H95 C103 1_555 1_555
C104 C103 1_555 1_555
H96 C104 1_555 1_555
C105 N12 1_555 1_555
C106 C91 1_555 1_555
C107 C106 1_555 1_555
C108 C107 1_555 1_555
H97 C108 1_555 1_555
C109 C108 1_555 1_555
C110 C109 1_555 1_555
H98 C110 1_555 1_555
C111 C106 1_555 1_555
C112 C107 1_555 1_555
H99 C112 1_555 1_555
H100 C112 1_555 1_555
H101 C112 1_555 1_555
C113 C109 1_555 1_555
H102 C113 1_555 1_555
H103 C113 1_555 1_555
H104 C113 1_555 1_555
C114 C111 1_555 1_555
H105 C114 1_555 1_555
H106 C114 1_555 1_555
H107 C114 1_555 1_555
C115 C101 1_555 1_555
C116 C115 1_555 1_555
C117 C116 1_555 1_555
H108 C117 1_555 1_555
C118 C117 1_555 1_555
C119 C118 1_555 1_555
H109 C119 1_555 1_555
C120 C115 1_555 1_555
C121 C116 1_555 1_555
H110 C121 1_555 1_555
H111 C121 1_555 1_555
H112 C121 1_555 1_555
C122 C118 1_555 1_555
H113 C122 1_555 1_555
H114 C122 1_555 1_555
H115 C122 1_555 1_555
C123 C120 1_555 1_555
H116 C123 1_555 1_555
H117 C123 1_555 1_555
H118 C123 1_555 1_555
C124 N13 1_555 1_555
C125 C124 1_555 1_555
H119 C125 1_555 1_555
C126 C125 1_555 1_555
H120 C126 1_555 1_555
C127 N13 1_555 1_555
C128 C127 1_555 1_555
C129 C128 1_555 1_555
C130 C129 1_555 1_555
H121 C130 1_555 1_555
C131 C130 1_555 1_555
H122 C131 1_555 1_555
C132 N14 1_555 1_555
C133 C96 1_555 1_555
C134 N15 1_555 1_555
C135 C134 1_555 1_555
H123 C135 1_555 1_555
C136 C135 1_555 1_555
H124 C136 1_555 1_555
C137 N15 1_555 1_555
C138 C137 1_555 1_555
C139 N16 1_555 1_555
C140 C139 1_555 1_555
H125 C140 1_555 1_555
C141 C140 1_555 1_555
H126 C141 1_555 1_555
C142 N16 1_555 1_555
C143 C128 1_555 1_555
C144 C143 1_555 1_555
C145 C144 1_555 1_555
H127 C145 1_555 1_555
C146 C145 1_555 1_555
C147 C146 1_555 1_555
H128 C147 1_555 1_555
C148 C143 1_555 1_555
C149 C144 1_555 1_555
H129 C149 1_555 1_555
H130 C149 1_555 1_555
H131 C149 1_555 1_555
C150 C146 1_555 1_555
H132 C150 1_555 1_555
H133 C150 1_555 1_555
H134 C150 1_555 1_555
C151 C148 1_555 1_555
H135 C151 1_555 1_555
H136 C151 1_555 1_555
H137 C151 1_555 1_555
C152 C138 1_555 1_555
C153 C152 1_555 1_555
C154 C153 1_555 1_555
H138 C154 1_555 1_555
C155 C154 1_555 1_555
C156 C155 1_555 1_555
H139 C156 1_555 1_555
C157 C152 1_555 1_555
C158 C153 1_555 1_555
H140 C158 1_555 1_555
H141 C158 1_555 1_555
H142 C158 1_555 1_555
C159 C155 1_555 1_555
H143 C159 1_555 1_555
H144 C159 1_555 1_555
H145 C159 1_555 1_555
C160 C157 1_555 1_555
H146 C160 1_555 1_555
H147 C160 1_555 1_555
H148 C160 1_555 1_555
C161 C164 1_555 1_555
C162 C163 1_555 1_555
C163 C164 1_555 1_555
C165 C167 1_555 1_555
C166 C162 1_555 1_555
C167 C166 1_555 1_555
O4 C168 1_555 1_555
C168 H149 1_555 1_555
H150 C168 1_555 1_555
C169 O4 1_555 1_555
C170 C168 1_555 1_555
C171 C169 1_555 1_555
H151 C171 1_555 1_555
H152 C171 1_555 1_555
C172 C173 1_555 1_555
C173 C174 1_555 1_555
C174 C175 1_555 1_555
C175 C176 1_555 1_555
C176 C178 1_555 1_555
C177 C178 1_555 1_555
O5 C179 1_555 1_555
C179 C182 1_555 1_555
C180 O5 1_555 1_555
C181 C180 1_555 1_555
C182 C181 1_555 1_555
O6 C183 1_555 1_555
C183 C186 1_555 1_555
C184 C185 1_555 1_555
C185 O6 1_555 1_555
C186 C184 1_555 1_555
C3 C4 1_555 1_555
C7 C8 1_555 1_555
C13 C31 1_555 1_555
C15 C16 1_555 1_555
C17 C18 1_555 1_555
C20 C21 1_555 1_555
C25 C26 1_555 1_555
C27 C28 1_555 1_555
C30 C31 1_555 1_555
C36 C37 1_555 1_555
C45 C46 1_555 1_555
C50 C68 1_555 1_555
C52 C53 1_555 1_555
C54 C55 1_555 1_555
C57 C58 1_555 1_555
C58 C59 1_555 1_555
C62 C63 1_555 1_555
C64 C65 1_555 1_555
C67 C68 1_555 1_555
C73 C74 1_555 1_555
C82 C83 1_555 1_555
C87 C105 1_555 1_555
C89 C90 1_555 1_555
C94 C95 1_555 1_555
C96 C97 1_555 1_555
C99 C100 1_555 1_555
C101 C102 1_555 1_555
C104 C105 1_555 1_555
C110 C111 1_555 1_555
C119 C120 1_555 1_555
C124 C142 1_555 1_555
C126 C127 1_555 1_555
C131 C132 1_555 1_555
C132 C133 1_555 1_555
C133 C134 1_555 1_555
C136 C137 1_555 1_555
C138 C139 1_555 1_555
C141 C142 1_555 1_555
C147 C148 1_555 1_555
C156 C157 1_555 1_555
C170 C171 1_555 1_555

#END
