
#######################################################################
#
#                 Cambridge Crystallographic Data Centre
#                                CCDC 
#
#######################################################################
#
# If this CIF has been generated from an entry in the Cambridge 
# Structural Database, then it will include bibliographic, chemical, 
# crystal, experimental, refinement or atomic coordinate data resulting 
# from the CCDC's data processing and validation procedures.
#
#######################################################################

data_ISEGOE
_chemical_formula_moiety         'C23 H16 N4 S2'
_chemical_name_systematic        
N,N-diphenyl-4,6-bis(3-thienyl)-1,3,5-triazin-2-amine
_symmetry_cell_setting           monoclinic
_symmetry_space_group_name_H-M   'P 21/n'
_symmetry_Int_Tables_number      14
_space_group_name_Hall           '-P 2yn'
loop_
_symmetry_equiv_pos_site_id
_symmetry_equiv_pos_as_xyz
1 x,y,z
2 1/2-x,1/2+y,1/2-z
3 -x,-y,-z
4 1/2+x,1/2-y,1/2+z
_cell_length_a                   11.0027(13)
_cell_length_b                   9.2037(10)
_cell_length_c                   20.727(3)
_cell_angle_alpha                90
_cell_angle_beta                 104.570(4)
_cell_angle_gamma                90
_cell_volume                     2031.43
_exptl_crystal_colour            'metallic light colorless'
_exptl_crystal_description       block
_cell_formula_units_Z            4
loop_
_atom_site_label
_atom_site_type_symbol
_atom_site_fract_x
_atom_site_fract_y
_atom_site_fract_z
S1 S 0.77573(9) -0.27226(11) 0.07859(5)
S2 S 0.67648(12) -0.34517(12) 0.46130(5)
N1 N 0.4333(2) 0.2325(2) 0.23043(11)
N2 N 0.5352(2) 0.0523(2) 0.18663(11)
N3 N 0.6282(2) -0.1435(2) 0.25699(12)
N4 N 0.5092(2) 0.0352(2) 0.29747(11)
C1 C 0.5326(3) 0.3746(4) 0.15778(16)
H1 H 0.6114 0.3489 0.1839
C2 C 0.5218(4) 0.4668(4) 0.10371(19)
H2 H 0.5938 0.5023 0.0935
C3 C 0.4065(4) 0.5059(4) 0.06538(17)
H3 H 0.4001 0.5682 0.0294
C4 C 0.3004(4) 0.4531(4) 0.08012(16)
H4 H 0.2219 0.4798 0.0540
C5 C 0.3090(3) 0.3600(3) 0.13379(14)
H5 H 0.2367 0.3240 0.1436
C6 C 0.4257(3) 0.3215(3) 0.17243(13)
C7 C 0.4242(3) 0.4192(4) 0.31167(17)
H6 H 0.4952 0.4614 0.3029
C8 C 0.3661(4) 0.4846(5) 0.35628(18)
H7 H 0.3981 0.5705 0.3775
C9 C 0.2614(4) 0.4224(5) 0.36904(17)
H8 H 0.2219 0.4670 0.3985
C10 C 0.2150(4) 0.2954(5) 0.3387(2)
H9 H 0.1440 0.2537 0.3478
C11 C 0.2733(3) 0.2273(4) 0.29414(17)
H10 H 0.2426 0.1398 0.2741
C12 C 0.3769(2) 0.2915(3) 0.28027(13)
C13 C 0.4934(2) 0.1020(3) 0.23817(12)
C14 C 0.5771(2) -0.0867(3) 0.30367(13)
C15 C 0.6007(2) -0.0709(3) 0.19909(13)
C16 C 0.5974(3) -0.1635(3) 0.36758(13)
C17 C 0.5416(3) -0.1231(3) 0.41956(14)
H11 H 0.4896 -0.0427 0.4172
C18 C 0.5733(3) -0.2188(3) 0.47669(13)
H12 H 0.5431 -0.2128 0.5147
C19 C 0.6715(3) -0.2844(4) 0.38387(16)
H13 H 0.7141 -0.3279 0.3555
C20 C 0.6463(3) -0.1306(3) 0.14385(14)
C21 C 0.5931(3) -0.1001(4) 0.07574(16)
H14 H 0.5255 -0.0375 0.0608
C22 C 0.6539(3) -0.1754(3) 0.03218(15)
H15 H 0.6303 -0.1718 -0.0141
C23 C 0.7462(3) -0.2246(4) 0.15160(17)
H16 H 0.7925 -0.2582 0.1928
loop_
_geom_bond_atom_site_label_1
_geom_bond_atom_site_label_2
_geom_bond_site_symmetry_1
_geom_bond_site_symmetry_2
S1 C22 1_555 1_555
S2 C18 1_555 1_555
N1 C6 1_555 1_555
N2 C13 1_555 1_555
N3 C14 1_555 1_555
N4 C13 1_555 1_555
C1 H1 1_555 1_555
C2 C1 1_555 1_555
H2 C2 1_555 1_555
C3 C2 1_555 1_555
H3 C3 1_555 1_555
C4 C3 1_555 1_555
H4 C4 1_555 1_555
C5 C4 1_555 1_555
H5 C5 1_555 1_555
C6 C1 1_555 1_555
C7 H6 1_555 1_555
C8 C7 1_555 1_555
H7 C8 1_555 1_555
C9 C8 1_555 1_555
H8 C9 1_555 1_555
C10 C9 1_555 1_555
H9 C10 1_555 1_555
C11 C10 1_555 1_555
H10 C11 1_555 1_555
C12 N1 1_555 1_555
C13 N1 1_555 1_555
C14 N4 1_555 1_555
C15 N2 1_555 1_555
C16 C14 1_555 1_555
C17 C16 1_555 1_555
H11 C17 1_555 1_555
C18 C17 1_555 1_555
H12 C18 1_555 1_555
C19 S2 1_555 1_555
H13 C19 1_555 1_555
C20 C15 1_555 1_555
C21 C20 1_555 1_555
H14 C21 1_555 1_555
C22 C21 1_555 1_555
H15 C22 1_555 1_555
C23 S1 1_555 1_555
H16 C23 1_555 1_555
N3 C15 1_555 1_555
C5 C6 1_555 1_555
C7 C12 1_555 1_555
C11 C12 1_555 1_555
C16 C19 1_555 1_555
C20 C23 1_555 1_555

#END
