
#######################################################################
#
#                 Cambridge Crystallographic Data Centre
#                                CCDC 
#
#######################################################################
#
# If this CIF has been generated from an entry in the Cambridge 
# Structural Database, then it will include bibliographic, chemical, 
# crystal, experimental, refinement or atomic coordinate data resulting 
# from the CCDC's data processing and validation procedures.
#
#######################################################################

data_ISEGUJ
_chemical_formula_moiety         'C21 H21 F1 N3 O2 P1'
_chemical_name_systematic        
N-(bis((4-methylphenyl)amino)phosphoryl)-4-fluorobenzamide
_symmetry_cell_setting           monoclinic
_symmetry_space_group_name_H-M   'C 2/c'
_symmetry_Int_Tables_number      15
_space_group_name_Hall           '-C 2yn'
loop_
_symmetry_equiv_pos_site_id
_symmetry_equiv_pos_as_xyz
1 x,y,z
2 -x,y,1/2-z
3 1/2+x,1/2+y,z
4 1/2-x,1/2+y,1/2-z
5 -x,-y,-z
6 x,-y,1/2+z
7 1/2-x,1/2-y,-z
8 1/2+x,1/2-y,1/2+z
_cell_length_a                   24.712(6)
_cell_length_b                   17.238(4)
_cell_length_c                   9.874(3)
_cell_angle_alpha                90
_cell_angle_beta                 110.052(4)
_cell_angle_gamma                90
_cell_volume                     3951.21
_exptl_crystal_colour            colorless
_exptl_crystal_description       block
_cell_formula_units_Z            8
loop_
_atom_site_label
_atom_site_type_symbol
_atom_site_fract_x
_atom_site_fract_y
_atom_site_fract_z
P1 P 0.53751(2) 0.32320(3) 0.49501(5)
F1 F 0.19498(5) 0.26804(8) 0.17760(17)
O1 O 0.56531(5) 0.30739(7) 0.38737(13)
O2 O 0.44311(6) 0.34556(8) 0.60843(13)
N1 N 0.46612(7) 0.31592(9) 0.41210(17)
H1 H 0.4549(10) 0.3112(13) 0.327(3)
N2 N 0.55835(7) 0.26585(9) 0.63460(17)
H2 H 0.5623(11) 0.2883(15) 0.712(3)
N3 N 0.54636(7) 0.41119(9) 0.56366(17)
H3 H 0.5190(10) 0.4247(13) 0.587(2)
C1 C 0.42720(8) 0.32354(10) 0.4820(2)
C2 C 0.36591(8) 0.30559(11) 0.40012(19)
C3 C 0.34921(9) 0.25881(11) 0.2773(2)
H4 H 0.3775 0.2364 0.2441
C4 C 0.29127(9) 0.24510(12) 0.2039(2)
H5 H 0.2793 0.2130 0.1206
C5 C 0.25164(9) 0.27889(13) 0.2540(3)
C6 C 0.26624(9) 0.32492(13) 0.3753(3)
H6 H 0.2375 0.3473 0.4070
C7 C 0.32426(9) 0.33748(12) 0.4492(2)
H7 H 0.3358 0.3682 0.5342
C8 C 0.56782(8) 0.18496(11) 0.63884(19)
C9 C 0.55108(8) 0.13891(11) 0.5156(2)
H8 H 0.5323 0.1617 0.4238
C10 C 0.56173(9) 0.05955(12) 0.5265(2)
H9 H 0.5499 0.0289 0.4414
C11 C 0.58917(9) 0.02385(12) 0.6584(2)
C12 C 0.60548(9) 0.07061(12) 0.7804(2)
H10 H 0.6244 0.0478 0.8721
C13 C 0.59492(8) 0.14945(12) 0.7718(2)
H11 H 0.6062 0.1798 0.8572
C14 C 0.60195(10) -0.06248(12) 0.6694(3)
H12 H 0.5983 -0.0828 0.7585
H13 H 0.6413 -0.0713 0.6703
H14 H 0.5746 -0.0891 0.5864
C15 C 0.59991(8) 0.44192(11) 0.65616(19)
C16 C 0.59962(9) 0.50756(11) 0.73805(19)
H15 H 0.5641 0.5306 0.7332
C17 C 0.65121(9) 0.53942(11) 0.82683(19)
H16 H 0.6503 0.5846 0.8812
C18 C 0.70404(9) 0.50711(11) 0.83834(19)
C19 C 0.70330(9) 0.44130(12) 0.7559(2)
H17 H 0.7388 0.4178 0.7618
C20 C 0.65216(8) 0.40905(11) 0.66539(19)
H18 H 0.6531 0.3644 0.6098
C21 C 0.75977(9) 0.54039(13) 0.9389(2)
H19 H 0.7536 0.5943 0.9615
H20 H 0.7890 0.5386 0.8924
H21 H 0.7729 0.5099 1.0280
loop_
_geom_bond_atom_site_label_1
_geom_bond_atom_site_label_2
_geom_bond_site_symmetry_1
_geom_bond_site_symmetry_2
P1 O1 1_555 1_555
F1 C5 1_555 1_555
O2 C1 1_555 1_555
N1 P1 1_555 1_555
H1 N1 1_555 1_555
N2 P1 1_555 1_555
H2 N2 1_555 1_555
N3 P1 1_555 1_555
H3 N3 1_555 1_555
C1 N1 1_555 1_555
C2 C1 1_555 1_555
C3 C2 1_555 1_555
H4 C3 1_555 1_555
C4 C3 1_555 1_555
H5 C4 1_555 1_555
C5 C4 1_555 1_555
C6 C5 1_555 1_555
H6 C6 1_555 1_555
C7 C2 1_555 1_555
H7 C7 1_555 1_555
C8 N2 1_555 1_555
C9 C8 1_555 1_555
H8 C9 1_555 1_555
C10 C9 1_555 1_555
H9 C10 1_555 1_555
C11 C10 1_555 1_555
C12 C11 1_555 1_555
H10 C12 1_555 1_555
C13 C8 1_555 1_555
H11 C13 1_555 1_555
C14 C11 1_555 1_555
H12 C14 1_555 1_555
H13 C14 1_555 1_555
H14 C14 1_555 1_555
C15 N3 1_555 1_555
C16 C15 1_555 1_555
H15 C16 1_555 1_555
C17 C16 1_555 1_555
H16 C17 1_555 1_555
C18 C17 1_555 1_555
C19 C18 1_555 1_555
H17 C19 1_555 1_555
C20 C15 1_555 1_555
H18 C20 1_555 1_555
C21 C18 1_555 1_555
H19 C21 1_555 1_555
H20 C21 1_555 1_555
H21 C21 1_555 1_555
C6 C7 1_555 1_555
C12 C13 1_555 1_555
C19 C20 1_555 1_555

#END
