
#######################################################################
#
#                 Cambridge Crystallographic Data Centre
#                                CCDC 
#
#######################################################################
#
# If this CIF has been generated from an entry in the Cambridge 
# Structural Database, then it will include bibliographic, chemical, 
# crystal, experimental, refinement or atomic coordinate data resulting 
# from the CCDC's data processing and validation procedures.
#
#######################################################################

data_ISEGOD
_chemical_formula_moiety         'C12 H17 F1 N3 O2 P1'
_chemical_name_systematic        
N-(5,5-Dimethyl-2-oxido-1,3,2-diazaphosphinan-2-yl)-4-fluorobenzamide
_symmetry_cell_setting           orthorhombic
_symmetry_space_group_name_H-M   'P c a 21'
_symmetry_Int_Tables_number      29
_space_group_name_Hall           'P 2c -2ac'
loop_
_symmetry_equiv_pos_site_id
_symmetry_equiv_pos_as_xyz
1 x,y,z
2 -x,-y,1/2+z
3 1/2-x,y,1/2+z
4 1/2+x,-y,z
_cell_length_a                   10.269(3)
_cell_length_b                   13.204(3)
_cell_length_c                   10.238(2)
_cell_angle_alpha                90
_cell_angle_beta                 90
_cell_angle_gamma                90
_cell_volume                     1388.19
_exptl_crystal_colour            colorless
_exptl_crystal_description       block
_cell_formula_units_Z            4
loop_
_atom_site_label
_atom_site_type_symbol
_atom_site_fract_x
_atom_site_fract_y
_atom_site_fract_z
P1 P 0.20939(6) 0.51074(4) 0.24847(7)
F1 F 0.1220(3) -0.00466(13) 0.6578(2)
O1 O 0.27795(19) 0.46708(13) 0.13539(18)
O2 O 0.05272(18) 0.32943(13) 0.22966(17)
N1 N 0.0744(2) 0.56968(17) 0.2130(2)
H1 H 0.021(3) 0.534(2) 0.176(3)
N2 N 0.2958(2) 0.59199(16) 0.3310(2)
H2 H 0.357(3) 0.613(2) 0.293(3)
N3 N 0.1817(2) 0.42016(15) 0.3632(2)
H3 H 0.204(2) 0.429(2) 0.439(3)
C1 C 0.0185(3) 0.6423(2) 0.3070(3)
H4 H -0.0144 0.6049 0.3841
H5 H -0.0562 0.6774 0.2660
C2 C 0.1183(3) 0.72094(18) 0.3518(3)
C3 C 0.2319(3) 0.66538(19) 0.4175(3)
H6 H 0.2970 0.7158 0.4469
H7 H 0.1991 0.6295 0.4959
C4 C 0.1142(2) 0.33542(18) 0.3327(3)
C5 C 0.1189(3) 0.24696(19) 0.4247(3)
C6 C 0.2029(3) 0.2414(2) 0.5306(3)
H8 H 0.2590 0.2966 0.5500
C7 C 0.2049(3) 0.1558(2) 0.6079(3)
H9 H 0.2627 0.1513 0.6801
C8 C 0.1233(3) 0.0783(2) 0.5794(3)
C9 C 0.0388(3) 0.0801(2) 0.4751(3)
H10 H -0.0173 0.0246 0.4572
C10 C 0.0385(3) 0.1650(2) 0.3978(3)
H11 H -0.0178 0.1677 0.3243
C11 C 0.0527(3) 0.7888(2) 0.4539(3)
H12 H 0.1166 0.8366 0.4892
H13 H 0.0182 0.7468 0.5249
H14 H -0.0188 0.8264 0.4129
C12 C 0.1664(3) 0.78514(19) 0.2379(3)
H15 H 0.2145 0.7422 0.1764
H16 H 0.2240 0.8386 0.2708
H17 H 0.0918 0.8158 0.1932
loop_
_geom_bond_atom_site_label_1
_geom_bond_atom_site_label_2
_geom_bond_site_symmetry_1
_geom_bond_site_symmetry_2
P1 O1 1_555 1_555
F1 C8 1_555 1_555
O2 C4 1_555 1_555
N1 P1 1_555 1_555
H1 N1 1_555 1_555
N2 P1 1_555 1_555
H2 N2 1_555 1_555
N3 P1 1_555 1_555
H3 N3 1_555 1_555
C1 N1 1_555 1_555
H4 C1 1_555 1_555
H5 C1 1_555 1_555
C2 C1 1_555 1_555
C3 N2 1_555 1_555
H6 C3 1_555 1_555
H7 C3 1_555 1_555
C4 N3 1_555 1_555
C5 C4 1_555 1_555
C6 C5 1_555 1_555
H8 C6 1_555 1_555
C7 C6 1_555 1_555
H9 C7 1_555 1_555
C8 C7 1_555 1_555
C9 C8 1_555 1_555
H10 C9 1_555 1_555
C10 C5 1_555 1_555
H11 C10 1_555 1_555
C11 C2 1_555 1_555
H12 C11 1_555 1_555
H13 C11 1_555 1_555
H14 C11 1_555 1_555
C12 C2 1_555 1_555
H15 C12 1_555 1_555
H16 C12 1_555 1_555
H17 C12 1_555 1_555
C2 C3 1_555 1_555
C9 C10 1_555 1_555

#END
