
#######################################################################
#
#                 Cambridge Crystallographic Data Centre
#                                CCDC 
#
#######################################################################
#
# If this CIF has been generated from an entry in the Cambridge 
# Structural Database, then it will include bibliographic, chemical, 
# crystal, experimental, refinement or atomic coordinate data resulting 
# from the CCDC's data processing and validation procedures.
#
#######################################################################

data_ISEHIZ
_chemical_formula_moiety         'C44 H41 N5 S4,0.5(C1 H2 Cl2)'
_chemical_name_systematic        
'(2-(4-(dibutylamino)phenyl)-2-(4-(dicyanomethylene)cyclohexa-2,5-dien-1-ylidene)-1-(4-((2-(1,3-dithiol-2-ylidene)-1,3-dithiol-4-yl)ethynyl)bicyclo[2.2.2]octan-1-yl)ethylidene)malononitrile dichloromethane solvate'
_symmetry_cell_setting           triclinic
_symmetry_space_group_name_H-M   'P -1'
_symmetry_Int_Tables_number      2
_space_group_name_Hall           '-P 1'
loop_
_symmetry_equiv_pos_site_id
_symmetry_equiv_pos_as_xyz
1 x,y,z
2 -x,-y,-z
_cell_length_a                   10.4569(9)
_cell_length_b                   16.3673(14)
_cell_length_c                   25.226(2)
_cell_angle_alpha                94.259(7)
_cell_angle_beta                 93.507(6)
_cell_angle_gamma                101.083(6)
_cell_volume                     4212.66
_exptl_crystal_colour            black
_exptl_crystal_description       needle
_cell_formula_units_Z            4
loop_
_atom_site_label
_atom_site_type_symbol
_atom_site_fract_x
_atom_site_fract_y
_atom_site_fract_z
C1 C 0.2345(14) -0.0517(17) 0.3953(10)
H1 H 0.2354 -0.0386 0.3576
H2 H 0.2633 -0.1055 0.3979
Cl1 Cl 0.0748(11) -0.0601(8) 0.4159(4)
Cl2 Cl 0.3429(12) 0.0282(8) 0.4358(5)
S1 S 0.05556(19) 0.34780(11) 0.52329(7)
S2 S -0.19380(18) 0.30387(10) 0.59237(6)
S3 S -0.34627(19) 0.38863(11) 0.51939(7)
S4 S -0.09981(18) 0.42285(11) 0.44526(7)
N1 N 0.6018(6) 0.6721(3) 0.0727(2)
N2 N 0.5573(5) 0.7535(3) 0.2366(2)
N3 N -0.0846(5) 0.6593(3) -0.06627(19)
N4 N 0.0559(5) 0.4623(3) -0.1537(2)
N5 N 0.7018(5) 0.2524(3) 0.11076(19)
C2 C 0.3402(6) 0.5323(3) 0.2095(2)
C3 C 0.4384(6) 0.5279(4) 0.2575(2)
H3 H 0.4841 0.4812 0.2499
H4 H 0.5047 0.5805 0.2628
C4 C 0.3669(7) 0.5149(4) 0.3081(2)
H5 H 0.3872 0.5671 0.3322
H6 H 0.3974 0.4704 0.3270
C5 C 0.2181(7) 0.4901(3) 0.2945(2)
C6 C 0.1922(7) 0.4176(4) 0.2498(2)
H7 H 0.2310 0.3708 0.2617
H8 H 0.0968 0.3972 0.2427
C7 C 0.2504(7) 0.4457(3) 0.1988(2)
H9 H 0.1793 0.4480 0.1716
H10 H 0.3011 0.4047 0.1848
C8 C 0.2539(6) 0.5954(3) 0.2262(2)
H11 H 0.3102 0.6502 0.2384
H12 H 0.1963 0.6031 0.1951
C9 C 0.1706(7) 0.5639(4) 0.2711(3)
H13 H 0.0781 0.5460 0.2570
H14 H 0.1757 0.6098 0.2995
C10 C 0.4116(6) 0.5601(3) 0.1611(2)
C11 C 0.4914(6) 0.6356(3) 0.1595(2)
C12 C 0.5249(6) 0.7004(4) 0.2033(3)
C13 C 0.5535(7) 0.6560(4) 0.1109(3)
C14 C 0.3984(6) 0.5023(3) 0.1106(2)
C15 C 0.3232(6) 0.5190(3) 0.0663(2)
C16 C 0.2386(6) 0.5785(3) 0.0701(2)
H15 H 0.2369 0.6090 0.1035
C17 C 0.1620(6) 0.5926(3) 0.0286(2)
H16 H 0.1078 0.6325 0.0332
C18 C 0.1605(6) 0.5480(3) -0.0231(2)
C19 C 0.2508(6) 0.4940(3) -0.0285(2)
H17 H 0.2568 0.4662 -0.0624
C20 C 0.3288(6) 0.4812(3) 0.0138(2)
H18 H 0.3896 0.4456 0.0083
C21 C 0.0762(6) 0.5574(3) -0.0660(2)
C22 C -0.0106(6) 0.6142(4) -0.0648(2)
C23 C 0.0661(6) 0.5051(4) -0.1147(2)
C24 C 0.4683(6) 0.4355(3) 0.1123(2)
C25 C 0.5803(6) 0.4419(3) 0.1479(2)
H19 H 0.6046 0.4904 0.1722
C26 C 0.6559(6) 0.3824(3) 0.1494(2)
H20 H 0.7293 0.3896 0.1747
C27 C 0.6237(6) 0.3097(3) 0.1128(2)
C28 C 0.5084(6) 0.2997(3) 0.0798(2)
H21 H 0.4816 0.2498 0.0569
C29 C 0.4323(6) 0.3596(3) 0.0793(2)
H22 H 0.3544 0.3499 0.0564
C30 C 0.8236(7) 0.2624(4) 0.1445(3)
H23 H 0.8646 0.3225 0.1496
H24 H 0.8843 0.2329 0.1258
C31 C 0.8058(7) 0.2296(4) 0.1988(3)
H25 H 0.8905 0.2447 0.2204
H26 H 0.7429 0.2579 0.2169
C32 C 0.7586(8) 0.1377(4) 0.1972(3)
H27 H 0.6755 0.1222 0.1745
H28 H 0.7402 0.1229 0.2337
C33 C 0.8567(10) 0.0862(5) 0.1755(3)
H29 H 0.8647 0.0935 0.1376
H30 H 0.8252 0.0269 0.1801
H31 H 0.9423 0.1055 0.1952
C34 C 0.6699(7) 0.1787(4) 0.0721(2)
H32 H 0.5740 0.1582 0.0691
H33 H 0.7110 0.1340 0.0857
C35 C 0.7139(7) 0.1946(4) 0.0172(2)
H34 H 0.8103 0.2114 0.0194
H35 H 0.6769 0.2414 0.0040
C36 C 0.6709(7) 0.1171(4) -0.0225(3)
H36 H 0.7205 0.1246 -0.0545
H37 H 0.6917 0.0677 -0.0060
C37 C 0.5260(8) 0.1014(5) -0.0390(3)
H38 H 0.5038 0.0542 -0.0663
H39 H 0.5041 0.1514 -0.0533
H40 H 0.4765 0.0885 -0.0079
C38 C 0.1526(7) 0.4669(4) 0.3428(3)
C39 C 0.1092(7) 0.4474(4) 0.3835(3)
C40 C 0.0594(7) 0.4179(4) 0.4317(2)
C41 C 0.1306(7) 0.3856(4) 0.4689(2)
H41 H 0.2198 0.3841 0.4648
C42 C -0.0960(7) 0.3743(4) 0.5044(2)
C43 C -0.1965(8) 0.3582(4) 0.5347(3)
C44 C -0.3620(7) 0.2877(4) 0.5958(3)
H42 H -0.4036 0.2528 0.6208
C45 C -0.4318(8) 0.3253(4) 0.5627(3)
H43 H -0.5241 0.3176 0.5629
S5 S 0.67178(19) 0.79443(10) -0.20309(7)
S6 S 0.5480(2) 0.89284(11) -0.29636(7)
S7 S 0.5353(2) 1.03077(11) -0.21591(8)
S8 S 0.64988(17) 0.93138(10) -0.12340(6)
N6 N 1.3174(6) 0.7754(3) 0.1392(2)
N7 N 1.2535(6) 0.7906(3) 0.3049(2)
N8 N 0.7168(8) 0.3917(4) 0.2928(3)
N9 N 0.6302(7) 0.5478(4) 0.4323(3)
N10 N 0.9685(6) 1.1637(3) 0.3261(2)
C46 C 0.9761(6) 0.8317(4) 0.1456(2)
C47 C 0.9754(8) 0.7564(4) 0.1047(2)
H44 H 1.0659 0.7475 0.1022
H45 H 0.9229 0.7055 0.1173
C48 C 0.9198(7) 0.7697(4) 0.0506(2)
H46 H 0.8405 0.7262 0.0403
H47 H 0.9844 0.7640 0.0242
C49 C 0.8842(7) 0.8573(4) 0.0500(2)
C50 C 1.0073(7) 0.9237(4) 0.0692(3)
H48 H 1.0767 0.9199 0.0447
H49 H 0.9865 0.9802 0.0686
C51 C 1.0565(7) 0.9112(3) 0.1253(2)
H50 H 1.0506 0.9605 0.1496
H51 H 1.1495 0.9065 0.1257
C52 C 0.8334(7) 0.8419(4) 0.1459(2)
H52 H 0.8265 0.8869 0.1734
H53 H 0.7786 0.7893 0.1552
C53 C 0.7823(7) 0.8634(4) 0.0912(2)
H54 H 0.7646 0.9208 0.0944
H55 H 0.6994 0.8243 0.0791
C54 C 1.0332(6) 0.8177(3) 0.2004(2)
C55 C 1.1532(6) 0.8002(4) 0.2094(2)
C56 C 1.2426(7) 0.7874(4) 0.1690(3)
C57 C 1.2063(6) 0.7943(3) 0.2628(3)
C58 C 0.9590(6) 0.8279(3) 0.2485(2)
C59 C 0.8977(6) 0.7575(4) 0.2710(2)
C60 C 0.8854(6) 0.6749(3) 0.2440(2)
H56 H 0.9177 0.6696 0.2098
C61 C 0.8296(6) 0.6050(4) 0.2658(2)
H57 H 0.8220 0.5519 0.2466
C62 C 0.7816(6) 0.6102(4) 0.3177(2)
C63 C 0.7927(7) 0.6914(4) 0.3451(2)
H58 H 0.7612 0.6963 0.3795
C64 C 0.8469(6) 0.7605(4) 0.3230(2)
H59 H 0.8522 0.8134 0.3422
C65 C 0.7277(6) 0.5377(4) 0.3409(2)
C66 C 0.7218(7) 0.4571(4) 0.3149(3)
C67 C 0.6729(7) 0.5415(4) 0.3914(3)
C68 C 0.9609(6) 0.9146(3) 0.2683(2)
C69 C 0.8487(7) 0.9385(4) 0.2892(2)
H60 H 0.7705 0.8981 0.2899
C70 C 0.8533(7) 1.0200(4) 0.3086(2)
H61 H 0.7778 1.0346 0.3228
C71 C 0.9652(7) 1.0817(4) 0.3079(2)
C72 C 1.0761(7) 1.0575(4) 0.2859(2)
H62 H 1.1543 1.0978 0.2847
C73 C 1.0699(7) 0.9764(4) 0.2665(2)
H63 H 1.1442 0.9621 0.2511
C74 C 0.8555(7) 1.1888(4) 0.3499(3)
H64 H 0.7755 1.1628 0.3271
H65 H 0.8652 1.2502 0.3499
C75 C 0.8370(8) 1.1657(4) 0.4057(3)
H66 H 0.9107 1.1976 0.4300
H67 H 0.8372 1.1054 0.4072
C76 C 0.7087(8) 1.1842(5) 0.4243(3)
H68 H 0.7150 1.2455 0.4285
H69 H 0.6376 1.1606 0.3965
C77 C 0.6743(10) 1.1499(5) 0.4749(3)
H70 H 0.6485 1.0889 0.4691
H71 H 0.6015 1.1730 0.4882
H72 H 0.7501 1.1649 0.5010
C78 C 1.0893(7) 1.2264(4) 0.3264(3)
H73 H 1.0673 1.2827 0.3291
H74 H 1.1284 1.2189 0.2921
C79 C 1.1905(7) 1.2223(4) 0.3717(3)
H75 H 1.1549 1.2344 0.4063
H76 H 1.2094 1.1653 0.3707
C80 C 1.3150(7) 1.2844(4) 0.3672(3)
H77 H 1.2951 1.3412 0.3683
H78 H 1.3487 1.2726 0.3322
C81 C 1.4203(9) 1.2830(5) 0.4107(3)
H79 H 1.4466 1.2286 0.4079
H80 H 1.3866 1.2923 0.4456
H81 H 1.4960 1.3272 0.4068
C82 C 0.8338(7) 0.8670(4) -0.0040(3)
C83 C 0.7970(6) 0.8660(4) -0.0495(3)
C84 C 0.7469(6) 0.8604(4) -0.1041(3)
C85 C 0.7570(7) 0.7989(4) -0.1414(3)
H82 H 0.8093 0.7591 -0.1340
C86 C 0.6282(7) 0.8925(4) -0.1904(2)
C87 C 0.5793(7) 0.9331(4) -0.2294(3)
C88 C 0.5184(8) 0.9854(5) -0.3197(3)
H83 H 0.5071 0.9916 -0.3568
C89 C 0.5125(7) 1.0468(5) -0.2831(3)
H84 H 0.4962 1.0988 -0.2934
C90? C 0.166(3) 0.0222(18) 0.4894(10)
H85? H 0.0741 0.0284 0.4851
H86? H 0.1713 -0.0216 0.5140
Cl3? Cl 0.214(2) -0.0114(12) 0.4267(6)
Cl4? Cl 0.262(3) 0.1177(15) 0.5189(10)
Cl5? Cl 0.346(2) 0.0959(11) 0.5853(8)
C91? C 0.3087(17) 0.169(2) 0.5414(18)
H87? H 0.3476 0.2264 0.5570
H88? H 0.3468 0.1595 0.5071
Cl6? Cl 0.1376(17) 0.1586(9) 0.5304(5)
C92? C 0.328(2) 0.091(3) 0.5086(9)
H89? H 0.3805 0.0471 0.5074
H90? H 0.3738 0.1389 0.4908
Cl7? Cl 0.172(3) 0.0519(13) 0.4746(7)
Cl8? Cl 0.310(3) 0.1239(14) 0.5757(7)
loop_
_geom_bond_atom_site_label_1
_geom_bond_atom_site_label_2
_geom_bond_site_symmetry_1
_geom_bond_site_symmetry_2
C1 H1 1_555 1_555
H2 C1 1_555 1_555
Cl1 C1 1_555 1_555
Cl2 C1 1_555 1_555
S1 C41 1_555 1_555
S2 C43 1_555 1_555
S3 C43 1_555 1_555
S4 C40 1_555 1_555
N1 C13 1_555 1_555
N2 C12 1_555 1_555
N3 C22 1_555 1_555
N4 C23 1_555 1_555
N5 C27 1_555 1_555
C2 C3 1_555 1_555
C3 H3 1_555 1_555
H4 C3 1_555 1_555
C4 C3 1_555 1_555
H5 C4 1_555 1_555
H6 C4 1_555 1_555
C5 C4 1_555 1_555
C6 C5 1_555 1_555
H7 C6 1_555 1_555
H8 C6 1_555 1_555
C7 C2 1_555 1_555
H9 C7 1_555 1_555
H10 C7 1_555 1_555
C8 C2 1_555 1_555
H11 C8 1_555 1_555
H12 C8 1_555 1_555
C9 C5 1_555 1_555
H13 C9 1_555 1_555
H14 C9 1_555 1_555
C10 C2 1_555 1_555
C11 C10 1_555 1_555
C12 C11 1_555 1_555
C13 C11 1_555 1_555
C14 C10 1_555 1_555
C15 C14 1_555 1_555
C16 C15 1_555 1_555
H15 C16 1_555 1_555
C17 C16 1_555 1_555
H16 C17 1_555 1_555
C18 C17 1_555 1_555
C19 C18 1_555 1_555
H17 C19 1_555 1_555
C20 C15 1_555 1_555
H18 C20 1_555 1_555
C21 C18 1_555 1_555
C22 C21 1_555 1_555
C23 C21 1_555 1_555
C24 C14 1_555 1_555
C25 C24 1_555 1_555
H19 C25 1_555 1_555
C26 C25 1_555 1_555
H20 C26 1_555 1_555
C27 C26 1_555 1_555
C28 C27 1_555 1_555
H21 C28 1_555 1_555
C29 C24 1_555 1_555
H22 C29 1_555 1_555
C30 N5 1_555 1_555
H23 C30 1_555 1_555
H24 C30 1_555 1_555
C31 C30 1_555 1_555
H25 C31 1_555 1_555
H26 C31 1_555 1_555
C32 C31 1_555 1_555
H27 C32 1_555 1_555
H28 C32 1_555 1_555
C33 C32 1_555 1_555
H29 C33 1_555 1_555
H30 C33 1_555 1_555
H31 C33 1_555 1_555
C34 N5 1_555 1_555
H32 C34 1_555 1_555
H33 C34 1_555 1_555
C35 C34 1_555 1_555
H34 C35 1_555 1_555
H35 C35 1_555 1_555
C36 C35 1_555 1_555
H36 C36 1_555 1_555
H37 C36 1_555 1_555
C37 C36 1_555 1_555
H38 C37 1_555 1_555
H39 C37 1_555 1_555
H40 C37 1_555 1_555
C38 C5 1_555 1_555
C39 C38 1_555 1_555
C40 C39 1_555 1_555
C41 C40 1_555 1_555
H41 C41 1_555 1_555
C42 S1 1_555 1_555
C43 C42 1_555 1_555
C44 S2 1_555 1_555
H42 C44 1_555 1_555
C45 S3 1_555 1_555
H43 C45 1_555 1_555
S5 C85 1_555 1_555
S6 C87 1_555 1_555
S7 C87 1_555 1_555
S8 C84 1_555 1_555
N6 C56 1_555 1_555
N7 C57 1_555 1_555
N8 C66 1_555 1_555
N9 C67 1_555 1_555
N10 C71 1_555 1_555
C46 C47 1_555 1_555
C47 H44 1_555 1_555
H45 C47 1_555 1_555
C48 C47 1_555 1_555
H46 C48 1_555 1_555
H47 C48 1_555 1_555
C49 C48 1_555 1_555
C50 C49 1_555 1_555
H48 C50 1_555 1_555
H49 C50 1_555 1_555
C51 C46 1_555 1_555
H50 C51 1_555 1_555
H51 C51 1_555 1_555
C52 C46 1_555 1_555
H52 C52 1_555 1_555
H53 C52 1_555 1_555
C53 C49 1_555 1_555
H54 C53 1_555 1_555
H55 C53 1_555 1_555
C54 C46 1_555 1_555
C55 C54 1_555 1_555
C56 C55 1_555 1_555
C57 C55 1_555 1_555
C58 C54 1_555 1_555
C59 C58 1_555 1_555
C60 C59 1_555 1_555
H56 C60 1_555 1_555
C61 C60 1_555 1_555
H57 C61 1_555 1_555
C62 C61 1_555 1_555
C63 C62 1_555 1_555
H58 C63 1_555 1_555
C64 C59 1_555 1_555
H59 C64 1_555 1_555
C65 C62 1_555 1_555
C66 C65 1_555 1_555
C67 C65 1_555 1_555
C68 C58 1_555 1_555
C69 C68 1_555 1_555
H60 C69 1_555 1_555
C70 C69 1_555 1_555
H61 C70 1_555 1_555
C71 C70 1_555 1_555
C72 C71 1_555 1_555
H62 C72 1_555 1_555
C73 C68 1_555 1_555
H63 C73 1_555 1_555
C74 N10 1_555 1_555
H64 C74 1_555 1_555
H65 C74 1_555 1_555
C75 C74 1_555 1_555
H66 C75 1_555 1_555
H67 C75 1_555 1_555
C76 C75 1_555 1_555
H68 C76 1_555 1_555
H69 C76 1_555 1_555
C77 C76 1_555 1_555
H70 C77 1_555 1_555
H71 C77 1_555 1_555
H72 C77 1_555 1_555
C78 N10 1_555 1_555
H73 C78 1_555 1_555
H74 C78 1_555 1_555
C79 C78 1_555 1_555
H75 C79 1_555 1_555
H76 C79 1_555 1_555
C80 C79 1_555 1_555
H77 C80 1_555 1_555
H78 C80 1_555 1_555
C81 C80 1_555 1_555
H79 C81 1_555 1_555
H80 C81 1_555 1_555
H81 C81 1_555 1_555
C82 C49 1_555 1_555
C83 C82 1_555 1_555
C84 C83 1_555 1_555
C85 C84 1_555 1_555
H82 C85 1_555 1_555
C86 S5 1_555 1_555
C87 C86 1_555 1_555
C88 S6 1_555 1_555
H83 C88 1_555 1_555
C89 S7 1_555 1_555
H84 C89 1_555 1_555
S4 C42 1_555 1_555
C6 C7 1_555 1_555
C8 C9 1_555 1_555
C19 C20 1_555 1_555
C28 C29 1_555 1_555
C44 C45 1_555 1_555
S8 C86 1_555 1_555
C50 C51 1_555 1_555
C52 C53 1_555 1_555
C63 C64 1_555 1_555
C72 C73 1_555 1_555
C88 C89 1_555 1_555

#END
