
#######################################################################
#
#                 Cambridge Crystallographic Data Centre
#                                CCDC 
#
#######################################################################
#
# If this CIF has been generated from an entry in the Cambridge 
# Structural Database, then it will include bibliographic, chemical, 
# crystal, experimental, refinement or atomic coordinate data resulting 
# from the CCDC's data processing and validation procedures.
#
#######################################################################

data_ISEHAR
_chemical_formula_moiety         'C12 H9 N3 O1 S2'
_chemical_name_systematic        2-methoxy-4,6-bis(2-thienyl)-1,3,5-triazine
_symmetry_cell_setting           monoclinic
_symmetry_space_group_name_H-M   'C 2/c'
_symmetry_Int_Tables_number      15
_space_group_name_Hall           '-C 2yn'
loop_
_symmetry_equiv_pos_site_id
_symmetry_equiv_pos_as_xyz
1 x,y,z
2 -x,y,1/2-z
3 1/2+x,1/2+y,z
4 1/2-x,1/2+y,1/2-z
5 -x,-y,-z
6 x,-y,1/2+z
7 1/2-x,1/2-y,-z
8 1/2+x,1/2-y,1/2+z
_cell_length_a                   30.6659(15)
_cell_length_b                   7.7991(4)
_cell_length_c                   21.6105(11)
_cell_angle_alpha                90
_cell_angle_beta                 97.152(2)
_cell_angle_gamma                90
_cell_volume                     5128.29
_exptl_crystal_colour            colorless
_exptl_crystal_description       block
_cell_formula_units_Z            16
loop_
_atom_site_label
_atom_site_type_symbol
_atom_site_fract_x
_atom_site_fract_y
_atom_site_fract_z
S1 S 0.45633(2) 0.37703(7) 0.56436(3)
S2 S 0.27688(10) 0.7196(4) 0.75603(12)
C1 C 0.3648(4) 0.7358(13) 0.8019(4)
H1 H 0.3952 0.7270 0.8073
O1 O 0.29266(4) 0.4054(2) 0.55780(7)
N1 N 0.38556(5) 0.57465(19) 0.68909(7)
N2 N 0.36582(5) 0.44127(19) 0.59039(7)
N3 N 0.31027(5) 0.5357(2) 0.64960(7)
C2 C 0.39507(5) 0.4986(2) 0.63658(8)
C3 C 0.34244(6) 0.5898(2) 0.69227(8)
C4 C 0.44131(6) 0.4766(2) 0.62924(8)
C5 C 0.32453(6) 0.4623(2) 0.60027(9)
C6 C 0.32988(6) 0.6737(2) 0.74803(9)
C7 C 0.47714(6) 0.5241(3) 0.67068(10)
H2 H 0.4756 0.5793 0.7085
C8 C 0.51022(7) 0.3983(3) 0.59148(12)
H3 H 0.5329 0.3599 0.5702
C9 C 0.28971(9) 0.8121(4) 0.82291(13)
H4 H 0.2685 0.8586 0.8453
C10 C 0.33244(9) 0.8176(3) 0.84394(11)
H5 H 0.3426 0.8681 0.8820
C11 C 0.51663(7) 0.4767(3) 0.64730(12)
H6 H 0.5444 0.4979 0.6686
C12 C 0.30607(8) 0.3200(4) 0.50420(11)
H7 H 0.2807 0.2957 0.4748
H8 H 0.3207 0.2147 0.5170
H9 H 0.3258 0.3927 0.4850
S4 S 0.63637(9) 0.3478(4) 0.58893(10)
C14 C 0.6939(4) 0.1967(17) 0.5343(6)
H13 H 0.7076 0.1366 0.5049
O2 O 0.50207(5) 0.1648(2) 0.45491(8)
N4 N 0.57280(5) 0.1939(2) 0.49071(8)
N5 N 0.62712(5) 0.0926(2) 0.43043(7)
N6 N 0.55150(6) 0.0665(2) 0.39173(8)
C15 C 0.61425(6) 0.1673(2) 0.48095(8)
C16 C 0.64861(7) 0.2241(2) 0.52902(8)
C17 C 0.54341(7) 0.1392(3) 0.44436(10)
C18 C 0.59435(7) 0.0458(2) 0.38758(9)
C19 C 0.68807(8) 0.3539(3) 0.61930(10)
H14 H 0.6968 0.4132 0.6561
C20 C 0.71721(8) 0.2704(3) 0.58924(11)
H15 H 0.7472 0.2619 0.6019
C21 C 0.60607(8) -0.0349(2) 0.33102(10)
C22 C 0.46772(8) 0.1040(4) 0.40870(14)
H16 H 0.4721 0.1491 0.3686
H17 H 0.4398 0.1414 0.4193
H18 H 0.4684 -0.0190 0.4074
C23 C 0.64581(11) -0.1560(3) 0.25495(12)
H19 H 0.6702 -0.1909 0.2366
C24 C 0.60376(12) -0.1660(3) 0.23202(13)
H20 H 0.5958 -0.2175 0.1935
S5 S 0.56565(16) -0.0883(8) 0.2712(2)
C25 C 0.6447(3) -0.0768(19) 0.3161(7)
H21 H 0.6703 -0.0570 0.3430
H10? H 0.2668 0.8590 0.8417
H11? H 0.3436 0.8708 0.8811
S3? S 0.3609(3) 0.7294(12) 0.8016(4)
C13? C 0.2863(6) 0.717(3) 0.7639(10)
H12? H 0.2600 0.6875 0.7399
S6? S 0.66081(12) -0.0681(6) 0.3235(2)
C26? C 0.5785(5) -0.090(3) 0.2830(7)
H22? H 0.5480 -0.0843 0.2805
H23? H 0.6936 0.4199 0.6552
H24? H 0.7470 0.2731 0.6042
H25? H 0.6671 -0.1991 0.2320
H26? H 0.5920 -0.2094 0.1934
S7? S 0.69986(16) 0.1638(8) 0.5259(3)
C27? C 0.6467(5) 0.319(2) 0.5839(7)
H27? H 0.6203 0.3561 0.5962
loop_
_geom_bond_atom_site_label_1
_geom_bond_atom_site_label_2
_geom_bond_site_symmetry_1
_geom_bond_site_symmetry_2
S1 C4 1_555 1_555
S2 C6 1_555 1_555
C1 H1 1_555 1_555
O1 C5 1_555 1_555
N1 C2 1_555 1_555
N2 C2 1_555 1_555
N3 C3 1_555 1_555
C2 C4 1_555 1_555
C3 N1 1_555 1_555
C4 C7 1_555 1_555
C5 N2 1_555 1_555
C6 C1 1_555 1_555
C7 H2 1_555 1_555
C8 S1 1_555 1_555
H3 C8 1_555 1_555
C9 S2 1_555 1_555
H4 C9 1_555 1_555
C10 C1 1_555 1_555
H5 C10 1_555 1_555
C11 C7 1_555 1_555
H6 C11 1_555 1_555
C12 O1 1_555 1_555
H7 C12 1_555 1_555
H8 C12 1_555 1_555
H9 C12 1_555 1_555
S4 C16 1_555 1_555
C14 H13 1_555 1_555
O2 C17 1_555 1_555
N4 C15 1_555 1_555
N5 C15 1_555 1_555
N6 C17 1_555 1_555
C15 C16 1_555 1_555
C16 C14 1_555 1_555
C17 N4 1_555 1_555
C18 N5 1_555 1_555
C19 S4 1_555 1_555
H14 C19 1_555 1_555
C20 C14 1_555 1_555
H15 C20 1_555 1_555
C21 C18 1_555 1_555
C22 O2 1_555 1_555
H16 C22 1_555 1_555
H17 C22 1_555 1_555
H18 C22 1_555 1_555
C23 H19 1_555 1_555
C24 C23 1_555 1_555
H20 C24 1_555 1_555
S5 C21 1_555 1_555
C25 C21 1_555 1_555
H21 C25 1_555 1_555
N3 C5 1_555 1_555
C3 C6 1_555 1_555
C8 C11 1_555 1_555
C9 C10 1_555 1_555
N6 C18 1_555 1_555
C19 C20 1_555 1_555
C23 C25 1_555 1_555
C24 S5 1_555 1_555

#END
