
#######################################################################
#
#                 Cambridge Crystallographic Data Centre
#                                CCDC 
#
#######################################################################
#
# If this CIF has been generated from an entry in the Cambridge 
# Structural Database, then it will include bibliographic, chemical, 
# crystal, experimental, refinement or atomic coordinate data resulting 
# from the CCDC's data processing and validation procedures.
#
#######################################################################

data_ISEJIA
_chemical_name_common            
N,N'-bis(3-ethoxy-2-hydroxybenzylidene)phenylene-1,3-diamine
_chemical_formula_moiety         'C24 H24 N2 O4'
_chemical_name_systematic        
2,2'-(1,3-Phenylenebis(nitrilomethylylidene))bis(6-ethoxyphenol)
_symmetry_cell_setting           orthorhombic
_symmetry_space_group_name_H-M   'P 21 21 21'
_symmetry_Int_Tables_number      19
_space_group_name_Hall           'P 2ac 2ab'
loop_
_symmetry_equiv_pos_site_id
_symmetry_equiv_pos_as_xyz
1 x,y,z
2 1/2-x,-y,1/2+z
3 -x,1/2+y,1/2-z
4 1/2+x,1/2-y,-z
_cell_length_a                   6.9103(8)
_cell_length_b                   15.5025(17)
_cell_length_c                   19.304(2)
_cell_angle_alpha                90
_cell_angle_beta                 90
_cell_angle_gamma                90
_cell_volume                     2067.98
_exptl_crystal_colour            orange
_exptl_crystal_description       stick
_cell_formula_units_Z            4
loop_
_atom_site_label
_atom_site_type_symbol
_atom_site_fract_x
_atom_site_fract_y
_atom_site_fract_z
O1 O 0.3815(3) 0.52448(12) -0.02828(9)
H1 H 0.476(5) 0.489(2) -0.0108(18)
O2 O 0.1846(3) 0.65159(11) -0.08299(9)
O3 O 0.3938(3) 0.18764(11) 0.21964(9)
H2 H 0.493(4) 0.214(2) 0.1916(16)
O4 O 0.2053(2) 0.09441(11) 0.31135(8)
N1 N 0.7008(3) 0.43705(12) -0.02141(10)
N2 N 0.7063(3) 0.21246(13) 0.14680(10)
C1 C 0.8199(3) 0.37954(15) 0.01708(12)
C2 C 1.0199(4) 0.38204(17) 0.01862(13)
H3 H 1.0889 0.4207 -0.0105
C3 C 1.1180(4) 0.32767(18) 0.06308(14)
H4 H 1.2553 0.3301 0.0645
C4 C 1.0226(4) 0.26982(17) 0.10560(13)
H5 H 1.0932 0.2332 0.1359
C5 C 0.8213(3) 0.26612(15) 0.10341(12)
C6 C 0.7227(4) 0.32152(15) 0.05952(12)
H6 H 0.5853 0.3198 0.0584
C7 C 0.7641(4) 0.47906(15) -0.07413(11)
H7 H 0.8902 0.4671 -0.0913
C8 C 0.6467(4) 0.54449(15) -0.10806(12)
C9 C 0.4640(3) 0.56631(14) -0.08232(12)
C10 C 0.3586(4) 0.63440(15) -0.11283(12)
C11 C 0.4369(4) 0.67743(16) -0.16910(12)
H8 H 0.3662 0.7229 -0.1903
C12 C 0.6175(4) 0.65486(16) -0.19490(13)
H9 H 0.6692 0.6850 -0.2335
C13 C 0.7218(4) 0.58949(17) -0.16514(12)
H10 H 0.8453 0.5746 -0.1832
C14 C 0.0906(4) 0.73125(17) -0.10164(14)
H11 H 0.0352 0.7268 -0.1488
H12 H 0.1852 0.7792 -0.1012
C15 C -0.0656(4) 0.74788(19) -0.05037(15)
H13 H -0.1582 0.7000 -0.0511
H14 H -0.1324 0.8016 -0.0623
H15 H -0.0092 0.7530 -0.0040
C16 C 0.7702(4) 0.13935(16) 0.16893(12)
H16 H 0.8929 0.1195 0.1535
C17 C 0.6597(4) 0.08659(15) 0.21677(12)
C18 C 0.4787(4) 0.11340(15) 0.24135(12)
C19 C 0.3801(4) 0.06299(15) 0.29008(11)
C20 C 0.4622(4) -0.01394(16) 0.31218(13)
H17 H 0.3958 -0.0485 0.3451
C21 C 0.6400(4) -0.04101(16) 0.28689(13)
H18 H 0.6941 -0.0939 0.3024
C22 C 0.7376(4) 0.00830(16) 0.23972(12)
H19 H 0.8590 -0.0107 0.2224
C23 C 0.1116(4) 0.04992(17) 0.36723(13)
H20 H 0.2023 0.0431 0.4066
H21 H 0.0703 -0.0082 0.3519
C24 C -0.0602(4) 0.10128(18) 0.38927(14)
H22 H -0.0179 0.1583 0.4051
H23 H -0.1267 0.0714 0.4271
H24 H -0.1488 0.1079 0.3500
loop_
_geom_bond_atom_site_label_1
_geom_bond_atom_site_label_2
_geom_bond_site_symmetry_1
_geom_bond_site_symmetry_2
O1 H1 1_555 1_555
O2 C10 1_555 1_555
O3 H2 1_555 1_555
O4 C19 1_555 1_555
N1 C1 1_555 1_555
N2 C5 1_555 1_555
C1 C2 1_555 1_555
C2 H3 1_555 1_555
C3 C2 1_555 1_555
H4 C3 1_555 1_555
C4 C3 1_555 1_555
H5 C4 1_555 1_555
C5 C4 1_555 1_555
C6 C1 1_555 1_555
H6 C6 1_555 1_555
C7 N1 1_555 1_555
H7 C7 1_555 1_555
C8 C7 1_555 1_555
C9 O1 1_555 1_555
C10 C9 1_555 1_555
C11 C10 1_555 1_555
H8 C11 1_555 1_555
C12 C11 1_555 1_555
H9 C12 1_555 1_555
C13 C8 1_555 1_555
H10 C13 1_555 1_555
C14 O2 1_555 1_555
H11 C14 1_555 1_555
H12 C14 1_555 1_555
C15 C14 1_555 1_555
H13 C15 1_555 1_555
H14 C15 1_555 1_555
H15 C15 1_555 1_555
C16 N2 1_555 1_555
H16 C16 1_555 1_555
C17 C16 1_555 1_555
C18 O3 1_555 1_555
C19 C18 1_555 1_555
C20 C19 1_555 1_555
H17 C20 1_555 1_555
C21 C20 1_555 1_555
H18 C21 1_555 1_555
C22 C17 1_555 1_555
H19 C22 1_555 1_555
C23 O4 1_555 1_555
H20 C23 1_555 1_555
H21 C23 1_555 1_555
C24 C23 1_555 1_555
H22 C24 1_555 1_555
H23 C24 1_555 1_555
H24 C24 1_555 1_555
C5 C6 1_555 1_555
C8 C9 1_555 1_555
C12 C13 1_555 1_555
C17 C18 1_555 1_555
C21 C22 1_555 1_555

#END
