
#######################################################################
#
#                 Cambridge Crystallographic Data Centre
#                                CCDC 
#
#######################################################################
#
# If this CIF has been generated from an entry in the Cambridge 
# Structural Database, then it will include bibliographic, chemical, 
# crystal, experimental, refinement or atomic coordinate data resulting 
# from the CCDC's data processing and validation procedures.
#
#######################################################################

data_ISEJAS
_chemical_formula_moiety         'C10 H11 N1 O3'
_chemical_name_systematic        
(E)-3-(3,4-dihydroxyphenyl)-N-methylacrylamide
_symmetry_cell_setting           orthorhombic
_symmetry_space_group_name_H-M   'P b c a'
_symmetry_Int_Tables_number      61
_space_group_name_Hall           '-P 2ac 2ab'
loop_
_symmetry_equiv_pos_site_id
_symmetry_equiv_pos_as_xyz
1 x,y,z
2 1/2-x,-y,1/2+z
3 -x,1/2+y,1/2-z
4 1/2+x,1/2-y,-z
5 -x,-y,-z
6 1/2+x,y,1/2-z
7 x,1/2-y,1/2+z
8 1/2-x,1/2+y,z
_cell_length_a                   5.053(3)
_cell_length_b                   14.685(7)
_cell_length_c                   24.866(12)
_cell_angle_alpha                90
_cell_angle_beta                 90
_cell_angle_gamma                90
_cell_volume                     1845.14
_exptl_crystal_colour            colorless
_exptl_crystal_description       block
_cell_formula_units_Z            8
loop_
_atom_site_label
_atom_site_type_symbol
_atom_site_fract_x
_atom_site_fract_y
_atom_site_fract_z
N1 N -0.1191(3) 0.84804(12) 0.63329(6)
H1 H -0.2683 0.8296 0.6207
C1 C 0.3322(4) 0.92899(12) 0.41334(6)
H2 H 0.4681 0.9613 0.4298
C2 C 0.3164(3) 0.92774(11) 0.35779(6)
C3 C 0.1176(3) 0.87760(12) 0.33309(6)
C4 C -0.0644(4) 0.83135(13) 0.36401(7)
H3 H -0.1982 0.7983 0.3473
C5 C -0.0504(4) 0.83358(12) 0.41965(7)
H4 H -0.1745 0.8020 0.4400
C6 C 0.1483(3) 0.88279(11) 0.44515(6)
C7 C 0.1748(4) 0.88789(11) 0.50367(7)
H5 H 0.3318 0.9132 0.5162
C8 C 0.0055(4) 0.86131(12) 0.54119(7)
H6 H -0.1562 0.8363 0.5311
C9 C 0.0702(3) 0.87082(11) 0.59881(7)
C10 C -0.0865(5) 0.85274(17) 0.69120(8)
H7 H -0.2468 0.8332 0.7084
H8 H -0.0478 0.9143 0.7015
H9 H 0.0567 0.8138 0.7019
O1 O 0.4883(3) 0.97258(9) 0.32496(5)
H10 H 0.5609 1.0135 0.3418
O2 O 0.0941(3) 0.87489(10) 0.27840(5)
H11 H 0.2418 0.8750 0.2647
O3 O 0.2913(3) 0.89631(10) 0.61421(5)
loop_
_geom_bond_atom_site_label_1
_geom_bond_atom_site_label_2
_geom_bond_site_symmetry_1
_geom_bond_site_symmetry_2
N1 H1 1_555 1_555
C1 H2 1_555 1_555
C2 C1 1_555 1_555
C3 C2 1_555 1_555
C4 C3 1_555 1_555
H3 C4 1_555 1_555
C5 C4 1_555 1_555
H4 C5 1_555 1_555
C6 C1 1_555 1_555
C7 C6 1_555 1_555
H5 C7 1_555 1_555
C8 C7 1_555 1_555
H6 C8 1_555 1_555
C9 N1 1_555 1_555
C10 N1 1_555 1_555
H7 C10 1_555 1_555
H8 C10 1_555 1_555
H9 C10 1_555 1_555
O1 C2 1_555 1_555
H10 O1 1_555 1_555
O2 C3 1_555 1_555
H11 O2 1_555 1_555
O3 C9 1_555 1_555
C5 C6 1_555 1_555
C8 C9 1_555 1_555

#END
