
#######################################################################
#
#                 Cambridge Crystallographic Data Centre
#                                CCDC 
#
#######################################################################
#
# If this CIF has been generated from an entry in the Cambridge 
# Structural Database, then it will include bibliographic, chemical, 
# crystal, experimental, refinement or atomic coordinate data resulting 
# from the CCDC's data processing and validation procedures.
#
#######################################################################

data_ISELEY
_chemical_formula_moiety         'C15 H14 N2 O2'
_chemical_name_systematic        
(Z)-3-(2-Hydroxyphenylamino)-1-(pyridin-3-yl)but-2-en-1-one
_symmetry_cell_setting           monoclinic
_symmetry_space_group_name_H-M   'P 21/n'
_symmetry_Int_Tables_number      14
_space_group_name_Hall           '-P 2yn'
loop_
_symmetry_equiv_pos_site_id
_symmetry_equiv_pos_as_xyz
1 x,y,z
2 1/2-x,1/2+y,1/2-z
3 -x,-y,-z
4 1/2+x,1/2-y,1/2+z
_cell_length_a                   12.252(2)
_cell_length_b                   7.7187(14)
_cell_length_c                   14.500(3)
_cell_angle_alpha                90
_cell_angle_beta                 112.731(7)
_cell_angle_gamma                90
_cell_volume                     1264.75
_exptl_crystal_colour            yellow
_exptl_crystal_description       block
_cell_formula_units_Z            4
loop_
_atom_site_label
_atom_site_type_symbol
_atom_site_fract_x
_atom_site_fract_y
_atom_site_fract_z
C1 C 0.5179(2) 0.2859(3) 1.23972(18)
H1 H 0.5874 0.2684 1.2293
C2 C 0.5246(2) 0.3144(3) 1.33576(18)
H2 H 0.5975 0.3146 1.3893
C3 C 0.4225(3) 0.3425(3) 1.35131(18)
H3 H 0.4262 0.3642 1.4155
C4 C 0.3141(2) 0.3385(4) 1.27175(18)
H4 H 0.2453 0.3567 1.2831
C5 C 0.3066(2) 0.3077(3) 1.17471(17)
C6 C 0.4112(2) 0.2824(3) 1.15870(16)
C7 C 0.3124(2) -0.0209(3) 1.03903(18)
H5 H 0.3203 0.0049 1.1061
H6 H 0.3555 -0.1248 1.0390
H7 H 0.2303 -0.0372 0.9975
C8 C 0.3610(2) 0.1264(3) 0.99916(16)
C9 C 0.3586(2) 0.1174(3) 0.90339(16)
H8 H 0.3217 0.0219 0.8649
C10 C 0.4080(2) 0.2418(3) 0.85904(17)
C11 C 0.4015(2) 0.2031(3) 0.75519(16)
C12 C 0.3084(2) 0.1123(3) 0.68452(17)
H9 H 0.2437 0.0787 0.6988
C13 C 0.3125(2) 0.0724(3) 0.59339(17)
H10 H 0.2495 0.0159 0.5445
C14 C 0.4110(2) 0.1174(3) 0.57594(17)
H11 H 0.4147 0.0854 0.5154
N1 N 0.50221(18) 0.2052(3) 0.64174(14)
C15 C 0.4948(2) 0.2494(3) 0.72852(17)
H12 H 0.5559 0.3151 0.7735
N2 N 0.40858(17) 0.2614(3) 1.05984(14)
O1 O 0.20120(15) 0.3013(3) 1.09507(12)
O2 O 0.46019(15) 0.3759(2) 0.90239(12)
H13 H 0.443(2) 0.337(3) 1.0328(19)
H14 H 0.135(3) 0.294(4) 1.118(2)
loop_
_geom_bond_atom_site_label_1
_geom_bond_atom_site_label_2
_geom_bond_site_symmetry_1
_geom_bond_site_symmetry_2
C1 H1 1_555 1_555
C2 C1 1_555 1_555
H2 C2 1_555 1_555
C3 C2 1_555 1_555
H3 C3 1_555 1_555
C4 C3 1_555 1_555
H4 C4 1_555 1_555
C5 C4 1_555 1_555
C6 C1 1_555 1_555
C7 H5 1_555 1_555
H6 C7 1_555 1_555
H7 C7 1_555 1_555
C8 C7 1_555 1_555
C9 C8 1_555 1_555
H8 C9 1_555 1_555
C10 C9 1_555 1_555
C11 C10 1_555 1_555
C12 C11 1_555 1_555
H9 C12 1_555 1_555
C13 C12 1_555 1_555
H10 C13 1_555 1_555
C14 C13 1_555 1_555
H11 C14 1_555 1_555
N1 C14 1_555 1_555
C15 C11 1_555 1_555
H12 C15 1_555 1_555
N2 C6 1_555 1_555
O1 C5 1_555 1_555
O2 C10 1_555 1_555
H13 N2 1_555 1_555
H14 O1 1_555 1_555
C5 C6 1_555 1_555
C8 N2 1_555 1_555
N1 C15 1_555 1_555

#END
