
#######################################################################
#
#                 Cambridge Crystallographic Data Centre
#                                CCDC 
#
#######################################################################
#
# If this CIF has been generated from an entry in the Cambridge 
# Structural Database, then it will include bibliographic, chemical, 
# crystal, experimental, refinement or atomic coordinate data resulting 
# from the CCDC's data processing and validation procedures.
#
#######################################################################

data_ISEVIN
_chemical_formula_moiety         'C30 H34 N2 O7'
_chemical_name_systematic        
"3'-benzyl 1,1'-di-t-butyl (R)-5-methyl-2-oxospiro[indoline-3,2'-pyrrole]-1,1',3'(5'H)-tricarboxylate"
_symmetry_cell_setting           monoclinic
_symmetry_space_group_name_H-M   'P 21'
_symmetry_Int_Tables_number      4
_space_group_name_Hall           'P 2yb'
loop_
_symmetry_equiv_pos_site_id
_symmetry_equiv_pos_as_xyz
1 x,y,z
2 -x,1/2+y,-z
_cell_length_a                   9.3185(3)
_cell_length_b                   10.7407(3)
_cell_length_c                   14.4491(4)
_cell_angle_alpha                90
_cell_angle_beta                 100.1600(10)
_cell_angle_gamma                90
_cell_volume                     1423.49
_exptl_crystal_colour            colorless
_exptl_crystal_description       Block
_cell_formula_units_Z            2
_exptl_crystal_recrystallization_method dichloromethane/hexane
loop_
_atom_site_label
_atom_site_type_symbol
_atom_site_fract_x
_atom_site_fract_y
_atom_site_fract_z
O1 O 0.49144(13) 0.49528(13) 0.60999(8)
O2 O 0.49192(12) 0.31456(12) 0.73586(8)
O3 O 0.65973(14) 0.32987(13) 0.86928(8)
O4 O 0.38671(12) 0.68632(12) 0.76816(8)
O5 O 0.27033(13) 0.84331(13) 0.67732(9)
O6 O 0.91582(13) 0.69823(13) 0.54290(8)
O7 O 0.86288(14) 0.54786(13) 0.64092(9)
N1 N 0.62197(14) 0.49077(14) 0.76445(9)
N2 N 0.48826(14) 0.76720(14) 0.65456(9)
C1 C 0.61228(17) 0.68327(17) 0.67979(11)
C2 C 0.56436(17) 0.54475(17) 0.67632(11)
C3 C 0.70259(17) 0.58193(17) 0.82420(11)
C4 C 0.69712(17) 0.69565(17) 0.77836(11)
C5 C 0.76165(17) 0.80028(17) 0.82247(11)
H1 H 0.7566 0.8774 0.7899
C6 C 0.83492(17) 0.79214(18) 0.91586(12)
C7 C 0.83840(18) 0.67767(19) 0.96038(11)
H2 H 0.8874 0.6716 1.0237
C8 C 0.77339(18) 0.57082(18) 0.91675(12)
H3 H 0.7774 0.4935 0.9491
C9 C 0.9106(2) 0.9042(2) 0.96569(13)
H4 H 0.9227 0.8919 1.0338
H5 H 0.8516 0.9788 0.9479
H6 H 1.0064 0.9144 0.9476
C10 C 0.59506(18) 0.37070(17) 0.79593(11)
C11 C 0.43675(19) 0.19043(18) 0.75894(12)
C12 C 0.3616(2) 0.2034(2) 0.84364(14)
H7 H 0.4332 0.2283 0.8986
H8 H 0.3182 0.1234 0.8562
H9 H 0.2850 0.2667 0.8307
C13 C 0.5585(2) 0.09525(19) 0.77387(13)
H10 H 0.6131 0.0999 0.7219
H11 H 0.5171 0.0117 0.7762
H12 H 0.6242 0.1126 0.8333
C14 C 0.3276(2) 0.16059(19) 0.67105(13)
H13 H 0.2525 0.2254 0.6607
H14 H 0.2820 0.0799 0.6787
H15 H 0.3778 0.1571 0.6169
C15 C 0.70027(17) 0.71554(16) 0.60391(11)
C16 C 0.63757(18) 0.80474(17) 0.54727(11)
H16 H 0.6783 0.8394 0.4972
C17 C 0.49532(18) 0.84385(18) 0.57186(11)
H17 H 0.4951 0.9337 0.5871
H18 H 0.4133 0.8255 0.5202
C18 C 0.37158(17) 0.77196(17) 0.69924(11)
C19 C 0.29360(19) 0.6901(2) 0.84122(11)
C20 C 0.3611(2) 0.5891(2) 0.90841(14)
H19 H 0.3555 0.5092 0.8752
H20 H 0.3080 0.5833 0.9611
H21 H 0.4634 0.6096 0.9323
C21 C 0.3074(3) 0.8159(2) 0.88874(14)
H22 H 0.4107 0.8354 0.9100
H23 H 0.2573 0.8144 0.9429
H24 H 0.2632 0.8797 0.8441
C22 C 0.1376(2) 0.6579(2) 0.79783(14)
H25 H 0.0980 0.7228 0.7528
H26 H 0.0784 0.6524 0.8474
H27 H 0.1358 0.5778 0.7653
C23 C 0.83406(18) 0.64405(17) 0.59877(11)
C24 C 1.0498(2) 0.6328(2) 0.53043(13)
H28 H 1.0464 0.5450 0.5508
H29 H 1.1361 0.6732 0.5684
C25 C 1.05879(17) 0.63914(19) 0.42773(12)
C26 C 1.02733(19) 0.5355(2) 0.37059(15)
H30 H 1.0042 0.4585 0.3967
C27 C 1.0297(2) 0.5447(2) 0.27468(14)
H31 H 1.0077 0.4739 0.2353
C28 C 1.0640(2) 0.6565(2) 0.23658(13)
H32 H 1.0656 0.6624 0.1712
C29 C 1.0958(2) 0.7596(2) 0.29334(14)
H33 H 1.1192 0.8365 0.2671
C30 C 1.09376(19) 0.75075(19) 0.38897(13)
H34 H 1.1164 0.8217 0.4281
loop_
_geom_bond_atom_site_label_1
_geom_bond_atom_site_label_2
_geom_bond_site_symmetry_1
_geom_bond_site_symmetry_2
O1 C2 1_555 1_555
O2 C10 1_555 1_555
O3 C10 1_555 1_555
O4 C18 1_555 1_555
O5 C18 1_555 1_555
O6 C23 1_555 1_555
O7 C23 1_555 1_555
N1 C2 1_555 1_555
N2 C1 1_555 1_555
C1 C2 1_555 1_555
C3 N1 1_555 1_555
C4 C1 1_555 1_555
C5 C4 1_555 1_555
H1 C5 1_555 1_555
C6 C5 1_555 1_555
C7 C6 1_555 1_555
H2 C7 1_555 1_555
C8 C3 1_555 1_555
H3 C8 1_555 1_555
C9 C6 1_555 1_555
H4 C9 1_555 1_555
H5 C9 1_555 1_555
H6 C9 1_555 1_555
C10 N1 1_555 1_555
C11 O2 1_555 1_555
C12 C11 1_555 1_555
H7 C12 1_555 1_555
H8 C12 1_555 1_555
H9 C12 1_555 1_555
C13 C11 1_555 1_555
H10 C13 1_555 1_555
H11 C13 1_555 1_555
H12 C13 1_555 1_555
C14 C11 1_555 1_555
H13 C14 1_555 1_555
H14 C14 1_555 1_555
H15 C14 1_555 1_555
C15 C1 1_555 1_555
C16 C15 1_555 1_555
H16 C16 1_555 1_555
C17 N2 1_555 1_555
H17 C17 1_555 1_555
H18 C17 1_555 1_555
C18 N2 1_555 1_555
C19 O4 1_555 1_555
C20 C19 1_555 1_555
H19 C20 1_555 1_555
H20 C20 1_555 1_555
H21 C20 1_555 1_555
C21 C19 1_555 1_555
H22 C21 1_555 1_555
H23 C21 1_555 1_555
H24 C21 1_555 1_555
C22 C19 1_555 1_555
H25 C22 1_555 1_555
H26 C22 1_555 1_555
H27 C22 1_555 1_555
C23 C15 1_555 1_555
C24 O6 1_555 1_555
H28 C24 1_555 1_555
H29 C24 1_555 1_555
C25 C24 1_555 1_555
C26 C25 1_555 1_555
H30 C26 1_555 1_555
C27 C26 1_555 1_555
H31 C27 1_555 1_555
C28 C27 1_555 1_555
H32 C28 1_555 1_555
C29 C28 1_555 1_555
H33 C29 1_555 1_555
C30 C25 1_555 1_555
H34 C30 1_555 1_555
C3 C4 1_555 1_555
C7 C8 1_555 1_555
C16 C17 1_555 1_555
C29 C30 1_555 1_555

#END
