
#######################################################################
#
#                 Cambridge Crystallographic Data Centre
#                                CCDC 
#
#######################################################################
#
# If this CIF has been generated from an entry in the Cambridge 
# Structural Database, then it will include bibliographic, chemical, 
# crystal, experimental, refinement or atomic coordinate data resulting 
# from the CCDC's data processing and validation procedures.
#
#######################################################################

data_ISIBOC
_chemical_formula_moiety         'C10 H11 N3,C10 H12 N3 1+,C7 H5 O3 1-,2(H2 O1)'
_chemical_name_systematic        
'5,7-Dimethyl-1,8-naphthyridin-2-aminium 4-hydroxybenzoate 5,7-dimethyl-1,8-naphthyridin-2-amine dihydrate'
_symmetry_cell_setting           triclinic
_symmetry_space_group_name_H-M   'P -1'
_symmetry_Int_Tables_number      2
_space_group_name_Hall           '-P 1'
loop_
_symmetry_equiv_pos_site_id
_symmetry_equiv_pos_as_xyz
1 x,y,z
2 -x,-y,-z
_cell_length_a                   8.597(2)
_cell_length_b                   12.554(3)
_cell_length_c                   12.762(3)
_cell_angle_alpha                96.008(2)
_cell_angle_beta                 107.332(2)
_cell_angle_gamma                91.396(2)
_cell_volume                     1305.36
_exptl_crystal_colour            colorless
_exptl_crystal_description       block
_cell_formula_units_Z            2
loop_
_atom_site_label
_atom_site_type_symbol
_atom_site_fract_x
_atom_site_fract_y
_atom_site_fract_z
N1 N 0.2938(6) 0.9694(4) 0.5874(4)
N2 N 0.1589(6) 1.0533(4) 0.4361(4)
N3 N 0.0218(6) 1.1440(4) 0.2927(4)
H1 H -0.0157 1.1839 0.3375
H2 H -0.0042 1.1538 0.2241
C8 C 0.2640(7) 0.9733(5) 0.4792(6)
C9 C 0.1200(8) 1.0672(5) 0.3296(6)
C10 C 0.1777(8) 0.9967(5) 0.2556(5)
H15 H 0.1457 1.0037 0.1804
C11 C 0.2791(8) 0.9199(5) 0.2957(6)
H16 H 0.3199 0.8760 0.2479
C12 C 0.3242(7) 0.9051(5) 0.4088(6)
C13 C 0.4333(8) 0.8297(5) 0.4598(6)
C14 C 0.4616(8) 0.8231(5) 0.5713(6)
H17 H 0.5280 0.7714 0.6051
C15 C 0.3907(7) 0.8941(5) 0.6336(6)
C16 C 0.5061(8) 0.7513(5) 0.3911(6)
H18 H 0.4731 0.7669 0.3158
H19 H 0.4683 0.6795 0.3942
H20 H 0.6230 0.7581 0.4200
C17 C 0.4219(8) 0.8895(5) 0.7531(6)
H21 H 0.3646 0.9442 0.7820
H22 H 0.5369 0.9010 0.7901
H23 H 0.3846 0.8204 0.7649
N4 N 0.9294(6) 0.3012(4) 0.4394(4)
N5 N 1.0512(6) 0.2132(4) 0.5886(4)
N6 N 1.1792(6) 0.1241(4) 0.7359(4)
H3 H 1.2029 0.0851 0.6809
H4 H 1.1238 0.0829 0.7667
H5 H 1.2712 0.1510 0.7863
C18 C 0.9592(7) 0.2958(4) 0.5504(6)
C19 C 1.0884(7) 0.2045(5) 0.6961(6)
C20 C 1.0368(9) 0.2773(5) 0.7725(6)
H24 H 1.0670 0.2704 0.8477
C21 C 0.9413(9) 0.3568(5) 0.7291(6)
H25 H 0.9027 0.4036 0.7757
C22 C 0.8993(8) 0.3704(5) 0.6166(6)
C23 C 0.8011(8) 0.4498(5) 0.5650(7)
C24 C 0.7743(8) 0.4552(5) 0.4543(7)
H26 H 0.7124 0.5085 0.4197
C25 C 0.8409(8) 0.3797(5) 0.3942(6)
C26 C 0.7328(10) 0.5361(5) 0.6329(7)
H27 H 0.7607 0.5212 0.7083
H28 H 0.6162 0.5348 0.6024
H29 H 0.7792 0.6056 0.6300
C27 C 0.8141(9) 0.3839(5) 0.2730(6)
H30 H 0.8654 0.3254 0.2444
H31 H 0.8607 0.4506 0.2623
H32 H 0.6992 0.3783 0.2349
O1 O 0.3473(6) 0.8889(4) 0.0255(4)
O2 O 0.1001(6) 0.8193(3) -0.0712(4)
O3 O 0.4218(5) 0.4113(3) 0.1433(4)
H6 H 0.3473 0.3651 0.1166
C1 C 0.2442(9) 0.8107(5) -0.0082(6)
C2 C 0.2880(7) 0.7033(5) 0.0286(5)
C3 C 0.4425(8) 0.6909(5) 0.1002(5)
H11 H 0.5178 0.7495 0.1234
C4 C 0.4863(9) 0.5932(5) 0.1374(6)
H12 H 0.5897 0.5867 0.1856
C5 C 0.3762(8) 0.5052(5) 0.1030(5)
C6 C 0.2232(8) 0.5168(5) 0.0305(5)
H13 H 0.1483 0.4581 0.0059
C7 C 0.1824(8) 0.6133(5) -0.0045(5)
H14 H 0.0789 0.6191 -0.0530
O4 O 0.2033(6) 0.2472(3) 0.0729(5)
H7 H 0.1018 0.2407 0.0656
H8 H 0.2255 0.1884 0.0426
O5 O 0.3220(5) 0.0861(3) 0.9636(3)
H9 H 0.3270 0.0240 0.9850
H10 H 0.4185 0.1016 0.9628
loop_
_geom_bond_atom_site_label_1
_geom_bond_atom_site_label_2
_geom_bond_site_symmetry_1
_geom_bond_site_symmetry_2
N1 C8 1_555 1_555
N2 C8 1_555 1_555
N3 H1 1_555 1_555
H2 N3 1_555 1_555
N4 C18 1_555 1_555
N5 C18 1_555 1_555
N6 H3 1_555 1_555
H4 N6 1_555 1_555
H5 N6 1_555 1_555
O1 C1 1_555 1_555
O2 C1 1_555 1_555
O3 H6 1_555 1_555
O4 H7 1_555 1_555
H8 O4 1_555 1_555
O5 H9 1_555 1_555
H10 O5 1_555 1_555
C1 C2 1_555 1_555
C2 C3 1_555 1_555
C3 H11 1_555 1_555
C4 C3 1_555 1_555
H12 C4 1_555 1_555
C5 O3 1_555 1_555
C6 C5 1_555 1_555
H13 C6 1_555 1_555
C7 C2 1_555 1_555
H14 C7 1_555 1_555
C8 C12 1_555 1_555
C9 N2 1_555 1_555
C10 C9 1_555 1_555
H15 C10 1_555 1_555
C11 C10 1_555 1_555
H16 C11 1_555 1_555
C12 C11 1_555 1_555
C13 C12 1_555 1_555
C14 C13 1_555 1_555
H17 C14 1_555 1_555
C15 N1 1_555 1_555
C16 C13 1_555 1_555
H18 C16 1_555 1_555
H19 C16 1_555 1_555
H20 C16 1_555 1_555
C17 C15 1_555 1_555
H21 C17 1_555 1_555
H22 C17 1_555 1_555
H23 C17 1_555 1_555
C18 C22 1_555 1_555
C19 N5 1_555 1_555
C20 C19 1_555 1_555
H24 C20 1_555 1_555
C21 C20 1_555 1_555
H25 C21 1_555 1_555
C22 C21 1_555 1_555
C23 C22 1_555 1_555
C24 C23 1_555 1_555
H26 C24 1_555 1_555
C25 N4 1_555 1_555
C26 C23 1_555 1_555
H27 C26 1_555 1_555
H28 C26 1_555 1_555
H29 C26 1_555 1_555
C27 C25 1_555 1_555
H30 C27 1_555 1_555
H31 C27 1_555 1_555
H32 C27 1_555 1_555
N3 C9 1_555 1_555
N6 C19 1_555 1_555
C4 C5 1_555 1_555
C6 C7 1_555 1_555
C14 C15 1_555 1_555
C24 C25 1_555 1_555

#END
