
#######################################################################
#
#                 Cambridge Crystallographic Data Centre
#                                CCDC 
#
#######################################################################
#
# If this CIF has been generated from an entry in the Cambridge 
# Structural Database, then it will include bibliographic, chemical, 
# crystal, experimental, refinement or atomic coordinate data resulting 
# from the CCDC's data processing and validation procedures.
#
#######################################################################

data_ISICIX
_chemical_formula_moiety         'C9 H9 N2 S1 1+,C4 H3 O4 1-'
_chemical_name_systematic        '2-Amino-4-phenylthiazolium hydrogen maleate'
_symmetry_cell_setting           orthorhombic
_symmetry_space_group_name_H-M   'P b c a'
_symmetry_Int_Tables_number      61
_space_group_name_Hall           '-P 2ac 2ab'
loop_
_symmetry_equiv_pos_site_id
_symmetry_equiv_pos_as_xyz
1 x,y,z
2 1/2-x,-y,1/2+z
3 -x,1/2+y,1/2-z
4 1/2+x,1/2-y,-z
5 -x,-y,-z
6 1/2+x,y,1/2-z
7 x,1/2-y,1/2+z
8 1/2-x,1/2+y,z
_cell_length_a                   12.7241(14)
_cell_length_b                   7.3388(6)
_cell_length_c                   29.109(2)
_cell_angle_alpha                90
_cell_angle_beta                 90
_cell_angle_gamma                90
_cell_volume                     2718.19
_exptl_crystal_colour            colorless
_exptl_crystal_description       block
_cell_formula_units_Z            8
loop_
_atom_site_label
_atom_site_type_symbol
_atom_site_fract_x
_atom_site_fract_y
_atom_site_fract_z
N1 N 0.02839(17) 1.0501(3) 0.60612(7)
H1 H -0.0329 1.0275 0.6172
N2 N -0.03476(19) 1.1668(3) 0.53695(8)
H2 H -0.0988 1.1494 0.5453
H3 H -0.0214 1.2132 0.5105
S1 S 0.17369(6) 1.15188(12) 0.55271(3)
C1 C 0.0424(2) 1.1226(4) 0.56456(10)
C2 C 0.1204(2) 1.0140(4) 0.63010(9)
C3 C 0.2045(2) 1.0634(4) 0.60573(10)
H5 H 0.2731 1.0512 0.6164
C4 C 0.1169(2) 0.9257(4) 0.67566(10)
C5 C 0.2052(2) 0.9293(4) 0.70406(10)
H6 H 0.2651 0.9920 0.6948
C6 C 0.2042(3) 0.8406(5) 0.74571(11)
H7 H 0.2634 0.8448 0.7644
C7 C 0.1175(3) 0.7464(5) 0.76000(10)
H8 H 0.1182 0.6853 0.7880
C8 C 0.0293(2) 0.7424(4) 0.73286(10)
H9 H -0.0302 0.6793 0.7425
C9 C 0.0290(2) 0.8324(4) 0.69102(10)
H10 H -0.0312 0.8300 0.6729
O1 O 0.42492(17) 0.1445(3) 0.55984(8)
O2 O 0.58842(16) 0.1814(3) 0.54017(7)
H4 H 0.6469 0.1571 0.5503
O3 O 0.76083(16) 0.1078(3) 0.57085(7)
O4 O 0.82609(15) -0.0067(3) 0.63519(7)
C10 C 0.5174(2) 0.1196(4) 0.56797(10)
C11 C 0.5507(2) 0.0227(4) 0.61020(10)
H11 H 0.4954 -0.0215 0.6279
C12 C 0.6444(2) -0.0123(4) 0.62723(10)
H12 H 0.6436 -0.0763 0.6548
C13 C 0.7510(2) 0.0327(4) 0.61004(9)
loop_
_geom_bond_atom_site_label_1
_geom_bond_atom_site_label_2
_geom_bond_site_symmetry_1
_geom_bond_site_symmetry_2
N1 H1 1_555 1_555
N2 H2 1_555 1_555
H3 N2 1_555 1_555
O1 C10 1_555 1_555
O2 H4 1_555 1_555
O3 C13 1_555 1_555
O4 C13 1_555 1_555
S1 C1 1_555 1_555
C1 N1 1_555 1_555
C2 N1 1_555 1_555
C3 S1 1_555 1_555
H5 C3 1_555 1_555
C4 C2 1_555 1_555
C5 C4 1_555 1_555
H6 C5 1_555 1_555
C6 C5 1_555 1_555
H7 C6 1_555 1_555
C7 C6 1_555 1_555
H8 C7 1_555 1_555
C8 C7 1_555 1_555
H9 C8 1_555 1_555
C9 C4 1_555 1_555
H10 C9 1_555 1_555
C10 O2 1_555 1_555
C11 C10 1_555 1_555
H11 C11 1_555 1_555
C12 C11 1_555 1_555
H12 C12 1_555 1_555
C13 C12 1_555 1_555
N2 C1 1_555 1_555
C2 C3 1_555 1_555
C8 C9 1_555 1_555

#END
