
#######################################################################
#
#                 Cambridge Crystallographic Data Centre
#                                CCDC 
#
#######################################################################
#
# If this CIF has been generated from an entry in the Cambridge 
# Structural Database, then it will include bibliographic, chemical, 
# crystal, experimental, refinement or atomic coordinate data resulting 
# from the CCDC's data processing and validation procedures.
#
#######################################################################

data_ISICAP
_chemical_formula_moiety         'C10 H12 N3 1+,C4 H3 O4 1-'
_chemical_name_systematic        
'2-Amino-5,7-dimethyl-1,8-naphthyridinium hydrogen maleate'
_symmetry_cell_setting           monoclinic
_symmetry_space_group_name_H-M   'C 2/c'
_symmetry_Int_Tables_number      15
_space_group_name_Hall           '-C 2yn'
loop_
_symmetry_equiv_pos_site_id
_symmetry_equiv_pos_as_xyz
1 x,y,z
2 -x,y,1/2-z
3 1/2+x,1/2+y,z
4 1/2-x,1/2+y,1/2-z
5 -x,-y,-z
6 x,-y,1/2+z
7 1/2-x,1/2-y,-z
8 1/2+x,1/2-y,1/2+z
_cell_length_a                   17.1529(16)
_cell_length_b                   7.3086(8)
_cell_length_c                   23.442(2)
_cell_angle_alpha                90
_cell_angle_beta                 104.722(2)
_cell_angle_gamma                90
_cell_volume                     2842.3
_exptl_crystal_colour            colorless
_exptl_crystal_description       block
_cell_formula_units_Z            8
loop_
_atom_site_label
_atom_site_type_symbol
_atom_site_fract_x
_atom_site_fract_y
_atom_site_fract_z
N1 N 0.59923(16) 0.2133(4) 0.54157(11)
N2 N 0.66320(16) 0.0836(4) 0.47671(11)
H1 H 0.7045 0.0725 0.5063
N3 N 0.53511(18) 0.3377(4) 0.60661(12)
H2 H 0.5794 0.3303 0.6338
H3 H 0.4926 0.3818 0.6146
C5 C 0.5324(2) 0.2812(4) 0.55264(14)
C6 C 0.4580(2) 0.2949(5) 0.50767(16)
H7 H 0.4119 0.3388 0.5169
C7 C 0.4556(2) 0.2439(4) 0.45226(16)
H8 H 0.4081 0.2557 0.4227
C8 C 0.5258(2) 0.1719(4) 0.43870(13)
C9 C 0.59461(19) 0.1595(4) 0.48620(14)
C10 C 0.6693(2) 0.0257(5) 0.42376(14)
C11 C 0.6029(2) 0.0416(5) 0.37661(15)
H9 H 0.6066 0.0033 0.3396
C12 C 0.5309(2) 0.1126(5) 0.38259(15)
C13 C 0.7476(2) -0.0538(5) 0.42022(15)
H10 H 0.7896 0.0350 0.4333
H11 H 0.7448 -0.0876 0.3802
H12 H 0.7591 -0.1602 0.4449
C14 C 0.4596(2) 0.1248(7) 0.32986(15)
H13 H 0.4761 0.1785 0.2974
H14 H 0.4186 0.1994 0.3394
H15 H 0.4386 0.0044 0.3191
O1 O 0.39468(16) 0.4397(4) 0.64365(10)
O2 O 0.30482(14) 0.5171(3) 0.56174(10)
O3 O 0.39802(18) 0.3909(5) 0.74707(11)
H4 H 0.3981 0.4064 0.7124
O4 O 0.31932(18) 0.4490(5) 0.80408(11)
C1 C 0.3263(2) 0.5010(5) 0.61618(15)
C2 C 0.2685(2) 0.5585(6) 0.65007(15)
H5 H 0.2227 0.6179 0.6280
C3 C 0.2716(2) 0.5390(6) 0.70663(16)
H6 H 0.2272 0.5870 0.7175
C4 C 0.3326(3) 0.4549(6) 0.75601(16)
loop_
_geom_bond_atom_site_label_1
_geom_bond_atom_site_label_2
_geom_bond_site_symmetry_1
_geom_bond_site_symmetry_2
N1 C5 1_555 1_555
N2 H1 1_555 1_555
N3 H2 1_555 1_555
H3 N3 1_555 1_555
O1 C1 1_555 1_555
O2 C1 1_555 1_555
O3 H4 1_555 1_555
O4 C4 1_555 1_555
C1 C2 1_555 1_555
C2 H5 1_555 1_555
C3 C2 1_555 1_555
H6 C3 1_555 1_555
C4 O3 1_555 1_555
C5 N3 1_555 1_555
C6 C5 1_555 1_555
H7 C6 1_555 1_555
C7 C6 1_555 1_555
H8 C7 1_555 1_555
C8 C7 1_555 1_555
C9 N1 1_555 1_555
C10 N2 1_555 1_555
C11 C10 1_555 1_555
H9 C11 1_555 1_555
C12 C8 1_555 1_555
C13 C10 1_555 1_555
H10 C13 1_555 1_555
H11 C13 1_555 1_555
H12 C13 1_555 1_555
C14 C12 1_555 1_555
H13 C14 1_555 1_555
H14 C14 1_555 1_555
H15 C14 1_555 1_555
N2 C9 1_555 1_555
C3 C4 1_555 1_555
C8 C9 1_555 1_555
C11 C12 1_555 1_555

#END
