
#######################################################################
#
#                 Cambridge Crystallographic Data Centre
#                                CCDC 
#
#######################################################################
#
# If this CIF has been generated from an entry in the Cambridge 
# Structural Database, then it will include bibliographic, chemical, 
# crystal, experimental, refinement or atomic coordinate data resulting 
# from the CCDC's data processing and validation procedures.
#
#######################################################################

data_ISIFEX
_chemical_formula_moiety         'C14 H20 F1 N1 O1 S1'
_chemical_name_systematic        
(R~S~)-N-((S,Z)-3-fluoro-4-phenylbut-3-en-2-yl)-2-methylpropane-2-sulfinamide
_symmetry_cell_setting           orthorhombic
_symmetry_space_group_name_H-M   'P 21 21 21'
_symmetry_Int_Tables_number      19
_space_group_name_Hall           'P 2ac 2ab'
loop_
_symmetry_equiv_pos_site_id
_symmetry_equiv_pos_as_xyz
1 x,y,z
2 1/2-x,-y,1/2+z
3 -x,1/2+y,1/2-z
4 1/2+x,1/2-y,-z
_cell_length_a                   5.8914(3)
_cell_length_b                   9.9667(5)
_cell_length_c                   25.1734(13)
_cell_angle_alpha                90
_cell_angle_beta                 90
_cell_angle_gamma                90
_cell_volume                     1478.13
_exptl_crystal_colour            colorless
_exptl_crystal_description       block
_cell_formula_units_Z            4
loop_
_atom_site_label
_atom_site_type_symbol
_atom_site_fract_x
_atom_site_fract_y
_atom_site_fract_z
S1 S 0.89290(5) 1.02598(3) 0.99021(2)
C1 C 1.0838(2) 0.97574(14) 1.04448(5)
C2 C 0.8345(2) 0.78415(15) 0.81788(5)
C3 C 1.0114(2) 0.97836(15) 0.86792(5)
C4 C 1.0063(2) 1.11279(14) 0.89459(5)
H1 H 0.8474 1.1480 0.8942
C5 C 1.2000(3) 1.09789(16) 1.06843(6)
H2 H 1.0873 1.1685 1.0747
H3 H 1.3162 1.1310 1.0438
H4 H 1.2715 1.0729 1.1022
C6 C 0.8383(2) 0.91420(15) 0.84570(5)
H5 H 0.6960 0.9586 0.8481
C7 C 1.0122(3) 0.69129(15) 0.81945(7)
H6 H 1.1480 0.7129 0.8379
C8 C 0.9255(3) 0.90948(16) 1.08501(6)
H7 H 0.8532 0.8309 1.0689
H8 H 0.8085 0.9737 1.0959
H9 H 1.0134 0.8815 1.1161
C9 C 1.2535(3) 0.87436(18) 1.02244(7)
H10 H 1.3457 0.8384 1.0515
H11 H 1.3523 0.9187 0.9965
H12 H 1.1714 0.8009 1.0051
C10 C 0.9922(3) 0.56735(17) 0.79423(7)
H13 H 1.1133 0.5046 0.7961
C11 C 1.1615(3) 1.21286(17) 0.86668(6)
H14 H 1.1496 1.3005 0.8841
H15 H 1.1160 1.2213 0.8294
H16 H 1.3188 1.1812 0.8686
C12 C 0.6214(3) 0.62547(19) 0.76408(6)
H17 H 0.4873 0.6033 0.7451
C13 C 0.7973(3) 0.53522(19) 0.76647(6)
H18 H 0.7850 0.4509 0.7491
C14 C 0.6387(3) 0.74955(16) 0.78945(6)
H19 H 0.5162 0.8113 0.7874
F1 F 1.22432(15) 0.92578(10) 0.86582(4)
N1 N 1.0829(2) 1.09832(13) 0.95034(4)
O1 O 0.73601(18) 1.12817(11) 1.01352(4)
H20 H 1.147(3) 1.172(2) 0.9649(8)
loop_
_geom_bond_atom_site_label_1
_geom_bond_atom_site_label_2
_geom_bond_site_symmetry_1
_geom_bond_site_symmetry_2
S1 C1 1_555 1_555
C1 C5 1_555 1_555
C2 C6 1_555 1_555
C3 C4 1_555 1_555
C4 H1 1_555 1_555
C5 H2 1_555 1_555
H3 C5 1_555 1_555
H4 C5 1_555 1_555
C6 C3 1_555 1_555
H5 C6 1_555 1_555
C7 C2 1_555 1_555
H6 C7 1_555 1_555
C8 C1 1_555 1_555
H7 C8 1_555 1_555
H8 C8 1_555 1_555
H9 C8 1_555 1_555
C9 C1 1_555 1_555
H10 C9 1_555 1_555
H11 C9 1_555 1_555
H12 C9 1_555 1_555
C10 C7 1_555 1_555
H13 C10 1_555 1_555
C11 C4 1_555 1_555
H14 C11 1_555 1_555
H15 C11 1_555 1_555
H16 C11 1_555 1_555
C12 H17 1_555 1_555
C13 C10 1_555 1_555
H18 C13 1_555 1_555
C14 C2 1_555 1_555
H19 C14 1_555 1_555
F1 C3 1_555 1_555
N1 S1 1_555 1_555
O1 S1 1_555 1_555
H20 N1 1_555 1_555
C4 N1 1_555 1_555
C12 C13 1_555 1_555
C12 C14 1_555 1_555

#END
