
#######################################################################
#
#                 Cambridge Crystallographic Data Centre
#                                CCDC 
#
#######################################################################
#
# If this CIF has been generated from an entry in the Cambridge 
# Structural Database, then it will include bibliographic, chemical, 
# crystal, experimental, refinement or atomic coordinate data resulting 
# from the CCDC's data processing and validation procedures.
#
#######################################################################

data_ISIGUO
_chemical_formula_moiety         'C20 H14 N2 O2'
_chemical_name_systematic        
2-(1-oxidopyridin-2-yl)-3-phenylisoquinolin-1(2H)-one
_symmetry_cell_setting           monoclinic
_symmetry_space_group_name_H-M   'P 21/n'
_symmetry_Int_Tables_number      14
_space_group_name_Hall           '-P 2yn'
loop_
_symmetry_equiv_pos_site_id
_symmetry_equiv_pos_as_xyz
1 x,y,z
2 1/2-x,1/2+y,1/2-z
3 -x,-y,-z
4 1/2+x,1/2-y,1/2+z
_cell_length_a                   14.1952(6)
_cell_length_b                   10.5165(4)
_cell_length_c                   22.0684(9)
_cell_angle_alpha                90
_cell_angle_beta                 108.5290(10)
_cell_angle_gamma                90
_cell_volume                     3123.68
_exptl_crystal_colour            colorless
_exptl_crystal_description       block
_cell_formula_units_Z            8
loop_
_atom_site_label
_atom_site_type_symbol
_atom_site_fract_x
_atom_site_fract_y
_atom_site_fract_z
O1 O 0.48605(9) 0.23491(11) 0.18019(6)
O2 O 0.31446(8) 0.26544(14) 0.02649(6)
N1 N 0.44474(9) 0.34539(12) 0.16667(6)
N2 N 0.47348(9) 0.33426(13) 0.06712(6)
C1 C 0.38813(14) 0.04257(18) -0.11026(8)
H1 H 0.3409 -0.0040 -0.1412
C2 C 0.48694(14) 0.03904(17) -0.10769(8)
H2 H 0.5057 -0.0103 -0.1369
C3 C 0.55696(13) 0.10753(17) -0.06258(8)
H3 H 0.6229 0.1051 -0.0617
C4 C 0.53045(11) 0.18137(15) -0.01767(7)
C5 C 0.60181(11) 0.25250(16) 0.03140(8)
H4 H 0.6687 0.2474 0.0347
C6 C 0.57470(11) 0.32604(15) 0.07257(7)
C7 C 0.64818(11) 0.40159(15) 0.12255(7)
C8 C 0.72666(12) 0.34039(18) 0.16674(8)
H5 H 0.7294 0.2520 0.1670
C9 C 0.80089(14) 0.4085(2) 0.21040(9)
H6 H 0.8531 0.3657 0.2397
C10 C 0.79813(14) 0.5389(2) 0.21082(9)
H7 H 0.8485 0.5847 0.2400
C11 C 0.36190(12) 0.52130(18) 0.19422(9)
H8 H 0.3354 0.5600 0.2231
C12 C 0.40368(12) 0.40336(17) 0.20739(8)
H9 H 0.4041 0.3621 0.2447
C13 C 0.44041(11) 0.40582(15) 0.11126(7)
C14 C 0.39715(13) 0.52258(18) 0.09709(9)
H10 H 0.3938 0.5616 0.0586
C15 C 0.35855(14) 0.58313(18) 0.13903(9)
H11 H 0.3309 0.6639 0.1302
C16 C 0.39962(11) 0.26133(17) 0.02441(8)
C17 C 0.43048(11) 0.18513(16) -0.02099(7)
C18 C 0.64603(14) 0.53360(17) 0.12373(9)
H12 H 0.5941 0.5772 0.0946
C19 C 0.72063(15) 0.60077(19) 0.16795(10)
H13 H 0.7180 0.6891 0.1685
C20 C 0.35984(12) 0.11455(17) -0.06721(8)
H14 H 0.2936 0.1163 -0.0688
O3 O 0.28599(8) 0.25637(13) 0.47503(6)
O4 O 0.33235(9) 0.24207(11) 0.31811(5)
N3 N 0.29737(9) 0.34710(12) 0.33286(6)
N4 N 0.40872(8) 0.32606(12) 0.43808(6)
C21 C 0.18528(14) 0.5209(2) 0.30269(10)
H15 H 0.1348 0.5624 0.2715
C22 C 0.22258(13) 0.40938(19) 0.28841(8)
H16 H 0.1965 0.3752 0.2476
C23 C 0.33452(10) 0.39761(15) 0.39243(7)
C24 C 0.50731(10) 0.32078(15) 0.43677(7)
C25 C 0.53602(10) 0.40017(15) 0.38979(7)
C26 C 0.52354(14) 0.53120(17) 0.38632(9)
H17 H 0.4921 0.5716 0.4121
C27 C 0.55766(15) 0.60197(19) 0.34467(10)
H18 H 0.5485 0.6896 0.3423
C28 C 0.60509(14) 0.5429(2) 0.30685(9)
H19 H 0.6281 0.5907 0.2790
C29 C 0.48890(15) 0.02929(17) 0.61360(8)
H20 H 0.4702 -0.0188 0.6433
C30 C 0.41968(13) 0.10236(16) 0.57001(8)
H21 H 0.3541 0.1034 0.5700
C31 C 0.44785(11) 0.17521(15) 0.52569(7)
C32 C 0.37418(11) 0.25226(15) 0.47947(7)
C33 C 0.61849(12) 0.4139(2) 0.31008(8)
H22 H 0.6507 0.3743 0.2845
C34 C 0.58426(12) 0.34257(17) 0.35121(8)
H23 H 0.5936 0.2549 0.3531
C35 C 0.57321(11) 0.24710(15) 0.47899(7)
H24 H 0.6383 0.2440 0.4782
C36 C 0.54648(11) 0.17276(15) 0.52543(7)
C37 C 0.61545(13) 0.09711(16) 0.57068(8)
H25 H 0.6813 0.0950 0.5713
C38 C 0.58693(14) 0.02663(17) 0.61369(8)
H26 H 0.6333 -0.0235 0.6433
C39 C 0.22162(14) 0.57220(19) 0.36262(10)
H27 H 0.1963 0.6480 0.3727
C40 C 0.29663(13) 0.50867(17) 0.40755(9)
H28 H 0.3219 0.5415 0.4487
loop_
_geom_bond_atom_site_label_1
_geom_bond_atom_site_label_2
_geom_bond_site_symmetry_1
_geom_bond_site_symmetry_2
O1 N1 1_555 1_555
O2 C16 1_555 1_555
N1 C12 1_555 1_555
N2 C6 1_555 1_555
C1 H1 1_555 1_555
C2 C1 1_555 1_555
H2 C2 1_555 1_555
C3 C2 1_555 1_555
H3 C3 1_555 1_555
C4 C3 1_555 1_555
C5 C4 1_555 1_555
H4 C5 1_555 1_555
C6 C5 1_555 1_555
C7 C6 1_555 1_555
C8 C7 1_555 1_555
H5 C8 1_555 1_555
C9 C8 1_555 1_555
H6 C9 1_555 1_555
C10 C9 1_555 1_555
H7 C10 1_555 1_555
C11 H8 1_555 1_555
C12 C11 1_555 1_555
H9 C12 1_555 1_555
C13 N1 1_555 1_555
C14 C13 1_555 1_555
H10 C14 1_555 1_555
C15 C11 1_555 1_555
H11 C15 1_555 1_555
C16 N2 1_555 1_555
C17 C4 1_555 1_555
C18 C7 1_555 1_555
H12 C18 1_555 1_555
C19 C10 1_555 1_555
H13 C19 1_555 1_555
C20 C1 1_555 1_555
H14 C20 1_555 1_555
O3 C32 1_555 1_555
O4 N3 1_555 1_555
N3 C22 1_555 1_555
N4 C23 1_555 1_555
C21 H15 1_555 1_555
C22 C21 1_555 1_555
H16 C22 1_555 1_555
C23 N3 1_555 1_555
C24 N4 1_555 1_555
C25 C24 1_555 1_555
C26 C25 1_555 1_555
H17 C26 1_555 1_555
C27 C26 1_555 1_555
H18 C27 1_555 1_555
C28 C27 1_555 1_555
H19 C28 1_555 1_555
C29 H20 1_555 1_555
C30 C29 1_555 1_555
H21 C30 1_555 1_555
C31 C30 1_555 1_555
C32 N4 1_555 1_555
C33 C28 1_555 1_555
H22 C33 1_555 1_555
C34 C25 1_555 1_555
H23 C34 1_555 1_555
C35 C24 1_555 1_555
H24 C35 1_555 1_555
C36 C31 1_555 1_555
C37 C36 1_555 1_555
H25 C37 1_555 1_555
C38 C29 1_555 1_555
H26 C38 1_555 1_555
C39 C21 1_555 1_555
H27 C39 1_555 1_555
C40 C23 1_555 1_555
H28 C40 1_555 1_555
N2 C13 1_555 1_555
C14 C15 1_555 1_555
C16 C17 1_555 1_555
C17 C20 1_555 1_555
C18 C19 1_555 1_555
C31 C32 1_555 1_555
C33 C34 1_555 1_555
C35 C36 1_555 1_555
C37 C38 1_555 1_555
C39 C40 1_555 1_555

#END
