
#######################################################################
#
#                 Cambridge Crystallographic Data Centre
#                                CCDC 
#
#######################################################################
#
# If this CIF has been generated from an entry in the Cambridge 
# Structural Database, then it will include bibliographic, chemical, 
# crystal, experimental, refinement or atomic coordinate data resulting 
# from the CCDC's data processing and validation procedures.
#
#######################################################################

data_ISIHIC
_chemical_formula_moiety         'C28 H37 N4 O1 1+,Cl1 1-'
_chemical_name_systematic        
'(5R)-N-[1-Ethyl-1-(4-methylphenyl)propyl]-2,7,7-trimethyl-5-phenyl-4,5,6,7-tetrahydropyrazolo[1,5-a]pyrimidine-3-carboxamide hydrochloride'
_chemical_properties_biological  
'tested for calcium-sensing receptor antagonist activity'
_symmetry_cell_setting           orthorhombic
_symmetry_space_group_name_H-M   'P 21 21 21'
_symmetry_Int_Tables_number      19
_space_group_name_Hall           'P 2ac 2ab'
loop_
_symmetry_equiv_pos_site_id
_symmetry_equiv_pos_as_xyz
1 x,y,z
2 1/2-x,-y,1/2+z
3 1/2+x,1/2-y,-z
4 -x,1/2+y,1/2-z
_cell_length_a                   7.244(1)
_cell_length_b                   15.279(2)
_cell_length_c                   24.775(4)
_cell_angle_alpha                90
_cell_angle_beta                 90
_cell_angle_gamma                90
_cell_volume                     2742.12
_exptl_crystal_colour            colorless
_exptl_crystal_description       block
_cell_formula_units_Z            4
loop_
_atom_site_label
_atom_site_type_symbol
_atom_site_fract_x
_atom_site_fract_y
_atom_site_fract_z
C1 C 0.0024(4) 0.7068(1) 0.58831(9)
C2 C -0.1616(5) 0.7547(2) 0.5798(1)
C3 C -0.2948(5) 0.7228(2) 0.5467(1)
C4 C -0.2735(4) 0.6440(2) 0.5226(1)
C5 C -0.1147(3) 0.5956(2) 0.53077(9)
C6 C 0.0258(3) 0.6263(1) 0.56323(8)
C7 C 0.2065(3) 0.5773(1) 0.57033(7)
N1 N 0.2521(2) 0.5343(1) 0.51962(7)
C8 C 0.3734(3) 0.4682(1) 0.51851(7)
C9 C 0.4539(2) 0.4258(1) 0.47372(7)
C10 C 0.5734(3) 0.3640(1) 0.49585(7)
N2 N 0.5580(2) 0.3662(1) 0.54981(6)
N3 N 0.4350(2) 0.4309(1) 0.56370(6)
C11 C 0.3869(3) 0.4554(1) 0.61993(7)
C12 C 0.2042(3) 0.5070(1) 0.61412(8)
C13 C 0.7103(3) 0.3039(2) 0.47076(8)
C14 C 0.3568(3) 0.3722(1) 0.65286(8)
C15 C 0.5435(3) 0.5100(2) 0.64394(9)
C16 C 0.4216(3) 0.4575(1) 0.41861(7)
O1 O 0.3544(2) 0.53140(9) 0.41202(5)
N4 N 0.4752(2) 0.4060(1) 0.37779(5)
C17 C 0.4818(2) 0.4347(1) 0.32084(7)
C18 C 0.5683(3) 0.3555(1) 0.29055(7)
C19 C 0.5815(4) 0.3647(2) 0.22982(8)
C20 C 0.2858(3) 0.4556(1) 0.30001(8)
C21 C 0.1428(3) 0.3862(2) 0.3119(1)
C22 C 0.6132(3) 0.5133(1) 0.31668(7)
C23 C 0.7593(3) 0.5237(1) 0.35208(8)
C24 C 0.8845(3) 0.5915(1) 0.34731(8)
C25 C 0.8699(4) 0.6518(2) 0.30609(9)
C26 C 0.7265(4) 0.6412(2) 0.27029(9)
C27 C 0.5997(3) 0.5741(2) 0.27518(8)
C28 C 1.0104(4) 0.7245(2) 0.3004(1)
H1 H 0.0944 0.7291 0.6106
H2 H -0.1785 0.8083 0.5969
H3 H -0.4014 0.7552 0.5405
H4 H -0.3663 0.6222 0.5004
H5 H -0.1025 0.5413 0.5141
H6 H 0.3038 0.6197 0.5788
H7 H 0.2439(3) 0.5622(8) 0.4917(8)
H8 H 0.642(2) 0.3423(5) 0.5742(5)
H9 H 0.1056 0.4659 0.6062
H10 H 0.1760 0.5345 0.6484
H11 H 0.7697 0.2700 0.4984
H12 H 0.8011 0.3374 0.4516
H13 H 0.6483 0.2653 0.4461
H14 H 0.2574 0.3391 0.6374
H15 H 0.3265 0.3876 0.6894
H16 H 0.4675 0.3377 0.6525
H17 H 0.5607 0.5619 0.6227
H18 H 0.6554 0.4763 0.6439
H19 H 0.5128 0.5261 0.6803
H20 H 0.4799(2) 0.351(1) 0.3821(1)
H21 H 0.6914 0.3458 0.3047
H22 H 0.4956 0.3038 0.2986
H23 H 0.6360 0.3129 0.2148
H24 H 0.6566 0.4145 0.2211
H25 H 0.4601 0.3727 0.2150
H26 H 0.2456 0.5103 0.3160
H27 H 0.2918 0.4642 0.2612
H28 H 0.0256 0.4042 0.2977
H29 H 0.1327 0.3784 0.3503
H30 H 0.1792 0.3320 0.2955
H31 H 0.7736 0.4837 0.3801
H32 H 0.9799 0.5965 0.3722
H33 H 0.7144 0.6805 0.2419
H34 H 0.5039 0.5696 0.2503
H35 H 1.0977 0.7210 0.3295
H36 H 0.9486 0.7800 0.3016
H37 H 1.0739 0.7185 0.2666
Cl1 Cl 0.37619(8) 0.19136(4) 0.38486(2)
loop_
_geom_bond_atom_site_label_1
_geom_bond_atom_site_label_2
_geom_bond_site_symmetry_1
_geom_bond_site_symmetry_2
C1 C2 1_555 1_555
C2 C3 1_555 1_555
C3 C4 1_555 1_555
C4 C5 1_555 1_555
C5 C6 1_555 1_555
C6 C1 1_555 1_555
C7 C6 1_555 1_555
N1 C7 1_555 1_555
C8 N1 1_555 1_555
C9 C8 1_555 1_555
C10 C9 1_555 1_555
N2 C10 1_555 1_555
N3 C8 1_555 1_555
C11 N3 1_555 1_555
C12 C7 1_555 1_555
C13 C10 1_555 1_555
C14 C11 1_555 1_555
C15 C11 1_555 1_555
C16 C9 1_555 1_555
O1 C16 1_555 1_555
N4 C16 1_555 1_555
C17 N4 1_555 1_555
C18 C17 1_555 1_555
C19 C18 1_555 1_555
C20 C17 1_555 1_555
C21 C20 1_555 1_555
C22 C17 1_555 1_555
C23 C22 1_555 1_555
C24 C23 1_555 1_555
C25 C24 1_555 1_555
C26 C25 1_555 1_555
C27 C22 1_555 1_555
C28 C25 1_555 1_555
H1 C1 1_555 1_555
H2 C2 1_555 1_555
H3 C3 1_555 1_555
H4 C4 1_555 1_555
H5 C5 1_555 1_555
H6 C7 1_555 1_555
H7 N1 1_555 1_555
H8 N2 1_555 1_555
H9 C12 1_555 1_555
H10 C12 1_555 1_555
H11 C13 1_555 1_555
H12 C13 1_555 1_555
H13 C13 1_555 1_555
H14 C14 1_555 1_555
H15 C14 1_555 1_555
H16 C14 1_555 1_555
H17 C15 1_555 1_555
H18 C15 1_555 1_555
H19 C15 1_555 1_555
H20 N4 1_555 1_555
H21 C18 1_555 1_555
H22 C18 1_555 1_555
H23 C19 1_555 1_555
H24 C19 1_555 1_555
H25 C19 1_555 1_555
H26 C20 1_555 1_555
H27 C20 1_555 1_555
H28 C21 1_555 1_555
H29 C21 1_555 1_555
H30 C21 1_555 1_555
H31 C23 1_555 1_555
H32 C24 1_555 1_555
H33 C26 1_555 1_555
H34 C27 1_555 1_555
H35 C28 1_555 1_555
H36 C28 1_555 1_555
H37 C28 1_555 1_555
N2 N3 1_555 1_555
C11 C12 1_555 1_555
C26 C27 1_555 1_555

#END
