
#######################################################################
#
#                 Cambridge Crystallographic Data Centre
#                                CCDC 
#
#######################################################################
#
# If this CIF has been generated from an entry in the Cambridge 
# Structural Database, then it will include bibliographic, chemical, 
# crystal, experimental, refinement or atomic coordinate data resulting 
# from the CCDC's data processing and validation procedures.
#
#######################################################################

data_ISIHOJ01
_chemical_formula_moiety         'C16 H11 N1 O2'
_chemical_name_systematic        
'phenyl(4-phenyl-1,3-oxazol-2-yl)methanone unknown solvate'
_symmetry_cell_setting           triclinic
_symmetry_space_group_name_H-M   'P -1'
_symmetry_Int_Tables_number      2
_space_group_name_Hall           '-P 1'
loop_
_symmetry_equiv_pos_site_id
_symmetry_equiv_pos_as_xyz
1 x,y,z
2 -x,-y,-z
_cell_length_a                   4.656
_cell_length_b                   23.275
_cell_length_c                   23.281
_cell_angle_alpha                108.40
_cell_angle_beta                 91.13
_cell_angle_gamma                91.10
_cell_volume                     2392.62
_cell_formula_units_Z            8
_exptl_crystal_recrystallization_method Ethanol
_exptl_crystal_preparation       ', Luminescent'
loop_
_atom_site_label
_atom_site_type_symbol
_atom_site_fract_x
_atom_site_fract_y
_atom_site_fract_z
C1 C -0.627(3) -0.6032(6) -0.1251(6)
C2 C -0.755(3) -0.6218(7) -0.1804(7)
H1 H -0.7066 -0.6033 -0.2090
C3 C -0.964(3) -0.6699(7) -0.1951(7)
H2 H -1.0528 -0.6840 -0.2333
C4 C -1.032(3) -0.6953(8) -0.1494(7)
H3 H -1.1674 -0.7269 -0.1576
C5 C -0.901(3) -0.6739(7) -0.0926(7)
H4 H -0.9523 -0.6906 -0.0627
C6 C -0.699(3) -0.6287(7) -0.0802(7)
H5 H -0.6088 -0.6147 -0.0422
C7 C -0.408(3) -0.5545(7) -0.1094(6)
C8 C -0.250(3) -0.5251(7) -0.0596(7)
H6 H -0.2643 -0.5316 -0.0223
C9 C 0.050(3) -0.4604(7) -0.1678(7)
C10 C 0.248(3) -0.4112(7) -0.1432(7)
C11 C 0.266(3) -0.3770(7) -0.0819(7)
H7 H 0.1517 -0.3870 -0.0540
C12 C 0.462(3) -0.3264(7) -0.0631(7)
H8 H 0.4736 -0.3023 -0.0227
C13 C 0.639(3) -0.3129(6) -0.1063(6)
H9 H 0.7704 -0.2804 -0.0940
C14 C 0.618(3) -0.3472(7) -0.1655(7)
H10 H 0.7339 -0.3382 -0.1937
C15 C 0.429(3) -0.3940(7) -0.1832(7)
H11 H 0.4166 -0.4164 -0.2241
C16 C -0.115(3) -0.4905(7) -0.1293(7)
N1 N -0.320(2) -0.5313(5) -0.1542(5)
O1 O -0.002(2) -0.4836(5) -0.2228(5)
O2 O -0.063(3) -0.4838(6) -0.0714(6)
C17 C 0.265(3) -0.5823(7) -0.3766(7)
H12 H 0.1540 -0.5545 -0.3875
C18 C 0.628(3) -0.6026(7) -0.3123(7)
H13 H 0.7585 -0.5891 -0.2799
C19 C 0.613(3) -0.6643(7) -0.3459(7)
H14 H 0.7267 -0.6921 -0.3355
C20 C 0.425(3) -0.6821(7) -0.3947(6)
H15 H 0.4193 -0.7225 -0.4186
C21 C 0.241(3) -0.6424(7) -0.4104(7)
C22 C 0.038(3) -0.6679(7) -0.4610(7)
C23 C -0.115(3) -0.6283(8) -0.4895(7)
C24 C -0.404(3) -0.6106(7) -0.5550(7)
C25 C -0.253(3) -0.5584(8) -0.5233(7)
H16 H -0.2764 -0.5204 -0.5278
C26 C -0.625(3) -0.6235(7) -0.6018(7)
C27 C -0.709(3) -0.5801(8) -0.6294(7)
H17 H -0.6279 -0.5412 -0.6160
C28 C -0.913(3) -0.5955(7) -0.6764(7)
H18 H -0.9627 -0.5671 -0.6952
C29 C -1.039(3) -0.6506(7) -0.6950(7)
H19 H -1.1744 -0.6599 -0.7267
C30 C -0.972(3) -0.6940(8) -0.6686(7)
H20 H -1.0679 -0.7315 -0.6813
C31 C -0.764(3) -0.6817(6) -0.6231(6)
H21 H -0.7135 -0.7115 -0.6064
C32 C 0.454(3) -0.5616(8) -0.3261(7)
H22 H 0.4615 -0.5210 -0.3025
N2 N -0.323(2) -0.6548(5) -0.5319(4)
O3 O -0.066(3) -0.5717(8) -0.4849(7)
O4 O -0.005(2) -0.7232(5) -0.4846(4)
C33 C 0.760(3) -0.8185(8) -0.8764(7)
H23 H 0.7096 -0.7883 -0.8926
C34 C 0.967(3) -0.8067(7) -0.8306(7)
H24 H 1.0591 -0.7688 -0.8169
C35 C 1.038(3) -0.8507(7) -0.8052(7)
H25 H 1.1788 -0.8426 -0.7745
C36 C 0.899(3) -0.9078(7) -0.8257(7)
H26 H 0.9415 -0.9373 -0.8079
C37 C 0.698(3) -0.9196(7) -0.8723(6)
H27 H 0.6080 -0.9576 -0.8867
C38 C 0.628(3) -0.8751(7) -0.8981(7)
C39 C 0.410(3) -0.8911(7) -0.9463(6)
C40 C 0.255(3) -0.9412(8) -0.9757(7)
H28 H 0.2716 -0.9785 -0.9693
C41 C 0.113(3) -0.8720(6) -1.0100(6)
C42 C -0.046(3) -0.8316(7) -1.0384(7)
C43 C -0.251(3) -0.8563(6) -1.0896(6)
C44 C -0.417(3) -0.8142(7) -1.1051(6)
H29 H -0.3990 -0.7731 -1.0837
C45 C -0.612(3) -0.8354(7) -1.1536(7)
H30 H -0.7292 -0.8078 -1.1633
C46 C -0.638(3) -0.8957(6) -1.1879(6)
H31 H -0.7657 -0.9084 -1.2210
C47 C -0.471(3) -0.9364(7) -1.1717(7)
H32 H -0.4954 -0.9774 -1.1932
C48 C -0.269(3) -0.9190(7) -1.1249(6)
H33 H -0.1496 -0.9470 -1.1165
N3 N 0.318(2) -0.8454(5) -0.9685(5)
O5 O 0.0669(17) -0.9290(4) -1.0171(4)
O6 O 0.006(2) -0.7774(5) -1.0169(5)
C49 C -0.417(3) -1.1052(7) -1.3167(7)
H34 H -0.4090 -1.0820 -1.2761
C50 C -0.606(3) -1.1555(6) -1.3362(6)
H35 H -0.7171 -1.1667 -1.3086
C51 C -0.627(3) -1.1888(7) -1.3986(6)
H36 H -0.7545 -1.2218 -1.4124
C52 C -0.268(3) -1.1239(7) -1.4180(7)
H37 H -0.1536 -1.1140 -1.4459
C53 C -0.243(3) -1.0899(7) -1.3569(7)
C54 C -0.039(3) -1.0370(6) -1.3314(6)
C55 C 0.112(3) -1.0110(6) -1.3723(6)
C56 C 0.406(3) -0.9461(7) -1.3902(7)
C57 C 0.259(3) -0.9760(7) -1.4408(7)
H38 H 0.2833 -0.9704 -1.4782
C58 C 0.907(3) -0.8232(7) -1.4044(7)
H39 H 0.9508 -0.8041 -1.4328
C59 C 1.042(3) -0.8040(7) -1.3492(7)
H40 H 1.1814 -0.7731 -1.3400
C60 C 0.965(3) -0.8318(7) -1.3067(8)
H41 H 1.0551 -0.8187 -1.2686
C61 C 0.769(3) -0.8764(7) -1.3187(7)
H42 H 0.7239 -0.8935 -1.2888
C62 C 0.627(3) -0.8981(7) -1.3752(7)
C63 C -0.463(3) -1.1727(7) -1.4374(8)
H43 H -0.4797 -1.1945 -1.4784
C64 C 0.701(3) -0.8719(7) -1.4199(7)
H44 H 0.6179 -0.8861 -1.4586
N4 N 0.324(2) -0.9675(5) -1.3450(4)
O7 O 0.006(2) -1.0164(5) -1.2771(5)
O8 O 0.066(2) -1.0167(5) -1.4294(5)
loop_
_geom_bond_atom_site_label_1
_geom_bond_atom_site_label_2
_geom_bond_site_symmetry_1
_geom_bond_site_symmetry_2
C1 C2 1_555 1_555
C2 H1 1_555 1_555
C3 C2 1_555 1_555
H2 C3 1_555 1_555
C4 C3 1_555 1_555
H3 C4 1_555 1_555
C5 C4 1_555 1_555
H4 C5 1_555 1_555
C6 C1 1_555 1_555
H5 C6 1_555 1_555
C7 C1 1_555 1_555
C8 C7 1_555 1_555
H6 C8 1_555 1_555
C9 C10 1_555 1_555
C10 C11 1_555 1_555
C11 H7 1_555 1_555
C12 C11 1_555 1_555
H8 C12 1_555 1_555
C13 C12 1_555 1_555
H9 C13 1_555 1_555
C14 C13 1_555 1_555
H10 C14 1_555 1_555
C15 C10 1_555 1_555
H11 C15 1_555 1_555
C16 C9 1_555 1_555
N1 C7 1_555 1_555
O1 C9 1_555 1_555
O2 C8 1_555 1_555
C17 H12 1_555 1_555
C18 H13 1_555 1_555
C19 C18 1_555 1_555
H14 C19 1_555 1_555
C20 C19 1_555 1_555
H15 C20 1_555 1_555
C21 C17 1_555 1_555
C22 C21 1_555 1_555
C23 C22 1_555 1_555
C24 C25 1_555 1_555
C25 H16 1_555 1_555
C26 C24 1_555 1_555
C27 C26 1_555 1_555
H17 C27 1_555 1_555
C28 C27 1_555 1_555
H18 C28 1_555 1_555
C29 C28 1_555 1_555
H19 C29 1_555 1_555
C30 C29 1_555 1_555
H20 C30 1_555 1_555
C31 C26 1_555 1_555
H21 C31 1_555 1_555
C32 C17 1_555 1_555
H22 C32 1_555 1_555
N2 C23 1_555 1_555
O3 C23 1_555 1_555
O4 C22 1_555 1_555
C33 H23 1_555 1_555
C34 C33 1_555 1_555
H24 C34 1_555 1_555
C35 C34 1_555 1_555
H25 C35 1_555 1_555
C36 C35 1_555 1_555
H26 C36 1_555 1_555
C37 C36 1_555 1_555
H27 C37 1_555 1_555
C38 C33 1_555 1_555
C39 C38 1_555 1_555
C40 C39 1_555 1_555
H28 C40 1_555 1_555
C41 C42 1_555 1_555
C42 C43 1_555 1_555
C43 C44 1_555 1_555
C44 H29 1_555 1_555
C45 C44 1_555 1_555
H30 C45 1_555 1_555
C46 C45 1_555 1_555
H31 C46 1_555 1_555
C47 C46 1_555 1_555
H32 C47 1_555 1_555
C48 C43 1_555 1_555
H33 C48 1_555 1_555
N3 C39 1_555 1_555
O5 C40 1_555 1_555
O6 C42 1_555 1_555
C49 H34 1_555 1_555
C50 C49 1_555 1_555
H35 C50 1_555 1_555
C51 C50 1_555 1_555
H36 C51 1_555 1_555
C52 H37 1_555 1_555
C53 C49 1_555 1_555
C54 C53 1_555 1_555
C55 C54 1_555 1_555
C56 C57 1_555 1_555
C57 H38 1_555 1_555
C58 H39 1_555 1_555
C59 C58 1_555 1_555
H40 C59 1_555 1_555
C60 C59 1_555 1_555
H41 C60 1_555 1_555
C61 C60 1_555 1_555
H42 C61 1_555 1_555
C62 C56 1_555 1_555
C63 C51 1_555 1_555
H43 C63 1_555 1_555
C64 C58 1_555 1_555
H44 C64 1_555 1_555
N4 C55 1_555 1_555
O7 C54 1_555 1_555
O8 C55 1_555 1_555
C5 C6 1_555 1_555
C14 C15 1_555 1_555
C16 N1 1_555 1_555
C16 O2 1_555 1_555
C18 C32 1_555 1_555
C20 C21 1_555 1_555
C24 N2 1_555 1_555
C25 O3 1_555 1_555
C30 C31 1_555 1_555
C37 C38 1_555 1_555
C41 N3 1_555 1_555
C41 O5 1_555 1_555
C47 C48 1_555 1_555
C52 C53 1_555 1_555
C52 C63 1_555 1_555
C56 N4 1_555 1_555
C57 O8 1_555 1_555
C61 C62 1_555 1_555
C62 C64 1_555 1_555

#END
