
#######################################################################
#
#                 Cambridge Crystallographic Data Centre
#                                CCDC 
#
#######################################################################
#
# If this CIF has been generated from an entry in the Cambridge 
# Structural Database, then it will include bibliographic, chemical, 
# crystal, experimental, refinement or atomic coordinate data resulting 
# from the CCDC's data processing and validation procedures.
#
#######################################################################

data_ISIQIM
_chemical_formula_moiety         'C18 H22 N4 O2'
_chemical_name_systematic        
N,N'-di-n-propyl-2,2'-bipyridine-4,4'-dicarboxamide
_symmetry_cell_setting           triclinic
_symmetry_space_group_name_H-M   'P -1'
_symmetry_Int_Tables_number      2
_space_group_name_Hall           '-P 1'
loop_
_symmetry_equiv_pos_site_id
_symmetry_equiv_pos_as_xyz
1 x,y,z
2 -x,-y,-z
_cell_length_a                   5.016(1)
_cell_length_b                   5.4660(11)
_cell_length_c                   16.124(3)
_cell_angle_alpha                93.12(3)
_cell_angle_beta                 96.16(3)
_cell_angle_gamma                93.03(3)
_cell_volume                     438.107
_cell_formula_units_Z            1
loop_
_atom_site_label
_atom_site_type_symbol
_atom_site_fract_x
_atom_site_fract_y
_atom_site_fract_z
O1 O -0.2023(6) 0.7330(7) 0.7461(2)
N1 N 0.2282(8) 0.2689(7) 0.9752(2)
C1 C 0.3218(16) 1.2810(13) 0.5706(4)
H1 H 0.4746(16) 1.3899(13) 0.5650(4)
H2 H 0.2886(16) 1.1689(13) 0.5222(4)
H3 H 0.1672(16) 1.3748(13) 0.5756(4)
C2 C 0.3773(14) 1.1383(13) 0.6479(4)
H4 H 0.5375(14) 1.0494(13) 0.6426(4)
H5 H 0.4164(14) 1.2547(13) 0.6959(4)
C3 C 0.1756(12) 0.9742(14) 0.6641(4)
H6 H 0.0198(12) 1.0638(14) 0.6749(4)
H7 H 0.1251(12) 0.8653(14) 0.6148(4)
N2 N 0.2485(8) 0.8264(8) 0.7352(3)
C4 C 0.0303(9) 0.7202(9) 0.7718(3)
C5 C 0.1102(8) 0.5569(8) 0.8426(3)
C6 C 0.3313(8) 0.6176(8) 0.8998(3)
H8 H 0.4435(8) 0.7547(8) 0.8934(3)
C7 C 0.3860(8) 0.4703(8) 0.9678(3)
C8 C 0.0219(9) 0.2157(8) 0.9192(3)
H9 H -0.0832(9) 0.0735(8) 0.9248(3)
C9 C -0.0516(8) 0.3540(8) 0.8525(3)
H10 H -0.2049(8) 0.3111(8) 0.8157(3)
O1A O 1.2023(6) 0.2670(7) 1.2539(2)
N1A N 0.7718(8) 0.7311(7) 1.0248(2)
C1A C 0.6782(16) -0.2810(13) 1.4294(4)
H1A H 0.5254(16) -0.3899(13) 1.4350(4)
H2A H 0.7114(16) -0.1689(13) 1.4778(4)
H3A H 0.8328(16) -0.3748(13) 1.4244(4)
C2A C 0.6227(14) -0.1383(13) 1.3521(4)
H4A H 0.4625(14) -0.0494(13) 1.3574(4)
H5A H 0.5836(14) -0.2547(13) 1.3041(4)
C3A C 0.8244(12) 0.0258(14) 1.3359(4)
H6A H 0.9802(12) -0.0638(14) 1.3251(4)
H7A H 0.8749(12) 0.1347(14) 1.3852(4)
N2A N 0.7515(8) 0.1736(8) 1.2648(3)
C4A C 0.9697(9) 0.2798(9) 1.2282(3)
C5A C 0.8898(8) 0.4431(8) 1.1574(3)
C6A C 0.6687(8) 0.3824(8) 1.1002(3)
H8A H 0.5565(8) 0.2453(8) 1.1066(3)
C7A C 0.6140(8) 0.5297(8) 1.0322(3)
C8A C 0.9781(9) 0.7843(8) 1.0808(3)
H9A H 1.0832(9) 0.9265(8) 1.0752(3)
C9A C 1.0516(8) 0.6460(8) 1.1475(3)
H10A H 1.2049(8) 0.6889(8) 1.1843(3)
loop_
_geom_bond_atom_site_label_1
_geom_bond_atom_site_label_2
_geom_bond_site_symmetry_1
_geom_bond_site_symmetry_2
O1 C4 1_555 1_555
N1 C7 1_555 1_555
C1 H1 1_555 1_555
H2 C1 1_555 1_555
H3 C1 1_555 1_555
C2 C1 1_555 1_555
H4 C2 1_555 1_555
H5 C2 1_555 1_555
C3 C2 1_555 1_555
H6 C3 1_555 1_555
H7 C3 1_555 1_555
N2 C3 1_555 1_555
C4 N2 1_555 1_555
C5 C4 1_555 1_555
C6 C5 1_555 1_555
H8 C6 1_555 1_555
C7 C6 1_555 1_555
C8 N1 1_555 1_555
H9 C8 1_555 1_555
C9 C5 1_555 1_555
H10 C9 1_555 1_555
O1A C4A 1_555 1_555
N1A C7A 1_555 1_555
C1A H1A 1_555 1_555
H2A C1A 1_555 1_555
H3A C1A 1_555 1_555
C2A C1A 1_555 1_555
H4A C2A 1_555 1_555
H5A C2A 1_555 1_555
C3A C2A 1_555 1_555
H6A C3A 1_555 1_555
H7A C3A 1_555 1_555
N2A C3A 1_555 1_555
C4A N2A 1_555 1_555
C5A C4A 1_555 1_555
C6A C5A 1_555 1_555
H8A C6A 1_555 1_555
C7A C7 1_555 1_555
C8A N1A 1_555 1_555
H9A C8A 1_555 1_555
C9A C5A 1_555 1_555
H10A C9A 1_555 1_555
C8 C9 1_555 1_555
C6A C7A 1_555 1_555
C8A C9A 1_555 1_555

#END
