
#######################################################################
#
#                 Cambridge Crystallographic Data Centre
#                                CCDC 
#
#######################################################################
#
# If this CIF has been generated from an entry in the Cambridge 
# Structural Database, then it will include bibliographic, chemical, 
# crystal, experimental, refinement or atomic coordinate data resulting 
# from the CCDC's data processing and validation procedures.
#
#######################################################################

data_ISISIO
_chemical_formula_moiety         'C41 H35 F14 N2 1+,H1 F2 1-'
_chemical_name_systematic        
'1,3-bis(2,6-di-isopropylphenyl)-2,4-bis(2,3,5,6-tetrafluoro-4-(trifluoromethyl)phenyl)-1H-imidazol-3-ium hydrogen difluoride unknown solvate'
_symmetry_cell_setting           monoclinic
_symmetry_space_group_name_H-M   'P 21/c'
_symmetry_Int_Tables_number      14
_space_group_name_Hall           '-P 2ybc'
loop_
_symmetry_equiv_pos_site_id
_symmetry_equiv_pos_as_xyz
1 x,y,z
2 -x,1/2+y,1/2-z
3 -x,-y,-z
4 x,1/2-y,1/2+z
_cell_length_a                   12.7034(7)
_cell_length_b                   15.8896(10)
_cell_length_c                   29.1048(19)
_cell_angle_alpha                90
_cell_angle_beta                 94.795(2)
_cell_angle_gamma                90
_cell_volume                     5854.3
_exptl_crystal_colour            green
_exptl_crystal_description       block
_cell_formula_units_Z            4
loop_
_atom_site_label
_atom_site_type_symbol
_atom_site_fract_x
_atom_site_fract_y
_atom_site_fract_z
F1 F 0.89641(16) 0.44383(13) 0.66279(7)
F2 F 1.05555(16) 0.33817(15) 0.66863(9)
F3 F 0.65588(16) 0.22093(13) 0.63433(8)
F4 F 0.8159(2) 0.11305(13) 0.63626(9)
F5 F 1.0254(3) 0.1138(2) 0.61398(13)
F6 F 1.1243(2) 0.18841(19) 0.65739(13)
F7 F 1.0199(2) 0.1030(2) 0.68699(13)
F8 F 0.35135(17) 0.47576(15) 0.60753(7)
F9 F 0.17402(18) 0.5260(2) 0.63884(9)
F10 F 0.53124(17) 0.52233(15) 0.75364(8)
F11 F 0.35173(19) 0.57107(18) 0.78611(8)
F12 F 0.1374(3) 0.5196(3) 0.77121(18)
F13 F 0.1654(4) 0.6499(3) 0.7553(2)
F14 F 0.0719(3) 0.5676(4) 0.70857(19)
N1 N 0.6102(2) 0.40587(16) 0.67506(9)
N2 N 0.6667(2) 0.45466(17) 0.61152(9)
C1 C 0.6839(2) 0.39715(19) 0.64520(11)
C2 C 0.5441(2) 0.4716(2) 0.65949(11)
C3 C 0.5801(3) 0.5015(2) 0.62018(11)
H1 H 0.5507 0.5466 0.6020
C4 C 0.5999(3) 0.3512(2) 0.71522(11)
C5 C 0.4287(3) 0.2863(2) 0.67350(12)
H2 H 0.4443 0.3266 0.6486
C6 C 0.5168(3) 0.2930(2) 0.71303(12)
C7 C 0.6735(3) 0.3591(2) 0.75440(11)
C8 C 0.7618(3) 0.4232(3) 0.75902(13)
H3 H 0.7600 0.4575 0.7302
C9 C 0.5107(3) 0.2393(2) 0.75072(14)
H4 H 0.4559 0.1985 0.7502
C10 C 0.6622(3) 0.3045(3) 0.79012(13)
H5 H 0.7106 0.3079 0.8167
C11 C 0.3234(3) 0.3104(3) 0.69154(14)
H6 H 0.2965 0.2629 0.7086
H7 H 0.2725 0.3247 0.6656
H8 H 0.3337 0.3591 0.7121
C12 C 0.4204(3) 0.1975(3) 0.65314(15)
H9 H 0.3924 0.1591 0.6755
H10 H 0.4906 0.1784 0.6461
H11 H 0.3730 0.1982 0.6248
C13 C 0.5831(3) 0.2447(3) 0.78893(13)
H12 H 0.5783 0.2074 0.8142
C14 C 0.7507(3) 0.4819(3) 0.80022(16)
H13 H 0.6854 0.5146 0.7950
H14 H 0.8113 0.5202 0.8036
H15 H 0.7483 0.4483 0.8284
C15 C 0.8703(3) 0.3788(3) 0.76682(15)
H16 H 0.8730 0.3460 0.7954
H17 H 0.9266 0.4211 0.7691
H18 H 0.8800 0.3411 0.7409
C16 C 0.7146(3) 0.4530(2) 0.56737(11)
C17 C 0.7923(3) 0.5128(2) 0.55985(12)
C18 C 0.8231(3) 0.5837(2) 0.59286(13)
H19 H 0.7988 0.5692 0.6237
C19 C 0.6751(3) 0.3947(2) 0.53454(12)
C20 C 0.8348(3) 0.5089(3) 0.51677(14)
H20 H 0.8894 0.5467 0.5101
C21 C 0.5819(3) 0.3375(3) 0.54148(13)
H21 H 0.5728 0.3353 0.5753
C22 C 0.7196(3) 0.3959(3) 0.49244(13)
H22 H 0.6944 0.3575 0.4690
C23 C 0.7677(3) 0.6651(2) 0.57583(15)
H23 H 0.7876 0.6785 0.5448
H24 H 0.7892 0.7113 0.5969
H25 H 0.6910 0.6575 0.5749
C24 C 0.7979(3) 0.4504(3) 0.48397(13)
H26 H 0.8279 0.4485 0.4552
C25 C 0.9442(3) 0.5974(3) 0.59846(15)
H27 H 0.9796 0.5436 0.6055
H28 H 0.9619 0.6371 0.6237
H29 H 0.9677 0.6203 0.5698
C26 C 0.4812(4) 0.3741(4) 0.51729(17)
H30 H 0.4739 0.4330 0.5265
H31 H 0.4201 0.3419 0.5260
H32 H 0.4848 0.3710 0.4838
C27 C 0.6007(5) 0.2467(3) 0.52498(19)
H33 H 0.6153 0.2476 0.4924
H34 H 0.5377 0.2126 0.5286
H35 H 0.6612 0.2223 0.5435
C28 C 0.4476(3) 0.4977(2) 0.67937(12)
C29 C 0.4428(3) 0.5224(2) 0.72487(13)
C30 C 0.3498(3) 0.5475(3) 0.74196(14)
C31 C 0.3542(3) 0.5008(2) 0.65146(13)
C32 C 0.2568(3) 0.5506(3) 0.71353(16)
C33 C 0.2611(3) 0.5269(3) 0.66797(15)
C34 C 0.1551(4) 0.5760(4) 0.7332(2)
C35 C 0.7722(3) 0.3356(2) 0.64776(11)
C36 C 0.7549(3) 0.2507(2) 0.64170(12)
C37 C 0.8762(3) 0.3625(2) 0.65552(11)
C38 C 0.9588(3) 0.3062(2) 0.65798(12)
C39 C 0.9424(3) 0.2214(3) 0.65165(13)
C40 C 0.8381(3) 0.1941(2) 0.64328(13)
C41 C 1.0299(3) 0.1572(3) 0.65413(17)
F20 F 0.3133(3) 0.6697(2) 0.61453(11)
F21 F 0.4783(2) 0.65891(16) 0.59941(10)
H36 H 0.3950(13) 0.672(3) 0.6038(15)
F15? F 0.9967(16) 0.0734(13) 0.6558(9)
F16? F 1.0697(15) 0.1614(12) 0.7072(6)
F17? F 0.1181(7) 0.6566(6) 0.6958(3)
F18? F 0.0866(12) 0.5339(9) 0.7277(6)
F19? F 0.1642(18) 0.6247(13) 0.7667(8)
loop_
_geom_bond_atom_site_label_1
_geom_bond_atom_site_label_2
_geom_bond_site_symmetry_1
_geom_bond_site_symmetry_2
F1 C37 1_555 1_555
F2 C38 1_555 1_555
F3 C36 1_555 1_555
F4 C40 1_555 1_555
F5 C41 1_555 1_555
F6 C41 1_555 1_555
F7 C41 1_555 1_555
F8 C31 1_555 1_555
F9 C33 1_555 1_555
F10 C29 1_555 1_555
F11 C30 1_555 1_555
F12 C34 1_555 1_555
F13 C34 1_555 1_555
F14 C34 1_555 1_555
N1 C1 1_555 1_555
N2 C1 1_555 1_555
C1 C35 1_555 1_555
C2 N1 1_555 1_555
C3 N2 1_555 1_555
H1 C3 1_555 1_555
C4 N1 1_555 1_555
C5 H2 1_555 1_555
C6 C4 1_555 1_555
C7 C4 1_555 1_555
C8 C7 1_555 1_555
H3 C8 1_555 1_555
C9 C6 1_555 1_555
H4 C9 1_555 1_555
C10 C7 1_555 1_555
H5 C10 1_555 1_555
C11 C5 1_555 1_555
H6 C11 1_555 1_555
H7 C11 1_555 1_555
H8 C11 1_555 1_555
C12 C5 1_555 1_555
H9 C12 1_555 1_555
H10 C12 1_555 1_555
H11 C12 1_555 1_555
C13 C9 1_555 1_555
H12 C13 1_555 1_555
C14 C8 1_555 1_555
H13 C14 1_555 1_555
H14 C14 1_555 1_555
H15 C14 1_555 1_555
C15 C8 1_555 1_555
H16 C15 1_555 1_555
H17 C15 1_555 1_555
H18 C15 1_555 1_555
C16 N2 1_555 1_555
C17 C16 1_555 1_555
C18 C17 1_555 1_555
H19 C18 1_555 1_555
C19 C16 1_555 1_555
C20 C17 1_555 1_555
H20 C20 1_555 1_555
C21 C19 1_555 1_555
H21 C21 1_555 1_555
C22 C19 1_555 1_555
H22 C22 1_555 1_555
C23 C18 1_555 1_555
H23 C23 1_555 1_555
H24 C23 1_555 1_555
H25 C23 1_555 1_555
C24 C20 1_555 1_555
H26 C24 1_555 1_555
C25 C18 1_555 1_555
H27 C25 1_555 1_555
H28 C25 1_555 1_555
H29 C25 1_555 1_555
C26 C21 1_555 1_555
H30 C26 1_555 1_555
H31 C26 1_555 1_555
H32 C26 1_555 1_555
C27 C21 1_555 1_555
H33 C27 1_555 1_555
H34 C27 1_555 1_555
H35 C27 1_555 1_555
C28 C2 1_555 1_555
C29 C28 1_555 1_555
C30 C29 1_555 1_555
C31 C28 1_555 1_555
C32 C30 1_555 1_555
C33 C31 1_555 1_555
C34 C32 1_555 1_555
C35 C36 1_555 1_555
C36 C40 1_555 1_555
C37 C35 1_555 1_555
C38 C37 1_555 1_555
C39 C38 1_555 1_555
C40 C39 1_555 1_555
C41 C39 1_555 1_555
F20 H36 1_555 1_555
F21 H36 1_555 1_555
C2 C3 1_555 1_555
C5 C6 1_555 1_555
C10 C13 1_555 1_555
C22 C24 1_555 1_555
C32 C33 1_555 1_555

#END
