
#######################################################################
#
#                 Cambridge Crystallographic Data Centre
#                                CCDC 
#
#######################################################################
#
# If this CIF has been generated from an entry in the Cambridge 
# Structural Database, then it will include bibliographic, chemical, 
# crystal, experimental, refinement or atomic coordinate data resulting 
# from the CCDC's data processing and validation procedures.
#
#######################################################################

data_ISITEJ
_chemical_formula_moiety         'C14 H12 F3 N1 O4'
_chemical_name_systematic        
'Ethyl 5-(4-nitrophenyl)-3-trifluoromethyl-penta-2E,4E-dienoate'
_symmetry_cell_setting           triclinic
_symmetry_space_group_name_H-M   'P -1'
_symmetry_Int_Tables_number      2
_space_group_name_Hall           '-P 1'
loop_
_symmetry_equiv_pos_site_id
_symmetry_equiv_pos_as_xyz
1 x,y,z
2 -x,-y,-z
_cell_length_a                   11.750(3)
_cell_length_b                   13.073(4)
_cell_length_c                   10.081(2)
_cell_angle_alpha                92.63(2)
_cell_angle_beta                 98.78(2)
_cell_angle_gamma                76.89(2)
_cell_volume                     1490.38
_exptl_crystal_colour            colorless
_exptl_crystal_description       prismatic
_chemical_melting_point          75deg.C
_cell_formula_units_Z            4
_exptl_crystal_recrystallization_method hexane
loop_
_atom_site_label
_atom_site_type_symbol
_atom_site_fract_x
_atom_site_fract_y
_atom_site_fract_z
F1 F 0.6295(3) 0.0368(3) 0.0511(3)
F2 F 0.4847(4) 0.1567(3) -0.0270(3)
F3 F 0.6564(4) 0.1538(3) -0.0709(4)
O1 O 0.6811(4) 0.3618(3) 0.3579(4)
O2 O 0.7846(3) 0.4050(3) 0.2095(3)
O3 O 0.2389(3) 0.1785(4) 0.7966(4)
O4 O 0.1759(4) 0.0468(3) 0.7011(4)
N1 N 0.2353(4) 0.1128(4) 0.7070(6)
C1 C 0.7133(5) 0.3497(4) 0.2510(6)
C2 C 0.6848(4) 0.2746(4) 0.1432(5)
C3 C 0.6176(4) 0.2055(4) 0.1487(5)
C4 C 0.5592(5) 0.1923(4) 0.2621(5)
C5 C 0.4888(4) 0.1281(4) 0.2727(5)
C6 C 0.4291(4) 0.1226(4) 0.3878(3)
C7 C 0.4378(5) 0.1889(4) 0.5001(6)
C8 C 0.3753(5) 0.1870(4) 0.6043(5)
C9 C 0.3051(4) 0.1142(4) 0.5962(6)
C10 C 0.2954(4) 0.0467(5) 0.4893(5)
C11 C 0.3562(5) 0.0516(4) 0.3849(6)
C12 C 0.5980(7) 0.1377(5) 0.0269(6)
C13 C 0.8204(5) 0.4837(5) 0.3061(7)
C14 C 0.9011(7) 0.5319(5) 0.2455(8)
H1 H 0.7272 0.2774 0.0639
H2 H 0.5765 0.2347 0.3258
H3 H 0.4669 0.0775 0.2010
H4 H 0.4907 0.2364 0.5072
H5 H 0.3730 0.2410 0.6870
H6 H 0.2559 -0.0098 0.4909
H7 H 0.3498 0.0074 0.3025
H8 H 0.7450 0.5372 0.3052
H9 H 0.8785 0.4574 0.3742
H10 H 0.8674 0.5526 0.1560
H11 H 0.9146 0.5921 0.2966
H12 H 0.9744 0.4829 0.2437
F4 F -0.0413(3) -0.9492(3) 0.1183(3)
F5 F -0.0220(3) -0.8103(3) 0.0246(3)
F6 F 0.1260(3) -0.9315(3) 0.0985(3)
O5 O 0.0229(4) -0.7304(3) 0.5329(4)
O6 O -0.0930(3) -0.8404(4) 0.5532(4)
O7 O 0.5134(4) -0.4127(4) 0.1621(4)
O8 O 0.4920(4) -0.3950(3) 0.3686(3)
N2 N 0.4707(4) -0.4317(3) 0.2579(5)
C15 C -0.0274(5) -0.7967(4) 0.4862(4)
C16 C -0.0255(4) -0.8451(4) 0.3496(5)
C17 C 0.0337(4) -0.8202(4) 0.2574(5)
C18 C 0.1075(4) -0.7447(4) 0.2751(5)
C19 C 0.1674(4) -0.7187(4) 0.1843(5)
C20 C 0.2437(4) -0.6438(3) 0.2069(5)
C21 C 0.2994(5) -0.6233(4) 0.1026(5)
C22 C 0.3739(5) -0.5534(4) 0.1172(5)
C23 C 0.3911(4) -0.5049(4) 0.2393(4)
C24 C 0.3374(4) -0.5215(4) 0.3457(5)
C25 C 0.2636(4) -0.5916(4) 0.3282(4)
C26 C 0.0207(6) -0.8762(4) 0.1257(6)
C27 C -0.1033(7) -0.7975(9) 0.6898(7)
C28 C -0.2067(8) -0.775(1) 0.7135(8)
H13 H -0.0808 -0.8935 0.3325
H14 H 0.1122 -0.7095 0.3675
H15 H 0.1712 -0.7536 0.1003
H16 H 0.2849 -0.6544 0.0141
H17 H 0.4127 -0.5408 0.0474
H18 H 0.3454 -0.4865 0.4301
H19 H 0.2333 -0.6055 0.3971
H20 H -0.0540 -0.7545 0.7133
H21 H -0.0695 -0.8643 0.7491
H22 H -0.1953 -0.7486 0.8078
H23 H -0.2467 -0.8160 0.6933
H24 H -0.2294 -0.7057 0.6627
loop_
_geom_bond_atom_site_label_1
_geom_bond_atom_site_label_2
_geom_bond_site_symmetry_1
_geom_bond_site_symmetry_2
F1 C12 1_555 1_555
F2 C12 1_555 1_555
F3 C12 1_555 1_555
F4 C26 1_555 1_555
F5 C26 1_555 1_555
F6 C26 1_555 1_555
O1 C1 1_555 1_555
O2 C1 1_555 1_555
O3 N1 1_555 1_555
O4 N1 1_555 1_555
O5 C15 1_555 1_555
O6 C15 1_555 1_555
O7 N2 1_555 1_555
O8 N2 1_555 1_555
N1 C9 1_555 1_555
N2 C23 1_555 1_555
C1 C2 1_555 1_555
C2 C3 1_555 1_555
C3 C4 1_555 1_555
C4 C5 1_555 1_555
C5 C6 1_555 1_555
C6 C7 1_555 1_555
C7 C8 1_555 1_555
C8 C9 1_555 1_555
C9 C10 1_555 1_555
C10 C11 1_555 1_555
C11 C6 1_555 1_555
C12 C3 1_555 1_555
C13 O2 1_555 1_555
C14 C13 1_555 1_555
C15 C16 1_555 1_555
C16 C17 1_555 1_555
C17 C18 1_555 1_555
C18 C19 1_555 1_555
C19 C20 1_555 1_555
C20 C21 1_555 1_555
C21 C22 1_555 1_555
C22 C23 1_555 1_555
C23 C24 1_555 1_555
C24 C25 1_555 1_555
C25 C20 1_555 1_555
C26 C17 1_555 1_555
C27 O6 1_555 1_555
C28 C27 1_555 1_555
H1 C2 1_555 1_555
H2 C4 1_555 1_555
H3 C5 1_555 1_555
H4 C7 1_555 1_555
H5 C8 1_555 1_555
H6 C10 1_555 1_555
H7 C11 1_555 1_555
H8 C13 1_555 1_555
H9 C13 1_555 1_555
H10 C14 1_555 1_555
H11 C14 1_555 1_555
H12 C14 1_555 1_555
H13 C16 1_555 1_555
H14 C18 1_555 1_555
H15 C19 1_555 1_555
H16 C21 1_555 1_555
H17 C22 1_555 1_555
H18 C24 1_555 1_555
H19 C25 1_555 1_555
H20 C27 1_555 1_555
H21 C27 1_555 1_555
H22 C28 1_555 1_555
H23 C28 1_555 1_555
H24 C28 1_555 1_555

#END
