
#######################################################################
#
#                 Cambridge Crystallographic Data Centre
#                                CCDC 
#
#######################################################################
#
# If this CIF has been generated from an entry in the Cambridge 
# Structural Database, then it will include bibliographic, chemical, 
# crystal, experimental, refinement or atomic coordinate data resulting 
# from the CCDC's data processing and validation procedures.
#
#######################################################################

data_ISITAF
_chemical_formula_moiety         'C28 H25 N3 O4'
_chemical_name_systematic        
'erythro-Methyl 2,3-bis(phenylamino)-2-phenyl-3-(p-nitrophenyl)propanoate'
_symmetry_cell_setting           orthorhombic
_symmetry_space_group_name_H-M   'P n a 21'
_symmetry_Int_Tables_number      33
_space_group_name_Hall           'P 2c -2n'
loop_
_symmetry_equiv_pos_site_id
_symmetry_equiv_pos_as_xyz
1 x,y,z
2 -x,-y,1/2+z
3 1/2+x,1/2-y,z
4 1/2-x,1/2+y,1/2+z
_cell_length_a                   26.465(5)
_cell_length_b                   9.181(1)
_cell_length_c                   9.973(2)
_cell_angle_alpha                90
_cell_angle_beta                 90
_cell_angle_gamma                90
_cell_volume                     2423.19
_cell_formula_units_Z            4
loop_
_atom_site_label
_atom_site_type_symbol
_atom_site_fract_x
_atom_site_fract_y
_atom_site_fract_z
O1 O 0.09256(7) 0.7076(2) 0.49523(19)
O2 O 0.16212(7) 0.8302(2) 0.54500(19)
O3 O 0.33225(7) 0.3500(2) 0.3893(2)
O4 O 0.36611(7) 0.5249(2) 0.2767(2)
N1 N 0.07680(8) 0.9058(2) 0.2919(2)
N2 N 0.09114(8) 0.6151(2) 0.2250(2)
N3 N 0.32962(8) 0.4612(3) 0.3214(2)
C1 C 0.12720(8) 0.8474(3) 0.3178(2)
C2 C 0.16786(9) 0.9598(3) 0.2791(3)
C3 C 0.21642(9) 0.9615(3) 0.3308(3)
H1 H 0.2251 0.8953 0.3976
C4 C 0.25219(12) 1.0591(4) 0.2854(4)
H2 H 0.2845 1.0584 0.3218
C5 C 0.24022(14) 1.1571(4) 0.1871(4)
H3 H 0.2644 1.2224 0.1563
C6 C 0.19224(14) 1.1585(3) 0.1339(4)
H4 H 0.1839 1.2256 0.0677
C7 C 0.15637(11) 1.0601(3) 0.1789(3)
H5 H 0.1242 1.0610 0.1416
C8 C 0.05558(9) 1.0164(3) 0.3699(3)
C9 C 0.08281(10) 1.0997(3) 0.4593(3)
H6 H 0.1171 1.0818 0.4714
C10 C 0.05961(12) 1.2098(3) 0.5312(3)
H7 H 0.0787 1.2650 0.5908
C11 C 0.00927(12) 1.2393(3) 0.5167(3)
H8 H -0.0060 1.3138 0.5652
C12 C -0.01823(11) 1.1554(3) 0.4278(3)
H9 H -0.0526 1.1731 0.4172
C13 C 0.00413(9) 1.0462(3) 0.3548(3)
H10 H -0.0151 0.9918 0.2948
C14 C 0.13446(8) 0.7133(2) 0.2201(3)
H11 H 0.1353 0.7534 0.1290
C15 C 0.08594(9) 0.5043(3) 0.1294(3)
C16 C 0.10946(10) 0.5090(3) 0.0049(3)
H12 H 0.1310 0.5858 -0.0158
C17 C 0.10106(12) 0.4004(3) -0.0887(3)
H13 H 0.1173 0.4043 -0.1713
C18 C 0.06892(12) 0.2865(3) -0.0606(3)
H14 H 0.0631 0.2139 -0.1238
C19 C 0.04572(11) 0.2818(3) 0.0619(3)
H15 H 0.0238 0.2055 0.0816
C20 C 0.05428(10) 0.3878(3) 0.1562(3)
H16 H 0.0386 0.3813 0.2395
C21 C 0.18511(9) 0.6382(2) 0.2417(2)
C22 C 0.19145(9) 0.5351(3) 0.3413(3)
H17 H 0.1638 0.5051 0.3917
C23 C 0.23847(9) 0.4760(3) 0.3669(3)
H18 H 0.2426 0.4073 0.4345
C24 C 0.27897(9) 0.5197(3) 0.2916(3)
C25 C 0.27368(9) 0.6170(3) 0.1883(3)
H19 H 0.3012 0.6437 0.1358
C26 C 0.22630(9) 0.6742(3) 0.1644(3)
H20 H 0.2221 0.7392 0.0938
C27 C 0.13075(9) 0.7972(3) 0.4651(3)
C28 C 0.09107(13) 0.6533(4) 0.6311(3)
H21 H 0.1220 0.6030 0.6507
H22 H 0.0631 0.5874 0.6408
H23 H 0.0871 0.7334 0.6921
H24 H 0.0586(11) 0.843(3) 0.258(3)
H25 H 0.0822(11) 0.589(3) 0.306(3)
loop_
_geom_bond_atom_site_label_1
_geom_bond_atom_site_label_2
_geom_bond_site_symmetry_1
_geom_bond_site_symmetry_2
O1 C27 1_555 1_555
O2 C27 1_555 1_555
O3 N3 1_555 1_555
O4 N3 1_555 1_555
N1 C1 1_555 1_555
N2 C14 1_555 1_555
N3 C24 1_555 1_555
C1 C2 1_555 1_555
C2 C3 1_555 1_555
C3 H1 1_555 1_555
C4 C3 1_555 1_555
H2 C4 1_555 1_555
C5 C4 1_555 1_555
H3 C5 1_555 1_555
C6 C5 1_555 1_555
H4 C6 1_555 1_555
C7 C2 1_555 1_555
H5 C7 1_555 1_555
C8 N1 1_555 1_555
C9 C8 1_555 1_555
H6 C9 1_555 1_555
C10 C9 1_555 1_555
H7 C10 1_555 1_555
C11 C10 1_555 1_555
H8 C11 1_555 1_555
C12 C11 1_555 1_555
H9 C12 1_555 1_555
C13 C8 1_555 1_555
H10 C13 1_555 1_555
C14 C1 1_555 1_555
H11 C14 1_555 1_555
C15 N2 1_555 1_555
C16 C15 1_555 1_555
H12 C16 1_555 1_555
C17 C16 1_555 1_555
H13 C17 1_555 1_555
C18 C17 1_555 1_555
H14 C18 1_555 1_555
C19 C18 1_555 1_555
H15 C19 1_555 1_555
C20 C15 1_555 1_555
H16 C20 1_555 1_555
C21 C14 1_555 1_555
C22 C21 1_555 1_555
H17 C22 1_555 1_555
C23 C22 1_555 1_555
H18 C23 1_555 1_555
C24 C23 1_555 1_555
C25 C24 1_555 1_555
H19 C25 1_555 1_555
C26 C21 1_555 1_555
H20 C26 1_555 1_555
C27 C1 1_555 1_555
C28 O1 1_555 1_555
H21 C28 1_555 1_555
H22 C28 1_555 1_555
H23 C28 1_555 1_555
H24 N1 1_555 1_555
H25 N2 1_555 1_555
C6 C7 1_555 1_555
C12 C13 1_555 1_555
C19 C20 1_555 1_555
C25 C26 1_555 1_555

#END
