
#######################################################################
#
#                 Cambridge Crystallographic Data Centre
#                                CCDC 
#
#######################################################################
#
# If this CIF has been generated from an entry in the Cambridge 
# Structural Database, then it will include bibliographic, chemical, 
# crystal, experimental, refinement or atomic coordinate data resulting 
# from the CCDC's data processing and validation procedures.
#
#######################################################################

data_ISIVIR02
_chemical_formula_moiety         'C6 H6 O2,0.29(C1 O2)'
_chemical_name_systematic        'hydroquinone carbon dioxide'
_symmetry_cell_setting           rhombohedral
_symmetry_space_group_name_H-M   'R -3'
_symmetry_Int_Tables_number      148
_space_group_name_Hall           '-R 3'
loop_
_symmetry_equiv_pos_site_id
_symmetry_equiv_pos_as_xyz
1 x,y,z
2 -y,x-y,z
3 -x+y,-x,z
4 2/3+x,1/3+y,1/3+z
5 2/3-y,1/3+x-y,1/3+z
6 2/3-x+y,1/3-x,1/3+z
7 1/3+x,2/3+y,2/3+z
8 1/3-y,2/3+x-y,2/3+z
9 1/3-x+y,2/3-x,2/3+z
10 -x,-y,-z
11 y,-x+y,-z
12 x-y,x,-z
13 1/3-x,2/3-y,2/3-z
14 1/3+y,2/3-x+y,2/3-z
15 1/3+x-y,2/3+x,2/3-z
16 2/3-x,1/3-y,1/3-z
17 2/3+y,1/3-x+y,1/3-z
18 2/3+x-y,1/3+x,1/3-z
_cell_length_a                   16.2135(12)
_cell_length_b                   16.2135(12)
_cell_length_c                   5.7381(4)
_cell_angle_alpha                90
_cell_angle_beta                 90
_cell_angle_gamma                120
_cell_volume                     1306.33
_exptl_crystal_colour            colorless
_exptl_crystal_description       block
_cell_formula_units_Z            9
loop_
_atom_site_label
_atom_site_type_symbol
_atom_site_fract_x
_atom_site_fract_y
_atom_site_fract_z
O1 O 0.43610(6) 0.57808(6) 0.16631(16)
H1 H 0.4619(14) 0.6396(15) 0.182(3)
C1 C 0.46964(7) 0.54152(8) 0.3346(2)
C2 C 0.52221(8) 0.59452(8) 0.5258(2)
H2 H 0.5370(11) 0.6581(12) 0.545(3)
C3 C 0.55234(8) 0.55264(8) 0.6913(2)
H3 H 0.5880(12) 0.5881(12) 0.828(3)
O1I O 0.56390(6) 0.42192(6) 0.83369(16)
H1I H 0.5381(14) 0.3604(15) 0.818(3)
C1I C 0.53036(7) 0.45848(8) 0.6654(2)
C2I C 0.47779(8) 0.40548(8) 0.4742(2)
H2I H 0.4630(11) 0.3419(12) 0.455(3)
C3I C 0.44766(8) 0.44736(8) 0.3087(2)
H3I H 0.4120(12) 0.4119(12) 0.172(3)
C4 C 0.3333 0.6667 0.6667
O2 O 0.3333 0.6667 0.4669(5)
O2O O 0.3334 0.6666 0.8664(5)
loop_
_geom_bond_atom_site_label_1
_geom_bond_atom_site_label_2
_geom_bond_site_symmetry_1
_geom_bond_site_symmetry_2
O1 H1 1_555 1_555
C1 O1 1_555 1_555
C2 C1 1_555 1_555
H2 C2 1_555 1_555
C3 C2 1_555 1_555
H3 C3 1_555 1_555
C4 O2 1_555 1_555
O1I H1I 1_555 1_555
C1I C3 1_555 1_555
C2I C1I 1_555 1_555
H2I C2I 1_555 1_555
C3I C1 1_555 1_555
H3I C3I 1_555 1_555
O2O C4 1_555 1_555
O1I C1I 1_555 1_555
C2I C3I 1_555 1_555

#END
