
#######################################################################
#
#                 Cambridge Crystallographic Data Centre
#                                CCDC 
#
#######################################################################
#
# If this CIF has been generated from an entry in the Cambridge 
# Structural Database, then it will include bibliographic, chemical, 
# crystal, experimental, refinement or atomic coordinate data resulting 
# from the CCDC's data processing and validation procedures.
#
#######################################################################

data_ISIVIR01
_chemical_formula_moiety         'C6 H6 O2,0.24(C1 O2)'
_chemical_name_systematic        'hydroquinone carbon dioxide'
_symmetry_cell_setting           rhombohedral
_symmetry_space_group_name_H-M   'R -3'
_symmetry_Int_Tables_number      148
_space_group_name_Hall           '-R 3'
loop_
_symmetry_equiv_pos_site_id
_symmetry_equiv_pos_as_xyz
1 x,y,z
2 -y,x-y,z
3 -x+y,-x,z
4 2/3+x,1/3+y,1/3+z
5 2/3-y,1/3+x-y,1/3+z
6 2/3-x+y,1/3-x,1/3+z
7 1/3+x,2/3+y,2/3+z
8 1/3-y,2/3+x-y,2/3+z
9 1/3-x+y,2/3-x,2/3+z
10 -x,-y,-z
11 y,-x+y,-z
12 x-y,x,-z
13 1/3-x,2/3-y,2/3-z
14 1/3+y,2/3-x+y,2/3-z
15 1/3+x-y,2/3+x,2/3-z
16 2/3-x,1/3-y,1/3-z
17 2/3+y,1/3-x+y,1/3-z
18 2/3+x-y,1/3+x,1/3-z
_cell_length_a                   16.2023(11)
_cell_length_b                   16.2023(11)
_cell_length_c                   5.6943(4)
_cell_angle_alpha                90
_cell_angle_beta                 90
_cell_angle_gamma                120
_cell_volume                     1294.57
_exptl_crystal_colour            colorless
_exptl_crystal_description       block
_cell_formula_units_Z            9
loop_
_atom_site_label
_atom_site_type_symbol
_atom_site_fract_x
_atom_site_fract_y
_atom_site_fract_z
O1 O 0.43605(5) 0.57862(5) 0.16414(14)
H1 H 0.4606(13) 0.6404(14) 0.178(3)
C1 C 0.46969(7) 0.54177(7) 0.33352(17)
C2 C 0.52231(7) 0.59477(7) 0.52660(18)
H2 H 0.5366(11) 0.6607(12) 0.547(3)
C3 C 0.55246(7) 0.55259(7) 0.69351(18)
H3 H 0.5919(12) 0.5890(12) 0.830(3)
O1I O 0.56395(5) 0.42138(5) 0.83586(14)
H1I H 0.5394(13) 0.3596(14) 0.822(3)
C1I C 0.53031(7) 0.45823(7) 0.66648(17)
C2I C 0.47769(7) 0.40523(7) 0.47340(18)
H2I H 0.4634(11) 0.3393(12) 0.453(3)
C3I C 0.44754(7) 0.44741(7) 0.30649(18)
H3I H 0.4081(12) 0.4110(12) 0.170(3)
C4 C 0.3333 0.6667 0.6667
O2 O 0.3333 0.6667 0.4634(4)
O2O O 0.3334 0.6666 0.8699(4)
loop_
_geom_bond_atom_site_label_1
_geom_bond_atom_site_label_2
_geom_bond_site_symmetry_1
_geom_bond_site_symmetry_2
O1 H1 1_555 1_555
C1 O1 1_555 1_555
C2 C1 1_555 1_555
H2 C2 1_555 1_555
C3 C2 1_555 1_555
H3 C3 1_555 1_555
C4 O2 1_555 1_555
O1I H1I 1_555 1_555
C1I C3 1_555 1_555
C2I C1I 1_555 1_555
H2I C2I 1_555 1_555
C3I C1 1_555 1_555
H3I C3I 1_555 1_555
O2O C4 1_555 1_555
O1I C1I 1_555 1_555
C2I C3I 1_555 1_555

#END
