
#######################################################################
#
#                 Cambridge Crystallographic Data Centre
#                                CCDC 
#
#######################################################################
#
# If this CIF has been generated from an entry in the Cambridge 
# Structural Database, then it will include bibliographic, chemical, 
# crystal, experimental, refinement or atomic coordinate data resulting 
# from the CCDC's data processing and validation procedures.
#
#######################################################################

data_ISOCOJ
_chemical_formula_moiety         'C20 H28 O7'
_chemical_name_systematic        
5-Acetyl-6,15,18-trihydroxy-12,12-dimethyl-9,17-dioxapentacyclo[8.5.3.0^1,11^.0^2,7^.0^7,18^]octadecan-8-one
_symmetry_cell_setting           monoclinic
_symmetry_space_group_name_H-M   'P 21'
_symmetry_Int_Tables_number      4
_space_group_name_Hall           'P 2yb'
loop_
_symmetry_equiv_pos_site_id
_symmetry_equiv_pos_as_xyz
1 x,y,z
2 -x,1/2+y,-z
_cell_length_a                   6.526(6)
_cell_length_b                   11.830(10)
_cell_length_c                   12.312(11)
_cell_angle_alpha                90
_cell_angle_beta                 104.267(13)
_cell_angle_gamma                90
_cell_volume                     921.202
_exptl_crystal_colour            colorless
_exptl_crystal_description       plate
_cell_formula_units_Z            2
loop_
_atom_site_label
_atom_site_type_symbol
_atom_site_fract_x
_atom_site_fract_y
_atom_site_fract_z
O1 O 0.4792(7) 0.6045(3) 0.2879(4)
H1 H 0.4453 0.6191 0.3462
O2 O 0.9709(5) 0.3790(3) 0.2846(3)
O3 O 0.7136(6) 0.1479(3) 0.3814(3)
O4 O 0.7917(6) 0.1587(3) 0.5663(4)
O5 O 1.1166(6) 0.2198(3) 0.3652(3)
H2 H 1.1894 0.2291 0.4291
O6 O 1.2280(6) 0.2978(4) 0.5700(4)
H3 H 1.2437 0.2681 0.6318
O7 O 1.1547(9) 0.2549(4) 0.7629(4)
C1 C 0.4209(9) 0.4897(5) 0.2552(5)
H4 H 0.3078 0.4658 0.2898
C2 C 0.3407(11) 0.4884(6) 0.1330(6)
H5 H 0.4469 0.5198 0.0987
H6 H 0.2157 0.5357 0.1121
C3 C 0.2858(10) 0.3703(6) 0.0888(5)
H7 H 0.2365 0.3741 0.0078
H8 H 0.1697 0.3427 0.1177
C4 C 0.4657(9) 0.2856(6) 0.1183(5)
C5 C 0.5597(8) 0.2929(4) 0.2443(5)
H9 H 0.4488 0.2640 0.2779
C6 C 0.7484(9) 0.2172(4) 0.2896(4)
H10 H 0.7815 0.1707 0.2303
C7 C 0.9355(8) 0.2854(4) 0.3492(4)
C8 C 0.8707(8) 0.3154(4) 0.4549(4)
C9 C 0.6667(7) 0.3916(4) 0.4221(4)
H11 H 0.5512 0.3452 0.4358
C10 C 0.6136(7) 0.4121(4) 0.2967(4)
C11 C 0.6849(9) 0.4914(4) 0.5004(5)
H12 H 0.7888 0.5443 0.4860
H13 H 0.5500 0.5301 0.4872
C12 C 0.7497(9) 0.4523(5) 0.6189(5)
H14 H 0.6507 0.3952 0.6306
H15 H 0.7415 0.5155 0.6678
C13 C 0.9730(9) 0.4034(5) 0.6515(5)
H16 H 1.0646 0.4672 0.6826
C14 C 1.0433(8) 0.3676(4) 0.5475(5)
H17 H 1.0839 0.4377 0.5158
C15 C 1.0046(11) 0.3182(6) 0.7452(6)
C16 C 0.7938(8) 0.1997(4) 0.4778(5)
C17 C 0.8625(11) 0.3202(7) 0.8216(6)
H18 H 0.9216 0.2747 0.8863
H19 H 0.7268 0.2906 0.7836
H20 H 0.8466 0.3965 0.8445
C18 C 0.3743(12) 0.1656(6) 0.0919(6)
H21 H 0.3082 0.1596 0.0133
H22 H 0.2715 0.1513 0.1342
H23 H 0.4863 0.1111 0.1118
C19 C 0.6224(11) 0.3046(7) 0.0462(5)
H24 H 0.6705 0.3815 0.0538
H25 H 0.5542 0.2895 -0.0308
H26 H 0.7409 0.2547 0.0704
C20 C 0.8083(8) 0.4612(4) 0.2687(5)
H27 H 0.7734 0.4866 0.1914
H28 H 0.8572 0.5260 0.3163
loop_
_geom_bond_atom_site_label_1
_geom_bond_atom_site_label_2
_geom_bond_site_symmetry_1
_geom_bond_site_symmetry_2
O1 H1 1_555 1_555
O2 C7 1_555 1_555
O3 C6 1_555 1_555
O4 C16 1_555 1_555
O5 H2 1_555 1_555
O6 H3 1_555 1_555
O7 C15 1_555 1_555
C1 O1 1_555 1_555
H4 C1 1_555 1_555
C2 C1 1_555 1_555
H5 C2 1_555 1_555
H6 C2 1_555 1_555
C3 C2 1_555 1_555
H7 C3 1_555 1_555
H8 C3 1_555 1_555
C4 C3 1_555 1_555
C5 C4 1_555 1_555
H9 C5 1_555 1_555
C6 C5 1_555 1_555
H10 C6 1_555 1_555
C7 O5 1_555 1_555
C8 C7 1_555 1_555
C9 C8 1_555 1_555
H11 C9 1_555 1_555
C10 C1 1_555 1_555
C11 C9 1_555 1_555
H12 C11 1_555 1_555
H13 C11 1_555 1_555
C12 C11 1_555 1_555
H14 C12 1_555 1_555
H15 C12 1_555 1_555
C13 C12 1_555 1_555
H16 C13 1_555 1_555
C14 O6 1_555 1_555
H17 C14 1_555 1_555
C15 C13 1_555 1_555
C16 O3 1_555 1_555
C17 C15 1_555 1_555
H18 C17 1_555 1_555
H19 C17 1_555 1_555
H20 C17 1_555 1_555
C18 C4 1_555 1_555
H21 C18 1_555 1_555
H22 C18 1_555 1_555
H23 C18 1_555 1_555
C19 C4 1_555 1_555
H24 C19 1_555 1_555
H25 C19 1_555 1_555
H26 C19 1_555 1_555
C20 O2 1_555 1_555
H27 C20 1_555 1_555
H28 C20 1_555 1_555
C5 C10 1_555 1_555
C6 C7 1_555 1_555
C8 C14 1_555 1_555
C8 C16 1_555 1_555
C9 C10 1_555 1_555
C10 C20 1_555 1_555
C13 C14 1_555 1_555

#END
