
#######################################################################
#
#                 Cambridge Crystallographic Data Centre
#                                CCDC 
#
#######################################################################
#
# If this CIF has been generated from an entry in the Cambridge 
# Structural Database, then it will include bibliographic, chemical, 
# crystal, experimental, refinement or atomic coordinate data resulting 
# from the CCDC's data processing and validation procedures.
#
#######################################################################

data_ISOCUP
_chemical_formula_moiety         'C19 H26 O7,C3 H6 O1'
_chemical_name_systematic        
'9,10,15,18-Tetrahydroxy-12,12-dimethyl-17-oxapentacyclo[7.6.2.1^5,8^.0^1,11^.0^2,8^]octadecane-6,7-dione acetone solvate'
_symmetry_cell_setting           monoclinic
_symmetry_space_group_name_H-M   'C 2'
_symmetry_Int_Tables_number      5
_space_group_name_Hall           'C 2y'
loop_
_symmetry_equiv_pos_site_id
_symmetry_equiv_pos_as_xyz
1 x,y,z
2 -x,y,-z
3 1/2+x,1/2+y,z
4 1/2-x,1/2+y,-z
_cell_length_a                   26.995(5)
_cell_length_b                   6.0828(12)
_cell_length_c                   14.322(3)
_cell_angle_alpha                90
_cell_angle_beta                 117.723(3)
_cell_angle_gamma                90
_cell_volume                     2081.78
_exptl_crystal_colour            yellow
_exptl_crystal_description       prismatic
_cell_formula_units_Z            4
loop_
_atom_site_label
_atom_site_type_symbol
_atom_site_fract_x
_atom_site_fract_y
_atom_site_fract_z
O1 O 0.14197(13) -0.1190(7) 0.3356(2)
H1 H 0.1245 -0.0034 0.3244
O2 O 0.24617(11) -0.0206(5) 0.04148(18)
H2 H 0.2766 -0.0532 0.0906
O3 O 0.20453(10) 0.3446(4) 0.19401(18)
O4 O 0.27795(11) 0.3826(5) 0.16027(18)
H3 H 0.2642 0.4091 0.0970
O5 O 0.34534(15) 0.4171(6) 0.3647(2)
H4 H 0.3305 0.4575 0.3030
O6 O 0.34051(11) -0.1089(6) 0.2181(2)
O7 O 0.42597(13) -0.0782(11) 0.4330(2)
C1 C 0.14451(16) -0.1860(7) 0.2423(3)
H5 H 0.1616 -0.3324 0.2568
C2 C 0.08652(17) -0.2126(9) 0.1524(3)
H6 H 0.0665 -0.0747 0.1412
H7 H 0.0667 -0.3228 0.1710
C3 C 0.08684(18) -0.2803(8) 0.0506(4)
H8 H 0.0486 -0.2971 -0.0045
H9 H 0.1054 -0.4215 0.0607
C4 C 0.11668(15) -0.1120(7) 0.0156(3)
C5 C 0.17709(13) -0.0822(6) 0.1066(2)
H10 H 0.1951 -0.2252 0.1128
C6 C 0.21237(14) 0.0796(6) 0.0815(2)
H11 H 0.1861 0.1763 0.0257
C7 C 0.24604(14) 0.2262(6) 0.1775(2)
C8 C 0.28327(14) 0.1002(6) 0.2799(2)
C9 C 0.24615(14) -0.0793(7) 0.2980(2)
H12 H 0.2561 -0.2226 0.2802
C10 C 0.18363(15) -0.0351(6) 0.2189(3)
C11 C 0.25896(16) -0.0882(8) 0.4142(2)
H13 H 0.2429 -0.2212 0.4262
H14 H 0.2414 0.0363 0.4293
C12 C 0.32234(17) -0.0846(9) 0.4905(3)
H15 H 0.3281 -0.0611 0.5619
H16 H 0.3384 -0.2261 0.4885
C13 C 0.35244(16) 0.0967(9) 0.4619(3)
H17 H 0.3795 0.1758 0.5245
C14 C 0.31181(17) 0.2532(7) 0.3781(3)
H18 H 0.2847 0.3163 0.3982
C15 C 0.33409(14) -0.0137(7) 0.2856(3)
C16 C 0.37975(17) -0.0066(10) 0.4030(3)
C17 C 0.12136(19) -0.2059(10) -0.0798(3)
H19 H 0.0846 -0.2303 -0.1369
H20 H 0.1414 -0.3426 -0.0604
H21 H 0.1410 -0.1034 -0.1016
C18 C 0.08209(18) 0.0983(9) -0.0207(3)
H22 H 0.0466 0.0664 -0.0801
H23 H 0.1017 0.2049 -0.0406
H24 H 0.0762 0.1560 0.0358
C19 C 0.17280(16) 0.2086(6) 0.2286(3)
H25 H 0.1332 0.2396 0.1863
H26 H 0.1830 0.2424 0.3015
O8 O 0.0626(2) 0.2174(12) 0.2875(4)
C20 C 0.0255(2) 0.2331(14) 0.3117(4)
C21 C -0.0060(3) 0.4328(15) 0.2909(5)
H27 H -0.0032 0.4900 0.3556
H28 H -0.0446 0.4037 0.2427
H29 H 0.0086 0.5385 0.2603
C22 C 0.0134(4) 0.0550(14) 0.3624(7)
H30 H 0.0246 -0.0806 0.3436
H31 H -0.0261 0.0511 0.3404
H32 H 0.0335 0.0746 0.4375
loop_
_geom_bond_atom_site_label_1
_geom_bond_atom_site_label_2
_geom_bond_site_symmetry_1
_geom_bond_site_symmetry_2
O1 H1 1_555 1_555
O2 H2 1_555 1_555
O3 C7 1_555 1_555
O4 H3 1_555 1_555
O5 H4 1_555 1_555
O6 C15 1_555 1_555
O7 C16 1_555 1_555
O8 C20 1_555 1_555
C1 O1 1_555 1_555
H5 C1 1_555 1_555
C2 C1 1_555 1_555
H6 C2 1_555 1_555
H7 C2 1_555 1_555
C3 C2 1_555 1_555
H8 C3 1_555 1_555
H9 C3 1_555 1_555
C4 C3 1_555 1_555
C5 C4 1_555 1_555
H10 C5 1_555 1_555
C6 O2 1_555 1_555
H11 C6 1_555 1_555
C7 O4 1_555 1_555
C8 C7 1_555 1_555
C9 C8 1_555 1_555
H12 C9 1_555 1_555
C10 C1 1_555 1_555
C11 C9 1_555 1_555
H13 C11 1_555 1_555
H14 C11 1_555 1_555
C12 C11 1_555 1_555
H15 C12 1_555 1_555
H16 C12 1_555 1_555
C13 C12 1_555 1_555
H17 C13 1_555 1_555
C14 O5 1_555 1_555
H18 C14 1_555 1_555
C15 C8 1_555 1_555
C16 C13 1_555 1_555
C17 C4 1_555 1_555
H19 C17 1_555 1_555
H20 C17 1_555 1_555
H21 C17 1_555 1_555
C18 C4 1_555 1_555
H22 C18 1_555 1_555
H23 C18 1_555 1_555
H24 C18 1_555 1_555
C19 O3 1_555 1_555
H25 C19 1_555 1_555
H26 C19 1_555 1_555
C20 C21 1_555 1_555
C21 H27 1_555 1_555
H28 C21 1_555 1_555
H29 C21 1_555 1_555
C22 C20 1_555 1_555
H30 C22 1_555 1_555
H31 C22 1_555 1_555
H32 C22 1_555 1_555
C5 C6 1_555 1_555
C5 C10 1_555 1_555
C6 C7 1_555 1_555
C8 C14 1_555 1_555
C9 C10 1_555 1_555
C10 C19 1_555 1_555
C13 C14 1_555 1_555
C15 C16 1_555 1_555

#END
