
#######################################################################
#
#                 Cambridge Crystallographic Data Centre
#                                CCDC 
#
#######################################################################
#
# If this CIF has been generated from an entry in the Cambridge 
# Structural Database, then it will include bibliographic, chemical, 
# crystal, experimental, refinement or atomic coordinate data resulting 
# from the CCDC's data processing and validation procedures.
#
#######################################################################

data_ISODEA
_chemical_formula_moiety         'C20 H28 O7'
_chemical_name_systematic        
5-Acetyl-6,15,18-trihydroxy-12,12-dimethyl-9,17-dioxapentacyclo[8.5.3.0^1,11^.0^2,7^.0^7,18^]octadecan-8-one
_symmetry_cell_setting           monoclinic
_symmetry_space_group_name_H-M   'P 21'
_symmetry_Int_Tables_number      4
_space_group_name_Hall           'P 2yb'
loop_
_symmetry_equiv_pos_site_id
_symmetry_equiv_pos_as_xyz
1 x,y,z
2 -x,1/2+y,-z
_cell_length_a                   10.3751(10)
_cell_length_b                   7.7786(7)
_cell_length_c                   11.4085(11)
_cell_angle_alpha                90
_cell_angle_beta                 99.955(2)
_cell_angle_gamma                90
_cell_volume                     906.846
_exptl_crystal_colour            colorless
_exptl_crystal_description       prismatic
_cell_formula_units_Z            2
loop_
_atom_site_label
_atom_site_type_symbol
_atom_site_fract_x
_atom_site_fract_y
_atom_site_fract_z
O1 O -0.14721(14) 0.60547(19) 0.13034(12)
H1 H -0.1392 0.5924 0.0606
O2 O 0.05440(11) 0.13783(18) 0.09038(10)
O3 O 0.16655(13) -0.07209(19) 0.19901(12)
H2 H 0.2413 -0.0401 0.2252
O4 O 0.00245(13) -0.03227(18) 0.37284(11)
O5 O 0.16222(15) 0.0712(2) 0.51108(12)
O6 O 0.35824(13) 0.1257(2) 0.31500(14)
H3 H 0.3702 0.0799 0.3807
O7 O 0.52431(19) 0.4362(3) 0.4944(2)
C1 C -0.19557(18) 0.4503(3) 0.17395(16)
H4 H -0.2186 0.4766 0.2518
C2 C -0.32102(19) 0.3929(3) 0.09274(19)
H5 H -0.3853 0.4844 0.0876
H6 H -0.3024 0.3730 0.0134
C3 C -0.37823(18) 0.2307(3) 0.1364(2)
H7 H -0.4578 0.2016 0.0820
H8 H -0.4016 0.2531 0.2137
C4 C -0.28439(17) 0.0748(3) 0.14708(16)
C5 C -0.15344(16) 0.1340(2) 0.22526(15)
H9 H -0.1754 0.1532 0.3044
C6 C -0.04460(17) -0.0049(3) 0.24477(16)
H10 H -0.0742 -0.1126 0.2043
C7 C 0.07948(17) 0.0630(2) 0.20503(15)
C8 C 0.12488(17) 0.1913(2) 0.30790(14)
C9 C 0.02025(17) 0.3427(2) 0.30069(15)
H11 H -0.0193 0.3332 0.3725
C10 C -0.09129(17) 0.3066(2) 0.19353(15)
C11 C 0.08650(19) 0.5205(3) 0.30634(18)
H12 H 0.1216 0.5402 0.2340
H13 H 0.0224 0.6094 0.3125
C12 C 0.1969(2) 0.5297(3) 0.4140(2)
H14 H 0.1595 0.5204 0.4859
H15 H 0.2389 0.6412 0.4148
C13 C 0.3026(2) 0.3874(3) 0.41545(17)
H16 H 0.3075 0.3231 0.4900
C14 C 0.26451(17) 0.2604(3) 0.31239(15)
H17 H 0.2646 0.3248 0.2386
C15 C 0.4362(2) 0.4640(3) 0.41338(19)
C16 C 0.10479(18) 0.0740(3) 0.41068(16)
C17 C 0.4561(3) 0.5780(4) 0.3129(2)
H18 H 0.4431 0.6956 0.3336
H19 H 0.3946 0.5480 0.2430
H20 H 0.5436 0.5637 0.2975
C18 C -0.2700(2) 0.0072(3) 0.02314(18)
H21 H -0.3530 -0.0350 -0.0170
H22 H -0.2070 -0.0843 0.0316
H23 H -0.2412 0.0988 -0.0225
C19 C -0.3438(2) -0.0698(3) 0.2130(2)
H24 H -0.3541 -0.0301 0.2905
H25 H -0.2866 -0.1677 0.2210
H26 H -0.4276 -0.1016 0.1686
C20 C -0.02710(17) 0.2893(2) 0.08243(15)
H27 H -0.0945 0.2819 0.0121
H28 H 0.0256 0.3904 0.0748
loop_
_geom_bond_atom_site_label_1
_geom_bond_atom_site_label_2
_geom_bond_site_symmetry_1
_geom_bond_site_symmetry_2
O1 H1 1_555 1_555
O2 C7 1_555 1_555
O3 H2 1_555 1_555
O4 C6 1_555 1_555
O5 C16 1_555 1_555
O6 H3 1_555 1_555
O7 C15 1_555 1_555
C1 O1 1_555 1_555
H4 C1 1_555 1_555
C2 C1 1_555 1_555
H5 C2 1_555 1_555
H6 C2 1_555 1_555
C3 C2 1_555 1_555
H7 C3 1_555 1_555
H8 C3 1_555 1_555
C4 C3 1_555 1_555
C5 C4 1_555 1_555
H9 C5 1_555 1_555
C6 C5 1_555 1_555
H10 C6 1_555 1_555
C7 O3 1_555 1_555
C8 C7 1_555 1_555
C9 C8 1_555 1_555
H11 C9 1_555 1_555
C10 C1 1_555 1_555
C11 C9 1_555 1_555
H12 C11 1_555 1_555
H13 C11 1_555 1_555
C12 C11 1_555 1_555
H14 C12 1_555 1_555
H15 C12 1_555 1_555
C13 C12 1_555 1_555
H16 C13 1_555 1_555
C14 O6 1_555 1_555
H17 C14 1_555 1_555
C15 C13 1_555 1_555
C16 O4 1_555 1_555
C17 C15 1_555 1_555
H18 C17 1_555 1_555
H19 C17 1_555 1_555
H20 C17 1_555 1_555
C18 C4 1_555 1_555
H21 C18 1_555 1_555
H22 C18 1_555 1_555
H23 C18 1_555 1_555
C19 C4 1_555 1_555
H24 C19 1_555 1_555
H25 C19 1_555 1_555
H26 C19 1_555 1_555
C20 O2 1_555 1_555
H27 C20 1_555 1_555
H28 C20 1_555 1_555
C5 C10 1_555 1_555
C6 C7 1_555 1_555
C8 C14 1_555 1_555
C8 C16 1_555 1_555
C9 C10 1_555 1_555
C10 C20 1_555 1_555
C13 C14 1_555 1_555

#END
