
#######################################################################
#
#                 Cambridge Crystallographic Data Centre
#                                CCDC 
#
#######################################################################
#
# If this CIF has been generated from an entry in the Cambridge 
# Structural Database, then it will include bibliographic, chemical, 
# crystal, experimental, refinement or atomic coordinate data resulting 
# from the CCDC's data processing and validation procedures.
#
#######################################################################

data_ISOFON
_chemical_formula_moiety         'C17 H18 Cl1 N1 O4 S1,0.5(H2 O1)'
_chemical_name_systematic        
'(R)-3-chloro-2-phenylpropyl tosylcarbamate hemihydrate'
_symmetry_cell_setting           orthorhombic
_symmetry_space_group_name_H-M   'P 21 21 21'
_symmetry_Int_Tables_number      19
_space_group_name_Hall           'P 2ac 2ab'
loop_
_symmetry_equiv_pos_site_id
_symmetry_equiv_pos_as_xyz
1 x,y,z
2 1/2-x,-y,1/2+z
3 -x,1/2+y,1/2-z
4 1/2+x,1/2-y,-z
_cell_length_a                   5.64090(8)
_cell_length_b                   9.91454(14)
_cell_length_c                   31.5039(4)
_cell_angle_alpha                90
_cell_angle_beta                 90
_cell_angle_gamma                90
_cell_volume                     1761.92
_exptl_crystal_colour            colorless
_exptl_crystal_description       block
_cell_formula_units_Z            4
_exptl_crystal_recrystallization_method 'ethyl acetate / hexane'
loop_
_atom_site_label
_atom_site_type_symbol
_atom_site_fract_x
_atom_site_fract_y
_atom_site_fract_z
Cl1 Cl 0.84029(10) 0.99060(6) 0.30612(2)
S1 S 0.0330(5) 0.55186(19) 0.45335(6)
O1 O 0.1481(11) 0.5847(5) 0.49306(14)
O2 O -0.2078(10) 0.5899(5) 0.44579(15)
O3 O 0.3366(19) 0.6817(14) 0.3552(5)
O4 O -0.0175(19) 0.5765(9) 0.3581(2)
N1 N 0.2038(9) 0.6222(4) 0.41786(14)
H1 H 0.3337 0.6631 0.4265
C1 C 0.3316(5) 0.6966(2) 0.31273(8)
H2 H 0.1884 0.7480 0.3045
H3 H 0.3230 0.6067 0.2991
C2 C 0.5519(4) 0.7705(2) 0.29732(7)
H4 H 0.6938 0.7154 0.3051
C3 C 0.5701(4) 0.9062(2) 0.31997(7)
H5 H 0.5649 0.8918 0.3511
H6 H 0.4333 0.9634 0.3120
C4 C 0.5483(4) 0.7864(2) 0.24938(7)
C5 C 0.7363(4) 0.7366(2) 0.22555(8)
H7 H 0.8623 0.6905 0.2393
C6 C 0.7414(5) 0.7539(3) 0.18181(8)
H8 H 0.8703 0.7191 0.1658
C7 C 0.5596(5) 0.8215(3) 0.16155(8)
H9 H 0.5635 0.8336 0.1316
C8 C 0.3713(5) 0.8715(3) 0.18512(8)
H10 H 0.2455 0.9176 0.1713
C9 C 0.3662(4) 0.8544(2) 0.22890(8)
H11 H 0.2375 0.8895 0.2449
C10 C 0.1539(18) 0.6207(5) 0.3748(2)
C11 C 0.0585(12) 0.3769(5) 0.44496(16)
C12 C -0.0933(5) 0.3141(3) 0.42434(8)
H12 H -0.2259 0.3612 0.4131
C13 C -0.0710(14) 0.1656(8) 0.4168(2)
H13 H -0.1922 0.1169 0.4026
C14 C 0.1329(15) 0.1008(6) 0.4314(2)
C15 C 0.2994(12) 0.1774(8) 0.4532(2)
H14 H 0.4400 0.1360 0.4635
C16 C 0.2609(13) 0.3145(8) 0.46005(19)
H15 H 0.3751 0.3657 0.4753
C17 C 0.1555(14) -0.0484(6) 0.4233(2)
H16 H 0.0619 -0.0980 0.4444
H17 H 0.3224 -0.0750 0.4256
H18 H 0.0970 -0.0692 0.3948
O9 O 0.5953(9) 0.7776(5) 0.43148(15)
S2? S 0.1407(5) 0.53612(18) 0.46313(6)
O5? O 0.2882(14) 0.5482(5) 0.50009(14)
O6? O -0.0900(15) 0.5938(6) 0.4625(2)
O7? O 0.4000(19) 0.6712(16) 0.3604(5)
O8? O 0.021(2) 0.6012(10) 0.3715(3)
N2? N 0.3008(9) 0.6054(4) 0.42470(13)
H19? H 0.4459 0.6317 0.4308
H20? H 0.3070 0.6109 0.2972
H21? H 0.1878 0.7533 0.3102
C18? C 0.2214(12) 0.6244(5) 0.3839(2)
C19? C 0.1254(14) 0.3646(6) 0.44926(17)
H22? H -0.2169 0.3740 0.4163
C20? C -0.1015(13) 0.1900(7) 0.4151(2)
H23? H -0.2308 0.1584 0.3985
C21? C 0.0706(15) 0.0973(6) 0.4280(2)
C22? C 0.2715(12) 0.1431(7) 0.4510(2)
H24? H 0.3904 0.0802 0.4591
C23? C 0.2975(10) 0.2771(8) 0.46187(17)
H25? H 0.4310 0.3072 0.4776
C24? C 0.0582(14) -0.0507(6) 0.4178(2)
H26? H -0.1050 -0.0826 0.4214
H27? H 0.1633 -0.1007 0.4369
H28? H 0.1083 -0.0653 0.3884
loop_
_geom_bond_atom_site_label_1
_geom_bond_atom_site_label_2
_geom_bond_site_symmetry_1
_geom_bond_site_symmetry_2
Cl1 C3 1_555 1_555
S1 O1 1_555 1_555
O2 S1 1_555 1_555
O3 C1 1_555 1_555
O4 C10 1_555 1_555
N1 S1 1_555 1_555
H1 N1 1_555 1_555
C1 H2 1_555 1_555
H3 C1 1_555 1_555
C2 C1 1_555 1_555
H4 C2 1_555 1_555
C3 C2 1_555 1_555
H5 C3 1_555 1_555
H6 C3 1_555 1_555
C4 C2 1_555 1_555
C5 C4 1_555 1_555
H7 C5 1_555 1_555
C6 C5 1_555 1_555
H8 C6 1_555 1_555
C7 C6 1_555 1_555
H9 C7 1_555 1_555
C8 C7 1_555 1_555
H10 C8 1_555 1_555
C9 C4 1_555 1_555
H11 C9 1_555 1_555
C10 O3 1_555 1_555
C11 S1 1_555 1_555
C12 C11 1_555 1_555
H12 C12 1_555 1_555
C13 C12 1_555 1_555
H13 C13 1_555 1_555
C14 C13 1_555 1_555
C15 C14 1_555 1_555
H14 C15 1_555 1_555
C16 C11 1_555 1_555
H15 C16 1_555 1_555
C17 C14 1_555 1_555
H16 C17 1_555 1_555
H17 C17 1_555 1_555
H18 C17 1_555 1_555
N1 C10 1_555 1_555
C8 C9 1_555 1_555
C15 C16 1_555 1_555

#END
