
#######################################################################
#
#                 Cambridge Crystallographic Data Centre
#                                CCDC 
#
#######################################################################
#
# If this CIF has been generated from an entry in the Cambridge 
# Structural Database, then it will include bibliographic, chemical, 
# crystal, experimental, refinement or atomic coordinate data resulting 
# from the CCDC's data processing and validation procedures.
#
#######################################################################

data_ISOFIH
_chemical_formula_moiety         'C15 H14 Cl1 N1 O1'
_chemical_name_systematic        (R)-2-(9H-carbazol-9-yl)-3-chloropropan-1-ol
_symmetry_cell_setting           tetragonal
_symmetry_space_group_name_H-M   'I 4'
_symmetry_Int_Tables_number      79
_space_group_name_Hall           'I 4'
loop_
_symmetry_equiv_pos_site_id
_symmetry_equiv_pos_as_xyz
1 x,y,z
2 -y,x,z
3 -x,-y,z
4 y,-x,z
5 1/2+x,1/2+y,1/2+z
6 1/2-y,1/2+x,1/2+z
7 1/2-x,1/2-y,1/2+z
8 1/2+y,1/2-x,1/2+z
_cell_length_a                   16.8547(5)
_cell_length_b                   16.8547(5)
_cell_length_c                   9.4653(4)
_cell_angle_alpha                90
_cell_angle_beta                 90
_cell_angle_gamma                90
_cell_volume                     2688.91
_exptl_crystal_colour            colorless
_exptl_crystal_description       needle
_cell_formula_units_Z            8
_exptl_crystal_recrystallization_method 'ethyl acetate / hexane'
loop_
_atom_site_label
_atom_site_type_symbol
_atom_site_fract_x
_atom_site_fract_y
_atom_site_fract_z
Cl1 Cl 0.70093(5) 0.25177(5) 0.72709(9)
O1 O 0.94048(12) 0.09480(13) 0.9044(3)
H1 H 0.9210 0.0493 0.8945
N1 N 0.78458(15) 0.09229(14) 0.7811(2)
C1 C 0.72889(17) 0.04614(17) 0.8522(3)
C2 C 0.70430(18) 0.04738(19) 0.9930(3)
H2 H 0.7247 0.0856 1.0571
C3 C 0.6495(2) -0.00850(19) 1.0366(3)
H3 H 0.6325 -0.0086 1.1323
C4 C 0.6186(2) -0.0650(2) 0.9432(4)
H4 H 0.5808 -0.1026 0.9756
C5 C 0.6430(2) -0.06607(19) 0.8045(4)
H5 H 0.6225 -0.1048 0.7415
C6 C 0.69772(18) -0.01047(17) 0.7564(3)
C7 C 0.73583(19) 0.00345(19) 0.6224(3)
C8 C 0.7293(2) -0.0324(2) 0.4889(3)
H6 H 0.6934 -0.0750 0.4735
C9 C 0.7763(2) -0.0044(2) 0.3807(3)
H7 H 0.7719 -0.0274 0.2894
C10 C 0.8298(2) 0.0565(2) 0.4027(4)
H8 H 0.8619 0.0738 0.3262
C11 C 0.8381(2) 0.0933(2) 0.5330(3)
H9 H 0.8751 0.1350 0.5475
C12 C 0.78926(19) 0.06612(18) 0.6420(3)
C13 C 0.82260(18) 0.16480(18) 0.8334(3)
H10 H 0.8541 0.1871 0.7531
C14 C 0.76285(18) 0.22786(18) 0.8755(3)
H11 H 0.7911 0.2761 0.9080
H12 H 0.7297 0.2081 0.9544
C15 C 0.88112(18) 0.14745(19) 0.9521(3)
H13 H 0.9059 0.1976 0.9843
H14 H 0.8527 0.1236 1.0332
loop_
_geom_bond_atom_site_label_1
_geom_bond_atom_site_label_2
_geom_bond_site_symmetry_1
_geom_bond_site_symmetry_2
Cl1 C14 1_555 1_555
O1 H1 1_555 1_555
N1 C1 1_555 1_555
C1 C2 1_555 1_555
C2 H2 1_555 1_555
C3 C2 1_555 1_555
H3 C3 1_555 1_555
C4 C3 1_555 1_555
H4 C4 1_555 1_555
C5 C4 1_555 1_555
H5 C5 1_555 1_555
C6 C1 1_555 1_555
C7 C6 1_555 1_555
C8 C7 1_555 1_555
H6 C8 1_555 1_555
C9 C8 1_555 1_555
H7 C9 1_555 1_555
C10 C9 1_555 1_555
H8 C10 1_555 1_555
C11 C10 1_555 1_555
H9 C11 1_555 1_555
C12 N1 1_555 1_555
C13 N1 1_555 1_555
H10 C13 1_555 1_555
C14 C13 1_555 1_555
H11 C14 1_555 1_555
H12 C14 1_555 1_555
C15 O1 1_555 1_555
H13 C15 1_555 1_555
H14 C15 1_555 1_555
C5 C6 1_555 1_555
C7 C12 1_555 1_555
C11 C12 1_555 1_555
C13 C15 1_555 1_555

#END
