
#######################################################################
#
#                 Cambridge Crystallographic Data Centre
#                                CCDC 
#
#######################################################################
#
# If this CIF has been generated from an entry in the Cambridge 
# Structural Database, then it will include bibliographic, chemical, 
# crystal, experimental, refinement or atomic coordinate data resulting 
# from the CCDC's data processing and validation procedures.
#
#######################################################################

data_ISOGUU
_chemical_formula_moiety         'C10 H12 F1 N1 O3'
_chemical_name_systematic        
'ethyl 2-fluoro-3-hydroxy-3-(pyridin-4-yl)propanoate'
_symmetry_cell_setting           monoclinic
_symmetry_space_group_name_H-M   'P 21'
_symmetry_Int_Tables_number      4
_space_group_name_Hall           'P 2yb'
loop_
_symmetry_equiv_pos_site_id
_symmetry_equiv_pos_as_xyz
1 x,y,z
2 -x,1/2+y,-z
_cell_length_a                   7.71880(12)
_cell_length_b                   15.58529(13)
_cell_length_c                   9.12133(13)
_cell_angle_alpha                90
_cell_angle_beta                 114.0345(18)
_cell_angle_gamma                90
_cell_volume                     1002.16
_exptl_crystal_colour            colorless
_exptl_crystal_description       irregular
_cell_formula_units_Z            4
_exptl_crystal_recrystallization_method 'Vapour deposition'
loop_
_atom_site_label
_atom_site_type_symbol
_atom_site_fract_x
_atom_site_fract_y
_atom_site_fract_z
O1 O 0.5676(2) 0.27575(10) 0.64820(18)
H1 H 0.6634(6) 0.270(2) 0.6312(15)
F1 F 0.54409(19) 0.30469(9) 0.34405(17)
C1 C 0.2272(3) 0.31198(11) 0.6643(2)
H2 H 0.3299(3) 0.34753(11) 0.7199(2)
N1 N -0.0897(3) 0.26793(11) 0.6140(2)
O2 O 0.0577(2) 0.31184(10) 0.18838(18)
O3 O 0.2468(3) 0.22230(14) 0.1299(3)
C2 C -0.0812(3) 0.21121(12) 0.5057(2)
H3 H -0.1866(3) 0.17706(12) 0.4506(2)
C3 C 0.3780(3) 0.30718(12) 0.3692(2)
H4 H 0.3520(3) 0.36599(12) 0.3925(2)
C4 C 0.0782(3) 0.20159(11) 0.4731(2)
H5 H 0.0800(3) 0.16103(11) 0.3989(2)
C5 C 0.2355(3) 0.25346(11) 0.5528(2)
C6 C 0.4091(3) 0.24808(12) 0.5139(2)
H6 H 0.4278(3) 0.18878(12) 0.4877(2)
C7 C 0.2211(3) 0.27592(13) 0.2140(2)
C8 C 0.0632(3) 0.31658(12) 0.6912(2)
H7 H 0.0594(3) 0.35556(12) 0.7670(2)
C9 C -0.1051(4) 0.27521(17) 0.0507(3)
H8 H -0.0982(4) 0.29112(17) -0.0496(3)
H9 H -0.1044(4) 0.21310(17) 0.0579(3)
C10 C -0.2801(4) 0.3105(2) 0.0578(3)
H10 H -0.3892(4) 0.2878(14) -0.030(2)
H11 H -0.285(2) 0.2946(15) 0.1577(15)
H12 H -0.280(2) 0.3719(2) 0.050(3)
O4 O 0.6035(2) 0.02128(10) 0.68194(19)
H13 H 0.7140(14) 0.030(2) 0.6964(19)
F2 F 0.8612(2) -0.01833(12) 0.9857(2)
O5 O 0.5323(2) -0.00597(9) 1.14408(16)
N2 N -0.0223(3) 0.03869(10) 0.7194(2)
O6 O 0.7820(3) 0.08081(15) 1.1936(3)
C11 C 0.2856(3) 0.10289(11) 0.8557(2)
H14 H 0.3614(3) 0.14315(11) 0.9291(2)
C12 C 0.0535(3) -0.01152(13) 0.6424(2)
H15 H -0.0259(3) -0.05042(13) 0.5680(2)
C13 C 0.0951(3) 0.09554(12) 0.8253(2)
H16 H 0.0458(3) 0.13140(12) 0.8804(2)
C14 C 0.3626(3) 0.04944(11) 0.7753(2)
C15 C 0.6719(3) 0.02769(13) 1.1143(3)
C16 C 0.2433(3) -0.00951(12) 0.6661(2)
H17 H 0.2893(3) -0.04660(12) 0.6104(2)
C17 C 0.4992(4) 0.03357(13) 1.2767(3)
H18 H 0.6008(4) 0.01885(13) 1.3788(3)
H19 H 0.4937(4) 0.09553(13) 1.2657(3)
C18 C 0.5736(3) 0.05011(12) 0.8158(2)
H20 H 0.6221(3) 0.10876(12) 0.8423(2)
C19 C 0.3133(4) -0.00070(16) 1.2680(3)
H21 H 0.2136(6) 0.0157(13) 1.1677(12)
H22 H 0.3195(12) -0.06213(19) 1.276(3)
H23 H 0.2880(16) 0.0225(12) 1.3549(16)
C20 C 0.6768(3) -0.00871(13) 0.9611(3)
H24 H 0.6153(3) -0.06510(13) 0.9398(3)
F3? F 0.6279(10) -0.0888(3) 0.9227(8)
H25? H 0.8106(3) -0.00598(13) 0.9784(3)
loop_
_geom_bond_atom_site_label_1
_geom_bond_atom_site_label_2
_geom_bond_site_symmetry_1
_geom_bond_site_symmetry_2
O1 H1 1_555 1_555
F1 C3 1_555 1_555
C1 H2 1_555 1_555
N1 C2 1_555 1_555
O2 C7 1_555 1_555
O3 C7 1_555 1_555
C2 H3 1_555 1_555
C3 H4 1_555 1_555
C4 C2 1_555 1_555
H5 C4 1_555 1_555
C5 C1 1_555 1_555
C6 O1 1_555 1_555
H6 C6 1_555 1_555
C7 C3 1_555 1_555
C8 C1 1_555 1_555
H7 C8 1_555 1_555
C9 O2 1_555 1_555
H8 C9 1_555 1_555
H9 C9 1_555 1_555
C10 C9 1_555 1_555
H10 C10 1_555 1_555
H11 C10 1_555 1_555
H12 C10 1_555 1_555
O4 H13 1_555 1_555
F2 C20 1_555 1_555
O5 C15 1_555 1_555
N2 C12 1_555 1_555
O6 C15 1_555 1_555
C11 H14 1_555 1_555
C12 H15 1_555 1_555
C13 N2 1_555 1_555
H16 C13 1_555 1_555
C14 C11 1_555 1_555
C15 C20 1_555 1_555
C16 C12 1_555 1_555
H17 C16 1_555 1_555
C17 O5 1_555 1_555
H18 C17 1_555 1_555
H19 C17 1_555 1_555
C18 O4 1_555 1_555
H20 C18 1_555 1_555
C19 C17 1_555 1_555
H21 C19 1_555 1_555
H22 C19 1_555 1_555
H23 C19 1_555 1_555
C20 C18 1_555 1_555
H24 C20 1_555 1_555
N1 C8 1_555 1_555
C3 C6 1_555 1_555
C4 C5 1_555 1_555
C5 C6 1_555 1_555
C11 C13 1_555 1_555
C14 C16 1_555 1_555
C14 C18 1_555 1_555

#END
