
#######################################################################
#
#                 Cambridge Crystallographic Data Centre
#                                CCDC 
#
#######################################################################
#
# If this CIF has been generated from an entry in the Cambridge 
# Structural Database, then it will include bibliographic, chemical, 
# crystal, experimental, refinement or atomic coordinate data resulting 
# from the CCDC's data processing and validation procedures.
#
#######################################################################

data_ISOHII
_chemical_formula_moiety         'C60 H72 O8'
_chemical_name_systematic        
5,11,17,23-tetrakis(2-hydroxy-2-methylbut-3-yn-4-yl)-25,26,27,28-tetrakis(propoxy)calix[4]arene
_symmetry_cell_setting           orthorhombic
_symmetry_space_group_name_H-M   'P n n a'
_symmetry_Int_Tables_number      52
_space_group_name_Hall           '-P 2a 2bc'
loop_
_symmetry_equiv_pos_site_id
_symmetry_equiv_pos_as_xyz
1 x,y,z
2 1/2-x,-y,z
3 1/2-x,1/2+y,1/2-z
4 x,1/2-y,1/2-z
5 -x,-y,-z
6 1/2+x,y,-z
7 1/2+x,1/2-y,1/2+z
8 -x,1/2+y,1/2+z
_cell_length_a                   33.6784(9)
_cell_length_b                   25.4699(7)
_cell_length_c                   19.5175(5)
_cell_angle_alpha                90
_cell_angle_beta                 90
_cell_angle_gamma                90
_cell_volume                     16741.8
_exptl_crystal_colour            colorless
_exptl_crystal_description       prism
_cell_formula_units_Z            12
loop_
_atom_site_label
_atom_site_type_symbol
_atom_site_fract_x
_atom_site_fract_y
_atom_site_fract_z
O1 O 0.18001(6) 0.59768(7) 0.26899(9)
O2 O 0.10836(5) 0.65347(7) 0.17365(9)
O3 O 0.02907(5) 0.58471(7) 0.12031(9)
O4 O 0.10691(5) 0.52347(7) 0.18366(9)
O5 O 0.26102(5) 0.55151(7) -0.16623(9)
O6 O 0.12693(7) 0.95006(8) -0.06222(12)
O7 O 0.20268(5) 0.61359(7) -0.22568(9)
O8 O 0.18760(9) 0.24579(9) -0.05913(13)
C1 C 0.19694(7) 0.54568(10) 0.17041(13)
C2 C 0.21092(7) 0.54387(10) 0.10358(13)
H1 H 0.2140 0.5108 0.0817
C3 C 0.22048(7) 0.58947(9) 0.06792(13)
C4 C 0.21251(7) 0.63773(10) 0.09825(13)
H2 H 0.2173 0.6691 0.0731
C5 C 0.19771(7) 0.64102(10) 0.16475(13)
C6 C 0.19221(7) 0.59465(10) 0.20103(13)
C7 C 0.18619(8) 0.69429(10) 0.19338(14)
H3 H 0.1751 0.6898 0.2400
H4 H 0.2101 0.7167 0.1968
C8 C 0.15576(8) 0.72091(10) 0.14820(13)
C9 C 0.16426(8) 0.76720(10) 0.11309(14)
H5 H 0.1889 0.7844 0.1209
C10 C 0.13719(9) 0.78882(10) 0.06656(14)
C11 C 0.10256(9) 0.76125(10) 0.05123(14)
H6 H 0.0852 0.7742 0.0167
C12 C 0.09307(8) 0.71545(10) 0.08541(13)
C13 C 0.11848(8) 0.69758(10) 0.13720(13)
C14 C 0.05672(8) 0.68367(10) 0.06639(14)
H7 H 0.0409 0.7033 0.0322
H8 H 0.0400 0.6785 0.1076
C15 C 0.06821(7) 0.63060(10) 0.03703(12)
C16 C 0.09358(7) 0.62897(9) -0.01847(13)
H9 H 0.1033 0.6609 -0.0373
C17 C 0.10526(7) 0.58137(9) -0.04749(13)
C18 C 0.09345(7) 0.53490(10) -0.01630(13)
H10 H 0.1026 0.5024 -0.0340
C19 C 0.06841(7) 0.53507(10) 0.04044(13)
C20 C 0.05494(7) 0.58326(10) 0.06497(13)
C21 C 0.05882(8) 0.48349(10) 0.07630(14)
H11 H 0.0417 0.4904 0.1165
H12 H 0.0441 0.4602 0.0445
C22 C 0.09656(8) 0.45657(10) 0.09942(13)
C23 C 0.11017(8) 0.41162(10) 0.06750(14)
H13 H 0.0940 0.3950 0.0340
C24 C 0.14719(8) 0.39003(10) 0.08336(15)
C25 C 0.17171(9) 0.41707(10) 0.12907(16)
H14 H 0.1977 0.4042 0.1377
C26 C 0.15896(8) 0.46212(10) 0.16213(14)
C27 C 0.12037(8) 0.47970(10) 0.14981(14)
C28 C 0.18667(8) 0.49438(10) 0.20603(14)
H15 H 0.2113 0.4742 0.2149
H16 H 0.1739 0.5019 0.2506
C29 C 0.23952(7) 0.58589(9) 0.00223(14)
C30 C 0.25768(7) 0.58126(9) -0.04996(14)
C31 C 0.28347(7) 0.57475(10) -0.11067(13)
C32 C 0.29932(8) 0.62727(10) -0.13497(15)
H17 H 0.2771 0.6496 -0.1492
H18 H 0.3173 0.6218 -0.1739
H19 H 0.3138 0.6443 -0.0975
C33 C 0.31714(7) 0.53736(10) -0.09207(14)
H20 H 0.3326 0.5522 -0.0542
H21 H 0.3344 0.5324 -0.1319
H22 H 0.3060 0.5034 -0.0781
C34 C 0.14436(10) 0.83962(11) 0.03651(14)
C35 C 0.14858(11) 0.88315(12) 0.01503(16)
C36 C 0.15580(10) 0.93636(11) -0.01075(15)
C37 C 0.1459(4) 0.9753(4) 0.0469(5)
H23 H 0.1502 1.0112 0.0307
H24 H 0.1630 0.9684 0.0865
H25 H 0.1180 0.9710 0.0604
C38 C 0.19655(10) 0.93914(16) -0.0425(2)
H26 H 0.1977 0.9158 -0.0823
H27 H 0.2165 0.9282 -0.0088
H28 H 0.2020 0.9753 -0.0571
C39 C 0.12811(7) 0.58175(9) -0.10961(13)
C40 C 0.14512(7) 0.58520(9) -0.16336(13)
C41 C 0.16392(7) 0.58984(9) -0.23175(13)
C42 C 0.13843(8) 0.62541(10) -0.27684(13)
H29 H 0.1359 0.6600 -0.2552
H30 H 0.1120 0.6098 -0.2824
H31 H 0.1510 0.6293 -0.3218
C43 C 0.16927(8) 0.53600(10) -0.26382(13)
H32 H 0.1808 0.5398 -0.3096
H33 H 0.1434 0.5186 -0.2674
H34 H 0.1870 0.5148 -0.2351
C44 C 0.15944(8) 0.34020(11) 0.05501(16)
C45 C 0.16918(8) 0.29778(11) 0.03537(17)
C46 C 0.18108(9) 0.24466(11) 0.01388(17)
C47 C 0.21967(9) 0.22938(12) 0.04760(18)
H35 H 0.2278 0.1945 0.0315
H36 H 0.2161 0.2286 0.0974
H37 H 0.2402 0.2551 0.0358
C48 C 0.14866(10) 0.20539(12) 0.0328(3)
H38 H 0.1241 0.2144 0.0086
H39 H 0.1440 0.2066 0.0824
H40 H 0.1571 0.1700 0.0197
C49 C 0.2110(3) 0.5839(4) 0.3152(4)
H41 H 0.2188 0.5472 0.3057
H42 H 0.2001 0.5849 0.3622
C50 C 0.24826(16) 0.6172(2) 0.3140(3)
H43 H 0.2418 0.6543 0.3243
H44 H 0.2610 0.6155 0.2684
C51 C 0.2764(6) 0.5946(8) 0.3697(11)
H45 H 0.2635 0.5969 0.4147
H46 H 0.3012 0.6148 0.3704
H47 H 0.2823 0.5577 0.3593
C52 C 0.09589(10) 0.66260(14) 0.24295(16)
H48 H 0.1098 0.6939 0.2610
H49 H 0.1036 0.6321 0.2715
C53 C 0.05271(10) 0.67076(16) 0.24876(18)
H50 H 0.0386 0.6421 0.2246
H51 H 0.0454 0.7043 0.2265
C54 C 0.03945(13) 0.6719(2) 0.3243(2)
H52 H 0.0474 0.6392 0.3468
H53 H 0.0105 0.6757 0.3266
H54 H 0.0520 0.7017 0.3476
C55 C -0.01177(8) 0.57799(11) 0.10112(14)
H55 H -0.0160 0.5424 0.0822
H56 H -0.0192 0.6040 0.0656
C56 C -0.03684(8) 0.58570(12) 0.16418(15)
H57 H -0.0336 0.6221 0.1811
H58 H -0.0278 0.5615 0.2006
C57 C -0.08055(9) 0.57547(17) 0.14879(18)
H59 H -0.0893 0.5985 0.1115
H60 H -0.0964 0.5825 0.1899
H61 H -0.0841 0.5387 0.1351
C58 C 0.07663(18) 0.51380(18) 0.2329(2)
H62 H 0.0615 0.4822 0.2192
H63 H 0.0580 0.5439 0.2335
C59 C 0.0928(2) 0.5058(3) 0.3031(3)
H64 H 0.1136 0.5322 0.3132
H65 H 0.1045 0.4703 0.3075
C60 C 0.0561(3) 0.5124(4) 0.3544(3)
H66 H 0.0572 0.5471 0.3758
H67 H 0.0575 0.4853 0.3900
H68 H 0.0312 0.5088 0.3289
O9 O -0.03822(5) 0.68407(7) 0.74194(11)
O10 O 0.13023(7) 0.44255(9) 0.61246(13)
O11 O -0.04661(5) 0.72900(7) 0.90183(10)
O12 O 0.21418(5) 0.71679(7) 0.80558(9)
C61 C -0.00295(8) 0.62987(10) 0.66194(15)
C62 C 0.02001(9) 0.58544(10) 0.65091(16)
H69 H 0.0272 0.5764 0.6054
C63 C 0.03277(8) 0.55381(10) 0.70463(16)
C64 C 0.02421(8) 0.56907(10) 0.77197(15)
H70 H 0.0344 0.5491 0.8091
C65 C 0.00081(8) 0.61336(10) 0.78521(15)
C66 C -0.01420(8) 0.64120(10) 0.72936(15)
C67 C -0.00584(8) 0.63375(10) 0.85643(15)
H71 H 0.0051 0.6085 0.8901
H72 H -0.0347 0.6372 0.8650
C68 C 0.01416(7) 0.68702(10) 0.86575(13)
C69 C 0.05434(7) 0.69125(9) 0.85226(13)
H73 H 0.0689 0.6609 0.8389
C70 C 0.07402(7) 0.73963(9) 0.85797(12)
C71 C 0.05202(8) 0.78426(10) 0.87184(13)
H74 H 0.0649 0.8175 0.8726
C72 C 0.01164(8) 0.78146(10) 0.88468(14)
C73 C -0.00661(8) 0.73249(10) 0.88447(14)
C74 C -0.01211(9) 0.83231(11) 0.89555(16)
H75 H -0.0409 0.8244 0.8962
H76 H -0.0049 0.8483 0.9401
C75 C 0.05424(9) 0.50681(11) 0.68731(16)
C76 C 0.07005(9) 0.46902(12) 0.66338(17)
C77 C 0.08980(10) 0.42640(13) 0.62605(19)
C78 C 0.09061(17) 0.37702(15) 0.6643(2)
H77 H 0.1022 0.3494 0.6357
H78 H 0.0635 0.3672 0.6772
H79 H 0.1067 0.3814 0.7058
C79 C 0.06981(14) 0.41982(18) 0.5555(2)
H80 H 0.0424 0.4078 0.5618
H81 H 0.0845 0.3939 0.5284
H82 H 0.0698 0.4536 0.5314
C80 C 0.11660(8) 0.74157(9) 0.85360(13)
C81 C 0.15216(8) 0.74152(9) 0.85566(13)
C82 C 0.19543(7) 0.73847(9) 0.86608(12)
C83 C 0.21333(8) 0.79234(10) 0.87871(14)
H83 H 0.2418 0.7887 0.8877
H84 H 0.2004 0.8086 0.9184
H85 H 0.2093 0.8144 0.8382
C84 C 0.20378(8) 0.70143(10) 0.92565(13)
H86 H 0.1941 0.6662 0.9144
H87 H 0.1902 0.7142 0.9668
H88 H 0.2324 0.7000 0.9341
C85 C -0.07805(18) 0.6835(2) 0.7148(3)
H89 H -0.0806 0.6559 0.6793
H90 H -0.0843 0.7178 0.6936
C86 C -0.1064(2) 0.6726(3) 0.7736(3)
H91 H -0.1016 0.6977 0.8115
H92 H -0.1021 0.6366 0.7913
C87 C -0.1495(3) 0.6785(6) 0.7467(6)
H93 H -0.1535 0.7144 0.7301
H94 H -0.1682 0.6711 0.7839
H95 H -0.1539 0.6537 0.7091
C88 C -0.05334(8) 0.71197(11) 0.97134(16)
H96 H -0.0369 0.6804 0.9801
H97 H -0.0815 0.7016 0.9761
C89 C -0.04398(9) 0.75251(12) 1.02497(16)
H98 H -0.0592 0.7850 1.0155
H99 H -0.0153 0.7612 1.0233
C90 C -0.05454(12) 0.73211(14) 1.09607(19)
H100 H -0.0830 0.7240 1.0979
H101 H -0.0482 0.7590 1.1304
H102 H -0.0392 0.7002 1.1056
O9C O -0.03822(5) 0.81593(7) 0.75806(11)
O10C O 0.13023(7) 1.05745(9) 0.88754(13)
O11C O -0.04661(5) 0.77100(7) 0.59817(10)
O12C O 0.21418(5) 0.78321(7) 0.69442(9)
C61C C -0.00295(8) 0.87013(10) 0.83806(15)
C62C C 0.02001(9) 0.91456(10) 0.84909(16)
H69C H 0.0272 0.9236 0.8946
C63C C 0.03277(8) 0.94619(10) 0.79537(16)
C64C C 0.02421(8) 0.93093(10) 0.72803(15)
H70C H 0.0344 0.9509 0.6909
C65C C 0.00081(8) 0.88664(10) 0.71479(15)
C66C C -0.01420(8) 0.85880(10) 0.77064(15)
C67C C -0.00584(8) 0.86625(10) 0.64357(15)
H71C H 0.0051 0.8915 0.6099
H72C H -0.0347 0.8628 0.6350
C68C C 0.01416(7) 0.81298(10) 0.63425(13)
C69C C 0.05434(7) 0.80875(9) 0.64774(13)
H73C H 0.0689 0.8391 0.6611
C70C C 0.07402(7) 0.76037(9) 0.64203(12)
C71C C 0.05202(8) 0.71574(10) 0.62816(13)
H74C H 0.0649 0.6825 0.6274
C72C C 0.01164(8) 0.71854(10) 0.61532(14)
C73C C -0.00661(8) 0.76751(10) 0.61553(14)
C74C C -0.01211(9) 0.66769(11) 0.60445(16)
H75C H -0.0409 0.6756 0.6038
H76C H -0.0049 0.6517 0.5599
C75C C 0.05424(9) 0.99319(11) 0.81269(16)
C76C C 0.07005(9) 1.03098(12) 0.83662(17)
C77C C 0.08980(10) 1.07360(13) 0.87395(19)
C78C C 0.09061(17) 1.12298(15) 0.8357(2)
H77C H 0.1022 1.1506 0.8643
H78C H 0.0635 1.1328 0.8228
H79C H 0.1067 1.1186 0.7942
C79C C 0.06981(14) 1.08018(18) 0.9445(2)
H80C H 0.0424 1.0922 0.9382
H81C H 0.0845 1.1061 0.9716
H82C H 0.0698 1.0464 0.9686
C80C C 0.11660(8) 0.75843(9) 0.64640(13)
C81C C 0.15216(8) 0.75848(9) 0.64434(13)
C82C C 0.19543(7) 0.76153(9) 0.63392(12)
C83C C 0.21333(8) 0.70766(10) 0.62129(14)
H83C H 0.2418 0.7113 0.6123
H84C H 0.2004 0.6914 0.5816
H85C H 0.2093 0.6856 0.6618
C84C C 0.20378(8) 0.79857(10) 0.57435(13)
H86C H 0.1941 0.8338 0.5856
H87C H 0.1902 0.7858 0.5332
H88C H 0.2324 0.8000 0.5659
C85C C -0.07805(18) 0.8165(2) 0.7852(3)
H89C H -0.0806 0.8441 0.8207
H90C H -0.0843 0.7822 0.8064
C86C C -0.1064(2) 0.8274(3) 0.7264(3)
H91C H -0.1016 0.8023 0.6885
H92C H -0.1021 0.8634 0.7087
C87C C -0.1495(3) 0.8215(6) 0.7533(6)
H93C H -0.1535 0.7856 0.7699
H94C H -0.1682 0.8289 0.7161
H95C H -0.1539 0.8463 0.7909
C88C C -0.05334(8) 0.78803(11) 0.52866(16)
H96C H -0.0369 0.8196 0.5199
H97C H -0.0815 0.7984 0.5239
C89C C -0.04398(9) 0.74749(12) 0.47503(16)
H98C H -0.0592 0.7150 0.4845
H99C H -0.0153 0.7388 0.4767
C90C C -0.05454(12) 0.76789(14) 0.40393(19)
H100C H -0.0830 0.7760 0.4021
H101C H -0.0482 0.7410 0.3696
H102C H -0.0392 0.7998 0.3944
C91? C 0.2104(3) 0.6109(4) 0.3187(4)
C92? C 0.2405(2) 0.5692(3) 0.3301(3)
C93? C 0.2767(3) 0.5920(7) 0.3711(8)
C94? C 0.166(2) 0.9790(7) 0.0399(13)
C95? C 0.1012(2) 0.5199(5) 0.2618(6)
C96? C 0.0564(2) 0.5217(4) 0.2752(5)
C97? C 0.063(2) 0.480(2) 0.332(2)
C98? C -0.0789(3) 0.6665(3) 0.7681(5)
C99? C -0.1081(3) 0.6743(5) 0.7104(6)
C100? C -0.1488(10) 0.6639(18) 0.738(2)
H103? H 0.1974 0.6189 0.3629
H104? H 0.2241 0.6432 0.3032
H105? H 0.2498 0.5554 0.2855
H106? H 0.2285 0.5399 0.3561
H107? H 0.2860 0.6243 0.3490
H108? H 0.2983 0.5662 0.3717
H109? H 0.2685 0.5997 0.4182
H110? H 0.1920 0.9717 0.0603
H111? H 0.1458 0.9801 0.0759
H112? H 0.1668 1.0129 0.0162
H113? H 0.1126 0.4868 0.2796
H114? H 0.1145 0.5498 0.2849
H115? H 0.0401 0.5093 0.2363
H116? H 0.0468 0.5559 0.2927
H117? H 0.0918 0.4786 0.3430
H118? H 0.0549 0.4455 0.3147
H119? H 0.0481 0.4892 0.3725
H120? H -0.0780 0.6290 0.7817
H121? H -0.0867 0.6876 0.8085
H122? H -0.1063 0.7107 0.6929
H123? H -0.1021 0.6499 0.6724
H124? H -0.1487 0.6310 0.7639
H125? H -0.1676 0.6612 0.6999
H126? H -0.1567 0.6928 0.7682
loop_
_geom_bond_atom_site_label_1
_geom_bond_atom_site_label_2
_geom_bond_site_symmetry_1
_geom_bond_site_symmetry_2
O1 C6 1_555 1_555
O2 C13 1_555 1_555
O3 C20 1_555 1_555
O4 C27 1_555 1_555
O5 C31 1_555 1_555
O6 C36 1_555 1_555
O7 C41 1_555 1_555
O8 C46 1_555 1_555
C1 C2 1_555 1_555
C2 H1 1_555 1_555
C3 C2 1_555 1_555
C4 C3 1_555 1_555
H2 C4 1_555 1_555
C5 C4 1_555 1_555
C6 C1 1_555 1_555
C7 C5 1_555 1_555
H3 C7 1_555 1_555
H4 C7 1_555 1_555
C8 C7 1_555 1_555
C9 C8 1_555 1_555
H5 C9 1_555 1_555
C10 C9 1_555 1_555
C11 C10 1_555 1_555
H6 C11 1_555 1_555
C12 C11 1_555 1_555
C13 C8 1_555 1_555
C14 C12 1_555 1_555
H7 C14 1_555 1_555
H8 C14 1_555 1_555
C15 C14 1_555 1_555
C16 C15 1_555 1_555
H9 C16 1_555 1_555
C17 C16 1_555 1_555
C18 C17 1_555 1_555
H10 C18 1_555 1_555
C19 C18 1_555 1_555
C20 C15 1_555 1_555
C21 C19 1_555 1_555
H11 C21 1_555 1_555
H12 C21 1_555 1_555
C22 C21 1_555 1_555
C23 C22 1_555 1_555
H13 C23 1_555 1_555
C24 C23 1_555 1_555
C25 C24 1_555 1_555
H14 C25 1_555 1_555
C26 C25 1_555 1_555
C27 C22 1_555 1_555
C28 C1 1_555 1_555
H15 C28 1_555 1_555
H16 C28 1_555 1_555
C29 C3 1_555 1_555
C30 C29 1_555 1_555
C31 C30 1_555 1_555
C32 C31 1_555 1_555
H17 C32 1_555 1_555
H18 C32 1_555 1_555
H19 C32 1_555 1_555
C33 C31 1_555 1_555
H20 C33 1_555 1_555
H21 C33 1_555 1_555
H22 C33 1_555 1_555
C34 C10 1_555 1_555
C35 C34 1_555 1_555
C36 C35 1_555 1_555
C37 C36 1_555 1_555
H23 C37 1_555 1_555
H24 C37 1_555 1_555
H25 C37 1_555 1_555
C38 C36 1_555 1_555
H26 C38 1_555 1_555
H27 C38 1_555 1_555
H28 C38 1_555 1_555
C39 C17 1_555 1_555
C40 C39 1_555 1_555
C41 C40 1_555 1_555
C42 C41 1_555 1_555
H29 C42 1_555 1_555
H30 C42 1_555 1_555
H31 C42 1_555 1_555
C43 C41 1_555 1_555
H32 C43 1_555 1_555
H33 C43 1_555 1_555
H34 C43 1_555 1_555
C44 C24 1_555 1_555
C45 C44 1_555 1_555
C46 C45 1_555 1_555
C47 C46 1_555 1_555
H35 C47 1_555 1_555
H36 C47 1_555 1_555
H37 C47 1_555 1_555
C48 C46 1_555 1_555
H38 C48 1_555 1_555
H39 C48 1_555 1_555
H40 C48 1_555 1_555
C49 O1 1_555 1_555
H41 C49 1_555 1_555
H42 C49 1_555 1_555
C50 C49 1_555 1_555
H43 C50 1_555 1_555
H44 C50 1_555 1_555
C51 C50 1_555 1_555
H45 C51 1_555 1_555
H46 C51 1_555 1_555
H47 C51 1_555 1_555
C52 O2 1_555 1_555
H48 C52 1_555 1_555
H49 C52 1_555 1_555
C53 C52 1_555 1_555
H50 C53 1_555 1_555
H51 C53 1_555 1_555
C54 C53 1_555 1_555
H52 C54 1_555 1_555
H53 C54 1_555 1_555
H54 C54 1_555 1_555
C55 O3 1_555 1_555
H55 C55 1_555 1_555
H56 C55 1_555 1_555
C56 C55 1_555 1_555
H57 C56 1_555 1_555
H58 C56 1_555 1_555
C57 C56 1_555 1_555
H59 C57 1_555 1_555
H60 C57 1_555 1_555
H61 C57 1_555 1_555
C58 O4 1_555 1_555
H62 C58 1_555 1_555
H63 C58 1_555 1_555
C59 C58 1_555 1_555
H64 C59 1_555 1_555
H65 C59 1_555 1_555
C60 C59 1_555 1_555
H66 C60 1_555 1_555
H67 C60 1_555 1_555
H68 C60 1_555 1_555
O9 C66 1_555 1_555
O10 C77 1_555 1_555
O11 C73 1_555 1_555
O12 C82 1_555 1_555
C61 C62 1_555 1_555
C62 H69 1_555 1_555
C63 C62 1_555 1_555
C64 C63 1_555 1_555
H70 C64 1_555 1_555
C65 C64 1_555 1_555
C66 C61 1_555 1_555
C67 C65 1_555 1_555
H71 C67 1_555 1_555
H72 C67 1_555 1_555
C68 C67 1_555 1_555
C69 C68 1_555 1_555
H73 C69 1_555 1_555
C70 C69 1_555 1_555
C71 C70 1_555 1_555
H74 C71 1_555 1_555
C72 C71 1_555 1_555
C73 C68 1_555 1_555
C74 C72 1_555 1_555
H75 C74 1_555 1_555
H76 C74 1_555 1_555
C75 C63 1_555 1_555
C76 C75 1_555 1_555
C77 C76 1_555 1_555
C78 C77 1_555 1_555
H77 C78 1_555 1_555
H78 C78 1_555 1_555
H79 C78 1_555 1_555
C79 C77 1_555 1_555
H80 C79 1_555 1_555
H81 C79 1_555 1_555
H82 C79 1_555 1_555
C80 C70 1_555 1_555
C81 C80 1_555 1_555
C82 C81 1_555 1_555
C83 C82 1_555 1_555
H83 C83 1_555 1_555
H84 C83 1_555 1_555
H85 C83 1_555 1_555
C84 C82 1_555 1_555
H86 C84 1_555 1_555
H87 C84 1_555 1_555
H88 C84 1_555 1_555
C85 O9 1_555 1_555
H89 C85 1_555 1_555
H90 C85 1_555 1_555
C86 C85 1_555 1_555
H91 C86 1_555 1_555
H92 C86 1_555 1_555
C87 C86 1_555 1_555
H93 C87 1_555 1_555
H94 C87 1_555 1_555
H95 C87 1_555 1_555
C88 O11 1_555 1_555
H96 C88 1_555 1_555
H97 C88 1_555 1_555
C89 C88 1_555 1_555
H98 C89 1_555 1_555
H99 C89 1_555 1_555
C90 C89 1_555 1_555
H100 C90 1_555 1_555
H101 C90 1_555 1_555
H102 C90 1_555 1_555
O9C C66C 1_555 1_555
O10C C77C 1_555 1_555
O11C C73C 1_555 1_555
O12C C82C 1_555 1_555
C61C C74 1_555 1_555
C62C C61C 1_555 1_555
H69C C62C 1_555 1_555
C63C C62C 1_555 1_555
C64C C63C 1_555 1_555
H70C C64C 1_555 1_555
C65C C64C 1_555 1_555
C66C C61C 1_555 1_555
C67C C65C 1_555 1_555
H71C C67C 1_555 1_555
H72C C67C 1_555 1_555
C68C C67C 1_555 1_555
C69C C68C 1_555 1_555
H73C C69C 1_555 1_555
C70C C69C 1_555 1_555
C71C C70C 1_555 1_555
H74C C71C 1_555 1_555
C72C C71C 1_555 1_555
C73C C68C 1_555 1_555
C74C C61 1_555 1_555
H75C C74C 1_555 1_555
H76C C74C 1_555 1_555
C75C C63C 1_555 1_555
C76C C75C 1_555 1_555
C77C C76C 1_555 1_555
C78C C77C 1_555 1_555
H77C C78C 1_555 1_555
H78C C78C 1_555 1_555
H79C C78C 1_555 1_555
C79C C77C 1_555 1_555
H80C C79C 1_555 1_555
H81C C79C 1_555 1_555
H82C C79C 1_555 1_555
C80C C70C 1_555 1_555
C81C C80C 1_555 1_555
C82C C81C 1_555 1_555
C83C C82C 1_555 1_555
H83C C83C 1_555 1_555
H84C C83C 1_555 1_555
H85C C83C 1_555 1_555
C84C C82C 1_555 1_555
H86C C84C 1_555 1_555
H87C C84C 1_555 1_555
H88C C84C 1_555 1_555
C85C O9C 1_555 1_555
H89C C85C 1_555 1_555
H90C C85C 1_555 1_555
C86C C85C 1_555 1_555
H91C C86C 1_555 1_555
H92C C86C 1_555 1_555
C87C C86C 1_555 1_555
H93C C87C 1_555 1_555
H94C C87C 1_555 1_555
H95C C87C 1_555 1_555
C88C O11C 1_555 1_555
H96C C88C 1_555 1_555
H97C C88C 1_555 1_555
C89C C88C 1_555 1_555
H98C C89C 1_555 1_555
H99C C89C 1_555 1_555
C90C C89C 1_555 1_555
H100C C90C 1_555 1_555
H101C C90C 1_555 1_555
H102C C90C 1_555 1_555
C5 C6 1_555 1_555
C12 C13 1_555 1_555
C19 C20 1_555 1_555
C26 C27 1_555 1_555
C26 C28 1_555 1_555
C65 C66 1_555 1_555
C72 C73 1_555 1_555
C65C C66C 1_555 1_555
C72C C73C 1_555 1_555
C72C C74C 1_555 1_555

#END
