
#######################################################################
#
#                 Cambridge Crystallographic Data Centre
#                                CCDC 
#
#######################################################################
#
# If this CIF has been generated from an entry in the Cambridge 
# Structural Database, then it will include bibliographic, chemical, 
# crystal, experimental, refinement or atomic coordinate data resulting 
# from the CCDC's data processing and validation procedures.
#
#######################################################################

data_ISOHOO
_chemical_formula_moiety         'C56 H64 O8,H2 O1'
_chemical_name_systematic        
'5,11,17,23-tetrakis(2-hydroxybut-3-yn-4-yl)-25,26,27,28-tetrakis(propoxy)calix[4]arene monohydrate'
_symmetry_cell_setting           hexagonal
_symmetry_space_group_name_H-M   'P 61'
_symmetry_Int_Tables_number      169
_space_group_name_Hall           'P 61'
loop_
_symmetry_equiv_pos_site_id
_symmetry_equiv_pos_as_xyz
1 x,y,z
2 -x,-y,1/2+z
3 -y,x-y,1/3+z
4 -x+y,-x,2/3+z
5 x-y,x,1/6+z
6 y,-x+y,5/6+z
_cell_length_a                   17.4504(6)
_cell_length_b                   17.4504(6)
_cell_length_c                   27.9996(14)
_cell_angle_alpha                90
_cell_angle_beta                 90
_cell_angle_gamma                120
_cell_volume                     7384.03
_exptl_crystal_colour            colorless
_exptl_crystal_description       prism
_cell_formula_units_Z            6
loop_
_atom_site_label
_atom_site_type_symbol
_atom_site_fract_x
_atom_site_fract_y
_atom_site_fract_z
O1 O 0.48248(6) 0.08470(6) 0.77508(3)
C1 C 0.53919(8) 0.05230(8) 0.76623(4)
C2 C 0.54456(8) 0.02512(8) 0.71971(4)
C3 C 0.60083(8) -0.00838(8) 0.71129(4)
H1 H 0.6033 -0.0293 0.6803
O2 O 0.90015(6) -0.06138(6) 0.74915(3)
H2 H 0.9095(14) -0.0445(15) 0.7782(4)
C4 C 0.65387(8) -0.01171(8) 0.74779(4)
C5 C 0.65062(8) 0.02077(8) 0.79299(4)
H3 H 0.6893 0.0224 0.8173
C6 C 0.59222(8) 0.05058(8) 0.80306(4)
C7 C 0.58816(9) 0.08014(8) 0.85373(4)
H4 H 0.5449 0.1011 0.8550
H5 H 0.5677 0.0292 0.8758
O3 O 0.66701(6) 0.24743(6) 0.81183(3)
C8 C 0.71562(8) 0.23592(8) 0.84672(4)
C9 C 0.67794(8) 0.15367(8) 0.86967(4)
C10 C 0.72787(9) 0.13988(8) 0.90379(4)
H6 H 0.7029 0.0848 0.9200
O4 O 1.01946(7) 0.12937(7) 0.98660(4)
H7 H 0.9864(13) 0.0746(7) 0.9922(8)
C11 C 0.81417(9) 0.20610(9) 0.91447(4)
C12 C 0.85156(9) 0.28610(9) 0.88916(4)
H8 H 0.9107 0.3307 0.8958
C13 C 0.80374(8) 0.30139(8) 0.85460(4)
C14 C 0.84859(9) 0.37901(8) 0.82028(4)
H9 H 0.9094 0.4207 0.8314
H10 H 0.8152 0.4111 0.8189
O5 O 0.77160(6) 0.40842(6) 0.73511(3)
C15 C 0.81103(8) 0.35699(8) 0.73093(4)
C16 C 0.85140(8) 0.34354(8) 0.77093(4)
C17 C 0.89125(8) 0.29214(8) 0.76589(4)
H11 H 0.9201 0.2839 0.7925
O6 O 1.00148(6) 0.05548(6) 0.67735(3)
H12 H 0.9656(10) 0.0191(10) 0.6973(5)
C18 C 0.88942(8) 0.25232(8) 0.72218(4)
C19 C 0.84502(8) 0.26307(8) 0.68373(4)
H13 H 0.8407 0.2334 0.6546
C20 C 0.80691(8) 0.31616(8) 0.68704(4)
C21 C 0.76152(9) 0.32760(9) 0.64332(4)
H14 H 0.7327 0.3622 0.6520
H15 H 0.8060 0.3605 0.6182
O7 O 0.60428(6) 0.22235(6) 0.69250(3)
C22 C 0.61690(9) 0.18582(9) 0.65166(4)
C23 C 0.69297(9) 0.23782(9) 0.62447(4)
C24 C 0.70817(9) 0.20091(9) 0.58399(4)
H16 H 0.7591 0.2357 0.5649
C25 C 0.64938(9) 0.11321(9) 0.57105(4)
O8 O 0.74117(10) -0.05150(9) 0.47701(4)
H17 H 0.7822(13) -0.0341(17) 0.4558(8)
C26 C 0.57664(9) 0.06178(9) 0.60051(4)
H18 H 0.5373 0.0017 0.5923
C27 C 0.56067(8) 0.09653(9) 0.64140(4)
C28 C 0.49417(9) 0.03630(9) 0.67818(4)
H19 H 0.4535 -0.0220 0.6637
H20 H 0.4587 0.0624 0.6898
C29 C 0.39594(9) 0.01748(9) 0.78905(5)
H21 H 0.3979 -0.0048 0.8213
H22 H 0.3732 -0.0327 0.7663
C30 C 0.33606(10) 0.05668(11) 0.78934(6)
H23 H 0.3334 0.0776 0.7568
H24 H 0.3606 0.1083 0.8111
C31 C 0.24374(11) -0.01090(13) 0.80544(7)
H25 H 0.2230 -0.0655 0.7870
H26 H 0.2038 0.0125 0.8003
H27 H 0.2447 -0.0235 0.8395
C32 C 0.70923(8) -0.05007(9) 0.74103(4)
C33 C 0.75367(9) -0.08475(9) 0.74033(4)
C34 C 0.80792(9) -0.12724(9) 0.74162(5)
H28 H 0.8027 -0.1559 0.7099
C35 C 0.77710(10) -0.19833(9) 0.78005(5)
H29 H 0.8151 -0.2248 0.7798
H30 H 0.7158 -0.2442 0.7737
H31 H 0.7805 -0.1717 0.8114
C36 C 0.63450(10) 0.30581(10) 0.82390(5)
H32 H 0.6148 0.3221 0.7944
H33 H 0.6833 0.3607 0.8378
C37 C 0.55895(11) 0.26572(11) 0.85869(6)
H34 H 0.5802 0.2566 0.8898
H35 H 0.5128 0.2073 0.8467
C38 C 0.51943(13) 0.32498(14) 0.86558(8)
H36 H 0.5659 0.3841 0.8754
H37 H 0.4736 0.2999 0.8903
H38 H 0.4932 0.3293 0.8355
C39 C 0.86783(9) 0.19129(9) 0.94799(4)
C40 C 0.91605(10) 0.18122(9) 0.97423(5)
C41 C 0.98374(10) 0.18058(9) 1.00554(5)
H39 H 0.9573 0.1569 1.0376
C42 C 1.06010(11) 0.27479(10) 1.01094(6)
H40 H 1.1038 0.2755 1.0332
H41 H 1.0378 0.3125 1.0234
H42 H 1.0879 0.2971 0.9798
C43 C 0.83067(10) 0.49997(9) 0.72385(5)
H43 H 0.8607 0.5047 0.6931
H44 H 0.8764 0.5275 0.7490
C44 C 0.77834(11) 0.54742(10) 0.72051(6)
H45 H 0.7317 0.5178 0.6960
H46 H 0.8183 0.6089 0.7097
C45 C 0.73552(12) 0.55001(12) 0.76695(7)
H47 H 0.6926 0.4895 0.7768
H48 H 0.7052 0.5840 0.7625
H49 H 0.7810 0.5782 0.7916
C46 C 0.93762(9) 0.20591(8) 0.71592(4)
C47 C 0.98381(9) 0.17430(8) 0.70886(4)
C48 C 1.04552(9) 0.14195(9) 0.69976(4)
H50 H 1.0721 0.1382 0.7307
C49 C 1.11881(10) 0.20297(10) 0.66603(5)
H51 H 1.1602 0.1811 0.6616
H52 H 1.1503 0.2627 0.6796
H53 H 1.0932 0.2045 0.6351
C50 C 0.53026(14) 0.23545(16) 0.69428(9)
H54 H 0.5043 0.2212 0.7267
H55 H 0.4846 0.1947 0.6715
C51 C 0.55588(15) 0.32916(14) 0.68212(8)
H56 H 0.5704 0.3395 0.6477
H57 H 0.6096 0.3701 0.7004
C52 C 0.4824(2) 0.3496(2) 0.69335(12)
H58 H 0.4273 0.3053 0.6781
H59 H 0.4989 0.4085 0.6812
H60 H 0.4737 0.3480 0.7280
C53 C 0.66608(10) 0.07300(10) 0.53052(5)
C54 C 0.67977(10) 0.03628(10) 0.49832(5)
C55 C 0.69711(11) -0.00819(10) 0.45848(5)
H61 H 0.7368 0.0375 0.4349
C56 C 0.61249(13) -0.07373(12) 0.43344(6)
H62 H 0.6266 -0.1003 0.4065
H63 H 0.5820 -0.0431 0.4217
H64 H 0.5740 -0.1202 0.4559
O9 O 0.87625(10) -0.14174(8) 0.57162(5)
H65 H 0.9067(15) -0.1374(17) 0.5455(6)
H66 H 0.8802(17) -0.0889(10) 0.5724(9)
C57? C 0.5514(9) 0.2668(9) 0.6797(4)
C58? C 0.5144(9) 0.2869(10) 0.7167(4)
C59? C 0.4598(8) 0.3271(8) 0.7082(4)
H67? H 0.5908 0.3222 0.6623
H68? H 0.5036 0.2276 0.6575
H69? H 0.5631 0.3271 0.7381
H70? H 0.4777 0.2315 0.7347
H71? H 0.4428 0.3205 0.6744
H72? H 0.4934 0.3901 0.7164
H73? H 0.4065 0.2977 0.7281
loop_
_geom_bond_atom_site_label_1
_geom_bond_atom_site_label_2
_geom_bond_site_symmetry_1
_geom_bond_site_symmetry_2
O1 C1 1_555 1_555
C1 C2 1_555 1_555
C2 C3 1_555 1_555
C3 H1 1_555 1_555
O2 H2 1_555 1_555
C4 C3 1_555 1_555
C5 C4 1_555 1_555
H3 C5 1_555 1_555
C6 C1 1_555 1_555
C7 C6 1_555 1_555
H4 C7 1_555 1_555
H5 C7 1_555 1_555
O3 C8 1_555 1_555
C8 C9 1_555 1_555
C9 C7 1_555 1_555
C10 C9 1_555 1_555
H6 C10 1_555 1_555
O4 H7 1_555 1_555
C11 C10 1_555 1_555
C12 C11 1_555 1_555
H8 C12 1_555 1_555
C13 C8 1_555 1_555
C14 C13 1_555 1_555
H9 C14 1_555 1_555
H10 C14 1_555 1_555
O5 C15 1_555 1_555
C15 C16 1_555 1_555
C16 C14 1_555 1_555
C17 C16 1_555 1_555
H11 C17 1_555 1_555
O6 H12 1_555 1_555
C18 C17 1_555 1_555
C19 C18 1_555 1_555
H13 C19 1_555 1_555
C20 C15 1_555 1_555
C21 C20 1_555 1_555
H14 C21 1_555 1_555
H15 C21 1_555 1_555
O7 C22 1_555 1_555
C22 C23 1_555 1_555
C23 C21 1_555 1_555
C24 C23 1_555 1_555
H16 C24 1_555 1_555
C25 C24 1_555 1_555
O8 H17 1_555 1_555
C26 C25 1_555 1_555
H18 C26 1_555 1_555
C27 C22 1_555 1_555
C28 C2 1_555 1_555
H19 C28 1_555 1_555
H20 C28 1_555 1_555
C29 O1 1_555 1_555
H21 C29 1_555 1_555
H22 C29 1_555 1_555
C30 C29 1_555 1_555
H23 C30 1_555 1_555
H24 C30 1_555 1_555
C31 C30 1_555 1_555
H25 C31 1_555 1_555
H26 C31 1_555 1_555
H27 C31 1_555 1_555
C32 C4 1_555 1_555
C33 C32 1_555 1_555
C34 O2 1_555 1_555
H28 C34 1_555 1_555
C35 C34 1_555 1_555
H29 C35 1_555 1_555
H30 C35 1_555 1_555
H31 C35 1_555 1_555
C36 O3 1_555 1_555
H32 C36 1_555 1_555
H33 C36 1_555 1_555
C37 C36 1_555 1_555
H34 C37 1_555 1_555
H35 C37 1_555 1_555
C38 C37 1_555 1_555
H36 C38 1_555 1_555
H37 C38 1_555 1_555
H38 C38 1_555 1_555
C39 C11 1_555 1_555
C40 C39 1_555 1_555
C41 O4 1_555 1_555
H39 C41 1_555 1_555
C42 C41 1_555 1_555
H40 C42 1_555 1_555
H41 C42 1_555 1_555
H42 C42 1_555 1_555
C43 O5 1_555 1_555
H43 C43 1_555 1_555
H44 C43 1_555 1_555
C44 C43 1_555 1_555
H45 C44 1_555 1_555
H46 C44 1_555 1_555
C45 C44 1_555 1_555
H47 C45 1_555 1_555
H48 C45 1_555 1_555
H49 C45 1_555 1_555
C46 C18 1_555 1_555
C47 C46 1_555 1_555
C48 O6 1_555 1_555
H50 C48 1_555 1_555
C49 C48 1_555 1_555
H51 C49 1_555 1_555
H52 C49 1_555 1_555
H53 C49 1_555 1_555
C50 O7 1_555 1_555
H54 C50 1_555 1_555
H55 C50 1_555 1_555
C51 C50 1_555 1_555
H56 C51 1_555 1_555
H57 C51 1_555 1_555
C52 C51 1_555 1_555
H58 C52 1_555 1_555
H59 C52 1_555 1_555
H60 C52 1_555 1_555
C53 C25 1_555 1_555
C54 C53 1_555 1_555
C55 O8 1_555 1_555
H61 C55 1_555 1_555
C56 C55 1_555 1_555
H62 C56 1_555 1_555
H63 C56 1_555 1_555
H64 C56 1_555 1_555
O9 H65 1_555 1_555
H66 O9 1_555 1_555
C5 C6 1_555 1_555
C12 C13 1_555 1_555
C19 C20 1_555 1_555
C26 C27 1_555 1_555
C27 C28 1_555 1_555
C33 C34 1_555 1_555
C40 C41 1_555 1_555
C47 C48 1_555 1_555
C54 C55 1_555 1_555

#END
