
#######################################################################
#
#                 Cambridge Crystallographic Data Centre
#                                CCDC 
#
#######################################################################
#
# If this CIF has been generated from an entry in the Cambridge 
# Structural Database, then it will include bibliographic, chemical, 
# crystal, experimental, refinement or atomic coordinate data resulting 
# from the CCDC's data processing and validation procedures.
#
#######################################################################

data_ISOHEF
_chemical_formula_moiety         'C9 H11 F1 N2 O3'
_chemical_name_systematic        
'ethyl 2-fluoro-3-hydroxy-3-(pyrazin-2-yl)propanoate'
_symmetry_cell_setting           monoclinic
_symmetry_space_group_name_H-M   'P 21'
_symmetry_Int_Tables_number      4
_space_group_name_Hall           'P 2yb'
loop_
_symmetry_equiv_pos_site_id
_symmetry_equiv_pos_as_xyz
1 x,y,z
2 -x,1/2+y,-z
_cell_length_a                   5.9629(4)
_cell_length_b                   11.2240(6)
_cell_length_c                   7.7429(4)
_cell_angle_alpha                90
_cell_angle_beta                 97.530(5)
_cell_angle_gamma                90
_cell_volume                     513.745
_exptl_crystal_colour            colorless
_exptl_crystal_description       irregular
_cell_formula_units_Z            2
_exptl_crystal_recrystallization_method 'Vapour deposition'
loop_
_atom_site_label
_atom_site_type_symbol
_atom_site_fract_x
_atom_site_fract_y
_atom_site_fract_z
F1 F 0.4290(3) 0.48776(17) 0.7301(2)
O1 O 0.7923(4) 0.55274(18) 0.9907(3)
N1 N 0.9092(4) 0.4306(2) 0.5795(3)
C1 C 0.8937(5) 0.4397(2) 0.7486(4)
O2 O 0.2958(4) 0.6964(2) 0.8437(3)
N2 N 1.0350(5) 0.2436(2) 0.8089(3)
C2 C 0.9546(5) 0.3461(3) 0.8635(4)
H1 H 0.9390 0.3551 0.9807
O3 O 0.5993(4) 0.78790(19) 0.7577(3)
C3 C 1.0492(6) 0.2346(3) 0.6394(4)
H2 H 1.1017 0.1640 0.5962
C4 C 0.9879(5) 0.3277(3) 0.5258(4)
H3 H 1.0020 0.3182 0.4084
C5 C 0.8060(5) 0.5569(2) 0.8115(4)
H4 H 0.9100 0.6209 0.7886
C6 C 0.5724(5) 0.5827(2) 0.7111(4)
H5 H 0.5863 0.5936 0.5874
C7 C 0.4692(5) 0.6941(3) 0.7803(4)
C8 C 0.5202(6) 0.9016(3) 0.8195(4)
H6 H 0.5301 0.9013 0.9455
H7 H 0.3638 0.9151 0.7712
C9 C 0.6685(6) 0.9976(3) 0.7609(4)
H8 H 0.6620 0.9950 0.6364
H9 H 0.8216 0.9853 0.8136
H10 H 0.6167 1.0740 0.7952
H11 H 0.844(8) 0.607(5) 1.041(6)
loop_
_geom_bond_atom_site_label_1
_geom_bond_atom_site_label_2
_geom_bond_site_symmetry_1
_geom_bond_site_symmetry_2
F1 C6 1_555 1_555
O1 C5 1_555 1_555
N1 C1 1_555 1_555
C1 C2 1_555 1_555
O2 C7 1_555 1_555
N2 C2 1_555 1_555
C2 H1 1_555 1_555
O3 C7 1_555 1_555
C3 N2 1_555 1_555
H2 C3 1_555 1_555
C4 N1 1_555 1_555
H3 C4 1_555 1_555
C5 C1 1_555 1_555
H4 C5 1_555 1_555
C6 C5 1_555 1_555
H5 C6 1_555 1_555
C7 C6 1_555 1_555
C8 O3 1_555 1_555
H6 C8 1_555 1_555
H7 C8 1_555 1_555
C9 C8 1_555 1_555
H8 C9 1_555 1_555
H9 C9 1_555 1_555
H10 C9 1_555 1_555
H11 O1 1_555 1_555
C3 C4 1_555 1_555

#END
