
#######################################################################
#
#                 Cambridge Crystallographic Data Centre
#                                CCDC 
#
#######################################################################
#
# If this CIF has been generated from an entry in the Cambridge 
# Structural Database, then it will include bibliographic, chemical, 
# crystal, experimental, refinement or atomic coordinate data resulting 
# from the CCDC's data processing and validation procedures.
#
#######################################################################

data_ISOIND
_chemical_formula_moiety         'C16 H10 N2 O2'
_chemical_name_systematic        Isoindigo
_symmetry_cell_setting           monoclinic
_symmetry_space_group_name_H-M   'C 2/m'
_symmetry_Int_Tables_number      12
_space_group_name_Hall           '-C 2y'
loop_
_symmetry_equiv_pos_site_id
_symmetry_equiv_pos_as_xyz
1 x,y,z
2 1/2+x,1/2+y,z
3 -x,y,-z
4 1/2-x,1/2+y,-z
5 -x,-y,-z
6 1/2-x,1/2-y,-z
7 x,-y,z
8 1/2+x,1/2-y,z
_cell_length_a                   8.030
_cell_length_b                   6.400
_cell_length_c                   13.250
_cell_angle_alpha                90
_cell_angle_beta                 116.0
_cell_angle_gamma                90
_cell_volume                     612.028
_cell_formula_units_Z            2
loop_
_atom_site_label
_atom_site_type_symbol
_atom_site_fract_x
_atom_site_fract_y
_atom_site_fract_z
C1 C -0.23700 0.00000 0.01300
C2 C -0.03600 0.00000 0.03700
C3 C 0.04800 0.00000 0.15800
C4 C 0.23200 0.00000 0.24600
C5 C 0.25700 0.00000 0.36000
C6 C 0.11600 0.00000 0.38800
C7 C -0.07000 0.00000 0.30550
C8 C -0.09000 0.00000 0.19600
N1 N -0.26200 0.00000 0.10600
O1 O -0.37300 0.00000 -0.08300
C2D C 0.03600 0.00000 -0.03700
C1D C 0.23700 0.00000 -0.01300
C3D C -0.04800 0.00000 -0.15800
N1D N 0.26200 0.00000 -0.10600
O1D O 0.37300 0.00000 0.08300
C4D C -0.23200 0.00000 -0.24600
C8D C 0.09000 0.00000 -0.19600
C5D C -0.25700 0.00000 -0.36000
C7D C 0.07000 0.00000 -0.30550
C6D C -0.11600 0.00000 -0.38800
loop_
_geom_bond_atom_site_label_1
_geom_bond_atom_site_label_2
_geom_bond_site_symmetry_1
_geom_bond_site_symmetry_2
C1 C2 1_555 1_555
C2 C3 1_555 1_555
C3 C4 1_555 1_555
C4 C5 1_555 1_555
C5 C6 1_555 1_555
C6 C7 1_555 1_555
C7 C8 1_555 1_555
C8 C3 1_555 1_555
N1 C1 1_555 1_555
O1 C1 1_555 1_555
C2D C2 1_555 1_555
C1D C2D 1_555 1_555
C3D C2D 1_555 1_555
N1D C1D 1_555 1_555
O1D C1D 1_555 1_555
C4D C3D 1_555 1_555
C8D C3D 1_555 1_555
C5D C4D 1_555 1_555
C7D C8D 1_555 1_555
C6D C5D 1_555 1_555
C8 N1 1_555 1_555
N1D C8D 1_555 1_555
C7D C6D 1_555 1_555

#END
