
#######################################################################
#
#                 Cambridge Crystallographic Data Centre
#                                CCDC 
#
#######################################################################
#
# If this CIF has been generated from an entry in the Cambridge 
# Structural Database, then it will include bibliographic, chemical, 
# crystal, experimental, refinement or atomic coordinate data resulting 
# from the CCDC's data processing and validation procedures.
#
#######################################################################

data_ISONIO
_chemical_formula_moiety         'C51 H82 N4 O7'
_chemical_name_systematic        
'Benzyl 2-(2-((2-(2-((2-(2-(((1-(((t-butoxycarbonyl)amino)methyl)cyclohexyl)acetyl)amino)cyclohexyl)butanoyl)amino)-cyclohexyl)butanoyl)amino)cyclohexyl)butanoate'
_symmetry_cell_setting           monoclinic
_symmetry_space_group_name_H-M   'P 21'
_symmetry_Int_Tables_number      4
_space_group_name_Hall           'P 2yb'
loop_
_symmetry_equiv_pos_site_id
_symmetry_equiv_pos_as_xyz
1 x,y,z
2 -x,1/2+y,-z
_cell_length_a                   10.2867(5)
_cell_length_b                   43.272(2)
_cell_length_c                   12.0186(6)
_cell_angle_alpha                90
_cell_angle_beta                 115.013(3)
_cell_angle_gamma                90
_cell_volume                     4848.05
_exptl_crystal_colour            colorless
_exptl_crystal_description       block
_cell_formula_units_Z            4
loop_
_atom_site_label
_atom_site_type_symbol
_atom_site_fract_x
_atom_site_fract_y
_atom_site_fract_z
O1 O 1.53637(12) 0.53191(3) 1.05701(10)
O2 O 1.29937(12) 0.51850(2) 0.98044(10)
O3 O 1.00376(12) 0.43489(3) 0.74695(9)
O4 O 0.70446(13) 0.53442(3) 0.65059(10)
O5 O 0.72159(12) 0.45907(3) 0.30090(9)
O6 O 0.32905(12) 0.44881(3) 0.35385(10)
O7 O 0.45081(12) 0.49314(2) 0.42360(10)
N1 N 1.47845(15) 0.48431(3) 1.08637(12)
H1 H 1.5703(5) 0.4826(4) 1.1352(13)
N2 N 1.05719(14) 0.47529(3) 0.87854(11)
H2 H 1.1250(15) 0.4885(3) 0.9213(15)
N3 N 0.89890(14) 0.52744(3) 0.61261(11)
H3 H 0.9933(3) 0.5279(4) 0.6464(16)
N4 N 0.77509(14) 0.43744(3) 0.48618(11)
H4 H 0.8393(14) 0.4351(4) 0.5624(6)
C1 C 1.4454(2) 0.55666(5) 0.85461(17)
H5 H 1.5070 0.5427 0.8342
H6 H 1.4375 0.5765 0.8127
H7 H 1.3499 0.5475 0.8280
C2 C 1.6612(2) 0.57502(4) 1.03861(18)
H8 H 1.7012 0.5775 1.1280
H9 H 1.6580 0.5952 1.0002
H10 H 1.7218 0.5609 1.0176
C3 C 1.4172(2) 0.58275(4) 1.03013(18)
H11 H 1.3199 0.5743 0.9992
H12 H 1.4138 0.6034 0.9959
H13 H 1.4581 0.5840 1.1199
C4 C 1.50994(19) 0.56187(4) 0.99201(15)
C5 C 1.42702(17) 0.51205(4) 1.03600(14)
C6 C 1.38744(17) 0.45782(3) 1.07874(13)
H14 H 1.2954 0.4655 1.0757
H15 H 1.4343 0.4455 1.1547
C7 C 1.35483(16) 0.43630(3) 0.96723(13)
C8 C 1.49454(17) 0.42872(4) 0.95540(14)
H16 H 1.5431 0.4483 0.9535
H17 H 1.4700 0.4181 0.8762
C9 C 1.60004(18) 0.40834(4) 1.05946(14)
H18 H 1.6846 0.4036 1.0433
H19 H 1.6336 0.4196 1.1384
C10 C 1.52673(18) 0.37839(4) 1.06805(15)
H20 H 1.5025 0.3662 0.9923
H21 H 1.5936 0.3660 1.1382
C11 C 1.39042(18) 0.38475(4) 1.08498(14)
H22 H 1.4166 0.3943 1.1665
H23 H 1.3417 0.3649 1.0833
C12 C 1.28562(17) 0.40628(3) 0.98506(13)
H24 H 1.2444 0.3949 0.9062
H25 H 1.2058 0.4117 1.0069
C13 C 1.25100(16) 0.45175(4) 0.84428(13)
H26 H 1.2847 0.4731 0.8430
H27 H 1.2589 0.4404 0.7758
C14 C 1.09296(17) 0.45315(3) 0.81921(13)
C15 C 0.90899(16) 0.48061(3) 0.86079(13)
H28 H 0.8449 0.4780 0.7716
C16 C 0.86368(18) 0.45705(4) 0.93319(14)
H29 H 0.7591 0.4588 0.9081
H30 H 0.8835 0.4359 0.9126
C17 C 0.94242(19) 0.46185(4) 1.07210(14)
H31 H 0.9042 0.4474 1.1147
H32 H 1.0458 0.4574 1.0996
C18 C 0.92291(19) 0.49508(4) 1.10511(14)
H33 H 0.8202 0.4988 1.0840
H34 H 0.9773 0.4981 1.1947
C19 C 0.97465(18) 0.51823(4) 1.03709(14)
H35 H 1.0786 0.5153 1.0617
H36 H 0.9598 0.5395 1.0598
C20 C 0.89288(16) 0.51402(3) 0.89745(13)
H37 H 0.7889 0.5173 0.8764
C21 C 0.93496(17) 0.53787(3) 0.82332(13)
H38 H 1.0360 0.5339 0.8358
C22 C 0.9217(2) 0.57162(4) 0.85728(16)
H39 H 0.8219 0.5755 0.8457
H40 H 0.9856 0.5749 0.9451
C23 C 0.9607(2) 0.59462(4) 0.78008(17)
H41 H 1.0552 0.5894 0.7839
H42 H 0.9630 0.6155 0.8121
H43 H 0.8888 0.5936 0.6947
C24 C 0.83466(17) 0.53306(3) 0.68768(14)
C25 C 0.81796(17) 0.52455(3) 0.47883(13)
H44 H 0.7313 0.5115 0.4615
C26 C 0.76855(17) 0.55626(4) 0.41831(14)
H45 H 0.7051 0.5534 0.3301
H46 H 0.7128 0.5668 0.4570
C27 C 0.89670(19) 0.57638(4) 0.43169(16)
H47 H 0.8613 0.5958 0.3854
H48 H 0.9523 0.5817 0.5193
C28 C 0.99449(18) 0.56010(4) 0.38462(15)
H49 H 1.0800 0.5731 0.4018
H50 H 0.9432 0.5575 0.2945
C29 C 1.04291(16) 0.52827(3) 0.44435(14)
H51 H 1.1010 0.5179 0.4074
H52 H 1.1034 0.5308 0.5333
C30 C 0.91147(16) 0.50838(3) 0.42506(13)
H53 H 0.8524 0.5074 0.3343
C31 C 0.94390(16) 0.47456(3) 0.46883(13)
H54 H 0.9807 0.4739 0.5603
C32 C 1.05329(17) 0.45898(4) 0.43104(14)
H55 H 1.0204 0.4614 0.3413
H56 H 1.1463 0.4699 0.4718
C33 C 1.07682(19) 0.42470(4) 0.46285(15)
H57 H 1.1051 0.4219 0.5510
H58 H 1.1528 0.4168 0.4417
H59 H 0.9877 0.4134 0.4164
C34 C 0.80286(16) 0.45652(3) 0.41133(13)
C35 C 0.64928(16) 0.41709(3) 0.43992(13)
H60 H 0.5787 0.4259 0.3603
C36 C 0.68869(18) 0.38457(4) 0.41408(15)
H61 H 0.5997 0.3726 0.3694
H62 H 0.7400 0.3861 0.3608
C37 C 0.78330(19) 0.36747(4) 0.53225(16)
H63 H 0.8032 0.3463 0.5123
H64 H 0.8759 0.3784 0.5741
C38 C 0.70770(19) 0.36591(4) 0.61647(16)
H65 H 0.7705 0.3554 0.6937
H66 H 0.6187 0.3536 0.5766
C39 C 0.67008(18) 0.39823(4) 0.64623(14)
H67 H 0.7596 0.4099 0.6926
H68 H 0.6179 0.3963 0.6988
C40 C 0.57639(17) 0.41613(4) 0.52822(14)
H69 H 0.4845 0.4045 0.4863
C41 C 0.53780(17) 0.44918(4) 0.55095(14)
H70 H 0.6266 0.4621 0.5790
C42 C 0.47858(18) 0.45118(4) 0.64833(14)
H71 H 0.3868 0.4397 0.6187
H72 H 0.5468 0.4410 0.7243
C43 C 0.4535(2) 0.48416(4) 0.67867(16)
H73 H 0.5391 0.4966 0.6945
H74 H 0.4342 0.4841 0.7518
H75 H 0.3712 0.4930 0.6093
C44 C 0.42730(17) 0.46275(4) 0.43103(14)
C45 C 0.34562(19) 0.50905(4) 0.31768(14)
H76 H 0.2491 0.5003 0.2968
H77 H 0.3686 0.5061 0.2462
C46 C 0.34644(17) 0.54309(4) 0.34588(15)
C47 C 0.40337(18) 0.55468(4) 0.46480(15)
H78 H 0.4462 0.5410 0.5326
C48 C 0.39785(19) 0.58622(4) 0.48488(16)
H79 H 0.4375 0.5940 0.5665
C49 C 0.3352(2) 0.60643(4) 0.38714(18)
H80 H 0.3314 0.6279 0.4014
C50 C 0.27811(19) 0.59493(4) 0.26832(17)
H81 H 0.2349 0.6086 0.2007
C51 C 0.28395(18) 0.56353(4) 0.24779(15)
H82 H 0.2450 0.5559 0.1661
O8 O 0.35446(13) 0.20741(3) -0.30293(11)
O9 O 0.18886(13) 0.22036(3) -0.23242(11)
O10 O 0.13164(12) 0.30213(2) 0.00541(9)
O11 O -0.06985(12) 0.19912(3) 0.09350(10)
O12 O 0.30205(12) 0.27708(2) 0.45093(9)
O13 O -0.14702(13) 0.28858(3) 0.39511(10)
O14 O -0.09646(12) 0.24419(2) 0.32522(10)
N5 N 0.26204(15) 0.25452(3) -0.33714(12)
H83 H 0.3101(18) 0.2566(5) -0.3823(15)
N6 N 0.05212(14) 0.26228(3) -0.12882(11)
H84 H 0.0739(19) 0.2493(3) -0.1746(14)
N7 N 0.16258(14) 0.20816(3) 0.13561(11)
H85 H 0.2272(15) 0.2094(5) 0.1058(16)
N8 N 0.16794(14) 0.29876(3) 0.26571(11)
H86 H 0.155(2) 0.2997(5) 0.1887(6)
C52 C 0.4999(2) 0.16434(4) -0.2793(2)
H87 H 0.4539 0.1614 -0.3685
H88 H 0.5347 0.1444 -0.2390
H89 H 0.5807 0.1786 -0.2578
C53 C 0.2618(2) 0.15654(4) -0.27805(17)
H90 H 0.1935 0.1648 -0.2484
H91 H 0.2918 0.1358 -0.2442
H92 H 0.2160 0.1554 -0.3679
C54 C 0.4616(2) 0.18301(4) -0.09966(18)
H93 H 0.5471 0.1959 -0.0782
H94 H 0.4892 0.1631 -0.0569
H95 H 0.3934 0.1935 -0.0751
C55 C 0.39222(18) 0.17754(4) -0.23705(15)
C56 C 0.26245(17) 0.22695(3) -0.28607(14)
C57 C 0.17837(16) 0.28094(3) -0.32910(13)
H96 H 0.0896 0.2733 -0.3254
H97 H 0.1498 0.2934 -0.4048
C58 C 0.25903(16) 0.30211(3) -0.21639(13)
C59 C 0.41041(16) 0.30983(3) -0.20449(14)
H98 H 0.4643 0.3204 -0.1252
H99 H 0.4612 0.2903 -0.2033
C60 C 0.41065(18) 0.33023(4) -0.30796(14)
H100 H 0.3658 0.3189 -0.3868
H101 H 0.5107 0.3352 -0.2928
C61 C 0.32822(18) 0.36019(4) -0.31628(14)
H102 H 0.3791 0.3724 -0.2405
H103 H 0.3255 0.3726 -0.3865
C62 C 0.17495(18) 0.35386(4) -0.33286(14)
H104 H 0.1198 0.3444 -0.4145
H105 H 0.1282 0.3736 -0.3299
C63 C 0.17206(17) 0.33220(3) -0.23320(13)
H106 H 0.0711 0.3267 -0.2536
H107 H 0.2100 0.3435 -0.1541
C64 C 0.27936(16) 0.28640(3) -0.09408(13)
H108 H 0.3153 0.2652 -0.0936
H109 H 0.3547 0.2978 -0.0258
C65 C 0.14726(16) 0.28447(3) -0.06820(12)
C66 C -0.07730(17) 0.25622(4) -0.11014(13)
H110 H -0.0519 0.2583 -0.0205
C67 C -0.19719(17) 0.27968(4) -0.17965(14)
H111 H -0.2749 0.2773 -0.1523
H112 H -0.1582 0.3009 -0.1583
C68 C -0.25995(19) 0.27569(4) -0.31900(14)
H113 H -0.1860 0.2807 -0.3485
H114 H -0.3413 0.2901 -0.3587
C69 C -0.31159(19) 0.24244(4) -0.35423(14)
H115 H -0.3475 0.2399 -0.4442
H116 H -0.3919 0.2382 -0.3317
C70 C -0.19020(17) 0.21934(4) -0.28907(13)
H117 H -0.1128 0.2227 -0.3161
H118 H -0.2270 0.1981 -0.3124
C71 C -0.12871(16) 0.22272(3) -0.14904(13)
H119 H -0.2095 0.2189 -0.1254
C72 C -0.00971(17) 0.19895(3) -0.07780(13)
H120 H 0.0781 0.2040 -0.0902
C73 C -0.05318(19) 0.16535(4) -0.11733(15)
H121 H -0.1385 0.1601 -0.1029
H122 H -0.0801 0.1634 -0.2065
C74 C 0.0671(2) 0.14232(4) -0.04784(16)
H123 H 0.1543 0.1484 -0.0562
H124 H 0.0379 0.1216 -0.0820
H125 H 0.0860 0.1423 0.0392
C75 C 0.02487(17) 0.20203(3) 0.05842(14)
C76 C 0.21458(16) 0.21092(3) 0.26919(13)
H126 H 0.1448 0.2238 0.2868
C77 C 0.22498(18) 0.17902(4) 0.32892(14)
H127 H 0.2464 0.1818 0.4167
H128 H 0.1313 0.1684 0.2888
C78 C 0.34116(19) 0.15890(4) 0.31829(16)
H129 H 0.3123 0.1534 0.2310
H130 H 0.3505 0.1395 0.3647
C79 C 0.48725(18) 0.17550(4) 0.36813(15)
H131 H 0.5233 0.1781 0.4581
H132 H 0.5570 0.1626 0.3520
C80 C 0.47588(17) 0.20716(4) 0.30850(14)
H133 H 0.4501 0.2045 0.2198
H134 H 0.5700 0.2177 0.3461
C81 C 0.36187(16) 0.22712(3) 0.32524(13)
H135 H 0.3904 0.2281 0.4157
C82 C 0.35135(16) 0.26099(3) 0.28182(13)
H136 H 0.2963 0.2616 0.1905
C83 C 0.49846(16) 0.27656(4) 0.31720(14)
H137 H 0.5563 0.2741 0.4066
H138 H 0.5492 0.2657 0.2747
C84 C 0.49030(18) 0.31079(4) 0.28585(15)
H139 H 0.4277 0.3137 0.1985
H140 H 0.5866 0.3185 0.3035
H141 H 0.4513 0.3222 0.3354
C85 C 0.27013(16) 0.27954(3) 0.34023(13)
C86 C 0.09069(17) 0.31963(3) 0.31239(13)
H142 H 0.0979 0.3109 0.3918
C87 C 0.15963(18) 0.35180(4) 0.33961(15)
H143 H 0.1182 0.3639 0.3867
H144 H 0.2639 0.3497 0.3909
C88 C 0.13591(18) 0.36906(4) 0.22241(15)
H145 H 0.1855 0.3581 0.1792
H146 H 0.1774 0.3901 0.2432
C89 C -0.02379(19) 0.37143(4) 0.13833(16)
H147 H -0.0366 0.3821 0.0615
H148 H -0.0716 0.3840 0.1791
C90 C -0.09482(18) 0.33941(4) 0.10717(14)
H149 H -0.1991 0.3419 0.0566
H150 H -0.0545 0.3277 0.0584
C91 C -0.07054(16) 0.32127(3) 0.22385(13)
H151 H -0.1195 0.3329 0.2671
C92 C -0.13525(16) 0.28834(3) 0.19919(13)
H152 H -0.0754 0.2753 0.1702
C93 C -0.29271(17) 0.28679(4) 0.10063(14)
H153 H -0.3549 0.2980 0.1313
H154 H -0.2995 0.2974 0.0254
C94 C -0.34822(18) 0.25382(4) 0.06789(15)
H155 H -0.2788 0.2416 0.0504
H156 H -0.4403 0.2541 -0.0047
H157 H -0.3612 0.2446 0.1370
C95 C -0.12646(16) 0.27463(4) 0.31815(13)
C96 C -0.09644(19) 0.22832(4) 0.43065(14)
H158 H -0.1713 0.2372 0.4524
H159 H -0.0024 0.2311 0.5016
C97 C -0.12505(17) 0.19437(4) 0.40259(14)
C98 C -0.18581(18) 0.18278(4) 0.28347(15)
H160 H -0.2076 0.1963 0.2157
C99 C -0.2146(2) 0.15144(4) 0.26383(16)
H161 H -0.2555 0.1436 0.1823
C100 C -0.1845(2) 0.13139(4) 0.36131(17)
H162 H -0.2057 0.1100 0.3470
C101 C -0.12293(19) 0.14291(4) 0.48029(16)
H163 H -0.1014 0.1293 0.5479
C102 C -0.09296(18) 0.17414(4) 0.50049(15)
H164 H -0.0500 0.1818 0.5822
loop_
_geom_bond_atom_site_label_1
_geom_bond_atom_site_label_2
_geom_bond_site_symmetry_1
_geom_bond_site_symmetry_2
O1 C4 1_555 1_555
O2 C5 1_555 1_555
O3 C14 1_555 1_555
O4 C24 1_555 1_555
O5 C34 1_555 1_555
O6 C44 1_555 1_555
O7 C44 1_555 1_555
N1 H1 1_555 1_555
N2 H2 1_555 1_555
N3 H3 1_555 1_555
N4 H4 1_555 1_555
C1 H5 1_555 1_555
H6 C1 1_555 1_555
H7 C1 1_555 1_555
C2 H8 1_555 1_555
H9 C2 1_555 1_555
H10 C2 1_555 1_555
C3 H11 1_555 1_555
H12 C3 1_555 1_555
H13 C3 1_555 1_555
C4 C1 1_555 1_555
C5 O1 1_555 1_555
C6 N1 1_555 1_555
H14 C6 1_555 1_555
H15 C6 1_555 1_555
C7 C6 1_555 1_555
C8 C7 1_555 1_555
H16 C8 1_555 1_555
H17 C8 1_555 1_555
C9 C8 1_555 1_555
H18 C9 1_555 1_555
H19 C9 1_555 1_555
C10 C9 1_555 1_555
H20 C10 1_555 1_555
H21 C10 1_555 1_555
C11 C10 1_555 1_555
H22 C11 1_555 1_555
H23 C11 1_555 1_555
C12 C7 1_555 1_555
H24 C12 1_555 1_555
H25 C12 1_555 1_555
C13 C7 1_555 1_555
H26 C13 1_555 1_555
H27 C13 1_555 1_555
C14 N2 1_555 1_555
C15 N2 1_555 1_555
H28 C15 1_555 1_555
C16 C15 1_555 1_555
H29 C16 1_555 1_555
H30 C16 1_555 1_555
C17 C16 1_555 1_555
H31 C17 1_555 1_555
H32 C17 1_555 1_555
C18 C17 1_555 1_555
H33 C18 1_555 1_555
H34 C18 1_555 1_555
C19 C18 1_555 1_555
H35 C19 1_555 1_555
H36 C19 1_555 1_555
C20 C15 1_555 1_555
H37 C20 1_555 1_555
C21 C20 1_555 1_555
H38 C21 1_555 1_555
C22 C21 1_555 1_555
H39 C22 1_555 1_555
H40 C22 1_555 1_555
C23 C22 1_555 1_555
H41 C23 1_555 1_555
H42 C23 1_555 1_555
H43 C23 1_555 1_555
C24 N3 1_555 1_555
C25 N3 1_555 1_555
H44 C25 1_555 1_555
C26 C25 1_555 1_555
H45 C26 1_555 1_555
H46 C26 1_555 1_555
C27 C26 1_555 1_555
H47 C27 1_555 1_555
H48 C27 1_555 1_555
C28 C27 1_555 1_555
H49 C28 1_555 1_555
H50 C28 1_555 1_555
C29 C28 1_555 1_555
H51 C29 1_555 1_555
H52 C29 1_555 1_555
C30 C25 1_555 1_555
H53 C30 1_555 1_555
C31 C30 1_555 1_555
H54 C31 1_555 1_555
C32 C31 1_555 1_555
H55 C32 1_555 1_555
H56 C32 1_555 1_555
C33 C32 1_555 1_555
H57 C33 1_555 1_555
H58 C33 1_555 1_555
H59 C33 1_555 1_555
C34 N4 1_555 1_555
C35 N4 1_555 1_555
H60 C35 1_555 1_555
C36 C35 1_555 1_555
H61 C36 1_555 1_555
H62 C36 1_555 1_555
C37 C36 1_555 1_555
H63 C37 1_555 1_555
H64 C37 1_555 1_555
C38 C37 1_555 1_555
H65 C38 1_555 1_555
H66 C38 1_555 1_555
C39 C38 1_555 1_555
H67 C39 1_555 1_555
H68 C39 1_555 1_555
C40 C35 1_555 1_555
H69 C40 1_555 1_555
C41 C40 1_555 1_555
H70 C41 1_555 1_555
C42 C41 1_555 1_555
H71 C42 1_555 1_555
H72 C42 1_555 1_555
C43 C42 1_555 1_555
H73 C43 1_555 1_555
H74 C43 1_555 1_555
H75 C43 1_555 1_555
C44 C41 1_555 1_555
C45 O7 1_555 1_555
H76 C45 1_555 1_555
H77 C45 1_555 1_555
C46 C45 1_555 1_555
C47 C46 1_555 1_555
H78 C47 1_555 1_555
C48 C47 1_555 1_555
H79 C48 1_555 1_555
C49 C48 1_555 1_555
H80 C49 1_555 1_555
C50 C49 1_555 1_555
H81 C50 1_555 1_555
C51 C46 1_555 1_555
H82 C51 1_555 1_555
O8 C55 1_555 1_555
O9 C56 1_555 1_555
O10 C65 1_555 1_555
O11 C75 1_555 1_555
O12 C85 1_555 1_555
O13 C95 1_555 1_555
O14 C95 1_555 1_555
N5 H83 1_555 1_555
N6 H84 1_555 1_555
N7 H85 1_555 1_555
N8 H86 1_555 1_555
C52 H87 1_555 1_555
H88 C52 1_555 1_555
H89 C52 1_555 1_555
C53 H90 1_555 1_555
H91 C53 1_555 1_555
H92 C53 1_555 1_555
C54 H93 1_555 1_555
H94 C54 1_555 1_555
H95 C54 1_555 1_555
C55 C52 1_555 1_555
C56 O8 1_555 1_555
C57 N5 1_555 1_555
H96 C57 1_555 1_555
H97 C57 1_555 1_555
C58 C57 1_555 1_555
C59 C58 1_555 1_555
H98 C59 1_555 1_555
H99 C59 1_555 1_555
C60 C59 1_555 1_555
H100 C60 1_555 1_555
H101 C60 1_555 1_555
C61 C60 1_555 1_555
H102 C61 1_555 1_555
H103 C61 1_555 1_555
C62 C61 1_555 1_555
H104 C62 1_555 1_555
H105 C62 1_555 1_555
C63 C58 1_555 1_555
H106 C63 1_555 1_555
H107 C63 1_555 1_555
C64 C58 1_555 1_555
H108 C64 1_555 1_555
H109 C64 1_555 1_555
C65 N6 1_555 1_555
C66 N6 1_555 1_555
H110 C66 1_555 1_555
C67 C66 1_555 1_555
H111 C67 1_555 1_555
H112 C67 1_555 1_555
C68 C67 1_555 1_555
H113 C68 1_555 1_555
H114 C68 1_555 1_555
C69 C68 1_555 1_555
H115 C69 1_555 1_555
H116 C69 1_555 1_555
C70 C69 1_555 1_555
H117 C70 1_555 1_555
H118 C70 1_555 1_555
C71 C66 1_555 1_555
H119 C71 1_555 1_555
C72 C71 1_555 1_555
H120 C72 1_555 1_555
C73 C72 1_555 1_555
H121 C73 1_555 1_555
H122 C73 1_555 1_555
C74 C73 1_555 1_555
H123 C74 1_555 1_555
H124 C74 1_555 1_555
H125 C74 1_555 1_555
C75 N7 1_555 1_555
C76 N7 1_555 1_555
H126 C76 1_555 1_555
C77 C76 1_555 1_555
H127 C77 1_555 1_555
H128 C77 1_555 1_555
C78 C77 1_555 1_555
H129 C78 1_555 1_555
H130 C78 1_555 1_555
C79 C78 1_555 1_555
H131 C79 1_555 1_555
H132 C79 1_555 1_555
C80 C79 1_555 1_555
H133 C80 1_555 1_555
H134 C80 1_555 1_555
C81 C76 1_555 1_555
H135 C81 1_555 1_555
C82 C81 1_555 1_555
H136 C82 1_555 1_555
C83 C82 1_555 1_555
H137 C83 1_555 1_555
H138 C83 1_555 1_555
C84 C83 1_555 1_555
H139 C84 1_555 1_555
H140 C84 1_555 1_555
H141 C84 1_555 1_555
C85 N8 1_555 1_555
C86 N8 1_555 1_555
H142 C86 1_555 1_555
C87 C86 1_555 1_555
H143 C87 1_555 1_555
H144 C87 1_555 1_555
C88 C87 1_555 1_555
H145 C88 1_555 1_555
H146 C88 1_555 1_555
C89 C88 1_555 1_555
H147 C89 1_555 1_555
H148 C89 1_555 1_555
C90 C89 1_555 1_555
H149 C90 1_555 1_555
H150 C90 1_555 1_555
C91 C86 1_555 1_555
H151 C91 1_555 1_555
C92 C91 1_555 1_555
H152 C92 1_555 1_555
C93 C92 1_555 1_555
H153 C93 1_555 1_555
H154 C93 1_555 1_555
C94 C93 1_555 1_555
H155 C94 1_555 1_555
H156 C94 1_555 1_555
H157 C94 1_555 1_555
C95 C92 1_555 1_555
C96 O14 1_555 1_555
H158 C96 1_555 1_555
H159 C96 1_555 1_555
C97 C96 1_555 1_555
C98 C97 1_555 1_555
H160 C98 1_555 1_555
C99 C98 1_555 1_555
H161 C99 1_555 1_555
C100 C99 1_555 1_555
H162 C100 1_555 1_555
C101 C100 1_555 1_555
H163 C101 1_555 1_555
C102 C97 1_555 1_555
H164 C102 1_555 1_555
N1 C5 1_555 1_555
C2 C4 1_555 1_555
C3 C4 1_555 1_555
C11 C12 1_555 1_555
C13 C14 1_555 1_555
C19 C20 1_555 1_555
C21 C24 1_555 1_555
C29 C30 1_555 1_555
C31 C34 1_555 1_555
C39 C40 1_555 1_555
C50 C51 1_555 1_555
N5 C56 1_555 1_555
C53 C55 1_555 1_555
C54 C55 1_555 1_555
C62 C63 1_555 1_555
C64 C65 1_555 1_555
C70 C71 1_555 1_555
C72 C75 1_555 1_555
C80 C81 1_555 1_555
C82 C85 1_555 1_555
C90 C91 1_555 1_555
C101 C102 1_555 1_555

#END
