
#######################################################################
#
#                 Cambridge Crystallographic Data Centre
#                                CCDC 
#
#######################################################################
#
# If this CIF has been generated from an entry in the Cambridge 
# Structural Database, then it will include bibliographic, chemical, 
# crystal, experimental, refinement or atomic coordinate data resulting 
# from the CCDC's data processing and validation procedures.
#
#######################################################################

data_ISONAH
_chemical_formula_moiety         'C17 H16 O8'
_chemical_name_systematic        
6a-(2-(2,5-dihydroxyphenyl)-2-oxoethyl)-3-hydroxytetrahydro-6H-furo[3',4':2,3]cyclopenta[1,2-b]furan-2,6(3H)-dione
_symmetry_cell_setting           monoclinic
_symmetry_space_group_name_H-M   'P 21'
_symmetry_Int_Tables_number      4
_space_group_name_Hall           'P 2yb'
loop_
_symmetry_equiv_pos_site_id
_symmetry_equiv_pos_as_xyz
1 x,y,z
2 -x,1/2+y,-z
_cell_length_a                   6.7105(3)
_cell_length_b                   7.8030(4)
_cell_length_c                   15.2397(9)
_cell_angle_alpha                90
_cell_angle_beta                 102.694(2)
_cell_angle_gamma                90
_cell_volume                     778.477
_exptl_crystal_colour            colorless
_exptl_crystal_description       prism
_cell_formula_units_Z            2
loop_
_atom_site_label
_atom_site_type_symbol
_atom_site_fract_x
_atom_site_fract_y
_atom_site_fract_z
O1 O 0.5006(10) 0.8089(10) 0.1892(5)
O2 O 0.5291(10) 0.4260(15) 0.6418(4)
H1 H 0.5246 0.3867 0.6926
O3 O -0.0672(11) 0.3946(11) 0.2877(5)
O4 O -0.0860(10) 0.2304(10) 0.1127(4)
O5 O 0.4460(10) 0.5879(10) 0.0954(4)
O6 O 0.0345(10) 0.7526(9) 0.1098(4)
H2 H -0.0839 0.7293 0.1159
O7 O 0.0795(10) 0.0410(9) 0.2117(5)
O8 O -0.2422(10) 0.4344(14) 0.4222(5)
H3 H -0.2365 0.4403 0.3678
C1 C 0.1610(17) 0.4419(17) 0.6226(7)
H4 H 0.1734 0.4514 0.6857
C2 C 0.3368(14) 0.4257(16) 0.5879(7)
C3 C 0.3196(15) 0.4101(16) 0.4978(7)
H5 H 0.4394 0.3975 0.4748
C4 C 0.1225(15) 0.4122(15) 0.4362(7)
C5 C 0.1075(15) 0.3889(13) 0.3407(7)
C6 C 0.2878(16) 0.3530(14) 0.3020(6)
H6 H 0.3611 0.2525 0.3332
H7 H 0.3817 0.4523 0.3139
C7 C 0.2365(14) 0.3176(13) 0.2009(6)
C8 C 0.1531(13) 0.4659(14) 0.1344(6)
C9 C 0.1810(16) 0.6459(13) 0.1697(7)
H8 H 0.1709 0.6555 0.2340
C10 C 0.3861(14) 0.6929(13) 0.1553(6)
C11 C 0.0734(15) 0.1816(13) 0.1797(6)
C12 C -0.0719(14) 0.4143(14) 0.0936(6)
H9 H -0.1669 0.4809 0.1217
H10 H -0.1063 0.4354 0.0279
C13 C 0.2835(14) 0.4589(14) 0.0636(6)
H11 H 0.2023 0.4848 0.0018
C14 C 0.3855(14) 0.2828(14) 0.0693(6)
H12 H 0.5125 0.2863 0.0463
H13 H 0.2922 0.1954 0.0355
C15 C 0.4312(13) 0.2483(13) 0.1714(6)
H14 H 0.5552 0.3103 0.2026
H15 H 0.4501 0.1242 0.1843
C16 C -0.0490(14) 0.4317(15) 0.4745(7)
C17 C -0.0288(15) 0.4440(17) 0.5663(7)
H16 H -0.1471 0.4540 0.5907
loop_
_geom_bond_atom_site_label_1
_geom_bond_atom_site_label_2
_geom_bond_site_symmetry_1
_geom_bond_site_symmetry_2
O1 C10 1_555 1_555
O2 H1 1_555 1_555
O3 C5 1_555 1_555
O4 C11 1_555 1_555
O5 C10 1_555 1_555
O6 H2 1_555 1_555
O7 C11 1_555 1_555
O8 H3 1_555 1_555
C1 H4 1_555 1_555
C2 O2 1_555 1_555
C3 C2 1_555 1_555
H5 C3 1_555 1_555
C4 C3 1_555 1_555
C5 C4 1_555 1_555
C6 C5 1_555 1_555
H6 C6 1_555 1_555
H7 C6 1_555 1_555
C7 C6 1_555 1_555
C8 C7 1_555 1_555
C9 O6 1_555 1_555
H8 C9 1_555 1_555
C10 C9 1_555 1_555
C11 C7 1_555 1_555
C12 O4 1_555 1_555
H9 C12 1_555 1_555
H10 C12 1_555 1_555
C13 O5 1_555 1_555
H11 C13 1_555 1_555
C14 C13 1_555 1_555
H12 C14 1_555 1_555
H13 C14 1_555 1_555
C15 C7 1_555 1_555
H14 C15 1_555 1_555
H15 C15 1_555 1_555
C16 O8 1_555 1_555
C17 C1 1_555 1_555
H16 C17 1_555 1_555
C1 C2 1_555 1_555
C4 C16 1_555 1_555
C8 C9 1_555 1_555
C8 C12 1_555 1_555
C8 C13 1_555 1_555
C14 C15 1_555 1_555
C16 C17 1_555 1_555

#END
