
#######################################################################
#
#                 Cambridge Crystallographic Data Centre
#                                CCDC 
#
#######################################################################
#
# If this CIF has been generated from an entry in the Cambridge 
# Structural Database, then it will include bibliographic, chemical, 
# crystal, experimental, refinement or atomic coordinate data resulting 
# from the CCDC's data processing and validation procedures.
#
#######################################################################

data_ISONUA
_chemical_formula_moiety         'C71 H116 N6 O9,1.5(C7 H16)'
_chemical_name_systematic        
'Benzyl 2-(2-((2-(2-((2-(2-((2-(2-((2-(2-(((1-(((t-butoxycarbonyl)amino)methyl)cyclohexyl)acetyl)amino)-cyclohexyl)butanoyl)amino)cyclohexyl)butanoyl)amino)-cyclohexyl)butanoyl)amino)cyclohexyl)butanoyl)amino)cyclohexyl)butanoate heptane solvate'
_symmetry_cell_setting           monoclinic
_symmetry_space_group_name_H-M   'P 21'
_symmetry_Int_Tables_number      4
_space_group_name_Hall           'P 2yb'
loop_
_symmetry_equiv_pos_site_id
_symmetry_equiv_pos_as_xyz
1 x,y,z
2 -x,1/2+y,-z
_cell_length_a                   12.186(3)
_cell_length_b                   20.270(5)
_cell_length_c                   16.518(4)
_cell_angle_alpha                90
_cell_angle_beta                 109.366(8)
_cell_angle_gamma                90
_cell_volume                     3849.26
_exptl_crystal_colour            colorless
_exptl_crystal_description       needle
_cell_formula_units_Z            2
loop_
_atom_site_label
_atom_site_type_symbol
_atom_site_fract_x
_atom_site_fract_y
_atom_site_fract_z
O1 O 0.06424(16) 0.89344(10) 0.78543(11)
O2 O 0.33834(13) 0.80252(9) 0.66575(10)
O3 O 0.02114(13) 0.85370(8) 0.40610(9)
O4 O 0.42755(14) 0.85990(9) 0.40747(10)
O5 O 0.19567(13) 0.67005(8) 0.27871(10)
O6 O 0.26374(14) 0.84888(10) 0.08572(10)
O7 O 0.42975(18) 0.66023(13) 0.05623(13)
O8 O 0.25234(16) 0.66281(11) 0.06637(11)
N1 N 0.20842(17) 0.88298(11) 0.91362(12)
H1 H 0.2421 0.9029 0.9630
N2 N 0.16436(15) 0.82450(10) 0.68117(11)
H2 H 0.1276 0.8474 0.7095
N3 N 0.14735(15) 0.92275(9) 0.49814(11)
H3 H 0.1770 0.9347 0.5523
N4 N 0.37671(15) 0.79456(10) 0.50061(11)
H4 H 0.3478 0.7936 0.5429
N5 N 0.12226(15) 0.77164(9) 0.28548(11)
H5 H 0.1147 0.8039 0.3189
N6 N 0.38716(10) 0.82292(6) 0.21686(7)
H6 H 0.3997 0.8221 0.2725
O9 O 0.06771(10) 0.95481(6) 0.89986(7)
C1 C -0.04204(10) 0.98930(6) 0.85664(7)
C2 C -0.0402(4) 1.0471(3) 0.9159(3)
H7 H -0.0328 1.0305 0.9732
H8 H -0.1126 1.0723 0.8931
H9 H 0.0260 1.0758 0.9196
C3 C -0.0530(6) 1.0153(3) 0.7682(3)
H10 H 0.0168 1.0407 0.7713
H11 H -0.1216 1.0438 0.7475
H12 H -0.0613 0.9782 0.7285
C4 C -0.1398(4) 0.9385(2) 0.8484(4)
H13 H -0.1344 0.9028 0.8100
H14 H -0.2156 0.9603 0.8249
H15 H -0.1314 0.9203 0.9051
C5 C 0.10902(14) 0.90838(9) 0.86037(10)
C6 C 0.26335(14) 0.82450(9) 0.89408(10)
H16 H 0.2056 0.8007 0.8465
H17 H 0.2851 0.7952 0.9449
C7 C 0.37266(19) 0.83724(11) 0.86880(13)
C8 C 0.4579(2) 0.88059(14) 0.93821(15)
H18 H 0.4252 0.9256 0.9346
H19 H 0.4650 0.8625 0.9954
C9 C 0.5794(2) 0.88495(16) 0.93027(18)
H20 H 0.5746 0.9089 0.8770
H21 H 0.6311 0.9103 0.9794
C10 C 0.6312(2) 0.81690(17) 0.92856(19)
H22 H 0.6438 0.7946 0.9842
H23 H 0.7076 0.8214 0.9201
C11 C 0.5499(2) 0.77491(15) 0.85594(17)
H24 H 0.5428 0.7951 0.7998
H25 H 0.5830 0.7301 0.8575
C12 C 0.4288(2) 0.77012(12) 0.86575(15)
H26 H 0.3770 0.7444 0.8170
H27 H 0.4358 0.7457 0.9191
C13 C 0.33934(19) 0.87394(12) 0.78079(13)
H28 H 0.2872 0.9112 0.7816
H29 H 0.4108 0.8926 0.7739
C14 C 0.27934(19) 0.83045(12) 0.70357(13)
C15 C 0.09659(18) 0.78153(11) 0.61137(13)
H30 H 0.1387 0.7787 0.5688
C16 C 0.0895(2) 0.71222(12) 0.64411(15)
H31 H 0.1687 0.6972 0.6781
H32 H 0.0591 0.6820 0.5946
C17 C 0.0115(2) 0.70830(13) 0.69962(15)
H33 H 0.0454 0.7350 0.7522
H34 H 0.0064 0.6620 0.7171
C18 C -0.1101(2) 0.73387(13) 0.64962(17)
H35 H -0.1461 0.7049 0.5996
H36 H -0.1592 0.7325 0.6868
C19 C -0.1055(2) 0.80404(13) 0.61884(16)
H37 H -0.0778 0.8336 0.6692
H38 H -0.1850 0.8181 0.5842
C20 C -0.02497(18) 0.81124(11) 0.56457(14)
H39 H -0.0602 0.7845 0.5114
C21 C -0.01671(18) 0.88157(12) 0.53602(14)
H40 H 0.0249 0.9086 0.5877
C22 C -0.1386(2) 0.91270(14) 0.49126(17)
H41 H -0.1816 0.8844 0.4421
H42 H -0.1822 0.9124 0.5323
C23 C -0.1372(3) 0.98137(18) 0.4596(2)
H43 H -0.0963 1.0102 0.5078
H44 H -0.2173 0.9970 0.4330
H45 H -0.0971 0.9821 0.4170
C24 C 0.05237(18) 0.88396(11) 0.47447(13)
C25 C 0.20369(19) 0.94602(11) 0.43726(14)
H46 H 0.2044 0.9092 0.3971
C26 C 0.1332(2) 1.00284(13) 0.38577(17)
H47 H 0.0523 0.9880 0.3565
H48 H 0.1666 1.0164 0.3412
C27 C 0.1325(2) 1.06203(13) 0.44319(17)
H49 H 0.0867 1.0984 0.4078
H50 H 0.0952 1.0494 0.4858
C28 C 0.2564(2) 1.08539(13) 0.4896(2)
H51 H 0.2549 1.1218 0.5292
H52 H 0.2905 1.1026 0.4471
C29 C 0.3327(2) 1.02908(13) 0.54063(18)
H53 H 0.3053 1.0165 0.5887
H54 H 0.4139 1.0448 0.5654
C30 C 0.3298(2) 0.96778(12) 0.48440(15)
H55 H 0.3625 0.9820 0.4391
C31 C 0.40712(19) 0.91171(12) 0.53355(14)
H56 H 0.3773 0.8968 0.5801
C32 C 0.5358(2) 0.93159(16) 0.57465(18)
H57 H 0.5670 0.9437 0.5284
H58 H 0.5401 0.9713 0.6105
C33 C 0.6122(2) 0.87849(19) 0.6294(2)
H59 H 0.5823 0.8662 0.6756
H60 H 0.6918 0.8951 0.6543
H61 H 0.6119 0.8397 0.5939
C34 C 0.40265(17) 0.85291(12) 0.47354(13)
C35 C 0.39498(19) 0.73220(12) 0.46196(14)
H62 H 0.3863 0.7410 0.4006
C36 C 0.5201(2) 0.70804(14) 0.50763(15)
H63 H 0.5370 0.6703 0.4757
H64 H 0.5755 0.7439 0.5081
C37 C 0.5366(2) 0.68694(15) 0.59975(16)
H65 H 0.5267 0.7256 0.6332
H66 H 0.6164 0.6697 0.6269
C38 C 0.4482(3) 0.63363(15) 0.60105(16)
H67 H 0.4632 0.5935 0.5722
H68 H 0.4582 0.6220 0.6613
C39 C 0.3236(2) 0.65641(13) 0.55640(15)
H69 H 0.3055 0.6933 0.5892
H70 H 0.2696 0.6197 0.5554
C40 C 0.3049(2) 0.67925(12) 0.46388(14)
H71 H 0.3205 0.6401 0.4325
C41 C 0.1801(2) 0.70168(11) 0.41444(14)
H72 H 0.1642 0.7438 0.4400
C42 C 0.0885(2) 0.64999(13) 0.41701(15)
H73 H 0.1041 0.6085 0.3912
H74 H 0.0971 0.6407 0.4777
C43 C -0.0363(2) 0.67109(15) 0.37003(17)
H75 H -0.0502 0.7144 0.3910
H76 H -0.0898 0.6388 0.3805
H77 H -0.0491 0.6737 0.3083
C44 C 0.16735(18) 0.71367(11) 0.32023(14)
C45 C 0.08537(18) 0.78184(12) 0.19202(13)
H78 H 0.1416 0.7579 0.1702
C46 C -0.03446(19) 0.75161(13) 0.14907(14)
H79 H -0.0343 0.7055 0.1688
H80 H -0.0515 0.7509 0.0862
C47 C -0.12991(19) 0.79028(13) 0.16954(15)
H81 H -0.2067 0.7709 0.1376
H82 H -0.1182 0.7867 0.2316
C48 C -0.1287(2) 0.86252(14) 0.14543(15)
H83 H -0.1881 0.8868 0.1625
H84 H -0.1488 0.8665 0.0824
C49 C -0.00843(19) 0.89340(12) 0.18985(15)
H85 H 0.0085 0.8931 0.2528
H86 H -0.0088 0.9398 0.1712
C50 C 0.08730(18) 0.85492(12) 0.16788(13)
H87 H 0.0664 0.8565 0.1040
C51 C 0.20971(18) 0.88485(12) 0.20509(13)
H88 H 0.2399 0.8779 0.2686
C52 C 0.2138(2) 0.95882(13) 0.18537(18)
H89 H 0.1860 0.9652 0.1224
H90 H 0.1604 0.9829 0.2088
C53 C 0.3354(3) 0.98803(16) 0.2230(2)
H91 H 0.3676 0.9768 0.2840
H92 H 0.3312 1.0361 0.2163
H93 H 0.3856 0.9699 0.1927
C54 C 0.28895(18) 0.85014(12) 0.16418(13)
C55 C 0.47391(18) 0.79452(12) 0.18296(14)
H94 H 0.4366 0.7900 0.1194
C56 C 0.5772(2) 0.84135(16) 0.19905(15)
H95 H 0.5484 0.8860 0.1782
H96 H 0.6273 0.8260 0.1664
C57 C 0.6493(2) 0.84495(18) 0.29487(17)
H97 H 0.7197 0.8720 0.3025
H98 H 0.6029 0.8666 0.3265
C58 C 0.6849(2) 0.7768(2) 0.33138(17)
H99 H 0.7259 0.7803 0.3939
H100 H 0.7397 0.7577 0.3050
C59 C 0.5818(2) 0.73104(16) 0.31561(15)
H101 H 0.5304 0.7478 0.3465
H102 H 0.6095 0.6867 0.3385
C60 C 0.5124(2) 0.72576(13) 0.21929(14)
H103 H 0.5678 0.7094 0.1908
C61 C 0.4102(2) 0.67770(13) 0.19514(15)
H104 H 0.3455 0.7006 0.2084
C62 C 0.4192(9) 0.6065(4) 0.2356(9)
H105 H 0.4398 0.6104 0.2987
H106 H 0.3424 0.5845 0.2133
C63 C 0.5081(5) 0.5648(3) 0.2156(3)
H107 H 0.5107 0.5212 0.2417
H108 H 0.5846 0.5859 0.2387
H109 H 0.4873 0.5601 0.1533
C64 C 0.3683(2) 0.66667(13) 0.09974(16)
C65 C 0.2059(3) 0.64713(17) -0.02422(16)
H110 H 0.2094 0.5989 -0.0323
H111 H 0.2535 0.6688 -0.0549
C66 C 0.0833(2) 0.66999(15) -0.06047(16)
C67 C -0.0031(3) 0.62769(17) -0.11029(18)
H112 H 0.0154 0.5833 -0.1188
C68 C -0.1149(3) 0.6504(2) -0.1471(2)
H113 H -0.1737 0.6213 -0.1804
C69 C -0.1420(3) 0.7138(2) -0.13624(18)
H114 H -0.2194 0.7290 -0.1628
C70 C -0.0559(3) 0.7581(2) -0.08557(18)
H115 H -0.0750 0.8026 -0.0782
C71 C 0.0551(2) 0.73527(16) -0.04768(16)
H116 H 0.1132 0.7639 -0.0125
C72? C -0.0597(7) 1.0276(5) 0.9314(4)
C73? C -0.0164(10) 1.0368(5) 0.7923(7)
C74? C -0.14536(14) 0.9455(2) 0.8134(8)
C75? C 0.4625(10) 0.6132(5) 0.2448(11)
C76? C 0.3777(6) 0.5574(3) 0.2179(4)
H117? H -0.0709 0.9964 0.9734
H118? H -0.1284 1.0559 0.9098
H119? H 0.0090 1.0549 0.9589
H120? H 0.0543 1.0620 0.8215
H121? H -0.0820 1.0672 0.7694
H122? H -0.0052 1.0114 0.7452
H123? H -0.1355 0.9251 0.7624
H124? H -0.2166 0.9720 0.7963
H125? H -0.1509 0.9110 0.8534
H126? H 0.3458 0.6949 0.2142
H127? H 0.5349 0.6015 0.2333
H128? H 0.4824 0.6207 0.3072
H129? H 0.3695 0.5443 0.1590
H130? H 0.3021 0.5716 0.2204
H131? H 0.4061 0.5199 0.2565
loop_
_geom_bond_atom_site_label_1
_geom_bond_atom_site_label_2
_geom_bond_site_symmetry_1
_geom_bond_site_symmetry_2
O1 C5 1_555 1_555
O2 C14 1_555 1_555
O3 C24 1_555 1_555
O4 C34 1_555 1_555
O5 C44 1_555 1_555
O6 C54 1_555 1_555
O7 C64 1_555 1_555
O8 C64 1_555 1_555
N1 H1 1_555 1_555
N2 H2 1_555 1_555
N3 H3 1_555 1_555
N4 H4 1_555 1_555
N5 H5 1_555 1_555
N6 H6 1_555 1_555
O9 C1 1_555 1_555
C1 C2 1_555 1_555
C2 H7 1_555 1_555
H8 C2 1_555 1_555
H9 C2 1_555 1_555
C3 C1 1_555 1_555
H10 C3 1_555 1_555
H11 C3 1_555 1_555
H12 C3 1_555 1_555
C4 C1 1_555 1_555
H13 C4 1_555 1_555
H14 C4 1_555 1_555
H15 C4 1_555 1_555
C5 N1 1_555 1_555
C6 N1 1_555 1_555
H16 C6 1_555 1_555
H17 C6 1_555 1_555
C7 C6 1_555 1_555
C8 C7 1_555 1_555
H18 C8 1_555 1_555
H19 C8 1_555 1_555
C9 C8 1_555 1_555
H20 C9 1_555 1_555
H21 C9 1_555 1_555
C10 C9 1_555 1_555
H22 C10 1_555 1_555
H23 C10 1_555 1_555
C11 C10 1_555 1_555
H24 C11 1_555 1_555
H25 C11 1_555 1_555
C12 C7 1_555 1_555
H26 C12 1_555 1_555
H27 C12 1_555 1_555
C13 C7 1_555 1_555
H28 C13 1_555 1_555
H29 C13 1_555 1_555
C14 N2 1_555 1_555
C15 N2 1_555 1_555
H30 C15 1_555 1_555
C16 C15 1_555 1_555
H31 C16 1_555 1_555
H32 C16 1_555 1_555
C17 C16 1_555 1_555
H33 C17 1_555 1_555
H34 C17 1_555 1_555
C18 C17 1_555 1_555
H35 C18 1_555 1_555
H36 C18 1_555 1_555
C19 C18 1_555 1_555
H37 C19 1_555 1_555
H38 C19 1_555 1_555
C20 C15 1_555 1_555
H39 C20 1_555 1_555
C21 C20 1_555 1_555
H40 C21 1_555 1_555
C22 C21 1_555 1_555
H41 C22 1_555 1_555
H42 C22 1_555 1_555
C23 C22 1_555 1_555
H43 C23 1_555 1_555
H44 C23 1_555 1_555
H45 C23 1_555 1_555
C24 N3 1_555 1_555
C25 N3 1_555 1_555
H46 C25 1_555 1_555
C26 C25 1_555 1_555
H47 C26 1_555 1_555
H48 C26 1_555 1_555
C27 C26 1_555 1_555
H49 C27 1_555 1_555
H50 C27 1_555 1_555
C28 C27 1_555 1_555
H51 C28 1_555 1_555
H52 C28 1_555 1_555
C29 C28 1_555 1_555
H53 C29 1_555 1_555
H54 C29 1_555 1_555
C30 C25 1_555 1_555
H55 C30 1_555 1_555
C31 C30 1_555 1_555
H56 C31 1_555 1_555
C32 C31 1_555 1_555
H57 C32 1_555 1_555
H58 C32 1_555 1_555
C33 C32 1_555 1_555
H59 C33 1_555 1_555
H60 C33 1_555 1_555
H61 C33 1_555 1_555
C34 N4 1_555 1_555
C35 N4 1_555 1_555
H62 C35 1_555 1_555
C36 C35 1_555 1_555
H63 C36 1_555 1_555
H64 C36 1_555 1_555
C37 C36 1_555 1_555
H65 C37 1_555 1_555
H66 C37 1_555 1_555
C38 C37 1_555 1_555
H67 C38 1_555 1_555
H68 C38 1_555 1_555
C39 C38 1_555 1_555
H69 C39 1_555 1_555
H70 C39 1_555 1_555
C40 C35 1_555 1_555
H71 C40 1_555 1_555
C41 C40 1_555 1_555
H72 C41 1_555 1_555
C42 C41 1_555 1_555
H73 C42 1_555 1_555
H74 C42 1_555 1_555
C43 C42 1_555 1_555
H75 C43 1_555 1_555
H76 C43 1_555 1_555
H77 C43 1_555 1_555
C44 N5 1_555 1_555
C45 N5 1_555 1_555
H78 C45 1_555 1_555
C46 C45 1_555 1_555
H79 C46 1_555 1_555
H80 C46 1_555 1_555
C47 C46 1_555 1_555
H81 C47 1_555 1_555
H82 C47 1_555 1_555
C48 C47 1_555 1_555
H83 C48 1_555 1_555
H84 C48 1_555 1_555
C49 C48 1_555 1_555
H85 C49 1_555 1_555
H86 C49 1_555 1_555
C50 C45 1_555 1_555
H87 C50 1_555 1_555
C51 C50 1_555 1_555
H88 C51 1_555 1_555
C52 C51 1_555 1_555
H89 C52 1_555 1_555
H90 C52 1_555 1_555
C53 C52 1_555 1_555
H91 C53 1_555 1_555
H92 C53 1_555 1_555
H93 C53 1_555 1_555
C54 N6 1_555 1_555
C55 N6 1_555 1_555
H94 C55 1_555 1_555
C56 C55 1_555 1_555
H95 C56 1_555 1_555
H96 C56 1_555 1_555
C57 C56 1_555 1_555
H97 C57 1_555 1_555
H98 C57 1_555 1_555
C58 C57 1_555 1_555
H99 C58 1_555 1_555
H100 C58 1_555 1_555
C59 C58 1_555 1_555
H101 C59 1_555 1_555
H102 C59 1_555 1_555
C60 C55 1_555 1_555
H103 C60 1_555 1_555
C61 C60 1_555 1_555
H104 C61 1_555 1_555
C62 C61 1_555 1_555
H105 C62 1_555 1_555
H106 C62 1_555 1_555
C63 C62 1_555 1_555
H107 C63 1_555 1_555
H108 C63 1_555 1_555
H109 C63 1_555 1_555
C64 C61 1_555 1_555
C65 O8 1_555 1_555
H110 C65 1_555 1_555
H111 C65 1_555 1_555
C66 C65 1_555 1_555
C67 C66 1_555 1_555
H112 C67 1_555 1_555
C68 C67 1_555 1_555
H113 C68 1_555 1_555
C69 C68 1_555 1_555
H114 C69 1_555 1_555
C70 C69 1_555 1_555
H115 C70 1_555 1_555
C71 C66 1_555 1_555
H116 C71 1_555 1_555
O9 C5 1_555 1_555
C11 C12 1_555 1_555
C13 C14 1_555 1_555
C19 C20 1_555 1_555
C21 C24 1_555 1_555
C29 C30 1_555 1_555
C31 C34 1_555 1_555
C39 C40 1_555 1_555
C41 C44 1_555 1_555
C49 C50 1_555 1_555
C51 C54 1_555 1_555
C59 C60 1_555 1_555
C70 C71 1_555 1_555

#END
