
#######################################################################
#
#                 Cambridge Crystallographic Data Centre
#                                CCDC 
#
#######################################################################
#
# If this CIF has been generated from an entry in the Cambridge 
# Structural Database, then it will include bibliographic, chemical, 
# crystal, experimental, refinement or atomic coordinate data resulting 
# from the CCDC's data processing and validation procedures.
#
#######################################################################

data_ISOPAI
_chemical_formula_moiety         'C81 H133 N7 O10,C1 H1 Cl3'
_chemical_name_systematic        
'Benzyl 2-(2-((2-(2-((2-(2-((2-(2-((2-(2-((2-(2-(((1-(((t-butoxycarbonyl)amino)methyl)cyclohexyl)acetyl)amino)-cyclohexyl)butanoyl)amino)cyclohexyl)butanoyl)amino)-cyclohexyl)butanoyl)amino)cyclohexyl)butanoyl)amino)cyclohexyl)-butanoyl)amino)cyclohexyl)butanoate chloroform solvate'
_symmetry_cell_setting           monoclinic
_symmetry_space_group_name_H-M   'P 21'
_symmetry_Int_Tables_number      4
_space_group_name_Hall           'P 2yb'
loop_
_symmetry_equiv_pos_site_id
_symmetry_equiv_pos_as_xyz
1 x,y,z
2 -x,1/2+y,-z
_cell_length_a                   11.0707(3)
_cell_length_b                   19.8059(6)
_cell_length_c                   20.0295(6)
_cell_angle_alpha                90
_cell_angle_beta                 106.0421(18)
_cell_angle_gamma                90
_cell_volume                     4220.75
_exptl_crystal_colour            colorless
_exptl_crystal_description       block
_cell_formula_units_Z            2
loop_
_atom_site_label
_atom_site_type_symbol
_atom_site_fract_x
_atom_site_fract_y
_atom_site_fract_z
O1 O 0.52413(17) 0.49623(9) -0.93867(9)
O2 O 0.64466(18) 0.43478(10) -0.84883(9)
O3 O 0.56057(19) 0.30653(10) -0.66685(9)
O4 O 0.93619(16) 0.44215(9) -0.57654(8)
O5 O 0.61132(17) 0.45630(9) -0.46198(8)
O6 O 0.97984(14) 0.31857(8) -0.35535(8)
O7 O 0.99071(15) 0.54469(9) -0.25233(8)
O8 O 0.87749(16) 0.32554(10) -0.12841(8)
O9 O 1.21865(16) 0.42619(9) -0.01585(8)
O10 O 1.03362(15) 0.46028(9) -0.08500(9)
N1 N 0.46359(19) 0.39352(11) -0.92072(10)
H1 H 0.3949 0.4040 -0.9534
N2 N 0.6753(2) 0.34398(11) -0.73676(10)
H2 H 0.6745 0.3640 -0.7761
N3 N 0.75677(18) 0.49230(10) -0.63918(10)
H3 H 0.7017 0.4938 -0.6803
N4 N 0.63470(17) 0.36237(10) -0.52209(10)
H4 H 0.6360 0.3462 -0.5628
N5 N 0.98601(16) 0.40633(10) -0.42708(9)
H5 H 0.9531 0.4244 -0.4683
N6 N 0.81802(17) 0.48296(10) -0.30145(9)
H6 H 0.7714 0.4638 -0.3395
N7 N 1.00062(17) 0.32900(10) -0.20116(9)
H7 H 1.0056 0.3372 -0.2435
C1 C 0.5714(3) 0.58248(18) -0.84905(18)
H8 H 0.4809 0.5851 -0.8541
H9 H 0.6093 0.6271 -0.8371
H10 H 0.6100 0.5504 -0.8121
C2 C 0.7313(3) 0.55117(17) -0.91310(18)
H11 H 0.7714 0.5957 -0.9079
H12 H 0.7390 0.5299 -0.9559
H13 H 0.7726 0.5229 -0.8732
C3 C 0.5296(4) 0.60625(17) -0.97572(19)
H14 H 0.4401 0.6101 -0.9784
H15 H 0.5389 0.5882 -1.0196
H16 H 0.5690 0.6509 -0.9672
C4 C 0.5930(3) 0.55904(14) -0.91664(15)
C5 C 0.5514(2) 0.44063(13) -0.89887(13)
C6 C 0.4771(2) 0.32535(13) -0.89259(12)
H17 H 0.5671 0.3170 -0.8694
H18 H 0.4506 0.2929 -0.9315
C7 C 0.4003(3) 0.31141(14) -0.84000(13)
C8 C 0.2598(3) 0.32591(17) -0.87318(14)
H19 H 0.2147 0.3219 -0.8370
H20 H 0.2504 0.3731 -0.8903
C9 C 0.1978(3) 0.2787(2) -0.93352(19)
H21 H 0.2340 0.2870 -0.9728
H22 H 0.1066 0.2883 -0.9496
C10 C 0.2180(4) 0.2045(2) -0.9113(2)
H23 H 0.1704 0.1944 -0.8773
H24 H 0.1847 0.1752 -0.9523
C11 C 0.3558(4) 0.18830(17) -0.87913(18)
H25 H 0.4013 0.1920 -0.9151
H26 H 0.3638 0.1412 -0.8620
C12 C 0.4166(3) 0.23609(15) -0.81855(14)
H27 H 0.5074 0.2256 -0.8013
H28 H 0.3783 0.2281 -0.7801
C13 C 0.4468(3) 0.35686(14) -0.77493(13)
H29 H 0.4606 0.4029 -0.7906
H30 H 0.3791 0.3598 -0.7515
C14 C 0.5670(3) 0.33407(14) -0.72154(12)
C15 C 0.7965(3) 0.32244(14) -0.68970(12)
H31 H 0.7951 0.3332 -0.6411
C16 C 0.8140(3) 0.24579(16) -0.69440(14)
H32 H 0.7379 0.2225 -0.6894
H33 H 0.8860 0.2311 -0.6556
C17 C 0.8379(3) 0.22495(17) -0.76444(16)
H34 H 0.8551 0.1759 -0.7640
H35 H 0.7617 0.2342 -0.8029
C18 C 0.9473(3) 0.26302(18) -0.77669(16)
H36 H 0.9569 0.2508 -0.8229
H37 H 1.0252 0.2495 -0.7412
C19 C 0.9304(3) 0.33882(18) -0.77338(13)
H38 H 0.8586 0.3530 -0.8125
H39 H 1.0068 0.3617 -0.7787
C20 C 0.9065(3) 0.36100(15) -0.70423(13)
H40 H 0.9833 0.3485 -0.6665
C21 C 0.8921(2) 0.43755(14) -0.70053(12)
H41 H 0.8200 0.4521 -0.7402
C22 C 1.0105(3) 0.47698(18) -0.70427(15)
H42 H 1.0822 0.4622 -0.6654
H43 H 1.0302 0.4649 -0.7481
C23 C 0.9991(3) 0.55290(18) -0.70107(18)
H44 H 0.9256 0.5680 -0.7378
H45 H 1.0750 0.5740 -0.7077
H46 H 0.9892 0.5659 -0.6557
C24 C 0.8633(2) 0.45671(13) -0.63248(12)
C25 C 0.7273(2) 0.52877(12) -0.58180(12)
H47 H 0.7690 0.5049 -0.5374
C26 C 0.7794(3) 0.60047(13) -0.57750(13)
H48 H 0.7661 0.6233 -0.5361
H49 H 0.8710 0.5986 -0.5720
C27 C 0.7161(3) 0.64121(13) -0.64236(13)
H50 H 0.7376 0.6214 -0.6830
H51 H 0.7479 0.6882 -0.6366
C28 C 0.5730(3) 0.64165(14) -0.65564(14)
H52 H 0.5512 0.6691 -0.6193
H53 H 0.5343 0.6634 -0.7011
C29 C 0.5176(2) 0.57079(13) -0.65574(13)
H54 H 0.5249 0.5460 -0.6974
H55 H 0.4272 0.5746 -0.6585
C30 C 0.5847(2) 0.53055(13) -0.59028(12)
H56 H 0.5725 0.5563 -0.5497
C31 C 0.5302(2) 0.45989(13) -0.58684(12)
H57 H 0.5453 0.4320 -0.6254
C32 C 0.3877(2) 0.46104(15) -0.59415(15)
H58 H 0.3722 0.4898 -0.5569
H59 H 0.3439 0.4820 -0.6392
C33 C 0.3312(2) 0.39130(16) -0.59016(14)
H60 H 0.3502 0.3616 -0.6251
H61 H 0.2399 0.3953 -0.5990
H62 H 0.3674 0.3722 -0.5438
C34 C 0.5968(2) 0.42631(12) -0.51745(12)
C35 C 0.6739(2) 0.31907(12) -0.46044(11)
H63 H 0.7129 0.3483 -0.4195
C36 C 0.5583(2) 0.28412(13) -0.44747(12)
H64 H 0.5836 0.2603 -0.4023
H65 H 0.4951 0.3187 -0.4450
C37 C 0.4996(2) 0.23388(13) -0.50449(13)
H66 H 0.4691 0.2579 -0.5494
H67 H 0.4268 0.2117 -0.4941
C38 C 0.5960(2) 0.18061(13) -0.51007(14)
H68 H 0.5577 0.1492 -0.5486
H69 H 0.6211 0.1542 -0.4665
C39 C 0.7126(2) 0.21349(12) -0.52330(12)
H70 H 0.6888 0.2355 -0.5695
H71 H 0.7754 0.1781 -0.5239
C40 C 0.7722(2) 0.26619(12) -0.46755(11)
H72 H 0.7986 0.2415 -0.4223
C41 C 0.8912(2) 0.30003(11) -0.47762(11)
H73 H 0.8664 0.3300 -0.5194
C42 C 0.9880(2) 0.24818(12) -0.48830(12)
H74 H 1.0112 0.2178 -0.4475
H75 H 0.9482 0.2203 -0.5295
C43 C 1.1076(2) 0.27993(13) -0.49832(14)
H76 H 1.0851 0.3138 -0.5354
H77 H 1.1595 0.2448 -0.5110
H78 H 1.1548 0.3016 -0.4550
C44 C 0.95451(19) 0.34302(11) -0.41433(11)
C45 C 1.0748(2) 0.44567(12) -0.37306(11)
H79 H 1.0620 0.4328 -0.3272
C46 C 1.2106(2) 0.42770(12) -0.37125(12)
H80 H 1.2687 0.4476 -0.3291
H81 H 1.2211 0.3781 -0.3684
C47 C 1.2455(2) 0.45355(13) -0.43557(13)
H82 H 1.3352 0.4438 -0.4307
H83 H 1.1947 0.4295 -0.4772
C48 C 1.2224(2) 0.52946(13) -0.44515(14)
H84 H 1.2394 0.5440 -0.4889
H85 H 1.2809 0.5539 -0.4063
C49 C 1.0871(2) 0.54749(13) -0.44731(13)
H86 H 1.0289 0.5269 -0.4890
H87 H 1.0763 0.5971 -0.4510
C50 C 1.0539(2) 0.52241(12) -0.38204(11)
H88 H 1.1161 0.5439 -0.3417
C51 C 0.9231(2) 0.54354(11) -0.37658(11)
H89 H 0.8565 0.5198 -0.4130
C52 C 0.9028(2) 0.62026(12) -0.38361(12)
H90 H 0.9714 0.6430 -0.3485
H91 H 0.9084 0.6345 -0.4300
C53 C 0.7774(2) 0.64380(14) -0.37454(14)
H92 H 0.7088 0.6202 -0.4079
H93 H 0.7686 0.6926 -0.3828
H94 H 0.7740 0.6338 -0.3272
C54 C 0.9139(2) 0.52361(12) -0.30439(11)
C55 C 0.7913(2) 0.47056(12) -0.23439(11)
H95 H 0.8730 0.4618 -0.1988
C56 C 0.7321(2) 0.53407(14) -0.21234(13)
H96 H 0.7239 0.5279 -0.1647
H97 H 0.7874 0.5734 -0.2119
C57 C 0.6032(2) 0.54742(14) -0.26222(14)
H98 H 0.5639 0.5865 -0.2455
H99 H 0.6125 0.5587 -0.3087
C58 C 0.5189(2) 0.48589(16) -0.26777(16)
H100 H 0.4380 0.4948 -0.3029
H101 H 0.5008 0.4786 -0.2226
C59 C 0.5766(2) 0.42184(14) -0.28775(14)
H102 H 0.5846 0.4264 -0.3356
H103 H 0.5207 0.3830 -0.2870
C60 C 0.7069(2) 0.40862(13) -0.23717(12)
H104 H 0.6934 0.4046 -0.1900
C61 C 0.7733(2) 0.34290(13) -0.24887(11)
H105 H 0.8000 0.3472 -0.2925
C62 C 0.6901(2) 0.27966(14) -0.25395(13)
H106 H 0.6662 0.2743 -0.2101
H107 H 0.6120 0.2858 -0.2921
C63 C 0.7570(3) 0.21597(14) -0.26734(15)
H108 H 0.7826 0.2215 -0.3101
H109 H 0.6999 0.1773 -0.2723
H110 H 0.8315 0.2081 -0.2282
C64 C 0.8889(2) 0.33246(12) -0.18783(11)
C65 C 1.1152(2) 0.31173(12) -0.14651(12)
H111 H 1.0967 0.3172 -0.1007
C66 C 1.1496(3) 0.23763(14) -0.15337(13)
H112 H 1.0757 0.2089 -0.1550
H113 H 1.2178 0.2244 -0.1120
C67 C 1.1925(3) 0.22554(15) -0.21894(14)
H114 H 1.2183 0.1778 -0.2204
H115 H 1.1217 0.2344 -0.2606
C68 C 1.3024(3) 0.27172(16) -0.21944(15)
H116 H 1.3251 0.2654 -0.2635
H117 H 1.3761 0.2591 -0.1807
C69 C 1.2707(2) 0.34580(15) -0.21211(12)
H118 H 1.2040 0.3599 -0.2538
H119 H 1.3461 0.3737 -0.2095
C70 C 1.2259(2) 0.35857(13) -0.14706(12)
H120 H 1.2970 0.3466 -0.1058
C71 C 1.1928(2) 0.43299(12) -0.13894(12)
H121 H 1.1204 0.4458 -0.1792
C72 C 1.3012(2) 0.48253(15) -0.13516(14)
H122 H 1.3736 0.4697 -0.0958
H123 H 1.3278 0.4787 -0.1783
C73 C 1.2661(3) 0.55580(16) -0.12604(17)
H124 H 1.1897 0.5676 -0.1624
H125 H 1.3350 0.5855 -0.1294
H126 H 1.2511 0.5614 -0.0804
C74 C 1.1522(2) 0.43907(12) -0.07294(12)
C75 C 0.9874(3) 0.46665(16) -0.02382(15)
H127 H 1.0140 0.4269 0.0067
H128 H 0.8944 0.4681 -0.0382
C76 C 1.0381(2) 0.52989(9) 0.01547(10)
C77 C 1.0401(2) 0.59007(11) -0.01990(9)
H129 H 1.0091 0.5914 -0.0691
C78 C 1.0875(3) 0.64834(9) 0.01670(13)
H130 H 1.0889 0.6895 -0.0075
C79 C 1.1329(3) 0.64643(11) 0.08868(13)
H131 H 1.1653 0.6863 0.1137
C80 C 1.1308(3) 0.58625(14) 0.12406(8)
H132 H 1.1618 0.5849 0.1733
C81 C 1.0834(3) 0.52798(10) 0.08746(10)
H133 H 1.0820 0.4869 0.1116
Cl1 Cl 0.60375(10) 0.25886(6) -1.05013(6)
Cl2 Cl 0.79695(8) 0.33382(6) -0.95411(4)
Cl3 Cl 0.61235(10) 0.40361(6) -1.06067(5)
C82 C 0.7020(3) 0.32963(19) -1.03951(14)
H134 H 0.7571 0.3253 -1.0713
loop_
_geom_bond_atom_site_label_1
_geom_bond_atom_site_label_2
_geom_bond_site_symmetry_1
_geom_bond_site_symmetry_2
O1 C4 1_555 1_555
O2 C5 1_555 1_555
O3 C14 1_555 1_555
O4 C24 1_555 1_555
O5 C34 1_555 1_555
O6 C44 1_555 1_555
O7 C54 1_555 1_555
O8 C64 1_555 1_555
O9 C74 1_555 1_555
O10 C74 1_555 1_555
N1 H1 1_555 1_555
N2 H2 1_555 1_555
N3 H3 1_555 1_555
N4 H4 1_555 1_555
N5 H5 1_555 1_555
N6 H6 1_555 1_555
N7 H7 1_555 1_555
C1 H8 1_555 1_555
H9 C1 1_555 1_555
H10 C1 1_555 1_555
C2 H11 1_555 1_555
H12 C2 1_555 1_555
H13 C2 1_555 1_555
C3 H14 1_555 1_555
H15 C3 1_555 1_555
H16 C3 1_555 1_555
C4 C1 1_555 1_555
C5 O1 1_555 1_555
C6 N1 1_555 1_555
H17 C6 1_555 1_555
H18 C6 1_555 1_555
C7 C6 1_555 1_555
C8 C7 1_555 1_555
H19 C8 1_555 1_555
H20 C8 1_555 1_555
C9 C8 1_555 1_555
H21 C9 1_555 1_555
H22 C9 1_555 1_555
C10 C9 1_555 1_555
H23 C10 1_555 1_555
H24 C10 1_555 1_555
C11 C10 1_555 1_555
H25 C11 1_555 1_555
H26 C11 1_555 1_555
C12 C7 1_555 1_555
H27 C12 1_555 1_555
H28 C12 1_555 1_555
C13 C7 1_555 1_555
H29 C13 1_555 1_555
H30 C13 1_555 1_555
C14 N2 1_555 1_555
C15 N2 1_555 1_555
H31 C15 1_555 1_555
C16 C15 1_555 1_555
H32 C16 1_555 1_555
H33 C16 1_555 1_555
C17 C16 1_555 1_555
H34 C17 1_555 1_555
H35 C17 1_555 1_555
C18 C17 1_555 1_555
H36 C18 1_555 1_555
H37 C18 1_555 1_555
C19 C18 1_555 1_555
H38 C19 1_555 1_555
H39 C19 1_555 1_555
C20 C15 1_555 1_555
H40 C20 1_555 1_555
C21 C20 1_555 1_555
H41 C21 1_555 1_555
C22 C21 1_555 1_555
H42 C22 1_555 1_555
H43 C22 1_555 1_555
C23 C22 1_555 1_555
H44 C23 1_555 1_555
H45 C23 1_555 1_555
H46 C23 1_555 1_555
C24 N3 1_555 1_555
C25 N3 1_555 1_555
H47 C25 1_555 1_555
C26 C25 1_555 1_555
H48 C26 1_555 1_555
H49 C26 1_555 1_555
C27 C26 1_555 1_555
H50 C27 1_555 1_555
H51 C27 1_555 1_555
C28 C27 1_555 1_555
H52 C28 1_555 1_555
H53 C28 1_555 1_555
C29 C28 1_555 1_555
H54 C29 1_555 1_555
H55 C29 1_555 1_555
C30 C25 1_555 1_555
H56 C30 1_555 1_555
C31 C30 1_555 1_555
H57 C31 1_555 1_555
C32 C31 1_555 1_555
H58 C32 1_555 1_555
H59 C32 1_555 1_555
C33 C32 1_555 1_555
H60 C33 1_555 1_555
H61 C33 1_555 1_555
H62 C33 1_555 1_555
C34 N4 1_555 1_555
C35 N4 1_555 1_555
H63 C35 1_555 1_555
C36 C35 1_555 1_555
H64 C36 1_555 1_555
H65 C36 1_555 1_555
C37 C36 1_555 1_555
H66 C37 1_555 1_555
H67 C37 1_555 1_555
C38 C37 1_555 1_555
H68 C38 1_555 1_555
H69 C38 1_555 1_555
C39 C38 1_555 1_555
H70 C39 1_555 1_555
H71 C39 1_555 1_555
C40 C35 1_555 1_555
H72 C40 1_555 1_555
C41 C40 1_555 1_555
H73 C41 1_555 1_555
C42 C41 1_555 1_555
H74 C42 1_555 1_555
H75 C42 1_555 1_555
C43 C42 1_555 1_555
H76 C43 1_555 1_555
H77 C43 1_555 1_555
H78 C43 1_555 1_555
C44 N5 1_555 1_555
C45 N5 1_555 1_555
H79 C45 1_555 1_555
C46 C45 1_555 1_555
H80 C46 1_555 1_555
H81 C46 1_555 1_555
C47 C46 1_555 1_555
H82 C47 1_555 1_555
H83 C47 1_555 1_555
C48 C47 1_555 1_555
H84 C48 1_555 1_555
H85 C48 1_555 1_555
C49 C48 1_555 1_555
H86 C49 1_555 1_555
H87 C49 1_555 1_555
C50 C45 1_555 1_555
H88 C50 1_555 1_555
C51 C50 1_555 1_555
H89 C51 1_555 1_555
C52 C51 1_555 1_555
H90 C52 1_555 1_555
H91 C52 1_555 1_555
C53 C52 1_555 1_555
H92 C53 1_555 1_555
H93 C53 1_555 1_555
H94 C53 1_555 1_555
C54 N6 1_555 1_555
C55 N6 1_555 1_555
H95 C55 1_555 1_555
C56 C55 1_555 1_555
H96 C56 1_555 1_555
H97 C56 1_555 1_555
C57 C56 1_555 1_555
H98 C57 1_555 1_555
H99 C57 1_555 1_555
C58 C57 1_555 1_555
H100 C58 1_555 1_555
H101 C58 1_555 1_555
C59 C58 1_555 1_555
H102 C59 1_555 1_555
H103 C59 1_555 1_555
C60 C55 1_555 1_555
H104 C60 1_555 1_555
C61 C60 1_555 1_555
H105 C61 1_555 1_555
C62 C61 1_555 1_555
H106 C62 1_555 1_555
H107 C62 1_555 1_555
C63 C62 1_555 1_555
H108 C63 1_555 1_555
H109 C63 1_555 1_555
H110 C63 1_555 1_555
C64 N7 1_555 1_555
C65 N7 1_555 1_555
H111 C65 1_555 1_555
C66 C65 1_555 1_555
H112 C66 1_555 1_555
H113 C66 1_555 1_555
C67 C66 1_555 1_555
H114 C67 1_555 1_555
H115 C67 1_555 1_555
C68 C67 1_555 1_555
H116 C68 1_555 1_555
H117 C68 1_555 1_555
C69 C68 1_555 1_555
H118 C69 1_555 1_555
H119 C69 1_555 1_555
C70 C65 1_555 1_555
H120 C70 1_555 1_555
C71 C70 1_555 1_555
H121 C71 1_555 1_555
C72 C71 1_555 1_555
H122 C72 1_555 1_555
H123 C72 1_555 1_555
C73 C72 1_555 1_555
H124 C73 1_555 1_555
H125 C73 1_555 1_555
H126 C73 1_555 1_555
C74 C71 1_555 1_555
C75 O10 1_555 1_555
H127 C75 1_555 1_555
H128 C75 1_555 1_555
C76 C75 1_555 1_555
C77 C76 1_555 1_555
H129 C77 1_555 1_555
C78 C77 1_555 1_555
H130 C78 1_555 1_555
C79 C78 1_555 1_555
H131 C79 1_555 1_555
C80 C79 1_555 1_555
H132 C80 1_555 1_555
C81 C76 1_555 1_555
H133 C81 1_555 1_555
Cl1 C82 1_555 1_555
Cl2 C82 1_555 1_555
Cl3 C82 1_555 1_555
C82 H134 1_555 1_555
N1 C5 1_555 1_555
C2 C4 1_555 1_555
C3 C4 1_555 1_555
C11 C12 1_555 1_555
C13 C14 1_555 1_555
C19 C20 1_555 1_555
C21 C24 1_555 1_555
C29 C30 1_555 1_555
C31 C34 1_555 1_555
C39 C40 1_555 1_555
C41 C44 1_555 1_555
C49 C50 1_555 1_555
C51 C54 1_555 1_555
C59 C60 1_555 1_555
C61 C64 1_555 1_555
C69 C70 1_555 1_555
C80 C81 1_555 1_555

#END
