
#######################################################################
#
#                 Cambridge Crystallographic Data Centre
#                                CCDC 
#
#######################################################################
#
# If this CIF has been generated from an entry in the Cambridge 
# Structural Database, then it will include bibliographic, chemical, 
# crystal, experimental, refinement or atomic coordinate data resulting 
# from the CCDC's data processing and validation procedures.
#
#######################################################################

data_ISOPEM
_chemical_formula_moiety         'C44 H32 P1 1+,2(C1 H4 O1),Br1 1-'
_chemical_name_systematic        
"4,4',5,5'-tetrahydro-4,4'-spiro-bi(3H-dinaphtho[2,1-c:1',2'-e]phosphepin)-4-ium bromide methanol solvate"
_symmetry_cell_setting           orthorhombic
_symmetry_space_group_name_H-M   'P 21 21 21'
_symmetry_Int_Tables_number      19
_space_group_name_Hall           'P 2ac 2ab'
loop_
_symmetry_equiv_pos_site_id
_symmetry_equiv_pos_as_xyz
1 x,y,z
2 1/2-x,-y,1/2+z
3 -x,1/2+y,1/2-z
4 1/2+x,1/2-y,-z
_cell_length_a                   9.5825(19)
_cell_length_b                   17.905(4)
_cell_length_c                   20.608(4)
_cell_angle_alpha                90
_cell_angle_beta                 90
_cell_angle_gamma                90
_cell_volume                     3535.81
_cell_formula_units_Z            4
loop_
_atom_site_label
_atom_site_type_symbol
_atom_site_fract_x
_atom_site_fract_y
_atom_site_fract_z
Br1 Br 0.55953(4) 0.478384(19) 0.198348(18)
P1 P 0.14825(9) 0.80617(5) 0.32303(4)
C1 C 0.0671(3) 0.71591(16) 0.31028(14)
H1 H 0.0982 0.6814 0.3435
H2 H -0.0334 0.7208 0.3138
C2 C 0.1046(3) 0.68544(17) 0.24397(15)
C3 C 0.2037(3) 0.62769(18) 0.23852(17)
H3 H 0.2428 0.6069 0.2757
C4 C 0.2426(4) 0.60195(19) 0.17833(18)
H4 H 0.3068 0.5632 0.1752
C5 C 0.1871(4) 0.63317(19) 0.12159(18)
C6 C 0.2313(4) 0.6106(2) 0.05867(19)
H5 H 0.2963 0.5722 0.0549
C7 C 0.1826(5) 0.6427(2) 0.0048(2)
H6 H 0.2148 0.6273 -0.0356
C8 C 0.0816(5) 0.7005(2) 0.00907(17)
H7 H 0.0470 0.7223 -0.0286
C9 C 0.0346(4) 0.72435(18) 0.06854(15)
H8 H -0.0317 0.7622 0.0708
C10 C 0.0863(3) 0.69183(17) 0.12641(16)
C11 C 0.0452(3) 0.71736(15) 0.18945(14)
C12 C -0.0574(3) 0.78020(15) 0.19687(14)
C13 C -0.2022(3) 0.77004(17) 0.18159(13)
C14 C -0.2567(4) 0.69965(18) 0.16403(15)
H9 H -0.1968 0.6592 0.1587
C15 C -0.3976(4) 0.69051(19) 0.15481(15)
H10 H -0.4322 0.6440 0.1428
C16 C -0.4896(4) 0.75040(19) 0.16333(16)
H11 H -0.5850 0.7432 0.1580
C17 C -0.4397(4) 0.81941(18) 0.17951(15)
H12 H -0.5015 0.8591 0.1841
C18 C -0.2948(3) 0.83125(17) 0.18944(14)
C19 C -0.2427(4) 0.90111(17) 0.21067(14)
H13 H -0.3019 0.9422 0.2128
C20 C -0.1054(3) 0.90836(18) 0.22813(15)
H14 H -0.0734 0.9537 0.2444
C21 C -0.0118(3) 0.84792(17) 0.22168(14)
C22 C 0.1366(3) 0.85633(18) 0.24658(14)
H15 H 0.1586 0.9087 0.2530
H16 H 0.2022 0.8357 0.2155
C23 C 0.0527(3) 0.85270(18) 0.38719(14)
H17 H -0.0273 0.8779 0.3684
H18 H 0.0180 0.8154 0.4172
C24 C 0.1382(3) 0.90875(18) 0.42427(15)
C25 C 0.1036(4) 0.9851(2) 0.41888(16)
H19 H 0.0298 0.9998 0.3925
C26 C 0.1788(4) 1.03774(19) 0.45248(16)
H20 H 0.1530 1.0877 0.4501
C27 C 0.2941(4) 1.01683(19) 0.49028(15)
C28 C 0.3761(4) 1.0708(2) 0.52429(17)
H21 H 0.3522 1.1210 0.5215
C29 C 0.4874(4) 1.0506(2) 0.56029(17)
H22 H 0.5382 1.0868 0.5824
C30 C 0.5274(4) 0.9747(2) 0.56478(16)
H23 H 0.6050 0.9612 0.5892
C31 C 0.4505(4) 0.92097(18) 0.53270(15)
H24 H 0.4775 0.8712 0.5355
C32 C 0.3310(4) 0.94015(18) 0.49549(15)
C33 C 0.2477(3) 0.88534(17) 0.46328(15)
C34 C 0.2740(3) 0.80362(17) 0.47072(14)
C35 C 0.2427(3) 0.76695(18) 0.53145(15)
C36 C 0.1977(3) 0.8064(2) 0.58750(15)
H25 H 0.1935 0.8583 0.5866
C37 C 0.1602(3) 0.7690(2) 0.64314(16)
H26 H 0.1331 0.7957 0.6797
C38 C 0.1626(3) 0.6911(2) 0.64503(16)
H27 H 0.1347 0.6662 0.6824
C39 C 0.2057(3) 0.6512(2) 0.59211(16)
H28 H 0.2058 0.5993 0.5938
C40 C 0.2502(3) 0.68759(18) 0.53488(15)
C41 C 0.3011(3) 0.64695(18) 0.48094(16)
H29 H 0.3139 0.5956 0.4842
C42 C 0.3314(3) 0.68262(18) 0.42416(15)
H30 H 0.3641 0.6552 0.3890
C43 C 0.3140(3) 0.76037(17) 0.41817(14)
C44 C 0.3231(3) 0.79480(18) 0.35083(14)
H31 H 0.3746 0.7623 0.3218
H32 H 0.3701 0.8427 0.3527
O1 O 0.8704(3) 0.53721(15) 0.22236(13)
H33 H 0.7942 0.5305 0.2052
C45 C 0.8512(4) 0.5593(2) 0.28652(17)
H34 H 0.9400 0.5704 0.3057
H35 H 0.8070 0.5197 0.3103
H36 H 0.7932 0.6030 0.2878
O2 O 0.4778(3) 0.55587(15) 0.33692(13)
H37 H 0.5241 0.5463 0.3045
C46 C 0.5182(4) 0.5086(2) 0.38776(18)
H38 H 0.6073 0.4869 0.3780
H39 H 0.4501 0.4697 0.3929
H40 H 0.5247 0.5369 0.4272
loop_
_geom_bond_atom_site_label_1
_geom_bond_atom_site_label_2
_geom_bond_site_symmetry_1
_geom_bond_site_symmetry_2
P1 C1 1_555 1_555
C1 H1 1_555 1_555
H2 C1 1_555 1_555
C2 C1 1_555 1_555
C3 C2 1_555 1_555
H3 C3 1_555 1_555
C4 C3 1_555 1_555
H4 C4 1_555 1_555
C5 C4 1_555 1_555
C6 C5 1_555 1_555
H5 C6 1_555 1_555
C7 C6 1_555 1_555
H6 C7 1_555 1_555
C8 C7 1_555 1_555
H7 C8 1_555 1_555
C9 C8 1_555 1_555
H8 C9 1_555 1_555
C10 C5 1_555 1_555
C11 C2 1_555 1_555
C12 C11 1_555 1_555
C13 C12 1_555 1_555
C14 C13 1_555 1_555
H9 C14 1_555 1_555
C15 C14 1_555 1_555
H10 C15 1_555 1_555
C16 C15 1_555 1_555
H11 C16 1_555 1_555
C17 C16 1_555 1_555
H12 C17 1_555 1_555
C18 C13 1_555 1_555
C19 C18 1_555 1_555
H13 C19 1_555 1_555
C20 C19 1_555 1_555
H14 C20 1_555 1_555
C21 C12 1_555 1_555
C22 P1 1_555 1_555
H15 C22 1_555 1_555
H16 C22 1_555 1_555
C23 P1 1_555 1_555
H17 C23 1_555 1_555
H18 C23 1_555 1_555
C24 C23 1_555 1_555
C25 C24 1_555 1_555
H19 C25 1_555 1_555
C26 C25 1_555 1_555
H20 C26 1_555 1_555
C27 C26 1_555 1_555
C28 C27 1_555 1_555
H21 C28 1_555 1_555
C29 C28 1_555 1_555
H22 C29 1_555 1_555
C30 C29 1_555 1_555
H23 C30 1_555 1_555
C31 C30 1_555 1_555
H24 C31 1_555 1_555
C32 C27 1_555 1_555
C33 C24 1_555 1_555
C34 C33 1_555 1_555
C35 C34 1_555 1_555
C36 C35 1_555 1_555
H25 C36 1_555 1_555
C37 C36 1_555 1_555
H26 C37 1_555 1_555
C38 C37 1_555 1_555
H27 C38 1_555 1_555
C39 C38 1_555 1_555
H28 C39 1_555 1_555
C40 C35 1_555 1_555
C41 C40 1_555 1_555
H29 C41 1_555 1_555
C42 C41 1_555 1_555
H30 C42 1_555 1_555
C43 C34 1_555 1_555
C44 P1 1_555 1_555
H31 C44 1_555 1_555
H32 C44 1_555 1_555
O1 H33 1_555 1_555
C45 O1 1_555 1_555
H34 C45 1_555 1_555
H35 C45 1_555 1_555
H36 C45 1_555 1_555
O2 H37 1_555 1_555
C46 O2 1_555 1_555
H38 C46 1_555 1_555
H39 C46 1_555 1_555
H40 C46 1_555 1_555
C9 C10 1_555 1_555
C10 C11 1_555 1_555
C17 C18 1_555 1_555
C20 C21 1_555 1_555
C21 C22 1_555 1_555
C31 C32 1_555 1_555
C32 C33 1_555 1_555
C39 C40 1_555 1_555
C42 C43 1_555 1_555
C43 C44 1_555 1_555

#END
