
#######################################################################
#
#                 Cambridge Crystallographic Data Centre
#                                CCDC 
#
#######################################################################
#
# If this CIF has been generated from an entry in the Cambridge 
# Structural Database, then it will include bibliographic, chemical, 
# crystal, experimental, refinement or atomic coordinate data resulting 
# from the CCDC's data processing and validation procedures.
#
#######################################################################

data_ISOROY
_chemical_formula_moiety         'C20 H24 O4'
_chemical_name_systematic        
'Methyl 5-methoxy-6-methyl-5,6,6a,6b,8,9,10,11a-octahydrobenzo[4,5]indeno[1,2-b]pyran-11-carboxylate'
_symmetry_cell_setting           orthorhombic
_symmetry_space_group_name_H-M   'P 21 21 21'
_symmetry_Int_Tables_number      19
_space_group_name_Hall           'P 2ac 2ab'
loop_
_symmetry_equiv_pos_site_id
_symmetry_equiv_pos_as_xyz
1 x,y,z
2 1/2-x,-y,1/2+z
3 -x,1/2+y,1/2-z
4 1/2+x,1/2-y,-z
_cell_length_a                   8.5499(5)
_cell_length_b                   10.8106(6)
_cell_length_c                   18.4340(10)
_cell_angle_alpha                90
_cell_angle_beta                 90
_cell_angle_gamma                90
_cell_volume                     1703.85
_exptl_crystal_colour            colorless
_exptl_crystal_description       block
_cell_formula_units_Z            4
_exptl_crystal_recrystallization_method dichloromethane/hexane
loop_
_atom_site_label
_atom_site_type_symbol
_atom_site_fract_x
_atom_site_fract_y
_atom_site_fract_z
O1 O 1.18194(14) 1.25910(9) -0.10840(6)
O2 O 1.26229(13) 1.07009(9) -0.14183(5)
O3 O 0.60667(11) 0.85628(8) 0.03956(6)
O4 O 1.16148(13) 1.03812(9) 0.14644(5)
C1 C 1.12433(16) 1.08510(11) -0.03297(7)
C2 C 1.06944(15) 0.95089(11) -0.03344(7)
H1 H 1.152(2) 0.8938(14) -0.0502(9)
C3 C 0.92968(16) 0.93124(11) -0.08286(7)
C4 C 0.9541(2) 0.92078(13) -0.15763(7)
H2 H 1.059(2) 0.9179(17) -0.1728(10)
C5 C 0.8293(2) 0.91041(15) -0.20543(8)
H3 H 0.846(3) 0.9058(19) -0.2566(12)
C6 C 0.6786(2) 0.90970(15) -0.17878(8)
H4 H 0.582(2) 0.9080(15) -0.2082(9)
C7 C 0.65265(18) 0.91488(12) -0.10457(8)
H5 H 0.542(2) 0.9111(15) -0.0868(9)
C8 C 0.77747(16) 0.92487(10) -0.05617(7)
C9 C 0.74821(15) 0.92133(10) 0.02501(7)
H6 H 0.741(2) 1.0093(13) 0.0445(9)
C10 C 0.88388(16) 0.85612(11) 0.06281(7)
H7 H 0.8909(17) 0.7766(13) 0.0410(8)
C11 C 1.03748(16) 0.92413(11) 0.04854(6)
H8 H 1.1212(18) 0.8691(13) 0.0645(8)
C12 C 1.05238(16) 1.04951(11) 0.08771(7)
H9 H 0.9507(18) 1.0833(14) 0.1034(9)
C13 C 1.1938(2) 1.15567(14) 0.17877(8)
H10 H 1.271(2) 1.1337(18) 0.2197(10)
H11 H 1.094(2) 1.1915(15) 0.1975(9)
C14 C 1.2673(2) 1.24500(13) 0.12592(8)
H12 H 1.282(2) 1.3243(17) 0.1495(9)
H13 H 1.364(2) 1.2120(17) 0.1066(10)
C15 C 1.1641(2) 1.26261(12) 0.05855(8)
H14 H 1.212(2) 1.3092(15) 0.0203(9)
H15 H 1.070(2) 1.3135(16) 0.0719(9)
C16 C 1.11337(16) 1.13815(11) 0.03200(7)
C17 C 1.18970(17) 1.14945(12) -0.09700(7)
C18 C 1.3197(3) 1.12258(18) -0.20854(9)
H16 H 1.222(3) 1.139(2) -0.2373(13)
H17 H 1.384(4) 1.200(2) -0.1989(13)
H18 H 1.376(3) 1.057(3) -0.2321(13)
C19 C 0.4892(2) 0.92596(18) 0.07459(11)
H19 H 0.452(3) 0.988(2) 0.0404(13)
H20 H 0.517(3) 0.973(2) 0.1138(14)
H21 H 0.405(3) 0.8723(19) 0.0866(12)
C20 C 0.85421(19) 0.83783(13) 0.14384(8)
H22 H 0.759(2) 0.7902(17) 0.1537(10)
H23 H 0.946(2) 0.7959(17) 0.1648(10)
H24 H 0.838(2) 0.9168(14) 0.1667(8)
loop_
_geom_bond_atom_site_label_1
_geom_bond_atom_site_label_2
_geom_bond_site_symmetry_1
_geom_bond_site_symmetry_2
O1 C17 1_555 1_555
O2 C17 1_555 1_555
O3 C9 1_555 1_555
O4 C12 1_555 1_555
C1 C2 1_555 1_555
C2 H1 1_555 1_555
C3 C2 1_555 1_555
C4 C3 1_555 1_555
H2 C4 1_555 1_555
C5 C4 1_555 1_555
H3 C5 1_555 1_555
C6 C5 1_555 1_555
H4 C6 1_555 1_555
C7 C6 1_555 1_555
H5 C7 1_555 1_555
C8 C3 1_555 1_555
C9 C8 1_555 1_555
H6 C9 1_555 1_555
C10 C9 1_555 1_555
H7 C10 1_555 1_555
C11 C2 1_555 1_555
H8 C11 1_555 1_555
C12 C11 1_555 1_555
H9 C12 1_555 1_555
C13 O4 1_555 1_555
H10 C13 1_555 1_555
H11 C13 1_555 1_555
C14 C13 1_555 1_555
H12 C14 1_555 1_555
H13 C14 1_555 1_555
C15 C14 1_555 1_555
H14 C15 1_555 1_555
H15 C15 1_555 1_555
C16 C1 1_555 1_555
C17 C1 1_555 1_555
C18 O2 1_555 1_555
H16 C18 1_555 1_555
H17 C18 1_555 1_555
H18 C18 1_555 1_555
C19 O3 1_555 1_555
H19 C19 1_555 1_555
H20 C19 1_555 1_555
H21 C19 1_555 1_555
C20 C10 1_555 1_555
H22 C20 1_555 1_555
H23 C20 1_555 1_555
H24 C20 1_555 1_555
C7 C8 1_555 1_555
C10 C11 1_555 1_555
C12 C16 1_555 1_555
C15 C16 1_555 1_555

#END
