
#######################################################################
#
#                 Cambridge Crystallographic Data Centre
#                                CCDC 
#
#######################################################################
#
# If this CIF has been generated from an entry in the Cambridge 
# Structural Database, then it will include bibliographic, chemical, 
# crystal, experimental, refinement or atomic coordinate data resulting 
# from the CCDC's data processing and validation procedures.
#
#######################################################################

data_ISOSIT
_chemical_formula_moiety         'C23 H23 N1 O3'
_chemical_name_systematic        
'5-Methoxy-6,7-dimethyl-5,6,6a,7,12,12a-hexahydrobenzo[4,5]indeno[1,2-b]indole-12-carboxylic acid'
_symmetry_cell_setting           orthorhombic
_symmetry_space_group_name_H-M   'P 21 21 21'
_symmetry_Int_Tables_number      19
_space_group_name_Hall           'P 2ac 2ab'
loop_
_symmetry_equiv_pos_site_id
_symmetry_equiv_pos_as_xyz
1 x,y,z
2 1/2-x,-y,1/2+z
3 -x,1/2+y,1/2-z
4 1/2+x,1/2-y,-z
_cell_length_a                   9.3971(6)
_cell_length_b                   11.6519(9)
_cell_length_c                   16.5438(11)
_cell_angle_alpha                90
_cell_angle_beta                 90
_cell_angle_gamma                90
_cell_volume                     1811.45
_exptl_crystal_colour            'light yellow'
_exptl_crystal_description       rod
_cell_formula_units_Z            4
loop_
_atom_site_label
_atom_site_type_symbol
_atom_site_fract_x
_atom_site_fract_y
_atom_site_fract_z
O1 O 0.84658(15) 0.61813(12) 0.30152(8)
O2 O 0.4351(2) 0.13274(18) 0.22730(15)
O3 O 0.3869(2) 0.30758(16) 0.27212(12)
C1 C 0.4711(3) 0.2345(2) 0.25653(15)
H1 H 0.341(4) 0.132(3) 0.2264(18)
N1 N 0.76383(18) 0.24582(15) 0.47517(9)
C2 C 0.9306(2) 0.51793(17) 0.28486(12)
H2 H 1.0342(19) 0.5419(15) 0.2822(10)
C3 C 0.8858(2) 0.47338(17) 0.20343(12)
C4 C 0.9633(2) 0.50074(18) 0.13491(13)
H3 H 1.049(2) 0.5509(19) 0.1416(13)
C5 C 0.9249(2) 0.4595(2) 0.06002(13)
H4 H 0.980(2) 0.4710(19) 0.0103(13)
C6 C 0.8060(2) 0.3901(2) 0.05335(13)
H5 H 0.776(3) 0.365(2) -0.0045(14)
C7 C 0.7292(2) 0.36125(18) 0.12150(12)
H6 H 0.649(2) 0.3124(17) 0.1170(11)
C8 C 0.7672(2) 0.40100(17) 0.19795(11)
C9 C 0.6816(2) 0.36731(18) 0.27189(12)
H7 H 0.593(2) 0.4106(16) 0.2684(11)
C10 C 0.6361(2) 0.2386(2) 0.27120(13)
H8 H 0.693(2) 0.1924(17) 0.2354(11)
C11 C 0.6706(2) 0.19864(17) 0.35503(12)
C12 C 0.6694(2) 0.09727(18) 0.40350(12)
C13 C 0.6256(2) -0.0161(2) 0.39291(13)
H9 H 0.588(2) -0.039(2) 0.3388(14)
C14 C 0.6444(3) -0.0927(2) 0.45564(15)
H10 H 0.609(3) -0.167(2) 0.4480(13)
C15 C 0.7076(2) -0.0589(2) 0.52868(14)
H11 H 0.728(2) -0.111(2) 0.5729(13)
C16 C 0.7515(2) 0.0527(2) 0.54133(13)
H12 H 0.797(2) 0.0748(18) 0.5925(12)
C17 C 0.7301(2) 0.12960(18) 0.47886(12)
C18 C 0.7291(2) 0.28412(18) 0.39912(11)
C19 C 0.7540(2) 0.39400(17) 0.35546(12)
H13 H 0.703(2) 0.4563(17) 0.3811(10)
C20 C 0.9133(2) 0.42597(18) 0.34981(12)
H14 H 0.944(2) 0.4597(19) 0.4019(12)
C21 C 0.9072(3) 0.69300(19) 0.36031(14)
H15 H 1.0033(14) 0.7155(19) 0.3438(13)
H16 H 0.8446(19) 0.7582(14) 0.3630(13)
H17 H 0.913(3) 0.6544(17) 0.4131(9)
C22 C 0.8365(3) 0.3087(2) 0.53868(13)
H18 H 0.794(3) 0.295(3) 0.5920(10)
H19 H 0.837(3) 0.3906(11) 0.5284(15)
H20 H 0.9337(16) 0.279(2) 0.5459(15)
C23 C 1.0079(2) 0.32245(18) 0.33176(13)
H21 H 1.018(2) 0.2788(16) 0.3822(8)
H22 H 1.1008(15) 0.3524(17) 0.3144(12)
H23 H 0.9686(19) 0.2764(15) 0.2874(9)
C24? C 0.5182(10) 0.1757(8) 0.2262(5)
H24? H 0.3633 0.2580 0.2423
O4? O 0.4082(8) 0.2072(7) 0.2678(4)
O5? O 0.5155(8) 0.1238(7) 0.1641(4)
loop_
_geom_bond_atom_site_label_1
_geom_bond_atom_site_label_2
_geom_bond_site_symmetry_1
_geom_bond_site_symmetry_2
O1 C2 1_555 1_555
O2 C1 1_555 1_555
O3 C1 1_555 1_555
C1 C10 1_555 1_555
H1 O2 1_555 1_555
N1 C17 1_555 1_555
C2 H2 1_555 1_555
C3 C2 1_555 1_555
C4 C3 1_555 1_555
H3 C4 1_555 1_555
C5 C4 1_555 1_555
H4 C5 1_555 1_555
C6 C5 1_555 1_555
H5 C6 1_555 1_555
C7 C6 1_555 1_555
H6 C7 1_555 1_555
C8 C3 1_555 1_555
C9 C8 1_555 1_555
H7 C9 1_555 1_555
C10 C9 1_555 1_555
H8 C10 1_555 1_555
C11 C10 1_555 1_555
C12 C11 1_555 1_555
C13 C12 1_555 1_555
H9 C13 1_555 1_555
C14 C13 1_555 1_555
H10 C14 1_555 1_555
C15 C14 1_555 1_555
H11 C15 1_555 1_555
C16 C15 1_555 1_555
H12 C16 1_555 1_555
C17 C12 1_555 1_555
C18 N1 1_555 1_555
C19 C9 1_555 1_555
H13 C19 1_555 1_555
C20 C2 1_555 1_555
H14 C20 1_555 1_555
C21 O1 1_555 1_555
H15 C21 1_555 1_555
H16 C21 1_555 1_555
H17 C21 1_555 1_555
C22 N1 1_555 1_555
H18 C22 1_555 1_555
H19 C22 1_555 1_555
H20 C22 1_555 1_555
C23 C20 1_555 1_555
H21 C23 1_555 1_555
H22 C23 1_555 1_555
H23 C23 1_555 1_555
C7 C8 1_555 1_555
C11 C18 1_555 1_555
C16 C17 1_555 1_555
C18 C19 1_555 1_555
C19 C20 1_555 1_555

#END
