
#######################################################################
#
#                 Cambridge Crystallographic Data Centre
#                                CCDC 
#
#######################################################################
#
# If this CIF has been generated from an entry in the Cambridge 
# Structural Database, then it will include bibliographic, chemical, 
# crystal, experimental, refinement or atomic coordinate data resulting 
# from the CCDC's data processing and validation procedures.
#
#######################################################################

data_ISOSAL
_chemical_formula_moiety         'C22 H21 Br1 O4'
_chemical_name_systematic        
'1-(1-(2-Bromophenyl)-1-methoxypropan-2-yl)-3a,8b-dihydro-1H-benzo[b]cyclopenta[d]furan-3-carboxylic acid'
_symmetry_cell_setting           monoclinic
_symmetry_space_group_name_H-M   'P 21'
_symmetry_Int_Tables_number      4
_space_group_name_Hall           'P 2yb'
loop_
_symmetry_equiv_pos_site_id
_symmetry_equiv_pos_as_xyz
1 x,y,z
2 -x,1/2+y,-z
_cell_length_a                   10.6392(4)
_cell_length_b                   6.8629(3)
_cell_length_c                   14.0591(5)
_cell_angle_alpha                90
_cell_angle_beta                 107.4270(10)
_cell_angle_gamma                90
_cell_volume                     979.417
_exptl_crystal_colour            colorless
_exptl_crystal_description       block
_cell_formula_units_Z            2
_exptl_crystal_recrystallization_method dichloromethane/hexane
loop_
_atom_site_label
_atom_site_type_symbol
_atom_site_fract_x
_atom_site_fract_y
_atom_site_fract_z
Br1 Br 1.023042(17) 0.20512(3) 0.227811(13)
O1 O 0.68981(14) 0.6423(2) 0.11022(11)
O2 O 0.57021(14) 0.9370(2) 0.34915(11)
O3 O 0.96515(14) 0.7939(2) 0.49494(11)
O4 O 0.86081(13) 1.0403(2) 0.40183(11)
H1 H 0.9254 1.1028 0.4380
C1 C 0.3001(3) 0.7594(4) 0.43534(18)
H2 H 0.2439 0.7978 0.4733
C2 C 0.3957(2) 0.8869(4) 0.42557(18)
H3 H 0.4076 1.0115 0.4564
C3 C 0.4738(2) 0.8236(3) 0.36825(16)
C4 C 0.4590(2) 0.6442(3) 0.32314(15)
C5 C 0.5545(2) 0.6283(3) 0.26220(15)
H4 H 0.5073 0.6326 0.1891
C6 C 0.64945(19) 0.4518(3) 0.28892(14)
H5 H 0.6116 0.3538 0.3254
C7 C 0.6803(2) 0.3475(3) 0.19987(14)
H6 H 0.7343 0.2300 0.2279
C8 C 0.76355(19) 0.4722(3) 0.15121(15)
H7 H 0.8448 0.5141 0.2042
C9 C 0.80517(19) 0.3616(3) 0.07176(15)
C10 C 0.91444(19) 0.2390(3) 0.09341(15)
C11 C 0.9498(2) 0.1379(3) 0.02027(18)
H8 H 1.0240 0.0535 0.0378
C12 C 0.8765(2) 0.1604(3) -0.07884(17)
H9 H 0.9005 0.0924 -0.1296
C13 C 0.3637(2) 0.5161(4) 0.33433(16)
H10 H 0.3533 0.3909 0.3041
C14 C 0.2837(3) 0.5755(4) 0.39095(19)
H11 H 0.2175 0.4905 0.3995
C15 C 0.5527(2) 0.2732(3) 0.12601(16)
H12 H 0.5003 0.3841 0.0919
H13 H 0.5023 0.1996 0.1620
H14 H 0.5738 0.1883 0.0769
C16 C 0.7699(2) 0.7938(3) 0.09011(17)
H15 H 0.8396 0.8267 0.1514
H16 H 0.7155 0.9091 0.0657
H17 H 0.8097 0.7496 0.0394
C17 C 0.7676(2) 0.2831(4) -0.10341(16)
H18 H 0.7173 0.3003 -0.1712
C18 C 0.7329(2) 0.3802(3) -0.02880(16)
H19 H 0.6574 0.4622 -0.0464
C19 C 0.77052(19) 0.5394(3) 0.36115(14)
H20 H 0.8432 0.4645 0.3995
C20 C 0.76492(18) 0.7327(3) 0.36547(13)
C21 C 0.6384(2) 0.8142(3) 0.29674(14)
H21 H 0.6541 0.8844 0.2390
C22 C 0.87298(19) 0.8550(3) 0.42714(14)
loop_
_geom_bond_atom_site_label_1
_geom_bond_atom_site_label_2
_geom_bond_site_symmetry_1
_geom_bond_site_symmetry_2
Br1 C10 1_555 1_555
O1 C8 1_555 1_555
O2 C3 1_555 1_555
O3 C22 1_555 1_555
O4 H1 1_555 1_555
C1 H2 1_555 1_555
C2 C1 1_555 1_555
H3 C2 1_555 1_555
C3 C2 1_555 1_555
C4 C3 1_555 1_555
C5 C4 1_555 1_555
H4 C5 1_555 1_555
C6 C5 1_555 1_555
H5 C6 1_555 1_555
C7 C6 1_555 1_555
H6 C7 1_555 1_555
C8 C7 1_555 1_555
H7 C8 1_555 1_555
C9 C8 1_555 1_555
C10 C9 1_555 1_555
C11 C10 1_555 1_555
H8 C11 1_555 1_555
C12 C11 1_555 1_555
H9 C12 1_555 1_555
C13 C4 1_555 1_555
H10 C13 1_555 1_555
C14 C1 1_555 1_555
H11 C14 1_555 1_555
C15 C7 1_555 1_555
H12 C15 1_555 1_555
H13 C15 1_555 1_555
H14 C15 1_555 1_555
C16 O1 1_555 1_555
H15 C16 1_555 1_555
H16 C16 1_555 1_555
H17 C16 1_555 1_555
C17 C12 1_555 1_555
H18 C17 1_555 1_555
C18 C9 1_555 1_555
H19 C18 1_555 1_555
C19 C6 1_555 1_555
H20 C19 1_555 1_555
C20 C19 1_555 1_555
C21 O2 1_555 1_555
H21 C21 1_555 1_555
C22 O4 1_555 1_555
C5 C21 1_555 1_555
C13 C14 1_555 1_555
C17 C18 1_555 1_555
C20 C21 1_555 1_555
C20 C22 1_555 1_555

#END
