
#######################################################################
#
#                 Cambridge Crystallographic Data Centre
#                                CCDC 
#
#######################################################################
#
# If this CIF has been generated from an entry in the Cambridge 
# Structural Database, then it will include bibliographic, chemical, 
# crystal, experimental, refinement or atomic coordinate data resulting 
# from the CCDC's data processing and validation procedures.
#
#######################################################################

data_ISOTOA
_chemical_formula_moiety         'C15 H19 F3 N2 O3 S1'
_chemical_name_systematic        
2-Methyl-N-(1,1,1-trifluoro-2-(nitromethyl)-4-phenylbut-3-en-2-yl)propane-2-sulfinamide
_symmetry_cell_setting           triclinic
_symmetry_space_group_name_H-M   'P -1'
_symmetry_Int_Tables_number      2
_space_group_name_Hall           '-P 1'
loop_
_symmetry_equiv_pos_site_id
_symmetry_equiv_pos_as_xyz
1 x,y,z
2 -x,-y,-z
_cell_length_a                   9.1431(10)
_cell_length_b                   9.1984(11)
_cell_length_c                   21.398(3)
_cell_angle_alpha                98.890(2)
_cell_angle_beta                 92.687(2)
_cell_angle_gamma                95.661(2)
_cell_volume                     1765.79
_exptl_crystal_colour            colorless
_exptl_crystal_description       prismatic
_cell_formula_units_Z            4
loop_
_atom_site_label
_atom_site_type_symbol
_atom_site_fract_x
_atom_site_fract_y
_atom_site_fract_z
S1 S 0.07646(7) 0.55995(8) 0.32051(3)
F1 F -0.08054(19) 0.83376(19) 0.46905(7)
F2 F -0.1135(2) 1.00303(19) 0.41299(8)
F3 F 0.08993(19) 0.9057(2) 0.41238(8)
O1 O 0.0085(2) 0.4416(2) 0.27056(9)
O2 O -0.3138(3) 0.5521(3) 0.42506(12)
O3 O -0.4055(3) 0.7540(3) 0.45445(12)
N1 N -0.0509(3) 0.6222(3) 0.36715(11)
N2 N -0.3392(3) 0.6760(3) 0.41815(12)
C1 C -0.1180(3) 0.7564(3) 0.35886(11)
C2 C -0.0549(3) 0.8763(3) 0.41319(14)
C3 C -0.2863(3) 0.7341(3) 0.36062(12)
H1 H -0.3247 0.8281 0.3588
H2 H -0.3261 0.6658 0.3232
C4 C -0.0929(4) 0.7950(4) 0.29292(16)
H3 H -0.1342 0.7222 0.2601
C5 C -0.0296(4) 0.9021(4) 0.27483(17)
H4 H 0.0041 0.9810 0.3065
C6 C 0.0013(3) 0.9244(3) 0.20922(13)
C7 C -0.0562(4) 0.8331(4) 0.15535(16)
H5 H -0.1264 0.7545 0.1582
C8 C -0.0116(5) 0.8562(5) 0.09734(16)
H6 H -0.0525 0.7936 0.0611
C9 C 0.0903(5) 0.9680(5) 0.09198(18)
H7 H 0.1228 0.9802 0.0524
C10 C 0.1457(4) 1.0627(4) 0.1441(2)
H8 H 0.2135 1.1426 0.1401
C11 C 0.1024(4) 1.0415(4) 0.20303(17)
H9 H 0.1416 1.1067 0.2388
C12 C 0.1760(3) 0.4664(3) 0.37644(13)
C13 C 0.2381(4) 0.5837(4) 0.43242(14)
H10 H 0.1592 0.6155 0.4574
H11 H 0.2873 0.6668 0.4169
H12 H 0.3069 0.5424 0.4581
C14 C 0.0778(4) 0.3437(4) 0.39672(18)
H13 H 0.0236 0.2859 0.3602
H14 H 0.0104 0.3851 0.4258
H15 H 0.1368 0.2816 0.4171
C15 C 0.3016(4) 0.4066(4) 0.33868(17)
H16 H 0.3590 0.3533 0.3642
H17 H 0.3632 0.4876 0.3271
H18 H 0.2613 0.3415 0.3011
H37 H -0.103(3) 0.553(3) 0.3811(13)
S2 S 0.48620(8) 0.46119(8) 0.18057(3)
F4 F 0.65935(19) 0.20240(19) 0.02063(7)
F5 F 0.6850(2) 0.02270(19) 0.07132(8)
F6 F 0.4761(2) 0.1054(2) 0.06347(8)
O4 O 0.5789(3) 0.5604(2) 0.23002(9)
O5 O 0.8676(3) 0.4800(3) 0.08436(12)
O6 O 0.9794(3) 0.2892(3) 0.05863(11)
N3 N 0.5881(3) 0.3857(3) 0.12510(11)
N4 N 0.8974(3) 0.3579(3) 0.09125(12)
C16 C 0.6597(3) 0.2548(3) 0.13274(11)
C17 C 0.6195(3) 0.1452(3) 0.07160(13)
C18 C 0.8277(3) 0.2871(3) 0.14259(12)
H19 H 0.8520 0.3517 0.1828
H20 H 0.8694 0.1950 0.1450
C19 C 0.5986(3) 0.1818(3) 0.18642(12)
H21 H 0.5106 0.1208 0.1770
C20 C 0.6547(3) 0.1950(3) 0.24323(13)
H22 H 0.7471 0.2484 0.2523
C21 C 0.5846(3) 0.1322(3) 0.29590(12)
C22 C 0.6337(3) 0.1902(3) 0.35743(13)
H23 H 0.7144 0.2618 0.3651
C23 C 0.5643(4) 0.1431(4) 0.40763(14)
H24 H 0.5979 0.1846 0.4488
C24 C 0.4492(4) 0.0382(4) 0.39801(15)
H25 H 0.4027 0.0082 0.4323
C25 C 0.4005(4) -0.0243(4) 0.33759(16)
H26 H 0.3220 -0.0985 0.3306
C26 C 0.4684(3) 0.0233(3) 0.28709(14)
H27 H 0.4346 -0.0194 0.2461
C27 C 0.3974(3) 0.5831(3) 0.13368(13)
C28 C 0.3184(4) 0.4904(4) 0.07488(15)
H28 H 0.2576 0.4090 0.0867
H29 H 0.3895 0.4530 0.0467
H30 H 0.2580 0.5503 0.0540
C29 C 0.5084(4) 0.7015(4) 0.11681(16)
H31 H 0.4577 0.7749 0.1000
H32 H 0.5700 0.6576 0.0856
H33 H 0.5681 0.7472 0.1541
C30 C 0.2888(4) 0.6521(4) 0.17803(19)
H34 H 0.3407 0.7008 0.2168
H35 H 0.2167 0.5761 0.1870
H36 H 0.2406 0.7229 0.1583
H38 H 0.644(3) 0.451(3) 0.1108(13)
loop_
_geom_bond_atom_site_label_1
_geom_bond_atom_site_label_2
_geom_bond_site_symmetry_1
_geom_bond_site_symmetry_2
S1 O1 1_555 1_555
S2 O4 1_555 1_555
F1 C2 1_555 1_555
F2 C2 1_555 1_555
F3 C2 1_555 1_555
F4 C17 1_555 1_555
F5 C17 1_555 1_555
F6 C17 1_555 1_555
O2 N2 1_555 1_555
O3 N2 1_555 1_555
O5 N4 1_555 1_555
O6 N4 1_555 1_555
N1 S1 1_555 1_555
N2 C3 1_555 1_555
N3 S2 1_555 1_555
N4 C18 1_555 1_555
C1 N1 1_555 1_555
C2 C1 1_555 1_555
C3 C1 1_555 1_555
H1 C3 1_555 1_555
H2 C3 1_555 1_555
C4 C1 1_555 1_555
H3 C4 1_555 1_555
C5 C4 1_555 1_555
H4 C5 1_555 1_555
C6 C5 1_555 1_555
C7 C6 1_555 1_555
H5 C7 1_555 1_555
C8 C7 1_555 1_555
H6 C8 1_555 1_555
C9 C8 1_555 1_555
H7 C9 1_555 1_555
C10 C9 1_555 1_555
H8 C10 1_555 1_555
C11 C6 1_555 1_555
H9 C11 1_555 1_555
C12 S1 1_555 1_555
C13 C12 1_555 1_555
H10 C13 1_555 1_555
H11 C13 1_555 1_555
H12 C13 1_555 1_555
C14 C12 1_555 1_555
H13 C14 1_555 1_555
H14 C14 1_555 1_555
H15 C14 1_555 1_555
C15 C12 1_555 1_555
H16 C15 1_555 1_555
H17 C15 1_555 1_555
H18 C15 1_555 1_555
C16 N3 1_555 1_555
C17 C16 1_555 1_555
C18 C16 1_555 1_555
H19 C18 1_555 1_555
H20 C18 1_555 1_555
C19 C16 1_555 1_555
H21 C19 1_555 1_555
C20 C19 1_555 1_555
H22 C20 1_555 1_555
C21 C20 1_555 1_555
C22 C21 1_555 1_555
H23 C22 1_555 1_555
C23 C22 1_555 1_555
H24 C23 1_555 1_555
C24 C23 1_555 1_555
H25 C24 1_555 1_555
C25 C24 1_555 1_555
H26 C25 1_555 1_555
C26 C21 1_555 1_555
H27 C26 1_555 1_555
C27 S2 1_555 1_555
C28 C27 1_555 1_555
H28 C28 1_555 1_555
H29 C28 1_555 1_555
H30 C28 1_555 1_555
C29 C27 1_555 1_555
H31 C29 1_555 1_555
H32 C29 1_555 1_555
H33 C29 1_555 1_555
C30 C27 1_555 1_555
H34 C30 1_555 1_555
H35 C30 1_555 1_555
H36 C30 1_555 1_555
H37 N1 1_555 1_555
H38 N3 1_555 1_555
C10 C11 1_555 1_555
C25 C26 1_555 1_555

#END
