
#######################################################################
#
#                 Cambridge Crystallographic Data Centre
#                                CCDC 
#
#######################################################################
#
# If this CIF has been generated from an entry in the Cambridge 
# Structural Database, then it will include bibliographic, chemical, 
# crystal, experimental, refinement or atomic coordinate data resulting 
# from the CCDC's data processing and validation procedures.
#
#######################################################################

data_ISOYOF
_chemical_formula_moiety         'C16 H27 N1 O1 Si1'
_chemical_name_systematic        
4-Hydroxy-3-((trimethylsilyl)methylene)decahydro-3aH-cyclopenta[8]annulene-3a-carbonitrile
_symmetry_cell_setting           monoclinic
_symmetry_space_group_name_H-M   'P 21/c'
_symmetry_Int_Tables_number      14
_space_group_name_Hall           '-P 2ybc'
loop_
_symmetry_equiv_pos_site_id
_symmetry_equiv_pos_as_xyz
1 x,y,z
2 -x,1/2+y,1/2-z
3 -x,-y,-z
4 x,1/2-y,1/2+z
_cell_length_a                   10.5629(9)
_cell_length_b                   12.6906(10)
_cell_length_c                   12.5122(9)
_cell_angle_alpha                90
_cell_angle_beta                 100.650(5)
_cell_angle_gamma                90
_cell_volume                     1648.36
_exptl_crystal_colour            colorless
_exptl_crystal_description       prism
_cell_formula_units_Z            4
loop_
_atom_site_label
_atom_site_type_symbol
_atom_site_fract_x
_atom_site_fract_y
_atom_site_fract_z
Si1 Si 0.92269(6) 0.25148(5) 0.05721(4)
O1 O 0.46563(12) 0.37473(10) -0.02331(9)
H1 H 0.5370 0.3778 0.0158
N1 N 0.60633(16) 0.21226(13) -0.32246(12)
C1 C 0.71184(19) 0.35047(16) -0.08861(14)
C2 C 0.58338(18) 0.35063(15) -0.17128(14)
C3 C 0.47216(18) 0.31059(15) -0.11507(14)
H2 H 0.4938 0.2389 -0.0889
C4 C 0.33690(18) 0.30805(15) -0.18382(14)
H3 H 0.2817 0.2682 -0.1447
H4 H 0.3405 0.2702 -0.2505
C5 C 0.27375(19) 0.41606(16) -0.21397(14)
H5 H 0.1861 0.4134 -0.2009
H6 H 0.3196 0.4683 -0.1649
C6 C 0.26946(19) 0.45432(17) -0.33140(14)
H7 H 0.1935 0.4244 -0.3766
H8 H 0.2583 0.5302 -0.3325
C7 C 0.38444(19) 0.42913(17) -0.38364(14)
H9 H 0.3628 0.4485 -0.4598
H10 H 0.3972 0.3534 -0.3805
C8 C 0.51243(18) 0.48146(16) -0.33550(14)
H11 H 0.5030 0.5566 -0.3489
H12 H 0.5765 0.4563 -0.3758
C9 C 0.56649(18) 0.46599(15) -0.21420(14)
H13 H 0.5081 0.5017 -0.1736
C10 C 0.69950(18) 0.51630(16) -0.18063(15)
H14 H 0.7522 0.5036 -0.2351
H15 H 0.6921 0.5917 -0.1708
C11 C 0.75694(18) 0.46314(15) -0.07394(14)
H16 H 0.8503 0.4670 -0.0607
H17 H 0.7259 0.4959 -0.0136
C12 C 0.59621(18) 0.27439(16) -0.25756(15)
C13 C 0.76983(18) 0.26499(17) -0.04243(14)
H18 H 0.7274 0.2020 -0.0631
C14 C 0.9431(2) 0.35438(17) 0.16477(15)
H19 H 1.0235 0.3437 0.2137
H20 H 0.8736 0.3499 0.2043
H21 H 0.9429 0.4227 0.1318
C15 C 1.06014(18) 0.25907(18) -0.01666(14)
H22 H 1.1397 0.2526 0.0343
H23 H 1.0581 0.3256 -0.0535
H24 H 1.0535 0.2029 -0.0688
C16 C 0.9131(2) 0.11962(17) 0.12037(17)
H25 H 0.9897 0.1075 0.1735
H26 H 0.9053 0.0662 0.0652
H27 H 0.8393 0.1172 0.1550
loop_
_geom_bond_atom_site_label_1
_geom_bond_atom_site_label_2
_geom_bond_site_symmetry_1
_geom_bond_site_symmetry_2
Si1 C13 1_555 1_555
O1 H1 1_555 1_555
N1 C12 1_555 1_555
C1 C2 1_555 1_555
C2 C3 1_555 1_555
C3 O1 1_555 1_555
H2 C3 1_555 1_555
C4 C3 1_555 1_555
H3 C4 1_555 1_555
H4 C4 1_555 1_555
C5 C4 1_555 1_555
H5 C5 1_555 1_555
H6 C5 1_555 1_555
C6 C5 1_555 1_555
H7 C6 1_555 1_555
H8 C6 1_555 1_555
C7 C6 1_555 1_555
H9 C7 1_555 1_555
H10 C7 1_555 1_555
C8 C7 1_555 1_555
H11 C8 1_555 1_555
H12 C8 1_555 1_555
C9 C2 1_555 1_555
H13 C9 1_555 1_555
C10 C9 1_555 1_555
H14 C10 1_555 1_555
H15 C10 1_555 1_555
C11 C1 1_555 1_555
H16 C11 1_555 1_555
H17 C11 1_555 1_555
C12 C2 1_555 1_555
C13 C1 1_555 1_555
H18 C13 1_555 1_555
C14 Si1 1_555 1_555
H19 C14 1_555 1_555
H20 C14 1_555 1_555
H21 C14 1_555 1_555
C15 Si1 1_555 1_555
H22 C15 1_555 1_555
H23 C15 1_555 1_555
H24 C15 1_555 1_555
C16 Si1 1_555 1_555
H25 C16 1_555 1_555
H26 C16 1_555 1_555
H27 C16 1_555 1_555
C8 C9 1_555 1_555
C10 C11 1_555 1_555

#END
