
#######################################################################
#
#                 Cambridge Crystallographic Data Centre
#                                CCDC 
#
#######################################################################
#
# If this CIF has been generated from an entry in the Cambridge 
# Structural Database, then it will include bibliographic, chemical, 
# crystal, experimental, refinement or atomic coordinate data resulting 
# from the CCDC's data processing and validation procedures.
#
#######################################################################

data_ISTEST
_chemical_name_common            dl-8-Isotestosterone
_chemical_formula_moiety         'C19 H28 O2'
_chemical_name_systematic        dl-17\b-Hydroxy-8\a-androst-4-en-3-one
_symmetry_cell_setting           monoclinic
_symmetry_space_group_name_H-M   'P 21/c'
_symmetry_Int_Tables_number      14
_space_group_name_Hall           '-P 2ybc'
loop_
_symmetry_equiv_pos_site_id
_symmetry_equiv_pos_as_xyz
1 x,y,z
2 -x,1/2+y,1/2-z
3 -x,-y,-z
4 x,1/2-y,1/2+z
_cell_length_a                   11.449(4)
_cell_length_b                   10.962(4)
_cell_length_c                   25.860(5)
_cell_angle_alpha                90
_cell_angle_beta                 100.95(4)
_cell_angle_gamma                90
_cell_volume                     3186.44
_cell_formula_units_Z            8
loop_
_atom_site_label
_atom_site_type_symbol
_atom_site_fract_x
_atom_site_fract_y
_atom_site_fract_z
C1 C 0.07740 1.08380 0.87240
C2 C -0.02360 1.06570 0.90280
C3 C -0.01680 0.94110 0.92810
C4 C 0.10410 0.88940 0.94320
C5 C 0.20350 0.94310 0.93440
C6 C 0.32300 0.88930 0.95900
C7 C 0.42430 0.92970 0.93230
C8 C 0.37400 0.94500 0.87390
C9 C 0.29150 1.05700 0.86480
C10 C 0.20200 1.06120 0.90480
C11 C 0.35800 1.17860 0.86170
C12 C 0.44190 1.17100 0.82180
C13 C 0.53010 1.06750 0.83430
C14 C 0.45910 0.94960 0.83520
C15 C 0.55070 0.84680 0.83430
C16 C 0.63820 0.90350 0.80180
C17 C 0.59610 1.03470 0.79000
C18 C 0.62150 1.09380 0.88390
C19 C 0.23530 1.16190 0.94730
O1 O -0.10240 0.88740 0.93700
O2 O 0.69120 1.11570 0.78660
H1 H 0.06400 1.03600 0.83700
H2 H 0.08200 1.18800 0.85900
H3 H -0.01200 1.09200 0.93600
H4 H -0.11600 1.08300 0.87300
H5 H 0.11300 0.81000 0.96500
H6 H 0.34500 0.90600 0.99800
H7 H 0.31600 0.78800 0.95500
H8 H 0.46300 1.00200 0.94300
H9 H 0.49400 0.87200 0.93900
H10 H 0.32200 0.87200 0.86300
H11 H 0.24400 1.04200 0.83000
H12 H 0.29600 1.24600 0.84900
H13 H 0.41500 1.19900 0.90200
H14 H 0.47800 1.24300 0.81900
H15 H 0.39200 1.16300 0.78600
H16 H 0.40100 0.94800 0.79900
H17 H 0.58200 0.82800 0.87300
H18 H 0.50600 0.76700 0.82300
H19 H 0.71900 0.89800 0.82800
H20 H 0.65100 0.84900 0.77600
H21 H 0.52600 1.05400 0.75700
H22 H 0.67000 1.15000 0.88000
H23 H 0.66000 1.02400 0.90300
H24 H 0.57700 1.12300 0.90800
H25 H 0.23100 1.24500 0.93800
H26 H 0.32700 1.13200 0.97200
H27 H 0.18900 1.15100 0.98100
H28 H 0.70900 1.12300 0.74500
C20 C 0.26130 1.09830 0.54280
C21 C 0.38590 1.07900 0.53100
C22 C 0.47590 1.05800 0.57970
C23 C 0.43590 0.99950 0.62380
C24 C 0.32170 0.97140 0.62310
C25 C 0.28240 0.92040 0.67060
C26 C 0.21060 1.01890 0.69270
C27 C 0.14020 1.10200 0.64910
C28 C 0.10750 1.03840 0.59560
C29 C 0.22380 0.99540 0.57650
C30 C 0.00690 0.94670 0.59350
C31 C -0.10640 1.00960 0.60600
C32 C -0.07890 1.06910 0.65960
C33 C 0.02680 1.15580 0.66170
C34 C 0.03130 1.22960 0.71230
C35 C -0.10400 1.24180 0.71480
C36 C -0.16890 1.16610 0.66930
C37 C -0.06780 0.97210 0.70350
C38 C 0.20250 0.87660 0.54330
O3 O 0.58150 1.08650 0.58260
O4 O -0.27940 1.11990 0.68160
H29 H 0.26300 1.17700 0.56300
H30 H 0.20100 1.10200 0.50800
H31 H 0.38000 1.00200 0.50600
H32 H 0.41000 1.15400 0.51300
H33 H 0.49700 0.99000 0.65800
H34 H 0.22300 0.84700 0.65400
H35 H 0.35000 0.90100 0.70000
H36 H 0.15100 0.98700 0.71600
H37 H 0.26800 1.06900 0.71700
H38 H 0.19300 1.16900 0.64200
H39 H 0.07300 1.10700 0.57000
H40 H 0.01200 0.90900 0.55800
H41 H -0.14100 1.07800 0.57600
H42 H -0.17000 0.94800 0.60200
H43 H -0.01000 1.21300 0.63100
H44 H 0.08000 1.17800 0.74700
H45 H 0.06900 1.31700 0.70800
H46 H -0.12500 1.22400 0.74600
H47 H -0.13200 1.33200 0.70900
H48 H -0.15100 0.94200 0.70200
H49 H -0.03200 0.99800 0.74000
H50 H -0.01400 0.89200 0.69800
H51 H 0.12900 0.89100 0.51000
H52 H 0.17900 0.81000 0.56200
H53 H 0.27700 0.85300 0.53800
H54 H -0.33200 1.09600 0.64400
loop_
_geom_bond_atom_site_label_1
_geom_bond_atom_site_label_2
_geom_bond_site_symmetry_1
_geom_bond_site_symmetry_2
C1 C2 1_555 1_555
C2 C3 1_555 1_555
C3 C4 1_555 1_555
C4 C5 1_555 1_555
C5 C6 1_555 1_555
C6 C7 1_555 1_555
C7 C8 1_555 1_555
C8 C9 1_555 1_555
C9 C10 1_555 1_555
C10 C1 1_555 1_555
C11 C9 1_555 1_555
C12 C11 1_555 1_555
C13 C12 1_555 1_555
C14 C8 1_555 1_555
C15 C14 1_555 1_555
C16 C15 1_555 1_555
C17 C13 1_555 1_555
C18 C13 1_555 1_555
C19 C10 1_555 1_555
O1 C3 1_555 1_555
O2 C17 1_555 1_555
H1 C1 1_555 1_555
H2 C1 1_555 1_555
H3 C2 1_555 1_555
H4 C2 1_555 1_555
H5 C4 1_555 1_555
H6 C6 1_555 1_555
H7 C6 1_555 1_555
H8 C7 1_555 1_555
H9 C7 1_555 1_555
H10 C8 1_555 1_555
H11 C9 1_555 1_555
H12 C11 1_555 1_555
H13 C11 1_555 1_555
H14 C12 1_555 1_555
H15 C12 1_555 1_555
H16 C14 1_555 1_555
H17 C15 1_555 1_555
H18 C15 1_555 1_555
H19 C16 1_555 1_555
H20 C16 1_555 1_555
H21 C17 1_555 1_555
H22 C18 1_555 1_555
H23 C18 1_555 1_555
H24 C18 1_555 1_555
H25 C19 1_555 1_555
H26 C19 1_555 1_555
H27 C19 1_555 1_555
H28 O2 1_555 1_555
C20 C21 1_555 1_555
C21 C22 1_555 1_555
C22 C23 1_555 1_555
C23 C24 1_555 1_555
C24 C25 1_555 1_555
C25 C26 1_555 1_555
C26 C27 1_555 1_555
C27 C28 1_555 1_555
C28 C29 1_555 1_555
C29 C20 1_555 1_555
C30 C28 1_555 1_555
C31 C30 1_555 1_555
C32 C31 1_555 1_555
C33 C27 1_555 1_555
C34 C33 1_555 1_555
C35 C34 1_555 1_555
C36 C32 1_555 1_555
C37 C32 1_555 1_555
C38 C29 1_555 1_555
O3 C22 1_555 1_555
O4 C36 1_555 1_555
H29 C20 1_555 1_555
H30 C20 1_555 1_555
H31 C21 1_555 1_555
H32 C21 1_555 1_555
H33 C23 1_555 1_555
H34 C25 1_555 1_555
H35 C25 1_555 1_555
H36 C26 1_555 1_555
H37 C26 1_555 1_555
H38 C27 1_555 1_555
H39 C28 1_555 1_555
H40 C30 1_555 1_555
H41 C31 1_555 1_555
H42 C31 1_555 1_555
H43 C33 1_555 1_555
H44 C34 1_555 1_555
H45 C34 1_555 1_555
H46 C35 1_555 1_555
H47 C35 1_555 1_555
H48 C37 1_555 1_555
H49 C37 1_555 1_555
H50 C37 1_555 1_555
H51 C38 1_555 1_555
H52 C38 1_555 1_555
H53 C38 1_555 1_555
H54 O4 1_555 1_555
C5 C10 1_555 1_555
C13 C14 1_555 1_555
C16 C17 1_555 1_555
C24 C29 1_555 1_555
C32 C33 1_555 1_555
C35 C36 1_555 1_555

#END
