
#######################################################################
#
#                 Cambridge Crystallographic Data Centre
#                                CCDC 
#
#######################################################################
#
# If this CIF has been generated from an entry in the Cambridge 
# Structural Database, then it will include bibliographic, chemical, 
# crystal, experimental, refinement or atomic coordinate data resulting 
# from the CCDC's data processing and validation procedures.
#
#######################################################################

data_ISUDIL
_chemical_formula_moiety         'C16 H16 N2 O2'
_chemical_name_systematic        
'methyl 7-cyano-4-methyl-2-phenyl-4,5-dihydro-3H-azepine-4-carboxylate'
_symmetry_cell_setting           monoclinic
_symmetry_space_group_name_H-M   'P 21/c'
_symmetry_Int_Tables_number      14
_space_group_name_Hall           '-P 2ybc'
loop_
_symmetry_equiv_pos_site_id
_symmetry_equiv_pos_as_xyz
1 x,y,z
2 -x,1/2+y,1/2-z
3 -x,-y,-z
4 x,1/2-y,1/2+z
_cell_length_a                   9.653(3)
_cell_length_b                   16.703(5)
_cell_length_c                   10.103(3)
_cell_angle_alpha                90
_cell_angle_beta                 118.54
_cell_angle_gamma                90
_cell_volume                     1431
_exptl_crystal_description       block
_cell_formula_units_Z            4
loop_
_atom_site_label
_atom_site_type_symbol
_atom_site_fract_x
_atom_site_fract_y
_atom_site_fract_z
O1 O 0.8622(2) 0.24826(7) 0.5600(2)
O2 O 0.66620(15) 0.23075(7) 0.60731(15)
N1 N 0.97820(15) 0.50837(6) 0.76877(14)
N2 N 1.3156(2) 0.44548(9) 1.07601(19)
C1 C 0.8499(2) 0.64264(9) 0.5965(2)
H1 H 0.9046 0.6469 0.7009
C2 C 0.7938(2) 0.71072(11) 0.5106(3)
H2 H 0.8108 0.7604 0.5574
C3 C 0.7131(3) 0.70596(14) 0.3569(3)
H3 H 0.6762 0.7522 0.2993
C4 C 0.6870(3) 0.63265(15) 0.2883(2)
H4 H 0.6318 0.6293 0.1838
C5 C 0.7423(2) 0.56320(11) 0.37363(19)
H5 H 0.7230 0.5137 0.3258
C6 C 0.82603(18) 0.56716(9) 0.52956(18)
C7 C 0.88896(18) 0.49528(8) 0.62673(17)
C8 C 0.85617(18) 0.41149(8) 0.56314(16)
H6 H 0.9542 0.3816 0.6082
H7 H 0.8198 0.4145 0.4556
C9 C 0.73343(18) 0.36514(8) 0.58885(16)
C10 C 0.7553(2) 0.38541(9) 0.74610(17)
H8 H 0.7088 0.4374 0.7423
H9 H 0.6988 0.3462 0.7730
C11 C 0.9241(2) 0.38672(9) 0.86598(17)
H10 H 0.9605 0.3478 0.9408
C12 C 1.0230(2) 0.44264(9) 0.86749(16)
C13 C 1.1860(2) 0.44490(9) 0.9857(2)
C14 C 0.5641(2) 0.38471(10) 0.4683(2)
H11 H 0.5484 0.4416 0.4635
H12 H 0.4909 0.3592 0.4939
H13 H 0.5472 0.3655 0.3721
C15 C 0.7622(2) 0.27599(9) 0.58197(17)
C16 C 0.6864(2) 0.14546(9) 0.6085(2)
H14 H 0.6089 0.1196 0.6276
H15 H 0.7900 0.1314 0.6862
H16 H 0.6736 0.1285 0.5126
loop_
_geom_bond_atom_site_label_1
_geom_bond_atom_site_label_2
_geom_bond_site_symmetry_1
_geom_bond_site_symmetry_2
O1 C15 1_555 1_555
O2 C15 1_555 1_555
N1 C7 1_555 1_555
N2 C13 1_555 1_555
C1 H1 1_555 1_555
C2 C1 1_555 1_555
H2 C2 1_555 1_555
C3 C2 1_555 1_555
H3 C3 1_555 1_555
C4 C3 1_555 1_555
H4 C4 1_555 1_555
C5 C4 1_555 1_555
H5 C5 1_555 1_555
C6 C1 1_555 1_555
C7 C6 1_555 1_555
C8 C7 1_555 1_555
H6 C8 1_555 1_555
H7 C8 1_555 1_555
C9 C8 1_555 1_555
C10 C9 1_555 1_555
H8 C10 1_555 1_555
H9 C10 1_555 1_555
C11 C10 1_555 1_555
H10 C11 1_555 1_555
C12 N1 1_555 1_555
C13 C12 1_555 1_555
C14 C9 1_555 1_555
H11 C14 1_555 1_555
H12 C14 1_555 1_555
H13 C14 1_555 1_555
C15 C9 1_555 1_555
C16 O2 1_555 1_555
H14 C16 1_555 1_555
H15 C16 1_555 1_555
H16 C16 1_555 1_555
C5 C6 1_555 1_555
C11 C12 1_555 1_555

#END
