
#######################################################################
#
#                 Cambridge Crystallographic Data Centre
#                                CCDC 
#
#######################################################################
#
# If this CIF has been generated from an entry in the Cambridge 
# Structural Database, then it will include bibliographic, chemical, 
# crystal, experimental, refinement or atomic coordinate data resulting 
# from the CCDC's data processing and validation procedures.
#
#######################################################################

data_ISUDEH
_chemical_formula_moiety         'C14 H12 N2'
_chemical_name_systematic        
7-methyl-2-phenyl-3-azabicyclo[4.1.0]hepta-2,4-diene-7-carbonitrile
_symmetry_cell_setting           monoclinic
_symmetry_space_group_name_H-M   'P 21/n'
_symmetry_Int_Tables_number      14
_space_group_name_Hall           '-P 2yn'
loop_
_symmetry_equiv_pos_site_id
_symmetry_equiv_pos_as_xyz
1 x,y,z
2 1/2-x,1/2+y,1/2-z
3 -x,-y,-z
4 1/2+x,1/2-y,1/2+z
_cell_length_a                   9.5910(19)
_cell_length_b                   11.710(2)
_cell_length_c                   10.280(2)
_cell_angle_alpha                90
_cell_angle_beta                 102.04(3)
_cell_angle_gamma                90
_cell_volume                     1129.16
_exptl_crystal_colour            colorless
_exptl_crystal_description       block
_cell_formula_units_Z            4
loop_
_atom_site_label
_atom_site_type_symbol
_atom_site_fract_x
_atom_site_fract_y
_atom_site_fract_z
C1 C 0.27966(16) 0.52533(13) 1.00569(14)
H1 H 0.3073 0.5271 0.9242
C2 C 0.3299(2) 0.60749(15) 1.10099(17)
H2 H 0.3917 0.6639 1.0834
C3 C 0.2887(2) 0.60609(16) 1.22180(16)
H3 H 0.3222 0.6616 1.2854
C4 C 0.19828(18) 0.52254(15) 1.24754(15)
H4 H 0.1707 0.5216 1.3290
C5 C 0.14758(15) 0.43970(13) 1.15416(12)
H5 H 0.0863 0.3834 1.1731
C6 C 0.18793(13) 0.44009(11) 1.03144(11)
C7 C 0.13695(13) 0.34899(11) 0.93288(12)
C8 C 0.03208(17) 0.17176(13) 0.88058(15)
H6 H 0.0009 0.1042 0.9126
C9 C 0.01530(16) 0.18264(14) 0.75013(15)
H7 H -0.0347 0.1270 0.6947
C10 C 0.07396(14) 0.28056(13) 0.69190(12)
H8 H 0.0198 0.3078 0.6060
C11 C 0.14066(14) 0.37218(11) 0.79222(11)
H9 H 0.1247 0.4516 0.7629
C12 C 0.23416(14) 0.30088(12) 0.72049(12)
C13 C 0.32335(14) 0.21563(12) 0.79780(13)
C14 C 0.2983(2) 0.36023(16) 0.61617(15)
H10 H 0.3798 0.4038 0.6589
H11 H 0.2287 0.4103 0.5647
H12 H 0.3270 0.3042 0.5588
N1 N 0.09318(13) 0.25417(10) 0.97459(10)
N2 N 0.39643(15) 0.14895(12) 0.85858(13)
loop_
_geom_bond_atom_site_label_1
_geom_bond_atom_site_label_2
_geom_bond_site_symmetry_1
_geom_bond_site_symmetry_2
C1 H1 1_555 1_555
C2 C1 1_555 1_555
H2 C2 1_555 1_555
C3 C2 1_555 1_555
H3 C3 1_555 1_555
C4 C3 1_555 1_555
H4 C4 1_555 1_555
C5 C4 1_555 1_555
H5 C5 1_555 1_555
C6 C1 1_555 1_555
C7 C6 1_555 1_555
C8 H6 1_555 1_555
C9 C8 1_555 1_555
H7 C9 1_555 1_555
C10 C9 1_555 1_555
H8 C10 1_555 1_555
C11 C7 1_555 1_555
H9 C11 1_555 1_555
C12 C10 1_555 1_555
C13 C12 1_555 1_555
C14 C12 1_555 1_555
H10 C14 1_555 1_555
H11 C14 1_555 1_555
H12 C14 1_555 1_555
N1 C7 1_555 1_555
N2 C13 1_555 1_555
C5 C6 1_555 1_555
C8 N1 1_555 1_555
C10 C11 1_555 1_555
C11 C12 1_555 1_555

#END
