
#######################################################################
#
#                 Cambridge Crystallographic Data Centre
#                                CCDC 
#
#######################################################################
#
# If this CIF has been generated from an entry in the Cambridge 
# Structural Database, then it will include bibliographic, chemical, 
# crystal, experimental, refinement or atomic coordinate data resulting 
# from the CCDC's data processing and validation procedures.
#
#######################################################################

data_ISUDUX
_chemical_formula_moiety         'C17 H24 B1 Br1 O3'
_chemical_name_systematic        
4-(4-bromophenyl)-3-methyl-4-(4,4,5,5-tetramethyl-1,3,2-dioxaborolan-2-yl)butan-2-one
_symmetry_cell_setting           monoclinic
_symmetry_space_group_name_H-M   'P 21'
_symmetry_Int_Tables_number      4
_space_group_name_Hall           'P 2yb'
loop_
_symmetry_equiv_pos_site_id
_symmetry_equiv_pos_as_xyz
1 x,y,z
2 -x,1/2+y,-z
_cell_length_a                   10.203(2)
_cell_length_b                   12.287(3)
_cell_length_c                   14.177(3)
_cell_angle_alpha                90
_cell_angle_beta                 90.025(3)
_cell_angle_gamma                90
_cell_volume                     1777.29
_exptl_crystal_colour            colorless
_exptl_crystal_description       blade
_cell_formula_units_Z            4
loop_
_atom_site_label
_atom_site_type_symbol
_atom_site_fract_x
_atom_site_fract_y
_atom_site_fract_z
Br1 Br 0.56102(6) -0.01513(3) 0.22632(4)
O1 O 0.4759(4) 0.5670(3) 0.3479(3)
O2 O 0.6912(4) 0.5316(3) 0.3839(3)
O3 O 0.6046(5) 0.7126(4) 0.2053(3)
C1 C 0.5766(6) 0.1399(5) 0.2231(4)
C2 C 0.4659(5) 0.2056(6) 0.2283(4)
H1 H 0.3813 0.1741 0.2343
C3 C 0.4802(5) 0.3171(5) 0.2246(5)
H2 H 0.4046 0.3621 0.2278
C4 C 0.6045(5) 0.3652(5) 0.2161(4)
C5 C 0.7133(5) 0.2973(5) 0.2124(4)
H3 H 0.7983 0.3284 0.2074
C6 C 0.6998(6) 0.1840(5) 0.2158(5)
H4 H 0.7748 0.1384 0.213
C7 C 0.6223(4) 0.4890(5) 0.2133(4)
H5 H 0.7162 0.5037 0.1978
C8 C 0.5386(6) 0.5435(4) 0.1367(4)
H6 H 0.4473 0.5143 0.1412
C9 C 0.5920(6) 0.5180(6) 0.0375(4)
H7 H 0.5342 0.5501 -0.0101
H8 H 0.5957 0.4389 0.0286
H9 H 0.6802 0.5486 0.031
C10 C 0.5335(6) 0.6665(5) 0.1497(4)
C11 C 0.4348(6) 0.7270(5) 0.0911(5)
H10 H 0.4349 0.804 0.109
H11 H 0.3474 0.6962 0.1019
H12 H 0.4575 0.7201 0.0242
C12 C 0.4852(5) 0.5710(5) 0.4508(4)
C13 C 0.6364(6) 0.5860(5) 0.4669(4)
C14 C 0.4347(6) 0.4619(5) 0.4857(4)
H13 H 0.3452 0.4505 0.4626
H14 H 0.4349 0.4612 0.5548
H15 H 0.4915 0.4036 0.4621
C15 C 0.4006(6) 0.6636(5) 0.4875(4)
H16 H 0.4197 0.73 0.4517
H17 H 0.4196 0.6758 0.5544
H18 H 0.3078 0.6447 0.4799
C16 C 0.6856(6) 0.5312(6) 0.5558(4)
H19 H 0.6725 0.4524 0.5508
H20 H 0.6371 0.5591 0.6103
H21 H 0.7792 0.5467 0.5638
C17 C 0.6809(6) 0.7033(5) 0.4629(5)
H22 H 0.7766 0.7059 0.4577
H23 H 0.6533 0.7411 0.5204
H24 H 0.6416 0.7389 0.4078
B1 B 0.5967(6) 0.5340(5) 0.3154(5)
Br2 Br 0.03881(6) 1.01508(4) 0.26284(4)
O4 O -0.0037(4) 0.4210(4) 0.1505(3)
O5 O 0.2160(3) 0.4529(3) 0.1354(3)
O6 O 0.1194(5) 0.2922(4) 0.3178(3)
C18 C 0.0575(6) 0.8614(5) 0.2709(4)
C19 C -0.0519(6) 0.7953(5) 0.2696(4)
H25 H -0.137 0.8262 0.2642
C20 C -0.0364(6) 0.6818(5) 0.2763(4)
H26 H -0.1112 0.6358 0.2752
C21 C 0.0889(5) 0.6365(5) 0.2846(4)
C22 C 0.1967(5) 0.7063(5) 0.2838(4)
H27 H 0.2824 0.6764 0.2884
C23 C 0.1824(5) 0.8179(5) 0.2764(5)
H28 H 0.2572 0.864 0.2752
C24 C 0.1110(5) 0.5137(5) 0.2927(4)
H29 H 0.2014 0.5027 0.3182
C25 C 0.0154(6) 0.4590(5) 0.3617(4)
H30 H -0.0758 0.4755 0.34
C26 C 0.0298(6) 0.5020(5) 0.4626(4)
H31 H -0.0301 0.4624 0.5043
H32 H 0.0084 0.5797 0.4639
H33 H 0.1202 0.4914 0.484
C27 C 0.0320(7) 0.3364(5) 0.3615(4)
C28 C -0.0655(8) 0.2724(6) 0.4198(5)
H34 H -0.0658 0.1964 0.399
H35 H -0.1532 0.3035 0.4115
H36 H -0.0406 0.276 0.4865
C29 C 0.0389(6) 0.3621(4) 0.0656(4)
C30 C 0.1709(5) 0.4186(5) 0.0421(4)
C31 C -0.0670(6) 0.3727(6) -0.0090(4)
H37 H -0.1495 0.3433 0.0154
H38 H -0.0411 0.332 -0.0655
H39 H -0.0787 0.4496 -0.0253
C32 C 0.0565(7) 0.2431(4) 0.0942(4)
H40 H 0.1299 0.237 0.1386
H41 H 0.0748 0.1992 0.038
H42 H -0.0239 0.2168 0.1244
C33 C 0.1559(6) 0.5223(6) -0.0159(4)
H43 H 0.0897 0.5693 0.0133
H44 H 0.1283 0.5036 -0.0801
H45 H 0.24 0.5608 -0.0182
C34 C 0.2740(6) 0.3449(5) -0.0013(4)
H46 H 0.3524 0.3877 -0.0162
H47 H 0.2393 0.3123 -0.0592
H48 H 0.2969 0.2873 0.0436
B2 B 0.1068(6) 0.4600(5) 0.1920(5)
loop_
_geom_bond_atom_site_label_1
_geom_bond_atom_site_label_2
_geom_bond_site_symmetry_1
_geom_bond_site_symmetry_2
Br1 C1 1_555 1_555
O1 C12 1_555 1_555
O2 C13 1_555 1_555
O3 C10 1_555 1_555
C1 C2 1_555 1_555
C2 H1 1_555 1_555
C3 C2 1_555 1_555
H2 C3 1_555 1_555
C4 C3 1_555 1_555
C5 C4 1_555 1_555
H3 C5 1_555 1_555
C6 C1 1_555 1_555
H4 C6 1_555 1_555
C7 C4 1_555 1_555
H5 C7 1_555 1_555
C8 C7 1_555 1_555
H6 C8 1_555 1_555
C9 C8 1_555 1_555
H7 C9 1_555 1_555
H8 C9 1_555 1_555
H9 C9 1_555 1_555
C10 C8 1_555 1_555
C11 C10 1_555 1_555
H10 C11 1_555 1_555
H11 C11 1_555 1_555
H12 C11 1_555 1_555
C12 C13 1_555 1_555
C13 C16 1_555 1_555
C14 C12 1_555 1_555
H13 C14 1_555 1_555
H14 C14 1_555 1_555
H15 C14 1_555 1_555
C15 C12 1_555 1_555
H16 C15 1_555 1_555
H17 C15 1_555 1_555
H18 C15 1_555 1_555
C16 H19 1_555 1_555
H20 C16 1_555 1_555
H21 C16 1_555 1_555
C17 C13 1_555 1_555
H22 C17 1_555 1_555
H23 C17 1_555 1_555
H24 C17 1_555 1_555
B1 O1 1_555 1_555
Br2 C18 1_555 1_555
O4 C29 1_555 1_555
O5 C30 1_555 1_555
O6 C27 1_555 1_555
C18 C19 1_555 1_555
C19 H25 1_555 1_555
C20 C19 1_555 1_555
H26 C20 1_555 1_555
C21 C20 1_555 1_555
C22 C21 1_555 1_555
H27 C22 1_555 1_555
C23 C18 1_555 1_555
H28 C23 1_555 1_555
C24 C21 1_555 1_555
H29 C24 1_555 1_555
C25 C24 1_555 1_555
H30 C25 1_555 1_555
C26 C25 1_555 1_555
H31 C26 1_555 1_555
H32 C26 1_555 1_555
H33 C26 1_555 1_555
C27 C25 1_555 1_555
C28 C27 1_555 1_555
H34 C28 1_555 1_555
H35 C28 1_555 1_555
H36 C28 1_555 1_555
C29 C30 1_555 1_555
C30 C33 1_555 1_555
C31 C29 1_555 1_555
H37 C31 1_555 1_555
H38 C31 1_555 1_555
H39 C31 1_555 1_555
C32 C29 1_555 1_555
H40 C32 1_555 1_555
H41 C32 1_555 1_555
H42 C32 1_555 1_555
C33 H43 1_555 1_555
H44 C33 1_555 1_555
H45 C33 1_555 1_555
C34 C30 1_555 1_555
H46 C34 1_555 1_555
H47 C34 1_555 1_555
H48 C34 1_555 1_555
B2 O4 1_555 1_555
O2 B1 1_555 1_555
C5 C6 1_555 1_555
C7 B1 1_555 1_555
O5 B2 1_555 1_555
C22 C23 1_555 1_555
C24 B2 1_555 1_555

#END
