
#######################################################################
#
#                 Cambridge Crystallographic Data Centre
#                                CCDC 
#
#######################################################################
#
# If this CIF has been generated from an entry in the Cambridge 
# Structural Database, then it will include bibliographic, chemical, 
# crystal, experimental, refinement or atomic coordinate data resulting 
# from the CCDC's data processing and validation procedures.
#
#######################################################################

data_ISUFIN
_chemical_formula_moiety         'C47 H42 Br1 N3 O6'
_chemical_name_systematic        
"di-t-butyl 5-bromo-1',2-dioxo-1-trityl-1,1',2,4'-tetrahydrospiro[indole-3,3'-pyrido[4,3-b]indole]-2',5'-dicarboxylate"
_symmetry_cell_setting           orthorhombic
_symmetry_space_group_name_H-M   'P 21 21 21'
_symmetry_Int_Tables_number      19
_space_group_name_Hall           'P 2ac 2ab'
loop_
_symmetry_equiv_pos_site_id
_symmetry_equiv_pos_as_xyz
1 x,y,z
2 1/2-x,-y,1/2+z
3 1/2+x,1/2-y,-z
4 -x,1/2+y,1/2-z
_cell_length_a                   14.3087(6)
_cell_length_b                   15.2260(8)
_cell_length_c                   18.5087(9)
_cell_angle_alpha                90
_cell_angle_beta                 90
_cell_angle_gamma                90
_cell_volume                     4032.38
_exptl_crystal_colour            'light yellow'
_exptl_crystal_description       block
_cell_formula_units_Z            4
loop_
_atom_site_label
_atom_site_type_symbol
_atom_site_fract_x
_atom_site_fract_y
_atom_site_fract_z
Br1 Br 0.62750(3) 0.04723(2) 0.78232(2)
O1 O 0.94620(13) -0.08880(13) 0.46896(11)
O2 O 0.85826(15) 0.15055(15) 0.39852(12)
O3 O 0.70648(13) -0.03790(13) 0.48151(11)
O4 O 0.69170(12) 0.09922(13) 0.43626(11)
O5 O 1.11161(14) 0.07499(15) 0.67204(12)
O6 O 1.24207(13) 0.09050(14) 0.60525(11)
N1 N 0.86059(14) -0.15210(13) 0.56307(11)
N2 N 0.82372(14) 0.06239(14) 0.49641(12)
N3 N 1.10378(14) 0.10724(15) 0.55217(12)
C1 C 0.80649(16) -0.11538(17) 0.62074(14)
C2 C 0.76861(17) -0.15581(18) 0.68077(15)
H1 H 0.7789 -0.2153 0.6891
C3 C 0.71497(18) -0.10677(19) 0.72854(15)
H2 H 0.6886 -0.1333 0.7690
C4 C 0.70103(17) -0.01817(17) 0.71560(17)
C5 C 0.74243(18) 0.02358(18) 0.65793(16)
H3 H 0.7348 0.0836 0.6507
C6 C 0.79579(16) -0.02621(17) 0.61096(14)
C7 C 0.86151(18) 0.00366(16) 0.55247(14)
C8 C 0.89478(16) -0.08437(17) 0.52046(15)
C9 C 0.94487(17) 0.0451(2) 0.59360(14)
H4 H 0.9216 0.0867 0.6290
H5 H 0.9788 -0.0005 0.6191
C10 C 1.00854(18) 0.09039(18) 0.54313(15)
C11 C 0.97975(18) 0.12191(17) 0.47849(15)
C12 C 0.88405(19) 0.11453(18) 0.45309(15)
C13 C 1.05903(18) 0.16198(18) 0.44248(15)
C14 C 1.0707(2) 0.2039(2) 0.37610(18)
H6 H 1.0210 0.2100 0.3441
C15 C 1.1576(2) 0.2359(2) 0.35953(19)
H7 H 1.1669 0.2643 0.3156
C16 C 1.2323(2) 0.2267(2) 0.4072(2)
H8 H 1.2903 0.2494 0.3942
C17 C 1.2235(2) 0.1858(2) 0.47199(18)
H9 H 1.2738 0.1803 0.5034
C18 C 1.13557(19) 0.15226(18) 0.48941(15)
C19 C 0.89547(16) -0.24502(16) 0.56106(14)
C20 C 0.81596(17) -0.31112(18) 0.57459(14)
C21 C 0.8382(2) -0.3981(2) 0.58824(17)
H10 H 0.9006 -0.4143 0.5925
C22 C 0.7697(2) -0.4612(2) 0.5956(2)
H11 H 0.7861 -0.5193 0.6047
C23 C 0.6774(2) -0.4382(2) 0.58950(19)
H12 H 0.6310 -0.4804 0.5953
C24 C 0.6536(2) -0.3532(2) 0.57491(17)
H13 H 0.5910 -0.3376 0.5712
C25 C 0.72245(18) -0.2901(2) 0.56558(15)
H14 H 0.7057 -0.2330 0.5531
C26 C 0.92856(17) -0.27054(17) 0.48417(15)
C27 C 1.00583(18) -0.32504(18) 0.47480(16)
H15 H 1.0413 -0.3416 0.5147
C28 C 1.0303(2) -0.3548(2) 0.40691(19)
H16 H 1.0823 -0.3907 0.4012
C29 C 0.9783(2) -0.3315(2) 0.34808(19)
H17 H 0.9956 -0.3507 0.3023
C30 C 0.9000(2) -0.2793(2) 0.35677(18)
H18 H 0.8645 -0.2635 0.3167
C31 C 0.8744(2) -0.25078(18) 0.42463(15)
H19 H 0.8202 -0.2179 0.4304
C32 C 0.97510(17) -0.24752(17) 0.61765(15)
C33 C 1.0562(2) -0.2003(2) 0.60206(18)
H20 H 1.0611 -0.1706 0.5583
C34 C 1.1291(2) -0.1970(3) 0.6506(2)
H21 H 1.1823 -0.1645 0.6398
C35 C 1.1235(3) -0.2413(3) 0.7143(2)
H22 H 1.1734 -0.2404 0.7465
C36 C 1.0441(2) -0.2870(3) 0.73091(18)
H23 H 1.0398 -0.3164 0.7749
C37 C 0.9707(2) -0.2900(2) 0.68302(16)
H24 H 0.9171 -0.3213 0.6951
C38 C 0.73503(18) 0.0349(2) 0.46967(15)
C39 C 0.59636(18) 0.0859(2) 0.40583(17)
C40 C 0.5805(2) 0.1717(2) 0.3676(2)
H25 H 0.5817 0.2187 0.4021
H26 H 0.5208 0.1705 0.3439
H27 H 0.6289 0.1805 0.3324
C41 C 0.5950(2) 0.0105(2) 0.35358(19)
H28 H 0.6481 0.0145 0.3221
H29 H 0.5387 0.0127 0.3255
H30 H 0.5973 -0.0438 0.3798
C42 C 0.5298(2) 0.0748(3) 0.4680(2)
H31 H 0.5444 0.0216 0.4935
H32 H 0.4670 0.0718 0.4501
H33 H 0.5356 0.1239 0.5002
C43 C 1.15226(19) 0.08941(19) 0.61688(17)
C44 C 1.31029(19) 0.0816(2) 0.66669(17)
C45 C 1.2973(2) 0.1577(2) 0.7166(2)
H34 H 1.3022 0.2115 0.6898
H35 H 1.3447 0.1563 0.7534
H36 H 1.2368 0.1542 0.7388
C46 C 1.4023(2) 0.0866(3) 0.6269(2)
H37 H 1.4060 0.0396 0.5925
H38 H 1.4528 0.0817 0.6608
H39 H 1.4066 0.1419 0.6021
C47 C 1.2974(3) -0.0051(2) 0.7037(2)
H40 H 1.2378 -0.0061 0.7275
H41 H 1.3462 -0.0133 0.7386
H42 H 1.3000 -0.0514 0.6685
loop_
_geom_bond_atom_site_label_1
_geom_bond_atom_site_label_2
_geom_bond_site_symmetry_1
_geom_bond_site_symmetry_2
Br1 C4 1_555 1_555
O1 C8 1_555 1_555
O2 C12 1_555 1_555
O3 C38 1_555 1_555
O4 C38 1_555 1_555
O5 C43 1_555 1_555
O6 C43 1_555 1_555
N1 C1 1_555 1_555
N2 C7 1_555 1_555
N3 C10 1_555 1_555
C1 C2 1_555 1_555
C2 H1 1_555 1_555
C3 C2 1_555 1_555
H2 C3 1_555 1_555
C4 C3 1_555 1_555
C5 C4 1_555 1_555
H3 C5 1_555 1_555
C6 C1 1_555 1_555
C7 C6 1_555 1_555
C8 N1 1_555 1_555
C9 C7 1_555 1_555
H4 C9 1_555 1_555
H5 C9 1_555 1_555
C10 C9 1_555 1_555
C11 C10 1_555 1_555
C12 N2 1_555 1_555
C13 C11 1_555 1_555
C14 C13 1_555 1_555
H6 C14 1_555 1_555
C15 C14 1_555 1_555
H7 C15 1_555 1_555
C16 C15 1_555 1_555
H8 C16 1_555 1_555
C17 C16 1_555 1_555
H9 C17 1_555 1_555
C18 N3 1_555 1_555
C19 N1 1_555 1_555
C20 C19 1_555 1_555
C21 C20 1_555 1_555
H10 C21 1_555 1_555
C22 C21 1_555 1_555
H11 C22 1_555 1_555
C23 C22 1_555 1_555
H12 C23 1_555 1_555
C24 C23 1_555 1_555
H13 C24 1_555 1_555
C25 C20 1_555 1_555
H14 C25 1_555 1_555
C26 C19 1_555 1_555
C27 C26 1_555 1_555
H15 C27 1_555 1_555
C28 C27 1_555 1_555
H16 C28 1_555 1_555
C29 C28 1_555 1_555
H17 C29 1_555 1_555
C30 C29 1_555 1_555
H18 C30 1_555 1_555
C31 C26 1_555 1_555
H19 C31 1_555 1_555
C32 C19 1_555 1_555
C33 C32 1_555 1_555
H20 C33 1_555 1_555
C34 C33 1_555 1_555
H21 C34 1_555 1_555
C35 C34 1_555 1_555
H22 C35 1_555 1_555
C36 C35 1_555 1_555
H23 C36 1_555 1_555
C37 C32 1_555 1_555
H24 C37 1_555 1_555
C38 N2 1_555 1_555
C39 O4 1_555 1_555
C40 C39 1_555 1_555
H25 C40 1_555 1_555
H26 C40 1_555 1_555
H27 C40 1_555 1_555
C41 C39 1_555 1_555
H28 C41 1_555 1_555
H29 C41 1_555 1_555
H30 C41 1_555 1_555
C42 C39 1_555 1_555
H31 C42 1_555 1_555
H32 C42 1_555 1_555
H33 C42 1_555 1_555
C43 N3 1_555 1_555
C44 O6 1_555 1_555
C45 C44 1_555 1_555
H34 C45 1_555 1_555
H35 C45 1_555 1_555
H36 C45 1_555 1_555
C46 C44 1_555 1_555
H37 C46 1_555 1_555
H38 C46 1_555 1_555
H39 C46 1_555 1_555
C47 C44 1_555 1_555
H40 C47 1_555 1_555
H41 C47 1_555 1_555
H42 C47 1_555 1_555
C5 C6 1_555 1_555
C7 C8 1_555 1_555
C11 C12 1_555 1_555
C13 C18 1_555 1_555
C17 C18 1_555 1_555
C24 C25 1_555 1_555
C30 C31 1_555 1_555
C36 C37 1_555 1_555

#END
