
#######################################################################
#
#                 Cambridge Crystallographic Data Centre
#                                CCDC 
#
#######################################################################
#
# If this CIF has been generated from an entry in the Cambridge 
# Structural Database, then it will include bibliographic, chemical, 
# crystal, experimental, refinement or atomic coordinate data resulting 
# from the CCDC's data processing and validation procedures.
#
#######################################################################

data_ISUGUA
_chemical_formula_moiety         'C25 H21 N3 O2'
_chemical_name_systematic        
'ethyl 2-(3,3-dicyano-1,10b-dihydropyrrolo[2,1-a]isoquinolin-2(3H)-ylidene)-3-phenylpropanoate'
_symmetry_cell_setting           monoclinic
_symmetry_space_group_name_H-M   'P 21/c'
_symmetry_Int_Tables_number      14
_space_group_name_Hall           '-P 2ybc'
loop_
_symmetry_equiv_pos_site_id
_symmetry_equiv_pos_as_xyz
1 x,y,z
2 -x,1/2+y,1/2-z
3 -x,-y,-z
4 x,1/2-y,1/2+z
_cell_length_a                   16.156(3)
_cell_length_b                   10.118(2)
_cell_length_c                   25.816(5)
_cell_angle_alpha                90
_cell_angle_beta                 105.14(3)
_cell_angle_gamma                90
_cell_volume                     4073.57
_exptl_crystal_colour            red
_exptl_crystal_description       plate
_cell_formula_units_Z            8
loop_
_atom_site_label
_atom_site_type_symbol
_atom_site_fract_x
_atom_site_fract_y
_atom_site_fract_z
O1 O 0.17598(10) 0.26243(14) 0.15371(7)
O2 O 0.19506(9) 0.04925(13) 0.13721(6)
N1 N -0.05556(12) 0.40179(17) 0.17400(10)
N2 N 0.14289(14) 0.43479(19) 0.24873(8)
N3 N 0.03930(13) 0.4442(2) 0.07325(8)
C1 C -0.27474(14) 0.5148(2) 0.21725(9)
H1 H -0.2883 0.6039 0.2186
C2 C -0.32797(15) 0.4201(3) 0.22980(9)
H2 H -0.3773 0.4457 0.2393
C3 C -0.30834(14) 0.2879(2) 0.22838(9)
H3 H -0.3441 0.2247 0.2373
C4 C -0.23550(13) 0.2490(2) 0.21372(8)
H4 H -0.2224 0.1597 0.2126
C5 C -0.18205(13) 0.3434(2) 0.20064(9)
C6 C -0.20096(13) 0.4782(2) 0.20258(8)
C7 C -0.14284(14) 0.5743(2) 0.18928(9)
H5 H -0.1549 0.6640 0.1903
C8 C -0.07310(14) 0.53609(19) 0.17574(9)
H6 H -0.0318(18) 0.597(3) 0.1683(11)
C9 C -0.07331(13) 0.1768(2) 0.17813(9)
H7 H -0.0723(19) 0.121(3) 0.1996(12)
C10 C 0.01182(12) 0.20084(18) 0.16610(8)
C11 C 0.02395(13) 0.35315(19) 0.16510(9)
C12 C 0.09617(14) 0.39701(19) 0.21065(9)
C13 C 0.03507(13) 0.4022(2) 0.11324(9)
C14 C 0.06726(12) 0.10843(18) 0.15920(8)
C15 C 0.15054(12) 0.14932(19) 0.14987(9)
C16 C 0.27923(13) 0.0862(2) 0.13036(10)
H8 H 0.3149 0.1218 0.1636
H9 H 0.2729 0.1531 0.1027
C17 C 0.31954(16) -0.0347(2) 0.11473(12)
H10 H 0.2851 -0.0669 0.0810
H11 H 0.3237 -0.1015 0.1417
H12 H 0.3759 -0.0137 0.1114
C18 C 0.04719(13) -0.03719(18) 0.16286(9)
H13 H 0.1000 -0.0871 0.1683
H14 H 0.0254 -0.0509 0.1941
C19 C -0.01735(13) -0.09128(17) 0.11395(8)
C20 C -0.09786(14) -0.13107(19) 0.11720(9)
H15 H -0.1121 -0.1235 0.1497
C21 C -0.15755(15) -0.1818(2) 0.07322(11)
H16 H -0.2114 -0.2072 0.0763
C22 C -0.13738(17) -0.1947(2) 0.02503(11)
H17 H -0.1772 -0.2294 -0.0046
C23 C -0.05741(18) -0.1558(3) 0.02093(10)
H18 H -0.0435 -0.1645 -0.0117
C24 C 0.00254(15) -0.1038(2) 0.06496(10)
H19 H 0.0560 -0.0773 0.0616
C25 C -0.0897(3) 0.3063(4) 0.2010(2)
H20 H -0.0558 0.3078 0.2385
O3 O 0.34651(10) 0.37995(14) 0.10285(8)
O4 O 0.31769(8) 0.59302(13) 0.11414(6)
N4 N 0.56836(10) 0.27039(15) 0.05837(7)
N5 N 0.36346(13) 0.21894(19) 0.00123(8)
N6 N 0.50048(13) 0.1820(2) 0.16725(8)
C27 C 0.79935(13) 0.1962(2) 0.02230(8)
H22 H 0.8148 0.1102 0.0162
C28 C 0.84878(13) 0.3012(2) 0.01301(9)
H23 H 0.8973 0.2851 0.0010
C29 C 0.82646(13) 0.4292(2) 0.02154(8)
H24 H 0.8591 0.4994 0.0145
C30 C 0.75518(12) 0.4531(2) 0.04061(8)
H25 H 0.7403 0.5394 0.0466
C31 C 0.70617(12) 0.34897(18) 0.05068(8)
C32 C 0.72693(13) 0.21842(19) 0.04068(8)
C33 C 0.67031(14) 0.1118(2) 0.04820(9)
H26 H 0.6878 0.0244 0.0475
C34 C 0.59416(14) 0.13854(19) 0.05607(9)
H27 H 0.5481(15) 0.070(2) 0.0593(9)
C35 C 0.63580(12) 0.36721(18) 0.07840(8)
H28 H 0.6597 0.3523 0.1169
C36 C 0.58630(12) 0.49515(18) 0.07093(8)
H29 H 0.6154 0.5611 0.0965
H30 H 0.5788 0.5293 0.0349
C37 C 0.50139(12) 0.45833(18) 0.08062(8)
C38 C 0.49399(12) 0.30560(18) 0.07678(8)
C39 C 0.49500(13) 0.24085(19) 0.12891(9)
C40 C 0.41682(13) 0.25898(19) 0.03558(9)
C41 C 0.44462(12) 0.54439(18) 0.08992(8)
C42 C 0.36523(12) 0.49537(19) 0.10254(9)
C43 C 0.23841(13) 0.5510(2) 0.12611(10)
H31 H 0.2509 0.4953 0.1578
H32 H 0.2033 0.5012 0.0963
C44 C 0.19223(14) 0.6736(2) 0.13554(9)
H33 H 0.1788 0.7267 0.1036
H34 H 0.2281 0.7231 0.1646
H35 H 0.1402 0.6495 0.1445
C45 C 0.45962(12) 0.69166(18) 0.08698(8)
H36 H 0.4795 0.7093 0.0553
H37 H 0.4052 0.7366 0.0824
C46 C 0.52332(13) 0.75071(18) 0.13516(8)
C47 C 0.59256(14) 0.8228(2) 0.12812(9)
H38 H 0.5998 0.8326 0.0938
C48 C 0.65101(16) 0.8804(2) 0.17093(10)
H39 H 0.6971 0.9280 0.1653
C49 C 0.64076(18) 0.8671(3) 0.22187(10)
H40 H 0.6796 0.9062 0.2508
C50 C 0.57291(18) 0.7960(3) 0.22974(10)
H41 H 0.5661 0.7866 0.2642
C51 C 0.51433(15) 0.7379(2) 0.18686(9)
H42 H 0.4686 0.6899 0.1928
C26? C -0.1172(3) 0.3096(4) 0.1682(3)
H21? H -0.1492 0.3110 0.1303
loop_
_geom_bond_atom_site_label_1
_geom_bond_atom_site_label_2
_geom_bond_site_symmetry_1
_geom_bond_site_symmetry_2
O1 C15 1_555 1_555
O2 C15 1_555 1_555
N1 C8 1_555 1_555
N2 C12 1_555 1_555
N3 C13 1_555 1_555
C1 H1 1_555 1_555
C2 C1 1_555 1_555
H2 C2 1_555 1_555
C3 C2 1_555 1_555
H3 C3 1_555 1_555
C4 C3 1_555 1_555
H4 C4 1_555 1_555
C5 C4 1_555 1_555
C6 C1 1_555 1_555
C7 C6 1_555 1_555
H5 C7 1_555 1_555
C8 C7 1_555 1_555
H6 C8 1_555 1_555
C9 H7 1_555 1_555
C10 C9 1_555 1_555
C11 N1 1_555 1_555
C12 C11 1_555 1_555
C13 C11 1_555 1_555
C14 C10 1_555 1_555
C15 C14 1_555 1_555
C16 O2 1_555 1_555
H8 C16 1_555 1_555
H9 C16 1_555 1_555
C17 C16 1_555 1_555
H10 C17 1_555 1_555
H11 C17 1_555 1_555
H12 C17 1_555 1_555
C18 C14 1_555 1_555
H13 C18 1_555 1_555
H14 C18 1_555 1_555
C19 C18 1_555 1_555
C20 C19 1_555 1_555
H15 C20 1_555 1_555
C21 C20 1_555 1_555
H16 C21 1_555 1_555
C22 C21 1_555 1_555
H17 C22 1_555 1_555
C23 C22 1_555 1_555
H18 C23 1_555 1_555
C24 C19 1_555 1_555
H19 C24 1_555 1_555
C25 N1 1_555 1_555
H20 C25 1_555 1_555
O3 C42 1_555 1_555
O4 C42 1_555 1_555
N4 C34 1_555 1_555
N5 C40 1_555 1_555
N6 C39 1_555 1_555
C27 H22 1_555 1_555
C28 C27 1_555 1_555
H23 C28 1_555 1_555
C29 C28 1_555 1_555
H24 C29 1_555 1_555
C30 C29 1_555 1_555
H25 C30 1_555 1_555
C31 C30 1_555 1_555
C32 C27 1_555 1_555
C33 C32 1_555 1_555
H26 C33 1_555 1_555
C34 C33 1_555 1_555
H27 C34 1_555 1_555
C35 N4 1_555 1_555
H28 C35 1_555 1_555
C36 C35 1_555 1_555
H29 C36 1_555 1_555
H30 C36 1_555 1_555
C37 C36 1_555 1_555
C38 N4 1_555 1_555
C39 C38 1_555 1_555
C40 C38 1_555 1_555
C41 C37 1_555 1_555
C42 C41 1_555 1_555
C43 O4 1_555 1_555
H31 C43 1_555 1_555
H32 C43 1_555 1_555
C44 C43 1_555 1_555
H33 C44 1_555 1_555
H34 C44 1_555 1_555
H35 C44 1_555 1_555
C45 C41 1_555 1_555
H36 C45 1_555 1_555
H37 C45 1_555 1_555
C46 C45 1_555 1_555
C47 C46 1_555 1_555
H38 C47 1_555 1_555
C48 C47 1_555 1_555
H39 C48 1_555 1_555
C49 C48 1_555 1_555
H40 C49 1_555 1_555
C50 C49 1_555 1_555
H41 C50 1_555 1_555
C51 C46 1_555 1_555
H42 C51 1_555 1_555
C5 C6 1_555 1_555
C5 C25 1_555 1_555
C9 C25 1_555 1_555
C10 C11 1_555 1_555
C23 C24 1_555 1_555
C31 C32 1_555 1_555
C31 C35 1_555 1_555
C37 C38 1_555 1_555
C50 C51 1_555 1_555

#END
