
#######################################################################
#
#                 Cambridge Crystallographic Data Centre
#                                CCDC 
#
#######################################################################
#
# If this CIF has been generated from an entry in the Cambridge 
# Structural Database, then it will include bibliographic, chemical, 
# crystal, experimental, refinement or atomic coordinate data resulting 
# from the CCDC's data processing and validation procedures.
#
#######################################################################

data_ISUHIP
_chemical_formula_moiety         'C24 H19 Br1 N4 O2'
_chemical_name_systematic        
'ethyl 1-(4-bromobenzyl)-3,3-dicyano-2-methylene-1,2,3,10b-tetrahydropyrrolo[2,1-a]phthalazine-1-carboxylate'
_symmetry_cell_setting           monoclinic
_symmetry_space_group_name_H-M   'P 21/n'
_symmetry_Int_Tables_number      14
_space_group_name_Hall           '-P 2yn'
loop_
_symmetry_equiv_pos_site_id
_symmetry_equiv_pos_as_xyz
1 x,y,z
2 1/2-x,1/2+y,1/2-z
3 -x,-y,-z
4 1/2+x,1/2-y,1/2+z
_cell_length_a                   8.775(2)
_cell_length_b                   16.891(3)
_cell_length_c                   14.538(4)
_cell_angle_alpha                90
_cell_angle_beta                 93.444(3)
_cell_angle_gamma                90
_cell_volume                     2150.91
_exptl_crystal_colour            colorless
_exptl_crystal_description       block
_cell_formula_units_Z            4
loop_
_atom_site_label
_atom_site_type_symbol
_atom_site_fract_x
_atom_site_fract_y
_atom_site_fract_z
Br1 Br 0.5206(6) 0.65434(11) 1.01452(13)
O1 O 0.5260(2) 0.36975(10) 0.49296(11)
O2 O 0.4222(10) 0.2688(7) 0.5618(7)
N1 N 0.2357(2) 0.31562(10) 0.71362(12)
N2 N 0.1717(2) 0.27765(11) 0.78796(12)
N3 N 0.0777(3) 0.47861(16) 0.81482(18)
N4 N -0.1060(3) 0.34706(16) 0.58621(19)
C1 C 0.4194(2) 0.39149(12) 0.63981(13)
C2 C 0.2586(2) 0.42501(12) 0.61813(14)
C3 C 0.1474(2) 0.38344(13) 0.68013(15)
C4 C 0.3950(2) 0.34267(12) 0.72765(14)
H1 H 0.3995 0.3796 0.7798
C5 C 0.4931(3) 0.27287(13) 0.75516(14)
C6 C 0.6440(3) 0.26224(15) 0.73474(16)
H2 H 0.6899 0.2977 0.6961
C7 C 0.7264(3) 0.19881(17) 0.77191(18)
H3 H 0.8275 0.1918 0.7577
C8 C 0.6601(4) 0.14594(16) 0.82986(19)
H4 H 0.7167 0.1038 0.8549
C9 C 0.5100(4) 0.15565(14) 0.85062(17)
H5 H 0.4656 0.1200 0.8897
C10 C 0.4243(3) 0.21882(13) 0.81323(14)
C11 C 0.2653(3) 0.23139(13) 0.83343(15)
H6 H 0.2287 0.2039 0.8829
C12 C 0.4583(2) 0.34250(12) 0.55511(14)
C13 C 0.4699(10) 0.2156(4) 0.4889(5)
H7 H 0.5794 0.2190 0.4838
H8 H 0.4196 0.2302 0.4301
C14 C 0.4261(13) 0.1336(4) 0.5143(6)
H9 H 0.4664 0.1220 0.5757
H10 H 0.4668 0.0967 0.4720
H11 H 0.3168 0.1292 0.5116
C15 C 0.5420(3) 0.45765(13) 0.65326(15)
H12 H 0.6420 0.4337 0.6499
H13 H 0.5285 0.4946 0.6024
C16 C 0.5400(3) 0.50354(13) 0.74194(15)
C17 C 0.6348(17) 0.4903(9) 0.8218(11)
H14 H 0.7052 0.4491 0.8216
C18 C 0.6284(11) 0.5358(7) 0.9008(6)
H15 H 0.6973 0.5271 0.9509
C19 C 0.5207(11) 0.5930(7) 0.9045(8)
C20 C 0.4208(12) 0.6103(7) 0.8341(7)
H16 H 0.3449 0.6484 0.8377
C21 C 0.441(2) 0.5659(12) 0.7548(14)
H17 H 0.3790 0.5801 0.7032
C22 C 0.2175(3) 0.47984(14) 0.55703(15)
H18 H 0.2901 0.5027 0.5212
H19 H 0.1160 0.4957 0.5497
C23 C 0.1061(3) 0.43790(15) 0.75605(17)
C24 C 0.0046(3) 0.35982(15) 0.62830(18)
O3? O 0.3792(18) 0.2703(14) 0.5518(14)
C25? C 0.4075(19) 0.2143(9) 0.4777(9)
H20? H 0.4534 0.2416 0.4276
H21? H 0.3120 0.1910 0.4540
C26? C 0.511(3) 0.1516(10) 0.5150(9)
H22? H 0.4690 0.1277 0.5676
H23? H 0.6090 0.1744 0.5331
H24? H 0.5240 0.1121 0.4686
Br2? Br 0.5792(15) 0.6431(5) 1.0125(2)
C27? C 0.4546(18) 0.5992(11) 0.8353(13)
H25? H 0.3895 0.6411 0.8464
C28? C 0.5671(15) 0.5838(10) 0.9039(11)
C29? C 0.6739(15) 0.5257(9) 0.8875(10)
H26? H 0.7521 0.5138 0.9314
C30? C 0.6610(19) 0.4857(11) 0.8041(11)
H27? H 0.7325 0.4476 0.7901
C31? C 0.427(3) 0.5600(16) 0.7517(16)
H28? H 0.3452 0.5699 0.7093
loop_
_geom_bond_atom_site_label_1
_geom_bond_atom_site_label_2
_geom_bond_site_symmetry_1
_geom_bond_site_symmetry_2
Br1 C19 1_555 1_555
O1 C12 1_555 1_555
O2 C12 1_555 1_555
N1 N2 1_555 1_555
N2 C11 1_555 1_555
N3 C23 1_555 1_555
N4 C24 1_555 1_555
C1 C2 1_555 1_555
C2 C3 1_555 1_555
C3 N1 1_555 1_555
C4 N1 1_555 1_555
H1 C4 1_555 1_555
C5 C4 1_555 1_555
C6 C5 1_555 1_555
H2 C6 1_555 1_555
C7 C6 1_555 1_555
H3 C7 1_555 1_555
C8 C7 1_555 1_555
H4 C8 1_555 1_555
C9 C8 1_555 1_555
H5 C9 1_555 1_555
C10 C5 1_555 1_555
C11 C10 1_555 1_555
H6 C11 1_555 1_555
C12 C1 1_555 1_555
C13 O2 1_555 1_555
H7 C13 1_555 1_555
H8 C13 1_555 1_555
C14 C13 1_555 1_555
H9 C14 1_555 1_555
H10 C14 1_555 1_555
H11 C14 1_555 1_555
C15 C1 1_555 1_555
H12 C15 1_555 1_555
H13 C15 1_555 1_555
C16 C15 1_555 1_555
C17 C16 1_555 1_555
H14 C17 1_555 1_555
C18 C17 1_555 1_555
H15 C18 1_555 1_555
C19 C18 1_555 1_555
C20 C19 1_555 1_555
H16 C20 1_555 1_555
C21 C16 1_555 1_555
H17 C21 1_555 1_555
C22 C2 1_555 1_555
H18 C22 1_555 1_555
H19 C22 1_555 1_555
C23 C3 1_555 1_555
C24 C3 1_555 1_555
C1 C4 1_555 1_555
C9 C10 1_555 1_555
C20 C21 1_555 1_555

#END
