
#######################################################################
#
#                 Cambridge Crystallographic Data Centre
#                                CCDC 
#
#######################################################################
#
# If this CIF has been generated from an entry in the Cambridge 
# Structural Database, then it will include bibliographic, chemical, 
# crystal, experimental, refinement or atomic coordinate data resulting 
# from the CCDC's data processing and validation procedures.
#
#######################################################################

data_ISULUF
_chemical_formula_moiety         'C12 H16 N2 O4 S1'
_chemical_name_systematic        
'ethyl 5-benzyl-1,2,5-thiadiazolidine-3-carboxylate 1,1-dioxide'
_symmetry_cell_setting           orthorhombic
_symmetry_space_group_name_H-M   'P 21 21 21'
_symmetry_Int_Tables_number      19
_space_group_name_Hall           'P 2ac 2ab'
loop_
_symmetry_equiv_pos_site_id
_symmetry_equiv_pos_as_xyz
1 x,y,z
2 1/2-x,-y,1/2+z
3 -x,1/2+y,1/2-z
4 1/2+x,1/2-y,-z
_cell_length_a                   5.7221(1)
_cell_length_b                   9.3754(2)
_cell_length_c                   24.6691(5)
_cell_angle_alpha                90
_cell_angle_beta                 90
_cell_angle_gamma                90
_cell_volume                     1323.42
_exptl_crystal_colour            colorless
_exptl_crystal_description       plate
_cell_formula_units_Z            4
loop_
_atom_site_label
_atom_site_type_symbol
_atom_site_fract_x
_atom_site_fract_y
_atom_site_fract_z
C1 C 0.7863(3) -0.01581(19) 0.77310(7)
N1 N 0.5028(3) 0.12144(15) 0.86205(6)
O1 O 0.6699(2) 0.52611(13) 0.93484(5)
S1 S 0.31058(7) 0.08981(5) 0.911155(17)
C2 C 0.9486(3) -0.0369(2) 0.73235(8)
N2 N 0.4590(3) 0.16859(16) 0.95892(6)
H1 H 0.533(4) 0.115(2) 0.9769(8)
O2 O 0.3469(2) 0.45591(13) 0.97887(5)
C3 C 0.9309(3) 0.0383(2) 0.68408(8)
O3 O 0.1002(2) 0.16767(15) 0.90132(5)
C4 C 0.7517(4) 0.1347(2) 0.67715(8)
O4 O 0.2928(2) -0.05978(13) 0.92136(5)
C5 C 0.5858(4) 0.1535(2) 0.71756(8)
C6 C 0.6004(3) 0.07825(19) 0.76581(7)
C7 C 0.4095(3) 0.0924(2) 0.80785(7)
C8 C 0.5840(3) 0.26794(19) 0.87138(7)
C9 C 0.5997(3) 0.28271(19) 0.93426(7)
C10 C 0.5187(3) 0.42948(19) 0.95257(7)
C11 C 0.6260(4) 0.67413(19) 0.95090(8)
C12 C 0.7944(4) 0.7650(2) 0.91963(8)
H2 H 0.797(4) -0.066(2) 0.8076(9)
H3 H 1.068(4) -0.109(2) 0.7381(8)
H4 H 1.047(4) 0.026(2) 0.6570(9)
H5 H 0.740(4) 0.191(2) 0.6449(10)
H6 H 0.459(4) 0.219(2) 0.7122(8)
H7 H 0.749(4) 0.273(2) 0.9445(8)
H8 H 0.317(4) 0.004(3) 0.8080(9)
H9 H 0.294(4) 0.168(2) 0.7962(8)
H10 H 0.735(4) 0.281(2) 0.8558(9)
H11 H 0.481(3) 0.339(2) 0.8550(8)
H12 H 0.462(4) 0.700(2) 0.9421(8)
H13 H 0.659(4) 0.6846(19) 0.9897(8)
H14 H 0.787(4) 0.863(3) 0.9318(9)
H15 H 0.957(4) 0.733(2) 0.9269(8)
H16 H 0.761(4) 0.756(2) 0.8797(9)
loop_
_geom_bond_atom_site_label_1
_geom_bond_atom_site_label_2
_geom_bond_site_symmetry_1
_geom_bond_site_symmetry_2
C1 C2 1_555 1_555
N1 S1 1_555 1_555
O1 C10 1_555 1_555
S1 N2 1_555 1_555
C2 C3 1_555 1_555
N2 H1 1_555 1_555
O2 C10 1_555 1_555
C3 C4 1_555 1_555
O3 S1 1_555 1_555
C4 C5 1_555 1_555
O4 S1 1_555 1_555
C5 C6 1_555 1_555
C6 C1 1_555 1_555
C7 N1 1_555 1_555
C8 N1 1_555 1_555
C9 N2 1_555 1_555
C10 C9 1_555 1_555
C11 O1 1_555 1_555
C12 C11 1_555 1_555
H2 C1 1_555 1_555
H3 C2 1_555 1_555
H4 C3 1_555 1_555
H5 C4 1_555 1_555
H6 C5 1_555 1_555
H7 C9 1_555 1_555
H8 C7 1_555 1_555
H9 C7 1_555 1_555
H10 C8 1_555 1_555
H11 C8 1_555 1_555
H12 C11 1_555 1_555
H13 C11 1_555 1_555
H14 C12 1_555 1_555
H15 C12 1_555 1_555
H16 C12 1_555 1_555
C6 C7 1_555 1_555
C8 C9 1_555 1_555

#END
