
#######################################################################
#
#                 Cambridge Crystallographic Data Centre
#                                CCDC 
#
#######################################################################
#
# If this CIF has been generated from an entry in the Cambridge 
# Structural Database, then it will include bibliographic, chemical, 
# crystal, experimental, refinement or atomic coordinate data resulting 
# from the CCDC's data processing and validation procedures.
#
#######################################################################

data_ISUMIS01
_chemical_formula_moiety         'C20 H24 O7'
_chemical_name_systematic        
(+-)-5,7-dihydro-1,2,3,9,10,11-hexamethoxydibenzo(c,e)oxepine
_symmetry_cell_setting           monoclinic
_symmetry_space_group_name_H-M   'C 2/c'
_symmetry_Int_Tables_number      15
_space_group_name_Hall           '-C 2yn'
loop_
_symmetry_equiv_pos_site_id
_symmetry_equiv_pos_as_xyz
1 x,y,z
2 1/2+x,1/2+y,z
3 -x,y,1/2-z
4 1/2-x,1/2+y,1/2-z
5 -x,-y,-z
6 1/2-x,1/2-y,-z
7 x,-y,1/2+z
8 1/2+x,1/2-y,1/2+z
_cell_length_a                   15.3519(4)
_cell_length_b                   10.4044(3)
_cell_length_c                   11.8506(4)
_cell_angle_alpha                90
_cell_angle_beta                 109.607(2)
_cell_angle_gamma                90
_cell_volume                     1783.11
_exptl_crystal_colour            colorless
_exptl_crystal_description       plate
_chemical_melting_point          '417-419 K'
_cell_formula_units_Z            4
_exptl_crystal_recrystallization_method 'hexane/ethyl acetate'
loop_
_atom_site_label
_atom_site_type_symbol
_atom_site_fract_x
_atom_site_fract_y
_atom_site_fract_z
C1 C 0.60555(10) 0.54245(12) 0.33594(11)
C2 C 0.70119(10) 0.54458(12) 0.36558(11)
C3 C 0.74416(10) 0.64879(13) 0.32986(12)
C4 C 0.69164(10) 0.75234(13) 0.27117(12)
C5 C 0.59581(10) 0.74971(13) 0.24088(12)
C6 C 0.53841(11) 0.86214(14) 0.17609(13)
C7 C 0.55105(10) 0.64278(13) 0.26840(11)
C8 C 0.59447(13) 0.40214(17) 0.49088(13)
C9 C 0.82017(13) 0.46454(18) 0.53795(14)
C10 C 0.88365(12) 0.73873(17) 0.31678(18)
O1 O 0.56046(7) 0.44207(9) 0.36779(8)
O2 O 0.75238(7) 0.43965(8) 0.42204(9)
O3 O 0.83726(7) 0.63638(9) 0.35454(9)
O4 O 0.50000 0.93726(12) 0.25000
H1 H 0.7190(11) 0.8232(16) 0.2455(14)
H2 H 0.5747(11) 0.9227(16) 0.1488(14)
H3 H 0.4883(11) 0.8307(14) 0.1045(13)
H4 H 0.6399(14) 0.3340(18) 0.5043(15)
H5 H 0.6205(13) 0.4753(18) 0.5448(17)
H6 H 0.5432(13) 0.3687(16) 0.5087(15)
H7 H 0.8330(17) 0.558(3) 0.554(2)
H8 H 0.869(2) 0.416(3) 0.548(3)
H9 H 0.7937(16) 0.451(2) 0.604(2)
H10 H 0.8520(12) 0.7605(16) 0.2259(16)
H11 H 0.8857(13) 0.815(2) 0.3615(17)
H12 H 0.9483(13) 0.7045(18) 0.3358(14)
C1B C 0.39445(10) 0.54245(12) 0.16406(11)
C2B C 0.29881(10) 0.54458(12) 0.13442(11)
C3B C 0.25584(10) 0.64879(13) 0.17014(12)
C4B C 0.30836(10) 0.75234(13) 0.22883(12)
C5B C 0.40419(10) 0.74971(13) 0.25912(12)
C6B C 0.46159(11) 0.86214(14) 0.32391(13)
C7B C 0.44895(10) 0.64278(13) 0.23160(11)
C8B C 0.40553(13) 0.40214(17) 0.00912(13)
C9B C 0.17983(13) 0.46454(18) -0.03795(14)
C10B C 0.11635(12) 0.73873(17) 0.18322(18)
O1B O 0.43954(7) 0.44207(9) 0.13221(8)
O2B O 0.24762(7) 0.43965(8) 0.07796(9)
O3B O 0.16274(7) 0.63638(9) 0.14546(9)
H1B H 0.2810(11) 0.8232(16) 0.2545(14)
H2B H 0.4253(11) 0.9227(16) 0.3512(14)
H3B H 0.5117(11) 0.8307(14) 0.3955(13)
H4B H 0.3601(14) 0.3340(18) -0.0043(15)
H5B H 0.3795(13) 0.4753(18) -0.0448(17)
H6B H 0.4568(13) 0.3687(16) -0.0087(15)
H7B H 0.1670(17) 0.558(3) -0.054(2)
H8B H 0.131(2) 0.416(3) -0.048(3)
H9B H 0.2063(16) 0.451(2) -0.104(2)
H10B H 0.1480(12) 0.7605(16) 0.2741(16)
H11B H 0.1143(13) 0.815(2) 0.1385(17)
H12B H 0.0517(13) 0.7045(18) 0.1642(14)
loop_
_geom_bond_atom_site_label_1
_geom_bond_atom_site_label_2
_geom_bond_site_symmetry_1
_geom_bond_site_symmetry_2
C1 C2 1_555 1_555
C2 C3 1_555 1_555
C3 C4 1_555 1_555
C4 C5 1_555 1_555
C5 C6 1_555 1_555
C6 O4 1_555 1_555
C7 C1 1_555 1_555
C8 O1 1_555 1_555
C9 O2 1_555 1_555
C10 O3 1_555 1_555
O1 C1 1_555 1_555
O2 C2 1_555 1_555
O3 C3 1_555 1_555
O4 C6B 1_555 1_555
H1 C4 1_555 1_555
H2 C6 1_555 1_555
H3 C6 1_555 1_555
H4 C8 1_555 1_555
H5 C8 1_555 1_555
H6 C8 1_555 1_555
H7 C9 1_555 1_555
H8 C9 1_555 1_555
H9 C9 1_555 1_555
H10 C10 1_555 1_555
H11 C10 1_555 1_555
H12 C10 1_555 1_555
C1B C2B 1_555 1_555
C2B C3B 1_555 1_555
C3B C4B 1_555 1_555
C4B C5B 1_555 1_555
C5B C6B 1_555 1_555
C6B H2B 1_555 1_555
C7B C7 1_555 1_555
C8B O1B 1_555 1_555
C9B O2B 1_555 1_555
C10B O3B 1_555 1_555
O1B C1B 1_555 1_555
O2B C2B 1_555 1_555
O3B C3B 1_555 1_555
H1B C4B 1_555 1_555
H3B C6B 1_555 1_555
H4B C8B 1_555 1_555
H5B C8B 1_555 1_555
H6B C8B 1_555 1_555
H7B C9B 1_555 1_555
H8B C9B 1_555 1_555
H9B C9B 1_555 1_555
H10B C10B 1_555 1_555
H11B C10B 1_555 1_555
H12B C10B 1_555 1_555
C5 C7 1_555 1_555
C1B C7B 1_555 1_555
C5B C7B 1_555 1_555

#END
