
#######################################################################
#
#                 Cambridge Crystallographic Data Centre
#                                CCDC 
#
#######################################################################
#
# If this CIF has been generated from an entry in the Cambridge 
# Structural Database, then it will include bibliographic, chemical, 
# crystal, experimental, refinement or atomic coordinate data resulting 
# from the CCDC's data processing and validation procedures.
#
#######################################################################

data_ISUMIU
_chemical_formula_moiety         'C22 H22 N2 O2 S1'
_chemical_name_systematic        
'2,3-dibenzyl-4-phenyl-1,2,5-thiadiazolidine 1,1-dioxide'
_symmetry_cell_setting           monoclinic
_symmetry_space_group_name_H-M   'P 21/c'
_symmetry_Int_Tables_number      14
_space_group_name_Hall           '-P 2ybc'
loop_
_symmetry_equiv_pos_site_id
_symmetry_equiv_pos_as_xyz
1 x,y,z
2 -x,1/2+y,1/2-z
3 -x,-y,-z
4 x,1/2-y,1/2+z
_cell_length_a                   10.1061(3)
_cell_length_b                   18.1581(5)
_cell_length_c                   20.5423(6)
_cell_angle_alpha                90
_cell_angle_beta                 90.2280(10)
_cell_angle_gamma                90
_cell_volume                     3769.64
_exptl_crystal_colour            colorless
_exptl_crystal_description       block
_cell_formula_units_Z            8
loop_
_atom_site_label
_atom_site_type_symbol
_atom_site_fract_x
_atom_site_fract_y
_atom_site_fract_z
S1 S 0.29721(3) 0.50817(2) 0.73602(2)
O1 O 0.42379(10) 0.54241(6) 0.72368(6)
O2 O 0.28643(11) 0.43312(6) 0.71565(6)
N1 N 0.25035(12) 0.51462(7) 0.81222(6)
N2 N 0.17910(12) 0.56037(7) 0.70589(6)
C1 C -0.05705(15) 0.47373(8) 0.73604(8)
H1 H 0.0167 0.4488 0.7179
C2 C -0.15329(14) 0.58203(8) 0.78247(7)
H2 H -0.1452 0.6315 0.7971
C3 C -0.04290(14) 0.54549(8) 0.75805(7)
C4 C 0.14095(15) 0.70531(8) 0.86835(7)
C5 C -0.28781(14) 0.47449(9) 0.76527(7)
H3 H -0.3706 0.4500 0.7683
C6 C 0.08781(14) 0.58612(8) 0.75764(7)
H4 H 0.0689 0.6394 0.7497
C7 C -0.27519(14) 0.54677(8) 0.78557(7)
H5 H -0.3501 0.5724 0.8017
C8 C 0.10765(16) 0.69879(9) 0.93390(8)
H6 H 0.1530 0.6642 0.9606
C9 C 0.16635(14) 0.57990(8) 0.82278(7)
H7 H 0.1026 0.5688 0.8586
C10 C 0.07316(16) 0.75652(8) 0.83046(8)
H8 H 0.0952 0.7621 0.7858
C11 C 0.29795(15) 0.49449(8) 0.92921(8)
C12 C 0.18967(16) 0.45109(9) 0.94615(8)
H9 H 0.1504 0.4194 0.9148
C13 C 0.23937(14) 0.65229(8) 0.83922(7)
H10 H 0.3119 0.6426 0.8706
H11 H 0.2782 0.6736 0.7993
C14 C -0.17831(16) 0.43807(9) 0.74035(8)
H12 H -0.1864 0.3885 0.7262
C15 C -0.02657(17) 0.79973(9) 0.85722(9)
H13 H -0.0730 0.8340 0.8307
C16 C 0.35232(15) 0.49329(9) 0.86081(8)
H14 H 0.4281 0.5277 0.8579
H15 H 0.3850 0.4432 0.8507
C17 C 0.35519(17) 0.53934(9) 0.97637(8)
H16 H 0.4299 0.5686 0.9656
C18 C 0.00881(18) 0.74230(10) 0.96052(9)
H17 H -0.0130 0.7373 1.0053
C19 C -0.05810(17) 0.79282(9) 0.92241(9)
H18 H -0.1254 0.8227 0.9409
C20 C 0.3041(2) 0.54181(10) 1.03917(8)
H19 H 0.3444 0.5723 1.0712
C21 C 0.13912(18) 0.45418(10) 1.00880(9)
H20 H 0.0653 0.4245 1.0200
C22 C 0.19492(19) 0.49990(10) 1.05493(8)
H21 H 0.1583 0.5025 1.0974
H22 H 0.2147(19) 0.5964(11) 0.6863(9)
S2 S 0.43081(3) 0.73542(2) 0.65675(2)
O3 O 0.30453(10) 0.69973(7) 0.66573(5)
O4 O 0.43352(12) 0.81143(6) 0.67485(5)
N3 N 0.49055(12) 0.72696(7) 0.58353(6)
N4 N 0.54550(12) 0.68625(7) 0.69329(6)
C23 C 0.63505(14) 0.54031(8) 0.53666(7)
C24 C 0.77411(14) 0.70854(8) 0.65156(7)
C25 C 0.69287(15) 0.54921(8) 0.47546(7)
H23 H 0.6594 0.5856 0.4465
C26 C 0.47842(14) 0.75416(8) 0.46689(7)
C27 C 0.52526(14) 0.59133(8) 0.55736(7)
H24 H 0.4763 0.5695 0.5943
H25 H 0.4624 0.5987 0.5208
C28 C 0.58511(13) 0.66575(7) 0.57787(7)
H26 H 0.6547 0.6798 0.5457
C29 C 0.77874(15) 0.77816(8) 0.67937(7)
H27 H 0.7011 0.7990 0.6976
C30 C 1.00726(15) 0.71702(9) 0.62763(7)
H28 H 1.0854 0.6959 0.6101
C31 C 0.88955(14) 0.67794(8) 0.62581(7)
H29 H 0.8873 0.6302 0.6070
C32 C 0.44622(15) 0.71316(8) 0.41186(8)
H30 H 0.3740 0.6797 0.4132
C33 C 0.58517(15) 0.80290(8) 0.46416(7)
H31 H 0.6083 0.8313 0.5014
C34 C 0.64923(13) 0.66297(8) 0.64676(7)
H32 H 0.6727 0.6106 0.6565
C35 C 0.68538(15) 0.48677(8) 0.57831(8)
H33 H 0.6470 0.4800 0.6200
C36 C 0.40087(14) 0.74472(8) 0.52887(7)
H34 H 0.3521 0.7907 0.5386
H35 H 0.3354 0.7046 0.5233
C37 C 1.01139(16) 0.78683(9) 0.65493(8)
H36 H 1.0921 0.8137 0.6561
C38 C 0.51894(17) 0.72064(9) 0.35469(8)
H37 H 0.4959 0.6927 0.3172
C39 C 0.79886(16) 0.50539(9) 0.45645(8)
H38 H 0.8374 0.5119 0.4147
C40 C 0.89658(16) 0.81730(9) 0.68059(8)
H39 H 0.8989 0.8652 0.6991
C41 C 0.79201(16) 0.44288(9) 0.55929(8)
H40 H 0.8260 0.4065 0.5881
C42 C 0.65739(16) 0.80999(9) 0.40744(8)
H41 H 0.7300 0.8432 0.4058
C43 C 0.84826(16) 0.45217(9) 0.49857(9)
H42 H 0.9206 0.4222 0.4857
C44 C 0.62419(17) 0.76869(9) 0.35270(8)
H43 H 0.6742 0.7737 0.3139
H44 H 0.511(2) 0.6495(11) 0.7105(10)
loop_
_geom_bond_atom_site_label_1
_geom_bond_atom_site_label_2
_geom_bond_site_symmetry_1
_geom_bond_site_symmetry_2
S1 O1 1_555 1_555
O2 S1 1_555 1_555
N1 S1 1_555 1_555
N2 S1 1_555 1_555
C1 H1 1_555 1_555
C2 H2 1_555 1_555
C3 C1 1_555 1_555
C4 C8 1_555 1_555
C5 H3 1_555 1_555
C6 N2 1_555 1_555
H4 C6 1_555 1_555
C7 C2 1_555 1_555
H5 C7 1_555 1_555
C8 H6 1_555 1_555
C9 N1 1_555 1_555
H7 C9 1_555 1_555
C10 C4 1_555 1_555
H8 C10 1_555 1_555
C11 C12 1_555 1_555
C12 H9 1_555 1_555
C13 C4 1_555 1_555
H10 C13 1_555 1_555
H11 C13 1_555 1_555
C14 C1 1_555 1_555
H12 C14 1_555 1_555
C15 C10 1_555 1_555
H13 C15 1_555 1_555
C16 N1 1_555 1_555
H14 C16 1_555 1_555
H15 C16 1_555 1_555
C17 C11 1_555 1_555
H16 C17 1_555 1_555
C18 C8 1_555 1_555
H17 C18 1_555 1_555
C19 C15 1_555 1_555
H18 C19 1_555 1_555
C20 C17 1_555 1_555
H19 C20 1_555 1_555
C21 C12 1_555 1_555
H20 C21 1_555 1_555
C22 C20 1_555 1_555
H21 C22 1_555 1_555
H22 N2 1_555 1_555
S2 O3 1_555 1_555
O4 S2 1_555 1_555
N3 S2 1_555 1_555
N4 S2 1_555 1_555
C23 C25 1_555 1_555
C24 C29 1_555 1_555
C25 H23 1_555 1_555
C26 C32 1_555 1_555
C27 C23 1_555 1_555
H24 C27 1_555 1_555
H25 C27 1_555 1_555
C28 N3 1_555 1_555
H26 C28 1_555 1_555
C29 H27 1_555 1_555
C30 H28 1_555 1_555
C31 C24 1_555 1_555
H29 C31 1_555 1_555
C32 H30 1_555 1_555
C33 C26 1_555 1_555
H31 C33 1_555 1_555
C34 N4 1_555 1_555
H32 C34 1_555 1_555
C35 C23 1_555 1_555
H33 C35 1_555 1_555
C36 N3 1_555 1_555
H34 C36 1_555 1_555
H35 C36 1_555 1_555
C37 C30 1_555 1_555
H36 C37 1_555 1_555
C38 C32 1_555 1_555
H37 C38 1_555 1_555
C39 C25 1_555 1_555
H38 C39 1_555 1_555
C40 C29 1_555 1_555
H39 C40 1_555 1_555
C41 C35 1_555 1_555
H40 C41 1_555 1_555
C42 C33 1_555 1_555
H41 C42 1_555 1_555
C43 C39 1_555 1_555
H42 C43 1_555 1_555
C44 C38 1_555 1_555
H43 C44 1_555 1_555
H44 N4 1_555 1_555
C2 C3 1_555 1_555
C3 C6 1_555 1_555
C5 C7 1_555 1_555
C5 C14 1_555 1_555
C6 C9 1_555 1_555
C9 C13 1_555 1_555
C11 C16 1_555 1_555
C18 C19 1_555 1_555
C21 C22 1_555 1_555
C24 C34 1_555 1_555
C26 C36 1_555 1_555
C27 C28 1_555 1_555
C28 C34 1_555 1_555
C30 C31 1_555 1_555
C37 C40 1_555 1_555
C41 C43 1_555 1_555
C42 C44 1_555 1_555

#END
