
#######################################################################
#
#                 Cambridge Crystallographic Data Centre
#                                CCDC 
#
#######################################################################
#
# If this CIF has been generated from an entry in the Cambridge 
# Structural Database, then it will include bibliographic, chemical, 
# crystal, experimental, refinement or atomic coordinate data resulting 
# from the CCDC's data processing and validation procedures.
#
#######################################################################

data_ISUNUH
_chemical_formula_moiety         
'C30 H14 I4 N6 O6,C8 H20 N1 1+,2(C1 H1 Cl3),Br1 1-'
_chemical_name_systematic        
'tetraethylammonium 5,17-bis(2,6-diiodophenoxy)-2,8,14,20-tetraoxa-4,6,16,18,26,28-hexaazapentacyclo[19.3.1.1^3,7^.1^9,13^.1^15,19^]octacosa-1(25),3(28),4,6,9(27),10,12,15(26),16,18,21,23-dodecaene bromide chloroform solvate'
_symmetry_cell_setting           monoclinic
_symmetry_space_group_name_H-M   'P 21/c'
_symmetry_Int_Tables_number      14
_space_group_name_Hall           '-P 2ybc'
loop_
_symmetry_equiv_pos_site_id
_symmetry_equiv_pos_as_xyz
1 x,y,z
2 -x,1/2+y,1/2-z
3 -x,-y,-z
4 x,1/2-y,1/2+z
_cell_length_a                   12.034(2)
_cell_length_b                   16.221(3)
_cell_length_c                   25.928(5)
_cell_angle_alpha                90
_cell_angle_beta                 96.11(3)
_cell_angle_gamma                90
_cell_volume                     5032.49
_exptl_crystal_colour            colorless
_exptl_crystal_description       plate
_cell_formula_units_Z            4
loop_
_atom_site_label
_atom_site_type_symbol
_atom_site_fract_x
_atom_site_fract_y
_atom_site_fract_z
I1 I -0.00017(5) 0.19055(3) 0.85397(2)
I2 I 0.04852(4) 0.16381(4) 1.08829(2)
I3 I 0.34258(4) 0.18252(3) 0.65274(2)
I4 I 0.84758(4) 0.16189(3) 0.662316(18)
O1 O 0.0894(4) 0.2196(3) 0.9750(2)
O2 O 0.3473(4) 0.0321(3) 0.9398(2)
O3 O 0.6076(5) 0.0310(3) 0.81067(17)
O4 O 0.6058(4) 0.2214(3) 0.68403(17)
O5 O 0.6889(5) 0.3025(3) 0.84850(18)
O6 O 0.4455(4) 0.2995(3) 0.9819(2)
N1 N 0.2175(5) 0.1216(4) 0.9568(2)
N2 N 0.4065(5) 0.1658(4) 0.9556(2)
N3 N 0.2684(5) 0.2589(4) 0.9795(2)
N4 N 0.6432(5) 0.1658(4) 0.8349(2)
N5 N 0.6043(5) 0.1224(3) 0.7470(2)
N6 N 0.6499(5) 0.2627(3) 0.7661(2)
C1 C 0.0088(6) 0.1577(4) 0.9706(3)
C2 C -0.0251(6) 0.1236(5) 1.0151(3)
C3 C -0.1106(6) 0.0671(5) 1.0121(3)
H1 H -0.1336 0.0437 1.0428
C4 C -0.1633(6) 0.0443(5) 0.9639(3)
H2 H -0.2221 0.0049 0.9617
C5 C -0.1302(6) 0.0789(5) 0.9189(3)
H3 H -0.1660 0.0631 0.8859
C6 C -0.0451(6) 0.1363(5) 0.9223(3)
C7 C 0.1960(6) 0.1984(5) 0.9698(3)
C8 C 0.3248(6) 0.1111(4) 0.9508(2)
C9 C 0.3714(6) 0.2386(5) 0.9709(2)
C10 C 0.4468(6) 0.0060(4) 0.9213(3)
C11 C 0.4876(5) 0.0443(4) 0.8796(3)
H4 H 0.4580 0.0954 0.8665
C12 C 0.5726(6) 0.0055(4) 0.8577(2)
C13 C 0.6178(6) -0.0681(4) 0.8768(3)
H5 H 0.6767 -0.0938 0.8611
C14 C 0.5760(7) -0.1036(5) 0.9188(3)
H6 H 0.6070 -0.1539 0.9325
C15 C 0.4892(6) -0.0669(4) 0.9414(3)
H7 H 0.4599 -0.0918 0.9703
C16 C 0.6173(5) 0.1109(4) 0.7982(3)
C17 C 0.6206(5) 0.2003(4) 0.7344(2)
C18 C 0.6584(5) 0.2401(4) 0.8157(3)
C19 C 0.5929(5) 0.1564(4) 0.6482(2)
C20 C 0.4877(6) 0.1309(4) 0.6273(3)
C21 C 0.4782(7) 0.0686(6) 0.5903(3)
H8 H 0.4064 0.0512 0.5755
C22 C 0.5726(7) 0.0319(5) 0.5750(3)
H9 H 0.5656 -0.0115 0.5503
C23 C 0.6777(7) 0.0580(5) 0.5954(3)
H10 H 0.7425 0.0330 0.5843
C24 C 0.6879(6) 0.1197(4) 0.6316(3)
C25 C 0.6745(6) 0.2931(4) 0.9013(3)
C26 C 0.5657(6) 0.2966(5) 0.9147(3)
H11 H 0.5034 0.3030 0.8893
C27 C 0.5530(6) 0.2902(4) 0.9667(3)
C28 C 0.6418(7) 0.2827(5) 1.0045(3)
H12 H 0.6301 0.2781 1.0401
C29 C 0.7492(6) 0.2821(5) 0.9893(3)
H13 H 0.8118 0.2781 1.0148
C30 C 0.7661(6) 0.2872(4) 0.9369(3)
H14 H 0.8394 0.2866 0.9264
Br1 Br 0.09383(6) 0.23416(5) 0.71038(3)
Cl1 Cl 0.0440(3) 0.11136(19) 0.55820(13)
Cl2 Cl 0.0859(3) 0.08698(19) 0.45194(11)
Cl3 Cl 0.2034(2) -0.01090(17) 0.53210(11)
C31 C 0.1442(9) 0.0841(7) 0.5161(4)
H15 H 0.2052 0.1262 0.5203
Cl4 Cl 0.2466(2) 0.35085(17) 0.85690(10)
Cl5 Cl 0.3875(3) 0.3906(2) 0.77835(13)
Cl6 Cl 0.3605(2) 0.22139(15) 0.80785(10)
C32 C 0.2949(7) 0.3181(5) 0.7990(3)
H16 H 0.2296 0.3127 0.7719
N7 N -0.1384(5) 0.4581(3) 0.7444(2)
C33 C -0.2373(6) 0.5170(4) 0.7466(3)
H17 H -0.2160 0.5598 0.7730
H18 H -0.2519 0.5450 0.7127
C34 C -0.3439(6) 0.4764(5) 0.7593(4)
H19 H -0.3343 0.4566 0.7952
H20 H -0.3615 0.4299 0.7358
H21 H -0.4051 0.5166 0.7552
C35 C -0.1646(6) 0.3922(5) 0.7034(3)
H22 H -0.0951 0.3609 0.6999
H23 H -0.2189 0.3532 0.7161
C36 C -0.2108(9) 0.4213(8) 0.6504(3)
H24 H -0.2900 0.4353 0.6506
H25 H -0.2032 0.3774 0.6250
H26 H -0.1695 0.4701 0.6410
C37 C -0.0413(6) 0.5114(5) 0.7324(4)
H27 H -0.0593 0.5347 0.6972
H28 H -0.0350 0.5581 0.7571
C38 C 0.0704(6) 0.4702(5) 0.7345(4)
H29 H 0.0958 0.4553 0.7704
H30 H 0.1243 0.5080 0.7213
H31 H 0.0641 0.4203 0.7130
C39 C -0.1125(6) 0.4124(5) 0.7947(3)
H32 H -0.0484 0.3751 0.7916
H33 H -0.1777 0.3778 0.8007
C40 C -0.0848(10) 0.4686(8) 0.8415(4)
H34 H -0.0823 0.4360 0.8734
H35 H -0.1424 0.5113 0.8418
H36 H -0.0120 0.4947 0.8394
loop_
_geom_bond_atom_site_label_1
_geom_bond_atom_site_label_2
_geom_bond_site_symmetry_1
_geom_bond_site_symmetry_2
I1 C6 1_555 1_555
I2 C2 1_555 1_555
I3 C20 1_555 1_555
I4 C24 1_555 1_555
O1 C1 1_555 1_555
O2 C8 1_555 1_555
O3 C12 1_555 1_555
O4 C17 1_555 1_555
O5 C18 1_555 1_555
O6 C9 1_555 1_555
N1 C7 1_555 1_555
N2 C8 1_555 1_555
N3 C7 1_555 1_555
N4 C16 1_555 1_555
N5 C16 1_555 1_555
N6 C17 1_555 1_555
C1 C2 1_555 1_555
C2 C3 1_555 1_555
C3 H1 1_555 1_555
C4 C3 1_555 1_555
H2 C4 1_555 1_555
C5 C4 1_555 1_555
H3 C5 1_555 1_555
C6 C1 1_555 1_555
C7 O1 1_555 1_555
C8 N1 1_555 1_555
C9 N2 1_555 1_555
C10 O2 1_555 1_555
C11 C10 1_555 1_555
H4 C11 1_555 1_555
C12 C11 1_555 1_555
C13 C12 1_555 1_555
H5 C13 1_555 1_555
C14 C13 1_555 1_555
H6 C14 1_555 1_555
C15 C10 1_555 1_555
H7 C15 1_555 1_555
C16 O3 1_555 1_555
C17 N5 1_555 1_555
C18 N4 1_555 1_555
C19 O4 1_555 1_555
C20 C19 1_555 1_555
C21 C20 1_555 1_555
H8 C21 1_555 1_555
C22 C21 1_555 1_555
H9 C22 1_555 1_555
C23 C22 1_555 1_555
H10 C23 1_555 1_555
C24 C19 1_555 1_555
C25 O5 1_555 1_555
C26 C25 1_555 1_555
H11 C26 1_555 1_555
C27 O6 1_555 1_555
C28 C27 1_555 1_555
H12 C28 1_555 1_555
C29 C28 1_555 1_555
H13 C29 1_555 1_555
C30 C25 1_555 1_555
H14 C30 1_555 1_555
Cl1 C31 1_555 1_555
Cl2 C31 1_555 1_555
Cl3 C31 1_555 1_555
C31 H15 1_555 1_555
Cl4 C32 1_555 1_555
Cl5 C32 1_555 1_555
Cl6 C32 1_555 1_555
C32 H16 1_555 1_555
N7 C33 1_555 1_555
C33 H17 1_555 1_555
H18 C33 1_555 1_555
C34 C33 1_555 1_555
H19 C34 1_555 1_555
H20 C34 1_555 1_555
H21 C34 1_555 1_555
C35 N7 1_555 1_555
H22 C35 1_555 1_555
H23 C35 1_555 1_555
C36 C35 1_555 1_555
H24 C36 1_555 1_555
H25 C36 1_555 1_555
H26 C36 1_555 1_555
C37 N7 1_555 1_555
H27 C37 1_555 1_555
H28 C37 1_555 1_555
C38 C37 1_555 1_555
H29 C38 1_555 1_555
H30 C38 1_555 1_555
H31 C38 1_555 1_555
C39 N7 1_555 1_555
H32 C39 1_555 1_555
H33 C39 1_555 1_555
C40 C39 1_555 1_555
H34 C40 1_555 1_555
H35 C40 1_555 1_555
H36 C40 1_555 1_555
N3 C9 1_555 1_555
N6 C18 1_555 1_555
C5 C6 1_555 1_555
C14 C15 1_555 1_555
C23 C24 1_555 1_555
C26 C27 1_555 1_555
C29 C30 1_555 1_555

#END
