
#######################################################################
#
#                 Cambridge Crystallographic Data Centre
#                                CCDC 
#
#######################################################################
#
# If this CIF has been generated from an entry in the Cambridge 
# Structural Database, then it will include bibliographic, chemical, 
# crystal, experimental, refinement or atomic coordinate data resulting 
# from the CCDC's data processing and validation procedures.
#
#######################################################################

data_ISUPAP
_chemical_formula_moiety         'C30 H16 Br2 N6 O6,C3 H6 O1'
_chemical_name_systematic        
'5,17-bis(2-bromophenoxy)-2,8,14,20-tetraoxa-4,6,16,18,26,28-hexaazapentacyclo[19.3.1.1^3,7^.1^9,13^.1^15,19^]octacosa-1(25),3(28),4,6,9(27),10,12,15(26),16,18,21,23-dodecaene acetone solvate'
_symmetry_cell_setting           monoclinic
_symmetry_space_group_name_H-M   'P 21/c'
_symmetry_Int_Tables_number      14
_space_group_name_Hall           '-P 2ybc'
loop_
_symmetry_equiv_pos_site_id
_symmetry_equiv_pos_as_xyz
1 x,y,z
2 -x,1/2+y,1/2-z
3 -x,-y,-z
4 x,1/2-y,1/2+z
_cell_length_a                   15.502(3)
_cell_length_b                   16.961(3)
_cell_length_c                   12.731(3)
_cell_angle_alpha                90
_cell_angle_beta                 106.755(3)
_cell_angle_gamma                90
_cell_volume                     3205.25
_exptl_crystal_colour            colorless
_exptl_crystal_description       plate
_cell_formula_units_Z            4
loop_
_atom_site_label
_atom_site_type_symbol
_atom_site_fract_x
_atom_site_fract_y
_atom_site_fract_z
Br1 Br 0.45260(4) 0.55560(4) 0.78677(6)
Br2 Br 0.25867(4) 0.70399(4) -0.26404(5)
O1 O 0.0738(2) 0.5777(2) 0.4163(3)
O2 O 0.3092(2) 0.4144(2) 0.4146(3)
O3 O 0.3257(2) 0.5647(2) 0.1008(3)
O4 O 0.0398(2) 0.6620(2) 0.0454(3)
O5 O 0.2581(2) 0.4926(2) 0.7316(3)
O6 O 0.2405(2) 0.7988(2) -0.0691(3)
N1 N 0.1891(3) 0.4960(2) 0.4050(3)
N2 N 0.1695(3) 0.5403(2) 0.5742(3)
N3 N 0.2875(3) 0.4503(3) 0.5738(3)
N4 N 0.1809(3) 0.6080(2) 0.0781(3)
N5 N 0.2889(3) 0.6807(2) 0.0162(3)
N6 N 0.1379(3) 0.7288(3) -0.0184(3)
C1 C 0.1477(3) 0.5365(3) 0.4652(4)
C2 C 0.2389(3) 0.4936(3) 0.6215(4)
C3 C 0.2593(3) 0.4561(3) 0.4653(4)
C4 C 0.2927(3) 0.4225(3) 0.2997(4)
C5 C 0.2631(4) 0.3572(3) 0.2362(4)
H1 H 0.2483 0.3100 0.2673
C6 C 0.2556(4) 0.3619(3) 0.1257(4)
H2 H 0.2365 0.3170 0.0803
C7 C 0.2755(4) 0.4311(3) 0.0801(4)
H3 H 0.2712 0.4340 0.0042
C8 C 0.3015(3) 0.4952(3) 0.1465(4)
C9 C 0.3126(3) 0.4928(3) 0.2579(4)
H4 H 0.3329 0.5374 0.3034
C10 C 0.2612(3) 0.6196(3) 0.0635(4)
C11 C 0.2219(4) 0.7326(3) -0.0216(4)
C12 C 0.1237(3) 0.6658(3) 0.0356(4)
C13 C 0.0203(3) 0.6096(3) 0.1203(4)
C14 C -0.0501(3) 0.5584(3) 0.0809(4)
H5 H -0.0789 0.5543 0.0044
C15 C -0.0784(4) 0.5129(3) 0.1548(5)
H6 H -0.1273 0.4774 0.1289
C16 C -0.0358(3) 0.5185(3) 0.2667(4)
H7 H -0.0556 0.4878 0.3178
C17 C 0.0351(3) 0.5692(3) 0.3013(4)
C18 C 0.0650(3) 0.6163(3) 0.2316(4)
H8 H 0.1139 0.6518 0.2579
C19 C 0.3224(4) 0.4384(3) 0.7918(4)
C20 C 0.2931(4) 0.3681(3) 0.8216(4)
H9 H 0.2314 0.3537 0.7951
C21 C 0.3550(4) 0.3176(4) 0.8915(5)
H10 H 0.3354 0.2683 0.9118
C22 C 0.4429(4) 0.3388(4) 0.9305(5)
H11 H 0.4842 0.3046 0.9792
C23 C 0.4730(4) 0.4092(4) 0.9002(5)
H12 H 0.5348 0.4231 0.9262
C24 C 0.4110(4) 0.4598(4) 0.8306(4)
C25 C 0.3252(4) 0.8079(3) -0.0837(5)
C26 C 0.3875(4) 0.8573(4) -0.0146(6)
H13 H 0.3747 0.8804 0.0473
C27 C 0.4669(4) 0.8726(4) -0.0354(6)
H14 H 0.5090 0.9068 0.0120
C28 C 0.4877(4) 0.8396(4) -0.1235(6)
H15 H 0.5441 0.8502 -0.1361
C29 C 0.4246(4) 0.7901(4) -0.1947(6)
H16 H 0.4370 0.7684 -0.2576
C30 C 0.3446(4) 0.7732(3) -0.1725(5)
O7 O 0.1593(3) 0.2570(3) 0.4014(4)
C37 C 0.0727(6) 0.3323(5) 0.4880(8)
H21 H 0.0594 0.3885 0.4740
H22 H 0.1245 0.3263 0.5532
H23 H 0.0202 0.3059 0.5003
C38 C 0.0938(4) 0.2964(3) 0.3921(6)
C39 C 0.0307(5) 0.3121(5) 0.2822(7)
H24 H 0.0447 0.3634 0.2557
H25 H -0.0312 0.3125 0.2871
H26 H 0.0370 0.2707 0.2311
C31? C 0.3904(16) 0.824(3) -0.076(3)
C32? C 0.4575(18) 0.816(3) -0.128(3)
H17? H 0.5129 0.8431 -0.1006
C33? C 0.443(2) 0.768(3) -0.220(4)
H18? H 0.4892 0.7620 -0.2550
C34? C 0.362(2) 0.728(3) -0.259(3)
H19? H 0.3526 0.6947 -0.3220
C35? C 0.2952(18) 0.736(3) -0.207(3)
H20? H 0.2397 0.7084 -0.2346
C36? C 0.3093(15) 0.784(3) -0.116(3)
Br3? Br 0.4070(7) 0.8818(5) 0.0542(8)
loop_
_geom_bond_atom_site_label_1
_geom_bond_atom_site_label_2
_geom_bond_site_symmetry_1
_geom_bond_site_symmetry_2
Br1 C24 1_555 1_555
Br2 C30 1_555 1_555
O1 C1 1_555 1_555
O2 C3 1_555 1_555
O3 C8 1_555 1_555
O4 C12 1_555 1_555
O5 C2 1_555 1_555
O6 C11 1_555 1_555
N1 C1 1_555 1_555
N2 C1 1_555 1_555
N3 C2 1_555 1_555
N4 C10 1_555 1_555
N5 C10 1_555 1_555
N6 C11 1_555 1_555
C2 N2 1_555 1_555
C3 N1 1_555 1_555
C4 O2 1_555 1_555
C5 C4 1_555 1_555
H1 C5 1_555 1_555
C6 C5 1_555 1_555
H2 C6 1_555 1_555
C7 C6 1_555 1_555
H3 C7 1_555 1_555
C8 C7 1_555 1_555
C9 C4 1_555 1_555
H4 C9 1_555 1_555
C10 O3 1_555 1_555
C11 N5 1_555 1_555
C12 N4 1_555 1_555
C13 O4 1_555 1_555
C14 C13 1_555 1_555
H5 C14 1_555 1_555
C15 C14 1_555 1_555
H6 C15 1_555 1_555
C16 C15 1_555 1_555
H7 C16 1_555 1_555
C17 O1 1_555 1_555
C18 C13 1_555 1_555
H8 C18 1_555 1_555
C19 O5 1_555 1_555
C20 C19 1_555 1_555
H9 C20 1_555 1_555
C21 C20 1_555 1_555
H10 C21 1_555 1_555
C22 C21 1_555 1_555
H11 C22 1_555 1_555
C23 C22 1_555 1_555
H12 C23 1_555 1_555
C24 C19 1_555 1_555
C25 O6 1_555 1_555
C26 C25 1_555 1_555
H13 C26 1_555 1_555
C27 C26 1_555 1_555
H14 C27 1_555 1_555
C28 C27 1_555 1_555
H15 C28 1_555 1_555
C29 C28 1_555 1_555
H16 C29 1_555 1_555
C30 C25 1_555 1_555
O7 C38 1_555 1_555
C37 H21 1_555 1_555
H22 C37 1_555 1_555
H23 C37 1_555 1_555
C38 C37 1_555 1_555
C39 C38 1_555 1_555
H24 C39 1_555 1_555
H25 C39 1_555 1_555
H26 C39 1_555 1_555
N3 C3 1_555 1_555
N6 C12 1_555 1_555
C8 C9 1_555 1_555
C16 C17 1_555 1_555
C17 C18 1_555 1_555
C23 C24 1_555 1_555
C29 C30 1_555 1_555

#END
