
#######################################################################
#
#                 Cambridge Crystallographic Data Centre
#                                CCDC 
#
#######################################################################
#
# If this CIF has been generated from an entry in the Cambridge 
# Structural Database, then it will include bibliographic, chemical, 
# crystal, experimental, refinement or atomic coordinate data resulting 
# from the CCDC's data processing and validation procedures.
#
#######################################################################

data_ISUPIX
_chemical_formula_moiety         
'2(C8 H20 N1 1+),C30 H16 I2 N6 O6,2(Cl1 1-),3(H2 O1)'
_chemical_name_systematic        
'bis(tetraethylammonium) 5,17-bis(2-iodophenoxy)-2,8,14,20-tetraoxa-4,6,16,18,26,28-hexaazapentacyclo[19.3.1.1^3,7^.1^9,13^.1^15,19^]octacosa-1(25),3(28),4,6,9(27),10,12,15(26),16,18,21,23-dodecaene dichloride trihydrate'
_symmetry_cell_setting           triclinic
_symmetry_space_group_name_H-M   'P -1'
_symmetry_Int_Tables_number      2
_space_group_name_Hall           '-P 1'
loop_
_symmetry_equiv_pos_site_id
_symmetry_equiv_pos_as_xyz
1 x,y,z
2 -x,-y,-z
_cell_length_a                   12.168(2)
_cell_length_b                   14.903(3)
_cell_length_c                   15.369(3)
_cell_angle_alpha                83.88(3)
_cell_angle_beta                 70.99(3)
_cell_angle_gamma                79.72(3)
_cell_volume                     2589.19
_exptl_crystal_colour            colorless
_exptl_crystal_description       block
_cell_formula_units_Z            2
loop_
_atom_site_label
_atom_site_type_symbol
_atom_site_fract_x
_atom_site_fract_y
_atom_site_fract_z
I1 I 0.50238(8) 0.29684(5) 0.07663(5)
I2 I 0.92881(8) 1.22798(6) 0.38756(5)
O1 O 0.5709(6) 0.4572(5) 0.1538(5)
O2 O 0.8054(6) 0.6660(5) -0.0089(5)
O3 O 0.4291(6) 0.7535(5) 0.1827(5)
O4 O 0.5440(6) 1.0148(5) 0.2663(5)
O5 O 0.9244(6) 0.9214(5) 0.0857(5)
O6 O 0.8451(7) 1.0434(6) 0.3620(5)
N1 N 0.6941(7) 0.5592(5) 0.0671(5)
N2 N 0.5011(8) 0.6053(6) 0.1675(6)
N3 N 0.6213(7) 0.7181(6) 0.0888(5)
N4 N 0.7318(8) 0.9669(6) 0.1692(6)
N5 N 0.8922(8) 0.9824(6) 0.2196(6)
N6 N 0.6961(8) 1.0265(6) 0.3145(6)
C1 C 0.6489(9) 0.3038(7) 0.1167(7)
C2 C 0.7353(12) 0.2256(8) 0.1154(8)
H1 H 0.7263 0.1688 0.0977
C3 C 0.8287(12) 0.2329(9) 0.1392(9)
H2 H 0.8867 0.1805 0.1374
C4 C 0.8449(11) 0.3141(8) 0.1666(8)
H3 H 0.9117 0.3165 0.1849
C5 C 0.7633(10) 0.3908(8) 0.1671(7)
H4 H 0.7743 0.4472 0.1841
C6 C 0.6651(9) 0.3855(6) 0.1427(6)
C7 C 0.5924(9) 0.5448(6) 0.1268(7)
C8 C 0.7035(9) 0.6474(7) 0.0524(7)
C9 C 0.5245(10) 0.6904(7) 0.1433(7)
C10 C 0.8277(8) 0.7574(7) -0.0234(7)
C11 C 0.8365(8) 0.8010(7) -0.1095(6)
H5 H 0.8200 0.7725 -0.1553
C12 C 0.8694(9) 0.8852(7) -0.1267(7)
H6 H 0.8768 0.9150 -0.1857
C13 C 0.8921(9) 0.9287(7) -0.0614(6)
H7 H 0.9125 0.9885 -0.0739
C14 C 0.8845(9) 0.8829(7) 0.0230(7)
C15 C 0.8513(8) 0.7979(7) 0.0449(7)
H8 H 0.8447 0.7681 0.1038
C16 C 0.8455(9) 0.9585(6) 0.1618(6)
C17 C 0.8103(11) 1.0157(7) 0.2954(8)
C18 C 0.6635(10) 1.0031(7) 0.2475(7)
C19 C 0.5011(9) 0.9737(8) 0.2094(9)
C20 C 0.4474(11) 1.0303(8) 0.1532(9)
H9 H 0.4467 1.0944 0.1502
C21 C 0.3943(11) 0.9932(8) 0.1011(9)
H10 H 0.3608 1.0314 0.0598
C22 C 0.3904(9) 0.9012(8) 0.1095(8)
H11 H 0.3512 0.8756 0.0761
C23 C 0.4438(8) 0.8461(7) 0.1670(7)
C24 C 0.5008(10) 0.8811(7) 0.2187(7)
H12 H 0.5374 0.8428 0.2582
C25 C 0.9615(11) 1.0208(9) 0.3631(7)
C26 C 1.0123(11) 1.0907(8) 0.3809(8)
C27 C 1.1241(12) 1.0718(11) 0.3877(8)
H13 H 1.1605 1.1197 0.3969
C28 C 1.1847(13) 0.9822(12) 0.3810(9)
H14 H 1.2607 0.9687 0.3881
C29 C 1.1328(14) 0.9143(10) 0.3641(9)
H15 H 1.1743 0.8538 0.3576
C30 C 1.0192(12) 0.9331(9) 0.3562(8)
H16 H 0.9829 0.8854 0.3462
Cl1 Cl 0.7944(3) 0.7809(2) 0.2993(2)
Cl2 Cl 0.8037(4) 0.4522(3) 0.3862(3)
O7 O 0.7197(8) 0.6067(8) 0.2517(7)
H17 H 0.7314 0.6582 0.2611
H18 H 0.7069 0.5663 0.2947
O8 O 0.8892(13) 0.5532(12) 0.5147(8)
H19 H 0.8810 0.5343 0.4658
H20 H 0.8820 0.6125 0.5108
O9 O 0.8911(11) 0.7401(10) 0.4660(10)
H21 H 0.9141 0.7740 0.4974
H22 H 0.8586 0.7740 0.4287
N7 N 0.5040(8) 0.7188(6) 0.5380(6)
C31 C 0.6216(12) 0.7232(10) 0.5439(8)
H23 H 0.6623 0.7631 0.4922
H24 H 0.6684 0.6613 0.5374
C32 C 0.6164(15) 0.7609(12) 0.6382(9)
H25 H 0.5910 0.8272 0.6372
H26 H 0.6945 0.7473 0.6460
H27 H 0.5603 0.7317 0.6895
C33 C 0.4391(12) 0.6527(9) 0.6118(8)
H28 H 0.3673 0.6443 0.5987
H29 H 0.4144 0.6800 0.6725
C34 C 0.5148(15) 0.5581(8) 0.6170(10)
H30 H 0.5437 0.5322 0.5561
H31 H 0.4668 0.5171 0.6615
H32 H 0.5817 0.5650 0.6365
C35 C 0.5275(11) 0.6847(8) 0.4425(8)
H33 H 0.5731 0.6224 0.4391
H34 H 0.5765 0.7248 0.3960
C36 C 0.4150(11) 0.6823(10) 0.4175(10)
H35 H 0.4364 0.6547 0.3580
H36 H 0.3738 0.7446 0.4136
H37 H 0.3635 0.6459 0.4652
C37 C 0.4252(13) 0.8085(9) 0.5494(9)
H38 H 0.4118 0.8288 0.6118
H39 H 0.3482 0.8000 0.5453
C38 C 0.4723(15) 0.8839(9) 0.4786(8)
H40 H 0.4760 0.8683 0.4172
H41 H 0.5512 0.8897 0.4786
H42 H 0.4199 0.9418 0.4945
N8 N 1.1288(7) 0.5865(6) 0.2039(6)
C39 C 1.0966(10) 0.6130(8) 0.3028(7)
H43 H 1.0564 0.5650 0.3441
H44 H 1.0398 0.6703 0.3110
C40 C 1.1997(11) 0.6267(8) 0.3335(8)
H45 H 1.2368 0.6773 0.2965
H46 H 1.2575 0.5707 0.3251
H47 H 1.1710 0.6408 0.3987
C41 C 1.2124(10) 0.4980(8) 0.1872(8)
H48 H 1.2865 0.5063 0.1967
H49 H 1.2312 0.4836 0.1221
C42 C 1.1657(12) 0.4166(8) 0.2491(10)
H50 H 1.2233 0.3613 0.2320
H51 H 1.0914 0.4085 0.2413
H52 H 1.1527 0.4280 0.3136
C43 C 1.0132(9) 0.5794(8) 0.1892(7)
H53 H 0.9614 0.6390 0.2020
H54 H 0.9748 0.5336 0.2351
C44 C 1.0213(12) 0.5533(10) 0.0930(8)
H55 H 1.0577 0.5987 0.0466
H56 H 0.9422 0.5515 0.0907
H57 H 1.0693 0.4931 0.0803
C45 C 1.1922(11) 0.6586(9) 0.1378(8)
H58 H 1.2677 0.6590 0.1490
H59 H 1.2109 0.6399 0.0740
C46 C 1.1262(13) 0.7542(10) 0.1443(10)
H60 H 1.1681 0.7930 0.0931
H61 H 1.1203 0.7782 0.2029
H62 H 1.0470 0.7539 0.1413
loop_
_geom_bond_atom_site_label_1
_geom_bond_atom_site_label_2
_geom_bond_site_symmetry_1
_geom_bond_site_symmetry_2
I1 C1 1_555 1_555
I2 C26 1_555 1_555
O1 C6 1_555 1_555
O2 C8 1_555 1_555
O3 C9 1_555 1_555
O4 C18 1_555 1_555
O5 C14 1_555 1_555
O6 C17 1_555 1_555
N1 C7 1_555 1_555
N2 C7 1_555 1_555
N3 C8 1_555 1_555
N4 C16 1_555 1_555
N5 C16 1_555 1_555
N6 C17 1_555 1_555
C1 C2 1_555 1_555
C2 H1 1_555 1_555
C3 C2 1_555 1_555
H2 C3 1_555 1_555
C4 C3 1_555 1_555
H3 C4 1_555 1_555
C5 C4 1_555 1_555
H4 C5 1_555 1_555
C6 C1 1_555 1_555
C7 O1 1_555 1_555
C8 N1 1_555 1_555
C9 N2 1_555 1_555
C10 O2 1_555 1_555
C11 C10 1_555 1_555
H5 C11 1_555 1_555
C12 C11 1_555 1_555
H6 C12 1_555 1_555
C13 C12 1_555 1_555
H7 C13 1_555 1_555
C14 C13 1_555 1_555
C15 C10 1_555 1_555
H8 C15 1_555 1_555
C16 O5 1_555 1_555
C17 N5 1_555 1_555
C18 N4 1_555 1_555
C19 O4 1_555 1_555
C20 C19 1_555 1_555
H9 C20 1_555 1_555
C21 C20 1_555 1_555
H10 C21 1_555 1_555
C22 C21 1_555 1_555
H11 C22 1_555 1_555
C23 O3 1_555 1_555
C24 C19 1_555 1_555
H12 C24 1_555 1_555
C25 O6 1_555 1_555
C26 C25 1_555 1_555
C27 C26 1_555 1_555
H13 C27 1_555 1_555
C28 C27 1_555 1_555
H14 C28 1_555 1_555
C29 C28 1_555 1_555
H15 C29 1_555 1_555
C30 C25 1_555 1_555
H16 C30 1_555 1_555
O7 H17 1_555 1_555
H18 O7 1_555 1_555
O8 H19 1_555 1_555
H20 O8 1_555 1_555
O9 H21 1_555 1_555
H22 O9 1_555 1_555
N7 C31 1_555 1_555
C31 H23 1_555 1_555
H24 C31 1_555 1_555
C32 C31 1_555 1_555
H25 C32 1_555 1_555
H26 C32 1_555 1_555
H27 C32 1_555 1_555
C33 N7 1_555 1_555
H28 C33 1_555 1_555
H29 C33 1_555 1_555
C34 C33 1_555 1_555
H30 C34 1_555 1_555
H31 C34 1_555 1_555
H32 C34 1_555 1_555
C35 N7 1_555 1_555
H33 C35 1_555 1_555
H34 C35 1_555 1_555
C36 C35 1_555 1_555
H35 C36 1_555 1_555
H36 C36 1_555 1_555
H37 C36 1_555 1_555
C37 N7 1_555 1_555
H38 C37 1_555 1_555
H39 C37 1_555 1_555
C38 C37 1_555 1_555
H40 C38 1_555 1_555
H41 C38 1_555 1_555
H42 C38 1_555 1_555
N8 C39 1_555 1_555
C39 H43 1_555 1_555
H44 C39 1_555 1_555
C40 C39 1_555 1_555
H45 C40 1_555 1_555
H46 C40 1_555 1_555
H47 C40 1_555 1_555
C41 N8 1_555 1_555
H48 C41 1_555 1_555
H49 C41 1_555 1_555
C42 C41 1_555 1_555
H50 C42 1_555 1_555
H51 C42 1_555 1_555
H52 C42 1_555 1_555
C43 N8 1_555 1_555
H53 C43 1_555 1_555
H54 C43 1_555 1_555
C44 C43 1_555 1_555
H55 C44 1_555 1_555
H56 C44 1_555 1_555
H57 C44 1_555 1_555
C45 N8 1_555 1_555
H58 C45 1_555 1_555
H59 C45 1_555 1_555
C46 C45 1_555 1_555
H60 C46 1_555 1_555
H61 C46 1_555 1_555
H62 C46 1_555 1_555
N3 C9 1_555 1_555
N6 C18 1_555 1_555
C5 C6 1_555 1_555
C14 C15 1_555 1_555
C22 C23 1_555 1_555
C23 C24 1_555 1_555
C29 C30 1_555 1_555

#END
