
#######################################################################
#
#                 Cambridge Crystallographic Data Centre
#                                CCDC 
#
#######################################################################
#
# If this CIF has been generated from an entry in the Cambridge 
# Structural Database, then it will include bibliographic, chemical, 
# crystal, experimental, refinement or atomic coordinate data resulting 
# from the CCDC's data processing and validation procedures.
#
#######################################################################

data_ISURUJ
_chemical_formula_moiety         'C8 H13 N1 O3'
_chemical_name_systematic        '(Cyclohexylideneamino)oxyacetic acid'
_symmetry_cell_setting           triclinic
_symmetry_space_group_name_H-M   'P -1'
_symmetry_Int_Tables_number      2
_space_group_name_Hall           '-P 1'
loop_
_symmetry_equiv_pos_site_id
_symmetry_equiv_pos_as_xyz
1 x,y,z
2 -x,-y,-z
_cell_length_a                   5.07760(10)
_cell_length_b                   8.6533(3)
_cell_length_c                   10.7804(3)
_cell_angle_alpha                111.2609(15)
_cell_angle_beta                 102.437(2)
_cell_angle_gamma                93.597(2)
_cell_volume                     425.879
_exptl_crystal_colour            colorless
_exptl_crystal_description       block
_chemical_melting_point          '365-367 K'
_cell_formula_units_Z            2
_exptl_crystal_recrystallization_method ethanol
loop_
_atom_site_label
_atom_site_type_symbol
_atom_site_fract_x
_atom_site_fract_y
_atom_site_fract_z
O1 O 0.25509(18) 0.43807(11) 0.58143(9)
O2 O 0.63107(18) 0.63065(11) 0.66261(9)
O3 O 0.53648(16) 0.75100(10) 0.92037(8)
N1 N 0.76773(19) 0.68931(12) 0.97793(10)
C1 C 0.4331(2) 0.56279(14) 0.67960(12)
C2 C 0.3569(2) 0.61259(14) 0.81506(11)
C3 C 0.9316(2) 0.80606(14) 1.08118(11)
C4 C 1.1796(2) 0.75439(15) 1.15083(13)
C5 C 1.2053(3) 0.81203(15) 1.30557(13)
C6 C 1.1915(2) 0.99871(15) 1.36960(12)
C7 C 0.9271(2) 1.03967(15) 1.29856(12)
C8 C 0.9009(2) 0.98760(14) 1.14378(11)
H1 H 0.2940 0.4191 0.5059
H2 H 0.1694 0.6406 0.8025
H3 H 0.3569 0.5159 0.8435
H4 H 1.3448 0.8042 1.1357
H5 H 1.1665 0.6307 1.1098
H6 H 1.0561 0.7477 1.3210
H7 H 1.3810 0.7889 1.3509
H8 H 1.3495 1.0637 1.3611
H9 H 1.2017 1.0318 1.4688
H10 H 0.9237 1.1617 1.3408
H11 H 0.7696 0.9802 1.3122
H12 H 0.7204 1.0051 1.0985
H13 H 1.0435 1.0579 1.1294
loop_
_geom_bond_atom_site_label_1
_geom_bond_atom_site_label_2
_geom_bond_site_symmetry_1
_geom_bond_site_symmetry_2
O1 C1 1_555 1_555
O2 C1 1_555 1_555
O3 N1 1_555 1_555
N1 C3 1_555 1_555
C1 C2 1_555 1_555
C2 O3 1_555 1_555
C3 C4 1_555 1_555
C4 C5 1_555 1_555
C5 C6 1_555 1_555
C6 C7 1_555 1_555
C7 C8 1_555 1_555
C8 C3 1_555 1_555
H1 O1 1_555 1_555
H2 C2 1_555 1_555
H3 C2 1_555 1_555
H4 C4 1_555 1_555
H5 C4 1_555 1_555
H6 C5 1_555 1_555
H7 C5 1_555 1_555
H8 C6 1_555 1_555
H9 C6 1_555 1_555
H10 C7 1_555 1_555
H11 C7 1_555 1_555
H12 C8 1_555 1_555
H13 C8 1_555 1_555

#END
