
#######################################################################
#
#                 Cambridge Crystallographic Data Centre
#                                CCDC 
#
#######################################################################
#
# If this CIF has been generated from an entry in the Cambridge 
# Structural Database, then it will include bibliographic, chemical, 
# crystal, experimental, refinement or atomic coordinate data resulting 
# from the CCDC's data processing and validation procedures.
#
#######################################################################

data_ISUSIY
_chemical_formula_moiety         'C10 H18 N2 S2'
_chemical_name_systematic        
3,3,10,10-Tetramethyl-1,2-dithia-5,8-diazacyclodeca-4,8-diene
_symmetry_cell_setting           orthorhombic
_symmetry_space_group_name_H-M   'P 21 21 21'
_symmetry_Int_Tables_number      19
_space_group_name_Hall           'P 2ac 2ab'
loop_
_symmetry_equiv_pos_site_id
_symmetry_equiv_pos_as_xyz
1 x,y,z
2 1/2-x,-y,1/2+z
3 -x,1/2+y,1/2-z
4 1/2+x,1/2-y,-z
_cell_length_a                   8.7393(9)
_cell_length_b                   8.9284(9)
_cell_length_c                   15.9117(17)
_cell_angle_alpha                90
_cell_angle_beta                 90
_cell_angle_gamma                90
_cell_volume                     1241.56
_exptl_crystal_colour            colorless
_exptl_crystal_description       parallelepiped
_chemical_melting_point          '437-438 K'
_cell_formula_units_Z            4
loop_
_atom_site_label
_atom_site_type_symbol
_atom_site_fract_x
_atom_site_fract_y
_atom_site_fract_z
S1 S 0.29986(8) 0.64572(8) 0.14156(5)
S2 S 0.10285(7) 0.54753(8) 0.10449(4)
C1 C 0.0667(3) 0.3789(3) 0.17070(15)
C2 C 0.1645(3) 0.2562(2) 0.13549(16)
H1 H 0.1527 0.2320 0.0790
N1 N 0.2612(2) 0.1842(2) 0.17723(13)
C3 C 0.3609(3) 0.0836(3) 0.13032(18)
H2 H 0.3166 0.0625 0.0757
H3 H 0.3721 -0.0102 0.1604
C4 C 0.5168(3) 0.1580(3) 0.11960(16)
H4 H 0.5612 0.1789 0.1742
H5 H 0.5853 0.0916 0.0894
N2 N 0.4971(2) 0.2973(2) 0.07275(13)
C5 C 0.4970(3) 0.4165(3) 0.11454(15)
H6 H 0.5201 0.4103 0.1715
C6 C 0.4620(3) 0.5683(3) 0.07895(15)
C7 C 0.0938(3) 0.4080(3) 0.26331(15)
H7 H 0.0285 0.4880 0.2818
H8 H 0.1988 0.4356 0.2720
H9 H 0.0712 0.3190 0.2948
C8 C -0.1026(3) 0.3459(4) 0.1517(2)
H10 H -0.1651 0.4246 0.1744
H11 H -0.1310 0.2522 0.1769
H12 H -0.1174 0.3405 0.0920
C9 C 0.5927(3) 0.6772(3) 0.09900(18)
H13 H 0.5697 0.7738 0.0757
H14 H 0.6862 0.6402 0.0750
H15 H 0.6040 0.6857 0.1588
C10 C 0.4272(3) 0.5642(3) -0.01436(14)
H16 H 0.4049 0.6637 -0.0338
H17 H 0.3403 0.5007 -0.0242
H18 H 0.5142 0.5257 -0.0442
loop_
_geom_bond_atom_site_label_1
_geom_bond_atom_site_label_2
_geom_bond_site_symmetry_1
_geom_bond_site_symmetry_2
S1 S2 1_555 1_555
S2 C1 1_555 1_555
C1 C2 1_555 1_555
C2 H1 1_555 1_555
N1 C2 1_555 1_555
C3 N1 1_555 1_555
H2 C3 1_555 1_555
H3 C3 1_555 1_555
C4 C3 1_555 1_555
H4 C4 1_555 1_555
H5 C4 1_555 1_555
N2 C4 1_555 1_555
C5 N2 1_555 1_555
H6 C5 1_555 1_555
C6 S1 1_555 1_555
C7 C1 1_555 1_555
H7 C7 1_555 1_555
H8 C7 1_555 1_555
H9 C7 1_555 1_555
C8 C1 1_555 1_555
H10 C8 1_555 1_555
H11 C8 1_555 1_555
H12 C8 1_555 1_555
C9 C6 1_555 1_555
H13 C9 1_555 1_555
H14 C9 1_555 1_555
H15 C9 1_555 1_555
C10 C6 1_555 1_555
H16 C10 1_555 1_555
H17 C10 1_555 1_555
H18 C10 1_555 1_555
C5 C6 1_555 1_555

#END
