
#######################################################################
#
#                 Cambridge Crystallographic Data Centre
#                                CCDC 
#
#######################################################################
#
# If this CIF has been generated from an entry in the Cambridge 
# Structural Database, then it will include bibliographic, chemical, 
# crystal, experimental, refinement or atomic coordinate data resulting 
# from the CCDC's data processing and validation procedures.
#
#######################################################################

data_ISUSAQ
_chemical_formula_moiety         'C9 H8 Cl1 N1 O3'
_chemical_name_systematic        '(Chloro(phenyl)methyleneamino)oxyacetic acid'
_symmetry_cell_setting           triclinic
_symmetry_space_group_name_H-M   'P -1'
_symmetry_Int_Tables_number      2
_space_group_name_Hall           '-P 1'
loop_
_symmetry_equiv_pos_site_id
_symmetry_equiv_pos_as_xyz
1 x,y,z
2 -x,-y,-z
_cell_length_a                   6.79610(10)
_cell_length_b                   7.3857(2)
_cell_length_c                   10.8173(3)
_cell_angle_alpha                98.4852(9)
_cell_angle_beta                 93.4156(10)
_cell_angle_gamma                117.0191(12)
_cell_volume                     473.442
_exptl_crystal_colour            colorless
_exptl_crystal_description       plate
_chemical_melting_point          '381-383 K'
_cell_formula_units_Z            2
_exptl_crystal_recrystallization_method ethanol
loop_
_atom_site_label
_atom_site_type_symbol
_atom_site_fract_x
_atom_site_fract_y
_atom_site_fract_z
Cl1 Cl 0.82919(7) 0.00737(7) 0.78680(4)
O1 O 0.2370(2) 0.27726(19) 0.50408(13)
O2 O 0.5944(2) 0.36247(19) 0.56736(12)
O3 O 0.4685(2) 0.00535(19) 0.65729(11)
N1 N 0.5117(3) 0.1192(2) 0.78071(14)
C1 C 0.3942(3) 0.2414(3) 0.55267(16)
C2 C 0.3016(3) 0.0310(3) 0.58876(17)
C3 C 0.6749(3) 0.1242(2) 0.84810(16)
C4 C 0.7394(3) 0.2326(2) 0.98149(16)
C5 C 0.9281(3) 0.2563(3) 1.05444(17)
C6 C 0.9880(3) 0.3636(3) 1.17899(18)
C7 C 0.8604(3) 0.4479(3) 1.23152(18)
C8 C 0.6704(3) 0.4242(3) 1.15935(19)
C9 C 0.6092(3) 0.3170(3) 1.03528(18)
H1 H 0.2951 0.3949 0.4848
H2 H 0.1816 0.0141 0.6408
H3 H 0.2353 -0.0780 0.5113
H4 H 1.0167 0.1987 1.0190
H5 H 1.1172 0.3790 1.2281
H6 H 0.9020 0.5217 1.3165
H7 H 0.5823 0.4819 1.1954
H8 H 0.4790 0.3007 0.9867
loop_
_geom_bond_atom_site_label_1
_geom_bond_atom_site_label_2
_geom_bond_site_symmetry_1
_geom_bond_site_symmetry_2
Cl1 C3 1_555 1_555
O1 C1 1_555 1_555
O2 C1 1_555 1_555
O3 N1 1_555 1_555
N1 C3 1_555 1_555
C1 C2 1_555 1_555
C2 O3 1_555 1_555
C3 C4 1_555 1_555
C4 C5 1_555 1_555
C5 C6 1_555 1_555
C6 C7 1_555 1_555
C7 C8 1_555 1_555
C8 C9 1_555 1_555
C9 C4 1_555 1_555
H1 O1 1_555 1_555
H2 C2 1_555 1_555
H3 C2 1_555 1_555
H4 C5 1_555 1_555
H5 C6 1_555 1_555
H6 C7 1_555 1_555
H7 C8 1_555 1_555
H8 C9 1_555 1_555

#END
