
#######################################################################
#
#                 Cambridge Crystallographic Data Centre
#                                CCDC 
#
#######################################################################
#
# If this CIF has been generated from an entry in the Cambridge 
# Structural Database, then it will include bibliographic, chemical, 
# crystal, experimental, refinement or atomic coordinate data resulting 
# from the CCDC's data processing and validation procedures.
#
#######################################################################

data_ISUWAW
_chemical_formula_moiety         'C15 H16 B1 N1'
_chemical_name_systematic        
1,3,5-trimethyl-4-(phenylethynyl)-1,4-dihydro-1,4-azaborinine
_symmetry_cell_setting           triclinic
_symmetry_space_group_name_H-M   'P -1'
_symmetry_Int_Tables_number      2
_space_group_name_Hall           '-P 1'
loop_
_symmetry_equiv_pos_site_id
_symmetry_equiv_pos_as_xyz
1 x,y,z
2 -x,-y,-z
_cell_length_a                   9.6139(6)
_cell_length_b                   16.2776(11)
_cell_length_c                   16.8681(10)
_cell_angle_alpha                80.0420(10)
_cell_angle_beta                 85.7010(10)
_cell_angle_gamma                89.019(2)
_cell_volume                     2592.6
_exptl_crystal_colour            colorless
_exptl_crystal_description       block
_cell_formula_units_Z            8
loop_
_atom_site_label
_atom_site_type_symbol
_atom_site_fract_x
_atom_site_fract_y
_atom_site_fract_z
N1 N 0.74318(13) 0.82074(7) 0.43164(6)
B1 B 0.82079(16) 0.66356(10) 0.39322(8)
C1 C 0.66921(15) 0.75182(9) 0.46821(7)
C2 C 0.69900(14) 0.67369(9) 0.45308(7)
C3 C 0.89459(14) 0.74251(9) 0.35214(7)
C4 C 0.85069(15) 0.81527(9) 0.37502(7)
C5 C 0.7030(2) 0.90201(11) 0.45237(10)
C6 C 0.60757(17) 0.60284(10) 0.49637(9)
C7 C 1.01254(17) 0.74626(11) 0.28688(8)
C8 C 0.86935(15) 0.57737(9) 0.37550(7)
C9 C 0.91050(15) 0.51064(9) 0.36080(7)
C10 C 0.95376(14) 0.43105(9) 0.34181(7)
C11 C 0.89072(15) 0.39913(9) 0.28150(8)
C12 C 0.92843(16) 0.32173(10) 0.26381(8)
C13 C 1.02988(16) 0.27449(10) 0.30553(8)
C14 C 1.09395(16) 0.30617(10) 0.36489(8)
C15 C 1.05659(15) 0.38348(9) 0.38327(8)
H1 H 0.5937(17) 0.7636(10) 0.5073(9)
H2 H 0.8922(16) 0.8697(10) 0.3531(9)
H3 H 0.632(3) 0.9256(17) 0.4250(16)
H4 H 0.784(3) 0.9424(15) 0.4340(14)
H5 H 0.708(3) 0.9008(16) 0.5092(17)
H6 H 0.557(2) 0.5777(12) 0.4593(11)
H7 H 0.664(2) 0.5581(13) 0.5279(12)
H8 H 0.533(2) 0.6228(11) 0.5340(11)
H9 H 1.075(2) 0.7967(14) 0.2832(12)
H10 H 0.9774(19) 0.7476(11) 0.2343(11)
H11 H 1.0763(19) 0.6953(11) 0.2964(10)
H12 H 0.8213(17) 0.4344(10) 0.2518(9)
H13 H 0.8805(17) 0.2999(10) 0.2211(9)
H14 H 1.0565(18) 0.2192(11) 0.2931(9)
H15 H 1.1628(18) 0.2735(10) 0.3951(9)
H16 H 1.1026(17) 0.4052(10) 0.4249(9)
N2 N 0.25460(12) 0.70849(7) 0.42147(6)
B2 B 0.31907(17) 0.88035(10) 0.38466(8)
C16 C 0.36238(15) 0.73475(9) 0.36592(7)
C17 C 0.40018(14) 0.81652(9) 0.34426(7)
C18 C 0.19946(14) 0.84725(9) 0.44479(7)
C19 C 0.17627(15) 0.76338(9) 0.45868(8)
C20 C 0.22169(19) 0.61957(10) 0.44256(10)
C21 C 0.52175(17) 0.83699(11) 0.28171(8)
C22 C 0.10548(17) 0.90016(11) 0.49164(9)
C23 C 0.36106(15) 0.97315(9) 0.36691(8)
C24 C 0.40254(15) 1.04409(9) 0.35397(8)
C25 C 0.45491(14) 1.12777(9) 0.34143(7)
C26 C 0.39098(16) 1.19244(10) 0.29109(8)
C27 C 0.44193(16) 1.27283(10) 0.28079(8)
C28 C 0.55759(16) 1.29025(10) 0.31888(8)
C29 C 0.62222(16) 1.22647(10) 0.36885(8)
C30 C 0.57103(16) 1.14637(10) 0.38053(8)
H17 H 0.4096(16) 0.6892(10) 0.3453(8)
H18 H 0.1014(17) 0.7363(10) 0.4950(9)
H19 H 0.274(2) 0.5884(15) 0.4074(14)
H20 H 0.252(2) 0.5951(12) 0.4960(12)
H21 H 0.123(2) 0.6114(13) 0.4386(12)
H22 H 0.495(2) 0.8458(12) 0.2260(11)
H23 H 0.571(2) 0.8909(13) 0.2875(11)
H24 H 0.591(2) 0.7926(12) 0.2841(10)
H25 H 0.074(2) 0.9510(14) 0.4574(13)
H26 H 0.153(2) 0.9185(14) 0.5348(14)
H27 H 0.015(2) 0.8716(13) 0.5142(12)
H28 H 0.3081(18) 1.1821(10) 0.2633(10)
H29 H 0.3957(19) 1.3184(11) 0.2465(10)
H30 H 0.5955(18) 1.3468(11) 0.3100(9)
H31 H 0.7013(18) 1.2391(10) 0.3962(10)
H32 H 0.6148(18) 1.1021(11) 0.4176(10)
N3 N 0.20523(13) 0.44427(8) 0.05517(7)
B3 B 0.16895(17) 0.61595(11) -0.00488(8)
C31 C 0.29388(16) 0.48247(10) -0.00684(8)
C32 C 0.28400(15) 0.56493(10) -0.03903(7)
C33 C 0.07825(15) 0.57084(10) 0.06640(7)
C34 C 0.10250(16) 0.48811(10) 0.09007(8)
C35 C 0.2184(2) 0.35409(11) 0.08372(10)
C36 C 0.38839(18) 0.59986(13) -0.10761(9)
C37 C -0.0367(2) 0.61153(13) 0.11221(9)
C38 C 0.14011(15) 0.70641(10) -0.04559(8)
C39 C 0.11008(16) 0.77125(10) -0.08744(8)
C40 C 0.07096(15) 0.84168(9) -0.14579(7)
C41 C -0.06471(16) 0.87335(10) -0.14413(8)
C42 C -0.10496(18) 0.93464(10) -0.20594(9)
C43 C -0.01026(18) 0.96595(10) -0.26927(9)
C44 C 0.12521(18) 0.93639(11) -0.27027(9)
C45 C 0.16673(17) 0.87439(10) -0.20970(8)
H33 H 0.3656(18) 0.4458(11) -0.0268(9)
H34 H 0.0506(17) 0.4532(10) 0.1330(9)
H35 H 0.132(3) 0.3237(16) 0.0805(15)
H36 H 0.236(3) 0.3444(15) 0.1385(15)
H37 H 0.302(3) 0.3300(16) 0.0544(15)
H38 H 0.340(2) 0.6271(12) -0.1542(12)
H39 H 0.439(2) 0.6467(13) -0.0917(11)
H40 H 0.459(2) 0.5575(13) -0.1222(11)
H41 H -0.001(3) 0.6438(19) 0.1487(18)
H42 H -0.098(4) 0.572(2) 0.1483(19)
H43 H -0.100(3) 0.6491(16) 0.0796(15)
H44 H -0.1318(18) 0.8498(11) -0.0996(10)
H45 H -0.203(2) 0.9554(11) -0.2056(10)
H46 H -0.0403(18) 1.0093(11) -0.3155(10)
H47 H 0.193(2) 0.9600(12) -0.3135(11)
H48 H 0.2621(18) 0.8526(10) -0.2111(9)
N4 N 0.71372(13) 1.03412(8) -0.05633(7)
B4 B 0.65516(17) 0.86992(11) 0.02551(9)
C46 C 0.78414(16) 1.00193(11) 0.00988(8)
C47 C 0.76184(15) 0.92408(10) 0.05258(8)
C48 C 0.58439(15) 0.90759(10) -0.04977(8)
C49 C 0.61779(16) 0.98734(10) -0.08439(8)
C50 C 0.7433(2) 1.11895(12) -0.09913(10)
C51 C 0.8476(2) 0.89626(13) 0.12418(10)
C52 C 0.4791(2) 0.86268(13) -0.08894(10)
C53 C 0.61518(16) 0.78289(10) 0.07382(8)
C54 C 0.57545(16) 0.71936(10) 0.11665(8)
C55 C 0.52210(15) 0.64699(9) 0.17119(7)
C56 C 0.38613(17) 0.61925(11) 0.16694(8)
C57 C 0.33258(18) 0.55191(11) 0.22129(9)
C58 C 0.41378(17) 0.51027(10) 0.28042(8)
C59 C 0.54853(17) 0.53714(10) 0.28527(8)
C60 C 0.60324(16) 0.60491(10) 0.23132(8)
H49 H 0.8499(18) 1.0409(10) 0.0248(9)
H50 H 0.5731(16) 1.0188(10) -0.1317(9)
H51 H 0.808(2) 1.1456(14) -0.0686(13)
H52 H 0.784(2) 1.1165(12) -0.1541(12)
H53 H 0.652(2) 1.1538(13) -0.1013(12)
H54 H 0.788(2) 0.8784(13) 0.1718(13)
H55 H 0.917(2) 0.9403(13) 0.1330(11)
H56 H 0.909(2) 0.8470(13) 0.1170(11)
H57 H 0.404(2) 0.8372(13) -0.0501(13)
H58 H 0.522(3) 0.8173(16) -0.1140(14)
H59 H 0.437(2) 0.8999(13) -0.1330(13)
H60 H 0.3309(18) 0.6482(10) 0.1269(10)
H61 H 0.238(2) 0.5333(12) 0.2178(10)
H62 H 0.3749(18) 0.4610(11) 0.3187(10)
H63 H 0.6056(17) 0.5076(10) 0.3268(9)
H64 H 0.6988(19) 0.6262(10) 0.2363(9)
loop_
_geom_bond_atom_site_label_1
_geom_bond_atom_site_label_2
_geom_bond_site_symmetry_1
_geom_bond_site_symmetry_2
N1 C1 1_555 1_555
B1 C2 1_555 1_555
C1 C2 1_555 1_555
C2 C6 1_555 1_555
C3 B1 1_555 1_555
C4 N1 1_555 1_555
C5 N1 1_555 1_555
C6 H6 1_555 1_555
C7 C3 1_555 1_555
C8 B1 1_555 1_555
C9 C8 1_555 1_555
C10 C9 1_555 1_555
C11 C10 1_555 1_555
C12 C11 1_555 1_555
C13 C12 1_555 1_555
C14 C13 1_555 1_555
C15 C10 1_555 1_555
H1 C1 1_555 1_555
H2 C4 1_555 1_555
H3 C5 1_555 1_555
H4 C5 1_555 1_555
H5 C5 1_555 1_555
H7 C6 1_555 1_555
H8 C6 1_555 1_555
H9 C7 1_555 1_555
H10 C7 1_555 1_555
H11 C7 1_555 1_555
H12 C11 1_555 1_555
H13 C12 1_555 1_555
H14 C13 1_555 1_555
H15 C14 1_555 1_555
H16 C15 1_555 1_555
N2 C16 1_555 1_555
B2 C17 1_555 1_555
C16 C17 1_555 1_555
C17 C21 1_555 1_555
C18 B2 1_555 1_555
C19 N2 1_555 1_555
C20 N2 1_555 1_555
C21 H22 1_555 1_555
C22 C18 1_555 1_555
C23 B2 1_555 1_555
C24 C23 1_555 1_555
C25 C24 1_555 1_555
C26 C25 1_555 1_555
C27 C26 1_555 1_555
C28 C27 1_555 1_555
C29 C28 1_555 1_555
C30 C25 1_555 1_555
H17 C16 1_555 1_555
H18 C19 1_555 1_555
H19 C20 1_555 1_555
H20 C20 1_555 1_555
H21 C20 1_555 1_555
H23 C21 1_555 1_555
H24 C21 1_555 1_555
H25 C22 1_555 1_555
H26 C22 1_555 1_555
H27 C22 1_555 1_555
H28 C26 1_555 1_555
H29 C27 1_555 1_555
H30 C28 1_555 1_555
H31 C29 1_555 1_555
H32 C30 1_555 1_555
N3 C31 1_555 1_555
B3 C32 1_555 1_555
C31 C32 1_555 1_555
C32 C36 1_555 1_555
C33 B3 1_555 1_555
C34 N3 1_555 1_555
C35 N3 1_555 1_555
C36 H38 1_555 1_555
C37 C33 1_555 1_555
C38 B3 1_555 1_555
C39 C38 1_555 1_555
C40 C39 1_555 1_555
C41 C40 1_555 1_555
C42 C41 1_555 1_555
C43 C42 1_555 1_555
C44 C43 1_555 1_555
C45 C40 1_555 1_555
H33 C31 1_555 1_555
H34 C34 1_555 1_555
H35 C35 1_555 1_555
H36 C35 1_555 1_555
H37 C35 1_555 1_555
H39 C36 1_555 1_555
H40 C36 1_555 1_555
H41 C37 1_555 1_555
H42 C37 1_555 1_555
H43 C37 1_555 1_555
H44 C41 1_555 1_555
H45 C42 1_555 1_555
H46 C43 1_555 1_555
H47 C44 1_555 1_555
H48 C45 1_555 1_555
N4 C46 1_555 1_555
B4 C47 1_555 1_555
C46 C47 1_555 1_555
C47 C51 1_555 1_555
C48 B4 1_555 1_555
C49 N4 1_555 1_555
C50 N4 1_555 1_555
C51 H54 1_555 1_555
C52 C48 1_555 1_555
C53 B4 1_555 1_555
C54 C53 1_555 1_555
C55 C54 1_555 1_555
C56 C55 1_555 1_555
C57 C56 1_555 1_555
C58 C57 1_555 1_555
C59 C58 1_555 1_555
C60 C55 1_555 1_555
H49 C46 1_555 1_555
H50 C49 1_555 1_555
H51 C50 1_555 1_555
H52 C50 1_555 1_555
H53 C50 1_555 1_555
H55 C51 1_555 1_555
H56 C51 1_555 1_555
H57 C52 1_555 1_555
H58 C52 1_555 1_555
H59 C52 1_555 1_555
H60 C56 1_555 1_555
H61 C57 1_555 1_555
H62 C58 1_555 1_555
H63 C59 1_555 1_555
H64 C60 1_555 1_555
C3 C4 1_555 1_555
C14 C15 1_555 1_555
C18 C19 1_555 1_555
C29 C30 1_555 1_555
C33 C34 1_555 1_555
C44 C45 1_555 1_555
C48 C49 1_555 1_555
C59 C60 1_555 1_555

#END
