
#######################################################################
#
#                 Cambridge Crystallographic Data Centre
#                                CCDC 
#
#######################################################################
#
# If this CIF has been generated from an entry in the Cambridge 
# Structural Database, then it will include bibliographic, chemical, 
# crystal, experimental, refinement or atomic coordinate data resulting 
# from the CCDC's data processing and validation procedures.
#
#######################################################################

data_ITAKOE
_chemical_formula_moiety         'C22 H22 N2 O3'
_chemical_name_systematic        
1-((3-Nitrophenyl)(piperidin-1-yl)methyl)-2-naphthol
_symmetry_cell_setting           orthorhombic
_symmetry_space_group_name_H-M   'P n a 21'
_symmetry_Int_Tables_number      33
_space_group_name_Hall           'P 2c -2n'
loop_
_symmetry_equiv_pos_site_id
_symmetry_equiv_pos_as_xyz
1 x,y,z
2 -x,-y,1/2+z
3 1/2+x,1/2-y,z
4 1/2-x,1/2+y,1/2+z
_cell_length_a                   10.3939(8)
_cell_length_b                   15.4715(12)
_cell_length_c                   11.7267(9)
_cell_angle_alpha                90
_cell_angle_beta                 90
_cell_angle_gamma                90
_cell_volume                     1885.76
_exptl_crystal_colour            colorless
_exptl_crystal_description       plate
_cell_formula_units_Z            4
loop_
_atom_site_label
_atom_site_type_symbol
_atom_site_fract_x
_atom_site_fract_y
_atom_site_fract_z
O1 O 0.25154(16) 0.02512(10) 0.32430(15)
O2 O 0.3168(4) -0.2953(2) 0.6553(3)
O3 O 0.36881(18) -0.17055(14) 0.59665(16)
N1 N 0.03758(14) -0.05028(12) 0.26677(15)
N2 N 0.3105(2) -0.23776(16) 0.58661(18)
C1 C 0.24995(17) -0.09026(13) 0.18609(17)
C2 C 0.30567(18) -0.01892(14) 0.23583(17)
C3 C 0.4264(2) 0.01307(16) 0.1968(2)
C4 C 0.4879(2) -0.02684(15) 0.1096(2)
C5 C 0.43780(17) -0.10145(15) 0.05810(18)
C6 C 0.5028(2) -0.14448(19) -0.0315(2)
C7 C 0.4564(2) -0.2171(2) -0.0789(2)
C8 C 0.3392(2) -0.2522(2) -0.0402(2)
C9 C 0.2723(2) -0.21167(17) 0.0451(2)
C10 C 0.31651(17) -0.13507(13) 0.09659(17)
C11 C 0.11855(17) -0.12373(14) 0.22669(17)
C12 C -0.0752(2) -0.07592(17) 0.3361(2)
C13 C -0.1474(3) 0.0035(2) 0.3764(2)
C14 C -0.1935(3) 0.0577(3) 0.2774(3)
C15 C -0.0773(3) 0.0819(2) 0.2040(3)
C16 C -0.0047(3) 0.0014(2) 0.1677(2)
C17 C 0.13382(16) -0.19469(14) 0.31631(17)
C18 C 0.0654(2) -0.27163(16) 0.3062(2)
C19 C 0.0768(2) -0.33588(17) 0.3869(3)
C20 C 0.1553(3) -0.32500(17) 0.4799(2)
C21 C 0.2239(2) -0.24944(15) 0.48829(19)
C22 C 0.21560(18) -0.18394(14) 0.40882(18)
H1 H 0.0835(18) -0.1487(12) 0.1624(17)
H2 H 0.2617(18) -0.1272(13) 0.4203(18)
H3 H 0.455(2) 0.0629(15) 0.231(2)
H4 H 0.200(3) -0.2361(18) 0.070(2)
H5 H -0.090(3) 0.0414(17) 0.424(2)
H6 H -0.045(2) -0.1116(17) 0.411(2)
H7 H 0.572(3) 0.0003(18) 0.082(3)
H8 H -0.096(4) 0.112(2) 0.132(3)
H9 H 0.495(3) -0.243(2) -0.145(3)
H10 H 0.069(3) 0.0168(16) 0.122(2)
H11 H -0.129(2) -0.1184(17) 0.294(2)
H12 H -0.058(3) -0.0414(17) 0.127(2)
H13 H 0.162(2) -0.3684(18) 0.539(2)
H14 H 0.020(2) -0.2811(16) 0.238(2)
H15 H 0.575(3) -0.1212(18) -0.055(3)
H16 H -0.234(3) 0.106(2) 0.305(3)
H17 H 0.034(3) -0.3931(18) 0.376(2)
H18 H -0.221(3) -0.0131(18) 0.426(3)
H19 H 0.312(3) -0.3107(19) -0.070(3)
H20 H -0.250(3) 0.0243(19) 0.225(3)
H21 H 0.169(3) 0.007(2) 0.330(3)
H22 H -0.020(4) 0.119(3) 0.271(4)
loop_
_geom_bond_atom_site_label_1
_geom_bond_atom_site_label_2
_geom_bond_site_symmetry_1
_geom_bond_site_symmetry_2
O1 C2 1_555 1_555
O2 N2 1_555 1_555
O3 N2 1_555 1_555
N1 C11 1_555 1_555
N2 C21 1_555 1_555
C1 C2 1_555 1_555
C2 C3 1_555 1_555
C3 C4 1_555 1_555
C4 C5 1_555 1_555
C5 C6 1_555 1_555
C6 C7 1_555 1_555
C7 C8 1_555 1_555
C8 C9 1_555 1_555
C9 C10 1_555 1_555
C10 C1 1_555 1_555
C11 C1 1_555 1_555
C12 N1 1_555 1_555
C13 C12 1_555 1_555
C14 C13 1_555 1_555
C15 C14 1_555 1_555
C16 N1 1_555 1_555
C17 C11 1_555 1_555
C18 C17 1_555 1_555
C19 C18 1_555 1_555
C20 C19 1_555 1_555
C21 C20 1_555 1_555
C22 C17 1_555 1_555
H1 C11 1_555 1_555
H2 C22 1_555 1_555
H3 C3 1_555 1_555
H4 C9 1_555 1_555
H5 C13 1_555 1_555
H6 C12 1_555 1_555
H7 C4 1_555 1_555
H8 C15 1_555 1_555
H9 C7 1_555 1_555
H10 C16 1_555 1_555
H11 C12 1_555 1_555
H12 C16 1_555 1_555
H13 C20 1_555 1_555
H14 C18 1_555 1_555
H15 C6 1_555 1_555
H16 C14 1_555 1_555
H17 C19 1_555 1_555
H18 C13 1_555 1_555
H19 C8 1_555 1_555
H20 C14 1_555 1_555
H21 O1 1_555 1_555
H22 C15 1_555 1_555
C5 C10 1_555 1_555
C15 C16 1_555 1_555
C21 C22 1_555 1_555

#END
