
#######################################################################
#
#                 Cambridge Crystallographic Data Centre
#                                CCDC 
#
#######################################################################
#
# If this CIF has been generated from an entry in the Cambridge 
# Structural Database, then it will include bibliographic, chemical, 
# crystal, experimental, refinement or atomic coordinate data resulting 
# from the CCDC's data processing and validation procedures.
#
#######################################################################

data_ITAKOD
_chemical_formula_moiety         'C15 H19 N1 O1'
_chemical_name_systematic        
3-hydroxy-1,3-dimethyl-2-phenylcyclohexanecarbonitrile
_symmetry_cell_setting           orthorhombic
_symmetry_space_group_name_H-M   'P b c a'
_symmetry_Int_Tables_number      61
_space_group_name_Hall           '-P 2ac 2ab'
loop_
_symmetry_equiv_pos_site_id
_symmetry_equiv_pos_as_xyz
1 x,y,z
2 1/2-x,1/2+y,z
3 x,1/2-y,1/2+z
4 1/2+x,y,1/2-z
5 -x,-y,-z
6 1/2+x,1/2-y,-z
7 -x,1/2+y,1/2-z
8 1/2-x,-y,1/2+z
_cell_length_a                   15.645(5)
_cell_length_b                   15.428(2)
_cell_length_c                   11.384(3)
_cell_angle_alpha                90
_cell_angle_beta                 90
_cell_angle_gamma                90
_cell_volume                     2747.77
_exptl_crystal_colour            colorless
_exptl_crystal_description       plate
_chemical_melting_point          '419-421 K'
_cell_formula_units_Z            8
_exptl_crystal_recrystallization_method 'ethyl acetate/hexanes'
loop_
_atom_site_label
_atom_site_type_symbol
_atom_site_fract_x
_atom_site_fract_y
_atom_site_fract_z
O1 O 0.4706(2) 0.2544(1) 0.8207(2)
N1 N 0.5603(2) -0.0595(2) 0.6288(3)
C1 C 0.4527(3) 0.2340(2) 0.6998(3)
C2 C 0.5156(3) 0.2815(2) 0.6207(3)
C3 C 0.6067(3) 0.2516(2) 0.6336(4)
C4 C 0.6139(3) 0.1549(2) 0.6124(4)
C5 C 0.5562(2) 0.1030(2) 0.6963(3)
C6 C 0.4619(2) 0.1350(2) 0.6836(3)
C7 C 0.3622(3) 0.2611(3) 0.6715(4)
C8 C 0.5580(2) 0.0110(2) 0.6570(3)
C9 C 0.5924(3) 0.1039(2) 0.8217(4)
C10 C 0.3993(3) 0.0789(2) 0.7500(4)
C11 C 0.3850(3) 0.0858(2) 0.8702(4)
C12 C 0.3299(3) 0.0297(3) 0.9267(4)
C13 C 0.2876(3) -0.0340(3) 0.8655(6)
C14 C 0.3001(3) -0.0410(3) 0.7454(6)
C15 C 0.3553(3) 0.0153(3) 0.6889(4)
H1 H 0.5012 0.2718 0.5380
H2 H 0.5132 0.3431 0.6326
H3 H 0.6274 0.2638 0.7143
H4 H 0.6471 0.2847 0.5839
H5 H 0.5969 0.1445 0.5294
H6 H 0.6731 0.1353 0.6158
H7 H 0.4485 0.1257 0.6001
H8 H 0.3457 0.2470 0.5917
H9 H 0.3201 0.2289 0.7210
H10 H 0.3506 0.3206 0.6843
H11 H 0.5921 0.1613 0.8562
H12 H 0.6492 0.0820 0.8272
H13 H 0.5573 0.0682 0.8751
H14 H 0.4180 0.1312 0.9181
H15 H 0.3189 0.0359 1.0116
H16 H 0.2508 -0.0747 0.9062
H17 H 0.2697 -0.0852 0.7020
H18 H 0.3641 0.0102 0.6013
H19 H 0.4619 0.3225 0.8298
loop_
_geom_bond_atom_site_label_1
_geom_bond_atom_site_label_2
_geom_bond_site_symmetry_1
_geom_bond_site_symmetry_2
O1 C1 1_555 1_555
N1 C8 1_555 1_555
C1 C2 1_555 1_555
C2 C3 1_555 1_555
C3 C4 1_555 1_555
C4 C5 1_555 1_555
C5 C6 1_555 1_555
C6 C1 1_555 1_555
C7 C1 1_555 1_555
C8 C5 1_555 1_555
C9 C5 1_555 1_555
C10 C6 1_555 1_555
C11 C10 1_555 1_555
C12 C11 1_555 1_555
C13 C12 1_555 1_555
C14 C13 1_555 1_555
C15 C10 1_555 1_555
H1 C2 1_555 1_555
H2 C2 1_555 1_555
H3 C3 1_555 1_555
H4 C3 1_555 1_555
H5 C4 1_555 1_555
H6 C4 1_555 1_555
H7 C6 1_555 1_555
H8 C7 1_555 1_555
H9 C7 1_555 1_555
H10 C7 1_555 1_555
H11 C9 1_555 1_555
H12 C9 1_555 1_555
H13 C9 1_555 1_555
H14 C11 1_555 1_555
H15 C12 1_555 1_555
H16 C13 1_555 1_555
H17 C14 1_555 1_555
H18 C15 1_555 1_555
H19 O1 1_555 1_555
C14 C15 1_555 1_555

#END
