
#######################################################################
#
#                 Cambridge Crystallographic Data Centre
#                                CCDC 
#
#######################################################################
#
# If this CIF has been generated from an entry in the Cambridge 
# Structural Database, then it will include bibliographic, chemical, 
# crystal, experimental, refinement or atomic coordinate data resulting 
# from the CCDC's data processing and validation procedures.
#
#######################################################################

data_ITAMAT
_chemical_name_common            
5,15-bis(pentafluorophenyl)-10,20-diphenyl-21,22,23-trioxaporphyrinogen
_chemical_formula_moiety         'C44 H19 F10 N1 O3'
_chemical_name_systematic        
2,12-bis(pentafluorophenyl)-7,17-diphenyl-21,22,23-trioxa-24-azapentacyclo[16.2.1.1^3,6^.1^8,11^.1^13,16^]tetracosa-1,3,5,7,9,11,13,15,17,19-decaene
_symmetry_cell_setting           triclinic
_symmetry_space_group_name_H-M   'P 1'
_symmetry_Int_Tables_number      1
_space_group_name_Hall           'P 1'
loop_
_symmetry_equiv_pos_site_id
_symmetry_equiv_pos_as_xyz
1 x,y,z
_cell_length_a                   10.128(3)
_cell_length_b                   12.159(3)
_cell_length_c                   15.035(4)
_cell_angle_alpha                68.086(5)
_cell_angle_beta                 89.921(6)
_cell_angle_gamma                89.944(5)
_cell_volume                     1717.72
_exptl_crystal_colour            green
_exptl_crystal_description       Cube
_cell_formula_units_Z            2
loop_
_atom_site_label
_atom_site_type_symbol
_atom_site_fract_x
_atom_site_fract_y
_atom_site_fract_z
F1 F 0.5159(8) 1.2731(6) -0.1302(5)
F2 F 1.1927(7) 0.2440(6) 0.9878(5)
F3 F 0.3981(7) 1.0594(6) -0.0419(5)
F4 F 0.4980(6) 0.9039(5) 0.1228(5)
F5 F 1.2080(6) 0.6111(5) 0.7335(4)
F6 F 1.3110(6) 0.4566(6) 0.8974(5)
F7 F 0.9688(7) 0.1860(5) 0.9125(5)
F8 F 0.8643(6) 0.3438(5) 0.7497(5)
F9 F 0.7371(7) 1.3276(5) -0.0580(5)
F10 F 0.8413(6) 1.1750(5) 0.1043(4)
O1 O 0.7607(7) 0.9254(6) 0.3823(5)
O2 O 0.8357(6) 0.7591(6) 0.2907(5)
O3 O 0.9440(7) 0.5921(6) 0.4770(5)
N1 N 0.8690(7) 0.7611(6) 0.5643(5)
H1 H 0.8621 0.7608 0.5074
C1 C 0.5678(12) 1.1971(9) -0.0519(8)
C2 C 0.5057(11) 1.0883(10) -0.0048(8)
C3 C 0.5580(10) 1.0113(9) 0.0775(8)
C4 C 0.6730(9) 1.0313(8) 0.1204(7)
C5 C 0.7241(9) 0.9556(8) 0.2122(7)
C6 C 0.7149(10) 0.9886(9) 0.2869(7)
C7 C 0.7304(10) 0.9866(9) 0.4402(8)
C8 C 0.7606(10) 0.9533(8) 0.5326(7)
C9 C 0.8270(10) 0.8478(8) 0.5948(7)
C10 C 0.9251(9) 0.6739(8) 0.6431(7)
C11 C 0.9801(9) 0.5690(8) 0.6399(7)
C12 C 1.0356(10) 0.4790(9) 0.7342(7)
C13 C 0.9781(10) 0.3769(9) 0.7831(7)
C14 C 1.0311(12) 0.2952(9) 0.8692(8)
C15 C 1.1416(12) 0.3237(10) 0.9044(8)
C16 C 0.7816(10) 0.8462(8) 0.2118(7)
C17 C 0.8820(10) 0.6667(9) 0.2634(7)
C18 C 0.9463(9) 0.5621(8) 0.3238(7)
C19 C 0.9776(9) 0.5255(8) 0.4195(7)
C20 C 0.9926(9) 0.5286(8) 0.5648(7)
C21 C 0.8561(9) 0.8174(8) 0.6891(7)
H2 H 0.8384 0.8614 0.7268
C22 C 0.9181(10) 0.7069(8) 0.7183(7)
H3 H 0.9491 0.6637 0.7796
C23 C 0.7201(9) 1.0352(8) 0.5825(7)
C24 C 0.7874(11) 1.1441(9) 0.5635(8)
H4 H 0.8558 1.1673 0.5189
C25 C 0.7492(11) 1.2143(9) 0.6124(9)
H5 H 0.7882 1.2883 0.5973
C26 C 0.6561(10) 1.1785(9) 0.6820(8)
H6 H 0.6361 1.2255 0.7168
C27 C 0.5912(11) 1.0736(9) 0.7014(8)
H7 H 0.5259 1.0504 0.7482
C28 C 0.6222(10) 1.0024(9) 0.6520(8)
H8 H 0.5771 0.9314 0.6652
C29 C 0.6538(10) 1.0944(9) 0.2897(8)
H9 H 0.6148 1.1534 0.2376
C30 C 0.6618(9) 1.0950(8) 0.3807(7)
H10 H 0.6295 1.1536 0.4009
C31 C 1.1451(11) 0.5100(9) 0.7753(8)
C32 C 1.1988(11) 0.4313(11) 0.8608(8)
C33 C 1.0573(10) 0.4238(9) 0.5654(8)
H11 H 1.0981 0.3662 0.6174
C34 C 1.0475(10) 0.4252(8) 0.4780(8)
H12 H 1.0821 0.3676 0.4577
C35 C 0.9849(9) 0.4805(8) 0.2752(7)
C36 C 1.0844(10) 0.5130(9) 0.2062(8)
H13 H 1.1315 0.5825 0.1952
C37 C 1.1152(10) 0.4434(9) 0.1531(8)
H14 H 1.1791 0.4682 0.1052
C38 C 1.0489(11) 0.3365(9) 0.1727(8)
H15 H 1.0688 0.2891 0.1382
C39 C 0.9527(10) 0.3008(9) 0.2442(8)
H16 H 0.9081 0.2295 0.2582
C40 C 0.9241(11) 0.3745(9) 0.2950(8)
H17 H 0.8615 0.3498 0.3437
C41 C 0.8509(9) 0.6983(8) 0.1660(7)
H18 H 0.8675 0.6523 0.1298
C42 C 0.7906(9) 0.8105(8) 0.1320(7)
H19 H 0.7622 0.8529 0.0697
C43 C 0.7328(9) 1.1464(8) 0.0697(7)
C44 C 0.6817(11) 1.2255(9) -0.0119(9)
F11 F 0.6892(8) 0.7745(6) -0.1316(5)
F12 F 0.0125(8) -0.2547(6) 0.9871(5)
F13 F 0.4710(7) 0.8308(5) -0.0581(4)
F14 F 0.3645(6) 0.6747(5) 0.1060(4)
F15 F 0.7079(6) 0.4066(5) 0.1226(5)
F16 F 0.8080(7) 0.5604(6) -0.0418(5)
F17 F 0.3418(6) -0.1565(5) 0.7512(5)
F18 F 0.2395(7) -0.3109(5) 0.9129(5)
F19 F -0.1050(7) -0.0426(6) 0.8975(5)
F20 F -0.0022(6) 0.1139(5) 0.7329(5)
O4 O 0.2621(7) 0.0944(6) 0.4761(5)
O5 O 0.4459(7) 0.4273(5) 0.3812(5)
O6 O 0.3373(7) 0.2598(6) 0.5648(5)
N2 N 0.3701(7) 0.2582(6) 0.2909(5)
H20 H 0.3627 0.2596 0.3474
C45 C 0.6420(12) 0.6920(10) -0.0487(8)
C46 C 0.5256(10) 0.7271(9) -0.0121(8)
C47 C 0.4763(10) 0.6470(8) 0.0719(7)
C48 C 0.5366(10) 0.5321(8) 0.1211(8)
C49 C 0.4826(10) 0.4518(8) 0.2173(7)
C50 C 0.4257(9) 0.3452(9) 0.2147(7)
C51 C 0.3268(9) 0.1661(8) 0.2641(7)
C52 C 0.2614(9) 0.0614(9) 0.3229(8)
C53 C 0.2264(9) 0.0288(8) 0.4176(7)
C54 C 0.2131(10) 0.0276(9) 0.5668(8)
C55 C 0.2275(9) 0.0651(9) 0.6443(7)
C56 C 0.1741(9) -0.0197(9) 0.7348(7)
C57 C 0.2312(10) -0.1236(9) 0.7847(8)
C58 C 0.1767(13) -0.2028(10) 0.8685(9)
C59 C 0.0685(13) -0.1816(9) 0.9077(8)
C60 C 0.6484(10) 0.5072(9) 0.0816(7)
C61 C 0.7000(12) 0.5877(10) -0.0048(9)
C62 C 0.4912(9) 0.4886(8) 0.2889(7)
C63 C 0.4737(10) 0.4905(9) 0.4379(7)
C64 C 0.4478(10) 0.4525(8) 0.5317(8)
C65 C 0.3810(10) 0.3470(8) 0.5955(7)
C66 C 0.2819(9) 0.1731(8) 0.6463(7)
C67 C 0.2895(9) 0.2098(9) 0.7202(8)
H21 H 0.2584 0.1680 0.7818
C68 C 0.3503(10) 0.3186(8) 0.6905(7)
H22 H 0.3671 0.3639 0.7273
C69 C 0.0076(10) -0.0693(11) 0.8614(9)
C70 C 0.0616(10) 0.0070(9) 0.7793(8)
C71 C 0.2205(10) -0.0164(8) 0.2727(8)
C72 C 0.1198(10) 0.0162(9) 0.2068(8)
H23 H 0.0702 0.0836 0.1987
C73 C 0.0909(10) -0.0537(7) 0.1499(7)
H24 H 0.0300 -0.0278 0.1001
C74 C 0.1577(11) -0.1623(9) 0.1723(8)
H25 H 0.1380 -0.2107 0.1386
C75 C 0.2527(11) -0.1983(9) 0.2441(7)
H26 H 0.2952 -0.2707 0.2586
C76 C 0.2844(10) -0.1261(8) 0.2943(8)
H27 H 0.3480 -0.1505 0.3422
C77 C 0.4165(9) 0.3130(8) 0.1343(7)
H28 H 0.4447 0.3568 0.0723
C78 C 0.3553(10) 0.1995(8) 0.1677(8)
H29 H 0.3373 0.1549 0.1306
C79 C 0.1638(10) -0.0751(9) 0.4767(8)
H30 H 0.1343 -0.1349 0.4571
C80 C 0.1526(11) -0.0763(9) 0.5661(8)
H31 H 0.1123 -0.1348 0.6179
C81 C 0.4869(10) 0.5382(8) 0.5805(7)
C82 C 0.5831(10) 0.5054(9) 0.6526(8)
H32 H 0.6253 0.4325 0.6691
C83 C 0.6151(9) 0.5775(9) 0.6978(8)
H33 H 0.6842 0.5567 0.7416
C84 C 0.5495(11) 0.6801(10) 0.6815(8)
H34 H 0.5684 0.7258 0.7175
C85 C 0.4553(11) 0.7160(9) 0.6116(9)
H35 H 0.4141 0.7890 0.5968
C86 C 0.4210(9) 0.6438(8) 0.5626(6)
H36 H 0.3534 0.6665 0.5175
C87 C 0.5503(10) 0.5946(9) 0.3797(7)
H37 H 0.5888 0.6500 0.4007
C88 C 0.5545(10) 0.5950(9) 0.2909(8)
H38 H 0.5920 0.6543 0.2383
loop_
_geom_bond_atom_site_label_1
_geom_bond_atom_site_label_2
_geom_bond_site_symmetry_1
_geom_bond_site_symmetry_2
F1 C1 1_555 1_555
F2 C15 1_555 1_555
F3 C2 1_555 1_555
F4 C3 1_555 1_555
F5 C31 1_555 1_555
F6 C32 1_555 1_555
F7 C14 1_555 1_555
F8 C13 1_555 1_555
F9 C44 1_555 1_555
F10 C43 1_555 1_555
O1 C6 1_555 1_555
O2 C16 1_555 1_555
O3 C19 1_555 1_555
N1 H1 1_555 1_555
C1 C2 1_555 1_555
C2 C3 1_555 1_555
C3 C4 1_555 1_555
C4 C5 1_555 1_555
C5 C6 1_555 1_555
C6 C29 1_555 1_555
C7 O1 1_555 1_555
C8 C7 1_555 1_555
C9 N1 1_555 1_555
C10 N1 1_555 1_555
C11 C10 1_555 1_555
C12 C11 1_555 1_555
C13 C12 1_555 1_555
C14 C13 1_555 1_555
C15 C14 1_555 1_555
C16 C5 1_555 1_555
C17 O2 1_555 1_555
C18 C17 1_555 1_555
C19 C18 1_555 1_555
C20 O3 1_555 1_555
C21 C9 1_555 1_555
H2 C21 1_555 1_555
C22 C10 1_555 1_555
H3 C22 1_555 1_555
C23 C8 1_555 1_555
C24 C23 1_555 1_555
H4 C24 1_555 1_555
C25 C24 1_555 1_555
H5 C25 1_555 1_555
C26 C25 1_555 1_555
H6 C26 1_555 1_555
C27 C26 1_555 1_555
H7 C27 1_555 1_555
C28 C23 1_555 1_555
H8 C28 1_555 1_555
C29 H9 1_555 1_555
C30 C7 1_555 1_555
H10 C30 1_555 1_555
C31 C12 1_555 1_555
C32 C15 1_555 1_555
C33 C20 1_555 1_555
H11 C33 1_555 1_555
C34 C19 1_555 1_555
H12 C34 1_555 1_555
C35 C18 1_555 1_555
C36 C35 1_555 1_555
H13 C36 1_555 1_555
C37 C36 1_555 1_555
H14 C37 1_555 1_555
C38 C37 1_555 1_555
H15 C38 1_555 1_555
C39 C38 1_555 1_555
H16 C39 1_555 1_555
C40 C35 1_555 1_555
H17 C40 1_555 1_555
C41 C17 1_555 1_555
H18 C41 1_555 1_555
C42 C16 1_555 1_555
H19 C42 1_555 1_555
C43 C4 1_555 1_555
C44 C1 1_555 1_555
F11 C45 1_555 1_555
F12 C59 1_555 1_555
F13 C46 1_555 1_555
F14 C47 1_555 1_555
F15 C60 1_555 1_555
F16 C61 1_555 1_555
F17 C57 1_555 1_555
F18 C58 1_555 1_555
F19 C69 1_555 1_555
F20 C70 1_555 1_555
O4 C53 1_555 1_555
O5 C62 1_555 1_555
O6 C65 1_555 1_555
N2 H20 1_555 1_555
C45 C46 1_555 1_555
C46 C47 1_555 1_555
C47 C48 1_555 1_555
C48 C49 1_555 1_555
C49 C50 1_555 1_555
C50 N2 1_555 1_555
C51 N2 1_555 1_555
C52 C51 1_555 1_555
C53 C52 1_555 1_555
C54 O4 1_555 1_555
C55 C54 1_555 1_555
C56 C55 1_555 1_555
C57 C56 1_555 1_555
C58 C57 1_555 1_555
C59 C58 1_555 1_555
C60 C48 1_555 1_555
C61 C45 1_555 1_555
C62 C49 1_555 1_555
C63 O5 1_555 1_555
C64 C63 1_555 1_555
C65 C64 1_555 1_555
C66 O6 1_555 1_555
C67 C66 1_555 1_555
H21 C67 1_555 1_555
C68 C65 1_555 1_555
H22 C68 1_555 1_555
C69 C59 1_555 1_555
C70 C56 1_555 1_555
C71 C52 1_555 1_555
C72 C71 1_555 1_555
H23 C72 1_555 1_555
C73 C72 1_555 1_555
H24 C73 1_555 1_555
C74 C73 1_555 1_555
H25 C74 1_555 1_555
C75 C74 1_555 1_555
H26 C75 1_555 1_555
C76 C71 1_555 1_555
H27 C76 1_555 1_555
C77 C50 1_555 1_555
H28 C77 1_555 1_555
C78 C51 1_555 1_555
H29 C78 1_555 1_555
C79 C53 1_555 1_555
H30 C79 1_555 1_555
C80 C54 1_555 1_555
H31 C80 1_555 1_555
C81 C64 1_555 1_555
C82 C81 1_555 1_555
H32 C82 1_555 1_555
C83 C82 1_555 1_555
H33 C83 1_555 1_555
C84 C83 1_555 1_555
H34 C84 1_555 1_555
C85 C84 1_555 1_555
H35 C85 1_555 1_555
C86 C81 1_555 1_555
H36 C86 1_555 1_555
C87 C63 1_555 1_555
H37 C87 1_555 1_555
C88 C62 1_555 1_555
H38 C88 1_555 1_555
C8 C9 1_555 1_555
C11 C20 1_555 1_555
C21 C22 1_555 1_555
C27 C28 1_555 1_555
C29 C30 1_555 1_555
C31 C32 1_555 1_555
C33 C34 1_555 1_555
C39 C40 1_555 1_555
C41 C42 1_555 1_555
C43 C44 1_555 1_555
C55 C66 1_555 1_555
C60 C61 1_555 1_555
C67 C68 1_555 1_555
C69 C70 1_555 1_555
C75 C76 1_555 1_555
C77 C78 1_555 1_555
C79 C80 1_555 1_555
C85 C86 1_555 1_555
C87 C88 1_555 1_555

#END
