
#######################################################################
#
#                 Cambridge Crystallographic Data Centre
#                                CCDC 
#
#######################################################################
#
# If this CIF has been generated from an entry in the Cambridge 
# Structural Database, then it will include bibliographic, chemical, 
# crystal, experimental, refinement or atomic coordinate data resulting 
# from the CCDC's data processing and validation procedures.
#
#######################################################################

data_ITANIB
_chemical_formula_moiety         'C18 H20 N2 Se2'
_chemical_name_systematic        
N,N'-bis[(2-methylseleno)phenylmethylene]-1,2-ethanediamine
_symmetry_cell_setting           triclinic
_symmetry_space_group_name_H-M   'P -1'
_symmetry_Int_Tables_number      2
_space_group_name_Hall           '-P 1'
loop_
_symmetry_equiv_pos_site_id
_symmetry_equiv_pos_as_xyz
1 x,y,z
2 -x,-y,-z
_cell_length_a                   4.9264(3)
_cell_length_b                   7.4097(4)
_cell_length_c                   12.3868(7)
_cell_angle_alpha                76.344(4)
_cell_angle_beta                 88.234(4)
_cell_angle_gamma                79.904(3)
_cell_volume                     432.545
_exptl_crystal_description       block
_chemical_melting_point          115-116deg.C
_cell_formula_units_Z            1
loop_
_atom_site_label
_atom_site_type_symbol
_atom_site_fract_x
_atom_site_fract_y
_atom_site_fract_z
Se1 Se -0.05431(6) 1.09388(4) 0.19669(2)
N1 N -0.3261(6) 0.9139(4) 0.3825(2)
C1 C -0.5451(7) 0.9441(5) 0.4622(3)
H1 H -0.5812 0.8236 0.5057
H2 H -0.7135 1.0123 0.4230
C2 C -0.2291(6) 0.7479(4) 0.3783(2)
H3 H -0.3047 0.6506 0.4237
C3 C -0.0020(6) 0.6995(4) 0.3054(2)
C4 C 0.1142(7) 0.5083(5) 0.3207(3)
H4 H 0.0405 0.4191 0.3737
C5 C 0.3356(7) 0.4495(5) 0.2588(3)
H5 H 0.4112 0.3223 0.2703
C6 C 0.4427(7) 0.5817(5) 0.1799(3)
H6 H 0.5933 0.5436 0.1384
C7 C 0.3293(7) 0.7700(5) 0.1616(3)
H7 H 0.4030 0.8569 0.1071
C8 C 0.1057(6) 0.8334(4) 0.2233(2)
C9 C 0.1556(8) 1.1938(5) 0.0669(3)
H8 H 0.3466 1.1760 0.0872
H9 H 0.0868 1.3259 0.0397
H10 H 0.1368 1.1286 0.0099
Se1A Se -0.94569(6) 0.90612(4) 0.80331(2)
N1A N -0.6739(6) 1.0861(4) 0.6175(2)
C1A C -0.4549(7) 1.0559(5) 0.5378(3)
H1A H -0.4188 1.1764 0.4943
H2A H -0.2865 0.9877 0.5770
C2A C -0.7709(6) 1.2521(4) 0.6217(2)
H3A H -0.6953 1.3494 0.5763
C3A C -0.9980(6) 1.3005(4) 0.6946(2)
C4A C -1.1142(7) 1.4917(5) 0.6793(3)
H4A H -1.0405 1.5809 0.6263
C5A C -1.3356(7) 1.5505(5) 0.7412(3)
H5A H -1.4112 1.6777 0.7297
C6A C -1.4427(7) 1.4183(5) 0.8201(3)
H6A H -1.5933 1.4564 0.8616
C7A C -1.3293(7) 1.2300(5) 0.8384(3)
H7A H -1.4030 1.1431 0.8929
C8A C -1.1057(6) 1.1666(4) 0.7767(2)
C9A C -1.1556(8) 0.8062(5) 0.9331(3)
H8A H -1.3466 0.8240 0.9128
H9A H -1.0868 0.6741 0.9603
H10A H -1.1368 0.8714 0.9901
loop_
_geom_bond_atom_site_label_1
_geom_bond_atom_site_label_2
_geom_bond_site_symmetry_1
_geom_bond_site_symmetry_2
Se1 C8 1_555 1_555
N1 C1 1_555 1_555
C1 H1 1_555 1_555
H2 C1 1_555 1_555
C2 N1 1_555 1_555
H3 C2 1_555 1_555
C3 C2 1_555 1_555
C4 C3 1_555 1_555
H4 C4 1_555 1_555
C5 C4 1_555 1_555
H5 C5 1_555 1_555
C6 C5 1_555 1_555
H6 C6 1_555 1_555
C7 C6 1_555 1_555
H7 C7 1_555 1_555
C8 C3 1_555 1_555
C9 Se1 1_555 1_555
H8 C9 1_555 1_555
H9 C9 1_555 1_555
H10 C9 1_555 1_555
Se1A C8A 1_555 1_555
N1A C1A 1_555 1_555
C1A C1 1_555 1_555
H1A C1A 1_555 1_555
H2A C1A 1_555 1_555
C2A N1A 1_555 1_555
H3A C2A 1_555 1_555
C3A C2A 1_555 1_555
C4A C3A 1_555 1_555
H4A C4A 1_555 1_555
C5A C4A 1_555 1_555
H5A C5A 1_555 1_555
C6A C5A 1_555 1_555
H6A C6A 1_555 1_555
C7A C6A 1_555 1_555
H7A C7A 1_555 1_555
C8A C3A 1_555 1_555
C9A Se1A 1_555 1_555
H8A C9A 1_555 1_555
H9A C9A 1_555 1_555
H10A C9A 1_555 1_555
C7 C8 1_555 1_555
C7A C8A 1_555 1_555

#END
