
#######################################################################
#
#                 Cambridge Crystallographic Data Centre
#                                CCDC 
#
#######################################################################
#
# If this CIF has been generated from an entry in the Cambridge 
# Structural Database, then it will include bibliographic, chemical, 
# crystal, experimental, refinement or atomic coordinate data resulting 
# from the CCDC's data processing and validation procedures.
#
#######################################################################

data_ITANOI
_chemical_name_common            
"2,2',2''-{1,3,5-triazine-2,4,6-triyltris[(4,1-phenylene)azanylylidenemethanylylidene]}triphenol monohydrate"
_chemical_formula_moiety         'C42 H30 N6 O3,H2 O1'
_chemical_name_systematic        
'2-(((4-(4,6-bis(4-((2-hydroxybenzylidene)amino)phenyl)-1,3,5-triazin-2-yl)phenyl)imino)methyl)phenol monohydrate'
_symmetry_cell_setting           triclinic
_symmetry_space_group_name_H-M   'P 1'
_symmetry_Int_Tables_number      1
_space_group_name_Hall           'P 1'
loop_
_symmetry_equiv_pos_site_id
_symmetry_equiv_pos_as_xyz
1 x,y,z
_cell_length_a                   6.1550(5)
_cell_length_b                   12.6175(10)
_cell_length_c                   26.054(2)
_cell_angle_alpha                102.990(7)
_cell_angle_beta                 91.911(7)
_cell_angle_gamma                102.838(7)
_cell_volume                     1914.91
_exptl_crystal_colour            yellow
_exptl_crystal_description       needle
_cell_formula_units_Z            2
loop_
_atom_site_label
_atom_site_type_symbol
_atom_site_fract_x
_atom_site_fract_y
_atom_site_fract_z
N1 N 0.3008(19) 0.7768(10) 0.5941(5)
N2 N 0.617(2) 0.8421(9) 0.6560(5)
C1 C 0.642(3) 0.8856(14) 0.5687(6)
N3 N 0.284(2) 0.7322(11) 0.6773(5)
C2 C 0.611(3) 0.7964(13) 0.7411(5)
C3 C 0.667(3) 0.9277(14) 0.4855(6)
H1 H 0.6036 0.9240 0.4520
C4 C 0.496(2) 0.7915(13) 0.6896(5)
C5 C -0.038(3) 0.6610(12) 0.6137(6)
C6 C 0.507(2) 0.8361(11) 0.6093(5)
C7 C 0.987(3) 0.9785(14) 0.5459(6)
H2 H 1.1398 1.0088 0.5547
N4 N 1.026(2) 1.0271(11) 0.4617(5)
C8 C 0.817(3) 0.7923(14) 0.8348(6)
C9 C 0.885(2) 0.9796(11) 0.4990(6)
C10 C 0.489(3) 0.7424(15) 0.7752(6)
H3 H 0.3397 0.7048 0.7662
C11 C 0.535(2) 0.8801(11) 0.5201(6)
H4 H 0.3840 0.8464 0.5114
C12 C 0.833(3) 0.8447(11) 0.7533(5)
H5 H 0.9109 0.8807 0.7296
C13 C 0.941(3) 0.8421(13) 0.7976(5)
H6 H 1.0941 0.8721 0.8042
C14 C 0.192(3) 0.7267(12) 0.6286(5)
C15 C -0.374(3) 0.5406(16) 0.6314(9)
H7 H -0.4502 0.5012 0.6541
C16 C -0.362(3) 0.5945(15) 0.5536(6)
H8 H -0.4311 0.5921 0.5209
C17 C -0.152(3) 0.6571(14) 0.5655(5)
H9 H -0.0826 0.6971 0.5421
O1 O 1.361(2) 1.0351(11) 0.4040(5)
C18 C 1.384(4) 1.1640(17) 0.3475(7)
H10 H 1.5121 1.1435 0.3349
N5 N 0.940(3) 0.7886(12) 0.8809(6)
C19 C 0.855(3) 0.9307(14) 0.5793(7)
H11 H 0.9213 0.9302 0.6118
C20 C -0.484(3) 0.5345(11) 0.5842(8)
C21 C 0.596(3) 0.7463(15) 0.8228(7)
H12 H 0.5137 0.7164 0.8477
C22 C 1.076(2) 1.1405(14) 0.3998(6)
C23 C 0.947(3) 1.0927(12) 0.4385(6)
H13 H 0.8096 1.1090 0.4463
C24 C 0.955(3) 0.7803(15) 0.9729(7)
N6 N -0.690(2) 0.4745(14) 0.5673(7)
C25 C -0.147(3) 0.6040(11) 0.6487(7)
H14 H -0.0787 0.6063 0.6814
C26 C 1.141(4) 0.7377(14) 0.9719(6)
O2 O 1.244(3) 0.7150(16) 0.9268(6)
H15 H 1.1651 0.7187 0.9017
C27 C 0.851(3) 0.8014(17) 0.9262(6)
H16 H 0.7182 0.8247 0.9287
C28 C 1.273(3) 1.1076(16) 0.3849(6)
C29 C 1.141(5) 1.2776(16) 0.3472(7)
H17 H 1.1039 1.3375 0.3367
C30 C 1.219(4) 0.7181(18) 1.0164(8)
H18 H 1.3449 0.6886 1.0145
C31 C 0.859(3) 0.7980(15) 1.0197(6)
H19 H 0.7307 0.8255 1.0213
C32 C 0.943(5) 0.7774(18) 1.0632(9)
H20 H 0.8753 0.7902 1.0946
C33 C 1.320(4) 1.240(2) 0.3302(7)
H21 H 1.3995 1.2705 0.3051
C34 C 1.141(5) 0.7351(17) 1.0603(10)
H22 H 1.2082 0.7210 1.0897
C35 C 1.016(3) 1.2242(13) 0.3806(6)
H23 H 0.8850 1.2453 0.3907
O3 O -1.031(3) 0.4368(15) 0.4887(6)
H24 H -0.8982 0.4370 0.4916
C36 C -0.817(4) 0.416(3) 0.5767(16)
C37 C -1.149(3) 0.2706(12) 0.5847(5)
H25 H -1.0770 0.2576 0.6138
C38 C -1.0368(16) 0.3482(10) 0.5584(5)
C39 C -1.144(2) 0.3676(9) 0.5149(5)
C40 C -1.363(2) 0.3096(11) 0.4975(5)
H26 H -1.4349 0.3226 0.4684
C41 C -1.4751(17) 0.2321(10) 0.5238(6)
H27 H -1.6218 0.1932 0.5122
C42 C -1.368(3) 0.2126(10) 0.5673(6)
H28 H -1.4429 0.1607 0.5849
N7 N 0.0839(18) 1.1356(9) 0.0756(5)
N8 N -0.2521(19) 1.0270(9) 0.0990(4)
N9 N 0.073(2) 1.0906(9) 0.1610(5)
C43 C 0.174(2) 1.1398(12) 0.1243(6)
C44 C -0.270(2) 0.9828(9) 0.1832(5)
C45 C -0.522(2) 0.8886(13) 0.2576(6)
C46 C -0.498(2) 0.9310(11) 0.1705(5)
H29 H -0.5679 0.9283 0.1378
C47 C -0.238(2) 1.0743(11) 0.0157(6)
C48 C -0.130(3) 1.0795(10) 0.0667(6)
N10 N -0.653(2) 0.8419(11) 0.2921(5)
C49 C 0.509(2) 1.2134(13) 0.1862(7)
H30 H 0.4246 1.1748 0.2081
C50 C 0.522(3) 1.2636(13) 0.1034(6)
H31 H 0.4524 1.2594 0.0705
C51 C 0.410(2) 1.2061(10) 0.1377(6)
C52 C -0.620(2) 0.8835(10) 0.2078(5)
H32 H -0.7704 0.8478 0.1990
N11 N -0.571(2) 1.0827(11) -0.1285(5)
C53 C -0.150(2) 1.0370(11) 0.1461(6)
O4 O -1.003(2) 0.8302(11) 0.3517(5)
H33 H -0.9079 0.8606 0.3350
C54 C -0.586(3) 1.0890(13) -0.2167(6)
C55 C -0.174(2) 0.9862(12) 0.2324(5)
H34 H -0.0242 1.0228 0.2413
C56 C 0.827(3) 1.3299(13) 0.1693(8)
C57 C -0.650(3) 0.6513(18) 0.3733(7)
H35 H -0.5221 0.6293 0.3612
C58 C -0.587(3) 0.7789(14) 0.3156(6)
H36 H -0.4504 0.7612 0.3093
C59 C -0.574(3) 1.0289(15) -0.0452(7)
H37 H -0.7256 0.9962 -0.0535
C60 C 0.724(3) 1.2733(13) 0.2058(8)
H38 H 0.7914 1.2755 0.2387
C61 C -0.227(3) 1.1209(19) -0.0689(6)
H39 H -0.1433 1.1549 -0.0924
C62 C -0.291(3) 0.9372(11) 0.2692(6)
H40 H -0.2185 0.9366 0.3010
C63 C -0.729(4) 0.7305(13) 0.3544(7)
C64 C -0.482(3) 1.0694(11) -0.1706(6)
H41 H -0.3482 1.0467 -0.1725
C65 C -0.924(3) 0.7587(13) 0.3730(6)
C66 C -0.456(3) 1.0746(13) -0.0815(6)
C67 C 1.509(5) 1.5073(14) 0.2382(10)
C68 C -0.126(3) 1.1164(15) -0.0224(7)
H42 H 0.0287 1.1435 -0.0162
C69 C -0.484(4) 1.0690(15) -0.2622(9)
H43 H -0.3533 1.0437 -0.2634
C70 C -0.474(2) 1.0293(14) 0.0046(6)
H44 H -0.5596 1.0011 0.0294
C71 C -0.755(4) 1.1363(19) -0.3074(8)
H45 H -0.8000 1.1599 -0.3365
O5 O -0.889(2) 1.1485(15) -0.1713(6)
H46 H -0.9935 1.1760 -0.1768
C72 C -1.033(3) 0.7207(18) 0.4080(7)
H47 H -1.1561 0.7473 0.4202
C73 C -0.966(4) 0.6386(18) 0.4280(8)
H48 H -1.0532 0.6073 0.4518
C74 C 1.140(4) 1.4451(16) 0.1692(7)
H49 H 1.0593 1.4475 0.1388
C75 C 0.731(3) 1.3257(13) 0.1181(7)
H50 H 0.8112 1.3644 0.0956
N12 N 1.095(3) 1.3994(12) 0.1969(7)
C76 C -0.777(4) 0.6015(18) 0.4144(8)
H51 H -0.7310 0.5491 0.4294
C77 C -0.590(5) 1.0891(19) -0.3096(7)
H52 H -0.5347 1.0670 -0.3421
O6 O 1.415(5) 1.454(2) 0.2653(8)
C78 C -0.875(4) 1.1533(18) -0.2591(9)
H53 H -1.0037 1.1803 -0.2578
C79 C -0.783(3) 1.1270(16) -0.2164(8)
C80 C 1.833(3) 1.6331(16) 0.2289(8)
H54 H 1.9773 1.6768 0.2390
C81 C 1.747(3) 1.5680(15) 0.2604(7)
H55 H 1.8197 1.5607 0.2908
C82 C 1.731(4) 1.643(2) 0.1830(11)
H56 H 1.8049 1.6858 0.1614
C83 C 1.418(3) 1.5191(18) 0.1963(11)
C84 C 1.513(3) 1.5838(19) 0.1715(10)
H57 H 1.4324 1.5940 0.1429
O7 O 0.505(7) 0.4460(15) 0.9770(11)
O8 O 1.061(7) 0.4319(17) 0.7391(15)
loop_
_geom_bond_atom_site_label_1
_geom_bond_atom_site_label_2
_geom_bond_site_symmetry_1
_geom_bond_site_symmetry_2
N1 C6 1_555 1_555
N2 C4 1_555 1_555
C1 C6 1_555 1_555
N3 C4 1_555 1_555
C2 C4 1_555 1_555
C3 H1 1_555 1_555
C5 C14 1_555 1_555
C6 N2 1_555 1_555
C7 H2 1_555 1_555
N4 C9 1_555 1_555
C8 C13 1_555 1_555
C9 C3 1_555 1_555
C10 C2 1_555 1_555
H3 C10 1_555 1_555
C11 C1 1_555 1_555
H4 C11 1_555 1_555
C12 C2 1_555 1_555
H5 C12 1_555 1_555
C13 C12 1_555 1_555
H6 C13 1_555 1_555
C14 N1 1_555 1_555
C15 H7 1_555 1_555
C16 H8 1_555 1_555
C17 C5 1_555 1_555
H9 C17 1_555 1_555
O1 C28 1_555 1_555
C18 H10 1_555 1_555
N5 C8 1_555 1_555
C19 C1 1_555 1_555
H11 C19 1_555 1_555
C20 C15 1_555 1_555
C21 C8 1_555 1_555
H12 C21 1_555 1_555
C22 C23 1_555 1_555
C23 N4 1_555 1_555
H13 C23 1_555 1_555
C24 C26 1_555 1_555
N6 C20 1_555 1_555
C25 C5 1_555 1_555
H14 C25 1_555 1_555
C26 O2 1_555 1_555
O2 H15 1_555 1_555
C27 N5 1_555 1_555
H16 C27 1_555 1_555
C28 C18 1_555 1_555
C29 H17 1_555 1_555
C30 C26 1_555 1_555
H18 C30 1_555 1_555
C31 C24 1_555 1_555
H19 C31 1_555 1_555
C32 C31 1_555 1_555
H20 C32 1_555 1_555
C33 C18 1_555 1_555
H21 C33 1_555 1_555
C34 C30 1_555 1_555
H22 C34 1_555 1_555
C35 C22 1_555 1_555
H23 C35 1_555 1_555
O3 H24 1_555 1_555
C36 N6 1_555 1_555
C37 H25 1_555 1_555
C38 C36 1_555 1_555
C39 O3 1_555 1_555
C40 C39 1_555 1_555
H26 C40 1_555 1_555
C41 C40 1_555 1_555
H27 C41 1_555 1_555
C42 C37 1_555 1_555
H28 C42 1_555 1_555
N7 C43 1_555 1_555
N8 C48 1_555 1_555
N9 C43 1_555 1_555
C43 C51 1_555 1_555
C44 C46 1_555 1_555
C45 N10 1_555 1_555
C46 H29 1_555 1_555
C47 C48 1_555 1_555
C48 N7 1_555 1_555
N10 C58 1_555 1_555
C49 H30 1_555 1_555
C50 H31 1_555 1_555
C51 C49 1_555 1_555
C52 C45 1_555 1_555
H32 C52 1_555 1_555
N11 C64 1_555 1_555
C53 N8 1_555 1_555
O4 H33 1_555 1_555
C54 C64 1_555 1_555
C55 C44 1_555 1_555
H34 C55 1_555 1_555
C56 C60 1_555 1_555
C57 H35 1_555 1_555
C58 H36 1_555 1_555
C59 H37 1_555 1_555
C60 C49 1_555 1_555
H38 C60 1_555 1_555
C61 H39 1_555 1_555
C62 C45 1_555 1_555
H40 C62 1_555 1_555
C63 C57 1_555 1_555
C64 H41 1_555 1_555
C65 O4 1_555 1_555
C66 N11 1_555 1_555
C67 O6 1_555 1_555
C68 C47 1_555 1_555
H42 C68 1_555 1_555
C69 C54 1_555 1_555
H43 C69 1_555 1_555
C70 C47 1_555 1_555
H44 C70 1_555 1_555
C71 H45 1_555 1_555
O5 H46 1_555 1_555
C72 C65 1_555 1_555
H47 C72 1_555 1_555
C73 C72 1_555 1_555
H48 C73 1_555 1_555
C74 H49 1_555 1_555
C75 C50 1_555 1_555
H50 C75 1_555 1_555
N12 C56 1_555 1_555
C76 C57 1_555 1_555
H51 C76 1_555 1_555
C77 C69 1_555 1_555
H52 C77 1_555 1_555
C78 C71 1_555 1_555
H53 C78 1_555 1_555
C79 C54 1_555 1_555
C80 H54 1_555 1_555
C81 C67 1_555 1_555
H55 C81 1_555 1_555
C82 C80 1_555 1_555
H56 C82 1_555 1_555
C83 C67 1_555 1_555
C84 C82 1_555 1_555
H57 C84 1_555 1_555
N3 C14 1_555 1_555
C3 C11 1_555 1_555
C7 C9 1_555 1_555
C7 C19 1_555 1_555
C10 C21 1_555 1_555
C15 C25 1_555 1_555
C16 C17 1_555 1_555
C16 C20 1_555 1_555
C22 C28 1_555 1_555
C24 C27 1_555 1_555
C29 C33 1_555 1_555
C29 C35 1_555 1_555
C32 C34 1_555 1_555
C37 C38 1_555 1_555
C38 C39 1_555 1_555
C41 C42 1_555 1_555
N9 C53 1_555 1_555
C44 C53 1_555 1_555
C46 C52 1_555 1_555
C50 C51 1_555 1_555
C55 C62 1_555 1_555
C56 C75 1_555 1_555
C58 C63 1_555 1_555
C59 C66 1_555 1_555
C59 C70 1_555 1_555
C61 C66 1_555 1_555
C61 C68 1_555 1_555
C63 C65 1_555 1_555
C71 C77 1_555 1_555
O5 C79 1_555 1_555
C73 C76 1_555 1_555
C74 N12 1_555 1_555
C74 C83 1_555 1_555
C78 C79 1_555 1_555
C80 C81 1_555 1_555
C83 C84 1_555 1_555

#END
