
#######################################################################
#
#                 Cambridge Crystallographic Data Centre
#                                CCDC 
#
#######################################################################
#
# If this CIF has been generated from an entry in the Cambridge 
# Structural Database, then it will include bibliographic, chemical, 
# crystal, experimental, refinement or atomic coordinate data resulting 
# from the CCDC's data processing and validation procedures.
#
#######################################################################

data_ITAQEB
_chemical_formula_moiety         'C18 H16 Cl2 N2 O2'
_chemical_name_systematic        
2-amino-4-(3,4-dichlorophenyl)-7,7-dimethyl-5-oxo-5,6,7,8-tetrahydro-4H-chromene-3-carbonitrile
_symmetry_cell_setting           triclinic
_symmetry_space_group_name_H-M   'P -1'
_symmetry_Int_Tables_number      2
_space_group_name_Hall           '-P 1'
loop_
_symmetry_equiv_pos_site_id
_symmetry_equiv_pos_as_xyz
1 x,y,z
2 -x,-y,-z
_cell_length_a                   8.2045(5)
_cell_length_b                   14.1658(8)
_cell_length_c                   23.3891(15)
_cell_angle_alpha                94.540(5)
_cell_angle_beta                 97.474(5)
_cell_angle_gamma                98.928(5)
_cell_volume                     2648.88
_exptl_crystal_colour            colorless
_exptl_crystal_description       block
_cell_formula_units_Z            6
loop_
_atom_site_label
_atom_site_type_symbol
_atom_site_fract_x
_atom_site_fract_y
_atom_site_fract_z
Cl1 Cl 0.26887(18) 0.39847(10) 0.16470(6)
Cl2 Cl 0.00547(18) 0.23635(11) 0.20245(6)
C1 C 0.4683(5) 0.2186(3) -0.05219(19)
C2 C 0.3222(5) 0.1696(3) -0.04069(18)
C3 C 0.1633(5) 0.2126(3) -0.04263(18)
H1 H 0.0734 0.1681 -0.0672
C4 C 0.1879(5) 0.3054(3) -0.06961(18)
C5 C 0.3349(5) 0.3476(3) -0.08138(18)
C6 C 0.3674(5) 0.4412(3) -0.1051(2)
H2 H 0.3695 0.4301 -0.1464
H3 H 0.4764 0.4750 -0.0873
C7 C 0.2381(6) 0.5042(3) -0.0950(2)
C8 C 0.0652(6) 0.4422(4) -0.1134(2)
H4 H -0.0190 0.4794 -0.1038
H5 H 0.0479 0.4271 -0.1552
C9 C 0.0415(5) 0.3504(3) -0.0856(2)
C10 C 0.2585(7) 0.5879(4) -0.1321(3)
H6 H 0.3664 0.6266 -0.1203
H7 H 0.1737 0.6263 -0.1271
H8 H 0.2482 0.5636 -0.1721
C11 C 0.2577(9) 0.5426(4) -0.0311(3)
H9 H 0.3667 0.5802 -0.0197
H10 H 0.2439 0.4898 -0.0079
H11 H 0.1747 0.5821 -0.0256
C12 C 0.3211(5) 0.0783(3) -0.0209(2)
C13 C 0.1167(5) 0.2242(3) 0.01819(18)
C14 C 0.0010(5) 0.1552(3) 0.0356(2)
H12 H -0.0547 0.1045 0.0090
C15 C -0.0338(6) 0.1601(3) 0.0924(2)
H13 H -0.1125 0.1131 0.1034
C16 C 0.0479(5) 0.2343(3) 0.13206(19)
C17 C 0.1630(5) 0.3050(3) 0.11506(19)
C18 C 0.1964(5) 0.3000(3) 0.05883(18)
H14 H 0.2733 0.3480 0.0478
O1 O 0.4771(4) 0.3069(2) -0.07213(14)
O2 O -0.0972(4) 0.3122(3) -0.07784(19)
N1 N 0.6171(5) 0.1894(3) -0.0472(2)
N2 N 0.3172(5) 0.0038(3) -0.0045(2)
Cl3 Cl 0.4645(2) 0.65388(12) 0.53997(7)
Cl4 Cl 0.59534(19) 0.66040(11) 0.41804(8)
C19 C -0.2129(6) 0.3690(3) 0.3226(2)
C20 C -0.0657(5) 0.4182(3) 0.31337(19)
C21 C 0.1006(5) 0.3891(3) 0.33282(19)
H15 H 0.1671 0.3942 0.3010
C22 C 0.0693(5) 0.2863(3) 0.34505(19)
C23 C -0.0815(5) 0.2417(3) 0.3532(2)
C24 C -0.1197(6) 0.1420(4) 0.3700(3)
H16 H -0.1774 0.1439 0.4036
H17 H -0.1955 0.1031 0.3386
C25 C 0.0273(7) 0.0938(4) 0.3836(3)
C26 C 0.1684(9) 0.1257(5) 0.3554(5)
C27 C 0.2067(6) 0.2307(3) 0.3477(2)
C28 C -0.0673(5) 0.5051(3) 0.2876(2)
C29 C 0.1960(5) 0.4541(3) 0.38527(19)
C30 C 0.3354(6) 0.5200(3) 0.3795(2)
H18 H 0.3728 0.5232 0.3437
C31 C 0.4189(6) 0.5811(3) 0.4271(2)
C32 C 0.3648(7) 0.5776(4) 0.4803(2)
C33 C 0.2276(7) 0.5122(4) 0.4864(2)
H19 H 0.1909 0.5091 0.5223
C34 C 0.1440(6) 0.4510(4) 0.4391(2)
H20 H 0.0512 0.4069 0.4436
C35 C -0.0139(9) -0.0067(5) 0.3937(5)
H21 H -0.0584 -0.0444 0.3575
H22 H -0.0953 -0.0132 0.4197
H23 H 0.0849 -0.0286 0.4104
C36 C 0.1015(12) 0.1423(8) 0.4508(4)
H24 H 0.1994 0.1167 0.4646
H25 H 0.0184 0.1275 0.4756
H26 H 0.1296 0.2107 0.4511
O3 O -0.2205(4) 0.2834(2) 0.34667(16)
O4 O 0.3440(4) 0.2664(2) 0.33839(16)
N3 N -0.3656(5) 0.3906(3) 0.3101(2)
N4 N -0.0652(6) 0.5762(3) 0.2664(2)
Cl5 Cl -0.9404(2) 0.72548(13) 0.41220(8)
Cl6 Cl -0.6689(3) 0.87793(15) 0.49252(7)
C37 C -0.3063(5) 0.7895(3) 0.22631(19)
C38 C -0.4539(5) 0.7417(3) 0.23632(19)
C39 C -0.6048(5) 0.7903(3) 0.2403(2)
H27 H -0.7043 0.7465 0.2208
C40 C -0.5833(5) 0.8794(3) 0.20881(19)
C41 C -0.4350(5) 0.9204(3) 0.19816(19)
C42 C -0.3989(6) 1.0120(3) 0.1717(2)
H28 H -0.3920 0.9977 0.1309
H29 H -0.2913 1.0469 0.1901
C43 C -0.5302(6) 1.0755(3) 0.1776(2)
C44 C -0.7012(6) 1.0113(4) 0.1588(3)
H30 H -0.7875 1.0489 0.1655
H31 H -0.7137 0.9926 0.1175
C45 C -0.7283(6) 0.9226(3) 0.1894(2)
C46 C -0.5173(9) 1.1188(4) 0.2389(3)
H32 H -0.5321 1.0685 0.2639
H33 H -0.6021 1.1579 0.2417
H34 H -0.4095 1.1576 0.2505
C47 C -0.5061(7) 1.1553(4) 0.1374(3)
H35 H -0.3991 1.1948 0.1493
H36 H -0.5920 1.1938 0.1394
H37 H -0.5121 1.1272 0.0983
C48 C -0.4648(5) 0.6445(3) 0.2480(2)
C49 C -0.6270(5) 0.8137(3) 0.3032(2)
C50 C -0.7578(6) 0.7661(3) 0.3272(2)
H38 H -0.8374 0.7200 0.3042
C51 C -0.7717(6) 0.7862(4) 0.3851(2)
C52 C -0.6561(7) 0.8526(4) 0.4196(2)
C53 C -0.5247(7) 0.9014(4) 0.3970(3)
H39 H -0.4455 0.9475 0.4204
C54 C -0.5120(7) 0.8812(4) 0.3393(2)
H40 H -0.4229 0.9141 0.3242
O5 O -0.2922(4) 0.8823(2) 0.21162(15)
O6 O -0.8687(4) 0.8861(3) 0.1967(2)
N5 N -0.1592(5) 0.7594(3) 0.2280(2)
N6 N -0.4759(5) 0.5654(3) 0.2562(2)
H41? H 0.2337 0.0828 0.3423
loop_
_geom_bond_atom_site_label_1
_geom_bond_atom_site_label_2
_geom_bond_site_symmetry_1
_geom_bond_site_symmetry_2
Cl1 C17 1_555 1_555
Cl2 C16 1_555 1_555
C1 C2 1_555 1_555
C2 C3 1_555 1_555
C3 H1 1_555 1_555
C4 C3 1_555 1_555
C5 C4 1_555 1_555
C6 C5 1_555 1_555
H2 C6 1_555 1_555
H3 C6 1_555 1_555
C7 C6 1_555 1_555
C8 C7 1_555 1_555
H4 C8 1_555 1_555
H5 C8 1_555 1_555
C9 C4 1_555 1_555
C10 C7 1_555 1_555
H6 C10 1_555 1_555
H7 C10 1_555 1_555
H8 C10 1_555 1_555
C11 C7 1_555 1_555
H9 C11 1_555 1_555
H10 C11 1_555 1_555
H11 C11 1_555 1_555
C12 C2 1_555 1_555
C13 C3 1_555 1_555
C14 C13 1_555 1_555
H12 C14 1_555 1_555
C15 C14 1_555 1_555
H13 C15 1_555 1_555
C16 C15 1_555 1_555
C17 C16 1_555 1_555
C18 C13 1_555 1_555
H14 C18 1_555 1_555
O1 C1 1_555 1_555
O2 C9 1_555 1_555
N1 C1 1_555 1_555
N2 C12 1_555 1_555
Cl3 C32 1_555 1_555
Cl4 C31 1_555 1_555
C19 C20 1_555 1_555
C20 C21 1_555 1_555
C21 H15 1_555 1_555
C22 C21 1_555 1_555
C23 C22 1_555 1_555
C24 C23 1_555 1_555
H16 C24 1_555 1_555
H17 C24 1_555 1_555
C25 C24 1_555 1_555
C26 C25 1_555 1_555
C27 C22 1_555 1_555
C28 C20 1_555 1_555
C29 C21 1_555 1_555
C30 C29 1_555 1_555
H18 C30 1_555 1_555
C31 C30 1_555 1_555
C32 C31 1_555 1_555
C33 C32 1_555 1_555
H19 C33 1_555 1_555
C34 C29 1_555 1_555
H20 C34 1_555 1_555
C35 C25 1_555 1_555
H21 C35 1_555 1_555
H22 C35 1_555 1_555
H23 C35 1_555 1_555
C36 C25 1_555 1_555
H24 C36 1_555 1_555
H25 C36 1_555 1_555
H26 C36 1_555 1_555
O3 C19 1_555 1_555
O4 C27 1_555 1_555
N3 C19 1_555 1_555
N4 C28 1_555 1_555
Cl5 C51 1_555 1_555
Cl6 C52 1_555 1_555
C37 C38 1_555 1_555
C38 C39 1_555 1_555
C39 H27 1_555 1_555
C40 C39 1_555 1_555
C41 C40 1_555 1_555
C42 C41 1_555 1_555
H28 C42 1_555 1_555
H29 C42 1_555 1_555
C43 C42 1_555 1_555
C44 C43 1_555 1_555
H30 C44 1_555 1_555
H31 C44 1_555 1_555
C45 C40 1_555 1_555
C46 C43 1_555 1_555
H32 C46 1_555 1_555
H33 C46 1_555 1_555
H34 C46 1_555 1_555
C47 C43 1_555 1_555
H35 C47 1_555 1_555
H36 C47 1_555 1_555
H37 C47 1_555 1_555
C48 C38 1_555 1_555
C49 C39 1_555 1_555
C50 C49 1_555 1_555
H38 C50 1_555 1_555
C51 C50 1_555 1_555
C52 C51 1_555 1_555
C53 C52 1_555 1_555
H39 C53 1_555 1_555
C54 C49 1_555 1_555
H40 C54 1_555 1_555
O5 C37 1_555 1_555
O6 C45 1_555 1_555
N5 C37 1_555 1_555
N6 C48 1_555 1_555
C5 O1 1_555 1_555
C8 C9 1_555 1_555
C17 C18 1_555 1_555
C23 O3 1_555 1_555
C26 C27 1_555 1_555
C33 C34 1_555 1_555
C41 O5 1_555 1_555
C44 C45 1_555 1_555
C53 C54 1_555 1_555

#END
