
#######################################################################
#
#                 Cambridge Crystallographic Data Centre
#                                CCDC 
#
#######################################################################
#
# If this CIF has been generated from an entry in the Cambridge 
# Structural Database, then it will include bibliographic, chemical, 
# crystal, experimental, refinement or atomic coordinate data resulting 
# from the CCDC's data processing and validation procedures.
#
#######################################################################

data_ITAWUW
_chemical_formula_moiety         'C35 H29 N1 O1'
_chemical_name_systematic        
1-Methyl-3-(1-methyl-3,5,6-triphenyl-5,6-dihydro-4H-cyclopenta[c]furan-4-yl)-1H-indole
_symmetry_cell_setting           monoclinic
_symmetry_space_group_name_H-M   'P 21'
_symmetry_Int_Tables_number      4
_space_group_name_Hall           'P 2yb'
loop_
_symmetry_equiv_pos_site_id
_symmetry_equiv_pos_as_xyz
1 x,y,z
2 -x,1/2+y,-z
_cell_length_a                   9.3853(4)
_cell_length_b                   11.8702(5)
_cell_length_c                   12.0710(6)
_cell_angle_alpha                90
_cell_angle_beta                 95.5600(10)
_cell_angle_gamma                90
_cell_volume                     1338.45
_exptl_crystal_colour            colorless
_exptl_crystal_description       block
_cell_formula_units_Z            2
loop_
_atom_site_label
_atom_site_type_symbol
_atom_site_fract_x
_atom_site_fract_y
_atom_site_fract_z
O1 O 0.44290(12) 0.95895(12) 0.81027(10)
N1 N 1.10650(17) 1.03169(19) 0.94682(16)
C1 C 0.7344(2) 0.9624(2) 1.03725(16)
H1 H 0.7798 1.0298 1.0231
C2 C 0.7815(3) 0.9000(2) 1.13047(18)
H2 H 0.8601 0.9246 1.1769
C3 C 0.7136(3) 0.8025(2) 1.15504(19)
H3 H 0.7456 0.7611 1.2180
C4 C 0.5988(3) 0.7667(2) 1.0865(2)
H4 H 0.5503 0.7018 1.1042
C5 C 0.5538(2) 0.82609(18) 0.99061(18)
H5 H 0.4777 0.7989 0.9430
C6 C 0.62055(18) 0.92552(16) 0.96480(14)
C7 C 0.57624(17) 0.98641(16) 0.86275(14)
C8 C 0.42191(19) 1.01969(18) 0.71243(15)
C9 C 0.53863(17) 1.08390(15) 0.70355(14)
C10 C 0.63657(17) 1.06381(15) 0.79874(14)
C11 C 0.77106(18) 1.13260(15) 0.79420(14)
H6 H 0.7616 1.2020 0.8369
C12 C 0.76058(18) 1.16342(15) 0.66731(14)
H7 H 0.8014 1.1000 0.6291
C13 C 0.59737(18) 1.16737(15) 0.62631(14)
H8 H 0.5605 1.2423 0.6423
C14 C 0.56564(17) 1.14433(16) 0.50318(15)
C15 C 0.5946(2) 1.04100(18) 0.45903(17)
H9 H 0.6316 0.9839 0.5061
C16 C 0.5699(3) 1.0201(2) 0.3465(2)
H10 H 0.5917 0.9499 0.3183
C17 C 0.5135(3) 1.1025(3) 0.2760(2)
H11 H 0.4977 1.0889 0.1999
C18 C 0.4810(4) 1.2041(3) 0.3180(2)
H12 H 0.4405 1.2597 0.2707
C19 C 0.5078(3) 1.2258(2) 0.43104(19)
H13 H 0.4863 1.2964 0.4585
C20 C 0.8451(2) 1.26701(16) 0.64136(15)
C21 C 0.8014(3) 1.37357(19) 0.6709(2)
H14 H 0.7181 1.3816 0.7060
C22 C 0.8799(4) 1.4677(2) 0.6489(3)
H15 H 0.8489 1.5386 0.6690
C23 C 1.0023(4) 1.4578(3) 0.5981(2)
H16 H 1.0547 1.5216 0.5833
C24 C 1.0477(3) 1.3543(3) 0.5691(2)
H17 H 1.1318 1.3475 0.5348
C25 C 0.9689(2) 1.2575(2) 0.59059(19)
H18 H 1.0007 1.1869 0.5703
C26 C 1.1399(3) 0.8327(3) 0.8817(3)
H19 H 1.2212 0.8168 0.9294
C27 C 1.0825(4) 0.7534(3) 0.8072(3)
H20 H 1.1265 0.6834 0.8035
C28 C 0.9602(3) 0.7767(2) 0.7378(3)
H21 H 0.9228 0.7221 0.6880
C29 C 0.8926(3) 0.87976(19) 0.74147(19)
H22 H 0.8096 0.8937 0.6950
C30 C 0.94818(19) 0.96222(16) 0.81403(16)
C31 C 1.0731(2) 0.9374(2) 0.88384(18)
C32 C 1.0068(2) 1.11294(19) 0.91865(16)
H23 H 1.0071 1.1845 0.9500
C33 C 0.90648(18) 1.07458(16) 0.83811(14)
C34 C 1.2212(3) 1.0408(3) 1.0374(2)
H24 H 1.2771 0.9729 1.0413
H25 H 1.1804 1.0517 1.1066
H26 H 1.2815 1.1036 1.0239
C35 C 0.2833(2) 1.0012(2) 0.6444(2)
H27 H 0.2797 1.0468 0.5785
H28 H 0.2060 1.0215 0.6870
H29 H 0.2748 0.9232 0.6237
loop_
_geom_bond_atom_site_label_1
_geom_bond_atom_site_label_2
_geom_bond_site_symmetry_1
_geom_bond_site_symmetry_2
O1 C7 1_555 1_555
N1 C31 1_555 1_555
C1 H1 1_555 1_555
C2 C1 1_555 1_555
H2 C2 1_555 1_555
C3 C2 1_555 1_555
H3 C3 1_555 1_555
C4 C3 1_555 1_555
H4 C4 1_555 1_555
C5 C4 1_555 1_555
H5 C5 1_555 1_555
C6 C1 1_555 1_555
C7 C6 1_555 1_555
C8 O1 1_555 1_555
C9 C8 1_555 1_555
C10 C7 1_555 1_555
C11 C10 1_555 1_555
H6 C11 1_555 1_555
C12 C11 1_555 1_555
H7 C12 1_555 1_555
C13 C9 1_555 1_555
H8 C13 1_555 1_555
C14 C13 1_555 1_555
C15 C14 1_555 1_555
H9 C15 1_555 1_555
C16 C15 1_555 1_555
H10 C16 1_555 1_555
C17 C16 1_555 1_555
H11 C17 1_555 1_555
C18 C17 1_555 1_555
H12 C18 1_555 1_555
C19 C14 1_555 1_555
H13 C19 1_555 1_555
C20 C12 1_555 1_555
C21 C20 1_555 1_555
H14 C21 1_555 1_555
C22 C21 1_555 1_555
H15 C22 1_555 1_555
C23 C22 1_555 1_555
H16 C23 1_555 1_555
C24 C23 1_555 1_555
H17 C24 1_555 1_555
C25 C20 1_555 1_555
H18 C25 1_555 1_555
C26 H19 1_555 1_555
C27 C26 1_555 1_555
H20 C27 1_555 1_555
C28 C27 1_555 1_555
H21 C28 1_555 1_555
C29 C28 1_555 1_555
H22 C29 1_555 1_555
C30 C29 1_555 1_555
C31 C26 1_555 1_555
C32 N1 1_555 1_555
H23 C32 1_555 1_555
C33 C11 1_555 1_555
C34 N1 1_555 1_555
H24 C34 1_555 1_555
H25 C34 1_555 1_555
H26 C34 1_555 1_555
C35 C8 1_555 1_555
H27 C35 1_555 1_555
H28 C35 1_555 1_555
H29 C35 1_555 1_555
C5 C6 1_555 1_555
C9 C10 1_555 1_555
C12 C13 1_555 1_555
C18 C19 1_555 1_555
C24 C25 1_555 1_555
C30 C31 1_555 1_555
C30 C33 1_555 1_555
C32 C33 1_555 1_555

#END
