
#######################################################################
#
#                 Cambridge Crystallographic Data Centre
#                                CCDC 
#
#######################################################################
#
# If this CIF has been generated from an entry in the Cambridge 
# Structural Database, then it will include bibliographic, chemical, 
# crystal, experimental, refinement or atomic coordinate data resulting 
# from the CCDC's data processing and validation procedures.
#
#######################################################################

data_ITAXEI
_chemical_formula_moiety         'C17 H22 Br1 N1 O2'
_chemical_name_systematic        
4-bromo-N-methoxy-2-(2-methylocta-2,3-dien-4-yl)benzamide
_symmetry_cell_setting           triclinic
_symmetry_space_group_name_H-M   'P -1'
_symmetry_Int_Tables_number      2
_space_group_name_Hall           '-P 1'
loop_
_symmetry_equiv_pos_site_id
_symmetry_equiv_pos_as_xyz
1 x,y,z
2 -x,-y,-z
_cell_length_a                   8.5427(8)
_cell_length_b                   12.5727(13)
_cell_length_c                   16.5276(13)
_cell_angle_alpha                82.936(7)
_cell_angle_beta                 80.423(7)
_cell_angle_gamma                77.308(8)
_cell_volume                     1700.73
_exptl_crystal_colour            colorless
_exptl_crystal_description       block
_cell_formula_units_Z            4
loop_
_atom_site_label
_atom_site_type_symbol
_atom_site_fract_x
_atom_site_fract_y
_atom_site_fract_z
Br1 Br 0.79425(11) 0.72342(7) 0.14775(5)
O1 O 0.4304(6) 0.2862(4) 0.1761(3)
O2 O 0.6162(7) 0.0977(4) 0.2315(3)
N1 N 0.6725(8) 0.1956(5) 0.2130(4)
H1 H 0.7716 0.1987 0.2194
C1 C 0.6802(9) 0.2829(6) 0.0141(4)
C2 C 0.7353(9) 0.5367(6) 0.0865(5)
H2 H 0.7691 0.5722 0.0344
C3 C 0.7005(9) 0.3831(6) 0.0128(4)
C4 C 0.5702(9) 0.2845(6) 0.1852(4)
C5 C 0.7452(10) 0.4494(6) -0.0683(5)
H3 H 0.6670 0.5202 -0.0706
H4 H 0.8541 0.4652 -0.0692
C6 C 0.6875(9) 0.4359(6) 0.0902(5)
C7 C 0.6456(10) 0.4355(7) 0.2390(5)
H5 H 0.6146 0.4002 0.2916
C8 C 0.7340(10) 0.5849(6) 0.1573(5)
C9 C 0.7466(10) 0.3925(6) -0.1450(4)
H6 H 0.8161 0.3184 -0.1407
H7 H 0.6352 0.3843 -0.1483
C10 C 0.6409(9) 0.3862(6) 0.1700(4)
C11 C 0.6655(10) 0.1806(6) 0.0149(4)
C12 C 0.6938(10) 0.5347(7) 0.2349(5)
H8 H 0.6989 0.5668 0.2833
C13 C 0.8067(16) 0.4051(8) -0.2999(5)
H9 H 0.8605 0.4443 -0.3477
H10 H 0.6941 0.4087 -0.3071
H11 H 0.8636 0.3285 -0.2950
C14 C 0.8098(11) 0.4575(7) -0.2227(5)
H12 H 0.7427 0.5325 -0.2255
H13 H 0.9224 0.4634 -0.2199
C15 C 0.5002(10) 0.1534(7) 0.0159(5)
H14 H 0.4654 0.1180 0.0701
H15 H 0.5074 0.1038 -0.0265
H16 H 0.4213 0.2209 0.0048
C16 C 0.5807(11) 0.0802(8) 0.3192(5)
H17 H 0.5363 0.0138 0.3339
H18 H 0.5012 0.1431 0.3402
H19 H 0.6804 0.0718 0.3434
C17 C 0.8068(12) 0.0864(7) 0.0214(6)
H20 H 0.8323 0.0499 -0.0297
H21 H 0.7790 0.0342 0.0679
H22 H 0.9012 0.1136 0.0301
Br2 Br 0.30529(12) 0.24587(7) 0.61033(5)
O3 O -0.0638(6) 0.1600(4) 0.2975(3)
O4 O 0.1166(7) 0.1786(5) 0.1479(3)
N2 N 0.1759(8) 0.1808(5) 0.2216(4)
H23 H 0.2757 0.1890 0.2213
C18 C 0.0742(10) 0.2878(7) 0.1126(5)
H24 H 0.0404 0.2875 0.0588
H25 H 0.1680 0.3227 0.1057
H26 H -0.0153 0.3286 0.1490
C19 C 0.2399(9) 0.1149(6) 0.4983(4)
H27 H 0.2686 0.0576 0.5396
C20 C 0.2006(9) -0.0264(6) 0.4133(4)
C21 C 0.2450(9) 0.2206(6) 0.5098(4)
C22 C 0.2388(10) -0.1127(6) 0.4835(5)
H28 H 0.1603 -0.0924 0.5331
H29 H 0.3482 -0.1122 0.4957
C23 C 0.1838(9) -0.0533(6) 0.3413(4)
C24 C 0.2341(10) -0.2287(6) 0.4675(5)
H30 H 0.1220 -0.2324 0.4615
H31 H 0.3049 -0.2478 0.4154
C25 C 0.1930(8) 0.0903(6) 0.4265(4)
C26 C 0.1504(9) 0.1784(6) 0.3676(4)
C27 C 0.1788(10) -0.0838(6) 0.2682(4)
C28 C 0.1595(9) 0.2842(6) 0.3804(5)
H32 H 0.1302 0.3425 0.3399
C29 C 0.0774(9) 0.1701(6) 0.2923(5)
C30 C 0.2901(13) -0.3104(6) 0.5375(6)
H33 H 0.2279 -0.2860 0.5904
H34 H 0.4061 -0.3127 0.5392
C31 C 0.2107(11) 0.3064(6) 0.4513(5)
H35 H 0.2215 0.3781 0.4587
C32 C 0.0209(11) -0.0846(7) 0.2395(6)
H36 H -0.0672 -0.0742 0.2858
H37 H 0.0275 -0.1549 0.2179
H38 H -0.0003 -0.0252 0.1959
C33 C 0.3266(12) -0.1034(7) 0.2062(6)
H39 H 0.3099 -0.0535 0.1566
H40 H 0.3488 -0.1793 0.1921
H41 H 0.4189 -0.0905 0.2290
C34 C 0.2677(13) -0.4250(6) 0.5281(6)
H42 H 0.2997 -0.4406 0.4703
H43 H 0.1537 -0.4293 0.5452
H44 H 0.3355 -0.4788 0.5626
loop_
_geom_bond_atom_site_label_1
_geom_bond_atom_site_label_2
_geom_bond_site_symmetry_1
_geom_bond_site_symmetry_2
Br1 C8 1_555 1_555
O1 C4 1_555 1_555
O2 N1 1_555 1_555
N1 H1 1_555 1_555
C1 C3 1_555 1_555
C2 H2 1_555 1_555
C3 C5 1_555 1_555
C4 N1 1_555 1_555
C5 H3 1_555 1_555
H4 C5 1_555 1_555
C6 C2 1_555 1_555
C7 H5 1_555 1_555
C8 C2 1_555 1_555
C9 C5 1_555 1_555
H6 C9 1_555 1_555
H7 C9 1_555 1_555
C10 C4 1_555 1_555
C11 C1 1_555 1_555
C12 C7 1_555 1_555
H8 C12 1_555 1_555
C13 H9 1_555 1_555
H10 C13 1_555 1_555
H11 C13 1_555 1_555
C14 C9 1_555 1_555
H12 C14 1_555 1_555
H13 C14 1_555 1_555
C15 C11 1_555 1_555
H14 C15 1_555 1_555
H15 C15 1_555 1_555
H16 C15 1_555 1_555
C16 O2 1_555 1_555
H17 C16 1_555 1_555
H18 C16 1_555 1_555
H19 C16 1_555 1_555
C17 C11 1_555 1_555
H20 C17 1_555 1_555
H21 C17 1_555 1_555
H22 C17 1_555 1_555
Br2 C21 1_555 1_555
O3 C29 1_555 1_555
O4 N2 1_555 1_555
N2 H23 1_555 1_555
C18 O4 1_555 1_555
H24 C18 1_555 1_555
H25 C18 1_555 1_555
H26 C18 1_555 1_555
C19 H27 1_555 1_555
C20 C22 1_555 1_555
C21 C19 1_555 1_555
C22 H28 1_555 1_555
H29 C22 1_555 1_555
C23 C20 1_555 1_555
C24 C22 1_555 1_555
H30 C24 1_555 1_555
H31 C24 1_555 1_555
C25 C19 1_555 1_555
C26 C25 1_555 1_555
C27 C23 1_555 1_555
C28 C26 1_555 1_555
H32 C28 1_555 1_555
C29 N2 1_555 1_555
C30 C24 1_555 1_555
H33 C30 1_555 1_555
H34 C30 1_555 1_555
C31 C21 1_555 1_555
H35 C31 1_555 1_555
C32 C27 1_555 1_555
H36 C32 1_555 1_555
H37 C32 1_555 1_555
H38 C32 1_555 1_555
C33 C27 1_555 1_555
H39 C33 1_555 1_555
H40 C33 1_555 1_555
H41 C33 1_555 1_555
C34 C30 1_555 1_555
H42 C34 1_555 1_555
H43 C34 1_555 1_555
H44 C34 1_555 1_555
C3 C6 1_555 1_555
C6 C10 1_555 1_555
C7 C10 1_555 1_555
C8 C12 1_555 1_555
C13 C14 1_555 1_555
C20 C25 1_555 1_555
C26 C29 1_555 1_555
C28 C31 1_555 1_555

#END
