
#######################################################################
#
#                 Cambridge Crystallographic Data Centre
#                                CCDC 
#
#######################################################################
#
# If this CIF has been generated from an entry in the Cambridge 
# Structural Database, then it will include bibliographic, chemical, 
# crystal, experimental, refinement or atomic coordinate data resulting 
# from the CCDC's data processing and validation procedures.
#
#######################################################################

data_ITECIV
_chemical_formula_moiety         'C20 H21 N1 O2'
_chemical_name_systematic        
N-methoxy-2-(3-methyl-1-phenylpenta-1,2-dien-1-yl)benzamide
_symmetry_cell_setting           monoclinic
_symmetry_space_group_name_H-M   'P 21'
_symmetry_Int_Tables_number      4
_space_group_name_Hall           'P 2yb'
loop_
_symmetry_equiv_pos_site_id
_symmetry_equiv_pos_as_xyz
1 x,y,z
2 -x,1/2+y,-z
_cell_length_a                   9.2428(10)
_cell_length_b                   8.1334(9)
_cell_length_c                   12.1422(13)
_cell_angle_alpha                90
_cell_angle_beta                 97.677(7)
_cell_angle_gamma                90
_cell_volume                     904.613
_exptl_crystal_colour            colorless
_exptl_crystal_description       prismatic
_cell_formula_units_Z            2
loop_
_atom_site_label
_atom_site_type_symbol
_atom_site_fract_x
_atom_site_fract_y
_atom_site_fract_z
N1 N 0.47175(19) 0.5914(2) 1.01537(17)
O1 O 0.33583(18) 0.8188(2) 0.98416(17)
O2 O 0.59269(18) 0.6885(2) 1.05249(15)
C1 C 0.3491(2) 0.6705(2) 0.97879(15)
C2 C 0.2249(2) 0.5622(2) 0.93257(16)
C3 C 0.1608(3) 0.4604(3) 1.0044(2)
H1 H 0.2014 0.4528 1.0785
C4 C 0.0376(3) 0.3706(4) 0.9667(2)
H2 H -0.0057 0.3044 1.0155
C5 C -0.0210(3) 0.3794(4) 0.8567(3)
H3 H -0.1033 0.3180 0.8307
C6 C 0.0421(2) 0.4791(3) 0.7851(2)
H4 H 0.0014 0.4844 0.7109
C7 C 0.1651(2) 0.5721(2) 0.82111(16)
C8 C 0.23385(19) 0.6758(3) 0.74027(15)
C9 C 0.3670(2) 0.6395(3) 0.72179(17)
C10 C 0.4990(3) 0.6012(4) 0.7062(2)
C11 C 0.6293(3) 0.6741(6) 0.7765(3)
H5 H 0.5972 0.7514 0.8278
H6 H 0.6897 0.7293 0.7296
H7 H 0.6844 0.5882 0.8169
C12 C 0.5300(4) 0.4819(6) 0.6182(3)
H8 H 0.5963 0.5338 0.5734
H9 H 0.5802 0.3877 0.6545
C13 C 0.4048(6) 0.4229(8) 0.5449(5)
H10 H 0.3614 0.5124 0.5007
H11 H 0.3347 0.3778 0.5882
H12 H 0.4351 0.3393 0.4971
C14 C 0.1508(2) 0.8159(3) 0.68509(15)
C15 C 0.0183(3) 0.8645(3) 0.7150(2)
H13 H -0.0209 0.8074 0.7704
C16 C -0.0567(4) 0.9968(5) 0.6639(3)
H14 H -0.1458 1.0276 0.6850
C17 C -0.0007(4) 1.0830(4) 0.5821(3)
H15 H -0.0513 1.1724 0.5482
C18 C 0.1288(4) 1.0369(4) 0.5512(2)
H16 H 0.1672 1.0948 0.4957
C19 C 0.2042(3) 0.9046(3) 0.60142(19)
H17 H 0.2927 0.8741 0.5788
C20 C 0.6419(4) 0.6553(4) 1.1645(3)
H18 H 0.6631 0.5401 1.1735
H19 H 0.5675 0.6851 1.2090
H20 H 0.7287 0.7178 1.1877
H21 H 0.498(3) 0.482(4) 0.993(3)
loop_
_geom_bond_atom_site_label_1
_geom_bond_atom_site_label_2
_geom_bond_site_symmetry_1
_geom_bond_site_symmetry_2
N1 O2 1_555 1_555
O1 C1 1_555 1_555
O2 C20 1_555 1_555
C1 N1 1_555 1_555
C2 C1 1_555 1_555
C3 C2 1_555 1_555
H1 C3 1_555 1_555
C4 C3 1_555 1_555
H2 C4 1_555 1_555
C5 C4 1_555 1_555
H3 C5 1_555 1_555
C6 C5 1_555 1_555
H4 C6 1_555 1_555
C7 C2 1_555 1_555
C8 C7 1_555 1_555
C9 C8 1_555 1_555
C10 C9 1_555 1_555
C11 C10 1_555 1_555
H5 C11 1_555 1_555
H6 C11 1_555 1_555
H7 C11 1_555 1_555
C12 C10 1_555 1_555
H8 C12 1_555 1_555
H9 C12 1_555 1_555
C13 C12 1_555 1_555
H10 C13 1_555 1_555
H11 C13 1_555 1_555
H12 C13 1_555 1_555
C14 C8 1_555 1_555
C15 C14 1_555 1_555
H13 C15 1_555 1_555
C16 C15 1_555 1_555
H14 C16 1_555 1_555
C17 C16 1_555 1_555
H15 C17 1_555 1_555
C18 C17 1_555 1_555
H16 C18 1_555 1_555
C19 C14 1_555 1_555
H17 C19 1_555 1_555
C20 H18 1_555 1_555
H19 C20 1_555 1_555
H20 C20 1_555 1_555
H21 N1 1_555 1_555
C6 C7 1_555 1_555
C18 C19 1_555 1_555

#END
