
#######################################################################
#
#                 Cambridge Crystallographic Data Centre
#                                CCDC 
#
#######################################################################
#
# If this CIF has been generated from an entry in the Cambridge 
# Structural Database, then it will include bibliographic, chemical, 
# crystal, experimental, refinement or atomic coordinate data resulting 
# from the CCDC's data processing and validation procedures.
#
#######################################################################

data_ITECEQ
_chemical_formula_moiety         
'C64 H21 F20 N6 1+,Cl1 1-,2(C1 H2 Cl2),2(C5 H12)'
_chemical_name_systematic        
'5,10,19,24-tetrakis(Pentafluorophenyl)napthorubyrinium chloride dichloromethane n-pentane solvate'
_symmetry_cell_setting           tetragonal
_symmetry_space_group_name_H-M   'P -4 21 m'
_symmetry_Int_Tables_number      113
_space_group_name_Hall           'P -4 2ab'
loop_
_symmetry_equiv_pos_site_id
_symmetry_equiv_pos_as_xyz
1 x,y,z
2 y,-x,-z
3 -x,-y,z
4 -y,x,-z
5 1/2+x,1/2-y,-z
6 1/2-y,1/2-x,z
7 1/2-x,1/2+y,-z
8 1/2+y,1/2+x,z
_cell_length_a                   21.411(2)
_cell_length_b                   21.411(2)
_cell_length_c                   7.5217(8)
_cell_angle_alpha                90
_cell_angle_beta                 90
_cell_angle_gamma                90
_cell_volume                     3448.18
_exptl_crystal_colour            'light brown'
_exptl_crystal_description       block
_cell_formula_units_Z            2
loop_
_atom_site_label
_atom_site_type_symbol
_atom_site_fract_x
_atom_site_fract_y
_atom_site_fract_z
C1 C 1.1405(2) 0.4055(2) 0.7589(9)
C2 C 1.2044(2) 0.3875(2) 0.7423(9)
C3 C 1.2394(2) 0.4409(2) 0.7509(8)
H1 H 1.2837 0.4430 0.7457
C4 C 1.1987(2) 0.4925(2) 0.7689(9)
C5 C 1.2239(2) 0.3228(2) 0.7229(9)
C6 C 1.2859(2) 0.3059(2) 0.7039(10)
H2 H 1.3176 0.3370 0.7045
C7 C 1.3017(2) 0.2431(2) 0.6840(10)
H3 H 1.3442 0.2315 0.6702
C8 C 1.2183(2) 0.5553(2) 0.7837(9)
C9 C 1.2881(2) 0.5633(2) 0.7856(10)
C10 C 1.3226(3) 0.5644(3) 0.6270(10)
C11 C 1.3854(3) 0.5757(3) 0.6282(10)
C12 C 1.4160(3) 0.5856(3) 0.7831(12)
C13 C 1.3839(3) 0.5846(3) 0.9407(10)
C14 C 1.3213(3) 0.5735(2) 0.9389(10)
C15 C 1.1850(2) 0.6112(2) 0.7935(9)
C16 C 1.2155(2) 0.6709(2) 0.8036(9)
H4 H 1.2593 0.6778 0.8093
N1 N 1.13848(17) 0.46955(17) 0.7735(7)
H5 H 1.1044 0.4922 0.7841
N2 N 1.12079(18) 0.62079(18) 0.7871(11)
F1 F 1.29375(17) 0.55562(18) 0.4721(5)
F2 F 1.41691(18) 0.5778(2) 0.4732(7)
F3 F 1.47782(14) 0.59680(19) 0.7814(7)
F4 F 1.41446(17) 0.59702(18) 1.0928(6)
F5 F 1.29119(16) 0.57293(16) 1.0957(6)
C1E C 1.0945(2) 0.3595(2) 0.7589(9)
C1B C 0.8595(2) 0.5945(2) 0.7589(9)
C1G C 0.9055(2) 0.6405(2) 0.7589(9)
C2E C 1.1125(2) 0.2956(2) 0.7423(9)
C2B C 0.7956(2) 0.6125(2) 0.7423(9)
C2G C 0.8875(2) 0.7044(2) 0.7423(9)
C3E C 1.0591(2) 0.2606(2) 0.7509(8)
C3B C 0.7606(2) 0.5591(2) 0.7509(8)
C3G C 0.9409(2) 0.7394(2) 0.7509(8)
H1E H 1.0570 0.2163 0.7457
H1G H 0.9430 0.7837 0.7457
H1B H 0.7163 0.5570 0.7457
C4E C 1.0075(2) 0.3013(2) 0.7689(9)
C4B C 0.8013(2) 0.5075(2) 0.7689(9)
C4G C 0.9925(2) 0.6987(2) 0.7689(9)
C5E C 1.1772(2) 0.2761(2) 0.7229(9)
C5G C 0.8228(2) 0.7239(2) 0.7229(9)
C5B C 0.7761(2) 0.6772(2) 0.7229(9)
C6E C 1.1941(2) 0.2141(2) 0.7039(10)
C6G C 0.8059(2) 0.7859(2) 0.7039(10)
C6B C 0.7141(2) 0.6941(2) 0.7039(10)
H2E H 1.1630 0.1824 0.7045
H2G H 0.8370 0.8176 0.7045
H2B H 0.6824 0.6630 0.7045
C7E C 1.2569(2) 0.1983(2) 0.6840(10)
C7G C 0.7431(2) 0.8017(2) 0.6840(10)
C7B C 0.6983(2) 0.7569(2) 0.6840(10)
H3E H 1.2685 0.1558 0.6702
H3B H 0.6558 0.7685 0.6702
H3G H 0.7315 0.8442 0.6702
C8E C 0.9447(2) 0.2817(2) 0.7837(9)
C8B C 0.7817(2) 0.4447(2) 0.7837(9)
C8G C 1.0553(2) 0.7183(2) 0.7837(9)
C9E C 0.9367(2) 0.2119(2) 0.7856(10)
C9G C 1.0633(2) 0.7881(2) 0.7856(10)
C9B C 0.7119(2) 0.4367(2) 0.7856(10)
C10E C 0.9356(3) 0.1774(3) 0.6270(10)
C10G C 1.0644(3) 0.8226(3) 0.6270(10)
C10B C 0.6774(3) 0.4356(3) 0.6270(10)
C11E C 0.9243(3) 0.1146(3) 0.6282(10)
C11G C 1.0757(3) 0.8854(3) 0.6282(10)
C11B C 0.6146(3) 0.4243(3) 0.6282(10)
C12E C 0.9144(3) 0.0840(3) 0.7831(12)
C12G C 1.0856(3) 0.9160(3) 0.7831(12)
C12B C 0.5840(3) 0.4144(3) 0.7831(12)
C13E C 0.9154(3) 0.1161(3) 0.9407(10)
C13G C 1.0846(3) 0.8839(3) 0.9407(10)
C13B C 0.6161(3) 0.4154(3) 0.9407(10)
C14E C 0.9265(2) 0.1787(3) 0.9389(10)
C14G C 1.0735(2) 0.8213(3) 0.9389(10)
C14B C 0.6787(3) 0.4265(2) 0.9389(10)
C15E C 0.8888(2) 0.3150(2) 0.7935(9)
C15B C 0.8150(2) 0.3888(2) 0.7935(9)
C15G C 1.1112(2) 0.6850(2) 0.7935(9)
C16E C 0.8291(2) 0.2845(2) 0.8036(9)
C16B C 0.7845(2) 0.3291(2) 0.8036(9)
C16G C 1.1709(2) 0.7155(2) 0.8036(9)
H4G H 1.1778 0.7593 0.8093
H4B H 0.7407 0.3222 0.8093
H4E H 0.8222 0.2407 0.8093
N1G N 0.96955(17) 0.63848(17) 0.7735(7)
N1B N 0.86152(17) 0.53045(17) 0.7735(7)
N1E N 1.03045(17) 0.36152(17) 0.7735(7)
H5G H 0.9922 0.6044 0.7841
H5B H 0.8956 0.5078 0.7841
H5E H 1.0078 0.3956 0.7841
N2B N 0.87921(18) 0.37921(18) 0.7871(11)
F1E F 0.94438(18) 0.20625(17) 0.4721(5)
F1G F 1.05562(18) 0.79375(17) 0.4721(5)
F1B F 0.70625(17) 0.44438(18) 0.4721(5)
F2E F 0.9222(2) 0.08309(18) 0.4732(7)
F2G F 1.0778(2) 0.91691(18) 0.4732(7)
F2B F 0.58309(18) 0.4222(2) 0.4732(7)
F3E F 0.90320(19) 0.02218(14) 0.7814(7)
F3G F 1.09680(19) 0.97782(14) 0.7814(7)
F3B F 0.52218(14) 0.40320(19) 0.7814(7)
F4E F 0.90298(18) 0.08554(17) 1.0928(6)
F4G F 1.09702(18) 0.91446(17) 1.0928(6)
F4B F 0.58554(17) 0.40298(18) 1.0928(6)
F5E F 0.92707(16) 0.20881(16) 1.0957(6)
F5G F 1.07293(16) 0.79119(16) 1.0957(6)
F5B F 0.70881(16) 0.42707(16) 1.0957(6)
Cl1 Cl 1.0000 0.5000 0.8913(6)
C17 C 0.7601(4) 0.0953(4) 0.7651(15)
H6 H 0.7789 0.1063 0.6505
H7 H 0.7799 0.1197 0.8598
H8 H 0.7665 0.0507 0.7880
C18 C 0.6919(3) 0.1091(3) 0.7607(13)
H9 H 0.6739 0.0919 0.6499
H10 H 0.6714 0.0879 0.8622
C19 C 0.6780(3) 0.1780(3) 0.7698(17)
H11 H 0.6994 0.1994 0.6702
H12 H 0.6951 0.1951 0.8822
C17G C 0.5953(4) 0.2601(4) 0.7651(15)
H6G H 0.6063 0.2789 0.6505
H7G H 0.6197 0.2799 0.8598
H8G H 0.5507 0.2665 0.7880
C18G C 0.6091(3) 0.1919(3) 0.7607(13)
H9G H 0.5919 0.1739 0.6499
H10G H 0.5879 0.1714 0.8622
Cl2 Cl 0.8494(6) 0.4441(10) 0.288(4)
C20 C 0.9186(7) 0.4186(7) 0.360(5)
Cl2G Cl 0.9441(10) 0.3494(6) 0.288(4)
Cl3? Cl 1.0296(3) 0.5296(3) 0.4388(14)
Cl4? Cl 1.1456(6) 0.5526(9) 0.2246(19)
Cl5? Cl 1.0472(7) 0.6389(7) 0.340(2)
C21? C 1.0717(6) 0.5717(6) 0.253(3)
loop_
_geom_bond_atom_site_label_1
_geom_bond_atom_site_label_2
_geom_bond_site_symmetry_1
_geom_bond_site_symmetry_2
C1 C2 1_555 1_555
C2 C3 1_555 1_555
C3 H1 1_555 1_555
C4 C3 1_555 1_555
C5 C2 1_555 1_555
C6 C5 1_555 1_555
H2 C6 1_555 1_555
C7 C6 1_555 1_555
H3 C7 1_555 1_555
C8 C4 1_555 1_555
C9 C8 1_555 1_555
C10 C9 1_555 1_555
C11 C10 1_555 1_555
C12 C11 1_555 1_555
C13 C12 1_555 1_555
C14 C9 1_555 1_555
C15 C8 1_555 1_555
C16 C15 1_555 1_555
H4 C16 1_555 1_555
N1 C1 1_555 1_555
H5 N1 1_555 1_555
N2 C15 1_555 1_555
F1 C10 1_555 1_555
F2 C11 1_555 1_555
F3 C12 1_555 1_555
F4 C13 1_555 1_555
F5 C14 1_555 1_555
C17 H6 1_555 1_555
H7 C17 1_555 1_555
H8 C17 1_555 1_555
C18 C17 1_555 1_555
H9 C18 1_555 1_555
H10 C18 1_555 1_555
C19 C18 1_555 1_555
H11 C19 1_555 1_555
H12 C19 1_555 1_555
Cl2 C20 1_555 1_555
C20 Cl2G 1_555 1_555
C1E C1 1_555 1_555
C1B C1G 1_555 1_555
C1G C2G 1_555 1_555
C2E C1E 1_555 1_555
C2B C1B 1_555 1_555
C2G C3G 1_555 1_555
C3E C2E 1_555 1_555
C3B C2B 1_555 1_555
C3G H1G 1_555 1_555
H1E C3E 1_555 1_555
H1B C3B 1_555 1_555
C4E C3E 1_555 1_555
C4B C3B 1_555 1_555
C4G C3G 1_555 1_555
C5E C5 1_555 1_555
C5G C2G 1_555 1_555
C5B C2B 1_555 1_555
C6E C5E 1_555 1_555
C6G C5G 1_555 1_555
C6B C5B 1_555 1_555
H2E C6E 1_555 1_555
H2G C6G 1_555 1_555
H2B C6B 1_555 1_555
C7E C7 1_555 1_555
C7G C6G 1_555 1_555
C7B C6B 1_555 1_555
H3E C7E 1_555 1_555
H3B C7B 1_555 1_555
H3G C7G 1_555 1_555
C8E C4E 1_555 1_555
C8B C4B 1_555 1_555
C8G C4G 1_555 1_555
C9E C8E 1_555 1_555
C9G C8G 1_555 1_555
C9B C8B 1_555 1_555
C10E C9E 1_555 1_555
C10G C9G 1_555 1_555
C10B C9B 1_555 1_555
C11E C10E 1_555 1_555
C11G C10G 1_555 1_555
C11B C10B 1_555 1_555
C12E C11E 1_555 1_555
C12G C11G 1_555 1_555
C12B C11B 1_555 1_555
C13E C12E 1_555 1_555
C13G C12G 1_555 1_555
C13B C12B 1_555 1_555
C14E C9E 1_555 1_555
C14G C9G 1_555 1_555
C14B C9B 1_555 1_555
C15E C8E 1_555 1_555
C15B C8B 1_555 1_555
C15G N2 1_555 1_555
C16E C15E 1_555 1_555
C16B C15B 1_555 1_555
C16G C16 1_555 1_555
H4G C16G 1_555 1_555
H4B C16B 1_555 1_555
H4E C16E 1_555 1_555
N1G C1G 1_555 1_555
N1B C1B 1_555 1_555
N1E C1E 1_555 1_555
H5G N1G 1_555 1_555
H5B N1B 1_555 1_555
H5E N1E 1_555 1_555
N2B C15E 1_555 1_555
F1E C10E 1_555 1_555
F1G C10G 1_555 1_555
F1B C10B 1_555 1_555
F2E C11E 1_555 1_555
F2G C11G 1_555 1_555
F2B C11B 1_555 1_555
F3E C12E 1_555 1_555
F3G C12G 1_555 1_555
F3B C12B 1_555 1_555
F4E C13E 1_555 1_555
F4G C13G 1_555 1_555
F4B C13B 1_555 1_555
F5E C14E 1_555 1_555
F5G C14G 1_555 1_555
F5B C14B 1_555 1_555
C17G H6G 1_555 1_555
H7G C17G 1_555 1_555
H8G C17G 1_555 1_555
C18G C19 1_555 1_555
H9G C18G 1_555 1_555
H10G C18G 1_555 1_555
C4 N1 1_555 1_555
C13 C14 1_555 1_555
C2E C5E 1_555 1_555
C4E N1E 1_555 1_555
C4B N1B 1_555 1_555
C4G N1G 1_555 1_555
C5G C5B 1_555 1_555
C6E C7E 1_555 1_555
C7G C7B 1_555 1_555
C8G C15G 1_555 1_555
C13E C14E 1_555 1_555
C13G C14G 1_555 1_555
C13B C14B 1_555 1_555
C15B N2B 1_555 1_555
C15G C16G 1_555 1_555
C16E C16B 1_555 1_555
C17G C18G 1_555 1_555

#END
