
#######################################################################
#
#                 Cambridge Crystallographic Data Centre
#                                CCDC 
#
#######################################################################
#
# If this CIF has been generated from an entry in the Cambridge 
# Structural Database, then it will include bibliographic, chemical, 
# crystal, experimental, refinement or atomic coordinate data resulting 
# from the CCDC's data processing and validation procedures.
#
#######################################################################

data_ITEGIX
_chemical_compound_source        'Millettia usaramensis subsp. usaramensis'
_chemical_formula_moiety         'C18 H14 O8'
_chemical_name_systematic        '12-Dihydro-usararotenoid A'
_chemical_properties_biological  'no antiplasmodial activity'
_symmetry_cell_setting           monoclinic
_symmetry_space_group_name_H-M   'P 21'
_symmetry_Int_Tables_number      4
_space_group_name_Hall           'P 2yb'
loop_
_symmetry_equiv_pos_site_id
_symmetry_equiv_pos_as_xyz
1 x,y,z
2 -x,1/2+y,-z
_cell_length_a                   9.5522(9)
_cell_length_b                   7.3442(8)
_cell_length_c                   11.1603(15)
_cell_angle_alpha                90
_cell_angle_beta                 110.034(4)
_cell_angle_gamma                90
_cell_volume                     735.556
_cell_formula_units_Z            2
loop_
_atom_site_label
_atom_site_type_symbol
_atom_site_fract_x
_atom_site_fract_y
_atom_site_fract_z
C1 C 0.7105(4) 0.4209(5) 0.6444(4)
C2 C 0.7234(4) 0.2445(4) 0.7006(4)
C3 C 0.6538(4) 0.2174(4) 0.7874(3)
O1 O 0.6532(3) 0.0581(3) 0.8557(3)
C4 C 0.5535(5) 0.0940(5) 0.9254(4)
O2 O 0.5144(3) 0.2839(3) 0.9095(3)
C5 C 0.5730(4) 0.3501(5) 0.8218(4)
C6 C 0.5612(4) 0.5231(5) 0.7722(4)
C7 C 0.6323(3) 0.5559(4) 0.6837(4)
O3 O 0.6124(3) 0.7294(3) 0.6342(3)
C8 C 0.7037(4) 0.7810(5) 0.5613(4)
C9 C 0.7040(4) 0.6297(5) 0.4708(4)
O4 O 0.7796(3) 0.6958(3) 0.3885(2)
C10 C 0.8055(4) 0.5626(4) 0.3111(4)
C11 C 0.8476(4) 0.6192(5) 0.2107(4)
O5 O 0.8733(3) 0.7958(3) 0.1797(3)
C12 C 0.9032(6) 0.7787(5) 0.0630(5)
O6 O 0.9211(3) 0.5895(3) 0.0400(3)
C13 C 0.8756(4) 0.4970(5) 0.1297(4)
C14 C 0.8597(4) 0.3123(5) 0.1400(4)
C15 C 0.8163(4) 0.2558(5) 0.2417(4)
C16 C 0.7930(4) 0.3765(4) 0.3293(3)
C17 C 0.7602(5) 0.3064(4) 0.4453(4)
O7 O 0.8543(3) 0.1567(3) 0.5036(3)
C18 C 0.7794(4) 0.4600(4) 0.5436(4)
O8 O 0.9337(3) 0.5056(3) 0.5978(2)
loop_
_geom_bond_atom_site_label_1
_geom_bond_atom_site_label_2
_geom_bond_site_symmetry_1
_geom_bond_site_symmetry_2
C1 C2 1_555 1_555
C2 C3 1_555 1_555
C3 O1 1_555 1_555
O1 C4 1_555 1_555
C4 O2 1_555 1_555
O2 C5 1_555 1_555
C5 C3 1_555 1_555
C6 C5 1_555 1_555
C7 C1 1_555 1_555
O3 C7 1_555 1_555
C8 O3 1_555 1_555
C9 C8 1_555 1_555
O4 C9 1_555 1_555
C10 O4 1_555 1_555
C11 C10 1_555 1_555
O5 C11 1_555 1_555
C12 O5 1_555 1_555
O6 C12 1_555 1_555
C13 C11 1_555 1_555
C14 C13 1_555 1_555
C15 C14 1_555 1_555
C16 C10 1_555 1_555
C17 C16 1_555 1_555
O7 C17 1_555 1_555
C18 C1 1_555 1_555
O8 C18 1_555 1_555
C6 C7 1_555 1_555
C9 C18 1_555 1_555
O6 C13 1_555 1_555
C15 C16 1_555 1_555
C17 C18 1_555 1_555

#END
