
#######################################################################
#
#                 Cambridge Crystallographic Data Centre
#                                CCDC 
#
#######################################################################
#
# If this CIF has been generated from an entry in the Cambridge 
# Structural Database, then it will include bibliographic, chemical, 
# crystal, experimental, refinement or atomic coordinate data resulting 
# from the CCDC's data processing and validation procedures.
#
#######################################################################

data_ITEHIA
_chemical_name_common            
'1,3,5-tris(3-(2,3,4,5-tetrafluorobenzyl)-imidazolium-1-methyl)-2,4,6-trimethylbenzene bromide bis(hexafluorophosphate) acetonitrile solvate'
_chemical_formula_moiety         'C42 H33 F12 N6 3+,2(F6 P1 1-),C2 H3 N1,Br1 1-'
_chemical_name_systematic        
"3,3',3''-((2,4,6-trimethylbenzene-1,3,5-triyl)tris(methylene))tris(1-((2,3,4,5-tetrafluorophenyl)methyl)-1H-imidazol-3-ium) bromide bis(hexafluorophosphate) acetonitrile solvate"
_symmetry_cell_setting           triclinic
_symmetry_space_group_name_H-M   'P -1'
_symmetry_Int_Tables_number      2
_space_group_name_Hall           '-P 1'
loop_
_symmetry_equiv_pos_site_id
_symmetry_equiv_pos_as_xyz
1 x,y,z
2 -x,-y,-z
_cell_length_a                   12.226(4)
_cell_length_b                   12.514(2)
_cell_length_c                   18.219(3)
_cell_angle_alpha                75.477(12)
_cell_angle_beta                 78.586(11)
_cell_angle_gamma                71.715(19)
_cell_volume                     2540.48
_exptl_crystal_colour            colorless
_exptl_crystal_description       BLOCK
_cell_formula_units_Z            2
_exptl_crystal_recrystallization_method acetonitrile
loop_
_atom_site_label
_atom_site_type_symbol
_atom_site_fract_x
_atom_site_fract_y
_atom_site_fract_z
Br1 Br 0.34011(5) 0.75952(4) 0.31393(3)
C1 C 0.5344(4) 0.7579(4) 0.0780(2)
C2 C 0.5603(4) 0.8408(4) 0.1054(3)
C3 C 0.4766(4) 0.9476(4) 0.1069(3)
C4 C 0.3655(4) 0.9669(4) 0.0883(2)
C5 C 0.3393(4) 0.8801(4) 0.0643(2)
C6 C 0.4248(4) 0.7776(4) 0.0558(2)
C7 C 0.6257(5) 0.6451(5) 0.0715(3)
H1 H 0.6176 0.6201 0.0270
H2 H 0.7022 0.6569 0.0639
C8 C 0.6730(5) 0.8166(6) 0.1360(4)
H3 H 0.7097 0.7353 0.1453
H4 H 0.6582 0.8435 0.1829
H5 H 0.7232 0.8554 0.0992
C9 C 0.5099(5) 1.0436(5) 0.1258(3)
H6 H 0.5915 1.0363 0.1074
H7 H 0.4654 1.1167 0.0989
C10 C 0.2725(5) 1.0788(5) 0.0953(4)
H8 H 0.2607 1.1249 0.0452
H9 H 0.2966 1.1198 0.1243
H10 H 0.2011 1.0625 0.1208
C11 C 0.2191(4) 0.8984(5) 0.0450(3)
H11 H 0.1741 0.9773 0.0457
H12 H 0.2255 0.8857 -0.0062
C12 C 0.3995(5) 0.6885(5) 0.0240(3)
H13 H 0.4078 0.6178 0.0614
H14 H 0.4529 0.6746 -0.0214
H15 H 0.3213 0.7156 0.0113
C13 C 0.6823(5) 0.4411(5) 0.1478(4)
H16 H 0.7380 0.4088 0.1108
C14 C 0.6521(5) 0.3867(5) 0.2179(4)
H17 H 0.6832 0.3096 0.2390
C15 C 0.5473(4) 0.5656(4) 0.2052(3)
H18 H 0.4938 0.6334 0.2154
C16 C 0.5074(5) 0.4433(5) 0.3320(3)
H19 H 0.4836 0.3736 0.3407
H20 H 0.4383 0.5063 0.3385
C17 C 0.5860(5) 0.4303(5) 0.3896(3)
C18 C 0.6558(6) 0.3248(5) 0.4200(3)
C19 C 0.7325(6) 0.3111(5) 0.4695(3)
C20 C 0.7405(6) 0.4060(6) 0.4892(3)
C21 C 0.6709(6) 0.5116(6) 0.4609(4)
C22 C 0.5947(6) 0.5259(5) 0.4108(3)
H21 H 0.5494 0.5989 0.3913
C23 C 0.5474(6) 1.0903(6) 0.2439(4)
H22 H 0.6097 1.1204 0.2221
C24 C 0.4964(7) 1.0839(6) 0.3160(4)
H23 H 0.5165 1.1095 0.3538
C25 C 0.4072(7) 1.0115(5) 0.2574(3)
H24 H 0.3548 0.9785 0.2473
C26 C 0.3228(10) 1.0167(6) 0.3917(4)
H25 H 0.3562 1.0056 0.4381
H26 H 0.2999 0.9486 0.3934
C27 C 0.2169(9) 1.1208(6) 0.3875(4)
C28 C 0.2201(8) 1.2194(6) 0.4075(4)
C29 C 0.1289(8) 1.3168(7) 0.3998(4)
C30 C 0.0339(10) 1.3184(10) 0.3714(5)
C31 C 0.0290(11) 1.2205(14) 0.3521(6)
C32 C 0.1183(13) 1.1231(11) 0.3596(5)
H27 H 0.1134 1.0579 0.3461
C33 C 0.0777(5) 0.7771(5) 0.0822(3)
H28 H 0.0547 0.7899 0.0343
C34 C 0.0395(5) 0.7140(5) 0.1463(3)
H29 H -0.0151 0.6741 0.1515
C35 C 0.1659(4) 0.7835(4) 0.1736(3)
H30 H 0.2137 0.8011 0.1999
C36 C 0.0772(5) 0.6645(5) 0.2850(3)
H31 H 0.1469 0.6508 0.3078
H32 H 0.0630 0.5909 0.2896
C37 C -0.0241(5) 0.7397(4) 0.3274(3)
C38 C -0.1372(5) 0.7422(5) 0.3253(3)
C39 C -0.2300(5) 0.8162(6) 0.3596(4)
C40 C -0.2099(7) 0.8898(6) 0.3960(3)
N1 N 0.6162(3) 0.5544(4) 0.1398(2)
N2 N 0.5665(4) 0.4655(4) 0.2534(3)
N3 N 0.4900(4) 1.0439(4) 0.2079(3)
N4 N 0.4102(6) 1.0335(4) 0.3245(3)
N5 N 0.1574(3) 0.8198(3) 0.0998(2)
N6 N 0.0952(3) 0.7181(3) 0.2039(2)
F1 F 0.6489(4) 0.2292(3) 0.4007(3)
F2 F 0.8000(4) 0.2059(4) 0.4961(2)
F3 F 0.8180(4) 0.3948(4) 0.5355(2)
F4 F 0.6773(6) 0.6038(4) 0.4835(3)
F5 F 0.3144(5) 1.2217(4) 0.4330(3)
F6 F 0.1334(5) 1.4116(4) 0.4179(3)
F7 F -0.0542(6) 1.4151(7) 0.3611(4)
F8 F -0.0672(7) 1.2254(9) 0.3249(5)
F9 F -0.1585(3) 0.6718(4) 0.2882(3)
F10 F -0.3385(3) 0.8173(4) 0.3556(3)
F11 F -0.3007(4) 0.9652(4) 0.4279(2)
F12 F -0.0821(5) 0.9616(4) 0.4362(3)
C41 C -0.0991(7) 0.8884(6) 0.3995(3)
C42 C -0.0044(6) 0.8137(5) 0.3654(3)
H33 H 0.0709 0.8133 0.3680
F13 F 0.3519(5) 0.3450(5) 0.2621(3)
F14 F 0.2695(5) 0.4586(5) 0.1002(3)
F15 F 0.3206(4) 0.5194(4) 0.1901(3)
F16 F 0.4415(4) 0.3715(6) 0.1445(4)
F17 F 0.3003(5) 0.2832(4) 0.1742(5)
F18 F 0.1803(3) 0.4331(4) 0.2174(3)
P1 P 0.31114(13) 0.39994(13) 0.18072(9)
F19 F 0.0062(4) 0.9728(9) 0.7976(3)
F20 F 0.2280(5) 0.8687(9) 0.8710(3)
F21 F 0.0430(4) 0.9448(4) 0.9134(2)
F22 F 0.1348(9) 1.0357(6) 0.8145(5)
F23 F 0.1902(3) 0.8942(4) 0.7565(2)
F24 F 0.1026(11) 0.8038(6) 0.8557(7)
P2 P 0.11568(12) 0.92006(12) 0.83463(8)
N7 N -0.0073(13) 0.6026(15) -0.1249(8)
C43 C -0.0495(12) 0.6412(13) -0.0698(9)
C44 C -0.0823(9) 0.6453(11) 0.0120(8)
H34 H -0.1050 0.5767 0.0415
H35 H -0.1480 0.7121 0.0203
H36 H -0.0176 0.6503 0.0338
loop_
_geom_bond_atom_site_label_1
_geom_bond_atom_site_label_2
_geom_bond_site_symmetry_1
_geom_bond_site_symmetry_2
C1 C2 1_555 1_555
C2 C3 1_555 1_555
C3 C4 1_555 1_555
C4 C5 1_555 1_555
C5 C6 1_555 1_555
C6 C1 1_555 1_555
C7 C1 1_555 1_555
H1 C7 1_555 1_555
H2 C7 1_555 1_555
C8 C2 1_555 1_555
H3 C8 1_555 1_555
H4 C8 1_555 1_555
H5 C8 1_555 1_555
C9 C3 1_555 1_555
H6 C9 1_555 1_555
H7 C9 1_555 1_555
C10 C4 1_555 1_555
H8 C10 1_555 1_555
H9 C10 1_555 1_555
H10 C10 1_555 1_555
C11 C5 1_555 1_555
H11 C11 1_555 1_555
H12 C11 1_555 1_555
C12 C6 1_555 1_555
H13 C12 1_555 1_555
H14 C12 1_555 1_555
H15 C12 1_555 1_555
C13 H16 1_555 1_555
C14 C13 1_555 1_555
H17 C14 1_555 1_555
C15 H18 1_555 1_555
C16 H19 1_555 1_555
H20 C16 1_555 1_555
C17 C16 1_555 1_555
C18 C17 1_555 1_555
C19 C18 1_555 1_555
C20 C19 1_555 1_555
C21 C20 1_555 1_555
C22 C17 1_555 1_555
H21 C22 1_555 1_555
C23 H22 1_555 1_555
C24 C23 1_555 1_555
H23 C24 1_555 1_555
C25 H24 1_555 1_555
C26 H25 1_555 1_555
H26 C26 1_555 1_555
C27 C26 1_555 1_555
C28 C27 1_555 1_555
C29 C28 1_555 1_555
C30 C29 1_555 1_555
C31 C30 1_555 1_555
C32 C27 1_555 1_555
H27 C32 1_555 1_555
C33 H28 1_555 1_555
C34 C33 1_555 1_555
H29 C34 1_555 1_555
C35 H30 1_555 1_555
C36 H31 1_555 1_555
H32 C36 1_555 1_555
C37 C36 1_555 1_555
C38 C37 1_555 1_555
C39 C38 1_555 1_555
C40 C39 1_555 1_555
N1 C7 1_555 1_555
N2 C14 1_555 1_555
N3 C9 1_555 1_555
N4 C24 1_555 1_555
N5 C11 1_555 1_555
N6 C34 1_555 1_555
F1 C18 1_555 1_555
F2 C19 1_555 1_555
F3 C20 1_555 1_555
F4 C21 1_555 1_555
F5 C28 1_555 1_555
F6 C29 1_555 1_555
F7 C30 1_555 1_555
F8 C31 1_555 1_555
F9 C38 1_555 1_555
F10 C39 1_555 1_555
F11 C40 1_555 1_555
F12 C41 1_555 1_555
C41 C40 1_555 1_555
C42 C37 1_555 1_555
H33 C42 1_555 1_555
F13 P1 1_555 1_555
F14 P1 1_555 1_555
F15 P1 1_555 1_555
F16 P1 1_555 1_555
F17 P1 1_555 1_555
F18 P1 1_555 1_555
F19 P2 1_555 1_555
F20 P2 1_555 1_555
F21 P2 1_555 1_555
F22 P2 1_555 1_555
F23 P2 1_555 1_555
F24 P2 1_555 1_555
N7 C43 1_555 1_555
C43 C44 1_555 1_555
C44 H34 1_555 1_555
H35 C44 1_555 1_555
H36 C44 1_555 1_555
C13 N1 1_555 1_555
C15 N1 1_555 1_555
C15 N2 1_555 1_555
C16 N2 1_555 1_555
C21 C22 1_555 1_555
C23 N3 1_555 1_555
C25 N3 1_555 1_555
C25 N4 1_555 1_555
C26 N4 1_555 1_555
C31 C32 1_555 1_555
C33 N5 1_555 1_555
C35 N5 1_555 1_555
C35 N6 1_555 1_555
C36 N6 1_555 1_555
C41 C42 1_555 1_555

#END
