
#######################################################################
#
#                 Cambridge Crystallographic Data Centre
#                                CCDC 
#
#######################################################################
#
# If this CIF has been generated from an entry in the Cambridge 
# Structural Database, then it will include bibliographic, chemical, 
# crystal, experimental, refinement or atomic coordinate data resulting 
# from the CCDC's data processing and validation procedures.
#
#######################################################################

data_ITEHOG
_chemical_formula_moiety         'C23 H24 N2'
_chemical_name_systematic        
1-cyclohexyl-4-phenyl-2,3-dihydro-1H-pyrrolo[2,3-b]quinoline
_symmetry_cell_setting           triclinic
_symmetry_space_group_name_H-M   'P -1'
_symmetry_Int_Tables_number      2
_space_group_name_Hall           '-P 1'
loop_
_symmetry_equiv_pos_site_id
_symmetry_equiv_pos_as_xyz
1 x,y,z
2 -x,-y,-z
_cell_length_a                   6.2020(5)
_cell_length_b                   10.1690(10)
_cell_length_c                   14.7158(18)
_cell_angle_alpha                75.057(10)
_cell_angle_beta                 85.343(8)
_cell_angle_gamma                84.132(7)
_cell_volume                     890.561
_exptl_crystal_colour            'light yellow'
_exptl_crystal_description       block
_cell_formula_units_Z            2
loop_
_atom_site_label
_atom_site_type_symbol
_atom_site_fract_x
_atom_site_fract_y
_atom_site_fract_z
N1 N 0.1364(2) 0.04327(14) 0.22411(10)
N2 N -0.1861(3) 0.04874(15) 0.32084(11)
C1 C -0.1007(3) 0.56280(18) 0.12166(14)
H1 H -0.1916 0.5184 0.0945
C2 C -0.1293(3) 0.70353(19) 0.10596(15)
H2 H -0.2389 0.7527 0.0685
C3 C 0.0034(3) 0.77024(18) 0.14542(13)
H3 H -0.0154 0.8648 0.1347
C4 C 0.1647(3) 0.69725(18) 0.20104(14)
H4 H 0.2546 0.7425 0.2281
C5 C 0.1936(3) 0.55684(18) 0.21679(13)
H5 H 0.3033 0.5083 0.2544
C6 C 0.0609(3) 0.48717(16) 0.17712(12)
C7 C 0.0893(3) 0.33530(16) 0.19333(11)
C8 C 0.2705(3) 0.26841(16) 0.14960(11)
C9 C 0.4333(3) 0.33999(17) 0.09074(12)
H6 H 0.4261 0.4346 0.0794
C10 C 0.6016(3) 0.27381(19) 0.04994(13)
H7 H 0.7085 0.3231 0.0121
C11 C 0.6127(3) 0.13185(19) 0.06523(13)
H8 H 0.7265 0.0867 0.0371
C12 C 0.4563(3) 0.05915(18) 0.12154(13)
H9 H 0.4645 -0.0351 0.1306
C13 C 0.2837(3) 0.12418(16) 0.16590(11)
C14 C -0.0238(3) 0.10969(17) 0.26197(12)
C15 C -0.3334(3) 0.14749(19) 0.35548(15)
H10 H -0.3225 0.1344 0.4227
H11 H -0.4822 0.1386 0.3437
C16 C -0.2631(3) 0.28778(19) 0.30134(14)
H12 H -0.3720 0.3371 0.2586
H13 H -0.2378 0.3421 0.3442
C17 C -0.0563(3) 0.25476(16) 0.24809(12)
C18 C -0.1875(3) -0.09846(18) 0.35726(14)
H14 H -0.0994 -0.1360 0.3100
C19 C -0.408(2) -0.1502(14) 0.3585(17)
H15 H -0.4575 -0.1280 0.2950
H16 H -0.5124 -0.1071 0.3969
C20 C -0.3892(18) -0.3062(10) 0.3994(10)
H17 H -0.5326 -0.3380 0.4025
H18 H -0.2983 -0.3474 0.3555
C21 C -0.3065(4) -0.3542(2) 0.48714(17)
H19 H -0.3052 -0.4529 0.5077
H20 H -0.3926 -0.3147 0.5331
C22 C -0.0683(12) -0.3085(6) 0.4745(6)
H21 H 0.0024 -0.3427 0.5335
H22 H 0.0142 -0.3471 0.4273
C23 C -0.0716(13) -0.1536(6) 0.4446(5)
H23 H -0.1430 -0.1155 0.4943
H24 H 0.0761 -0.1272 0.4343
H25? H -0.0911 -0.1487 0.3193
H26? H -0.4186 -0.3503 0.5366
H27? H -0.2618 -0.4500 0.4927
C24? C -0.135(2) -0.1415(15) 0.4641(9)
H28? H 0.0062 -0.1123 0.4704
H29? H -0.2419 -0.0948 0.4992
C25? C -0.133(2) -0.2965(12) 0.5071(12)
H30? H -0.0014 -0.3407 0.4843
H31? H -0.1292 -0.3141 0.5749
C26? C -0.423(3) -0.2944(16) 0.3848(17)
H32? H -0.3430 -0.3283 0.3350
H33? H -0.5722 -0.3180 0.3895
C27? C -0.412(3) -0.140(2) 0.369(3)
H34? H -0.4879 -0.0936 0.3125
H35? H -0.4875 -0.1114 0.4214
loop_
_geom_bond_atom_site_label_1
_geom_bond_atom_site_label_2
_geom_bond_site_symmetry_1
_geom_bond_site_symmetry_2
N1 C13 1_555 1_555
N2 C14 1_555 1_555
C1 H1 1_555 1_555
C2 C1 1_555 1_555
H2 C2 1_555 1_555
C3 C2 1_555 1_555
H3 C3 1_555 1_555
C4 C3 1_555 1_555
H4 C4 1_555 1_555
C5 C4 1_555 1_555
H5 C5 1_555 1_555
C6 C1 1_555 1_555
C7 C6 1_555 1_555
C8 C7 1_555 1_555
C9 C8 1_555 1_555
H6 C9 1_555 1_555
C10 C9 1_555 1_555
H7 C10 1_555 1_555
C11 C10 1_555 1_555
H8 C11 1_555 1_555
C12 C11 1_555 1_555
H9 C12 1_555 1_555
C13 C8 1_555 1_555
C14 N1 1_555 1_555
C15 N2 1_555 1_555
H10 C15 1_555 1_555
H11 C15 1_555 1_555
C16 C15 1_555 1_555
H12 C16 1_555 1_555
H13 C16 1_555 1_555
C17 C7 1_555 1_555
C18 N2 1_555 1_555
H14 C18 1_555 1_555
C19 C18 1_555 1_555
H15 C19 1_555 1_555
H16 C19 1_555 1_555
C20 C19 1_555 1_555
H17 C20 1_555 1_555
H18 C20 1_555 1_555
C21 C20 1_555 1_555
H19 C21 1_555 1_555
H20 C21 1_555 1_555
C22 C21 1_555 1_555
H21 C22 1_555 1_555
H22 C22 1_555 1_555
C23 C18 1_555 1_555
H23 C23 1_555 1_555
H24 C23 1_555 1_555
C5 C6 1_555 1_555
C12 C13 1_555 1_555
C14 C17 1_555 1_555
C16 C17 1_555 1_555
C22 C23 1_555 1_555

#END
