
#######################################################################
#
#                 Cambridge Crystallographic Data Centre
#                                CCDC 
#
#######################################################################
#
# If this CIF has been generated from an entry in the Cambridge 
# Structural Database, then it will include bibliographic, chemical, 
# crystal, experimental, refinement or atomic coordinate data resulting 
# from the CCDC's data processing and validation procedures.
#
#######################################################################

data_ITEHAS
_chemical_formula_moiety         'C25 H14 F1 N1 O3'
_chemical_name_systematic        
3-(4-fluorobenzoyl)-2-phenyl-1H-benzo[f]indole-4,9-dione
_symmetry_cell_setting           monoclinic
_symmetry_space_group_name_H-M   'C 2/c'
_symmetry_Int_Tables_number      15
_space_group_name_Hall           '-C 2yn'
loop_
_symmetry_equiv_pos_site_id
_symmetry_equiv_pos_as_xyz
1 x,y,z
2 -x,y,1/2-z
3 1/2+x,1/2+y,z
4 1/2-x,1/2+y,1/2-z
5 -x,-y,-z
6 x,-y,1/2+z
7 1/2-x,1/2-y,-z
8 1/2+x,1/2-y,1/2+z
_cell_length_a                   23.5008(10)
_cell_length_b                   21.0528(9)
_cell_length_c                   29.7189(13)
_cell_angle_alpha                90
_cell_angle_beta                 91.432(2)
_cell_angle_gamma                90
_cell_volume                     14699.1
_exptl_crystal_colour            'light orange'
_exptl_crystal_description       plate
_cell_formula_units_Z            32
_exptl_crystal_recrystallization_method dichloromethane/methanol
loop_
_atom_site_label
_atom_site_type_symbol
_atom_site_fract_x
_atom_site_fract_y
_atom_site_fract_z
N1 N 0.63241(6) 0.23704(6) 0.44042(5)
H1 H 0.6681 0.2243 0.4408
C1 C 0.58608(7) 0.19801(8) 0.43457(5)
C2 C 0.53709(7) 0.23604(8) 0.43648(5)
C3 C 0.55612(7) 0.29962(8) 0.44317(5)
C4 C 0.52629(7) 0.36066(8) 0.44329(5)
O1 O 0.47483(5) 0.36590(6) 0.43680(4)
C5 C 0.56273(7) 0.41862(8) 0.45075(5)
C6 C 0.53666(7) 0.47772(8) 0.45322(6)
H2 H 0.4963 0.4806 0.4510
C7 C 0.56880(8) 0.53264(9) 0.45887(6)
H3 H 0.5505 0.5727 0.4606
C8 C 0.62756(8) 0.52890(9) 0.46195(6)
H4 H 0.6496 0.5664 0.4657
C9 C 0.65431(7) 0.47010(9) 0.45958(6)
H5 H 0.6947 0.4677 0.4616
C10 C 0.62241(7) 0.41489(8) 0.45420(6)
O2 O 0.70440(5) 0.34849(6) 0.45292(5)
C11 C 0.65215(7) 0.35268(8) 0.45097(6)
C12 C 0.61517(7) 0.29825(8) 0.44548(5)
O3 O 0.46758(5) 0.17520(6) 0.39809(4)
C13 C 0.47798(7) 0.21127(8) 0.42940(6)
C14 C 0.43293(7) 0.22856(8) 0.46139(6)
C15 C 0.44507(7) 0.26102(8) 0.50132(6)
H6 H 0.4831 0.2737 0.5081
C16 C 0.40278(8) 0.27517(9) 0.53129(6)
H7 H 0.4110 0.2974 0.5585
C17 C 0.34829(8) 0.25578(9) 0.52017(7)
F1 F 0.30628(5) 0.26992(6) 0.54943(4)
C18 C 0.33411(8) 0.22310(9) 0.48153(7)
H8 H 0.2960 0.2101 0.4753
C19 C 0.37700(7) 0.20970(8) 0.45183(7)
H9 H 0.3683 0.1875 0.4247
C20 C 0.59367(7) 0.12938(8) 0.42732(6)
C21 C 0.55532(7) 0.08492(9) 0.44401(6)
H10 H 0.5234 0.0988 0.4603
C22 C 0.56388(8) 0.02073(9) 0.43675(6)
H11 H 0.5378 -0.0093 0.4483
C23 C 0.61027(8) 0.00003(9) 0.41274(7)
H12 H 0.6158 -0.0441 0.4078
C24 C 0.64832(8) 0.04335(9) 0.39601(6)
H13 H 0.6800 0.0291 0.3795
C25 C 0.64028(7) 0.10774(8) 0.40335(6)
H14 H 0.6667 0.1375 0.3920
N2 N 0.81976(6) 0.30846(6) 0.44742(5)
H15 H 0.7848 0.3208 0.4527
C26 C 0.86603(7) 0.34780(8) 0.44576(5)
C27 C 0.91337(7) 0.31048(8) 0.43639(5)
C28 C 0.89381(7) 0.24694(8) 0.43238(5)
O4 O 0.97536(5) 0.18385(6) 0.42074(4)
C29 C 0.92384(7) 0.18715(8) 0.42462(5)
C30 C 0.88717(7) 0.12894(8) 0.42308(5)
C31 C 0.91249(7) 0.07066(8) 0.41431(6)
H16 H 0.9522 0.0687 0.4094
C32 C 0.88038(8) 0.01554(8) 0.41269(6)
H17 H 0.8980 -0.0240 0.4064
C33 C 0.82252(8) 0.01823(8) 0.42023(6)
H18 H 0.8005 -0.0196 0.4194
C34 C 0.79652(7) 0.07573(8) 0.42899(6)
H19 H 0.7568 0.0772 0.4341
C35 C 0.82826(7) 0.13140(8) 0.43041(5)
O5 O 0.74726(5) 0.19540(6) 0.44521(5)
C36 C 0.79890(7) 0.19266(8) 0.43901(6)
C37 C 0.83577(7) 0.24748(8) 0.43967(5)
C38 C 0.97328(7) 0.33421(8) 0.43365(6)
O6 O 0.99579(5) 0.36180(6) 0.46553(4)
C39 C 1.00390(7) 0.32567(8) 0.39103(6)
C40 C 1.06196(7) 0.33925(8) 0.39036(6)
H20 H 1.0816 0.3509 0.4174
C41 C 1.09119(7) 0.33588(9) 0.35048(7)
H21 H 1.1307 0.3453 0.3497
C42 C 1.06169(8) 0.31871(9) 0.31248(7)
F2 F 1.09033(5) 0.31675(6) 0.27337(4)
C43 C 1.00466(8) 0.30375(11) 0.31187(7)
H22 H 0.9856 0.2912 0.2847
C44 C 0.97573(7) 0.30738(9) 0.35177(6)
H23 H 0.9364 0.2973 0.3522
C45 C 0.86003(7) 0.41637(8) 0.45271(6)
C46 C 0.89505(7) 0.45982(8) 0.43114(6)
H24 H 0.9235 0.4450 0.4116
C47 C 0.88842(8) 0.52432(9) 0.43812(7)
H25 H 0.9125 0.5537 0.4236
C48 C 0.84656(9) 0.54594(9) 0.46642(7)
H26 H 0.8420 0.5903 0.4712
C49 C 0.81151(8) 0.50348(9) 0.48770(7)
H27 H 0.7827 0.5186 0.5069
C50 C 0.81826(7) 0.43906(8) 0.48108(6)
H28 H 0.7943 0.4099 0.4960
C51 C 0.45524(7) 0.32061(9) 0.30217(6)
N3 N 0.50240(6) 0.28193(7) 0.30464(5)
H29 H 0.5379 0.2951 0.3057
C52 C 0.40720(7) 0.28198(9) 0.30120(6)
C53 C 0.42665(7) 0.21840(8) 0.30334(6)
O7 O 0.34405(5) 0.15633(7) 0.31219(5)
C54 C 0.39597(7) 0.15843(9) 0.30865(6)
C55 C 0.43212(7) 0.10011(8) 0.31022(6)
C56 C 0.40582(8) 0.04105(9) 0.31229(6)
H30 H 0.3655 0.0386 0.3126
C57 C 0.43790(8) -0.01442(9) 0.31387(6)
H31 H 0.4195 -0.0546 0.3145
C58 C 0.49675(8) -0.01100(9) 0.31457(6)
H32 H 0.5187 -0.0488 0.3162
C59 C 0.52366(8) 0.04741(9) 0.31289(6)
H33 H 0.5641 0.0494 0.3135
C60 C 0.49201(7) 0.10314(9) 0.31024(6)
O8 O 0.57456(5) 0.16855(6) 0.30890(4)
C61 C 0.52226(7) 0.16505(8) 0.30837(6)
C62 C 0.48550(7) 0.22004(8) 0.30511(6)
C63 C 0.34584(7) 0.30228(9) 0.30320(6)
O9 O 0.31456(5) 0.30119(8) 0.27008(4)
C64 C 0.32458(7) 0.32184(8) 0.34787(6)
C65 C 0.36166(7) 0.33669(8) 0.38360(6)
H34 H 0.4016 0.3343 0.3795
C66 C 0.34126(7) 0.35492(8) 0.42491(6)
H35 H 0.3665 0.3660 0.4491
F3 F 0.26278(4) 0.37282(5) 0.47059(4)
C67 C 0.28331(7) 0.35650(8) 0.42981(6)
C68 C 0.24505(7) 0.34204(9) 0.39558(6)
H36 H 0.2052 0.3437 0.4003
C69 C 0.26580(7) 0.32502(8) 0.35414(6)
H37 H 0.2401 0.3155 0.3299
C70 C 0.45910(7) 0.39016(9) 0.30256(6)
C71 C 0.42099(8) 0.42639(9) 0.27626(6)
H38 H 0.3938 0.4059 0.2570
C72 C 0.42275(8) 0.49197(10) 0.27821(7)
H39 H 0.3969 0.5164 0.2602
C73 C 0.46196(9) 0.52216(10) 0.30614(7)
H40 H 0.4624 0.5672 0.3079
C74 C 0.50069(8) 0.48697(9) 0.33162(7)
H41 H 0.5282 0.5079 0.3503
C75 C 0.49925(7) 0.42132(9) 0.32986(6)
H42 H 0.5259 0.3973 0.3474
C76 C 0.73684(7) 0.17025(8) 0.31029(6)
N4 N 0.68972(6) 0.20664(7) 0.31829(5)
H43 H 0.6545 0.1925 0.3184
C77 C 0.78426(7) 0.20979(8) 0.31319(5)
C78 C 0.76435(7) 0.27141(8) 0.32365(5)
O10 O 0.84549(5) 0.33793(6) 0.32464(5)
C79 C 0.79409(7) 0.33223(8) 0.32819(6)
C80 C 0.75688(7) 0.38882(8) 0.33638(6)
C81 C 0.78222(8) 0.44738(9) 0.34353(7)
H44 H 0.8226 0.4506 0.3448
C82 C 0.74942(9) 0.50143(10) 0.34884(8)
H45 H 0.7672 0.5415 0.3535
C83 C 0.69060(9) 0.49684(10) 0.34729(8)
H46 H 0.6681 0.5339 0.3505
C84 C 0.66458(8) 0.43849(9) 0.34112(7)
H47 H 0.6242 0.4356 0.3404
C85 C 0.69714(7) 0.38396(8) 0.33601(6)
O11 O 0.61576(5) 0.31701(6) 0.33060(5)
C86 C 0.66803(7) 0.32157(8) 0.33083(6)
C87 C 0.70562(7) 0.26789(8) 0.32607(5)
O12 O 0.88318(5) 0.19191(6) 0.32743(4)
C88 C 0.84382(7) 0.19347(8) 0.30010(6)
C89 C 0.85280(7) 0.18065(8) 0.25142(6)
C90 C 0.80880(8) 0.18473(9) 0.21909(6)
H48 H 0.7716 0.1964 0.2279
C91 C 0.81898(10) 0.17193(10) 0.17419(7)
H49 H 0.7893 0.1745 0.1520
F4 F 0.88267(7) 0.14043(7) 0.11919(4)
C92 C 0.87300(11) 0.15551(10) 0.16281(7)
C93 C 0.91792(10) 0.15233(10) 0.19326(8)
H50 H 0.9551 0.1417 0.1839
C94 C 0.90739(8) 0.16501(9) 0.23785(7)
H51 H 0.9377 0.1631 0.2596
C95 C 0.73377(7) 0.10137(8) 0.30210(6)
C96 C 0.78005(7) 0.06258(9) 0.31360(6)
H52 H 0.8136 0.0809 0.3264
C97 C 0.77751(8) -0.00242(9) 0.30651(7)
H53 H 0.8094 -0.0283 0.3144
C98 C 0.72883(9) -0.02980(9) 0.28805(7)
H54 H 0.7273 -0.0743 0.2830
C99 C 0.68246(8) 0.00784(9) 0.27694(6)
H55 H 0.6488 -0.0111 0.2646
C100 C 0.68453(8) 0.07299(9) 0.28357(6)
H56 H 0.6525 0.0985 0.2755
loop_
_geom_bond_atom_site_label_1
_geom_bond_atom_site_label_2
_geom_bond_site_symmetry_1
_geom_bond_site_symmetry_2
N1 H1 1_555 1_555
C1 N1 1_555 1_555
C2 C1 1_555 1_555
C3 C2 1_555 1_555
C4 C3 1_555 1_555
O1 C4 1_555 1_555
C5 C4 1_555 1_555
C6 C5 1_555 1_555
H2 C6 1_555 1_555
C7 C6 1_555 1_555
H3 C7 1_555 1_555
C8 C7 1_555 1_555
H4 C8 1_555 1_555
C9 C8 1_555 1_555
H5 C9 1_555 1_555
C10 C5 1_555 1_555
O2 C11 1_555 1_555
C11 C10 1_555 1_555
C12 N1 1_555 1_555
O3 C13 1_555 1_555
C13 C2 1_555 1_555
C14 C13 1_555 1_555
C15 C14 1_555 1_555
H6 C15 1_555 1_555
C16 C15 1_555 1_555
H7 C16 1_555 1_555
C17 C16 1_555 1_555
F1 C17 1_555 1_555
C18 C17 1_555 1_555
H8 C18 1_555 1_555
C19 C14 1_555 1_555
H9 C19 1_555 1_555
C20 C1 1_555 1_555
C21 C20 1_555 1_555
H10 C21 1_555 1_555
C22 C21 1_555 1_555
H11 C22 1_555 1_555
C23 C22 1_555 1_555
H12 C23 1_555 1_555
C24 C23 1_555 1_555
H13 C24 1_555 1_555
C25 C20 1_555 1_555
H14 C25 1_555 1_555
N2 H15 1_555 1_555
C26 N2 1_555 1_555
C27 C26 1_555 1_555
C28 C27 1_555 1_555
O4 C29 1_555 1_555
C29 C28 1_555 1_555
C30 C29 1_555 1_555
C31 C30 1_555 1_555
H16 C31 1_555 1_555
C32 C31 1_555 1_555
H17 C32 1_555 1_555
C33 C32 1_555 1_555
H18 C33 1_555 1_555
C34 C33 1_555 1_555
H19 C34 1_555 1_555
C35 C30 1_555 1_555
O5 C36 1_555 1_555
C36 C35 1_555 1_555
C37 N2 1_555 1_555
C38 C27 1_555 1_555
O6 C38 1_555 1_555
C39 C38 1_555 1_555
C40 C39 1_555 1_555
H20 C40 1_555 1_555
C41 C40 1_555 1_555
H21 C41 1_555 1_555
C42 C41 1_555 1_555
F2 C42 1_555 1_555
C43 C42 1_555 1_555
H22 C43 1_555 1_555
C44 C39 1_555 1_555
H23 C44 1_555 1_555
C45 C26 1_555 1_555
C46 C45 1_555 1_555
H24 C46 1_555 1_555
C47 C46 1_555 1_555
H25 C47 1_555 1_555
C48 C47 1_555 1_555
H26 C48 1_555 1_555
C49 C48 1_555 1_555
H27 C49 1_555 1_555
C50 C45 1_555 1_555
H28 C50 1_555 1_555
C51 N3 1_555 1_555
N3 H29 1_555 1_555
C52 C51 1_555 1_555
C53 C52 1_555 1_555
O7 C54 1_555 1_555
C54 C53 1_555 1_555
C55 C54 1_555 1_555
C56 C55 1_555 1_555
H30 C56 1_555 1_555
C57 C56 1_555 1_555
H31 C57 1_555 1_555
C58 C57 1_555 1_555
H32 C58 1_555 1_555
C59 C58 1_555 1_555
H33 C59 1_555 1_555
C60 C55 1_555 1_555
O8 C61 1_555 1_555
C61 C60 1_555 1_555
C62 N3 1_555 1_555
C63 C52 1_555 1_555
O9 C63 1_555 1_555
C64 C63 1_555 1_555
C65 C64 1_555 1_555
H34 C65 1_555 1_555
C66 C65 1_555 1_555
H35 C66 1_555 1_555
F3 C67 1_555 1_555
C67 C66 1_555 1_555
C68 C67 1_555 1_555
H36 C68 1_555 1_555
C69 C64 1_555 1_555
H37 C69 1_555 1_555
C70 C51 1_555 1_555
C71 C70 1_555 1_555
H38 C71 1_555 1_555
C72 C71 1_555 1_555
H39 C72 1_555 1_555
C73 C72 1_555 1_555
H40 C73 1_555 1_555
C74 C73 1_555 1_555
H41 C74 1_555 1_555
C75 C70 1_555 1_555
H42 C75 1_555 1_555
C76 N4 1_555 1_555
N4 H43 1_555 1_555
C77 C76 1_555 1_555
C78 C77 1_555 1_555
O10 C79 1_555 1_555
C79 C78 1_555 1_555
C80 C79 1_555 1_555
C81 C80 1_555 1_555
H44 C81 1_555 1_555
C82 C81 1_555 1_555
H45 C82 1_555 1_555
C83 C82 1_555 1_555
H46 C83 1_555 1_555
C84 C83 1_555 1_555
H47 C84 1_555 1_555
C85 C80 1_555 1_555
O11 C86 1_555 1_555
C86 C85 1_555 1_555
C87 N4 1_555 1_555
O12 C88 1_555 1_555
C88 C77 1_555 1_555
C89 C88 1_555 1_555
C90 C89 1_555 1_555
H48 C90 1_555 1_555
C91 C90 1_555 1_555
H49 C91 1_555 1_555
F4 C92 1_555 1_555
C92 C91 1_555 1_555
C93 C92 1_555 1_555
H50 C93 1_555 1_555
C94 C89 1_555 1_555
H51 C94 1_555 1_555
C95 C76 1_555 1_555
C96 C95 1_555 1_555
H52 C96 1_555 1_555
C97 C96 1_555 1_555
H53 C97 1_555 1_555
C98 C97 1_555 1_555
H54 C98 1_555 1_555
C99 C98 1_555 1_555
H55 C99 1_555 1_555
C100 C95 1_555 1_555
H56 C100 1_555 1_555
C3 C12 1_555 1_555
C9 C10 1_555 1_555
C11 C12 1_555 1_555
C18 C19 1_555 1_555
C24 C25 1_555 1_555
C28 C37 1_555 1_555
C34 C35 1_555 1_555
C36 C37 1_555 1_555
C43 C44 1_555 1_555
C49 C50 1_555 1_555
C53 C62 1_555 1_555
C59 C60 1_555 1_555
C61 C62 1_555 1_555
C68 C69 1_555 1_555
C74 C75 1_555 1_555
C78 C87 1_555 1_555
C84 C85 1_555 1_555
C86 C87 1_555 1_555
C93 C94 1_555 1_555
C99 C100 1_555 1_555

#END
