
#######################################################################
#
#                 Cambridge Crystallographic Data Centre
#                                CCDC 
#
#######################################################################
#
# If this CIF has been generated from an entry in the Cambridge 
# Structural Database, then it will include bibliographic, chemical, 
# crystal, experimental, refinement or atomic coordinate data resulting 
# from the CCDC's data processing and validation procedures.
#
#######################################################################

data_ITELOK
_chemical_formula_moiety         'C9 H8 O3'
_chemical_name_systematic        4-phenyl-1,3-dioxolan-2-one
_symmetry_cell_setting           orthorhombic
_symmetry_space_group_name_H-M   'P 21 21 21'
_symmetry_Int_Tables_number      19
_space_group_name_Hall           'P 2ac 2ab'
loop_
_symmetry_equiv_pos_site_id
_symmetry_equiv_pos_as_xyz
1 x,y,z
2 1/2-x,-y,1/2+z
3 -x,1/2+y,1/2-z
4 1/2+x,1/2-y,-z
_cell_length_a                   6.1207(5)
_cell_length_b                   7.5850(6)
_cell_length_c                   16.9844(14)
_cell_angle_alpha                90
_cell_angle_beta                 90
_cell_angle_gamma                90
_cell_volume                     788.509
_exptl_crystal_colour            colorless
_exptl_crystal_description       block
_cell_formula_units_Z            4
loop_
_atom_site_label
_atom_site_type_symbol
_atom_site_fract_x
_atom_site_fract_y
_atom_site_fract_z
C1 C 0.1731(3) 0.6229(2) 0.81908(10)
C2 C 0.3663(3) 0.7139(2) 0.80671(10)
H1 H 0.4398 0.7668 0.8499
C3 C 0.1508(3) 0.5624(2) 0.68024(10)
H2 H 0.0768 0.5108 0.6368
C4 C 0.0644(3) 0.5474(2) 0.75557(10)
H3 H -0.0687 0.4856 0.7637
C5 C 0.4532(3) 0.7282(2) 0.73135(11)
H4 H 0.5865 0.7897 0.7231
C6 C 0.3447(4) 0.6525(2) 0.66838(11)
H5 H 0.4036 0.6623 0.6168
C7 C 0.0905(3) 0.6000(2) 0.90174(10)
H6 H 0.1713 0.6812 0.9379
C8 C 0.1024(3) 0.4126(2) 0.93328(10)
H7 H 0.1013 0.3255 0.8899
H8 H 0.2352 0.3949 0.9656
C9 C -0.2334(3) 0.5246(2) 0.95841(11)
O1 O -0.0932(2) 0.39903(17) 0.98069(7)
O2 O -0.4167(2) 0.5367(2) 0.98225(8)
O3 O -0.1435(2) 0.63585(16) 0.90660(7)
loop_
_geom_bond_atom_site_label_1
_geom_bond_atom_site_label_2
_geom_bond_site_symmetry_1
_geom_bond_site_symmetry_2
C1 C2 1_555 1_555
C2 H1 1_555 1_555
C3 H2 1_555 1_555
C4 C1 1_555 1_555
H3 C4 1_555 1_555
C5 C2 1_555 1_555
H4 C5 1_555 1_555
C6 C3 1_555 1_555
H5 C6 1_555 1_555
C7 C1 1_555 1_555
H6 C7 1_555 1_555
C8 C7 1_555 1_555
H7 C8 1_555 1_555
H8 C8 1_555 1_555
C9 O1 1_555 1_555
O1 C8 1_555 1_555
O2 C9 1_555 1_555
O3 C7 1_555 1_555
C3 C4 1_555 1_555
C5 C6 1_555 1_555
C9 O3 1_555 1_555

#END
