
#######################################################################
#
#                 Cambridge Crystallographic Data Centre
#                                CCDC 
#
#######################################################################
#
# If this CIF has been generated from an entry in the Cambridge 
# Structural Database, then it will include bibliographic, chemical, 
# crystal, experimental, refinement or atomic coordinate data resulting 
# from the CCDC's data processing and validation procedures.
#
#######################################################################

data_ITELUQ
_chemical_formula_moiety         'C9 H8 O3'
_chemical_name_systematic        4-phenyl-1,3-dioxolan-2-one
_symmetry_cell_setting           orthorhombic
_symmetry_space_group_name_H-M   'P 21 21 21'
_symmetry_Int_Tables_number      19
_space_group_name_Hall           'P 2ac 2ab'
loop_
_symmetry_equiv_pos_site_id
_symmetry_equiv_pos_as_xyz
1 x,y,z
2 1/2-x,-y,1/2+z
3 -x,1/2+y,1/2-z
4 1/2+x,1/2-y,-z
_cell_length_a                   6.1196(4)
_cell_length_b                   7.5799(5)
_cell_length_c                   16.9823(12)
_cell_angle_alpha                90
_cell_angle_beta                 90
_cell_angle_gamma                90
_cell_volume                     787.74
_exptl_crystal_colour            colorless
_exptl_crystal_description       block
_cell_formula_units_Z            4
loop_
_atom_site_label
_atom_site_type_symbol
_atom_site_fract_x
_atom_site_fract_y
_atom_site_fract_z
C1 C 0.7336(3) 0.4751(3) 0.54168(10)
C2 C 0.3976(3) 0.5873(2) 0.56666(10)
H1 H 0.2648 0.6050 0.5343
H2 H 0.3987 0.6745 0.6101
C3 C 0.4096(3) 0.3999(2) 0.59821(10)
H3 H 0.3290 0.3186 0.5621
C4 C 0.3269(3) 0.3768(2) 0.68095(9)
C5 C 0.4354(3) 0.4526(2) 0.74444(10)
H4 H 0.5684 0.5145 0.7363
C6 C 0.3493(3) 0.4376(2) 0.81973(10)
H5 H 0.4236 0.4892 0.8631
C7 C 0.1555(4) 0.3478(2) 0.83166(11)
H6 H 0.0966 0.3382 0.8832
C8 C 0.0470(3) 0.2717(3) 0.76859(11)
H7 H -0.0860 0.2098 0.7769
C9 C 0.1333(3) 0.2863(2) 0.69332(10)
H8 H 0.0592 0.2340 0.6501
O1 O 0.6435(2) 0.36433(16) 0.59337(7)
O2 O 0.5931(2) 0.60094(18) 0.51929(7)
O3 O 0.9170(2) 0.4632(2) 0.51787(8)
loop_
_geom_bond_atom_site_label_1
_geom_bond_atom_site_label_2
_geom_bond_site_symmetry_1
_geom_bond_site_symmetry_2
C1 O1 1_555 1_555
C2 H1 1_555 1_555
H2 C2 1_555 1_555
C3 C2 1_555 1_555
H3 C3 1_555 1_555
C4 C3 1_555 1_555
C5 C4 1_555 1_555
H4 C5 1_555 1_555
C6 C5 1_555 1_555
H5 C6 1_555 1_555
C7 C6 1_555 1_555
H6 C7 1_555 1_555
C8 C7 1_555 1_555
H7 C8 1_555 1_555
C9 C4 1_555 1_555
H8 C9 1_555 1_555
O1 C3 1_555 1_555
O2 C1 1_555 1_555
O3 C1 1_555 1_555
C2 O2 1_555 1_555
C8 C9 1_555 1_555

#END
