
#######################################################################
#
#                 Cambridge Crystallographic Data Centre
#                                CCDC 
#
#######################################################################
#
# If this CIF has been generated from an entry in the Cambridge 
# Structural Database, then it will include bibliographic, chemical, 
# crystal, experimental, refinement or atomic coordinate data resulting 
# from the CCDC's data processing and validation procedures.
#
#######################################################################

data_ITELOI
_chemical_formula_moiety         'C17 H13 N1 O1'
_chemical_name_systematic        N-(4-Hydroxyphenylmethylene)-1-naphthylamine
_symmetry_cell_setting           monoclinic
_symmetry_space_group_name_H-M   'P 21/c'
_symmetry_Int_Tables_number      14
_space_group_name_Hall           '-P 2ybc'
loop_
_symmetry_equiv_pos_site_id
_symmetry_equiv_pos_as_xyz
1 x,y,z
2 -x,1/2+y,1/2-z
3 -x,-y,-z
4 x,1/2-y,1/2+z
_cell_length_a                   10.049(2)
_cell_length_b                   10.473(2)
_cell_length_c                   12.002(2)
_cell_angle_alpha                90
_cell_angle_beta                 92.60(3)
_cell_angle_gamma                90
_cell_volume                     1261.83
_chemical_melting_point          '182.8-183.3 deg.C'
_cell_formula_units_Z            4
loop_
_atom_site_label
_atom_site_type_symbol
_atom_site_fract_x
_atom_site_fract_y
_atom_site_fract_z
O1 O 0.1933(2) 0.0360(1) 0.8617(1)
N1 N -0.2418(2) 0.4893(2) 0.8606(1)
C1 C -0.3462(2) 0.5689(2) 0.8982(2)
C2 C -0.3309(2) 0.6417(2) 0.9926(2)
C3 C -0.4323(2) 0.7253(2) 1.0234(2)
C4 C -0.5462(2) 0.7366(2) 0.9591(2)
C5 C -0.5671(2) 0.6624(2) 0.8615(2)
C6 C -0.6858(2) 0.6704(2) 0.7936(2)
C7 C -0.7081(2) 0.5931(2) 0.7045(2)
C8 C -0.6116(2) 0.4964(2) 0.6767(2)
C9 C -0.4938(2) 0.4952(2) 0.7379(2)
C10 C -0.4673(2) 0.5750(2) 0.8310(2)
C11 C -0.1763(2) 0.4230(2) 0.9334(2)
C12 C -0.0684(2) 0.3342(2) 0.9116(2)
C13 C -0.0093(2) 0.3215(2) 0.8095(2)
C14 C 0.0801(2) 0.2247(2) 0.7916(2)
C15 C 0.1118(2) 0.1367(2) 0.8756(2)
C16 C 0.0592(2) 0.1526(2) 0.9796(2)
C17 C -0.0297(2) 0.2495(2) 0.9962(2)
loop_
_geom_bond_atom_site_label_1
_geom_bond_atom_site_label_2
_geom_bond_site_symmetry_1
_geom_bond_site_symmetry_2
O1 C15 1_555 1_555
N1 C1 1_555 1_555
C1 C2 1_555 1_555
C2 C3 1_555 1_555
C3 C4 1_555 1_555
C4 C5 1_555 1_555
C5 C6 1_555 1_555
C6 C7 1_555 1_555
C7 C8 1_555 1_555
C8 C9 1_555 1_555
C9 C10 1_555 1_555
C10 C1 1_555 1_555
C11 N1 1_555 1_555
C12 C11 1_555 1_555
C13 C12 1_555 1_555
C14 C13 1_555 1_555
C15 C14 1_555 1_555
C16 C15 1_555 1_555
C17 C12 1_555 1_555
C5 C10 1_555 1_555
C16 C17 1_555 1_555

#END
