
#######################################################################
#
#                 Cambridge Crystallographic Data Centre
#                                CCDC 
#
#######################################################################
#
# If this CIF has been generated from an entry in the Cambridge 
# Structural Database, then it will include bibliographic, chemical, 
# crystal, experimental, refinement or atomic coordinate data resulting 
# from the CCDC's data processing and validation procedures.
#
#######################################################################

data_ITEZIQ
_chemical_formula_moiety         'C46 H36 N4 O2 S4'
_chemical_name_systematic        
4,4'-bis(2-(4-(5-(4-t-Butylphenyl)-1,3,4-oxadiazol-2-yl)phenyl)ethynyl)tetrathiafulvalene
_symmetry_cell_setting           triclinic
_symmetry_space_group_name_H-M   'P -1'
_symmetry_Int_Tables_number      2
_space_group_name_Hall           '-P 1'
loop_
_symmetry_equiv_pos_site_id
_symmetry_equiv_pos_as_xyz
1 x,y,z
2 -x,-y,-z
_cell_length_a                   6.2187(7)
_cell_length_b                   13.8638(17)
_cell_length_c                   23.908(3)
_cell_angle_alpha                105.133(6)
_cell_angle_beta                 96.855(6)
_cell_angle_gamma                96.700(6)
_cell_volume                     1951.88
_exptl_crystal_colour            'dark red'
_exptl_crystal_description       plate
_chemical_melting_point          'above 310deg.C(dec.)'
_cell_formula_units_Z            2
loop_
_atom_site_label
_atom_site_type_symbol
_atom_site_fract_x
_atom_site_fract_y
_atom_site_fract_z
S1 S 0.47014(16) 0.32313(7) 0.52460(4)
S2 S 0.90784(16) 0.26005(7) 0.53736(5)
S3 S 0.27349(15) 0.10025(7) 0.43578(4)
S4 S 0.71087(15) 0.03876(7) 0.45262(4)
O1 O 0.4450(4) 1.04294(16) 0.74011(10)
O2 O 0.6515(4) -0.68896(16) 0.22154(10)
N1 N 0.0922(4) 0.9813(2) 0.70739(13)
N2 N 0.1104(5) 1.0838(2) 0.74033(13)
N3 N 1.0084(5) -0.6395(2) 0.24380(16)
N4 N 0.9683(5) -0.7429(2) 0.21223(16)
C1 C 0.6291(5) 0.2260(3) 0.50559(15)
C2 C 0.6986(6) 0.4181(3) 0.55843(16)
C3 C 0.8949(6) 0.3884(3) 0.56417(17)
H1 H 1.0241 0.4352 0.5822
C4 C 0.5481(5) 0.1351(2) 0.46976(15)
C5 C 0.5014(5) -0.0478(2) 0.40169(15)
C6 C 0.3082(6) -0.0182(3) 0.39451(15)
H2 H 0.1899 -0.0613 0.3673
C7 C 0.6489(6) 0.5162(3) 0.58214(17)
C8 C 0.5825(6) 0.5934(3) 0.60371(17)
C9 C 0.5072(6) 0.6857(3) 0.63079(17)
C10 C 0.6490(6) 0.7617(3) 0.67370(17)
H3 H 0.7939 0.7515 0.6856
C11 C 0.5776(5) 0.8517(3) 0.69882(16)
H4 H 0.6755 0.9036 0.7277
C12 C 0.3669(5) 0.8669(2) 0.68248(15)
C13 C 0.2218(6) 0.7899(2) 0.64020(15)
H5 H 0.0757 0.7994 0.6290
C14 C 0.2913(6) 0.7005(3) 0.61469(16)
H6 H 0.1923 0.6485 0.5862
C15 C 0.2909(6) 0.9616(3) 0.70818(16)
C16 C 0.3179(6) 1.1157(2) 0.75814(15)
C17 C 0.4248(6) 1.2165(2) 0.79293(15)
C18 C 0.6410(6) 1.2500(2) 0.79300(15)
H7 H 0.7275 1.2062 0.7714
C19 C 0.7333(6) 1.3483(3) 0.82476(16)
H8 H 0.8835 1.3706 0.8245
C20 C 0.6137(6) 1.4147(2) 0.85683(15)
C21 C 0.3965(6) 1.3782(3) 0.85685(16)
H9 H 0.3093 1.4213 0.8786
C22 C 0.3019(6) 1.2809(3) 0.82493(17)
H10 H 0.1520 1.2583 0.8253
C23 C 0.7157(5) 1.5226(2) 0.89479(16)
C24 C 0.6175(10) 1.5998(4) 0.8730(3)
H11 H 0.6861 1.6670 0.8978
H12 H 0.4599 1.5910 0.8746
H13 H 0.6410 1.5932 0.8325
C25 C 0.9684(8) 1.5458(4) 0.9002(3)
H14 H 1.0357 1.4942 0.9142
H15 H 1.0216 1.6124 0.9280
H16 H 1.0076 1.5456 0.8617
C26 C 0.6765(10) 1.5325(4) 0.9598(2)
H17 H 0.7431 1.4811 0.9742
H18 H 0.5186 1.5229 0.9610
H19 H 0.7434 1.5999 0.9847
C30 C 0.5605(6) -0.1432(3) 0.37274(16)
C31 C 0.6237(5) -0.2201(3) 0.35135(15)
C32 C 0.6775(6) -0.3179(2) 0.32474(15)
C33 C 0.8799(5) -0.3311(2) 0.30695(15)
H29 H 0.9885 -0.2739 0.3122
C34 C 0.9238(5) -0.4265(2) 0.28156(15)
H30 H 1.0626 -0.4346 0.2697
C35 C 0.7657(6) -0.5114(2) 0.27379(15)
C36 C 0.5645(6) -0.4995(3) 0.29021(15)
H31 H 0.4553 -0.5568 0.2839
C37 C 0.5215(5) -0.4035(3) 0.31624(15)
H32 H 0.3834 -0.3956 0.3287
C38 C 0.8194(6) -0.6111(3) 0.24750(16)
C39 C 0.7593(6) -0.7678(3) 0.20040(16)
C40 C 0.6319(6) -0.8648(3) 0.16527(15)
C41 C 0.7369(6) -0.9487(3) 0.15153(16)
H33 H 0.8857 -0.9448 0.1679
C42 C 0.6230(7) -1.0385(3) 0.11331(16)
H34 H 0.6962 -1.0958 0.1045
C43 C 0.4075(7) -1.0469(3) 0.08805(17)
C44 C 0.3033(6) -0.9630(3) 0.10492(16)
H35 H 0.1526 -0.9677 0.0900
C45 C 0.4141(6) -0.8724(3) 0.14320(16)
H36 H 0.3403 -0.8156 0.1537
C46 C 0.2847(6) -1.1447(3) 0.04205(17)
C47 C 0.1130(10) -1.1916(4) 0.0685(2)
H37 H 0.1793 -1.2069 0.1039
H38 H 0.0361 -1.2542 0.0401
H39 H 0.0085 -1.1446 0.0789
C48 C 0.1943(11) -1.1215(3) -0.0108(2)
H40 H 0.3117 -1.0908 -0.0274
H41 H 0.0903 -1.0741 -0.0008
H42 H 0.1178 -1.1838 -0.0395
C49 C 0.4313(9) -1.2223(4) 0.0274(3)
H43 H 0.4915 -1.2376 0.0633
H44 H 0.5515 -1.1965 0.0096
H45 H 0.3471 -1.2839 -0.0003
C27? C 0.8475(15) 1.5113(6) 0.9455(4)
H20? H 0.9155 1.5783 0.9707
H21? H 0.9621 1.4710 0.9333
H22? H 0.7549 1.4773 0.9672
C28? C 0.5345(13) 1.5887(6) 0.9095(4)
H23? H 0.4514 1.5940 0.8732
H24? H 0.6028 1.6564 0.9338
H25? H 0.4353 1.5579 0.9311
C29? C 0.8460(14) 1.5704(6) 0.8549(4)
H26? H 0.7491 1.5751 0.8205
H27? H 0.9562 1.5279 0.8420
H28? H 0.9195 1.6382 0.8775
loop_
_geom_bond_atom_site_label_1
_geom_bond_atom_site_label_2
_geom_bond_site_symmetry_1
_geom_bond_site_symmetry_2
S1 C1 1_555 1_555
S2 C1 1_555 1_555
S3 C4 1_555 1_555
S4 C4 1_555 1_555
O1 C15 1_555 1_555
O2 C38 1_555 1_555
N1 N2 1_555 1_555
N2 C16 1_555 1_555
N3 N4 1_555 1_555
N4 C39 1_555 1_555
C1 C4 1_555 1_555
C2 S1 1_555 1_555
C3 S2 1_555 1_555
H1 C3 1_555 1_555
C5 S4 1_555 1_555
C6 S3 1_555 1_555
H2 C6 1_555 1_555
C7 C2 1_555 1_555
C8 C7 1_555 1_555
C9 C8 1_555 1_555
C10 C9 1_555 1_555
H3 C10 1_555 1_555
C11 C10 1_555 1_555
H4 C11 1_555 1_555
C12 C11 1_555 1_555
C13 C12 1_555 1_555
H5 C13 1_555 1_555
C14 C9 1_555 1_555
H6 C14 1_555 1_555
C15 N1 1_555 1_555
C16 O1 1_555 1_555
C17 C16 1_555 1_555
C18 C17 1_555 1_555
H7 C18 1_555 1_555
C19 C18 1_555 1_555
H8 C19 1_555 1_555
C20 C19 1_555 1_555
C21 C20 1_555 1_555
H9 C21 1_555 1_555
C22 C17 1_555 1_555
H10 C22 1_555 1_555
C23 C20 1_555 1_555
C24 C23 1_555 1_555
H11 C24 1_555 1_555
H12 C24 1_555 1_555
H13 C24 1_555 1_555
C25 C23 1_555 1_555
H14 C25 1_555 1_555
H15 C25 1_555 1_555
H16 C25 1_555 1_555
C26 C23 1_555 1_555
H17 C26 1_555 1_555
H18 C26 1_555 1_555
H19 C26 1_555 1_555
C30 C5 1_555 1_555
C31 C30 1_555 1_555
C32 C31 1_555 1_555
C33 C32 1_555 1_555
H29 C33 1_555 1_555
C34 C33 1_555 1_555
H30 C34 1_555 1_555
C35 C34 1_555 1_555
C36 C35 1_555 1_555
H31 C36 1_555 1_555
C37 C32 1_555 1_555
H32 C37 1_555 1_555
C38 N3 1_555 1_555
C39 O2 1_555 1_555
C40 C39 1_555 1_555
C41 C40 1_555 1_555
H33 C41 1_555 1_555
C42 C41 1_555 1_555
H34 C42 1_555 1_555
C43 C42 1_555 1_555
C44 C43 1_555 1_555
H35 C44 1_555 1_555
C45 C40 1_555 1_555
H36 C45 1_555 1_555
C46 C43 1_555 1_555
C47 C46 1_555 1_555
H37 C47 1_555 1_555
H38 C47 1_555 1_555
H39 C47 1_555 1_555
C48 C46 1_555 1_555
H40 C48 1_555 1_555
H41 C48 1_555 1_555
H42 C48 1_555 1_555
C49 C46 1_555 1_555
H43 C49 1_555 1_555
H44 C49 1_555 1_555
H45 C49 1_555 1_555
C2 C3 1_555 1_555
C5 C6 1_555 1_555
C12 C15 1_555 1_555
C13 C14 1_555 1_555
C21 C22 1_555 1_555
C35 C38 1_555 1_555
C36 C37 1_555 1_555
C44 C45 1_555 1_555

#END
