
#######################################################################
#
#                 Cambridge Crystallographic Data Centre
#                                CCDC 
#
#######################################################################
#
# If this CIF has been generated from an entry in the Cambridge 
# Structural Database, then it will include bibliographic, chemical, 
# crystal, experimental, refinement or atomic coordinate data resulting 
# from the CCDC's data processing and validation procedures.
#
#######################################################################

data_ITIMUT
_chemical_formula_moiety         'C8 H12 N12'
_chemical_name_systematic        
1,7-bis(Azidomethyl)-3,4,5,9,10,11-hexaazatricyclo(7.3.0.0^3,7^)dodeca-4,10-diene
_symmetry_cell_setting           monoclinic
_symmetry_space_group_name_H-M   'P 21/c'
_symmetry_Int_Tables_number      14
_space_group_name_Hall           '-P 2ybc'
loop_
_symmetry_equiv_pos_site_id
_symmetry_equiv_pos_as_xyz
1 x,y,z
2 x,1/2-y,1/2+z
3 -x,-y,-z
4 -x,1/2+y,1/2-z
_cell_length_a                   8.8584(2)
_cell_length_b                   6.5385(2)
_cell_length_c                   11.3786(3)
_cell_angle_alpha                90
_cell_angle_beta                 109.648(2)
_cell_angle_gamma                90
_cell_volume                     620.683
_exptl_crystal_colour            colorless
_exptl_crystal_description       'very thin plate'
_cell_formula_units_Z            2
loop_
_atom_site_label
_atom_site_type_symbol
_atom_site_fract_x
_atom_site_fract_y
_atom_site_fract_z
N1 N 0.62949(15) 0.56987(18) 0.46733(12)
C1 C 0.64103(17) 0.5963(2) 0.59816(13)
N2 N 0.62044(17) 0.7599(2) 0.41278(14)
N3 N 0.91187(19) 0.4372(3) 0.67802(17)
C2 C 0.52836(19) 0.4098(2) 0.39229(14)
H1 H 0.5798 0.2786 0.4185
H2 H 0.5191 0.4301 0.3057
C3 C 0.7487(2) 0.4347(3) 0.68236(16)
H3 H 0.7529 0.4577 0.7676
H4 H 0.7022 0.3007 0.6571
N4 N 0.66500(18) 0.8996(2) 0.49171(16)
C4 C 0.7099(2) 0.8129(2) 0.61816(16)
H5 H 0.6638 0.8920 0.6698
H6 H 0.8255 0.8099 0.6576
N5 N 0.9315(2) 0.3363(3) 0.5939(2)
N6 N 0.9677(3) 0.2498(4) 0.5207(3)
C2B C 0.47164(19) 0.5902(2) 0.60771(14)
N1B N 0.37051(15) 0.43013(18) 0.53267(12)
C1B C 0.35897(17) 0.4037(2) 0.40184(13)
C3B C 0.2513(2) 0.5653(3) 0.31764(16)
N3B N 0.08813(19) 0.5628(3) 0.32198(17)
N5B N 0.0685(2) 0.6637(3) 0.4061(2)
N6B N 0.0323(3) 0.7502(4) 0.4793(3)
H3B H 0.2471 0.5423 0.2324
H4B H 0.2978 0.6993 0.3429
C4B C 0.2901(2) 0.1871(2) 0.38184(16)
N4B N 0.33500(18) 0.1004(2) 0.50829(16)
N2B N 0.37956(17) 0.2401(2) 0.58722(14)
H5B H 0.3362 0.1080 0.3302
H6B H 0.1745 0.1901 0.3424
H1B H 0.4202 0.7214 0.5815
H2B H 0.4809 0.5699 0.6943
loop_
_geom_bond_atom_site_label_1
_geom_bond_atom_site_label_2
_geom_bond_site_symmetry_1
_geom_bond_site_symmetry_2
N1 C1 1_555 1_555
C1 C3 1_555 1_555
N2 N1 1_555 1_555
N3 C3 1_555 1_555
C2 N1 1_555 1_555
H1 C2 1_555 1_555
H2 C2 1_555 1_555
C3 H3 1_555 1_555
H4 C3 1_555 1_555
N4 N2 1_555 1_555
C4 C1 1_555 1_555
H5 C4 1_555 1_555
H6 C4 1_555 1_555
N5 N3 1_555 1_555
N6 N5 1_555 1_555
C2B C1 1_555 1_555
N1B C2B 1_555 1_555
C1B C2 1_555 1_555
C3B C1B 1_555 1_555
N3B C3B 1_555 1_555
N5B N3B 1_555 1_555
N6B N5B 1_555 1_555
H3B C3B 1_555 1_555
H4B C3B 1_555 1_555
C4B C1B 1_555 1_555
N4B C4B 1_555 1_555
N2B N1B 1_555 1_555
H5B C4B 1_555 1_555
H6B C4B 1_555 1_555
H1B C2B 1_555 1_555
H2B C2B 1_555 1_555
N4 C4 1_555 1_555
N1B C1B 1_555 1_555
N4B N2B 1_555 1_555

#END
