
#######################################################################
#
#                 Cambridge Crystallographic Data Centre
#                                CCDC 
#
#######################################################################
#
# If this CIF has been generated from an entry in the Cambridge 
# Structural Database, then it will include bibliographic, chemical, 
# crystal, experimental, refinement or atomic coordinate data resulting 
# from the CCDC's data processing and validation procedures.
#
#######################################################################

data_ITINIJ
_chemical_formula_moiety         'C22 H20 Br1 N1 O2'
_chemical_name_systematic        
7-Bromo-11-methyl-13-phenyl-1,3,4,13b-tetrahydro-10H-furo[3,4-c][1,4]oxazino[4,3-a][1]benzazepine
_symmetry_cell_setting           orthorhombic
_symmetry_space_group_name_H-M   'P 21 21 21'
_symmetry_Int_Tables_number      19
_space_group_name_Hall           'P 2ac 2ab'
loop_
_symmetry_equiv_pos_site_id
_symmetry_equiv_pos_as_xyz
1 x,y,z
2 1/2-x,-y,1/2+z
3 -x,1/2+y,1/2-z
4 1/2+x,1/2-y,-z
_cell_length_a                   5.33790(10)
_cell_length_b                   8.7333(2)
_cell_length_c                   39.2687(8)
_cell_angle_alpha                90
_cell_angle_beta                 90
_cell_angle_gamma                90
_cell_volume                     1830.61
_exptl_crystal_colour            colorless
_exptl_crystal_description       block
_cell_formula_units_Z            4
loop_
_atom_site_label
_atom_site_type_symbol
_atom_site_fract_x
_atom_site_fract_y
_atom_site_fract_z
Br1 Br 0.95752(6) 0.52356(4) 0.765029(7)
O1 O 0.4067(3) 0.64656(18) 0.56569(4)
O2 O 0.5752(4) 0.0405(2) 0.61157(4)
N1 N 0.5049(4) 0.2952(2) 0.65632(5)
C1 C 0.7412(4) 0.4888(3) 0.54631(5)
C2 C 0.7366(5) 0.5690(3) 0.51567(6)
H1 H 0.6114 0.6409 0.5118
C3 C 0.9171(5) 0.5426(3) 0.49090(6)
H2 H 0.9119 0.5975 0.4706
C4 C 1.1022(5) 0.4369(3) 0.49595(6)
H3 H 1.2235 0.4206 0.4794
C5 C 1.1069(5) 0.3555(3) 0.52569(7)
H4 H 1.2317 0.2828 0.5292
C6 C 0.9283(5) 0.3800(3) 0.55060(6)
H5 H 0.9335 0.3227 0.5705
C7 C 0.5344(5) 0.4194(3) 0.67954(6)
C8 C 0.7123(5) 0.4159(3) 0.70560(6)
H6 H 0.8222 0.3338 0.7076
C9 C 0.7228(5) 0.5363(3) 0.72845(6)
C10 C 0.5700(6) 0.6604(3) 0.72618(6)
H7 H 0.5842 0.7415 0.7414
C11 C 0.3914(5) 0.6622(3) 0.70026(7)
H8 H 0.2852 0.7461 0.6983
C12 C 0.3681(5) 0.5425(3) 0.67752(6)
C13 C 0.1694(4) 0.5429(4) 0.65046(6)
H9 H 0.0736 0.4487 0.6517
H10 H 0.0557 0.6279 0.6542
C14 C 0.2867(4) 0.5572(3) 0.61599(6)
C15 C 0.4892(4) 0.4644(3) 0.60391(5)
C16 C 0.5823(4) 0.3188(3) 0.62021(5)
H11 H 0.7657 0.3178 0.6191
C17 C 0.4833(5) 0.1834(3) 0.59994(6)
H12 H 0.3019 0.1827 0.6012
H13 H 0.5295 0.1963 0.5762
C18 C 0.5071(6) 0.0202(3) 0.64618(7)
H14 H 0.5736 -0.0764 0.6543
H15 H 0.3260 0.0162 0.6480
C19 C 0.6054(6) 0.1483(3) 0.66799(6)
H16 H 0.5572 0.1312 0.6915
H17 H 0.7868 0.1503 0.6668
C20 C 0.2437(5) 0.6653(3) 0.59239(6)
C21 C 0.5553(4) 0.5226(3) 0.57280(5)
C22 C 0.0636(5) 0.7945(3) 0.58940(7)
H18 H -0.0406 0.7978 0.6093
H19 H -0.0390 0.7801 0.5696
H20 H 0.1542 0.8890 0.5874
loop_
_geom_bond_atom_site_label_1
_geom_bond_atom_site_label_2
_geom_bond_site_symmetry_1
_geom_bond_site_symmetry_2
Br1 C9 1_555 1_555
O1 C20 1_555 1_555
O2 C17 1_555 1_555
N1 C7 1_555 1_555
C1 C2 1_555 1_555
C2 H1 1_555 1_555
C3 C2 1_555 1_555
H2 C3 1_555 1_555
C4 C3 1_555 1_555
H3 C4 1_555 1_555
C5 C4 1_555 1_555
H4 C5 1_555 1_555
C6 C1 1_555 1_555
H5 C6 1_555 1_555
C7 C8 1_555 1_555
C8 H6 1_555 1_555
C9 C8 1_555 1_555
C10 C9 1_555 1_555
H7 C10 1_555 1_555
C11 C10 1_555 1_555
H8 C11 1_555 1_555
C12 C7 1_555 1_555
C13 C12 1_555 1_555
H9 C13 1_555 1_555
H10 C13 1_555 1_555
C14 C13 1_555 1_555
C15 C14 1_555 1_555
C16 N1 1_555 1_555
H11 C16 1_555 1_555
C17 C16 1_555 1_555
H12 C17 1_555 1_555
H13 C17 1_555 1_555
C18 O2 1_555 1_555
H14 C18 1_555 1_555
H15 C18 1_555 1_555
C19 N1 1_555 1_555
H16 C19 1_555 1_555
H17 C19 1_555 1_555
C20 C14 1_555 1_555
C21 O1 1_555 1_555
C22 C20 1_555 1_555
H18 C22 1_555 1_555
H19 C22 1_555 1_555
H20 C22 1_555 1_555
C1 C21 1_555 1_555
C5 C6 1_555 1_555
C11 C12 1_555 1_555
C15 C16 1_555 1_555
C15 C21 1_555 1_555
C18 C19 1_555 1_555

#END
