
#######################################################################
#
#                 Cambridge Crystallographic Data Centre
#                                CCDC 
#
#######################################################################
#
# If this CIF has been generated from an entry in the Cambridge 
# Structural Database, then it will include bibliographic, chemical, 
# crystal, experimental, refinement or atomic coordinate data resulting 
# from the CCDC's data processing and validation procedures.
#
#######################################################################

data_ITINUU
_chemical_formula_moiety         'C22 H25 N9 O13,C4 H8 O2'
_chemical_name_systematic        
'tris(4,5-bis(Methoxycarbonyl)-1,2,3-triazol-1-ylmethyl)methanol ethyl acetate solvate'
_symmetry_cell_setting           triclinic
_symmetry_space_group_name_H-M   'P -1'
_symmetry_Int_Tables_number      2
_space_group_name_Hall           '-P 1'
loop_
_symmetry_equiv_pos_site_id
_symmetry_equiv_pos_as_xyz
1 x,y,z
2 -x,-y,-z
_cell_length_a                   11.7259(9)
_cell_length_b                   11.9264(10)
_cell_length_c                   13.1746(10)
_cell_angle_alpha                73.4140(10)
_cell_angle_beta                 71.576(2)
_cell_angle_gamma                88.574(2)
_cell_volume                     1670.94
_exptl_crystal_colour            colorless
_exptl_crystal_description       prism
_cell_formula_units_Z            2
loop_
_atom_site_label
_atom_site_type_symbol
_atom_site_fract_x
_atom_site_fract_y
_atom_site_fract_z
C1 C 0.68976(12) 0.35385(13) 0.04376(12)
O1 O 0.69812(9) 0.24705(9) 0.12278(9)
H1 H 0.7710(16) 0.2403(16) 0.1268(15)
C2 C 0.80509(12) 0.39226(14) -0.05784(13)
H2 H 0.7865 0.4536 -0.1179
H3 H 0.8660 0.4274 -0.0361
N1 N 0.85664(10) 0.29573(12) -0.10177(10)
N2 N 0.82372(11) 0.27425(13) -0.18394(11)
N3 N 0.88939(12) 0.19249(13) -0.21661(12)
C3 C 0.96681(13) 0.16175(14) -0.15636(13)
C4 C 1.05393(13) 0.07082(15) -0.17635(13)
O2 O 1.10231(9) 0.01688(10) -0.11147(9)
O3 O 1.07165(12) 0.05933(12) -0.27762(10)
C5 C 1.1607(2) -0.02176(19) -0.31075(16)
H4 H 1.1860 -0.0063 -0.3921
H5 H 1.1253 -0.1025 -0.2742
H6 H 1.2308 -0.0110 -0.2883
C6 C 0.94681(12) 0.22726(13) -0.08173(12)
C7 C 0.99817(12) 0.23326(13) 0.00621(13)
O4 O 0.94023(8) 0.26016(10) 0.08956(9)
O5 O 1.11210(8) 0.20817(10) -0.01715(9)
C8 C 1.16831(13) 0.21368(15) 0.06559(14)
H7 H 1.2561 0.2228 0.0309
H8 H 1.1458 0.1412 0.1279
H9 H 1.1408 0.2807 0.0936
C9 C 0.58426(12) 0.33307(14) 0.00347(12)
H10 H 0.5693 0.4079 -0.0456
H11 H 0.6063 0.2769 -0.0410
N4 N 0.47394(10) 0.28692(11) 0.09769(11)
N5 N 0.39170(10) 0.36336(12) 0.12838(11)
N6 N 0.30442(11) 0.30398(12) 0.21754(11)
C10 C 0.33084(13) 0.18915(15) 0.24468(13)
C11 C 0.24358(14) 0.10082(16) 0.33919(14)
O6 O 0.17775(16) 0.12146(14) 0.42114(13)
O7 O 0.24548(11) -0.00214(11) 0.32017(10)
C12 C 0.16236(18) -0.09614(19) 0.40738(15)
H12 H 0.1742 -0.1691 0.3863
H13 H 0.0792 -0.0751 0.4159
H14 H 0.1779 -0.1072 0.4783
C13 C 0.43969(12) 0.17730(14) 0.16894(13)
C14 C 0.51375(13) 0.07367(15) 0.16323(14)
O8 O 0.52564(10) 0.00311(11) 0.24453(10)
O9 O 0.56224(9) 0.07288(10) 0.05763(9)
C15 C 0.64696(14) -0.01628(16) 0.03894(16)
H15 H 0.6798 -0.0075 -0.0414
H16 H 0.6053 -0.0943 0.0781
H17 H 0.7128 -0.0071 0.0675
C16 C 0.66188(12) 0.45288(14) 0.09991(13)
H18 H 0.6656 0.5285 0.0424
H19 H 0.5792 0.4378 0.1542
N7 N 0.74814(10) 0.46066(11) 0.15798(10)
N8 N 0.85202(10) 0.52845(12) 0.10047(11)
N9 N 0.91749(11) 0.51352(12) 0.16683(11)
C17 C 0.85693(12) 0.43489(14) 0.26674(13)
C18 C 0.90491(13) 0.40452(14) 0.36286(14)
O10 O 0.84252(10) 0.37010(12) 0.45888(10)
O11 O 1.02439(9) 0.42327(12) 0.32659(10)
C19 C 1.08324(15) 0.3984(2) 0.41202(16)
H20 H 1.1659 0.3783 0.3806
H21 H 1.0386 0.3324 0.4755
H22 H 1.0848 0.4678 0.4375
C20 C 0.74713(12) 0.39964(14) 0.26271(13)
C21 C 0.64120(13) 0.32058(15) 0.34285(13)
O12 O 0.53835(9) 0.34231(11) 0.34947(10)
O13 O 0.67443(9) 0.22415(10) 0.40396(10)
C22 C 0.57516(15) 0.14414(18) 0.48657(17)
H23 H 0.6071 0.0746 0.5260
H24 H 0.5240 0.1205 0.4490
H25 H 0.5274 0.1834 0.5404
O14 O 0.56695(10) -0.34102(12) 0.34231(10)
O15 O 0.56877(10) -0.31675(11) 0.16603(10)
C23 C 0.69020(14) -0.28867(18) 0.29998(15)
H26 H 0.6916 -0.2026 0.2685
H27 H 0.7406 -0.3211 0.2406
C24 C 0.51686(14) -0.34938(16) 0.26604(15)
C25 C 0.73676(17) -0.31858(19) 0.39863(16)
H28 H 0.8191 -0.2833 0.3747
H29 H 0.7367 -0.4040 0.4276
H30 H 0.6847 -0.2878 0.4575
C26 C 0.39072(15) -0.40527(19) 0.32041(16)
H31 H 0.3418 -0.3714 0.2727
H32 H 0.3559 -0.3910 0.3933
H33 H 0.3922 -0.4899 0.3308
loop_
_geom_bond_atom_site_label_1
_geom_bond_atom_site_label_2
_geom_bond_site_symmetry_1
_geom_bond_site_symmetry_2
C1 O1 1_555 1_555
O1 H1 1_555 1_555
C2 C1 1_555 1_555
H2 C2 1_555 1_555
H3 C2 1_555 1_555
N1 C2 1_555 1_555
N2 N1 1_555 1_555
N3 N2 1_555 1_555
C3 N3 1_555 1_555
C4 C3 1_555 1_555
O2 C4 1_555 1_555
O3 C4 1_555 1_555
C5 O3 1_555 1_555
H4 C5 1_555 1_555
H5 C5 1_555 1_555
H6 C5 1_555 1_555
C6 N1 1_555 1_555
C7 C6 1_555 1_555
O4 C7 1_555 1_555
O5 C7 1_555 1_555
C8 O5 1_555 1_555
H7 C8 1_555 1_555
H8 C8 1_555 1_555
H9 C8 1_555 1_555
C9 C1 1_555 1_555
H10 C9 1_555 1_555
H11 C9 1_555 1_555
N4 C9 1_555 1_555
N5 N4 1_555 1_555
N6 N5 1_555 1_555
C10 N6 1_555 1_555
C11 C10 1_555 1_555
O6 C11 1_555 1_555
O7 C11 1_555 1_555
C12 O7 1_555 1_555
H12 C12 1_555 1_555
H13 C12 1_555 1_555
H14 C12 1_555 1_555
C13 N4 1_555 1_555
C14 C13 1_555 1_555
O8 C14 1_555 1_555
O9 C14 1_555 1_555
C15 O9 1_555 1_555
H15 C15 1_555 1_555
H16 C15 1_555 1_555
H17 C15 1_555 1_555
C16 C1 1_555 1_555
H18 C16 1_555 1_555
H19 C16 1_555 1_555
N7 C16 1_555 1_555
N8 N7 1_555 1_555
N9 N8 1_555 1_555
C17 N9 1_555 1_555
C18 C17 1_555 1_555
O10 C18 1_555 1_555
O11 C18 1_555 1_555
C19 O11 1_555 1_555
H20 C19 1_555 1_555
H21 C19 1_555 1_555
H22 C19 1_555 1_555
C20 N7 1_555 1_555
C21 C20 1_555 1_555
O12 C21 1_555 1_555
O13 C21 1_555 1_555
C22 O13 1_555 1_555
H23 C22 1_555 1_555
H24 C22 1_555 1_555
H25 C22 1_555 1_555
O14 C23 1_555 1_555
O15 C24 1_555 1_555
C23 H26 1_555 1_555
H27 C23 1_555 1_555
C24 O14 1_555 1_555
C25 C23 1_555 1_555
H28 C25 1_555 1_555
H29 C25 1_555 1_555
H30 C25 1_555 1_555
C26 C24 1_555 1_555
H31 C26 1_555 1_555
H32 C26 1_555 1_555
H33 C26 1_555 1_555
C3 C6 1_555 1_555
C10 C13 1_555 1_555
C17 C20 1_555 1_555

#END
