
#######################################################################
#
#                 Cambridge Crystallographic Data Centre
#                                CCDC 
#
#######################################################################
#
# If this CIF has been generated from an entry in the Cambridge 
# Structural Database, then it will include bibliographic, chemical, 
# crystal, experimental, refinement or atomic coordinate data resulting 
# from the CCDC's data processing and validation procedures.
#
#######################################################################

data_ITINII
_chemical_name_common            
'Di(2-Azido-1,1-bis(azidomethyl)ethyl) cubane-1,4-dicarboxylate'
_chemical_formula_moiety         'C18 H18 N18 O4'
_chemical_name_systematic        
1,4-bis(Tri(azidomethyl)methoxycarbonyl)cubane
_symmetry_cell_setting           monoclinic
_symmetry_space_group_name_H-M   'P 21/c'
_symmetry_Int_Tables_number      14
_space_group_name_Hall           '-P 2ybc'
loop_
_symmetry_equiv_pos_site_id
_symmetry_equiv_pos_as_xyz
1 x,y,z
2 x,1/2-y,1/2+z
3 -x,-y,-z
4 -x,1/2+y,1/2-z
_cell_length_a                   9.0946(5)
_cell_length_b                   7.0936(4)
_cell_length_c                   19.4242(9)
_cell_angle_alpha                90
_cell_angle_beta                 101.6820(10)
_cell_angle_gamma                90
_cell_volume                     1227.17
_exptl_crystal_colour            colorless
_exptl_crystal_description       chunk
_cell_formula_units_Z            2
loop_
_atom_site_label
_atom_site_type_symbol
_atom_site_fract_x
_atom_site_fract_y
_atom_site_fract_z
O1 O 0.23016(11) 0.04499(15) 0.37273(5)
O2 O -0.00829(13) 0.09059(19) 0.31428(6)
C1 C 0.07991(17) 0.0552(2) 0.36764(8)
C2 C -0.11044(18) -0.0629(2) 0.44782(8)
H1 H -0.1909 -0.1087 0.4101
N1 N 0.29686(18) -0.0410(2) 0.14562(8)
C3 C 0.04072(16) 0.0222(2) 0.43708(7)
C4 C 0.30006(17) 0.0807(2) 0.31287(8)
C5 C 0.02444(19) 0.1842(2) 0.49061(8)
H2 H 0.0421 0.3184 0.4835
C6 C 0.46712(18) 0.0585(2) 0.34441(9)
H3 H 0.5249 0.1005 0.3104
H4 H 0.4932 0.1384 0.3856
C7 C 0.2675(2) 0.2795(2) 0.28334(9)
H5 H 0.3244 0.3013 0.2469
H6 H 0.1617 0.2899 0.2621
C8 C 0.12709(18) -0.0975(2) 0.49969(8)
H7 H 0.2193 -0.1689 0.4996
N2 N 0.50072(18) -0.1823(2) 0.42472(9)
N3 N 0.50804(17) -0.1385(2) 0.36452(8)
C9 C 0.2464(2) -0.0670(2) 0.25594(8)
H8 H 0.2430 -0.1902 0.2773
H9 H 0.1461 -0.0359 0.2306
N4 N 0.35061(19) -0.0703(3) 0.20745(8)
N5 N 0.3068(2) 0.4243(2) 0.33818(11)
N6 N 0.2651(3) -0.0182(3) 0.08732(9)
N7 N 0.1996(2) 0.4963(2) 0.35741(9)
N8 N 0.5015(3) -0.2420(3) 0.47804(12)
N9 N 0.1105(3) 0.5764(3) 0.37858(13)
C5B C -0.02444(19) -0.1842(2) 0.50939(8)
C3B C -0.04072(16) -0.0222(2) 0.56292(7)
C1B C -0.07991(17) -0.0552(2) 0.63236(8)
O1B O -0.23016(11) -0.04499(15) 0.62727(5)
C4B C -0.30006(17) -0.0807(2) 0.68713(8)
C6B C -0.46712(18) -0.0585(2) 0.65559(9)
H3B H -0.5249 -0.1005 0.6896
H4B H -0.4932 -0.1384 0.6144
N3B N -0.50804(17) 0.1385(2) 0.63548(8)
N2B N -0.50072(18) 0.1823(2) 0.57528(9)
N8B N -0.5015(3) 0.2420(3) 0.52196(12)
C7B C -0.2675(2) -0.2795(2) 0.71666(9)
H5B H -0.3244 -0.3013 0.7531
H6B H -0.1617 -0.2899 0.7379
N5B N -0.3068(2) -0.4243(2) 0.66182(11)
N7B N -0.1996(2) -0.4963(2) 0.64259(9)
N9B N -0.1105(3) -0.5764(3) 0.62142(13)
C9B C -0.2464(2) 0.0670(2) 0.74406(8)
H8B H -0.2430 0.1902 0.7227
H9B H -0.1461 0.0359 0.7694
N4B N -0.35061(19) 0.0703(3) 0.79255(8)
N1B N -0.29686(18) 0.0410(2) 0.85438(8)
N6B N -0.2651(3) 0.0182(3) 0.91268(9)
O2B O 0.00829(13) -0.09059(19) 0.68572(6)
C2B C 0.11044(18) 0.0629(2) 0.55218(8)
H1B H 0.1909 0.1087 0.5899
H2B H -0.0421 -0.3184 0.5165
C8B C -0.12709(18) 0.0975(2) 0.50031(8)
H7B H -0.2193 0.1689 0.5004
loop_
_geom_bond_atom_site_label_1
_geom_bond_atom_site_label_2
_geom_bond_site_symmetry_1
_geom_bond_site_symmetry_2
O1 C1 1_555 1_555
O2 C1 1_555 1_555
C1 C3 1_555 1_555
C2 H1 1_555 1_555
N1 N4 1_555 1_555
C3 C2 1_555 1_555
C4 O1 1_555 1_555
C5 C3 1_555 1_555
H2 C5 1_555 1_555
C6 C4 1_555 1_555
H3 C6 1_555 1_555
H4 C6 1_555 1_555
C7 C4 1_555 1_555
H5 C7 1_555 1_555
H6 C7 1_555 1_555
C8 C3 1_555 1_555
H7 C8 1_555 1_555
N2 N3 1_555 1_555
N3 C6 1_555 1_555
C9 C4 1_555 1_555
H8 C9 1_555 1_555
H9 C9 1_555 1_555
N4 C9 1_555 1_555
N5 C7 1_555 1_555
N6 N1 1_555 1_555
N7 N5 1_555 1_555
N8 N2 1_555 1_555
N9 N7 1_555 1_555
C5B C2 1_555 1_555
C3B C5B 1_555 1_555
C1B C3B 1_555 1_555
O1B C1B 1_555 1_555
C4B O1B 1_555 1_555
C6B C4B 1_555 1_555
H3B C6B 1_555 1_555
H4B C6B 1_555 1_555
N3B C6B 1_555 1_555
N2B N3B 1_555 1_555
N8B N2B 1_555 1_555
C7B C4B 1_555 1_555
H5B C7B 1_555 1_555
H6B C7B 1_555 1_555
N5B C7B 1_555 1_555
N7B N5B 1_555 1_555
N9B N7B 1_555 1_555
C9B C4B 1_555 1_555
H8B C9B 1_555 1_555
H9B C9B 1_555 1_555
N4B C9B 1_555 1_555
N1B N4B 1_555 1_555
N6B N1B 1_555 1_555
O2B C1B 1_555 1_555
C2B C5 1_555 1_555
H1B C2B 1_555 1_555
H2B C5B 1_555 1_555
C8B C2 1_555 1_555
H7B C8B 1_555 1_555
C5 C8B 1_555 1_555
C8 C2B 1_555 1_555
C8 C5B 1_555 1_555
C3B C2B 1_555 1_555
C3B C8B 1_555 1_555

#END
