
#######################################################################
#
#                 Cambridge Crystallographic Data Centre
#                                CCDC 
#
#######################################################################
#
# If this CIF has been generated from an entry in the Cambridge 
# Structural Database, then it will include bibliographic, chemical, 
# crystal, experimental, refinement or atomic coordinate data resulting 
# from the CCDC's data processing and validation procedures.
#
#######################################################################

data_ITIREJ
_chemical_formula_moiety         'C18 H16 Br2 O2 S1'
_chemical_name_systematic        
4,4'-(1R,1'R)-1,1'-Sulfonylbis(prop-2-ene-1,1-diy)bis(bromobenzene)
_symmetry_cell_setting           triclinic
_symmetry_space_group_name_H-M   'P 1'
_symmetry_Int_Tables_number      1
_space_group_name_Hall           'P 1'
loop_
_symmetry_equiv_pos_site_id
_symmetry_equiv_pos_as_xyz
1 x,y,z
_cell_length_a                   6.941(6)
_cell_length_b                   7.130(6)
_cell_length_c                   18.450(15)
_cell_angle_alpha                90.096(10)
_cell_angle_beta                 90.099(12)
_cell_angle_gamma                90.035(12)
_cell_volume                     913.075
_exptl_crystal_colour            colorless
_exptl_crystal_description       sheet
_chemical_melting_point          '147.6-149.5 deg.C'
_cell_formula_units_Z            2
loop_
_atom_site_label
_atom_site_type_symbol
_atom_site_fract_x
_atom_site_fract_y
_atom_site_fract_z
Br1 Br 0.6980(2) 2.1779(2) 0.25712(8)
Br2 Br 1.1627(2) 2.1776(2) -0.45392(8)
O1 O 0.759(3) 2.0055(19) -0.1216(7)
O2 O 1.091(3) 2.0069(17) -0.0775(7)
S1 S 0.9239(9) 1.9022(6) -0.0997(2)
C1 C 1.1011(15) 2.0503(12) -0.3691(4)
C2 C 0.9288(13) 1.9543(14) -0.3592(4)
H1 H 0.8371 1.9523 -0.3960
C3 C 0.8936(11) 1.8614(14) -0.2944(5)
H2 H 0.7783 1.7972 -0.2878
C4 C 1.0307(14) 1.8645(14) -0.2394(4)
C5 C 1.2030(13) 1.9605(16) -0.2492(5)
H3 H 1.2948 1.9626 -0.2125
C6 C 1.2383(12) 2.0534(15) -0.3141(5)
H4 H 1.3536 2.1176 -0.3206
C7 C 0.993(2) 1.7434(18) -0.1713(7)
H5 H 0.8841 1.6596 -0.1815
C8 C 1.163(2) 1.626(2) -0.1480(9)
H6 H 1.2767 1.6855 -0.1347
C9 C 1.156(3) 1.441(2) -0.1457(10)
H7 H 1.0432 1.3783 -0.1588
H8 H 1.2633 1.3726 -0.1311
C10 C 0.853(2) 1.7469(16) -0.0272(7)
H9 H 0.9622 1.6643 -0.0171
C11 C 0.684(2) 1.623(2) -0.0475(9)
H10 H 0.5691 1.6815 -0.0605
C12 C 0.689(3) 1.437(2) -0.0479(10)
H11 H 0.8021 1.3752 -0.0352
H12 H 0.5803 1.3692 -0.0609
C13 C 0.8149(14) 1.8592(12) 0.0404(4)
C14 C 0.6425(12) 1.9545(14) 0.0508(4)
H13 H 0.5496 1.9554 0.0144
C15 C 0.6088(11) 2.0486(14) 0.1156(5)
H14 H 0.4934 2.1124 0.1225
C16 C 0.7475(14) 2.0474(13) 0.1700(4)
C17 C 0.9199(12) 1.9520(14) 0.1596(4)
H15 H 1.0127 1.9512 0.1961
C18 C 0.9536(11) 1.8580(13) 0.0948(5)
H16 H 1.0690 1.7942 0.0879
Br3 Br 0.1982(2) 2.3244(2) -0.95381(8)
Br4 Br 0.6627(2) 2.3245(2) -0.24320(8)
O3 O 0.583(3) 2.4920(18) -0.6238(7)
O4 O 0.257(3) 2.4921(19) -0.5773(7)
S2 S 0.4260(9) 2.5942(5) -0.5996(2)
C19 C 0.5981(14) 2.4439(12) -0.3309(4)
C20 C 0.4265(12) 2.5414(14) -0.3402(4)
H17 H 0.3357 2.5438 -0.3032
C21 C 0.3907(11) 2.6355(14) -0.4048(4)
H18 H 0.2759 2.7008 -0.4110
C22 C 0.5265(13) 2.6320(13) -0.4601(4)
C23 C 0.6981(12) 2.5344(14) -0.4508(4)
H19 H 0.7889 2.5321 -0.4878
C24 C 0.7339(12) 2.4404(13) -0.3862(5)
H20 H 0.8487 2.3751 -0.3800
C25 C 0.4911(18) 2.7505(17) -0.5270(6)
H21 H 0.3818 2.8339 -0.5175
C26 C 0.662(2) 2.8684(17) -0.5476(9)
H22 H 0.7765 2.8110 -0.5609
C27 C 0.649(3) 3.0516(19) -0.5468(10)
H23 H 0.5346 3.1093 -0.5335
H24 H 0.7554 3.1240 -0.5596
C28 C 0.3558(19) 2.7496(16) -0.6726(6)
H25 H 0.4639 2.8341 -0.6826
C29 C 0.186(2) 2.8666(16) -0.6494(8)
H26 H 0.0734 2.8081 -0.6345
C30 C 0.196(3) 3.0531(18) -0.6502(9)
H27 H 0.3087 3.1122 -0.6652
H28 H 0.0906 3.1241 -0.6358
C31 C 0.3165(14) 2.6388(12) -0.7390(4)
C32 C 0.4543(11) 2.6393(12) -0.7936(5)
H29 H 0.5696 2.7037 -0.7870
C33 C 0.4198(12) 2.5436(13) -0.8580(4)
H30 H 0.5121 2.5440 -0.8945
C34 C 0.2475(14) 2.4474(12) -0.8679(4)
C35 C 0.1097(11) 2.4469(13) -0.8133(5)
H31 H -0.0056 2.3826 -0.8199
C36 C 0.1442(12) 2.5426(13) -0.7489(4)
H32 H 0.0519 2.5423 -0.7124
loop_
_geom_bond_atom_site_label_1
_geom_bond_atom_site_label_2
_geom_bond_site_symmetry_1
_geom_bond_site_symmetry_2
Br1 C16 1_555 1_555
Br2 C1 1_555 1_555
O1 S1 1_555 1_555
O2 S1 1_555 1_555
S1 C7 1_555 1_555
C1 C2 1_555 1_555
C2 H1 1_555 1_555
C3 C2 1_555 1_555
H2 C3 1_555 1_555
C4 C3 1_555 1_555
C5 C4 1_555 1_555
H3 C5 1_555 1_555
C6 C1 1_555 1_555
H4 C6 1_555 1_555
C7 C4 1_555 1_555
H5 C7 1_555 1_555
C8 C7 1_555 1_555
H6 C8 1_555 1_555
C9 C8 1_555 1_555
H7 C9 1_555 1_555
H8 C9 1_555 1_555
C10 S1 1_555 1_555
H9 C10 1_555 1_555
C11 C10 1_555 1_555
H10 C11 1_555 1_555
C12 C11 1_555 1_555
H11 C12 1_555 1_555
H12 C12 1_555 1_555
C13 C10 1_555 1_555
C14 C13 1_555 1_555
H13 C14 1_555 1_555
C15 C14 1_555 1_555
H14 C15 1_555 1_555
C16 C15 1_555 1_555
C17 C16 1_555 1_555
H15 C17 1_555 1_555
C18 C13 1_555 1_555
H16 C18 1_555 1_555
Br3 C34 1_555 1_555
Br4 C19 1_555 1_555
O3 S2 1_555 1_555
O4 S2 1_555 1_555
S2 C25 1_555 1_555
C19 C20 1_555 1_555
C20 H17 1_555 1_555
C21 C20 1_555 1_555
H18 C21 1_555 1_555
C22 C21 1_555 1_555
C23 C22 1_555 1_555
H19 C23 1_555 1_555
C24 C19 1_555 1_555
H20 C24 1_555 1_555
C25 C22 1_555 1_555
H21 C25 1_555 1_555
C26 C25 1_555 1_555
H22 C26 1_555 1_555
C27 C26 1_555 1_555
H23 C27 1_555 1_555
H24 C27 1_555 1_555
C28 S2 1_555 1_555
H25 C28 1_555 1_555
C29 C28 1_555 1_555
H26 C29 1_555 1_555
C30 C29 1_555 1_555
H27 C30 1_555 1_555
H28 C30 1_555 1_555
C31 C28 1_555 1_555
C32 C31 1_555 1_555
H29 C32 1_555 1_555
C33 C32 1_555 1_555
H30 C33 1_555 1_555
C34 C33 1_555 1_555
C35 C34 1_555 1_555
H31 C35 1_555 1_555
C36 C31 1_555 1_555
H32 C36 1_555 1_555
C5 C6 1_555 1_555
C17 C18 1_555 1_555
C23 C24 1_555 1_555
C35 C36 1_555 1_555

#END
