
#######################################################################
#
#                 Cambridge Crystallographic Data Centre
#                                CCDC 
#
#######################################################################
#
# If this CIF has been generated from an entry in the Cambridge 
# Structural Database, then it will include bibliographic, chemical, 
# crystal, experimental, refinement or atomic coordinate data resulting 
# from the CCDC's data processing and validation procedures.
#
#######################################################################

data_ITIWAL
_chemical_formula_moiety         'C6 H2 N3 O8 1-,C2 H7 N4 O2 1+,H2 O1'
_chemical_name_systematic        
'1,2-diamino-N-hydroxy-2-(hydroxyimino)ethaniminium 3-hydroxy-2,4,6-trinitrophenolate monohydrate'
_symmetry_cell_setting           triclinic
_symmetry_space_group_name_H-M   'P -1'
_symmetry_Int_Tables_number      2
_space_group_name_Hall           '-P 1'
loop_
_symmetry_equiv_pos_site_id
_symmetry_equiv_pos_as_xyz
1 x,y,z
2 -x,-y,-z
_cell_length_a                   7.5082(8)
_cell_length_b                   8.2576(9)
_cell_length_c                   12.9169(14)
_cell_angle_alpha                85.661(2)
_cell_angle_beta                 74.347(2)
_cell_angle_gamma                69.659(2)
_cell_volume                     722.91
_exptl_crystal_colour            colorless
_exptl_crystal_description       block
_cell_formula_units_Z            2
loop_
_atom_site_label
_atom_site_type_symbol
_atom_site_fract_x
_atom_site_fract_y
_atom_site_fract_z
C1 C 0.6920(3) 0.5937(3) -0.04809(17)
C2 C 0.5373(3) 0.7434(3) -0.05481(16)
H1 H 0.5257 0.7886 -0.1218
C3 C 0.4013(3) 0.8252(2) 0.03647(16)
C4 C 0.4085(3) 0.7627(2) 0.14335(15)
C5 C 0.5777(3) 0.6138(2) 0.14261(16)
C6 C 0.7150(3) 0.5265(2) 0.05265(18)
N1 N 0.8283(3) 0.5086(3) -0.14539(18)
N2 N 0.2475(3) 0.9830(2) 0.02177(17)
N3 N 0.6041(3) 0.5472(3) 0.24801(17)
O1 O 0.9554(3) 0.3652(3) -0.13626(19)
O2 O 0.8156(4) 0.5745(4) -0.23160(17)
O3 O 0.2501(4) 1.0370(3) -0.06886(19)
O4 O 0.1313(4) 1.0652(3) 0.0997(2)
O5 O 0.6575(4) 0.6279(3) 0.30020(16)
O6 O 0.5697(5) 0.4186(4) 0.2779(2)
O7 O 0.8602(3) 0.3854(2) 0.07101(18)
H2 H 0.914(5) 0.338(4) 0.0063(17)
O8 O 0.2811(2) 0.8259(2) 0.22940(11)
C7 C 0.7387(3) 0.0551(2) 0.35956(14)
C8 C 0.8232(3) 0.1433(2) 0.41924(15)
N4 N 0.8517(3) -0.0570(3) 0.28245(15)
H3 H 0.8009 -0.1084 0.2491
H4 H 0.9769 -0.0793 0.2650
N5 N 0.9784(3) 0.1883(3) 0.36525(16)
H5 H 1.0303 0.2384 0.3987
H6 H 1.0257 0.1671 0.2973
N6 N 0.5480(2) 0.0937(2) 0.38929(13)
H7 H 0.4764 0.1617 0.4434
N7 N 0.7377(2) 0.1669(2) 0.52047(13)
O9 O 0.4663(2) 0.0205(2) 0.32984(13)
H8 H 0.421(4) -0.050(3) 0.371(2)
O10 O 0.8254(2) 0.2570(2) 0.56790(13)
H9 H 0.783(4) 0.246(4) 0.6341(15)
O11 O 0.2367(3) 0.3689(3) 0.49299(17)
H10 H 0.191(6) 0.380(6) 0.5570(16)
H11 H 0.220(6) 0.466(3) 0.467(3)
loop_
_geom_bond_atom_site_label_1
_geom_bond_atom_site_label_2
_geom_bond_site_symmetry_1
_geom_bond_site_symmetry_2
C1 C2 1_555 1_555
C2 H1 1_555 1_555
C3 C2 1_555 1_555
C4 C3 1_555 1_555
C5 C4 1_555 1_555
C6 C1 1_555 1_555
N1 C1 1_555 1_555
N2 C3 1_555 1_555
N3 C5 1_555 1_555
O1 N1 1_555 1_555
O2 N1 1_555 1_555
O3 N2 1_555 1_555
O4 N2 1_555 1_555
O5 N3 1_555 1_555
O6 N3 1_555 1_555
O7 C6 1_555 1_555
H2 O7 1_555 1_555
O8 C4 1_555 1_555
C7 C8 1_555 1_555
C8 N5 1_555 1_555
N4 C7 1_555 1_555
H3 N4 1_555 1_555
H4 N4 1_555 1_555
N5 H5 1_555 1_555
H6 N5 1_555 1_555
N6 C7 1_555 1_555
H7 N6 1_555 1_555
N7 C8 1_555 1_555
O9 N6 1_555 1_555
H8 O9 1_555 1_555
O10 N7 1_555 1_555
H9 O10 1_555 1_555
O11 H10 1_555 1_555
H11 O11 1_555 1_555
C5 C6 1_555 1_555

#END
