
#######################################################################
#
#                 Cambridge Crystallographic Data Centre
#                                CCDC 
#
#######################################################################
#
# If this CIF has been generated from an entry in the Cambridge 
# Structural Database, then it will include bibliographic, chemical, 
# crystal, experimental, refinement or atomic coordinate data resulting 
# from the CCDC's data processing and validation procedures.
#
#######################################################################

data_ITOHAC
_chemical_formula_moiety         'C16 H13 N1 O2'
_chemical_name_systematic        3-benzylidene-2-methoxyisoindolin-1-one
_symmetry_cell_setting           monoclinic
_symmetry_space_group_name_H-M   'P 21/c'
_symmetry_Int_Tables_number      14
_space_group_name_Hall           '-P 2ybc'
loop_
_symmetry_equiv_pos_site_id
_symmetry_equiv_pos_as_xyz
1 x,y,z
2 -x,1/2+y,1/2-z
3 -x,-y,-z
4 x,1/2-y,1/2+z
_cell_length_a                   9.1382(5)
_cell_length_b                   11.9472(6)
_cell_length_c                   11.4848(7)
_cell_angle_alpha                90
_cell_angle_beta                 97.094(6)
_cell_angle_gamma                90
_cell_volume                     1244.26
_exptl_crystal_colour            colorless
_exptl_crystal_description       blocks
_cell_formula_units_Z            4
loop_
_atom_site_label
_atom_site_type_symbol
_atom_site_fract_x
_atom_site_fract_y
_atom_site_fract_z
N1 N 0.47243(13) 0.76468(10) 0.45429(10)
C1 C 0.51583(15) 0.68805(12) 0.37666(11)
O1 O 0.61415(12) 0.70110(9) 0.31490(9)
C2 C 0.41777(14) 0.59181(11) 0.38820(11)
C3 C 0.40885(15) 0.49264(12) 0.32567(12)
H1 H 0.4742 0.4776 0.2694
C4 C 0.30217(16) 0.41608(12) 0.34739(13)
H2 H 0.2939 0.3471 0.3060
C5 C 0.20651(16) 0.43965(12) 0.42989(13)
H3 H 0.1334 0.3863 0.4432
C6 C 0.21530(15) 0.53877(12) 0.49287(12)
H4 H 0.1496 0.5536 0.5489
C7 C 0.32295(14) 0.61613(11) 0.47192(11)
C8 C 0.35743(15) 0.72956(12) 0.51782(11)
O2 O 0.52468(11) 0.87333(8) 0.46004(9)
C9 C 0.65812(16) 0.88062(13) 0.54073(14)
H5 H 0.6386 0.8555 0.6186
H6 H 0.6926 0.9584 0.5454
H7 H 0.7340 0.8329 0.5131
C10 C 0.30236(16) 0.79687(12) 0.59444(12)
H8 H 0.3407 0.8709 0.5996
C11 C 0.18986(15) 0.77110(12) 0.67189(12)
C12 C 0.07959(16) 0.84956(14) 0.68474(13)
H9 H 0.0762 0.9172 0.6411
C13 C -0.02478(17) 0.83024(15) 0.76008(15)
H10 H -0.1001 0.8838 0.7668
C14 C -0.01940(17) 0.73342(16) 0.82527(14)
H11 H -0.0912 0.7200 0.8768
C15 C 0.09060(18) 0.65568(14) 0.81564(14)
H12 H 0.0948 0.5892 0.8613
C16 C 0.19476(16) 0.67429(12) 0.73967(12)
H13 H 0.2701 0.6205 0.7338
loop_
_geom_bond_atom_site_label_1
_geom_bond_atom_site_label_2
_geom_bond_site_symmetry_1
_geom_bond_site_symmetry_2
N1 C1 1_555 1_555
C1 O1 1_555 1_555
C2 C1 1_555 1_555
C3 C2 1_555 1_555
H1 C3 1_555 1_555
C4 C3 1_555 1_555
H2 C4 1_555 1_555
C5 C4 1_555 1_555
H3 C5 1_555 1_555
C6 C5 1_555 1_555
H4 C6 1_555 1_555
C7 C2 1_555 1_555
C8 N1 1_555 1_555
O2 N1 1_555 1_555
C9 O2 1_555 1_555
H5 C9 1_555 1_555
H6 C9 1_555 1_555
H7 C9 1_555 1_555
C10 C8 1_555 1_555
H8 C10 1_555 1_555
C11 C10 1_555 1_555
C12 C11 1_555 1_555
H9 C12 1_555 1_555
C13 C12 1_555 1_555
H10 C13 1_555 1_555
C14 C13 1_555 1_555
H11 C14 1_555 1_555
C15 C14 1_555 1_555
H12 C15 1_555 1_555
C16 C11 1_555 1_555
H13 C16 1_555 1_555
C6 C7 1_555 1_555
C7 C8 1_555 1_555
C15 C16 1_555 1_555

#END
