
#######################################################################
#
#                 Cambridge Crystallographic Data Centre
#                                CCDC 
#
#######################################################################
#
# If this CIF has been generated from an entry in the Cambridge 
# Structural Database, then it will include bibliographic, chemical, 
# crystal, experimental, refinement or atomic coordinate data resulting 
# from the CCDC's data processing and validation procedures.
#
#######################################################################

data_ITOPUD
_chemical_formula_moiety         'C36 H36 N4 O4'
_chemical_name_systematic        
"2-(((3',6'-bis(diethylamino)-3-oxospiro[isoindole-1,9'-xanthen]-2(3H)-yl)imino)methyl)benzoic acid"
_symmetry_cell_setting           triclinic
_symmetry_space_group_name_H-M   'P -1'
_symmetry_Int_Tables_number      2
_space_group_name_Hall           '-P 1'
loop_
_symmetry_equiv_pos_site_id
_symmetry_equiv_pos_as_xyz
1 x,y,z
2 -x,-y,-z
_cell_length_a                   9.230(2)
_cell_length_b                   12.017(3)
_cell_length_c                   14.264(4)
_cell_angle_alpha                80.136(5)
_cell_angle_beta                 84.480(5)
_cell_angle_gamma                87.213(5)
_cell_volume                     1550.67
_exptl_crystal_colour            'pale yellow'
_exptl_crystal_description       block
_cell_formula_units_Z            2
loop_
_atom_site_label
_atom_site_type_symbol
_atom_site_fract_x
_atom_site_fract_y
_atom_site_fract_z
C1 C 0.9190(4) 0.4446(4) 0.1661(3)
C2 C 0.9296(4) 0.3297(4) 0.1940(3)
H1 H 0.8985 0.2831 0.1546
C3 C 0.9850(4) 0.2807(4) 0.2787(3)
C4 C 1.0319(4) 0.3540(4) 0.3351(3)
H2 H 1.0696 0.3250 0.3928
C5 C 1.0223(4) 0.4704(4) 0.3049(3)
H3 H 1.0548 0.5175 0.3433
C6 C 0.9664(4) 0.5193(4) 0.2200(3)
C7 C 0.9597(4) 0.6437(3) 0.1892(3)
C8 C 0.8768(4) 0.6756(4) 0.1027(3)
C9 C 0.8383(4) 0.7865(4) 0.0670(3)
H4 H 0.8696 0.8434 0.0962
C10 C 0.7564(4) 0.8170(4) -0.0093(3)
H5 H 0.7320 0.8928 -0.0292
C11 C 0.7098(4) 0.7365(4) -0.0566(3)
C12 C 0.7488(4) 0.6239(4) -0.0218(3)
H6 H 0.7200 0.5665 -0.0515
C13 C 0.8288(4) 0.5975(4) 0.0554(3)
C14 C 1.0344(5) 0.1143(4) 0.4009(3)
H7 H 0.9896 0.0415 0.4190
H8 H 0.9958 0.1616 0.4468
C15 C 1.1961(5) 0.0976(5) 0.4070(4)
H9 H 1.2367 0.0555 0.3588
H10 H 1.2145 0.0569 0.4689
H11 H 1.2402 0.1699 0.3971
C16 C 0.9868(6) 0.0853(5) 0.2345(4)
C17 C 0.8271(6) 0.0500(8) 0.2528(6)
C18 C 0.5747(5) 0.8783(5) -0.1653(3)
H12 H 0.5448 0.8848 -0.2294
H13 H 0.6538 0.9294 -0.1678
C19 C 0.4465(6) 0.9151(5) -0.0999(4)
H14 H 0.3697 0.8627 -0.0942
H15 H 0.4116 0.9892 -0.1265
H16 H 0.4780 0.9165 -0.0379
C20 C 0.6052(6) 0.6743(5) -0.1973(4)
C21 C 0.4685(6) 0.6121(7) -0.1491(6)
C22 C 1.1110(4) 0.6947(4) 0.1780(3)
C23 C 1.2276(4) 0.6756(4) 0.1119(3)
H17 H 1.2173 0.6332 0.0643
C24 C 1.3581(5) 0.7220(4) 0.1200(4)
H18 H 1.4375 0.7104 0.0770
C25 C 1.3745(5) 0.7849(5) 0.1898(4)
H19 H 1.4652 0.8135 0.1938
C26 C 1.2588(4) 0.8070(4) 0.2546(3)
H20 H 1.2677 0.8524 0.3003
C27 C 1.1278(4) 0.7564(4) 0.2469(3)
C28 C 0.9876(4) 0.7618(4) 0.3085(3)
C29 C 0.6826(4) 0.7194(3) 0.3668(2)
H21 H 0.7211 0.7784 0.3898
C30 C 0.5361(4) 0.6763(4) 0.4016(3)
C31 C 0.4424(4) 0.7337(4) 0.4629(3)
C32 C 0.3111(5) 0.6863(5) 0.5031(3)
H22 H 0.2520 0.7222 0.5462
C33 C 0.2678(5) 0.5873(5) 0.4799(3)
H23 H 0.1793 0.5571 0.5065
C34 C 0.3570(5) 0.5325(4) 0.4165(3)
H24 H 0.3282 0.4663 0.3991
C35 C 0.4901(5) 0.5787(4) 0.3796(3)
H25 H 0.5503 0.5414 0.3381
C36 C 0.4720(4) 0.8455(5) 0.4800(3)
N1 N 0.9930(5) 0.1655(4) 0.3072(3)
N2 N 0.6280(4) 0.7629(4) -0.1344(3)
N3 N 0.8936(3) 0.7032(3) 0.2695(2)
N4 N 0.7534(3) 0.6693(3) 0.3019(2)
O1 O 0.8590(3) 0.4819(3) 0.08125(19)
O2 O 0.9610(3) 0.8076(3) 0.3783(2)
O3 O 0.5345(3) 0.9183(3) 0.4195(2)
O4 O 0.4214(3) 0.8709(3) 0.5641(2)
H26 H 0.4568 0.9298 0.5715
C37? C 0.8804(10) 0.0965(10) 0.2708(8)
C38? C 0.9576(15) 0.0560(13) 0.1815(9)
C39? C 0.4988(13) 0.6883(13) -0.1393(13)
C40? C 0.525(3) 0.612(2) -0.2160(16)
loop_
_geom_bond_atom_site_label_1
_geom_bond_atom_site_label_2
_geom_bond_site_symmetry_1
_geom_bond_site_symmetry_2
C1 C2 1_555 1_555
C2 H1 1_555 1_555
C3 C2 1_555 1_555
C4 C3 1_555 1_555
H2 C4 1_555 1_555
C5 C4 1_555 1_555
H3 C5 1_555 1_555
C6 C1 1_555 1_555
C7 C6 1_555 1_555
C8 C7 1_555 1_555
C9 C8 1_555 1_555
H4 C9 1_555 1_555
C10 C9 1_555 1_555
H5 C10 1_555 1_555
C11 C10 1_555 1_555
C12 C11 1_555 1_555
H6 C12 1_555 1_555
C13 C8 1_555 1_555
C14 H7 1_555 1_555
H8 C14 1_555 1_555
C15 C14 1_555 1_555
H9 C15 1_555 1_555
H10 C15 1_555 1_555
H11 C15 1_555 1_555
C16 C17 1_555 1_555
C18 H12 1_555 1_555
H13 C18 1_555 1_555
C19 C18 1_555 1_555
H14 C19 1_555 1_555
H15 C19 1_555 1_555
H16 C19 1_555 1_555
C20 C21 1_555 1_555
C22 C7 1_555 1_555
C23 C22 1_555 1_555
H17 C23 1_555 1_555
C24 C23 1_555 1_555
H18 C24 1_555 1_555
C25 C24 1_555 1_555
H19 C25 1_555 1_555
C26 C25 1_555 1_555
H20 C26 1_555 1_555
C27 C22 1_555 1_555
C28 C27 1_555 1_555
C29 H21 1_555 1_555
C30 C29 1_555 1_555
C31 C30 1_555 1_555
C32 C31 1_555 1_555
H22 C32 1_555 1_555
C33 C32 1_555 1_555
H23 C33 1_555 1_555
C34 C33 1_555 1_555
H24 C34 1_555 1_555
C35 C30 1_555 1_555
H25 C35 1_555 1_555
C36 C31 1_555 1_555
N1 C3 1_555 1_555
N2 C11 1_555 1_555
N3 C7 1_555 1_555
N4 C29 1_555 1_555
O1 C1 1_555 1_555
O2 C28 1_555 1_555
O3 C36 1_555 1_555
O4 C36 1_555 1_555
H26 O4 1_555 1_555
C5 C6 1_555 1_555
C12 C13 1_555 1_555
C13 O1 1_555 1_555
C14 N1 1_555 1_555
C16 N1 1_555 1_555
C18 N2 1_555 1_555
C20 N2 1_555 1_555
C26 C27 1_555 1_555
C28 N3 1_555 1_555
C34 C35 1_555 1_555
N3 N4 1_555 1_555

#END
