
#######################################################################
#
#                 Cambridge Crystallographic Data Centre
#                                CCDC 
#
#######################################################################
#
# If this CIF has been generated from an entry in the Cambridge 
# Structural Database, then it will include bibliographic, chemical, 
# crystal, experimental, refinement or atomic coordinate data resulting 
# from the CCDC's data processing and validation procedures.
#
#######################################################################

data_ITOROA
_chemical_formula_moiety         'C25 H17 N1 O2'
_chemical_name_systematic        
2-(2-naphthoyl)-4-(2-naphthyl)-4-oxobutanenitrile
_symmetry_cell_setting           triclinic
_symmetry_space_group_name_H-M   'P -1'
_symmetry_Int_Tables_number      2
_space_group_name_Hall           '-P 1'
loop_
_symmetry_equiv_pos_site_id
_symmetry_equiv_pos_as_xyz
1 x,y,z
2 -x,-y,-z
_cell_length_a                   7.9748(3)
_cell_length_b                   8.5090(4)
_cell_length_c                   13.9508(6)
_cell_angle_alpha                78.3510(10)
_cell_angle_beta                 78.9140(10)
_cell_angle_gamma                75.9570(10)
_cell_volume                     889.172
_exptl_crystal_colour            colorless
_cell_formula_units_Z            2
loop_
_atom_site_label
_atom_site_type_symbol
_atom_site_fract_x
_atom_site_fract_y
_atom_site_fract_z
O1 O 0.34358(11) 0.42517(10) 0.84468(6)
O2 O 0.51774(11) -0.00197(11) 0.87343(6)
N1 N 0.06196(13) -0.07836(12) 0.85440(7)
C1 C 0.09083(16) 0.66287(16) 1.34100(9)
H1 H 0.0753 0.7209 1.3946
C2 C 0.02824(15) 0.51659(16) 1.35564(9)
H2 H -0.0295 0.4772 1.4189
C3 C 0.05048(15) 0.43129(14) 1.27889(8)
H3 H 0.0079 0.3332 1.2893
C4 C 0.13670(14) 0.48868(13) 1.18396(8)
C5 C 0.16127(14) 0.40282(13) 1.10337(8)
H4 H 0.1211 0.3036 1.1129
C6 C 0.24270(14) 0.46180(13) 1.01150(8)
C7 C 0.27033(14) 0.37330(13) 0.92596(8)
C8 C 0.20515(14) 0.21524(13) 0.94177(8)
H5 H 0.0790 0.2354 0.9688
H6 H 0.2686 0.1316 0.9901
C9 C 0.23463(14) 0.15202(13) 0.84303(8)
H7 H 0.1941 0.2455 0.7908
C10 C 0.43000(14) 0.07607(13) 0.81054(8)
C11 C 0.50174(14) 0.09293(13) 0.70347(8)
C12 C 0.43112(14) 0.21810(13) 0.63414(8)
H8 H 0.3296 0.2961 0.6544
C13 C 0.50694(14) 0.23294(13) 0.53296(8)
C14 C 0.43548(15) 0.36119(14) 0.46069(8)
H9 H 0.3338 0.4397 0.4801
C15 C 0.51061(15) 0.37376(14) 0.36347(8)
H10 H 0.4613 0.4606 0.3159
C16 C 0.66174(15) 0.25742(14) 0.33386(8)
H11 H 0.7139 0.2667 0.2663
C17 C 0.19878(14) 0.63674(13) 1.16896(8)
C18 C 0.28156(14) 0.69550(14) 1.07299(9)
H12 H 0.3222 0.7947 1.0620
C19 C 0.30314(14) 0.61080(13) 0.99651(8)
H13 H 0.3588 0.6514 0.9329
C20 C 0.13657(14) 0.02289(14) 0.85038(8)
C21 C 0.65383(15) -0.02460(14) 0.67316(8)
H14 H 0.7032 -0.1112 0.7209
C22 C 0.72883(15) -0.01368(14) 0.57630(9)
H15 H 0.8295 -0.0936 0.5573
C23 C 0.65905(14) 0.11523(13) 0.50315(8)
C24 C 0.73368(15) 0.13145(14) 0.40166(9)
H16 H 0.8349 0.0539 0.3805
C25 C 0.17368(15) 0.72166(15) 1.25010(9)
H17 H 0.2148 0.8203 1.2413
loop_
_geom_bond_atom_site_label_1
_geom_bond_atom_site_label_2
_geom_bond_site_symmetry_1
_geom_bond_site_symmetry_2
O1 C7 1_555 1_555
O2 C10 1_555 1_555
N1 C20 1_555 1_555
C1 H1 1_555 1_555
C2 C1 1_555 1_555
H2 C2 1_555 1_555
C3 C2 1_555 1_555
H3 C3 1_555 1_555
C4 C3 1_555 1_555
C5 C4 1_555 1_555
H4 C5 1_555 1_555
C6 C5 1_555 1_555
C7 C6 1_555 1_555
C8 C7 1_555 1_555
H5 C8 1_555 1_555
H6 C8 1_555 1_555
C9 C8 1_555 1_555
H7 C9 1_555 1_555
C10 C9 1_555 1_555
C11 C10 1_555 1_555
C12 C11 1_555 1_555
H8 C12 1_555 1_555
C13 C12 1_555 1_555
C14 C13 1_555 1_555
H9 C14 1_555 1_555
C15 C14 1_555 1_555
H10 C15 1_555 1_555
C16 C15 1_555 1_555
H11 C16 1_555 1_555
C17 C4 1_555 1_555
C18 C17 1_555 1_555
H12 C18 1_555 1_555
C19 C6 1_555 1_555
H13 C19 1_555 1_555
C20 C9 1_555 1_555
C21 C11 1_555 1_555
H14 C21 1_555 1_555
C22 C21 1_555 1_555
H15 C22 1_555 1_555
C23 C13 1_555 1_555
C24 C16 1_555 1_555
H16 C24 1_555 1_555
C25 C1 1_555 1_555
H17 C25 1_555 1_555
C17 C25 1_555 1_555
C18 C19 1_555 1_555
C22 C23 1_555 1_555
C23 C24 1_555 1_555

#END
