
#######################################################################
#
#                 Cambridge Crystallographic Data Centre
#                                CCDC 
#
#######################################################################
#
# If this CIF has been generated from an entry in the Cambridge 
# Structural Database, then it will include bibliographic, chemical, 
# crystal, experimental, refinement or atomic coordinate data resulting 
# from the CCDC's data processing and validation procedures.
#
#######################################################################

data_ITOSIV
_chemical_formula_moiety         'C23 H17 N3'
_chemical_name_systematic        
2,3,6-triphenyl-2,5-dihydropyridazine-4-carbonitrile
_symmetry_cell_setting           triclinic
_symmetry_space_group_name_H-M   'P -1'
_symmetry_Int_Tables_number      2
_space_group_name_Hall           '-P 1'
loop_
_symmetry_equiv_pos_site_id
_symmetry_equiv_pos_as_xyz
1 x,y,z
2 -x,-y,-z
_cell_length_a                   9.9929(2)
_cell_length_b                   13.6834(3)
_cell_length_c                   14.2187(4)
_cell_angle_alpha                91.3300(10)
_cell_angle_beta                 101.9210(10)
_cell_angle_gamma                106.7060(10)
_cell_volume                     1814.91
_exptl_crystal_colour            colorless
_exptl_crystal_description       Columnar
_cell_formula_units_Z            4
loop_
_atom_site_label
_atom_site_type_symbol
_atom_site_fract_x
_atom_site_fract_y
_atom_site_fract_z
N1 N 0.40608(12) 0.15768(9) 0.10388(9)
N2 N 0.33113(12) 0.07674(9) 0.14823(9)
N3 N 0.81659(14) 0.05692(12) 0.07623(11)
C1 C 0.6581(2) 0.32144(14) -0.15390(14)
H1 H 0.6863 0.3579 -0.2045
C2 C 0.75107(18) 0.33501(13) -0.06589(14)
H2 H 0.8426 0.3809 -0.0567
C3 C 0.70995(15) 0.28126(12) 0.00907(12)
H3 H 0.7742 0.2908 0.0685
C4 C 0.57394(14) 0.21306(11) -0.00295(10)
C5 C 0.53269(13) 0.15712(11) 0.07899(10)
C6 C 0.40430(14) 0.02578(11) 0.19925(10)
C7 C 0.32443(15) -0.06245(11) 0.24316(11)
C8 C 0.18698(17) -0.12037(12) 0.19664(14)
H4 H 0.1447 -0.1040 0.1369
C9 C 0.1131(2) -0.20217(14) 0.23891(18)
H5 H 0.0215 -0.2413 0.2070
C10 C 0.1731(3) -0.22642(16) 0.32747(19)
H6 H 0.1220 -0.2815 0.3555
C11 C 0.5226(2) 0.25350(14) -0.16714(13)
H7 H 0.4595 0.2439 -0.2270
C12 C 0.47952(16) 0.19974(12) -0.09252(12)
H8 H 0.3875 0.1545 -0.1019
C13 C 0.33090(15) 0.23033(12) 0.07533(10)
C14 C 0.18244(15) 0.19784(13) 0.04726(11)
H9 H 0.1319 0.1287 0.0438
C15 C 0.11099(18) 0.26980(15) 0.02460(13)
H10 H 0.0114 0.2489 0.0070
C16 C 0.1850(2) 0.37158(16) 0.02777(13)
H11 H 0.1356 0.4193 0.0120
C17 C 0.3318(2) 0.40304(14) 0.05422(13)
H12 H 0.3820 0.4719 0.0552
C18 C 0.40554(16) 0.33254(12) 0.07944(11)
H13 H 0.5050 0.3541 0.0991
C19 C 0.56597(14) 0.05671(12) 0.21864(11)
H14 H 0.6074 0.1076 0.2735
H15 H 0.5996 -0.0023 0.2326
C20 C 0.60836(14) 0.10006(11) 0.12980(11)
C21 C 0.72327(15) 0.07783(12) 0.09798(11)
C22 C 0.3080(2) -0.16986(16) 0.37476(16)
H16 H 0.3484 -0.1863 0.4350
C23 C 0.38473(19) -0.08795(14) 0.33276(13)
H17 H 0.4768 -0.0500 0.3647
N4 N -0.07164(11) 0.19021(9) 0.32949(9)
N5 N 0.01128(11) 0.28087(9) 0.30134(9)
N6 N 0.47007(13) 0.22330(11) 0.37104(11)
C24 C -0.23785(19) -0.15859(17) 0.43717(17)
H18 H -0.2821 -0.2177 0.4633
C25 C -0.1688(2) -0.16478(15) 0.36436(17)
H19 H -0.1676 -0.2282 0.3403
C26 C -0.10111(18) -0.07666(13) 0.32670(15)
H20 H -0.0544 -0.0812 0.2773
C27 C -0.10204(14) 0.01775(12) 0.36151(11)
C28 C -0.02666(13) 0.11182(11) 0.32296(11)
C29 C 0.15964(13) 0.30065(11) 0.31865(10)
C30 C 0.25261(13) 0.40477(11) 0.35512(10)
C31 C 0.22411(16) 0.45964(13) 0.42804(12)
H21 H 0.1443 0.4312 0.4534
C32 C 0.3138(2) 0.55618(14) 0.46291(13)
H22 H 0.2938 0.5927 0.5115
C33 C 0.43140(19) 0.59856(14) 0.42670(15)
H23 H 0.4912 0.6638 0.4507
C34 C -0.24161(18) -0.06547(16) 0.47130(14)
H24 H -0.2904 -0.0616 0.5197
C35 C -0.17374(15) 0.02237(14) 0.43455(12)
H25 H -0.1758 0.0855 0.4588
C36 C -0.06046(14) 0.35561(11) 0.27713(11)
C37 C -0.00668(15) 0.43245(12) 0.22129(12)
H26 H 0.0761 0.4350 0.1999
C38 C -0.07595(18) 0.50525(14) 0.19732(13)
H27 H -0.0379 0.5580 0.1614
C39 C -0.20054(19) 0.50059(15) 0.22597(15)
H28 H -0.2472 0.5497 0.2095
C40 C -0.25527(18) 0.42287(15) 0.27905(15)
H29 H -0.3404 0.4191 0.2977
C41 C -0.18697(15) 0.34996(13) 0.30549(13)
H30 H -0.2253 0.2978 0.3418
C42 C 0.46213(16) 0.54585(13) 0.35536(13)
H31 H 0.5431 0.5749 0.3314
C43 C 0.37284(14) 0.44931(12) 0.31886(11)
H32 H 0.3934 0.4139 0.2697
C44 C 0.20683(13) 0.21819(11) 0.31152(11)
C45 C 0.09764(14) 0.11608(11) 0.27676(12)
H33 H 0.1377 0.0610 0.2958
H34 H 0.0667 0.1097 0.2070
C46 C 0.35413(14) 0.22363(11) 0.34485(11)
loop_
_geom_bond_atom_site_label_1
_geom_bond_atom_site_label_2
_geom_bond_site_symmetry_1
_geom_bond_site_symmetry_2
N1 N2 1_555 1_555
N2 C6 1_555 1_555
N3 C21 1_555 1_555
C1 H1 1_555 1_555
C2 C1 1_555 1_555
H2 C2 1_555 1_555
C3 C2 1_555 1_555
H3 C3 1_555 1_555
C4 C3 1_555 1_555
C5 N1 1_555 1_555
C6 C7 1_555 1_555
C7 C8 1_555 1_555
C8 H4 1_555 1_555
C9 C8 1_555 1_555
H5 C9 1_555 1_555
C10 C9 1_555 1_555
H6 C10 1_555 1_555
C11 C1 1_555 1_555
H7 C11 1_555 1_555
C12 C4 1_555 1_555
H8 C12 1_555 1_555
C13 N1 1_555 1_555
C14 C13 1_555 1_555
H9 C14 1_555 1_555
C15 C14 1_555 1_555
H10 C15 1_555 1_555
C16 C15 1_555 1_555
H11 C16 1_555 1_555
C17 C16 1_555 1_555
H12 C17 1_555 1_555
C18 C13 1_555 1_555
H13 C18 1_555 1_555
C19 C6 1_555 1_555
H14 C19 1_555 1_555
H15 C19 1_555 1_555
C20 C5 1_555 1_555
C21 C20 1_555 1_555
C22 C10 1_555 1_555
H16 C22 1_555 1_555
C23 C7 1_555 1_555
H17 C23 1_555 1_555
N4 N5 1_555 1_555
N5 C29 1_555 1_555
N6 C46 1_555 1_555
C24 H18 1_555 1_555
C25 C24 1_555 1_555
H19 C25 1_555 1_555
C26 C25 1_555 1_555
H20 C26 1_555 1_555
C27 C26 1_555 1_555
C28 N4 1_555 1_555
C29 C30 1_555 1_555
C30 C31 1_555 1_555
C31 H21 1_555 1_555
C32 C31 1_555 1_555
H22 C32 1_555 1_555
C33 C32 1_555 1_555
H23 C33 1_555 1_555
C34 C24 1_555 1_555
H24 C34 1_555 1_555
C35 C27 1_555 1_555
H25 C35 1_555 1_555
C36 N5 1_555 1_555
C37 C36 1_555 1_555
H26 C37 1_555 1_555
C38 C37 1_555 1_555
H27 C38 1_555 1_555
C39 C38 1_555 1_555
H28 C39 1_555 1_555
C40 C39 1_555 1_555
H29 C40 1_555 1_555
C41 C36 1_555 1_555
H30 C41 1_555 1_555
C42 C33 1_555 1_555
H31 C42 1_555 1_555
C43 C30 1_555 1_555
H32 C43 1_555 1_555
C44 C29 1_555 1_555
C45 C28 1_555 1_555
H33 C45 1_555 1_555
H34 C45 1_555 1_555
C46 C44 1_555 1_555
C4 C5 1_555 1_555
C11 C12 1_555 1_555
C17 C18 1_555 1_555
C19 C20 1_555 1_555
C22 C23 1_555 1_555
C27 C28 1_555 1_555
C34 C35 1_555 1_555
C40 C41 1_555 1_555
C42 C43 1_555 1_555
C44 C45 1_555 1_555

#END
