
#######################################################################
#
#                 Cambridge Crystallographic Data Centre
#                                CCDC 
#
#######################################################################
#
# If this CIF has been generated from an entry in the Cambridge 
# Structural Database, then it will include bibliographic, chemical, 
# crystal, experimental, refinement or atomic coordinate data resulting 
# from the CCDC's data processing and validation procedures.
#
#######################################################################

data_ITOSUH
_chemical_formula_moiety         'C24 H15 Br2 N1 O2'
_chemical_name_systematic        
(2,4-bis(4-bromophenyl)-5-(2-hydroxyphenyl)-3-furyl)acetonitrile
_symmetry_cell_setting           triclinic
_symmetry_space_group_name_H-M   'P -1'
_symmetry_Int_Tables_number      2
_space_group_name_Hall           '-P 1'
loop_
_symmetry_equiv_pos_site_id
_symmetry_equiv_pos_as_xyz
1 x,y,z
2 -x,-y,-z
_cell_length_a                   6.0958(13)
_cell_length_b                   8.9005(18)
_cell_length_c                   18.462(4)
_cell_angle_alpha                91.851(6)
_cell_angle_beta                 94.524(7)
_cell_angle_gamma                94.956(7)
_cell_volume                     994.042
_exptl_crystal_colour            white
_exptl_crystal_description       block
_cell_formula_units_Z            2
loop_
_atom_site_label
_atom_site_type_symbol
_atom_site_fract_x
_atom_site_fract_y
_atom_site_fract_z
Br1 Br 0.00345(11) 0.72506(8) 0.41841(3)
Br2 Br 1.68198(11) 0.73051(7) 0.99637(3)
C1 C 0.5507(9) 0.8419(6) 0.6087(3)
O1 O 0.7235(6) 1.0178(4) 0.70093(18)
C2 C 0.7770(10) 1.2234(6) 0.8423(3)
H1 H 0.6425 1.1636 0.8471
C3 C 0.8769(8) 0.7994(6) 0.7026(3)
C4 C 1.1234(9) 1.2636(6) 0.7904(3)
C5 C 0.9186(9) 0.6371(6) 0.6892(3)
H2 H 0.9732 0.6248 0.6404
H3 H 1.0350 0.6097 0.7256
C6 C 0.7173(11) 0.5340(7) 0.6935(3)
C7 C 0.9280(9) 1.1733(5) 0.7969(3)
C8 C 0.4172(10) 0.7016(7) 0.4967(3)
H4 H 0.4392 0.6305 0.4591
C9 C 0.7204(9) 0.8778(6) 0.6678(3)
C10 C 1.1603(9) 0.8645(5) 0.8157(3)
C11 C 0.8215(12) 1.3607(7) 0.8809(3)
H5 H 0.7180 1.3948 0.9121
C12 C 1.3471(9) 0.7968(6) 0.7981(3)
H6 H 1.3684 0.7758 0.7485
C13 C 0.2249(10) 0.7716(6) 0.4962(3)
C14 C 1.0141(12) 1.4460(6) 0.8736(3)
H7 H 1.0433 1.5403 0.8997
C15 C 1.4764(9) 0.7910(6) 0.9227(3)
C16 C 1.5015(9) 0.7598(6) 0.8512(3)
H8 H 1.6268 0.7120 0.8380
C17 C 1.1664(10) 1.3989(6) 0.8295(3)
H9 H 1.3014 1.4590 0.8258
C18 C 1.2977(10) 0.8607(6) 0.9424(3)
H10 H 1.2802 0.8829 0.9921
C19 C 0.1944(10) 0.8755(6) 0.5490(3)
H11 H 0.0603 0.9227 0.5477
C20 C 0.8871(9) 1.0277(6) 0.7563(3)
C21 C 0.9867(9) 0.8978(6) 0.7604(3)
C22 C 0.3567(10) 0.9131(6) 0.6047(3)
H12 H 0.3354 0.9884 0.6405
C23 C 1.1427(10) 0.8985(6) 0.8887(3)
H13 H 1.0206 0.9493 0.9024
C24 C 0.5769(10) 0.7365(6) 0.5527(3)
H14 H 0.7095 0.6875 0.5536
N1 N 0.5597(11) 0.4596(6) 0.6974(3)
O2 O 1.2676(7) 1.2131(4) 0.7444(2)
H15 H 1.3577 1.2851 0.7349
loop_
_geom_bond_atom_site_label_1
_geom_bond_atom_site_label_2
_geom_bond_site_symmetry_1
_geom_bond_site_symmetry_2
Br1 C13 1_555 1_555
Br2 C15 1_555 1_555
C1 C9 1_555 1_555
O1 C9 1_555 1_555
C2 H1 1_555 1_555
C3 C5 1_555 1_555
C4 C7 1_555 1_555
C5 H2 1_555 1_555
H3 C5 1_555 1_555
C6 C5 1_555 1_555
C7 C2 1_555 1_555
C8 H4 1_555 1_555
C9 C3 1_555 1_555
C10 C12 1_555 1_555
C11 C2 1_555 1_555
H5 C11 1_555 1_555
C12 H6 1_555 1_555
C13 C8 1_555 1_555
C14 C11 1_555 1_555
H7 C14 1_555 1_555
C15 C16 1_555 1_555
C16 C12 1_555 1_555
H8 C16 1_555 1_555
C17 C4 1_555 1_555
H9 C17 1_555 1_555
C18 C15 1_555 1_555
H10 C18 1_555 1_555
C19 C13 1_555 1_555
H11 C19 1_555 1_555
C20 O1 1_555 1_555
C21 C3 1_555 1_555
C22 C1 1_555 1_555
H12 C22 1_555 1_555
C23 C10 1_555 1_555
H13 C23 1_555 1_555
C24 C1 1_555 1_555
H14 C24 1_555 1_555
N1 C6 1_555 1_555
O2 C4 1_555 1_555
H15 O2 1_555 1_555
C7 C20 1_555 1_555
C8 C24 1_555 1_555
C10 C21 1_555 1_555
C14 C17 1_555 1_555
C18 C23 1_555 1_555
C19 C22 1_555 1_555
C20 C21 1_555 1_555

#END
