
#######################################################################
#
#                 Cambridge Crystallographic Data Centre
#                                CCDC 
#
#######################################################################
#
# If this CIF has been generated from an entry in the Cambridge 
# Structural Database, then it will include bibliographic, chemical, 
# crystal, experimental, refinement or atomic coordinate data resulting 
# from the CCDC's data processing and validation procedures.
#
#######################################################################

data_ITOTIW
_chemical_formula_moiety         'C19 H14 N2'
_chemical_name_systematic        2,3-diphenylimidazo[1,2-a]pyridine
_symmetry_cell_setting           orthorhombic
_symmetry_space_group_name_H-M   'P 21 21 21'
_symmetry_Int_Tables_number      19
_space_group_name_Hall           'P 2ac 2ab'
loop_
_symmetry_equiv_pos_site_id
_symmetry_equiv_pos_as_xyz
1 x,y,z
2 1/2-x,-y,1/2+z
3 -x,1/2+y,1/2-z
4 1/2+x,1/2-y,-z
_cell_length_a                   7.9203(2)
_cell_length_b                   10.4738(3)
_cell_length_c                   16.8627(6)
_cell_angle_alpha                90
_cell_angle_beta                 90
_cell_angle_gamma                90
_cell_volume                     1398.86
_exptl_crystal_colour            yellow
_exptl_crystal_description       block
_cell_formula_units_Z            4
loop_
_atom_site_label
_atom_site_type_symbol
_atom_site_fract_x
_atom_site_fract_y
_atom_site_fract_z
N1 N 0.4718(3) 0.3528(2) 0.19567(16)
N2 N 0.7067(4) 0.4297(3) 0.14013(16)
C1 C 0.8831(4) 0.4782(3) 0.25667(19)
C2 C 0.3055(4) 0.3109(3) 0.1953(2)
H1 H 0.2491 0.2948 0.2427
C3 C 0.7236(4) 0.4305(3) 0.22187(19)
C4 C 0.4644(5) 0.2476(3) 0.3668(2)
H2 H 0.4525 0.1807 0.3310
C5 C 0.5811(4) 0.3836(3) 0.25832(19)
C6 C 0.3093(5) 0.3198(4) 0.0540(2)
H3 H 0.2529 0.3066 0.0063
C7 C 0.9447(4) 0.4373(3) 0.3300(2)
H4 H 0.8849 0.3774 0.3594
C8 C 0.5555(4) 0.3829(3) 0.1257(2)
C9 C 0.5339(4) 0.3630(3) 0.34178(19)
C10 C 0.5581(4) 0.4594(3) 0.3978(2)
H5 H 0.6064 0.5364 0.3825
C11 C 0.4717(5) 0.3646(3) 0.0527(2)
H6 H 0.5254 0.3824 0.0050
C12 C 1.1258(5) 0.6151(3) 0.2434(2)
H7 H 1.1864 0.6751 0.2144
C13 C 0.2269(5) 0.2938(4) 0.1248(2)
H8 H 0.1162 0.2642 0.1238
C14 C 0.9761(4) 0.5666(3) 0.2137(2)
H9 H 0.9374 0.5935 0.1644
C15 C 0.4134(5) 0.2320(4) 0.4442(2)
H10 H 0.3635 0.1558 0.4601
C16 C 1.0955(5) 0.4863(3) 0.3586(2)
H11 H 1.1364 0.4588 0.4075
C17 C 1.1850(5) 0.5747(4) 0.3159(3)
H12 H 1.2855 0.6073 0.3359
C18 C 0.5109(5) 0.4411(4) 0.4753(2)
H13 H 0.5300 0.5052 0.5124
C19 C 0.4360(5) 0.3294(4) 0.4984(2)
H14 H 0.4004 0.3191 0.5506
loop_
_geom_bond_atom_site_label_1
_geom_bond_atom_site_label_2
_geom_bond_site_symmetry_1
_geom_bond_site_symmetry_2
N1 C2 1_555 1_555
N2 C3 1_555 1_555
C1 C3 1_555 1_555
C2 H1 1_555 1_555
C3 C5 1_555 1_555
C4 H2 1_555 1_555
C5 N1 1_555 1_555
C6 H3 1_555 1_555
C7 C1 1_555 1_555
H4 C7 1_555 1_555
C8 N1 1_555 1_555
C9 C4 1_555 1_555
C10 C9 1_555 1_555
H5 C10 1_555 1_555
C11 C6 1_555 1_555
H6 C11 1_555 1_555
C12 H7 1_555 1_555
C13 C2 1_555 1_555
H8 C13 1_555 1_555
C14 C1 1_555 1_555
H9 C14 1_555 1_555
C15 C4 1_555 1_555
H10 C15 1_555 1_555
C16 C7 1_555 1_555
H11 C16 1_555 1_555
C17 C12 1_555 1_555
H12 C17 1_555 1_555
C18 C10 1_555 1_555
H13 C18 1_555 1_555
C19 C15 1_555 1_555
H14 C19 1_555 1_555
N2 C8 1_555 1_555
C5 C9 1_555 1_555
C6 C13 1_555 1_555
C8 C11 1_555 1_555
C12 C14 1_555 1_555
C16 C17 1_555 1_555
C18 C19 1_555 1_555

#END
