
#######################################################################
#
#                 Cambridge Crystallographic Data Centre
#                                CCDC 
#
#######################################################################
#
# If this CIF has been generated from an entry in the Cambridge 
# Structural Database, then it will include bibliographic, chemical, 
# crystal, experimental, refinement or atomic coordinate data resulting 
# from the CCDC's data processing and validation procedures.
#
#######################################################################

data_ITOVOE02
_chemical_formula_moiety         'C36 H40 N6 O4,6(C1 H1 Cl3)'
_chemical_name_systematic        
'4-(4-(2,6-bis(4,4-dimethyl-4,5-dihydro-1,3-oxazol-2-yl)pyridin-4-yl)phenyl)-2,6-bis(4,4-dimethyl-4,5-dihydro-1,3-oxazol-2-yl)pyridine chloroform solvate'
_symmetry_cell_setting           triclinic
_symmetry_space_group_name_H-M   'P -1'
_symmetry_Int_Tables_number      2
_space_group_name_Hall           '-P 1'
loop_
_symmetry_equiv_pos_site_id
_symmetry_equiv_pos_as_xyz
1 x,y,z
2 -x,-y,-z
_cell_length_a                   9.824(2)
_cell_length_b                   10.344(2)
_cell_length_c                   15.141(3)
_cell_angle_alpha                88.40(3)
_cell_angle_beta                 73.13(3)
_cell_angle_gamma                88.03(3)
_cell_volume                     1471.28
_exptl_crystal_colour            colorless
_exptl_crystal_description       Prism
_cell_formula_units_Z            1
_exptl_crystal_recrystallization_method chloroform
loop_
_atom_site_label
_atom_site_type_symbol
_atom_site_fract_x
_atom_site_fract_y
_atom_site_fract_z
O1 O -0.75853(13) 0.19544(15) 0.21468(9)
O2 O -0.67642(13) 0.22325(14) -0.09256(9)
N1 N -0.58745(15) 0.21889(16) 0.28561(10)
N2 N -0.56705(14) 0.19305(14) 0.04760(9)
N3 N -0.46211(16) 0.19718(16) -0.19988(10)
C1 C -0.7323(3) 0.3657(3) 0.40464(19)
H1 H -0.6555 0.3708 0.4337
H2 H -0.8244 0.3768 0.4516
H3 H -0.7220 0.4341 0.3573
C2 C -0.7341(3) 0.1254(3) 0.43019(19)
H4 H -0.7323 0.0424 0.4001
H5 H -0.8230 0.1350 0.4802
H6 H -0.6532 0.1279 0.4556
C3 C -0.72444(18) 0.23450(19) 0.36038(12)
C4 C -0.8374(2) 0.2275(3) 0.30816(14)
H7 H -0.9070 0.1601 0.3360
H8 H -0.8890 0.3117 0.3097
C5 C -0.61934(17) 0.19685(16) 0.21199(11)
C6 C -0.51672(17) 0.17152(16) 0.12004(11)
C7 C -0.37897(17) 0.12559(16) 0.11250(11)
H9 H -0.3477 0.1136 0.1660
C8 C -0.28719(17) 0.09737(16) 0.02516(11)
C9 C -0.33953(17) 0.11908(16) -0.05058(11)
H10 H -0.2815 0.1007 -0.1112
C10 C -0.47776(17) 0.16800(16) -0.03612(11)
C11 C -0.53481(17) 0.19573(16) -0.11523(11)
C12 C -0.7096(2) 0.2326(2) -0.17996(13)
H11 H -0.7669 0.3122 -0.1834
H12 H -0.7628 0.1567 -0.1884
C13 C -0.5633(2) 0.23674(18) -0.25328(12)
C14 C -0.5279(2) 0.3728(2) -0.29173(14)
H13 H -0.5412 0.4326 -0.2406
H14 H -0.5909 0.3995 -0.3290
H15 H -0.4288 0.3740 -0.3303
C15 C -0.5504(3) 0.1423(2) -0.33098(14)
H16 H -0.4560 0.1484 -0.3758
H17 H -0.6236 0.1637 -0.3617
H18 H -0.5632 0.0539 -0.3054
C16 C -0.14000(17) 0.04695(16) 0.01249(11)
C17 C -0.05662(17) 0.09494(17) 0.06422(11)
H19 H -0.0953 0.1599 0.1083
C18 C -0.08207(17) -0.04899(17) -0.05207(11)
H20 H -0.1375 -0.0827 -0.0876
O1A O 0.75853(13) -0.19544(15) -0.21468(9)
O2A O 0.67642(13) -0.22325(14) 0.09256(9)
N1A N 0.58745(15) -0.21889(16) -0.28561(10)
N2A N 0.56705(14) -0.19305(14) -0.04760(9)
N3A N 0.46211(16) -0.19718(16) 0.19988(10)
C1A C 0.7323(3) -0.3657(3) -0.40464(19)
H1A H 0.6555 -0.3708 -0.4337
H2A H 0.8244 -0.3768 -0.4516
H3A H 0.7220 -0.4341 -0.3573
C2A C 0.7341(3) -0.1254(3) -0.43019(19)
H4A H 0.7323 -0.0424 -0.4001
H5A H 0.8230 -0.1350 -0.4802
H6A H 0.6532 -0.1279 -0.4556
C3A C 0.72444(18) -0.23450(19) -0.36038(12)
C4A C 0.8374(2) -0.2275(3) -0.30816(14)
H7A H 0.9070 -0.1601 -0.3360
H8A H 0.8890 -0.3117 -0.3097
C5A C 0.61934(17) -0.19685(16) -0.21199(11)
C6A C 0.51672(17) -0.17152(16) -0.12004(11)
C7A C 0.37897(17) -0.12559(16) -0.11250(11)
H9A H 0.3477 -0.1136 -0.1660
C8A C 0.28719(17) -0.09737(16) -0.02516(11)
C9A C 0.33953(17) -0.11908(16) 0.05058(11)
H10A H 0.2815 -0.1007 0.1112
C10A C 0.47776(17) -0.16800(16) 0.03612(11)
C11A C 0.53481(17) -0.19573(16) 0.11523(11)
C12A C 0.7096(2) -0.2326(2) 0.17996(13)
H11A H 0.7669 -0.3122 0.1834
H12A H 0.7628 -0.1567 0.1884
C13A C 0.5633(2) -0.23674(18) 0.25328(12)
C14A C 0.5279(2) -0.3728(2) 0.29173(14)
H13A H 0.5412 -0.4326 0.2406
H14A H 0.5909 -0.3995 0.3290
H15A H 0.4288 -0.3740 0.3303
C15A C 0.5504(3) -0.1423(2) 0.33098(14)
H16A H 0.4560 -0.1484 0.3758
H17A H 0.6236 -0.1637 0.3617
H18A H 0.5632 -0.0539 0.3054
C16A C 0.14000(17) -0.04695(16) -0.01249(11)
C17A C 0.05662(17) -0.09494(17) -0.06422(11)
H19A H 0.0953 -0.1599 -0.1083
C18A C 0.08207(17) 0.04899(17) 0.05207(11)
H20A H 0.1375 0.0827 0.0876
Cl1 Cl 0.05862(6) 0.45261(10) 0.09823(5)
Cl2 Cl 0.29011(7) 0.54916(6) -0.04938(4)
Cl3 Cl 0.31891(7) 0.52307(6) 0.13508(4)
C19 C 0.2436(2) 0.45760(19) 0.05436(13)
H21 H 0.2822 0.3673 0.0410
Cl4 Cl 0.80727(7) 0.34144(7) 0.26639(4)
Cl5 Cl 0.74444(9) 0.12314(6) 0.39209(6)
Cl6 Cl 0.63718(7) 0.37812(6) 0.45409(4)
C20 C 0.6796(2) 0.2725(2) 0.36033(13)
H22 H 0.5916 0.2578 0.3419
Cl7 Cl 0.86951(7) 0.23433(9) 0.58019(5)
Cl8 Cl 1.02703(10) 0.38021(8) 0.67324(6)
Cl9 Cl 0.97952(8) 0.11159(8) 0.72024(6)
C21 C 0.9082(2) 0.2542(2) 0.68442(15)
H23 H 0.8178 0.2778 0.7327
loop_
_geom_bond_atom_site_label_1
_geom_bond_atom_site_label_2
_geom_bond_site_symmetry_1
_geom_bond_site_symmetry_2
O1 C4 1_555 1_555
O2 C11 1_555 1_555
N1 C3 1_555 1_555
N2 C6 1_555 1_555
N3 C11 1_555 1_555
C1 H1 1_555 1_555
H2 C1 1_555 1_555
H3 C1 1_555 1_555
C2 H4 1_555 1_555
H5 C2 1_555 1_555
H6 C2 1_555 1_555
C3 C1 1_555 1_555
C4 C3 1_555 1_555
H7 C4 1_555 1_555
H8 C4 1_555 1_555
C5 O1 1_555 1_555
C6 C5 1_555 1_555
C7 C6 1_555 1_555
H9 C7 1_555 1_555
C8 C7 1_555 1_555
C9 C8 1_555 1_555
H10 C9 1_555 1_555
C10 N2 1_555 1_555
C11 C10 1_555 1_555
C12 O2 1_555 1_555
H11 C12 1_555 1_555
H12 C12 1_555 1_555
C13 N3 1_555 1_555
C14 C13 1_555 1_555
H13 C14 1_555 1_555
H14 C14 1_555 1_555
H15 C14 1_555 1_555
C15 C13 1_555 1_555
H16 C15 1_555 1_555
H17 C15 1_555 1_555
H18 C15 1_555 1_555
C16 C8 1_555 1_555
C17 C16 1_555 1_555
H19 C17 1_555 1_555
C18 C16 1_555 1_555
H20 C18 1_555 1_555
Cl1 C19 1_555 1_555
Cl2 C19 1_555 1_555
Cl3 C19 1_555 1_555
C19 H21 1_555 1_555
Cl4 C20 1_555 1_555
Cl5 C20 1_555 1_555
Cl6 C20 1_555 1_555
C20 H22 1_555 1_555
Cl7 C21 1_555 1_555
Cl8 C21 1_555 1_555
Cl9 C21 1_555 1_555
C21 H23 1_555 1_555
O1A C4A 1_555 1_555
O2A C11A 1_555 1_555
N1A C3A 1_555 1_555
N2A C6A 1_555 1_555
N3A C11A 1_555 1_555
C1A H1A 1_555 1_555
H2A C1A 1_555 1_555
H3A C1A 1_555 1_555
C2A H4A 1_555 1_555
H5A C2A 1_555 1_555
H6A C2A 1_555 1_555
C3A C1A 1_555 1_555
C4A C3A 1_555 1_555
H7A C4A 1_555 1_555
H8A C4A 1_555 1_555
C5A O1A 1_555 1_555
C6A C5A 1_555 1_555
C7A C6A 1_555 1_555
H9A C7A 1_555 1_555
C8A C7A 1_555 1_555
C9A C8A 1_555 1_555
H10A C9A 1_555 1_555
C10A N2A 1_555 1_555
C11A C10A 1_555 1_555
C12A O2A 1_555 1_555
H11A C12A 1_555 1_555
H12A C12A 1_555 1_555
C13A N3A 1_555 1_555
C14A C13A 1_555 1_555
H13A C14A 1_555 1_555
H14A C14A 1_555 1_555
H15A C14A 1_555 1_555
C15A C13A 1_555 1_555
H16A C15A 1_555 1_555
H17A C15A 1_555 1_555
H18A C15A 1_555 1_555
C16A C8A 1_555 1_555
C17A C18 1_555 1_555
H19A C17A 1_555 1_555
C18A C17 1_555 1_555
H20A C18A 1_555 1_555
N1 C5 1_555 1_555
C2 C3 1_555 1_555
C9 C10 1_555 1_555
C12 C13 1_555 1_555
N1A C5A 1_555 1_555
C2A C3A 1_555 1_555
C9A C10A 1_555 1_555
C12A C13A 1_555 1_555
C16A C17A 1_555 1_555
C16A C18A 1_555 1_555

#END
