
#######################################################################
#
#                 Cambridge Crystallographic Data Centre
#                                CCDC 
#
#######################################################################
#
# If this CIF has been generated from an entry in the Cambridge 
# Structural Database, then it will include bibliographic, chemical, 
# crystal, experimental, refinement or atomic coordinate data resulting 
# from the CCDC's data processing and validation procedures.
#
#######################################################################

data_ITOVUK02
_chemical_formula_moiety         'C48 H48 N6 O4,2(C1 H4 O1)'
_chemical_name_systematic        
"4-(4''-(2,6-bis(4,4-dimethyl-4,5-dihydro-1,3-oxazol-2-yl)pyridin-4-yl)-1,1':4',1''-terphenyl-4-yl)-2,6-bis(4,4-dimethyl-4,5-dihydro-1,3-oxazol-2-yl)pyridine methanol solvate"
_symmetry_cell_setting           triclinic
_symmetry_space_group_name_H-M   'P -1'
_symmetry_Int_Tables_number      2
_space_group_name_Hall           '-P 1'
loop_
_symmetry_equiv_pos_site_id
_symmetry_equiv_pos_as_xyz
1 x,y,z
2 -x,-y,-z
_cell_length_a                   10.240(2)
_cell_length_b                   10.250(2)
_cell_length_c                   12.374(3)
_cell_angle_alpha                86.03(3)
_cell_angle_beta                 67.18(3)
_cell_angle_gamma                69.76(3)
_cell_volume                     1120.03
_exptl_crystal_colour            colorless
_exptl_crystal_description       plate
_cell_formula_units_Z            1
loop_
_atom_site_label
_atom_site_type_symbol
_atom_site_fract_x
_atom_site_fract_y
_atom_site_fract_z
O1 O -0.10345(14) 0.73517(15) 0.82892(11)
O2 O 0.13353(13) 0.54011(13) 0.43914(10)
N1 N -0.02416(18) 0.88834(18) 0.88557(13)
N2 N 0.13122(15) 0.68735(14) 0.61185(12)
N3 N 0.33589(17) 0.57980(16) 0.30442(12)
C1 C -0.1306(2) 0.8351(2) 1.08946(17)
H1 H -0.0583 0.7423 1.0664
H2 H -0.2210 0.8322 1.1525
H3 H -0.0891 0.8917 1.1153
C2 C -0.2724(3) 1.0482(2) 1.01522(19)
H4 H -0.2252 1.1014 1.0382
H5 H -0.3655 1.0532 1.0789
H6 H -0.2926 1.0855 0.9477
C3 C -0.1679(2) 0.8973(2) 0.98501(15)
C4 C -0.2295(2) 0.8092(2) 0.93489(16)
H7 H -0.2620 0.7442 0.9906
H8 H -0.3142 0.8684 0.9166
C5 C 0.00015(19) 0.79733(18) 0.80973(14)
C6 C 0.13539(18) 0.75610(17) 0.69793(14)
C7 C 0.25615(18) 0.79603(17) 0.68779(14)
H9 H 0.2532 0.8419 0.7514
C8 C 0.38139(17) 0.76700(17) 0.58198(14)
C9 C 0.37682(18) 0.69827(17) 0.49068(14)
H10 H 0.4569 0.6774 0.4177
C10 C 0.25147(17) 0.66116(16) 0.50964(13)
C11 C 0.24515(17) 0.59182(16) 0.41092(14)
C12 C 0.1605(2) 0.4660(2) 0.33158(15)
H11 H 0.0701 0.4954 0.3146
H12 H 0.1922 0.3660 0.3383
C13 C 0.2875(2) 0.50619(18) 0.23534(14)
C14 C 0.2295(3) 0.6070(2) 0.15429(19)
H13 H 0.1440 0.6848 0.2006
H14 H 0.2000 0.5601 0.1081
H15 H 0.3080 0.6397 0.1031
C15 C 0.4208(2) 0.3802(2) 0.16564(17)
H16 H 0.5016 0.4099 0.1142
H17 H 0.3909 0.3331 0.1199
H18 H 0.4543 0.3179 0.2187
C16 C 0.51074(18) 0.81172(17) 0.56623(14)
C17 C 0.65551(19) 0.74331(18) 0.48323(15)
H19 H 0.6729 0.6662 0.4373
C18 C 0.77356(18) 0.78855(18) 0.46819(16)
H20 H 0.8692 0.7412 0.4123
C19 C 0.75194(18) 0.90413(17) 0.53542(14)
C20 C 0.60709(18) 0.97202(17) 0.61954(14)
H21 H 0.5899 1.0482 0.6663
C21 C 0.48885(18) 0.92684(17) 0.63388(14)
H22 H 0.3931 0.9741 0.6896
C22 C 0.87847(17) 0.95353(17) 0.51767(15)
C23 C 0.99434(18) 0.93900(18) 0.40659(15)
H23 H 0.9913 0.8984 0.3431
C24 C 1.11334(18) 0.98395(18) 0.38947(15)
H24 H 1.1892 0.9723 0.3148
O1A O 2.10345(14) 1.26483(15) 0.17108(11)
O2A O 1.86647(13) 1.45989(13) 0.56086(10)
N1A N 2.02416(18) 1.11166(18) 0.11443(13)
N2A N 1.86878(15) 1.31265(14) 0.38815(12)
N3A N 1.66411(17) 1.42020(16) 0.69558(12)
C1A C 2.1306(2) 1.1649(2) -0.08946(17)
H1A H 2.0583 1.2577 -0.0664
H2A H 2.2210 1.1678 -0.1525
H3A H 2.0891 1.1083 -0.1153
C2A C 2.2724(3) 0.9518(2) -0.01522(19)
H4A H 2.2252 0.8986 -0.0382
H5A H 2.3655 0.9468 -0.0789
H6A H 2.2926 0.9145 0.0523
C3A C 2.1679(2) 1.1027(2) 0.01499(15)
C4A C 2.2295(2) 1.1908(2) 0.06511(16)
H7A H 2.2620 1.2558 0.0094
H8A H 2.3142 1.1316 0.0834
C5A C 1.99985(19) 1.20267(18) 0.19027(14)
C6A C 1.86461(18) 1.24390(17) 0.30207(14)
C7A C 1.74385(18) 1.20397(17) 0.31221(14)
H9A H 1.7468 1.1581 0.2486
C8A C 1.61861(17) 1.23300(17) 0.41802(14)
C9A C 1.62318(18) 1.30173(17) 0.50932(14)
H10A H 1.5431 1.3226 0.5823
C10A C 1.74853(17) 1.33884(16) 0.49036(13)
C11A C 1.75485(17) 1.40818(16) 0.58908(14)
C12A C 1.8395(2) 1.5340(2) 0.66842(15)
H11A H 1.9299 1.5046 0.6854
H12A H 1.8078 1.6340 0.6617
C13A C 1.7125(2) 1.49381(18) 0.76466(14)
C14A C 1.7705(3) 1.3930(2) 0.84571(19)
H13A H 1.8560 1.3152 0.7994
H14A H 1.8000 1.4399 0.8919
H15A H 1.6920 1.3603 0.8969
C15A C 1.5792(2) 1.6198(2) 0.83436(17)
H16A H 1.4984 1.5901 0.8858
H17A H 1.6091 1.6669 0.8801
H18A H 1.5457 1.6821 0.7813
C16A C 1.48926(18) 1.18828(17) 0.43377(14)
C17A C 1.34449(19) 1.25669(18) 0.51677(15)
H19A H 1.3271 1.3338 0.5627
C18A C 1.22644(18) 1.21145(18) 0.53181(16)
H20A H 1.1308 1.2588 0.5877
C19A C 1.24806(18) 1.09587(17) 0.46458(14)
C20A C 1.39291(18) 1.02798(17) 0.38046(14)
H21A H 1.4101 0.9518 0.3337
C21A C 1.51115(18) 1.07316(17) 0.36612(14)
H22A H 1.6069 1.0259 0.3104
C22A C 1.12153(17) 1.04647(17) 0.48233(15)
C23A C 1.00566(18) 1.06100(18) 0.59341(15)
H23A H 1.0087 1.1016 0.6569
C24A C 0.88666(18) 1.01605(18) 0.61053(15)
H24A H 0.8108 1.0277 0.6852
O3 O 0.58849(18) 0.66445(18) 0.18042(16)
H25 H 0.5089 0.6489 0.2090
C25 C 0.7083(3) 0.5443(3) 0.1821(2)
H26 H 0.7356 0.4781 0.1189
H27 H 0.6769 0.5035 0.2557
H28 H 0.7938 0.5696 0.1727
loop_
_geom_bond_atom_site_label_1
_geom_bond_atom_site_label_2
_geom_bond_site_symmetry_1
_geom_bond_site_symmetry_2
O1 C4 1_555 1_555
O2 C11 1_555 1_555
N1 C3 1_555 1_555
N2 C6 1_555 1_555
N3 C11 1_555 1_555
C1 H1 1_555 1_555
H2 C1 1_555 1_555
H3 C1 1_555 1_555
C2 H4 1_555 1_555
H5 C2 1_555 1_555
H6 C2 1_555 1_555
C3 C1 1_555 1_555
C4 C3 1_555 1_555
H7 C4 1_555 1_555
H8 C4 1_555 1_555
C5 O1 1_555 1_555
C6 C5 1_555 1_555
C7 C6 1_555 1_555
H9 C7 1_555 1_555
C8 C7 1_555 1_555
C9 C8 1_555 1_555
H10 C9 1_555 1_555
C10 N2 1_555 1_555
C11 C10 1_555 1_555
C12 O2 1_555 1_555
H11 C12 1_555 1_555
H12 C12 1_555 1_555
C13 N3 1_555 1_555
C14 C13 1_555 1_555
H13 C14 1_555 1_555
H14 C14 1_555 1_555
H15 C14 1_555 1_555
C15 C13 1_555 1_555
H16 C15 1_555 1_555
H17 C15 1_555 1_555
H18 C15 1_555 1_555
C16 C8 1_555 1_555
C17 C16 1_555 1_555
H19 C17 1_555 1_555
C18 C17 1_555 1_555
H20 C18 1_555 1_555
C19 C18 1_555 1_555
C20 C19 1_555 1_555
H21 C20 1_555 1_555
C21 C16 1_555 1_555
H22 C21 1_555 1_555
C22 C19 1_555 1_555
C23 C22 1_555 1_555
H23 C23 1_555 1_555
C24 C23 1_555 1_555
H24 C24 1_555 1_555
O3 H25 1_555 1_555
C25 O3 1_555 1_555
H26 C25 1_555 1_555
H27 C25 1_555 1_555
H28 C25 1_555 1_555
O1A C4A 1_555 1_555
O2A C11A 1_555 1_555
N1A C3A 1_555 1_555
N2A C6A 1_555 1_555
N3A C11A 1_555 1_555
C1A H1A 1_555 1_555
H2A C1A 1_555 1_555
H3A C1A 1_555 1_555
C2A H4A 1_555 1_555
H5A C2A 1_555 1_555
H6A C2A 1_555 1_555
C3A C1A 1_555 1_555
C4A C3A 1_555 1_555
H7A C4A 1_555 1_555
H8A C4A 1_555 1_555
C5A O1A 1_555 1_555
C6A C5A 1_555 1_555
C7A C6A 1_555 1_555
H9A C7A 1_555 1_555
C8A C7A 1_555 1_555
C9A C8A 1_555 1_555
H10A C9A 1_555 1_555
C10A N2A 1_555 1_555
C11A C10A 1_555 1_555
C12A O2A 1_555 1_555
H11A C12A 1_555 1_555
H12A C12A 1_555 1_555
C13A N3A 1_555 1_555
C14A C13A 1_555 1_555
H13A C14A 1_555 1_555
H14A C14A 1_555 1_555
H15A C14A 1_555 1_555
C15A C13A 1_555 1_555
H16A C15A 1_555 1_555
H17A C15A 1_555 1_555
H18A C15A 1_555 1_555
C16A C8A 1_555 1_555
C17A C16A 1_555 1_555
H19A C17A 1_555 1_555
C18A C17A 1_555 1_555
H20A C18A 1_555 1_555
C19A C18A 1_555 1_555
C20A C19A 1_555 1_555
H21A C20A 1_555 1_555
C21A C16A 1_555 1_555
H22A C21A 1_555 1_555
C22A C24 1_555 1_555
C23A C22A 1_555 1_555
H23A C23A 1_555 1_555
C24A C22 1_555 1_555
H24A C24A 1_555 1_555
N1 C5 1_555 1_555
C2 C3 1_555 1_555
C9 C10 1_555 1_555
C12 C13 1_555 1_555
C20 C21 1_555 1_555
N1A C5A 1_555 1_555
C2A C3A 1_555 1_555
C9A C10A 1_555 1_555
C12A C13A 1_555 1_555
C19A C22A 1_555 1_555
C20A C21A 1_555 1_555
C23A C24A 1_555 1_555

#END
