
#######################################################################
#
#                 Cambridge Crystallographic Data Centre
#                                CCDC 
#
#######################################################################
#
# If this CIF has been generated from an entry in the Cambridge 
# Structural Database, then it will include bibliographic, chemical, 
# crystal, experimental, refinement or atomic coordinate data resulting 
# from the CCDC's data processing and validation procedures.
#
#######################################################################

data_ITOVET
_chemical_formula_moiety         'C9 H9 Cl2 N3 O2'
_chemical_name_systematic        
2,2-bis(chloromethyl)-5-nitro-2,3-dihydro-1H-benzimidazole
_symmetry_cell_setting           monoclinic
_symmetry_space_group_name_H-M   'P 21/n'
_symmetry_Int_Tables_number      14
_space_group_name_Hall           '-P 2yn'
loop_
_symmetry_equiv_pos_site_id
_symmetry_equiv_pos_as_xyz
1 x,y,z
2 1/2-x,1/2+y,1/2-z
3 -x,-y,-z
4 1/2+x,1/2-y,1/2+z
_cell_length_a                   5.6284(2)
_cell_length_b                   12.5878(4)
_cell_length_c                   15.9350(4)
_cell_angle_alpha                90
_cell_angle_beta                 98.913(2)
_cell_angle_gamma                90
_cell_volume                     1115.35
_cell_formula_units_Z            4
loop_
_atom_site_label
_atom_site_type_symbol
_atom_site_fract_x
_atom_site_fract_y
_atom_site_fract_z
C1 C 0.5812(4) 0.12482(17) 0.17174(14)
C2 C 0.4245(4) 0.05095(18) 0.28529(14)
C3 C 0.3500(4) 0.08537(17) 0.13972(13)
C4 C 0.2580(4) 0.09122(17) 0.05606(14)
H1 H 0.1066 0.0644 0.0350
C5 C 0.4024(4) 0.13980(17) 0.00262(14)
C6 C 0.6264(4) 0.1810(2) 0.03259(16)
H2 H 0.7154 0.2138 -0.0046
C7 C 0.7191(4) 0.1735(2) 0.11814(16)
H3 H 0.8705 0.2005 0.1390
C8 C 0.5022(5) -0.0615(2) 0.31423(16)
H4 H 0.6184 -0.0576 0.3659
H5 H 0.5791 -0.0956 0.2709
C9 C 0.3235(5) 0.1148(2) 0.35278(16)
H6 H 0.1809 0.0796 0.3664
H7 H 0.2764 0.1846 0.3304
Cl1 Cl 0.25032(15) -0.13886(6) 0.33316(5)
Cl2 Cl 0.53704(15) 0.12883(6) 0.44722(4)
N1 N 0.6298(3) 0.10462(18) 0.25720(13)
H8 H 0.7614 0.1210 0.2896
N2 N 0.2455(3) 0.04972(17) 0.20859(12)
H9 H 0.0982 0.0301 0.2061
N3 N 0.3092(4) 0.14760(17) -0.08673(13)
O1 O 0.4255(4) 0.19646(19) -0.13403(12)
O2 O 0.1144(4) 0.10722(19) -0.11339(13)
loop_
_geom_bond_atom_site_label_1
_geom_bond_atom_site_label_2
_geom_bond_site_symmetry_1
_geom_bond_site_symmetry_2
C1 C3 1_555 1_555
C2 C8 1_555 1_555
C3 C4 1_555 1_555
C4 H1 1_555 1_555
C5 C4 1_555 1_555
C6 C5 1_555 1_555
H2 C6 1_555 1_555
C7 C1 1_555 1_555
H3 C7 1_555 1_555
C8 H4 1_555 1_555
H5 C8 1_555 1_555
C9 C2 1_555 1_555
H6 C9 1_555 1_555
H7 C9 1_555 1_555
Cl1 C8 1_555 1_555
Cl2 C9 1_555 1_555
N1 C1 1_555 1_555
H8 N1 1_555 1_555
N2 C2 1_555 1_555
H9 N2 1_555 1_555
N3 C5 1_555 1_555
O1 N3 1_555 1_555
O2 N3 1_555 1_555
C2 N1 1_555 1_555
C3 N2 1_555 1_555
C6 C7 1_555 1_555

#END
