
#######################################################################
#
#                 Cambridge Crystallographic Data Centre
#                                CCDC 
#
#######################################################################
#
# If this CIF has been generated from an entry in the Cambridge 
# Structural Database, then it will include bibliographic, chemical, 
# crystal, experimental, refinement or atomic coordinate data resulting 
# from the CCDC's data processing and validation procedures.
#
#######################################################################

data_ITOWUK
_chemical_formula_moiety         'C19 H10 Cl2 F3 N5 O1 S1'
_chemical_name_systematic        
N-((3-Cyano-1-(2,6-dichloro-4-(trifluoromethyl)phenyl)-1H-pyrazol-5-yl)carbamothioyl)benzamide
_symmetry_cell_setting           monoclinic
_symmetry_space_group_name_H-M   'P 21/n'
_symmetry_Int_Tables_number      14
_space_group_name_Hall           '-P 2yn'
loop_
_symmetry_equiv_pos_site_id
_symmetry_equiv_pos_as_xyz
1 x,y,z
2 1/2-x,1/2+y,1/2-z
3 -x,-y,-z
4 1/2+x,1/2-y,1/2+z
_cell_length_a                   16.0963(13)
_cell_length_b                   7.7108(6)
_cell_length_c                   16.9650(13)
_cell_angle_alpha                90
_cell_angle_beta                 90.322(2)
_cell_angle_gamma                90
_cell_volume                     2105.58
_exptl_crystal_colour            colorless
_exptl_crystal_description       block
_cell_formula_units_Z            4
loop_
_atom_site_label
_atom_site_type_symbol
_atom_site_fract_x
_atom_site_fract_y
_atom_site_fract_z
Cl1 Cl 0.58986(7) 0.59190(18) 0.42657(7)
Cl2 Cl 0.68176(11) -0.01263(18) 0.55877(9)
S1 S 0.84447(8) 0.1481(2) 0.26163(7)
F1 F 0.6688(5) 0.6844(8) 0.7280(3)
F2 F 0.6726(5) 0.4510(8) 0.7798(2)
F3 F 0.5643(3) 0.5579(11) 0.7525(3)
O1 O 0.8699(2) 0.2394(6) 0.52262(19)
N1 N 0.4610(3) -0.0520(7) 0.2420(3)
N2 N 0.5543(2) 0.1631(5) 0.3978(2)
N3 N 0.6294(2) 0.2135(5) 0.4261(2)
N4 N 0.7733(2) 0.2031(6) 0.4017(2)
N5 N 0.9150(2) 0.2262(5) 0.3966(2)
C1 C 1.1746(4) 0.2962(9) 0.5625(4)
H1 H 1.2284 0.3070 0.5820
C2 C 1.1109(4) 0.2519(8) 0.6117(4)
H2 H 1.1213 0.2331 0.6650
C3 C 1.0317(3) 0.2351(7) 0.5824(3)
H3 H 0.9887 0.2054 0.6162
C4 C 1.0150(3) 0.2616(6) 0.5037(3)
C5 C 1.0797(3) 0.3069(8) 0.4549(3)
H4 H 1.0699 0.3259 0.4015
C6 C 1.1583(3) 0.3240(10) 0.4850(4)
H5 H 1.2014 0.3554 0.4516
C7 C 0.9279(3) 0.2422(6) 0.4764(3)
C8 C 0.8416(3) 0.1933(6) 0.3560(3)
C9 C 0.6927(3) 0.1647(6) 0.3780(3)
C10 C 0.6580(3) 0.0814(7) 0.3157(3)
H6 H 0.6848 0.0340 0.2723
C11 C 0.5731(3) 0.0830(6) 0.3315(3)
C12 C 0.5089(3) 0.0089(8) 0.2828(3)
C13 C 0.6344(2) 0.2963(6) 0.5009(2)
C14 C 0.6150(2) 0.4712(6) 0.5088(2)
C15 C 0.6155(3) 0.5480(6) 0.5820(3)
H7 H 0.6010 0.6642 0.5873
C16 C 0.6374(3) 0.4525(6) 0.6472(3)
C17 C 0.6588(3) 0.2806(7) 0.6407(3)
H8 H 0.6747 0.2174 0.6849
C18 C 0.6563(3) 0.2036(6) 0.5676(3)
C19 C 0.6369(4) 0.5369(10) 0.7257(3)
H9 H 0.781(4) 0.224(8) 0.4505(14)
H10 H 0.957(2) 0.222(8) 0.368(3)
loop_
_geom_bond_atom_site_label_1
_geom_bond_atom_site_label_2
_geom_bond_site_symmetry_1
_geom_bond_site_symmetry_2
Cl1 C14 1_555 1_555
Cl2 C18 1_555 1_555
S1 C8 1_555 1_555
F1 C19 1_555 1_555
F2 C19 1_555 1_555
F3 C19 1_555 1_555
O1 C7 1_555 1_555
N1 C12 1_555 1_555
N2 N3 1_555 1_555
N3 C9 1_555 1_555
N4 C8 1_555 1_555
N5 C7 1_555 1_555
C1 H1 1_555 1_555
C2 C1 1_555 1_555
H2 C2 1_555 1_555
C3 C2 1_555 1_555
H3 C3 1_555 1_555
C4 C3 1_555 1_555
C5 C4 1_555 1_555
H4 C5 1_555 1_555
C6 C1 1_555 1_555
H5 C6 1_555 1_555
C7 C4 1_555 1_555
C8 N5 1_555 1_555
C9 N4 1_555 1_555
C10 C9 1_555 1_555
H6 C10 1_555 1_555
C11 N2 1_555 1_555
C12 C11 1_555 1_555
C13 N3 1_555 1_555
C14 C13 1_555 1_555
C15 C14 1_555 1_555
H7 C15 1_555 1_555
C16 C15 1_555 1_555
C17 C16 1_555 1_555
H8 C17 1_555 1_555
C18 C13 1_555 1_555
C19 C16 1_555 1_555
H9 N4 1_555 1_555
H10 N5 1_555 1_555
C5 C6 1_555 1_555
C10 C11 1_555 1_555
C17 C18 1_555 1_555

#END
