
#######################################################################
#
#                 Cambridge Crystallographic Data Centre
#                                CCDC 
#
#######################################################################
#
# If this CIF has been generated from an entry in the Cambridge 
# Structural Database, then it will include bibliographic, chemical, 
# crystal, experimental, refinement or atomic coordinate data resulting 
# from the CCDC's data processing and validation procedures.
#
#######################################################################

data_ITOXEV
_chemical_formula_moiety         'C32 H28 N2 O9'
_chemical_name_systematic        
'(E)-Dimethyl 4-((4-methoxy-2-(methoxycarbonyl)-4-oxo-1-(pyridin-2-yl)but-1-en-1-yl)(phenyl)amino)-5-phenylfuran-2,3-dicarboxylate'
_symmetry_cell_setting           monoclinic
_symmetry_space_group_name_H-M   'P 21/n'
_symmetry_Int_Tables_number      14
_space_group_name_Hall           '-P 2yn'
loop_
_symmetry_equiv_pos_site_id
_symmetry_equiv_pos_as_xyz
1 x,y,z
2 1/2-x,1/2+y,1/2-z
3 -x,-y,-z
4 1/2+x,1/2-y,1/2+z
_cell_length_a                   8.5058(17)
_cell_length_b                   13.765(3)
_cell_length_c                   25.132(5)
_cell_angle_alpha                90
_cell_angle_beta                 98.56(3)
_cell_angle_gamma                90
_cell_volume                     2909.74
_chemical_melting_point          '165-167 deg.C'
_cell_formula_units_Z            4
loop_
_atom_site_label
_atom_site_type_symbol
_atom_site_fract_x
_atom_site_fract_y
_atom_site_fract_z
O1 O -0.13890(14) 0.99312(9) 0.06055(5)
O2 O -0.19586(19) 1.17529(10) 0.08389(6)
O3 O -0.06447(17) 1.16140(9) 0.16907(5)
O4 O -0.09918(15) 0.97163(10) 0.23304(5)
O5 O 0.15574(17) 0.94738(13) 0.22254(6)
O6 O -0.06550(15) 0.47114(9) 0.16569(5)
O7 O 0.18214(15) 0.45454(10) 0.14475(5)
O8 O 0.40895(14) 0.60467(10) 0.09111(5)
O9 O 0.24484(15) 0.53877(10) 0.02081(5)
N1 N 0.01751(17) 0.77114(11) 0.12628(6)
N2 N 0.30864(18) 0.78930(12) 0.03820(6)
C1 C -0.1877(2) 0.90648(14) -0.03984(7)
H1 H -0.1767 0.9736 -0.0374
C2 C -0.2385(2) 0.86344(15) -0.08942(7)
H2 H -0.2615 0.9021 -0.1199
C3 C -0.2554(2) 0.76318(15) -0.09398(8)
H3 H -0.2879 0.7348 -0.1274
C4 C -0.2233(2) 0.70574(14) -0.04816(8)
H4 H -0.2356 0.6387 -0.0508
C5 C -0.1730(2) 0.74824(13) 0.00153(7)
H5 H -0.1523 0.7092 0.0320
C6 C -0.1528(2) 0.84894(13) 0.00661(7)
C7 C -0.1062(2) 0.89495(13) 0.05925(7)
C8 C -0.0429(2) 0.86425(13) 0.11046(7)
C9 C -0.0438(2) 0.94753(13) 0.14529(7)
C10 C -0.1020(2) 1.02294(13) 0.11307(7)
C11 C -0.1181(2) 1.12658(14) 0.12563(7)
C12 C -0.2057(3) 1.28004(15) 0.09028(9)
H6 H -0.2678 1.2945 0.1182
H7 H -0.2552 1.3085 0.0571
H8 H -0.1007 1.3063 0.0998
C13 C 0.0173(2) 0.95493(14) 0.20427(7)
C14 C -0.0461(3) 0.98285(19) 0.29066(8)
H9 H 0.0044 0.9240 0.3048
H10 H -0.1360 0.9963 0.3085
H11 H 0.0282 1.0357 0.2966
C15 C -0.0147(2) 0.73148(13) 0.17616(7)
C16 C -0.1675(2) 0.73938(14) 0.18985(8)
H12 H -0.2481 0.7690 0.1664
C17 C -0.1980(3) 0.70271(15) 0.23875(9)
H13 H -0.2994 0.7084 0.2481
C18 C -0.0790(3) 0.65768(16) 0.27377(9)
H14 H -0.1005 0.6334 0.3065
C19 C 0.0717(3) 0.64892(16) 0.26000(8)
H15 H 0.1511 0.6179 0.2833
C20 C 0.1055(2) 0.68614(14) 0.21153(7)
H16 H 0.2075 0.6809 0.2027
C21 C 0.1364(2) 0.72907(13) 0.09902(7)
C22 C 0.2648(2) 0.79640(13) 0.08737(7)
C23 C 0.3358(2) 0.85995(14) 0.12716(8)
H17 H 0.3023 0.8622 0.1607
C24 C 0.4576(2) 0.91964(15) 0.11543(9)
H18 H 0.5087 0.9620 0.1412
C25 C 0.5015(2) 0.91493(15) 0.06469(9)
H19 H 0.5807 0.9554 0.0554
C26 C 0.4256(2) 0.84905(15) 0.02801(8)
H20 H 0.4575 0.8459 -0.0058
C27 C 0.1332(2) 0.63362(13) 0.08562(7)
C28 C 0.2655(2) 0.58822(13) 0.06124(7)
C29 C 0.5432(2) 0.56542(18) 0.06887(9)
H21 H 0.5280 0.4970 0.0627
H22 H 0.6389 0.5759 0.0937
H23 H 0.5517 0.5973 0.0355
C30 C -0.0006(2) 0.56495(13) 0.09292(7)
H24 H -0.0353 0.5311 0.0594
H25 H -0.0899 0.6019 0.1021
C31 C 0.0516(2) 0.49141(13) 0.13689(7)
C32 C -0.0215(2) 0.40441(16) 0.21070(8)
H26 H -0.0036 0.3408 0.1971
H27 H -0.1059 0.4015 0.2321
H28 H 0.0738 0.4271 0.2324
loop_
_geom_bond_atom_site_label_1
_geom_bond_atom_site_label_2
_geom_bond_site_symmetry_1
_geom_bond_site_symmetry_2
O1 C7 1_555 1_555
O2 C11 1_555 1_555
O3 C11 1_555 1_555
O4 C13 1_555 1_555
O5 C13 1_555 1_555
O6 C31 1_555 1_555
O7 C31 1_555 1_555
O8 C28 1_555 1_555
O9 C28 1_555 1_555
N1 C8 1_555 1_555
N2 C22 1_555 1_555
C1 H1 1_555 1_555
C2 C1 1_555 1_555
H2 C2 1_555 1_555
C3 C2 1_555 1_555
H3 C3 1_555 1_555
C4 C3 1_555 1_555
H4 C4 1_555 1_555
C5 C4 1_555 1_555
H5 C5 1_555 1_555
C6 C1 1_555 1_555
C7 C6 1_555 1_555
C8 C7 1_555 1_555
C9 C8 1_555 1_555
C10 O1 1_555 1_555
C11 C10 1_555 1_555
C12 O2 1_555 1_555
H6 C12 1_555 1_555
H7 C12 1_555 1_555
H8 C12 1_555 1_555
C13 C9 1_555 1_555
C14 O4 1_555 1_555
H9 C14 1_555 1_555
H10 C14 1_555 1_555
H11 C14 1_555 1_555
C15 N1 1_555 1_555
C16 C15 1_555 1_555
H12 C16 1_555 1_555
C17 C16 1_555 1_555
H13 C17 1_555 1_555
C18 C17 1_555 1_555
H14 C18 1_555 1_555
C19 C18 1_555 1_555
H15 C19 1_555 1_555
C20 C15 1_555 1_555
H16 C20 1_555 1_555
C21 N1 1_555 1_555
C22 C21 1_555 1_555
C23 C22 1_555 1_555
H17 C23 1_555 1_555
C24 C23 1_555 1_555
H18 C24 1_555 1_555
C25 C24 1_555 1_555
H19 C25 1_555 1_555
C26 N2 1_555 1_555
H20 C26 1_555 1_555
C27 C21 1_555 1_555
C28 C27 1_555 1_555
C29 O8 1_555 1_555
H21 C29 1_555 1_555
H22 C29 1_555 1_555
H23 C29 1_555 1_555
C30 C27 1_555 1_555
H24 C30 1_555 1_555
H25 C30 1_555 1_555
C31 C30 1_555 1_555
C32 O6 1_555 1_555
H26 C32 1_555 1_555
H27 C32 1_555 1_555
H28 C32 1_555 1_555
C5 C6 1_555 1_555
C9 C10 1_555 1_555
C19 C20 1_555 1_555
C25 C26 1_555 1_555

#END
