
#######################################################################
#
#                 Cambridge Crystallographic Data Centre
#                                CCDC 
#
#######################################################################
#
# If this CIF has been generated from an entry in the Cambridge 
# Structural Database, then it will include bibliographic, chemical, 
# crystal, experimental, refinement or atomic coordinate data resulting 
# from the CCDC's data processing and validation procedures.
#
#######################################################################

data_ITUKOZ
_chemical_formula_moiety         'C26 H24 Br1 N1 O3 S1'
_chemical_name_systematic        
4-(4-bromophenyl)-3-ethyl-1-((4-methylphenyl)sulfonyl)-1,2,3,4-tetrahydro[1]benzofuro[3,2-b]pyridine
_symmetry_cell_setting           orthorhombic
_symmetry_space_group_name_H-M   'P 21 21 21'
_symmetry_Int_Tables_number      19
_space_group_name_Hall           'P 2ac 2ab'
loop_
_symmetry_equiv_pos_site_id
_symmetry_equiv_pos_as_xyz
1 x,y,z
2 1/2-x,-y,1/2+z
3 -x,1/2+y,1/2-z
4 1/2+x,1/2-y,-z
_cell_length_a                   9.6798(5)
_cell_length_b                   11.2822(6)
_cell_length_c                   21.2243(12)
_cell_angle_alpha                90
_cell_angle_beta                 90
_cell_angle_gamma                90
_cell_volume                     2317.89
_exptl_crystal_colour            colorless
_exptl_crystal_description       block
_cell_formula_units_Z            4
loop_
_atom_site_label
_atom_site_type_symbol
_atom_site_fract_x
_atom_site_fract_y
_atom_site_fract_z
Br1 Br 0.65709(2) -0.00915(2) 0.43596(2)
S1 S -0.06148(5) 0.40500(4) 0.25882(2)
O1 O 0.35335(15) 0.23783(12) 0.16869(7)
O2 O -0.12881(14) 0.32734(13) 0.21518(7)
O3 O -0.12295(14) 0.51651(13) 0.27435(7)
N1 N 0.09166(16) 0.43464(14) 0.22790(8)
C1 C 0.2529(2) 0.21855(17) 0.12381(10)
C2 C 0.2701(2) 0.15017(17) 0.07051(11)
H1 H 0.3524 0.1063 0.0633
C3 C 0.1614(2) 0.14870(18) 0.02800(10)
H2 H 0.1691 0.1035 -0.0096
C4 C 0.0401(2) 0.21323(19) 0.03980(11)
H3 H -0.0328 0.2111 0.0098
C5 C 0.0242(2) 0.27958(18) 0.09383(10)
H4 H -0.0588 0.3222 0.1014
C6 C 0.1327(2) 0.28286(16) 0.13733(10)
C7 C 0.1644(2) 0.34359(16) 0.19572(9)
C8 C 0.2949(2) 0.31535(18) 0.21156(10)
C9 C 0.38299(19) 0.36373(17) 0.26259(10)
H5 H 0.4565 0.4138 0.2429
C10 C 0.2915(2) 0.44504(17) 0.30476(10)
H6 H 0.2405 0.3939 0.3354
C11 C 0.18579(18) 0.51263(17) 0.26507(9)
H7 H 0.1294 0.5630 0.2933
H8 H 0.2357 0.5657 0.2357
C12 C 0.4530(2) 0.26782(17) 0.30151(10)
C13 C 0.5859(2) 0.28544(18) 0.32523(10)
H9 H 0.6359 0.3547 0.3139
C14 C 0.6456(2) 0.20280(17) 0.36526(10)
H10 H 0.7352 0.2161 0.3821
C15 C 0.5740(2) 0.10163(18) 0.38041(10)
C16 C 0.4438(2) 0.07943(18) 0.35595(11)
H11 H 0.3961 0.0083 0.3660
C17 C 0.3842(2) 0.16324(17) 0.31642(11)
H12 H 0.2951 0.1489 0.2993
C18 C 0.3820(2) 0.53230(18) 0.34209(10)
H13 H 0.4568 0.4874 0.3632
H14 H 0.4257 0.5883 0.3122
C19 C 0.3036(2) 0.6027(2) 0.39137(12)
H15 H 0.2394 0.6571 0.3705
H16 H 0.3691 0.6482 0.4170
H17 H 0.2518 0.5483 0.4185
C20 C -0.03374(19) 0.32806(17) 0.32994(10)
C21 C 0.00450(19) 0.20913(18) 0.32684(10)
H18 H 0.0171 0.1714 0.2872
C22 C 0.0239(2) 0.14693(18) 0.38211(11)
H19 H 0.0501 0.0659 0.3802
C23 C 0.0056(2) 0.20081(19) 0.44070(11)
C24 C -0.0311(2) 0.3209(2) 0.44214(11)
H20 H -0.0431 0.3592 0.4816
C25 C -0.0501(2) 0.38468(18) 0.38745(10)
H21 H -0.0742 0.4663 0.3891
C26 C 0.0230(3) 0.1312(2) 0.50068(13)
H22 H -0.0140 0.0511 0.4948
H23 H -0.0270 0.1707 0.5349
H24 H 0.1213 0.1264 0.5114
loop_
_geom_bond_atom_site_label_1
_geom_bond_atom_site_label_2
_geom_bond_site_symmetry_1
_geom_bond_site_symmetry_2
Br1 C15 1_555 1_555
S1 O2 1_555 1_555
O1 C1 1_555 1_555
O3 S1 1_555 1_555
N1 S1 1_555 1_555
C1 C2 1_555 1_555
C2 H1 1_555 1_555
C3 C2 1_555 1_555
H2 C3 1_555 1_555
C4 C3 1_555 1_555
H3 C4 1_555 1_555
C5 C4 1_555 1_555
H4 C5 1_555 1_555
C6 C1 1_555 1_555
C7 N1 1_555 1_555
C8 O1 1_555 1_555
C9 C8 1_555 1_555
H5 C9 1_555 1_555
C10 C9 1_555 1_555
H6 C10 1_555 1_555
C11 N1 1_555 1_555
H7 C11 1_555 1_555
H8 C11 1_555 1_555
C12 C9 1_555 1_555
C13 C12 1_555 1_555
H9 C13 1_555 1_555
C14 C13 1_555 1_555
H10 C14 1_555 1_555
C15 C14 1_555 1_555
C16 C15 1_555 1_555
H11 C16 1_555 1_555
C17 C12 1_555 1_555
H12 C17 1_555 1_555
C18 C10 1_555 1_555
H13 C18 1_555 1_555
H14 C18 1_555 1_555
C19 C18 1_555 1_555
H15 C19 1_555 1_555
H16 C19 1_555 1_555
H17 C19 1_555 1_555
C20 S1 1_555 1_555
C21 C20 1_555 1_555
H18 C21 1_555 1_555
C22 C21 1_555 1_555
H19 C22 1_555 1_555
C23 C22 1_555 1_555
C24 C23 1_555 1_555
H20 C24 1_555 1_555
C25 C20 1_555 1_555
H21 C25 1_555 1_555
C26 C23 1_555 1_555
H22 C26 1_555 1_555
H23 C26 1_555 1_555
H24 C26 1_555 1_555
C5 C6 1_555 1_555
C6 C7 1_555 1_555
C7 C8 1_555 1_555
C10 C11 1_555 1_555
C16 C17 1_555 1_555
C24 C25 1_555 1_555

#END
