
#######################################################################
#
#                 Cambridge Crystallographic Data Centre
#                                CCDC 
#
#######################################################################
#
# If this CIF has been generated from an entry in the Cambridge 
# Structural Database, then it will include bibliographic, chemical, 
# crystal, experimental, refinement or atomic coordinate data resulting 
# from the CCDC's data processing and validation procedures.
#
#######################################################################

data_ITUKIT
_chemical_formula_moiety         'C31 H25 N1 O4 S1'
_chemical_name_systematic        
3-benzyl-1-((4-methylphenyl)sulfonyl)-4-phenyl-3,4-dihydro[1]benzofuro[3,2-b]pyridin-2(1H)-one
_symmetry_cell_setting           monoclinic
_symmetry_space_group_name_H-M   'C 2'
_symmetry_Int_Tables_number      5
_space_group_name_Hall           'C 2y'
loop_
_symmetry_equiv_pos_site_id
_symmetry_equiv_pos_as_xyz
1 x,y,z
2 -x,y,-z
3 1/2+x,1/2+y,z
4 1/2-x,1/2+y,-z
_cell_length_a                   28.6747(15)
_cell_length_b                   9.8103(5)
_cell_length_c                   10.2885(6)
_cell_angle_alpha                90
_cell_angle_beta                 100.490(4)
_cell_angle_gamma                90
_cell_volume                     2845.86
_exptl_crystal_colour            yellow
_exptl_crystal_description       'prism frag'
_cell_formula_units_Z            4
loop_
_atom_site_label
_atom_site_type_symbol
_atom_site_fract_x
_atom_site_fract_y
_atom_site_fract_z
S1 S 0.40211(2) 0.30683(5) 0.34087(4)
N1 N 0.39107(6) 0.46475(15) 0.39728(15)
O1 O 0.36846(5) 0.53513(14) 0.18321(13)
O2 O 0.35435(5) 0.59875(14) 0.68784(13)
O3 O 0.41341(6) 0.22555(15) 0.45810(14)
O4 O 0.43596(5) 0.32232(17) 0.25614(14)
C1 C 0.37287(6) 0.56247(19) 0.29967(17)
C2 C 0.36056(7) 0.70088(19) 0.35131(18)
H1 H 0.3909 0.7447 0.3946
C3 C 0.32872(7) 0.68478(19) 0.45895(18)
H2 H 0.3288 0.7742 0.5056
C4 C 0.35442(7) 0.58500(19) 0.55503(17)
C5 C 0.38760(6) 0.5065(2) 0.74959(18)
C6 C 0.39818(7) 0.4863(2) 0.88540(18)
H3 H 0.3823 0.5353 0.9442
C7 C 0.43307(7) 0.3910(2) 0.93070(19)
H4 H 0.4411 0.3723 1.0226
C8 C 0.45657(7) 0.3220(2) 0.84201(18)
H5 H 0.4810 0.2591 0.8758
C9 C 0.44532(6) 0.34265(19) 0.70657(18)
H6 H 0.4616 0.2947 0.6481
C10 C 0.40911(6) 0.43657(19) 0.65772(18)
C11 C 0.38549(6) 0.48820(18) 0.53060(17)
C12 C 0.33738(7) 0.7947(2) 0.23853(19)
H7 H 0.3115 0.7439 0.1821
H8 H 0.3229 0.8730 0.2771
C13 C 0.37056(7) 0.8488(2) 0.1522(2)
C14 C 0.40708(8) 0.9382(2) 0.2041(2)
H9 H 0.4116 0.9627 0.2948
C15 C 0.43699(9) 0.9919(2) 0.1241(3)
H10 H 0.4618 1.0526 0.1605
C16 C 0.43047(9) 0.9565(2) -0.0093(3)
H11 H 0.4508 0.9929 -0.0639
C17 C 0.39411(9) 0.8676(2) -0.0620(2)
H12 H 0.3897 0.8426 -0.1526
C18 C 0.36427(8) 0.8156(2) 0.0185(2)
H13 H 0.3391 0.7564 -0.0185
C19 C 0.27748(7) 0.6485(2) 0.40386(18)
C20 C 0.24295(8) 0.7509(2) 0.3843(2)
H14 H 0.2518 0.8424 0.4069
C21 C 0.19593(8) 0.7204(3) 0.3323(2)
H15 H 0.1729 0.7910 0.3202
C22 C 0.18246(8) 0.5873(3) 0.2978(2)
H16 H 0.1503 0.5663 0.2629
C23 C 0.21654(8) 0.4854(2) 0.3151(2)
H17 H 0.2077 0.3943 0.2910
C24 C 0.26362(7) 0.5158(2) 0.3676(2)
H18 H 0.2866 0.4450 0.3788
C25 C 0.34858(7) 0.24310(18) 0.25085(19)
C26 C 0.34190(7) 0.2312(2) 0.11431(18)
H19 H 0.3636 0.2717 0.0663
C27 C 0.30286(8) 0.1589(2) 0.0490(2)
H20 H 0.2983 0.1489 -0.0443
C28 C 0.27027(7) 0.1007(2) 0.1185(2)
C29 C 0.27638(8) 0.1214(2) 0.2547(2)
H21 H 0.2531 0.0885 0.3018
C30 C 0.31610(8) 0.1894(2) 0.3228(2)
H22 H 0.3209 0.1990 0.4162
C31 C 0.23102(9) 0.0106(3) 0.0485(3)
H23 H 0.2166 0.0525 -0.0357
H24 H 0.2069 -0.0006 0.1039
H25 H 0.2440 -0.0788 0.0319
loop_
_geom_bond_atom_site_label_1
_geom_bond_atom_site_label_2
_geom_bond_site_symmetry_1
_geom_bond_site_symmetry_2
S1 N1 1_555 1_555
N1 C1 1_555 1_555
O1 C1 1_555 1_555
O2 C4 1_555 1_555
O3 S1 1_555 1_555
O4 S1 1_555 1_555
C1 C2 1_555 1_555
C2 H1 1_555 1_555
C3 C2 1_555 1_555
H2 C3 1_555 1_555
C4 C3 1_555 1_555
C5 O2 1_555 1_555
C6 C5 1_555 1_555
H3 C6 1_555 1_555
C7 C6 1_555 1_555
H4 C7 1_555 1_555
C8 C7 1_555 1_555
H5 C8 1_555 1_555
C9 C8 1_555 1_555
H6 C9 1_555 1_555
C10 C5 1_555 1_555
C11 N1 1_555 1_555
C12 C2 1_555 1_555
H7 C12 1_555 1_555
H8 C12 1_555 1_555
C13 C12 1_555 1_555
C14 C13 1_555 1_555
H9 C14 1_555 1_555
C15 C14 1_555 1_555
H10 C15 1_555 1_555
C16 C15 1_555 1_555
H11 C16 1_555 1_555
C17 C16 1_555 1_555
H12 C17 1_555 1_555
C18 C13 1_555 1_555
H13 C18 1_555 1_555
C19 C3 1_555 1_555
C20 C19 1_555 1_555
H14 C20 1_555 1_555
C21 C20 1_555 1_555
H15 C21 1_555 1_555
C22 C21 1_555 1_555
H16 C22 1_555 1_555
C23 C22 1_555 1_555
H17 C23 1_555 1_555
C24 C19 1_555 1_555
H18 C24 1_555 1_555
C25 S1 1_555 1_555
C26 C25 1_555 1_555
H19 C26 1_555 1_555
C27 C26 1_555 1_555
H20 C27 1_555 1_555
C28 C27 1_555 1_555
C29 C28 1_555 1_555
H21 C29 1_555 1_555
C30 C25 1_555 1_555
H22 C30 1_555 1_555
C31 C28 1_555 1_555
H23 C31 1_555 1_555
H24 C31 1_555 1_555
H25 C31 1_555 1_555
C4 C11 1_555 1_555
C9 C10 1_555 1_555
C10 C11 1_555 1_555
C17 C18 1_555 1_555
C23 C24 1_555 1_555
C29 C30 1_555 1_555

#END
