
#######################################################################
#
#                 Cambridge Crystallographic Data Centre
#                                CCDC 
#
#######################################################################
#
# If this CIF has been generated from an entry in the Cambridge 
# Structural Database, then it will include bibliographic, chemical, 
# crystal, experimental, refinement or atomic coordinate data resulting 
# from the CCDC's data processing and validation procedures.
#
#######################################################################

data_ITULIU
_chemical_formula_moiety         'C27 H18 B1 F15 N1 O1'
_chemical_name_systematic        
'[1-oxy-2,2,6,6-tetramethylpiperidin-1-ium](tris(pentafluorophenyl))borate radical'
_symmetry_cell_setting           monoclinic
_symmetry_space_group_name_H-M   'P 21/n'
_symmetry_Int_Tables_number      14
_space_group_name_Hall           '-P 2yn'
loop_
_symmetry_equiv_pos_site_id
_symmetry_equiv_pos_as_xyz
1 x,y,z
2 1/2-x,1/2+y,1/2-z
3 -x,-y,-z
4 1/2+x,1/2-y,1/2+z
_cell_length_a                   11.0981(2)
_cell_length_b                   17.3479(2)
_cell_length_c                   14.0941(2)
_cell_angle_alpha                90
_cell_angle_beta                 100.945(1)
_cell_angle_gamma                90
_cell_volume                     2664.16
_exptl_crystal_colour            orange
_exptl_crystal_description       plate
_cell_formula_units_Z            4
loop_
_atom_site_label
_atom_site_type_symbol
_atom_site_fract_x
_atom_site_fract_y
_atom_site_fract_z
O1 O 0.68069(15) 0.18092(9) 0.69587(11)
N1 N 0.73283(18) 0.20344(11) 0.62455(13)
C1 C 0.8703(2) 0.21582(16) 0.63765(18)
C2 C 0.8886(3) 0.29654(17) 0.5984(2)
H1 H 0.8543 0.3345 0.6375
H2 H 0.9769 0.3066 0.6064
C3 C 0.8299(3) 0.30851(19) 0.4924(2)
H3 H 0.8128 0.3635 0.4807
H4 H 0.8878 0.2924 0.4516
C4 C 0.7110(3) 0.26307(18) 0.46396(19)
H5 H 0.6553 0.2925 0.4148
H6 H 0.7296 0.2146 0.4341
C5 C 0.6444(2) 0.24434(16) 0.54615(17)
C6 C 0.9259(3) 0.15411(18) 0.5810(2)
H7 H 0.9291 0.1053 0.6149
H8 H 1.0083 0.1693 0.5751
H9 H 0.8756 0.1487 0.5171
C7 C 0.9290(2) 0.21389(19) 0.74441(19)
H10 H 0.8935 0.2540 0.7783
H11 H 1.0167 0.2224 0.7516
H12 H 0.9143 0.1641 0.7713
C8 C 0.5971(3) 0.31626(18) 0.5902(2)
H13 H 0.5578 0.3013 0.6432
H14 H 0.5383 0.3427 0.5412
H15 H 0.6654 0.3504 0.6140
C9 C 0.5370(2) 0.19016(19) 0.51000(19)
H16 H 0.5672 0.1436 0.4843
H17 H 0.4789 0.2155 0.4596
H18 H 0.4967 0.1769 0.5631
B1 B 0.6770(3) 0.10215(17) 0.75348(19)
C10 C 0.7728(2) 0.04020(14) 0.72444(17)
F1 F 0.65808(14) 0.03045(9) 0.56535(10)
C11 C 0.7545(2) 0.00710(15) 0.63263(18)
F2 F 0.80525(18) -0.07557(10) 0.51364(12)
C12 C 0.8293(3) -0.04772(15) 0.60414(19)
F3 F 1.00508(17) -0.12612(10) 0.64119(14)
C13 C 0.9303(3) -0.07285(15) 0.6678(2)
F4 F 1.05651(14) -0.06352(10) 0.82142(13)
C14 C 0.9558(2) -0.04160(16) 0.7584(2)
F5 F 0.91320(14) 0.04157(10) 0.87520(10)
C15 C 0.8785(2) 0.01321(15) 0.78484(18)
C16 C 0.6982(2) 0.12302(14) 0.86891(16)
F6 F 0.72439(14) 0.25921(8) 0.86238(10)
C17 C 0.7150(2) 0.19429(15) 0.91355(17)
F7 F 0.73906(16) 0.27582(10) 1.05015(11)
C18 C 0.7215(2) 0.20493(16) 1.01160(18)
F8 F 0.71342(17) 0.15381(11) 1.16501(10)
C19 C 0.7089(2) 0.14357(18) 1.06975(17)
F9 F 0.67531(19) 0.01090(10) 1.08485(11)
C20 C 0.6891(3) 0.07190(17) 1.02948(18)
F10 F 0.66653(16) -0.00911(9) 0.89623(11)
C21 C 0.6848(2) 0.06351(15) 0.93199(18)
C22 C 0.5308(2) 0.07736(14) 0.72673(16)
F11 F 0.55670(15) -0.05526(9) 0.69186(12)
C23 C 0.4827(2) 0.00500(16) 0.70078(18)
F12 F 0.31875(18) -0.08276(11) 0.65635(13)
C24 C 0.3585(3) -0.01150(18) 0.68480(19)
F13 F 0.15631(15) 0.02890(13) 0.68190(13)
C25 C 0.2771(2) 0.0442(2) 0.69766(19)
F14 F 0.23916(14) 0.17108(11) 0.74258(12)
C26 C 0.3184(2) 0.11636(18) 0.72640(18)
F15 F 0.47641(13) 0.20361(9) 0.76850(11)
C27 C 0.4424(2) 0.13116(15) 0.73945(17)
loop_
_geom_bond_atom_site_label_1
_geom_bond_atom_site_label_2
_geom_bond_site_symmetry_1
_geom_bond_site_symmetry_2
O1 N1 1_555 1_555
N1 C1 1_555 1_555
C1 C2 1_555 1_555
C2 H1 1_555 1_555
H2 C2 1_555 1_555
C3 C2 1_555 1_555
H3 C3 1_555 1_555
H4 C3 1_555 1_555
C4 C3 1_555 1_555
H5 C4 1_555 1_555
H6 C4 1_555 1_555
C5 N1 1_555 1_555
C6 C1 1_555 1_555
H7 C6 1_555 1_555
H8 C6 1_555 1_555
H9 C6 1_555 1_555
C7 C1 1_555 1_555
H10 C7 1_555 1_555
H11 C7 1_555 1_555
H12 C7 1_555 1_555
C8 C5 1_555 1_555
H13 C8 1_555 1_555
H14 C8 1_555 1_555
H15 C8 1_555 1_555
C9 C5 1_555 1_555
H16 C9 1_555 1_555
H17 C9 1_555 1_555
H18 C9 1_555 1_555
B1 O1 1_555 1_555
C10 B1 1_555 1_555
F1 C11 1_555 1_555
C11 C10 1_555 1_555
F2 C12 1_555 1_555
C12 C11 1_555 1_555
F3 C13 1_555 1_555
C13 C12 1_555 1_555
F4 C14 1_555 1_555
C14 C13 1_555 1_555
F5 C15 1_555 1_555
C15 C10 1_555 1_555
C16 B1 1_555 1_555
F6 C17 1_555 1_555
C17 C16 1_555 1_555
F7 C18 1_555 1_555
C18 C17 1_555 1_555
F8 C19 1_555 1_555
C19 C18 1_555 1_555
F9 C20 1_555 1_555
C20 C19 1_555 1_555
F10 C21 1_555 1_555
C21 C16 1_555 1_555
C22 B1 1_555 1_555
F11 C23 1_555 1_555
C23 C22 1_555 1_555
F12 C24 1_555 1_555
C24 C23 1_555 1_555
F13 C25 1_555 1_555
C25 C24 1_555 1_555
F14 C26 1_555 1_555
C26 C25 1_555 1_555
F15 C27 1_555 1_555
C27 C22 1_555 1_555
C4 C5 1_555 1_555
C14 C15 1_555 1_555
C20 C21 1_555 1_555
C26 C27 1_555 1_555

#END
