
#######################################################################
#
#                 Cambridge Crystallographic Data Centre
#                                CCDC 
#
#######################################################################
#
# If this CIF has been generated from an entry in the Cambridge 
# Structural Database, then it will include bibliographic, chemical, 
# crystal, experimental, refinement or atomic coordinate data resulting 
# from the CCDC's data processing and validation procedures.
#
#######################################################################

data_ITUNIV
_chemical_formula_moiety         'C18 H19 N1 O4'
_chemical_name_systematic        
'Diethyl 5,6-dihydropyrrolo[2,1-a]isoquinoline-1,3-dicarboxylate'
_symmetry_cell_setting           triclinic
_symmetry_space_group_name_H-M   'P -1'
_symmetry_Int_Tables_number      2
_space_group_name_Hall           '-P 1'
loop_
_symmetry_equiv_pos_site_id
_symmetry_equiv_pos_as_xyz
1 x,y,z
2 -x,-y,-z
_cell_length_a                   7.3780(17)
_cell_length_b                   10.880(3)
_cell_length_c                   11.096(3)
_cell_angle_alpha                70.593(4)
_cell_angle_beta                 74.436(4)
_cell_angle_gamma                81.695(4)
_cell_volume                     807.792
_exptl_crystal_colour            colorless
_exptl_crystal_description       block
_cell_formula_units_Z            2
loop_
_atom_site_label
_atom_site_type_symbol
_atom_site_fract_x
_atom_site_fract_y
_atom_site_fract_z
C1 C 0.2716(3) 0.3937(2) 0.4077(3)
C2 C 0.2672(4) 0.5295(2) 0.3650(3)
H1 H 0.2460 0.5742 0.4263
C3 C 0.2939(4) 0.5990(3) 0.2331(3)
H2 H 0.2903 0.6897 0.2057
C4 C 0.3254(4) 0.5332(3) 0.1434(3)
H3 H 0.3423 0.5797 0.0545
C5 C 0.3326(3) 0.3985(2) 0.1827(3)
H4 H 0.3540 0.3554 0.1201
C6 C 0.3080(3) 0.3265(2) 0.3153(2)
C7 C 0.3117(3) 0.1830(2) 0.3636(2)
C8 C 0.1168(4) 0.2032(2) 0.5771(2)
H5 H 0.0992 0.1497 0.6683
H6 H -0.0063 0.2349 0.5595
C9 C 0.2319(4) 0.3165(2) 0.5515(2)
H7 H 0.3498 0.2845 0.5775
H8 H 0.1639 0.3723 0.6033
C10 C 0.2322(3) -0.0083(2) 0.5194(2)
C11 C 0.3403(3) -0.0359(2) 0.4094(2)
H9 H 0.3741 -0.1190 0.4014
C12 C 0.3916(3) 0.0815(2) 0.3106(2)
C13 C 0.5226(3) 0.0889(2) 0.1831(2)
C14 C 0.7299(3) -0.0359(2) 0.0574(2)
H10 H 0.8382 0.0099 0.0493
H11 H 0.6802 0.0053 -0.0201
C15 C 0.7858(4) -0.1761(2) 0.0701(3)
H12 H 0.8387 -0.2150 0.1454
H13 H 0.8778 -0.1826 -0.0076
H14 H 0.6769 -0.2209 0.0806
C16 C 0.1526(3) -0.0973(2) 0.6494(2)
C17 C 0.1389(4) -0.3172(2) 0.7794(3)
H15 H 0.0052 -0.3044 0.8163
H16 H 0.2081 -0.3084 0.8388
C18 C 0.1819(4) -0.4489(2) 0.7612(3)
H17 H 0.1079 -0.4579 0.7058
H18 H 0.1522 -0.5147 0.8451
H19 H 0.3134 -0.4588 0.7209
N1 N 0.2171(2) 0.12577(17) 0.49057(17)
O1 O 0.5737(3) 0.18615(16) 0.09495(17)
O2 O 0.5862(2) -0.03116(15) 0.17530(15)
O3 O 0.0624(3) -0.06596(15) 0.74369(16)
O4 O 0.1944(2) -0.22180(14) 0.65146(15)
loop_
_geom_bond_atom_site_label_1
_geom_bond_atom_site_label_2
_geom_bond_site_symmetry_1
_geom_bond_site_symmetry_2
C1 C2 1_555 1_555
C2 H1 1_555 1_555
C3 C2 1_555 1_555
H2 C3 1_555 1_555
C4 C3 1_555 1_555
H3 C4 1_555 1_555
C5 C4 1_555 1_555
H4 C5 1_555 1_555
C6 C1 1_555 1_555
C7 C6 1_555 1_555
C8 H5 1_555 1_555
H6 C8 1_555 1_555
C9 C1 1_555 1_555
H7 C9 1_555 1_555
H8 C9 1_555 1_555
C10 C11 1_555 1_555
C11 H9 1_555 1_555
C12 C7 1_555 1_555
C13 C12 1_555 1_555
C14 H10 1_555 1_555
H11 C14 1_555 1_555
C15 C14 1_555 1_555
H12 C15 1_555 1_555
H13 C15 1_555 1_555
H14 C15 1_555 1_555
C16 C10 1_555 1_555
C17 H15 1_555 1_555
H16 C17 1_555 1_555
C18 C17 1_555 1_555
H17 C18 1_555 1_555
H18 C18 1_555 1_555
H19 C18 1_555 1_555
N1 C7 1_555 1_555
O1 C13 1_555 1_555
O2 C13 1_555 1_555
O3 C16 1_555 1_555
O4 C16 1_555 1_555
C5 C6 1_555 1_555
C8 C9 1_555 1_555
C8 N1 1_555 1_555
C10 N1 1_555 1_555
C11 C12 1_555 1_555
C14 O2 1_555 1_555
C17 O4 1_555 1_555

#END
