
#######################################################################
#
#                 Cambridge Crystallographic Data Centre
#                                CCDC 
#
#######################################################################
#
# If this CIF has been generated from an entry in the Cambridge 
# Structural Database, then it will include bibliographic, chemical, 
# crystal, experimental, refinement or atomic coordinate data resulting 
# from the CCDC's data processing and validation procedures.
#
#######################################################################

data_ITUNER
_chemical_formula_moiety         'C21 H17 Br1 N2 O4'
_chemical_name_systematic        
'Ethyl 2-(4-bromophenyl)-1-nitro-5,6-dihydropyrrolo[2,1-a]isoquinoline-3-carboxylate'
_symmetry_cell_setting           monoclinic
_symmetry_space_group_name_H-M   'P 21/c'
_symmetry_Int_Tables_number      14
_space_group_name_Hall           '-P 2ybc'
loop_
_symmetry_equiv_pos_site_id
_symmetry_equiv_pos_as_xyz
1 x,y,z
2 -x,1/2+y,1/2-z
3 -x,-y,-z
4 x,1/2-y,1/2+z
_cell_length_a                   14.7111(19)
_cell_length_b                   16.999(2)
_cell_length_c                   7.7947(10)
_cell_angle_alpha                90
_cell_angle_beta                 98.538(2)
_cell_angle_gamma                90
_cell_volume                     1927.65
_exptl_crystal_colour            colorless
_exptl_crystal_description       block
_cell_formula_units_Z            4
loop_
_atom_site_label
_atom_site_type_symbol
_atom_site_fract_x
_atom_site_fract_y
_atom_site_fract_z
Br1 Br 1.01252(3) 0.16665(3) 0.90978(7)
C1 C 0.8898(2) 0.1514(2) 0.7986(4)
C2 C 0.8621(2) 0.07799(19) 0.7398(4)
H1 H 0.9030 0.0359 0.7530
C3 C 0.77266(18) 0.06763(15) 0.6608(3)
H2 H 0.7532 0.0180 0.6208
C4 C 0.71155(17) 0.12960(14) 0.6400(3)
C5 C 0.7416(2) 0.20289(16) 0.7020(4)
H3 H 0.7012 0.2453 0.6893
C6 C 0.8305(2) 0.21386(18) 0.7823(4)
H4 H 0.8500 0.2631 0.8249
C7 C 0.61628(17) 0.11899(13) 0.5529(3)
C8 C 0.53452(17) 0.13959(13) 0.6156(3)
C9 C 0.45906(17) 0.12495(12) 0.4901(3)
C10 C 0.58842(17) 0.09032(13) 0.3874(3)
C11 C 0.64219(19) 0.05683(15) 0.2601(3)
C12 C 0.7854(3) 0.0583(3) 0.1576(5)
H5 H 0.7642 0.0067 0.1165
H6 H 0.7838 0.0926 0.0578
C13 C 0.8781(3) 0.0528(3) 0.2469(6)
H7 H 0.9000 0.1043 0.2824
H8 H 0.9168 0.0305 0.1707
H9 H 0.8793 0.0198 0.3472
C14 C 0.43535(18) 0.07134(15) 0.1897(3)
H10 H 0.4108 0.0189 0.2000
H11 H 0.4713 0.0713 0.0950
C15 C 0.3578(2) 0.12983(16) 0.1535(4)
H12 H 0.3821 0.1804 0.1245
H13 H 0.3146 0.1122 0.0547
C16 C 0.30885(19) 0.13898(14) 0.3076(4)
C17 C 0.2141(2) 0.14888(17) 0.2880(5)
H14 H 0.1806 0.1508 0.1772
C18 C 0.1692(3) 0.15586(19) 0.4300(7)
H15 H 0.1058 0.1630 0.4149
C19 C 0.2185(3) 0.15229(18) 0.5942(6)
H16 H 0.1881 0.1569 0.6903
C20 C 0.3126(2) 0.14190(16) 0.6177(4)
H17 H 0.3453 0.1390 0.7293
C21 C 0.35869(18) 0.13572(13) 0.4751(3)
N1 N 0.53308(16) 0.17061(12) 0.7871(3)
N2 N 0.49397(14) 0.09358(11) 0.3530(2)
O1 O 0.59159(15) 0.14787(13) 0.9040(2)
O2 O 0.47405(17) 0.21784(14) 0.8104(3)
O3 O 0.61470(15) 0.00540(11) 0.1593(2)
O4 O 0.72471(14) 0.08916(12) 0.2725(2)
loop_
_geom_bond_atom_site_label_1
_geom_bond_atom_site_label_2
_geom_bond_site_symmetry_1
_geom_bond_site_symmetry_2
Br1 C1 1_555 1_555
C1 C2 1_555 1_555
C2 H1 1_555 1_555
C3 C2 1_555 1_555
H2 C3 1_555 1_555
C4 C3 1_555 1_555
C5 C4 1_555 1_555
H3 C5 1_555 1_555
C6 C1 1_555 1_555
H4 C6 1_555 1_555
C7 C4 1_555 1_555
C8 C7 1_555 1_555
C9 C8 1_555 1_555
C10 C7 1_555 1_555
C11 C10 1_555 1_555
C12 H5 1_555 1_555
H6 C12 1_555 1_555
C13 C12 1_555 1_555
H7 C13 1_555 1_555
H8 C13 1_555 1_555
H9 C13 1_555 1_555
C14 H10 1_555 1_555
H11 C14 1_555 1_555
C15 C14 1_555 1_555
H12 C15 1_555 1_555
H13 C15 1_555 1_555
C16 C15 1_555 1_555
C17 C16 1_555 1_555
H14 C17 1_555 1_555
C18 C17 1_555 1_555
H15 C18 1_555 1_555
C19 C18 1_555 1_555
H16 C19 1_555 1_555
C20 C19 1_555 1_555
H17 C20 1_555 1_555
C21 C9 1_555 1_555
N1 C8 1_555 1_555
N2 C9 1_555 1_555
O1 N1 1_555 1_555
O2 N1 1_555 1_555
O3 C11 1_555 1_555
O4 C11 1_555 1_555
C5 C6 1_555 1_555
C10 N2 1_555 1_555
C12 O4 1_555 1_555
C14 N2 1_555 1_555
C16 C21 1_555 1_555
C20 C21 1_555 1_555

#END
