
#######################################################################
#
#                 Cambridge Crystallographic Data Centre
#                                CCDC 
#
#######################################################################
#
# If this CIF has been generated from an entry in the Cambridge 
# Structural Database, then it will include bibliographic, chemical, 
# crystal, experimental, refinement or atomic coordinate data resulting 
# from the CCDC's data processing and validation procedures.
#
#######################################################################

data_ITUQAR
_chemical_formula_moiety         'C19 H19 Br1 O7'
_chemical_name_systematic        
'2-ethyl 4-methyl 5-(4-bromophenyl)-3-(2-ethoxy-2-oxoethyl)furan-2,4-dicarboxylate'
_symmetry_cell_setting           monoclinic
_symmetry_space_group_name_H-M   'C 2/c'
_symmetry_Int_Tables_number      15
_space_group_name_Hall           '-C 2yn'
loop_
_symmetry_equiv_pos_site_id
_symmetry_equiv_pos_as_xyz
1 x,y,z
2 -x,y,1/2-z
3 1/2+x,1/2+y,z
4 1/2-x,1/2+y,1/2-z
5 -x,-y,-z
6 x,-y,1/2+z
7 1/2-x,1/2-y,-z
8 1/2+x,1/2-y,1/2+z
_cell_length_a                   23.017(4)
_cell_length_b                   8.6051(13)
_cell_length_c                   21.680(3)
_cell_angle_alpha                90
_cell_angle_beta                 117.386(3)
_cell_angle_gamma                90
_cell_volume                     3812.78
_exptl_crystal_colour            colorless
_exptl_crystal_description       prismatic
_cell_formula_units_Z            8
loop_
_atom_site_label
_atom_site_type_symbol
_atom_site_fract_x
_atom_site_fract_y
_atom_site_fract_z
Br1 Br 0.01497(2) -0.37043(4) 1.07958(2)
O1 O 0.17358(10) 0.2735(2) 1.05983(10)
O2 O 0.07117(15) 0.0588(4) 0.86156(14)
O3 O 0.13321(14) 0.2190(4) 0.83716(13)
O4 O 0.08178(14) 0.5575(4) 0.87080(18)
O5 O 0.13766(12) 0.5912(4) 0.81113(13)
O6 O 0.25476(15) 0.6279(3) 1.06930(15)
O7 O 0.21732(12) 0.5200(3) 1.13805(12)
C1 C 0.14386(14) 0.1708(4) 1.00679(16)
C2 C 0.14708(14) 0.2243(4) 0.94903(15)
C3 C 0.18084(14) 0.3706(3) 0.96776(16)
C4 C 0.19557(14) 0.3950(3) 1.03491(16)
C5 C 0.11514(14) 0.0365(3) 1.02414(15)
C6 C 0.08767(15) 0.0584(4) 1.06855(16)
H1 H 0.0890 0.1562 1.0874
C7 C 0.05848(16) -0.0630(4) 1.08508(16)
H2 H 0.0398 -0.0475 1.1146
C8 C 0.05725(15) -0.2066(4) 1.05768(16)
C9 C 0.08495(16) -0.2323(4) 1.01378(18)
H3 H 0.0840 -0.3309 0.9958
C10 C 0.11373(16) -0.1110(4) 0.99717(18)
H4 H 0.1324 -0.1273 0.9677
C11 C 0.11298(17) 0.1558(4) 0.87966(17)
C12 C 0.0996(3) 0.1725(8) 0.7648(2)
H5 H 0.0954 0.0614 0.7620
H6 H 0.1242 0.2062 0.7416
H7 H 0.0569 0.2190 0.7431
C13 C 0.19382(15) 0.4815(4) 0.92190(16)
H8 H 0.2212 0.5660 0.9498
H9 H 0.2171 0.4279 0.9006
C14 C 0.13120(17) 0.5459(4) 0.86644(19)
C15 C 0.0756(5) 0.6738(12) 0.7621(4)
H10 H 0.0379 0.6069 0.7495
H11 H 0.0696 0.7675 0.7834
C16 C 0.0840(3) 0.7125(9) 0.7002(3)
H12 H 0.1153 0.7950 0.7114
H13 H 0.0428 0.7451 0.6632
H14 H 0.0994 0.6226 0.6859
C17 C 0.22608(15) 0.5262(4) 1.08142(17)
C18 C 0.2390(2) 0.6534(5) 1.1837(2)
H15 H 0.2074 0.7371 1.1645
H16 H 0.2806 0.6899 1.1884
C19 C 0.2457(3) 0.6088(5) 1.2521(2)
H17 H 0.2045 0.5718 1.2472
H18 H 0.2593 0.6973 1.2825
H19 H 0.2779 0.5279 1.2715
C20? C 0.0826(8) 0.6128(16) 0.7414(8)
H20? H 0.0434 0.5608 0.7369
H21? H 0.0932 0.5752 0.7056
C21? C 0.0746(8) 0.7846(18) 0.7382(9)
H22? H 0.0692 0.8195 0.7773
H23? H 0.0368 0.8128 0.6960
H24? H 0.1128 0.8324 0.7393
loop_
_geom_bond_atom_site_label_1
_geom_bond_atom_site_label_2
_geom_bond_site_symmetry_1
_geom_bond_site_symmetry_2
Br1 C8 1_555 1_555
O1 C1 1_555 1_555
O2 C11 1_555 1_555
O3 C11 1_555 1_555
O4 C14 1_555 1_555
O5 C14 1_555 1_555
O6 C17 1_555 1_555
O7 C17 1_555 1_555
C1 C2 1_555 1_555
C2 C3 1_555 1_555
C3 C4 1_555 1_555
C4 O1 1_555 1_555
C5 C1 1_555 1_555
C6 C5 1_555 1_555
H1 C6 1_555 1_555
C7 C6 1_555 1_555
H2 C7 1_555 1_555
C8 C7 1_555 1_555
C9 C8 1_555 1_555
H3 C9 1_555 1_555
C10 C5 1_555 1_555
H4 C10 1_555 1_555
C11 C2 1_555 1_555
C12 O3 1_555 1_555
H5 C12 1_555 1_555
H6 C12 1_555 1_555
H7 C12 1_555 1_555
C13 C3 1_555 1_555
H8 C13 1_555 1_555
H9 C13 1_555 1_555
C14 C13 1_555 1_555
C15 O5 1_555 1_555
H10 C15 1_555 1_555
H11 C15 1_555 1_555
C16 C15 1_555 1_555
H12 C16 1_555 1_555
H13 C16 1_555 1_555
H14 C16 1_555 1_555
C17 C4 1_555 1_555
C18 O7 1_555 1_555
H15 C18 1_555 1_555
H16 C18 1_555 1_555
C19 C18 1_555 1_555
H17 C19 1_555 1_555
H18 C19 1_555 1_555
H19 C19 1_555 1_555
C9 C10 1_555 1_555

#END
