
#######################################################################
#
#                 Cambridge Crystallographic Data Centre
#                                CCDC 
#
#######################################################################
#
# If this CIF has been generated from an entry in the Cambridge 
# Structural Database, then it will include bibliographic, chemical, 
# crystal, experimental, refinement or atomic coordinate data resulting 
# from the CCDC's data processing and validation procedures.
#
#######################################################################

data_ITUWOL
_chemical_formula_moiety         'C21 H31 B1 N1 O1 P1'
_chemical_name_systematic        
(trihydridoboranidyl)(diphenyl)((2,2,6,6-tetramethylpiperidin-1-yl)oxy)phosphanium
_symmetry_cell_setting           monoclinic
_symmetry_space_group_name_H-M   'P 21/c'
_symmetry_Int_Tables_number      14
_space_group_name_Hall           '-P 2ybc'
loop_
_symmetry_equiv_pos_site_id
_symmetry_equiv_pos_as_xyz
1 x,y,z
2 -x,1/2+y,1/2-z
3 -x,-y,-z
4 x,1/2-y,1/2+z
_cell_length_a                   11.3341(5)
_cell_length_b                   9.1423(4)
_cell_length_c                   20.0512(7)
_cell_angle_alpha                90
_cell_angle_beta                 91.678(2)
_cell_angle_gamma                90
_cell_volume                     2076.81
_exptl_crystal_colour            colorless
_exptl_crystal_description       rod
_cell_formula_units_Z            4
loop_
_atom_site_label
_atom_site_type_symbol
_atom_site_fract_x
_atom_site_fract_y
_atom_site_fract_z
P1 P 0.26986(3) 0.54230(3) 0.374726(15)
O1 O 0.22752(8) 0.51209(9) 0.29790(4)
N1 N 0.29316(9) 0.59040(11) 0.24546(5)
C1 C 0.13526(11) 0.60736(14) 0.41144(6)
C2 C 0.13979(13) 0.71893(16) 0.45825(7)
H1 H 0.2139 0.7587 0.4721
C3 C 0.03697(14) 0.77315(17) 0.48509(7)
H2 H 0.0412 0.8495 0.5172
C4 C -0.07101(13) 0.71665(16) 0.46531(7)
H3 H -0.1414 0.7541 0.4835
C5 C -0.07638(13) 0.60537(16) 0.41895(8)
H4 H -0.1508 0.5661 0.4052
C6 C 0.02532(13) 0.55042(16) 0.39231(7)
H5 H 0.0204 0.4732 0.3607
C7 C 0.28824(11) 0.35705(13) 0.40526(6)
C8 C 0.36425(12) 0.32930(15) 0.45984(6)
H6 H 0.4049 0.4079 0.4813
C9 C 0.38059(12) 0.18769(15) 0.48283(7)
H7 H 0.4321 0.1696 0.5201
C10 C 0.32216(12) 0.07254(15) 0.45168(7)
H8 H 0.3343 -0.0246 0.4673
C11 C 0.24594(13) 0.09864(15) 0.39770(7)
H9 H 0.2054 0.0195 0.3765
C12 C 0.22879(12) 0.24012(14) 0.37458(6)
H10 H 0.1763 0.2577 0.3376
C13 C 0.20319(12) 0.68390(15) 0.20982(6)
C14 C 0.26691(13) 0.75433(15) 0.15118(6)
H11 H 0.2088 0.8104 0.1237
H12 H 0.3265 0.8243 0.1691
C15 C 0.32778(13) 0.64438(16) 0.10690(6)
H13 H 0.2684 0.5791 0.0853
H14 H 0.3703 0.6963 0.0715
C16 C 0.41429(12) 0.55499(15) 0.14939(6)
H15 H 0.4764 0.6208 0.1680
H16 H 0.4530 0.4823 0.1207
C17 C 0.35598(12) 0.47458(14) 0.20703(6)
C18 C 0.17070(14) 0.80600(16) 0.25808(7)
H17 H 0.2429 0.8477 0.2784
H18 H 0.1215 0.7660 0.2931
H19 H 0.1269 0.8825 0.2337
C19 C 0.08989(12) 0.60552(18) 0.18555(7)
H20 H 0.0323 0.6780 0.1691
H21 H 0.0567 0.5508 0.2226
H22 H 0.1084 0.5378 0.1494
C20 C 0.28030(13) 0.34633(15) 0.18121(7)
H23 H 0.2306 0.3789 0.1432
H24 H 0.2301 0.3114 0.2169
H25 H 0.3318 0.2668 0.1670
C21 C 0.45453(13) 0.41414(16) 0.25292(7)
H26 H 0.5012 0.4953 0.2716
H27 H 0.5056 0.3500 0.2273
H28 H 0.4199 0.3584 0.2892
B1 B 0.40088(14) 0.66490(17) 0.39667(8)
H29 H 0.3836(12) 0.7765(15) 0.3777(7)
H30 H 0.4831(12) 0.6110(15) 0.3778(7)
H31 H 0.3976(12) 0.6617(15) 0.4530(7)
loop_
_geom_bond_atom_site_label_1
_geom_bond_atom_site_label_2
_geom_bond_site_symmetry_1
_geom_bond_site_symmetry_2
P1 O1 1_555 1_555
O1 N1 1_555 1_555
N1 C13 1_555 1_555
C1 P1 1_555 1_555
C2 C1 1_555 1_555
H1 C2 1_555 1_555
C3 C2 1_555 1_555
H2 C3 1_555 1_555
C4 C3 1_555 1_555
H3 C4 1_555 1_555
C5 C4 1_555 1_555
H4 C5 1_555 1_555
C6 C1 1_555 1_555
H5 C6 1_555 1_555
C7 P1 1_555 1_555
C8 C7 1_555 1_555
H6 C8 1_555 1_555
C9 C8 1_555 1_555
H7 C9 1_555 1_555
C10 C9 1_555 1_555
H8 C10 1_555 1_555
C11 C10 1_555 1_555
H9 C11 1_555 1_555
C12 C7 1_555 1_555
H10 C12 1_555 1_555
C13 C14 1_555 1_555
C14 H11 1_555 1_555
H12 C14 1_555 1_555
C15 C14 1_555 1_555
H13 C15 1_555 1_555
H14 C15 1_555 1_555
C16 C15 1_555 1_555
H15 C16 1_555 1_555
H16 C16 1_555 1_555
C17 N1 1_555 1_555
C18 C13 1_555 1_555
H17 C18 1_555 1_555
H18 C18 1_555 1_555
H19 C18 1_555 1_555
C19 C13 1_555 1_555
H20 C19 1_555 1_555
H21 C19 1_555 1_555
H22 C19 1_555 1_555
C20 C17 1_555 1_555
H23 C20 1_555 1_555
H24 C20 1_555 1_555
H25 C20 1_555 1_555
C21 C17 1_555 1_555
H26 C21 1_555 1_555
H27 C21 1_555 1_555
H28 C21 1_555 1_555
B1 P1 1_555 1_555
H29 B1 1_555 1_555
H30 B1 1_555 1_555
H31 B1 1_555 1_555
C5 C6 1_555 1_555
C11 C12 1_555 1_555
C16 C17 1_555 1_555

#END
