
#######################################################################
#
#                 Cambridge Crystallographic Data Centre
#                                CCDC 
#
#######################################################################
#
# If this CIF has been generated from an entry in the Cambridge 
# Structural Database, then it will include bibliographic, chemical, 
# crystal, experimental, refinement or atomic coordinate data resulting 
# from the CCDC's data processing and validation procedures.
#
#######################################################################

data_ITUXIF
_chemical_formula_moiety         'C21 H17 F3 N2 O3'
_chemical_name_systematic        
'cis-Ethyl 2-cyano-3-phenyl-2-((4-(trifluoromethyl)phenyl)carbamoyl)cyclopropanecarboxylate'
_symmetry_cell_setting           triclinic
_symmetry_space_group_name_H-M   'P -1'
_symmetry_Int_Tables_number      2
_space_group_name_Hall           '-P 1'
loop_
_symmetry_equiv_pos_site_id
_symmetry_equiv_pos_as_xyz
1 x,y,z
2 -x,-y,-z
_cell_length_a                   9.137(5)
_cell_length_b                   9.805(5)
_cell_length_c                   11.580(6)
_cell_angle_alpha                89.004(7)
_cell_angle_beta                 89.676(7)
_cell_angle_gamma                74.236(7)
_cell_volume                     998.262
_exptl_crystal_colour            colorless
_exptl_crystal_description       layer
_chemical_melting_point          '148-150 deg.C'
_cell_formula_units_Z            2
loop_
_atom_site_label
_atom_site_type_symbol
_atom_site_fract_x
_atom_site_fract_y
_atom_site_fract_z
C1 C 1.4825(8) 0.2393(7) 0.5063(7)
H1 H 1.4516 0.2673 0.5809
C2 C 1.6086(8) 0.2699(9) 0.4614(9)
H2 H 1.6615 0.3187 0.5060
C3 C 1.6592(9) 0.2304(9) 0.3521(8)
H3 H 1.7430 0.2541 0.3205
C4 C 1.5792(9) 0.1532(11) 0.2906(8)
H4 H 1.6146 0.1194 0.2182
C5 C 1.4512(8) 0.1258(9) 0.3332(8)
H5 H 1.3976 0.0785 0.2879
C6 C 1.3992(7) 0.1672(7) 0.4430(6)
C7 C 1.2585(7) 0.1332(7) 0.4859(6)
H6 H 1.2740 0.0376 0.5187
C8 C 1.1119(8) 0.1901(7) 0.4202(6)
H7 H 1.0466 0.1258 0.4175
C9 C 1.1303(7) 0.2465(7) 0.5403(6)
C10 C 1.1504(7) 0.3873(8) 0.5541(6)
C11 C 1.1014(8) 0.2848(9) 0.3179(7)
C12 C 1.0097(14) 0.3284(14) 0.1284(9)
H8 H 0.9554 0.4248 0.1475
H9 H 1.1075 0.3292 0.0958
C13 C 0.926(2) 0.275(2) 0.0475(12)
H10 H 0.9120 0.3332 -0.0213
H11 H 0.8287 0.2762 0.0796
H12 H 0.9803 0.1797 0.0290
C14 C 1.0298(7) 0.1943(7) 0.6285(6)
C15 C 0.7926(8) 0.2810(7) 0.7428(6)
C16 C 0.6684(9) 0.3959(9) 0.7498(8)
H13 H 0.6713 0.4809 0.7142
C17 C 0.5406(9) 0.3885(9) 0.8079(8)
H14 H 0.4574 0.4678 0.8123
C18 C 0.5359(10) 0.2622(9) 0.8601(7)
C19 C 0.6644(11) 0.1499(9) 0.8531(7)
H15 H 0.6637 0.0656 0.8909
C20 C 0.7919(9) 0.1547(8) 0.7944(7)
H16 H 0.8752 0.0756 0.7895
C21 C 0.3956(11) 0.2470(13) 0.9240(11)
O1 O 1.1474(6) 0.3876(5) 0.3128(5)
O2 O 1.0321(6) 0.2382(6) 0.2330(5)
O3 O 1.0466(6) 0.0698(5) 0.6431(5)
N1 N 1.1638(7) 0.4957(7) 0.5755(6)
N2 N 0.9208(6) 0.2998(6) 0.6764(5)
H17 H 0.9281 0.3849 0.6667
F1 F 0.356(3) 0.348(3) 1.001(2)
F2 F 0.2766(17) 0.278(3) 0.8573(16)
F3 F 0.395(2) 0.1271(19) 0.973(3)
F4? F 0.422(3) 0.221(5) 1.031(2)
F5? F 0.296(3) 0.375(3) 0.921(4)
F6? F 0.339(5) 0.166(5) 0.858(3)
loop_
_geom_bond_atom_site_label_1
_geom_bond_atom_site_label_2
_geom_bond_site_symmetry_1
_geom_bond_site_symmetry_2
C1 H1 1_555 1_555
C2 C1 1_555 1_555
H2 C2 1_555 1_555
C3 C2 1_555 1_555
H3 C3 1_555 1_555
C4 C3 1_555 1_555
H4 C4 1_555 1_555
C5 C4 1_555 1_555
H5 C5 1_555 1_555
C6 C1 1_555 1_555
C7 C6 1_555 1_555
H6 C7 1_555 1_555
C8 C7 1_555 1_555
H7 C8 1_555 1_555
C9 C7 1_555 1_555
C10 C9 1_555 1_555
C11 C8 1_555 1_555
C12 H8 1_555 1_555
H9 C12 1_555 1_555
C13 C12 1_555 1_555
H10 C13 1_555 1_555
H11 C13 1_555 1_555
H12 C13 1_555 1_555
C14 C9 1_555 1_555
C15 C16 1_555 1_555
C16 H13 1_555 1_555
C17 C16 1_555 1_555
H14 C17 1_555 1_555
C18 C17 1_555 1_555
C19 C18 1_555 1_555
H15 C19 1_555 1_555
C20 C15 1_555 1_555
H16 C20 1_555 1_555
C21 C18 1_555 1_555
O1 C11 1_555 1_555
O2 C11 1_555 1_555
O3 C14 1_555 1_555
N1 C10 1_555 1_555
N2 C14 1_555 1_555
H17 N2 1_555 1_555
F1 C21 1_555 1_555
F2 C21 1_555 1_555
F3 C21 1_555 1_555
C5 C6 1_555 1_555
C8 C9 1_555 1_555
C12 O2 1_555 1_555
C15 N2 1_555 1_555
C19 C20 1_555 1_555

#END
