
#######################################################################
#
#                 Cambridge Crystallographic Data Centre
#                                CCDC 
#
#######################################################################
#
# If this CIF has been generated from an entry in the Cambridge 
# Structural Database, then it will include bibliographic, chemical, 
# crystal, experimental, refinement or atomic coordinate data resulting 
# from the CCDC's data processing and validation procedures.
#
#######################################################################

data_IVADIT
_chemical_formula_moiety         'C23 H25 N1 O4,C7 H8'
_chemical_name_systematic        
'8a-Hydroxy-3-nitro-2,4-diphenyldecahydronaphthalene-1-carbaldehyde toluene solvate'
_symmetry_cell_setting           orthorhombic
_symmetry_space_group_name_H-M   'P 21 21 21'
_symmetry_Int_Tables_number      19
_space_group_name_Hall           'P 2ac 2ab'
loop_
_symmetry_equiv_pos_site_id
_symmetry_equiv_pos_as_xyz
1 x,y,z
2 1/2-x,-y,1/2+z
3 -x,1/2+y,1/2-z
4 1/2+x,1/2-y,-z
_cell_length_a                   8.3963(4)
_cell_length_b                   11.4021(5)
_cell_length_c                   26.4261(12)
_cell_angle_alpha                90
_cell_angle_beta                 90
_cell_angle_gamma                90
_cell_volume                     2529.91
_exptl_crystal_colour            colorless
_exptl_crystal_description       prism
_cell_formula_units_Z            4
loop_
_atom_site_label
_atom_site_type_symbol
_atom_site_fract_x
_atom_site_fract_y
_atom_site_fract_z
C1 C 0.5972(3) 0.62741(19) 0.00873(9)
H1 H 0.6223 0.7122 0.0033
C2 C 0.5030(3) 0.58454(19) -0.03769(8)
H2 H 0.4225 0.6471 -0.0447
C3 C 0.6071(3) 0.5789(2) -0.08481(9)
C4 C 0.6986(3) 0.4808(2) -0.09674(9)
H3 H 0.6982 0.4153 -0.0746
C5 C 0.7904(4) 0.4770(3) -0.14051(11)
H4 H 0.8535 0.4099 -0.1478
C6 C 0.7893(4) 0.5714(3) -0.17330(10)
H5 H 0.8501 0.5686 -0.2036
C7 C 0.7004(4) 0.6694(3) -0.16215(10)
H6 H 0.7004 0.7343 -0.1847
C8 C 0.6108(3) 0.6738(2) -0.11806(9)
H7 H 0.5511 0.7424 -0.1104
C9 C 0.4065(3) 0.47158(19) -0.02901(9)
H8 H 0.4835 0.4053 -0.0251
C10 C 0.2997(3) 0.4444(2) -0.07443(9)
H9 H 0.2235 0.5096 -0.0794
H10 H 0.3661 0.4382 -0.1053
C11 C 0.2075(3) 0.3301(2) -0.06706(10)
H11 H 0.1383 0.3159 -0.0968
H12 H 0.2831 0.2638 -0.0642
C12 C 0.1064(3) 0.3372(2) -0.01953(10)
H13 H 0.0521 0.2612 -0.0141
H14 H 0.0236 0.3982 -0.0240
C13 C 0.2067(3) 0.36650(19) 0.02666(9)
H15 H 0.2793 0.3001 0.0338
H16 H 0.1357 0.3761 0.0563
C14 C 0.3061(3) 0.47890(18) 0.02002(9)
C15 C 0.5054(3) 0.61744(19) 0.05917(9)
H17 H 0.4186 0.6773 0.0572
C16 C 0.6073(3) 0.6530(2) 0.10447(9)
C17 C 0.6046(3) 0.7678(2) 0.12080(9)
H18 H 0.5402 0.8234 0.1035
C18 C 0.6945(4) 0.8033(3) 0.16205(10)
H19 H 0.6919 0.8828 0.1727
C19 C 0.7872(4) 0.7236(3) 0.18745(10)
H20 H 0.8481 0.7478 0.2159
C20 C 0.7920(4) 0.6092(3) 0.17172(10)
H21 H 0.8572 0.5543 0.1891
C21 C 0.7027(4) 0.5733(2) 0.13080(10)
H22 H 0.7060 0.4935 0.1204
C22 C 0.4203(3) 0.4984(2) 0.06519(9)
H23 H 0.5022 0.4347 0.0651
C23 C 0.3315(3) 0.4945(3) 0.11482(10)
H24 H 0.2677 0.5600 0.1238
N1 N 0.7534(3) 0.56265(17) 0.01306(7)
O1 O 0.8758(2) 0.61899(16) 0.00694(8)
O2 O 0.7532(2) 0.45657(13) 0.02188(7)
O3 O 0.2012(2) 0.57847(13) 0.01763(7)
H33 H 0.2553 0.6402 0.0151
O4 O 0.3370(3) 0.41318(19) 0.14358(7)
C24 C 0.9791(4) 0.2789(3) 0.17013(13)
H25 H 1.0782 0.2336 0.1722
H26 H 0.9956 0.3566 0.1850
H27 H 0.9479 0.2874 0.1346
C25 C 0.8511(4) 0.2165(3) 0.19830(10)
C26 C 0.6997(4) 0.2624(3) 0.20170(10)
H28 H 0.6765 0.3350 0.1857
C27 C 0.5801(4) 0.2039(3) 0.22817(11)
H29 H 0.4756 0.2357 0.2295
C28 C 0.6140(5) 0.1006(3) 0.25220(12)
H30 H 0.5333 0.0619 0.2711
C29 C 0.7640(5) 0.0523(3) 0.24929(11)
H31 H 0.7864 -0.0199 0.2657
C30 C 0.8815(5) 0.1094(3) 0.22236(10)
H32 H 0.9846 0.0755 0.2201
loop_
_geom_bond_atom_site_label_1
_geom_bond_atom_site_label_2
_geom_bond_site_symmetry_1
_geom_bond_site_symmetry_2
C1 H1 1_555 1_555
C2 C1 1_555 1_555
H2 C2 1_555 1_555
C3 C2 1_555 1_555
C4 C3 1_555 1_555
H3 C4 1_555 1_555
C5 C4 1_555 1_555
H4 C5 1_555 1_555
C6 C5 1_555 1_555
H5 C6 1_555 1_555
C7 C6 1_555 1_555
H6 C7 1_555 1_555
C8 C3 1_555 1_555
H7 C8 1_555 1_555
C9 C2 1_555 1_555
H8 C9 1_555 1_555
C10 C9 1_555 1_555
H9 C10 1_555 1_555
H10 C10 1_555 1_555
C11 C10 1_555 1_555
H11 C11 1_555 1_555
H12 C11 1_555 1_555
C12 C11 1_555 1_555
H13 C12 1_555 1_555
H14 C12 1_555 1_555
C13 C12 1_555 1_555
H15 C13 1_555 1_555
H16 C13 1_555 1_555
C14 C9 1_555 1_555
C15 C1 1_555 1_555
H17 C15 1_555 1_555
C16 C15 1_555 1_555
C17 C16 1_555 1_555
H18 C17 1_555 1_555
C18 C17 1_555 1_555
H19 C18 1_555 1_555
C19 C18 1_555 1_555
H20 C19 1_555 1_555
C20 C19 1_555 1_555
H21 C20 1_555 1_555
C21 C16 1_555 1_555
H22 C21 1_555 1_555
C22 C14 1_555 1_555
H23 C22 1_555 1_555
C23 C22 1_555 1_555
H24 C23 1_555 1_555
C24 H25 1_555 1_555
H26 C24 1_555 1_555
H27 C24 1_555 1_555
C25 C24 1_555 1_555
C26 C25 1_555 1_555
H28 C26 1_555 1_555
C27 C26 1_555 1_555
H29 C27 1_555 1_555
C28 C27 1_555 1_555
H30 C28 1_555 1_555
C29 C28 1_555 1_555
H31 C29 1_555 1_555
C30 C25 1_555 1_555
H32 C30 1_555 1_555
N1 C1 1_555 1_555
O1 N1 1_555 1_555
O2 N1 1_555 1_555
O3 C14 1_555 1_555
H33 O3 1_555 1_555
O4 C23 1_555 1_555
C7 C8 1_555 1_555
C13 C14 1_555 1_555
C15 C22 1_555 1_555
C20 C21 1_555 1_555
C29 C30 1_555 1_555

#END
