
#######################################################################
#
#                 Cambridge Crystallographic Data Centre
#                                CCDC 
#
#######################################################################
#
# If this CIF has been generated from an entry in the Cambridge 
# Structural Database, then it will include bibliographic, chemical, 
# crystal, experimental, refinement or atomic coordinate data resulting 
# from the CCDC's data processing and validation procedures.
#
#######################################################################

data_IVAHIX
_chemical_formula_moiety         'C57 H42 N4 O3,0.5(C6 H6),H2 O1'
_chemical_name_systematic        
"2,2',2''-(Nitrilotris(ethane-2,1-diylnitrilomethylylidene))tripyren-1-ol benzene solvate monohydrate"
_symmetry_cell_setting           rhombohedral
_symmetry_space_group_name_H-M   'R -3'
_symmetry_Int_Tables_number      148
_space_group_name_Hall           '-R 3'
loop_
_symmetry_equiv_pos_site_id
_symmetry_equiv_pos_as_xyz
1 x,y,z
2 -y,x-y,z
3 -x+y,-x,z
4 2/3+x,1/3+y,1/3+z
5 2/3-y,1/3+x-y,1/3+z
6 2/3-x+y,1/3-x,1/3+z
7 1/3+x,2/3+y,2/3+z
8 1/3-y,2/3+x-y,2/3+z
9 1/3-x+y,2/3-x,2/3+z
10 -x,-y,-z
11 y,-x+y,-z
12 x-y,x,-z
13 1/3-x,2/3-y,2/3-z
14 1/3+y,2/3-x+y,2/3-z
15 1/3+x-y,2/3+x,2/3-z
16 2/3-x,1/3-y,1/3-z
17 2/3+y,1/3-x+y,1/3-z
18 2/3+x-y,1/3+x,1/3-z
_cell_length_a                   15.600(2)
_cell_length_b                   15.600(2)
_cell_length_c                   33.184(7)
_cell_angle_alpha                90
_cell_angle_beta                 90
_cell_angle_gamma                120
_cell_volume                     6993.73
_exptl_crystal_colour            'red orange'
_exptl_crystal_description       plate
_cell_formula_units_Z            6
loop_
_atom_site_label
_atom_site_type_symbol
_atom_site_fract_x
_atom_site_fract_y
_atom_site_fract_z
C1 C 0.6844(4) 0.4308(4) -0.04876(16)
H1 H 0.6477 0.4250 -0.0732
H2 H 0.7543 0.4733 -0.0546
C2 C 0.6539(5) 0.4780(4) -0.01621(17)
H3 H 0.6469 0.5314 -0.0276
H4 H 0.5906 0.4293 -0.0050
C3 C 0.7020(4) 0.4880(3) 0.0507(2)
H5 H 0.6357 0.4421 0.0554
C4 C 0.7690(3) 0.5230(3) 0.08548(19)
C5 C 0.8705(4) 0.5952(3) 0.0787(2)
C6 C 0.9338(4) 0.6342(3) 0.1116(2)
C7 C 0.8993(3) 0.6013(3) 0.15003(19)
C8 C 0.7964(3) 0.5273(3) 0.15631(18)
C9 C 0.7366(4) 0.4925(3) 0.12389(18)
H6 H 0.6703 0.4457 0.1279
C10 C 1.0352(4) 0.7094(4) 0.1068(3)
H7 H 1.0604 0.7307 0.0811
C11 C 1.0942(5) 0.7495(4) 0.1386(3)
H8 H 1.1589 0.8002 0.1344
C12 C 1.0623(5) 0.7179(4) 0.1779(3)
C13 C 0.9624(4) 0.6417(4) 0.1836(2)
C14 C 0.9263(5) 0.6079(4) 0.2235(3)
C15 C 0.8245(5) 0.5315(4) 0.2296(2)
H9 H 0.8010 0.5064 0.2552
C16 C 0.7632(4) 0.4968(4) 0.1963(2)
H10 H 0.6966 0.4510 0.2003
C17 C 1.1214(6) 0.7580(6) 0.2129(4)
H11 H 1.1863 0.8093 0.2099
C18 C 1.0869(7) 0.7245(7) 0.2511(3)
H12 H 1.1285 0.7522 0.2731
C19 C 0.9917(7) 0.6505(5) 0.2565(2)
H13 H 0.9693 0.6274 0.2824
N1 N 0.6667 0.3333 -0.03711(18)
N2 N 0.7280(3) 0.5159(3) 0.01495(16)
O1 O 0.9049(3) 0.6278(3) 0.04158(15)
H14 H 0.851(3) 0.611(5) 0.0231(14)
C1A C 0.5692(4) 0.2536(6) -0.04876(16)
C1B C 0.7464(6) 0.3156(4) -0.04876(16)
H1A H 0.5750 0.2227 -0.0732
H1B H 0.7773 0.3523 -0.0732
H2A H 0.5267 0.2810 -0.0546
H2B H 0.7190 0.2457 -0.0546
C2A C 0.5220(4) 0.1759(6) -0.01621(17)
C2B C 0.8241(6) 0.3461(5) -0.01621(17)
H3A H 0.4686 0.1155 -0.0276
H3B H 0.8845 0.3531 -0.0276
H4A H 0.5707 0.1613 -0.0050
H4B H 0.8387 0.4094 -0.0050
C3A C 0.5120(3) 0.2140(5) 0.0507(2)
C3B C 0.7860(5) 0.2980(4) 0.0507(2)
H5A H 0.5579 0.1936 0.0554
H5B H 0.8064 0.3643 0.0554
C4A C 0.4770(3) 0.2460(4) 0.08548(19)
C4B C 0.7540(4) 0.2310(3) 0.08548(19)
C5A C 0.4048(3) 0.2753(5) 0.0787(2)
C5B C 0.7247(5) 0.1295(4) 0.0787(2)
C6A C 0.3658(3) 0.2996(5) 0.1116(2)
C6B C 0.7004(5) 0.0662(4) 0.1116(2)
C7A C 0.3987(3) 0.2980(4) 0.15003(19)
C7B C 0.7020(4) 0.1007(3) 0.15003(19)
C8A C 0.4727(3) 0.2691(4) 0.15631(18)
C8B C 0.7309(4) 0.2036(3) 0.15631(18)
C9A C 0.5075(3) 0.2441(5) 0.12389(18)
C9B C 0.7559(5) 0.2634(4) 0.12389(18)
H6A H 0.5543 0.2246 0.1279
H6B H 0.7754 0.3297 0.1279
C10A C 0.2906(4) 0.3258(6) 0.1068(3)
C10B C 0.6742(6) -0.0352(4) 0.1068(3)
H7A H 0.2693 0.3297 0.0811
H7B H 0.6703 -0.0604 0.0811
C11A C 0.2505(4) 0.3447(6) 0.1386(3)
C11B C 0.6553(6) -0.0942(5) 0.1386(3)
H8A H 0.1998 0.3587 0.1344
H8B H 0.6413 -0.1589 0.1344
C12A C 0.2821(4) 0.3444(6) 0.1779(3)
C12B C 0.6556(6) -0.0623(5) 0.1779(3)
C13A C 0.3583(4) 0.3207(6) 0.1836(2)
C13B C 0.6793(6) 0.0376(4) 0.1836(2)
C14A C 0.3921(4) 0.3184(6) 0.2235(3)
C14B C 0.6816(6) 0.0737(5) 0.2235(3)
C15A C 0.4685(4) 0.2930(6) 0.2296(2)
C15B C 0.7070(6) 0.1755(5) 0.2296(2)
H9A H 0.4936 0.2946 0.2552
H9B H 0.7054 0.1990 0.2552
C16A C 0.5032(4) 0.2664(6) 0.1963(2)
C16B C 0.7336(6) 0.2368(4) 0.1963(2)
H10A H 0.5490 0.2456 0.2003
H10B H 0.7544 0.3034 0.2003
C17A C 0.2420(6) 0.3634(8) 0.2129(4)
C17B C 0.6366(8) -0.1214(6) 0.2129(4)
H11A H 0.1907 0.3770 0.2099
H11B H 0.6230 -0.1863 0.2099
C18A C 0.2755(7) 0.3624(10) 0.2511(3)
C18B C 0.6376(10) -0.0869(7) 0.2511(3)
H12A H 0.2478 0.3763 0.2731
H12B H 0.6237 -0.1285 0.2731
C19A C 0.3495(5) 0.3412(9) 0.2565(2)
C19B C 0.6588(9) 0.0083(7) 0.2565(2)
H13A H 0.3726 0.3419 0.2824
H13B H 0.6581 0.0307 0.2824
N2A N 0.4841(3) 0.2121(4) 0.01495(16)
N2B N 0.7879(4) 0.2720(3) 0.01495(16)
O1A O 0.3722(3) 0.2771(4) 0.04158(15)
O1B O 0.7229(4) 0.0951(3) 0.04158(15)
H14A H 0.389(5) 0.240(6) 0.0231(14)
H14B H 0.760(6) 0.149(3) 0.0231(14)
C20 C 0.272(4) 0.703(4) 0.1671(8)
C20P C 0.370(4) 0.764(6) 0.1662(8)
C20Q C 0.236(6) 0.605(4) 0.1662(8)
C20A C 0.297(4) 0.569(6) 0.1671(8)
C20B C 0.431(6) 0.728(4) 0.1671(8)
C20O C 0.395(4) 0.630(4) 0.1662(8)
O2 O 0.7727(11) 0.5136(10) 0.3416(4)
loop_
_geom_bond_atom_site_label_1
_geom_bond_atom_site_label_2
_geom_bond_site_symmetry_1
_geom_bond_site_symmetry_2
C1 H1 1_555 1_555
H2 C1 1_555 1_555
C2 C1 1_555 1_555
H3 C2 1_555 1_555
H4 C2 1_555 1_555
C3 H5 1_555 1_555
C4 C3 1_555 1_555
C5 C4 1_555 1_555
C6 C5 1_555 1_555
C7 C6 1_555 1_555
C8 C7 1_555 1_555
C9 C4 1_555 1_555
H6 C9 1_555 1_555
C10 C6 1_555 1_555
H7 C10 1_555 1_555
C11 C10 1_555 1_555
H8 C11 1_555 1_555
C12 C11 1_555 1_555
C13 C7 1_555 1_555
C14 C13 1_555 1_555
C15 C14 1_555 1_555
H9 C15 1_555 1_555
C16 C8 1_555 1_555
H10 C16 1_555 1_555
C17 C12 1_555 1_555
H11 C17 1_555 1_555
C18 C17 1_555 1_555
H12 C18 1_555 1_555
C19 C14 1_555 1_555
H13 C19 1_555 1_555
N1 C1 1_555 1_555
N2 C2 1_555 1_555
O1 C5 1_555 1_555
H14 O1 1_555 1_555
C20 C20P 1_555 1_555
C1A N1 1_555 1_555
C1B N1 1_555 1_555
H1A C1A 1_555 1_555
H1B C1B 1_555 1_555
H2A C1A 1_555 1_555
H2B C1B 1_555 1_555
C2A C1A 1_555 1_555
C2B C1B 1_555 1_555
H3A C2A 1_555 1_555
H3B C2B 1_555 1_555
H4A C2A 1_555 1_555
H4B C2B 1_555 1_555
C3A H5A 1_555 1_555
C3B H5B 1_555 1_555
C4A C3A 1_555 1_555
C4B C3B 1_555 1_555
C5A C4A 1_555 1_555
C5B C4B 1_555 1_555
C6A C5A 1_555 1_555
C6B C5B 1_555 1_555
C7A C6A 1_555 1_555
C7B C6B 1_555 1_555
C8A C7A 1_555 1_555
C8B C7B 1_555 1_555
C9A C4A 1_555 1_555
C9B C4B 1_555 1_555
H6A C9A 1_555 1_555
H6B C9B 1_555 1_555
C10A C6A 1_555 1_555
C10B C6B 1_555 1_555
H7A C10A 1_555 1_555
H7B C10B 1_555 1_555
C11A C10A 1_555 1_555
C11B C10B 1_555 1_555
H8A C11A 1_555 1_555
H8B C11B 1_555 1_555
C12A C11A 1_555 1_555
C12B C11B 1_555 1_555
C13A C7A 1_555 1_555
C13B C7B 1_555 1_555
C14A C13A 1_555 1_555
C14B C13B 1_555 1_555
C15A C14A 1_555 1_555
C15B C14B 1_555 1_555
H9A C15A 1_555 1_555
H9B C15B 1_555 1_555
C16A C8A 1_555 1_555
C16B C8B 1_555 1_555
H10A C16A 1_555 1_555
H10B C16B 1_555 1_555
C17A C12A 1_555 1_555
C17B C12B 1_555 1_555
H11A C17A 1_555 1_555
H11B C17B 1_555 1_555
C18A C17A 1_555 1_555
C18B C17B 1_555 1_555
H12A C18A 1_555 1_555
H12B C18B 1_555 1_555
C19A C14A 1_555 1_555
C19B C14B 1_555 1_555
H13A C19A 1_555 1_555
H13B C19B 1_555 1_555
N2A C2A 1_555 1_555
N2B C2B 1_555 1_555
O1A C5A 1_555 1_555
O1B C5B 1_555 1_555
H14A O1A 1_555 1_555
H14B O1B 1_555 1_555
C20P C20B 1_555 1_555
C20Q C20 1_555 1_555
C20A C20Q 1_555 1_555
C20B C20O 1_555 1_555
C20O C20A 1_555 1_555
C3 N2 1_555 1_555
C8 C9 1_555 1_555
C12 C13 1_555 1_555
C15 C16 1_555 1_555
C18 C19 1_555 1_555
C3A N2A 1_555 1_555
C3B N2B 1_555 1_555
C8A C9A 1_555 1_555
C8B C9B 1_555 1_555
C12A C13A 1_555 1_555
C12B C13B 1_555 1_555
C15A C16A 1_555 1_555
C15B C16B 1_555 1_555
C18A C19A 1_555 1_555
C18B C19B 1_555 1_555

#END
