
#######################################################################
#
#                 Cambridge Crystallographic Data Centre
#                                CCDC 
#
#######################################################################
#
# If this CIF has been generated from an entry in the Cambridge 
# Structural Database, then it will include bibliographic, chemical, 
# crystal, experimental, refinement or atomic coordinate data resulting 
# from the CCDC's data processing and validation procedures.
#
#######################################################################

data_IVAMUP
_chemical_formula_moiety         'C43 H37 B1 Cl1 F12 O1 P1,C6 H14'
_chemical_name_systematic        
'2,2-bis(3,5-bis(trifluoromethyl)phenyl)-6-(4-chlorophenyl)-5,5-bis(2,4,6-trimethylphenyl)-1,5,2-oxaphosphaborinan-5-ium-2-ate hexane solvate'
_symmetry_cell_setting           triclinic
_symmetry_space_group_name_H-M   'P -1'
_symmetry_Int_Tables_number      2
_space_group_name_Hall           '-P 1'
loop_
_symmetry_equiv_pos_site_id
_symmetry_equiv_pos_as_xyz
1 x,y,z
2 -x,-y,-z
_cell_length_a                   14.6351(6)
_cell_length_b                   16.3641(7)
_cell_length_c                   20.1655(8)
_cell_angle_alpha                85.853(2)
_cell_angle_beta                 80.135(2)
_cell_angle_gamma                89.9460(10)
_cell_volume                     4745.25
_exptl_crystal_colour            colorless
_exptl_crystal_description       prism
_cell_formula_units_Z            4
loop_
_atom_site_label
_atom_site_type_symbol
_atom_site_fract_x
_atom_site_fract_y
_atom_site_fract_z
P2 P 0.97291(6) 0.46184(5) 0.76443(4)
B2 B 0.9041(3) 0.2797(2) 0.73836(19)
Cl2 Cl 1.39458(7) 0.31072(8) 0.86828(6)
O2 O 1.00279(16) 0.29749(14) 0.74711(11)
F16 F 0.98541(18) 0.10747(17) 0.95737(14)
F17 F 0.86425(18) 0.03730(17) 0.99610(14)
F18 F 0.9445(2) 0.01559(18) 0.89989(14)
C44 C 0.8533(2) 0.4308(2) 0.76478(18)
H38 H 0.8241 0.4091 0.8106
H39 H 0.8171 0.4783 0.751
C45 C 0.8552(2) 0.3637(2) 0.71441(17)
H40 H 0.8892 0.385 0.6698
H41 H 0.7908 0.351 0.7091
C46 C 1.0176(2) 0.3556(2) 0.79012(17)
H42 H 0.9758 0.3382 0.8335
C47 C 0.9952(2) 0.5267(2) 0.82982(16)
C48 C 0.9316(2) 0.5341(2) 0.89066(17)
C49 C 0.9561(3) 0.5835(2) 0.93842(17)
H43 H 0.9135 0.5884 0.9791
C50 C 1.0400(3) 0.6256(2) 0.92924(18)
C51 C 1.1023(3) 0.6159(2) 0.87011(19)
H44 H 1.1606 0.6436 0.8634
C52 C 1.0825(2) 0.5671(2) 0.82031(17)
C53 C 0.8374(3) 0.4928(3) 0.90890(19)
H45 H 0.8082 0.5064 0.9541
H46 H 0.8446 0.4333 0.9082
H47 H 0.7983 0.5119 0.8761
C54 C 1.0620(3) 0.6806(3) 0.9816(2)
H48 H 1.0185 0.7263 0.9852
H49 H 1.1255 0.7021 0.9682
H50 H 1.0564 0.6492 1.0254
C55 C 1.1578(3) 0.5605(3) 0.75931(19)
H51 H 1.1441 0.5975 0.7219
H52 H 1.1602 0.5041 0.7459
H53 H 1.2177 0.5758 0.7706
C56 C 1.0054(2) 0.5180(2) 0.68190(17)
C57 C 0.9615(2) 0.5947(2) 0.67314(17)
C58 C 0.9814(3) 0.6379(2) 0.6102(2)
H54 H 0.9529 0.6894 0.6039
C59 C 1.0418(3) 0.6084(2) 0.55616(19)
C60 C 1.0834(3) 0.5342(2) 0.56640(18)
H55 H 1.1247 0.5137 0.5299
C61 C 1.0673(3) 0.4882(2) 0.62797(18)
C62 C 0.8937(3) 0.6331(2) 0.72669(19)
H56 H 0.9197 0.6329 0.7683
H57 H 0.8354 0.6016 0.7354
H58 H 0.8819 0.6896 0.7111
C63 C 1.0611(4) 0.6574(3) 0.4883(2)
H59 H 1.0255 0.7081 0.4908
H60 H 1.1275 0.6708 0.4767
H61 H 1.0429 0.6249 0.4536
C64 C 1.1199(3) 0.4095(2) 0.63336(19)
H62 H 1.1503 0.3964 0.5883
H63 H 1.0767 0.3651 0.6533
H64 H 1.1668 0.4159 0.662
C65 C 0.9112(3) 0.2161(2) 0.67972(17)
C66 C 0.9964(3) 0.1894(2) 0.64604(19)
H65 H 1.052 0.2067 0.6595
C67 C 1.0017(3) 0.1381(3) 0.5931(2)
C68 C 0.9223(3) 0.1113(2) 0.5730(2)
H66 H 0.9259 0.0763 0.537
C69 C 0.8376(3) 0.1360(2) 0.6057(2)
C70 C 0.8322(3) 0.1878(2) 0.65810(19)
H67 H 0.773 0.2044 0.6797
C71 C 1.0958(4) 0.1167(3) 0.5569(3)
F19 F 1.1359(3) 0.1856(3) 0.5158(3)
F20 F 1.1554(3) 0.0979(5) 0.5945(3)
F21 F 1.0924(7) 0.0605(5) 0.5142(4)
C72 C 0.7497(3) 0.1084(3) 0.5848(2)
F22 F 0.7585(4) 0.0405(5) 0.5523(6)
F23 F 0.6834(4) 0.0850(6) 0.6395(3)
F24 F 0.7119(7) 0.1641(5) 0.5499(6)
C73 C 0.8497(2) 0.2345(2) 0.80973(17)
C74 C 0.8983(2) 0.1788(2) 0.84637(17)
H68 H 0.9624 0.1709 0.8307
C75 C 0.8553(3) 0.1346(2) 0.90522(18)
C76 C 0.7613(3) 0.1445(2) 0.92954(18)
H69 H 0.7315 0.1139 0.9692
C77 C 0.7124(3) 0.1999(2) 0.89467(19)
C78 C 0.7556(2) 0.2436(2) 0.83565(18)
H70 H 0.72 0.2806 0.8124
C79 C 0.9111(3) 0.0736(2) 0.93931(19)
C80 C 0.6103(3) 0.2105(2) 0.9177(2)
F25 F 0.5905(12) 0.1947(11) 0.9874(5)
F26 F 0.5562(8) 0.1644(10) 0.8910(12)
F27 F 0.5846(17) 0.2887(6) 0.9097(9)
C81 C 1.1137(2) 0.3499(2) 0.80729(17)
C82 C 1.1815(2) 0.3044(2) 0.76923(18)
H71 H 1.168 0.2807 0.7303
C83 C 1.2678(3) 0.2933(2) 0.7872(2)
H72 H 1.3134 0.2622 0.7609
C84 C 1.2873(3) 0.3280(2) 0.8439(2)
C85 C 1.2218(3) 0.3733(2) 0.8827(2)
H73 H 1.2363 0.3976 0.921
C86 C 1.1350(3) 0.3831(2) 0.86524(18)
H74 H 1.0891 0.4126 0.8928
P1 P 0.60846(6) 0.04679(5) 0.23980(4)
B1 B 0.5256(3) 0.2294(2) 0.26424(19)
Cl1 Cl 1.07978(6) 0.20000(6) 0.15092(5)
O1 O 0.62819(16) 0.21143(14) 0.25825(12)
F1 F 0.29127(19) 0.22497(18) 0.08487(15)
F2 F 0.24643(16) 0.32926(19) 0.13933(13)
F3 F 0.30474(17) 0.34628(18) 0.03421(12)
F4 F 0.61659(19) 0.4527(2) -0.00408(15)
F5 F 0.6892(2) 0.4506(2) 0.07993(15)
F6 F 0.70562(19) 0.3545(2) 0.01463(16)
C1 C 0.4901(2) 0.0778(2) 0.23574(18)
H1 H 0.4852 0.0999 0.1895
H2 H 0.4471 0.0304 0.2481
C2 C 0.4655(2) 0.1446(2) 0.28617(18)
H3 H 0.4764 0.123 0.3312
H4 H 0.3987 0.1571 0.2899
C3 C 0.6652(2) 0.1528(2) 0.21670(17)
H5 H 0.6466 0.1703 0.1724
C4 C 0.6678(2) -0.0173(2) 0.17609(17)
C5 C 0.6364(3) -0.0290(2) 0.11431(18)
C6 C 0.6876(3) -0.0801(2) 0.06963(18)
H6 H 0.6668 -0.0885 0.0285
C7 C 0.7672(3) -0.1192(2) 0.08265(19)
C8 C 0.7980(3) -0.1051(2) 0.14197(18)
H7 H 0.8534 -0.1305 0.1511
C9 C 0.7499(2) -0.0546(2) 0.18910(17)
C10 C 0.5510(3) 0.0097(3) 0.0934(2)
H8 H 0.5447 -0.0068 0.0486
H9 H 0.5569 0.0695 0.0919
H10 H 0.4961 -0.0085 0.1261
C11 C 0.8200(3) -0.1748(3) 0.0335(2)
H11 H 0.8702 -0.2012 0.0534
H12 H 0.8464 -0.1426 -0.0083
H13 H 0.7779 -0.2169 0.0233
C12 C 0.7924(3) -0.0450(3) 0.25181(19)
H14 H 0.7613 -0.0826 0.2888
H15 H 0.7848 0.0115 0.2648
H16 H 0.8586 -0.0578 0.2423
C13 C 0.5970(2) -0.0121(2) 0.32138(17)
C14 C 0.5525(2) -0.0899(2) 0.32626(18)
C15 C 0.5403(3) -0.1359(2) 0.3877(2)
H17 H 0.5107 -0.1881 0.3913
C16 C 0.5698(3) -0.1084(3) 0.4444(2)
C17 C 0.6127(3) -0.0323(2) 0.43859(18)
H18 H 0.6329 -0.0128 0.477
C18 C 0.6273(3) 0.0168(2) 0.37808(18)
C19 C 0.5171(3) -0.1283(2) 0.2689(2)
H19 H 0.5698 -0.1452 0.2362
H20 H 0.4804 -0.0881 0.2466
H21 H 0.4782 -0.1762 0.287
C20 C 0.5561(4) -0.1608(3) 0.5106(2)
H22 H 0.6149 -0.1864 0.5167
H23 H 0.5094 -0.2034 0.5099
H24 H 0.5352 -0.1263 0.5479
C21 C 0.6783(3) 0.0967(2) 0.37708(18)
H25 H 0.742 0.0917 0.3532
H26 H 0.6792 0.1103 0.4235
H27 H 0.6469 0.1401 0.3539
C22 C 0.5073(2) 0.2727(2) 0.19233(17)
C23 C 0.4224(2) 0.2696(2) 0.17039(17)
H28 H 0.3729 0.2388 0.1974
C24 C 0.4077(2) 0.3102(2) 0.11004(18)
C25 C 0.4776(2) 0.3555(2) 0.06850(18)
H29 H 0.4675 0.383 0.0273
C26 C 0.5631(3) 0.3592(2) 0.08912(19)
C27 C 0.5774(2) 0.3192(2) 0.14975(18)
H30 H 0.6365 0.3235 0.1628
C28 C 0.3128(3) 0.3029(3) 0.0914(2)
C29 C 0.6419(3) 0.4053(3) 0.0456(2)
C30 C 0.5029(2) 0.2912(2) 0.32373(17)
C31 C 0.4132(3) 0.3203(2) 0.34414(18)
H31 H 0.3655 0.306 0.3204
C32 C 0.3916(3) 0.3691(2) 0.39790(19)
C33 C 0.4597(3) 0.3911(2) 0.43395(19)
H32 H 0.4452 0.4241 0.4711
C34 C 0.5493(3) 0.3637(2) 0.4142(2)
C35 C 0.5700(3) 0.3152(2) 0.35977(18)
H33 H 0.632 0.2979 0.3468
C36 C 0.2942(3) 0.3973(3) 0.4170(2)
F7 F 0.2707(5) 0.4543(5) 0.3751(4)
F8 F 0.2331(3) 0.3364(3) 0.4193(4)
F9 F 0.2774(3) 0.4238(6) 0.4789(3)
C37 C 0.6241(3) 0.3828(3) 0.4527(3)
F10 F 0.5998(2) 0.4348(2) 0.49915(16)
F11 F 0.6518(3) 0.3168(2) 0.4845(2)
F12 F 0.6995(2) 0.4136(3) 0.4126(2)
C38 C 0.7701(2) 0.1594(2) 0.20234(17)
C39 C 0.8211(3) 0.1302(2) 0.14372(18)
H34 H 0.79 0.1033 0.1137
C40 C 0.9168(2) 0.1402(2) 0.12916(18)
H35 H 0.9515 0.1187 0.0902
C41 C 0.9610(2) 0.1819(2) 0.17192(19)
C42 C 0.9123(2) 0.2126(2) 0.23020(19)
H36 H 0.9436 0.2411 0.2592
C43 C 0.8171(2) 0.2007(2) 0.24491(17)
H37 H 0.783 0.221 0.2847
F13? F 0.2867(10) 0.4712(9) 0.4408(12)
F14? F 0.2377(12) 0.3457(12) 0.4545(11)
F15? F 0.2538(11) 0.4160(12) 0.3624(7)
F28? F 1.1679(9) 0.1479(11) 0.5751(9)
F29? F 1.1114(14) 0.0410(11) 0.5979(9)
F30? F 1.1036(19) 0.0808(13) 0.5012(7)
F31? F 0.7678(10) 0.0846(16) 0.5227(7)
F32? F 0.7057(14) 0.0505(12) 0.6234(10)
F33? F 0.6920(11) 0.1702(9) 0.5832(12)
F34? F 0.5740(8) 0.1673(13) 0.9743(8)
F35? F 0.5636(9) 0.1815(9) 0.8692(8)
F36? F 0.586(2) 0.2882(7) 0.9219(11)
loop_
_geom_bond_atom_site_label_1
_geom_bond_atom_site_label_2
_geom_bond_site_symmetry_1
_geom_bond_site_symmetry_2
P1 C1 1_555 1_555
B1 O1 1_555 1_555
Cl1 C41 1_555 1_555
O1 C3 1_555 1_555
F1 C28 1_555 1_555
F2 C28 1_555 1_555
F3 C28 1_555 1_555
F4 C29 1_555 1_555
F5 C29 1_555 1_555
F6 C29 1_555 1_555
C1 H1 1_555 1_555
H2 C1 1_555 1_555
C2 B1 1_555 1_555
H3 C2 1_555 1_555
H4 C2 1_555 1_555
C3 P1 1_555 1_555
H5 C3 1_555 1_555
C4 P1 1_555 1_555
C5 C4 1_555 1_555
C6 C5 1_555 1_555
H6 C6 1_555 1_555
C7 C6 1_555 1_555
C8 C7 1_555 1_555
H7 C8 1_555 1_555
C9 C4 1_555 1_555
C10 C5 1_555 1_555
H8 C10 1_555 1_555
H9 C10 1_555 1_555
H10 C10 1_555 1_555
C11 C7 1_555 1_555
H11 C11 1_555 1_555
H12 C11 1_555 1_555
H13 C11 1_555 1_555
C12 C9 1_555 1_555
H14 C12 1_555 1_555
H15 C12 1_555 1_555
H16 C12 1_555 1_555
C13 P1 1_555 1_555
C14 C13 1_555 1_555
C15 C14 1_555 1_555
H17 C15 1_555 1_555
C16 C15 1_555 1_555
C17 C16 1_555 1_555
H18 C17 1_555 1_555
C18 C13 1_555 1_555
C19 C14 1_555 1_555
H19 C19 1_555 1_555
H20 C19 1_555 1_555
H21 C19 1_555 1_555
C20 C16 1_555 1_555
H22 C20 1_555 1_555
H23 C20 1_555 1_555
H24 C20 1_555 1_555
C21 C18 1_555 1_555
H25 C21 1_555 1_555
H26 C21 1_555 1_555
H27 C21 1_555 1_555
C22 B1 1_555 1_555
C23 C22 1_555 1_555
H28 C23 1_555 1_555
C24 C23 1_555 1_555
C25 C24 1_555 1_555
H29 C25 1_555 1_555
C26 C25 1_555 1_555
C27 C22 1_555 1_555
H30 C27 1_555 1_555
C28 C24 1_555 1_555
C29 C26 1_555 1_555
C30 B1 1_555 1_555
C31 C30 1_555 1_555
H31 C31 1_555 1_555
C32 C31 1_555 1_555
C33 C32 1_555 1_555
H32 C33 1_555 1_555
C34 C33 1_555 1_555
C35 C30 1_555 1_555
H33 C35 1_555 1_555
C36 C32 1_555 1_555
F7 C36 1_555 1_555
F8 C36 1_555 1_555
F9 C36 1_555 1_555
C37 C34 1_555 1_555
F10 C37 1_555 1_555
F11 C37 1_555 1_555
F12 C37 1_555 1_555
C38 C3 1_555 1_555
C39 C38 1_555 1_555
H34 C39 1_555 1_555
C40 C39 1_555 1_555
H35 C40 1_555 1_555
C41 C40 1_555 1_555
C42 C41 1_555 1_555
H36 C42 1_555 1_555
C43 C38 1_555 1_555
H37 C43 1_555 1_555
P2 C44 1_555 1_555
B2 O2 1_555 1_555
Cl2 C84 1_555 1_555
O2 C46 1_555 1_555
F16 C79 1_555 1_555
F17 C79 1_555 1_555
F18 C79 1_555 1_555
C44 H38 1_555 1_555
H39 C44 1_555 1_555
C45 B2 1_555 1_555
H40 C45 1_555 1_555
H41 C45 1_555 1_555
C46 P2 1_555 1_555
H42 C46 1_555 1_555
C47 P2 1_555 1_555
C48 C47 1_555 1_555
C49 C48 1_555 1_555
H43 C49 1_555 1_555
C50 C49 1_555 1_555
C51 C50 1_555 1_555
H44 C51 1_555 1_555
C52 C47 1_555 1_555
C53 C48 1_555 1_555
H45 C53 1_555 1_555
H46 C53 1_555 1_555
H47 C53 1_555 1_555
C54 C50 1_555 1_555
H48 C54 1_555 1_555
H49 C54 1_555 1_555
H50 C54 1_555 1_555
C55 C52 1_555 1_555
H51 C55 1_555 1_555
H52 C55 1_555 1_555
H53 C55 1_555 1_555
C56 P2 1_555 1_555
C57 C56 1_555 1_555
C58 C57 1_555 1_555
H54 C58 1_555 1_555
C59 C58 1_555 1_555
C60 C59 1_555 1_555
H55 C60 1_555 1_555
C61 C56 1_555 1_555
C62 C57 1_555 1_555
H56 C62 1_555 1_555
H57 C62 1_555 1_555
H58 C62 1_555 1_555
C63 C59 1_555 1_555
H59 C63 1_555 1_555
H60 C63 1_555 1_555
H61 C63 1_555 1_555
C64 C61 1_555 1_555
H62 C64 1_555 1_555
H63 C64 1_555 1_555
H64 C64 1_555 1_555
C65 B2 1_555 1_555
C66 C65 1_555 1_555
H65 C66 1_555 1_555
C67 C66 1_555 1_555
C68 C67 1_555 1_555
H66 C68 1_555 1_555
C69 C68 1_555 1_555
C70 C65 1_555 1_555
H67 C70 1_555 1_555
C71 C67 1_555 1_555
F19 C71 1_555 1_555
F20 C71 1_555 1_555
F21 C71 1_555 1_555
C72 C69 1_555 1_555
F22 C72 1_555 1_555
F23 C72 1_555 1_555
F24 C72 1_555 1_555
C73 B2 1_555 1_555
C74 C73 1_555 1_555
H68 C74 1_555 1_555
C75 C74 1_555 1_555
C76 C75 1_555 1_555
H69 C76 1_555 1_555
C77 C76 1_555 1_555
C78 C73 1_555 1_555
H70 C78 1_555 1_555
C79 C75 1_555 1_555
C80 C77 1_555 1_555
F25 C80 1_555 1_555
F26 C80 1_555 1_555
F27 C80 1_555 1_555
C81 C46 1_555 1_555
C82 C81 1_555 1_555
H71 C82 1_555 1_555
C83 C82 1_555 1_555
H72 C83 1_555 1_555
C84 C83 1_555 1_555
C85 C84 1_555 1_555
H73 C85 1_555 1_555
C86 C81 1_555 1_555
H74 C86 1_555 1_555
C1 C2 1_555 1_555
C8 C9 1_555 1_555
C17 C18 1_555 1_555
C26 C27 1_555 1_555
C34 C35 1_555 1_555
C42 C43 1_555 1_555
C44 C45 1_555 1_555
C51 C52 1_555 1_555
C60 C61 1_555 1_555
C69 C70 1_555 1_555
C77 C78 1_555 1_555
C85 C86 1_555 1_555

#END
