
#######################################################################
#
#                 Cambridge Crystallographic Data Centre
#                                CCDC 
#
#######################################################################
#
# If this CIF has been generated from an entry in the Cambridge 
# Structural Database, then it will include bibliographic, chemical, 
# crystal, experimental, refinement or atomic coordinate data resulting 
# from the CCDC's data processing and validation procedures.
#
#######################################################################

data_IVANOI
_chemical_formula_moiety         'C14 H17 N3 O1'
_chemical_name_systematic        
N-Phenyl-2-(dimethylaminomethyl)pyrrolylcarboxamide
_symmetry_cell_setting           monoclinic
_symmetry_space_group_name_H-M   'P 21/c'
_symmetry_Int_Tables_number      14
_space_group_name_Hall           '-P 2ybc'
loop_
_symmetry_equiv_pos_site_id
_symmetry_equiv_pos_as_xyz
1 x,y,z
2 -x,1/2+y,1/2-z
3 -x,-y,-z
4 x,1/2-y,1/2+z
_cell_length_a                   10.8566(19)
_cell_length_b                   10.3255(18)
_cell_length_c                   12.663(2)
_cell_angle_alpha                90
_cell_angle_beta                 105.494(3)
_cell_angle_gamma                90
_cell_volume                     1367.93
_exptl_crystal_colour            colorless
_exptl_crystal_description       block
_cell_formula_units_Z            4
loop_
_atom_site_label
_atom_site_type_symbol
_atom_site_fract_x
_atom_site_fract_y
_atom_site_fract_z
N1 N 0.29595(13) 0.54358(14) 0.23900(12)
N2 N 0.48742(13) 0.60871(14) 0.35863(12)
N3 N 0.31603(15) 0.76004(14) 0.42632(14)
C1 C 0.43016(18) 0.52901(17) 0.27632(15)
C2 C 0.62114(16) 0.61735(16) 0.40429(16)
O1 O 0.48252(13) 0.44619(15) 0.23597(14)
C3 C 0.21392(17) 0.64180(18) 0.25444(15)
C4 C 0.8399(2) 0.6066(2) 0.3987(2)
H1 H 0.8999 0.5886 0.3603
C5 C 0.71062(18) 0.59183(18) 0.34707(19)
H2 H 0.6844 0.5649 0.2744
C6 C 0.25446(19) 0.76863(18) 0.30875(17)
H3 H 0.3132 0.8096 0.2733
H4 H 0.1799 0.8240 0.2977
C7 C 0.66321(19) 0.6586(2) 0.51176(18)
H5 H 0.6040 0.6764 0.5511
C8 C 0.2230(2) 0.4482(2) 0.17417(17)
H6 H 0.2546 0.3728 0.1509
C9 C 0.09349(19) 0.6034(2) 0.20005(19)
H7 H 0.0188 0.6495 0.1960
C10 C 0.1011(2) 0.4819(3) 0.15086(18)
H8 H 0.0325 0.4340 0.1094
C11 C 0.2306(2) 0.7100(2) 0.4883(2)
H9 H 0.1595 0.7678 0.4806
H10 H 0.2762 0.7031 0.5643
H11 H 0.1999 0.6260 0.4608
C12 C 0.8801(2) 0.6470(2) 0.5046(2)
H12 H 0.9670 0.6564 0.5382
C13 C 0.7924(2) 0.6737(2) 0.5617(2)
H13 H 0.8196 0.7020 0.6339
C14 C 0.3670(3) 0.8851(2) 0.4693(2)
H14 H 0.4274 0.9142 0.4312
H15 H 0.4089 0.8772 0.5460
H16 H 0.2985 0.9466 0.4590
loop_
_geom_bond_atom_site_label_1
_geom_bond_atom_site_label_2
_geom_bond_site_symmetry_1
_geom_bond_site_symmetry_2
N1 C1 1_555 1_555
N2 C1 1_555 1_555
N3 C6 1_555 1_555
C1 O1 1_555 1_555
C2 N2 1_555 1_555
C3 N1 1_555 1_555
C4 H1 1_555 1_555
C5 C2 1_555 1_555
H2 C5 1_555 1_555
C6 C3 1_555 1_555
H3 C6 1_555 1_555
H4 C6 1_555 1_555
C7 C2 1_555 1_555
H5 C7 1_555 1_555
C8 N1 1_555 1_555
H6 C8 1_555 1_555
C9 C3 1_555 1_555
H7 C9 1_555 1_555
C10 C8 1_555 1_555
H8 C10 1_555 1_555
C11 N3 1_555 1_555
H9 C11 1_555 1_555
H10 C11 1_555 1_555
H11 C11 1_555 1_555
C12 C4 1_555 1_555
H12 C12 1_555 1_555
C13 C7 1_555 1_555
H13 C13 1_555 1_555
C14 N3 1_555 1_555
H14 C14 1_555 1_555
H15 C14 1_555 1_555
H16 C14 1_555 1_555
C4 C5 1_555 1_555
C9 C10 1_555 1_555
C12 C13 1_555 1_555

#END
