
#######################################################################
#
#                 Cambridge Crystallographic Data Centre
#                                CCDC 
#
#######################################################################
#
# If this CIF has been generated from an entry in the Cambridge 
# Structural Database, then it will include bibliographic, chemical, 
# crystal, experimental, refinement or atomic coordinate data resulting 
# from the CCDC's data processing and validation procedures.
#
#######################################################################

data_IVANIE
_chemical_formula_moiety         'C36 H33 B1 F12 N1 O1 P1,0.5(C5 H12)'
_chemical_name_systematic        
'5,5-bis[3,5-bis(trifluoromethyl)phenyl]-1-hydroxy-2,2-bis(2,4,6-trimethylphenyl)-1,2,5-azaphosphaborolidin-2-ium-5-ate pentane solvate'
_symmetry_cell_setting           monoclinic
_symmetry_space_group_name_H-M   'P 21'
_symmetry_Int_Tables_number      4
_space_group_name_Hall           'P 2yb'
loop_
_symmetry_equiv_pos_site_id
_symmetry_equiv_pos_as_xyz
1 x,y,z
2 -x,1/2+y,-z
_cell_length_a                   13.2586(5)
_cell_length_b                   22.0547(7)
_cell_length_c                   13.6171(5)
_cell_angle_alpha                90
_cell_angle_beta                 109.7230(10)
_cell_angle_gamma                90
_cell_volume                     3748.24
_exptl_crystal_colour            colorless
_exptl_crystal_description       plate
_cell_formula_units_Z            4
loop_
_atom_site_label
_atom_site_type_symbol
_atom_site_fract_x
_atom_site_fract_y
_atom_site_fract_z
P1 P 0.65981(9) 0.33175(5) 0.47480(9)
B1 B 0.4467(4) 0.3301(2) 0.4687(4)
N1 N 0.5493(3) 0.36681(16) 0.4680(3)
O1 O 0.5531(2) 0.43162(14) 0.4806(3)
H1 H 0.552(4) 0.436(2) 0.550(3)
C1 C 0.5956(4) 0.2577(2) 0.4511(4)
H2 H 0.5734 0.2475 0.376
H3 H 0.6458 0.2261 0.4911
C2 C 0.4970(4) 0.2610(2) 0.4863(4)
H4 H 0.518 0.250 0.561
H5 H 0.4422 0.2318 0.4457
C3 C 0.7645(4) 0.3502(2) 0.5976(4)
C4 C 0.8168(4) 0.4069(2) 0.6053(4)
C5 C 0.8912(4) 0.4241(2) 0.6999(4)
H6 H 0.9263 0.4621 0.7043
C6 C 0.9164(4) 0.3882(2) 0.7878(4)
C7 C 0.8657(4) 0.3327(2) 0.7793(4)
H7 H 0.8829 0.3073 0.8391
C8 C 0.7912(4) 0.3127(2) 0.6875(4)
C9 C 0.7994(4) 0.4507(2) 0.5154(4)
H8 H 0.8202 0.4916 0.5428
H9 H 0.7236 0.4506 0.4717
H10 H 0.8431 0.4383 0.4735
C10 C 0.9963(5) 0.4085(3) 0.8906(4)
H11 H 1.03 0.4465 0.8805
H12 H 1.0514 0.3773 0.9168
H13 H 0.9594 0.415 0.9411
C11 C 0.7447(4) 0.2499(2) 0.6889(4)
H14 H 0.7707 0.2339 0.7602
H15 H 0.7672 0.2229 0.6429
H16 H 0.6664 0.2524 0.6645
C12 C 0.7149(3) 0.3437(2) 0.3709(3)
C13 C 0.6590(4) 0.3756(2) 0.2787(4)
C14 C 0.7092(4) 0.3851(2) 0.2055(4)
H17 H 0.6719 0.4068 0.1436
C15 C 0.8125(4) 0.3639(2) 0.2192(4)
C16 C 0.8620(4) 0.3295(2) 0.3067(4)
H18 H 0.9305 0.3128 0.3154
C17 C 0.8161(4) 0.3179(2) 0.3831(4)
C18 C 0.5464(4) 0.3997(2) 0.2534(4)
H19 H 0.5241 0.4196 0.1851
H20 H 0.5446 0.429 0.3068
H21 H 0.4976 0.3661 0.2519
C19 C 0.8645(5) 0.3776(3) 0.1394(4)
H22 H 0.9048 0.4156 0.1575
H23 H 0.8093 0.3815 0.0705
H24 H 0.9135 0.3445 0.138
C20 C 0.8776(4) 0.2782(2) 0.4738(4)
H25 H 0.9163 0.3038 0.5336
H26 H 0.9289 0.2533 0.454
H27 H 0.8276 0.2519 0.4928
C21 C 0.4176(4) 0.3530(2) 0.5695(4)
C22 C 0.4996(4) 0.3634(2) 0.6655(4)
H28 H 0.572 0.3586 0.6692
C23 C 0.4787(4) 0.3804(2) 0.7546(4)
C24 C 0.3737(4) 0.3883(2) 0.7524(4)
H29 H 0.359 0.4002 0.8133
C25 C 0.2913(4) 0.3782(2) 0.6588(4)
C26 C 0.3125(4) 0.3610(2) 0.5699(4)
H30 H 0.2542 0.3544 0.5072
C27 C 0.5697(5) 0.3912(3) 0.8532(4)
F1 F 0.5884(17) 0.4515(5) 0.8642(10)
F2 F 0.6597(9) 0.3668(12) 0.8577(10)
F3 F 0.5468(12) 0.3757(8) 0.9366(9)
C28 C 0.1774(4) 0.3849(2) 0.6556(4)
C29 C 0.3462(3) 0.3406(2) 0.3616(4)
C30 C 0.2885(4) 0.2935(2) 0.2994(4)
H31 H 0.3105 0.2529 0.3177
C31 C 0.1990(4) 0.3045(2) 0.2108(4)
C32 C 0.1644(4) 0.3626(2) 0.1816(4)
H32 H 0.1041 0.37 0.1209
C33 C 0.2194(4) 0.4101(2) 0.2425(4)
C34 C 0.3080(4) 0.3996(2) 0.3301(4)
H33 H 0.3443 0.4332 0.3703
C35 C 0.1385(4) 0.2512(3) 0.1508(5)
C36 C 0.1774(4) 0.4728(2) 0.2163(4)
F4 F 0.1370(3) 0.33490(15) 0.6797(4)
F5 F 0.1633(3) 0.42853(17) 0.7150(3)
F6 F 0.1094(3) 0.3989(2) 0.5597(3)
F7 F 0.2034(3) 0.20792(15) 0.1365(3)
F8 F 0.0774(3) 0.22511(18) 0.1991(3)
F9 F 0.0730(3) 0.26590(16) 0.0561(3)
F10 F 0.2548(2) 0.51495(12) 0.2401(2)
F11 F 0.1105(2) 0.48847(15) 0.2676(3)
F12 F 0.1220(3) 0.48024(15) 0.1146(3)
P2 P 0.76080(9) 0.63568(5) 0.28937(9)
B2 B 0.5491(4) 0.6373(2) 0.2860(4)
O2 O 0.6583(2) 0.53633(14) 0.3046(3)
H34 H 0.662(5) 0.531(3) 0.375(4)
N2 N 0.6512(3) 0.60049(16) 0.2855(3)
C37 C 0.6953(4) 0.7089(2) 0.2628(4)
H35 H 0.745 0.741 0.3014
H36 H 0.6731 0.718 0.1873
C38 C 0.5964(3) 0.7064(2) 0.2979(4)
H37 H 0.5405 0.7343 0.2546
H38 H 0.6165 0.7195 0.3715
C39 C 0.8684(3) 0.61998(19) 0.4116(3)
C40 C 0.9289(3) 0.5660(2) 0.4188(4)
C41 C 1.0102(4) 0.5530(2) 0.5136(4)
H39 H 1.0509 0.517 0.5186
C42 C 1.0336(4) 0.5905(2) 0.6001(4)
C43 C 0.9733(4) 0.6420(2) 0.5914(4)
H40 H 0.9879 0.6676 0.6506
C44 C 0.8918(4) 0.6587(2) 0.5003(4)
C45 C 0.9112(4) 0.5202(2) 0.3321(4)
H41 H 0.9424 0.5354 0.281
H42 H 0.8342 0.5136 0.2978
H43 H 0.9457 0.4818 0.3613
C46 C 1.1219(4) 0.5750(3) 0.7010(4)
H44 H 1.1648 0.6113 0.7285
H45 H 1.1679 0.5434 0.6879
H46 H 1.0902 0.5602 0.7519
C47 C 0.8357(4) 0.7175(2) 0.5028(4)
H47 H 0.8477 0.7457 0.4523
H48 H 0.864 0.735 0.573
H49 H 0.7587 0.7101 0.4849
C48 C 0.8156(4) 0.6223(2) 0.1853(3)
C49 C 0.9120(4) 0.6530(2) 0.1927(4)
C50 C 0.9588(4) 0.6424(2) 0.1168(4)
H50 H 1.0235 0.6627 0.1217
C51 C 0.9133(4) 0.6031(2) 0.0344(4)
C52 C 0.8172(4) 0.5753(2) 0.0260(4)
H51 H 0.7849 0.5492 -0.0315
C53 C 0.7660(4) 0.5843(2) 0.0992(4)
C54 C 0.9691(4) 0.6966(2) 0.2792(4)
H52 H 1.0164 0.6739 0.3389
H53 H 0.9162 0.7191 0.3007
H54 H 1.0117 0.7251 0.2543
C55 C 0.9681(5) 0.5912(3) -0.0459(4)
H55 H 0.999 0.6291 -0.0606
H56 H 0.9154 0.5758 -0.1104
H57 H 1.025 0.5611 -0.0183
C56 C 0.6605(4) 0.5519(3) 0.0809(4)
H58 H 0.6405 0.5297 0.0148
H59 H 0.6047 0.5817 0.0781
H60 H 0.6678 0.5234 0.1381
C57 C 0.5216(3) 0.61532(19) 0.3882(3)
C58 C 0.6039(4) 0.6031(2) 0.4830(4)
H61 H 0.6762 0.6073 0.4859
C59 C 0.5843(4) 0.5852(2) 0.5721(4)
C60 C 0.4802(4) 0.5791(2) 0.5712(4)
H62 H 0.4664 0.5669 0.6324
C61 C 0.3966(4) 0.5910(2) 0.4803(4)
C62 C 0.4166(4) 0.6082(2) 0.3899(4)
H63 H 0.3577 0.6153 0.3278
C63 C 0.6750(4) 0.5713(3) 0.6713(4)
C64 C 0.2845(4) 0.5841(2) 0.4803(4)
C65 C 0.4483(3) 0.6253(2) 0.1783(4)
C66 C 0.3815(4) 0.6712(2) 0.1226(4)
H64 H 0.3944 0.7116 0.148
C67 C 0.2960(4) 0.6601(2) 0.0304(4)
C68 C 0.2744(4) 0.6024(2) -0.0089(4)
H65 H 0.2165 0.5949 -0.0715
C69 C 0.3394(4) 0.5553(2) 0.0448(4)
C70 C 0.4243(4) 0.5673(2) 0.1374(4)
H66 H 0.4671 0.5344 0.1735
C71 C 0.2304(4) 0.7124(3) -0.0264(4)
C72 C 0.3235(4) 0.4921(3) 0.0036(5)
F16 F 0.6789(3) 0.51202(18) 0.6943(3)
F17 F 0.7706(2) 0.58402(19) 0.6664(3)
F18 F 0.6650(3) 0.5992(2) 0.7529(3)
F19 F 0.2692(2) 0.61679(16) 0.5584(3)
F20 F 0.2097(2) 0.60251(14) 0.3932(2)
F21 F 0.2614(2) 0.52696(14) 0.4965(3)
F22 F 0.2901(3) 0.75683(19) -0.0415(4)
F23 F 0.1625(3) 0.69798(18) -0.1195(3)
F24 F 0.1697(3) 0.73571(18) 0.0252(3)
F25 F 0.2334(3) 0.48573(16) -0.0770(3)
F26 F 0.3202(3) 0.45023(15) 0.0749(3)
F27 F 0.4032(3) 0.47290(19) -0.0256(4)
C73 C 0.4443(10) 0.5915(6) 0.8290(9)
H67 H 0.3924 0.5741 0.7658
H68 H 0.5144 0.5724 0.8421
H69 H 0.4202 0.5842 0.8885
C74 C 0.453(3) 0.6589(10) 0.814(2)
H70 H 0.3822 0.6779 0.7997
H71 H 0.4765 0.6661 0.7533
C75 C 0.5329(9) 0.6887(5) 0.9097(9)
H72 H 0.6038 0.6691 0.9258
H73 H 0.5088 0.683 0.9704
C76 C 0.5430(11) 0.7563(5) 0.8913(10)
H74 H 0.4755 0.7763 0.8891
H75 H 0.5503 0.7614 0.8218
C77 C 0.6363(14) 0.7896(9) 0.9716(15)
H76 H 0.635 0.8324 0.9522
H77 H 0.6291 0.7862 1.0408
H78 H 0.7042 0.7713 0.9733
F13? F 0.6330(19) 0.4369(11) 0.8504(16)
F14? F 0.6372(15) 0.3420(7) 0.8737(15)
F15? F 0.547(2) 0.4018(16) 0.9381(16)
C78? C 0.458(4) 0.6542(16) 0.835(3)
H79? H 0.4007 0.6514 0.7668
H80? H 0.5149 0.6256 0.8377
H81? H 0.4281 0.6445 0.8901
C79? C 0.5014(18) 0.7170(11) 0.8504(18)
H82? H 0.5278 0.7262 0.7921
H83? H 0.4414 0.7451 0.8442
C80? C 0.5871(15) 0.7307(9) 0.9472(14)
H84? H 0.6552 0.7188 0.9377
H85? H 0.5775 0.7037 1.0014
C81? C 0.6022(17) 0.7932(11) 0.991(2)
H86? H 0.5639 0.7977 1.0418
H87? H 0.5726 0.8232 0.9345
C82? C 0.7204(14) 0.8044(7) 1.0445(13)
H88? H 0.7313 0.8455 1.0737
H89? H 0.749 0.7748 1.1008
H90? H 0.7577 0.8002 0.9938
loop_
_geom_bond_atom_site_label_1
_geom_bond_atom_site_label_2
_geom_bond_site_symmetry_1
_geom_bond_site_symmetry_2
P1 N1 1_555 1_555
B1 N1 1_555 1_555
N1 O1 1_555 1_555
O1 H1 1_555 1_555
C1 P1 1_555 1_555
H2 C1 1_555 1_555
H3 C1 1_555 1_555
C2 B1 1_555 1_555
H4 C2 1_555 1_555
H5 C2 1_555 1_555
C3 P1 1_555 1_555
C4 C3 1_555 1_555
C5 C4 1_555 1_555
H6 C5 1_555 1_555
C6 C5 1_555 1_555
C7 C6 1_555 1_555
H7 C7 1_555 1_555
C8 C3 1_555 1_555
C9 C4 1_555 1_555
H8 C9 1_555 1_555
H9 C9 1_555 1_555
H10 C9 1_555 1_555
C10 C6 1_555 1_555
H11 C10 1_555 1_555
H12 C10 1_555 1_555
H13 C10 1_555 1_555
C11 C8 1_555 1_555
H14 C11 1_555 1_555
H15 C11 1_555 1_555
H16 C11 1_555 1_555
C12 P1 1_555 1_555
C13 C12 1_555 1_555
C14 C13 1_555 1_555
H17 C14 1_555 1_555
C15 C14 1_555 1_555
C16 C15 1_555 1_555
H18 C16 1_555 1_555
C17 C12 1_555 1_555
C18 C13 1_555 1_555
H19 C18 1_555 1_555
H20 C18 1_555 1_555
H21 C18 1_555 1_555
C19 C15 1_555 1_555
H22 C19 1_555 1_555
H23 C19 1_555 1_555
H24 C19 1_555 1_555
C20 C17 1_555 1_555
H25 C20 1_555 1_555
H26 C20 1_555 1_555
H27 C20 1_555 1_555
C21 B1 1_555 1_555
C22 C21 1_555 1_555
H28 C22 1_555 1_555
C23 C22 1_555 1_555
C24 C23 1_555 1_555
H29 C24 1_555 1_555
C25 C24 1_555 1_555
C26 C21 1_555 1_555
H30 C26 1_555 1_555
C27 C23 1_555 1_555
F1 C27 1_555 1_555
F2 C27 1_555 1_555
F3 C27 1_555 1_555
C28 C25 1_555 1_555
C29 B1 1_555 1_555
C30 C29 1_555 1_555
H31 C30 1_555 1_555
C31 C30 1_555 1_555
C32 C31 1_555 1_555
H32 C32 1_555 1_555
C33 C32 1_555 1_555
C34 C29 1_555 1_555
H33 C34 1_555 1_555
C35 C31 1_555 1_555
C36 C33 1_555 1_555
F4 C28 1_555 1_555
F5 C28 1_555 1_555
F6 C28 1_555 1_555
F7 C35 1_555 1_555
F8 C35 1_555 1_555
F9 C35 1_555 1_555
F10 C36 1_555 1_555
F11 C36 1_555 1_555
F12 C36 1_555 1_555
P2 N2 1_555 1_555
B2 N2 1_555 1_555
O2 H34 1_555 1_555
N2 O2 1_555 1_555
C37 P2 1_555 1_555
H35 C37 1_555 1_555
H36 C37 1_555 1_555
C38 B2 1_555 1_555
H37 C38 1_555 1_555
H38 C38 1_555 1_555
C39 P2 1_555 1_555
C40 C39 1_555 1_555
C41 C40 1_555 1_555
H39 C41 1_555 1_555
C42 C41 1_555 1_555
C43 C42 1_555 1_555
H40 C43 1_555 1_555
C44 C39 1_555 1_555
C45 C40 1_555 1_555
H41 C45 1_555 1_555
H42 C45 1_555 1_555
H43 C45 1_555 1_555
C46 C42 1_555 1_555
H44 C46 1_555 1_555
H45 C46 1_555 1_555
H46 C46 1_555 1_555
C47 C44 1_555 1_555
H47 C47 1_555 1_555
H48 C47 1_555 1_555
H49 C47 1_555 1_555
C48 P2 1_555 1_555
C49 C48 1_555 1_555
C50 C49 1_555 1_555
H50 C50 1_555 1_555
C51 C50 1_555 1_555
C52 C51 1_555 1_555
H51 C52 1_555 1_555
C53 C48 1_555 1_555
C54 C49 1_555 1_555
H52 C54 1_555 1_555
H53 C54 1_555 1_555
H54 C54 1_555 1_555
C55 C51 1_555 1_555
H55 C55 1_555 1_555
H56 C55 1_555 1_555
H57 C55 1_555 1_555
C56 C53 1_555 1_555
H58 C56 1_555 1_555
H59 C56 1_555 1_555
H60 C56 1_555 1_555
C57 B2 1_555 1_555
C58 C57 1_555 1_555
H61 C58 1_555 1_555
C59 C58 1_555 1_555
C60 C59 1_555 1_555
H62 C60 1_555 1_555
C61 C60 1_555 1_555
C62 C57 1_555 1_555
H63 C62 1_555 1_555
C63 C59 1_555 1_555
C64 C61 1_555 1_555
C65 B2 1_555 1_555
C66 C65 1_555 1_555
H64 C66 1_555 1_555
C67 C66 1_555 1_555
C68 C67 1_555 1_555
H65 C68 1_555 1_555
C69 C68 1_555 1_555
C70 C65 1_555 1_555
H66 C70 1_555 1_555
C71 C67 1_555 1_555
C72 C69 1_555 1_555
F16 C63 1_555 1_555
F17 C63 1_555 1_555
F18 C63 1_555 1_555
F19 C64 1_555 1_555
F20 C64 1_555 1_555
F21 C64 1_555 1_555
F22 C71 1_555 1_555
F23 C71 1_555 1_555
F24 C71 1_555 1_555
F25 C72 1_555 1_555
F26 C72 1_555 1_555
F27 C72 1_555 1_555
C73 H67 1_555 1_555
H68 C73 1_555 1_555
H69 C73 1_555 1_555
C74 C73 1_555 1_555
H70 C74 1_555 1_555
H71 C74 1_555 1_555
C75 C74 1_555 1_555
H72 C75 1_555 1_555
H73 C75 1_555 1_555
C76 C75 1_555 1_555
H74 C76 1_555 1_555
H75 C76 1_555 1_555
C77 C76 1_555 1_555
H76 C77 1_555 1_555
H77 C77 1_555 1_555
H78 C77 1_555 1_555
C1 C2 1_555 1_555
C7 C8 1_555 1_555
C16 C17 1_555 1_555
C25 C26 1_555 1_555
C33 C34 1_555 1_555
C37 C38 1_555 1_555
C43 C44 1_555 1_555
C52 C53 1_555 1_555
C61 C62 1_555 1_555
C69 C70 1_555 1_555

#END
