
#######################################################################
#
#                 Cambridge Crystallographic Data Centre
#                                CCDC 
#
#######################################################################
#
# If this CIF has been generated from an entry in the Cambridge 
# Structural Database, then it will include bibliographic, chemical, 
# crystal, experimental, refinement or atomic coordinate data resulting 
# from the CCDC's data processing and validation procedures.
#
#######################################################################

data_IVAROM
_chemical_formula_moiety         'C26 H24 N1 P1'
_chemical_name_systematic        
N-(2-Diphenylphosphinophenyl)-2,6-dimethylaniline
_symmetry_cell_setting           monoclinic
_symmetry_space_group_name_H-M   'P 21/c'
_symmetry_Int_Tables_number      14
_space_group_name_Hall           '-P 2ybc'
loop_
_symmetry_equiv_pos_site_id
_symmetry_equiv_pos_as_xyz
1 x,y,z
2 -x,1/2+y,1/2-z
3 -x,-y,-z
4 x,1/2-y,1/2+z
_cell_length_a                   14.7253(9)
_cell_length_b                   16.8991(11)
_cell_length_c                   16.5500(11)
_cell_angle_alpha                90
_cell_angle_beta                 95.384(2)
_cell_angle_gamma                90
_cell_volume                     4100.2
_cell_formula_units_Z            8
loop_
_atom_site_label
_atom_site_type_symbol
_atom_site_fract_x
_atom_site_fract_y
_atom_site_fract_z
C1 C 0.0122(2) 0.32808(17) 0.98178(17)
H1 H -0.0441 0.2992 0.9799
H2 H 0.0624 0.2926 0.9947
H3 H 0.0180 0.3521 0.9299
C2 C 0.01291(18) 0.39114(16) 1.04559(16)
C3 C -0.06056(19) 0.39962(17) 1.09202(18)
H4 H -0.1112 0.3670 1.0821
C4 C -0.0591(2) 0.45546(18) 1.15220(17)
H5 H -0.1081 0.4595 1.1836
C5 C 0.01400(19) 0.50546(17) 1.16637(17)
H6 H 0.0139 0.5434 1.2071
C6 C 0.08856(18) 0.50022(17) 1.12052(17)
C7 C 0.16703(19) 0.55730(18) 1.13577(19)
H7 H 0.2169 0.5314 1.1667
H8 H 0.1479 0.6022 1.1655
H9 H 0.1863 0.5747 1.0848
C8 C 0.08710(18) 0.44255(17) 1.06080(16)
C9 C 0.24640(18) 0.40236(15) 1.04533(16)
C10 C 0.25672(19) 0.37395(15) 1.12500(17)
H10 H 0.2074 0.3757 1.1562
C11 C 0.33882(19) 0.34337(15) 1.15813(16)
H11 H 0.3442 0.3243 1.2111
C12 C 0.41291(18) 0.34094(15) 1.11315(16)
H12 H 0.4687 0.3215 1.1357
C13 C 0.40301(19) 0.36785(15) 1.03398(16)
H13 H 0.4529 0.3653 1.0035
C14 C 0.32145(17) 0.39865(14) 0.99801(15)
C15 C 0.31285(17) 0.53481(15) 0.89287(16)
C16 C 0.33533(18) 0.57789(16) 0.96351(16)
H14 H 0.3478 0.5515 1.0126
C17 C 0.33922(19) 0.65963(17) 0.96135(18)
H15 H 0.3547 0.6879 1.0089
C18 C 0.32028(19) 0.69951(17) 0.88888(19)
H16 H 0.3222 0.7545 0.8876
C19 C 0.29861(19) 0.65761(17) 0.81889(19)
H17 H 0.2868 0.6843 0.7699
C20 C 0.29421(17) 0.57603(17) 0.82058(16)
H18 H 0.2786 0.5483 0.7727
C21 C 0.41438(18) 0.39837(15) 0.85552(15)
C22 C 0.48797(18) 0.44874(16) 0.85301(14)
H19 H 0.4819 0.5016 0.8673
C23 C 0.57039(19) 0.42239(18) 0.82970(16)
H20 H 0.6186 0.4577 0.8277
C24 C 0.5816(2) 0.34393(18) 0.80940(16)
H21 H 0.6375 0.3260 0.7947
C25 C 0.5098(2) 0.29312(18) 0.81116(17)
H22 H 0.5169 0.2402 0.7976
C26 C 0.4266(2) 0.31953(17) 0.83292(17)
H23 H 0.3779 0.2844 0.8325
H24 H 0.1560(19) 0.4440(17) 0.9644(17)
N1 N 0.16448(16) 0.43550(15) 1.01437(15)
P1 P 0.30464(5) 0.42664(4) 0.89048(4)
C27 C 0.33206(18) -0.07200(17) -0.11181(16)
H25 H 0.3432 -0.0920 -0.1643
H26 H 0.3249 -0.0156 -0.1146
H27 H 0.2775 -0.0955 -0.0951
C28 C 0.41104(18) -0.09219(15) -0.05162(16)
C29 C 0.48613(19) -0.13342(15) -0.07507(17)
H28 H 0.4865 -0.1498 -0.1287
C30 C 0.55968(19) -0.15027(15) -0.02034(18)
H29 H 0.6093 -0.1779 -0.0370
C31 C 0.55968(19) -0.12606(15) 0.05943(17)
H30 H 0.6101 -0.1369 0.0960
C32 C 0.48579(19) -0.08584(15) 0.08603(16)
C33 C 0.4852(2) -0.05994(17) 0.17297(16)
H31 H 0.5417 -0.0750 0.2028
H32 H 0.4354 -0.0848 0.1965
H33 H 0.4783 -0.0035 0.1751
C34 C 0.41211(17) -0.06944(14) 0.02957(16)
C35 C 0.25981(17) -0.06334(15) 0.08117(14)
C36 C 0.25399(18) -0.14585(15) 0.08462(15)
H34 H 0.3020 -0.1766 0.0697
C37 C 0.17822(19) -0.18171(16) 0.10983(16)
H35 H 0.1753 -0.2366 0.1117
C38 C 0.10609(19) -0.13744(16) 0.13248(17)
H36 H 0.0549 -0.1621 0.1498
C39 C 0.11102(18) -0.05565(16) 0.12900(15)
H37 H 0.0624 -0.0259 0.1444
C40 C 0.18597(17) -0.01668(14) 0.10336(14)
C41 C 0.09069(17) 0.12785(14) 0.13409(15)
C42 C 0.00921(19) 0.12799(16) 0.08421(17)
H38 H 0.0072 0.1048 0.0331
C43 C -0.06894(19) 0.16197(17) 0.10912(18)
H39 H -0.1229 0.1610 0.0751
C44 C -0.0670(2) 0.19727(16) 0.18423(18)
H40 H -0.1192 0.2208 0.2008
C45 C 0.0127(2) 0.19744(16) 0.23446(18)
H41 H 0.0141 0.2208 0.2854
C46 C 0.09142(19) 0.16306(15) 0.20993(16)
H42 H 0.1449 0.1637 0.2446
C47 C 0.18441(17) 0.11328(15) -0.00571(15)
C48 C 0.20474(17) 0.18989(16) -0.02926(17)
H43 H 0.2258 0.2267 0.0099
C49 C 0.19420(18) 0.21204(18) -0.10964(18)
H44 H 0.2073 0.2637 -0.1241
C50 C 0.16435(19) 0.15830(18) -0.16878(17)
H45 H 0.1573 0.1735 -0.2230
C51 C 0.14494(19) 0.08174(18) -0.14692(17)
H46 H 0.1253 0.0450 -0.1867
C52 C 0.15455(18) 0.05934(16) -0.06603(16)
H47 H 0.1409 0.0077 -0.0519
H48 H 0.3456(19) 0.0167(16) 0.0621(17)
N2 N 0.33544(16) -0.02711(15) 0.05431(15)
P2 P 0.19937(5) 0.09078(4) 0.10319(4)
loop_
_geom_bond_atom_site_label_1
_geom_bond_atom_site_label_2
_geom_bond_site_symmetry_1
_geom_bond_site_symmetry_2
C1 H1 1_555 1_555
H2 C1 1_555 1_555
H3 C1 1_555 1_555
C2 C1 1_555 1_555
C3 C2 1_555 1_555
H4 C3 1_555 1_555
C4 C3 1_555 1_555
H5 C4 1_555 1_555
C5 C4 1_555 1_555
H6 C5 1_555 1_555
C6 C5 1_555 1_555
C7 C6 1_555 1_555
H7 C7 1_555 1_555
H8 C7 1_555 1_555
H9 C7 1_555 1_555
C8 C2 1_555 1_555
C9 C10 1_555 1_555
C10 H10 1_555 1_555
C11 C10 1_555 1_555
H11 C11 1_555 1_555
C12 C11 1_555 1_555
H12 C12 1_555 1_555
C13 C12 1_555 1_555
H13 C13 1_555 1_555
C14 C9 1_555 1_555
C15 C16 1_555 1_555
C16 H14 1_555 1_555
C17 C16 1_555 1_555
H15 C17 1_555 1_555
C18 C17 1_555 1_555
H16 C18 1_555 1_555
C19 C18 1_555 1_555
H17 C19 1_555 1_555
C20 C15 1_555 1_555
H18 C20 1_555 1_555
C21 C22 1_555 1_555
C22 H19 1_555 1_555
C23 C22 1_555 1_555
H20 C23 1_555 1_555
C24 C23 1_555 1_555
H21 C24 1_555 1_555
C25 C24 1_555 1_555
H22 C25 1_555 1_555
C26 C21 1_555 1_555
H23 C26 1_555 1_555
H24 N1 1_555 1_555
N1 C8 1_555 1_555
P1 C14 1_555 1_555
C27 H25 1_555 1_555
H26 C27 1_555 1_555
H27 C27 1_555 1_555
C28 C27 1_555 1_555
C29 C28 1_555 1_555
H28 C29 1_555 1_555
C30 C29 1_555 1_555
H29 C30 1_555 1_555
C31 C30 1_555 1_555
H30 C31 1_555 1_555
C32 C31 1_555 1_555
C33 C32 1_555 1_555
H31 C33 1_555 1_555
H32 C33 1_555 1_555
H33 C33 1_555 1_555
C34 C28 1_555 1_555
C35 C36 1_555 1_555
C36 H34 1_555 1_555
C37 C36 1_555 1_555
H35 C37 1_555 1_555
C38 C37 1_555 1_555
H36 C38 1_555 1_555
C39 C38 1_555 1_555
H37 C39 1_555 1_555
C40 C35 1_555 1_555
C41 C42 1_555 1_555
C42 H38 1_555 1_555
C43 C42 1_555 1_555
H39 C43 1_555 1_555
C44 C43 1_555 1_555
H40 C44 1_555 1_555
C45 C44 1_555 1_555
H41 C45 1_555 1_555
C46 C41 1_555 1_555
H42 C46 1_555 1_555
C47 C48 1_555 1_555
C48 H43 1_555 1_555
C49 C48 1_555 1_555
H44 C49 1_555 1_555
C50 C49 1_555 1_555
H45 C50 1_555 1_555
C51 C50 1_555 1_555
H46 C51 1_555 1_555
C52 C47 1_555 1_555
H47 C52 1_555 1_555
H48 N2 1_555 1_555
N2 C34 1_555 1_555
P2 C40 1_555 1_555
C6 C8 1_555 1_555
C9 N1 1_555 1_555
C13 C14 1_555 1_555
C15 P1 1_555 1_555
C19 C20 1_555 1_555
C21 P1 1_555 1_555
C25 C26 1_555 1_555
C32 C34 1_555 1_555
C35 N2 1_555 1_555
C39 C40 1_555 1_555
C41 P2 1_555 1_555
C45 C46 1_555 1_555
C47 P2 1_555 1_555
C51 C52 1_555 1_555

#END
