
#######################################################################
#
#                 Cambridge Crystallographic Data Centre
#                                CCDC 
#
#######################################################################
#
# If this CIF has been generated from an entry in the Cambridge 
# Structural Database, then it will include bibliographic, chemical, 
# crystal, experimental, refinement or atomic coordinate data resulting 
# from the CCDC's data processing and validation procedures.
#
#######################################################################

data_IVEBAO
_chemical_formula_moiety         'C52 H34 N4,2(C1 H2 Cl2)'
_chemical_name_systematic        
'4-((8-((4-(diphenylamino)phenyl)ethynyl)-1,10-phenanthrolin-3-yl)ethynyl)-N,N-diphenylaniline dichloromethane solvate'
_symmetry_cell_setting           monoclinic
_symmetry_space_group_name_H-M   'P 21/n'
_symmetry_Int_Tables_number      14
_space_group_name_Hall           '-P 2yn'
loop_
_symmetry_equiv_pos_site_id
_symmetry_equiv_pos_as_xyz
1 x,y,z
2 1/2-x,1/2+y,1/2-z
3 -x,-y,-z
4 1/2+x,1/2-y,1/2+z
_cell_length_a                   15.4276(6)
_cell_length_b                   15.5758(6)
_cell_length_c                   18.8049(7)
_cell_angle_alpha                90
_cell_angle_beta                 105.9190(10)
_cell_angle_gamma                90
_cell_volume                     4345.47
_exptl_crystal_colour            orange
_exptl_crystal_description       plate
_cell_formula_units_Z            4
loop_
_atom_site_label
_atom_site_type_symbol
_atom_site_fract_x
_atom_site_fract_y
_atom_site_fract_z
C1 C -0.21291(12) 0.23842(12) 0.11739(10)
H1 H -0.1623 0.2012 0.1258
C2 C -0.28719(13) 0.21468(13) 0.14038(11)
H2 H -0.2875 0.1612 0.1646
C3 C -0.36160(13) 0.26873(13) 0.12818(10)
H3 H -0.4124 0.2527 0.1444
C4 C -0.36093(12) 0.34585(13) 0.09233(11)
H4 H -0.4118 0.3827 0.0836
C5 C -0.28655(12) 0.37012(12) 0.06889(10)
H5 H -0.2867 0.4232 0.0439
C6 C -0.21194(11) 0.31643(11) 0.08214(8)
C7 C -0.20612(11) 0.33162(11) -0.07058(9)
H6 H -0.2540 0.2993 -0.0612
C8 C -0.20668(12) 0.35118(12) -0.14285(9)
H7 H -0.2554 0.3320 -0.1825
C9 C -0.13812(12) 0.39780(13) -0.15817(9)
H8 H -0.1394 0.4107 -0.2078
C10 C -0.06705(12) 0.42567(12) -0.09989(10)
H9 H -0.0192 0.4576 -0.1098
C11 C -0.06548(11) 0.40722(11) -0.02764(9)
H10 H -0.0168 0.4271 0.0117
C12 C -0.13482(11) 0.35964(10) -0.01179(9)
N1 N -0.13254(9) 0.34055(9) 0.06195(8)
C13 C -0.05121(11) 0.34498(10) 0.11983(9)
C14 C -0.05046(11) 0.38751(11) 0.18516(9)
H11 H -0.1045 0.4122 0.1908
C15 C 0.02845(11) 0.39405(11) 0.24199(9)
H12 H 0.0282 0.4234 0.2862
C16 C 0.10867(11) 0.35758(10) 0.23467(9)
C17 C 0.10694(11) 0.31340(11) 0.16940(9)
H13 H 0.1605 0.2874 0.1640
C18 C 0.02821(11) 0.30729(11) 0.11279(9)
H14 H 0.0281 0.2773 0.0688
C19 C 0.19123(11) 0.36478(11) 0.29209(9)
C20 C 0.26188(11) 0.36873(11) 0.33931(9)
C21 C 0.34927(11) 0.37011(10) 0.39093(9)
C22 C 0.42415(11) 0.34192(11) 0.36733(9)
H15 H 0.4129 0.3223 0.3178
N2 N 0.50794(9) 0.34083(9) 0.40877(8)
C23 C 0.52422(11) 0.36949(10) 0.47981(9)
C24 C 0.61643(11) 0.37189(10) 0.52525(9)
N3 N 0.68323(9) 0.34762(9) 0.49533(8)
C25 C 0.76709(11) 0.35221(11) 0.53688(9)
H16 H 0.8136 0.3356 0.5155
C26 C 0.79252(11) 0.38041(11) 0.61158(9)
C27 C 0.72424(11) 0.40503(11) 0.64185(9)
H17 H 0.7384 0.4244 0.6916
C28 C 0.63407(11) 0.40144(10) 0.59923(9)
C29 C 0.56104(11) 0.42822(11) 0.62787(9)
H18 H 0.5734 0.4473 0.6776
C30 C 0.47498(11) 0.42667(11) 0.58492(9)
H19 H 0.4277 0.4450 0.6048
C31 C 0.45420(11) 0.39757(10) 0.50953(9)
C32 C 0.36543(11) 0.39757(10) 0.46338(9)
H20 H 0.3170 0.4162 0.4817
C33 C 0.88528(11) 0.38158(11) 0.65373(9)
C34 C 0.96184(11) 0.38192(11) 0.69286(9)
C35 C 1.04936(11) 0.38035(11) 0.74472(9)
C36 C 1.06526(11) 0.32656(11) 0.80674(9)
H21 H 1.0182 0.2906 0.8130
C37 C 1.14825(11) 0.32487(11) 0.85893(9)
H22 H 1.1578 0.2878 0.9005
C38 C 1.21822(11) 0.37772(11) 0.85059(9)
C39 C 1.20293(11) 0.43146(10) 0.78903(9)
H23 H 1.2499 0.4677 0.7830
C40 C 1.12001(11) 0.43248(10) 0.73664(9)
H24 H 1.1109 0.4689 0.6947
N4 N 1.30343(9) 0.37619(10) 0.90389(8)
C41 C 1.30851(11) 0.37812(10) 0.98045(9)
C42 C 1.24286(11) 0.42070(11) 1.00549(9)
H25 H 1.1939 0.4479 0.9710
C43 C 1.24872(12) 0.42348(12) 1.08011(10)
H26 H 1.2035 0.4524 1.0965
C44 C 1.32012(13) 0.38447(12) 1.13151(10)
H27 H 1.3241 0.3870 1.1828
C45 C 1.38542(12) 0.34192(12) 1.10704(10)
H28 H 1.4345 0.3152 1.1418
C46 C 1.37970(11) 0.33806(11) 1.03206(9)
H29 H 1.4244 0.3080 1.0158
C47 C 1.38310(11) 0.37666(11) 0.87960(9)
C48 C 1.45667(12) 0.42694(12) 0.91563(10)
H30 H 1.4533 0.4618 0.9563
C49 C 1.53489(12) 0.42672(13) 0.89281(10)
H31 H 1.5849 0.4609 0.9181
C50 C 1.54016(12) 0.37662(14) 0.83308(10)
H32 H 1.5938 0.3760 0.8176
C51 C 1.46666(12) 0.32761(13) 0.79628(10)
H33 H 1.4697 0.2942 0.7548
C52 C 1.38847(12) 0.32677(11) 0.81948(10)
H34 H 1.3388 0.2922 0.7943
C53 C 1.3415(3) 0.6059(2) 0.6778(2)
H35 H 1.3656 0.6364 0.6412
H36 H 1.3096 0.6483 0.7008
Cl1 Cl 1.43089(5) 0.56001(6) 0.74632(4)
Cl2 Cl 1.26446(4) 0.52446(4) 0.63253(3)
C55 C 1.0567(2) 0.3387(2) 0.44248(18)
H39 H 1.0704 0.3143 0.3981
H40 H 1.0697 0.2943 0.4816
Cl5 Cl 1.12650(5) 0.43153(6) 0.47381(7)
Cl6 Cl 0.94339(8) 0.36752(6) 0.42116(5)
C54? C 1.3398(12) 0.6281(10) 0.6924(9)
H37? H 1.3544 0.6789 0.7252
H38? H 1.3584 0.6411 0.6472
Cl3? Cl 1.4034(2) 0.5399(3) 0.7376(2)
Cl4? Cl 1.22705(15) 0.61282(18) 0.66846(15)
C56? C 1.1027(9) 0.3530(8) 0.4635(6)
H41? H 1.1219 0.3534 0.4174
H42? H 1.1298 0.3019 0.4925
Cl7? Cl 1.1462(2) 0.4508(2) 0.5174(3)
Cl8? Cl 0.9882(4) 0.3448(3) 0.4415(2)
loop_
_geom_bond_atom_site_label_1
_geom_bond_atom_site_label_2
_geom_bond_site_symmetry_1
_geom_bond_site_symmetry_2
C1 H1 1_555 1_555
C2 C1 1_555 1_555
H2 C2 1_555 1_555
C3 C2 1_555 1_555
H3 C3 1_555 1_555
C4 C3 1_555 1_555
H4 C4 1_555 1_555
C5 C4 1_555 1_555
H5 C5 1_555 1_555
C6 C1 1_555 1_555
C7 H6 1_555 1_555
C8 C7 1_555 1_555
H7 C8 1_555 1_555
C9 C8 1_555 1_555
H8 C9 1_555 1_555
C10 C9 1_555 1_555
H9 C10 1_555 1_555
C11 C10 1_555 1_555
H10 C11 1_555 1_555
C12 C7 1_555 1_555
N1 C6 1_555 1_555
C13 N1 1_555 1_555
C14 C13 1_555 1_555
H11 C14 1_555 1_555
C15 C14 1_555 1_555
H12 C15 1_555 1_555
C16 C15 1_555 1_555
C17 C16 1_555 1_555
H13 C17 1_555 1_555
C18 C13 1_555 1_555
H14 C18 1_555 1_555
C19 C16 1_555 1_555
C20 C19 1_555 1_555
C21 C20 1_555 1_555
C22 C21 1_555 1_555
H15 C22 1_555 1_555
N2 C22 1_555 1_555
C23 N2 1_555 1_555
C24 C23 1_555 1_555
N3 C24 1_555 1_555
C25 N3 1_555 1_555
H16 C25 1_555 1_555
C26 C25 1_555 1_555
C27 C26 1_555 1_555
H17 C27 1_555 1_555
C28 C24 1_555 1_555
C29 C28 1_555 1_555
H18 C29 1_555 1_555
C30 C29 1_555 1_555
H19 C30 1_555 1_555
C31 C23 1_555 1_555
C32 C21 1_555 1_555
H20 C32 1_555 1_555
C33 C26 1_555 1_555
C34 C33 1_555 1_555
C35 C34 1_555 1_555
C36 C35 1_555 1_555
H21 C36 1_555 1_555
C37 C36 1_555 1_555
H22 C37 1_555 1_555
C38 C37 1_555 1_555
C39 C38 1_555 1_555
H23 C39 1_555 1_555
C40 C35 1_555 1_555
H24 C40 1_555 1_555
N4 C38 1_555 1_555
C41 N4 1_555 1_555
C42 C41 1_555 1_555
H25 C42 1_555 1_555
C43 C42 1_555 1_555
H26 C43 1_555 1_555
C44 C43 1_555 1_555
H27 C44 1_555 1_555
C45 C44 1_555 1_555
H28 C45 1_555 1_555
C46 C41 1_555 1_555
H29 C46 1_555 1_555
C47 N4 1_555 1_555
C48 C47 1_555 1_555
H30 C48 1_555 1_555
C49 C48 1_555 1_555
H31 C49 1_555 1_555
C50 C49 1_555 1_555
H32 C50 1_555 1_555
C51 C50 1_555 1_555
H33 C51 1_555 1_555
C52 C47 1_555 1_555
H34 C52 1_555 1_555
C53 H35 1_555 1_555
H36 C53 1_555 1_555
Cl1 C53 1_555 1_555
Cl2 C53 1_555 1_555
C55 H39 1_555 1_555
H40 C55 1_555 1_555
Cl5 C55 1_555 1_555
Cl6 C55 1_555 1_555
C5 C6 1_555 1_555
C11 C12 1_555 1_555
C12 N1 1_555 1_555
C17 C18 1_555 1_555
C27 C28 1_555 1_555
C30 C31 1_555 1_555
C31 C32 1_555 1_555
C39 C40 1_555 1_555
C45 C46 1_555 1_555
C51 C52 1_555 1_555

#END
