
#######################################################################
#
#                 Cambridge Crystallographic Data Centre
#                                CCDC 
#
#######################################################################
#
# If this CIF has been generated from an entry in the Cambridge 
# Structural Database, then it will include bibliographic, chemical, 
# crystal, experimental, refinement or atomic coordinate data resulting 
# from the CCDC's data processing and validation procedures.
#
#######################################################################

data_IVEHOI
_chemical_formula_moiety         'C25 H29 N1 O5 S1'
_chemical_name_systematic        
'ethyl 4a-methyl-8-((4-methylphenyl)sulfonyl)-4-phenyl-4a,5,6,7,8,8a-hexahydro-4H-pyrano[2,3-b]pyridine-2-carboxylate'
_symmetry_cell_setting           monoclinic
_symmetry_space_group_name_H-M   'C 2/c'
_symmetry_Int_Tables_number      15
_space_group_name_Hall           '-C 2yn'
loop_
_symmetry_equiv_pos_site_id
_symmetry_equiv_pos_as_xyz
1 x,y,z
2 -x,y,1/2-z
3 1/2+x,1/2+y,z
4 1/2-x,1/2+y,1/2-z
5 -x,-y,-z
6 x,-y,1/2+z
7 1/2-x,1/2-y,-z
8 1/2+x,1/2-y,1/2+z
_cell_length_a                   30.456(3)
_cell_length_b                   7.3920(6)
_cell_length_c                   20.4483(17)
_cell_angle_alpha                90
_cell_angle_beta                 104.823(2)
_cell_angle_gamma                90
_cell_volume                     4450.34
_exptl_crystal_colour            colorless
_exptl_crystal_description       block
_cell_formula_units_Z            8
loop_
_atom_site_label
_atom_site_type_symbol
_atom_site_fract_x
_atom_site_fract_y
_atom_site_fract_z
S1 S -0.17135(2) 0.40660(5) 0.42371(2)
O1 O -0.12907(3) 0.21638(14) 0.30319(5)
O2 O -0.11316(4) 0.10040(14) 0.14442(5)
O3 O -0.16869(3) 0.25481(14) 0.17457(5)
O4 O -0.15821(4) 0.57350(14) 0.39833(6)
O5 O -0.17341(4) 0.39716(17) 0.49280(5)
N1 N -0.13518(4) 0.25385(16) 0.41284(6)
C1 C -0.14413(5) 0.0631(2) 0.42670(8)
H1 H -0.1609 0.0033 0.3843
H2 H -0.1632 0.0576 0.4593
C2 C -0.09957(5) -0.0348(2) 0.45566(8)
H3 H -0.1054 -0.1659 0.4587
H4 H -0.0856 0.0103 0.5019
C3 C -0.06681(5) -0.0049(2) 0.41126(8)
H5 H -0.0789 -0.0661 0.3673
H6 H -0.0372 -0.0611 0.4333
C4 C -0.05932(5) 0.19649(19) 0.39856(7)
C5 C -0.10571(5) 0.28576(19) 0.36925(7)
H7 H -0.1013 0.4191 0.3657
C6 C -0.02964(5) 0.21272(19) 0.34713(7)
H8 H -0.0066 0.1135 0.3580
C7 C -0.05751(5) 0.18018(19) 0.27646(7)
H9 H -0.0423 0.1536 0.2424
C8 C -0.10274(5) 0.18691(18) 0.25937(7)
C9 C -0.12836(5) 0.17226(19) 0.18671(7)
C10 C -0.19247(5) 0.2723(2) 0.10345(7)
H10 H -0.1923 0.1555 0.0798
H11 H -0.1775 0.3645 0.0814
C11 C -0.24033(5) 0.3282(2) 0.10028(8)
H12 H -0.2565 0.3530 0.0532
H13 H -0.2400 0.4376 0.1275
H14 H -0.2557 0.2307 0.1181
C12 C -0.03629(5) 0.2930(2) 0.46465(7)
H15 H -0.0361 0.4237 0.4567
H16 H -0.0050 0.2496 0.4809
H17 H -0.0530 0.2674 0.4987
C13 C -0.00338(5) 0.38962(19) 0.35071(7)
C14 C 0.04290(5) 0.3943(2) 0.38291(8)
H18 H 0.0578 0.2870 0.4025
C15 C 0.06744(5) 0.5539(2) 0.38668(8)
H19 H 0.0990 0.5546 0.4082
C16 C 0.04622(6) 0.7116(2) 0.35927(9)
H20 H 0.0630 0.8211 0.3622
C17 C 0.00030(6) 0.7084(2) 0.32754(8)
H21 H -0.0146 0.8166 0.3089
C18 C -0.02406(5) 0.5485(2) 0.32268(8)
H22 H -0.0554 0.5478 0.2998
C19 C -0.22548(5) 0.34248(19) 0.37437(7)
C20 C -0.26076(5) 0.32858(19) 0.40586(7)
H23 H -0.2553 0.3487 0.4531
C21 C -0.30397(5) 0.2850(2) 0.36751(8)
H24 H -0.3282 0.2758 0.3888
C22 C -0.31233(5) 0.25463(19) 0.29839(8)
C23 C -0.27643(5) 0.2692(2) 0.26801(8)
H25 H -0.2818 0.2486 0.2208
C24 C -0.23303(5) 0.3129(2) 0.30530(8)
H26 H -0.2088 0.3225 0.2840
C25 C -0.35893(5) 0.2034(2) 0.25741(9)
H27 H -0.3638 0.0738 0.2629
H28 H -0.3617 0.2300 0.2096
H29 H -0.3817 0.2728 0.2730
loop_
_geom_bond_atom_site_label_1
_geom_bond_atom_site_label_2
_geom_bond_site_symmetry_1
_geom_bond_site_symmetry_2
S1 O4 1_555 1_555
O1 C5 1_555 1_555
O2 C9 1_555 1_555
O3 C9 1_555 1_555
O5 S1 1_555 1_555
N1 S1 1_555 1_555
C1 N1 1_555 1_555
H1 C1 1_555 1_555
H2 C1 1_555 1_555
C2 C1 1_555 1_555
H3 C2 1_555 1_555
H4 C2 1_555 1_555
C3 C2 1_555 1_555
H5 C3 1_555 1_555
H6 C3 1_555 1_555
C4 C3 1_555 1_555
C5 N1 1_555 1_555
H7 C5 1_555 1_555
C6 C4 1_555 1_555
H8 C6 1_555 1_555
C7 C6 1_555 1_555
H9 C7 1_555 1_555
C8 O1 1_555 1_555
C9 C8 1_555 1_555
C10 O3 1_555 1_555
H10 C10 1_555 1_555
H11 C10 1_555 1_555
C11 C10 1_555 1_555
H12 C11 1_555 1_555
H13 C11 1_555 1_555
H14 C11 1_555 1_555
C12 C4 1_555 1_555
H15 C12 1_555 1_555
H16 C12 1_555 1_555
H17 C12 1_555 1_555
C13 C6 1_555 1_555
C14 C13 1_555 1_555
H18 C14 1_555 1_555
C15 C14 1_555 1_555
H19 C15 1_555 1_555
C16 C15 1_555 1_555
H20 C16 1_555 1_555
C17 C16 1_555 1_555
H21 C17 1_555 1_555
C18 C13 1_555 1_555
H22 C18 1_555 1_555
C19 S1 1_555 1_555
C20 C19 1_555 1_555
H23 C20 1_555 1_555
C21 C20 1_555 1_555
H24 C21 1_555 1_555
C22 C21 1_555 1_555
C23 C22 1_555 1_555
H25 C23 1_555 1_555
C24 C19 1_555 1_555
H26 C24 1_555 1_555
C25 C22 1_555 1_555
H27 C25 1_555 1_555
H28 C25 1_555 1_555
H29 C25 1_555 1_555
C4 C5 1_555 1_555
C7 C8 1_555 1_555
C17 C18 1_555 1_555
C23 C24 1_555 1_555

#END
