
#######################################################################
#
#                 Cambridge Crystallographic Data Centre
#                                CCDC 
#
#######################################################################
#
# If this CIF has been generated from an entry in the Cambridge 
# Structural Database, then it will include bibliographic, chemical, 
# crystal, experimental, refinement or atomic coordinate data resulting 
# from the CCDC's data processing and validation procedures.
#
#######################################################################

data_IVEMUS
_chemical_formula_moiety         'C12 H19 Br3 O1'
_chemical_name_systematic        2,2,12-Tribromocyclododecanone
_symmetry_cell_setting           triclinic
_symmetry_space_group_name_H-M   'P -1'
_symmetry_Int_Tables_number      2
_space_group_name_Hall           '-P 1'
loop_
_symmetry_equiv_pos_site_id
_symmetry_equiv_pos_as_xyz
1 x,y,z
2 -x,-y,-z
_cell_length_a                   7.2503(14)
_cell_length_b                   11.774(2)
_cell_length_c                   16.926(2)
_cell_angle_alpha                89.937(10)
_cell_angle_beta                 88.703(6)
_cell_angle_gamma                89.884(4)
_cell_volume                     1444.51
_cell_formula_units_Z            4
loop_
_atom_site_label
_atom_site_type_symbol
_atom_site_fract_x
_atom_site_fract_y
_atom_site_fract_z
Br1 Br 0.96760(14) 0.10187(7) 0.42736(5)
Br2 Br 0.87603(13) 0.36000(7) 0.45270(4)
Br3 Br 1.31425(16) 0.47543(8) 0.38987(5)
O1 O 1.2590(8) 0.2102(5) 0.3287(4)
C1 C 0.9485(10) 0.2455(6) 0.3730(3)
C2 C 1.1423(11) 0.2781(6) 0.3361(4)
C3 C 1.1681(12) 0.3990(6) 0.3074(4)
H1 H 1.0489 0.4368 0.3009
C4 C 1.2873(11) 0.4066(7) 0.2305(4)
H2 H 1.3156 0.4857 0.2199
H3 H 1.4029 0.3671 0.2384
C5 C 1.1941(12) 0.3565(7) 0.1592(4)
H4 H 1.2855 0.3496 0.1167
H5 H 1.1531 0.2804 0.1727
C6 C 1.0316(13) 0.4219(8) 0.1285(5)
H6 H 0.9379 0.4277 0.1702
H7 H 1.0710 0.4983 0.1149
C7 C 0.9482(13) 0.3676(7) 0.0572(4)
H8 H 1.0438 0.3589 0.0166
H9 H 0.8553 0.4184 0.0367
C8 C 0.8594(13) 0.2513(8) 0.0728(5)
H10 H 0.8214 0.2194 0.0230
H11 H 0.9512 0.2008 0.0946
C9 C 0.6924(13) 0.2557(8) 0.1295(5)
H12 H 0.6989 0.3249 0.1604
H13 H 0.5814 0.2598 0.0987
C10 C 0.6757(13) 0.1556(8) 0.1857(5)
H14 H 0.6813 0.0863 0.1549
H15 H 0.5552 0.1586 0.2117
C11 C 0.8218(13) 0.1488(6) 0.2492(4)
H16 H 0.8144 0.0752 0.2750
H17 H 0.9432 0.1553 0.2244
C12 C 0.7977(11) 0.2419(6) 0.3112(4)
H18 H 0.6795 0.2314 0.3382
H19 H 0.7942 0.3147 0.2845
Br4 Br 0.53222(14) -0.39817(7) 0.07272(5)
Br5 Br 0.62347(13) -0.13999(7) 0.04720(4)
Br6 Br 0.18617(16) -0.02450(8) 0.11017(5)
O2 O 0.2405(9) -0.2903(5) 0.1702(4)
C13 C 0.5529(10) -0.2555(5) 0.1270(4)
C14 C 0.7021(11) -0.2577(6) 0.1884(4)
H20 H 0.7041 -0.1847 0.2149
H21 H 0.8207 -0.2681 0.1617
C15 C 0.6769(13) -0.3509(6) 0.2504(4)
H22 H 0.6820 -0.4245 0.2248
H23 H 0.5564 -0.3430 0.2759
C16 C 0.8272(13) -0.3451(8) 0.3135(5)
H24 H 0.8231 -0.4145 0.3445
H25 H 0.9470 -0.3417 0.2870
C17 C 0.8083(12) -0.2442(8) 0.3693(4)
H26 H 0.7996 -0.1756 0.3378
H27 H 0.9200 -0.2389 0.3996
C18 C 0.6423(12) -0.2478(7) 0.4275(4)
H28 H 0.5498 -0.2982 0.4065
H29 H 0.6822 -0.2795 0.4772
C19 C 0.5543(14) -0.1325(8) 0.4433(5)
H30 H 0.4602 -0.1411 0.4846
H31 H 0.6478 -0.0817 0.4631
C20 C 0.4679(14) -0.0782(7) 0.3721(5)
H32 H 0.5612 -0.0704 0.3305
H33 H 0.4254 -0.0026 0.3863
C21 C 0.3075(12) -0.1450(7) 0.3407(4)
H34 H 0.2155 -0.1537 0.3827
H35 H 0.3508 -0.2203 0.3261
C22 C 0.2154(12) -0.0912(7) 0.2691(4)
H36 H 0.0969 -0.1274 0.2619
H37 H 0.1928 -0.0115 0.2801
C23 C 0.3289(12) -0.1011(6) 0.1928(4)
H38 H 0.4480 -0.0632 0.1987
C24 C 0.3592(11) -0.2230(6) 0.1638(4)
loop_
_geom_bond_atom_site_label_1
_geom_bond_atom_site_label_2
_geom_bond_site_symmetry_1
_geom_bond_site_symmetry_2
Br1 C1 1_555 1_555
Br2 C1 1_555 1_555
Br3 C3 1_555 1_555
O1 C2 1_555 1_555
C1 C2 1_555 1_555
C2 C3 1_555 1_555
C3 H1 1_555 1_555
C4 C3 1_555 1_555
H2 C4 1_555 1_555
H3 C4 1_555 1_555
C5 C4 1_555 1_555
H4 C5 1_555 1_555
H5 C5 1_555 1_555
C6 C5 1_555 1_555
H6 C6 1_555 1_555
H7 C6 1_555 1_555
C7 C6 1_555 1_555
H8 C7 1_555 1_555
H9 C7 1_555 1_555
C8 C7 1_555 1_555
H10 C8 1_555 1_555
H11 C8 1_555 1_555
C9 C8 1_555 1_555
H12 C9 1_555 1_555
H13 C9 1_555 1_555
C10 C9 1_555 1_555
H14 C10 1_555 1_555
H15 C10 1_555 1_555
C11 C10 1_555 1_555
H16 C11 1_555 1_555
H17 C11 1_555 1_555
C12 C1 1_555 1_555
H18 C12 1_555 1_555
H19 C12 1_555 1_555
Br4 C13 1_555 1_555
Br5 C13 1_555 1_555
Br6 C23 1_555 1_555
O2 C24 1_555 1_555
C13 C14 1_555 1_555
C14 H20 1_555 1_555
H21 C14 1_555 1_555
C15 C14 1_555 1_555
H22 C15 1_555 1_555
H23 C15 1_555 1_555
C16 C15 1_555 1_555
H24 C16 1_555 1_555
H25 C16 1_555 1_555
C17 C16 1_555 1_555
H26 C17 1_555 1_555
H27 C17 1_555 1_555
C18 C17 1_555 1_555
H28 C18 1_555 1_555
H29 C18 1_555 1_555
C19 C18 1_555 1_555
H30 C19 1_555 1_555
H31 C19 1_555 1_555
C20 C19 1_555 1_555
H32 C20 1_555 1_555
H33 C20 1_555 1_555
C21 C20 1_555 1_555
H34 C21 1_555 1_555
H35 C21 1_555 1_555
C22 C21 1_555 1_555
H36 C22 1_555 1_555
H37 C22 1_555 1_555
C23 C22 1_555 1_555
H38 C23 1_555 1_555
C24 C13 1_555 1_555
C11 C12 1_555 1_555
C23 C24 1_555 1_555

#END
