
#######################################################################
#
#                 Cambridge Crystallographic Data Centre
#                                CCDC 
#
#######################################################################
#
# If this CIF has been generated from an entry in the Cambridge 
# Structural Database, then it will include bibliographic, chemical, 
# crystal, experimental, refinement or atomic coordinate data resulting 
# from the CCDC's data processing and validation procedures.
#
#######################################################################

data_IVENIH
_chemical_formula_moiety         'C19 H24 Br2 O2'
_chemical_name_systematic        2-Benzoyl-2,12-dibromocyclododecanone
_symmetry_cell_setting           triclinic
_symmetry_space_group_name_H-M   'P -1'
_symmetry_Int_Tables_number      2
_space_group_name_Hall           '-P 1'
loop_
_symmetry_equiv_pos_site_id
_symmetry_equiv_pos_as_xyz
1 x,y,z
2 -x,-y,-z
_cell_length_a                   8.37650(10)
_cell_length_b                   10.5359(4)
_cell_length_c                   11.3555(4)
_cell_angle_alpha                69.242(3)
_cell_angle_beta                 72.8160(10)
_cell_angle_gamma                85.477(2)
_cell_volume                     894.906
_cell_formula_units_Z            2
loop_
_atom_site_label
_atom_site_type_symbol
_atom_site_fract_x
_atom_site_fract_y
_atom_site_fract_z
Br1 Br 0.31015(4) 0.58918(4) -0.44422(3)
Br2 Br -0.19002(4) 0.77680(3) -0.16019(3)
O1 O -0.0466(3) 0.6627(2) -0.4240(2)
O2 O 0.2122(3) 0.6159(3) -0.1127(2)
C1 C 0.1344(4) 0.5773(3) -0.2816(3)
C2 C -0.0341(4) 0.6217(3) -0.3138(3)
C3 C -0.1886(4) 0.6072(3) -0.1965(3)
H1 H -0.1766 0.5298 -0.1204
C4 C -0.3519(4) 0.5910(4) -0.2242(3)
H2 H -0.3581 0.6638 -0.3040
H3 H -0.4450 0.5991 -0.1526
C5 C -0.3679(4) 0.4542(4) -0.2399(3)
H4 H -0.4660 0.4548 -0.2688
H5 H -0.2712 0.4446 -0.3083
C6 C -0.3816(5) 0.3323(4) -0.1165(4)
H6 H -0.4808 0.3402 -0.0492
H7 H -0.2857 0.3338 -0.0856
C7 C -0.3906(5) 0.1956(4) -0.1323(4)
H8 H -0.4866 0.1949 -0.1633
H9 H -0.4112 0.1256 -0.0461
C8 C -0.2381(5) 0.1562(4) -0.2248(4)
H10 H -0.1988 0.2357 -0.3029
H11 H -0.2744 0.0886 -0.2521
C9 C -0.0894(5) 0.1000(4) -0.1709(4)
H12 H -0.1282 0.0189 -0.0944
H13 H -0.0070 0.0722 -0.2368
C10 C -0.0014(5) 0.1935(4) -0.1318(4)
H14 H -0.0767 0.2089 -0.0552
H15 H 0.0953 0.1482 -0.1071
C11 C 0.0556(4) 0.3305(3) -0.2403(3)
H16 H -0.0371 0.3705 -0.2744
H17 H 0.1442 0.3168 -0.3118
C12 C 0.1192(4) 0.4289(3) -0.1904(3)
H18 H 0.0436 0.4226 -0.1051
H19 H 0.2279 0.4003 -0.1782
C13 C 0.1981(4) 0.6685(3) -0.2223(3)
C14 C 0.2453(4) 0.8153(3) -0.2984(3)
C15 C 0.3302(4) 0.8814(4) -0.2464(3)
H20 H 0.3572 0.8329 -0.1690
C16 C 0.3740(5) 1.0165(4) -0.3076(4)
H21 H 0.4325 1.0588 -0.2731
C17 C 0.3308(5) 1.0900(4) -0.4214(4)
H22 H 0.3593 1.1820 -0.4628
C18 C 0.2457(5) 1.0270(4) -0.4732(4)
H23 H 0.2158 1.0769 -0.5489
C19 C 0.2046(4) 0.8901(4) -0.4133(3)
H24 H 0.1494 0.8477 -0.4500
loop_
_geom_bond_atom_site_label_1
_geom_bond_atom_site_label_2
_geom_bond_site_symmetry_1
_geom_bond_site_symmetry_2
Br1 C1 1_555 1_555
Br2 C3 1_555 1_555
O1 C2 1_555 1_555
O2 C13 1_555 1_555
C1 C2 1_555 1_555
C2 C3 1_555 1_555
C3 H1 1_555 1_555
C4 C3 1_555 1_555
H2 C4 1_555 1_555
H3 C4 1_555 1_555
C5 C4 1_555 1_555
H4 C5 1_555 1_555
H5 C5 1_555 1_555
C6 C5 1_555 1_555
H6 C6 1_555 1_555
H7 C6 1_555 1_555
C7 C6 1_555 1_555
H8 C7 1_555 1_555
H9 C7 1_555 1_555
C8 C7 1_555 1_555
H10 C8 1_555 1_555
H11 C8 1_555 1_555
C9 C8 1_555 1_555
H12 C9 1_555 1_555
H13 C9 1_555 1_555
C10 C9 1_555 1_555
H14 C10 1_555 1_555
H15 C10 1_555 1_555
C11 C10 1_555 1_555
H16 C11 1_555 1_555
H17 C11 1_555 1_555
C12 C1 1_555 1_555
H18 C12 1_555 1_555
H19 C12 1_555 1_555
C13 C1 1_555 1_555
C14 C13 1_555 1_555
C15 C14 1_555 1_555
H20 C15 1_555 1_555
C16 C15 1_555 1_555
H21 C16 1_555 1_555
C17 C16 1_555 1_555
H22 C17 1_555 1_555
C18 C17 1_555 1_555
H23 C18 1_555 1_555
C19 C14 1_555 1_555
H24 C19 1_555 1_555
C11 C12 1_555 1_555
C18 C19 1_555 1_555

#END
