
#######################################################################
#
#                 Cambridge Crystallographic Data Centre
#                                CCDC 
#
#######################################################################
#
# If this CIF has been generated from an entry in the Cambridge 
# Structural Database, then it will include bibliographic, chemical, 
# crystal, experimental, refinement or atomic coordinate data resulting 
# from the CCDC's data processing and validation procedures.
#
#######################################################################

data_IVEVIP
_chemical_formula_moiety         'C43 H31 N5 O1'
_chemical_name_systematic        meso-Tetraphenyl-2-aza-3-oxoporphyrin
_symmetry_cell_setting           triclinic
_symmetry_space_group_name_H-M   'P -1'
_symmetry_Int_Tables_number      2
_space_group_name_Hall           '-P 1'
loop_
_symmetry_equiv_pos_site_id
_symmetry_equiv_pos_as_xyz
1 x,y,z
2 -x,-y,-z
_cell_length_a                   6.3503(15)
_cell_length_b                   10.384(3)
_cell_length_c                   12.353(3)
_cell_angle_alpha                94.720(4)
_cell_angle_beta                 99.884(4)
_cell_angle_gamma                100.532(4)
_cell_volume                     783.514
_exptl_crystal_colour            black
_exptl_crystal_description       block
_cell_formula_units_Z            1
loop_
_atom_site_label
_atom_site_type_symbol
_atom_site_fract_x
_atom_site_fract_y
_atom_site_fract_z
C1 C 0.4773(3) 1.0803(2) 0.74422(17)
C2 C 0.3550(4) 1.0390(2) 0.82652(18)
H1 H 0.3905 1.0708 0.9031
C3 C 0.1786(4) 0.9458(2) 0.77540(18)
H2 H 0.0696 0.9003 0.8101
C6 C 0.1862(3) 0.92846(19) 0.66061(17)
C7 C 0.0429(3) 0.83409(19) 0.58123(17)
C8 C 0.0646(3) 0.80970(19) 0.47061(17)
C9 C -0.0952(5) 0.7193(3) 0.3907(2)
H6 H -0.0934 0.6675 0.2251
N4 N -0.0215(3) 0.7178(2) 0.29347(17)
O4 O -0.2998(17) 0.6884(12) 0.3720(10)
C13 C 0.1878(3) 0.8077(2) 0.31459(17)
C14 C 0.6793(3) 1.1683(2) 0.76414(16)
C15 C -0.1394(3) 0.7471(2) 0.61847(16)
C16 C -0.1524(3) 0.6111(2) 0.61007(18)
H9 H -0.0459 0.5740 0.5800
C17 C -0.3194(4) 0.5296(2) 0.64523(19)
H10 H -0.3287 0.4368 0.6376
C18 C -0.4721(4) 0.5827(2) 0.69118(18)
H11 H -0.5849 0.5268 0.7165
C19 C -0.4608(4) 0.7175(2) 0.70036(19)
H12 H -0.5660 0.7542 0.7320
C20 C -0.2960(3) 0.7994(2) 0.66353(18)
H13 H -0.2903 0.8918 0.6692
C21 C 0.7582(3) 1.2386(2) 0.87884(17)
C22 C 0.9515(4) 1.2215(2) 0.94357(19)
H14 H 1.0337 1.1631 0.9157
C23 C 1.0239(4) 1.2900(3) 1.0490(2)
H15 H 1.1570 1.2794 1.0924
C24 C 0.9039(5) 1.3730(3) 1.0907(2)
H16 H 0.9540 1.4194 1.1628
C25 C 0.7125(5) 1.3887(2) 1.0285(2)
H17 H 0.6290 1.4452 1.0579
C26 C 0.6395(4) 1.3227(2) 0.92266(19)
H18 H 0.5071 1.3352 0.8798
N5 N 0.3685(3) 1.01228(16) 0.64412(14)
H19 H 0.4090 1.0211 0.5801
N6 N 0.2335(3) 0.86252(16) 0.42285(13)
C1A C 0.5227(3) 0.9197(2) 0.25578(17)
C2A C 0.6450(4) 0.9610(2) 0.17348(18)
H1A H 0.6095 0.9292 0.0969
C3A C 0.8214(4) 1.0542(2) 0.22460(18)
H2A H 0.9304 1.0997 0.1899
C6A C 0.8138(3) 1.07154(19) 0.33939(17)
C7A C 0.9571(3) 1.16591(19) 0.41877(17)
C8A C 0.9354(3) 1.19030(19) 0.52939(17)
C9A C 1.0952(5) 1.2807(3) 0.6093(2)
H6A H 1.0934 1.3325 0.7749
N4A N 1.0215(3) 1.2822(2) 0.70653(17)
O4A O 1.2998(17) 1.3116(12) 0.6280(10)
C13A C 0.8122(3) 1.1923(2) 0.68541(17)
C14A C 0.3207(3) 0.8317(2) 0.23586(16)
C15A C 1.1394(3) 1.2529(2) 0.38153(16)
C16A C 1.1524(3) 1.3889(2) 0.38993(18)
H9A H 1.0459 1.4260 0.4200
C17A C 1.3194(4) 1.4704(2) 0.35477(19)
H10A H 1.3287 1.5632 0.3624
C18A C 1.4721(4) 1.4173(2) 0.30882(18)
H11A H 1.5849 1.4732 0.2835
C19A C 1.4608(4) 1.2825(2) 0.29964(19)
H12A H 1.5660 1.2458 0.2680
C20A C 1.2960(3) 1.2006(2) 0.33647(18)
H13A H 1.2903 1.1082 0.3308
C21A C 0.2418(3) 0.7614(2) 0.12116(17)
C22A C 0.0485(4) 0.7785(2) 0.05643(19)
H14A H -0.0337 0.8369 0.0843
C23A C -0.0239(4) 0.7100(3) -0.0490(2)
H15A H -0.1570 0.7206 -0.0924
C24A C 0.0961(5) 0.6270(3) -0.0907(2)
H16A H 0.0460 0.5806 -0.1628
C25A C 0.2875(5) 0.6113(2) -0.0285(2)
H17A H 0.3710 0.5548 -0.0579
C26A C 0.3605(4) 0.6773(2) 0.07734(19)
H18A H 0.4929 0.6648 0.1202
N5A N 0.6315(3) 0.98772(16) 0.35588(14)
H19A H 0.5910 0.9789 0.4199
N6A N 0.7665(3) 1.13748(16) 0.57715(13)
C4? C 0.3550(4) 1.0390(2) 0.82652(18)
N1? N 0.1786(4) 0.9458(2) 0.77540(18)
H3? H 0.0776 0.9036 0.8076
O1? O 0.395(2) 1.0469(13) 0.9291(8)
N2? N 0.3550(4) 1.0390(2) 0.82652(18)
H4? H 0.3949 1.0607 0.8985
C5? C 0.165(3) 0.960(2) 0.7723(15)
O2? O 0.025(3) 0.934(3) 0.829(3)
H5? H -0.2283 0.6695 0.4030
C10? C -0.0215(3) 0.7178(2) 0.29347(17)
N3? N -0.0952(5) 0.7193(3) 0.3907(2)
H7? H -0.2185 0.6732 0.4021
C11? C -0.0215(3) 0.7178(2) 0.29347(17)
O3? O -0.1354(10) 0.6375(6) 0.2183(5)
C12? C -0.105(3) 0.735(2) 0.3853(14)
H8? H -0.0813 0.6632 0.2333
H20? H 0.3503 0.9210 0.4555
loop_
_geom_bond_atom_site_label_1
_geom_bond_atom_site_label_2
_geom_bond_site_symmetry_1
_geom_bond_site_symmetry_2
C1 C2 1_555 1_555
C2 H1 1_555 1_555
C3 C2 1_555 1_555
H2 C3 1_555 1_555
C6 C3 1_555 1_555
C7 C6 1_555 1_555
C8 C7 1_555 1_555
C9 C8 1_555 1_555
H6 N4 1_555 1_555
N4 C9 1_555 1_555
O4 C9 1_555 1_555
C13 N4 1_555 1_555
C14 C1 1_555 1_555
C15 C7 1_555 1_555
C16 C15 1_555 1_555
H9 C16 1_555 1_555
C17 C16 1_555 1_555
H10 C17 1_555 1_555
C18 C17 1_555 1_555
H11 C18 1_555 1_555
C19 C18 1_555 1_555
H12 C19 1_555 1_555
C20 C15 1_555 1_555
H13 C20 1_555 1_555
C21 C14 1_555 1_555
C22 C21 1_555 1_555
H14 C22 1_555 1_555
C23 C22 1_555 1_555
H15 C23 1_555 1_555
C24 C23 1_555 1_555
H16 C24 1_555 1_555
C25 C24 1_555 1_555
H17 C25 1_555 1_555
C26 C21 1_555 1_555
H18 C26 1_555 1_555
N5 C1 1_555 1_555
H19 N5 1_555 1_555
N6 C8 1_555 1_555
C1A C2A 1_555 1_555
C2A H1A 1_555 1_555
C3A C2A 1_555 1_555
H2A C3A 1_555 1_555
C6A C3A 1_555 1_555
C7A C6A 1_555 1_555
C8A C7A 1_555 1_555
C9A C8A 1_555 1_555
H6A N4A 1_555 1_555
N4A C9A 1_555 1_555
O4A C9A 1_555 1_555
C13A C14 1_555 1_555
C14A C13 1_555 1_555
C15A C7A 1_555 1_555
C16A C15A 1_555 1_555
H9A C16A 1_555 1_555
C17A C16A 1_555 1_555
H10A C17A 1_555 1_555
C18A C17A 1_555 1_555
H11A C18A 1_555 1_555
C19A C18A 1_555 1_555
H12A C19A 1_555 1_555
C20A C15A 1_555 1_555
H13A C20A 1_555 1_555
C21A C14A 1_555 1_555
C22A C21A 1_555 1_555
H14A C22A 1_555 1_555
C23A C22A 1_555 1_555
H15A C23A 1_555 1_555
C24A C23A 1_555 1_555
H16A C24A 1_555 1_555
C25A C24A 1_555 1_555
H17A C25A 1_555 1_555
C26A C21A 1_555 1_555
H18A C26A 1_555 1_555
N5A C1A 1_555 1_555
H19A N5A 1_555 1_555
N6A C8A 1_555 1_555
C6 N5 1_555 1_555
C13 N6 1_555 1_555
C19 C20 1_555 1_555
C25 C26 1_555 1_555
C1A C14A 1_555 1_555
C6A N5A 1_555 1_555
N4A C13A 1_555 1_555
C13A N6A 1_555 1_555
C19A C20A 1_555 1_555
C25A C26A 1_555 1_555

#END
