
#######################################################################
#
#                 Cambridge Crystallographic Data Centre
#                                CCDC 
#
#######################################################################
#
# If this CIF has been generated from an entry in the Cambridge 
# Structural Database, then it will include bibliographic, chemical, 
# crystal, experimental, refinement or atomic coordinate data resulting 
# from the CCDC's data processing and validation procedures.
#
#######################################################################

data_IVEVAH
_chemical_formula_moiety         'C43 H30 N6 O1,0.4(H2 O1)'
_chemical_name_systematic        
'meso-Tetraphenyl-2-(N-aminoaza)-3-oxoporphyrin hydrate'
_symmetry_cell_setting           triclinic
_symmetry_space_group_name_H-M   'P -1'
_symmetry_Int_Tables_number      2
_space_group_name_Hall           '-P 1'
loop_
_symmetry_equiv_pos_site_id
_symmetry_equiv_pos_as_xyz
1 x,y,z
2 -x,-y,-z
_cell_length_a                   11.737(4)
_cell_length_b                   12.257(4)
_cell_length_c                   13.154(4)
_cell_angle_alpha                76.707(4)
_cell_angle_beta                 78.360(4)
_cell_angle_gamma                65.649(4)
_cell_volume                     1665.55
_exptl_crystal_colour            black
_exptl_crystal_description       block
_cell_formula_units_Z            2
loop_
_atom_site_label
_atom_site_type_symbol
_atom_site_fract_x
_atom_site_fract_y
_atom_site_fract_z
C1 C 0.1858(4) 0.3883(4) 0.0145(4)
C2 C 0.1760(4) 0.3457(4) -0.1356(4)
C3 C 0.1547(4) 0.2928(4) -0.2098(4)
C4 C 0.0754(4) 0.2274(4) -0.1899(3)
C5 C 0.0426(4) 0.1838(4) -0.2674(4)
H1 H 0.0784 0.1839 -0.3390
C6 C -0.0487(4) 0.1422(4) -0.2200(3)
H2 H -0.0888 0.1089 -0.2532
C7 C -0.0748(4) 0.1565(4) -0.1121(3)
C8 C -0.1664(4) 0.1309(4) -0.0361(4)
C9 C -0.1844(4) 0.1404(4) 0.0704(3)
C10 C -0.1673(4) 0.1757(4) 0.2225(4)
C11 C -0.1292(4) 0.2099(4) 0.3001(3)
C12 C -0.0383(4) 0.2612(4) 0.2811(4)
C13 C 0.0170(5) 0.2784(5) 0.3603(4)
H3 H -0.0043 0.2608 0.4341
C14 C 0.1049(5) 0.3242(5) 0.3119(4)
H4 H 0.1575 0.3427 0.3457
C15 C 0.1043(4) 0.3395(4) 0.2010(4)
C16 C 0.1808(4) 0.3852(4) 0.1223(4)
C17 C 0.2222(10) 0.2981(11) -0.3218(6)
C18 C 0.3274(10) 0.2005(9) -0.3535(7)
H5 H 0.3575 0.1269 -0.3056
C19 C 0.3885(9) 0.2108(9) -0.4552(8)
H6 H 0.4605 0.1441 -0.4769
C20 C 0.3445(12) 0.3186(10) -0.5253(5)
H7 H 0.3862 0.3256 -0.5949
C21 C 0.2392(13) 0.4161(9) -0.4937(7)
H8 H 0.2091 0.4898 -0.5416
C22 C 0.1781(11) 0.4059(10) -0.3919(8)
H9 H 0.1061 0.4725 -0.3702
N1 N 0.2464(16) 0.4511(19) -0.0654(8)
C23 C 0.2417(19) 0.429(2) -0.1605(9)
N2 N 0.2835(9) 0.5367(8) -0.0492(7)
H10 H 0.278(8) 0.589(5) -0.107(3)
H11 H 0.227(7) 0.575(5) -0.001(5)
O1 O 0.2869(8) 0.4713(7) -0.2401(6)
C24 C -0.252(3) 0.113(3) 0.2434(11)
H12 H -0.2887 0.0865 0.3104
C25 C -0.2685(13) 0.1001(12) 0.1484(13)
H13 H -0.3260 0.0694 0.1362
C26 C -0.2576(4) 0.0942(4) -0.0728(3)
C27 C -0.2196(5) -0.0159(4) -0.1062(4)
H16 H -0.1338 -0.0701 -0.1085
C28 C -0.3084(5) -0.0468(5) -0.1364(4)
H17 H -0.2827 -0.1221 -0.1598
C29 C -0.4332(5) 0.0314(5) -0.1325(4)
H18 H -0.4936 0.0092 -0.1517
C30 C -0.4703(5) 0.1419(5) -0.1005(4)
H19 H -0.5560 0.1964 -0.0987
C31 C -0.3832(4) 0.1733(4) -0.0711(3)
H20 H -0.4092 0.2496 -0.0495
C32 C -0.1906(5) 0.1952(5) 0.4103(4)
C33 C -0.1656(6) 0.0831(5) 0.4733(4)
H21 H -0.1090 0.0119 0.4458
C34 C -0.2221(6) 0.0734(6) 0.5755(5)
H22 H -0.2052 -0.0045 0.6176
C35 C -0.3017(6) 0.1740(6) 0.6170(4)
H23 H -0.3377 0.1666 0.6885
C36 C -0.3302(6) 0.2873(6) 0.5547(4)
H24 H -0.3887 0.3577 0.5823
C37 C -0.2731(5) 0.2976(5) 0.4521(4)
H25 H -0.2907 0.3756 0.4100
C38 C 0.2686(4) 0.4265(4) 0.1574(4)
C39 C 0.2227(5) 0.5311(4) 0.2023(4)
H26 H 0.1345 0.5760 0.2140
C40 C 0.3065(5) 0.5697(4) 0.2302(4)
H27 H 0.2751 0.6419 0.2598
C41 C 0.4339(5) 0.5049(5) 0.2155(4)
H28 H 0.4905 0.5320 0.2345
C42 C 0.4796(5) 0.3989(5) 0.1723(5)
H29 H 0.5677 0.3528 0.1630
C43 C 0.3972(5) 0.3607(5) 0.1431(4)
H30 H 0.4290 0.2887 0.1131
N3 N 0.1354(4) 0.3311(3) -0.0302(3)
N4 N 0.0057(3) 0.2061(3) -0.0967(3)
H31 H 0.0111 0.2216 -0.0362
N5 N -0.1219(3) 0.1849(3) 0.1175(3)
N6 N 0.0183(4) 0.2977(3) 0.1863(3)
H32 H 0.0020 0.2948 0.1248
O2 O 0.4528(19) 0.0620(18) 0.3914(9)
H14 H 0.5017 0.0214 0.4384
H15 H 0.3796 0.0732 0.4230
C44? C -0.271(2) 0.0991(19) 0.149(2)
C45? C 0.269(4) 0.431(5) -0.0634(15)
C46? C 0.2072(19) 0.324(2) -0.3193(11)
C47? C 0.3345(18) 0.2613(16) -0.3488(11)
C48? C 0.3885(14) 0.2888(18) -0.4505(13)
C49? C 0.315(2) 0.3792(19) -0.5228(9)
C50? C 0.188(2) 0.4422(18) -0.4933(16)
C51? C 0.1338(15) 0.415(2) -0.3916(18)
C52? C 0.261(4) 0.408(4) -0.1567(13)
H33? H 0.3204 0.4695 -0.0518
H34? H 0.3846 0.1995 -0.2994
H35? H 0.4755 0.2458 -0.4707
H36? H 0.3521 0.3980 -0.5923
H37? H 0.1377 0.5040 -0.5427
H38? H 0.0468 0.4578 -0.3715
H39? H 0.3028 0.4279 -0.2234
H40? H 0.4642 0.0212 0.3445
H41? H -0.408(5) 0.120(12) 0.326(6)
H42? H -0.296(8) 0.038(5) 0.363(7)
N7? N -0.271(4) 0.135(4) 0.2395(18)
N8? N -0.3320(16) 0.1146(14) 0.3321(12)
O3? O -0.3409(13) 0.0514(13) 0.1465(10)
loop_
_geom_bond_atom_site_label_1
_geom_bond_atom_site_label_2
_geom_bond_site_symmetry_1
_geom_bond_site_symmetry_2
C1 C16 1_555 1_555
C2 C3 1_555 1_555
C3 C4 1_555 1_555
C4 C5 1_555 1_555
C5 H1 1_555 1_555
C6 C5 1_555 1_555
H2 C6 1_555 1_555
C7 C6 1_555 1_555
C8 C7 1_555 1_555
C9 C8 1_555 1_555
C10 C11 1_555 1_555
C11 C12 1_555 1_555
C12 C13 1_555 1_555
C13 H3 1_555 1_555
C14 C13 1_555 1_555
H4 C14 1_555 1_555
C15 C14 1_555 1_555
C16 C15 1_555 1_555
C17 C3 1_555 1_555
C18 C17 1_555 1_555
H5 C18 1_555 1_555
C19 C18 1_555 1_555
H6 C19 1_555 1_555
C20 C19 1_555 1_555
H7 C20 1_555 1_555
C21 C20 1_555 1_555
H8 C21 1_555 1_555
C22 C17 1_555 1_555
H9 C22 1_555 1_555
N1 C1 1_555 1_555
C23 C2 1_555 1_555
N2 N1 1_555 1_555
H10 N2 1_555 1_555
H11 N2 1_555 1_555
O1 C23 1_555 1_555
C24 C10 1_555 1_555
H12 C24 1_555 1_555
C25 C9 1_555 1_555
H13 C25 1_555 1_555
O2 H14 1_555 1_555
H15 O2 1_555 1_555
C26 C8 1_555 1_555
C27 C26 1_555 1_555
H16 C27 1_555 1_555
C28 C27 1_555 1_555
H17 C28 1_555 1_555
C29 C28 1_555 1_555
H18 C29 1_555 1_555
C30 C29 1_555 1_555
H19 C30 1_555 1_555
C31 C26 1_555 1_555
H20 C31 1_555 1_555
C32 C11 1_555 1_555
C33 C32 1_555 1_555
H21 C33 1_555 1_555
C34 C33 1_555 1_555
H22 C34 1_555 1_555
C35 C34 1_555 1_555
H23 C35 1_555 1_555
C36 C35 1_555 1_555
H24 C36 1_555 1_555
C37 C32 1_555 1_555
H25 C37 1_555 1_555
C38 C16 1_555 1_555
C39 C38 1_555 1_555
H26 C39 1_555 1_555
C40 C39 1_555 1_555
H27 C40 1_555 1_555
C41 C40 1_555 1_555
H28 C41 1_555 1_555
C42 C41 1_555 1_555
H29 C42 1_555 1_555
C43 C38 1_555 1_555
H30 C43 1_555 1_555
N3 C1 1_555 1_555
N4 C4 1_555 1_555
H31 N4 1_555 1_555
N5 C9 1_555 1_555
N6 C12 1_555 1_555
H32 N6 1_555 1_555
C2 N3 1_555 1_555
C7 N4 1_555 1_555
C10 N5 1_555 1_555
C15 N6 1_555 1_555
C21 C22 1_555 1_555
N1 C23 1_555 1_555
C24 C25 1_555 1_555
C30 C31 1_555 1_555
C36 C37 1_555 1_555
C42 C43 1_555 1_555

#END
