
#######################################################################
#
#                 Cambridge Crystallographic Data Centre
#                                CCDC 
#
#######################################################################
#
# If this CIF has been generated from an entry in the Cambridge 
# Structural Database, then it will include bibliographic, chemical, 
# crystal, experimental, refinement or atomic coordinate data resulting 
# from the CCDC's data processing and validation procedures.
#
#######################################################################

data_IVEWEL
_chemical_formula_moiety         'C34 H34 B1 N3'
_chemical_name_systematic        
Dimesityl-(p-(2,2'-dipyridylamino)phenyl)borane
_symmetry_cell_setting           orthorhombic
_symmetry_space_group_name_H-M   'P n a 21'
_symmetry_Int_Tables_number      33
_space_group_name_Hall           'P 2c -2n'
loop_
_symmetry_equiv_pos_site_id
_symmetry_equiv_pos_as_xyz
1 x,y,z
2 -x,-y,1/2+z
3 1/2+x,1/2-y,z
4 1/2-x,1/2+y,1/2+z
_cell_length_a                   11.179(3)
_cell_length_b                   22.942(7)
_cell_length_c                   11.332(3)
_cell_angle_alpha                90
_cell_angle_beta                 90
_cell_angle_gamma                90
_cell_volume                     2906.3
_exptl_crystal_colour            colorless
_exptl_crystal_description       prism
_chemical_melting_point          196-198deg.C
_cell_formula_units_Z            4
_exptl_crystal_recrystallization_method dichloromethane/hexane
_exptl_crystal_preparation       luminescent
loop_
_atom_site_label
_atom_site_type_symbol
_atom_site_fract_x
_atom_site_fract_y
_atom_site_fract_z
B1 B 0.3902(2) 0.18809(14) 0.6425(3)
N1 N 0.3746(2) 0.38702(9) 0.3292(2)
N2 N 0.4958(2) 0.45866(14) 0.2369(3)
N3 N 0.2444(2) 0.44122(12) 0.2094(3)
C1 C 0.2758(2) 0.38894(14) 0.2524(3)
C2 C 0.2168(3) 0.33905(14) 0.2262(3)
H1 H 0.2435 0.3036 0.2560
C3 C 0.1181(4) 0.3412(2) 0.1561(4)
H2 H 0.0761 0.3073 0.1391
C4 C 0.0807(4) 0.3934(3) 0.1106(4)
H3 H 0.0130 0.3959 0.0632
C5 C 0.1464(4) 0.4411(2) 0.1375(4)
H4 H 0.1231 0.4765 0.1045
C6 C 0.4594(2) 0.43114(12) 0.3382(3)
C7 C 0.5041(3) 0.44562(12) 0.4438(3)
H5 H 0.4779 0.4265 0.5113
C8 C 0.5850(3) 0.48694(16) 0.4518(4)
H6 H 0.6181 0.4953 0.5251
C9 C 0.6220(3) 0.51799(16) 0.3556(5)
H7 H 0.6759 0.5486 0.3635
C10 C 0.5781(3) 0.50289(18) 0.2487(4)
H8 H 0.6040 0.5228 0.1819
C11 C 0.3822(2) 0.34020(12) 0.4122(3)
C12 C 0.2911(2) 0.33067(11) 0.4916(3)
H9 H 0.2255 0.3555 0.4936
C13 C 0.2977(2) 0.28411(11) 0.5681(2)
H10 H 0.2381 0.2796 0.6247
C14 C 0.3905(2) 0.24345(10) 0.5638(2)
C15 C 0.4817(2) 0.25531(12) 0.4840(3)
H11 H 0.5470 0.2303 0.4805
C16 C 0.4785(2) 0.30297(12) 0.4097(3)
H12 H 0.5415 0.3099 0.3580
C17 C 0.3204(2) 0.18709(11) 0.7639(3)
C18 C 0.3494(2) 0.22593(13) 0.8551(3)
C19 C 0.2975(3) 0.22004(14) 0.9656(3)
H13 H 0.3194 0.2459 1.0250
C20 C 0.2149(3) 0.17734(14) 0.9906(3)
C21 C 0.1825(2) 0.14046(13) 0.8997(3)
H14 H 0.1249 0.1120 0.9137
C22 C 0.2332(2) 0.14438(11) 0.7877(3)
C23 C 0.4421(3) 0.27451(14) 0.8395(3)
H15 H 0.4486 0.2964 0.9115
H16 H 0.4174 0.2999 0.7768
H17 H 0.5183 0.2577 0.8205
C24 C 0.1594(4) 0.17104(16) 1.1125(3)
H18 H 0.1037 0.1392 1.1121
H19 H 0.1184 0.2064 1.1328
H20 H 0.2212 0.1636 1.1693
C25 C 0.1913(3) 0.10382(12) 0.6928(3)
H21 H 0.1324 0.0777 0.7245
H22 H 0.2580 0.0818 0.6634
H23 H 0.1566 0.1260 0.6296
C26 C 0.4595(2) 0.13255(11) 0.5977(3)
C27 C 0.4408(2) 0.10868(13) 0.4853(3)
C28 C 0.5059(3) 0.06091(13) 0.4468(3)
H24 H 0.4911 0.0462 0.3717
C29 C 0.5916(3) 0.03443(13) 0.5155(4)
C30 C 0.6084(2) 0.05707(15) 0.6264(4)
H25 H 0.6649 0.0396 0.6752
C31 C 0.5455(2) 0.10480(14) 0.6696(3)
C32 C 0.3455(3) 0.13207(14) 0.4014(3)
H26 H 0.3467 0.1099 0.3295
H27 H 0.3617 0.1723 0.3842
H28 H 0.2682 0.1287 0.4377
C33 C 0.6660(3) -0.01615(12) 0.4722(4)
H29 H 0.6423 -0.0261 0.3934
H30 H 0.6540 -0.0491 0.5231
H31 H 0.7490 -0.0054 0.4727
C34 C 0.5774(3) 0.12666(16) 0.7914(3)
H32 H 0.5273 0.1592 0.8111
H33 H 0.6597 0.1386 0.7926
H34 H 0.5654 0.0960 0.8479
loop_
_geom_bond_atom_site_label_1
_geom_bond_atom_site_label_2
_geom_bond_site_symmetry_1
_geom_bond_site_symmetry_2
B1 C14 1_555 1_555
N1 C1 1_555 1_555
N2 C6 1_555 1_555
N3 C1 1_555 1_555
C1 C2 1_555 1_555
C2 H1 1_555 1_555
C3 C2 1_555 1_555
H2 C3 1_555 1_555
C4 C3 1_555 1_555
H3 C4 1_555 1_555
C5 N3 1_555 1_555
H4 C5 1_555 1_555
C6 N1 1_555 1_555
C7 C6 1_555 1_555
H5 C7 1_555 1_555
C8 C7 1_555 1_555
H6 C8 1_555 1_555
C9 C8 1_555 1_555
H7 C9 1_555 1_555
C10 N2 1_555 1_555
H8 C10 1_555 1_555
C11 N1 1_555 1_555
C12 C11 1_555 1_555
H9 C12 1_555 1_555
C13 C12 1_555 1_555
H10 C13 1_555 1_555
C14 C13 1_555 1_555
C15 C14 1_555 1_555
H11 C15 1_555 1_555
C16 C11 1_555 1_555
H12 C16 1_555 1_555
C17 B1 1_555 1_555
C18 C17 1_555 1_555
C19 C18 1_555 1_555
H13 C19 1_555 1_555
C20 C19 1_555 1_555
C21 C20 1_555 1_555
H14 C21 1_555 1_555
C22 C17 1_555 1_555
C23 C18 1_555 1_555
H15 C23 1_555 1_555
H16 C23 1_555 1_555
H17 C23 1_555 1_555
C24 C20 1_555 1_555
H18 C24 1_555 1_555
H19 C24 1_555 1_555
H20 C24 1_555 1_555
C25 C22 1_555 1_555
H21 C25 1_555 1_555
H22 C25 1_555 1_555
H23 C25 1_555 1_555
C26 B1 1_555 1_555
C27 C26 1_555 1_555
C28 C27 1_555 1_555
H24 C28 1_555 1_555
C29 C28 1_555 1_555
C30 C29 1_555 1_555
H25 C30 1_555 1_555
C31 C26 1_555 1_555
C32 C27 1_555 1_555
H26 C32 1_555 1_555
H27 C32 1_555 1_555
H28 C32 1_555 1_555
C33 C29 1_555 1_555
H29 C33 1_555 1_555
H30 C33 1_555 1_555
H31 C33 1_555 1_555
C34 C31 1_555 1_555
H32 C34 1_555 1_555
H33 C34 1_555 1_555
H34 C34 1_555 1_555
C4 C5 1_555 1_555
C9 C10 1_555 1_555
C15 C16 1_555 1_555
C21 C22 1_555 1_555
C30 C31 1_555 1_555

#END
