
#######################################################################
#
#                 Cambridge Crystallographic Data Centre
#                                CCDC 
#
#######################################################################
#
# If this CIF has been generated from an entry in the Cambridge 
# Structural Database, then it will include bibliographic, chemical, 
# crystal, experimental, refinement or atomic coordinate data resulting 
# from the CCDC's data processing and validation procedures.
#
#######################################################################

data_IVEWUD
_chemical_formula_moiety         'C15 H16 Br1 N1 O1'
_chemical_name_systematic        
4-bromo-12-methylene-10-oxa-8-azatetracyclo[7.4.3.0^1,9^.0^2,7^]hexadeca-2,4,6-triene
_symmetry_cell_setting           orthorhombic
_symmetry_space_group_name_H-M   'P b c a'
_symmetry_Int_Tables_number      61
_space_group_name_Hall           '-P 2ac 2ab'
loop_
_symmetry_equiv_pos_site_id
_symmetry_equiv_pos_as_xyz
1 x,y,z
2 1/2-x,-y,1/2+z
3 -x,1/2+y,1/2-z
4 1/2+x,1/2-y,-z
5 -x,-y,-z
6 1/2+x,y,1/2-z
7 x,1/2-y,1/2+z
8 1/2-x,1/2+y,z
_cell_length_a                   14.346(8)
_cell_length_b                   8.748(5)
_cell_length_c                   22.232(13)
_cell_angle_alpha                90
_cell_angle_beta                 90
_cell_angle_gamma                90
_cell_volume                     2790.09
_exptl_crystal_colour            colorless
_exptl_crystal_description       prismatic
_cell_formula_units_Z            8
loop_
_atom_site_label
_atom_site_type_symbol
_atom_site_fract_x
_atom_site_fract_y
_atom_site_fract_z
Br1 Br 1.25475(3) 0.16938(6) 0.40812(3)
N1 N 0.8444(2) 0.2582(3) 0.36356(15)
O1 O 0.78808(16) 0.5102(3) 0.37817(11)
C1 C 0.9359(2) 0.2174(3) 0.37375(15)
C2 C 0.9703(3) 0.0862(4) 0.40095(17)
H1 H 0.9301 0.0084 0.4129
C3 C 1.0651(3) 0.0733(4) 0.40984(17)
H2 H 1.0893 -0.0136 0.4282
C4 C 1.1240(2) 0.1888(4) 0.39164(16)
C5 C 1.0911(2) 0.3190(3) 0.36378(14)
H3 H 1.1318 0.3953 0.3513
C6 C 0.9964(2) 0.3334(3) 0.35490(13)
C7 C 0.9401(2) 0.4601(3) 0.32595(14)
C8 C 0.9476(3) 0.4635(4) 0.25641(16)
H4 H 0.9447 0.5678 0.2417
H5 H 1.0059 0.4181 0.2433
C9 C 0.8658(4) 0.3719(6) 0.2336(2)
H6 H 0.8793 0.2633 0.2345
H7 H 0.8499 0.4011 0.1928
C10 C 0.7869(3) 0.4116(5) 0.27697(19)
H8 H 0.7375 0.3362 0.2753
H9 H 0.7612 0.5118 0.2684
C11 C 0.8364(2) 0.4092(4) 0.33824(15)
C12 C 0.8393(3) 0.5394(5) 0.43284(16)
H10 H 0.8506 0.4436 0.4535
H11 H 0.8022 0.6039 0.4591
C13 C 0.9308(3) 0.6166(4) 0.42011(15)
C14 C 0.9580(2) 0.6162(3) 0.35505(14)
H12 H 1.0236 0.6415 0.3515
H13 H 0.9226 0.6938 0.3339
C15 C 0.9821(3) 0.6742(4) 0.46316(19)
H14 H 1.0394 0.7184 0.4542
H15 H 0.9613 0.6709 0.5028
H16 H 0.8013(17) 0.196(3) 0.3619(13)
loop_
_geom_bond_atom_site_label_1
_geom_bond_atom_site_label_2
_geom_bond_site_symmetry_1
_geom_bond_site_symmetry_2
Br1 C4 1_555 1_555
N1 C1 1_555 1_555
O1 C11 1_555 1_555
C1 C2 1_555 1_555
C2 H1 1_555 1_555
C3 C2 1_555 1_555
H2 C3 1_555 1_555
C4 C3 1_555 1_555
C5 C4 1_555 1_555
H3 C5 1_555 1_555
C6 C1 1_555 1_555
C7 C6 1_555 1_555
C8 C7 1_555 1_555
H4 C8 1_555 1_555
H5 C8 1_555 1_555
C9 C8 1_555 1_555
H6 C9 1_555 1_555
H7 C9 1_555 1_555
C10 C9 1_555 1_555
H8 C10 1_555 1_555
H9 C10 1_555 1_555
C11 N1 1_555 1_555
C12 O1 1_555 1_555
H10 C12 1_555 1_555
H11 C12 1_555 1_555
C13 C12 1_555 1_555
C14 C7 1_555 1_555
H12 C14 1_555 1_555
H13 C14 1_555 1_555
C15 C13 1_555 1_555
H14 C15 1_555 1_555
H15 C15 1_555 1_555
H16 N1 1_555 1_555
C5 C6 1_555 1_555
C7 C11 1_555 1_555
C10 C11 1_555 1_555
C13 C14 1_555 1_555

#END
