
#######################################################################
#
#                 Cambridge Crystallographic Data Centre
#                                CCDC 
#
#######################################################################
#
# If this CIF has been generated from an entry in the Cambridge 
# Structural Database, then it will include bibliographic, chemical, 
# crystal, experimental, refinement or atomic coordinate data resulting 
# from the CCDC's data processing and validation procedures.
#
#######################################################################

data_IVEXIS
_chemical_formula_moiety         'C33 H23 I1'
_chemical_name_systematic        
2-iodo-9-(2,2,2-triphenylethylidene)-9H-fluorene
_symmetry_cell_setting           triclinic
_symmetry_space_group_name_H-M   'P -1'
_symmetry_Int_Tables_number      2
_space_group_name_Hall           '-P 1'
loop_
_symmetry_equiv_pos_site_id
_symmetry_equiv_pos_as_xyz
1 x,y,z
2 -x,-y,-z
_cell_length_a                   8.5632(18)
_cell_length_b                   9.989(2)
_cell_length_c                   15.528(3)
_cell_angle_alpha                100.510(4)
_cell_angle_beta                 103.365(4)
_cell_angle_gamma                106.851(4)
_cell_volume                     1191.58
_exptl_crystal_colour            yellow
_exptl_crystal_description       Plate
_cell_formula_units_Z            2
loop_
_atom_site_label
_atom_site_type_symbol
_atom_site_fract_x
_atom_site_fract_y
_atom_site_fract_z
I1 I 0.50773(8) 0.67513(7) 0.32551(4)
C1 C 0.1515(9) 0.3546(9) 0.4042(5)
C2 C 0.2503(9) 0.4272(8) 0.3565(5)
H1 H 0.2401 0.3820 0.2951
C3 C 0.3638(9) 0.5662(8) 0.3999(5)
C4 C 0.3853(9) 0.6348(8) 0.4908(5)
H2 H 0.4661 0.7300 0.5196
C5 C 0.2862(10) 0.5610(9) 0.5387(6)
H3 H 0.2997 0.6058 0.6007
C6 C 0.1688(9) 0.4236(9) 0.4964(5)
C7 C 0.0533(9) 0.3244(8) 0.5310(5)
C8 C 0.0200(9) 0.3429(9) 0.6152(5)
H4 H 0.0795 0.4311 0.6622
C9 C -0.1020(10) 0.2296(10) 0.6289(5)
H5 H -0.1268 0.2410 0.6858
C10 C -0.1864(10) 0.1026(9) 0.5623(5)
H6 H -0.2683 0.0264 0.5739
C11 C -0.1556(10) 0.0810(9) 0.4761(5)
H7 H -0.2146 -0.0082 0.4300
C12 C -0.0356(9) 0.1952(8) 0.4614(5)
C13 C 0.0203(9) 0.2048(9) 0.3779(5)
C14 C -0.0426(8) 0.0939(8) 0.3034(5)
H8 H -0.1178 0.0097 0.3116
C15 C -0.0219(9) 0.0697(8) 0.2055(5)
C16 C -0.1819(9) -0.0605(8) 0.1431(5)
C17 C -0.2827(9) -0.0550(8) 0.0591(5)
H9 H -0.2524 0.0315 0.0400
C18 C -0.4223(9) -0.1706(9) 0.0045(5)
H10 H -0.4893 -0.1622 -0.0509
C19 C -0.4683(9) -0.3004(9) 0.0285(5)
H11 H -0.5661 -0.3806 -0.0095
C20 C -0.3655(10) -0.3103(9) 0.1116(5)
H12 H -0.3924 -0.3984 0.1292
C21 C -0.2276(9) -0.1920(8) 0.1659(5)
H13 H -0.1602 -0.1999 0.2214
C22 C -0.0126(9) 0.2057(8) 0.1713(4)
C23 C -0.1208(9) 0.2800(8) 0.1849(5)
H14 H -0.2038 0.2457 0.2145
C24 C -0.1097(10) 0.4064(9) 0.1552(5)
H15 H -0.1832 0.4582 0.1666
C25 C 0.0048(10) 0.4552(9) 0.1105(5)
H16 H 0.0126 0.5415 0.0916
C26 C 0.1096(10) 0.3790(9) 0.0929(5)
H17 H 0.1885 0.4120 0.0607
C27 C 0.1007(9) 0.2542(8) 0.1218(5)
H18 H 0.1717 0.2011 0.1080
C28 C 0.1374(9) 0.0255(8) 0.2059(5)
C29 C 0.2889(9) 0.0947(8) 0.2772(5)
H19 H 0.2933 0.1675 0.3275
C30 C 0.4345(9) 0.0595(8) 0.2765(5)
H20 H 0.5363 0.1066 0.3267
C31 C 0.4307(10) -0.0455(9) 0.2018(6)
H21 H 0.5292 -0.0705 0.2007
C32 C 0.2815(10) -0.1115(9) 0.1300(5)
H22 H 0.2779 -0.1818 0.0786
C33 C 0.1365(9) -0.0770(8) 0.1316(5)
H23 H 0.0350 -0.1239 0.0812
loop_
_geom_bond_atom_site_label_1
_geom_bond_atom_site_label_2
_geom_bond_site_symmetry_1
_geom_bond_site_symmetry_2
I1 C3 1_555 1_555
C1 C2 1_555 1_555
C2 H1 1_555 1_555
C3 C2 1_555 1_555
C4 C3 1_555 1_555
H2 C4 1_555 1_555
C5 C4 1_555 1_555
H3 C5 1_555 1_555
C6 C1 1_555 1_555
C7 C6 1_555 1_555
C8 C7 1_555 1_555
H4 C8 1_555 1_555
C9 C8 1_555 1_555
H5 C9 1_555 1_555
C10 C9 1_555 1_555
H6 C10 1_555 1_555
C11 C10 1_555 1_555
H7 C11 1_555 1_555
C12 C7 1_555 1_555
C13 C1 1_555 1_555
C14 C13 1_555 1_555
H8 C14 1_555 1_555
C15 C14 1_555 1_555
C16 C15 1_555 1_555
C17 C16 1_555 1_555
H9 C17 1_555 1_555
C18 C17 1_555 1_555
H10 C18 1_555 1_555
C19 C18 1_555 1_555
H11 C19 1_555 1_555
C20 C19 1_555 1_555
H12 C20 1_555 1_555
C21 C16 1_555 1_555
H13 C21 1_555 1_555
C22 C15 1_555 1_555
C23 C22 1_555 1_555
H14 C23 1_555 1_555
C24 C23 1_555 1_555
H15 C24 1_555 1_555
C25 C24 1_555 1_555
H16 C25 1_555 1_555
C26 C25 1_555 1_555
H17 C26 1_555 1_555
C27 C22 1_555 1_555
H18 C27 1_555 1_555
C28 C15 1_555 1_555
C29 C28 1_555 1_555
H19 C29 1_555 1_555
C30 C29 1_555 1_555
H20 C30 1_555 1_555
C31 C30 1_555 1_555
H21 C31 1_555 1_555
C32 C31 1_555 1_555
H22 C32 1_555 1_555
C33 C28 1_555 1_555
H23 C33 1_555 1_555
C5 C6 1_555 1_555
C11 C12 1_555 1_555
C12 C13 1_555 1_555
C20 C21 1_555 1_555
C26 C27 1_555 1_555
C32 C33 1_555 1_555

#END
