
#######################################################################
#
#                 Cambridge Crystallographic Data Centre
#                                CCDC 
#
#######################################################################
#
# If this CIF has been generated from an entry in the Cambridge 
# Structural Database, then it will include bibliographic, chemical, 
# crystal, experimental, refinement or atomic coordinate data resulting 
# from the CCDC's data processing and validation procedures.
#
#######################################################################

data_IVEXUE
_chemical_formula_moiety         'C33 H25 N1'
_chemical_name_systematic        
9-(2,2,2-triphenylethylidene)-9H-fluoren-2-amine
_symmetry_cell_setting           triclinic
_symmetry_space_group_name_H-M   'P -1'
_symmetry_Int_Tables_number      2
_space_group_name_Hall           '-P 1'
loop_
_symmetry_equiv_pos_site_id
_symmetry_equiv_pos_as_xyz
1 x,y,z
2 -x,-y,-z
_cell_length_a                   11.6640(6)
_cell_length_b                   13.0289(7)
_cell_length_c                   15.7573(8)
_cell_angle_alpha                102.2910(10)
_cell_angle_beta                 103.0270(10)
_cell_angle_gamma                91.2550(10)
_cell_volume                     2273.37
_exptl_crystal_colour            yellow
_cell_formula_units_Z            4
loop_
_atom_site_label
_atom_site_type_symbol
_atom_site_fract_x
_atom_site_fract_y
_atom_site_fract_z
N1 N 0.75410(11) 0.50224(10) -0.00796(8)
C1 C 0.60176(11) 0.49249(10) 0.17187(8)
C2 C 0.67672(12) 0.46874(10) 0.11464(8)
H1 H 0.7260 0.4121 0.1187
C3 C 0.67981(12) 0.52824(11) 0.05079(8)
C4 C 0.61158(13) 0.61462(11) 0.04831(9)
H2 H 0.6173 0.6574 0.0074
C5 C 0.53551(13) 0.63916(11) 0.10457(9)
H3 H 0.4887 0.6977 0.1018
C6 C 0.52869(12) 0.57701(10) 0.16494(8)
C7 C 0.45023(11) 0.57998(10) 0.22555(8)
C8 C 0.36180(12) 0.64680(10) 0.24076(9)
H4 H 0.3443 0.7011 0.2090
C9 C 0.29997(12) 0.63223(11) 0.30322(9)
H5 H 0.2400 0.6776 0.3150
C10 C 0.32469(12) 0.55174(11) 0.34912(9)
H6 H 0.2816 0.5431 0.3919
C11 C 0.41195(12) 0.48385(10) 0.33292(8)
H7 H 0.4282 0.4289 0.3640
C12 C 0.47477(11) 0.49794(10) 0.27059(8)
C13 C 0.57434(11) 0.44038(10) 0.24140(8)
C14 C 0.62033(11) 0.36303(10) 0.28022(8)
H8 H 0.5769 0.3453 0.3200
C15 C 0.72694(11) 0.29701(10) 0.27476(8)
C16 C 0.83261(11) 0.35994(10) 0.26194(8)
C17 C 0.86150(12) 0.46461(11) 0.30781(9)
H9 H 0.8146 0.4975 0.3464
C18 C 0.95762(13) 0.52113(11) 0.29786(10)
H10 H 0.9764 0.5921 0.3302
C19 C 1.02703(13) 0.47521(12) 0.24115(10)
H11 H 1.0914 0.5149 0.2331
C20 C 1.00110(12) 0.37111(11) 0.19676(9)
H12 H 1.0486 0.3385 0.1585
C21 C 0.90547(12) 0.31378(10) 0.20781(8)
H13 H 0.8896 0.2417 0.1778
C22 C 0.76106(12) 0.26145(10) 0.36450(8)
C23 C 0.87113(12) 0.28679(11) 0.42347(9)
H14 H 0.9287 0.3294 0.4100
C24 C 0.89785(13) 0.25001(12) 0.50255(9)
H15 H 0.9739 0.2668 0.5417
C25 C 0.81475(14) 0.18977(12) 0.52383(9)
H16 H 0.8325 0.1663 0.5781
C26 C 0.70412(13) 0.16350(12) 0.46492(9)
H17 H 0.6465 0.1215 0.4789
C27 C 0.67839(12) 0.19850(11) 0.38647(9)
H18 H 0.6031 0.1795 0.3466
C28 C 0.69455(11) 0.19757(10) 0.19777(8)
C29 C 0.75557(12) 0.10707(11) 0.20372(9)
H19 H 0.8072 0.1028 0.2587
C30 C 0.74131(14) 0.02317(11) 0.12986(10)
H20 H 0.7840 -0.0375 0.1345
C31 C 0.66516(14) 0.02774(12) 0.04962(10)
H21 H 0.6572 -0.0285 -0.0013
C32 C 0.60080(13) 0.11515(12) 0.04432(9)
H22 H 0.5463 0.1176 -0.0099
C33 C 0.61546(12) 0.19969(11) 0.11799(8)
H23 H 0.5709 0.2592 0.1135
H24 H 0.7386(16) 0.5321(15) -0.0549(12)
H25 H 0.7649(17) 0.4266(16) -0.0231(12)
N2 N 0.19920(12) -0.25995(10) 0.02250(8)
C34 C 0.07021(11) -0.13794(10) 0.21008(8)
C35 C 0.14135(11) -0.15089(10) 0.14936(8)
H26 H 0.1989 -0.0968 0.1521
C36 C 0.12715(12) -0.24468(10) 0.08414(8)
C37 C 0.04376(12) -0.32499(10) 0.08105(9)
H27 H 0.0360 -0.3889 0.0372
C38 C -0.02751(12) -0.31238(10) 0.14112(9)
H28 H -0.0847 -0.3668 0.1384
C39 C -0.01462(11) -0.21929(10) 0.20549(8)
C40 C -0.08036(11) -0.18494(10) 0.27427(8)
C41 C -0.16839(12) -0.23792(11) 0.29879(9)
H29 H -0.1992 -0.3068 0.2665
C42 C -0.21000(13) -0.18733(12) 0.37178(10)
H30 H -0.2678 -0.2231 0.3910
C43 C -0.16825(13) -0.08544(12) 0.41665(9)
H31 H -0.1984 -0.0520 0.4659
C44 C -0.08251(12) -0.03101(11) 0.39061(9)
H32 H -0.0555 0.0394 0.4209
C45 C -0.03752(11) -0.08140(10) 0.31998(8)
C46 C 0.05953(11) -0.04638(10) 0.28208(8)
C47 C 0.11600(11) 0.05006(10) 0.31476(8)
H33 H 0.0817 0.0936 0.3574
C48 C 0.22388(11) 0.10466(9) 0.29782(8)
C49 C 0.32490(11) 0.03021(9) 0.29481(8)
C50 C 0.39464(12) 0.02357(10) 0.23279(9)
H34 H 0.3794 0.0655 0.1895
C51 C 0.48602(13) -0.04331(12) 0.23321(10)
H35 H 0.5322 -0.0470 0.1902
C52 C 0.50982(13) -0.10416(12) 0.29562(10)
H36 H 0.5716 -0.1504 0.2954
C53 C 0.44308(14) -0.09753(12) 0.35868(10)
H37 H 0.4600 -0.1386 0.4025
C54 C 0.35136(12) -0.03103(10) 0.35817(9)
H38 H 0.3061 -0.0273 0.4017
C55 C 0.19563(11) 0.14603(10) 0.21130(8)
C56 C 0.27317(13) 0.22466(11) 0.20212(9)
H39 H 0.3347 0.2576 0.2519
C57 C 0.26149(14) 0.25508(12) 0.12172(9)
H40 H 0.3154 0.3079 0.1165
C58 C 0.17144(15) 0.20875(12) 0.04884(9)
H41 H 0.1648 0.2278 -0.0069
C59 C 0.09109(15) 0.13421(11) 0.05805(9)
H42 H 0.0274 0.1042 0.0090
C60 C 0.10304(12) 0.10286(10) 0.13888(8)
H43 H 0.0475 0.0517 0.1443
C61 C 0.26280(11) 0.20168(9) 0.37718(8)
C62 C 0.37392(11) 0.21832(10) 0.43492(8)
H44 H 0.4302 0.1675 0.4277
C63 C 0.40408(12) 0.30883(10) 0.50360(8)
H45 H 0.4807 0.3193 0.5423
C64 C 0.32303(12) 0.38314(10) 0.51548(8)
H46 H 0.3433 0.4443 0.5625
C65 C 0.21177(13) 0.36765(10) 0.45810(9)
H47 H 0.1557 0.4185 0.4658
C66 C 0.18192(12) 0.27821(10) 0.38946(8)
H48 H 0.1057 0.2687 0.3503
H49 H 0.2418(16) -0.1993(15) 0.0208(11)
H50 H 0.1563(17) -0.2921(15) -0.0384(13)
loop_
_geom_bond_atom_site_label_1
_geom_bond_atom_site_label_2
_geom_bond_site_symmetry_1
_geom_bond_site_symmetry_2
N1 C3 1_555 1_555
C1 C2 1_555 1_555
C2 H1 1_555 1_555
C3 C2 1_555 1_555
C4 C3 1_555 1_555
H2 C4 1_555 1_555
C5 C4 1_555 1_555
H3 C5 1_555 1_555
C6 C1 1_555 1_555
C7 C6 1_555 1_555
C8 C7 1_555 1_555
H4 C8 1_555 1_555
C9 C8 1_555 1_555
H5 C9 1_555 1_555
C10 C9 1_555 1_555
H6 C10 1_555 1_555
C11 C10 1_555 1_555
H7 C11 1_555 1_555
C12 C7 1_555 1_555
C13 C1 1_555 1_555
C14 C13 1_555 1_555
H8 C14 1_555 1_555
C15 C14 1_555 1_555
C16 C15 1_555 1_555
C17 C16 1_555 1_555
H9 C17 1_555 1_555
C18 C17 1_555 1_555
H10 C18 1_555 1_555
C19 C18 1_555 1_555
H11 C19 1_555 1_555
C20 C19 1_555 1_555
H12 C20 1_555 1_555
C21 C16 1_555 1_555
H13 C21 1_555 1_555
C22 C15 1_555 1_555
C23 C22 1_555 1_555
H14 C23 1_555 1_555
C24 C23 1_555 1_555
H15 C24 1_555 1_555
C25 C24 1_555 1_555
H16 C25 1_555 1_555
C26 C25 1_555 1_555
H17 C26 1_555 1_555
C27 C22 1_555 1_555
H18 C27 1_555 1_555
C28 C15 1_555 1_555
C29 C28 1_555 1_555
H19 C29 1_555 1_555
C30 C29 1_555 1_555
H20 C30 1_555 1_555
C31 C30 1_555 1_555
H21 C31 1_555 1_555
C32 C31 1_555 1_555
H22 C32 1_555 1_555
C33 C28 1_555 1_555
H23 C33 1_555 1_555
H24 N1 1_555 1_555
H25 N1 1_555 1_555
N2 C36 1_555 1_555
C34 C35 1_555 1_555
C35 H26 1_555 1_555
C36 C35 1_555 1_555
C37 C36 1_555 1_555
H27 C37 1_555 1_555
C38 C37 1_555 1_555
H28 C38 1_555 1_555
C39 C34 1_555 1_555
C40 C39 1_555 1_555
C41 C40 1_555 1_555
H29 C41 1_555 1_555
C42 C41 1_555 1_555
H30 C42 1_555 1_555
C43 C42 1_555 1_555
H31 C43 1_555 1_555
C44 C43 1_555 1_555
H32 C44 1_555 1_555
C45 C40 1_555 1_555
C46 C34 1_555 1_555
C47 C46 1_555 1_555
H33 C47 1_555 1_555
C48 C47 1_555 1_555
C49 C48 1_555 1_555
C50 C49 1_555 1_555
H34 C50 1_555 1_555
C51 C50 1_555 1_555
H35 C51 1_555 1_555
C52 C51 1_555 1_555
H36 C52 1_555 1_555
C53 C52 1_555 1_555
H37 C53 1_555 1_555
C54 C49 1_555 1_555
H38 C54 1_555 1_555
C55 C48 1_555 1_555
C56 C55 1_555 1_555
H39 C56 1_555 1_555
C57 C56 1_555 1_555
H40 C57 1_555 1_555
C58 C57 1_555 1_555
H41 C58 1_555 1_555
C59 C58 1_555 1_555
H42 C59 1_555 1_555
C60 C55 1_555 1_555
H43 C60 1_555 1_555
C61 C48 1_555 1_555
C62 C61 1_555 1_555
H44 C62 1_555 1_555
C63 C62 1_555 1_555
H45 C63 1_555 1_555
C64 C63 1_555 1_555
H46 C64 1_555 1_555
C65 C64 1_555 1_555
H47 C65 1_555 1_555
C66 C61 1_555 1_555
H48 C66 1_555 1_555
H49 N2 1_555 1_555
H50 N2 1_555 1_555
C5 C6 1_555 1_555
C11 C12 1_555 1_555
C12 C13 1_555 1_555
C20 C21 1_555 1_555
C26 C27 1_555 1_555
C32 C33 1_555 1_555
C38 C39 1_555 1_555
C44 C45 1_555 1_555
C45 C46 1_555 1_555
C53 C54 1_555 1_555
C59 C60 1_555 1_555
C65 C66 1_555 1_555

#END
