
#######################################################################
#
#                 Cambridge Crystallographic Data Centre
#                                CCDC 
#
#######################################################################
#
# If this CIF has been generated from an entry in the Cambridge 
# Structural Database, then it will include bibliographic, chemical, 
# crystal, experimental, refinement or atomic coordinate data resulting 
# from the CCDC's data processing and validation procedures.
#
#######################################################################

data_IVEXAI
_chemical_formula_moiety         'C50 H45 B1 N6,1.5(C1 H2 Cl2)'
_chemical_name_systematic        
"Dimesityl-(p-(3,5-bis(2,2'-dipyridylamino)phenyl)phenyl)borane dichloromethane solvate"
_symmetry_cell_setting           triclinic
_symmetry_space_group_name_H-M   'P -1'
_symmetry_Int_Tables_number      2
_space_group_name_Hall           '-P 1'
loop_
_symmetry_equiv_pos_site_id
_symmetry_equiv_pos_as_xyz
1 x,y,z
2 -x,-y,-z
_cell_length_a                   8.234(2)
_cell_length_b                   15.670(4)
_cell_length_c                   20.651(5)
_cell_angle_alpha                67.439(15)
_cell_angle_beta                 81.303(19)
_cell_angle_gamma                88.36(2)
_cell_volume                     2431.07
_exptl_crystal_colour            colorless
_chemical_melting_point          141-143deg.C
_cell_formula_units_Z            2
_exptl_crystal_recrystallization_method dichloromethane/hexane
_exptl_crystal_preparation       luminescent
loop_
_atom_site_label
_atom_site_type_symbol
_atom_site_fract_x
_atom_site_fract_y
_atom_site_fract_z
B1 B 0.7945(10) 0.7720(7) -0.4192(4)
N1 N 0.1394(9) 0.2669(5) -0.1457(3)
N2 N 0.3913(8) 0.3642(4) 0.0103(3)
N3 N 0.0924(8) 0.1024(6) -0.0911(4)
N4 N -0.0628(10) 0.3646(7) -0.1836(4)
N5 N 0.2190(7) 0.3127(5) 0.1177(3)
N6 N 0.5782(8) 0.3241(5) 0.0883(4)
C1 C 0.7677(11) 0.7979(6) -0.5009(4)
C2 C 0.9036(10) 0.7988(6) -0.5527(4)
C3 C 0.8617(12) 0.8207(7) -0.6189(5)
H1 H 0.9466 0.8195 -0.6538
C4 C 0.7116(16) 0.8439(9) -0.6404(6)
C5 C 0.5978(10) 0.8574(7) -0.5944(5)
H2 H 0.5030 0.8864 -0.6100
C6 C 0.6116(10) 0.8302(7) -0.5224(5)
C7 C 1.0708(8) 0.7699(6) -0.5366(4)
H3 H 1.1403 0.7727 -0.5791
H4 H 1.0650 0.7078 -0.5019
H5 H 1.1153 0.8106 -0.5183
C8 C 0.6959(13) 0.8690(9) -0.7184(4)
H6 H 0.5852 0.8860 -0.7256
H7 H 0.7228 0.8168 -0.7309
H8 H 0.7699 0.9201 -0.7476
C9 C 0.4720(8) 0.8482(6) -0.4726(4)
H9 H 0.5017 0.8285 -0.4260
H10 H 0.3747 0.8145 -0.4708
H11 H 0.4513 0.9132 -0.4896
C10 C 0.9329(9) 0.7998(6) -0.3915(4)
C11 C 0.9497(11) 0.8943(7) -0.3953(4)
C12 C 1.0669(12) 0.9174(7) -0.3664(5)
H12 H 1.0748 0.9780 -0.3695
C13 C 1.1763(11) 0.8545(11) -0.3320(4)
C14 C 1.1705(12) 0.7673(7) -0.3313(5)
H13 H 1.2507 0.7263 -0.3121
C15 C 1.0526(10) 0.7385(7) -0.3575(4)
C16 C 1.0535(10) 0.6375(6) -0.3510(4)
H14 H 1.1394 0.6060 -0.3251
H15 H 1.0722 0.6358 -0.3975
H16 H 0.9494 0.6076 -0.3263
C17 C 1.3100(11) 0.8889(7) -0.3035(4)
H17 H 1.3783 0.8386 -0.2814
H18 H 1.2601 0.9130 -0.2691
H19 H 1.3757 0.9368 -0.3419
C18 C 0.8227(9) 0.9651(6) -0.4299(4)
H20 H 0.7482 0.9367 -0.4478
H21 H 0.8787 1.0172 -0.4682
H22 H 0.7622 0.9853 -0.3951
C19 C 0.6664(8) 0.6961(6) -0.3593(4)
C20 C 0.6437(8) 0.6985(6) -0.2914(3)
H23 H 0.6918 0.7451 -0.2826
C21 C 0.5457(8) 0.6279(6) -0.2376(3)
H24 H 0.5300 0.6279 -0.1920
C22 C 0.4744(8) 0.5613(6) -0.2482(4)
C23 C 0.4967(8) 0.5550(5) -0.3162(4)
H25 H 0.4560 0.5048 -0.3230
C24 C 0.5848(8) 0.6298(6) -0.3724(4)
H26 H 0.5879 0.6345 -0.4188
C25 C 0.3918(8) 0.4756(6) -0.1853(5)
C26 C 0.4230(7) 0.4601(5) -0.1173(4)
H27 H 0.4908 0.5014 -0.1105
C27 C 0.3534(9) 0.3834(6) -0.0599(4)
C28 C 0.2539(10) 0.3235(7) -0.0705(4)
H28 H 0.2040 0.2736 -0.0314
C29 C 0.2245(9) 0.3342(6) -0.1376(5)
C30 C 0.2918(8) 0.4151(6) -0.1933(4)
H29 H 0.2659 0.4276 -0.2383
C31 C 0.2054(11) 0.1733(7) -0.1199(4)
C32 C 0.3686(10) 0.1734(7) -0.1273(4)
H30 H 0.4326 0.2278 -0.1480
C33 C 0.4362(11) 0.0886(9) -0.1026(4)
H31 H 0.5497 0.0832 -0.1066
C34 C 0.3299(13) 0.0081(7) -0.0704(5)
H32 H 0.3731 -0.0505 -0.0528
C35 C 0.1696(14) 0.0181(7) -0.0660(6)
H33 H 0.1027 -0.0351 -0.0445
C36 C -0.0005(12) 0.2846(8) -0.1788(5)
C37 C -0.0743(13) 0.2290(8) -0.2043(5)
H34 H -0.0308 0.1715 -0.1984
C38 C -0.2125(12) 0.2553(10) -0.2390(6)
H35 H -0.2611 0.2174 -0.2565
C39 C -0.2715(15) 0.3411(11) -0.2454(7)
H36 H -0.3619 0.3633 -0.2683
C40 C -0.1926(16) 0.3951(8) -0.2165(7)
H37 H -0.2326 0.4529 -0.2208
C41 C 0.2678(9) 0.3855(7) 0.0580(4)
C42 C 0.2059(10) 0.4698(6) 0.0428(4)
H38 H 0.2476 0.5164 -0.0002
C43 C 0.0903(11) 0.4903(7) 0.0848(5)
H39 H 0.0486 0.5493 0.0728
C44 C 0.0323(11) 0.4161(9) 0.1504(5)
H40 H -0.0479 0.4246 0.1841
C45 C 0.1008(10) 0.3317(7) 0.1614(4)
H41 H 0.0607 0.2830 0.2034
C46 C 0.5433(9) 0.3231(5) 0.0279(4)
C47 C 0.6284(11) 0.2832(5) -0.0132(4)
H42 H 0.5901 0.2787 -0.0519
C48 C 0.7805(11) 0.2490(6) 0.0073(5)
H43 H 0.8521 0.2286 -0.0228
C49 C 0.8258(10) 0.2444(6) 0.0667(5)
H44 H 0.9212 0.2156 0.0819
C50 C 0.7224(12) 0.2852(6) 0.1059(4)
H45 H 0.7548 0.2858 0.1470
C52 C 0.338(6) 0.401(3) -0.426(2)
Cl5 Cl 0.126(2) 0.4267(16) -0.3864(11)
Cl7 Cl 0.475(3) 0.391(2) -0.4148(14)
C51? C 0.6672(16) -0.1134(11) -0.1617(8)
Cl1? Cl 0.8373(13) -0.0556(9) -0.1320(6)
Cl2? Cl 0.7541(6) -0.0869(4) -0.0927(3)
Cl3? Cl 0.8175(18) -0.0377(11) -0.2331(8)
Cl4? Cl 0.6941(9) -0.0226(5) -0.2470(4)
Cl6? Cl 0.080(5) 0.485(4) -0.488(3)
Cl8? Cl 0.224(4) 0.3999(19) -0.3673(14)
C53? C 0.196(5) 0.401(3) -0.470(2)
Cl9? Cl 0.393(4) 0.513(3) -0.4864(19)
Cl10? Cl 0.257(5) 0.471(3) -0.443(2)
loop_
_geom_bond_atom_site_label_1
_geom_bond_atom_site_label_2
_geom_bond_site_symmetry_1
_geom_bond_site_symmetry_2
B1 C1 1_555 1_555
N1 C29 1_555 1_555
N2 C27 1_555 1_555
N3 C31 1_555 1_555
N4 C36 1_555 1_555
N5 C41 1_555 1_555
N6 C46 1_555 1_555
C1 C2 1_555 1_555
C2 C3 1_555 1_555
C3 H1 1_555 1_555
C4 C3 1_555 1_555
C5 C4 1_555 1_555
H2 C5 1_555 1_555
C6 C1 1_555 1_555
C7 C2 1_555 1_555
H3 C7 1_555 1_555
H4 C7 1_555 1_555
H5 C7 1_555 1_555
C8 C4 1_555 1_555
H6 C8 1_555 1_555
H7 C8 1_555 1_555
H8 C8 1_555 1_555
C9 C6 1_555 1_555
H9 C9 1_555 1_555
H10 C9 1_555 1_555
H11 C9 1_555 1_555
C10 B1 1_555 1_555
C11 C10 1_555 1_555
C12 C11 1_555 1_555
H12 C12 1_555 1_555
C13 C12 1_555 1_555
C14 C13 1_555 1_555
H13 C14 1_555 1_555
C15 C10 1_555 1_555
C16 C15 1_555 1_555
H14 C16 1_555 1_555
H15 C16 1_555 1_555
H16 C16 1_555 1_555
C17 C13 1_555 1_555
H17 C17 1_555 1_555
H18 C17 1_555 1_555
H19 C17 1_555 1_555
C18 C11 1_555 1_555
H20 C18 1_555 1_555
H21 C18 1_555 1_555
H22 C18 1_555 1_555
C19 B1 1_555 1_555
C20 C19 1_555 1_555
H23 C20 1_555 1_555
C21 C20 1_555 1_555
H24 C21 1_555 1_555
C22 C21 1_555 1_555
C23 C22 1_555 1_555
H25 C23 1_555 1_555
C24 C19 1_555 1_555
H26 C24 1_555 1_555
C25 C22 1_555 1_555
C26 C25 1_555 1_555
H27 C26 1_555 1_555
C27 C26 1_555 1_555
C28 C27 1_555 1_555
H28 C28 1_555 1_555
C29 C28 1_555 1_555
C30 C25 1_555 1_555
H29 C30 1_555 1_555
C31 N1 1_555 1_555
C32 C31 1_555 1_555
H30 C32 1_555 1_555
C33 C32 1_555 1_555
H31 C33 1_555 1_555
C34 C33 1_555 1_555
H32 C34 1_555 1_555
C35 N3 1_555 1_555
H33 C35 1_555 1_555
C36 N1 1_555 1_555
C37 C36 1_555 1_555
H34 C37 1_555 1_555
C38 C37 1_555 1_555
H35 C38 1_555 1_555
C39 C38 1_555 1_555
H36 C39 1_555 1_555
C40 N4 1_555 1_555
H37 C40 1_555 1_555
C41 N2 1_555 1_555
C42 C41 1_555 1_555
H38 C42 1_555 1_555
C43 C42 1_555 1_555
H39 C43 1_555 1_555
C44 C43 1_555 1_555
H40 C44 1_555 1_555
C45 N5 1_555 1_555
H41 C45 1_555 1_555
C46 N2 1_555 1_555
C47 C46 1_555 1_555
H42 C47 1_555 1_555
C48 C47 1_555 1_555
H43 C48 1_555 1_555
C49 C48 1_555 1_555
H44 C49 1_555 1_555
C50 N6 1_555 1_555
H45 C50 1_555 1_555
C52 Cl5 1_555 1_555
Cl7 C52 1_555 1_555
C5 C6 1_555 1_555
C14 C15 1_555 1_555
C23 C24 1_555 1_555
C29 C30 1_555 1_555
C34 C35 1_555 1_555
C39 C40 1_555 1_555
C44 C45 1_555 1_555
C49 C50 1_555 1_555

#END
