
#######################################################################
#
#                 Cambridge Crystallographic Data Centre
#                                CCDC 
#
#######################################################################
#
# If this CIF has been generated from an entry in the Cambridge 
# Structural Database, then it will include bibliographic, chemical, 
# crystal, experimental, refinement or atomic coordinate data resulting 
# from the CCDC's data processing and validation procedures.
#
#######################################################################

data_IVEYAL
_chemical_formula_moiety         'C39 H31 N1'
_chemical_name_systematic        
2,5-dimethyl-1-(9-(2,2,2-triphenylethylidene)-9H-fluoren-2-yl)-1H-pyrrole
_symmetry_cell_setting           triclinic
_symmetry_space_group_name_H-M   'P -1'
_symmetry_Int_Tables_number      2
_space_group_name_Hall           '-P 1'
loop_
_symmetry_equiv_pos_site_id
_symmetry_equiv_pos_as_xyz
1 x,y,z
2 -x,-y,-z
_cell_length_a                   10.9097(6)
_cell_length_b                   11.9940(7)
_cell_length_c                   12.5573(7)
_cell_angle_alpha                71.9170(10)
_cell_angle_beta                 72.3280(10)
_cell_angle_gamma                68.7320(10)
_cell_volume                     1421.37
_exptl_crystal_colour            colorless
_cell_formula_units_Z            2
loop_
_atom_site_label
_atom_site_type_symbol
_atom_site_fract_x
_atom_site_fract_y
_atom_site_fract_z
C1 C 0.69195(9) 0.66455(8) 0.25292(7)
C2 C 0.69509(9) 0.69984(8) 0.34741(7)
H1 H 0.6223 0.7627 0.3775
C3 C 0.80741(9) 0.64094(8) 0.39719(8)
C4 C 0.91659(9) 0.55041(9) 0.35258(8)
H2 H 0.9927 0.5130 0.3868
C5 C 0.91405(9) 0.51489(8) 0.25806(8)
H3 H 0.9882 0.4537 0.2268
C6 C 0.80120(9) 0.57040(8) 0.21014(7)
C7 C 0.76873(9) 0.54357(8) 0.11750(7)
C8 C 0.84224(10) 0.45872(9) 0.04986(8)
H4 H 0.9298 0.4071 0.0590
C9 C 0.78476(11) 0.45100(9) -0.03160(9)
H5 H 0.8331 0.3930 -0.0781
C10 C 0.65692(11) 0.52775(9) -0.04531(8)
H6 H 0.6188 0.5210 -0.1009
C11 C 0.58377(10) 0.61441(9) 0.02122(8)
H7 H 0.4973 0.6675 0.0104
C12 C 0.63999(9) 0.62161(8) 0.10360(7)
C13 C 0.58714(9) 0.70399(8) 0.18520(7)
C14 C 0.46875(9) 0.79348(8) 0.18498(8)
H8 H 0.4203 0.7943 0.1332
C15 C 0.39811(9) 0.89395(8) 0.25290(7)
C16 C 0.28098(9) 0.98372(8) 0.19452(7)
C17 C 0.26871(9) 1.10731(8) 0.14656(8)
H9 H 0.3348 1.1407 0.1480
C18 C 0.15974(10) 1.18300(9) 0.09614(9)
H10 H 0.1526 1.2674 0.0635
C19 C 0.06230(10) 1.13634(10) 0.09322(9)
H11 H -0.0115 1.1882 0.0588
C20 C 0.07326(10) 1.01267(10) 0.14113(9)
H12 H 0.0066 0.9798 0.1399
C21 C 0.18188(9) 0.93748(9) 0.19068(8)
H13 H 0.1891 0.8530 0.2226
C22 C 0.49648(9) 0.96319(8) 0.24609(8)
C23 C 0.58885(10) 0.98627(9) 0.14288(8)
H14 H 0.5932 0.9553 0.0804
C24 C 0.67420(11) 1.05380(11) 0.13041(9)
H15 H 0.7363 1.0683 0.0597
C25 C 0.66948(11) 1.10032(11) 0.22052(10)
H16 H 0.7282 1.1462 0.2120
C26 C 0.57803(11) 1.07883(10) 0.32298(9)
H17 H 0.5737 1.1105 0.3850
C27 C 0.49230(10) 1.01108(9) 0.33566(8)
H18 H 0.4300 0.9973 0.4064
C28 C 0.33299(9) 0.84154(8) 0.37796(7)
C29 C 0.36483(9) 0.71619(8) 0.42857(8)
H19 H 0.4302 0.6594 0.3859
C30 C 0.30194(10) 0.67303(9) 0.54104(9)
H20 H 0.3243 0.5873 0.5737
C31 C 0.20715(10) 0.75419(10) 0.60543(8)
H21 H 0.1657 0.7247 0.6824
C32 C 0.17351(10) 0.87943(9) 0.55596(8)
H22 H 0.1086 0.9358 0.5993
C33 C 0.23449(9) 0.92247(9) 0.44329(8)
H23 H 0.2091 1.0080 0.4100
N1 N 0.80957(8) 0.67295(7) 0.49689(7)
C34 C 0.89600(9) 0.73153(9) 0.50133(8)
C35 C 0.86683(10) 0.74544(9) 0.61137(8)
H24 H 0.9100 0.7829 0.6395
C36 C 0.76084(10) 0.69402(9) 0.67587(8)
H25 H 0.7207 0.6909 0.7549
C37 C 0.72646(10) 0.64972(9) 0.60425(8)
C38 C 0.62478(12) 0.58442(12) 0.62771(9)
H26 H 0.5768 0.5774 0.7082
H27 H 0.6703 0.5022 0.6124
H28 H 0.5604 0.6307 0.5780
C39 C 0.99660(12) 0.76929(12) 0.39901(10)
H29 H 1.0474 0.8089 0.4200
H30 H 0.9502 0.8271 0.3389
H31 H 1.0586 0.6967 0.3707
loop_
_geom_bond_atom_site_label_1
_geom_bond_atom_site_label_2
_geom_bond_site_symmetry_1
_geom_bond_site_symmetry_2
C1 C2 1_555 1_555
C2 H1 1_555 1_555
C3 C2 1_555 1_555
C4 C3 1_555 1_555
H2 C4 1_555 1_555
C5 C4 1_555 1_555
H3 C5 1_555 1_555
C6 C1 1_555 1_555
C7 C6 1_555 1_555
C8 C7 1_555 1_555
H4 C8 1_555 1_555
C9 C8 1_555 1_555
H5 C9 1_555 1_555
C10 C9 1_555 1_555
H6 C10 1_555 1_555
C11 C10 1_555 1_555
H7 C11 1_555 1_555
C12 C7 1_555 1_555
C13 C1 1_555 1_555
C14 C13 1_555 1_555
H8 C14 1_555 1_555
C15 C14 1_555 1_555
C16 C15 1_555 1_555
C17 C16 1_555 1_555
H9 C17 1_555 1_555
C18 C17 1_555 1_555
H10 C18 1_555 1_555
C19 C18 1_555 1_555
H11 C19 1_555 1_555
C20 C19 1_555 1_555
H12 C20 1_555 1_555
C21 C16 1_555 1_555
H13 C21 1_555 1_555
C22 C15 1_555 1_555
C23 C22 1_555 1_555
H14 C23 1_555 1_555
C24 C23 1_555 1_555
H15 C24 1_555 1_555
C25 C24 1_555 1_555
H16 C25 1_555 1_555
C26 C25 1_555 1_555
H17 C26 1_555 1_555
C27 C22 1_555 1_555
H18 C27 1_555 1_555
C28 C15 1_555 1_555
C29 C28 1_555 1_555
H19 C29 1_555 1_555
C30 C29 1_555 1_555
H20 C30 1_555 1_555
C31 C30 1_555 1_555
H21 C31 1_555 1_555
C32 C31 1_555 1_555
H22 C32 1_555 1_555
C33 C28 1_555 1_555
H23 C33 1_555 1_555
N1 C3 1_555 1_555
C34 N1 1_555 1_555
C35 C34 1_555 1_555
H24 C35 1_555 1_555
C36 C35 1_555 1_555
H25 C36 1_555 1_555
C37 N1 1_555 1_555
C38 C37 1_555 1_555
H26 C38 1_555 1_555
H27 C38 1_555 1_555
H28 C38 1_555 1_555
C39 C34 1_555 1_555
H29 C39 1_555 1_555
H30 C39 1_555 1_555
H31 C39 1_555 1_555
C5 C6 1_555 1_555
C11 C12 1_555 1_555
C12 C13 1_555 1_555
C20 C21 1_555 1_555
C26 C27 1_555 1_555
C32 C33 1_555 1_555
C36 C37 1_555 1_555

#END
