
#######################################################################
#
#                 Cambridge Crystallographic Data Centre
#                                CCDC 
#
#######################################################################
#
# If this CIF has been generated from an entry in the Cambridge 
# Structural Database, then it will include bibliographic, chemical, 
# crystal, experimental, refinement or atomic coordinate data resulting 
# from the CCDC's data processing and validation procedures.
#
#######################################################################

data_IVIDEW
_chemical_name_common            'Sodium naproxen monohydrate'
_chemical_formula_moiety         'C14 H13 O3 1-,Na1 1+,H2 O1'
_chemical_name_systematic        
'Sodium 2-(6-methoxy-2-naphthyl)propionate monohydrate'
_chemical_properties_biological  'antiinflammatory agent'
_symmetry_cell_setting           monoclinic
_symmetry_space_group_name_H-M   'P 21'
_symmetry_Int_Tables_number      4
_space_group_name_Hall           'P 2yb'
loop_
_symmetry_equiv_pos_site_id
_symmetry_equiv_pos_as_xyz
1 x,y,z
2 -x,1/2+y,-z
_cell_length_a                   21.177(6)
_cell_length_b                   5.785(2)
_cell_length_c                   5.443(2)
_cell_angle_alpha                90
_cell_angle_beta                 91.41(3)
_cell_angle_gamma                90
_cell_volume                     666.614
_exptl_crystal_colour            colorless
_exptl_crystal_description       prism
_cell_formula_units_Z            2
_exptl_crystal_recrystallization_method methanol
loop_
_atom_site_label
_atom_site_type_symbol
_atom_site_fract_x
_atom_site_fract_y
_atom_site_fract_z
C1 C 0.1466(2) -0.0619(11) 0.5517(10)
C2 C 0.1936(2) -0.1057(9) 0.3759(9)
C3 C 0.2444(2) 0.0473(10) 0.3366(9)
C4 C 0.2891(2) 0.0014(10) 0.1690(9)
C5 C 0.2877(2) -0.2051(9) 0.0274(8)
C6 C 0.2379(2) -0.3539(9) 0.0595(9)
C7 C 0.1905(2) -0.3090(11) 0.2289(8)
C8 C 0.1391(2) -0.4641(11) 0.2658(10)
C9 C 0.0941(2) -0.4186(11) 0.4351(10)
C10 C 0.0984(2) -0.2150(10) 0.5818(9)
C11 C 0.3399(2) -0.2487(9) -0.1537(7)
C12 C 0.4023(2) -0.2897(11) -0.0064(6)
C13 C 0.3271(3) -0.4451(12) -0.3343(10)
C14 C 0.0535(3) 0.0024(15) 0.9051(13)
O1 O 0.4343(1) -0.1102(6) 0.0528(6)
O2 O 0.4192(2) -0.4883(7) 0.0461(6)
O3 O 0.0506(2) -0.1918(8) 0.7433(7)
H1 H 0.151(3) 0.069(12) 0.653(10)
H2 H 0.245(2) 0.209(13) 0.442(8)
H3 H 0.325(2) 0.106(8) 0.130(7)
H4 H 0.236(3) -0.477(12) -0.033(9)
H5 H 0.140(3) -0.601(10) 0.166(10)
H6 H 0.053(2) -0.537(11) 0.472(9)
H7 H 0.350(2) -0.093(9) -0.267(9)
H8 H 0.364(2) -0.464(8) -0.451(7)
H9 H 0.326(2) -0.599(10) -0.260(9)
H10 H 0.286(3) -0.415(11) -0.414(9)
H11 H 0.014(3) -0.078(13) 1.052(12)
H12 H 0.096(3) -0.017(14) 1.017(11)
H13 H 0.048(4) 0.130(19) 0.824(15)
Na1 Na 0.4681(1) 0.2064(5) -0.1529(5)
O4 O 0.4527(2) 0.2013(9) -0.5677(5)
loop_
_geom_bond_atom_site_label_1
_geom_bond_atom_site_label_2
_geom_bond_site_symmetry_1
_geom_bond_site_symmetry_2
C1 C2 1_555 1_555
C2 C3 1_555 1_555
C3 C4 1_555 1_555
C4 C5 1_555 1_555
C5 C6 1_555 1_555
C6 C7 1_555 1_555
C7 C2 1_555 1_555
C8 C7 1_555 1_555
C9 C8 1_555 1_555
C10 C1 1_555 1_555
C11 C5 1_555 1_555
C12 C11 1_555 1_555
C13 C11 1_555 1_555
C14 O3 1_555 1_555
O1 C12 1_555 1_555
O2 C12 1_555 1_555
O3 C10 1_555 1_555
H1 C1 1_555 1_555
H2 C3 1_555 1_555
H3 C4 1_555 1_555
H4 C6 1_555 1_555
H5 C8 1_555 1_555
H6 C9 1_555 1_555
H7 C11 1_555 1_555
H8 C13 1_555 1_555
H9 C13 1_555 1_555
H10 C13 1_555 1_555
H11 C14 1_555 1_555
H12 C14 1_555 1_555
H13 C14 1_555 1_555
C9 C10 1_555 1_555

#END
