
#######################################################################
#
#                 Cambridge Crystallographic Data Centre
#                                CCDC 
#
#######################################################################
#
# If this CIF has been generated from an entry in the Cambridge 
# Structural Database, then it will include bibliographic, chemical, 
# crystal, experimental, refinement or atomic coordinate data resulting 
# from the CCDC's data processing and validation procedures.
#
#######################################################################

data_IVIFOK
_chemical_formula_moiety         'C18 H19 Cl2 N1 O2'
_chemical_name_systematic        
'ethyl 4-(4-chlorophenyl)-2-((4-chlorophenyl)amino)butanoate'
_symmetry_cell_setting           monoclinic
_symmetry_space_group_name_H-M   'P 21/c'
_symmetry_Int_Tables_number      14
_space_group_name_Hall           '-P 2ybc'
loop_
_symmetry_equiv_pos_site_id
_symmetry_equiv_pos_as_xyz
1 x,y,z
2 -x,1/2+y,1/2-z
3 -x,-y,-z
4 x,1/2-y,1/2+z
_cell_length_a                   9.8752(5)
_cell_length_b                   16.6974(6)
_cell_length_c                   11.4752(5)
_cell_angle_alpha                90
_cell_angle_beta                 103.005(5)
_cell_angle_gamma                90
_cell_volume                     1843.61
_exptl_crystal_colour            colorless
_exptl_crystal_description       plane
_cell_formula_units_Z            4
loop_
_atom_site_label
_atom_site_type_symbol
_atom_site_fract_x
_atom_site_fract_y
_atom_site_fract_z
Cl1 Cl 0.33368(19) 0.13207(7) 0.41295(10)
Cl2 Cl 0.94252(15) 0.08924(13) 1.69039(12)
O1 O 0.2749(3) 0.02659(14) 0.9796(2)
O2 O 0.1966(3) 0.14610(18) 1.0210(3)
N1 N 0.5147(3) 0.11057(16) 0.9389(3)
H1 H 0.5940 0.0888 0.9683
C1 C 0.3882(5) 0.12739(19) 0.5678(3)
C2 C 0.3097(5) 0.1628(2) 0.6376(3)
H2 H 0.2291 0.1904 0.6021
C3 C 0.3499(4) 0.15779(19) 0.7606(3)
H3 H 0.2955 0.1818 0.8074
C4 C 0.4710(3) 0.11719(16) 0.8159(3)
C5 C 0.5501(4) 0.08354(19) 0.7417(3)
H4 H 0.6326 0.0573 0.7760
C6 C 0.5096(5) 0.0882(2) 0.6203(4)
H5 H 0.5637 0.0649 0.5728
C7 C 0.4327(3) 0.13871(18) 1.0193(3)
H6 H 0.4166 0.1963 1.0070
C8 C 0.2927(4) 0.0962(2) 1.0022(3)
C9 C 0.0577(6) 0.1148(4) 1.0179(6)
H7 H -0.0117 0.1487 0.9679
H8 H 0.0488 0.0612 0.9846
C10 C 0.0368(7) 0.1133(6) 1.1362(6)
H9 H -0.0551 0.0940 1.1350
H10 H 0.0473 0.1664 1.1691
H11 H 0.1040 0.0784 1.1846
C11 C 0.5067(4) 0.1241(2) 1.1487(3)
H12 H 0.5232 0.0671 1.1605
H13 H 0.4463 0.1408 1.2002
C12 C 0.6448(4) 0.1681(2) 1.1865(4)
H14 H 0.7037 0.1539 1.1325
H15 H 0.6282 0.2253 1.1800
C13 C 0.7190(4) 0.1483(2) 1.3122(3)
C14 C 0.7416(5) 0.2057(2) 1.4016(4)
H16 H 0.7090 0.2575 1.3836
C15 C 0.8114(5) 0.1878(3) 1.5166(4)
H17 H 0.8278 0.2277 1.5746
C16 C 0.8563(4) 0.1119(3) 1.5455(4)
C17 C 0.8320(4) 0.0533(2) 1.4599(4)
H18 H 0.8612 0.0011 1.4799
C18 C 0.7645(4) 0.0713(2) 1.3446(4)
H19 H 0.7491 0.0310 1.2872
loop_
_geom_bond_atom_site_label_1
_geom_bond_atom_site_label_2
_geom_bond_site_symmetry_1
_geom_bond_site_symmetry_2
Cl1 C1 1_555 1_555
Cl2 C16 1_555 1_555
O1 C8 1_555 1_555
O2 C8 1_555 1_555
N1 H1 1_555 1_555
C1 C2 1_555 1_555
C2 H2 1_555 1_555
C3 C2 1_555 1_555
H3 C3 1_555 1_555
C4 N1 1_555 1_555
C5 C4 1_555 1_555
H4 C5 1_555 1_555
C6 C1 1_555 1_555
H5 C6 1_555 1_555
C7 N1 1_555 1_555
H6 C7 1_555 1_555
C8 C7 1_555 1_555
C9 O2 1_555 1_555
H7 C9 1_555 1_555
H8 C9 1_555 1_555
C10 C9 1_555 1_555
H9 C10 1_555 1_555
H10 C10 1_555 1_555
H11 C10 1_555 1_555
C11 C7 1_555 1_555
H12 C11 1_555 1_555
H13 C11 1_555 1_555
C12 C11 1_555 1_555
H14 C12 1_555 1_555
H15 C12 1_555 1_555
C13 C12 1_555 1_555
C14 C13 1_555 1_555
H16 C14 1_555 1_555
C15 C14 1_555 1_555
H17 C15 1_555 1_555
C16 C15 1_555 1_555
C17 C16 1_555 1_555
H18 C17 1_555 1_555
C18 C13 1_555 1_555
H19 C18 1_555 1_555
C3 C4 1_555 1_555
C5 C6 1_555 1_555
C17 C18 1_555 1_555

#END
