
#######################################################################
#
#                 Cambridge Crystallographic Data Centre
#                                CCDC 
#
#######################################################################
#
# If this CIF has been generated from an entry in the Cambridge 
# Structural Database, then it will include bibliographic, chemical, 
# crystal, experimental, refinement or atomic coordinate data resulting 
# from the CCDC's data processing and validation procedures.
#
#######################################################################

data_IVIGUP02
_chemical_formula_moiety         'C19 H14 N2 O2'
_chemical_name_systematic        
2-benzoyl-3-(4-methoxyphenyl)cyclopropane-1,1-dicarbonitrile
_symmetry_cell_setting           monoclinic
_symmetry_space_group_name_H-M   'C 2/c'
_symmetry_Int_Tables_number      15
_space_group_name_Hall           '-C 2yn'
loop_
_symmetry_equiv_pos_site_id
_symmetry_equiv_pos_as_xyz
1 x,y,z
2 -x,y,1/2-z
3 1/2+x,1/2+y,z
4 1/2-x,1/2+y,1/2-z
5 -x,-y,-z
6 x,-y,1/2+z
7 1/2-x,1/2-y,-z
8 1/2+x,1/2-y,1/2+z
_cell_length_a                   19.8907(8)
_cell_length_b                   12.0860(5)
_cell_length_c                   15.5260(7)
_cell_angle_alpha                90
_cell_angle_beta                 120.5880(10)
_cell_angle_gamma                90
_cell_volume                     3213.06
_exptl_crystal_colour            colorless
_exptl_crystal_description       block
_cell_formula_units_Z            8
loop_
_atom_site_label
_atom_site_type_symbol
_atom_site_fract_x
_atom_site_fract_y
_atom_site_fract_z
C1 C 0.12536(16) 0.46622(17) 0.13246(17)
C2 C 0.0798(2) 0.5313(2) 0.1555(2)
C3 C 0.0119(3) 0.4929(3) 0.1426(3)
C4 C -0.0117(2) 0.3895(3) 0.1082(3)
C5 C 0.03325(14) 0.32125(19) 0.0857(2)
C6 C 0.10155(10) 0.35982(13) 0.09677(12)
C7 C 0.14958(10) 0.29359(13) 0.06900(14)
C8 C 0.13583(10) 0.17085(13) 0.05529(13)
C9 C 0.19223(9) 0.10020(13) 0.04533(12)
C10 C 0.11153(9) 0.12321(12) -0.04863(13)
C11 C 0.10767(11) 0.19373(15) -0.12574(15)
C12 C 0.05336(10) 0.03694(14) -0.08464(13)
C13 C 0.21478(9) -0.01325(13) 0.08595(12)
C14 C 0.17542(11) -0.07426(14) 0.12244(14)
C15 C 0.19799(12) -0.18060(16) 0.15694(16)
C16 C 0.26002(10) -0.22877(14) 0.15505(14)
C17 C 0.30008(11) -0.16970(16) 0.12021(15)
C18 C 0.27735(10) -0.06263(16) 0.08619(14)
C19 C 0.33745(14) -0.39023(19) 0.18261(18)
H1 H 0.3252 -0.3885 0.1143
H2 H 0.3408 -0.4657 0.2038
H3 H 0.3866 -0.3540 0.2242
H4 H 0.1737(16) 0.485(2) 0.140(2)
H5 H 0.0933(18) 0.610(3) 0.178(3)
H6 H -0.0172(19) 0.540(2) 0.160(2)
H7 H -0.061(2) 0.355(3) 0.088(3)
H8 H 0.0155(12) 0.2539(17) 0.0579(16)
H9 H 0.1090(9) 0.1384(12) 0.0842(11)
H10 H 0.2308(9) 0.1426(13) 0.0423(12)
H11 H 0.1320(11) -0.0418(14) 0.1267(14)
H12 H 0.1698(12) -0.2197(17) 0.1826(16)
H13 H 0.3045(11) -0.0213(15) 0.0617(15)
H14 H 0.3446(13) -0.2021(16) 0.1176(16)
N1 N 0.10417(13) 0.24665(18) -0.18834(18)
N2 N 0.00791(10) -0.03160(14) -0.11037(14)
O1 O 0.19882(9) 0.33535(10) 0.05534(14)
O2 O 0.27790(9) -0.33477(11) 0.19075(12)
loop_
_geom_bond_atom_site_label_1
_geom_bond_atom_site_label_2
_geom_bond_site_symmetry_1
_geom_bond_site_symmetry_2
C1 C2 1_555 1_555
C2 C3 1_555 1_555
C3 C4 1_555 1_555
C4 C5 1_555 1_555
C5 C6 1_555 1_555
C6 C1 1_555 1_555
C7 C6 1_555 1_555
C8 C7 1_555 1_555
C9 C8 1_555 1_555
C10 C8 1_555 1_555
C11 C10 1_555 1_555
C12 C10 1_555 1_555
C13 C9 1_555 1_555
C14 C13 1_555 1_555
C15 C14 1_555 1_555
C16 C15 1_555 1_555
C17 C16 1_555 1_555
C18 C13 1_555 1_555
C19 H1 1_555 1_555
H2 C19 1_555 1_555
H3 C19 1_555 1_555
H4 C1 1_555 1_555
H5 C2 1_555 1_555
H6 C3 1_555 1_555
H7 C4 1_555 1_555
H8 C5 1_555 1_555
H9 C8 1_555 1_555
H10 C9 1_555 1_555
H11 C14 1_555 1_555
H12 C15 1_555 1_555
H13 C18 1_555 1_555
H14 C17 1_555 1_555
N1 C11 1_555 1_555
N2 C12 1_555 1_555
O1 C7 1_555 1_555
O2 C16 1_555 1_555
C9 C10 1_555 1_555
C17 C18 1_555 1_555
C19 O2 1_555 1_555

#END
