
#######################################################################
#
#                 Cambridge Crystallographic Data Centre
#                                CCDC 
#
#######################################################################
#
# If this CIF has been generated from an entry in the Cambridge 
# Structural Database, then it will include bibliographic, chemical, 
# crystal, experimental, refinement or atomic coordinate data resulting 
# from the CCDC's data processing and validation procedures.
#
#######################################################################

data_IVIJEE
_chemical_formula_moiety         'C38 H42 N4 O2 Si2'
_chemical_name_systematic        
2,2'-((4,4''-bis((t-butyl(dimethyl)silyl)oxy)-1,1':4',1''-terphenyl-2',5'-diyl)dimethylylidene)dimalononitrile
_symmetry_cell_setting           triclinic
_symmetry_space_group_name_H-M   'P -1'
_symmetry_Int_Tables_number      2
_space_group_name_Hall           '-P 1'
loop_
_symmetry_equiv_pos_site_id
_symmetry_equiv_pos_as_xyz
1 x,y,z
2 -x,-y,-z
_cell_length_a                   9.7516(5)
_cell_length_b                   12.8129(6)
_cell_length_c                   16.8155(9)
_cell_angle_alpha                106.782(5)
_cell_angle_beta                 99.248(5)
_cell_angle_gamma                90.870(4)
_cell_volume                     1981.18
_cell_formula_units_Z            2
loop_
_atom_site_label
_atom_site_type_symbol
_atom_site_fract_x
_atom_site_fract_y
_atom_site_fract_z
Si1 Si 0.09728(16) 1.11814(10) 0.35586(8)
O1 O 0.0022(3) 1.0337(2) 0.2709(2)
C1 C 0.0193(3) 0.6053(2) 0.0609(2)
C2 C 0.2731(3) 0.6062(2) 0.0519(2)
H1 H 0.3032 0.6402 0.1092
C3 C 0.1311(3) 0.5552(2) 0.0256(2)
N1 N 0.6099(3) 0.6978(3) 0.0594(3)
C4 C 0.3627(3) 0.6074(2) -0.0003(2)
C5 C -0.1108(3) 0.5481(2) 0.0333(2)
H2 H -0.1871 0.5802 0.0550
C6 C 0.0282(3) 0.7158(2) 0.1217(2)
C7 C 0.1124(3) 0.8019(3) 0.1169(2)
H3 H 0.1709 0.7888 0.0770
C8 C 0.5011(3) 0.6581(3) 0.0331(3)
C9 C -0.0563(3) 0.7389(3) 0.1829(2)
H4 H -0.1106 0.6825 0.1892
C10 C 0.1106(3) 0.9062(3) 0.1702(2)
H5 H 0.1708 0.9618 0.1678
C11 C 0.3273(4) 0.5639(3) -0.0902(3)
C12 C 0.0204(4) 0.9281(3) 0.2264(3)
C13 C -0.0612(4) 0.8437(3) 0.2343(3)
H6 H -0.1195 0.8577 0.2743
N2 N 0.2989(5) 0.5298(4) -0.1612(3)
C14 C 0.2540(6) 1.1692(5) 0.3256(4)
H7 H 0.3117 1.1099 0.3076
H8 H 0.3052 1.2242 0.3732
H9 H 0.2261 1.2001 0.2803
C15 C 0.0566(11) 1.3171(5) 0.4694(5)
H10 H 0.0789 1.2859 0.5149
H11 H -0.0024 1.3763 0.4851
H12 H 0.1408 1.3440 0.4571
C16 C -0.0204(8) 1.2285(4) 0.3899(4)
C17 C 0.1486(8) 1.0455(5) 0.4348(4)
H13 H 0.0707 1.0002 0.4368
H14 H 0.1780 1.0976 0.4892
H15 H 0.2239 1.0008 0.4195
C18 C -0.1507(9) 1.1783(7) 0.4123(6)
H16 H -0.1907 1.1165 0.3660
H17 H -0.2182 1.2322 0.4228
H18 H -0.1233 1.1554 0.4617
C19 C -0.0665(10) 1.2812(6) 0.3207(5)
H19 H 0.0138 1.3083 0.3047
H20 H -0.1230 1.3405 0.3411
H21 H -0.1196 1.2280 0.2727
Si1A Si -0.09728(16) -0.11814(10) -0.35586(8)
O1A O -0.0022(3) -0.0337(2) -0.2709(2)
C1A C -0.0193(3) 0.3947(2) -0.0609(2)
C2A C -0.2731(3) 0.3938(2) -0.0519(2)
H1A H -0.3032 0.3598 -0.1092
C3A C -0.1311(3) 0.4448(2) -0.0256(2)
N1A N -0.6099(3) 0.3022(3) -0.0594(3)
C4A C -0.3627(3) 0.3926(2) 0.0003(2)
C5A C 0.1108(3) 0.4519(2) -0.0333(2)
H2A H 0.1871 0.4198 -0.0550
C6A C -0.0282(3) 0.2842(2) -0.1217(2)
C7A C -0.1124(3) 0.1981(3) -0.1169(2)
H3A H -0.1709 0.2112 -0.0770
C8A C -0.5011(3) 0.3419(3) -0.0331(3)
C9A C 0.0563(3) 0.2611(3) -0.1829(2)
H4A H 0.1106 0.3175 -0.1892
C10A C -0.1106(3) 0.0938(3) -0.1702(2)
H5A H -0.1708 0.0382 -0.1678
C11A C -0.3273(4) 0.4361(3) 0.0902(3)
C12A C -0.0204(4) 0.0719(3) -0.2264(3)
C13A C 0.0612(4) 0.1563(3) -0.2343(3)
H6A H 0.1195 0.1423 -0.2743
N2A N -0.2989(5) 0.4702(4) 0.1612(3)
C14A C -0.2540(6) -0.1692(5) -0.3256(4)
H7A H -0.3117 -0.1099 -0.3076
H8A H -0.3052 -0.2242 -0.3732
H9A H -0.2261 -0.2001 -0.2803
C15A C -0.0566(11) -0.3171(5) -0.4694(5)
H10A H -0.0789 -0.2859 -0.5149
H11A H 0.0024 -0.3763 -0.4851
H12A H -0.1408 -0.3440 -0.4571
C16A C 0.0204(8) -0.2285(4) -0.3899(4)
C17A C -0.1486(8) -0.0455(5) -0.4348(4)
H13A H -0.0707 -0.0002 -0.4368
H14A H -0.1780 -0.0976 -0.4892
H15A H -0.2239 -0.0008 -0.4195
C18A C 0.1507(9) -0.1783(7) -0.4123(6)
H16A H 0.1907 -0.1165 -0.3660
H17A H 0.2182 -0.2322 -0.4228
H18A H 0.1233 -0.1554 -0.4617
C19A C 0.0665(10) -0.2812(6) -0.3207(5)
H19A H -0.0138 -0.3083 -0.3047
H20A H 0.1230 -0.3405 -0.3411
H21A H 0.1196 -0.2280 -0.2727
Si2 Si 0.3860(2) 0.56835(12) 0.32869(9)
O2 O 0.3292(3) 0.52080(19) 0.22567(16)
C20 C 0.0693(3) 0.1043(2) 0.0424(2)
C21 C 0.1183(3) 0.0331(2) -0.0259(2)
C22 C -0.0480(3) 0.0688(2) 0.0666(2)
H22 H -0.0815 0.1150 0.1119
C23 C 0.1391(3) 0.2135(2) 0.0908(2)
C24 C 0.0602(3) 0.3019(2) 0.1188(2)
H23 H -0.0364 0.2925 0.1063
C25 C 0.2336(3) 0.0671(3) -0.0611(2)
H24 H 0.2389 0.1391 -0.0624
C26 C 0.2668(4) 0.4178(3) 0.1829(2)
C27 C 0.3320(3) 0.0029(3) -0.0915(2)
C28 C 0.2830(3) 0.2302(3) 0.1113(2)
H25 H 0.3379 0.1719 0.0941
C29 C 0.3464(4) 0.3318(3) 0.1568(2)
H26 H 0.4430 0.3416 0.1695
C30 C 0.1228(4) 0.4037(3) 0.1649(2)
H27 H 0.0687 0.4620 0.1837
N3 N 0.3611(4) -0.1902(3) -0.0785(4)
C31 C 0.3458(4) -0.1048(3) -0.0845(3)
N4 N 0.5257(5) 0.0625(4) -0.1587(4)
C32 C 0.4387(4) 0.0395(3) -0.1289(3)
C33 C 0.4534(6) 0.7094(4) 0.3502(3)
C34 C 0.4986(8) 0.7607(6) 0.4463(4)
H28 H 0.4213 0.7558 0.4742
H29 H 0.5291 0.8360 0.4580
H30 H 0.5736 0.7222 0.4665
C35 C 0.2479(11) 0.5506(8) 0.3866(5)
H31 H 0.1746 0.5972 0.3773
H32 H 0.2851 0.5695 0.4457
H33 H 0.2115 0.4759 0.3670
C36 C 0.5716(8) 0.7122(6) 0.3018(6)
H34 H 0.6454 0.6710 0.3197
H35 H 0.6058 0.7865 0.3127
H36 H 0.5381 0.6810 0.2426
C37 C 0.3331(11) 0.7736(6) 0.3210(6)
H37 H 0.3205 0.7586 0.2609
H38 H 0.3547 0.8504 0.3475
H39 H 0.2490 0.7518 0.3365
C38 C 0.5376(10) 0.4810(6) 0.3562(5)
H40 H 0.5021 0.4230 0.3743
H41 H 0.6064 0.5262 0.4006
H42 H 0.5792 0.4505 0.3072
Si2A Si -0.3860(2) -0.56835(12) -0.32869(9)
O2A O -0.3292(3) -0.52080(19) -0.22567(16)
C20A C -0.0693(3) -0.1043(2) -0.0424(2)
C21A C -0.1183(3) -0.0331(2) 0.0259(2)
C22A C 0.0480(3) -0.0688(2) -0.0666(2)
H22A H 0.0815 -0.1150 -0.1119
C23A C -0.1391(3) -0.2135(2) -0.0908(2)
C24A C -0.0602(3) -0.3019(2) -0.1188(2)
H23A H 0.0364 -0.2925 -0.1063
C25A C -0.2336(3) -0.0671(3) 0.0611(2)
H24A H -0.2389 -0.1391 0.0624
C26A C -0.2668(4) -0.4178(3) -0.1829(2)
C27A C -0.3320(3) -0.0029(3) 0.0915(2)
C28A C -0.2830(3) -0.2302(3) -0.1113(2)
H25A H -0.3379 -0.1719 -0.0941
C29A C -0.3464(4) -0.3318(3) -0.1568(2)
H26A H -0.4430 -0.3416 -0.1695
C30A C -0.1228(4) -0.4037(3) -0.1649(2)
H27A H -0.0687 -0.4620 -0.1837
N3A N -0.3611(4) 0.1902(3) 0.0785(4)
C31A C -0.3458(4) 0.1048(3) 0.0845(3)
N4A N -0.5257(5) -0.0625(4) 0.1587(4)
C32A C -0.4387(4) -0.0395(3) 0.1289(3)
C33A C -0.4534(6) -0.7094(4) -0.3502(3)
C34A C -0.4986(8) -0.7607(6) -0.4463(4)
H28A H -0.4213 -0.7558 -0.4742
H29A H -0.5291 -0.8360 -0.4580
H30A H -0.5736 -0.7222 -0.4665
C35A C -0.2479(11) -0.5506(8) -0.3866(5)
H31A H -0.1746 -0.5972 -0.3773
H32A H -0.2851 -0.5695 -0.4457
H33A H -0.2115 -0.4759 -0.3670
C36A C -0.5716(8) -0.7122(6) -0.3018(6)
H34A H -0.6454 -0.6710 -0.3197
H35A H -0.6058 -0.7865 -0.3127
H36A H -0.5381 -0.6810 -0.2426
C37A C -0.3331(11) -0.7736(6) -0.3210(6)
H37A H -0.3205 -0.7586 -0.2609
H38A H -0.3547 -0.8504 -0.3475
H39A H -0.2490 -0.7518 -0.3365
C38A C -0.5376(10) -0.4810(6) -0.3562(5)
H40A H -0.5021 -0.4230 -0.3743
H41A H -0.6064 -0.5262 -0.4006
H42A H -0.5792 -0.4505 -0.3072
loop_
_geom_bond_atom_site_label_1
_geom_bond_atom_site_label_2
_geom_bond_site_symmetry_1
_geom_bond_site_symmetry_2
Si1 O1 1_555 1_555
O1 C12 1_555 1_555
C1 C3 1_555 1_555
C2 H1 1_555 1_555
C3 C2 1_555 1_555
N1 C8 1_555 1_555
C4 C2 1_555 1_555
C5 C1 1_555 1_555
H2 C5 1_555 1_555
C6 C1 1_555 1_555
C7 C6 1_555 1_555
H3 C7 1_555 1_555
C8 C4 1_555 1_555
C9 C6 1_555 1_555
H4 C9 1_555 1_555
C10 C7 1_555 1_555
H5 C10 1_555 1_555
C11 C4 1_555 1_555
C12 C10 1_555 1_555
C13 C9 1_555 1_555
H6 C13 1_555 1_555
N2 C11 1_555 1_555
C14 Si1 1_555 1_555
H7 C14 1_555 1_555
H8 C14 1_555 1_555
H9 C14 1_555 1_555
C15 H10 1_555 1_555
H11 C15 1_555 1_555
H12 C15 1_555 1_555
C16 Si1 1_555 1_555
C17 Si1 1_555 1_555
H13 C17 1_555 1_555
H14 C17 1_555 1_555
H15 C17 1_555 1_555
C18 C16 1_555 1_555
H16 C18 1_555 1_555
H17 C18 1_555 1_555
H18 C18 1_555 1_555
C19 C16 1_555 1_555
H19 C19 1_555 1_555
H20 C19 1_555 1_555
H21 C19 1_555 1_555
Si2 O2 1_555 1_555
O2 C26 1_555 1_555
C20 C21 1_555 1_555
C21 C25 1_555 1_555
C22 C20 1_555 1_555
H22 C22 1_555 1_555
C23 C20 1_555 1_555
C24 C23 1_555 1_555
H23 C24 1_555 1_555
C25 H24 1_555 1_555
C26 C29 1_555 1_555
C27 C25 1_555 1_555
C28 C23 1_555 1_555
H25 C28 1_555 1_555
C29 C28 1_555 1_555
H26 C29 1_555 1_555
C30 C24 1_555 1_555
H27 C30 1_555 1_555
N3 C31 1_555 1_555
C31 C27 1_555 1_555
N4 C32 1_555 1_555
C32 C27 1_555 1_555
C33 Si2 1_555 1_555
C34 C33 1_555 1_555
H28 C34 1_555 1_555
H29 C34 1_555 1_555
H30 C34 1_555 1_555
C35 Si2 1_555 1_555
H31 C35 1_555 1_555
H32 C35 1_555 1_555
H33 C35 1_555 1_555
C36 C33 1_555 1_555
H34 C36 1_555 1_555
H35 C36 1_555 1_555
H36 C36 1_555 1_555
C37 C33 1_555 1_555
H37 C37 1_555 1_555
H38 C37 1_555 1_555
H39 C37 1_555 1_555
C38 Si2 1_555 1_555
H40 C38 1_555 1_555
H41 C38 1_555 1_555
H42 C38 1_555 1_555
Si1A O1A 1_555 1_555
O1A C12A 1_555 1_555
C1A C3A 1_555 1_555
C2A H1A 1_555 1_555
C3A C5 1_555 1_555
N1A C8A 1_555 1_555
C4A C2A 1_555 1_555
C5A C3 1_555 1_555
H2A C5A 1_555 1_555
C6A C1A 1_555 1_555
C7A C6A 1_555 1_555
H3A C7A 1_555 1_555
C8A C4A 1_555 1_555
C9A C6A 1_555 1_555
H4A C9A 1_555 1_555
C10A C7A 1_555 1_555
H5A C10A 1_555 1_555
C11A C4A 1_555 1_555
C12A C10A 1_555 1_555
C13A C9A 1_555 1_555
H6A C13A 1_555 1_555
N2A C11A 1_555 1_555
C14A Si1A 1_555 1_555
H7A C14A 1_555 1_555
H8A C14A 1_555 1_555
H9A C14A 1_555 1_555
C15A H10A 1_555 1_555
H11A C15A 1_555 1_555
H12A C15A 1_555 1_555
C16A Si1A 1_555 1_555
C17A Si1A 1_555 1_555
H13A C17A 1_555 1_555
H14A C17A 1_555 1_555
H15A C17A 1_555 1_555
C18A C16A 1_555 1_555
H16A C18A 1_555 1_555
H17A C18A 1_555 1_555
H18A C18A 1_555 1_555
C19A C16A 1_555 1_555
H19A C19A 1_555 1_555
H20A C19A 1_555 1_555
H21A C19A 1_555 1_555
Si2A O2A 1_555 1_555
O2A C26A 1_555 1_555
C20A C21A 1_555 1_555
C21A C22 1_555 1_555
C22A C21 1_555 1_555
H22A C22A 1_555 1_555
C23A C20A 1_555 1_555
C24A C23A 1_555 1_555
H23A C24A 1_555 1_555
C25A C21A 1_555 1_555
H24A C25A 1_555 1_555
C26A C29A 1_555 1_555
C27A C25A 1_555 1_555
C28A C23A 1_555 1_555
H25A C28A 1_555 1_555
C29A C28A 1_555 1_555
H26A C29A 1_555 1_555
C30A C24A 1_555 1_555
H27A C30A 1_555 1_555
N3A C31A 1_555 1_555
C31A C27A 1_555 1_555
N4A C32A 1_555 1_555
C32A C27A 1_555 1_555
C33A Si2A 1_555 1_555
C34A C33A 1_555 1_555
H28A C34A 1_555 1_555
H29A C34A 1_555 1_555
H30A C34A 1_555 1_555
C35A Si2A 1_555 1_555
H31A C35A 1_555 1_555
H32A C35A 1_555 1_555
H33A C35A 1_555 1_555
C36A C33A 1_555 1_555
H34A C36A 1_555 1_555
H35A C36A 1_555 1_555
H36A C36A 1_555 1_555
C37A C33A 1_555 1_555
H37A C37A 1_555 1_555
H38A C37A 1_555 1_555
H39A C37A 1_555 1_555
C38A Si2A 1_555 1_555
H40A C38A 1_555 1_555
H41A C38A 1_555 1_555
H42A C38A 1_555 1_555
C12 C13 1_555 1_555
C15 C16 1_555 1_555
C26 C30 1_555 1_555
C1A C5A 1_555 1_555
C2A C3A 1_555 1_555
C12A C13A 1_555 1_555
C15A C16A 1_555 1_555
C20A C22A 1_555 1_555
C26A C30A 1_555 1_555

#END
