
#######################################################################
#
#                 Cambridge Crystallographic Data Centre
#                                CCDC 
#
#######################################################################
#
# If this CIF has been generated from an entry in the Cambridge 
# Structural Database, then it will include bibliographic, chemical, 
# crystal, experimental, refinement or atomic coordinate data resulting 
# from the CCDC's data processing and validation procedures.
#
#######################################################################

data_IVILOP
_chemical_formula_moiety         'C24 H25 Br1 N2 O8'
_chemical_name_systematic        
'2,2-Diethyl 4-methyl 5-(4-bromophenyl)-4-(2-nitrophenyl)pyrrolidine-2,2,4-tricarboxylate'
_symmetry_cell_setting           orthorhombic
_symmetry_space_group_name_H-M   'P 21 21 21'
_symmetry_Int_Tables_number      19
_space_group_name_Hall           'P 2ac 2ab'
loop_
_symmetry_equiv_pos_site_id
_symmetry_equiv_pos_as_xyz
1 x,y,z
2 1/2-x,-y,1/2+z
3 1/2+x,1/2-y,-z
4 -x,1/2+y,1/2-z
_cell_length_a                   8.066(5)
_cell_length_b                   8.898(5)
_cell_length_c                   34.816(5)
_cell_angle_alpha                90
_cell_angle_beta                 90
_cell_angle_gamma                90
_cell_volume                     2498.79
_exptl_crystal_colour            colorless
_exptl_crystal_description       block
_cell_formula_units_Z            4
loop_
_atom_site_label
_atom_site_type_symbol
_atom_site_fract_x
_atom_site_fract_y
_atom_site_fract_z
Br1 Br -0.07412(7) -0.10924(6) 0.899886(19)
O1 O 0.3123(4) 0.4712(3) 0.93319(9)
O2 O 0.4212(4) 0.6212(4) 0.78984(9)
O3 O 0.3240(4) 0.6064(4) 0.87931(9)
C1 C 0.2164(6) 0.2495(5) 0.86603(13)
H1 H 0.1981 0.3429 0.8548
C2 C 0.2680(6) -0.0286(4) 0.89880(14)
H2 H 0.2854 -0.1231 0.9094
O4 O 0.6608(5) 0.7397(4) 0.80193(12)
C3 C 0.6408(5) 0.4069(5) 0.93381(12)
C4 C 0.5527(5) 0.4476(4) 0.89518(11)
O5 O 0.7744(5) 0.4408(5) 0.77102(11)
C5 C 0.6673(6) 0.5493(5) 0.87045(12)
H3 H 0.7830 0.5328 0.8768
H4 H 0.6411 0.6547 0.8743
N1 N 0.5138(5) 0.3747(4) 0.82891(10)
C6 C 0.6298(6) 0.4997(6) 0.82745(15)
C7 C 0.5229(5) 0.3101(4) 0.86759(12)
H5 H 0.6230 0.2479 0.8685
O6 O 0.5776(6) 0.7298(4) 0.93880(11)
C8 C 0.0831(6) 0.1559(5) 0.87296(13)
H6 H -0.0239 0.1856 0.8666
C9 C 0.6435(6) 0.5024(5) 0.96632(13)
C10 C 0.1118(6) 0.0172(4) 0.88963(12)
C11 C 0.5524(6) 0.6275(5) 0.80392(12)
C12 C 0.4008(5) 0.0668(4) 0.89217(12)
H7 H 0.5072 0.0366 0.8990
O7 O 0.9065(5) 0.4054(7) 0.82541(12)
C13 C 0.8008(7) 0.2328(6) 0.97272(16)
H8 H 0.8558 0.1412 0.9745
C14 C 0.6118(7) 0.8692(6) 0.77887(16)
H9 H 0.6784 0.8731 0.7557
H10 H 0.4965 0.8592 0.7714
C15 C 0.7219(6) 0.2728(5) 0.93845(14)
H11 H 0.7245 0.2057 0.9180
C16 C 0.3772(5) 0.2073(4) 0.87545(11)
O8 O 0.4889(8) 0.6841(5) 0.99544(14)
C17 C 0.3857(5) 0.5196(4) 0.90152(13)
C18 C 0.7191(8) 0.4641(6) 0.99990(14)
H12 H 0.7182 0.5303 1.0206
C19 C 0.7885(6) 0.4461(6) 0.80851(16)
N2 N 0.5657(7) 0.6484(5) 0.96680(15)
C20 C 0.1443(6) 0.5241(7) 0.9411(2)
H13 H 0.1058 0.4812 0.9647
H14 H 0.0722 0.4942 0.9205
H15 H 0.1446 0.6317 0.9431
C21 C 0.6336(9) 1.0055(7) 0.80039(18)
H16 H 0.6009 1.0898 0.7849
H17 H 0.7481 1.0159 0.8075
H18 H 0.5665 1.0019 0.8231
C22 C 0.9159(8) 0.3686(8) 0.74904(18)
H19 H 1.0212 0.4090 0.7577
H20 H 0.9163 0.2608 0.7532
C23 C 0.8924(9) 0.4000(9) 0.71026(19)
H21 H 0.9798 0.3546 0.6956
H22 H 0.8938 0.5068 0.7064
H23 H 0.7876 0.3602 0.7021
C24 C 0.7978(8) 0.3256(7) 1.00316(16)
H24 H 0.8477 0.2975 1.0261
H25 H 0.417(3) 0.425(5) 0.8214(12)
loop_
_geom_bond_atom_site_label_1
_geom_bond_atom_site_label_2
_geom_bond_site_symmetry_1
_geom_bond_site_symmetry_2
Br1 C10 1_555 1_555
O1 C17 1_555 1_555
O2 C11 1_555 1_555
O3 C17 1_555 1_555
C1 H1 1_555 1_555
C2 H2 1_555 1_555
O4 C11 1_555 1_555
C3 C4 1_555 1_555
C4 C5 1_555 1_555
O5 C19 1_555 1_555
C5 H3 1_555 1_555
H4 C5 1_555 1_555
N1 C6 1_555 1_555
C6 C5 1_555 1_555
C7 C4 1_555 1_555
H5 C7 1_555 1_555
O6 N2 1_555 1_555
C8 C1 1_555 1_555
H6 C8 1_555 1_555
C9 C3 1_555 1_555
C10 C2 1_555 1_555
C11 C6 1_555 1_555
C12 C2 1_555 1_555
H7 C12 1_555 1_555
O7 C19 1_555 1_555
C13 H8 1_555 1_555
C14 O4 1_555 1_555
H9 C14 1_555 1_555
H10 C14 1_555 1_555
C15 C3 1_555 1_555
H11 C15 1_555 1_555
C16 C1 1_555 1_555
O8 N2 1_555 1_555
C17 C4 1_555 1_555
C18 C9 1_555 1_555
H12 C18 1_555 1_555
C19 C6 1_555 1_555
N2 C9 1_555 1_555
C20 O1 1_555 1_555
H13 C20 1_555 1_555
H14 C20 1_555 1_555
H15 C20 1_555 1_555
C21 C14 1_555 1_555
H16 C21 1_555 1_555
H17 C21 1_555 1_555
H18 C21 1_555 1_555
C22 O5 1_555 1_555
H19 C22 1_555 1_555
H20 C22 1_555 1_555
C23 C22 1_555 1_555
H21 C23 1_555 1_555
H22 C23 1_555 1_555
H23 C23 1_555 1_555
C24 C13 1_555 1_555
H24 C24 1_555 1_555
H25 N1 1_555 1_555
N1 C7 1_555 1_555
C7 C16 1_555 1_555
C8 C10 1_555 1_555
C12 C16 1_555 1_555
C13 C15 1_555 1_555
C18 C24 1_555 1_555

#END
