
#######################################################################
#
#                 Cambridge Crystallographic Data Centre
#                                CCDC 
#
#######################################################################
#
# If this CIF has been generated from an entry in the Cambridge 
# Structural Database, then it will include bibliographic, chemical, 
# crystal, experimental, refinement or atomic coordinate data resulting 
# from the CCDC's data processing and validation procedures.
#
#######################################################################

data_IVIQIP
_chemical_formula_moiety         'C18 H14 N4 O4'
_chemical_name_systematic        
2,2'-((2,5-bis(methoxymethoxy)-1,4-phenylene)dimethylylidene)dimalononitrile
_symmetry_cell_setting           monoclinic
_symmetry_space_group_name_H-M   'P 21/c'
_symmetry_Int_Tables_number      14
_space_group_name_Hall           '-P 2ybc'
loop_
_symmetry_equiv_pos_site_id
_symmetry_equiv_pos_as_xyz
1 x,y,z
2 -x,1/2+y,1/2-z
3 -x,-y,-z
4 x,1/2-y,1/2+z
_cell_length_a                   10.1736(3)
_cell_length_b                   4.9312(2)
_cell_length_c                   17.7827(8)
_cell_angle_alpha                90
_cell_angle_beta                 96.441(4)
_cell_angle_gamma                90
_cell_volume                     886.492
_cell_formula_units_Z            2
loop_
_atom_site_label
_atom_site_type_symbol
_atom_site_fract_x
_atom_site_fract_y
_atom_site_fract_z
O1 O 0.20821(9) 0.7713(2) 0.43593(7)
O2 O 0.36358(11) 1.1169(3) 0.43132(7)
N1 N -0.37980(16) 0.6226(6) 0.35991(13)
N2 N -0.12566(16) 0.0672(3) 0.26079(9)
C1 C 0.12592(13) 1.1034(3) 0.51954(8)
H1 H 0.2102 1.1743 0.5321
C2 C 0.10831(13) 0.8932(3) 0.46841(8)
C3 C -0.01925(12) 0.7872(3) 0.44699(7)
C4 C -0.03231(13) 0.5694(3) 0.39200(7)
H2 H 0.0469 0.4913 0.3816
C5 C -0.14140(14) 0.4633(3) 0.35380(8)
C6 C -0.13148(15) 0.2438(3) 0.30181(8)
C7 C -0.27396(16) 0.5553(4) 0.35791(11)
C8 C 0.34156(14) 0.8608(4) 0.45699(11)
H3 H 0.3929(16) 0.719(3) 0.4330(9)
H4 H 0.3597(17) 0.865(4) 0.5121(10)
C9 C 0.3550(2) 1.1363(5) 0.35082(12)
H5 H 0.2651 1.1079 0.3295
H6 H 0.4106 1.0010 0.3319
H7 H 0.3836 1.3131 0.3369
O1B O -0.20821(9) 1.2287(2) 0.56407(7)
O2B O -0.36358(11) 0.8831(3) 0.56868(7)
N1B N 0.37980(16) 1.3774(6) 0.64009(13)
N2B N 0.12566(16) 1.9328(3) 0.73921(9)
C1B C -0.12592(13) 0.8966(3) 0.48046(8)
H1B H -0.2102 0.8257 0.4679
C2B C -0.10831(13) 1.1068(3) 0.53159(8)
C3B C 0.01925(12) 1.2128(3) 0.55301(7)
C4B C 0.03231(13) 1.4306(3) 0.60800(7)
H2B H -0.0469 1.5087 0.6184
C5B C 0.14140(14) 1.5367(3) 0.64620(8)
C6B C 0.13148(15) 1.7562(3) 0.69819(8)
C7B C 0.27396(16) 1.4447(4) 0.64209(11)
C8B C -0.34156(14) 1.1392(4) 0.54301(11)
H3B H -0.3929(16) 1.281(3) 0.5670(9)
H4B H -0.3597(17) 1.135(4) 0.4879(10)
C9B C -0.3550(2) 0.8637(5) 0.64918(12)
H5B H -0.2651 0.8921 0.6705
H6B H -0.4106 0.9990 0.6681
H7B H -0.3836 0.6869 0.6631
loop_
_geom_bond_atom_site_label_1
_geom_bond_atom_site_label_2
_geom_bond_site_symmetry_1
_geom_bond_site_symmetry_2
O1 C2 1_555 1_555
O2 C8 1_555 1_555
N1 C7 1_555 1_555
N2 C6 1_555 1_555
C1 H1 1_555 1_555
C2 C1 1_555 1_555
C3 C2 1_555 1_555
C4 C3 1_555 1_555
H2 C4 1_555 1_555
C5 C4 1_555 1_555
C6 C5 1_555 1_555
C7 C5 1_555 1_555
C8 O1 1_555 1_555
H3 C8 1_555 1_555
H4 C8 1_555 1_555
C9 O2 1_555 1_555
H5 C9 1_555 1_555
H6 C9 1_555 1_555
H7 C9 1_555 1_555
O1B C2B 1_555 1_555
O2B C8B 1_555 1_555
N1B C7B 1_555 1_555
N2B C6B 1_555 1_555
C1B C3 1_555 1_555
H1B C1B 1_555 1_555
C2B C1B 1_555 1_555
C3B C1 1_555 1_555
C4B C3B 1_555 1_555
H2B C4B 1_555 1_555
C5B C4B 1_555 1_555
C6B C5B 1_555 1_555
C7B C5B 1_555 1_555
C8B O1B 1_555 1_555
H3B C8B 1_555 1_555
H4B C8B 1_555 1_555
C9B O2B 1_555 1_555
H5B C9B 1_555 1_555
H6B C9B 1_555 1_555
H7B C9B 1_555 1_555
C2B C3B 1_555 1_555

#END
