
#######################################################################
#
#                 Cambridge Crystallographic Data Centre
#                                CCDC 
#
#######################################################################
#
# If this CIF has been generated from an entry in the Cambridge 
# Structural Database, then it will include bibliographic, chemical, 
# crystal, experimental, refinement or atomic coordinate data resulting 
# from the CCDC's data processing and validation procedures.
#
#######################################################################

data_IVIRUC
_chemical_formula_moiety         'C26 H14 N4'
_chemical_name_systematic        
2,2'-(1,1':4',1''-terphenyl-2',5'-diyldimethylylidene)dimalononitrile
_symmetry_cell_setting           monoclinic
_symmetry_space_group_name_H-M   'P 21/n'
_symmetry_Int_Tables_number      14
_space_group_name_Hall           '-P 2yn'
loop_
_symmetry_equiv_pos_site_id
_symmetry_equiv_pos_as_xyz
1 x,y,z
2 1/2-x,1/2+y,1/2-z
3 -x,-y,-z
4 1/2+x,1/2-y,1/2+z
_cell_length_a                   12.4262(9)
_cell_length_b                   7.2914(5)
_cell_length_c                   12.8993(8)
_cell_angle_alpha                90
_cell_angle_beta                 118.312(3)
_cell_angle_gamma                90
_cell_volume                     1028.93
_exptl_crystal_colour            'light yellow'
_exptl_crystal_description       block
_cell_formula_units_Z            2
loop_
_atom_site_label
_atom_site_type_symbol
_atom_site_fract_x
_atom_site_fract_y
_atom_site_fract_z
C1 C 0.95887(18) 0.0842(3) 0.07266(17)
C2 C 0.90260(19) 0.1196(3) -0.04813(18)
H1 H 0.8370 0.2006 -0.0801
C3 C 0.92250(19) 0.1834(3) 0.14950(18)
H2 H 0.9839 0.2064 0.2257
C4 C 1.1209(2) -0.0874(3) 0.24957(18)
C5 C 1.05859(18) -0.0375(3) 0.12251(18)
C6 C 0.8105(2) 0.2450(3) 0.12242(19)
C7 C 1.2468(2) -0.0789(4) 0.3143(2)
H3 H 1.2927 -0.0397 0.2788
C8 C 1.0543(3) -0.1469(4) 0.3044(2)
H4 H 0.9694 -0.1522 0.2621
C9 C 0.7022(2) 0.2102(4) 0.0135(2)
C10 C 1.3049(3) -0.1289(4) 0.4323(2)
H5 H 1.3896 -0.1216 0.4758
C11 C 0.7920(3) 0.3463(4) 0.2082(2)
C12 C 1.2379(3) -0.1892(4) 0.4855(3)
H6 H 1.2773 -0.2234 0.5644
C13 C 1.1139(3) -0.1987(4) 0.4221(3)
H7 H 1.0687 -0.2401 0.4579
N1 N 0.6147(2) 0.1850(4) -0.0715(2)
N2 N 0.7768(3) 0.4259(5) 0.2762(3)
C1B C 1.04113(18) -0.0842(3) -0.07266(17)
C2B C 1.09740(19) -0.1196(3) 0.04813(18)
H1B H 1.1630 -0.2006 0.0801
C3B C 1.07750(19) -0.1834(3) -0.14950(18)
H2B H 1.0161 -0.2064 -0.2257
C4B C 0.8791(2) 0.0874(3) -0.24957(18)
C5B C 0.94141(18) 0.0375(3) -0.12251(18)
C6B C 1.1895(2) -0.2450(3) -0.12242(19)
C7B C 0.7532(2) 0.0789(4) -0.3143(2)
H3B H 0.7073 0.0397 -0.2788
C8B C 0.9457(3) 0.1469(4) -0.3044(2)
H4B H 1.0306 0.1522 -0.2621
C9B C 1.2978(2) -0.2102(4) -0.0135(2)
C10B C 0.6951(3) 0.1289(4) -0.4323(2)
H5B H 0.6104 0.1216 -0.4758
C11B C 1.2080(3) -0.3463(4) -0.2082(2)
C12B C 0.7621(3) 0.1892(4) -0.4855(3)
H6B H 0.7227 0.2234 -0.5644
C13B C 0.8861(3) 0.1987(4) -0.4221(3)
H7B H 0.9313 0.2401 -0.4579
N1B N 1.3853(2) -0.1850(4) 0.0715(2)
N2B N 1.2232(3) -0.4259(5) -0.2762(3)
loop_
_geom_bond_atom_site_label_1
_geom_bond_atom_site_label_2
_geom_bond_site_symmetry_1
_geom_bond_site_symmetry_2
C1 C2 1_555 1_555
C2 H1 1_555 1_555
C3 C1 1_555 1_555
H2 C3 1_555 1_555
C4 C5 1_555 1_555
C5 C1 1_555 1_555
C6 C3 1_555 1_555
C7 C4 1_555 1_555
H3 C7 1_555 1_555
C8 C4 1_555 1_555
H4 C8 1_555 1_555
C9 C6 1_555 1_555
C10 C7 1_555 1_555
H5 C10 1_555 1_555
C11 C6 1_555 1_555
C12 C10 1_555 1_555
H6 C12 1_555 1_555
C13 C8 1_555 1_555
H7 C13 1_555 1_555
N1 C9 1_555 1_555
N2 C11 1_555 1_555
C1B C2B 1_555 1_555
C2B C5 1_555 1_555
H1B C2B 1_555 1_555
C3B C1B 1_555 1_555
H2B C3B 1_555 1_555
C4B C5B 1_555 1_555
C5B C2 1_555 1_555
C6B C3B 1_555 1_555
C7B C4B 1_555 1_555
H3B C7B 1_555 1_555
C8B C4B 1_555 1_555
H4B C8B 1_555 1_555
C9B C6B 1_555 1_555
C10B C7B 1_555 1_555
H5B C10B 1_555 1_555
C11B C6B 1_555 1_555
C12B C10B 1_555 1_555
H6B C12B 1_555 1_555
C13B C8B 1_555 1_555
H7B C13B 1_555 1_555
N1B C9B 1_555 1_555
N2B C11B 1_555 1_555
C12 C13 1_555 1_555
C1B C5B 1_555 1_555
C12B C13B 1_555 1_555

#END
