
#######################################################################
#
#                 Cambridge Crystallographic Data Centre
#                                CCDC 
#
#######################################################################
#
# If this CIF has been generated from an entry in the Cambridge 
# Structural Database, then it will include bibliographic, chemical, 
# crystal, experimental, refinement or atomic coordinate data resulting 
# from the CCDC's data processing and validation procedures.
#
#######################################################################

data_IVISUD
_chemical_formula_moiety         'C28 H33 N1 O8'
_chemical_name_systematic        
'dimethyl 1-(1,3-dimethoxy-1,3-dioxopropan-2-yl)-7-(dimethylamino)-4-(4-methylphenyl)-3,4-dihydronaphthalene-2,2(1H)-dicarboxylate'
_symmetry_cell_setting           triclinic
_symmetry_space_group_name_H-M   'P -1'
_symmetry_Int_Tables_number      2
_space_group_name_Hall           '-P 1'
loop_
_symmetry_equiv_pos_site_id
_symmetry_equiv_pos_as_xyz
1 x,y,z
2 -x,-y,-z
_cell_length_a                   9.0856(3)
_cell_length_b                   10.7830(3)
_cell_length_c                   14.7582(4)
_cell_angle_alpha                98.0362(12)
_cell_angle_beta                 91.5890(12)
_cell_angle_gamma                113.7056(12)
_cell_volume                     1305.23
_exptl_crystal_colour            colorless
_exptl_crystal_description       Block
_cell_formula_units_Z            2
loop_
_atom_site_label
_atom_site_type_symbol
_atom_site_fract_x
_atom_site_fract_y
_atom_site_fract_z
C1 C 0.7254(2) 0.79254(16) 0.22577(11)
C2 C 0.6006(2) 0.68145(17) 0.17078(12)
H1 H 0.5103 0.6926 0.1470
C3 C 0.60951(19) 0.55617(17) 0.15140(11)
H2 H 0.5251 0.4837 0.1135
C4 C 0.73897(18) 0.53243(15) 0.18573(10)
C5 C 0.86279(17) 0.64171(15) 0.24141(10)
C6 C 0.85571(19) 0.76962(16) 0.25993(11)
H3 H 0.9414 0.8427 0.2966
N1 N 0.7207(2) 0.92083(16) 0.24383(14)
C7 C 0.5713(3) 0.9331(2) 0.22648(15)
H4 H 0.5310 0.8976 0.1624
H5 H 0.5890 1.0290 0.2400
H6 H 0.4928 0.8811 0.2652
C8 C 0.8463(3) 1.03022(19) 0.30331(17)
H7 H 0.8475 1.0059 0.3641
H8 H 0.8274 1.1131 0.3071
H9 H 0.9495 1.0460 0.2792
C9 C 1.00974(18) 0.62921(15) 0.28404(10)
H10 H 1.1058 0.7056 0.2684
C10 C 1.02318(18) 0.49435(15) 0.24216(10)
C11 C 0.85735(18) 0.37313(15) 0.22883(11)
H11 H 0.8694 0.2877 0.2075
H12 H 0.8094 0.3654 0.2876
C12 C 0.74660(18) 0.39415(15) 0.15839(11)
H13 H 0.7966 0.3967 0.0995
C13 C 1.02013(19) 0.64627(17) 0.39220(11)
H14 H 1.0184 0.5598 0.4086
C14 C 0.88020(19) 0.66794(18) 0.43501(11)
O1 O 0.74737(15) 0.57851(14) 0.43001(9)
O2 O 0.92476(15) 0.79586(13) 0.47917(8)
C15 C 0.7991(3) 0.8247(2) 0.52306(15)
H15 H 0.7105 0.8057 0.4775
H16 H 0.8420 0.9205 0.5514
H17 H 0.7605 0.7671 0.5698
C16 C 1.1810(2) 0.7599(2) 0.43319(12)
O3 O 1.25001(18) 0.86464(17) 0.40398(11)
O4 O 1.23570(18) 0.7261(2) 0.50673(10)
C17 C 1.3919(3) 0.8253(4) 0.5491(2)
H18 H 1.4700 0.8411 0.5038
H19 H 1.4259 0.7904 0.5992
H20 H 1.3845 0.9109 0.5728
C18 C 1.13979(19) 0.46414(16) 0.30309(11)
O5 O 1.28592(13) 0.56689(12) 0.31196(8)
O6 O 1.10564(16) 0.36430(13) 0.33859(10)
C19 C 1.4112(2) 0.5509(2) 0.36568(14)
H21 H 1.3840 0.5468 0.4286
H22 H 1.5134 0.6284 0.3646
H23 H 1.4202 0.4667 0.3397
C20 C 1.09705(18) 0.50975(16) 0.14992(10)
O7 O 1.13327(16) 0.60768(13) 0.11220(8)
O8 O 1.11659(15) 0.39612(12) 0.11775(8)
C21 C 1.1875(2) 0.3941(2) 0.03137(12)
H24 H 1.1086 0.3824 -0.0184
H25 H 1.2206 0.3185 0.0221
H26 H 1.2808 0.4800 0.0325
C22 C 0.58093(18) 0.27553(15) 0.14150(11)
C23 C 0.4778(2) 0.24440(19) 0.21041(13)
H27 H 0.5110 0.2974 0.2694
C24 C 0.3270(2) 0.1366(2) 0.19372(15)
H28 H 0.2596 0.1173 0.2417
C25 C 0.2732(2) 0.05645(19) 0.10761(15)
C26 C 0.3751(2) 0.0892(2) 0.03945(15)
H29 H 0.3409 0.0376 -0.0199
C27 C 0.5275(2) 0.19640(19) 0.05569(13)
H30 H 0.5949 0.2152 0.0076
C28 C 0.1103(3) -0.0641(3) 0.0891(2)
H31 H 0.0908 -0.1020 0.0241
H32 H 0.0267 -0.0337 0.1069
H33 H 0.1088 -0.1340 0.1243
loop_
_geom_bond_atom_site_label_1
_geom_bond_atom_site_label_2
_geom_bond_site_symmetry_1
_geom_bond_site_symmetry_2
C1 C2 1_555 1_555
C2 H1 1_555 1_555
C3 C2 1_555 1_555
H2 C3 1_555 1_555
C4 C3 1_555 1_555
C5 C4 1_555 1_555
C6 C1 1_555 1_555
H3 C6 1_555 1_555
N1 C1 1_555 1_555
C7 N1 1_555 1_555
H4 C7 1_555 1_555
H5 C7 1_555 1_555
H6 C7 1_555 1_555
C8 N1 1_555 1_555
H7 C8 1_555 1_555
H8 C8 1_555 1_555
H9 C8 1_555 1_555
C9 C5 1_555 1_555
H10 C9 1_555 1_555
C10 C9 1_555 1_555
C11 C10 1_555 1_555
H11 C11 1_555 1_555
H12 C11 1_555 1_555
C12 C4 1_555 1_555
H13 C12 1_555 1_555
C13 C9 1_555 1_555
H14 C13 1_555 1_555
C14 C13 1_555 1_555
O1 C14 1_555 1_555
O2 C14 1_555 1_555
C15 O2 1_555 1_555
H15 C15 1_555 1_555
H16 C15 1_555 1_555
H17 C15 1_555 1_555
C16 C13 1_555 1_555
O3 C16 1_555 1_555
O4 C16 1_555 1_555
C17 O4 1_555 1_555
H18 C17 1_555 1_555
H19 C17 1_555 1_555
H20 C17 1_555 1_555
C18 C10 1_555 1_555
O5 C18 1_555 1_555
O6 C18 1_555 1_555
C19 O5 1_555 1_555
H21 C19 1_555 1_555
H22 C19 1_555 1_555
H23 C19 1_555 1_555
C20 C10 1_555 1_555
O7 C20 1_555 1_555
O8 C20 1_555 1_555
C21 O8 1_555 1_555
H24 C21 1_555 1_555
H25 C21 1_555 1_555
H26 C21 1_555 1_555
C22 C12 1_555 1_555
C23 C22 1_555 1_555
H27 C23 1_555 1_555
C24 C23 1_555 1_555
H28 C24 1_555 1_555
C25 C24 1_555 1_555
C26 C25 1_555 1_555
H29 C26 1_555 1_555
C27 C22 1_555 1_555
H30 C27 1_555 1_555
C28 C25 1_555 1_555
H31 C28 1_555 1_555
H32 C28 1_555 1_555
H33 C28 1_555 1_555
C5 C6 1_555 1_555
C11 C12 1_555 1_555
C26 C27 1_555 1_555

#END
