
#######################################################################
#
#                 Cambridge Crystallographic Data Centre
#                                CCDC 
#
#######################################################################
#
# If this CIF has been generated from an entry in the Cambridge 
# Structural Database, then it will include bibliographic, chemical, 
# crystal, experimental, refinement or atomic coordinate data resulting 
# from the CCDC's data processing and validation procedures.
#
#######################################################################

data_IVIYIV
_chemical_formula_moiety         'C22 H17 N1 O2'
_chemical_name_systematic        (M)-(+-)-N-(\a-Methylbenzyl)diphenimide
_symmetry_cell_setting           monoclinic
_symmetry_space_group_name_H-M   'P 21/n'
_symmetry_Int_Tables_number      14
_space_group_name_Hall           '-P 2yn'
loop_
_symmetry_equiv_pos_site_id
_symmetry_equiv_pos_as_xyz
1 x,y,z
2 1/2+x,1/2-y,1/2+z
3 -x,-y,-z
4 1/2-x,1/2+y,1/2-z
_cell_length_a                   9.764(2)
_cell_length_b                   10.273(2)
_cell_length_c                   17.099(3)
_cell_angle_alpha                90
_cell_angle_beta                 95.55(3)
_cell_angle_gamma                90
_cell_volume                     1707.08
_exptl_crystal_colour            colorless
_exptl_crystal_description       spherical
_chemical_melting_point          142-143deg.C
_cell_formula_units_Z            4
loop_
_atom_site_label
_atom_site_type_symbol
_atom_site_fract_x
_atom_site_fract_y
_atom_site_fract_z
C1 C -0.20046(15) 0.20332(15) 0.79751(9)
C2 C -0.28580(19) 0.24343(18) 0.73104(10)
C3 C -0.2661(2) 0.1974(2) 0.65749(11)
C4 C -0.1620(3) 0.1107(2) 0.64774(11)
C5 C -0.0765(2) 0.06992(19) 0.71189(11)
C6 C -0.09413(16) 0.11631(14) 0.78716(9)
C7 C -0.22971(15) 0.25010(14) 0.87588(8)
C8 C -0.36607(18) 0.26345(17) 0.89263(11)
C9 C -0.3995(2) 0.3132(2) 0.96303(11)
C10 C -0.2969(2) 0.35446(19) 1.01839(11)
C11 C -0.1615(2) 0.34234(16) 1.00377(10)
C12 C -0.12562(16) 0.28691(14) 0.93375(9)
C13 C 0.00549(16) 0.06604(15) 0.85183(9)
C14 C 0.02566(16) 0.27268(15) 0.92958(9)
C15 C 0.22428(16) 0.12528(17) 0.92848(9)
C16 C 0.2350(3) 0.0322(3) 0.99739(12)
C17 C 0.29967(15) 0.08594(16) 0.85854(9)
C18 C 0.29527(18) 0.1694(2) 0.79435(10)
C19 C 0.3655(2) 0.1412(3) 0.73019(12)
C20 C 0.4417(3) 0.0294(3) 0.72907(15)
C21 C 0.4476(2) -0.0536(2) 0.79170(17)
C22 C 0.37688(19) -0.02600(19) 0.85684(13)
N1 N 0.07741(12) 0.15658(12) 0.90207(7)
O1 O 0.03940(12) -0.04722(11) 0.85403(8)
O2 O 0.10443(13) 0.35405(12) 0.95955(9)
H1 H -0.361(2) 0.305(2) 0.7374(11)
H2 H -0.328(2) 0.225(2) 0.6112(14)
H3 H -0.147(2) 0.080(2) 0.5970(13)
H4 H -0.002(2) 0.0102(19) 0.7090(11)
H5 H -0.436(2) 0.2359(18) 0.8532(11)
H6 H -0.496(2) 0.322(2) 0.9735(12)
H7 H -0.320(2) 0.3919(19) 1.0702(12)
H8 H -0.084(2) 0.3717(19) 1.0407(11)
H9 H 0.2595(18) 0.2152(19) 0.9472(10)
H10 H 0.181(2) 0.067(2) 1.0389(14)
H11 H 0.197(3) -0.056(3) 0.9782(15)
H12 H 0.334(3) 0.029(2) 1.0208(14)
H13 H 0.243(2) 0.252(2) 0.7951(12)
H14 H 0.363(2) 0.205(2) 0.6855(14)
H15 H 0.494(3) 0.011(2) 0.6835(16)
H16 H 0.503(3) -0.131(3) 0.7939(15)
H17 H 0.380(2) -0.084(2) 0.9001(12)
loop_
_geom_bond_atom_site_label_1
_geom_bond_atom_site_label_2
_geom_bond_site_symmetry_1
_geom_bond_site_symmetry_2
C1 C2 1_555 1_555
C2 C3 1_555 1_555
C3 C4 1_555 1_555
C4 C5 1_555 1_555
C5 C6 1_555 1_555
C6 C1 1_555 1_555
C7 C1 1_555 1_555
C8 C7 1_555 1_555
C9 C8 1_555 1_555
C10 C9 1_555 1_555
C11 C10 1_555 1_555
C12 C7 1_555 1_555
C13 C6 1_555 1_555
C14 C12 1_555 1_555
C15 C16 1_555 1_555
C16 H10 1_555 1_555
C17 C15 1_555 1_555
C18 C17 1_555 1_555
C19 C18 1_555 1_555
C20 C19 1_555 1_555
C21 C20 1_555 1_555
C22 C17 1_555 1_555
N1 C13 1_555 1_555
O1 C13 1_555 1_555
O2 C14 1_555 1_555
H1 C2 1_555 1_555
H2 C3 1_555 1_555
H3 C4 1_555 1_555
H4 C5 1_555 1_555
H5 C8 1_555 1_555
H6 C9 1_555 1_555
H7 C10 1_555 1_555
H8 C11 1_555 1_555
H9 C15 1_555 1_555
H11 C16 1_555 1_555
H12 C16 1_555 1_555
H13 C18 1_555 1_555
H14 C19 1_555 1_555
H15 C20 1_555 1_555
H16 C21 1_555 1_555
H17 C22 1_555 1_555
C11 C12 1_555 1_555
C14 N1 1_555 1_555
C15 N1 1_555 1_555
C21 C22 1_555 1_555

#END
