
#######################################################################
#
#                 Cambridge Crystallographic Data Centre
#                                CCDC 
#
#######################################################################
#
# If this CIF has been generated from an entry in the Cambridge 
# Structural Database, then it will include bibliographic, chemical, 
# crystal, experimental, refinement or atomic coordinate data resulting 
# from the CCDC's data processing and validation procedures.
#
#######################################################################

data_IVIYUH
_chemical_formula_moiety         'C34 H20 N2 O4'
_chemical_name_systematic        N,N'-bis(Diphenoyl)-1,2-diaminobenzene
_symmetry_cell_setting           monoclinic
_symmetry_space_group_name_H-M   'P 21/n'
_symmetry_Int_Tables_number      14
_space_group_name_Hall           '-P 2yn'
loop_
_symmetry_equiv_pos_site_id
_symmetry_equiv_pos_as_xyz
1 x,y,z
2 1/2+x,1/2-y,1/2+z
3 -x,-y,-z
4 1/2-x,1/2+y,1/2-z
_cell_length_a                   9.855(2)
_cell_length_b                   12.280(2)
_cell_length_c                   20.602(4)
_cell_angle_alpha                90
_cell_angle_beta                 97.97(3)
_cell_angle_gamma                90
_cell_volume                     2469.16
_exptl_crystal_colour            colorless
_exptl_crystal_description       prism
_chemical_melting_point          289-292deg.C
_cell_formula_units_Z            4
loop_
_atom_site_label
_atom_site_type_symbol
_atom_site_fract_x
_atom_site_fract_y
_atom_site_fract_z
C1 C -0.0173(2) 0.21436(17) 0.08563(11)
C2 C 0.0566(2) 0.30898(17) 0.07947(11)
C3 C 0.1812(3) 0.3032(2) 0.05588(12)
H1 H 0.2344 0.3680 0.0530
C4 C 0.2293(3) 0.2037(2) 0.03727(13)
H2 H 0.3146 0.1998 0.0199
C5 C 0.1550(3) 0.1104(2) 0.04308(14)
H3 H 0.1897 0.0414 0.0309
C6 C 0.0316(3) 0.11571(19) 0.06673(13)
H4 H -0.0216 0.0509 0.0698
C7 C -0.1356(2) 0.24904(18) 0.17919(11)
C8 C -0.2629(3) 0.17852(18) 0.07319(12)
C9 C -0.1090(2) 0.45256(17) 0.05485(11)
C10 C 0.0866(2) 0.47036(18) 0.14815(11)
C11 C -0.3875(2) 0.29044(18) 0.18657(11)
C12 C -0.2486(2) 0.31573(17) 0.19962(11)
C13 C -0.2065(3) 0.4102(2) 0.23415(12)
H5 H -0.1104 0.4257 0.2443
C14 C -0.3009(3) 0.4806(2) 0.25388(13)
H6 H -0.2708 0.5461 0.2770
C15 C -0.4381(3) 0.4572(2) 0.24038(13)
H7 H -0.5041 0.5070 0.2536
C16 C -0.4815(3) 0.3625(2) 0.20791(13)
H8 H -0.5775 0.3459 0.1995
C17 C -0.4341(2) 0.18456(18) 0.15744(11)
C18 C -0.3775(2) 0.13553(17) 0.10614(11)
C19 C -0.4285(3) 0.03466(19) 0.08187(13)
H9 H -0.3919 0.0022 0.0456
C20 C -0.5309(3) -0.0182(2) 0.10923(14)
H10 H -0.5646 -0.0876 0.0927
C21 C -0.5845(3) 0.0298(2) 0.16023(14)
H11 H -0.6541 -0.0070 0.1801
C22 C -0.5388(3) 0.1297(2) 0.18354(12)
H12 H -0.5796 0.1631 0.2183
C23 C -0.1626(2) 0.62712(17) 0.11459(11)
C24 C -0.2038(2) 0.53162(17) 0.08054(10)
C25 C -0.3421(2) 0.5060(2) 0.06630(12)
H13 H -0.3695 0.4411 0.0421
C26 C -0.4402(3) 0.5731(2) 0.08633(14)
H14 H -0.5354 0.5544 0.0768
C27 C -0.4013(3) 0.6671(2) 0.12073(15)
H15 H -0.4694 0.7138 0.1351
C28 C -0.2651(3) 0.6938(2) 0.13409(13)
H16 H -0.2393 0.7600 0.1574
C29 C -0.0190(2) 0.66236(17) 0.12854(11)
C30 C 0.0909(2) 0.59183(18) 0.14808(10)
C31 C 0.2207(2) 0.6348(2) 0.16917(12)
H17 H 0.2951 0.5862 0.1837
C32 C 0.2439(3) 0.7454(2) 0.16902(15)
H18 H 0.3328 0.7740 0.1853
C33 C 0.1386(3) 0.8140(2) 0.14609(16)
H19 H 0.1553 0.8908 0.1434
C34 C 0.0094(3) 0.77382(19) 0.12691(14)
H20 H -0.0635 0.8234 0.1117
N1 N -0.14591(18) 0.21917(14) 0.11219(9)
N2 N 0.00523(18) 0.41368(13) 0.09727(8)
O1 O -0.03026(18) 0.23291(15) 0.21519(8)
O2 O -0.2621(2) 0.16579(17) 0.01513(9)
O3 O -0.13816(19) 0.41256(14) 0.00142(8)
O4 O 0.16520(19) 0.41878(14) 0.18699(9)
loop_
_geom_bond_atom_site_label_1
_geom_bond_atom_site_label_2
_geom_bond_site_symmetry_1
_geom_bond_site_symmetry_2
C1 C2 1_555 1_555
C2 C3 1_555 1_555
C3 H1 1_555 1_555
C4 C3 1_555 1_555
H2 C4 1_555 1_555
C5 C4 1_555 1_555
H3 C5 1_555 1_555
C6 C1 1_555 1_555
H4 C6 1_555 1_555
C7 C12 1_555 1_555
C8 C18 1_555 1_555
C9 C24 1_555 1_555
C10 C30 1_555 1_555
C11 C12 1_555 1_555
C12 C13 1_555 1_555
C13 H5 1_555 1_555
C14 C13 1_555 1_555
H6 C14 1_555 1_555
C15 C14 1_555 1_555
H7 C15 1_555 1_555
C16 C11 1_555 1_555
H8 C16 1_555 1_555
C17 C11 1_555 1_555
C18 C17 1_555 1_555
C19 C18 1_555 1_555
H9 C19 1_555 1_555
C20 C19 1_555 1_555
H10 C20 1_555 1_555
C21 C20 1_555 1_555
H11 C21 1_555 1_555
C22 C17 1_555 1_555
H12 C22 1_555 1_555
C23 C24 1_555 1_555
C24 C25 1_555 1_555
C25 H13 1_555 1_555
C26 C25 1_555 1_555
H14 C26 1_555 1_555
C27 C26 1_555 1_555
H15 C27 1_555 1_555
C28 C23 1_555 1_555
H16 C28 1_555 1_555
C29 C23 1_555 1_555
C30 C29 1_555 1_555
C31 C30 1_555 1_555
H17 C31 1_555 1_555
C32 C31 1_555 1_555
H18 C32 1_555 1_555
C33 C32 1_555 1_555
H19 C33 1_555 1_555
C34 C29 1_555 1_555
H20 C34 1_555 1_555
N1 C1 1_555 1_555
N2 C2 1_555 1_555
O1 C7 1_555 1_555
O2 C8 1_555 1_555
O3 C9 1_555 1_555
O4 C10 1_555 1_555
C5 C6 1_555 1_555
C7 N1 1_555 1_555
C8 N1 1_555 1_555
C9 N2 1_555 1_555
C10 N2 1_555 1_555
C15 C16 1_555 1_555
C21 C22 1_555 1_555
C27 C28 1_555 1_555
C33 C34 1_555 1_555

#END
