
#######################################################################
#
#                 Cambridge Crystallographic Data Centre
#                                CCDC 
#
#######################################################################
#
# If this CIF has been generated from an entry in the Cambridge 
# Structural Database, then it will include bibliographic, chemical, 
# crystal, experimental, refinement or atomic coordinate data resulting 
# from the CCDC's data processing and validation procedures.
#
#######################################################################

data_IVIZAP
_chemical_formula_moiety         'C62 H102 B4 Li2 N4 O4,2(C35 H61 B2 Li1 N2 O4)'
_chemical_name_systematic        
"bis(\m~2~-(4-(Trihydridoboryl)-1,3-bis(2,6-di-isopropylphenyl)imidazol-2-ylidene)trihydridoborate-H,H',H'')-bis(1,2-dimethoxyethane)-di-lithium bis(((4-(trihydridoboryl)-1,3-bis(2,6-di-isopropylphenyl)imidazol-2-ylidene)trihydridoborate-H,H')-bis(1,2-dimethoxyethane)-lithium)"
_symmetry_cell_setting           monoclinic
_symmetry_space_group_name_H-M   'P 21/c'
_symmetry_Int_Tables_number      14
_space_group_name_Hall           '-P 2ybc'
loop_
_symmetry_equiv_pos_site_id
_symmetry_equiv_pos_as_xyz
1 x,y,z
2 -x,1/2+y,1/2-z
3 -x,-y,-z
4 x,1/2-y,1/2+z
_cell_length_a                   18.5090(17)
_cell_length_b                   16.5228(15)
_cell_length_c                   24.285(2)
_cell_angle_alpha                90
_cell_angle_beta                 96.2280(10)
_cell_angle_gamma                90
_cell_volume                     7383.02
_exptl_crystal_colour            colorless
_exptl_crystal_description       plate
_cell_formula_units_Z            2
_chemical_properties_physical    air-sensitive
loop_
_atom_site_label
_atom_site_type_symbol
_atom_site_fract_x
_atom_site_fract_y
_atom_site_fract_z
B1 B 0.2762(4) 0.8026(4) -0.0129(3)
H1 H 0.247(2) 0.844(2) 0.0132(15)
H2 H 0.281(3) 0.839(3) -0.055(2)
H3 H 0.3320(16) 0.782(3) 0.0067(19)
B2 B 0.0631(3) 0.5857(4) -0.0167(3)
H4 H 0.065(2) 0.562(2) 0.0272(18)
H5 H 0.0488(19) 0.536(2) -0.0494(15)
H6 H 0.0153(16) 0.626(2) -0.0217(16)
Li1 Li -0.0628(4) 0.5663(5) 0.0050(4)
N1 N 0.24236(18) 0.6617(2) -0.05933(15)
N2 N 0.16246(19) 0.7043(2) -0.00929(14)
C1 C 0.2272(2) 0.7237(3) -0.02669(19)
C2 C 0.1873(2) 0.6043(3) -0.06165(18)
H7 H 0.1863 0.5563 -0.0817
C3 C 0.1357(2) 0.6288(3) -0.03058(18)
C4 C 0.1251(2) 0.7560(3) 0.0265(2)
C5 C 0.1446(3) 0.7505(3) 0.0834(2)
C6 C 0.1103(3) 0.8036(4) 0.1167(2)
H8 H 0.1218 0.8017 0.1549
C7 C 0.0605(4) 0.8580(4) 0.0945(3)
H9 H 0.0386 0.8931 0.1176
C8 C 0.0425(3) 0.8613(3) 0.0383(3)
H10 H 0.0078 0.8985 0.0237
C9 C 0.0749(3) 0.8103(3) 0.0027(2)
C10 C 0.0559(3) 0.8176(3) -0.0594(2)
H11 H 0.0771 0.7708 -0.0764
C11 C -0.0257(3) 0.8156(4) -0.0771(2)
H12 H -0.0343 0.8190 -0.1168
H13 H -0.0485 0.8606 -0.0609
H14 H -0.0456 0.7660 -0.0648
C12 C 0.0900(4) 0.8929(4) -0.0817(3)
H15 H 0.0783 0.8954 -0.1212
H16 H 0.1418 0.8907 -0.0730
H17 H 0.0715 0.9402 -0.0651
C13 C 0.2012(3) 0.6910(4) 0.1092(2)
H18 H 0.2161 0.6571 0.0793
C14 C 0.1691(3) 0.6351(4) 0.1505(2)
H19 H 0.1274 0.6076 0.1323
H20 H 0.1547 0.6665 0.1807
H21 H 0.2049 0.5960 0.1643
C15 C 0.2684(3) 0.7327(4) 0.1366(3)
H22 H 0.3031 0.6928 0.1510
H23 H 0.2554 0.7662 0.1663
H24 H 0.2892 0.7656 0.1098
C16 C 0.3088(3) 0.6547(3) -0.0849(2)
C17 C 0.3649(3) 0.6095(3) -0.0591(2)
C18 C 0.4285(3) 0.6044(4) -0.0845(3)
H25 H 0.4674 0.5742 -0.0682
C19 C 0.4343(4) 0.6439(4) -0.1337(3)
H26 H 0.4774 0.6408 -0.1500
C20 C 0.3770(3) 0.6876(4) -0.1589(2)
H27 H 0.3816 0.7126 -0.1927
C21 C 0.3130(3) 0.6954(3) -0.1354(2)
C22 C 0.2499(3) 0.7424(3) -0.1643(2)
H28 H 0.2156 0.7526 -0.1370
C23 C 0.2100(3) 0.6931(4) -0.2111(3)
H29 H 0.1693 0.7236 -0.2280
H30 H 0.1931 0.6435 -0.1965
H31 H 0.2425 0.6813 -0.2382
C24 C 0.2726(3) 0.8239(4) -0.1853(3)
H32 H 0.2306 0.8521 -0.2022
H33 H 0.3064 0.8160 -0.2121
H34 H 0.2952 0.8552 -0.1549
C25 C 0.3596(3) 0.5676(4) -0.0041(2)
H35 H 0.3096 0.5739 0.0050
C26 C 0.4103(4) 0.6062(4) 0.0428(2)
H36 H 0.4057 0.5781 0.0768
H37 H 0.3973 0.6620 0.0468
H38 H 0.4596 0.6028 0.0343
C27 C 0.3749(3) 0.4771(4) -0.0081(3)
H39 H 0.3709 0.4520 0.0271
H40 H 0.4231 0.4691 -0.0182
H41 H 0.3403 0.4531 -0.0356
C28 C -0.1971(3) 0.5673(4) -0.0800(3)
H42 H -0.1667 0.5394 -0.1033
H43 H -0.2261 0.6066 -0.1015
H44 H -0.2284 0.5291 -0.0644
O1 O -0.15326(19) 0.6069(2) -0.03669(17)
C29 C -0.1946(3) 0.6494(5) -0.0008(3)
H45 H -0.2264 0.6123 0.0158
H46 H -0.2244 0.6896 -0.0216
C30 C -0.1468(4) 0.6886(4) 0.0419(3)
H47 H -0.1232 0.7345 0.0265
H48 H -0.1746 0.7083 0.0708
O2 O -0.0949(2) 0.6333(3) 0.06398(16)
C31 C -0.0461(3) 0.6639(5) 0.1091(3)
H49 H -0.0127 0.6221 0.1225
H50 H -0.0734 0.6811 0.1385
H51 H -0.0196 0.7091 0.0966
B1B B -0.2762(4) 0.1974(4) 0.0129(3)
H1B H -0.247(2) 0.156(2) -0.0132(15)
H2B H -0.281(3) 0.161(3) 0.055(2)
H3B H -0.3320(16) 0.218(3) -0.0067(19)
B2B B -0.0631(3) 0.4143(4) 0.0167(3)
H4B H -0.065(2) 0.438(2) -0.0272(18)
H5B H -0.0488(19) 0.464(2) 0.0494(15)
H6B H -0.0153(16) 0.374(2) 0.0217(16)
Li1B Li 0.0628(4) 0.4337(5) -0.0050(4)
N1B N -0.24236(18) 0.3383(2) 0.05933(15)
N2B N -0.16246(19) 0.2957(2) 0.00929(14)
C1B C -0.2272(2) 0.2763(3) 0.02669(19)
C2B C -0.1873(2) 0.3957(3) 0.06165(18)
H7B H -0.1863 0.4437 0.0817
C3B C -0.1357(2) 0.3712(3) 0.03058(18)
C4B C -0.1251(2) 0.2440(3) -0.0265(2)
C5B C -0.1446(3) 0.2495(3) -0.0834(2)
C6B C -0.1103(3) 0.1964(4) -0.1167(2)
H8B H -0.1218 0.1983 -0.1549
C7B C -0.0605(4) 0.1420(4) -0.0945(3)
H9B H -0.0386 0.1069 -0.1176
C8B C -0.0425(3) 0.1387(3) -0.0383(3)
H10B H -0.0078 0.1015 -0.0237
C9B C -0.0749(3) 0.1897(3) -0.0027(2)
C10B C -0.0559(3) 0.1824(3) 0.0594(2)
H11B H -0.0771 0.2292 0.0764
C11B C 0.0257(3) 0.1844(4) 0.0771(2)
H12B H 0.0343 0.1810 0.1168
H13B H 0.0485 0.1394 0.0609
H14B H 0.0456 0.2340 0.0648
C12B C -0.0900(4) 0.1071(4) 0.0817(3)
H15B H -0.0783 0.1046 0.1212
H16B H -0.1418 0.1093 0.0730
H17B H -0.0715 0.0598 0.0651
C13B C -0.2012(3) 0.3090(4) -0.1092(2)
H18B H -0.2161 0.3429 -0.0793
C14B C -0.1691(3) 0.3649(4) -0.1505(2)
H19B H -0.1274 0.3924 -0.1323
H20B H -0.1547 0.3335 -0.1807
H21B H -0.2049 0.4040 -0.1643
C15B C -0.2684(3) 0.2673(4) -0.1366(3)
H22B H -0.3031 0.3072 -0.1510
H23B H -0.2554 0.2338 -0.1663
H24B H -0.2892 0.2344 -0.1098
C16B C -0.3088(3) 0.3453(3) 0.0849(2)
C17B C -0.3649(3) 0.3905(3) 0.0591(2)
C18B C -0.4285(3) 0.3956(4) 0.0845(3)
H25B H -0.4674 0.4258 0.0682
C19B C -0.4343(4) 0.3561(4) 0.1337(3)
H26B H -0.4774 0.3592 0.1500
C20B C -0.3770(3) 0.3124(4) 0.1589(2)
H27B H -0.3816 0.2874 0.1927
C21B C -0.3130(3) 0.3046(3) 0.1354(2)
C22B C -0.2499(3) 0.2576(3) 0.1643(2)
H28B H -0.2156 0.2474 0.1370
C23B C -0.2100(3) 0.3069(4) 0.2111(3)
H29B H -0.1693 0.2764 0.2280
H30B H -0.1931 0.3565 0.1965
H31B H -0.2425 0.3187 0.2382
C24B C -0.2726(3) 0.1761(4) 0.1853(3)
H32B H -0.2306 0.1479 0.2022
H33B H -0.3064 0.1840 0.2121
H34B H -0.2952 0.1448 0.1549
C25B C -0.3596(3) 0.4324(4) 0.0041(2)
H35B H -0.3096 0.4261 -0.0050
C26B C -0.4103(4) 0.3938(4) -0.0428(2)
H36B H -0.4057 0.4219 -0.0768
H37B H -0.3973 0.3380 -0.0468
H38B H -0.4596 0.3972 -0.0343
C27B C -0.3749(3) 0.5229(4) 0.0081(3)
H39B H -0.3709 0.5480 -0.0271
H40B H -0.4231 0.5309 0.0182
H41B H -0.3403 0.5469 0.0356
C28B C 0.1971(3) 0.4327(4) 0.0800(3)
H42B H 0.1667 0.4606 0.1033
H43B H 0.2261 0.3934 0.1015
H44B H 0.2284 0.4709 0.0644
O1B O 0.15326(19) 0.3931(2) 0.03669(17)
C29B C 0.1946(3) 0.3506(5) 0.0008(3)
H45B H 0.2264 0.3877 -0.0158
H46B H 0.2244 0.3104 0.0216
C30B C 0.1468(4) 0.3114(4) -0.0419(3)
H47B H 0.1232 0.2655 -0.0265
H48B H 0.1746 0.2917 -0.0708
O2B O 0.0949(2) 0.3667(3) -0.06398(16)
C31B C 0.0461(3) 0.3361(5) -0.1091(3)
H49B H 0.0127 0.3779 -0.1225
H50B H 0.0734 0.3189 -0.1385
H51B H 0.0196 0.2909 -0.0966
B3 B 0.2434(4) 0.2663(5) 0.3201(3)
H52 H 0.1864(15) 0.262(3) 0.3349(19)
H53 H 0.289(2) 0.238(3) 0.348(2)
H54 H 0.257(3) 0.3316(19) 0.336(3)
B4 B 0.3403(4) 0.2414(5) 0.1219(3)
H55 H 0.308(2) 0.222(2) 0.0823(12)
H56 H 0.384(3) 0.191(3) 0.130(2)
H57 H 0.365(2) 0.306(3) 0.1153(18)
Li2 Li 0.3703(4) 0.1296(5) 0.0567(3)
N3 N 0.1904(2) 0.2348(2) 0.21768(17)
N4 N 0.30375(19) 0.2572(2) 0.22558(15)
C32 C 0.2462(3) 0.2526(3) 0.25561(19)
C33 C 0.2139(3) 0.2279(3) 0.1657(2)
H58 H 0.1842 0.2158 0.1334
C34 C 0.2858(2) 0.2413(3) 0.16861(19)
C35 C 0.3758(3) 0.2776(3) 0.24960(19)
C36 C 0.4194(3) 0.2163(4) 0.2749(2)
C37 C 0.4877(4) 0.2375(6) 0.2965(3)
H59 H 0.5181 0.1980 0.3136
C38 C 0.5128(4) 0.3136(7) 0.2939(3)
H60 H 0.5603 0.3252 0.3084
C39 C 0.4690(4) 0.3750(5) 0.2701(3)
H61 H 0.4863 0.4278 0.2692
C40 C 0.3987(3) 0.3566(4) 0.2474(2)
C41 C 0.3488(3) 0.4236(4) 0.2227(3)
H62 H 0.3053 0.3974 0.2041
C42 C 0.3814(4) 0.4745(4) 0.1795(3)
H63 H 0.3469 0.5148 0.1652
H64 H 0.3932 0.4403 0.1497
H65 H 0.4247 0.5006 0.1961
C43 C 0.3244(4) 0.4768(4) 0.2670(3)
H66 H 0.2924 0.5179 0.2504
H67 H 0.3659 0.5019 0.2872
H68 H 0.2992 0.4449 0.2919
C44 C 0.3925(4) 0.1307(5) 0.2794(3)
H69 H 0.3396 0.1312 0.2702
C45 C 0.4084(5) 0.0955(5) 0.3372(3)
H70 H 0.3894 0.0416 0.3378
H71 H 0.3860 0.1286 0.3631
H72 H 0.4600 0.0943 0.3473
C46 C 0.4245(6) 0.0756(5) 0.2380(4)
H73 H 0.4059 0.0218 0.2412
H74 H 0.4764 0.0749 0.2457
H75 H 0.4113 0.0955 0.2012
C47 C 0.1169(3) 0.2172(4) 0.2290(2)
C48 C 0.1005(3) 0.1374(4) 0.2387(2)
C49 C 0.0284(4) 0.1207(5) 0.2462(3)
H76 H 0.0147 0.0678 0.2528
C50 C -0.0223(4) 0.1809(7) 0.2441(3)
H77 H -0.0702 0.1681 0.2486
C51 C -0.0040(4) 0.2590(5) 0.2355(3)
H78 H -0.0390 0.2994 0.2355
C52 C 0.0669(3) 0.2788(4) 0.2268(2)
C53 C 0.0874(3) 0.3667(4) 0.2176(3)
H79 H 0.1371 0.3674 0.2072
C54 C 0.0380(4) 0.4054(4) 0.1703(3)
H80 H 0.0531 0.4602 0.1652
H81 H -0.0113 0.4050 0.1791
H82 H 0.0412 0.3754 0.1368
C55 C 0.0868(4) 0.4165(4) 0.2710(3)
H83 H 0.1005 0.4714 0.2642
H84 H 0.1206 0.3936 0.2995
H85 H 0.0389 0.4158 0.2826
C56 C 0.1571(3) 0.0707(4) 0.2422(3)
H86 H 0.2016 0.0936 0.2300
C57 C 0.1754(4) 0.0415(4) 0.3023(3)
H87 H 0.2120 0.0001 0.3034
H88 H 0.1325 0.0200 0.3157
H89 H 0.1933 0.0861 0.3251
C58 C 0.1339(4) -0.0002(4) 0.2038(3)
H90 H 0.1716 -0.0403 0.2065
H91 H 0.1254 0.0188 0.1663
H92 H 0.0900 -0.0236 0.2146
C63 C 0.2428(9) 0.0352(10) 0.0614(9)
H103 H 0.2203 0.0860 0.0684
H104 H 0.2154 -0.0080 0.0755
H105 H 0.2439 0.0284 0.0223
O5 O 0.3171(10) 0.0342(9) 0.0891(10)
C64 C 0.3680(9) -0.0385(8) 0.0804(10)
H106 H 0.3512 -0.0645 0.0455
H107 H 0.3642 -0.0776 0.1097
C65 C 0.4500(9) -0.0147(8) 0.0798(12)
H108 H 0.4740 -0.0280 0.1162
H109 H 0.4697 -0.0512 0.0539
O6 O 0.4761(7) 0.0701(8) 0.0662(5)
C66 C 0.5353(8) 0.1087(13) 0.1017(7)
H110 H 0.5420 0.1630 0.0892
H111 H 0.5794 0.0785 0.1000
H112 H 0.5235 0.1098 0.1392
C67 C 0.4993(9) 0.1823(17) 0.0002(11)
C68 C 0.3884(14) 0.2506(16) -0.0341(13)
C69 C 0.3238(19) 0.1969(19) -0.0506(11)
C70 C 0.250(2) 0.057(2) -0.0540(10)
H113 H 0.5240 0.1589 0.0333
H114 H 0.5208 0.2337 -0.0067
H115 H 0.5036 0.1468 -0.0306
H116 H 0.3750 0.3012 -0.0178
H117 H 0.4172 0.2608 -0.0645
H118 H 0.3268 0.1837 -0.0892
H119 H 0.2817 0.2318 -0.0501
H120 H 0.2202 0.0323 -0.0286
H121 H 0.2761 0.0165 -0.0715
H122 H 0.2190 0.0865 -0.0816
O7 O 0.4238(8) 0.1934(12) 0.0072(8)
O8 O 0.3022(19) 0.1151(17) -0.0229(9)
C59? C 0.4598(15) 0.2477(13) 0.0109(10)
H93? H 0.4799 0.2430 0.0489
H94? H 0.4299 0.2952 0.0064
H95? H 0.4984 0.2518 -0.0123
O3? O 0.4161(9) 0.1766(11) -0.0047(6)
C60? C 0.3795(12) 0.1700(17) -0.0593(6)
H96? H 0.4140 0.1581 -0.0856
H97? H 0.3549 0.2202 -0.0701
C61? C 0.3237(14) 0.0999(16) -0.0581(7)
H98? H 0.2864 0.1076 -0.0889
H99? H 0.3485 0.0497 -0.0647
O4? O 0.2854(11) 0.0889(17) -0.0052(7)
C62? C 0.2094(11) 0.0794(17) 0.0030(12)
H100? H 0.2047 0.0761 0.0419
H101? H 0.1908 0.0308 -0.0150
H102? H 0.1824 0.1251 -0.0126
C71? C 0.2796(15) -0.0101(13) 0.1146(15)
C72? C 0.4127(13) -0.0254(13) 0.087(2)
C73? C 0.4848(11) 0.0251(16) 0.0985(19)
C74? C 0.5470(15) 0.138(2) 0.0481(14)
H123? H 0.2343 0.0138 0.0999
H124? H 0.2893 0.0030 0.1532
H125? H 0.2769 -0.0678 0.1102
H126? H 0.4142 -0.0542 0.0523
H127? H 0.4121 -0.0657 0.1160
H128? H 0.4988 0.0236 0.1382
H129? H 0.5222 -0.0038 0.0814
H130? H 0.5368 0.1896 0.0313
H131? H 0.5511 0.0980 0.0197
H132? H 0.5918 0.1402 0.0720
O9? O 0.3403(11) 0.0227(11) 0.0837(12)
O10? O 0.4884(8) 0.1152(12) 0.0802(8)
loop_
_geom_bond_atom_site_label_1
_geom_bond_atom_site_label_2
_geom_bond_site_symmetry_1
_geom_bond_site_symmetry_2
B1 H1 1_555 1_555
H2 B1 1_555 1_555
H3 B1 1_555 1_555
B2 H4 1_555 1_555
H4 Li1B 1_555 1_555
H5 B2 1_555 1_555
H6 B2 1_555 1_555
Li1 H6 1_555 1_555
N1 C1 1_555 1_555
N2 C1 1_555 1_555
C1 B1 1_555 1_555
C2 N1 1_555 1_555
H7 C2 1_555 1_555
C3 B2 1_555 1_555
C4 N2 1_555 1_555
C5 C4 1_555 1_555
C6 C5 1_555 1_555
H8 C6 1_555 1_555
C7 C6 1_555 1_555
H9 C7 1_555 1_555
C8 C7 1_555 1_555
H10 C8 1_555 1_555
C9 C4 1_555 1_555
C10 C9 1_555 1_555
H11 C10 1_555 1_555
C11 C10 1_555 1_555
H12 C11 1_555 1_555
H13 C11 1_555 1_555
H14 C11 1_555 1_555
C12 C10 1_555 1_555
H15 C12 1_555 1_555
H16 C12 1_555 1_555
H17 C12 1_555 1_555
C13 C5 1_555 1_555
H18 C13 1_555 1_555
C14 C13 1_555 1_555
H19 C14 1_555 1_555
H20 C14 1_555 1_555
H21 C14 1_555 1_555
C15 C13 1_555 1_555
H22 C15 1_555 1_555
H23 C15 1_555 1_555
H24 C15 1_555 1_555
C16 N1 1_555 1_555
C17 C16 1_555 1_555
C18 C17 1_555 1_555
H25 C18 1_555 1_555
C19 C18 1_555 1_555
H26 C19 1_555 1_555
C20 C19 1_555 1_555
H27 C20 1_555 1_555
C21 C16 1_555 1_555
C22 C21 1_555 1_555
H28 C22 1_555 1_555
C23 C22 1_555 1_555
H29 C23 1_555 1_555
H30 C23 1_555 1_555
H31 C23 1_555 1_555
C24 C22 1_555 1_555
H32 C24 1_555 1_555
H33 C24 1_555 1_555
H34 C24 1_555 1_555
C25 C17 1_555 1_555
H35 C25 1_555 1_555
C26 C25 1_555 1_555
H36 C26 1_555 1_555
H37 C26 1_555 1_555
H38 C26 1_555 1_555
C27 C25 1_555 1_555
H39 C27 1_555 1_555
H40 C27 1_555 1_555
H41 C27 1_555 1_555
C28 H42 1_555 1_555
H43 C28 1_555 1_555
H44 C28 1_555 1_555
O1 Li1 1_555 1_555
C29 O1 1_555 1_555
H45 C29 1_555 1_555
H46 C29 1_555 1_555
C30 C29 1_555 1_555
H47 C30 1_555 1_555
H48 C30 1_555 1_555
O2 Li1 1_555 1_555
C31 O2 1_555 1_555
H49 C31 1_555 1_555
H50 C31 1_555 1_555
H51 C31 1_555 1_555
B3 H52 1_555 1_555
H53 B3 1_555 1_555
H54 B3 1_555 1_555
B4 H55 1_555 1_555
H55 Li2 1_555 1_555
H56 B4 1_555 1_555
H57 B4 1_555 1_555
Li2 H56 1_555 1_555
N3 C32 1_555 1_555
N4 C32 1_555 1_555
C32 B3 1_555 1_555
C33 N3 1_555 1_555
H58 C33 1_555 1_555
C34 B4 1_555 1_555
C35 N4 1_555 1_555
C36 C35 1_555 1_555
C37 C36 1_555 1_555
H59 C37 1_555 1_555
C38 C37 1_555 1_555
H60 C38 1_555 1_555
C39 C38 1_555 1_555
H61 C39 1_555 1_555
C40 C35 1_555 1_555
C41 C40 1_555 1_555
H62 C41 1_555 1_555
C42 C41 1_555 1_555
H63 C42 1_555 1_555
H64 C42 1_555 1_555
H65 C42 1_555 1_555
C43 C41 1_555 1_555
H66 C43 1_555 1_555
H67 C43 1_555 1_555
H68 C43 1_555 1_555
C44 C36 1_555 1_555
H69 C44 1_555 1_555
C45 C44 1_555 1_555
H70 C45 1_555 1_555
H71 C45 1_555 1_555
H72 C45 1_555 1_555
C46 C44 1_555 1_555
H73 C46 1_555 1_555
H74 C46 1_555 1_555
H75 C46 1_555 1_555
C47 N3 1_555 1_555
C48 C47 1_555 1_555
C49 C48 1_555 1_555
H76 C49 1_555 1_555
C50 C49 1_555 1_555
H77 C50 1_555 1_555
C51 C50 1_555 1_555
H78 C51 1_555 1_555
C52 C47 1_555 1_555
C53 C52 1_555 1_555
H79 C53 1_555 1_555
C54 C53 1_555 1_555
H80 C54 1_555 1_555
H81 C54 1_555 1_555
H82 C54 1_555 1_555
C55 C53 1_555 1_555
H83 C55 1_555 1_555
H84 C55 1_555 1_555
H85 C55 1_555 1_555
C56 C48 1_555 1_555
H86 C56 1_555 1_555
C57 C56 1_555 1_555
H87 C57 1_555 1_555
H88 C57 1_555 1_555
H89 C57 1_555 1_555
C58 C56 1_555 1_555
H90 C58 1_555 1_555
H91 C58 1_555 1_555
H92 C58 1_555 1_555
C63 H103 1_555 1_555
H104 C63 1_555 1_555
H105 C63 1_555 1_555
O5 Li2 1_555 1_555
C64 O5 1_555 1_555
H106 C64 1_555 1_555
H107 C64 1_555 1_555
C65 C64 1_555 1_555
H108 C65 1_555 1_555
H109 C65 1_555 1_555
O6 Li2 1_555 1_555
C66 O6 1_555 1_555
H110 C66 1_555 1_555
H111 C66 1_555 1_555
H112 C66 1_555 1_555
C67 H113 1_555 1_555
C68 C69 1_555 1_555
C69 H118 1_555 1_555
C70 H120 1_555 1_555
H114 C67 1_555 1_555
H115 C67 1_555 1_555
H116 C68 1_555 1_555
H117 C68 1_555 1_555
H119 C69 1_555 1_555
H121 C70 1_555 1_555
H122 C70 1_555 1_555
O7 Li2 1_555 1_555
O8 Li2 1_555 1_555
B1B H1B 1_555 1_555
H2B B1B 1_555 1_555
H3B B1B 1_555 1_555
B2B H4B 1_555 1_555
H4B Li1 1_555 1_555
H5B Li1 1_555 1_555
H6B B2B 1_555 1_555
Li1B H5 1_555 1_555
N1B C1B 1_555 1_555
N2B C1B 1_555 1_555
C1B B1B 1_555 1_555
C2B N1B 1_555 1_555
H7B C2B 1_555 1_555
C3B B2B 1_555 1_555
C4B N2B 1_555 1_555
C5B C4B 1_555 1_555
C6B C5B 1_555 1_555
H8B C6B 1_555 1_555
C7B C6B 1_555 1_555
H9B C7B 1_555 1_555
C8B C7B 1_555 1_555
H10B C8B 1_555 1_555
C9B C4B 1_555 1_555
C10B C9B 1_555 1_555
H11B C10B 1_555 1_555
C11B C10B 1_555 1_555
H12B C11B 1_555 1_555
H13B C11B 1_555 1_555
H14B C11B 1_555 1_555
C12B C10B 1_555 1_555
H15B C12B 1_555 1_555
H16B C12B 1_555 1_555
H17B C12B 1_555 1_555
C13B C5B 1_555 1_555
H18B C13B 1_555 1_555
C14B C13B 1_555 1_555
H19B C14B 1_555 1_555
H20B C14B 1_555 1_555
H21B C14B 1_555 1_555
C15B C13B 1_555 1_555
H22B C15B 1_555 1_555
H23B C15B 1_555 1_555
H24B C15B 1_555 1_555
C16B N1B 1_555 1_555
C17B C16B 1_555 1_555
C18B C17B 1_555 1_555
H25B C18B 1_555 1_555
C19B C18B 1_555 1_555
H26B C19B 1_555 1_555
C20B C19B 1_555 1_555
H27B C20B 1_555 1_555
C21B C16B 1_555 1_555
C22B C21B 1_555 1_555
H28B C22B 1_555 1_555
C23B C22B 1_555 1_555
H29B C23B 1_555 1_555
H30B C23B 1_555 1_555
H31B C23B 1_555 1_555
C24B C22B 1_555 1_555
H32B C24B 1_555 1_555
H33B C24B 1_555 1_555
H34B C24B 1_555 1_555
C25B C17B 1_555 1_555
H35B C25B 1_555 1_555
C26B C25B 1_555 1_555
H36B C26B 1_555 1_555
H37B C26B 1_555 1_555
H38B C26B 1_555 1_555
C27B C25B 1_555 1_555
H39B C27B 1_555 1_555
H40B C27B 1_555 1_555
H41B C27B 1_555 1_555
C28B H42B 1_555 1_555
H43B C28B 1_555 1_555
H44B C28B 1_555 1_555
O1B Li1B 1_555 1_555
C29B O1B 1_555 1_555
H45B C29B 1_555 1_555
H46B C29B 1_555 1_555
C30B C29B 1_555 1_555
H47B C30B 1_555 1_555
H48B C30B 1_555 1_555
O2B Li1B 1_555 1_555
C31B O2B 1_555 1_555
H49B C31B 1_555 1_555
H50B C31B 1_555 1_555
H51B C31B 1_555 1_555
N2 C3 1_555 1_555
C2 C3 1_555 1_555
C8 C9 1_555 1_555
C20 C21 1_555 1_555
C28 O1 1_555 1_555
C30 O2 1_555 1_555
N4 C34 1_555 1_555
C33 C34 1_555 1_555
C39 C40 1_555 1_555
C51 C52 1_555 1_555
C63 O5 1_555 1_555
C65 O6 1_555 1_555
C67 O7 1_555 1_555
C68 O7 1_555 1_555
C69 O8 1_555 1_555
C70 O8 1_555 1_555
B2B H5B 1_555 1_555
H6B Li1B 1_555 1_555
N2B C3B 1_555 1_555
C2B C3B 1_555 1_555
C8B C9B 1_555 1_555
C20B C21B 1_555 1_555
C28B O1B 1_555 1_555
C30B O2B 1_555 1_555

#END
