
#######################################################################
#
#                 Cambridge Crystallographic Data Centre
#                                CCDC 
#
#######################################################################
#
# If this CIF has been generated from an entry in the Cambridge 
# Structural Database, then it will include bibliographic, chemical, 
# crystal, experimental, refinement or atomic coordinate data resulting 
# from the CCDC's data processing and validation procedures.
#
#######################################################################

data_IVIZAO
_chemical_formula_moiety         'C29 H18 N2 O4'
_chemical_name_systematic        bis(Diphenimide)methane
_symmetry_cell_setting           monoclinic
_symmetry_space_group_name_H-M   'C 2/c'
_symmetry_Int_Tables_number      15
_space_group_name_Hall           '-C 2yn'
loop_
_symmetry_equiv_pos_site_id
_symmetry_equiv_pos_as_xyz
1 x,y,z
2 1/2+x,1/2+y,z
3 x,-y,1/2+z
4 1/2+x,1/2-y,1/2+z
5 -x,-y,-z
6 1/2-x,1/2-y,-z
7 -x,y,1/2-z
8 1/2-x,1/2+y,1/2-z
_cell_length_a                   17.325(3)
_cell_length_b                   8.587(2)
_cell_length_c                   14.868(3)
_cell_angle_alpha                90
_cell_angle_beta                 106.36(3)
_cell_angle_gamma                90
_cell_volume                     2122.35
_exptl_crystal_colour            colorless
_exptl_crystal_description       prism
_chemical_melting_point          340-343deg.C
_cell_formula_units_Z            4
loop_
_atom_site_label
_atom_site_type_symbol
_atom_site_fract_x
_atom_site_fract_y
_atom_site_fract_z
C1 C 0.35011(15) 0.3871(3) 0.55837(18)
C2 C 0.30930(16) 0.5298(3) 0.5496(2)
H1 H 0.3200 0.6073 0.5081
C3 C 0.25472(17) 0.5620(4) 0.5995(2)
H2 H 0.2285 0.6615 0.5928
C4 C 0.23779(17) 0.4521(4) 0.6582(2)
H3 H 0.1992 0.4737 0.6919
C5 C 0.27680(16) 0.3112(4) 0.6680(2)
H4 H 0.2649 0.2330 0.7082
C6 C 0.33352(15) 0.2782(3) 0.61987(18)
C7 C 0.40289(15) 0.3538(3) 0.49841(18)
C8 C 0.38371(17) 0.4179(3) 0.40816(18)
H5 H 0.3363 0.4811 0.3876
C9 C 0.43045(19) 0.3937(4) 0.3487(2)
H6 H 0.4155 0.4402 0.2875
C10 C 0.49912(19) 0.3032(4) 0.3768(2)
H7 H 0.5319 0.2857 0.3353
C11 C 0.51958(17) 0.2386(3) 0.46527(19)
H8 H 0.5669 0.1749 0.4851
C12 C 0.47288(15) 0.2624(3) 0.52664(17)
C13 C 0.50782(15) 0.1940(3) 0.62165(18)
C14 C 0.37380(15) 0.1250(3) 0.64300(17)
C15 C 0.5000 0.0270(4) 0.7500
H9 H 0.5388 -0.0386 0.7336
N1 N 0.45920(12) 0.1234(2) 0.66888(14)
O1 O 0.58129(11) 0.1862(2) 0.65482(13)
O2 O 0.33835(11) 0.0075(2) 0.65347(13)
H9F H 0.4612 -0.0386 0.7664
N1F N 0.54080(12) 0.1234(2) 0.83112(14)
C13F C 0.49218(15) 0.1940(3) 0.87835(18)
C12F C 0.52712(15) 0.2624(3) 0.97336(17)
C7F C 0.59711(15) 0.3538(3) 1.00159(18)
C1F C 0.64989(15) 0.3871(3) 0.94163(18)
C2F C 0.69070(16) 0.5298(3) 0.9504(2)
H1F H 0.6800 0.6073 0.9919
C3F C 0.74528(17) 0.5620(4) 0.9005(2)
H2F H 0.7715 0.6615 0.9072
C4F C 0.76221(17) 0.4521(4) 0.8418(2)
H3F H 0.8008 0.4737 0.8081
C5F C 0.72320(16) 0.3112(4) 0.8320(2)
H4F H 0.7351 0.2330 0.7918
C6F C 0.66648(15) 0.2782(3) 0.88013(18)
C14F C 0.62620(15) 0.1250(3) 0.85700(17)
O2F O 0.66165(11) 0.0075(2) 0.84653(13)
C8F C 0.61629(17) 0.4179(3) 1.09184(18)
H5F H 0.6637 0.4811 1.1124
C9F C 0.56955(19) 0.3937(4) 1.1513(2)
H6F H 0.5845 0.4402 1.2125
C10F C 0.50088(19) 0.3032(4) 1.1232(2)
H7F H 0.4681 0.2857 1.1647
C11F C 0.48042(17) 0.2386(3) 1.03473(19)
H8F H 0.4331 0.1749 1.0149
O1F O 0.41871(11) 0.1862(2) 0.84518(13)
loop_
_geom_bond_atom_site_label_1
_geom_bond_atom_site_label_2
_geom_bond_site_symmetry_1
_geom_bond_site_symmetry_2
C1 C2 1_555 1_555
C2 H1 1_555 1_555
C3 C2 1_555 1_555
H2 C3 1_555 1_555
C4 C3 1_555 1_555
H3 C4 1_555 1_555
C5 C4 1_555 1_555
H4 C5 1_555 1_555
C6 C1 1_555 1_555
C7 C1 1_555 1_555
C8 C7 1_555 1_555
H5 C8 1_555 1_555
C9 C8 1_555 1_555
H6 C9 1_555 1_555
C10 C9 1_555 1_555
H7 C10 1_555 1_555
C11 C10 1_555 1_555
H8 C11 1_555 1_555
C12 C7 1_555 1_555
C13 C12 1_555 1_555
C14 C6 1_555 1_555
C15 H9 1_555 1_555
N1 C13 1_555 1_555
O1 C13 1_555 1_555
O2 C14 1_555 1_555
H9F C15 1_555 1_555
N1F C15 1_555 1_555
C13F N1F 1_555 1_555
C12F C13F 1_555 1_555
C7F C12F 1_555 1_555
C1F C7F 1_555 1_555
C2F C1F 1_555 1_555
H1F C2F 1_555 1_555
C3F C2F 1_555 1_555
H2F C3F 1_555 1_555
C4F C3F 1_555 1_555
H3F C4F 1_555 1_555
C5F C4F 1_555 1_555
H4F C5F 1_555 1_555
C6F C1F 1_555 1_555
C14F N1F 1_555 1_555
O2F C14F 1_555 1_555
C8F C7F 1_555 1_555
H5F C8F 1_555 1_555
C9F C8F 1_555 1_555
H6F C9F 1_555 1_555
C10F C9F 1_555 1_555
H7F C10F 1_555 1_555
C11F C12F 1_555 1_555
H8F C11F 1_555 1_555
O1F C13F 1_555 1_555
C5 C6 1_555 1_555
C11 C12 1_555 1_555
C14 N1 1_555 1_555
C15 N1 1_555 1_555
C5F C6F 1_555 1_555
C6F C14F 1_555 1_555
C10F C11F 1_555 1_555

#END
