
#######################################################################
#
#                 Cambridge Crystallographic Data Centre
#                                CCDC 
#
#######################################################################
#
# If this CIF has been generated from an entry in the Cambridge 
# Structural Database, then it will include bibliographic, chemical, 
# crystal, experimental, refinement or atomic coordinate data resulting 
# from the CCDC's data processing and validation procedures.
#
#######################################################################

data_IVOBOM
_chemical_formula_moiety         'C37 H48 Br1 N1 O5'
_chemical_name_systematic        
'13-bromo-12-methoxy-1,2,6a,6b,9,9,15a-heptamethyl-11,14-dioxo-1,2,3,4,5,6,6a,6b,7,8,8a,9,10,11,14,15,15a,15b,16,17b-icosahydro-4aH-chryseno[2,1-b]carbazole-4a-carboxylic acid unknown solvate'
_symmetry_cell_setting           orthorhombic
_symmetry_space_group_name_H-M   'P 21 21 21'
_symmetry_Int_Tables_number      19
_space_group_name_Hall           'P 2ac 2ab'
loop_
_symmetry_equiv_pos_site_id
_symmetry_equiv_pos_as_xyz
1 x,y,z
2 1/2-x,-y,1/2+z
3 -x,1/2+y,1/2-z
4 1/2+x,1/2-y,-z
_cell_length_a                   16.846(3)
_cell_length_b                   18.844(4)
_cell_length_c                   11.262(2)
_cell_angle_alpha                90
_cell_angle_beta                 90
_cell_angle_gamma                90
_cell_volume                     3575.08
_exptl_crystal_colour            red
_exptl_crystal_description       block
_cell_formula_units_Z            4
loop_
_atom_site_label
_atom_site_type_symbol
_atom_site_fract_x
_atom_site_fract_y
_atom_site_fract_z
Br1 Br 0.35825(7) 0.93882(6) 0.47516(9)
N1 N 0.3612(5) 1.1000(4) 0.0091(6)
H1 H 0.3344 1.1348 -0.0198
O1 O 0.8085(4) 0.7511(4) -0.5642(7)
H2 H 0.7879 0.7168 -0.5965
C1 C 0.7282(6) 0.9091(6) -0.2938(9)
O2 O 0.7388(4) 0.7095(4) -0.4102(7)
C2 C 0.7652(6) 0.9058(6) -0.4208(9)
H3 H 0.7299 0.8790 -0.4721
H4 H 0.7686 0.9536 -0.4523
O3 O 0.2509(4) 1.1435(4) 0.2045(6)
C3 C 0.8490(6) 0.8715(5) -0.4253(9)
H5 H 0.8857 0.9004 -0.3798
H6 H 0.8674 0.8706 -0.5069
O4 O 0.2507(4) 1.0617(5) 0.4088(6)
C4 C 0.8491(7) 0.7948(6) -0.3749(9)
O5 O 0.4605(5) 0.9219(5) 0.2534(6)
C5 C 0.9313(6) 0.7552(6) -0.3883(9)
H7 H 0.9247 0.7054 -0.3689
H8 H 0.9493 0.7585 -0.4699
C6 C 0.9918(5) 0.7870(6) -0.3086(11)
H9 H 1.0004 0.8361 -0.3309
H10 H 1.0416 0.7618 -0.3179
C7 C 0.9657(7) 0.7836(6) -0.1785(12)
H11 H 0.9576 0.7334 -0.1592
C8 C 0.8860(6) 0.8212(6) -0.1599(9)
H12 H 0.8944 0.8715 -0.1777
C9 C 0.8218(6) 0.7947(6) -0.2434(10)
H13 H 0.8114 0.7452 -0.2220
C10 C 0.7411(6) 0.8354(6) -0.2312(9)
C11 C 0.6849(6) 0.8097(6) -0.1632(10)
H14 H 0.6939 0.7651 -0.1305
C12 C 0.6094(6) 0.8441(6) -0.1333(10)
H15 H 0.6033 0.8447 -0.0477
H16 H 0.5662 0.8162 -0.1660
C13 C 0.6032(5) 0.9177(6) -0.1786(8)
H17 H 0.6402 0.9450 -0.1294
C14 C 0.6355(6) 0.9237(5) -0.3018(8)
C15 C 0.6220(6) 0.9997(6) -0.3536(9)
H18 H 0.6590 1.0321 -0.3163
H19 H 0.6337 0.9989 -0.4380
C16 C 0.5373(6) 1.0279(5) -0.3358(8)
H20 H 0.5334 1.0752 -0.3690
H21 H 0.5002 0.9976 -0.3778
C17 C 0.5152(6) 1.0300(6) -0.2031(8)
H22 H 0.5597 1.0544 -0.1646
C18 C 0.5165(5) 0.9517(6) -0.1500(9)
C19 C 0.5117(6) 0.9564(5) -0.0152(9)
H23 H 0.5628 0.9710 0.0163
H24 H 0.4993 0.9100 0.0172
C20 C 0.4474(5) 1.0101(5) 0.0227(9)
C21 C 0.4185(6) 1.0618(6) -0.0487(9)
C22 C 0.4408(6) 1.0783(6) -0.1769(9)
C23 C 0.3545(6) 1.0732(6) 0.1202(8)
C24 C 0.2992(6) 1.0948(6) 0.2121(10)
C25 C 0.3056(7) 1.0505(7) 0.3247(10)
C26 C 0.3569(7) 0.9947(6) 0.3368(8)
C27 C 0.4120(6) 0.9724(7) 0.2433(10)
C28 C 0.4081(6) 1.0154(6) 0.1292(10)
C29 C 0.7730(6) 0.9681(5) -0.2247(9)
H25 H 0.8283 0.9564 -0.2201
H26 H 0.7515 0.9719 -0.1460
H27 H 0.7667 1.0126 -0.2653
C30 C 0.7935(7) 0.7491(6) -0.4471(11)
C31 C 0.8576(7) 0.8166(6) -0.0284(9)
H28 H 0.8092 0.8429 -0.0193
H29 H 0.8976 0.8361 0.0228
H30 H 0.8484 0.7678 -0.0077
C32 C 1.0312(7) 0.8120(6) -0.0927(12)
H31 H 1.0792 0.7852 -0.1039
H32 H 1.0136 0.8070 -0.0121
H33 H 1.0412 0.8611 -0.1094
C33 C 0.5983(6) 0.8714(6) -0.3893(10)
H34 H 0.5435 0.8643 -0.3694
H35 H 0.6259 0.8269 -0.3852
H36 H 0.6022 0.8902 -0.4683
C34 C 0.4467(6) 0.9042(6) -0.1921(9)
H37 H 0.3973 0.9277 -0.1760
H38 H 0.4483 0.8598 -0.1505
H39 H 0.4514 0.8958 -0.2759
C35 C 0.4644(6) 1.1567(6) -0.1869(9)
H40 H 0.4189 1.1859 -0.1715
H41 H 0.4837 1.1660 -0.2656
H42 H 0.5052 1.1671 -0.1301
C36 C 0.3717(6) 1.0681(6) -0.2582(8)
H43 H 0.3293 1.0992 -0.2349
H44 H 0.3540 1.0198 -0.2539
H45 H 0.3874 1.0789 -0.3382
C37 C 0.2484(6) 1.1279(6) 0.4686(10)
H46 H 0.2078 1.1268 0.5283
H47 H 0.2371 1.1650 0.4127
H48 H 0.2989 1.1367 0.5054
loop_
_geom_bond_atom_site_label_1
_geom_bond_atom_site_label_2
_geom_bond_site_symmetry_1
_geom_bond_site_symmetry_2
Br1 C26 1_555 1_555
N1 H1 1_555 1_555
O1 H2 1_555 1_555
C1 C2 1_555 1_555
O2 C30 1_555 1_555
C2 H3 1_555 1_555
H4 C2 1_555 1_555
O3 C24 1_555 1_555
C3 C2 1_555 1_555
H5 C3 1_555 1_555
H6 C3 1_555 1_555
O4 C25 1_555 1_555
C4 C3 1_555 1_555
O5 C27 1_555 1_555
C5 C4 1_555 1_555
H7 C5 1_555 1_555
H8 C5 1_555 1_555
C6 C5 1_555 1_555
H9 C6 1_555 1_555
H10 C6 1_555 1_555
C7 C6 1_555 1_555
H11 C7 1_555 1_555
C8 C7 1_555 1_555
H12 C8 1_555 1_555
C9 C4 1_555 1_555
H13 C9 1_555 1_555
C10 C1 1_555 1_555
C11 C10 1_555 1_555
H14 C11 1_555 1_555
C12 C11 1_555 1_555
H15 C12 1_555 1_555
H16 C12 1_555 1_555
C13 C12 1_555 1_555
H17 C13 1_555 1_555
C14 C1 1_555 1_555
C15 C14 1_555 1_555
H18 C15 1_555 1_555
H19 C15 1_555 1_555
C16 C15 1_555 1_555
H20 C16 1_555 1_555
H21 C16 1_555 1_555
C17 C16 1_555 1_555
H22 C17 1_555 1_555
C18 C13 1_555 1_555
C19 C18 1_555 1_555
H23 C19 1_555 1_555
H24 C19 1_555 1_555
C20 C19 1_555 1_555
C21 N1 1_555 1_555
C22 C17 1_555 1_555
C23 N1 1_555 1_555
C24 C23 1_555 1_555
C25 C24 1_555 1_555
C26 C25 1_555 1_555
C27 C26 1_555 1_555
C28 C20 1_555 1_555
C29 C1 1_555 1_555
H25 C29 1_555 1_555
H26 C29 1_555 1_555
H27 C29 1_555 1_555
C30 O1 1_555 1_555
C31 C8 1_555 1_555
H28 C31 1_555 1_555
H29 C31 1_555 1_555
H30 C31 1_555 1_555
C32 C7 1_555 1_555
H31 C32 1_555 1_555
H32 C32 1_555 1_555
H33 C32 1_555 1_555
C33 C14 1_555 1_555
H34 C33 1_555 1_555
H35 C33 1_555 1_555
H36 C33 1_555 1_555
C34 C18 1_555 1_555
H37 C34 1_555 1_555
H38 C34 1_555 1_555
H39 C34 1_555 1_555
C35 C22 1_555 1_555
H40 C35 1_555 1_555
H41 C35 1_555 1_555
H42 C35 1_555 1_555
C36 C22 1_555 1_555
H43 C36 1_555 1_555
H44 C36 1_555 1_555
H45 C36 1_555 1_555
C37 O4 1_555 1_555
H46 C37 1_555 1_555
H47 C37 1_555 1_555
H48 C37 1_555 1_555
C4 C30 1_555 1_555
C8 C9 1_555 1_555
C9 C10 1_555 1_555
C13 C14 1_555 1_555
C17 C18 1_555 1_555
C20 C21 1_555 1_555
C21 C22 1_555 1_555
C23 C28 1_555 1_555
C27 C28 1_555 1_555

#END
