
#######################################################################
#
#                 Cambridge Crystallographic Data Centre
#                                CCDC 
#
#######################################################################
#
# If this CIF has been generated from an entry in the Cambridge 
# Structural Database, then it will include bibliographic, chemical, 
# crystal, experimental, refinement or atomic coordinate data resulting 
# from the CCDC's data processing and validation procedures.
#
#######################################################################

data_IVOBOK
_chemical_formula_moiety         'C10 H8,C6 F6'
_chemical_name_systematic        'Naphthalene hexafluorobenzene'
_symmetry_cell_setting           monoclinic
_symmetry_space_group_name_H-M   'C 2/c'
_symmetry_Int_Tables_number      15
_space_group_name_Hall           '-C 2yn'
loop_
_symmetry_equiv_pos_site_id
_symmetry_equiv_pos_as_xyz
1 x,y,z
2 1/2+x,1/2+y,z
3 x,-y,1/2+z
4 1/2+x,1/2-y,1/2+z
5 -x,-y,-z
6 1/2-x,1/2-y,-z
7 -x,y,1/2-z
8 1/2-x,1/2+y,1/2-z
_cell_length_a                   11.806(1)
_cell_length_b                   13.508(1)
_cell_length_c                   8.426(2)
_cell_angle_alpha                90
_cell_angle_beta                 97.15(1)
_cell_angle_gamma                90
_cell_volume                     1333.29
_exptl_crystal_colour            colorless
_exptl_crystal_description       block
_chemical_melting_point          94-95deg.C
_cell_formula_units_Z            4
loop_
_atom_site_label
_atom_site_type_symbol
_atom_site_fract_x
_atom_site_fract_y
_atom_site_fract_z
C1 C 0.5000 0.11823(19) 0.7500
C2 C 0.55857(16) 0.16880(15) 0.6450(2)
C3 C 0.55947(15) 0.27102(14) 0.6454(2)
C4 C 0.5000 0.32207(18) 0.7500
F1 F 0.5000 0.01867(12) 0.7500
F2 F 0.61451(12) 0.11958(10) 0.54028(16)
F3 F 0.61805(11) 0.32049(10) 0.54476(15)
F4 F 0.5000 0.42154(11) 0.7500
C3F C 0.44053(15) 0.27102(14) 0.8546(2)
C2F C 0.44143(16) 0.16880(15) 0.8550(2)
F2F F 0.38549(12) 0.11958(10) 0.95972(16)
F3F F 0.38195(11) 0.32049(10) 0.95524(15)
C5 C 0.27045(17) 0.11705(15) 0.4488(3)
H1 H 0.306(2) 0.0833(17) 0.376(3)
C6 C 0.21116(19) 0.07087(16) 0.5572(3)
H2 H 0.206(2) -0.0017(19) 0.561(3)
C7 C 0.15703(19) 0.12595(17) 0.6659(3)
H3 H 0.116(2) 0.0938(18) 0.740(3)
C8 C 0.16150(16) 0.22692(16) 0.6657(2)
H4 H 0.124(2) 0.2663(16) 0.743(3)
C9 C 0.27776(14) 0.22193(13) 0.44493(19)
C9E C 0.22224(14) 0.27807(13) 0.55507(19)
C5E C 0.22955(17) 0.38295(15) 0.5512(3)
H1E H 0.194(2) 0.4167(17) 0.624(3)
C6E C 0.28884(19) 0.42913(16) 0.4428(3)
H2E H 0.294(2) 0.5017(19) 0.439(3)
C7E C 0.34297(19) 0.37405(17) 0.3341(3)
H3E H 0.384(2) 0.4062(18) 0.260(3)
C8E C 0.33850(16) 0.27308(16) 0.3343(2)
H4E H 0.376(2) 0.2337(16) 0.257(3)
loop_
_geom_bond_atom_site_label_1
_geom_bond_atom_site_label_2
_geom_bond_site_symmetry_1
_geom_bond_site_symmetry_2
C1 C2 1_555 1_555
C2 C3 1_555 1_555
C3 C4 1_555 1_555
C4 F4 1_555 1_555
F1 C1 1_555 1_555
F2 C2 1_555 1_555
F3 C3 1_555 1_555
C5 H1 1_555 1_555
C6 C5 1_555 1_555
H2 C6 1_555 1_555
C7 C6 1_555 1_555
H3 C7 1_555 1_555
C8 C7 1_555 1_555
H4 C8 1_555 1_555
C9 C5 1_555 1_555
C3F C4 1_555 1_555
C2F C1 1_555 1_555
F2F C2F 1_555 1_555
F3F C3F 1_555 1_555
C9E C8 1_555 1_555
C5E C9E 1_555 1_555
H1E C5E 1_555 1_555
C6E C5E 1_555 1_555
H2E C6E 1_555 1_555
C7E C6E 1_555 1_555
H3E C7E 1_555 1_555
C8E C9 1_555 1_555
H4E C8E 1_555 1_555
C9 C9E 1_555 1_555
C3F C2F 1_555 1_555
C7E C8E 1_555 1_555

#END
