
#######################################################################
#
#                 Cambridge Crystallographic Data Centre
#                                CCDC 
#
#######################################################################
#
# If this CIF has been generated from an entry in the Cambridge 
# Structural Database, then it will include bibliographic, chemical, 
# crystal, experimental, refinement or atomic coordinate data resulting 
# from the CCDC's data processing and validation procedures.
#
#######################################################################

data_IVOHUY
_chemical_formula_moiety         'C30 H27 N1 O3 S1'
_chemical_name_systematic        
8-((4-methylphenyl)sulfonyl)-4,9-diphenyl-1,3,6,7,8,9-hexahydrofuro[3,4-h]isoquinoline
_symmetry_cell_setting           monoclinic
_symmetry_space_group_name_H-M   'P 21/n'
_symmetry_Int_Tables_number      14
_space_group_name_Hall           '-P 2yn'
loop_
_symmetry_equiv_pos_site_id
_symmetry_equiv_pos_as_xyz
1 x,y,z
2 1/2-x,1/2+y,1/2-z
3 -x,-y,-z
4 1/2+x,1/2-y,1/2+z
_cell_length_a                   15.7071(15)
_cell_length_b                   9.4810(7)
_cell_length_c                   17.8828(18)
_cell_angle_alpha                90
_cell_angle_beta                 111.590(12)
_cell_angle_gamma                90
_cell_volume                     2476.25
_exptl_crystal_colour            colorless
_exptl_crystal_description       block
_cell_formula_units_Z            4
loop_
_atom_site_label
_atom_site_type_symbol
_atom_site_fract_x
_atom_site_fract_y
_atom_site_fract_z
S1 S 0.74828(4) 0.65293(7) 0.16423(3)
O1 O 0.72215(12) 0.79554(19) 0.14301(10)
O2 O 0.68630(11) 0.5584(2) 0.17889(10)
O3 O 0.88283(14) -0.00311(18) 0.12147(14)
N1 N 0.77206(12) 0.58607(18) 0.09049(10)
C1 C 0.84820(14) 0.6557(2) 0.25050(12)
C2 C 0.89842(17) 0.7767(2) 0.27263(14)
H1 H 0.8797 0.8585 0.2422
C3 C 0.97732(19) 0.7763(3) 0.34063(17)
H2 H 1.0119 0.8585 0.3550
C4 C 1.00590(18) 0.6600(4) 0.38704(15)
C5 C 0.9555(2) 0.5403(3) 0.36325(17)
H3 H 0.9749 0.4587 0.3937
C6 C 0.87664(19) 0.5360(3) 0.29556(16)
H4 H 0.8432 0.4529 0.2807
C7 C 1.0915(2) 0.6643(5) 0.46233(18)
H5 H 1.1358 0.7255 0.4538
H6 H 1.1165 0.5710 0.4746
H7 H 1.0766 0.6993 0.5064
C8 C 0.82569(16) 0.6677(2) 0.05368(14)
H8 H 0.8191 0.7674 0.0624
H9 H 0.8019 0.6510 -0.0039
C9 C 0.92600(16) 0.6288(2) 0.08807(14)
H10 H 0.9558 0.6664 0.0535
H11 H 0.9542 0.6723 0.1406
C10 C 0.94141(15) 0.4715(2) 0.09621(12)
C11 C 0.87014(15) 0.3809(2) 0.09309(12)
C12 C 0.77470(15) 0.4327(2) 0.08011(12)
H12 H 0.7563 0.3886 0.1214
C13 C 0.70325(15) 0.3928(2) -0.00145(13)
C14 C 0.61316(18) 0.3776(3) -0.00973(17)
H13 H 0.5971 0.3882 0.0351
C15 C 0.5464(2) 0.3470(3) -0.0831(2)
H14 H 0.4859 0.3369 -0.0873
C16 C 0.5681(2) 0.3315(3) -0.14902(19)
H15 H 0.5228 0.3104 -0.1985
C17 C 0.6564(2) 0.3469(3) -0.14257(16)
H16 H 0.6714 0.3373 -0.1880
C18 C 0.72464(18) 0.3767(3) -0.06884(14)
H17 H 0.7850 0.3860 -0.0651
C19 C 0.88907(16) 0.2374(2) 0.10238(12)
C20 C 0.82694(18) 0.1189(2) 0.10585(17)
H18 H 0.8037 0.1346 0.1485
H19 H 0.7756 0.1100 0.0552
C21 C 0.97210(19) 0.0265(2) 0.12581(17)
H20 H 0.9853 -0.0232 0.0839
H21 H 1.0166 -0.0014 0.1776
C22 C 0.97464(17) 0.1842(2) 0.11442(13)
C23 C 1.04759(16) 0.2726(2) 0.11952(12)
C24 C 1.02727(15) 0.4161(2) 0.10909(13)
H22 H 1.0739 0.4780 0.1109
C25 C 1.14246(17) 0.2196(2) 0.13952(14)
C26 C 1.1612(2) 0.0924(3) 0.11083(17)
H23 H 1.1134 0.0403 0.0749
C27 C 1.2498(3) 0.0412(4) 0.1347(2)
H24 H 1.2609 -0.0448 0.1149
C28 C 1.3206(3) 0.1155(5) 0.1868(3)
H25 H 1.3798 0.0794 0.2040
C29 C 1.3047(2) 0.2430(4) 0.2137(2)
H26 H 1.3533 0.2956 0.2480
C30 C 1.21661(19) 0.2948(3) 0.19039(17)
H27 H 1.2069 0.3823 0.2093
loop_
_geom_bond_atom_site_label_1
_geom_bond_atom_site_label_2
_geom_bond_site_symmetry_1
_geom_bond_site_symmetry_2
S1 O1 1_555 1_555
O2 S1 1_555 1_555
O3 C20 1_555 1_555
N1 S1 1_555 1_555
C1 S1 1_555 1_555
C2 C1 1_555 1_555
H1 C2 1_555 1_555
C3 C2 1_555 1_555
H2 C3 1_555 1_555
C4 C3 1_555 1_555
C5 C4 1_555 1_555
H3 C5 1_555 1_555
C6 C1 1_555 1_555
H4 C6 1_555 1_555
C7 C4 1_555 1_555
H5 C7 1_555 1_555
H6 C7 1_555 1_555
H7 C7 1_555 1_555
C8 N1 1_555 1_555
H8 C8 1_555 1_555
H9 C8 1_555 1_555
C9 C8 1_555 1_555
H10 C9 1_555 1_555
H11 C9 1_555 1_555
C10 C9 1_555 1_555
C11 C10 1_555 1_555
C12 N1 1_555 1_555
H12 C12 1_555 1_555
C13 C12 1_555 1_555
C14 C13 1_555 1_555
H13 C14 1_555 1_555
C15 C14 1_555 1_555
H14 C15 1_555 1_555
C16 C15 1_555 1_555
H15 C16 1_555 1_555
C17 C16 1_555 1_555
H16 C17 1_555 1_555
C18 C13 1_555 1_555
H17 C18 1_555 1_555
C19 C11 1_555 1_555
C20 C19 1_555 1_555
H18 C20 1_555 1_555
H19 C20 1_555 1_555
C21 O3 1_555 1_555
H20 C21 1_555 1_555
H21 C21 1_555 1_555
C22 C19 1_555 1_555
C23 C22 1_555 1_555
C24 C10 1_555 1_555
H22 C24 1_555 1_555
C25 C23 1_555 1_555
C26 C25 1_555 1_555
H23 C26 1_555 1_555
C27 C26 1_555 1_555
H24 C27 1_555 1_555
C28 C27 1_555 1_555
H25 C28 1_555 1_555
C29 C28 1_555 1_555
H26 C29 1_555 1_555
C30 C25 1_555 1_555
H27 C30 1_555 1_555
C5 C6 1_555 1_555
C11 C12 1_555 1_555
C17 C18 1_555 1_555
C21 C22 1_555 1_555
C23 C24 1_555 1_555
C29 C30 1_555 1_555

#END
