
#######################################################################
#
#                 Cambridge Crystallographic Data Centre
#                                CCDC 
#
#######################################################################
#
# If this CIF has been generated from an entry in the Cambridge 
# Structural Database, then it will include bibliographic, chemical, 
# crystal, experimental, refinement or atomic coordinate data resulting 
# from the CCDC's data processing and validation procedures.
#
#######################################################################

data_IVOJAG
_chemical_formula_moiety         'C58 H72 N2 O2 S6'
_chemical_name_systematic        
2,5-bis(2-ethylhexyl)-3,6-bis(5''-hexyl-2,2':5',2''-terthiophen-5-yl)-2,5-dihydropyrrolo[3,4-c]pyrrole-1,4-dione
_symmetry_cell_setting           triclinic
_symmetry_space_group_name_H-M   'P -1'
_symmetry_Int_Tables_number      2
_space_group_name_Hall           '-P 1'
loop_
_symmetry_equiv_pos_site_id
_symmetry_equiv_pos_as_xyz
1 x,y,z
2 -x,-y,-z
_cell_length_a                   9.7756(8)
_cell_length_b                   10.5354(9)
_cell_length_c                   14.2909(12)
_cell_angle_alpha                80.888(4)
_cell_angle_beta                 87.554(4)
_cell_angle_gamma                67.288(4)
_cell_volume                     1340.28
_exptl_crystal_colour            'dark blue'
_exptl_crystal_description       Blade
_cell_formula_units_Z            1
loop_
_atom_site_label
_atom_site_type_symbol
_atom_site_fract_x
_atom_site_fract_y
_atom_site_fract_z
C1 C -0.7221(11) 1.7187(7) 0.5677(5)
H1 H -0.6637 1.7372 0.6139
H2 H -0.8199 1.7949 0.5586
H3 H -0.6708 1.7118 0.5071
C2 C -0.7401(9) 1.5854(6) 0.6031(4)
H4 H -0.7926 1.5640 0.5538
H5 H -0.8029 1.5973 0.6598
C3 C -0.5926(7) 1.4616(6) 0.6289(4)
H6 H -0.5312 1.4473 0.5716
H7 H -0.5384 1.4842 0.6765
C4 C -0.6120(6) 1.3276(5) 0.6681(3)
H8 H -0.6602 1.3016 0.6189
H9 H -0.6789 1.3437 0.7228
C5 C -0.4665(5) 1.2073(5) 0.6996(3)
H10 H -0.3998 1.1898 0.6449
H11 H -0.4176 1.2331 0.7485
C6 C -0.4902(5) 1.0750(5) 0.7396(3)
H12 H -0.5674 1.0972 0.7884
H13 H -0.5290 1.0448 0.6880
C7 C -0.3547(5) 0.9550(5) 0.7831(3)
C8 C -0.0972(4) 0.7903(4) 0.8317(3)
C9 C 0.0631(4) 0.7216(4) 0.8416(3)
C10 C 0.3205(4) 0.5439(4) 0.8742(3)
C11 C 0.4462(4) 0.4153(4) 0.9014(3)
C12 C 0.7010(4) 0.2347(4) 0.9329(3)
C13 C 0.8574(4) 0.1529(4) 0.9475(3)
C14 C 0.9224(4) 0.0212(4) 0.9999(3)
C15 C 0.1717(5) 0.7711(4) 0.8123(3)
H14 H 0.1507 0.8641 0.7826
C16 C 0.3164(5) 0.6713(4) 0.8304(3)
H15 H 0.4027 0.6900 0.8140
C17 C 0.5923(4) 0.1834(4) 0.9532(3)
H16 H 0.6125 0.0884 0.9773
C18 C 0.4479(4) 0.2843(4) 0.9350(3)
H17 H 0.3609 0.2646 0.9447
C19 C 1.1132(4) 0.0899(4) 0.9443(3)
C20 C 0.9644(4) 0.3157(4) 0.8456(3)
H18 H 1.0586 0.3295 0.8488
H19 H 0.8838 0.3991 0.8638
C21 C 0.9360(6) 0.3042(5) 0.7418(3)
H20 H 0.8383 0.2954 0.7369
C22 C 1.0591(7) 0.1775(7) 0.7102(4)
H21 H 1.1524 0.1940 0.7076
H22 H 1.0733 0.0960 0.7597
C23 C 0.9336(8) 0.4356(6) 0.6761(4)
H23 H 1.0017 0.4705 0.7029
H24 H 0.9719 0.4100 0.6136
C24 C 0.7889(7) 0.5467(6) 0.6622(4)
H25 H 0.7491 0.5714 0.7246
H26 H 0.7211 0.5133 0.6334
C25 C 0.7913(8) 0.6758(6) 0.5992(4)
H27 H 0.8394 0.6491 0.5390
H28 H 0.8526 0.7133 0.6307
C26 C 0.6352(9) 0.7925(7) 0.5762(5)
H29 H 0.5745 0.7572 0.5433
H30 H 0.6451 0.8725 0.5355
H31 H 0.5875 0.8213 0.6353
C27 C 1.0361(9) 0.1398(9) 0.6158(4)
H32 H 0.9665 0.0925 0.6231
H33 H 1.1312 0.0778 0.5939
H34 H 0.9955 0.2247 0.5692
C28 C -0.3498(5) 0.8404(5) 0.8438(3)
H35 H -0.4360 0.8249 0.8656
C29 C -0.2039(5) 0.7458(5) 0.8715(3)
H36 H -0.1824 0.6606 0.9133
N1 N 0.9727(3) 0.1942(3) 0.9140(2)
O1 O 1.2299(3) 0.1039(3) 0.9233(2)
S1 S -0.17795(11) 0.94855(11) 0.75841(8)
S2 S 0.14217(11) 0.54950(10) 0.89464(7)
S3 S 0.62371(10) 0.41220(10) 0.89160(7)
C1A C 2.7221(11) -1.7187(7) 1.4323(5)
H1A H 2.6637 -1.7372 1.3861
H2A H 2.8199 -1.7949 1.4414
H3A H 2.6708 -1.7118 1.4929
C2A C 2.7401(9) -1.5854(6) 1.3969(4)
H4A H 2.7926 -1.5640 1.4462
H5A H 2.8029 -1.5973 1.3402
C3A C 2.5926(7) -1.4616(6) 1.3711(4)
H6A H 2.5312 -1.4473 1.4284
H7A H 2.5384 -1.4842 1.3235
C4A C 2.6120(6) -1.3276(5) 1.3319(3)
H8A H 2.6602 -1.3016 1.3811
H9A H 2.6789 -1.3437 1.2772
C5A C 2.4665(5) -1.2073(5) 1.3004(3)
H10A H 2.3998 -1.1898 1.3551
H11A H 2.4176 -1.2331 1.2515
C6A C 2.4902(5) -1.0750(5) 1.2604(3)
H12A H 2.5674 -1.0972 1.2116
H13A H 2.5290 -1.0448 1.3120
C7A C 2.3547(5) -0.9550(5) 1.2169(3)
C8A C 2.0972(4) -0.7903(4) 1.1683(3)
C9A C 1.9369(4) -0.7216(4) 1.1584(3)
C10A C 1.6795(4) -0.5439(4) 1.1258(3)
C11A C 1.5538(4) -0.4153(4) 1.0986(3)
C12A C 1.2990(4) -0.2347(4) 1.0671(3)
C13A C 1.1426(4) -0.1529(4) 1.0525(3)
C14A C 1.0776(4) -0.0212(4) 1.0001(3)
C15A C 1.8283(5) -0.7711(4) 1.1877(3)
H14A H 1.8493 -0.8641 1.2174
C16A C 1.6836(5) -0.6713(4) 1.1696(3)
H15A H 1.5973 -0.6900 1.1860
C17A C 1.4077(4) -0.1834(4) 1.0468(3)
H16A H 1.3875 -0.0884 1.0227
C18A C 1.5521(4) -0.2843(4) 1.0650(3)
H17A H 1.6391 -0.2646 1.0553
C19A C 0.8868(4) -0.0899(4) 1.0557(3)
C20A C 1.0356(4) -0.3157(4) 1.1544(3)
H18A H 0.9414 -0.3295 1.1512
H19A H 1.1162 -0.3991 1.1362
C21A C 1.0640(6) -0.3042(5) 1.2582(3)
H20A H 1.1617 -0.2954 1.2631
C22A C 0.9409(7) -0.1775(7) 1.2898(4)
H21A H 0.8476 -0.1940 1.2924
H22A H 0.9267 -0.0960 1.2403
C23A C 1.0664(8) -0.4356(6) 1.3239(4)
H23A H 0.9983 -0.4705 1.2971
H24A H 1.0281 -0.4100 1.3864
C24A C 1.2111(7) -0.5467(6) 1.3378(4)
H25A H 1.2509 -0.5714 1.2754
H26A H 1.2789 -0.5133 1.3666
C25A C 1.2087(8) -0.6758(6) 1.4008(4)
H27A H 1.1606 -0.6491 1.4610
H28A H 1.1474 -0.7133 1.3693
C26A C 1.3648(9) -0.7925(7) 1.4238(5)
H29A H 1.4255 -0.7572 1.4567
H30A H 1.3549 -0.8725 1.4645
H31A H 1.4125 -0.8213 1.3647
C27A C 0.9639(9) -0.1398(9) 1.3842(4)
H32A H 1.0335 -0.0925 1.3769
H33A H 0.8688 -0.0778 1.4061
H34A H 1.0045 -0.2247 1.4308
C28A C 2.3498(5) -0.8404(5) 1.1562(3)
H35A H 2.4360 -0.8249 1.1344
C29A C 2.2039(5) -0.7458(5) 1.1285(3)
H36A H 2.1824 -0.6606 1.0867
N1A N 1.0273(3) -0.1942(3) 1.0860(2)
O1A O 0.7701(3) -0.1039(3) 1.0767(2)
S1A S 2.17795(11) -0.94855(11) 1.24159(8)
S2A S 1.85783(11) -0.54950(10) 1.10536(7)
S3A S 1.37629(10) -0.41220(10) 1.10840(7)
loop_
_geom_bond_atom_site_label_1
_geom_bond_atom_site_label_2
_geom_bond_site_symmetry_1
_geom_bond_site_symmetry_2
C1 H1 1_555 1_555
H2 C1 1_555 1_555
H3 C1 1_555 1_555
C2 C1 1_555 1_555
H4 C2 1_555 1_555
H5 C2 1_555 1_555
C3 C2 1_555 1_555
H6 C3 1_555 1_555
H7 C3 1_555 1_555
C4 C3 1_555 1_555
H8 C4 1_555 1_555
H9 C4 1_555 1_555
C5 C4 1_555 1_555
H10 C5 1_555 1_555
H11 C5 1_555 1_555
C6 C5 1_555 1_555
H12 C6 1_555 1_555
H13 C6 1_555 1_555
C7 C6 1_555 1_555
C8 C9 1_555 1_555
C9 C15 1_555 1_555
C10 C11 1_555 1_555
C11 C18 1_555 1_555
C12 C13 1_555 1_555
C13 C14 1_555 1_555
C14 C14A 1_555 1_555
C15 H14 1_555 1_555
C16 C10 1_555 1_555
H15 C16 1_555 1_555
C17 C12 1_555 1_555
H16 C17 1_555 1_555
C18 C17 1_555 1_555
H17 C18 1_555 1_555
C19 N1 1_555 1_555
C20 H18 1_555 1_555
H19 C20 1_555 1_555
C21 C20 1_555 1_555
H20 C21 1_555 1_555
C22 C21 1_555 1_555
H21 C22 1_555 1_555
H22 C22 1_555 1_555
C23 C21 1_555 1_555
H23 C23 1_555 1_555
H24 C23 1_555 1_555
C24 C23 1_555 1_555
H25 C24 1_555 1_555
H26 C24 1_555 1_555
C25 C24 1_555 1_555
H27 C25 1_555 1_555
H28 C25 1_555 1_555
C26 C25 1_555 1_555
H29 C26 1_555 1_555
H30 C26 1_555 1_555
H31 C26 1_555 1_555
C27 C22 1_555 1_555
H32 C27 1_555 1_555
H33 C27 1_555 1_555
H34 C27 1_555 1_555
C28 C7 1_555 1_555
H35 C28 1_555 1_555
C29 C8 1_555 1_555
H36 C29 1_555 1_555
N1 C13 1_555 1_555
O1 C19 1_555 1_555
S1 C7 1_555 1_555
S2 C9 1_555 1_555
S3 C11 1_555 1_555
C1A H1A 1_555 1_555
H2A C1A 1_555 1_555
H3A C1A 1_555 1_555
C2A C1A 1_555 1_555
H4A C2A 1_555 1_555
H5A C2A 1_555 1_555
C3A C2A 1_555 1_555
H6A C3A 1_555 1_555
H7A C3A 1_555 1_555
C4A C3A 1_555 1_555
H8A C4A 1_555 1_555
H9A C4A 1_555 1_555
C5A C4A 1_555 1_555
H10A C5A 1_555 1_555
H11A C5A 1_555 1_555
C6A C5A 1_555 1_555
H12A C6A 1_555 1_555
H13A C6A 1_555 1_555
C7A C6A 1_555 1_555
C8A C9A 1_555 1_555
C9A C15A 1_555 1_555
C10A C11A 1_555 1_555
C11A C18A 1_555 1_555
C12A C13A 1_555 1_555
C13A C14A 1_555 1_555
C14A C19 1_555 1_555
C15A H14A 1_555 1_555
C16A C10A 1_555 1_555
H15A C16A 1_555 1_555
C17A C12A 1_555 1_555
H16A C17A 1_555 1_555
C18A C17A 1_555 1_555
H17A C18A 1_555 1_555
C19A C14 1_555 1_555
C20A H18A 1_555 1_555
H19A C20A 1_555 1_555
C21A C20A 1_555 1_555
H20A C21A 1_555 1_555
C22A C21A 1_555 1_555
H21A C22A 1_555 1_555
H22A C22A 1_555 1_555
C23A C21A 1_555 1_555
H23A C23A 1_555 1_555
H24A C23A 1_555 1_555
C24A C23A 1_555 1_555
H25A C24A 1_555 1_555
H26A C24A 1_555 1_555
C25A C24A 1_555 1_555
H27A C25A 1_555 1_555
H28A C25A 1_555 1_555
C26A C25A 1_555 1_555
H29A C26A 1_555 1_555
H30A C26A 1_555 1_555
H31A C26A 1_555 1_555
C27A C22A 1_555 1_555
H32A C27A 1_555 1_555
H33A C27A 1_555 1_555
H34A C27A 1_555 1_555
C28A C7A 1_555 1_555
H35A C28A 1_555 1_555
C29A C8A 1_555 1_555
H36A C29A 1_555 1_555
N1A C13A 1_555 1_555
O1A C19A 1_555 1_555
S1A C7A 1_555 1_555
S2A C9A 1_555 1_555
S3A C11A 1_555 1_555
C8 S1 1_555 1_555
C10 S2 1_555 1_555
C12 S3 1_555 1_555
C15 C16 1_555 1_555
C20 N1 1_555 1_555
C28 C29 1_555 1_555
C8A S1A 1_555 1_555
C10A S2A 1_555 1_555
C12A S3A 1_555 1_555
C15A C16A 1_555 1_555
C19A N1A 1_555 1_555
C20A N1A 1_555 1_555
C28A C29A 1_555 1_555

#END
