
#######################################################################
#
#                 Cambridge Crystallographic Data Centre
#                                CCDC 
#
#######################################################################
#
# If this CIF has been generated from an entry in the Cambridge 
# Structural Database, then it will include bibliographic, chemical, 
# crystal, experimental, refinement or atomic coordinate data resulting 
# from the CCDC's data processing and validation procedures.
#
#######################################################################

data_IVOKEL
_chemical_name_common            
'N-phenyl-N-(pyridin-2-yl)benzo[4,5]imidazo[1,2-a]pyridin-8-amine monohydrate'
_chemical_formula_moiety         'C22 H16 N4,H2 O1'
_chemical_name_systematic        
'N-phenyl-N-(pyridin-2-yl)pyrido[1,2-a]benzimidazol-8-amine monohydrate'
_symmetry_cell_setting           triclinic
_symmetry_space_group_name_H-M   'P -1'
_symmetry_Int_Tables_number      2
_space_group_name_Hall           '-P 1'
loop_
_symmetry_equiv_pos_site_id
_symmetry_equiv_pos_as_xyz
1 x,y,z
2 -x,-y,-z
_cell_length_a                   9.3431(4)
_cell_length_b                   13.5252(9)
_cell_length_c                   17.3119(13)
_cell_angle_alpha                87.480(6)
_cell_angle_beta                 81.200(5)
_cell_angle_gamma                84.488(4)
_cell_volume                     2150.96
_exptl_crystal_colour            'light yellow'
_chemical_melting_point          '189-191 deg.C'
_cell_formula_units_Z            4
loop_
_atom_site_label
_atom_site_type_symbol
_atom_site_fract_x
_atom_site_fract_y
_atom_site_fract_z
C1 C 0.2621(9) 0.8420(6) 0.2955(7)
C2 C 0.2892(15) 0.8828(10) 0.3636(9)
H1 H 0.3690 0.8574 0.3868
C3 C 0.197(2) 0.9614(11) 0.3969(10)
H2 H 0.2152 0.9887 0.4425
C4 C 0.0779(17) 0.9993(9) 0.3623(10)
H3 H 0.0162 1.0519 0.3846
C5 C 0.0508(10) 0.9586(9) 0.2942(9)
H4 H -0.0290 0.9839 0.2710
C6 C 0.1429(10) 0.8799(9) 0.2608(7)
H5 H 0.1248 0.8527 0.2152
N1 N 0.3597(11) 0.7634(7) 0.2579(6)
N2 N 0.4563(11) 0.5998(7) 0.2497(6)
N3 N 0.7816(11) 0.8819(8) 0.0225(7)
N4 N 0.5622(9) 0.8758(7) -0.0092(6)
C7 C 0.4526(15) 0.5058(10) 0.2793(10)
H6 H 0.5068 0.4555 0.2499
C8 C 0.376(2) 0.4799(11) 0.3481(9)
H7 H 0.3858 0.4146 0.3672
C9 C 0.2833(16) 0.5510(11) 0.3906(8)
H8 H 0.2261 0.5340 0.4372
C10 C 0.2784(14) 0.6475(10) 0.3616(7)
H9 H 0.2171 0.6974 0.3880
C11 C 0.3673(12) 0.6686(9) 0.2918(7)
C12 C 0.4757(13) 0.7903(8) 0.1972(7)
C13 C 0.6153(13) 0.7946(9) 0.2144(8)
H10 H 0.6341 0.7758 0.2644
C14 C 0.7226(15) 0.8244(10) 0.1624(8)
H11 H 0.8140 0.8293 0.1762
C15 C 0.6953(12) 0.8485(8) 0.0856(7)
C16 C 0.5578(11) 0.8456(9) 0.0700(7)
C17 C 0.4402(12) 0.8152(8) 0.1240(7)
H12 H 0.3475 0.8121 0.1114
C18 C 0.6995(11) 0.8970(7) -0.0390(7)
C19 C 0.7324(13) 0.9242(9) -0.1158(8)
H13 H 0.8268 0.9356 -0.1378
C20 C 0.6267(17) 0.9337(11) -0.1569(10)
H14 H 0.6460 0.9582 -0.2081
C21 C 0.4860(16) 0.9094(10) -0.1291(7)
H15 H 0.4176 0.9129 -0.1631
C22 C 0.4483(12) 0.8817(10) -0.0558(8)
H16 H 0.3544 0.8669 -0.0358
N5 N 0.9224(14) 0.5387(9) 0.3099(6)
N6 N 1.028(2) 0.3710(11) 0.2909(9)
N7 N 1.0175(13) 0.6341(8) -0.0068(6)
N8 N 0.7943(12) 0.6111(7) 0.0445(6)
C23 C 0.9719(17) 0.4446(12) 0.3392(9)
C24 C 0.9739(13) 0.4319(9) 0.4156(6)
H17 H 0.9340 0.4820 0.4496
C25 C 1.034(2) 0.3463(13) 0.4429(10)
H18 H 1.0373 0.3396 0.4962
C26 C 1.088(2) 0.2712(14) 0.3988(12)
H19 H 1.1163 0.2092 0.4197
C27 C 1.102(3) 0.2945(17) 0.303(2)
H20 H 1.1574 0.2552 0.2642
C28 C 0.8324(14) 0.6103(10) 0.3565(6)
C29 C 0.7071(17) 0.5865(14) 0.4046(8)
H21 H 0.6731 0.5240 0.4059
C30 C 0.632(2) 0.667(2) 0.4530(10)
H22 H 0.5583 0.6525 0.4930
C31 C 0.667(2) 0.7576(19) 0.4417(10)
H23 H 0.6072 0.8087 0.4675
C32 C 0.787(2) 0.7784(13) 0.3931(11)
H24 H 0.8132 0.8433 0.3879
C33 C 0.8677(16) 0.7085(10) 0.3533(8)
H25 H 0.9521 0.7248 0.3213
C34 C 0.9515(13) 0.5598(10) 0.2298(6)
C35 C 1.0945(13) 0.5770(9) 0.1937(8)
H26 H 1.1670 0.5732 0.2253
C36 C 1.1314(13) 0.5979(10) 0.1193(7)
H27 H 1.2282 0.6020 0.0977
C37 C 1.0157(13) 0.6143(8) 0.0715(6)
C38 C 0.8759(14) 0.5927(9) 0.1037(6)
C39 C 0.8372(13) 0.5729(11) 0.1826(7)
H28 H 0.7406 0.5681 0.2044
C40 C 0.877(2) 0.6313(10) -0.0226(6)
C41 C 0.821(3) 0.6515(14) -0.0927(7)
H29 H 0.8796 0.6676 -0.1389
C42 C 0.679(2) 0.6463(13) -0.0898(10)
H30 H 0.6345 0.6620 -0.1338
C43 C 0.598(2) 0.6169(11) -0.0190(9)
H31 H 0.5002 0.6073 -0.0179
C44 C 0.6538(16) 0.6029(12) 0.0440(9)
H32 H 0.5951 0.5866 0.0903
O1 O 0.0929(4) 0.8769(3) 0.0506(3)
O2 O 0.2877(5) 0.6559(4) 0.8720(3)
loop_
_geom_bond_atom_site_label_1
_geom_bond_atom_site_label_2
_geom_bond_site_symmetry_1
_geom_bond_site_symmetry_2
C1 C2 1_555 1_555
C2 H1 1_555 1_555
C3 C2 1_555 1_555
H2 C3 1_555 1_555
C4 C3 1_555 1_555
H3 C4 1_555 1_555
C5 C4 1_555 1_555
H4 C5 1_555 1_555
C6 C1 1_555 1_555
H5 C6 1_555 1_555
N1 C1 1_555 1_555
N2 C7 1_555 1_555
N3 C15 1_555 1_555
N4 C16 1_555 1_555
C7 H6 1_555 1_555
C8 C7 1_555 1_555
H7 C8 1_555 1_555
C9 C8 1_555 1_555
H8 C9 1_555 1_555
C10 C9 1_555 1_555
H9 C10 1_555 1_555
C11 N1 1_555 1_555
C12 N1 1_555 1_555
C13 C12 1_555 1_555
H10 C13 1_555 1_555
C14 C13 1_555 1_555
H11 C14 1_555 1_555
C15 C14 1_555 1_555
C16 C15 1_555 1_555
C17 C12 1_555 1_555
H12 C17 1_555 1_555
C18 N3 1_555 1_555
C19 C18 1_555 1_555
H13 C19 1_555 1_555
C20 C19 1_555 1_555
H14 C20 1_555 1_555
C21 C20 1_555 1_555
H15 C21 1_555 1_555
C22 N4 1_555 1_555
H16 C22 1_555 1_555
N5 C23 1_555 1_555
N6 C23 1_555 1_555
N7 C37 1_555 1_555
N8 C38 1_555 1_555
C23 C24 1_555 1_555
C24 H17 1_555 1_555
C25 C24 1_555 1_555
H18 C25 1_555 1_555
C26 C25 1_555 1_555
H19 C26 1_555 1_555
C27 N6 1_555 1_555
H20 C27 1_555 1_555
C28 N5 1_555 1_555
C29 C28 1_555 1_555
H21 C29 1_555 1_555
C30 C29 1_555 1_555
H22 C30 1_555 1_555
C31 C30 1_555 1_555
H23 C31 1_555 1_555
C32 C31 1_555 1_555
H24 C32 1_555 1_555
C33 C28 1_555 1_555
H25 C33 1_555 1_555
C34 N5 1_555 1_555
C35 C34 1_555 1_555
H26 C35 1_555 1_555
C36 C35 1_555 1_555
H27 C36 1_555 1_555
C37 C36 1_555 1_555
C38 C37 1_555 1_555
C39 C34 1_555 1_555
H28 C39 1_555 1_555
C40 N7 1_555 1_555
C41 C40 1_555 1_555
H29 C41 1_555 1_555
C42 C41 1_555 1_555
H30 C42 1_555 1_555
C43 C42 1_555 1_555
H31 C43 1_555 1_555
C44 N8 1_555 1_555
H32 C44 1_555 1_555
C5 C6 1_555 1_555
N2 C11 1_555 1_555
N4 C18 1_555 1_555
C10 C11 1_555 1_555
C16 C17 1_555 1_555
C21 C22 1_555 1_555
N8 C40 1_555 1_555
C26 C27 1_555 1_555
C32 C33 1_555 1_555
C38 C39 1_555 1_555
C43 C44 1_555 1_555

#END
