
#######################################################################
#
#                 Cambridge Crystallographic Data Centre
#                                CCDC 
#
#######################################################################
#
# If this CIF has been generated from an entry in the Cambridge 
# Structural Database, then it will include bibliographic, chemical, 
# crystal, experimental, refinement or atomic coordinate data resulting 
# from the CCDC's data processing and validation procedures.
#
#######################################################################

data_IVOPIT
_chemical_formula_moiety         'C44 H48 N24 O12,C4 H8 O2,18(H2 O1)'
_chemical_name_systematic        
'p-Dicyclohexanocucurbit(6)uril 1,4-dioxane clathrate octadecahydrate'
_symmetry_cell_setting           orthorhombic
_symmetry_space_group_name_H-M   'P b c a'
_symmetry_Int_Tables_number      61
_space_group_name_Hall           '-P 2ac 2ab'
loop_
_symmetry_equiv_pos_site_id
_symmetry_equiv_pos_as_xyz
1 x,y,z
2 1/2-x,-y,1/2+z
3 1/2+x,1/2-y,-z
4 -x,1/2+y,1/2-z
5 -x,-y,-z
6 1/2+x,y,1/2-z
7 1/2-x,1/2+y,z
8 x,1/2-y,1/2+z
_cell_length_a                   16.500(5)
_cell_length_b                   17.634(6)
_cell_length_c                   22.614(7)
_cell_angle_alpha                90
_cell_angle_beta                 90
_cell_angle_gamma                90
_cell_volume                     6579.79
_exptl_crystal_colour            colorless
_exptl_crystal_description       block
_cell_formula_units_Z            4
loop_
_atom_site_label
_atom_site_type_symbol
_atom_site_fract_x
_atom_site_fract_y
_atom_site_fract_z
C1 C 0.2499(3) 0.1112(3) 0.1051(2)
H1 H 0.2148 0.1547 0.1112
H2 H 0.2300 0.0704 0.1298
C2 C 0.3463(3) 0.2386(3) 0.0057(2)
H3 H 0.3045 0.2711 0.0221
H4 H 0.3775 0.2683 -0.0223
C3 C 0.3691(3) 0.2027(3) 0.1134(2)
H5 H 0.3348 0.2451 0.1259
C4 C 0.4804(3) 0.2322(3) 0.0528(2)
C5 C 0.4482(3) 0.1986(3) 0.1500(2)
H6 H 0.4460 0.2323 0.1844
C6 C 0.3807(3) 0.0824(3) 0.15430(19)
C7 C 0.5922(3) 0.2374(3) 0.1251(2)
H7 H 0.5925 0.2636 0.1628
H8 H 0.6153 0.2714 0.0959
C8 C 0.5061(3) 0.0916(3) 0.2125(2)
H9 H 0.4819 0.0477 0.2314
H10 H 0.5129 0.1305 0.2425
C9 C 0.6913(3) 0.1484(3) 0.0831(2)
C10 C 0.6084(3) -0.0039(3) 0.1872(2)
C11 C 0.6526(3) 0.1226(3) 0.1811(2)
C12 C 0.7229(3) 0.0675(3) 0.1627(2)
C13 C 0.6727(3) 0.1672(3) 0.2372(2)
H11 H 0.6292 0.2025 0.2457
H12 H 0.6771 0.1324 0.2703
C14 C 0.7989(3) 0.0793(3) 0.2004(2)
H13 H 0.7895 0.0601 0.2400
H14 H 0.8438 0.0513 0.1834
C15 C 0.7519(3) 0.2107(3) 0.2306(3)
H15 H 0.7690 0.2287 0.2692
H16 H 0.7426 0.2548 0.2058
C16 C 0.8204(3) 0.1628(3) 0.2034(2)
H17 H 0.8319 0.1811 0.1638
H18 H 0.8692 0.1689 0.2269
C17 C 0.7290(3) -0.0787(3) 0.1628(2)
H19 H 0.7040 -0.1162 0.1883
H20 H 0.7847 -0.0724 0.1757
C18 C 0.7868(3) -0.0865(3) 0.0578(2)
H21 H 0.8428 -0.0942 0.0710
C19 C 0.7655(3) -0.1401(3) 0.0053(2)
H22 H 0.8086 -0.1771 -0.0022
C20 C 0.7998(3) 0.0571(3) 0.0631(2)
H23 H 0.8474 0.0466 0.0869
H24 H 0.8145 0.0951 0.0340
C21 C 0.6750(3) -0.1618(3) 0.0835(2)
C22 C 0.7666(3) -0.0143(3) -0.0272(2)
N1 N 0.2442(2) 0.0881(2) 0.04376(17)
N2 N 0.3996(2) 0.2135(2) 0.05332(17)
N3 N 0.3310(2) 0.1309(2) 0.12410(16)
N4 N 0.5096(2) 0.2220(2) 0.10901(17)
N5 N 0.4511(2) 0.1195(2) 0.16781(17)
N6 N 0.6436(2) 0.1711(2) 0.12969(17)
N7 N 0.5850(2) 0.0706(2) 0.19011(17)
N8 N 0.7369(2) 0.0876(2) 0.10086(16)
N9 N 0.6872(2) -0.0076(2) 0.17056(17)
N10 N 0.7760(2) -0.0118(2) 0.03261(17)
N11 N 0.7297(2) -0.1082(2) 0.10290(17)
N12 N 0.6918(2) -0.1763(2) 0.02528(17)
O1 O 0.5187(2) 0.2556(2) 0.01044(15)
O2 O 0.3639(2) 0.0171(2) 0.16904(14)
O4 O 0.6944(2) 0.1797(2) 0.03483(15)
O6 O 0.5648(2) -0.0585(2) 0.19895(15)
O8 O 0.6230(2) -0.1917(2) 0.11327(15)
O10 O 0.7686(2) 0.0405(2) -0.06112(15)
C1D C 0.7501(3) -0.1112(3) -0.1051(2)
H1D H 0.7852 -0.1547 -0.1112
H2D H 0.7700 -0.0704 -0.1298
C2D C 0.6537(3) -0.2386(3) -0.0057(2)
H3D H 0.6955 -0.2711 -0.0221
H4D H 0.6225 -0.2683 0.0223
C3D C 0.6309(3) -0.2027(3) -0.1134(2)
H5D H 0.6652 -0.2451 -0.1259
C4D C 0.5196(3) -0.2322(3) -0.0528(2)
C5D C 0.5518(3) -0.1986(3) -0.1500(2)
H6D H 0.5540 -0.2323 -0.1844
C6D C 0.6193(3) -0.0824(3) -0.15430(19)
C7D C 0.4078(3) -0.2374(3) -0.1251(2)
H7D H 0.4075 -0.2636 -0.1628
H8D H 0.3847 -0.2714 -0.0959
C8D C 0.4939(3) -0.0916(3) -0.2125(2)
H9D H 0.5181 -0.0477 -0.2314
H10D H 0.4871 -0.1305 -0.2425
C9D C 0.3087(3) -0.1484(3) -0.0831(2)
C10D C 0.3916(3) 0.0039(3) -0.1872(2)
C11D C 0.3474(3) -0.1226(3) -0.1811(2)
C12D C 0.2771(3) -0.0675(3) -0.1627(2)
C13D C 0.3273(3) -0.1672(3) -0.2372(2)
H11D H 0.3708 -0.2025 -0.2457
H12D H 0.3229 -0.1324 -0.2703
C14D C 0.2011(3) -0.0793(3) -0.2004(2)
H13D H 0.2105 -0.0601 -0.2400
H14D H 0.1562 -0.0513 -0.1834
C15D C 0.2481(3) -0.2107(3) -0.2306(3)
H15D H 0.2310 -0.2287 -0.2692
H16D H 0.2574 -0.2548 -0.2058
C16D C 0.1796(3) -0.1628(3) -0.2034(2)
H17D H 0.1681 -0.1811 -0.1638
H18D H 0.1308 -0.1689 -0.2269
C17D C 0.2710(3) 0.0787(3) -0.1628(2)
H19D H 0.2960 0.1162 -0.1883
H20D H 0.2153 0.0724 -0.1757
C18D C 0.2132(3) 0.0865(3) -0.0578(2)
H21D H 0.1572 0.0942 -0.0710
C19D C 0.2345(3) 0.1401(3) -0.0053(2)
H22D H 0.1914 0.1771 0.0022
C20D C 0.2002(3) -0.0571(3) -0.0631(2)
H23D H 0.1526 -0.0466 -0.0869
H24D H 0.1855 -0.0951 -0.0340
C21D C 0.3250(3) 0.1618(3) -0.0835(2)
C22D C 0.2334(3) 0.0143(3) 0.0272(2)
N1D N 0.7558(2) -0.0881(2) -0.04376(17)
N2D N 0.6004(2) -0.2135(2) -0.05332(17)
N3D N 0.6690(2) -0.1309(2) -0.12410(16)
N4D N 0.4904(2) -0.2220(2) -0.10901(17)
N5D N 0.5489(2) -0.1195(2) -0.16781(17)
N6D N 0.3564(2) -0.1711(2) -0.12969(17)
N7D N 0.4150(2) -0.0706(2) -0.19011(17)
N8D N 0.2631(2) -0.0876(2) -0.10086(16)
N9D N 0.3128(2) 0.0076(2) -0.17056(17)
N10D N 0.2240(2) 0.0118(2) -0.03261(17)
N11D N 0.2703(2) 0.1082(2) -0.10290(17)
N12D N 0.3082(2) 0.1763(2) -0.02528(17)
O1D O 0.4813(2) -0.2556(2) -0.01044(15)
O2D O 0.6361(2) -0.0171(2) -0.16904(14)
O4D O 0.3056(2) -0.1797(2) -0.03483(15)
O6D O 0.4352(2) 0.0585(2) -0.19895(15)
O8D O 0.3770(2) 0.1917(2) -0.11327(15)
O10D O 0.2314(2) -0.0405(2) 0.06112(15)
C23 C 0.4255(6) -0.0247(7) 0.0148(5)
H25 H 0.3860 -0.0652 0.0179
H26 H 0.4020 0.0204 0.0324
C24 C 0.5590(5) 0.0109(5) 0.0438(3)
H27 H 0.5403 0.0569 0.0629
H28 H 0.6082 -0.0056 0.0634
O12 O 0.4991(7) -0.0462(7) 0.0483(5)
C23D C 0.5745(6) 0.0247(7) -0.0148(5)
H25D H 0.6140 0.0652 -0.0179
H26D H 0.5980 -0.0204 -0.0324
C24D C 0.4410(5) -0.0109(5) -0.0438(3)
H27D H 0.4597 -0.0569 -0.0629
H28D H 0.3918 0.0056 -0.0634
O12D O 0.5009(7) 0.0462(7) -0.0483(5)
O3 O 0.2811(3) -0.1206(3) 0.1752(2)
O5 O 0.4840(4) -0.2479(4) 0.1640(4)
O7 O 0.1555(4) 0.2849(3) 0.0873(2)
O9 O 0.3778(3) 0.3508(3) 0.2052(2)
O11 O 0.5430(5) 0.0916(4) 0.3654(3)
O13 O 0.9580(3) -0.0715(4) -0.0120(3)
O14 O 0.5829(4) 0.3662(4) 0.2553(3)
O15 O 0.9517(3) -0.0447(3) 0.1511(2)
O16 O 0.9183(3) 0.1130(3) -0.0885(2)
loop_
_geom_bond_atom_site_label_1
_geom_bond_atom_site_label_2
_geom_bond_site_symmetry_1
_geom_bond_site_symmetry_2
C1 H1 1_555 1_555
H2 C1 1_555 1_555
C2 H3 1_555 1_555
H4 C2 1_555 1_555
C3 H5 1_555 1_555
C4 N2 1_555 1_555
C5 C3 1_555 1_555
H6 C5 1_555 1_555
C6 N3 1_555 1_555
C7 H7 1_555 1_555
H8 C7 1_555 1_555
C8 H9 1_555 1_555
H10 C8 1_555 1_555
C9 N6 1_555 1_555
C10 N7 1_555 1_555
C11 C12 1_555 1_555
C12 C14 1_555 1_555
C13 C11 1_555 1_555
H11 C13 1_555 1_555
H12 C13 1_555 1_555
C14 H13 1_555 1_555
H14 C14 1_555 1_555
C15 C13 1_555 1_555
H15 C15 1_555 1_555
H16 C15 1_555 1_555
C16 C14 1_555 1_555
H17 C16 1_555 1_555
H18 C16 1_555 1_555
C17 H19 1_555 1_555
H20 C17 1_555 1_555
C18 H21 1_555 1_555
C19 C18 1_555 1_555
H22 C19 1_555 1_555
C20 H23 1_555 1_555
H24 C20 1_555 1_555
C21 N11 1_555 1_555
C22 N10 1_555 1_555
C23 H25 1_555 1_555
H26 C23 1_555 1_555
C24 H27 1_555 1_555
H28 C24 1_555 1_555
N1 C1 1_555 1_555
N2 C2 1_555 1_555
N3 C1 1_555 1_555
N4 C4 1_555 1_555
N5 C5 1_555 1_555
N6 C7 1_555 1_555
N7 C8 1_555 1_555
N8 C9 1_555 1_555
N9 C10 1_555 1_555
N10 C18 1_555 1_555
N11 C17 1_555 1_555
N12 C19 1_555 1_555
O1 C4 1_555 1_555
O2 C6 1_555 1_555
O4 C9 1_555 1_555
O6 C10 1_555 1_555
O8 C21 1_555 1_555
O10 C22 1_555 1_555
O12 C23 1_555 1_555
C1D H1D 1_555 1_555
H2D C1D 1_555 1_555
C2D N12 1_555 1_555
H3D C2D 1_555 1_555
H4D C2D 1_555 1_555
C3D H5D 1_555 1_555
C4D N2D 1_555 1_555
C5D C3D 1_555 1_555
H6D C5D 1_555 1_555
C6D N3D 1_555 1_555
C7D H7D 1_555 1_555
H8D C7D 1_555 1_555
C8D H9D 1_555 1_555
H10D C8D 1_555 1_555
C9D N6D 1_555 1_555
C10D N7D 1_555 1_555
C11D C12D 1_555 1_555
C12D C14D 1_555 1_555
C13D C11D 1_555 1_555
H11D C13D 1_555 1_555
H12D C13D 1_555 1_555
C14D H13D 1_555 1_555
H14D C14D 1_555 1_555
C15D C13D 1_555 1_555
H15D C15D 1_555 1_555
H16D C15D 1_555 1_555
C16D C14D 1_555 1_555
H17D C16D 1_555 1_555
H18D C16D 1_555 1_555
C17D H19D 1_555 1_555
H20D C17D 1_555 1_555
C18D H21D 1_555 1_555
C19D N1 1_555 1_555
H22D C19D 1_555 1_555
C20D H23D 1_555 1_555
H24D C20D 1_555 1_555
C21D N11D 1_555 1_555
C22D N1 1_555 1_555
C23D C24 1_555 1_555
H25D C23D 1_555 1_555
H26D C23D 1_555 1_555
C24D C23 1_555 1_555
H27D C24D 1_555 1_555
H28D C24D 1_555 1_555
N1D C19 1_555 1_555
N2D C2D 1_555 1_555
N3D C1D 1_555 1_555
N4D C4D 1_555 1_555
N5D C5D 1_555 1_555
N6D C7D 1_555 1_555
N7D C8D 1_555 1_555
N8D C9D 1_555 1_555
N9D C10D 1_555 1_555
N10D C18D 1_555 1_555
N11D C17D 1_555 1_555
N12D C2 1_555 1_555
O1D C4D 1_555 1_555
O2D C6D 1_555 1_555
O4D C9D 1_555 1_555
O6D C10D 1_555 1_555
O8D C21D 1_555 1_555
O10D C22D 1_555 1_555
O12D C23D 1_555 1_555
C3 N2 1_555 1_555
C3 N3 1_555 1_555
C5 N4 1_555 1_555
C6 N5 1_555 1_555
C7 N4 1_555 1_555
C8 N5 1_555 1_555
C11 N6 1_555 1_555
C11 N7 1_555 1_555
C12 N8 1_555 1_555
C12 N9 1_555 1_555
C15 C16 1_555 1_555
C17 N9 1_555 1_555
C18 N11 1_555 1_555
C20 N8 1_555 1_555
C20 N10 1_555 1_555
C21 N12 1_555 1_555
C22 N1D 1_555 1_555
C24 O12 1_555 1_555
C1D N1D 1_555 1_555
C3D N2D 1_555 1_555
C3D N3D 1_555 1_555
C5D N4D 1_555 1_555
C6D N5D 1_555 1_555
C7D N4D 1_555 1_555
C8D N5D 1_555 1_555
C11D N6D 1_555 1_555
C11D N7D 1_555 1_555
C12D N8D 1_555 1_555
C12D N9D 1_555 1_555
C15D C16D 1_555 1_555
C17D N9D 1_555 1_555
C18D C19D 1_555 1_555
C18D N11D 1_555 1_555
C19D N12D 1_555 1_555
C20D N8D 1_555 1_555
C20D N10D 1_555 1_555
C21D N12D 1_555 1_555
C22D N10D 1_555 1_555
C24D O12D 1_555 1_555

#END
