
#######################################################################
#
#                 Cambridge Crystallographic Data Centre
#                                CCDC 
#
#######################################################################
#
# If this CIF has been generated from an entry in the Cambridge 
# Structural Database, then it will include bibliographic, chemical, 
# crystal, experimental, refinement or atomic coordinate data resulting 
# from the CCDC's data processing and validation procedures.
#
#######################################################################

data_IVUBAE
_chemical_formula_moiety         'C58 H58 O8'
_chemical_name_systematic        
'(5,12-dimethyldibenzo[c,pqr]tetraphene-7,14-diyl)bis((5-t-butylbenzene-2,1,3-triyl)bis(methylene)) tetraacetate'
_symmetry_cell_setting           triclinic
_symmetry_space_group_name_H-M   'P -1'
_symmetry_Int_Tables_number      2
_space_group_name_Hall           '-P 1'
loop_
_symmetry_equiv_pos_site_id
_symmetry_equiv_pos_as_xyz
1 x,y,z
2 -x,-y,-z
_cell_length_a                   9.4706(6)
_cell_length_b                   10.8019(6)
_cell_length_c                   12.6149(7)
_cell_angle_alpha                110.7970(10)
_cell_angle_beta                 99.0200(10)
_cell_angle_gamma                94.6450(10)
_cell_volume                     1178.39
_exptl_crystal_colour            orange
_exptl_crystal_description       Block
_cell_formula_units_Z            1
loop_
_atom_site_label
_atom_site_type_symbol
_atom_site_fract_x
_atom_site_fract_y
_atom_site_fract_z
O1 O 0.9143(3) 0.6129(6) 0.5103(3)
C1 C 0.8900(6) 0.5551(8) 0.4071(5)
C2 C 0.9950(7) 0.5211(8) 0.3307(5)
H1 H 1.0386 0.6026 0.3237
H2 H 0.9457 0.4574 0.2541
H3 H 1.0707 0.4808 0.3635
O2 O 0.75315(13) 0.51087(12) 0.35069(10)
O3 O 0.30561(13) 0.63848(12) 0.07491(10)
O4 O 0.11766(16) 0.71899(15) 0.00452(13)
C3 C 0.68898(19) 0.88264(17) 0.31696(15)
C4 C 0.8222(2) 0.90177(17) 0.28135(16)
H4 H 0.8820 0.9863 0.3175
C5 C 0.8664(2) 0.80207(18) 0.19670(17)
H5 H 0.9565 0.8175 0.1760
C6 C 0.7785(2) 0.67647(18) 0.14022(17)
H6 H 0.8053 0.6099 0.0771
C7 C 0.6546(2) 0.65045(17) 0.17633(15)
H7 H 0.5968 0.5650 0.1387
C8 C 0.61038(19) 0.74972(16) 0.26978(14)
C9 C 0.49710(17) 0.71647(16) 0.32037(14)
C10 C 0.45947(17) 0.81442(16) 0.41396(14)
C11 C 0.52472(17) 0.95143(15) 0.45338(13)
C12 C 0.63538(18) 0.98775(16) 0.40137(14)
C13 C 0.36028(17) 0.78029(15) 0.47730(14)
H8 H 0.3234 0.6884 0.4552
C14 C 0.31517(17) 0.87054(16) 0.56709(14)
C15 C 0.2272(2) 0.81520(17) 0.63502(16)
H9 H 0.1242 0.8151 0.6084
H10 H 0.2557 0.8712 0.7175
H11 H 0.2447 0.7235 0.6231
C16 C 0.43025(17) 0.57274(16) 0.28292(14)
C17 C 0.49791(17) 0.48864(16) 0.33048(14)
C18 C 0.43592(18) 0.35541(16) 0.29793(14)
H12 H 0.4832 0.3002 0.3318
C19 C 0.30724(18) 0.30116(16) 0.21763(15)
C20 C 0.24109(18) 0.38648(16) 0.17077(14)
H13 H 0.1531 0.3522 0.1155
C21 C 0.29970(18) 0.51969(16) 0.20230(14)
C22 C 0.63867(17) 0.53907(16) 0.41626(14)
H14 H 0.6468 0.6365 0.4600
H15 H 0.6450 0.4930 0.4718
C23 C 0.22027(18) 0.60646(17) 0.15050(15)
H16 H 0.1236 0.5583 0.1058
H17 H 0.2076 0.6896 0.2124
C24 C 0.2407(2) 0.69756(16) 0.00684(15)
C25 C 0.3401(2) 0.7310(2) -0.06362(18)
H18 H 0.3222 0.6597 -0.1405
H19 H 0.4406 0.7394 -0.0251
H20 H 0.3225 0.8159 -0.0713
C26 C 0.2374(2) 0.15485(17) 0.18004(16)
C27 C 0.3261(3) 0.0776(2) 0.2389(2)
H21 H 0.3326 0.1181 0.3227
H22 H 0.4235 0.0805 0.2218
H23 H 0.2795 -0.0157 0.2101
C28 C 0.2227(3) 0.08545(19) 0.04802(18)
H24 H 0.3186 0.0889 0.0283
H25 H 0.1615 0.1315 0.0087
H26 H 0.1787 -0.0082 0.0232
C29 C 0.0862(2) 0.1518(2) 0.2074(2)
H27 H 0.0403 0.0587 0.1820
H28 H 0.0282 0.1987 0.1669
H29 H 0.0931 0.1962 0.2910
O1A O 0.0857(3) 1.3871(6) 0.4897(3)
C1A C 0.1100(6) 1.4449(8) 0.5929(5)
C2A C 0.0050(7) 1.4789(8) 0.6693(5)
H1A H -0.0386 1.3974 0.6763
H2A H 0.0543 1.5426 0.7459
H3A H -0.0707 1.5192 0.6365
O2A O 0.24685(13) 1.48913(12) 0.64931(10)
O3A O 0.69439(13) 1.36152(12) 0.92509(10)
O4A O 0.88234(16) 1.28101(15) 0.99548(13)
C3A C 0.31102(19) 1.11736(17) 0.68304(15)
C4A C 0.1778(2) 1.09823(17) 0.71865(16)
H4A H 0.1180 1.0137 0.6825
C5A C 0.1336(2) 1.19793(18) 0.80330(17)
H5A H 0.0435 1.1825 0.8240
C6A C 0.2215(2) 1.32353(18) 0.85978(17)
H6A H 0.1947 1.3901 0.9229
C7A C 0.3454(2) 1.34955(17) 0.82367(15)
H7A H 0.4032 1.4350 0.8613
C8A C 0.38962(19) 1.25028(16) 0.73022(14)
C9A C 0.50290(17) 1.28353(16) 0.67963(14)
C10A C 0.54053(17) 1.18558(16) 0.58604(14)
C11A C 0.47528(17) 1.04857(15) 0.54662(13)
C12A C 0.36462(18) 1.01225(16) 0.59863(14)
C13A C 0.63972(17) 1.21971(15) 0.52270(14)
H8A H 0.6766 1.3116 0.5448
C14A C 0.68483(17) 1.12946(16) 0.43291(14)
C15A C 0.7728(2) 1.18480(17) 0.36498(16)
H9A H 0.8758 1.1849 0.3916
H10A H 0.7443 1.1288 0.2825
H11A H 0.7553 1.2765 0.3769
C16A C 0.56975(17) 1.42726(16) 0.71708(14)
C17A C 0.50209(17) 1.51136(16) 0.66952(14)
C18A C 0.56408(18) 1.64459(16) 0.70207(14)
H12A H 0.5168 1.6998 0.6682
C19A C 0.69276(18) 1.69884(16) 0.78237(15)
C20A C 0.75891(18) 1.61352(16) 0.82923(14)
H13A H 0.8469 1.6478 0.8845
C21A C 0.70030(18) 1.48031(16) 0.79770(14)
C22A C 0.36133(17) 1.46093(16) 0.58374(14)
H14A H 0.3532 1.3635 0.5400
H15A H 0.3550 1.5070 0.5282
C23A C 0.77973(18) 1.39354(17) 0.84950(15)
H16A H 0.8764 1.4417 0.8942
H17A H 0.7924 1.3104 0.7876
C24A C 0.7593(2) 1.30244(16) 0.99316(15)
C25A C 0.6599(2) 1.2690(2) 1.06362(18)
H18A H 0.6778 1.3403 1.1405
H19A H 0.5594 1.2606 1.0251
H20A H 0.6775 1.1841 1.0713
C26A C 0.7626(2) 1.84515(17) 0.81996(16)
C27A C 0.6739(3) 1.9224(2) 0.7611(2)
H21A H 0.6674 1.8819 0.6773
H22A H 0.5765 1.9195 0.7782
H23A H 0.7205 2.0157 0.7899
C28A C 0.7773(3) 1.91455(19) 0.95198(18)
H24A H 0.6814 1.9111 0.9717
H25A H 0.8385 1.8685 0.9913
H26A H 0.8213 2.0082 0.9768
C29A C 0.9138(2) 1.8482(2) 0.7926(2)
H27A H 0.9597 1.9413 0.8180
H28A H 0.9718 1.8013 0.8331
H29A H 0.9069 1.8038 0.7090
O5? O 0.8950(5) 0.6889(7) 0.4954(4)
C30? C 0.8759(8) 0.5966(10) 0.4044(6)
C31? C 0.9913(11) 0.5657(9) 0.3321(7)
H30? H 1.0691 0.6421 0.3612
H31? H 0.9490 0.5487 0.2513
H32? H 1.0305 0.4862 0.3370
loop_
_geom_bond_atom_site_label_1
_geom_bond_atom_site_label_2
_geom_bond_site_symmetry_1
_geom_bond_site_symmetry_2
O1 C1 1_555 1_555
C1 C2 1_555 1_555
C2 H1 1_555 1_555
H2 C2 1_555 1_555
H3 C2 1_555 1_555
O2 C1 1_555 1_555
O3 C23 1_555 1_555
O4 C24 1_555 1_555
C3 C4 1_555 1_555
C4 H4 1_555 1_555
C5 C4 1_555 1_555
H5 C5 1_555 1_555
C6 C5 1_555 1_555
H6 C6 1_555 1_555
C7 C6 1_555 1_555
H7 C7 1_555 1_555
C8 C3 1_555 1_555
C9 C8 1_555 1_555
C10 C9 1_555 1_555
C11 C10 1_555 1_555
C12 C3 1_555 1_555
C13 C10 1_555 1_555
H8 C13 1_555 1_555
C14 C13 1_555 1_555
C15 C14 1_555 1_555
H9 C15 1_555 1_555
H10 C15 1_555 1_555
H11 C15 1_555 1_555
C16 C9 1_555 1_555
C17 C16 1_555 1_555
C18 C17 1_555 1_555
H12 C18 1_555 1_555
C19 C18 1_555 1_555
C20 C19 1_555 1_555
H13 C20 1_555 1_555
C21 C16 1_555 1_555
C22 O2 1_555 1_555
H14 C22 1_555 1_555
H15 C22 1_555 1_555
C23 C21 1_555 1_555
H16 C23 1_555 1_555
H17 C23 1_555 1_555
C24 O3 1_555 1_555
C25 C24 1_555 1_555
H18 C25 1_555 1_555
H19 C25 1_555 1_555
H20 C25 1_555 1_555
C26 C19 1_555 1_555
C27 C26 1_555 1_555
H21 C27 1_555 1_555
H22 C27 1_555 1_555
H23 C27 1_555 1_555
C28 C26 1_555 1_555
H24 C28 1_555 1_555
H25 C28 1_555 1_555
H26 C28 1_555 1_555
C29 C26 1_555 1_555
H27 C29 1_555 1_555
H28 C29 1_555 1_555
H29 C29 1_555 1_555
O1A C1A 1_555 1_555
C1A C2A 1_555 1_555
C2A H1A 1_555 1_555
H2A C2A 1_555 1_555
H3A C2A 1_555 1_555
O2A C1A 1_555 1_555
O3A C23A 1_555 1_555
O4A C24A 1_555 1_555
C3A C4A 1_555 1_555
C4A H4A 1_555 1_555
C5A C4A 1_555 1_555
H5A C5A 1_555 1_555
C6A C5A 1_555 1_555
H6A C6A 1_555 1_555
C7A C6A 1_555 1_555
H7A C7A 1_555 1_555
C8A C3A 1_555 1_555
C9A C8A 1_555 1_555
C10A C9A 1_555 1_555
C11A C11 1_555 1_555
C12A C14 1_555 1_555
C13A C10A 1_555 1_555
H8A C13A 1_555 1_555
C14A C12 1_555 1_555
C15A C14A 1_555 1_555
H9A C15A 1_555 1_555
H10A C15A 1_555 1_555
H11A C15A 1_555 1_555
C16A C9A 1_555 1_555
C17A C16A 1_555 1_555
C18A C17A 1_555 1_555
H12A C18A 1_555 1_555
C19A C18A 1_555 1_555
C20A C19A 1_555 1_555
H13A C20A 1_555 1_555
C21A C16A 1_555 1_555
C22A O2A 1_555 1_555
H14A C22A 1_555 1_555
H15A C22A 1_555 1_555
C23A C21A 1_555 1_555
H16A C23A 1_555 1_555
H17A C23A 1_555 1_555
C24A O3A 1_555 1_555
C25A C24A 1_555 1_555
H18A C25A 1_555 1_555
H19A C25A 1_555 1_555
H20A C25A 1_555 1_555
C26A C19A 1_555 1_555
C27A C26A 1_555 1_555
H21A C27A 1_555 1_555
H22A C27A 1_555 1_555
H23A C27A 1_555 1_555
C28A C26A 1_555 1_555
H24A C28A 1_555 1_555
H25A C28A 1_555 1_555
H26A C28A 1_555 1_555
C29A C26A 1_555 1_555
H27A C29A 1_555 1_555
H28A C29A 1_555 1_555
H29A C29A 1_555 1_555
C7 C8 1_555 1_555
C11 C12 1_555 1_555
C17 C22 1_555 1_555
C20 C21 1_555 1_555
C3A C12A 1_555 1_555
C7A C8A 1_555 1_555
C10A C11A 1_555 1_555
C11A C12A 1_555 1_555
C13A C14A 1_555 1_555
C17A C22A 1_555 1_555
C20A C21A 1_555 1_555

#END
