
#######################################################################
#
#                 Cambridge Crystallographic Data Centre
#                                CCDC 
#
#######################################################################
#
# If this CIF has been generated from an entry in the Cambridge 
# Structural Database, then it will include bibliographic, chemical, 
# crystal, experimental, refinement or atomic coordinate data resulting 
# from the CCDC's data processing and validation procedures.
#
#######################################################################

data_IVUDUA
_chemical_name_common            SHZ-2H
_chemical_formula_moiety         'C82 H48 F24'
_chemical_name_systematic        
5,9,14,18-tetrakis(3,5-bis(trifluoromethyl)phenyl)-7,16-di-t-butyl-4,13-dimethyl-5,14-dihydrobenzo[de]benzo[4,5]pentaceno[2,1,14,13,12,11-opqrstuva]pentacene
_symmetry_cell_setting           monoclinic
_symmetry_space_group_name_H-M   'P 21/n'
_symmetry_Int_Tables_number      14
_space_group_name_Hall           '-P 2yn'
loop_
_symmetry_equiv_pos_site_id
_symmetry_equiv_pos_as_xyz
1 x,y,z
2 1/2-x,1/2+y,1/2-z
3 -x,-y,-z
4 1/2+x,1/2-y,1/2+z
_cell_length_a                   38.865(3)
_cell_length_b                   21.1861(12)
_cell_length_c                   40.572(3)
_cell_angle_alpha                90
_cell_angle_beta                 115.733(11)
_cell_angle_gamma                90
_cell_volume                     30093.8
_exptl_crystal_colour            green
_exptl_crystal_description       platelet
_cell_formula_units_Z            16
_exptl_crystal_recrystallization_method acetonitrile/dichloromethane
loop_
_atom_site_label
_atom_site_type_symbol
_atom_site_fract_x
_atom_site_fract_y
_atom_site_fract_z
C1 C 0.7747(4) 0.6777(8) 0.2286(7)
C2 C 0.7873(4) 0.7333(7) 0.2193(5)
H1 H 0.7710 0.7678 0.2110
C3 C 0.8243(3) 0.7373(6) 0.2225(3)
C4 C 0.8487(3) 0.6857(6) 0.2350(3)
H2 H 0.8735 0.6884 0.2371
C5 C 0.8361(4) 0.6301(6) 0.2443(4)
C6 C 0.7991(4) 0.6261(8) 0.2411(6)
H3 H 0.7906 0.5889 0.2473
F1 F 0.8775(5) 0.5628(6) 0.2356(4)
F2 F 0.8942(5) 0.5865(7) 0.2874(4)
F3 F 0.8499(5) 0.5294(6) 0.2632(5)
C7 C 0.8607(4) 0.5877(6) 0.2560(4)
F4 F 0.8207(5) 0.8456(6) 0.2129(4)
F5 F 0.8394(5) 0.7964(7) 0.1824(3)
F6 F 0.8740(4) 0.8135(6) 0.2340(4)
C8 C 0.8377(4) 0.7888(6) 0.2151(3)
C9 C 0.4420(4) 0.8709(7) 0.2824(6)
C10 C 0.4179(4) 0.8307(5) 0.2897(5)
H4 H 0.4255 0.7897 0.2976
C11 C 0.3823(3) 0.8520(5) 0.2853(3)
C12 C 0.3709(3) 0.9134(5) 0.2736(3)
H5 H 0.3470 0.9276 0.2706
C13 C 0.3950(3) 0.9535(5) 0.2663(3)
C14 C 0.4306(3) 0.9323(6) 0.2707(5)
H6 H 0.4467 0.9591 0.2658
F7 F 0.3753(5) 0.7592(5) 0.3103(5)
F8 F 0.3453(5) 0.8343(6) 0.3134(5)
F9 F 0.3311(4) 0.7900(6) 0.2654(5)
C15 C 0.3601(4) 0.8107(5) 0.2936(4)
F10 F 0.3987(5) 1.0580(5) 0.2798(4)
F11 F 0.3520(4) 1.0259(5) 0.2367(4)
F12 F 0.3997(5) 1.0464(6) 0.2313(4)
C16 C 0.3882(4) 1.0189(5) 0.2529(3)
C17 C 0.5782(10) 0.5912(9) 0.1581(9)
C18 C 0.5938(8) 0.5608(10) 0.1918(9)
H7 H 0.6087 0.5833 0.2129
C19 C 0.5871(7) 0.4968(10) 0.1939(8)
C20 C 0.5648(7) 0.4633(9) 0.1624(8)
H8 H 0.5604 0.4204 0.1638
C21 C 0.5493(7) 0.4937(10) 0.1287(8)
C22 C 0.5560(8) 0.5577(10) 0.1265(9)
H9 H 0.5456 0.5780 0.1040
F13 F 0.5975(8) 0.4301(13) 0.2304(9)
F14 F 0.6276(9) 0.5001(15) 0.2649(8)
F15 F 0.6503(7) 0.4517(15) 0.2370(9)
C23 C 0.6185(7) 0.4796(12) 0.2324(8)
F16 F 0.5425(9) 0.4088(13) 0.0907(9)
F17 F 0.5179(9) 0.4822(16) 0.0574(8)
F18 F 0.4986(7) 0.4543(15) 0.0937(9)
C24 C 0.5304(8) 0.4663(13) 0.0911(8)
C25 C 0.5939(10) 0.6619(9) 0.3582(5)
C26 C 0.5716(9) 0.6238(9) 0.3287(4)
H10 H 0.5634 0.6388 0.3049
C27 C 0.5615(6) 0.5635(8) 0.3347(3)
C28 C 0.5737(5) 0.5411(7) 0.3702(3)
H11 H 0.5670 0.5007 0.3742
C29 C 0.5960(6) 0.5791(8) 0.3997(3)
C30 C 0.6061(9) 0.6395(9) 0.3937(4)
H12 H 0.6210 0.6650 0.4135
F19 F 0.5120(7) 0.4911(12) 0.3049(4)
F20 F 0.5294(8) 0.5383(11) 0.2711(3)
F21 F 0.5608(9) 0.4658(10) 0.3021(4)
C31 C 0.5422(7) 0.5166(9) 0.3037(3)
F22 F 0.6243(7) 0.4989(11) 0.4477(3)
F23 F 0.6172(8) 0.5873(11) 0.4611(3)
F24 F 0.5721(7) 0.5285(11) 0.4386(4)
C32 C 0.6023(6) 0.5482(9) 0.4347(3)
C33 C 0.6802(7) 0.6315(12) 0.0979(5)
C34 C 0.7154(7) 0.6578(13) 0.0990(5)
H13 H 0.7363 0.6489 0.1223
H14 H 0.7204 0.6390 0.0800
H15 H 0.7127 0.7026 0.0954
C35 C 0.6829(10) 0.5589(13) 0.1012(10)
H16 H 0.6596 0.5423 0.1005
H17 H 0.6870 0.5418 0.0813
H18 H 0.7039 0.5474 0.1240
C36 C 0.6452(8) 0.6415(18) 0.0632(8)
H19 H 0.6237 0.6227 0.0651
H20 H 0.6409 0.6860 0.0587
H21 H 0.6486 0.6224 0.0433
C37 C 0.5299(5) 0.8264(8) 0.4189(4)
C38 C 0.5654(5) 0.8541(10) 0.4467(5)
H22 H 0.5867 0.8286 0.4492
H23 H 0.5685 0.8960 0.4394
H24 H 0.5640 0.8559 0.4698
C39 C 0.5224(6) 0.7624(8) 0.4326(5)
H25 H 0.4993 0.7444 0.4145
H26 H 0.5434 0.7344 0.4371
H27 H 0.5199 0.7686 0.4549
C40 C 0.4955(5) 0.8639(10) 0.4137(5)
H28 H 0.4731 0.8442 0.3954
H29 H 0.4933 0.8658 0.4364
H30 H 0.4978 0.9059 0.4060
C41 C 0.7584(5) 0.7302(9) 0.3234(5)
H31 H 0.7802 0.7410 0.3443
C42 C 0.7616(6) 0.7100(8) 0.2945(5)
H32 H 0.7861 0.7051 0.2964
C43 C 0.7303(5) 0.6946(8) 0.2598(5)
C44 C 0.7343(5) 0.6782(8) 0.2297(5)
C45 C 0.7016(6) 0.6697(8) 0.1959(5)
C46 C 0.7062(6) 0.6536(9) 0.1637(6)
H33 H 0.7303 0.6470 0.1647
C47 C 0.6742(7) 0.6483(10) 0.1316(6)
C48 C 0.6392(6) 0.6544(9) 0.1323(6)
H34 H 0.6176 0.6474 0.1106
C49 C 0.6335(5) 0.6703(8) 0.1630(6)
C50 C 0.6650(5) 0.6750(8) 0.1961(5)
C51 C 0.6605(5) 0.6933(7) 0.2273(5)
C52 C 0.6943(5) 0.6992(7) 0.2611(5)
C53 C 0.6895(5) 0.7162(8) 0.2919(5)
C54 C 0.7223(5) 0.7357(8) 0.3231(5)
H35 H 0.7200 0.7521 0.3433
C55 C 0.5944(5) 0.6668(8) 0.1601(5)
H36 H 0.5773 0.6884 0.1375
C56 C 0.5916(5) 0.7000(8) 0.1917(5)
C57 C 0.6239(5) 0.7068(7) 0.2252(5)
C58 C 0.6200(5) 0.7259(7) 0.2572(5)
C59 C 0.6517(5) 0.7221(7) 0.2931(5)
C60 C 0.6440(5) 0.7222(8) 0.3233(5)
C61 C 0.5541(5) 0.7213(8) 0.1894(5)
C62 C 0.5512(6) 0.7480(8) 0.2197(5)
C63 C 0.5814(5) 0.7466(7) 0.2525(5)
C64 C 0.5785(5) 0.7525(7) 0.2870(5)
C65 C 0.6081(5) 0.7347(7) 0.3198(4)
C66 C 0.5991(5) 0.7268(7) 0.3515(5)
H37 H 0.6218 0.7411 0.3730
C67 C 0.4885(5) 0.8040(8) 0.1857(5)
H38 H 0.4925 0.8034 0.1648
C68 C 0.5172(5) 0.7789(8) 0.2168(5)
C69 C 0.5136(5) 0.7881(8) 0.2495(5)
C70 C 0.5416(5) 0.7748(7) 0.2843(5)
C71 C 0.5394(5) 0.7851(8) 0.3179(5)
C72 C 0.5656(5) 0.7682(8) 0.3499(5)
C73 C 0.5647(5) 0.7809(8) 0.3833(5)
H39 H 0.5845 0.7688 0.4054
C74 C 0.4541(5) 0.8303(8) 0.1821(5)
H40 H 0.4352 0.8432 0.1596
C75 C 0.4503(5) 0.8357(8) 0.2137(5)
H41 H 0.4271 0.8518 0.2116
C76 C 0.4765(5) 0.8202(8) 0.2484(5)
C77 C 0.4735(5) 0.8307(8) 0.2806(5)
C78 C 0.5024(5) 0.8146(8) 0.3133(5)
C79 C 0.5011(5) 0.8276(8) 0.3467(5)
H42 H 0.4792 0.8464 0.3460
C80 C 0.5317(5) 0.8135(9) 0.3819(5)
C81 C 0.6746(4) 0.6942(8) 0.3595(4)
H43 H 0.6981 0.6884 0.3575
H44 H 0.6788 0.7227 0.3793
H45 H 0.6660 0.6543 0.3642
C82 C 0.5199(5) 0.7040(9) 0.1536(5)
H46 H 0.5287 0.6866 0.1368
H47 H 0.5044 0.6735 0.1584
H48 H 0.5050 0.7412 0.1431
C83 C 0.2089(4) 0.4076(9) 0.1015(5)
C84 C 0.1929(4) 0.4637(8) 0.0836(5)
H49 H 0.2083 0.4986 0.0862
C85 C 0.1537(4) 0.4675(6) 0.0619(4)
C86 C 0.1307(4) 0.4152(6) 0.0580(3)
H50 H 0.1045 0.4178 0.0435
C87 C 0.1467(4) 0.3592(6) 0.0759(4)
C88 C 0.1858(4) 0.3554(8) 0.0976(5)
H51 H 0.1966 0.3179 0.1096
F25 F 0.1466(6) 0.5686(6) 0.0539(6)
F26 F 0.1410(6) 0.5259(8) 0.0078(5)
F27 F 0.0974(5) 0.5278(8) 0.0215(5)
C89 C 0.1335(5) 0.5157(7) 0.0358(4)
F28 F 0.1059(5) 0.2871(7) 0.0375(5)
F29 F 0.0933(5) 0.3110(8) 0.0786(5)
F30 F 0.1383(5) 0.2553(7) 0.0878(5)
C90 C 0.1230(4) 0.3075(7) 0.0716(4)
C91 C 0.5957(3) 0.3397(8) 0.3856(4)
C92 C 0.6133(3) 0.2941(7) 0.4123(4)
H52 H 0.5987 0.2625 0.4160
C93 C 0.6526(3) 0.2958(5) 0.4335(3)
C94 C 0.6743(3) 0.3430(5) 0.4280(3)
H53 H 0.7006 0.3441 0.4422
C95 C 0.6568(3) 0.3886(5) 0.4013(3)
C96 C 0.6175(3) 0.3870(7) 0.3801(4)
H54 H 0.6058 0.4175 0.3622
F31 F 0.6795(5) 0.2649(7) 0.4949(3)
F32 F 0.6983(4) 0.2290(6) 0.4598(4)
F33 F 0.6506(5) 0.1947(6) 0.4608(4)
C97 C 0.6666(4) 0.2496(6) 0.4604(3)
F34 F 0.7046(4) 0.4559(6) 0.4242(4)
F35 F 0.6898(5) 0.4334(8) 0.3722(4)
F36 F 0.6616(5) 0.5019(6) 0.3850(5)
C98 C 0.6739(4) 0.4434(6) 0.3945(4)
C99 C 0.3899(6) 0.5205(6) 0.1499(5)
C100 C 0.3950(5) 0.5526(6) 0.1816(4)
H55 H 0.3906 0.5322 0.1997
C101 C 0.4066(3) 0.6154(5) 0.1862(3)
C102 C 0.4132(3) 0.6460(5) 0.1592(3)
H56 H 0.4209 0.6879 0.1623
C103 C 0.4080(3) 0.6139(5) 0.1275(3)
C104 C 0.3964(5) 0.5512(6) 0.1229(4)
H57 H 0.3929 0.5297 0.1017
F37 F 0.4427(4) 0.6739(8) 0.2324(3)
F38 F 0.3878(5) 0.6979(7) 0.2133(4)
F39 F 0.4067(5) 0.6203(8) 0.2437(4)
C105 C 0.4090(4) 0.6470(7) 0.2150(3)
F40 F 0.3863(4) 0.6481(8) 0.0693(3)
F41 F 0.4405(4) 0.6177(8) 0.0927(4)
F42 F 0.4265(4) 0.7017(6) 0.1065(4)
C106 C 0.4145(4) 0.6424(6) 0.1022(4)
C107 C 0.4266(7) 0.4862(4) 0.3560(7)
C108 C 0.4468(5) 0.5251(5) 0.3431(5)
H58 H 0.4607 0.5076 0.3316
C109 C 0.4464(4) 0.5902(4) 0.3474(4)
C110 C 0.4257(3) 0.6163(4) 0.3646(3)
H59 H 0.4253 0.6599 0.3674
C111 C 0.4054(4) 0.5774(5) 0.3775(4)
C112 C 0.4059(6) 0.5124(5) 0.3733(6)
H60 H 0.3924 0.4864 0.3819
F43 F 0.4764(5) 0.6077(7) 0.3078(5)
F44 F 0.4537(4) 0.6823(6) 0.3218(4)
F45 F 0.5017(4) 0.6424(7) 0.3586(5)
C113 C 0.4671(4) 0.6244(5) 0.3340(4)
F46 F 0.4006(5) 0.6610(7) 0.4102(4)
F47 F 0.3760(5) 0.5788(8) 0.4131(5)
F48 F 0.3521(4) 0.6353(8) 0.3691(5)
C114 C 0.3863(4) 0.6106(6) 0.3901(4)
C115 C 0.2771(7) 0.4491(16) 0.0188(6)
C116 C 0.2975(7) 0.4019(15) 0.0042(6)
H61 H 0.2897 0.4095 -0.0214
H62 H 0.3247 0.4075 0.0173
H63 H 0.2909 0.3596 0.0076
C117 C 0.2337(6) 0.4490(15) -0.0035(6)
H64 H 0.2276 0.4554 -0.0289
H65 H 0.2236 0.4091 -0.0006
H66 H 0.2228 0.4823 0.0048
C118 C 0.2897(9) 0.5150(18) 0.0141(7)
H67 H 0.2827 0.5226 -0.0113
H68 H 0.2773 0.5456 0.0229
H69 H 0.3168 0.5186 0.0278
C119 C 0.5357(5) 0.3852(9) 0.4764(4)
C120 C 0.5275(7) 0.4463(9) 0.4891(7)
H70 H 0.5008 0.4557 0.4760
H71 H 0.5342 0.4437 0.5148
H72 H 0.5422 0.4790 0.4849
C121 C 0.5166(7) 0.3305(11) 0.4873(6)
H73 H 0.5222 0.2913 0.4788
H74 H 0.5262 0.3292 0.5135
H75 H 0.4894 0.3368 0.4765
C122 C 0.5771(6) 0.3687(12) 0.4962(6)
H76 H 0.5816 0.3290 0.4874
H77 H 0.5921 0.4009 0.4920
H78 H 0.5841 0.3656 0.5220
C123 C 0.2508(6) 0.3548(11) 0.2143(6)
H79 H 0.2343 0.3384 0.2231
C124 C 0.2347(6) 0.3772(11) 0.1770(6)
H80 H 0.2086 0.3780 0.1620
C125 C 0.2628(5) 0.3982(9) 0.1650(6)
C126 C 0.2501(6) 0.4079(9) 0.1273(6)
C127 C 0.2771(6) 0.4211(9) 0.1122(6)
C128 C 0.2638(5) 0.4271(8) 0.0726(6)
H81 H 0.2380 0.4222 0.0570
C129 C 0.2883(6) 0.4393(9) 0.0587(6)
C130 C 0.3264(6) 0.4402(9) 0.0823(6)
H82 H 0.3438 0.4439 0.0723
C131 C 0.3412(6) 0.4358(9) 0.1213(6)
C132 C 0.3159(5) 0.4245(8) 0.1355(6)
C133 C 0.3293(6) 0.4082(8) 0.1754(6)
C134 C 0.3013(5) 0.3972(9) 0.1879(6)
C135 C 0.3145(6) 0.3821(9) 0.2265(6)
C136 C 0.2894(6) 0.3563(10) 0.2377(6)
H83 H 0.2981 0.3395 0.2611
C137 C 0.3818(5) 0.4462(9) 0.1455(5)
H84 H 0.3964 0.4291 0.1330
C138 C 0.3971(5) 0.4150(8) 0.1831(5)
C139 C 0.3706(6) 0.4040(8) 0.1973(6)
C140 C 0.3836(6) 0.3883(8) 0.2354(6)
C141 C 0.3557(6) 0.3877(9) 0.2509(6)
C142 C 0.3712(6) 0.3977(9) 0.2879(6)
C143 C 0.4364(5) 0.3983(8) 0.2049(5)
C144 C 0.4473(5) 0.3813(8) 0.2403(6)
C145 C 0.4221(5) 0.3813(8) 0.2562(6)
C146 C 0.4361(5) 0.3844(8) 0.2953(6)
C147 C 0.4099(5) 0.3956(8) 0.3109(5)
C148 C 0.4245(5) 0.4114(8) 0.3513(5)
H85 H 0.4080 0.3929 0.3613
C149 C 0.5118(5) 0.3309(8) 0.2487(5)
H86 H 0.5038 0.3238 0.2238
C150 C 0.4854(5) 0.3602(8) 0.2617(5)
C151 C 0.5003(5) 0.3584(8) 0.3030(6)
C152 C 0.4765(5) 0.3751(8) 0.3175(5)
C153 C 0.4905(6) 0.3763(8) 0.3565(6)
C154 C 0.4668(5) 0.3918(9) 0.3743(6)
C155 C 0.4813(6) 0.3907(9) 0.4123(6)
H87 H 0.4650 0.3977 0.4232
C156 C 0.5471(6) 0.3146(9) 0.2726(6)
H88 H 0.5632 0.2973 0.2635
C157 C 0.5607(6) 0.3216(10) 0.3090(6)
H89 H 0.5859 0.3104 0.3237
C158 C 0.5385(6) 0.3451(9) 0.3259(6)
C159 C 0.5544(5) 0.3481(8) 0.3647(6)
C160 C 0.5291(6) 0.3647(8) 0.3797(6)
C161 C 0.5433(6) 0.3656(8) 0.4168(6)
H90 H 0.5690 0.3569 0.4309
C162 C 0.5202(6) 0.3792(8) 0.4343(6)
C163 C 0.3426(6) 0.4121(10) 0.3061(6)
H91 H 0.3571 0.4181 0.3320
H92 H 0.3283 0.4497 0.2954
H93 H 0.3254 0.3772 0.3018
C164 C 0.4621(4) 0.4172(9) 0.1876(5)
H94 H 0.4469 0.4269 0.1623
H95 H 0.4766 0.4538 0.1999
H96 H 0.4791 0.3832 0.1897
C165 C 0.6996(4) 0.3515(8) 0.0780(6)
C166 C 0.6725(4) 0.3976(7) 0.0598(6)
H97 H 0.6796 0.4399 0.0620
C167 C 0.6347(4) 0.3805(6) 0.0384(4)
C168 C 0.6240(3) 0.3174(6) 0.0352(4)
H98 H 0.5988 0.3059 0.0209
C169 C 0.6511(3) 0.2713(6) 0.0534(4)
C170 C 0.6889(3) 0.2884(7) 0.0748(5)
H99 H 0.7070 0.2575 0.0869
F49 F 0.5981(5) 0.4623(6) 0.0355(5)
F50 F 0.5764(4) 0.3991(7) -0.0044(5)
F51 F 0.6163(5) 0.4609(7) -0.0027(5)
C171 C 0.6110(4) 0.4198(6) 0.0199(4)
F52 F 0.6691(5) 0.1618(7) 0.0511(6)
F53 F 0.6346(5) 0.1852(7) 0.0738(5)
F54 F 0.6146(5) 0.1859(6) 0.0196(5)
C172 C 0.6454(4) 0.2076(6) 0.0487(5)
C173 C 1.0502(3) 0.4269(10) 0.4119(5)
C174 C 1.0619(3) 0.4840(8) 0.4302(5)
H100 H 1.0447 0.5171 0.4251
C175 C 1.0995(3) 0.4916(7) 0.4562(3)
C176 C 1.1253(3) 0.4421(7) 0.4639(3)
H101 H 1.1504 0.4472 0.4812
C177 C 1.1136(4) 0.3850(7) 0.4455(4)
C178 C 1.0760(4) 0.3774(8) 0.4195(5)
H102 H 1.0682 0.3392 0.4072
F55 F 1.0889(5) 0.6076(7) 0.4608(6)
F56 F 1.1059(6) 0.5571(9) 0.5057(5)
F57 F 1.1408(5) 0.5675(7) 0.4822(6)
C179 C 1.1038(4) 0.5487(7) 0.4714(4)
F58 F 1.1572(5) 0.3098(7) 0.4654(5)
F59 F 1.1794(4) 0.3837(8) 0.4519(5)
F60 F 1.1457(5) 0.3259(9) 0.4128(5)
C180 C 1.1438(4) 0.3586(7) 0.4410(4)
C181 C 0.8739(6) 0.4715(6) 0.1320(7)
C182 C 0.8988(5) 0.4818(6) 0.1162(6)
H103 H 0.9111 0.4478 0.1113
C183 C 0.9055(4) 0.5428(6) 0.1078(4)
C184 C 0.8872(3) 0.5935(5) 0.1152(3)
H104 H 0.8917 0.6344 0.1096
C185 C 0.8623(4) 0.5832(6) 0.1309(4)
C186 C 0.8557(5) 0.5222(7) 0.1393(6)
H105 H 0.8390 0.5153 0.1499
F61 F 0.8194(4) 0.6259(9) 0.1529(5)
F62 F 0.8144(4) 0.6662(8) 0.1067(4)
F63 F 0.8613(4) 0.6797(7) 0.1518(4)
C187 C 0.8394(4) 0.6300(7) 0.1339(4)
F64 F 0.9282(5) 0.5360(9) 0.0672(4)
F65 F 0.9431(4) 0.6178(8) 0.0940(4)
F66 F 0.9679(4) 0.5389(9) 0.1186(5)
C188 C 0.9320(4) 0.5594(7) 0.0986(4)
C189 C 0.8511(8) 0.3849(9) 0.3552(7)
C190 C 0.8507(6) 0.4492(9) 0.3483(6)
H106 H 0.8589 0.4639 0.3313
C191 C 0.8379(4) 0.4916(8) 0.3667(4)
C192 C 0.8256(3) 0.4697(7) 0.3921(4)
H107 H 0.8171 0.4981 0.4044
C193 C 0.8261(4) 0.4054(7) 0.3991(4)
C194 C 0.8389(6) 0.3630(7) 0.3807(6)
H108 H 0.8392 0.3200 0.3853
F67 F 0.8324(5) 0.5929(7) 0.3793(5)
F68 F 0.7972(5) 0.5750(8) 0.3277(5)
F69 F 0.8530(5) 0.5795(10) 0.3428(5)
C195 C 0.8294(4) 0.5507(8) 0.3545(4)
F70 F 0.7827(5) 0.3473(8) 0.4114(5)
F71 F 0.8049(6) 0.4221(8) 0.4436(4)
F72 F 0.8367(5) 0.3448(8) 0.4500(5)
C196 C 0.8137(4) 0.3824(7) 0.4224(4)
C197 C 0.7928(5) 0.3059(9) 0.0230(4)
C198 C 0.7541(5) 0.2859(10) -0.0032(5)
H109 H 0.7439 0.2574 0.0087
H110 H 0.7379 0.3222 -0.0117
H111 H 0.7555 0.2650 -0.0236
C199 C 0.8198(5) 0.2484(9) 0.0337(5)
H112 H 0.8449 0.2613 0.0507
H113 H 0.8105 0.2169 0.0448
H114 H 0.8207 0.2312 0.0122
C200 C 0.8102(6) 0.3503(9) 0.0060(5)
H115 H 0.8352 0.3622 0.0238
H116 H 0.8120 0.3301 -0.0143
H117 H 0.7945 0.3873 -0.0024
C201 C 0.9792(9) 0.2580(16) 0.4600(8)
C202 C 0.9497(10) 0.220(2) 0.4644(11)
H118 H 0.9268 0.2444 0.4571
H119 H 0.9444 0.1829 0.4493
H120 H 0.9586 0.2076 0.4895
C203 C 0.9914(14) 0.3135(16) 0.4873(12)
H121 H 1.0106 0.3380 0.4842
H122 H 0.9697 0.3398 0.4828
H123 H 1.0016 0.2975 0.5118
C204 C 1.0156(10) 0.222(2) 0.4709(12)
H124 H 1.0341 0.2487 0.4677
H125 H 1.0253 0.2101 0.4961
H126 H 1.0110 0.1854 0.4559
C205 C 0.7143(5) 0.4075(9) 0.1855(5)
H127 H 0.6932 0.4177 0.1896
C206 C 0.7095(6) 0.3925(9) 0.1516(6)
H128 H 0.6849 0.3893 0.1329
C207 C 0.7416(6) 0.3813(9) 0.1436(5)
C208 C 0.7361(5) 0.3668(8) 0.1095(5)
C209 C 0.7694(6) 0.3590(9) 0.1015(5)
C210 C 0.7660(5) 0.3392(9) 0.0673(5)
H129 H 0.7418 0.3297 0.0492
C211 C 0.7968(6) 0.3330(9) 0.0591(5)
C212 C 0.8327(5) 0.3544(8) 0.0867(5)
H130 H 0.8539 0.3526 0.0818
C213 C 0.8377(5) 0.3777(8) 0.1207(5)
C214 C 0.8038(6) 0.3753(8) 0.1282(6)
C215 C 0.8121(6) 0.3881(8) 0.1665(5)
C216 C 0.7779(6) 0.3854(8) 0.1719(5)
C217 C 0.7836(6) 0.3963(8) 0.2095(5)
C218 C 0.7521(6) 0.4079(9) 0.2156(5)
H131 H 0.7550 0.4160 0.2392
C219 C 0.8757(5) 0.4049(8) 0.1486(5)
H132 H 0.8971 0.3809 0.1483
C220 C 0.8794(6) 0.4094(8) 0.1860(5)
C221 C 0.8477(5) 0.3993(8) 0.1938(6)
C222 C 0.8535(5) 0.3970(7) 0.2300(5)
C223 C 0.8235(5) 0.3849(7) 0.2391(5)
C224 C 0.8297(6) 0.3639(8) 0.2746(5)
C225 C 0.9157(5) 0.4245(7) 0.2159(6)
C226 C 0.9215(5) 0.4263(8) 0.2516(5)
C227 C 0.8908(5) 0.4043(8) 0.2591(5)
C228 C 0.8990(5) 0.3887(8) 0.2966(6)
C229 C 0.8689(6) 0.3681(8) 0.3036(5)
C230 C 0.8777(5) 0.3465(9) 0.3426(5)
H133 H 0.8676 0.3033 0.3395
C231 C 0.9793(5) 0.4907(9) 0.2774(6)
H134 H 0.9734 0.5078 0.2545
C232 C 0.9544(6) 0.4486(9) 0.2813(6)
C233 C 0.9634(5) 0.4290(9) 0.3177(6)
C234 C 0.9356(5) 0.3971(9) 0.3254(6)
C235 C 0.9457(6) 0.3759(9) 0.3587(6)
C236 C 0.9165(5) 0.3401(9) 0.3670(6)
C237 C 0.9281(6) 0.3105(9) 0.4001(6)
H135 H 0.9104 0.2859 0.4040
C238 C 1.0141(6) 0.5090(10) 0.3076(6)
H136 H 1.0287 0.5408 0.3042
C239 C 1.0267(6) 0.4815(9) 0.3415(6)
H137 H 1.0513 0.4886 0.3596
C240 C 1.0011(5) 0.4421(9) 0.3477(6)
C241 C 1.0118(5) 0.4119(10) 0.3824(5)
C242 C 0.9815(6) 0.3763(9) 0.3862(5)
C243 C 0.9915(6) 0.3449(10) 0.4214(6)
H138 H 1.0166 0.3457 0.4393
C244 C 0.9644(7) 0.3148(10) 0.4278(6)
C245 C 0.7989(4) 0.3364(8) 0.2838(4)
H139 H 0.8098 0.3256 0.3093
H140 H 0.7790 0.3670 0.2786
H141 H 0.7885 0.2993 0.2694
C246 C 0.9485(5) 0.4396(8) 0.2029(5)
H142 H 0.9381 0.4355 0.1768
H143 H 0.9576 0.4818 0.2099
H144 H 0.9692 0.4104 0.2142
C247 C -0.0333(5) 0.6951(8) 0.3260(5)
C248 C -0.0271(4) 0.6474(7) 0.3515(4)
H145 H -0.0061 0.6208 0.3581
C249 C -0.0523(3) 0.6395(5) 0.3672(3)
C250 C -0.0837(3) 0.6793(5) 0.3573(3)
H146 H -0.1005 0.6740 0.3678
C251 C -0.0898(4) 0.7269(5) 0.3318(3)
C252 C -0.0646(5) 0.7348(7) 0.3161(4)
H147 H -0.0687 0.7667 0.2991
F73 F -0.0551(4) 0.5341(5) 0.3815(4)
F74 F -0.0122(4) 0.5804(6) 0.4175(4)
F75 F -0.0624(5) 0.5943(6) 0.4145(4)
C253 C -0.0468(4) 0.5951(5) 0.3902(3)
F76 F -0.1392(5) 0.7841(6) 0.2923(4)
F77 F -0.1117(5) 0.8218(5) 0.3402(4)
F78 F -0.1468(4) 0.7534(7) 0.3334(5)
C254 C -0.1163(4) 0.7626(5) 0.3258(4)
C255 C 0.2393(6) 0.7328(10) 0.1672(9)
C256 C 0.2429(5) 0.6776(9) 0.1504(8)
H148 H 0.2246 0.6459 0.1448
C257 C 0.2737(4) 0.6698(7) 0.1421(5)
C258 C 0.3009(4) 0.7172(6) 0.1504(4)
H149 H 0.3216 0.7119 0.1448
C259 C 0.2973(4) 0.7724(7) 0.1672(5)
C260 C 0.2665(5) 0.7802(8) 0.1756(7)
H150 H 0.2641 0.8172 0.1868
F79 F 0.2498(6) 0.6007(8) 0.0951(6)
F80 F 0.3052(6) 0.6136(7) 0.1166(6)
F81 F 0.2829(6) 0.5649(7) 0.1428(6)
C261 C 0.2767(5) 0.6231(7) 0.1268(5)
F82 F 0.3424(5) 0.8276(7) 0.1553(5)
F83 F 0.3605(5) 0.8091(8) 0.2068(5)
F84 F 0.3215(5) 0.8725(7) 0.1843(6)
C262 C 0.3260(4) 0.8110(7) 0.1771(5)
C263 C 0.1528(11) 0.6888(10) 0.3729(5)
C264 C 0.1475(9) 0.6244(10) 0.3660(4)
H151 H 0.1344 0.6099 0.3421
C265 C 0.1618(6) 0.5816(9) 0.3948(4)
C266 C 0.1814(5) 0.6033(8) 0.4305(3)
H152 H 0.1909 0.5747 0.4498
C267 C 0.1867(6) 0.6677(8) 0.4374(4)
C268 C 0.1724(9) 0.7104(8) 0.4086(5)
H153 H 0.1760 0.7535 0.4132
F85 F 0.1255(8) 0.4958(11) 0.3580(5)
F86 F 0.1793(8) 0.4847(10) 0.3899(6)
F87 F 0.1419(8) 0.4832(10) 0.4098(6)
C269 C 0.1511(7) 0.5236(9) 0.3887(4)
F88 F 0.2057(9) 0.7354(10) 0.4866(6)
F89 F 0.2139(8) 0.6463(11) 0.4968(4)
F90 F 0.2483(7) 0.6940(12) 0.4818(6)
C270 C 0.2098(7) 0.6849(9) 0.4686(4)
C271 C 0.0574(4) 0.6661(5) 0.1184(3)
C272 C 0.0749(4) 0.6077(5) 0.1301(3)
H154 H 0.0947 0.6034 0.1534
C273 C 0.0626(3) 0.5558(4) 0.1069(2)
C274 C 0.0329(3) 0.5623(4) 0.0720(2)
H155 H 0.0247 0.5276 0.0565
C275 C 0.0155(3) 0.6206(4) 0.0604(3)
C276 C 0.0277(4) 0.6725(4) 0.0836(3)
H156 H 0.0161 0.7116 0.0758
F91 F 0.0798(4) 0.4567(5) 0.0982(3)
F92 F 0.1170(3) 0.4945(6) 0.1444(3)
F93 F 0.0671(4) 0.4658(6) 0.1395(3)
C277 C 0.0802(3) 0.5040(5) 0.1202(3)
F94 F -0.0077(4) 0.6618(6) 0.0034(3)
F95 F -0.0232(3) 0.5766(5) 0.0069(3)
F96 F -0.0449(3) 0.6479(6) 0.0220(4)
C278 C -0.0089(3) 0.6258(5) 0.0302(3)
C279 C 0.0763(9) 0.8061(14) 0.4376(8)
C280 C 0.0917(10) 0.8708(14) 0.4424(11)
H157 H 0.1140 0.8713 0.4380
H158 H 0.0728 0.8986 0.4255
H159 H 0.0984 0.8846 0.4670
C281 C 0.1047(9) 0.7626(15) 0.4675(11)
H160 H 0.0946 0.7206 0.4643
H161 H 0.1286 0.7621 0.4658
H162 H 0.1087 0.7780 0.4912
C282 C 0.0414(8) 0.8021(18) 0.4442(13)
H163 H 0.0323 0.7594 0.4408
H164 H 0.0476 0.8152 0.4688
H165 H 0.0219 0.8292 0.4273
C283 C 0.1261(6) 0.8188(11) 0.0587(5)
C284 C 0.1061(6) 0.8802(10) 0.0519(6)
H166 H 0.1027 0.8963 0.0285
H167 H 0.0817 0.8747 0.0520
H168 H 0.1211 0.9095 0.0707
C285 C 0.1020(6) 0.7717(10) 0.0282(6)
H169 H 0.0966 0.7896 0.0047
H170 H 0.1161 0.7331 0.0312
H171 H 0.0785 0.7631 0.0297
C286 C 0.1621(5) 0.8236(12) 0.0541(6)
H172 H 0.1568 0.8434 0.0311
H173 H 0.1804 0.8483 0.0737
H174 H 0.1722 0.7821 0.0545
C287 C -0.0425(5) 0.6330(8) 0.2209(5)
H175 H -0.0637 0.6098 0.2056
C288 C -0.0384(5) 0.6553(8) 0.2535(5)
H176 H -0.0591 0.6505 0.2591
C289 C -0.0056(5) 0.6855(8) 0.2802(5)
C290 C -0.0013(5) 0.7034(8) 0.3148(5)
C291 C 0.0313(6) 0.7342(8) 0.3386(5)
C292 C 0.0353(6) 0.7617(9) 0.3729(5)
H177 H 0.0145 0.7620 0.3786
C293 C 0.0693(7) 0.7870(10) 0.3969(5)
C294 C 0.0998(6) 0.7868(10) 0.3882(5)
H178 H 0.1222 0.8069 0.4039
C295 C 0.0986(6) 0.7572(8) 0.3563(5)
C296 C 0.0653(6) 0.7368(8) 0.3311(5)
C297 C 0.0606(5) 0.7159(8) 0.2963(5)
C298 C 0.0266(5) 0.6949(8) 0.2696(5)
C299 C 0.0201(5) 0.6807(8) 0.2331(5)
C300 C -0.0121(6) 0.6473(9) 0.2114(6)
H179 H -0.0143 0.6329 0.1890
C301 C 0.1344(5) 0.7454(8) 0.3515(5)
H180 H 0.1516 0.7814 0.3614
C302 C 0.1297(5) 0.7327(8) 0.3146(5)
C303 C 0.0942(5) 0.7188(8) 0.2872(6)
C304 C 0.0888(6) 0.7114(7) 0.2517(5)
C305 C 0.0508(5) 0.7013(8) 0.2217(5)
C306 C 0.0440(5) 0.7094(8) 0.1863(5)
C307 C 0.1606(5) 0.7296(9) 0.3073(5)
C308 C 0.1578(6) 0.7141(9) 0.2733(5)
C309 C 0.1202(5) 0.7131(7) 0.2432(5)
C310 C 0.1108(5) 0.7189(7) 0.2046(5)
C311 C 0.0758(5) 0.7202(8) 0.1779(5)
C312 C 0.0701(5) 0.7276(9) 0.1391(5)
H181 H 0.0497 0.7586 0.1273
C313 C 0.2230(6) 0.6813(10) 0.2866(6)
H182 H 0.2268 0.6733 0.3105
C314 C 0.1890(6) 0.7029(9) 0.2622(5)
C315 C 0.1837(6) 0.7116(9) 0.2264(5)
C316 C 0.1473(6) 0.7230(9) 0.1983(6)
C317 C 0.1421(6) 0.7403(8) 0.1631(6)
C318 C 0.1053(6) 0.7504(8) 0.1352(5)
C319 C 0.1011(5) 0.7740(8) 0.1005(5)
H183 H 0.0766 0.7800 0.0820
C320 C 0.2542(5) 0.6701(10) 0.2760(6)
H184 H 0.2762 0.6488 0.2916
C321 C 0.2502(5) 0.6915(10) 0.2428(6)
H185 H 0.2713 0.6912 0.2376
C322 C 0.2162(6) 0.7133(10) 0.2171(6)
C323 C 0.2106(6) 0.7290(9) 0.1815(6)
C324 C 0.1739(6) 0.7471(9) 0.1553(6)
C325 C 0.1663(6) 0.7705(9) 0.1200(6)
H186 H 0.1873 0.7734 0.1149
C326 C 0.1334(6) 0.7886(9) 0.0936(5)
C327 C 0.0062(5) 0.7110(8) 0.1556(4)
H187 H 0.0087 0.7173 0.1332
H188 H -0.0066 0.6717 0.1543
H189 H -0.0083 0.7450 0.1589
C328 C 0.2009(5) 0.7465(9) 0.3388(5)
H190 H 0.2200 0.7423 0.3298
H191 H 0.2007 0.7891 0.3467
H192 H 0.2067 0.7183 0.3590
C329? C 0.7702(5) 0.6847(9) 0.2304(7)
C330? C 0.7798(4) 0.7361(7) 0.2147(6)
H193? H 0.7639 0.7712 0.2074
C331? C 0.8131(3) 0.7349(6) 0.2099(4)
C332? C 0.8369(3) 0.6823(6) 0.2209(3)
H194? H 0.8592 0.6815 0.2177
C333? C 0.8273(4) 0.6310(6) 0.2366(4)
C334? C 0.7940(5) 0.6322(8) 0.2413(6)
H195? H 0.7876 0.5979 0.2518
F97? F 0.8608(5) 0.5558(6) 0.2220(5)
F98? F 0.8882(5) 0.5874(7) 0.2727(4)
F99? F 0.8428(6) 0.5326(7) 0.2593(5)
C335? C 0.8512(4) 0.5874(6) 0.2461(4)
F100? F 0.8090(5) 0.8411(6) 0.1946(4)
F101? F 0.8175(4) 0.7830(7) 0.1605(3)
F102? F 0.8604(4) 0.8051(7) 0.2074(4)
C336? C 0.8238(3) 0.7824(6) 0.1963(3)
C337? C 0.4358(4) 0.8617(6) 0.2758(7)
C338? C 0.4061(4) 0.8341(5) 0.2811(6)
H196? H 0.4063 0.7909 0.2852
C339? C 0.3762(3) 0.8710(5) 0.2803(4)
C340? C 0.3759(2) 0.9356(5) 0.2742(3)
H197? H 0.3559 0.9604 0.2736
C341? C 0.4056(3) 0.9633(5) 0.2689(4)
C342? C 0.4355(3) 0.9263(6) 0.2697(5)
H198? H 0.4553 0.9448 0.2662
F103? F 0.3539(4) 0.7842(5) 0.2982(5)
F104? F 0.3390(4) 0.8697(6) 0.3092(5)
F105? F 0.3163(3) 0.8365(6) 0.2576(5)
C343? C 0.3482(3) 0.8413(5) 0.2864(4)
F106? F 0.4280(4) 1.0608(6) 0.2912(5)
F107? F 0.3770(4) 1.0539(5) 0.2472(5)
F108? F 0.4254(4) 1.0518(6) 0.2410(5)
C344? C 0.4104(3) 1.0296(5) 0.2612(4)
C345? C 0.5794(7) 0.6005(6) 0.1571(4)
C346? C 0.5836(6) 0.5604(6) 0.1857(3)
H199? H 0.5956 0.5747 0.2098
C347? C 0.5697(4) 0.4990(6) 0.1784(3)
C348? C 0.5517(4) 0.4777(6) 0.1425(3)
H200? H 0.5424 0.4366 0.1376
C349? C 0.5476(4) 0.5178(6) 0.1139(3)
C350? C 0.5614(6) 0.5793(6) 0.1212(3)
H201? H 0.5586 0.6061 0.1021
F109? F 0.5641(5) 0.4240(8) 0.2038(4)
F110? F 0.5932(6) 0.4785(9) 0.2484(3)
F111? F 0.6211(5) 0.4319(9) 0.2247(4)
C351? C 0.5908(5) 0.4673(7) 0.2164(3)
F112? F 0.5432(6) 0.4443(7) 0.0703(3)
F113? F 0.5332(6) 0.5283(8) 0.0449(3)
F114? F 0.4994(5) 0.4979(9) 0.0675(3)
C352? C 0.5355(5) 0.5031(7) 0.0744(3)
C353? C 0.5871(4) 0.6615(4) 0.3533(3)
C354? C 0.5654(3) 0.6290(4) 0.3211(3)
H202? H 0.5605 0.6471 0.2986
C355? C 0.5511(3) 0.5694(4) 0.3226(2)
C356? C 0.5585(3) 0.5424(4) 0.3562(2)
H203? H 0.5489 0.5026 0.3572
C357? C 0.5802(3) 0.5749(5) 0.3884(2)
C358? C 0.5945(4) 0.6345(5) 0.3869(3)
H204? H 0.6089 0.6562 0.4085
F115? F 0.4994(3) 0.5057(6) 0.2855(2)
F116? F 0.5239(3) 0.5541(6) 0.2579(2)
F117? F 0.5492(3) 0.4755(5) 0.2865(2)
C359? C 0.5323(3) 0.5280(5) 0.2889(2)
F118? F 0.5998(3) 0.4873(6) 0.4324(2)
F119? F 0.5954(4) 0.5747(6) 0.4489(2)
F120? F 0.5481(3) 0.5234(5) 0.4199(2)
C360? C 0.5810(3) 0.5400(5) 0.4204(2)
C361? C 0.6752(8) 0.6207(15) 0.0960(8)
C362? C 0.6726(11) 0.6743(14) 0.0719(11)
H205? H 0.6933 0.7031 0.0845
H206? H 0.6740 0.6592 0.0502
H207? H 0.6487 0.6958 0.0652
C363? C 0.7112(8) 0.5812(19) 0.1035(10)
H208? H 0.7126 0.5464 0.1192
H209? H 0.7100 0.5654 0.0809
H210? H 0.7335 0.6071 0.1152
C364? C 0.6437(9) 0.5744(18) 0.0777(11)
H211? H 0.6464 0.5402 0.0941
H212? H 0.6196 0.5949 0.0711
H213? H 0.6449 0.5583 0.0561
C365? C 0.2067(3) 0.4075(7) 0.1047(5)
C366? C 0.1887(4) 0.4658(7) 0.0948(4)
H214? H 0.2024 0.5027 0.1044
C367? C 0.1503(3) 0.4690(6) 0.0704(3)
C368? C 0.1298(3) 0.4140(6) 0.0560(3)
H215? H 0.1041 0.4161 0.0397
C369? C 0.1478(3) 0.3557(6) 0.0659(3)
C370? C 0.1863(3) 0.3524(6) 0.0903(4)
H216? H 0.1983 0.3134 0.0970
F121? F 0.1379(5) 0.5665(6) 0.0772(5)
F122? F 0.1393(5) 0.5541(6) 0.0289(4)
F123? F 0.0927(4) 0.5310(6) 0.0353(5)
C371? C 0.1293(4) 0.5238(6) 0.0514(4)
F124? F 0.1137(4) 0.2977(6) 0.0152(4)
F125? F 0.0950(4) 0.2890(6) 0.0537(5)
F126? F 0.1439(4) 0.2473(6) 0.0600(5)
C372? C 0.1267(4) 0.3011(6) 0.0511(4)
C373? C 0.5969(5) 0.3370(15) 0.3864(8)
C374? C 0.6047(5) 0.2922(13) 0.4138(7)
H217? H 0.5849 0.2690 0.4148
C375? C 0.6421(5) 0.2821(10) 0.4396(6)
C376? C 0.6717(5) 0.3168(9) 0.4380(5)
H218? H 0.6967 0.3100 0.4553
C377? C 0.6639(5) 0.3616(10) 0.4107(5)
C378? C 0.6265(6) 0.3717(13) 0.3849(7)
H219? H 0.6213 0.4017 0.3666
F127? F 0.6560(8) 0.2566(13) 0.5001(6)
F128? F 0.6762(7) 0.2041(11) 0.4710(8)
F129? F 0.6223(7) 0.1923(12) 0.4642(8)
C379? C 0.6462(6) 0.2383(11) 0.4664(7)
F130? F 0.7186(7) 0.4118(13) 0.4393(7)
F131? F 0.7085(8) 0.3826(14) 0.3894(8)
F132? F 0.6865(8) 0.4649(12) 0.3964(8)
C380? C 0.6899(6) 0.4053(11) 0.4071(7)
C381? C 0.3926(10) 0.5197(7) 0.1531(7)
C382? C 0.3907(8) 0.5458(7) 0.1837(6)
H220? H 0.3893 0.5196 0.2014
C383? C 0.3910(5) 0.6110(7) 0.1877(4)
C384? C 0.3932(4) 0.6500(7) 0.1612(4)
H221? H 0.3934 0.6936 0.1639
C385? C 0.3951(5) 0.6239(8) 0.1306(4)
C386? C 0.3948(8) 0.5587(8) 0.1265(6)
H222? H 0.3961 0.5413 0.1061
F133? F 0.4141(6) 0.6762(10) 0.2336(4)
F134? F 0.3573(6) 0.6728(11) 0.2117(5)
F135? F 0.3878(7) 0.6024(11) 0.2436(5)
C387? C 0.3866(5) 0.6358(9) 0.2154(4)
F136? F 0.3705(7) 0.6577(13) 0.0722(4)
F137? F 0.4276(7) 0.6538(12) 0.0983(6)
F138? F 0.3989(7) 0.7227(9) 0.1096(5)
C388? C 0.3976(6) 0.6606(10) 0.1058(4)
C389? C 0.4255(9) 0.4786(8) 0.3602(9)
C390? C 0.4414(7) 0.5279(9) 0.3488(8)
H223? H 0.4582 0.5193 0.3386
C391? C 0.4321(5) 0.5899(8) 0.3525(5)
C392? C 0.4069(5) 0.6028(7) 0.3677(4)
H224? H 0.4007 0.6443 0.3702
C393? C 0.3910(5) 0.5535(7) 0.3791(5)
C394? C 0.4003(8) 0.4914(7) 0.3753(8)
H225? H 0.3897 0.4584 0.3829
F139? F 0.4622(7) 0.6282(12) 0.3161(7)
F140? F 0.4288(7) 0.6879(10) 0.3278(7)
F141? F 0.4799(6) 0.6623(12) 0.3668(7)
C395? C 0.4491(6) 0.6350(10) 0.3408(6)
F142? F 0.3733(6) 0.6258(9) 0.4100(6)
F143? F 0.3594(7) 0.5347(10) 0.4116(6)
F144? F 0.3306(5) 0.5882(11) 0.3670(6)
C396? C 0.3668(5) 0.5748(8) 0.3898(5)
C397? C 0.6945(4) 0.3479(9) 0.0766(5)
C398? C 0.6742(5) 0.3972(7) 0.0539(5)
H226? H 0.6854 0.4368 0.0563
C399? C 0.6370(4) 0.3874(7) 0.0274(4)
C400? C 0.6202(4) 0.3283(6) 0.0237(3)
H227? H 0.5954 0.3217 0.0061
C401? C 0.6405(4) 0.2790(7) 0.0465(4)
C402? C 0.6777(4) 0.2888(8) 0.0729(4)
H228? H 0.6913 0.2558 0.0881
F145? F 0.6070(6) 0.4792(7) 0.0154(5)
F146? F 0.5862(5) 0.4135(8) -0.0230(4)
F147? F 0.6341(6) 0.4606(8) -0.0146(5)
C403? C 0.6197(5) 0.4287(7) 0.0053(4)
F148? F 0.6492(5) 0.1650(7) 0.0506(5)
F149? F 0.6104(5) 0.2063(7) 0.0630(5)
F150? F 0.6006(5) 0.1983(7) 0.0108(5)
C404? C 0.6292(4) 0.2173(6) 0.0425(4)
C405? C 1.0499(4) 0.4202(10) 0.4143(4)
C406? C 1.0549(3) 0.4621(8) 0.4423(4)
H229? H 1.0341 0.4848 0.4418
C407? C 1.0908(3) 0.4702(6) 0.4712(3)
C408? C 1.1218(3) 0.4363(6) 0.4720(3)
H230? H 1.1459 0.4417 0.4913
C409? C 1.1168(4) 0.3943(7) 0.4440(3)
C410? C 1.0809(4) 0.3862(9) 0.4151(3)
H231? H 1.0775 0.3581 0.3963
F151? F 1.0801(5) 0.5669(7) 0.4904(5)
F152? F 1.0821(5) 0.5004(9) 0.5251(4)
F153? F 1.1297(4) 0.5220(8) 0.5213(4)
C411? C 1.0930(4) 0.5062(7) 0.4974(4)
F154? F 1.1384(5) 0.2873(7) 0.4648(5)
F155? F 1.1755(4) 0.3576(8) 0.4782(5)
F156? F 1.1520(5) 0.3270(9) 0.4269(5)
C412? C 1.1393(4) 0.3465(7) 0.4519(4)
C413? C 0.8802(7) 0.4710(7) 0.1369(8)
C414? C 0.9015(6) 0.4807(7) 0.1173(7)
H232? H 0.9175 0.4490 0.1161
C415? C 0.8989(4) 0.5378(6) 0.0994(4)
C416? C 0.8750(4) 0.5851(6) 0.1012(3)
H233? H 0.8733 0.6233 0.0892
C417? C 0.8537(4) 0.5755(6) 0.1208(4)
C418? C 0.8563(6) 0.5184(7) 0.1386(6)
H234? H 0.8421 0.5119 0.1518
F157? F 0.8084(5) 0.6149(8) 0.1407(5)
F158? F 0.7954(4) 0.6364(9) 0.0888(5)
F159? F 0.8406(5) 0.6750(7) 0.1280(5)
C419? C 0.8257(4) 0.6165(7) 0.1192(4)
F160? F 0.9190(5) 0.5219(9) 0.0574(5)
F161? F 0.9233(5) 0.6128(9) 0.0712(5)
F162? F 0.9593(4) 0.5510(10) 0.1051(5)
C420? C 0.9212(4) 0.5561(8) 0.0853(4)
C421? C 0.8568(6) 0.3879(7) 0.3587(6)
C422? C 0.8489(5) 0.4508(7) 0.3484(5)
H235? H 0.8592 0.4695 0.3340
C423? C 0.8255(3) 0.4856(6) 0.3596(3)
C424? C 0.8101(3) 0.4576(5) 0.3811(3)
H236? H 0.7945 0.4809 0.3886
C425? C 0.8180(3) 0.3947(6) 0.3914(3)
C426? C 0.8414(5) 0.3599(6) 0.3802(5)
H237? H 0.8466 0.3178 0.3872
F163? F 0.8029(5) 0.5810(5) 0.3634(4)
F164? F 0.7801(4) 0.5530(7) 0.3118(4)
F165? F 0.8344(4) 0.5789(7) 0.3359(4)
C427? C 0.8111(4) 0.5404(6) 0.3434(3)
F166? F 0.7779(5) 0.3196(6) 0.3975(4)
F167? F 0.7836(5) 0.3992(7) 0.4258(4)
F168? F 0.8262(5) 0.3364(7) 0.4425(4)
C428? C 0.8030(4) 0.3656(6) 0.4112(3)
C429? C 0.9733(7) 0.2789(13) 0.4632(7)
C430? C 0.9479(9) 0.3034(16) 0.4786(8)
H238? H 0.9516 0.3481 0.4823
H239? H 0.9218 0.2949 0.4620
H240? H 0.9538 0.2830 0.5016
C431? C 1.0156(7) 0.2851(17) 0.4909(9)
H241? H 1.0316 0.2689 0.4803
H242? H 1.0216 0.3287 0.4972
H243? H 1.0200 0.2615 0.5126
C432? C 0.9691(11) 0.2093(14) 0.4567(11)
H244? H 0.9860 0.1954 0.4467
H245? H 0.9752 0.1880 0.4794
H246? H 0.9432 0.1999 0.4398
C433? C -0.0316(5) 0.6942(7) 0.3261(6)
C434? C -0.0317(4) 0.6387(6) 0.3443(5)
H247? H -0.0146 0.6066 0.3464
C435? C -0.0575(3) 0.6312(5) 0.3593(3)
C436? C -0.0832(3) 0.6793(4) 0.3561(3)
H248? H -0.1004 0.6743 0.3662
C437? C -0.0830(4) 0.7347(5) 0.3379(3)
C438? C -0.0572(5) 0.7422(6) 0.3229(5)
H249? H -0.0571 0.7793 0.3107
F169? F -0.0737(4) 0.5256(4) 0.3587(5)
F170? F -0.0260(4) 0.5496(5) 0.3993(4)
F171? F -0.0734(5) 0.5744(6) 0.3998(4)
C439? C -0.0579(4) 0.5798(5) 0.3756(4)
F172? F -0.1239(5) 0.8129(6) 0.3084(4)
F173? F -0.0924(5) 0.8279(5) 0.3600(4)
F174? F -0.1355(4) 0.7715(6) 0.3448(5)
C440? C -0.1044(4) 0.7766(5) 0.3377(4)
C441? C 0.2450(6) 0.7202(9) 0.1743(7)
C442? C 0.2496(5) 0.6707(8) 0.1541(6)
H250? H 0.2370 0.6327 0.1524
C443? C 0.2730(4) 0.6781(6) 0.1364(5)
C444? C 0.2918(3) 0.7350(6) 0.1390(4)
H251? H 0.3075 0.7399 0.1272
C445? C 0.2872(4) 0.7845(6) 0.1592(4)
C446? C 0.2638(5) 0.7771(8) 0.1769(6)
H252? H 0.2608 0.8102 0.1904
F175? F 0.2476(6) 0.6074(7) 0.0905(6)
F176? F 0.2976(6) 0.6414(7) 0.0991(5)
F177? F 0.2937(6) 0.5804(6) 0.1328(6)
C447? C 0.2764(5) 0.6364(6) 0.1181(5)
F178? F 0.3133(5) 0.8598(6) 0.1350(5)
F179? F 0.3463(4) 0.8424(7) 0.1858(5)
F180? F 0.2998(5) 0.8898(6) 0.1731(5)
C448? C 0.3088(4) 0.8332(6) 0.1629(4)
C449? C 0.1537(6) 0.6910(7) 0.3800(5)
C450? C 0.1427(5) 0.6334(8) 0.3620(4)
H253? H 0.1260 0.6323 0.3373
C451? C 0.1566(4) 0.5775(7) 0.3811(3)
C452? C 0.1815(3) 0.5792(6) 0.4182(3)
H254? H 0.1908 0.5418 0.4309
C453? C 0.1925(4) 0.6368(7) 0.4361(4)
C454? C 0.1786(5) 0.6927(6) 0.4170(5)
H255? H 0.1859 0.7313 0.4290
F181? F 0.1109(4) 0.5140(9) 0.3336(4)
F182? F 0.1644(5) 0.4901(8) 0.3559(4)
F183? F 0.1325(5) 0.4735(8) 0.3810(4)
C455? C 0.1412(4) 0.5250(8) 0.3658(4)
F184? F 0.2225(5) 0.6743(9) 0.4952(4)
F185? F 0.2244(5) 0.5846(9) 0.4879(3)
F186? F 0.2579(4) 0.6418(10) 0.4767(4)
C456? C 0.2196(4) 0.6372(8) 0.4673(4)
C457? C 0.0569(6) 0.6624(7) 0.1135(4)
C458? C 0.0774(5) 0.6096(8) 0.1321(4)
H256? H 0.0954 0.6132 0.1564
C459? C 0.0709(4) 0.5515(7) 0.1146(3)
C460? C 0.0440(3) 0.5461(7) 0.0784(3)
H257? H 0.0396 0.5073 0.0666
C461? C 0.0235(4) 0.5989(7) 0.0597(3)
C462? C 0.0300(5) 0.6570(7) 0.0773(4)
H258? H 0.0163 0.6923 0.0648
F187? F 0.0963(5) 0.4534(8) 0.1184(4)
F188? F 0.1268(4) 0.5059(10) 0.1614(4)
F189? F 0.0774(5) 0.4717(9) 0.1548(3)
C463? C 0.0909(4) 0.5056(8) 0.1341(3)
F190? F 0.0038(5) 0.6226(9) 0.0000(4)
F191? F -0.0072(4) 0.5382(8) 0.0104(3)
F192? F -0.0363(4) 0.6102(9) 0.0149(4)
C464? C 0.0015(4) 0.5940(8) 0.0285(3)
C465? C 0.0657(9) 0.8314(13) 0.4280(8)
C466? C 0.0750(10) 0.8982(14) 0.4254(10)
H259? H 0.0972 0.9005 0.4209
H260? H 0.0539 0.9181 0.4056
H261? H 0.0799 0.9194 0.4479
C467? C 0.0975(9) 0.8008(16) 0.4620(10)
H262? H 0.0912 0.7574 0.4635
H263? H 0.1213 0.8031 0.4602
H264? H 0.0998 0.8228 0.4836
C468? C 0.0312(8) 0.8247(18) 0.4349(13)
H265? H 0.0260 0.7808 0.4365
H266? H 0.0356 0.8452 0.4576
H267? H 0.0096 0.8439 0.4153
loop_
_geom_bond_atom_site_label_1
_geom_bond_atom_site_label_2
_geom_bond_site_symmetry_1
_geom_bond_site_symmetry_2
C1 C2 1_555 1_555
C2 H1 1_555 1_555
C3 C2 1_555 1_555
C4 C3 1_555 1_555
H2 C4 1_555 1_555
C5 C4 1_555 1_555
C6 C1 1_555 1_555
H3 C6 1_555 1_555
F1 C7 1_555 1_555
F2 C7 1_555 1_555
F3 C7 1_555 1_555
C7 C5 1_555 1_555
F4 C8 1_555 1_555
F5 C8 1_555 1_555
F6 C8 1_555 1_555
C8 C3 1_555 1_555
C9 C10 1_555 1_555
C10 H4 1_555 1_555
C11 C10 1_555 1_555
C12 C11 1_555 1_555
H5 C12 1_555 1_555
C13 C12 1_555 1_555
C14 C9 1_555 1_555
H6 C14 1_555 1_555
F7 C15 1_555 1_555
F8 C15 1_555 1_555
F9 C15 1_555 1_555
C15 C11 1_555 1_555
F10 C16 1_555 1_555
F11 C16 1_555 1_555
F12 C16 1_555 1_555
C16 C13 1_555 1_555
C17 C18 1_555 1_555
C18 H7 1_555 1_555
C19 C18 1_555 1_555
C20 C19 1_555 1_555
H8 C20 1_555 1_555
C21 C20 1_555 1_555
C22 C17 1_555 1_555
H9 C22 1_555 1_555
F13 C23 1_555 1_555
F14 C23 1_555 1_555
F15 C23 1_555 1_555
C23 C19 1_555 1_555
F16 C24 1_555 1_555
F17 C24 1_555 1_555
F18 C24 1_555 1_555
C24 C21 1_555 1_555
C25 C26 1_555 1_555
C26 H10 1_555 1_555
C27 C26 1_555 1_555
C28 C27 1_555 1_555
H11 C28 1_555 1_555
C29 C28 1_555 1_555
C30 C25 1_555 1_555
H12 C30 1_555 1_555
F19 C31 1_555 1_555
F20 C31 1_555 1_555
F21 C31 1_555 1_555
C31 C27 1_555 1_555
F22 C32 1_555 1_555
F23 C32 1_555 1_555
F24 C32 1_555 1_555
C32 C29 1_555 1_555
C33 C34 1_555 1_555
C34 H13 1_555 1_555
H14 C34 1_555 1_555
H15 C34 1_555 1_555
C35 C33 1_555 1_555
H16 C35 1_555 1_555
H17 C35 1_555 1_555
H18 C35 1_555 1_555
C36 C33 1_555 1_555
H19 C36 1_555 1_555
H20 C36 1_555 1_555
H21 C36 1_555 1_555
C37 C38 1_555 1_555
C38 H22 1_555 1_555
H23 C38 1_555 1_555
H24 C38 1_555 1_555
C39 C37 1_555 1_555
H25 C39 1_555 1_555
H26 C39 1_555 1_555
H27 C39 1_555 1_555
C40 C37 1_555 1_555
H28 C40 1_555 1_555
H29 C40 1_555 1_555
H30 C40 1_555 1_555
C41 H31 1_555 1_555
C42 C41 1_555 1_555
H32 C42 1_555 1_555
C43 C42 1_555 1_555
C44 C1 1_555 1_555
C45 C44 1_555 1_555
C46 C45 1_555 1_555
H33 C46 1_555 1_555
C47 C33 1_555 1_555
C48 C47 1_555 1_555
H34 C48 1_555 1_555
C49 C48 1_555 1_555
C50 C45 1_555 1_555
C51 C50 1_555 1_555
C52 C43 1_555 1_555
C53 C52 1_555 1_555
C54 C41 1_555 1_555
H35 C54 1_555 1_555
C55 C17 1_555 1_555
H36 C55 1_555 1_555
C56 C55 1_555 1_555
C57 C51 1_555 1_555
C58 C57 1_555 1_555
C59 C53 1_555 1_555
C60 C59 1_555 1_555
C61 C56 1_555 1_555
C62 C61 1_555 1_555
C63 C58 1_555 1_555
C64 C63 1_555 1_555
C65 C60 1_555 1_555
C66 C25 1_555 1_555
H37 C66 1_555 1_555
C67 H38 1_555 1_555
C68 C62 1_555 1_555
C69 C68 1_555 1_555
C70 C64 1_555 1_555
C71 C70 1_555 1_555
C72 C66 1_555 1_555
C73 C72 1_555 1_555
H39 C73 1_555 1_555
C74 C67 1_555 1_555
H40 C74 1_555 1_555
C75 C74 1_555 1_555
H41 C75 1_555 1_555
C76 C69 1_555 1_555
C77 C9 1_555 1_555
C78 C71 1_555 1_555
C79 C78 1_555 1_555
H42 C79 1_555 1_555
C80 C37 1_555 1_555
C81 C60 1_555 1_555
H43 C81 1_555 1_555
H44 C81 1_555 1_555
H45 C81 1_555 1_555
C82 C61 1_555 1_555
H46 C82 1_555 1_555
H47 C82 1_555 1_555
H48 C82 1_555 1_555
C83 C84 1_555 1_555
C84 H49 1_555 1_555
C85 C84 1_555 1_555
C86 C85 1_555 1_555
H50 C86 1_555 1_555
C87 C86 1_555 1_555
C88 C83 1_555 1_555
H51 C88 1_555 1_555
F25 C89 1_555 1_555
F26 C89 1_555 1_555
F27 C89 1_555 1_555
C89 C85 1_555 1_555
F28 C90 1_555 1_555
F29 C90 1_555 1_555
F30 C90 1_555 1_555
C90 C87 1_555 1_555
C91 C92 1_555 1_555
C92 H52 1_555 1_555
C93 C92 1_555 1_555
C94 C93 1_555 1_555
H53 C94 1_555 1_555
C95 C94 1_555 1_555
C96 C91 1_555 1_555
H54 C96 1_555 1_555
F31 C97 1_555 1_555
F32 C97 1_555 1_555
F33 C97 1_555 1_555
C97 C93 1_555 1_555
F34 C98 1_555 1_555
F35 C98 1_555 1_555
F36 C98 1_555 1_555
C98 C95 1_555 1_555
C99 C100 1_555 1_555
C100 H55 1_555 1_555
C101 C100 1_555 1_555
C102 C101 1_555 1_555
H56 C102 1_555 1_555
C103 C102 1_555 1_555
C104 C99 1_555 1_555
H57 C104 1_555 1_555
F37 C105 1_555 1_555
F38 C105 1_555 1_555
F39 C105 1_555 1_555
C105 C101 1_555 1_555
F40 C106 1_555 1_555
F41 C106 1_555 1_555
F42 C106 1_555 1_555
C106 C103 1_555 1_555
C107 C108 1_555 1_555
C108 H58 1_555 1_555
C109 C108 1_555 1_555
C110 C109 1_555 1_555
H59 C110 1_555 1_555
C111 C110 1_555 1_555
C112 C107 1_555 1_555
H60 C112 1_555 1_555
F43 C113 1_555 1_555
F44 C113 1_555 1_555
F45 C113 1_555 1_555
C113 C109 1_555 1_555
F46 C114 1_555 1_555
F47 C114 1_555 1_555
F48 C114 1_555 1_555
C114 C111 1_555 1_555
C115 C116 1_555 1_555
C116 H61 1_555 1_555
H62 C116 1_555 1_555
H63 C116 1_555 1_555
C117 C115 1_555 1_555
H64 C117 1_555 1_555
H65 C117 1_555 1_555
H66 C117 1_555 1_555
C118 C115 1_555 1_555
H67 C118 1_555 1_555
H68 C118 1_555 1_555
H69 C118 1_555 1_555
C119 C120 1_555 1_555
C120 H70 1_555 1_555
H71 C120 1_555 1_555
H72 C120 1_555 1_555
C121 C119 1_555 1_555
H73 C121 1_555 1_555
H74 C121 1_555 1_555
H75 C121 1_555 1_555
C122 C119 1_555 1_555
H76 C122 1_555 1_555
H77 C122 1_555 1_555
H78 C122 1_555 1_555
C123 H79 1_555 1_555
C124 C123 1_555 1_555
H80 C124 1_555 1_555
C125 C124 1_555 1_555
C126 C83 1_555 1_555
C127 C126 1_555 1_555
C128 C127 1_555 1_555
H81 C128 1_555 1_555
C129 C115 1_555 1_555
C130 C129 1_555 1_555
H82 C130 1_555 1_555
C131 C130 1_555 1_555
C132 C127 1_555 1_555
C133 C132 1_555 1_555
C134 C125 1_555 1_555
C135 C134 1_555 1_555
C136 C123 1_555 1_555
H83 C136 1_555 1_555
C137 C99 1_555 1_555
H84 C137 1_555 1_555
C138 C137 1_555 1_555
C139 C133 1_555 1_555
C140 C139 1_555 1_555
C141 C135 1_555 1_555
C142 C141 1_555 1_555
C143 C138 1_555 1_555
C144 C143 1_555 1_555
C145 C140 1_555 1_555
C146 C145 1_555 1_555
C147 C142 1_555 1_555
C148 C107 1_555 1_555
H85 C148 1_555 1_555
C149 H86 1_555 1_555
C150 C144 1_555 1_555
C151 C150 1_555 1_555
C152 C146 1_555 1_555
C153 C152 1_555 1_555
C154 C148 1_555 1_555
C155 C154 1_555 1_555
H87 C155 1_555 1_555
C156 C149 1_555 1_555
H88 C156 1_555 1_555
C157 C156 1_555 1_555
H89 C157 1_555 1_555
C158 C151 1_555 1_555
C159 C91 1_555 1_555
C160 C153 1_555 1_555
C161 C160 1_555 1_555
H90 C161 1_555 1_555
C162 C119 1_555 1_555
C163 C142 1_555 1_555
H91 C163 1_555 1_555
H92 C163 1_555 1_555
H93 C163 1_555 1_555
C164 C143 1_555 1_555
H94 C164 1_555 1_555
H95 C164 1_555 1_555
H96 C164 1_555 1_555
C165 C166 1_555 1_555
C166 H97 1_555 1_555
C167 C166 1_555 1_555
C168 C167 1_555 1_555
H98 C168 1_555 1_555
C169 C168 1_555 1_555
C170 C165 1_555 1_555
H99 C170 1_555 1_555
F49 C171 1_555 1_555
F50 C171 1_555 1_555
F51 C171 1_555 1_555
C171 C167 1_555 1_555
F52 C172 1_555 1_555
F53 C172 1_555 1_555
F54 C172 1_555 1_555
C172 C169 1_555 1_555
C173 C174 1_555 1_555
C174 H100 1_555 1_555
C175 C174 1_555 1_555
C176 C175 1_555 1_555
H101 C176 1_555 1_555
C177 C176 1_555 1_555
C178 C173 1_555 1_555
H102 C178 1_555 1_555
F55 C179 1_555 1_555
F56 C179 1_555 1_555
F57 C179 1_555 1_555
C179 C175 1_555 1_555
F58 C180 1_555 1_555
F59 C180 1_555 1_555
F60 C180 1_555 1_555
C180 C177 1_555 1_555
C181 C182 1_555 1_555
C182 H103 1_555 1_555
C183 C182 1_555 1_555
C184 C183 1_555 1_555
H104 C184 1_555 1_555
C185 C184 1_555 1_555
C186 C181 1_555 1_555
H105 C186 1_555 1_555
F61 C187 1_555 1_555
F62 C187 1_555 1_555
F63 C187 1_555 1_555
C187 C185 1_555 1_555
F64 C188 1_555 1_555
F65 C188 1_555 1_555
F66 C188 1_555 1_555
C188 C183 1_555 1_555
C189 C190 1_555 1_555
C190 H106 1_555 1_555
C191 C190 1_555 1_555
C192 C191 1_555 1_555
H107 C192 1_555 1_555
C193 C192 1_555 1_555
C194 C189 1_555 1_555
H108 C194 1_555 1_555
F67 C195 1_555 1_555
F68 C195 1_555 1_555
F69 C195 1_555 1_555
C195 C191 1_555 1_555
F70 C196 1_555 1_555
F71 C196 1_555 1_555
F72 C196 1_555 1_555
C196 C193 1_555 1_555
C197 C198 1_555 1_555
C198 H109 1_555 1_555
H110 C198 1_555 1_555
H111 C198 1_555 1_555
C199 C197 1_555 1_555
H112 C199 1_555 1_555
H113 C199 1_555 1_555
H114 C199 1_555 1_555
C200 C197 1_555 1_555
H115 C200 1_555 1_555
H116 C200 1_555 1_555
H117 C200 1_555 1_555
C201 C202 1_555 1_555
C202 H118 1_555 1_555
H119 C202 1_555 1_555
H120 C202 1_555 1_555
C203 C201 1_555 1_555
H121 C203 1_555 1_555
H122 C203 1_555 1_555
H123 C203 1_555 1_555
C204 C201 1_555 1_555
H124 C204 1_555 1_555
H125 C204 1_555 1_555
H126 C204 1_555 1_555
C205 H127 1_555 1_555
C206 C205 1_555 1_555
H128 C206 1_555 1_555
C207 C206 1_555 1_555
C208 C165 1_555 1_555
C209 C208 1_555 1_555
C210 C209 1_555 1_555
H129 C210 1_555 1_555
C211 C197 1_555 1_555
C212 C211 1_555 1_555
H130 C212 1_555 1_555
C213 C212 1_555 1_555
C214 C209 1_555 1_555
C215 C214 1_555 1_555
C216 C207 1_555 1_555
C217 C216 1_555 1_555
C218 C205 1_555 1_555
H131 C218 1_555 1_555
C219 C181 1_555 1_555
H132 C219 1_555 1_555
C220 C219 1_555 1_555
C221 C215 1_555 1_555
C222 C221 1_555 1_555
C223 C217 1_555 1_555
C224 C223 1_555 1_555
C225 C220 1_555 1_555
C226 C225 1_555 1_555
C227 C222 1_555 1_555
C228 C227 1_555 1_555
C229 C224 1_555 1_555
C230 C189 1_555 1_555
H133 C230 1_555 1_555
C231 H134 1_555 1_555
C232 C226 1_555 1_555
C233 C232 1_555 1_555
C234 C228 1_555 1_555
C235 C234 1_555 1_555
C236 C230 1_555 1_555
C237 C236 1_555 1_555
H135 C237 1_555 1_555
C238 C231 1_555 1_555
H136 C238 1_555 1_555
C239 C238 1_555 1_555
H137 C239 1_555 1_555
C240 C233 1_555 1_555
C241 C173 1_555 1_555
C242 C235 1_555 1_555
C243 C242 1_555 1_555
H138 C243 1_555 1_555
C244 C201 1_555 1_555
C245 C224 1_555 1_555
H139 C245 1_555 1_555
H140 C245 1_555 1_555
H141 C245 1_555 1_555
C246 C225 1_555 1_555
H142 C246 1_555 1_555
H143 C246 1_555 1_555
H144 C246 1_555 1_555
C247 C248 1_555 1_555
C248 H145 1_555 1_555
C249 C248 1_555 1_555
C250 C249 1_555 1_555
H146 C250 1_555 1_555
C251 C250 1_555 1_555
C252 C247 1_555 1_555
H147 C252 1_555 1_555
F73 C253 1_555 1_555
F74 C253 1_555 1_555
F75 C253 1_555 1_555
C253 C249 1_555 1_555
F76 C254 1_555 1_555
F77 C254 1_555 1_555
F78 C254 1_555 1_555
C254 C251 1_555 1_555
C255 C256 1_555 1_555
C256 H148 1_555 1_555
C257 C256 1_555 1_555
C258 C257 1_555 1_555
H149 C258 1_555 1_555
C259 C258 1_555 1_555
C260 C255 1_555 1_555
H150 C260 1_555 1_555
F79 C261 1_555 1_555
F80 C261 1_555 1_555
F81 C261 1_555 1_555
C261 C257 1_555 1_555
F82 C262 1_555 1_555
F83 C262 1_555 1_555
F84 C262 1_555 1_555
C262 C259 1_555 1_555
C263 C264 1_555 1_555
C264 H151 1_555 1_555
C265 C264 1_555 1_555
C266 C265 1_555 1_555
H152 C266 1_555 1_555
C267 C266 1_555 1_555
C268 C263 1_555 1_555
H153 C268 1_555 1_555
F85 C269 1_555 1_555
F86 C269 1_555 1_555
F87 C269 1_555 1_555
C269 C265 1_555 1_555
F88 C270 1_555 1_555
F89 C270 1_555 1_555
F90 C270 1_555 1_555
C270 C267 1_555 1_555
C271 C272 1_555 1_555
C272 H154 1_555 1_555
C273 C272 1_555 1_555
C274 C273 1_555 1_555
H155 C274 1_555 1_555
C275 C274 1_555 1_555
C276 C271 1_555 1_555
H156 C276 1_555 1_555
F91 C277 1_555 1_555
F92 C277 1_555 1_555
F93 C277 1_555 1_555
C277 C273 1_555 1_555
F94 C278 1_555 1_555
F95 C278 1_555 1_555
F96 C278 1_555 1_555
C278 C275 1_555 1_555
C279 C280 1_555 1_555
C280 H157 1_555 1_555
H158 C280 1_555 1_555
H159 C280 1_555 1_555
C281 C279 1_555 1_555
H160 C281 1_555 1_555
H161 C281 1_555 1_555
H162 C281 1_555 1_555
C282 C279 1_555 1_555
H163 C282 1_555 1_555
H164 C282 1_555 1_555
H165 C282 1_555 1_555
C283 C284 1_555 1_555
C284 H166 1_555 1_555
H167 C284 1_555 1_555
H168 C284 1_555 1_555
C285 C283 1_555 1_555
H169 C285 1_555 1_555
H170 C285 1_555 1_555
H171 C285 1_555 1_555
C286 C283 1_555 1_555
H172 C286 1_555 1_555
H173 C286 1_555 1_555
H174 C286 1_555 1_555
C287 H175 1_555 1_555
C288 C287 1_555 1_555
H176 C288 1_555 1_555
C289 C288 1_555 1_555
C290 C247 1_555 1_555
C291 C290 1_555 1_555
C292 C291 1_555 1_555
H177 C292 1_555 1_555
C293 C279 1_555 1_555
C294 C293 1_555 1_555
H178 C294 1_555 1_555
C295 C294 1_555 1_555
C296 C291 1_555 1_555
C297 C296 1_555 1_555
C298 C289 1_555 1_555
C299 C298 1_555 1_555
C300 C287 1_555 1_555
H179 C300 1_555 1_555
C301 C263 1_555 1_555
H180 C301 1_555 1_555
C302 C301 1_555 1_555
C303 C297 1_555 1_555
C304 C303 1_555 1_555
C305 C299 1_555 1_555
C306 C305 1_555 1_555
C307 C302 1_555 1_555
C308 C307 1_555 1_555
C309 C304 1_555 1_555
C310 C309 1_555 1_555
C311 C306 1_555 1_555
C312 C271 1_555 1_555
H181 C312 1_555 1_555
C313 H182 1_555 1_555
C314 C308 1_555 1_555
C315 C314 1_555 1_555
C316 C310 1_555 1_555
C317 C316 1_555 1_555
C318 C312 1_555 1_555
C319 C318 1_555 1_555
H183 C319 1_555 1_555
C320 C313 1_555 1_555
H184 C320 1_555 1_555
C321 C320 1_555 1_555
H185 C321 1_555 1_555
C322 C315 1_555 1_555
C323 C255 1_555 1_555
C324 C317 1_555 1_555
C325 C324 1_555 1_555
H186 C325 1_555 1_555
C326 C283 1_555 1_555
C327 C306 1_555 1_555
H187 C327 1_555 1_555
H188 C327 1_555 1_555
H189 C327 1_555 1_555
C328 C307 1_555 1_555
H190 C328 1_555 1_555
H191 C328 1_555 1_555
H192 C328 1_555 1_555
C5 C6 1_555 1_555
C13 C14 1_555 1_555
C21 C22 1_555 1_555
C29 C30 1_555 1_555
C43 C44 1_555 1_555
C46 C47 1_555 1_555
C49 C50 1_555 1_555
C49 C55 1_555 1_555
C51 C52 1_555 1_555
C53 C54 1_555 1_555
C56 C57 1_555 1_555
C58 C59 1_555 1_555
C62 C63 1_555 1_555
C64 C65 1_555 1_555
C65 C66 1_555 1_555
C67 C68 1_555 1_555
C69 C70 1_555 1_555
C71 C72 1_555 1_555
C73 C80 1_555 1_555
C75 C76 1_555 1_555
C76 C77 1_555 1_555
C77 C78 1_555 1_555
C79 C80 1_555 1_555
C87 C88 1_555 1_555
C95 C96 1_555 1_555
C103 C104 1_555 1_555
C111 C112 1_555 1_555
C125 C126 1_555 1_555
C128 C129 1_555 1_555
C131 C132 1_555 1_555
C131 C137 1_555 1_555
C133 C134 1_555 1_555
C135 C136 1_555 1_555
C138 C139 1_555 1_555
C140 C141 1_555 1_555
C144 C145 1_555 1_555
C146 C147 1_555 1_555
C147 C148 1_555 1_555
C149 C150 1_555 1_555
C151 C152 1_555 1_555
C153 C154 1_555 1_555
C155 C162 1_555 1_555
C157 C158 1_555 1_555
C158 C159 1_555 1_555
C159 C160 1_555 1_555
C161 C162 1_555 1_555
C169 C170 1_555 1_555
C177 C178 1_555 1_555
C185 C186 1_555 1_555
C193 C194 1_555 1_555
C207 C208 1_555 1_555
C210 C211 1_555 1_555
C213 C214 1_555 1_555
C213 C219 1_555 1_555
C215 C216 1_555 1_555
C217 C218 1_555 1_555
C220 C221 1_555 1_555
C222 C223 1_555 1_555
C226 C227 1_555 1_555
C228 C229 1_555 1_555
C229 C230 1_555 1_555
C231 C232 1_555 1_555
C233 C234 1_555 1_555
C235 C236 1_555 1_555
C237 C244 1_555 1_555
C239 C240 1_555 1_555
C240 C241 1_555 1_555
C241 C242 1_555 1_555
C243 C244 1_555 1_555
C251 C252 1_555 1_555
C259 C260 1_555 1_555
C267 C268 1_555 1_555
C275 C276 1_555 1_555
C289 C290 1_555 1_555
C292 C293 1_555 1_555
C295 C296 1_555 1_555
C295 C301 1_555 1_555
C297 C298 1_555 1_555
C299 C300 1_555 1_555
C302 C303 1_555 1_555
C304 C305 1_555 1_555
C308 C309 1_555 1_555
C310 C311 1_555 1_555
C311 C312 1_555 1_555
C313 C314 1_555 1_555
C315 C316 1_555 1_555
C317 C318 1_555 1_555
C319 C326 1_555 1_555
C321 C322 1_555 1_555
C322 C323 1_555 1_555
C323 C324 1_555 1_555
C325 C326 1_555 1_555

#END
