
#######################################################################
#
#                 Cambridge Crystallographic Data Centre
#                                CCDC 
#
#######################################################################
#
# If this CIF has been generated from an entry in the Cambridge 
# Structural Database, then it will include bibliographic, chemical, 
# crystal, experimental, refinement or atomic coordinate data resulting 
# from the CCDC's data processing and validation procedures.
#
#######################################################################

data_IVUHUE
_chemical_formula_moiety         'C22 H22 N2 O2'
_chemical_name_systematic        
2-(2-methyl-1,3-diphenylpropan-2-yl)-5-nitroaniline
_symmetry_cell_setting           rhombohedral
_symmetry_space_group_name_H-M   'R -3'
_symmetry_Int_Tables_number      148
_space_group_name_Hall           '-R 3'
loop_
_symmetry_equiv_pos_site_id
_symmetry_equiv_pos_as_xyz
1 x,y,z
2 -y,x-y,z
3 -x+y,-x,z
4 2/3+x,1/3+y,1/3+z
5 2/3-y,1/3+x-y,1/3+z
6 2/3-x+y,1/3-x,1/3+z
7 1/3+x,2/3+y,2/3+z
8 1/3-y,2/3+x-y,2/3+z
9 1/3-x+y,2/3-x,2/3+z
10 -x,-y,-z
11 y,-x+y,-z
12 x-y,x,-z
13 1/3-x,2/3-y,2/3-z
14 1/3+y,2/3-x+y,2/3-z
15 1/3+x-y,2/3+x,2/3-z
16 2/3-x,1/3-y,1/3-z
17 2/3+y,1/3-x+y,1/3-z
18 2/3+x-y,1/3+x,1/3-z
_cell_length_a                   37.453(5)
_cell_length_b                   37.453(5)
_cell_length_c                   6.7936(9)
_cell_angle_alpha                90
_cell_angle_beta                 90
_cell_angle_gamma                120
_cell_volume                     8252.85
_exptl_crystal_colour            yellow
_exptl_crystal_description       Prism
_cell_formula_units_Z            18
_exptl_crystal_recrystallization_method 'Slow Evaporation'
loop_
_atom_site_label
_atom_site_type_symbol
_atom_site_fract_x
_atom_site_fract_y
_atom_site_fract_z
C1 C 0.61190(11) 0.80744(11) 0.6718(5)
C2 C 0.61086(11) 0.78680(12) 0.5047(5)
H1 H 0.6294 0.8012 0.4002
C3 C 0.58293(12) 0.74482(12) 0.4855(5)
C4 C 0.55464(11) 0.72341(11) 0.6414(5)
C5 C 0.55715(12) 0.74695(12) 0.8048(5)
H2 H 0.5382 0.7335 0.9091
C6 C 0.58518(11) 0.78831(12) 0.8261(5)
H3 H 0.5860 0.8030 0.9418
C7 C 0.52479(11) 0.67686(11) 0.6389(5)
C8 C 0.49630(11) 0.66276(11) 0.8200(5)
H4 H 0.5130 0.6692 0.9399
H5 H 0.4773 0.6330 0.8126
H6 H 0.4805 0.6771 0.8228
C9 C 0.49589(11) 0.66198(11) 0.4539(5)
H7 H 0.5131 0.6666 0.3356
H8 H 0.4769 0.6319 0.4657
C10 C 0.47047(12) 0.68259(12) 0.4222(5)
C11 C 0.43046(13) 0.66495(12) 0.4939(5)
H9 H 0.4193 0.6402 0.5680
C12 C 0.40681(13) 0.68310(14) 0.4584(6)
H10 H 0.3796 0.6708 0.5093
C13 C 0.42227(15) 0.71892(14) 0.3498(6)
H11 H 0.4058 0.7311 0.3243
C14 C 0.46225(15) 0.73687(13) 0.2787(5)
H12 H 0.4734 0.7617 0.2052
C15 C 0.48588(13) 0.71878(12) 0.3141(5)
H13 H 0.5132 0.7313 0.2637
C16 C 0.54872(11) 0.65276(11) 0.6395(5)
H14 H 0.5286 0.6232 0.6184
H15 H 0.5679 0.6623 0.5260
C17 C 0.57308(12) 0.65672(11) 0.8225(5)
C18 C 0.61232(12) 0.69034(12) 0.8521(6)
H16 H 0.6238 0.7118 0.7568
C19 C 0.63486(13) 0.69304(13) 1.0181(6)
H17 H 0.6616 0.7162 1.0359
C20 C 0.61861(14) 0.66225(14) 1.1579(6)
H18 H 0.6342 0.6641 1.2717
C21 C 0.57973(14) 0.62874(13) 1.1321(6)
H19 H 0.5685 0.6073 1.2273
C22 C 0.55732(12) 0.62660(11) 0.9674(5)
H20 H 0.5302 0.6038 0.9526
N1 N 0.64348(10) 0.85102(10) 0.6908(5)
N2 N 0.58348(12) 0.72684(13) 0.3068(5)
O1 O 0.64559(8) 0.86910(8) 0.8449(4)
O2 O 0.66705(8) 0.86788(8) 0.5518(4)
H21 H 0.6082(12) 0.7450(11) 0.228(5)
H22 H 0.5758(12) 0.7028(12) 0.299(6)
loop_
_geom_bond_atom_site_label_1
_geom_bond_atom_site_label_2
_geom_bond_site_symmetry_1
_geom_bond_site_symmetry_2
C1 C2 1_555 1_555
C2 H1 1_555 1_555
C3 C2 1_555 1_555
C4 C3 1_555 1_555
C5 C4 1_555 1_555
H2 C5 1_555 1_555
C6 C1 1_555 1_555
H3 C6 1_555 1_555
C7 C4 1_555 1_555
C8 C7 1_555 1_555
H4 C8 1_555 1_555
H5 C8 1_555 1_555
H6 C8 1_555 1_555
C9 C7 1_555 1_555
H7 C9 1_555 1_555
H8 C9 1_555 1_555
C10 C9 1_555 1_555
C11 C10 1_555 1_555
H9 C11 1_555 1_555
C12 C11 1_555 1_555
H10 C12 1_555 1_555
C13 C12 1_555 1_555
H11 C13 1_555 1_555
C14 C13 1_555 1_555
H12 C14 1_555 1_555
C15 C10 1_555 1_555
H13 C15 1_555 1_555
C16 C7 1_555 1_555
H14 C16 1_555 1_555
H15 C16 1_555 1_555
C17 C16 1_555 1_555
C18 C17 1_555 1_555
H16 C18 1_555 1_555
C19 C18 1_555 1_555
H17 C19 1_555 1_555
C20 C19 1_555 1_555
H18 C20 1_555 1_555
C21 C20 1_555 1_555
H19 C21 1_555 1_555
C22 C17 1_555 1_555
H20 C22 1_555 1_555
N1 C1 1_555 1_555
N2 C3 1_555 1_555
O1 N1 1_555 1_555
O2 N1 1_555 1_555
H21 N2 1_555 1_555
H22 N2 1_555 1_555
C5 C6 1_555 1_555
C14 C15 1_555 1_555
C21 C22 1_555 1_555

#END
