
#######################################################################
#
#                 Cambridge Crystallographic Data Centre
#                                CCDC 
#
#######################################################################
#
# If this CIF has been generated from an entry in the Cambridge 
# Structural Database, then it will include bibliographic, chemical, 
# crystal, experimental, refinement or atomic coordinate data resulting 
# from the CCDC's data processing and validation procedures.
#
#######################################################################

data_IVUKUF
_chemical_formula_moiety         'C29 H35 N3 O4 Si1,0.5(C5 H12)'
_chemical_name_systematic        
'1-Benzyl-5-(((t-butyl(dimethyl)silyl)oxy)methyl)-4-hydroxy-7-phenyl-4,5,5a,8a-tetrahydroimidazo(4,5-o)isoindole-6,8(1H,7H)-dione pentane solvate'
_symmetry_cell_setting           triclinic
_symmetry_space_group_name_H-M   'P -1'
_symmetry_Int_Tables_number      2
_space_group_name_Hall           '-P 1'
loop_
_symmetry_equiv_pos_site_id
_symmetry_equiv_pos_as_xyz
1 x,y,z
2 -x,-y,-z
_cell_length_a                   9.860(2)
_cell_length_b                   15.874(3)
_cell_length_c                   20.790(4)
_cell_angle_alpha                81.50(3)
_cell_angle_beta                 81.42(3)
_cell_angle_gamma                76.87(3)
_cell_volume                     3111.46
_cell_formula_units_Z            4
loop_
_atom_site_label
_atom_site_type_symbol
_atom_site_fract_x
_atom_site_fract_y
_atom_site_fract_z
Si1 Si -0.00150(10) 0.03422(7) 0.14422(5)
O1 O 0.1513(3) -0.21250(15) 0.23785(10)
O2 O 0.3861(3) -0.0574(2) 0.33262(11)
O3 O 0.5734(2) -0.01174(15) 0.09842(10)
H1 H 0.6001(2) -0.01250(15) 0.05766(10)
O4 O 0.1328(2) -0.00341(13) 0.18703(10)
N1 N 0.2541(3) -0.1417(2) 0.29999(11)
N2 N 0.3671(3) -0.0782(2) 0.02206(12)
N3 N 0.3302(3) -0.1996(2) 0.08386(12)
C1 C 0.2430(4) -0.1765(2) 0.24340(14)
C2 C 0.3581(4) -0.0934(2) 0.2907(2)
C3 C 0.3797(3) 0.0004(2) 0.18329(14)
H2 H 0.4355(3) 0.0350(2) 0.19722(14)
C4 C 0.4246(3) -0.0006(2) 0.10996(14)
H3 H 0.3826(3) 0.0540(2) 0.08711(14)
C5 C 0.3391(4) -0.1553(2) 0.02285(15)
H4 H 0.3261(4) -0.1781(2) -0.01554(15)
C6 C 0.3703(3) -0.1647(2) 0.19571(13)
H5 H 0.4398(3) -0.2175(2) 0.20145(13)
C7 C 0.4222(3) -0.0919(2) 0.22040(14)
H6 H 0.5224(3) -0.1078(2) 0.21896(14)
C8 C 0.3781(3) -0.0724(2) 0.08622(14)
C9 C 0.3550(3) -0.1455(2) 0.12462(13)
C10 C 0.1616(3) -0.1502(2) 0.36005(15)
C11 C 0.1562(4) -0.2319(2) 0.3922(2)
H7 H 0.2136(4) -0.2823(2) 0.3740(2)
C12 C 0.0684(4) -0.2394(3) 0.4502(2)
H8 H 0.0636(4) -0.2962(3) 0.4727(2)
C13 C -0.0112(5) -0.1688(4) 0.4753(2)
H9 H -0.0699(5) -0.1748(4) 0.5162(2)
C14 C -0.0080(5) -0.0869(3) 0.4432(2)
H10 H -0.0657(5) -0.0365(3) 0.4613(2)
C15 C 0.0802(4) -0.0774(3) 0.3846(2)
H11 H 0.0837(4) -0.0209(3) 0.3613(2)
C16 C 0.2288(3) 0.0451(2) 0.1998(2)
H12 H 0.2125(3) 0.0530(2) 0.2454(2)
H13 H 0.2109(3) 0.1016(2) 0.1749(2)
C17 C -0.0269(4) -0.0600(3) 0.1096(2)
H14 H 0.0559(4) -0.0820(3) 0.0813(2)
H15 H -0.0443(4) -0.1048(3) 0.1442(2)
H16 H -0.1056(4) -0.0425(3) 0.0849(2)
C18 C 0.0426(5) 0.1178(3) 0.0771(2)
H17 H 0.1241(5) 0.0927(3) 0.0493(2)
H18 H -0.0346(5) 0.1390(3) 0.0517(2)
H19 H 0.0616(5) 0.1651(3) 0.0957(2)
C19 C -0.1589(4) 0.0800(3) 0.2000(2)
C20 C -0.2780(5) 0.1347(3) 0.1609(2)
H20 H -0.3579(5) 0.1572(3) 0.1906(2)
H21 H -0.2444(5) 0.1823(3) 0.1342(2)
H22 H -0.3044(5) 0.0991(3) 0.1334(2)
C21 C -0.1205(5) 0.1395(3) 0.2442(2)
H23 H -0.2016(5) 0.1630(3) 0.2729(2)
H24 H -0.0482(5) 0.1070(3) 0.2697(2)
H25 H -0.0871(5) 0.1862(3) 0.2163(2)
C22 C -0.2146(6) 0.0050(4) 0.2432(2)
H26 H -0.2961(6) 0.0279(4) 0.2719(2)
H27 H -0.2390(6) -0.0316(4) 0.2158(2)
H28 H -0.1430(6) -0.0285(4) 0.2688(2)
C23 C 0.3112(5) -0.2901(2) 0.1021(2)
H29 H 0.2352(5) -0.2912(2) 0.1367(2)
H30 H 0.3950(5) -0.3251(2) 0.1181(2)
C24 C 0.2817(4) -0.3277(2) 0.0450(2)
C25 C 0.3877(5) -0.3736(3) 0.0063(2)
H31 H 0.4820(5) -0.3850(3) 0.0171(2)
C26 C 0.3593(6) -0.4069(3) -0.0479(3)
H32 H 0.4344(6) -0.4384(3) -0.0757(3)
C27 C 0.2283(7) -0.3925(3) -0.0628(2)
H33 H 0.2097(7) -0.4136(3) -0.1009(2)
C28 C 0.1218(5) -0.3487(3) -0.0241(2)
H34 H 0.0276(5) -0.3400(3) -0.0346(2)
C29 C 0.1479(4) -0.3165(2) 0.0295(2)
H35 H 0.0705(4) -0.2862(2) 0.0569(2)
Si2 Si -0.37710(10) -0.50182(7) 0.35536(5)
O5 O -0.3524(3) -0.25112(15) 0.27640(10)
O6 O 0.0736(2) -0.3904(2) 0.18594(11)
O7 O 0.1190(2) -0.45324(15) 0.42373(11)
H36 H 0.1125(2) -0.45642(15) 0.46521(11)
N4 N -0.1498(3) -0.3145(2) 0.21652(11)
N5 N -0.1921(3) -0.3977(2) 0.49296(12)
N6 N -0.2811(3) -0.2739(2) 0.43522(12)
C30 C -0.2299(4) -0.2848(2) 0.27263(14)
C31 C -0.0150(4) -0.3593(2) 0.2275(2)
C32 C 0.0012(3) -0.4603(2) 0.33152(15)
H37 H 0.0937(3) -0.4920(2) 0.31784(15)
C33 C -0.0089(3) -0.4653(2) 0.40549(15)
H38 H -0.0251(3) -0.5216(2) 0.42466(15)
C34 C -0.2828(4) -0.3226(2) 0.4942(2)
H39 H -0.3426(4) -0.3048(2) 0.5328(2)
C35 C -0.1297(3) -0.2974(2) 0.32378(13)
H40 H -0.0992(3) -0.2437(2) 0.32175(13)
C36 C -0.0043(3) -0.3653(2) 0.29951(14)
H41 H 0.0804(3) -0.3482(2) 0.30476(14)
C37 C -0.1279(3) -0.3969(2) 0.42989(14)
C38 C -0.1819(3) -0.3225(2) 0.39368(14)
C39 C -0.2012(3) -0.3057(2) 0.15379(15)
C40 C -0.2547(3) -0.2245(2) 0.12389(14)
H42 H -0.2603(3) -0.1740(2) 0.14524(14)
C41 C -0.2991(4) -0.2165(3) 0.0625(2)
H43 H -0.3366(4) -0.1597(3) 0.0415(2)
C42 C -0.2900(4) -0.2877(3) 0.0323(2)
H44 H -0.3207(4) -0.2814(3) -0.0102(2)
C43 C -0.2368(5) -0.3691(3) 0.0625(2)
H45 H -0.2310(5) -0.4196(3) 0.0411(2)
C44 C -0.1922(4) -0.3784(2) 0.1237(2)
H46 H -0.1545(4) -0.4351(2) 0.1449(2)
C45 C -0.1006(3) -0.5054(2) 0.3088(2)
H47 H -0.0917(3) -0.5633(2) 0.3315(2)
H48 H -0.0770(3) -0.5102(2) 0.2627(2)
O8 O -0.2413(2) -0.46078(13) 0.31992(10)
C46 C -0.3213(5) -0.5926(3) 0.4182(2)
H49 H -0.2806(5) -0.5720(3) 0.4504(2)
H50 H -0.4014(5) -0.6153(3) 0.4389(2)
H51 H -0.2533(5) -0.6378(3) 0.3983(2)
C47 C -0.4986(5) -0.4125(3) 0.3931(3)
H52 H -0.5264(5) -0.3657(3) 0.3596(3)
H53 H -0.5801(5) -0.4321(3) 0.4157(3)
H54 H -0.4526(5) -0.3924(3) 0.4236(3)
C48 C -0.4560(4) -0.5396(3) 0.2919(2)
C49 C -0.5745(5) -0.5867(4) 0.3243(3)
H55 H -0.6147(5) -0.6057(4) 0.2912(3)
H56 H -0.5380(5) -0.6361(4) 0.3541(3)
H57 H -0.6454(5) -0.5466(4) 0.3480(3)
C50 C -0.3460(6) -0.6043(4) 0.2547(3)
H58 H -0.3876(6) -0.6234(4) 0.2220(3)
H59 H -0.2711(6) -0.5765(4) 0.2338(3)
H60 H -0.3094(6) -0.6536(4) 0.2845(3)
C51 C -0.5132(7) -0.4626(4) 0.2438(3)
H61 H -0.5536(7) -0.4837(4) 0.2117(3)
H62 H -0.5840(7) -0.4213(4) 0.2663(3)
H63 H -0.4387(7) -0.4349(4) 0.2225(3)
C52 C -0.3656(5) -0.1855(2) 0.4193(2)
H64 H -0.4203(5) -0.1859(2) 0.3848(2)
H65 H -0.3033(5) -0.1464(2) 0.4040(2)
C53 C -0.4587(4) -0.1541(2) 0.4780(2)
C54 C -0.5913(5) -0.1702(3) 0.4924(2)
H66 H -0.6233(5) -0.2005(3) 0.4629(2)
C55 C -0.6800(6) -0.1454(4) 0.5457(3)
H67 H -0.7714(6) -0.1592(4) 0.5550(3)
C56 C -0.6358(9) -0.1042(4) 0.5855(3)
H68 H -0.6999(9) -0.0856(4) 0.6227(3)
C57 C -0.5078(8) -0.0826(3) 0.5772(3)
H69 H -0.4804(8) -0.0523(3) 0.6082(3)
C58 C -0.4138(5) -0.1095(3) 0.5201(2)
H70 H -0.3222(5) -0.0960(3) 0.5108(2)
C59 C -0.7970(11) -0.5871(6) 0.1334(4)
H71 H -0.8068(11) -0.5830(6) 0.0877(4)
H72 H -0.8674(11) -0.5429(6) 0.1532(4)
H73 H -0.7057(11) -0.5789(6) 0.1381(4)
C60 C -0.8067(25) -0.6792(12) 0.1582(5)
H74 H -0.7366(25) -0.7246(12) 0.1397(5)
H75 H -0.8980(25) -0.6888(12) 0.1548(5)
C61 C -0.7938(7) -0.6677(4) 0.2216(5)
H76 H -0.8774(7) -0.6335(4) 0.2424(5)
H77 H -0.7174(7) -0.6398(4) 0.2226(5)
C62 C -0.7835(26) -0.7360(11) 0.2560(7)
H78 H -0.6846(26) -0.7589(11) 0.2472(7)
H79 H -0.8300(26) -0.7711(11) 0.2365(7)
C63 C -0.8071(20) -0.7509(9) 0.3183(9)
H80 H -0.7807(20) -0.8120(9) 0.3329(9)
H81 H -0.7585(20) -0.7191(9) 0.3397(9)
H82 H -0.9064(20) -0.7314(9) 0.3289(9)
loop_
_geom_bond_atom_site_label_1
_geom_bond_atom_site_label_2
_geom_bond_site_symmetry_1
_geom_bond_site_symmetry_2
Si1 O4 1_555 1_555
O1 C1 1_555 1_555
O2 C2 1_555 1_555
O3 H1 1_555 1_555
O4 C16 1_555 1_555
N1 C1 1_555 1_555
N2 C5 1_555 1_555
N3 C5 1_555 1_555
C1 C6 1_555 1_555
C2 N1 1_555 1_555
C3 H2 1_555 1_555
C4 O3 1_555 1_555
H3 C4 1_555 1_555
C5 H4 1_555 1_555
C6 H5 1_555 1_555
C7 C2 1_555 1_555
H6 C7 1_555 1_555
C8 N2 1_555 1_555
C9 N3 1_555 1_555
C10 N1 1_555 1_555
C11 C10 1_555 1_555
H7 C11 1_555 1_555
C12 C11 1_555 1_555
H8 C12 1_555 1_555
C13 C12 1_555 1_555
H9 C13 1_555 1_555
C14 C13 1_555 1_555
H10 C14 1_555 1_555
C15 C10 1_555 1_555
H11 C15 1_555 1_555
C16 C3 1_555 1_555
H12 C16 1_555 1_555
H13 C16 1_555 1_555
C17 Si1 1_555 1_555
H14 C17 1_555 1_555
H15 C17 1_555 1_555
H16 C17 1_555 1_555
C18 Si1 1_555 1_555
H17 C18 1_555 1_555
H18 C18 1_555 1_555
H19 C18 1_555 1_555
C19 Si1 1_555 1_555
C20 C19 1_555 1_555
H20 C20 1_555 1_555
H21 C20 1_555 1_555
H22 C20 1_555 1_555
C21 C19 1_555 1_555
H23 C21 1_555 1_555
H24 C21 1_555 1_555
H25 C21 1_555 1_555
C22 C19 1_555 1_555
H26 C22 1_555 1_555
H27 C22 1_555 1_555
H28 C22 1_555 1_555
C23 N3 1_555 1_555
H29 C23 1_555 1_555
H30 C23 1_555 1_555
C24 C23 1_555 1_555
C25 C24 1_555 1_555
H31 C25 1_555 1_555
C26 C25 1_555 1_555
H32 C26 1_555 1_555
C27 C26 1_555 1_555
H33 C27 1_555 1_555
C28 C27 1_555 1_555
H34 C28 1_555 1_555
C29 C24 1_555 1_555
H35 C29 1_555 1_555
Si2 O8 1_555 1_555
O5 C30 1_555 1_555
O6 C31 1_555 1_555
O7 H36 1_555 1_555
N4 C30 1_555 1_555
N5 C34 1_555 1_555
N6 C34 1_555 1_555
C30 C35 1_555 1_555
C31 N4 1_555 1_555
C32 H37 1_555 1_555
C33 O7 1_555 1_555
H38 C33 1_555 1_555
C34 H39 1_555 1_555
C35 H40 1_555 1_555
C36 C31 1_555 1_555
H41 C36 1_555 1_555
C37 N5 1_555 1_555
C38 N6 1_555 1_555
C39 N4 1_555 1_555
C40 C39 1_555 1_555
H42 C40 1_555 1_555
C41 C40 1_555 1_555
H43 C41 1_555 1_555
C42 C41 1_555 1_555
H44 C42 1_555 1_555
C43 C42 1_555 1_555
H45 C43 1_555 1_555
C44 C39 1_555 1_555
H46 C44 1_555 1_555
C45 C32 1_555 1_555
H47 C45 1_555 1_555
H48 C45 1_555 1_555
O8 C45 1_555 1_555
C46 Si2 1_555 1_555
H49 C46 1_555 1_555
H50 C46 1_555 1_555
H51 C46 1_555 1_555
C47 Si2 1_555 1_555
H52 C47 1_555 1_555
H53 C47 1_555 1_555
H54 C47 1_555 1_555
C48 Si2 1_555 1_555
C49 C48 1_555 1_555
H55 C49 1_555 1_555
H56 C49 1_555 1_555
H57 C49 1_555 1_555
C50 C48 1_555 1_555
H58 C50 1_555 1_555
H59 C50 1_555 1_555
H60 C50 1_555 1_555
C51 C48 1_555 1_555
H61 C51 1_555 1_555
H62 C51 1_555 1_555
H63 C51 1_555 1_555
C52 N6 1_555 1_555
H64 C52 1_555 1_555
H65 C52 1_555 1_555
C53 C52 1_555 1_555
C54 C53 1_555 1_555
H66 C54 1_555 1_555
C55 C54 1_555 1_555
H67 C55 1_555 1_555
C56 C55 1_555 1_555
H68 C56 1_555 1_555
C57 C56 1_555 1_555
H69 C57 1_555 1_555
C58 C53 1_555 1_555
H70 C58 1_555 1_555
C59 H71 1_555 1_555
H72 C59 1_555 1_555
H73 C59 1_555 1_555
C60 C59 1_555 1_555
H74 C60 1_555 1_555
H75 C60 1_555 1_555
C61 C60 1_555 1_555
H76 C61 1_555 1_555
H77 C61 1_555 1_555
C62 C61 1_555 1_555
H78 C62 1_555 1_555
H79 C62 1_555 1_555
C63 C62 1_555 1_555
H80 C63 1_555 1_555
H81 C63 1_555 1_555
H82 C63 1_555 1_555
C3 C4 1_555 1_555
C3 C7 1_555 1_555
C4 C8 1_555 1_555
C6 C9 1_555 1_555
C6 C7 1_555 1_555
C8 C9 1_555 1_555
C14 C15 1_555 1_555
C28 C29 1_555 1_555
C32 C33 1_555 1_555
C32 C36 1_555 1_555
C33 C37 1_555 1_555
C35 C38 1_555 1_555
C35 C36 1_555 1_555
C37 C38 1_555 1_555
C43 C44 1_555 1_555
C57 C58 1_555 1_555

#END
