
#######################################################################
#
#                 Cambridge Crystallographic Data Centre
#                                CCDC 
#
#######################################################################
#
# If this CIF has been generated from an entry in the Cambridge 
# Structural Database, then it will include bibliographic, chemical, 
# crystal, experimental, refinement or atomic coordinate data resulting 
# from the CCDC's data processing and validation procedures.
#
#######################################################################

data_IVULEQ
_chemical_formula_moiety         'C28 H33 N3 O4 Si1'
_chemical_name_systematic        
endo-1'-Benzyl-5-((t-butyl(dimethyl)silyl)oxy)-2-phenyl-3a,5,6,6a-tetrahydro-1H-spiro(cyclopenta(c)pyrrole-4,4'-imidazole)-1,3,5'(1'H,2H)-trione
_symmetry_cell_setting           orthorhombic
_symmetry_space_group_name_H-M   'P b c a'
_symmetry_Int_Tables_number      61
_space_group_name_Hall           '-P 2ac 2ab'
loop_
_symmetry_equiv_pos_site_id
_symmetry_equiv_pos_as_xyz
1 x,y,z
2 1/2+x,y,1/2-z
3 x,1/2-y,1/2+z
4 1/2-x,1/2+y,z
5 -x,-y,-z
6 1/2-x,-y,1/2+z
7 -x,1/2+y,1/2-z
8 1/2+x,1/2-y,-z
_cell_length_a                   14.8764(17)
_cell_length_b                   13.5218(13)
_cell_length_c                   27.438(3)
_cell_angle_alpha                90
_cell_angle_beta                 90
_cell_angle_gamma                90
_cell_volume                     5519.31
_exptl_crystal_colour            colorless
_exptl_crystal_description       blocks
_cell_formula_units_Z            8
loop_
_atom_site_label
_atom_site_type_symbol
_atom_site_fract_x
_atom_site_fract_y
_atom_site_fract_z
O1 O -0.0944(3) 0.2639(3) 0.33125(17)
O2 O -0.2057(3) 0.3869(3) 0.40243(18)
O3 O 0.0704(3) 0.4624(3) 0.46337(15)
O4 O 0.0744(3) 0.1197(3) 0.39841(17)
N1 N -0.0990(3) 0.1019(3) 0.43358(19)
N2 N -0.1505(3) 0.1131(4) 0.3561(2)
N3 N -0.0680(3) 0.4456(3) 0.42746(18)
C1 C -0.1431(4) 0.0617(5) 0.3994(3)
H1 H -0.1695 -0.0002 0.4033
C2 C -0.1051(4) 0.2001(5) 0.3619(2)
C3 C -0.0701(3) 0.1975(4) 0.4136(2)
C4 C -0.1025(3) 0.2818(4) 0.4478(2)
H2 H -0.1489 0.2571 0.4700
C5 C -0.1346(4) 0.3742(4) 0.4227(2)
C6 C 0.0033(4) 0.4142(4) 0.4565(2)
C7 C -0.0189(4) 0.3142(4) 0.4768(2)
H3 H -0.0324 0.3184 0.5117
C8 C 0.0535(4) 0.2374(4) 0.4671(2)
H4 H 0.1132 0.2658 0.4700
H5 H 0.0483 0.1817 0.4893
C9 C 0.0336(3) 0.2069(4) 0.4150(2)
H6 H 0.0514 0.2611 0.3934
C10 C -0.2014(5) 0.0826(6) 0.3135(3)
H7 H -0.2047 0.1378 0.2910
H8 H -0.2622 0.0667 0.3235
C11 C -0.1624(5) -0.0048(5) 0.2873(2)
C12 C -0.0781(6) -0.0028(7) 0.2682(3)
H9 H -0.0433 0.0538 0.2719
C13 C -0.0426(7) -0.0841(10) 0.2432(3)
H10 H 0.0158 -0.0828 0.2311
C14 C -0.0946(10) -0.1635(9) 0.2371(4)
H11 H -0.0721 -0.2168 0.2194
C15 C -0.1785(10) -0.1695(7) 0.2556(4)
H12 H -0.2129 -0.2262 0.2512
C16 C -0.2124(6) -0.0895(6) 0.2813(3)
H13 H -0.2698 -0.0931 0.2946
C17 C -0.0738(4) 0.5421(4) 0.4063(2)
C18 C -0.0205(6) 0.5663(6) 0.3682(3)
H14 H 0.0194 0.5200 0.3557
C19 C -0.0253(7) 0.6599(7) 0.3478(4)
H15 H 0.0118 0.6766 0.3218
C20 C -0.0846(7) 0.7275(6) 0.3662(4)
H16 H -0.0885 0.7903 0.3525
C21 C -0.1376(5) 0.7028(5) 0.4044(3)
H17 H -0.1775 0.7492 0.4170
C22 C -0.1333(4) 0.6100(5) 0.4247(3)
H18 H -0.1705 0.5934 0.4507
Si1 Si 0.16806(18) 0.0667(2) 0.39980(12)
C23 C 0.2386(6) 0.1064(8) 0.4518(4)
H19 H 0.2105 0.0865 0.4818
H20 H 0.2449 0.1770 0.4513
H21 H 0.2968 0.0762 0.4493
C24 C 0.2354(10) 0.1155(9) 0.3375(4)
H22 H 0.2016 0.0973 0.3091
H23 H 0.2938 0.0855 0.3362
H24 H 0.2417 0.1861 0.3387
C25 C 0.1737(9) -0.0490(12) 0.3858(6)
C26 C 0.1049(13) -0.0874(10) 0.4381(5)
H25 H 0.0978 -0.1580 0.4377
H26 H 0.0469 -0.0565 0.4362
H27 H 0.1341 -0.0679 0.4678
C27 C 0.1172(8) -0.0779(11) 0.3403(6)
H28 H 0.1169 -0.1485 0.3368
H29 H 0.1431 -0.0483 0.3118
H30 H 0.0566 -0.0547 0.3443
C28 C 0.2633(6) -0.0982(7) 0.3793(4)
H31 H 0.2548 -0.1680 0.3750
H32 H 0.2998 -0.0867 0.4076
H33 H 0.2927 -0.0713 0.3511
loop_
_geom_bond_atom_site_label_1
_geom_bond_atom_site_label_2
_geom_bond_site_symmetry_1
_geom_bond_site_symmetry_2
O1 C2 1_555 1_555
O2 C5 1_555 1_555
O3 C6 1_555 1_555
O4 C9 1_555 1_555
N1 C1 1_555 1_555
N2 C1 1_555 1_555
N3 C5 1_555 1_555
C1 H1 1_555 1_555
C2 N2 1_555 1_555
C3 N1 1_555 1_555
C4 C3 1_555 1_555
H2 C4 1_555 1_555
C5 C4 1_555 1_555
C6 N3 1_555 1_555
C7 C4 1_555 1_555
H3 C7 1_555 1_555
C8 C7 1_555 1_555
H4 C8 1_555 1_555
H5 C8 1_555 1_555
C9 C3 1_555 1_555
H6 C9 1_555 1_555
C10 N2 1_555 1_555
H7 C10 1_555 1_555
H8 C10 1_555 1_555
C11 C10 1_555 1_555
C12 C11 1_555 1_555
H9 C12 1_555 1_555
C13 C12 1_555 1_555
H10 C13 1_555 1_555
C14 C13 1_555 1_555
H11 C14 1_555 1_555
C15 C14 1_555 1_555
H12 C15 1_555 1_555
C16 C11 1_555 1_555
H13 C16 1_555 1_555
C17 N3 1_555 1_555
C18 C17 1_555 1_555
H14 C18 1_555 1_555
C19 C18 1_555 1_555
H15 C19 1_555 1_555
C20 C19 1_555 1_555
H16 C20 1_555 1_555
C21 C20 1_555 1_555
H17 C21 1_555 1_555
C22 C17 1_555 1_555
H18 C22 1_555 1_555
Si1 O4 1_555 1_555
C23 Si1 1_555 1_555
H19 C23 1_555 1_555
H20 C23 1_555 1_555
H21 C23 1_555 1_555
C24 Si1 1_555 1_555
H22 C24 1_555 1_555
H23 C24 1_555 1_555
H24 C24 1_555 1_555
C25 Si1 1_555 1_555
C26 C25 1_555 1_555
H25 C26 1_555 1_555
H26 C26 1_555 1_555
H27 C26 1_555 1_555
C27 C25 1_555 1_555
H28 C27 1_555 1_555
H29 C27 1_555 1_555
H30 C27 1_555 1_555
C28 C25 1_555 1_555
H31 C28 1_555 1_555
H32 C28 1_555 1_555
H33 C28 1_555 1_555
C2 C3 1_555 1_555
C6 C7 1_555 1_555
C8 C9 1_555 1_555
C15 C16 1_555 1_555
C21 C22 1_555 1_555

#END
