
#######################################################################
#
#                 Cambridge Crystallographic Data Centre
#                                CCDC 
#
#######################################################################
#
# If this CIF has been generated from an entry in the Cambridge 
# Structural Database, then it will include bibliographic, chemical, 
# crystal, experimental, refinement or atomic coordinate data resulting 
# from the CCDC's data processing and validation procedures.
#
#######################################################################

data_IVUPEU
_chemical_formula_moiety         'C22 H18 Cl1 N1 O3'
_chemical_name_systematic        
'Ethyl (2-amino-4-(2-chlorophenyl)-4H-benzo(h)chromene-3-yl)formate'
_symmetry_cell_setting           monoclinic
_symmetry_space_group_name_H-M   'C 2/c'
_symmetry_Int_Tables_number      15
_space_group_name_Hall           '-C 2yn'
loop_
_symmetry_equiv_pos_site_id
_symmetry_equiv_pos_as_xyz
1 x,y,z
2 1/2+x,1/2+y,z
3 x,-y,1/2+z
4 1/2+x,1/2-y,1/2+z
5 -x,-y,-z
6 1/2-x,1/2-y,-z
7 -x,y,1/2-z
8 1/2-x,1/2+y,1/2-z
_cell_length_a                   25.168(4)
_cell_length_b                   9.584(1)
_cell_length_c                   16.503(3)
_cell_angle_alpha                90
_cell_angle_beta                 111.14(1)
_cell_angle_gamma                90
_cell_volume                     3712.8
_exptl_crystal_colour            'pale yellow'
_chemical_melting_point          161-163deg.C
_cell_formula_units_Z            8
loop_
_atom_site_label
_atom_site_type_symbol
_atom_site_fract_x
_atom_site_fract_y
_atom_site_fract_z
Cl1 Cl 0.39919(5) 0.10880(10) 0.18273(7)
O1 O 0.39785(9) 0.7311(2) 0.23457(13)
O2 O 0.27944(11) 0.5717(3) 0.00305(15)
N1 N 0.32710(14) 0.7827(4) 0.1140(2)
C1 C 0.35848(13) 0.6775(3) 0.1611(2)
C2 C 0.35339(12) 0.5394(3) 0.14182(18)
C3 C 0.39020(12) 0.4285(3) 0.20327(17)
H1 H 0.4090 0.3724 0.1718
C4 C 0.43558(12) 0.5007(3) 0.27934(18)
C5 C 0.43817(13) 0.6413(3) 0.28982(18)
C6 C 0.48216(13) 0.7097(4) 0.3580(2)
C7 C 0.48561(17) 0.8554(4) 0.3661(2)
H2 H 0.4581 0.9108 0.3263
C8 C 0.5290(2) 0.9167(5) 0.4319(3)
H3 H 0.5311 1.0134 0.4365
C9 C 0.57021(19) 0.8346(6) 0.4920(3)
H4 H 0.5995 0.8772 0.5369
C10 C 0.56825(16) 0.6944(6) 0.4863(2)
H5 H 0.5961 0.6415 0.5273
C11 C 0.52401(14) 0.6261(4) 0.4182(2)
C12 C 0.52016(14) 0.4811(5) 0.4085(2)
H6 H 0.5470 0.4252 0.4490
C13 C 0.47826(13) 0.4198(4) 0.34136(19)
H7 H 0.4775 0.3232 0.3360
C14 C 0.35497(12) 0.3322(3) 0.23761(17)
C15 C 0.32061(12) 0.3879(3) 0.27904(19)
H8 H 0.3186 0.4843 0.2835
C16 C 0.28957(14) 0.3055(4) 0.3136(2)
H9 H 0.2672 0.3462 0.3413
C17 C 0.29158(15) 0.1633(4) 0.3073(2)
H10 H 0.2703 0.1071 0.3303
C18 C 0.32505(16) 0.1044(4) 0.2671(2)
H11 H 0.3268 0.0079 0.2630
C19 C 0.35633(14) 0.1881(3) 0.23255(19)
C20 C 0.31600(14) 0.4989(3) 0.0560(2)
O3 O 0.3302(6) 0.3732(7) 0.0329(6)
C21 C 0.3004(6) 0.3304(12) -0.0576(7)
H12 H 0.3111 0.3908 -0.0963
H13 H 0.2595 0.3378 -0.0722
C22 C 0.3163(9) 0.1807(11) -0.0681(10)
H14 H 0.3551 0.1772 -0.0651
H15 H 0.2917 0.1456 -0.1234
H16 H 0.3122 0.1245 -0.0226
H22 H 0.3428(17) 0.864(2) 0.128(3)
H23 H 0.3044(13) 0.754(4) 0.0645(13)
O4? O 0.3203(7) 0.3603(6) 0.0434(7)
C23? C 0.2938(6) 0.3094(16) -0.0460(10)
H17? H 0.2770 0.3869 -0.0846
H18? H 0.2637 0.2437 -0.0495
C24? C 0.3385(8) 0.239(3) -0.0735(11)
H19? H 0.3690 0.3028 -0.0673
H20? H 0.3217 0.2101 -0.1331
H21? H 0.3531 0.1584 -0.0376
loop_
_geom_bond_atom_site_label_1
_geom_bond_atom_site_label_2
_geom_bond_site_symmetry_1
_geom_bond_site_symmetry_2
Cl1 C19 1_555 1_555
O1 C1 1_555 1_555
O2 C20 1_555 1_555
N1 C1 1_555 1_555
C1 C2 1_555 1_555
C2 C3 1_555 1_555
C3 H1 1_555 1_555
C4 C3 1_555 1_555
C5 O1 1_555 1_555
C6 C5 1_555 1_555
C7 C6 1_555 1_555
H2 C7 1_555 1_555
C8 C7 1_555 1_555
H3 C8 1_555 1_555
C9 C8 1_555 1_555
H4 C9 1_555 1_555
C10 C9 1_555 1_555
H5 C10 1_555 1_555
C11 C6 1_555 1_555
C12 C11 1_555 1_555
H6 C12 1_555 1_555
C13 C4 1_555 1_555
H7 C13 1_555 1_555
C14 C3 1_555 1_555
C15 C14 1_555 1_555
H8 C15 1_555 1_555
C16 C15 1_555 1_555
H9 C16 1_555 1_555
C17 C16 1_555 1_555
H10 C17 1_555 1_555
C18 C17 1_555 1_555
H11 C18 1_555 1_555
C19 C14 1_555 1_555
C20 C2 1_555 1_555
O3 C20 1_555 1_555
C21 O3 1_555 1_555
H12 C21 1_555 1_555
H13 C21 1_555 1_555
C22 C21 1_555 1_555
H14 C22 1_555 1_555
H15 C22 1_555 1_555
H16 C22 1_555 1_555
H22 N1 1_555 1_555
H23 N1 1_555 1_555
C4 C5 1_555 1_555
C10 C11 1_555 1_555
C12 C13 1_555 1_555
C18 C19 1_555 1_555

#END
