
#######################################################################
#
#                 Cambridge Crystallographic Data Centre
#                                CCDC 
#
#######################################################################
#
# If this CIF has been generated from an entry in the Cambridge 
# Structural Database, then it will include bibliographic, chemical, 
# crystal, experimental, refinement or atomic coordinate data resulting 
# from the CCDC's data processing and validation procedures.
#
#######################################################################

data_IVUPOG
_chemical_formula_moiety         'C20 H21 F3 N2 O2'
_chemical_name_systematic        
1-(2,3-dihydro-1,4-benzodioxin-6-ylmethyl)-4-(3-(trifluoromethyl)phenyl)piperazine
_chemical_properties_biological  
'displayed potent anti-inflammatory activities, specifically inhibitory activity against COX-2 with IC50 of 0.12  M'
_symmetry_cell_setting           monoclinic
_symmetry_space_group_name_H-M   'P 21/c'
_symmetry_Int_Tables_number      14
_space_group_name_Hall           '-P 2ybc'
loop_
_symmetry_equiv_pos_site_id
_symmetry_equiv_pos_as_xyz
1 x,y,z
2 -x,1/2+y,1/2-z
3 -x,-y,-z
4 x,1/2-y,1/2+z
_cell_length_a                   10.696(3)
_cell_length_b                   11.176(3)
_cell_length_c                   15.488(4)
_cell_angle_alpha                90
_cell_angle_beta                 100.548(7)
_cell_angle_gamma                90
_cell_volume                     1820.13
_cell_formula_units_Z            4
loop_
_atom_site_label
_atom_site_type_symbol
_atom_site_fract_x
_atom_site_fract_y
_atom_site_fract_z
O1 O -0.2573(3) 0.2784(3) 0.56375(19)
O2 O -0.0597(3) 0.1061(3) 0.56894(18)
N1 N 0.2782(3) 0.1172(3) 1.04429(18)
F1 F 0.5428(4) -0.0173(5) 1.3830(2)
F2 F 0.6418(4) 0.0306(6) 1.2889(3)
F3 F 0.6157(5) -0.1414(5) 1.3198(4)
C1 C -0.1447(4) 0.2863(4) 0.6223(2)
N2 N 0.2247(3) 0.2228(3) 0.87321(19)
C2 C 0.3010(3) 0.0321(3) 1.1121(2)
C3 C 0.4175(3) 0.0327(4) 1.1705(2)
H1 H 0.4804 0.0870 1.1628
C4 C 0.1499(3) 0.1182(3) 0.9925(2)
H2 H 0.0885 0.1218 1.0314
H3 H 0.1352 0.0448 0.9587
C5 C 0.0614(4) 0.2141(4) 0.6866(2)
H4 H 0.1251 0.1570 0.6884
C6 C 0.3517(4) 0.2299(4) 0.9272(3)
H5 H 0.3597 0.3036 0.9608
H6 H 0.4149 0.2308 0.8896
C7 C 0.3753(4) 0.1247(4) 0.9889(2)
H7 H 0.3747 0.0515 0.9551
H8 H 0.4585 0.1326 1.0258
C8 C 0.0798(4) 0.3082(4) 0.7448(2)
C9 C -0.0490(4) 0.2027(4) 0.6257(2)
C10 C 0.1318(4) 0.2239(4) 0.9312(2)
H9 H 0.0467 0.2220 0.8964
H10 H 0.1406 0.2973 0.9653
C11 C 0.2032(4) 0.3206(4) 0.8095(3)
H11 H 0.2731 0.3231 0.7776
H12 H 0.2026 0.3958 0.8408
C12 C -0.1280(4) 0.3807(4) 0.6801(3)
H13 H -0.1921 0.4373 0.6783
C13 C 0.3487(4) -0.1296(4) 1.2531(3)
H14 H 0.3647 -0.1839 1.2994
C14 C 0.2105(4) -0.0502(4) 1.1277(3)
H15 H 0.1316 -0.0516 1.0905
C15 C 0.4392(4) -0.0481(4) 1.2401(2)
C16 C -0.0165(5) 0.3924(4) 0.7411(3)
H16 H -0.0062 0.4569 0.7797
C17 C 0.2343(4) -0.1296(4) 1.1965(3)
H17 H 0.1718 -0.1841 1.2047
C18 C -0.1595(5) 0.1176(6) 0.4952(3)
H18 H -0.1791 0.0394 0.4692
H19 H -0.1310 0.1680 0.4517
C19 C 0.5592(5) -0.0393(6) 1.3051(3)
C20 C -0.2731(5) 0.1683(7) 0.5177(4)
H20 H -0.3345 0.1799 0.4640
H21 H -0.3089 0.1106 0.5532
loop_
_geom_bond_atom_site_label_1
_geom_bond_atom_site_label_2
_geom_bond_site_symmetry_1
_geom_bond_site_symmetry_2
O1 C1 1_555 1_555
O2 C9 1_555 1_555
N1 C2 1_555 1_555
F1 C19 1_555 1_555
F2 C19 1_555 1_555
F3 C19 1_555 1_555
C1 C9 1_555 1_555
N2 C6 1_555 1_555
C2 C3 1_555 1_555
C3 H1 1_555 1_555
C4 N1 1_555 1_555
H2 C4 1_555 1_555
H3 C4 1_555 1_555
C5 H4 1_555 1_555
C6 H5 1_555 1_555
H6 C6 1_555 1_555
C7 N1 1_555 1_555
H7 C7 1_555 1_555
H8 C7 1_555 1_555
C8 C5 1_555 1_555
C9 C5 1_555 1_555
C10 N2 1_555 1_555
H9 C10 1_555 1_555
H10 C10 1_555 1_555
C11 N2 1_555 1_555
H11 C11 1_555 1_555
H12 C11 1_555 1_555
C12 C1 1_555 1_555
H13 C12 1_555 1_555
C13 H14 1_555 1_555
C14 C2 1_555 1_555
H15 C14 1_555 1_555
C15 C3 1_555 1_555
C16 C8 1_555 1_555
H16 C16 1_555 1_555
C17 C13 1_555 1_555
H17 C17 1_555 1_555
C18 O2 1_555 1_555
H18 C18 1_555 1_555
H19 C18 1_555 1_555
C19 C15 1_555 1_555
C20 O1 1_555 1_555
H20 C20 1_555 1_555
H21 C20 1_555 1_555
C4 C10 1_555 1_555
C6 C7 1_555 1_555
C8 C11 1_555 1_555
C12 C16 1_555 1_555
C13 C15 1_555 1_555
C14 C17 1_555 1_555
C18 C20 1_555 1_555

#END
