
#######################################################################
#
#                 Cambridge Crystallographic Data Centre
#                                CCDC 
#
#######################################################################
#
# If this CIF has been generated from an entry in the Cambridge 
# Structural Database, then it will include bibliographic, chemical, 
# crystal, experimental, refinement or atomic coordinate data resulting 
# from the CCDC's data processing and validation procedures.
#
#######################################################################

data_IVUPUK
_chemical_name_common            2-Oxo-12-O-methylsalvirecognine
_chemical_formula_moiety         'C20 H26 O2'
_chemical_name_systematic        
7-Isopropyl-6-methoxy-1,1-dimethyl-1,9,10,10a-tetrahydrophenanthren-3(2H)-one
_symmetry_cell_setting           triclinic
_symmetry_space_group_name_H-M   'P -1'
_symmetry_Int_Tables_number      2
_space_group_name_Hall           '-P 1'
loop_
_symmetry_equiv_pos_site_id
_symmetry_equiv_pos_as_xyz
1 x,y,z
2 -x,-y,-z
_cell_length_a                   7.590(2)
_cell_length_b                   11.123(2)
_cell_length_c                   11.201(2)
_cell_angle_alpha                111.65(3)
_cell_angle_beta                 99.76(3)
_cell_angle_gamma                93.01(3)
_cell_volume                     859.338
_exptl_crystal_colour            colorless
_exptl_crystal_description       block
_chemical_melting_point          140-142deg.C
_cell_formula_units_Z            2
loop_
_atom_site_label
_atom_site_type_symbol
_atom_site_fract_x
_atom_site_fract_y
_atom_site_fract_z
O1 O 0.5247(14) 1.1461(9) 0.1756(8)
O2 O 0.1093(15) 0.5134(8) -0.2575(10)
C1 C 0.035(2) 0.7970(13) 0.0174(12)
C2 C 0.1154(15) 0.7180(19) -0.0793(18)
H1 H 0.2298 0.7493 -0.0897
C3 C 0.038(3) 0.5961(18) -0.1605(14)
C4 C -0.130(3) 0.5417(14) -0.1538(17)
C5 C -0.2087(18) 0.620(2) -0.0581(19)
H2 H -0.3228 0.5870 -0.0488
C6 C -0.133(3) 0.7478(17) 0.0303(12)
C7 C -0.2229(17) 0.8270(13) 0.1345(13)
H3 H -0.2962 0.7709 0.1593
H4 H -0.3005 0.8768 0.0998
C8 C -0.0854(18) 0.9177(12) 0.2512(10)
H5 H -0.0142 0.8675 0.2897
H6 H -0.1480 0.9710 0.3153
C9 C 0.0304(14) 1.0065(10) 0.2140(10)
H7 H -0.0486 1.0540 0.1770
C10 C 0.125(2) 0.9296(12) 0.1091(10)
C11 C 0.284(2) 0.9786(13) 0.0966(10)
H8 H 0.3400 0.9259 0.0276
C12 C 0.376(2) 1.1061(14) 0.1826(10)
C13 C 0.2824(14) 1.1870(9) 0.2828(10)
H9 H 0.2052 1.2344 0.2443
H10 H 0.3685 1.2500 0.3555
C14 C 0.1634(16) 1.1090(11) 0.3317(11)
C15 C 0.0648(16) 1.2011(11) 0.4265(10)
H11 H 0.1468 1.2673 0.4993
H12 H -0.0142 1.2416 0.3806
H13 H -0.0053 1.1499 0.4584
C16 C 0.2864(17) 1.0494(11) 0.4117(10)
H14 H 0.3703 1.1143 0.4844
H15 H 0.2114 1.0016 0.4439
H16 H 0.3514 0.9904 0.3537
C17 C 0.265(2) 0.5566(14) -0.2807(13)
H17 H 0.3045 0.4889 -0.3499
H18 H 0.2421 0.6284 -0.3065
H19 H 0.3578 0.5863 -0.2020
C18 C -0.2848(13) 0.4058(10) -0.3824(10)
H20 H -0.1895 0.4419 -0.4100
H21 H -0.3268 0.3177 -0.4440
H22 H -0.3825 0.4576 -0.3788
C19 C -0.2103(17) 0.4122(14) -0.2474(15)
H23 H -0.1180 0.3556 -0.2551
C20 C -0.353(2) 0.3493(11) -0.2041(11)
H24 H -0.3088 0.3492 -0.1184
H25 H -0.4504 0.4012 -0.2007
H26 H -0.3947 0.2613 -0.2658
loop_
_geom_bond_atom_site_label_1
_geom_bond_atom_site_label_2
_geom_bond_site_symmetry_1
_geom_bond_site_symmetry_2
O1 C12 1_555 1_555
O2 C3 1_555 1_555
C1 C2 1_555 1_555
C2 H1 1_555 1_555
C3 C2 1_555 1_555
C4 C3 1_555 1_555
C5 C4 1_555 1_555
H2 C5 1_555 1_555
C6 C1 1_555 1_555
C7 C6 1_555 1_555
H3 C7 1_555 1_555
H4 C7 1_555 1_555
C8 C7 1_555 1_555
H5 C8 1_555 1_555
H6 C8 1_555 1_555
C9 C8 1_555 1_555
H7 C9 1_555 1_555
C10 C1 1_555 1_555
C11 C10 1_555 1_555
H8 C11 1_555 1_555
C12 C11 1_555 1_555
C13 C12 1_555 1_555
H9 C13 1_555 1_555
H10 C13 1_555 1_555
C14 C9 1_555 1_555
C15 C14 1_555 1_555
H11 C15 1_555 1_555
H12 C15 1_555 1_555
H13 C15 1_555 1_555
C16 C14 1_555 1_555
H14 C16 1_555 1_555
H15 C16 1_555 1_555
H16 C16 1_555 1_555
C17 O2 1_555 1_555
H17 C17 1_555 1_555
H18 C17 1_555 1_555
H19 C17 1_555 1_555
C18 H20 1_555 1_555
H21 C18 1_555 1_555
H22 C18 1_555 1_555
C19 C4 1_555 1_555
H23 C19 1_555 1_555
C20 C19 1_555 1_555
H24 C20 1_555 1_555
H25 C20 1_555 1_555
H26 C20 1_555 1_555
C5 C6 1_555 1_555
C9 C10 1_555 1_555
C13 C14 1_555 1_555
C18 C19 1_555 1_555

#END
