
#######################################################################
#
#                 Cambridge Crystallographic Data Centre
#                                CCDC 
#
#######################################################################
#
# If this CIF has been generated from an entry in the Cambridge 
# Structural Database, then it will include bibliographic, chemical, 
# crystal, experimental, refinement or atomic coordinate data resulting 
# from the CCDC's data processing and validation procedures.
#
#######################################################################

data_IVUVAY
_chemical_formula_moiety         'C28 H45 F3 O3'
_chemical_name_systematic        
7\b-(trifluoromethyl)cholest-5-ene-3\b,7\a,25-triol
_chemical_properties_biological  'EBI2 agonist activity'
_symmetry_cell_setting           monoclinic
_symmetry_space_group_name_H-M   'P 21'
_symmetry_Int_Tables_number      4
_space_group_name_Hall           'P 2yb'
loop_
_symmetry_equiv_pos_site_id
_symmetry_equiv_pos_as_xyz
1 x,y,z
2 -x,1/2+y,-z
_cell_length_a                   10.6622(3)
_cell_length_b                   15.8132(3)
_cell_length_c                   16.2340(6)
_cell_angle_alpha                90
_cell_angle_beta                 97.0271(18)
_cell_angle_gamma                90
_cell_volume                     2716.55
_exptl_crystal_colour            colorless
_exptl_crystal_description       Block
_chemical_melting_point          '198-199 deg.C'
_cell_formula_units_Z            4
_exptl_crystal_recrystallization_method 'ethyl acetate'
loop_
_atom_site_label
_atom_site_type_symbol
_atom_site_fract_x
_atom_site_fract_y
_atom_site_fract_z
C1 C 0.1699(4) 0.57731(18) 1.22287(19)
H1 H 0.2165 0.6101 1.1863
H2 H 0.0819 0.5941 1.2123
C2 C 0.2198(4) 0.5992(2) 1.3133(2)
H3 H 0.3094 0.5868 1.3233
H4 H 0.2085 0.6592 1.3225
C3 C 0.1515(3) 0.54968(19) 1.37276(18)
H5 H 0.0616 0.5645 1.3645
C4 C 0.1664(3) 0.45637(18) 1.35713(17)
H6 H 0.118(3) 0.423(2) 1.392(2)
H7 H 0.258(3) 0.4389(19) 1.3735(18)
C5 C 0.1294(2) 0.43121(14) 1.26825(15)
C6 C 0.0580(2) 0.36348(16) 1.25094(15)
H8 H 0.0244 0.3382 1.2951
C7 C 0.0258(2) 0.32348(14) 1.16762(15)
C8 C 0.0800(2) 0.37012(14) 1.09537(14)
H9 H 0.1629 0.3456 1.0894
C9 C 0.0993(2) 0.46540(14) 1.11671(14)
H10 H 0.0152 0.4881 1.1221
C10 C 0.1806(2) 0.48212(15) 1.20114(15)
C11 C 0.1473(3) 0.51397(16) 1.04468(16)
H11 H 0.1502 0.5738 1.0580
H12 H 0.2329 0.4958 1.0395
C12 C 0.0663(3) 0.50162(16) 0.96131(16)
H13 H -0.0164 0.5264 0.9638
H14 H 0.1052 0.5309 0.9184
C13 C 0.0511(2) 0.40849(14) 0.93868(14)
C14 C -0.0033(2) 0.36279(14) 1.01093(14)
H15 H -0.0822 0.3922 1.0179
C15 C -0.0427(3) 0.27629(16) 0.97373(16)
H16 H 0.0290 0.2381 0.9768
H17 H -0.1080 0.2509 1.0024
C16 C -0.0928(3) 0.29622(19) 0.88337(17)
H18 H -0.1841 0.2910 0.8749
H19 H -0.0575 0.2571 0.8464
C17 C -0.0532(2) 0.38769(16) 0.86539(15)
H20 H -0.1258 0.4239 0.8723
C18 C 0.1777(2) 0.37100(18) 0.92093(17)
H21 H 0.1655 0.3133 0.9032
H22 H 0.2369 0.3730 0.9705
H23 H 0.2100 0.4032 0.8780
C19 C 0.3197(3) 0.4562(3) 1.1995(2)
H24 H 0.3560 0.4898 1.1592
H25 H 0.3237 0.3975 1.1849
H26 H 0.3660 0.4651 1.2533
C20 C -0.0249(3) 0.39919(16) 0.77537(16)
H27 H 0.0459 0.3619 0.7671
C21 C 0.0132(3) 0.48913(19) 0.75595(18)
H28 H 0.0212 0.4938 0.6979
H29 H 0.0926 0.5024 0.7878
H30 H -0.0503 0.5279 0.7699
C22 C -0.1390(3) 0.3716(2) 0.71441(17)
H31 H -0.1739 0.3207 0.7360
H32 H -0.2031 0.4153 0.7131
C23 C -0.1139(3) 0.3545(2) 0.62638(16)
H33 H -0.0525 0.3092 0.6263
H34 H -0.0783 0.4047 0.6039
C24 C -0.2349(3) 0.32971(19) 0.57165(17)
H35 H -0.2771 0.2864 0.6004
H36 H -0.2901 0.3787 0.5661
C25 C -0.2212(3) 0.29714(19) 0.48492(17)
C26 C -0.1685(4) 0.3640(2) 0.4317(2)
H37 H -0.2266 0.4105 0.4236
H38 H -0.1566 0.3401 0.3788
H39 H -0.0889 0.3838 0.4589
C27 C -0.3479(3) 0.2645(3) 0.4443(2)
H40 H -0.4092 0.3093 0.4417
H41 H -0.3751 0.2185 0.4763
H42 H -0.3396 0.2453 0.3891
O1 O -0.1392(2) 0.22459(13) 0.49023(13)
H43 H -0.059(4) 0.244(3) 0.499(3)
O2 O -0.10895(17) 0.31424(13) 1.15085(12)
H44 H -0.144(3) 0.351(3) 1.182(2)
C28 C 0.0751(3) 0.23223(16) 1.17838(16)
F1 F 0.0315(2) 0.19415(10) 1.24281(11)
F2 F 0.20017(18) 0.23080(11) 1.19416(13)
F3 F 0.0439(2) 0.18183(10) 1.11367(10)
O3 O 0.2007(3) 0.56353(16) 1.45771(13)
H45 H 0.176(4) 0.610(3) 1.469(2)
C29 C 0.4670(3) 0.41948(16) 0.76607(17)
H46 H 0.5465 0.3909 0.7831
H47 H 0.4058 0.3983 0.8006
C30 C 0.4225(4) 0.39618(19) 0.67576(19)
H48 H 0.489(3) 0.416(2) 0.642(2)
H49 H 0.417(3) 0.333(2) 0.674(2)
C31 C 0.3002(3) 0.44032(19) 0.64609(19)
H50 H 0.242(3) 0.422(2) 0.680(2)
C32 C 0.3173(3) 0.53477(18) 0.65376(17)
H51 H 0.2358 0.5618 0.6400
H52 H 0.3717 0.5534 0.6136
C33 C 0.3737(2) 0.56364(15) 0.73933(15)
C34 C 0.3288(2) 0.63134(15) 0.77277(15)
H53 H 0.2547 0.6541 0.7455
C35 C 0.3853(2) 0.67576(14) 0.85091(14)
C36 C 0.4970(2) 0.62661(13) 0.90058(14)
H54 H 0.5761 0.6497 0.8849
C37 C 0.4914(2) 0.53190(14) 0.87738(15)
H55 H 0.4117 0.5105 0.8937
C38 C 0.4855(2) 0.51544(15) 0.78249(15)
C39 C 0.5971(3) 0.48185(15) 0.92882(16)
H56 H 0.5851 0.4221 0.9168
H57 H 0.6776 0.4984 0.9117
C40 C 0.6022(3) 0.49507(15) 1.02236(16)
H58 H 0.6740 0.4646 1.0505
H59 H 0.5262 0.4722 1.0411
C41 C 0.6139(2) 0.58887(14) 1.04552(14)
C42 C 0.5011(2) 0.63530(14) 0.99523(15)
H60 H 0.4245 0.6076 1.0097
C43 C 0.5049(3) 0.72269(16) 1.03637(16)
H61 H 0.5676 0.7587 1.0154
H62 H 0.4231 0.7502 1.0268
C44 C 0.5409(3) 0.70338(18) 1.12842(17)
H63 H 0.4677 0.7094 1.1581
H64 H 0.6058 0.7423 1.1523
C45 C 0.5907(2) 0.61121(15) 1.13543(15)
H65 H 0.5201 0.5759 1.1483
C46 C 0.7419(2) 0.62389(18) 1.02704(18)
H66 H 0.7485 0.6824 1.0427
H67 H 0.7484 0.6186 0.9688
H68 H 0.8089 0.5926 1.0581
C47 C 0.6065(3) 0.54555(18) 0.74788(17)
H69 H 0.6784 0.5164 0.7759
H70 H 0.6167 0.6053 0.7567
H71 H 0.5997 0.5337 0.6895
C48 C 0.6967(3) 0.60060(16) 1.20793(16)
H72 H 0.7647 0.6399 1.1989
C49 C 0.7527(4) 0.5117(2) 1.21441(19)
H73 H 0.7914 0.4994 1.1654
H74 H 0.6868 0.4714 1.2197
H75 H 0.8151 0.5083 1.2622
C50 C 0.6487(3) 0.6249(2) 1.28984(17)
H76 H 0.5980 0.6757 1.2807
H77 H 0.5935 0.5801 1.3049
C51 C 0.7495(3) 0.6403(2) 1.36273(18)
H78 H 0.7963 0.5884 1.3757
H79 H 0.8083 0.6826 1.3474
C52 C 0.6932(3) 0.6701(2) 1.43894(17)
H80 H 0.6400 0.6252 1.4560
H81 H 0.6390 0.7182 1.4232
C53 C 0.7868(3) 0.69568(17) 1.51420(16)
C54 C 0.8689(3) 0.6217(2) 1.5472(2)
H82 H 0.8165 0.5778 1.5653
H83 H 0.9279 0.6403 1.5931
H84 H 0.9143 0.6004 1.5041
C55 C 0.7140(3) 0.7331(3) 1.58085(19)
H85 H 0.6570 0.6914 1.5979
H86 H 0.6668 0.7815 1.5588
H87 H 0.7723 0.7500 1.6277
O4 O 0.87350(19) 0.75841(13) 1.49003(13)
H88 H 0.830(4) 0.806(3) 1.474(3)
O5 O 0.29160(17) 0.69055(12) 0.90427(11)
H89 H 0.232(4) 0.719(2) 0.876(2)
C56 C 0.4312(3) 0.76154(16) 0.82165(16)
F4 F 0.33714(17) 0.80540(10) 0.77835(11)
F5 F 0.4808(2) 0.81205(10) 0.88222(11)
F6 F 0.51939(15) 0.75300(10) 0.77036(11)
O6 O 0.2569(3) 0.41575(15) 0.56238(14)
H90 H 0.230(4) 0.467(3) 0.533(3)
loop_
_geom_bond_atom_site_label_1
_geom_bond_atom_site_label_2
_geom_bond_site_symmetry_1
_geom_bond_site_symmetry_2
C1 H1 1_555 1_555
H2 C1 1_555 1_555
C2 C1 1_555 1_555
H3 C2 1_555 1_555
H4 C2 1_555 1_555
C3 C2 1_555 1_555
H5 C3 1_555 1_555
C4 C3 1_555 1_555
H6 C4 1_555 1_555
H7 C4 1_555 1_555
C5 C4 1_555 1_555
C6 C5 1_555 1_555
H8 C6 1_555 1_555
C7 C6 1_555 1_555
C8 C7 1_555 1_555
H9 C8 1_555 1_555
C9 C8 1_555 1_555
H10 C9 1_555 1_555
C10 C1 1_555 1_555
C11 C9 1_555 1_555
H11 C11 1_555 1_555
H12 C11 1_555 1_555
C12 C11 1_555 1_555
H13 C12 1_555 1_555
H14 C12 1_555 1_555
C13 C12 1_555 1_555
C14 C8 1_555 1_555
H15 C14 1_555 1_555
C15 C14 1_555 1_555
H16 C15 1_555 1_555
H17 C15 1_555 1_555
C16 C15 1_555 1_555
H18 C16 1_555 1_555
H19 C16 1_555 1_555
C17 C13 1_555 1_555
H20 C17 1_555 1_555
C18 C13 1_555 1_555
H21 C18 1_555 1_555
H22 C18 1_555 1_555
H23 C18 1_555 1_555
C19 C10 1_555 1_555
H24 C19 1_555 1_555
H25 C19 1_555 1_555
H26 C19 1_555 1_555
C20 C17 1_555 1_555
H27 C20 1_555 1_555
C21 C20 1_555 1_555
H28 C21 1_555 1_555
H29 C21 1_555 1_555
H30 C21 1_555 1_555
C22 C20 1_555 1_555
H31 C22 1_555 1_555
H32 C22 1_555 1_555
C23 C22 1_555 1_555
H33 C23 1_555 1_555
H34 C23 1_555 1_555
C24 C23 1_555 1_555
H35 C24 1_555 1_555
H36 C24 1_555 1_555
C25 C24 1_555 1_555
C26 C25 1_555 1_555
H37 C26 1_555 1_555
H38 C26 1_555 1_555
H39 C26 1_555 1_555
C27 C25 1_555 1_555
H40 C27 1_555 1_555
H41 C27 1_555 1_555
H42 C27 1_555 1_555
O1 C25 1_555 1_555
H43 O1 1_555 1_555
O2 C7 1_555 1_555
H44 O2 1_555 1_555
C28 C7 1_555 1_555
F1 C28 1_555 1_555
F2 C28 1_555 1_555
F3 C28 1_555 1_555
O3 C3 1_555 1_555
H45 O3 1_555 1_555
C29 H46 1_555 1_555
H47 C29 1_555 1_555
C30 C29 1_555 1_555
H48 C30 1_555 1_555
H49 C30 1_555 1_555
C31 C30 1_555 1_555
H50 C31 1_555 1_555
C32 C31 1_555 1_555
H51 C32 1_555 1_555
H52 C32 1_555 1_555
C33 C32 1_555 1_555
C34 C33 1_555 1_555
H53 C34 1_555 1_555
C35 C34 1_555 1_555
C36 C35 1_555 1_555
H54 C36 1_555 1_555
C37 C36 1_555 1_555
H55 C37 1_555 1_555
C38 C29 1_555 1_555
C39 C37 1_555 1_555
H56 C39 1_555 1_555
H57 C39 1_555 1_555
C40 C39 1_555 1_555
H58 C40 1_555 1_555
H59 C40 1_555 1_555
C41 C40 1_555 1_555
C42 C36 1_555 1_555
H60 C42 1_555 1_555
C43 C42 1_555 1_555
H61 C43 1_555 1_555
H62 C43 1_555 1_555
C44 C43 1_555 1_555
H63 C44 1_555 1_555
H64 C44 1_555 1_555
C45 C41 1_555 1_555
H65 C45 1_555 1_555
C46 C41 1_555 1_555
H66 C46 1_555 1_555
H67 C46 1_555 1_555
H68 C46 1_555 1_555
C47 C38 1_555 1_555
H69 C47 1_555 1_555
H70 C47 1_555 1_555
H71 C47 1_555 1_555
C48 C45 1_555 1_555
H72 C48 1_555 1_555
C49 C48 1_555 1_555
H73 C49 1_555 1_555
H74 C49 1_555 1_555
H75 C49 1_555 1_555
C50 C48 1_555 1_555
H76 C50 1_555 1_555
H77 C50 1_555 1_555
C51 C50 1_555 1_555
H78 C51 1_555 1_555
H79 C51 1_555 1_555
C52 C51 1_555 1_555
H80 C52 1_555 1_555
H81 C52 1_555 1_555
C53 C52 1_555 1_555
C54 C53 1_555 1_555
H82 C54 1_555 1_555
H83 C54 1_555 1_555
H84 C54 1_555 1_555
C55 C53 1_555 1_555
H85 C55 1_555 1_555
H86 C55 1_555 1_555
H87 C55 1_555 1_555
O4 C53 1_555 1_555
H88 O4 1_555 1_555
O5 C35 1_555 1_555
H89 O5 1_555 1_555
C56 C35 1_555 1_555
F4 C56 1_555 1_555
F5 C56 1_555 1_555
F6 C56 1_555 1_555
O6 C31 1_555 1_555
H90 O6 1_555 1_555
C5 C10 1_555 1_555
C9 C10 1_555 1_555
C13 C14 1_555 1_555
C16 C17 1_555 1_555
C33 C38 1_555 1_555
C37 C38 1_555 1_555
C41 C42 1_555 1_555
C44 C45 1_555 1_555

#END
