
#######################################################################
#
#                 Cambridge Crystallographic Data Centre
#                                CCDC 
#
#######################################################################
#
# If this CIF has been generated from an entry in the Cambridge 
# Structural Database, then it will include bibliographic, chemical, 
# crystal, experimental, refinement or atomic coordinate data resulting 
# from the CCDC's data processing and validation procedures.
#
#######################################################################

data_IVUYEF
_chemical_name_common            
12,13-dihydroxy-9-methyl-5,14-dioxatetracyclo[7.2.2.1$3,6!.0$2,8!]tetradec-10-en-7-one
_chemical_formula_moiety         'C13 H16 O5'
_chemical_name_systematic        
(1S,4R,5aS,6S,9R,9aS,10S,11R)-10,11-dihydroxy-6-methyl-1,2,5a,6,9,9a-hexahydro-1,4-epoxy-6,9-ethanobenzo[d]oxepin-5(4H)-one
_symmetry_cell_setting           orthorhombic
_symmetry_space_group_name_H-M   'P 21 21 21'
_symmetry_Int_Tables_number      19
_space_group_name_Hall           'P 2ac 2ab'
loop_
_symmetry_equiv_pos_site_id
_symmetry_equiv_pos_as_xyz
1 x,y,z
2 1/2-x,-y,1/2+z
3 -x,1/2+y,1/2-z
4 1/2+x,1/2-y,-z
_cell_length_a                   8.6721(3)
_cell_length_b                   11.5681(4)
_cell_length_c                   11.8115(5)
_cell_angle_alpha                90
_cell_angle_beta                 90
_cell_angle_gamma                90
_cell_volume                     1184.93
_exptl_crystal_colour            colorless
_exptl_crystal_description       block
_cell_formula_units_Z            4
_exptl_crystal_recrystallization_method methanol
loop_
_atom_site_label
_atom_site_type_symbol
_atom_site_fract_x
_atom_site_fract_y
_atom_site_fract_z
C1 C 0.6599(6) 0.5077(4) 0.6479(5)
H1 H 0.7437 0.5521 0.6131
C2 C 0.6710(8) 0.5140(5) 0.7752(6)
H2 H 0.7755 0.5318 0.7987
H3 H 0.6021 0.5727 0.8049
O1 O 0.6262(5) 0.4011(3) 0.8135(4)
C3 C 0.5913(6) 0.3385(4) 0.7124(5)
H4 H 0.6147 0.2562 0.7220
C4 C 0.4222(5) 0.3558(3) 0.6900(4)
C5 C 0.3704(4) 0.4743(3) 0.6478(3)
H5 H 0.3250 0.5160 0.7120
C6 C 0.2452(5) 0.4643(3) 0.5541(3)
C7 C 0.3210(6) 0.3936(4) 0.4631(4)
H6 H 0.2776 0.3257 0.4356
C8 C 0.4516(7) 0.4339(4) 0.4253(5)
H7 H 0.5119 0.3938 0.3734
C9 C 0.4979(5) 0.5502(3) 0.4719(4)
H8 H 0.5949 0.5771 0.4385
C10 C 0.5069(4) 0.5473(3) 0.6024(4)
H9 H 0.4913 0.6266 0.6290
C11 C 0.3643(5) 0.6307(3) 0.4421(3)
H10 H 0.3451 0.6245 0.3606
C12 C 0.2190(5) 0.5873(3) 0.5051(3)
H11 H 0.1322 0.5850 0.4520
O2 O 0.3985(3) 0.7477(2) 0.4671(3)
H12 H 0.3425 0.7702 0.5185
O3 O 0.1838(3) 0.6661(2) 0.5947(3)
H13 H 0.0993 0.6956 0.5832
C13 C 0.0909(5) 0.4163(4) 0.5955(5)
H14 H 0.0173 0.4185 0.5349
H15 H 0.0541 0.4623 0.6575
H16 H 0.1045 0.3378 0.6202
O4 O 0.3356(4) 0.2773(3) 0.7115(4)
O5 O 0.6807(4) 0.3858(3) 0.6263(4)
loop_
_geom_bond_atom_site_label_1
_geom_bond_atom_site_label_2
_geom_bond_site_symmetry_1
_geom_bond_site_symmetry_2
C1 H1 1_555 1_555
C2 C1 1_555 1_555
H2 C2 1_555 1_555
H3 C2 1_555 1_555
O1 C2 1_555 1_555
C3 O1 1_555 1_555
H4 C3 1_555 1_555
C4 C3 1_555 1_555
C5 C4 1_555 1_555
H5 C5 1_555 1_555
C6 C5 1_555 1_555
C7 C6 1_555 1_555
H6 C7 1_555 1_555
C8 C7 1_555 1_555
H7 C8 1_555 1_555
C9 C8 1_555 1_555
H8 C9 1_555 1_555
C10 C1 1_555 1_555
H9 C10 1_555 1_555
C11 C9 1_555 1_555
H10 C11 1_555 1_555
C12 C6 1_555 1_555
H11 C12 1_555 1_555
O2 C11 1_555 1_555
H12 O2 1_555 1_555
O3 C12 1_555 1_555
H13 O3 1_555 1_555
C13 C6 1_555 1_555
H14 C13 1_555 1_555
H15 C13 1_555 1_555
H16 C13 1_555 1_555
O4 C4 1_555 1_555
O5 C1 1_555 1_555
C3 O5 1_555 1_555
C5 C10 1_555 1_555
C9 C10 1_555 1_555
C11 C12 1_555 1_555

#END
