
#######################################################################
#
#                 Cambridge Crystallographic Data Centre
#                                CCDC 
#
#######################################################################
#
# If this CIF has been generated from an entry in the Cambridge 
# Structural Database, then it will include bibliographic, chemical, 
# crystal, experimental, refinement or atomic coordinate data resulting 
# from the CCDC's data processing and validation procedures.
#
#######################################################################

data_IVUYAB
_chemical_name_common            
1,12,12-trimethyl-5,11,13,17-tetraoxapentacyclo[7.5.2.1$3,6!.0$2,8!.0$10,14!]heptadec-15-en-7-one
_chemical_formula_moiety         'C16 H20 O5'
_chemical_name_systematic        
(3aR,4R,4aR,5S,8R,9aR,10S,10aS)-2,2,4-trimethyl-4,4a,5,6,8,9a,10,10a-octahydro-5,8-epoxy-4,10-etheno[1,3]dioxolo[4',5':4,5]benzo[1,2-d]oxepin-9(3aH)-one
_symmetry_cell_setting           orthorhombic
_symmetry_space_group_name_H-M   'P 21 21 21'
_symmetry_Int_Tables_number      19
_space_group_name_Hall           'P 2ac 2ab'
loop_
_symmetry_equiv_pos_site_id
_symmetry_equiv_pos_as_xyz
1 x,y,z
2 1/2-x,-y,1/2+z
3 -x,1/2+y,1/2-z
4 1/2+x,1/2-y,-z
_cell_length_a                   6.8087(8)
_cell_length_b                   13.9809(16)
_cell_length_c                   15.4093(19)
_cell_angle_alpha                90
_cell_angle_beta                 90
_cell_angle_gamma                90
_cell_volume                     1466.84
_exptl_crystal_colour            colorless
_exptl_crystal_description       block
_cell_formula_units_Z            4
_exptl_crystal_recrystallization_method methanol
loop_
_atom_site_label
_atom_site_type_symbol
_atom_site_fract_x
_atom_site_fract_y
_atom_site_fract_z
O1 O 0.5260(4) 0.76186(16) 0.20221(16)
C1 C 0.6900(6) 0.7248(2) 0.1554(2)
O2 O 0.7277(4) 0.63426(15) 0.19578(15)
C2 C 0.6895(4) 0.64685(18) 0.28630(18)
H1 H 0.8106 0.6641 0.3169
C3 C 0.5990(4) 0.55605(18) 0.32647(18)
C4 C 0.5527(4) 0.5894(2) 0.42112(18)
H2 H 0.6690 0.6243 0.4412
C5 C 0.5164(6) 0.5108(3) 0.4870(2)
H3 H 0.6139 0.4598 0.4804
C6 C 0.5147(8) 0.5478(4) 0.5808(3)
H4 H 0.5569 0.4985 0.6210
H5 H 0.5995 0.6031 0.5871
O3 O 0.3150(6) 0.5727(2) 0.59509(18)
C7 C 0.2096(6) 0.5437(3) 0.5206(3)
H6 H 0.0791 0.5197 0.5363
C8 C 0.1944(5) 0.6284(3) 0.4604(2)
C9 C 0.3824(4) 0.6632(2) 0.41881(18)
H7 H 0.4257 0.7199 0.4509
C10 C 0.3453(4) 0.6941(2) 0.3237(2)
H8 H 0.2446 0.7441 0.3204
C11 C 0.5423(4) 0.73013(19) 0.2896(2)
H9 H 0.5925 0.7816 0.3266
C12 C 0.2847(5) 0.6069(2) 0.2746(2)
H10 H 0.1673 0.6032 0.2439
C13 C 0.4115(5) 0.5355(2) 0.27837(19)
H11 H 0.3865 0.4764 0.2530
C14 C 0.8656(6) 0.7902(3) 0.1635(3)
H12 H 0.9768 0.7615 0.1354
H13 H 0.8950 0.8002 0.2237
H14 H 0.8368 0.8505 0.1365
C15 C 0.6275(8) 0.7074(3) 0.0628(3)
H15 H 0.6000 0.7675 0.0352
H16 H 0.5116 0.6683 0.0622
H17 H 0.7311 0.6754 0.0321
C16 C 0.7464(5) 0.4736(2) 0.3234(3)
H18 H 0.7910 0.4648 0.2649
H19 H 0.6843 0.4160 0.3434
H20 H 0.8564 0.4882 0.3601
O4 O 0.3211(5) 0.47256(18) 0.47982(19)
O5 O 0.0375(4) 0.6682(3) 0.44870(19)
loop_
_geom_bond_atom_site_label_1
_geom_bond_atom_site_label_2
_geom_bond_site_symmetry_1
_geom_bond_site_symmetry_2
O1 C1 1_555 1_555
C1 O2 1_555 1_555
O2 C2 1_555 1_555
C2 H1 1_555 1_555
C3 C2 1_555 1_555
C4 C3 1_555 1_555
H2 C4 1_555 1_555
C5 C4 1_555 1_555
H3 C5 1_555 1_555
C6 C5 1_555 1_555
H4 C6 1_555 1_555
H5 C6 1_555 1_555
O3 C6 1_555 1_555
C7 O3 1_555 1_555
H6 C7 1_555 1_555
C8 C7 1_555 1_555
C9 C4 1_555 1_555
H7 C9 1_555 1_555
C10 C9 1_555 1_555
H8 C10 1_555 1_555
C11 O1 1_555 1_555
H9 C11 1_555 1_555
C12 C10 1_555 1_555
H10 C12 1_555 1_555
C13 C3 1_555 1_555
H11 C13 1_555 1_555
C14 C1 1_555 1_555
H12 C14 1_555 1_555
H13 C14 1_555 1_555
H14 C14 1_555 1_555
C15 C1 1_555 1_555
H15 C15 1_555 1_555
H16 C15 1_555 1_555
H17 C15 1_555 1_555
C16 C3 1_555 1_555
H18 C16 1_555 1_555
H19 C16 1_555 1_555
H20 C16 1_555 1_555
O4 C5 1_555 1_555
O5 C8 1_555 1_555
C2 C11 1_555 1_555
C7 O4 1_555 1_555
C8 C9 1_555 1_555
C10 C11 1_555 1_555
C12 C13 1_555 1_555

#END
