
#######################################################################
#
#                 Cambridge Crystallographic Data Centre
#                                CCDC 
#
#######################################################################
#
# If this CIF has been generated from an entry in the Cambridge 
# Structural Database, then it will include bibliographic, chemical, 
# crystal, experimental, refinement or atomic coordinate data resulting 
# from the CCDC's data processing and validation procedures.
#
#######################################################################

data_IVUZUW02
_chemical_name_common            
"(S)-2'-Hydroxy-7,7'-dimethoxy-[1,1'-binaphthalen]-2-yl (1R,4S)-1,2,3,4-tetrahydro-1,4-epoxynaphthalene-1-carboxylate"
_chemical_formula_moiety         'C33 H26 O6'
_chemical_name_systematic        
"(S)-2'-hydroxy-7,7'-dimethoxy-1,1'-binaphthalen-2-yl (1R,8S)-11-oxatricyclo[6.2.1.0^2,7^]undeca-2,4,6-triene-1-carboxylate"
_symmetry_cell_setting           orthorhombic
_symmetry_space_group_name_H-M   'P 21 21 21'
_symmetry_Int_Tables_number      19
_space_group_name_Hall           'P 2ac 2ab'
loop_
_symmetry_equiv_pos_site_id
_symmetry_equiv_pos_as_xyz
1 x,y,z
2 1/2+x,1/2-y,-z
3 -x,1/2+y,1/2-z
4 1/2-x,-y,1/2+z
_cell_length_a                   7.802(4)
_cell_length_b                   18.178(8)
_cell_length_c                   18.164(19)
_cell_angle_alpha                90
_cell_angle_beta                 90
_cell_angle_gamma                90
_cell_volume                     2576.1
_exptl_crystal_colour            colorless
_exptl_crystal_description       prism
_cell_formula_units_Z            4
loop_
_atom_site_label
_atom_site_type_symbol
_atom_site_fract_x
_atom_site_fract_y
_atom_site_fract_z
O1 O -0.6340(3) -0.70426(12) -0.31983(11)
O2 O -0.8339(2) -0.62261(10) -0.35705(9)
O3 O -0.3187(3) -0.63727(12) -0.41929(14)
H1 H -0.3885(19) -0.6647(7) -0.439(2)
O4 O -0.3420(3) -0.60819(14) -0.69845(11)
C1 C -0.9130(4) -0.69706(15) -0.53919(17)
H2 H -0.9979(4) -0.72367(15) -0.56331(17)
C2 C -0.7177(4) -0.54458(16) -0.22376(17)
H3 H -0.8041(4) -0.51041(16) -0.24132(17)
H4 H -0.6109(4) -0.53566(16) -0.24954(17)
C3 C -0.6208(4) -0.48126(15) -0.41575(14)
O5 O -1.0084(3) -0.37446(11) -0.44702(13)
C4 C -0.5558(3) -0.55411(14) -0.42970(14)
C5 C -0.9420(3) -0.62258(16) -0.12813(15)
C6 C -0.4975(4) -0.60495(15) -0.58365(15)
H5 H -0.4143(4) -0.57607(15) -0.56103(15)
O6 O -0.6847(2) -0.66170(11) -0.17461(10)
C7 C -0.5129(4) -0.42842(16) -0.38092(15)
C8 C -0.6444(3) -0.62853(14) -0.54305(13)
C9 C -0.6676(3) -0.60929(14) -0.46722(14)
C10 C -0.6946(4) -0.53925(18) -0.13971(17)
H6 H -0.5761(4) -0.52990(18) -0.12653(17)
H7 H -0.7668(4) -0.50125(18) -0.11865(17)
C11 C -0.9284(3) -0.68339(15) -0.46592(16)
H8 H -1.0196(3) -0.70267(15) -0.43920(16)
C12 C -0.7374(3) -0.65779(15) -0.30614(15)
C13 C -0.4793(4) -0.62483(16) -0.65546(15)
C14 C -1.0838(4) -0.62013(17) -0.08309(17)
H9 H -1.0729(4) -0.61239(17) -0.03270(17)
C15 C -0.7476(4) -0.68843(18) -0.65462(16)
H10 H -0.8311(4) -0.71539(18) -0.67927(16)
C16 C -1.0774(5) -0.30347(19) -0.4339(2)
H11 H -1.009(2) -0.2673(2) -0.4591(13)
H12 H -1.1931(14) -0.3015(5) -0.4518(15)
H13 H -1.076(3) -0.2935(7) -0.3820(3)
C17 C -0.6068(4) -0.66607(18) -0.69137(17)
H14 H -0.5940(4) -0.67800(18) -0.74085(17)
C18 C -0.3911(4) -0.56960(16) -0.40878(16)
C19 C -0.9599(3) -0.63048(15) -0.20359(15)
C20 C -0.7882(4) -0.45963(15) -0.43553(14)
H15 H -0.8610(4) -0.49358(15) -0.45761(14)
C21 C -0.8047(3) -0.63986(14) -0.43158(14)
C22 C -0.7707(3) -0.67155(14) -0.57892(15)
C23 C -0.2836(4) -0.51699(19) -0.37533(17)
H16 H -0.1715(4) -0.52905(19) -0.36282(17)
C24 C -1.1180(3) -0.63947(16) -0.23581(16)
H17 H -1.1293(3) -0.64479(16) -0.28650(16)
C25 C -0.8453(4) -0.38970(16) -0.42286(15)
C26 C -0.5798(5) -0.35699(17) -0.36819(17)
H18 H -0.5109(5) -0.32236(17) -0.34484(17)
C27 C -1.2431(4) -0.62959(18) -0.11532(19)
H19 H -1.3406(4) -0.62864(18) -0.08589(19)
C28 C -0.7519(4) -0.61611(17) -0.11559(16)
H20 H -0.7139(4) -0.63039(17) -0.06618(16)
C29 C -1.2603(4) -0.64032(17) -0.18969(19)
H21 H -1.3686(4) -0.64827(17) -0.20955(19)
C30 C -0.7774(3) -0.62580(15) -0.23239(14)
C31 C -0.3451(5) -0.44887(19) -0.36161(17)
H22 H -0.2744(5) -0.41458(19) -0.33877(17)
C32 C -0.7405(5) -0.33732(17) -0.38879(18)
H23 H -0.7803(5) -0.28982(17) -0.38043(18)
C33 C -0.2001(4) -0.5728(2) -0.6648(2)
H24 H -0.1087(14) -0.5682(14) -0.6999(5)
H25 H -0.2339(11) -0.5249(6) -0.6481(14)
H26 H -0.162(2) -0.6015(8) -0.6236(10)
loop_
_geom_bond_atom_site_label_1
_geom_bond_atom_site_label_2
_geom_bond_site_symmetry_1
_geom_bond_site_symmetry_2
O1 C12 1_555 1_555
O2 C12 1_555 1_555
O3 H1 1_555 1_555
O4 C13 1_555 1_555
C1 H2 1_555 1_555
C2 H3 1_555 1_555
H4 C2 1_555 1_555
C3 C4 1_555 1_555
O5 C16 1_555 1_555
C4 C9 1_555 1_555
C5 C14 1_555 1_555
C6 H5 1_555 1_555
O6 C28 1_555 1_555
C7 C3 1_555 1_555
C8 C6 1_555 1_555
C9 C8 1_555 1_555
C10 C2 1_555 1_555
H6 C10 1_555 1_555
H7 C10 1_555 1_555
C11 C1 1_555 1_555
H8 C11 1_555 1_555
C12 C30 1_555 1_555
C13 C6 1_555 1_555
C14 H9 1_555 1_555
C15 H10 1_555 1_555
C16 H11 1_555 1_555
H12 C16 1_555 1_555
H13 C16 1_555 1_555
C17 C13 1_555 1_555
H14 C17 1_555 1_555
C18 O3 1_555 1_555
C19 C5 1_555 1_555
C20 C3 1_555 1_555
H15 C20 1_555 1_555
C21 O2 1_555 1_555
C22 C1 1_555 1_555
C23 C18 1_555 1_555
H16 C23 1_555 1_555
C24 C19 1_555 1_555
H17 C24 1_555 1_555
C25 O5 1_555 1_555
C26 C7 1_555 1_555
H18 C26 1_555 1_555
C27 C14 1_555 1_555
H19 C27 1_555 1_555
C28 C5 1_555 1_555
H20 C28 1_555 1_555
C29 C24 1_555 1_555
H21 C29 1_555 1_555
C30 C2 1_555 1_555
C31 C7 1_555 1_555
H22 C31 1_555 1_555
C32 C25 1_555 1_555
H23 C32 1_555 1_555
C33 O4 1_555 1_555
H24 C33 1_555 1_555
H25 C33 1_555 1_555
H26 C33 1_555 1_555
C4 C18 1_555 1_555
O6 C30 1_555 1_555
C8 C22 1_555 1_555
C9 C21 1_555 1_555
C10 C28 1_555 1_555
C11 C21 1_555 1_555
C15 C17 1_555 1_555
C15 C22 1_555 1_555
C19 C30 1_555 1_555
C20 C25 1_555 1_555
C23 C31 1_555 1_555
C26 C32 1_555 1_555
C27 C29 1_555 1_555

#END
