
#######################################################################
#
#                 Cambridge Crystallographic Data Centre
#                                CCDC 
#
#######################################################################
#
# If this CIF has been generated from an entry in the Cambridge 
# Structural Database, then it will include bibliographic, chemical, 
# crystal, experimental, refinement or atomic coordinate data resulting 
# from the CCDC's data processing and validation procedures.
#
#######################################################################

data_IVUZIK02
_chemical_name_common            
"(R)-2'-Hydroxy-[1,1'-binaphthalen]-2-yl (1R,4S)-1,2,3,4-tetrahydro-1,4-epoxynaphthalene-1-carboxylate"
_chemical_formula_moiety         'C31 H22 O4'
_chemical_name_systematic        
"(R)-2'-hydroxy-1,1'-binaphthalen-2-yl (1R,8S)-11-oxatricyclo[6.2.1.0^2,7^]undeca-2,4,6-triene-1-carboxylate"
_symmetry_cell_setting           monoclinic
_symmetry_space_group_name_H-M   'P 21'
_symmetry_Int_Tables_number      4
_space_group_name_Hall           'P 2yb'
loop_
_symmetry_equiv_pos_site_id
_symmetry_equiv_pos_as_xyz
1 x,y,z
2 -x,1/2+y,-z
_cell_length_a                   9.2960(4)
_cell_length_b                   12.3360(3)
_cell_length_c                   10.9040(5)
_cell_angle_alpha                90
_cell_angle_beta                 110.9920(19)
_cell_angle_gamma                90
_cell_volume                     1167.43
_exptl_crystal_colour            colorless
_exptl_crystal_description       Prism
_chemical_melting_point          '229-231 deg.C'
_cell_formula_units_Z            2
loop_
_atom_site_label
_atom_site_type_symbol
_atom_site_fract_x
_atom_site_fract_y
_atom_site_fract_z
O1 O 0.24113(14) 0.27558(12) 0.05366(12)
O2 O 0.26397(18) 0.39896(14) 0.35870(14)
C1 C 0.13730(19) 0.25245(15) -0.07339(18)
C2 C 0.05296(19) 0.27647(16) -0.30702(17)
C3 C 0.4064(2) 0.38880(17) -0.15723(16)
C4 C 0.2539(2) 0.40376(15) -0.15639(16)
C5 C 0.2078(3) 0.50594(17) -0.13576(19)
O3 O 0.0625(2) 0.52639(14) -0.1373(2)
H1 H 0.0233(16) 0.4697(5) -0.125(4)
C6 C 0.5073(2) 0.47955(19) -0.13502(19)
C7 C 0.14744(19) 0.31008(13) -0.17763(17)
C8 C 0.4632(2) 0.40193(17) 0.28259(18)
C9 C 0.0607(2) 0.3269(2) -0.42059(19)
H2 H 0.1257(2) 0.3860(2) -0.41215(19)
C10 C 0.1923(2) 0.33727(17) 0.13359(19)
C11 C 0.4549(3) 0.5807(2) -0.1114(2)
H3 H 0.5216(3) 0.6397(2) -0.0945(2)
C12 C 0.3616(3) 0.23020(18) 0.3366(2)
H4 H 0.2728(3) 0.18318(18) 0.3185(2)
H5 H 0.4392(3) 0.19397(18) 0.3111(2)
C13 C 0.3164(2) 0.34172(17) 0.26731(18)
O4 O 0.0703(2) 0.38009(18) 0.09954(19)
C14 C 0.5435(3) 0.4244(2) 0.2002(2)
C15 C 0.3084(3) 0.59601(19) -0.1124(2)
C16 C 0.5206(3) 0.43215(18) 0.4144(2)
C17 C 0.4615(2) 0.28609(18) -0.17681(19)
H6 H 0.3976(2) 0.22584(18) -0.18965(19)
C18 C 0.0362(2) 0.16473(18) -0.0882(2)
H7 H 0.0316(2) 0.12854(18) -0.0149(2)
C19 C 0.4065(3) 0.3884(2) 0.4702(2)
H8 H 0.4070(3) 0.4250(2) 0.5501(2)
C20 C -0.0485(2) 0.18689(17) -0.3228(2)
C21 C -0.0547(2) 0.13342(19) -0.2108(3)
H9 H -0.1223(2) 0.07563(19) -0.2210(3)
C22 C 0.6607(3) 0.4857(2) 0.4663(3)
H10 H 0.7017(3) 0.5037(2) 0.5549(3)
C23 C -0.1274(3) 0.2025(3) -0.5571(3)
H11 H -0.1863(3) 0.1780(3) -0.6407(3)
C24 C -0.1397(3) 0.1545(2) -0.4526(3)
H12 H -0.2098(3) 0.0981(2) -0.4645(3)
C25 C 0.6570(3) 0.4624(3) -0.1355(3)
H13 H 0.7240(3) 0.5210(3) -0.1221(3)
C26 C 0.6064(2) 0.2741(3) -0.1771(2)
H14 H 0.6398(2) 0.2061(3) -0.1924(2)
C27 C 0.4266(3) 0.2654(2) 0.4825(2)
H15 H 0.3679(3) 0.2343(2) 0.5316(2)
H16 H 0.5341(3) 0.2454(2) 0.5241(2)
C28 C -0.0264(3) 0.2900(3) -0.5428(2)
H17 H -0.0186(3) 0.3230(3) -0.6168(2)
C29 C 0.7370(3) 0.5115(3) 0.3837(3)
H18 H 0.8290(3) 0.5500(3) 0.4161(3)
C30 C 0.7056(3) 0.3623(3) -0.1550(3)
H19 H 0.8054(3) 0.3527(3) -0.1536(3)
C31 C 0.6795(3) 0.4814(3) 0.2525(3)
H20 H 0.7338(3) 0.5000(3) 0.1987(3)
loop_
_geom_bond_atom_site_label_1
_geom_bond_atom_site_label_2
_geom_bond_site_symmetry_1
_geom_bond_site_symmetry_2
O1 C1 1_555 1_555
O2 C13 1_555 1_555
C1 C7 1_555 1_555
C2 C7 1_555 1_555
C3 C4 1_555 1_555
C4 C5 1_555 1_555
C5 O3 1_555 1_555
O3 H1 1_555 1_555
C6 C3 1_555 1_555
C7 C4 1_555 1_555
C8 C13 1_555 1_555
C9 C2 1_555 1_555
H2 C9 1_555 1_555
C10 O1 1_555 1_555
C11 C6 1_555 1_555
H3 C11 1_555 1_555
C12 H4 1_555 1_555
H5 C12 1_555 1_555
C13 C10 1_555 1_555
O4 C10 1_555 1_555
C14 C8 1_555 1_555
C15 C5 1_555 1_555
C16 C8 1_555 1_555
C17 C3 1_555 1_555
H6 C17 1_555 1_555
C18 C1 1_555 1_555
H7 C18 1_555 1_555
C19 O2 1_555 1_555
H8 C19 1_555 1_555
C20 C2 1_555 1_555
C21 C18 1_555 1_555
H9 C21 1_555 1_555
C22 C16 1_555 1_555
H10 C22 1_555 1_555
C23 H11 1_555 1_555
C24 C20 1_555 1_555
H12 C24 1_555 1_555
C25 C6 1_555 1_555
H13 C25 1_555 1_555
C26 C17 1_555 1_555
H14 C26 1_555 1_555
C27 C12 1_555 1_555
H15 C27 1_555 1_555
H16 C27 1_555 1_555
C28 C9 1_555 1_555
H17 C28 1_555 1_555
C29 C22 1_555 1_555
H18 C29 1_555 1_555
C30 C25 1_555 1_555
H19 C30 1_555 1_555
C31 C14 1_555 1_555
H20 C31 1_555 1_555
C11 C15 1_555 1_555
C12 C13 1_555 1_555
C16 C19 1_555 1_555
C19 C27 1_555 1_555
C20 C21 1_555 1_555
C23 C24 1_555 1_555
C23 C28 1_555 1_555
C26 C30 1_555 1_555
C29 C31 1_555 1_555

#END
