
#######################################################################
#
#                 Cambridge Crystallographic Data Centre
#                                CCDC 
#
#######################################################################
#
# If this CIF has been generated from an entry in the Cambridge 
# Structural Database, then it will include bibliographic, chemical, 
# crystal, experimental, refinement or atomic coordinate data resulting 
# from the CCDC's data processing and validation procedures.
#
#######################################################################

data_IVUZOQ02
_chemical_name_common            
"(R)-7,7'-Diethoxy-2'-hydroxy-[1,1'-binaphthalen]-2-yl (1R,4S)-1,2,3,4-tetrahydro-1,4-epoxynaphthalene-1-carboxylate"
_chemical_formula_moiety         'C35 H30 O6'
_chemical_name_systematic        
"(R)-7,7'-diethoxy-2'-hydroxy-1,1'-binaphthalen-2-yl (1R,8S)-11-oxatricyclo[6.2.1.0^2,7^]undeca-2,4,6-triene-1-carboxylate"
_symmetry_cell_setting           monoclinic
_symmetry_space_group_name_H-M   'P 21'
_symmetry_Int_Tables_number      4
_space_group_name_Hall           'P 2yb'
loop_
_symmetry_equiv_pos_site_id
_symmetry_equiv_pos_as_xyz
1 x,y,z
2 -x,1/2+y,-z
_cell_length_a                   9.8950(6)
_cell_length_b                   14.6430(9)
_cell_length_c                   10.9280(5)
_cell_angle_alpha                90
_cell_angle_beta                 112.823(3)
_cell_angle_gamma                90
_cell_volume                     1459.42
_exptl_crystal_colour            colorless
_exptl_crystal_description       prism
_chemical_melting_point          '125-127 deg.C'
_cell_formula_units_Z            2
loop_
_atom_site_label
_atom_site_type_symbol
_atom_site_fract_x
_atom_site_fract_y
_atom_site_fract_z
C1 C 0.4639(2) 0.42153(17) -0.1393(2)
H1 H 0.4869(2) 0.48340(17) -0.1307(2)
C2 C 0.7429(2) 0.48515(18) -0.1357(2)
C3 C 0.5654(2) 0.35743(17) -0.1502(2)
C4 C 0.7119(2) 0.53988(17) -0.2519(2)
C5 C 0.3308(3) 0.39216(18) -0.1414(2)
C6 C 0.7045(2) 0.38601(17) -0.1478(2)
C7 C 0.5286(3) 0.26334(17) -0.1634(2)
O1 O 0.22472(19) 0.44897(14) -0.13331(19)
O2 O 0.81602(18) 0.47957(14) 0.10124(16)
C8 C 0.6433(3) 0.50216(17) -0.3807(2)
H2 H 0.6186(3) 0.44054(17) -0.3909(2)
O3 O 0.5442(2) 0.52673(15) -0.61876(19)
C9 C 0.8128(3) 0.67239(19) -0.1093(3)
H3 H 0.8389(3) 0.73379(19) -0.0997(3)
O4 O 0.9347(2) 0.34057(16) -0.1594(2)
H4 H 0.9610(19) 0.3908(12) -0.125(3)
C10 C 0.6298(3) 0.20005(19) -0.1773(3)
H5 H 0.6057(3) 0.13835(19) -0.1877(3)
C11 C 0.7478(3) 0.63423(18) -0.2384(3)
C12 C 0.8011(3) 0.52810(19) -0.0152(2)
C13 C 0.8377(3) 0.62066(19) 0.0007(3)
H6 H 0.8783(3) 0.64646(19) 0.0849(3)
C14 C 0.8006(3) 0.32040(19) -0.1592(3)
C15 C 0.3911(3) 0.2370(2) -0.1629(3)
H7 H 0.3662(3) 0.1754(2) -0.1700(3)
C16 C 0.6131(3) 0.55615(19) -0.4901(3)
C17 C 0.7611(3) 0.2277(2) -0.1758(3)
H8 H 0.8256(3) 0.1850(2) -0.1858(3)
C18 C 0.2494(3) 0.5448(2) -0.1333(3)
H9 H 0.3322(3) 0.5624(2) -0.0537(3)
H10 H 0.2703(3) 0.5618(2) -0.2100(3)
C19 C 0.6534(4) 0.6484(2) -0.4766(3)
H11 H 0.6350(4) 0.6838(2) -0.5521(3)
C20 C 0.2952(3) 0.2992(2) -0.1524(3)
H12 H 0.2054(3) 0.2803(2) -0.1525(3)
O5 O 1.0358(3) 0.4255(3) 0.1269(3)
C21 C 0.8404(4) 0.3332(2) 0.3046(3)
C22 C 0.9427(3) 0.4363(3) 0.1686(3)
C23 C 0.4842(4) 0.4369(2) -0.6415(3)
H13 H 0.5619(4) 0.3918(2) -0.6088(3)
H14 H 0.4183(4) 0.4284(2) -0.5960(3)
C24 C 0.9448(3) 0.4076(3) 0.3007(3)
O6 O 1.0843(3) 0.3708(3) 0.3827(3)
C25 C 0.9287(5) 0.4883(3) 0.3881(3)
H15 H 0.9784(5) 0.5428(3) 0.3769(3)
H16 H 0.8266(5) 0.5024(3) 0.3683(3)
C26 C 0.7190(3) 0.6867(2) -0.3550(3)
H17 H 0.7455(3) 0.7480(2) -0.3478(3)
C27 C 0.7053(5) 0.3027(3) 0.2181(4)
H18 H 0.6617(5) 0.3262(3) 0.1326(4)
C28 C 0.4022(4) 0.4266(3) -0.7894(3)
H19 H 0.373(2) 0.3640(4) -0.8098(4)
H20 H 0.3167(15) 0.4648(12) -0.8183(5)
H21 H 0.4646(10) 0.4443(16) -0.8341(3)
C29 C 0.1132(4) 0.5911(3) -0.1379(4)
H22 H 0.1284(10) 0.6560(3) -0.132(3)
H23 H 0.0337(7) 0.5767(14) -0.2200(12)
H24 H 0.0900(15) 0.5704(13) -0.0649(15)
C30 C 0.6370(7) 0.2360(3) 0.2627(6)
H25 H 0.5466(7) 0.2139(3) 0.2052(6)
C31 C 1.0451(7) 0.3512(5) 0.4961(5)
H26 H 1.1217(7) 0.3205(5) 0.5705(5)
C32 C 0.9060(7) 0.2976(4) 0.4323(4)
C33 C 1.0044(6) 0.4477(5) 0.5277(4)
H27 H 1.0909(6) 0.4824(5) 0.5805(4)
H28 H 0.9382(6) 0.4449(5) 0.5739(4)
C34 C 0.8324(12) 0.2311(5) 0.4741(8)
H29 H 0.8744(12) 0.2070(5) 0.5593(8)
C35 C 0.6976(13) 0.2017(4) 0.3880(11)
H30 H 0.6471(13) 0.1579(4) 0.4154(11)
loop_
_geom_bond_atom_site_label_1
_geom_bond_atom_site_label_2
_geom_bond_site_symmetry_1
_geom_bond_site_symmetry_2
C1 H1 1_555 1_555
C2 C4 1_555 1_555
C3 C1 1_555 1_555
C4 C8 1_555 1_555
C5 C1 1_555 1_555
C6 C2 1_555 1_555
C7 C3 1_555 1_555
O1 C5 1_555 1_555
O2 C12 1_555 1_555
C8 H2 1_555 1_555
O3 C16 1_555 1_555
C9 H3 1_555 1_555
O4 H4 1_555 1_555
C10 C7 1_555 1_555
H5 C10 1_555 1_555
C11 C4 1_555 1_555
C12 C2 1_555 1_555
C13 C9 1_555 1_555
H6 C13 1_555 1_555
C14 C6 1_555 1_555
C15 C7 1_555 1_555
H7 C15 1_555 1_555
C16 C8 1_555 1_555
C17 C10 1_555 1_555
H8 C17 1_555 1_555
C18 O1 1_555 1_555
H9 C18 1_555 1_555
H10 C18 1_555 1_555
C19 C16 1_555 1_555
H11 C19 1_555 1_555
C20 C5 1_555 1_555
H12 C20 1_555 1_555
O5 C22 1_555 1_555
C21 C24 1_555 1_555
C22 O2 1_555 1_555
C23 O3 1_555 1_555
H13 C23 1_555 1_555
H14 C23 1_555 1_555
C24 C22 1_555 1_555
O6 C24 1_555 1_555
C25 C24 1_555 1_555
H15 C25 1_555 1_555
H16 C25 1_555 1_555
C26 C11 1_555 1_555
H17 C26 1_555 1_555
C27 C21 1_555 1_555
H18 C27 1_555 1_555
C28 C23 1_555 1_555
H19 C28 1_555 1_555
H20 C28 1_555 1_555
H21 C28 1_555 1_555
C29 C18 1_555 1_555
H22 C29 1_555 1_555
H23 C29 1_555 1_555
H24 C29 1_555 1_555
C30 C27 1_555 1_555
H25 C30 1_555 1_555
C31 O6 1_555 1_555
H26 C31 1_555 1_555
C32 C21 1_555 1_555
C33 C25 1_555 1_555
H27 C33 1_555 1_555
H28 C33 1_555 1_555
C34 C32 1_555 1_555
H29 C34 1_555 1_555
C35 C30 1_555 1_555
H30 C35 1_555 1_555
C3 C6 1_555 1_555
C9 C11 1_555 1_555
O4 C14 1_555 1_555
C12 C13 1_555 1_555
C14 C17 1_555 1_555
C15 C20 1_555 1_555
C19 C26 1_555 1_555
C31 C32 1_555 1_555
C31 C33 1_555 1_555
C34 C35 1_555 1_555

#END
