
#######################################################################
#
#                 Cambridge Crystallographic Data Centre
#                                CCDC 
#
#######################################################################
#
# If this CIF has been generated from an entry in the Cambridge 
# Structural Database, then it will include bibliographic, chemical, 
# crystal, experimental, refinement or atomic coordinate data resulting 
# from the CCDC's data processing and validation procedures.
#
#######################################################################

data_IWADIV
_chemical_compound_source        'Physalis pubescens L.'
_chemical_name_common            'Physapubside A monohydrate'
_chemical_formula_moiety         'C40 H64 O16,H2 O1'
_chemical_name_systematic        
'(1S,3R,20S,22R,24S,25S)1,3,24,25-tetrahydroxy-witha-5-enolide monohydrate'
_symmetry_cell_setting           triclinic
_symmetry_space_group_name_H-M   'P 1'
_symmetry_Int_Tables_number      1
_space_group_name_Hall           'P 1'
loop_
_symmetry_equiv_pos_site_id
_symmetry_equiv_pos_as_xyz
1 x,y,z
_cell_length_a                   6.8580(2)
_cell_length_b                   11.1678(4)
_cell_length_c                   26.7116(8)
_cell_angle_alpha                89.405(3)
_cell_angle_beta                 89.537(2)
_cell_angle_gamma                86.193(3)
_cell_volume                     2041.13
_exptl_crystal_colour            colorless
_exptl_crystal_description       flaky
_cell_formula_units_Z            2
loop_
_atom_site_label
_atom_site_type_symbol
_atom_site_fract_x
_atom_site_fract_y
_atom_site_fract_z
O1 O 0.0489(2) 0.15252(14) 0.96683(6)
O2 O -0.1622(2) 0.32018(13) 0.91859(6)
O3 O -0.4662(2) 0.37492(14) 0.89006(6)
O4 O -0.1085(2) 0.03927(15) 1.05303(7)
H1 H -0.1998 0.0769 1.0391
O5 O 0.2950(2) 0.00362(13) 0.96198(6)
O6 O -0.5016(2) 0.56913(13) 0.95755(6)
H2 H -0.6092 0.5414 0.9592
O7 O 0.3838(2) -0.27323(14) 1.03692(6)
H3 H 0.4431 -0.3213 1.0184
O8 O -0.0220(2) -0.21461(14) 1.05237(6)
H4 H -0.1071 -0.1851 1.0711
O9 O 0.5152(2) -0.20472(15) 0.91443(6)
H5 H 0.5182 -0.2760 0.9223
O10 O -0.9097(3) 0.3371(2) 0.38960(7)
O11 O -0.3498(2) 0.27448(17) 0.73880(6)
H6 H -0.2749 0.2245 0.7526
O12 O -0.2031(2) 0.58037(14) 1.02827(6)
H7 H -0.1214 0.6292 1.0332
O13 O 0.1772(2) 0.47279(15) 0.99583(6)
H8 H 0.1926 0.4748 1.0262
C1 C -0.5934(4) 0.4682(3) 0.35259(10)
C2 C -0.5923(4) 0.4856(2) 0.81783(9)
H9 H -0.7185 0.4847 0.8344
H10 H -0.5334 0.5584 0.8276
O14 O -0.7343(3) 0.5671(2) 0.34330(7)
H11 H -0.7307 0.5862 0.3136
C3 C -0.6228(4) 0.4888(2) 0.76190(9)
C4 C 0.1584(3) 0.0671(2) 0.99511(9)
H12 H 0.2272 0.1054 1.0220
C5 C -0.6737(3) 0.3720(2) 0.73744(9)
C6 C -0.6583(4) 0.3587(3) 0.32353(10)
O15 O -0.6680(3) 0.3935(2) 0.27195(7)
H13 H -0.7428 0.3517 0.2573
C7 C -0.5424(3) 0.2662(2) 0.75868(9)
H14 H -0.5926 0.1913 0.7470
C8 C -0.6913(4) 0.2697(2) 0.65163(9)
H15 H -0.8240 0.2515 0.6601
H16 H -0.6050 0.2027 0.6630
C9 C -0.8618(4) 0.3285(3) 0.34137(10)
C10 C -0.3527(3) 0.47428(19) 0.96226(8)
H17 H -0.3955 0.4127 0.9855
C11 C 0.0153(3) -0.0181(2) 1.01650(9)
H18 H -0.0658 -0.0445 0.9892
C12 C -0.3027(3) 0.4190(2) 0.91159(8)
H19 H -0.2489 0.4790 0.8893
C13 C 0.1159(3) -0.1279(2) 1.04116(8)
H20 H 0.1751 -0.1038 1.0724
C14 C 0.0219(3) 0.35493(19) 0.93646(8)
H21 H 0.0781 0.4073 0.9113
C15 C -0.6419(4) 0.3824(2) 0.67998(9)
H22 H -0.4995 0.3821 0.6766
C16 C -0.5372(3) 0.2624(2) 0.81614(9)
H23 H -0.6674 0.2522 0.8293
H24 H -0.4521 0.1947 0.8273
O16 O -0.9742(3) 0.2854(2) 0.31295(7)
C17 C -0.7948(4) 0.3881(3) 0.57415(9)
C18 C -0.0055(3) 0.4245(2) 0.98537(8)
H25 H -0.0381 0.3691 1.0124
C19 C -0.6731(4) 0.2807(2) 0.59448(10)
H26 H -0.5371 0.2880 0.5854
H27 H -0.7151 0.2083 0.5793
C20 C -0.6144(7) 0.5898(3) 0.73592(11)
H28 H -0.6098 0.6588 0.7549
C21 C -0.6069(4) 0.4397(3) 0.40824(10)
H29 H -0.5187 0.3706 0.4159
H30 H -0.5646 0.5071 0.4270
C22 C -0.8879(4) 0.3481(3) 0.75064(10)
H31 H -0.9090 0.3576 0.7860
H32 H -0.9131 0.2678 0.7413
H33 H -0.9746 0.4042 0.7328
C23 C -0.8228(4) 0.3490(3) 0.47615(10)
H34 H -0.9602 0.3346 0.4825
C24 C -0.7544(4) 0.4276(3) 0.51923(10)
H35 H -0.6125 0.4305 0.5156
C25 C -0.1659(3) 0.5247(2) 0.98138(8)
H36 H -0.1242 0.5851 0.9574
C26 C -0.7158(15) 0.5083(10) 0.6563(4)
H37 H -0.8522 0.5211 0.6673
C27 C -0.8115(4) 0.4139(3) 0.42504(10)
H38 H -0.8891 0.4906 0.4274
C28 C -0.3899(4) 0.5029(3) 0.33797(11)
H39 H -0.3883 0.5261 0.3033
H40 H -0.2976 0.4356 0.3433
H41 H -0.3552 0.5689 0.3581
C29 C 0.2748(3) -0.18499(19) 1.00756(8)
H42 H 0.2159 -0.2232 0.9790
C30 C -0.4633(3) 0.3778(2) 0.83576(8)
H43 H -0.3291 0.3855 0.8239
C31 C -0.7082(5) 0.2272(3) 0.47522(11)
H44 H -0.5710 0.2384 0.4776
H45 H -0.7334 0.1874 0.4445
H46 H -0.7480 0.1791 0.5030
C32 C 0.5748(3) -0.1372(2) 0.95553(9)
H47 H 0.6437 -0.0699 0.9429
H48 H 0.6659 -0.1872 0.9755
C33 C -0.7247(6) 0.4995(3) 0.60092(11)
H49 H -0.5846 0.4893 0.5932
C34 C 0.1547(3) 0.2420(2) 0.94157(9)
H50 H 0.1967 0.2137 0.9087
H51 H 0.2698 0.2583 0.9606
C35 C 0.4083(3) -0.08954(19) 0.98898(8)
H52 H 0.4648 -0.0531 1.0183
C36 C -0.6111(12) 0.6093(6) 0.6799(2)
H53 H -0.4773 0.6084 0.6678
H54 H -0.6767 0.6863 0.6714
C37 C -0.8424(7) 0.5600(4) 0.51765(12)
H55 H -0.9836 0.5625 0.5150
H56 H -0.7906 0.6028 0.4893
C38 C -1.0126(5) 0.3731(6) 0.58167(13)
H57 H -1.0511 0.3081 0.5615
H58 H -1.0855 0.4458 0.5719
H59 H -1.0382 0.3559 0.6163
C39 C -0.7780(11) 0.6202(5) 0.5707(2)
H60 H -0.6662 0.6683 0.5664
H61 H -0.8851 0.6680 0.5861
C40 C -0.5227(5) 0.2459(3) 0.32920(13)
H62 H -0.3928 0.2630 0.3191
H63 H -0.5680 0.1837 0.3086
H64 H -0.5219 0.2198 0.3636
O17 O 0.8325(2) 0.65584(15) 0.23231(6)
O18 O 0.8807(3) 0.83604(17) 0.26607(6)
O19 O 1.0867(2) 0.73563(17) 0.41153(7)
H65 H 1.1408 0.6975 0.3887
O20 O 0.6604(3) 0.95760(16) 0.18950(7)
H66 H 0.7284 0.9975 0.2071
O21 O 1.5358(3) 0.30846(17) 0.07838(7)
H67 H 1.5667 0.2575 0.0574
O22 O 1.1210(2) 0.26941(16) 0.18805(6)
O23 O 0.5954(2) 0.57087(14) 0.11766(6)
H68 H 0.6538 0.5538 0.0915
O24 O 0.6271(2) 0.82626(14) 0.10250(5)
H69 H 0.5510 0.7950 0.0839
O25 O 1.4249(3) 0.07303(17) 0.10507(8)
H70 H 1.5017 0.0270 0.1204
O26 O 1.2356(2) 0.49328(14) 0.09433(6)
H71 H 1.3167 0.5431 0.0982
O27 O 0.8885(3) 1.04830(18) 0.76815(7)
O28 O 1.0197(2) 0.46659(16) 0.18250(6)
O29 O 0.9658(3) 0.9074(2) 0.88846(7)
H72 H 0.9664 0.8375 0.8982
O30 O 0.6807(3) 0.8474(2) 0.82072(7)
H73 H 0.6525 0.8311 0.8498
O31 O 0.9442(4) 1.1226(2) 0.84144(8)
C41 C 0.8770(3) 0.8085(2) 0.31889(9)
H74 H 0.8986 0.7216 0.3240
C42 C 0.6974(4) 0.8486(3) 0.39999(10)
C43 C 0.7466(4) 0.8395(2) 0.18583(9)
H75 H 0.8799 0.8421 0.1725
C44 C 1.3715(4) 0.1746(2) 0.13535(10)
H76 H 1.4739 0.1850 0.1600
C45 C 0.7148(4) 0.8620(4) 0.56182(10)
H77 H 0.8107 0.7930 0.5604
C46 C 1.0038(4) 0.9103(3) 0.83627(9)
C47 C 0.7522(3) 0.7767(2) 0.23650(9)
H78 H 0.6217 0.7792 0.2518
C48 C 1.0348(4) 0.9440(2) 0.56254(9)
H79 H 1.0989 0.8653 0.5689
H80 H 1.1148 1.0034 0.5767
C49 C 1.2748(3) 0.3950(2) 0.12814(8)
H81 H 1.3703 0.4168 0.1530
C50 C 0.8809(3) 0.8829(2) 0.47984(9)
H82 H 0.9407 0.8011 0.4832
C51 C 0.6258(3) 0.7685(2) 0.15051(8)
H83 H 0.4912 0.7686 0.1631
C52 C 1.1291(4) 0.9834(2) 0.68220(9)
H84 H 1.1743 1.0212 0.7117
H85 H 1.1689 1.0266 0.6530
H86 H 1.1840 0.9021 0.6809
C53 C 0.7148(3) 0.6398(2) 0.14833(8)
H87 H 0.8469 0.6392 0.1341
C54 C 0.8230(3) 0.4592(2) 0.20149(9)
H88 H 0.8259 0.4280 0.2355
H89 H 0.7525 0.4056 0.1810
C55 C 0.6819(4) 0.8832(4) 0.50580(10)
H90 H 0.6004 0.9569 0.4989
C56 C 0.9069(4) 0.9838(3) 0.68385(10)
H91 H 0.8555 1.0664 0.6773
C57 C 1.2234(4) 0.8935(3) 0.82647(12)
H92 H 1.2892 0.9512 0.8453
H93 H 1.2492 0.9047 0.7914
H94 H 1.2698 0.8139 0.8365
C58 C 1.0558(4) 0.8579(2) 0.39685(9)
H95 H 1.1651 0.9016 0.4089
C59 C 0.8826(4) 0.8154(3) 0.81196(9)
C60 C 0.9357(5) 0.6903(3) 0.83023(13)
H96 H 0.9258 0.6876 0.8661
H97 H 1.0672 0.6668 0.8201
H98 H 0.8480 0.6364 0.8162
C61 C 1.3538(3) 0.2836(2) 0.10037(9)
H99 H 1.2627 0.2674 0.0736
C62 C 1.0847(3) 0.3681(2) 0.15444(9)
H100 H 0.9860 0.3496 0.1299
C63 C 0.6840(4) 0.8523(3) 0.34330(10)
H101 H 0.6491 0.9339 0.3323
H102 H 0.5818 0.8023 0.3327
C64 C 0.9373(4) 1.0342(3) 0.81654(10)
C65 C 1.1781(4) 0.1597(2) 0.16224(10)
H103 H 1.0783 0.1442 0.1375
C66 C 0.8373(4) 0.9520(3) 0.58773(10)
C67 C 0.7230(3) 0.5839(2) 0.20020(8)
H104 H 0.5898 0.5807 0.2135
C68 C 0.8354(4) 0.9487(3) 0.73585(9)
H105 H 0.6925 0.9503 0.7349
C69 C 0.9089(4) 0.8271(3) 0.75507(10)
H106 H 1.0464 0.8135 0.7466
H107 H 0.8389 0.7659 0.7387
C70 C 0.8646(4) 0.9097(2) 0.42264(9)
C71 C 1.0470(4) 0.8707(3) 0.34008(9)
H108 H 1.0342 0.9552 0.3310
H109 H 1.1680 0.8364 0.3256
O32 O 0.9883(4) 0.0778(2) 0.23167(11)
H110 H 0.9724 0.1465 0.2422
C72 C 0.5503(7) 0.8060(6) 0.59799(18)
H111 H 0.4212 0.8435 0.5915
H112 H 0.5478 0.7200 0.5937
C73 C 0.8287(4) 0.9048(3) 0.64255(9)
H113 H 0.9265 0.8368 0.6421
C74 C 1.0180(5) 0.9650(3) 0.50585(10)
H114 H 0.9717 1.0478 0.4997
H115 H 1.1471 0.9532 0.4909
C75 C 0.8401(9) 1.0459(3) 0.41200(13)
H116 H 0.8028 1.0595 0.3777
H117 H 0.9615 1.0813 0.4180
H118 H 0.7407 1.0817 0.4337
C76 C 0.5532(9) 0.8198(7) 0.4826(3)
C77 C 1.1789(5) 0.0640(3) 0.20262(14)
H119 H 1.2879 0.0721 0.2250
H120 H 1.1933 -0.0149 0.1877
H121 H 0.4516 0.7459 0.4978
C78 C 0.6212(8) 0.8366(6) 0.6509(2)
H122 H 0.6443 0.7641 0.6709
H123 H 0.5244 0.8893 0.6679
C79 C 0.6891(8) 1.0557(5) 0.58756(19)
H124 H 0.6710 1.0853 0.5539
H125 H 0.7334 1.1183 0.6081
H126 H 0.5673 1.0305 0.6005
C80 C 0.5677(4) 0.7932(5) 0.42701(11)
H127 H 0.4557 0.7739 0.4103
O33 O 0.6259(2) 0.16294(15) 0.98618(7)
H128 H 0.5374 0.1283 0.9709
H129 H 0.7043 0.1911 0.9650
O34 O 0.2501(3) 0.6558(3) 0.24355(8)
H130 H 0.1479 0.6984 0.2353
H131 H 0.2302 0.5820 0.2403
H132? H -0.5061 0.3998 0.6729
H133? H -0.5535 0.6542 0.7491
H134? H -0.5875 0.5144 0.5944
H135? H -0.7521 0.6127 0.5021
H136? H -0.9648 0.5667 0.4996
C81? C -0.8748(11) 0.5901(6) 0.5740(2)
H137? H -1.0077 0.5774 0.5845
H138? H -0.8473 0.6724 0.5808
C82? C -0.7091(15) 0.5995(8) 0.6821(3)
H139? H -0.8196 0.6583 0.6835
H140? H -0.6139 0.6306 0.6591
C83? C -0.7791(16) 0.4848(10) 0.6600(4)
H141? H -0.9177 0.4737 0.6664
H142? H 0.7593 0.7787 0.5696
H143? H 0.6281 0.9666 0.5032
H144? H 0.8801 0.8211 0.6456
C84? C 0.6040(7) 0.9173(5) 0.64739(18)
H145? H 0.5610 0.9946 0.6613
H146? H 0.5578 0.8545 0.6689
H147? H 0.4256 0.8604 0.4884
H148? H 0.5530 0.7431 0.5000
H149? H 1.0752 0.0153 0.2071
C85? C 0.5255(7) 0.9054(6) 0.59309(18)
H150? H 0.4696 0.9819 0.5806
H151? H 0.4273 0.8469 0.5918
C86? C 0.5796(9) 0.7563(7) 0.4833(3)
C87? C 0.8005(8) 1.0998(4) 0.58208(18)
H152? H 0.7827 1.1211 0.5474
H153? H 0.9117 1.1374 0.5948
H154? H 0.6860 1.1265 0.6008
H155? H 0.4877 0.7395 0.4124
O35? O 1.3423(11) 0.0533(6) 0.2323(3)
H156? H 1.4398 0.0407 0.2147
O36? O 0.7814(11) 0.1537(10) 0.2353(3)
H157? H 0.8387 0.1477 0.2634
H158? H 0.8614 0.1750 0.2129
H159? H 0.6639 0.6842 0.4887
loop_
_geom_bond_atom_site_label_1
_geom_bond_atom_site_label_2
_geom_bond_site_symmetry_1
_geom_bond_site_symmetry_2
O1 C4 1_555 1_555
O2 C12 1_555 1_555
O3 C12 1_555 1_555
O4 H1 1_555 1_555
O5 C4 1_555 1_555
O6 H2 1_555 1_555
O7 H3 1_555 1_555
O8 H4 1_555 1_555
O9 H5 1_555 1_555
O10 C9 1_555 1_555
O11 H6 1_555 1_555
O12 H7 1_555 1_555
O13 H8 1_555 1_555
C1 O14 1_555 1_555
C2 H9 1_555 1_555
H10 C2 1_555 1_555
O14 H11 1_555 1_555
C3 C2 1_555 1_555
C4 H12 1_555 1_555
C5 C3 1_555 1_555
C6 C1 1_555 1_555
O15 C6 1_555 1_555
H13 O15 1_555 1_555
C7 O11 1_555 1_555
H14 C7 1_555 1_555
C8 H15 1_555 1_555
H16 C8 1_555 1_555
C9 C6 1_555 1_555
C10 O6 1_555 1_555
H17 C10 1_555 1_555
C11 O4 1_555 1_555
H18 C11 1_555 1_555
C12 C10 1_555 1_555
H19 C12 1_555 1_555
C13 O8 1_555 1_555
H20 C13 1_555 1_555
C14 O2 1_555 1_555
H21 C14 1_555 1_555
C15 C5 1_555 1_555
H22 C15 1_555 1_555
C16 C7 1_555 1_555
H23 C16 1_555 1_555
H24 C16 1_555 1_555
O16 C9 1_555 1_555
C17 C19 1_555 1_555
C18 O13 1_555 1_555
H25 C18 1_555 1_555
C19 C8 1_555 1_555
H26 C19 1_555 1_555
H27 C19 1_555 1_555
C20 C3 1_555 1_555
H28 C20 1_555 1_555
C21 C1 1_555 1_555
H29 C21 1_555 1_555
H30 C21 1_555 1_555
C22 C5 1_555 1_555
H31 C22 1_555 1_555
H32 C22 1_555 1_555
H33 C22 1_555 1_555
C23 H34 1_555 1_555
C24 C17 1_555 1_555
H35 C24 1_555 1_555
C25 O12 1_555 1_555
H36 C25 1_555 1_555
C26 C15 1_555 1_555
H37 C26 1_555 1_555
C27 O10 1_555 1_555
H38 C27 1_555 1_555
C28 C1 1_555 1_555
H39 C28 1_555 1_555
H40 C28 1_555 1_555
H41 C28 1_555 1_555
C29 O7 1_555 1_555
H42 C29 1_555 1_555
C30 O3 1_555 1_555
H43 C30 1_555 1_555
C31 C23 1_555 1_555
H44 C31 1_555 1_555
H45 C31 1_555 1_555
H46 C31 1_555 1_555
C32 O9 1_555 1_555
H47 C32 1_555 1_555
H48 C32 1_555 1_555
C33 C17 1_555 1_555
H49 C33 1_555 1_555
C34 O1 1_555 1_555
H50 C34 1_555 1_555
H51 C34 1_555 1_555
C35 O5 1_555 1_555
H52 C35 1_555 1_555
C36 C20 1_555 1_555
H53 C36 1_555 1_555
H54 C36 1_555 1_555
C37 C24 1_555 1_555
H55 C37 1_555 1_555
H56 C37 1_555 1_555
C38 C17 1_555 1_555
H57 C38 1_555 1_555
H58 C38 1_555 1_555
H59 C38 1_555 1_555
C39 C33 1_555 1_555
H60 C39 1_555 1_555
H61 C39 1_555 1_555
C40 C6 1_555 1_555
H62 C40 1_555 1_555
H63 C40 1_555 1_555
H64 C40 1_555 1_555
O17 C47 1_555 1_555
O18 C41 1_555 1_555
O19 H65 1_555 1_555
O20 H66 1_555 1_555
O21 H67 1_555 1_555
O22 C62 1_555 1_555
O23 H68 1_555 1_555
O24 H69 1_555 1_555
O25 H70 1_555 1_555
O26 H71 1_555 1_555
O27 C64 1_555 1_555
O28 C54 1_555 1_555
O29 H72 1_555 1_555
O30 H73 1_555 1_555
O31 C64 1_555 1_555
C41 H74 1_555 1_555
C42 C63 1_555 1_555
C43 O20 1_555 1_555
H75 C43 1_555 1_555
C44 O25 1_555 1_555
H76 C44 1_555 1_555
C45 H77 1_555 1_555
C46 O29 1_555 1_555
C47 O18 1_555 1_555
H78 C47 1_555 1_555
C48 H79 1_555 1_555
H80 C48 1_555 1_555
C49 O26 1_555 1_555
H81 C49 1_555 1_555
C50 H82 1_555 1_555
C51 O24 1_555 1_555
H83 C51 1_555 1_555
C52 H84 1_555 1_555
H85 C52 1_555 1_555
H86 C52 1_555 1_555
C53 O23 1_555 1_555
H87 C53 1_555 1_555
C54 H88 1_555 1_555
H89 C54 1_555 1_555
C55 C45 1_555 1_555
H90 C55 1_555 1_555
C56 C52 1_555 1_555
H91 C56 1_555 1_555
C57 C46 1_555 1_555
H92 C57 1_555 1_555
H93 C57 1_555 1_555
H94 C57 1_555 1_555
C58 O19 1_555 1_555
H95 C58 1_555 1_555
C59 O30 1_555 1_555
C60 C59 1_555 1_555
H96 C60 1_555 1_555
H97 C60 1_555 1_555
H98 C60 1_555 1_555
C61 O21 1_555 1_555
H99 C61 1_555 1_555
C62 O28 1_555 1_555
H100 C62 1_555 1_555
C63 C41 1_555 1_555
H101 C63 1_555 1_555
H102 C63 1_555 1_555
C64 C46 1_555 1_555
C65 O22 1_555 1_555
H103 C65 1_555 1_555
C66 C45 1_555 1_555
C67 O17 1_555 1_555
H104 C67 1_555 1_555
C68 O27 1_555 1_555
H105 C68 1_555 1_555
C69 C59 1_555 1_555
H106 C69 1_555 1_555
H107 C69 1_555 1_555
C70 C42 1_555 1_555
C71 C41 1_555 1_555
H108 C71 1_555 1_555
H109 C71 1_555 1_555
O32 H110 1_555 1_555
C72 C45 1_555 1_555
H111 C72 1_555 1_555
H112 C72 1_555 1_555
C73 C56 1_555 1_555
H113 C73 1_555 1_555
C74 C48 1_555 1_555
H114 C74 1_555 1_555
H115 C74 1_555 1_555
C75 C70 1_555 1_555
H116 C75 1_555 1_555
H117 C75 1_555 1_555
H118 C75 1_555 1_555
C76 C55 1_555 1_555
C77 C65 1_555 1_555
H119 C77 1_555 1_555
H120 C77 1_555 1_555
H121 C76 1_555 1_555
C78 C72 1_555 1_555
H122 C78 1_555 1_555
H123 C78 1_555 1_555
C79 C66 1_555 1_555
H124 C79 1_555 1_555
H125 C79 1_555 1_555
H126 C79 1_555 1_555
C80 C42 1_555 1_555
H127 C80 1_555 1_555
O33 H128 1_555 1_555
H129 O33 1_555 1_555
O34 H130 1_555 1_555
H131 O34 1_555 1_555
C2 C30 1_555 1_555
C4 C11 1_555 1_555
C5 C7 1_555 1_555
C8 C15 1_555 1_555
C10 C25 1_555 1_555
C11 C13 1_555 1_555
C13 C29 1_555 1_555
C14 C18 1_555 1_555
C14 C34 1_555 1_555
C16 C30 1_555 1_555
C18 C25 1_555 1_555
C21 C27 1_555 1_555
C23 C24 1_555 1_555
C23 C27 1_555 1_555
C26 C33 1_555 1_555
C26 C36 1_555 1_555
C29 C35 1_555 1_555
C32 C35 1_555 1_555
C37 C39 1_555 1_555
C43 C47 1_555 1_555
C43 C51 1_555 1_555
C44 C61 1_555 1_555
C44 C65 1_555 1_555
C46 C59 1_555 1_555
C48 C66 1_555 1_555
C49 C61 1_555 1_555
C49 C62 1_555 1_555
C50 C55 1_555 1_555
C50 C70 1_555 1_555
C50 C74 1_555 1_555
C51 C53 1_555 1_555
C53 C67 1_555 1_555
C54 C67 1_555 1_555
C56 C68 1_555 1_555
C58 C70 1_555 1_555
C58 C71 1_555 1_555
C66 C73 1_555 1_555
C68 C69 1_555 1_555
O32 C77 1_555 1_555
C73 C78 1_555 1_555
C76 C80 1_555 1_555

#END
