
#######################################################################
#
#                 Cambridge Crystallographic Data Centre
#                                CCDC 
#
#######################################################################
#
# If this CIF has been generated from an entry in the Cambridge 
# Structural Database, then it will include bibliographic, chemical, 
# crystal, experimental, refinement or atomic coordinate data resulting 
# from the CCDC's data processing and validation procedures.
#
#######################################################################

data_IWAHUL
_chemical_formula_moiety         'C15 H10 N4 O1'
_chemical_name_systematic        
2-([1,2,4]triazolo[4,3-a]quinoxalin-1-yl)phenol
_symmetry_cell_setting           orthorhombic
_symmetry_space_group_name_H-M   'P b c a'
_symmetry_Int_Tables_number      61
_space_group_name_Hall           '-P 2ac 2ab'
loop_
_symmetry_equiv_pos_site_id
_symmetry_equiv_pos_as_xyz
1 x,y,z
2 1/2-x,-y,1/2+z
3 -x,1/2+y,1/2-z
4 1/2+x,1/2-y,-z
5 -x,-y,-z
6 1/2+x,y,1/2-z
7 x,1/2-y,1/2+z
8 1/2-x,1/2+y,z
_cell_length_a                   10.7559(5)
_cell_length_b                   19.5980(8)
_cell_length_c                   11.3450(5)
_cell_angle_alpha                90
_cell_angle_beta                 90
_cell_angle_gamma                90
_cell_volume                     2391.46
_exptl_crystal_colour            yellow
_exptl_crystal_description       Blade
_cell_formula_units_Z            8
loop_
_atom_site_label
_atom_site_type_symbol
_atom_site_fract_x
_atom_site_fract_y
_atom_site_fract_z
N1 N 0.03070(17) 0.64486(9) 0.67591(15)
O1 O 0.18600(16) 0.72113(9) 0.48909(13)
H1 H 0.255(3) 0.7446(13) 0.452(2)
N2 N -0.12675(19) 0.70699(9) 0.61624(16)
N3 N -0.13018(19) 0.70626(9) 0.73802(16)
C1 C -0.0355(2) 0.66898(12) 0.77134(19)
C2 C -0.0313(2) 0.67030(12) 0.57938(19)
N4 N 0.09908(19) 0.61334(10) 0.90901(17)
C3 C 0.0001(2) 0.66179(12) 0.45312(18)
C4 C 0.2985(2) 0.52804(12) 0.6275(2)
H2 H 0.3439 0.5072 0.5654
C5 C 0.1322(2) 0.60028(11) 0.69318(18)
C6 C 0.2651(2) 0.54413(12) 0.8341(2)
H3 H 0.2882 0.5351 0.9134
C7 C -0.0839(2) 0.63048(12) 0.3764(2)
H4 H -0.1596 0.6123 0.4061
C8 C 0.1634(2) 0.58665(12) 0.81166(18)
C9 C 0.1999(2) 0.57069(12) 0.60171(19)
H5 H 0.1783 0.5798 0.5220
C10 C 0.1097(2) 0.69072(12) 0.40931(19)
C11 C 0.0045(2) 0.65206(12) 0.88831(19)
H6 H -0.0405 0.6701 0.9533
C12 C 0.1355(2) 0.68687(12) 0.28837(19)
H7 H 0.2093 0.7066 0.2575
C13 C -0.0573(2) 0.62585(12) 0.2571(2)
H8 H -0.1135 0.6037 0.2050
C14 C 0.3319(2) 0.51534(12) 0.7446(2)
H9 H 0.4009 0.4868 0.7619
C15 C 0.0524(2) 0.65402(12) 0.2144(2)
H10 H 0.0708 0.6507 0.1327
loop_
_geom_bond_atom_site_label_1
_geom_bond_atom_site_label_2
_geom_bond_site_symmetry_1
_geom_bond_site_symmetry_2
N1 C1 1_555 1_555
O1 H1 1_555 1_555
N2 N3 1_555 1_555
N3 C1 1_555 1_555
C1 C11 1_555 1_555
C2 N1 1_555 1_555
N4 C8 1_555 1_555
C3 C2 1_555 1_555
C4 H2 1_555 1_555
C5 N1 1_555 1_555
C6 H3 1_555 1_555
C7 C3 1_555 1_555
H4 C7 1_555 1_555
C8 C5 1_555 1_555
C9 C4 1_555 1_555
H5 C9 1_555 1_555
C10 O1 1_555 1_555
C11 N4 1_555 1_555
H6 C11 1_555 1_555
C12 C10 1_555 1_555
H7 C12 1_555 1_555
C13 C7 1_555 1_555
H8 C13 1_555 1_555
C14 C4 1_555 1_555
H9 C14 1_555 1_555
C15 C12 1_555 1_555
H10 C15 1_555 1_555
N2 C2 1_555 1_555
C3 C10 1_555 1_555
C5 C9 1_555 1_555
C6 C8 1_555 1_555
C6 C14 1_555 1_555
C13 C15 1_555 1_555

#END
