
#######################################################################
#
#                 Cambridge Crystallographic Data Centre
#                                CCDC 
#
#######################################################################
#
# If this CIF has been generated from an entry in the Cambridge 
# Structural Database, then it will include bibliographic, chemical, 
# crystal, experimental, refinement or atomic coordinate data resulting 
# from the CCDC's data processing and validation procedures.
#
#######################################################################

data_IWAJAT
_chemical_formula_moiety         'C15 H9 Cl1 N4'
_chemical_name_systematic        
1-(3-chlorophenyl)[1,2,4]triazolo[4,3-a]quinoxaline
_symmetry_cell_setting           monoclinic
_symmetry_space_group_name_H-M   'P 21/c'
_symmetry_Int_Tables_number      14
_space_group_name_Hall           '-P 2ybc'
loop_
_symmetry_equiv_pos_site_id
_symmetry_equiv_pos_as_xyz
1 x,y,z
2 -x,1/2+y,1/2-z
3 -x,-y,-z
4 x,1/2-y,1/2+z
_cell_length_a                   10.9583(8)
_cell_length_b                   16.3371(11)
_cell_length_c                   7.6390(5)
_cell_angle_alpha                90
_cell_angle_beta                 109.003(2)
_cell_angle_gamma                90
_cell_volume                     1293.05
_exptl_crystal_colour            colorless
_exptl_crystal_description       Plate
_cell_formula_units_Z            4
loop_
_atom_site_label
_atom_site_type_symbol
_atom_site_fract_x
_atom_site_fract_y
_atom_site_fract_z
Cl1 Cl 0.55882(5) 0.89456(4) 1.14443(6)
N1 N 0.05225(12) 0.85001(10) 0.59804(17)
N2 N -0.00366(14) 0.73636(11) 0.42836(19)
N3 N 0.12794(14) 0.74695(10) 0.4767(2)
N4 N -0.20603(14) 0.87971(11) 0.5726(2)
C1 C -0.04686(16) 0.79776(12) 0.5034(2)
C2 C -0.17642(16) 0.81504(13) 0.4974(2)
H1 H -0.2430 0.7777 0.4358
C3 C -0.14302(18) 1.00713(13) 0.7286(2)
H2 H -0.2305 1.0153 0.7206
C4 C -0.10748(16) 0.93490(12) 0.6591(2)
C5 C -0.05273(18) 1.06650(13) 0.8084(2)
H3 H -0.0778 1.1150 0.8564
C6 C 0.07621(18) 1.05519(13) 0.8184(2)
H4 H 0.1380 1.0965 0.8722
C7 C 0.11459(17) 0.98468(12) 0.7511(2)
H5 H 0.2020 0.9778 0.7572
C8 C 0.02360(16) 0.92356(12) 0.6737(2)
C9 C 0.16075(16) 0.81413(12) 0.5786(2)
C10 C 0.29655(16) 0.84048(12) 0.6547(2)
C11 C 0.35489(17) 0.85556(13) 0.8443(2)
H6 H 0.3063 0.8525 0.9269
C12 C 0.48510(18) 0.87503(14) 0.9085(2)
C13 C 0.55907(18) 0.87963(15) 0.7919(3)
H7 H 0.6479 0.8938 0.8390
C14 C 0.50007(18) 0.86307(15) 0.6039(3)
H8 H 0.5496 0.8646 0.5225
C15 C 0.36979(17) 0.84444(13) 0.5353(2)
H9 H 0.3300 0.8343 0.4068
loop_
_geom_bond_atom_site_label_1
_geom_bond_atom_site_label_2
_geom_bond_site_symmetry_1
_geom_bond_site_symmetry_2
Cl1 C12 1_555 1_555
N1 C1 1_555 1_555
N2 N3 1_555 1_555
N3 C9 1_555 1_555
N4 C2 1_555 1_555
C1 N2 1_555 1_555
C2 C1 1_555 1_555
H1 C2 1_555 1_555
C3 H2 1_555 1_555
C4 N4 1_555 1_555
C5 C3 1_555 1_555
H3 C5 1_555 1_555
C6 C5 1_555 1_555
H4 C6 1_555 1_555
C7 C6 1_555 1_555
H5 C7 1_555 1_555
C8 N1 1_555 1_555
C9 N1 1_555 1_555
C10 C9 1_555 1_555
C11 C10 1_555 1_555
H6 C11 1_555 1_555
C12 C11 1_555 1_555
C13 C12 1_555 1_555
H7 C13 1_555 1_555
C14 C13 1_555 1_555
H8 C14 1_555 1_555
C15 C10 1_555 1_555
H9 C15 1_555 1_555
C3 C4 1_555 1_555
C4 C8 1_555 1_555
C7 C8 1_555 1_555
C14 C15 1_555 1_555

#END
