
#######################################################################
#
#                 Cambridge Crystallographic Data Centre
#                                CCDC 
#
#######################################################################
#
# If this CIF has been generated from an entry in the Cambridge 
# Structural Database, then it will include bibliographic, chemical, 
# crystal, experimental, refinement or atomic coordinate data resulting 
# from the CCDC's data processing and validation procedures.
#
#######################################################################

data_IWAJIB
_chemical_formula_moiety         'C17 H14 N4 O2'
_chemical_name_systematic        
1-(3,4-dimethoxyphenyl)[1,2,4]triazolo[4,3-a]quinoxaline
_symmetry_cell_setting           orthorhombic
_symmetry_space_group_name_H-M   'P b c a'
_symmetry_Int_Tables_number      61
_space_group_name_Hall           '-P 2ac 2ab'
loop_
_symmetry_equiv_pos_site_id
_symmetry_equiv_pos_as_xyz
1 x,y,z
2 1/2-x,-y,1/2+z
3 1/2+x,1/2-y,-z
4 -x,1/2+y,1/2-z
5 -x,-y,-z
6 1/2+x,y,1/2-z
7 1/2-x,1/2+y,z
8 x,1/2-y,1/2+z
_cell_length_a                   21.887(4)
_cell_length_b                   18.685(3)
_cell_length_c                   6.9340(12)
_cell_angle_alpha                90
_cell_angle_beta                 90
_cell_angle_gamma                90
_cell_volume                     2835.72
_exptl_crystal_colour            colorless
_exptl_crystal_description       Block
_cell_formula_units_Z            8
loop_
_atom_site_label
_atom_site_type_symbol
_atom_site_fract_x
_atom_site_fract_y
_atom_site_fract_z
O1 O 0.79797(5) 0.33193(6) 0.57974(17)
O2 O 0.76329(5) 0.41010(6) 0.86831(18)
N1 N 0.51302(6) 0.41668(7) 0.75583(18)
N2 N 0.45321(6) 0.32262(7) 0.8100(2)
N3 N 0.51137(6) 0.29907(7) 0.76789(19)
N4 N 0.41797(6) 0.51316(7) 0.83694(19)
C1 C 0.73646(8) 0.33502(8) 0.6085(2)
C2 C 0.69307(8) 0.29918(8) 0.4994(2)
H1 H 0.7057 0.2697 0.3950
C3 C 0.81971(9) 0.28463(10) 0.4317(3)
H2 H 0.8034 0.2365 0.4536
H3 H 0.8645 0.2830 0.4349
H4 H 0.8061 0.3021 0.3054
C4 C 0.74446(9) 0.45488(11) 1.0250(3)
H5 H 0.7175 0.4927 0.9764
H6 H 0.7805 0.4765 1.0853
H7 H 0.7225 0.4261 1.1206
C5 C 0.71729(7) 0.37778(9) 0.7659(2)
C6 C 0.63121(8) 0.30604(8) 0.5419(2)
H8 H 0.6018 0.2811 0.4668
C7 C 0.61236(8) 0.34897(8) 0.6928(2)
C8 C 0.45532(7) 0.39326(9) 0.8036(2)
C9 C 0.65602(8) 0.38400(8) 0.8077(2)
H9 H 0.6432 0.4121 0.9145
C10 C 0.48533(8) 0.61079(9) 0.7567(2)
H10 H 0.4537 0.6431 0.7918
C11 C 0.58573(8) 0.59028(9) 0.6320(2)
H11 H 0.6227 0.6087 0.5801
C12 C 0.53955(8) 0.63721(9) 0.6875(2)
H12 H 0.5456 0.6874 0.6775
C13 C 0.52419(7) 0.49037(8) 0.7278(2)
C14 C 0.54679(7) 0.35497(8) 0.7369(2)
C15 C 0.47577(7) 0.53666(9) 0.7767(2)
C16 C 0.40853(8) 0.44472(9) 0.8443(2)
H13 H 0.3690 0.4280 0.8780
C17 C 0.57833(7) 0.51706(8) 0.6515(2)
H14 H 0.6100 0.4853 0.6130
loop_
_geom_bond_atom_site_label_1
_geom_bond_atom_site_label_2
_geom_bond_site_symmetry_1
_geom_bond_site_symmetry_2
O1 C1 1_555 1_555
O2 C4 1_555 1_555
N1 C8 1_555 1_555
N2 N3 1_555 1_555
N3 C14 1_555 1_555
N4 C15 1_555 1_555
C1 C2 1_555 1_555
C2 H1 1_555 1_555
C3 O1 1_555 1_555
H2 C3 1_555 1_555
H3 C3 1_555 1_555
H4 C3 1_555 1_555
C4 H5 1_555 1_555
H6 C4 1_555 1_555
H7 C4 1_555 1_555
C5 O2 1_555 1_555
C6 C2 1_555 1_555
H8 C6 1_555 1_555
C7 C6 1_555 1_555
C8 N2 1_555 1_555
C9 C5 1_555 1_555
H9 C9 1_555 1_555
C10 H10 1_555 1_555
C11 H11 1_555 1_555
C12 C10 1_555 1_555
H12 C12 1_555 1_555
C13 N1 1_555 1_555
C14 N1 1_555 1_555
C15 C10 1_555 1_555
C16 N4 1_555 1_555
H13 C16 1_555 1_555
C17 C11 1_555 1_555
H14 C17 1_555 1_555
C1 C5 1_555 1_555
C7 C9 1_555 1_555
C7 C14 1_555 1_555
C8 C16 1_555 1_555
C11 C12 1_555 1_555
C13 C15 1_555 1_555
C13 C17 1_555 1_555

#END
