
#######################################################################
#
#                 Cambridge Crystallographic Data Centre
#                                CCDC 
#
#######################################################################
#
# If this CIF has been generated from an entry in the Cambridge 
# Structural Database, then it will include bibliographic, chemical, 
# crystal, experimental, refinement or atomic coordinate data resulting 
# from the CCDC's data processing and validation procedures.
#
#######################################################################

data_IWALOJ
_chemical_formula_moiety         'C26 H29 N3 O3'
_chemical_name_systematic        
1-(9H-carbazol-4-yloxy)-3-(4-(4-methoxyphenyl)piperazin-1-yl)propan-2-ol
_chemical_properties_biological  
'exhibited enhanced antagonistic effect on  1D subtype (pA2 7.06) and excellent selectivity for  1D over  1B ( 1D/ 1B ratio = 79.4)'
_symmetry_cell_setting           monoclinic
_symmetry_space_group_name_H-M   'C c'
_symmetry_Int_Tables_number      9
_space_group_name_Hall           'C -2yc'
loop_
_symmetry_equiv_pos_site_id
_symmetry_equiv_pos_as_xyz
1 x,y,z
2 x,-y,1/2+z
3 1/2+x,1/2+y,z
4 1/2+x,1/2-y,1/2+z
_cell_length_a                   17.519(4)
_cell_length_b                   33.882(7)
_cell_length_c                   12.440(3)
_cell_angle_alpha                90
_cell_angle_beta                 104.47(3)
_cell_angle_gamma                90
_cell_volume                     7149.89
_exptl_crystal_colour            colorless
_cell_formula_units_Z            12
_exptl_crystal_recrystallization_method dichloromethane/Hexane
loop_
_atom_site_label
_atom_site_type_symbol
_atom_site_fract_x
_atom_site_fract_y
_atom_site_fract_z
O1 O 0.3688(3) -0.04928(12) 0.3755(3)
O2 O 0.6140(3) 0.27482(11) 0.1702(4)
N1 N 0.4806(3) 0.13540(13) 0.2843(4)
N2 N 0.4541(3) 0.06616(12) 0.4045(4)
O3 O 0.5163(3) 0.00435(12) 0.5663(4)
H1 H 0.5245 0.0282 0.5730
C1 C 0.3199(4) -0.08185(17) 0.3677(6)
C2 C 0.4626(4) -0.00338(17) 0.4625(5)
H2 H 0.4925 -0.0088 0.4071
C3 C 0.2629(4) -0.08564(18) 0.2666(5)
C4 C 0.5855(4) 0.23924(16) 0.1978(5)
C5 C 0.4796(4) 0.20654(16) 0.2528(5)
H3 H 0.4311 0.2080 0.2704
C6 C 0.5178(4) 0.16992(17) 0.2564(5)
C7 C 0.2417(4) -0.06205(19) 0.1662(5)
C8 C 0.4189(4) -0.03992(16) 0.4794(5)
H4 H 0.4554 -0.0614 0.5057
H5 H 0.3885 -0.0352 0.5335
C9 C 0.5132(4) 0.24029(18) 0.2237(5)
H6 H 0.4869 0.2642 0.2215
C10 C 0.3255(4) -0.10972(17) 0.4510(6)
H7 H 0.3631 -0.1071 0.5181
N3 N 0.1624(4) -0.1163(2) 0.1485(6)
H8 H 0.1268 -0.1335 0.1205
C11 C 0.6233(4) 0.20388(17) 0.2009(5)
H9 H 0.6716 0.2026 0.1828
C12 C 0.4097(4) 0.03178(16) 0.4251(6)
H10 H 0.3703 0.0251 0.3577
H11 H 0.3824 0.0382 0.4818
C13 C 0.2671(4) -0.0268(2) 0.1311(6)
H12 H 0.3083 -0.0127 0.1765
C14 C 0.5897(4) 0.16981(18) 0.2309(6)
H13 H 0.6168 0.1461 0.2338
C15 C 0.1415(5) -0.0684(3) -0.0084(7)
H14 H 0.1000 -0.0821 -0.0544
C16 C 0.4584(4) 0.13803(17) 0.3894(5)
H15 H 0.4279 0.1619 0.3903
H16 H 0.5055 0.1396 0.4499
C17 C 0.2181(5) -0.1469(2) 0.3348(8)
H17 H 0.1847 -0.1687 0.3233
C18 C 0.2129(4) -0.1183(2) 0.2525(6)
C19 C 0.4098(4) 0.10233(16) 0.4068(6)
H18 H 0.3964 0.1046 0.4776
H19 H 0.3611 0.1015 0.3488
C20 C 0.4727(5) 0.06429(17) 0.2979(6)
H20 H 0.4240 0.0638 0.2398
H21 H 0.5008 0.0399 0.2933
C21 C 0.2732(5) -0.1421(2) 0.4321(8)
H22 H 0.2766 -0.1607 0.4881
C22 C 0.2292(5) -0.0131(3) 0.0258(6)
H23 H 0.2456 0.0106 0.0014
C23 C 0.5223(5) 0.09870(17) 0.2784(6)
H24 H 0.5722 0.0987 0.3340
H25 H 0.5332 0.0963 0.2059
C24 C 0.1775(4) -0.0827(2) 0.0963(6)
C25 C 0.1679(5) -0.0336(3) -0.0437(7)
H26 H 0.1446 -0.0239 -0.1142
C26 C 0.6828(4) 0.2736(2) 0.1320(7)
H27 H 0.6743 0.2569 0.0677
H28 H 0.7253 0.2632 0.1894
H29 H 0.6957 0.2998 0.1129
O4 O 0.3646(3) 0.39408(11) 0.8961(3)
O5 O 0.6000(3) 0.06957(12) 0.6581(4)
N4 N 0.4834(3) 0.20973(13) 0.7959(4)
O6 O 0.5211(3) 0.33969(12) 1.0718(4)
H30 H 0.5385 0.3174 1.0686
N5 N 0.4562(3) 0.27826(14) 0.9161(4)
C27 C 0.4207(3) 0.38465(16) 0.9956(4)
H31 H 0.3949 0.3798 1.0549
H32 H 0.4580 0.4061 1.0177
C28 C 0.2584(3) 0.43096(16) 0.7934(5)
C29 C 0.3165(4) 0.42640(16) 0.8935(5)
C30 C 0.2068(3) 0.46355(18) 0.7808(5)
C31 C 0.5736(4) 0.10521(16) 0.6888(5)
N6 N 0.1565(3) 0.46131(17) 0.6757(5)
H33 H 0.1197 0.4778 0.6479
C32 C 0.3210(4) 0.45362(16) 0.9772(5)
H34 H 0.3588 0.4507 1.0441
C33 C 0.2380(4) 0.40846(18) 0.6921(5)
C34 C 0.4622(4) 0.34792(16) 0.9717(5)
H35 H 0.4891 0.3542 0.9135
C35 C 0.5153(4) 0.17479(16) 0.7614(4)
C36 C 0.2689(4) 0.48577(18) 0.9621(6)
H36 H 0.2734 0.5039 1.0195
C37 C 0.6095(4) 0.14072(18) 0.6827(5)
H37 H 0.6537 0.1419 0.6542
C38 C 0.4785(4) 0.13814(17) 0.7656(5)
H38 H 0.4339 0.1368 0.7933
C39 C 0.5803(4) 0.17478(17) 0.7185(5)
H39 H 0.6057 0.1986 0.7135
C40 C 0.2117(4) 0.49145(19) 0.8659(6)
H40 H 0.1775 0.5129 0.8572
C41 C 0.1751(4) 0.4284(2) 0.6231(5)
C42 C 0.4117(4) 0.31311(18) 0.9355(6)
H41 H 0.3839 0.3069 0.9918
H42 H 0.3726 0.3195 0.8676
C43 C 0.5073(4) 0.10461(17) 0.7295(5)
H43 H 0.4816 0.0808 0.7324
C44 C 0.2677(4) 0.3741(2) 0.6563(5)
H44 H 0.3114 0.3613 0.7005
C45 C 0.5277(5) 0.24508(18) 0.7952(6)
H45 H 0.5414 0.2475 0.7247
H46 H 0.5762 0.2438 0.8534
C46 C 0.4579(5) 0.20677(18) 0.8995(6)
H47 H 0.5038 0.2044 0.9617
H48 H 0.4262 0.1832 0.8975
C47 C 0.4106(5) 0.24229(19) 0.9162(7)
H49 H 0.3625 0.2436 0.8572
H50 H 0.3961 0.2400 0.9863
C48 C 0.4806(6) 0.28090(19) 0.8133(6)
H51 H 0.5123 0.3044 0.8147
H52 H 0.4343 0.2833 0.7517
C49 C 0.6622(5) 0.0703(2) 0.6039(7)
H53 H 0.6481 0.0872 0.5401
H54 H 0.6715 0.0441 0.5808
H55 H 0.7092 0.0801 0.6541
C50 C 0.2295(5) 0.3596(2) 0.5516(6)
H56 H 0.2460 0.3359 0.5269
C51 C 0.1673(5) 0.3800(3) 0.4844(6)
H57 H 0.1445 0.3702 0.4138
C52 C 0.1377(5) 0.4142(3) 0.5174(6)
H58 H 0.0949 0.4272 0.4719
O7 O 0.3966(3) 0.39495(11) 0.3230(4)
O8 O 0.6473(3) 0.71591(12) 0.1062(4)
N7 N 0.5207(3) 0.53397(12) 0.1910(4)
N8 N 0.5474(3) 0.60251(13) 0.0696(4)
O9 O 0.4850(3) 0.66907(12) -0.0770(5)
H59 H 0.4610 0.6484 -0.0750
C53 C 0.4940(4) 0.42921(16) 0.2602(5)
H60 H 0.5204 0.4054 0.2615
C54 C 0.4857(4) 0.49928(15) 0.2234(5)
N9 N 0.8494(3) 0.78019(17) 0.3451(5)
H61 H 0.8850 0.7970 0.3762
C55 C 0.4158(4) 0.49975(17) 0.2558(5)
H62 H 0.3888 0.5235 0.2540
C56 C 0.4236(4) 0.43072(15) 0.2919(4)
C57 C 0.3848(4) 0.46573(16) 0.2910(5)
H63 H 0.3381 0.4668 0.3138
C58 C 0.5909(4) 0.56627(17) 0.0682(6)
H64 H 0.6394 0.5671 0.1265
H65 H 0.6047 0.5639 -0.0024
C59 C 0.7690(4) 0.72660(19) 0.3198(5)
C60 C 0.5255(5) 0.60543(17) 0.1753(5)
H66 H 0.4950 0.6293 0.1756
H67 H 0.5729 0.6073 0.2352
C61 C 0.7515(4) 0.75073(18) 0.2200(6)
C62 C 0.5436(5) 0.53139(17) 0.0847(5)
H68 H 0.4966 0.5298 0.0241
H69 H 0.5742 0.5076 0.0840
C63 C 0.8310(4) 0.7464(2) 0.3946(6)
C64 C 0.7414(4) 0.6919(2) 0.3503(6)
H70 H 0.7012 0.6784 0.3008
C65 C 0.5245(4) 0.46314(16) 0.2269(5)
H71 H 0.5720 0.4620 0.2063
C66 C 0.4784(5) 0.57074(16) 0.1947(6)
H72 H 0.4667 0.5733 0.2667
H73 H 0.4287 0.5702 0.1386
C67 C 0.6968(4) 0.74816(17) 0.1162(5)
C68 C 0.8026(4) 0.78327(19) 0.2380(6)
C69 C 0.5912(4) 0.70926(16) 0.0038(5)
H74 H 0.6173 0.7041 -0.0549
H75 H 0.5570 0.7320 -0.0166
C70 C 0.3332(4) 0.3958(2) 0.3759(7)
H76 H 0.2868 0.4059 0.3251
H77 H 0.3470 0.4125 0.4402
H78 H 0.3231 0.3696 0.3979
C71 C 0.7734(5) 0.6766(2) 0.4547(7)
H79 H 0.7541 0.6532 0.4767
C72 C 0.8640(5) 0.7312(3) 0.4998(6)
H80 H 0.9046 0.7443 0.5495
C73 C 0.8348(5) 0.6966(3) 0.5269(6)
H81 H 0.8566 0.6858 0.5965
C74 C 0.5936(4) 0.63685(17) 0.0502(6)
H82 H 0.6173 0.6310 -0.0106
H83 H 0.6359 0.6416 0.1160
C75 C 0.5443(4) 0.67352(16) 0.0233(5)
H84 H 0.5195 0.6792 0.0840
C76 C 0.8005(4) 0.8122(2) 0.1587(7)
H85 H 0.8345 0.8337 0.1730
C77 C 0.7464(4) 0.8081(2) 0.0580(7)
H86 H 0.7446 0.8270 0.0033
C78 C 0.6941(4) 0.77607(18) 0.0359(6)
H87 H 0.6579 0.7739 -0.0326
loop_
_geom_bond_atom_site_label_1
_geom_bond_atom_site_label_2
_geom_bond_site_symmetry_1
_geom_bond_site_symmetry_2
O1 C1 1_555 1_555
O2 C4 1_555 1_555
N1 C6 1_555 1_555
N2 C12 1_555 1_555
O3 H1 1_555 1_555
C1 C3 1_555 1_555
C2 O3 1_555 1_555
H2 C2 1_555 1_555
C3 C7 1_555 1_555
C4 C9 1_555 1_555
C5 H3 1_555 1_555
C6 C5 1_555 1_555
C7 C13 1_555 1_555
C8 O1 1_555 1_555
H4 C8 1_555 1_555
H5 C8 1_555 1_555
C9 C5 1_555 1_555
H6 C9 1_555 1_555
C10 C1 1_555 1_555
H7 C10 1_555 1_555
N3 H8 1_555 1_555
C11 C4 1_555 1_555
H9 C11 1_555 1_555
C12 C2 1_555 1_555
H10 C12 1_555 1_555
H11 C12 1_555 1_555
C13 H12 1_555 1_555
C14 C6 1_555 1_555
H13 C14 1_555 1_555
C15 H14 1_555 1_555
C16 N1 1_555 1_555
H15 C16 1_555 1_555
H16 C16 1_555 1_555
C17 H17 1_555 1_555
C18 C3 1_555 1_555
C19 N2 1_555 1_555
H18 C19 1_555 1_555
H19 C19 1_555 1_555
C20 N2 1_555 1_555
H20 C20 1_555 1_555
H21 C20 1_555 1_555
C21 C10 1_555 1_555
H22 C21 1_555 1_555
C22 C13 1_555 1_555
H23 C22 1_555 1_555
C23 N1 1_555 1_555
H24 C23 1_555 1_555
H25 C23 1_555 1_555
C24 C7 1_555 1_555
C25 C15 1_555 1_555
H26 C25 1_555 1_555
C26 O2 1_555 1_555
H27 C26 1_555 1_555
H28 C26 1_555 1_555
H29 C26 1_555 1_555
O4 C27 1_555 1_555
O5 C31 1_555 1_555
N4 C35 1_555 1_555
O6 H30 1_555 1_555
N5 C42 1_555 1_555
C27 H31 1_555 1_555
H32 C27 1_555 1_555
C28 C29 1_555 1_555
C29 O4 1_555 1_555
C30 C28 1_555 1_555
C31 C37 1_555 1_555
N6 C30 1_555 1_555
H33 N6 1_555 1_555
C32 C29 1_555 1_555
H34 C32 1_555 1_555
C33 C28 1_555 1_555
C34 O6 1_555 1_555
H35 C34 1_555 1_555
C35 C38 1_555 1_555
C36 C32 1_555 1_555
H36 C36 1_555 1_555
C37 H37 1_555 1_555
C38 H38 1_555 1_555
C39 C35 1_555 1_555
H39 C39 1_555 1_555
C40 C30 1_555 1_555
H40 C40 1_555 1_555
C41 N6 1_555 1_555
C42 C34 1_555 1_555
H41 C42 1_555 1_555
H42 C42 1_555 1_555
C43 C31 1_555 1_555
H43 C43 1_555 1_555
C44 C33 1_555 1_555
H44 C44 1_555 1_555
C45 N4 1_555 1_555
H45 C45 1_555 1_555
H46 C45 1_555 1_555
C46 N4 1_555 1_555
H47 C46 1_555 1_555
H48 C46 1_555 1_555
C47 N5 1_555 1_555
H49 C47 1_555 1_555
H50 C47 1_555 1_555
C48 N5 1_555 1_555
H51 C48 1_555 1_555
H52 C48 1_555 1_555
C49 O5 1_555 1_555
H53 C49 1_555 1_555
H54 C49 1_555 1_555
H55 C49 1_555 1_555
C50 C44 1_555 1_555
H56 C50 1_555 1_555
C51 C50 1_555 1_555
H57 C51 1_555 1_555
C52 C41 1_555 1_555
H58 C52 1_555 1_555
O7 C56 1_555 1_555
O8 C67 1_555 1_555
N7 C54 1_555 1_555
N8 C58 1_555 1_555
O9 H59 1_555 1_555
C53 H60 1_555 1_555
C54 C55 1_555 1_555
N9 H61 1_555 1_555
C55 H62 1_555 1_555
C56 C53 1_555 1_555
C57 C55 1_555 1_555
H63 C57 1_555 1_555
C58 H64 1_555 1_555
H65 C58 1_555 1_555
C59 C61 1_555 1_555
C60 N8 1_555 1_555
H66 C60 1_555 1_555
H67 C60 1_555 1_555
C61 C67 1_555 1_555
C62 N7 1_555 1_555
H68 C62 1_555 1_555
H69 C62 1_555 1_555
C63 N9 1_555 1_555
C64 C59 1_555 1_555
H70 C64 1_555 1_555
C65 C53 1_555 1_555
H71 C65 1_555 1_555
C66 N7 1_555 1_555
H72 C66 1_555 1_555
H73 C66 1_555 1_555
C67 C78 1_555 1_555
C68 N9 1_555 1_555
C69 O8 1_555 1_555
H74 C69 1_555 1_555
H75 C69 1_555 1_555
C70 O7 1_555 1_555
H76 C70 1_555 1_555
H77 C70 1_555 1_555
H78 C70 1_555 1_555
C71 C64 1_555 1_555
H79 C71 1_555 1_555
C72 C63 1_555 1_555
H80 C72 1_555 1_555
C73 C71 1_555 1_555
H81 C73 1_555 1_555
C74 N8 1_555 1_555
H82 C74 1_555 1_555
H83 C74 1_555 1_555
C75 O9 1_555 1_555
H84 C75 1_555 1_555
C76 C68 1_555 1_555
H85 C76 1_555 1_555
C77 C76 1_555 1_555
H86 C77 1_555 1_555
C78 C77 1_555 1_555
H87 C78 1_555 1_555
C2 C8 1_555 1_555
N3 C18 1_555 1_555
N3 C24 1_555 1_555
C11 C14 1_555 1_555
C15 C24 1_555 1_555
C16 C19 1_555 1_555
C17 C18 1_555 1_555
C17 C21 1_555 1_555
C20 C23 1_555 1_555
C22 C25 1_555 1_555
C27 C34 1_555 1_555
C33 C41 1_555 1_555
C36 C40 1_555 1_555
C37 C39 1_555 1_555
C38 C43 1_555 1_555
C45 C48 1_555 1_555
C46 C47 1_555 1_555
C51 C52 1_555 1_555
C54 C65 1_555 1_555
C56 C57 1_555 1_555
C58 C62 1_555 1_555
C59 C63 1_555 1_555
C60 C66 1_555 1_555
C61 C68 1_555 1_555
C69 C75 1_555 1_555
C72 C73 1_555 1_555
C74 C75 1_555 1_555

#END
