
#######################################################################
#
#                 Cambridge Crystallographic Data Centre
#                                CCDC 
#
#######################################################################
#
# If this CIF has been generated from an entry in the Cambridge 
# Structural Database, then it will include bibliographic, chemical, 
# crystal, experimental, refinement or atomic coordinate data resulting 
# from the CCDC's data processing and validation procedures.
#
#######################################################################

data_IWALAV
_chemical_formula_moiety         'C15 H10 Br1 I1 O1'
_chemical_name_systematic        
(E)-1-(4-bromophenyl)-3-(4-iodophenyl)prop-2-en-1-one
_symmetry_cell_setting           monoclinic
_symmetry_space_group_name_H-M   'P 21/c'
_symmetry_Int_Tables_number      14
_space_group_name_Hall           '-P 2ybc'
loop_
_symmetry_equiv_pos_site_id
_symmetry_equiv_pos_as_xyz
1 x,y,z
2 -x,1/2+y,1/2-z
3 -x,-y,-z
4 x,1/2-y,1/2+z
_cell_length_a                   16.147(2)
_cell_length_b                   14.270(2)
_cell_length_c                   5.9058(9)
_cell_angle_alpha                90
_cell_angle_beta                 92.577(3)
_cell_angle_gamma                90
_cell_volume                     1359.42
_exptl_crystal_colour            colorless
_exptl_crystal_description       plate
_cell_formula_units_Z            4
loop_
_atom_site_label
_atom_site_type_symbol
_atom_site_fract_x
_atom_site_fract_y
_atom_site_fract_z
Br1 Br 0.86067(4) 0.62799(4) 0.24817(13)
I1 I 0.02580(2) 0.64003(3) -0.26385(6)
O1 O 0.4797(3) 0.6245(3) 0.6977(7)
C1 C 0.6072(3) 0.5930(3) 0.2205(8)
H1 H 0.5669 0.5726 0.1144
C2 C 0.6902(3) 0.5908(3) 0.1678(8)
H2 H 0.7062 0.5670 0.0298
C3 C 0.7478(3) 0.6244(3) 0.3242(9)
C4 C 0.7263(3) 0.6565(3) 0.5348(9)
H3 H 0.7666 0.6773 0.6406
C5 C 0.6440(3) 0.6568(3) 0.5833(8)
H4 H 0.6286 0.6788 0.7236
C6 C 0.5839(3) 0.6256(3) 0.4303(8)
C7 C 0.4965(3) 0.6253(3) 0.4962(9)
C8 C 0.4291(3) 0.6274(3) 0.3168(9)
H5 H 0.4413 0.6431 0.1692
C9 C 0.3523(3) 0.6073(3) 0.3643(8)
H6 H 0.3438 0.5881 0.5119
C10 C 0.2788(3) 0.6117(3) 0.2110(8)
C11 C 0.2795(3) 0.6536(3) -0.0025(8)
H7 H 0.3291 0.6766 -0.0543
C12 C 0.2082(3) 0.6613(3) -0.1374(9)
H8 H 0.2099 0.6892 -0.2794
C13 C 0.1340(3) 0.6274(3) -0.0618(8)
C14 C 0.1314(3) 0.5860(3) 0.1496(8)
H9 H 0.0817 0.5630 0.2005
C15 C 0.2029(3) 0.5789(3) 0.2837(8)
H10 H 0.2008 0.5517 0.4264
loop_
_geom_bond_atom_site_label_1
_geom_bond_atom_site_label_2
_geom_bond_site_symmetry_1
_geom_bond_site_symmetry_2
Br1 C3 1_555 1_555
I1 C13 1_555 1_555
O1 C7 1_555 1_555
C1 H1 1_555 1_555
C2 C1 1_555 1_555
H2 C2 1_555 1_555
C3 C2 1_555 1_555
C4 C3 1_555 1_555
H3 C4 1_555 1_555
C5 C4 1_555 1_555
H4 C5 1_555 1_555
C6 C1 1_555 1_555
C7 C6 1_555 1_555
C8 C7 1_555 1_555
H5 C8 1_555 1_555
C9 C8 1_555 1_555
H6 C9 1_555 1_555
C10 C9 1_555 1_555
C11 C10 1_555 1_555
H7 C11 1_555 1_555
C12 C11 1_555 1_555
H8 C12 1_555 1_555
C13 C12 1_555 1_555
C14 C13 1_555 1_555
H9 C14 1_555 1_555
C15 C10 1_555 1_555
H10 C15 1_555 1_555
C5 C6 1_555 1_555
C14 C15 1_555 1_555

#END
