
#######################################################################
#
#                 Cambridge Crystallographic Data Centre
#                                CCDC 
#
#######################################################################
#
# If this CIF has been generated from an entry in the Cambridge 
# Structural Database, then it will include bibliographic, chemical, 
# crystal, experimental, refinement or atomic coordinate data resulting 
# from the CCDC's data processing and validation procedures.
#
#######################################################################

data_IWAQUT01
_chemical_formula_moiety         'C13 H9 Cl1 F1 N1 O1'
_chemical_name_systematic        N-(4-Chlorophenyl)-4-fluorobenzamide
_symmetry_cell_setting           monoclinic
_symmetry_space_group_name_H-M   'P 21/c'
_symmetry_Int_Tables_number      14
_space_group_name_Hall           '-P 2ybc'
loop_
_symmetry_equiv_pos_site_id
_symmetry_equiv_pos_as_xyz
1 x,y,z
2 -x,1/2+y,1/2-z
3 -x,-y,-z
4 x,1/2-y,1/2+z
_cell_length_a                   12.081(2)
_cell_length_b                   9.7923(16)
_cell_length_c                   9.9142(16)
_cell_angle_alpha                90
_cell_angle_beta                 93.514(3)
_cell_angle_gamma                90
_cell_volume                     1170.65
_exptl_crystal_colour            colorless
_exptl_crystal_description       prism
_cell_formula_units_Z            4
loop_
_atom_site_label
_atom_site_type_symbol
_atom_site_fract_x
_atom_site_fract_y
_atom_site_fract_z
Cl1 Cl 0.47906(5) 0.16267(6) 0.54537(6)
F1 F 0.04320(11) 1.28886(13) 0.45113(15)
O1 O 0.22500(12) 0.71772(14) 0.27767(13)
N1 N 0.24748(13) 0.69429(16) 0.50348(14)
H1 H 0.2386(14) 0.7287(17) 0.5835(12)
C1 C 0.17481(15) 0.90651(19) 0.41051(18)
C2 C 0.20165(17) 0.9842(2) 0.5240(2)
H2 H 0.2497 0.9491 0.5923
C3 C 0.15824(19) 1.1126(2) 0.5372(2)
H3 H 0.1765 1.1648 0.6137
C4 C 0.08823(19) 1.1621(2) 0.4367(3)
C5 C 0.06186(18) 1.0909(2) 0.3221(3)
H4 H 0.0147 1.1279 0.2540
C6 C 0.10643(17) 0.9624(2) 0.3085(2)
H5 H 0.0902 0.9129 0.2298
C7 C 0.21800(15) 0.7654(2) 0.39115(19)
C8 C 0.30036(15) 0.56449(19) 0.50937(17)
C9 C 0.28401(17) 0.4663(2) 0.41057(19)
H6 H 0.2358 0.4835 0.3357
C10 C 0.33855(17) 0.3431(2) 0.4220(2)
H7 H 0.3277 0.2773 0.3548
C11 C 0.40901(16) 0.3177(2) 0.5329(2)
C12 C 0.42456(17) 0.4130(2) 0.6338(2)
H8 H 0.4713 0.3944 0.7097
C13 C 0.37045(16) 0.5361(2) 0.62162(18)
H9 H 0.3810 0.6011 0.6895
loop_
_geom_bond_atom_site_label_1
_geom_bond_atom_site_label_2
_geom_bond_site_symmetry_1
_geom_bond_site_symmetry_2
Cl1 C11 1_555 1_555
F1 C4 1_555 1_555
O1 C7 1_555 1_555
N1 H1 1_555 1_555
C1 C2 1_555 1_555
C2 H2 1_555 1_555
C3 C2 1_555 1_555
H3 C3 1_555 1_555
C4 C3 1_555 1_555
C5 C4 1_555 1_555
H4 C5 1_555 1_555
C6 C1 1_555 1_555
H5 C6 1_555 1_555
C7 N1 1_555 1_555
C8 N1 1_555 1_555
C9 C8 1_555 1_555
H6 C9 1_555 1_555
C10 C9 1_555 1_555
H7 C10 1_555 1_555
C11 C10 1_555 1_555
C12 C11 1_555 1_555
H8 C12 1_555 1_555
C13 C8 1_555 1_555
H9 C13 1_555 1_555
C1 C7 1_555 1_555
C5 C6 1_555 1_555
C12 C13 1_555 1_555

#END
