
#######################################################################
#
#                 Cambridge Crystallographic Data Centre
#                                CCDC 
#
#######################################################################
#
# If this CIF has been generated from an entry in the Cambridge 
# Structural Database, then it will include bibliographic, chemical, 
# crystal, experimental, refinement or atomic coordinate data resulting 
# from the CCDC's data processing and validation procedures.
#
#######################################################################

data_IWASAA
_chemical_formula_moiety         'C20 H14 O2,2.5(C10 H9 N1)'
_chemical_name_systematic        
"2,2'-Dihydroxy-1,1'-binaphthyl 6-methylquinoline clathrate"
_symmetry_cell_setting           triclinic
_symmetry_space_group_name_H-M   'P -1'
_symmetry_Int_Tables_number      2
_space_group_name_Hall           '-P 1'
loop_
_symmetry_equiv_pos_site_id
_symmetry_equiv_pos_as_xyz
1 x,y,z
2 -x,-y,-z
_cell_length_a                   8.83960(10)
_cell_length_b                   9.46950(10)
_cell_length_c                   21.6106(3)
_cell_angle_alpha                94.6520(10)
_cell_angle_beta                 98.0680(10)
_cell_angle_gamma                103.8220(10)
_cell_volume                     1726.77
_exptl_crystal_colour            colorless
_exptl_crystal_description       needle
_cell_formula_units_Z            2
loop_
_atom_site_label
_atom_site_type_symbol
_atom_site_fract_x
_atom_site_fract_y
_atom_site_fract_z
O1 O 0.6636(2) 0.2596(2) 0.26556(9)
O2 O 0.5088(2) 0.2359(2) 0.12202(9)
C3 C 0.4683(3) 0.0324(3) 0.17981(11)
C4 C 0.4046(3) 0.1189(3) 0.22622(11)
C5 C 0.4778(3) -0.1137(3) 0.18681(11)
C6 C 0.2387(3) 0.0885(3) 0.22738(11)
C7 C 0.1804(3) 0.1784(3) 0.26951(12)
C9 C 0.4466(3) 0.3222(3) 0.30792(12)
H1 H 0.5169 0.4004 0.3349
C10 C 0.5054(3) 0.2337(3) 0.26643(12)
C11 C 0.5387(3) -0.1919(3) 0.14119(12)
C13 C 0.1285(3) -0.0263(3) 0.18681(12)
H2 H 0.1651 -0.0864 0.1587
C15 C -0.0300(3) -0.0520(3) 0.18748(13)
H3 H -0.1007 -0.1296 0.1603
C16 C 0.5207(3) 0.0968(3) 0.12904(12)
C18 C 0.5824(3) 0.0192(3) 0.08418(12)
H4 H 0.6182 0.0648 0.0500
C19 C 0.0146(3) 0.1486(3) 0.26839(13)
H5 H -0.0251 0.2075 0.2958
C20 C 0.4305(3) -0.1855(3) 0.23904(12)
H6 H 0.3903 -0.1363 0.2699
C21 C 0.5903(3) -0.1206(3) 0.09001(13)
H7 H 0.6307 -0.1709 0.0596
C22 C 0.5484(3) -0.3367(3) 0.14918(14)
H8 H 0.5890 -0.3881 0.1192
C23 C 0.2882(3) 0.2950(3) 0.30907(13)
H9 H 0.2508 0.3552 0.3368
C27 C 0.4430(3) -0.3254(3) 0.24466(14)
H11 H 0.4123 -0.3704 0.2797
C29 C 0.5007(4) -0.4031(3) 0.19915(15)
H13 H 0.5062 -0.4999 0.2032
C31 C -0.0882(3) 0.0372(3) 0.22877(14)
H15 H -0.1974 0.0198 0.2289
H31 H 0.605(2) 0.289(4) 0.1090(17)
H32 H 0.721(3) 0.350(3) 0.2916(16)
N1 N 0.7871(3) 0.3984(3) 0.10118(11)
C14 C 0.9771(3) 0.6038(3) 0.07235(12)
C17 C 0.8275(3) 0.5027(3) 0.06207(12)
C24 C 1.0084(3) 0.7120(3) 0.03128(13)
H10 H 1.1082 0.7791 0.0378
C28 C 0.7148(3) 0.5100(3) 0.01010(13)
H12 H 0.6160 0.4414 0.0019
C30 C 1.0884(3) 0.5903(3) 0.12412(13)
H14 H 1.1905 0.6535 0.1321
C32 C 0.8964(4) 0.7211(3) -0.01789(13)
C33 C 0.7492(4) 0.6169(3) -0.02835(14)
H16 H 0.6728 0.6210 -0.0626
C38 C 1.0461(4) 0.4851(3) 0.16212(14)
H20 H 1.1187 0.4747 0.1966
C39 C 0.8937(4) 0.3926(3) 0.14940(15)
H21 H 0.8656 0.3222 0.1768
C45 C 0.9265(5) 0.8380(4) -0.06157(17)
H28 H 0.8609 0.9050 -0.0554
H29 H 0.9012 0.7924 -0.1049
H30 H 1.0369 0.8915 -0.0525
N2 N 0.8772(3) 0.5081(3) 0.32917(11)
C25 C 0.9884(3) 0.4971(3) 0.37854(12)
C26 C 1.1292(3) 0.6084(3) 0.39891(13)
C34 C 1.0698(4) 0.3573(4) 0.45904(15)
H17 H 1.0495 0.2723 0.4794
C35 C 0.9613(4) 0.3717(3) 0.41010(14)
H18 H 0.8677 0.2972 0.3974
C36 C 1.2384(3) 0.5888(4) 0.44977(14)
H19 H 1.3325 0.6623 0.4632
C37 C 1.2115(4) 0.4662(4) 0.48001(13)
C40 C 0.9051(4) 0.6283(4) 0.30121(15)
H22 H 0.8293 0.6367 0.2675
C41 C 1.3268(4) 0.4482(5) 0.53553(16)
H23 H 1.4088 0.5386 0.5477
H24 H 1.3742 0.3695 0.5240
H25 H 1.2715 0.4248 0.5706
C42 C 1.1525(4) 0.7334(4) 0.36688(16)
H26 H 1.2451 0.8094 0.3788
C44 C 1.0407(4) 0.7440(4) 0.31865(17)
H27 H 1.0542 0.8277 0.2974
C1? C 0.5347(6) 0.0507(5) 0.4094(2)
C2? C 0.7738(9) -0.0413(8) 0.4191(3)
C8? C 0.6200(6) -0.0441(5) 0.5045(2)
C12? C 0.6443(11) 0.0231(10) 0.3869(4)
C43? C 0.4932(10) 0.0194(9) 0.4717(4)
N3? N 0.7312(11) -0.0649(10) 0.4851(4)
C46? C 0.6575(13) -0.0107(12) 0.4420(5)
C47? C 0.4310(12) 0.0771(11) 0.4290(5)
loop_
_geom_bond_atom_site_label_1
_geom_bond_atom_site_label_2
_geom_bond_site_symmetry_1
_geom_bond_site_symmetry_2
O1 C10 1_555 1_555
O2 C16 1_555 1_555
C3 C4 1_555 1_555
C4 C6 1_555 1_555
C5 C3 1_555 1_555
C6 C7 1_555 1_555
C7 C19 1_555 1_555
N1 C17 1_555 1_555
C9 H1 1_555 1_555
C10 C4 1_555 1_555
C11 C5 1_555 1_555
N2 C25 1_555 1_555
C13 C6 1_555 1_555
H2 C13 1_555 1_555
C14 C17 1_555 1_555
C15 C13 1_555 1_555
H3 C15 1_555 1_555
C16 C3 1_555 1_555
C17 C28 1_555 1_555
C18 C16 1_555 1_555
H4 C18 1_555 1_555
C19 H5 1_555 1_555
C20 C5 1_555 1_555
H6 C20 1_555 1_555
C21 C11 1_555 1_555
H7 C21 1_555 1_555
C22 C11 1_555 1_555
H8 C22 1_555 1_555
C23 C7 1_555 1_555
H9 C23 1_555 1_555
C24 C14 1_555 1_555
H10 C24 1_555 1_555
C25 C26 1_555 1_555
C26 C36 1_555 1_555
C27 C20 1_555 1_555
H11 C27 1_555 1_555
C28 H12 1_555 1_555
C29 C22 1_555 1_555
H13 C29 1_555 1_555
C30 C14 1_555 1_555
H14 C30 1_555 1_555
C31 C15 1_555 1_555
H15 C31 1_555 1_555
C32 C24 1_555 1_555
C33 C28 1_555 1_555
H16 C33 1_555 1_555
C34 H17 1_555 1_555
C35 C25 1_555 1_555
H18 C35 1_555 1_555
C36 H19 1_555 1_555
C37 C34 1_555 1_555
C38 C30 1_555 1_555
H20 C38 1_555 1_555
C39 N1 1_555 1_555
H21 C39 1_555 1_555
C40 N2 1_555 1_555
H22 C40 1_555 1_555
C41 C37 1_555 1_555
H23 C41 1_555 1_555
H24 C41 1_555 1_555
H25 C41 1_555 1_555
C42 C26 1_555 1_555
H26 C42 1_555 1_555
C44 C40 1_555 1_555
H27 C44 1_555 1_555
C45 C32 1_555 1_555
H28 C45 1_555 1_555
H29 C45 1_555 1_555
H30 C45 1_555 1_555
H31 O2 1_555 1_555
H32 O1 1_555 1_555
C9 C23 1_555 1_555
C9 C10 1_555 1_555
C18 C21 1_555 1_555
C19 C31 1_555 1_555
C27 C29 1_555 1_555
C32 C33 1_555 1_555
C34 C35 1_555 1_555
C36 C37 1_555 1_555
C38 C39 1_555 1_555
C42 C44 1_555 1_555

#END
