
#######################################################################
#
#                 Cambridge Crystallographic Data Centre
#                                CCDC 
#
#######################################################################
#
# If this CIF has been generated from an entry in the Cambridge 
# Structural Database, then it will include bibliographic, chemical, 
# crystal, experimental, refinement or atomic coordinate data resulting 
# from the CCDC's data processing and validation procedures.
#
#######################################################################

data_IWATIL
_chemical_formula_moiety         'C10 H10 N2 O4,2(H2 O1)'
_chemical_name_systematic        
'2,2-dimethyl-2H-benzimidazole-5-carboxylic acid 1,3-dioxide dihydrate'
_chemical_properties_biological  'low inhibitory activity toward separase'
_symmetry_cell_setting           triclinic
_symmetry_space_group_name_H-M   'P -1'
_symmetry_Int_Tables_number      2
_space_group_name_Hall           '-P 1'
loop_
_symmetry_equiv_pos_site_id
_symmetry_equiv_pos_as_xyz
1 x,y,z
2 -x,-y,-z
_cell_length_a                   6.7290(8)
_cell_length_b                   7.4911(17)
_cell_length_c                   12.5230(14)
_cell_angle_alpha                89.389(3)
_cell_angle_beta                 75.196(3)
_cell_angle_gamma                73.782(2)
_cell_volume                     584.76
_exptl_crystal_colour            orange
_exptl_crystal_description       rectangular
_cell_formula_units_Z            2
loop_
_atom_site_label
_atom_site_type_symbol
_atom_site_fract_x
_atom_site_fract_y
_atom_site_fract_z
O1 O 0.34177(16) 0.68193(13) 0.91810(8)
H1 H 0.4102 0.6093 0.8619
O2 O 0.38447(17) 0.90112(14) 0.79895(8)
O3 O 0.03494(16) 1.53600(13) 1.27921(9)
O4 O 0.06227(18) 0.90774(13) 1.34405(9)
N1 N 0.05680(18) 1.35941(15) 1.26125(10)
N2 N 0.07564(18) 1.05350(15) 1.29321(10)
C1 C 0.1340(2) 1.07055(18) 1.18448(11)
C2 C 0.2017(2) 0.93301(18) 1.09608(11)
H2 H 0.2100 0.8062 1.1089
C3 C 0.1224(2) 1.26131(18) 1.16489(12)
C4 C 0.2544(2) 0.99058(18) 0.99158(12)
C5 C 0.3328(2) 0.85450(19) 0.89297(12)
C6 C 0.2430(2) 1.18398(19) 0.97189(12)
H3 H 0.2809 1.2182 0.8978
C7 C 0.1801(2) 1.31766(19) 1.05566(12)
H4 H 0.1750 1.4436 1.0417
C8 C 0.0185(2) 1.23869(18) 1.35502(12)
C9 C -0.2166(2) 1.2942(2) 1.41811(13)
H5 H -0.2581 1.4219 1.4507
H6 H -0.2397 1.2093 1.4770
H7 H -0.3039 1.2874 1.3673
C10 C 0.1733(2) 1.2342(2) 1.42478(12)
H8 H 0.3202 1.2022 1.3770
H9 H 0.1617 1.1406 1.4795
H10 H 0.1383 1.3570 1.4630
O5 O -0.37971(19) 1.78132(17) 1.33557(10)
H11 H -0.246(4) 1.720(3) 1.3250(17)
H12 H -0.373(3) 1.882(3) 1.3002(18)
O6 O 0.5477(2) 0.44193(17) 0.75899(11)
H13 H 0.508(3) 0.366(3) 0.7259(17)
H14 H 0.676(4) 0.430(3) 0.735(2)
loop_
_geom_bond_atom_site_label_1
_geom_bond_atom_site_label_2
_geom_bond_site_symmetry_1
_geom_bond_site_symmetry_2
O1 H1 1_555 1_555
O2 C5 1_555 1_555
O3 N1 1_555 1_555
O4 N2 1_555 1_555
N1 C3 1_555 1_555
N2 C1 1_555 1_555
C1 C2 1_555 1_555
C2 H2 1_555 1_555
C3 C1 1_555 1_555
C4 C2 1_555 1_555
C5 O1 1_555 1_555
C6 C4 1_555 1_555
H3 C6 1_555 1_555
C7 C3 1_555 1_555
H4 C7 1_555 1_555
C8 N1 1_555 1_555
C9 C8 1_555 1_555
H5 C9 1_555 1_555
H6 C9 1_555 1_555
H7 C9 1_555 1_555
C10 C8 1_555 1_555
H8 C10 1_555 1_555
H9 C10 1_555 1_555
H10 C10 1_555 1_555
O5 H11 1_555 1_555
H12 O5 1_555 1_555
O6 H13 1_555 1_555
H14 O6 1_555 1_555
N2 C8 1_555 1_555
C4 C5 1_555 1_555
C6 C7 1_555 1_555

#END
