
#######################################################################
#
#                 Cambridge Crystallographic Data Centre
#                                CCDC 
#
#######################################################################
#
# If this CIF has been generated from an entry in the Cambridge 
# Structural Database, then it will include bibliographic, chemical, 
# crystal, experimental, refinement or atomic coordinate data resulting 
# from the CCDC's data processing and validation procedures.
#
#######################################################################

data_IWATUX
_chemical_formula_moiety         'C10 H9 F3 N2 O2'
_chemical_name_systematic        
'2,2-dimethyl-5-(trifluoromethyl)-2H-benzimidazole 1,3-dioxide'
_chemical_properties_biological  'low inhibitory activity toward separase'
_symmetry_cell_setting           monoclinic
_symmetry_space_group_name_H-M   'P 21/m'
_symmetry_Int_Tables_number      11
_space_group_name_Hall           '-P 2yb'
loop_
_symmetry_equiv_pos_site_id
_symmetry_equiv_pos_as_xyz
1 x,y,z
2 -x,1/2+y,-z
3 -x,-y,-z
4 x,1/2-y,z
_cell_length_a                   7.986(1)
_cell_length_b                   7.760(1)
_cell_length_c                   8.334(1)
_cell_angle_alpha                90
_cell_angle_beta                 97.61(3)
_cell_angle_gamma                90
_cell_volume                     511.92
_exptl_crystal_colour            'dark orange'
_exptl_crystal_description       needle
_cell_formula_units_Z            2
loop_
_atom_site_label
_atom_site_type_symbol
_atom_site_fract_x
_atom_site_fract_y
_atom_site_fract_z
C1 C 0.3309(3) 0.2500 0.7874(2)
C2 C 0.4842(3) 0.2500 0.7168(2)
C3 C 0.6433(3) 0.2500 0.8146(2)
H1 H 0.7463 0.2500 0.7691
C4 C 0.6403(3) 0.2500 0.9776(3)
C5 C 0.4865(3) 0.2500 1.0497(3)
H2 H 0.4925 0.2500 1.1643
C6 C 0.3332(3) 0.2500 0.9580(3)
H3 H 0.2316 0.2500 1.0058
C7 C 0.2600(3) 0.2500 0.5080(2)
C8 C 0.20563(19) 0.0857(2) 0.41811(17)
H4 H 0.2489 -0.0139 0.4832
H5 H 0.2508 0.0839 0.3144
H6 H 0.0820 0.0805 0.3986
C9 C 0.8038(3) 0.2500 1.0899(3)
N1 N 0.1989(2) 0.2500 0.6700(2)
N2 N 0.4469(2) 0.2500 0.5555(2)
O1 O 0.04197(18) 0.2500 0.68270(19)
O2 O 0.54762(19) 0.2500 0.44830(17)
F1 F 0.8034(12) 0.2500 1.2394(10)
F2 F 0.9072(9) 0.1140(9) 1.0559(12)
C8C C 0.20563(19) 0.4143(2) 0.41811(17)
H4C H 0.2489 0.5139 0.4832
H5C H 0.2508 0.4161 0.3144
H6C H 0.0820 0.4195 0.3986
F2C F 0.9072(9) 0.3860(9) 1.0559(12)
F3? F 0.7965(6) 0.1347(7) 1.2131(5)
F4? F 0.9316(5) 0.1944(7) 1.0216(4)
F5? F 0.8332(9) 0.1035(8) 1.1612(8)
loop_
_geom_bond_atom_site_label_1
_geom_bond_atom_site_label_2
_geom_bond_site_symmetry_1
_geom_bond_site_symmetry_2
C1 C2 1_555 1_555
C2 C3 1_555 1_555
C3 H1 1_555 1_555
C4 C3 1_555 1_555
C5 C4 1_555 1_555
H2 C5 1_555 1_555
C6 C1 1_555 1_555
H3 C6 1_555 1_555
C7 C8 1_555 1_555
C8 H4 1_555 1_555
H5 C8 1_555 1_555
H6 C8 1_555 1_555
C9 C4 1_555 1_555
N1 C1 1_555 1_555
N2 C2 1_555 1_555
O1 N1 1_555 1_555
O2 N2 1_555 1_555
F1 C9 1_555 1_555
F2 C9 1_555 1_555
C8C C7 1_555 1_555
H4C C8C 1_555 1_555
H5C C8C 1_555 1_555
H6C C8C 1_555 1_555
F2C C9 1_555 1_555
C5 C6 1_555 1_555
C7 N1 1_555 1_555
C7 N2 1_555 1_555

#END
