
#######################################################################
#
#                 Cambridge Crystallographic Data Centre
#                                CCDC 
#
#######################################################################
#
# If this CIF has been generated from an entry in the Cambridge 
# Structural Database, then it will include bibliographic, chemical, 
# crystal, experimental, refinement or atomic coordinate data resulting 
# from the CCDC's data processing and validation procedures.
#
#######################################################################

data_IWAVUZ
_chemical_formula_moiety         'C12 H13 N3 O4'
_chemical_name_systematic        
"5-nitrospiro[benzimidazole-2,1'-cyclohexane] 1,3-dioxide"
_chemical_properties_biological  
'tested for inhibitory activity in in vitro separase enzymatic assay'
_symmetry_cell_setting           monoclinic
_symmetry_space_group_name_H-M   'P 21/c'
_symmetry_Int_Tables_number      14
_space_group_name_Hall           '-P 2ybc'
loop_
_symmetry_equiv_pos_site_id
_symmetry_equiv_pos_as_xyz
1 x,y,z
2 -x,1/2+y,1/2-z
3 -x,-y,-z
4 x,1/2-y,1/2+z
_cell_length_a                   8.8012(15)
_cell_length_b                   13.7279(23)
_cell_length_c                   9.60666(58)
_cell_angle_alpha                90
_cell_angle_beta                 94.4505(47)
_cell_angle_gamma                90
_cell_volume                     1157.2
_exptl_crystal_colour            'dark blue'
_exptl_crystal_description       block
_cell_formula_units_Z            4
loop_
_atom_site_label
_atom_site_type_symbol
_atom_site_fract_x
_atom_site_fract_y
_atom_site_fract_z
O1 O 0.1686(3) 0.01485(17) 0.3200(3)
O2 O -0.4266(3) -0.0594(2) -0.1180(3)
O3 O -0.2979(3) 0.0703(2) -0.0564(3)
N1 N 0.0965(3) -0.0659(2) 0.3114(3)
N2 N 0.0181(3) -0.2223(2) 0.3579(3)
N3 N -0.3267(3) -0.0172(2) -0.0453(3)
C1 C -0.0774(4) -0.1850(3) 0.2577(4)
C2 C 0.4341(4) -0.1399(3) 0.4050(4)
H1 H 0.5267 -0.1744 0.3789
H2 H 0.4325 -0.0745 0.3612
O4 O 0.0151(3) -0.30743(18) 0.4138(3)
C3 C 0.1455(4) -0.1526(2) 0.3983(4)
C4 C 0.2927(4) -0.1968(3) 0.3508(4)
H3 H 0.3021 -0.2649 0.3845
H4 H 0.2870 -0.1980 0.2474
C5 C -0.1123(4) -0.0297(3) 0.1287(4)
H5 H -0.0845 0.0357 0.1096
C6 C -0.2071(4) -0.2274(3) 0.1844(4)
H6 H -0.2387 -0.2920 0.2032
C7 C -0.0295(4) -0.0881(3) 0.2294(4)
C8 C 0.4398(4) -0.1292(3) 0.5628(4)
H7 H 0.5312 -0.0911 0.5957
H8 H 0.4484 -0.1946 0.6066
C9 C 0.2973(4) -0.0783(3) 0.6077(4)
H9 H 0.2943 -0.0106 0.5714
H10 H 0.3022 -0.0751 0.7110
C10 C 0.1507(4) -0.1320(3) 0.5534(4)
H11 H 0.1439 -0.1944 0.6045
H12 H 0.0612 -0.0919 0.5730
C11 C -0.2350(4) -0.0745(3) 0.0610(4)
C12 C -0.2836(4) -0.1715(3) 0.0866(4)
H13 H -0.3708 -0.1971 0.0344
loop_
_geom_bond_atom_site_label_1
_geom_bond_atom_site_label_2
_geom_bond_site_symmetry_1
_geom_bond_site_symmetry_2
O1 N1 1_555 1_555
O2 N3 1_555 1_555
O3 N3 1_555 1_555
N1 C3 1_555 1_555
N2 C1 1_555 1_555
N3 C11 1_555 1_555
C1 C6 1_555 1_555
C2 H1 1_555 1_555
H2 C2 1_555 1_555
O4 N2 1_555 1_555
C3 N2 1_555 1_555
C4 C2 1_555 1_555
H3 C4 1_555 1_555
H4 C4 1_555 1_555
C5 H5 1_555 1_555
C6 H6 1_555 1_555
C7 N1 1_555 1_555
C8 C2 1_555 1_555
H7 C8 1_555 1_555
H8 C8 1_555 1_555
C9 C8 1_555 1_555
H9 C9 1_555 1_555
H10 C9 1_555 1_555
C10 C3 1_555 1_555
H11 C10 1_555 1_555
H12 C10 1_555 1_555
C11 C5 1_555 1_555
C12 C6 1_555 1_555
H13 C12 1_555 1_555
C1 C7 1_555 1_555
C3 C4 1_555 1_555
C5 C7 1_555 1_555
C9 C10 1_555 1_555
C11 C12 1_555 1_555

#END
