
#######################################################################
#
#                 Cambridge Crystallographic Data Centre
#                                CCDC 
#
#######################################################################
#
# If this CIF has been generated from an entry in the Cambridge 
# Structural Database, then it will include bibliographic, chemical, 
# crystal, experimental, refinement or atomic coordinate data resulting 
# from the CCDC's data processing and validation procedures.
#
#######################################################################

data_IWAVAF
_chemical_formula_moiety         'C9 H9 F1 N2 O2'
_chemical_name_systematic        
'5-fluoro-2,2-dimethyl-2H-benzimidazole 1,3-dioxide'
_chemical_properties_biological  'low inhibitory activity toward separase'
_symmetry_cell_setting           orthorhombic
_symmetry_space_group_name_H-M   'C m c a'
_symmetry_Int_Tables_number      64
_space_group_name_Hall           '-C 2ac 2'
loop_
_symmetry_equiv_pos_site_id
_symmetry_equiv_pos_as_xyz
1 x,y,z
2 -x,1/2-y,1/2+z
3 x,-y,-z
4 1/2-x,y,1/2-z
5 1/2+x,1/2+y,z
6 1/2-x,-y,1/2+z
7 1/2+x,1/2-y,-z
8 -x,1/2+y,1/2-z
9 -x,-y,-z
10 x,1/2+y,1/2-z
11 -x,y,z
12 1/2+x,-y,1/2+z
13 1/2-x,1/2-y,-z
14 1/2+x,y,1/2-z
15 1/2-x,1/2+y,z
16 x,1/2-y,1/2+z
_cell_length_a                   6.8631(53)
_cell_length_b                   16.4918(27)
_cell_length_c                   15.5819(6)
_cell_angle_alpha                90
_cell_angle_beta                 90
_cell_angle_gamma                90
_cell_volume                     1763.64
_exptl_crystal_colour            'dark orange'
_exptl_crystal_description       rectangular
_cell_formula_units_Z            8
loop_
_atom_site_label
_atom_site_type_symbol
_atom_site_fract_x
_atom_site_fract_y
_atom_site_fract_z
C1 C 0.0000 0.24805(18) 0.21135(18)
C2 C 0.0000 0.28876(19) 0.13005(18)
C3 C 0.0000 0.37499(19) 0.1262(2)
H1 H 0.0000 0.4026 0.0726
C4 C 0.0000 0.4166(2) 0.2016(2)
H2 H 0.0000 0.4742 0.2015
C5 C 0.0000 0.37332(19) 0.2811(2)
C6 C 0.0000 0.29133(19) 0.28957(18)
H3 H 0.0000 0.2652 0.3439
C7 C 0.0000 0.14913(18) 0.10424(18)
C8 C 0.1851(3) 0.10532(13) 0.07929(13)
H4 H 0.1873 0.0971 0.0170
H5 H 0.1899 0.0526 0.1082
H6 H 0.2981 0.1378 0.0964
N1 N 0.0000 0.16765(15) 0.19871(15)
N2 N 0.0000 0.23345(15) 0.06736(15)
O1 O 0.0000 0.11115(13) 0.25512(14)
O2 O 0.0000 0.24468(14) -0.01414(13)
F1 F 0.0000 0.42012(12) 0.35340(11)
C8J C -0.1851(3) 0.10532(13) 0.07929(13)
H4J H -0.1873 0.0971 0.0170
H5J H -0.1899 0.0526 0.1082
H6J H -0.2981 0.1378 0.0964
loop_
_geom_bond_atom_site_label_1
_geom_bond_atom_site_label_2
_geom_bond_site_symmetry_1
_geom_bond_site_symmetry_2
C1 C2 1_555 1_555
C2 C3 1_555 1_555
C3 H1 1_555 1_555
C4 C3 1_555 1_555
H2 C4 1_555 1_555
C5 C4 1_555 1_555
C6 C1 1_555 1_555
H3 C6 1_555 1_555
C7 C8 1_555 1_555
C8 H4 1_555 1_555
H5 C8 1_555 1_555
H6 C8 1_555 1_555
N1 C1 1_555 1_555
N2 C2 1_555 1_555
O1 N1 1_555 1_555
O2 N2 1_555 1_555
F1 C5 1_555 1_555
C8J C7 1_555 1_555
H4J C8J 1_555 1_555
H5J C8J 1_555 1_555
H6J C8J 1_555 1_555
C5 C6 1_555 1_555
C7 N1 1_555 1_555
C7 N2 1_555 1_555

#END
