
#######################################################################
#
#                 Cambridge Crystallographic Data Centre
#                                CCDC 
#
#######################################################################
#
# If this CIF has been generated from an entry in the Cambridge 
# Structural Database, then it will include bibliographic, chemical, 
# crystal, experimental, refinement or atomic coordinate data resulting 
# from the CCDC's data processing and validation procedures.
#
#######################################################################

data_IWAVEJ
_chemical_formula_moiety         'C15 H14 N2 O2'
_chemical_name_systematic        
'2,2-dimethyl-5-phenyl-2H-benzimidazole 1,3-dioxide'
_chemical_properties_biological  'low inhibitory activity toward separase'
_symmetry_cell_setting           monoclinic
_symmetry_space_group_name_H-M   'P 21/c'
_symmetry_Int_Tables_number      14
_space_group_name_Hall           '-P 2ybc'
loop_
_symmetry_equiv_pos_site_id
_symmetry_equiv_pos_as_xyz
1 x,y,z
2 -x,1/2+y,1/2-z
3 -x,-y,-z
4 x,1/2-y,1/2+z
_cell_length_a                   12.333(1)
_cell_length_b                   10.462(1)
_cell_length_c                   10.060(1)
_cell_angle_alpha                90
_cell_angle_beta                 107.360(1)
_cell_angle_gamma                90
_cell_volume                     1238.89
_exptl_crystal_colour            black
_exptl_crystal_description       block
_cell_formula_units_Z            4
loop_
_atom_site_label
_atom_site_type_symbol
_atom_site_fract_x
_atom_site_fract_y
_atom_site_fract_z
N1 N 0.74233(11) 0.15687(13) -0.15435(13)
O1 O 0.72170(10) 0.21474(12) -0.27151(12)
O2 O 0.66447(9) -0.01392(11) 0.10708(12)
C1 C 0.95046(13) 0.19001(15) -0.05055(16)
H1 H 0.9632 0.2325 -0.1280
C2 C 1.11763(13) 0.09591(15) 0.31704(16)
C3 C 1.12843(13) -0.00758(16) 0.40848(17)
H2 H 1.0753 -0.0758 0.3852
C4 C 0.91535(13) 0.05798(15) 0.18353(16)
H3 H 0.9042 0.0133 0.2606
C5 C 1.02029(13) 0.10528(14) 0.18805(15)
C6 C 1.19933(13) 0.19349(15) 0.35248(16)
H4 H 1.1946 0.2634 0.2907
N2 N 0.71448(11) 0.04689(12) 0.03132(13)
C7 C 1.03629(14) 0.17010(15) 0.06839(16)
H5 H 1.1101 0.2001 0.0733
C8 C 0.82453(13) 0.07774(14) 0.06073(16)
C9 C 0.64968(13) 0.09674(15) -0.10898(16)
C10 C 1.21609(14) -0.01136(17) 0.53290(17)
H6 H 1.2222 -0.0816 0.5945
C11 C 1.28692(14) 0.18890(16) 0.47680(17)
H7 H 1.3416 0.2556 0.4997
C12 C 0.84125(13) 0.14524(14) -0.05501(16)
C13 C 1.29484(14) 0.08735(17) 0.56747(17)
H8 H 1.3541 0.0852 0.6532
C14 C 0.56626(14) 0.19835(16) -0.09461(18)
H9 H 0.5060 0.1586 -0.0636
H10 H 0.5328 0.2399 -0.1849
H11 H 0.6061 0.2622 -0.0261
C15 C 0.59673(14) -0.01215(16) -0.20570(17)
H12 H 0.6547 -0.0769 -0.2033
H13 H 0.5658 0.0205 -0.3009
H14 H 0.5355 -0.0504 -0.1756
loop_
_geom_bond_atom_site_label_1
_geom_bond_atom_site_label_2
_geom_bond_site_symmetry_1
_geom_bond_site_symmetry_2
N1 O1 1_555 1_555
O2 N2 1_555 1_555
C1 H1 1_555 1_555
C2 C3 1_555 1_555
C3 H2 1_555 1_555
C4 H3 1_555 1_555
C5 C2 1_555 1_555
C6 C2 1_555 1_555
H4 C6 1_555 1_555
N2 C8 1_555 1_555
C7 C1 1_555 1_555
H5 C7 1_555 1_555
C8 C4 1_555 1_555
C9 N1 1_555 1_555
C10 C3 1_555 1_555
H6 C10 1_555 1_555
C11 C6 1_555 1_555
H7 C11 1_555 1_555
C12 N1 1_555 1_555
C13 C10 1_555 1_555
H8 C13 1_555 1_555
C14 C9 1_555 1_555
H9 C14 1_555 1_555
H10 C14 1_555 1_555
H11 C14 1_555 1_555
C15 C9 1_555 1_555
H12 C15 1_555 1_555
H13 C15 1_555 1_555
H14 C15 1_555 1_555
C1 C12 1_555 1_555
C4 C5 1_555 1_555
C5 C7 1_555 1_555
N2 C9 1_555 1_555
C8 C12 1_555 1_555
C11 C13 1_555 1_555

#END
