
#######################################################################
#
#                 Cambridge Crystallographic Data Centre
#                                CCDC 
#
#######################################################################
#
# If this CIF has been generated from an entry in the Cambridge 
# Structural Database, then it will include bibliographic, chemical, 
# crystal, experimental, refinement or atomic coordinate data resulting 
# from the CCDC's data processing and validation procedures.
#
#######################################################################

data_IWAWEK
_chemical_formula_moiety         'C9 H8 Br1 N3 O4'
_chemical_name_systematic        
'4-bromo-2,2-dimethyl-6-nitro-2H-benzimidazole 1,3-dioxide'
_chemical_properties_biological  
'tested for inhibitory activity in in vitro separase enzymatic assay'
_symmetry_cell_setting           orthorhombic
_symmetry_space_group_name_H-M   'P n a 21'
_symmetry_Int_Tables_number      33
_space_group_name_Hall           'P 2c -2n'
loop_
_symmetry_equiv_pos_site_id
_symmetry_equiv_pos_as_xyz
1 x,y,z
2 -x,-y,1/2+z
3 1/2-x,1/2+y,1/2+z
4 1/2+x,1/2-y,z
_cell_length_a                   16.9989(16)
_cell_length_b                   6.6526(64)
_cell_length_c                   9.495(9)
_cell_angle_alpha                90
_cell_angle_beta                 90
_cell_angle_gamma                90
_cell_volume                     1073.76
_exptl_crystal_colour            black
_exptl_crystal_description       block
_cell_formula_units_Z            4
loop_
_atom_site_label
_atom_site_type_symbol
_atom_site_fract_x
_atom_site_fract_y
_atom_site_fract_z
Br1 Br 0.37052(2) 0.89651(6) 0.02940(8)
N1 N 0.5672(2) 0.8963(5) 0.0684(4)
O1 O 0.4745(2) 1.7083(5) 0.3397(4)
C1 C 0.4399(3) 1.0837(7) 0.1128(5)
C2 C 0.5433(3) 1.3789(7) 0.2309(6)
H1 H 0.5767 1.4792 0.2697
O2 O 0.54595(17) 0.7277(4) 0.0164(5)
C3 C 0.5225(3) 1.0498(7) 0.1118(5)
C4 C 0.5730(3) 1.2024(7) 0.1703(5)
N2 N 0.4299(3) 1.5719(6) 0.3036(5)
O3 O 0.70921(16) 1.2382(5) 0.2000(4)
C5 C 0.4102(2) 1.2557(7) 0.1719(5)
H2 H 0.3551 1.2801 0.1736
N3 N 0.6480(2) 1.1437(5) 0.1593(4)
O4 O 0.35866(19) 1.5721(5) 0.3258(4)
C6 C 0.4638(3) 1.3970(6) 0.2305(5)
C7 C 0.6836(3) 0.7912(7) 0.2018(5)
H3 H 0.6467 0.7832 0.2810
H4 H 0.7351 0.8353 0.2360
H5 H 0.6885 0.6586 0.1578
C8 C 0.6980(3) 0.9449(7) -0.0395(5)
H6 H 0.7511 0.9963 -0.0221
H7 H 0.6709 1.0332 -0.1064
H8 H 0.7013 0.8090 -0.0788
C9 C 0.6533(3) 0.9392(7) 0.0954(5)
loop_
_geom_bond_atom_site_label_1
_geom_bond_atom_site_label_2
_geom_bond_site_symmetry_1
_geom_bond_site_symmetry_2
Br1 C1 1_555 1_555
N1 O2 1_555 1_555
O1 N2 1_555 1_555
C1 C3 1_555 1_555
C2 H1 1_555 1_555
C3 N1 1_555 1_555
C4 C2 1_555 1_555
N2 O4 1_555 1_555
O3 N3 1_555 1_555
C5 C1 1_555 1_555
H2 C5 1_555 1_555
N3 C4 1_555 1_555
C6 C2 1_555 1_555
C7 H3 1_555 1_555
H4 C7 1_555 1_555
H5 C7 1_555 1_555
C8 H6 1_555 1_555
H7 C8 1_555 1_555
H8 C8 1_555 1_555
C9 N1 1_555 1_555
C3 C4 1_555 1_555
N2 C6 1_555 1_555
C5 C6 1_555 1_555
N3 C9 1_555 1_555
C7 C9 1_555 1_555
C8 C9 1_555 1_555

#END
