
#######################################################################
#
#                 Cambridge Crystallographic Data Centre
#                                CCDC 
#
#######################################################################
#
# If this CIF has been generated from an entry in the Cambridge 
# Structural Database, then it will include bibliographic, chemical, 
# crystal, experimental, refinement or atomic coordinate data resulting 
# from the CCDC's data processing and validation procedures.
#
#######################################################################

data_IWAWAG
_chemical_formula_moiety         'C11 H13 F1 N2 O3'
_chemical_name_systematic        
'5-ethoxy-6-fluoro-2,2-dimethyl-2H-benzimidazole 1,3-dioxide'
_chemical_properties_biological  
'tested for inhibitory activity in in vitro separase enzymatic assay'
_symmetry_cell_setting           monoclinic
_symmetry_space_group_name_H-M   'P 21/c'
_symmetry_Int_Tables_number      14
_space_group_name_Hall           '-P 2ybc'
loop_
_symmetry_equiv_pos_site_id
_symmetry_equiv_pos_as_xyz
1 x,y,z
2 -x,1/2+y,1/2-z
3 -x,-y,-z
4 x,1/2-y,1/2+z
_cell_length_a                   9.854(1)
_cell_length_b                   14.409(2)
_cell_length_c                   7.968(1)
_cell_angle_alpha                90
_cell_angle_beta                 108.74000(94)
_cell_angle_gamma                90
_cell_volume                     1071.37
_exptl_crystal_colour            yellow
_exptl_crystal_description       block
_cell_formula_units_Z            4
loop_
_atom_site_label
_atom_site_type_symbol
_atom_site_fract_x
_atom_site_fract_y
_atom_site_fract_z
F1 F 0.85831(12) 0.07057(8) 0.12843(15)
O1 O 0.37535(15) 0.29165(9) 0.34542(18)
N1 N 0.41362(18) 0.21200(11) 0.3028(2)
O2 O 0.86515(15) 0.24602(9) 0.17635(18)
O3 O 0.37321(15) -0.03119(9) 0.23777(19)
C1 C 0.7496(2) 0.20486(13) 0.2001(2)
N2 N 0.41216(18) 0.05455(11) 0.2499(2)
C2 C 0.7459(2) 0.10525(14) 0.1708(3)
C3 C 0.5304(2) 0.18953(13) 0.2605(2)
C4 C 0.6431(2) 0.24731(14) 0.2461(2)
H1 H 0.6442 0.3122 0.2675
C5 C 0.5296(2) 0.09146(13) 0.2286(2)
C6 C 0.3221(2) 0.12812(13) 0.2923(3)
C7 C 0.6418(2) 0.04766(14) 0.1829(2)
H2 H 0.6434 -0.0172 0.1623
C8 C 0.8699(2) 0.34668(13) 0.1878(3)
H3 H 0.8830 0.3669 0.3108
H4 H 0.7794 0.3736 0.1090
C9 C 0.1851(2) 0.13684(14) 0.1373(3)
H5 H 0.1237 0.1844 0.1636
H6 H 0.1346 0.0772 0.1170
H7 H 0.2082 0.1546 0.0308
C10 C 0.3022(2) 0.10919(14) 0.4686(3)
H8 H 0.3961 0.1018 0.5593
H9 H 0.2463 0.0522 0.4609
H10 H 0.2512 0.1613 0.5003
C11 C 0.9944(2) 0.37820(14) 0.1314(3)
H11 H 1.0833 0.3515 0.2109
H12 H 1.0006 0.4461 0.1367
H13 H 0.9804 0.3575 0.0098
loop_
_geom_bond_atom_site_label_1
_geom_bond_atom_site_label_2
_geom_bond_site_symmetry_1
_geom_bond_site_symmetry_2
F1 C2 1_555 1_555
O1 N1 1_555 1_555
N1 C3 1_555 1_555
O2 C1 1_555 1_555
O3 N2 1_555 1_555
C1 C2 1_555 1_555
N2 C5 1_555 1_555
C2 C7 1_555 1_555
C3 C4 1_555 1_555
C4 C1 1_555 1_555
H1 C4 1_555 1_555
C5 C3 1_555 1_555
C6 N1 1_555 1_555
C7 C5 1_555 1_555
H2 C7 1_555 1_555
C8 O2 1_555 1_555
H3 C8 1_555 1_555
H4 C8 1_555 1_555
C9 C6 1_555 1_555
H5 C9 1_555 1_555
H6 C9 1_555 1_555
H7 C9 1_555 1_555
C10 C6 1_555 1_555
H8 C10 1_555 1_555
H9 C10 1_555 1_555
H10 C10 1_555 1_555
C11 C8 1_555 1_555
H11 C11 1_555 1_555
H12 C11 1_555 1_555
H13 C11 1_555 1_555
N2 C6 1_555 1_555

#END
