
#######################################################################
#
#                 Cambridge Crystallographic Data Centre
#                                CCDC 
#
#######################################################################
#
# If this CIF has been generated from an entry in the Cambridge 
# Structural Database, then it will include bibliographic, chemical, 
# crystal, experimental, refinement or atomic coordinate data resulting 
# from the CCDC's data processing and validation procedures.
#
#######################################################################

data_IWAXIP
_chemical_formula_moiety         'C19 H15 N2 P1 S1'
_chemical_name_systematic        
1-(2-(diphenylphosphino)-3-thienyl)-1H-imidazole
_symmetry_cell_setting           orthorhombic
_symmetry_space_group_name_H-M   'P c a 21'
_symmetry_Int_Tables_number      29
_space_group_name_Hall           'P 2c -2ac'
loop_
_symmetry_equiv_pos_site_id
_symmetry_equiv_pos_as_xyz
1 x,y,z
2 -x,-y,1/2+z
3 1/2+x,-y,z
4 1/2-x,y,1/2+z
_cell_length_a                   18.8043(5)
_cell_length_b                   5.9555(2)
_cell_length_c                   14.8202(4)
_cell_angle_alpha                90
_cell_angle_beta                 90
_cell_angle_gamma                90
_cell_volume                     1659.7
_exptl_crystal_colour            colorless
_exptl_crystal_description       block
_cell_formula_units_Z            4
loop_
_atom_site_label
_atom_site_type_symbol
_atom_site_fract_x
_atom_site_fract_y
_atom_site_fract_z
S1 S 0.46760(3) 0.19288(9) 0.23729(4)
P1 P 0.53101(3) 0.52775(8) 0.38022(4)
N1 N 0.64637(9) 0.5259(3) 0.22069(12)
N2 N 0.71216(11) 0.8318(3) 0.2341(2)
C1 C 0.43724(11) 0.5022(3) 0.41276(14)
C2 C 0.39365(13) 0.6822(4) 0.39133(17)
H1 H 0.4123 0.8040 0.3600
C3 C 0.32284(15) 0.6827(5) 0.4160(2)
H2 H 0.2940 0.8034 0.4002
C4 C 0.29469(13) 0.5061(5) 0.4636(2)
H3 H 0.2471 0.5079 0.4808
C5 C 0.33726(14) 0.3264(5) 0.4857(2)
H4 H 0.3183 0.2064 0.5178
C6 C 0.40858(12) 0.3229(4) 0.46018(16)
H5 H 0.4370 0.2005 0.4750
C7 C 0.57753(11) 0.3302(3) 0.45470(15)
C8 C 0.58530(14) 0.3944(4) 0.54477(18)
H6 H 0.5635 0.5247 0.5655
C9 C 0.62541(15) 0.2649(5) 0.6034(2)
H7 H 0.6294 0.3066 0.6637
C10 C 0.65927(15) 0.0748(5) 0.5729(2)
H8 H 0.6874 -0.0094 0.6119
C11 C 0.65143(15) 0.0106(4) 0.4851(2)
H9 H 0.6737 -0.1192 0.4647
C12 C 0.61059(13) 0.1369(4) 0.42602(17)
H10 H 0.6055 0.0905 0.3665
C13 C 0.53207(11) 0.3778(3) 0.27319(14)
C14 C 0.58520(11) 0.3882(3) 0.21037(14)
C15 C 0.57460(12) 0.2477(4) 0.13460(15)
H11 H 0.6063 0.2363 0.0866
C16 C 0.51321(13) 0.1323(4) 0.14014(17)
H12 H 0.4974 0.0318 0.0965
C17 C 0.71526(12) 0.4573(4) 0.2247(2)
H13 H 0.7320 0.3105 0.2216
C18 C 0.75420(14) 0.6453(4) 0.2342(3)
H14 H 0.8034 0.6478 0.2400
C19 C 0.64822(12) 0.7524(4) 0.2261(2)
H15 H 0.6078 0.8422 0.2244
loop_
_geom_bond_atom_site_label_1
_geom_bond_atom_site_label_2
_geom_bond_site_symmetry_1
_geom_bond_site_symmetry_2
S1 C13 1_555 1_555
P1 C1 1_555 1_555
N1 C14 1_555 1_555
N2 C18 1_555 1_555
C1 C2 1_555 1_555
C2 H1 1_555 1_555
C3 C2 1_555 1_555
H2 C3 1_555 1_555
C4 C3 1_555 1_555
H3 C4 1_555 1_555
C5 C4 1_555 1_555
H4 C5 1_555 1_555
C6 C1 1_555 1_555
H5 C6 1_555 1_555
C7 P1 1_555 1_555
C8 C7 1_555 1_555
H6 C8 1_555 1_555
C9 C8 1_555 1_555
H7 C9 1_555 1_555
C10 C9 1_555 1_555
H8 C10 1_555 1_555
C11 C10 1_555 1_555
H9 C11 1_555 1_555
C12 C7 1_555 1_555
H10 C12 1_555 1_555
C13 P1 1_555 1_555
C14 C13 1_555 1_555
C15 C14 1_555 1_555
H11 C15 1_555 1_555
C16 S1 1_555 1_555
H12 C16 1_555 1_555
C17 N1 1_555 1_555
H13 C17 1_555 1_555
C18 C17 1_555 1_555
H14 C18 1_555 1_555
C19 N1 1_555 1_555
H15 C19 1_555 1_555
N2 C19 1_555 1_555
C5 C6 1_555 1_555
C11 C12 1_555 1_555
C15 C16 1_555 1_555

#END
