
#######################################################################
#
#                 Cambridge Crystallographic Data Centre
#                                CCDC 
#
#######################################################################
#
# If this CIF has been generated from an entry in the Cambridge 
# Structural Database, then it will include bibliographic, chemical, 
# crystal, experimental, refinement or atomic coordinate data resulting 
# from the CCDC's data processing and validation procedures.
#
#######################################################################

data_IWEBOB01
_chemical_formula_moiety         'C15 H18 N4 O3'
_chemical_name_systematic        
2-(Dimethylamino)-4-(ethoxycarbonylmethoxy)-6-phenyl-1,3,5-triazine
_chemical_properties_biological  'good activity against tobacco mosaic virus'
_symmetry_cell_setting           triclinic
_symmetry_space_group_name_H-M   'P -1'
_symmetry_Int_Tables_number      2
_space_group_name_Hall           '-P 1'
loop_
_symmetry_equiv_pos_site_id
_symmetry_equiv_pos_as_xyz
1 x,y,z
2 -x,-y,-z
_cell_length_a                   7.977(2)
_cell_length_b                   10.394(3)
_cell_length_c                   10.837(3)
_cell_angle_alpha                111.774(5)
_cell_angle_beta                 104.050(5)
_cell_angle_gamma                99.446(5)
_cell_volume                     776.573
_exptl_crystal_colour            colorless
_chemical_melting_point          107-108deg.C
_cell_formula_units_Z            2
loop_
_atom_site_label
_atom_site_type_symbol
_atom_site_fract_x
_atom_site_fract_y
_atom_site_fract_z
O1 O 0.9984(3) 0.4558(2) 0.2471(2)
C1 C 0.6653(5) 0.6818(3) -0.0101(4)
O2 O 1.2170(3) 0.5479(3) 0.5129(2)
C2 C 0.7755(4) 0.0868(3) -0.2044(3)
O3 O 1.1818(3) 0.7694(2) 0.5680(2)
C3 C 0.7139(5) 0.0416(3) -0.3496(3)
N1 N 0.7070(3) 0.3142(3) -0.1581(3)
C4 C 0.7063(5) -0.0968(4) -0.4388(4)
N2 N 0.8245(3) 0.5044(3) 0.0769(3)
C5 C 0.7572(5) -0.1917(4) -0.3873(4)
N3 N 0.8854(3) 0.2772(3) 0.0302(3)
C6 C 0.8182(4) -0.1479(3) -0.2446(4)
N4 N 0.6469(4) 0.5345(3) -0.1068(3)
C7 C 0.8268(4) -0.0110(3) -0.1536(3)
C8 C 0.7888(4) 0.2346(3) -0.1063(3)
C9 C 1.0212(4) 0.6011(3) 0.3422(3)
C10 C 0.7274(4) 0.4486(3) -0.0627(3)
C11 C 1.1531(4) 0.6324(4) 0.4822(3)
C12 C 0.8965(4) 0.4128(3) 0.1114(3)
C13 C 1.2994(5) 0.8200(4) 0.7114(3)
C14 C 0.5403(5) 0.4854(4) -0.2546(3)
C15 C 1.3128(5) 0.9749(4) 0.7883(4)
loop_
_geom_bond_atom_site_label_1
_geom_bond_atom_site_label_2
_geom_bond_site_symmetry_1
_geom_bond_site_symmetry_2
O1 C9 1_555 1_555
C1 N4 1_555 1_555
O2 C11 1_555 1_555
C2 C3 1_555 1_555
O3 C11 1_555 1_555
C3 C4 1_555 1_555
N1 C8 1_555 1_555
C4 C5 1_555 1_555
N2 C10 1_555 1_555
C5 C6 1_555 1_555
N3 C8 1_555 1_555
C6 C7 1_555 1_555
N4 C10 1_555 1_555
C7 C2 1_555 1_555
C8 C2 1_555 1_555
C9 C11 1_555 1_555
C10 N1 1_555 1_555
C12 O1 1_555 1_555
C13 O3 1_555 1_555
C14 N4 1_555 1_555
C15 C13 1_555 1_555
N2 C12 1_555 1_555
N3 C12 1_555 1_555

#END
