
#######################################################################
#
#                 Cambridge Crystallographic Data Centre
#                                CCDC 
#
#######################################################################
#
# If this CIF has been generated from an entry in the Cambridge 
# Structural Database, then it will include bibliographic, chemical, 
# crystal, experimental, refinement or atomic coordinate data resulting 
# from the CCDC's data processing and validation procedures.
#
#######################################################################

data_IWEBIV
_chemical_formula_moiety         'C15 H15 N3 O2'
_chemical_name_systematic        
3,5-di(2-propenyl)-6-phenyl-1,3,5-triazine-2,4-dione
_symmetry_cell_setting           orthorhombic
_symmetry_space_group_name_H-M   'P b c a'
_symmetry_Int_Tables_number      61
_space_group_name_Hall           '-P 2ac 2ab'
loop_
_symmetry_equiv_pos_site_id
_symmetry_equiv_pos_as_xyz
1 x,y,z
2 1/2-x,-y,1/2+z
3 1/2+x,1/2-y,-z
4 -x,1/2+y,1/2-z
5 -x,-y,-z
6 1/2+x,y,1/2-z
7 1/2-x,1/2+y,z
8 x,1/2-y,1/2+z
_cell_length_a                   16.282(4)
_cell_length_b                   8.888(2)
_cell_length_c                   19.281(5)
_cell_angle_alpha                90
_cell_angle_beta                 90
_cell_angle_gamma                90
_cell_volume                     2790.24
_exptl_crystal_colour            colorless
_chemical_melting_point          105-106deg.C
_cell_formula_units_Z            8
_exptl_crystal_recrystallization_method 'ethyl acetate/petroleum ether'
loop_
_atom_site_label
_atom_site_type_symbol
_atom_site_fract_x
_atom_site_fract_y
_atom_site_fract_z
N1 N 0.6636(1) 0.0619(2) 0.4367(1)
N2 N 0.5598(1) 0.1607(2) 0.5087(1)
N3 N 0.6315(1) -0.0609(2) 0.5406(1)
O1 O 0.7330(1) -0.1475(2) 0.4711(1)
O2 O 0.5390(1) 0.0471(2) 0.6130(1)
C1 C 0.6793(2) -0.0568(3) 0.4823(1)
C2 C 0.6032(1) 0.1638(3) 0.4518(1)
C3 C 0.5745(1) 0.0505(3) 0.5576(1)
C4 C 0.7235(1) 0.0791(3) 0.3801(1)
C5 C 0.7113(2) -0.0259(3) 0.3204(1)
C6 C 0.6492(2) -0.1137(3) 0.3094(2)
C7 C 0.6465(2) -0.1837(3) 0.5905(1)
C8 C 0.7103(3) -0.1398(4) 0.6423(2)
C9 C 0.7820(3) -0.1817(6) 0.6453(2)
C10 C 0.5830(1) 0.2877(3) 0.4027(1)
C11 C 0.5656(1) 0.4282(3) 0.4304(1)
C12 C 0.5420(2) 0.5456(3) 0.3884(2)
C13 C 0.5351(2) 0.5231(3) 0.3179(2)
C14 C 0.5506(2) 0.3849(3) 0.2896(2)
C15 C 0.5747(1) 0.2674(3) 0.3319(1)
loop_
_geom_bond_atom_site_label_1
_geom_bond_atom_site_label_2
_geom_bond_site_symmetry_1
_geom_bond_site_symmetry_2
N1 C1 1_555 1_555
N2 C2 1_555 1_555
N3 C1 1_555 1_555
O1 C1 1_555 1_555
O2 C3 1_555 1_555
C2 N1 1_555 1_555
C3 N2 1_555 1_555
C4 N1 1_555 1_555
C5 C4 1_555 1_555
C6 C5 1_555 1_555
C7 N3 1_555 1_555
C8 C7 1_555 1_555
C9 C8 1_555 1_555
C10 C2 1_555 1_555
C11 C10 1_555 1_555
C12 C11 1_555 1_555
C13 C12 1_555 1_555
C14 C13 1_555 1_555
C15 C10 1_555 1_555
N3 C3 1_555 1_555
C14 C15 1_555 1_555

#END
