
#######################################################################
#
#                 Cambridge Crystallographic Data Centre
#                                CCDC 
#
#######################################################################
#
# If this CIF has been generated from an entry in the Cambridge 
# Structural Database, then it will include bibliographic, chemical, 
# crystal, experimental, refinement or atomic coordinate data resulting 
# from the CCDC's data processing and validation procedures.
#
#######################################################################

data_IWEDIZ
_chemical_formula_moiety         'C39 H41 N7 O8'
_chemical_name_systematic        
3,3'-((2-((2-allyl-1,3-dioxo-2,3-dihydro-1H-benzo[de]isoquinolin-6-yl)amino)ethyl)imino)bis(N'-(2-hydroxy-3-methoxybenzylidene)propanehydrazide)
_symmetry_cell_setting           monoclinic
_symmetry_space_group_name_H-M   'P 21/c'
_symmetry_Int_Tables_number      14
_space_group_name_Hall           '-P 2ybc'
loop_
_symmetry_equiv_pos_site_id
_symmetry_equiv_pos_as_xyz
1 x,y,z
2 -x,1/2+y,1/2-z
3 -x,-y,-z
4 x,1/2-y,1/2+z
_cell_length_a                   18.132(7)
_cell_length_b                   15.592(6)
_cell_length_c                   14.359(6)
_cell_angle_alpha                90
_cell_angle_beta                 112.644(7)
_cell_angle_gamma                90
_cell_volume                     3746.57
_exptl_crystal_description       block
_cell_formula_units_Z            4
loop_
_atom_site_label
_atom_site_type_symbol
_atom_site_fract_x
_atom_site_fract_y
_atom_site_fract_z
O1 O 0.01800(15) 0.33548(16) 0.1416(2)
O2 O 0.23703(15) 0.34607(17) 0.1488(2)
H1 H 0.1983 0.3527 0.1643
N1 N 0.04172(17) 0.16624(19) 0.3791(2)
H2 H 0.0507 0.2121 0.3519
C1 C 0.22833(19) 0.0446(2) 0.4235(3)
N2 N -0.09506(14) 0.24477(17) 0.2342(2)
C2 C 0.2953(2) 0.0456(2) 0.3956(3)
N3 N -0.0061(2) 0.16133(19) 0.0714(2)
H3 H -0.0088 0.2150 0.0565
O3 O 0.14016(17) -0.02393(17) 0.1312(3)
H4 H 0.1407 -0.0749 0.1176
N4 N 0.0602(2) 0.11418(19) 0.0810(2)
N5 N 0.15841(18) 0.40949(18) 0.2515(3)
C3 C 0.1009(2) 0.1060(2) 0.4158(3)
O4 O 0.41165(17) -0.02749(18) 0.4021(3)
C4 C 0.2206(2) -0.0219(2) 0.4860(3)
C5 C 0.1974(2) 0.0174(3) 0.1114(3)
N6 N 0.09254(18) 0.4149(2) 0.2758(3)
H5 H 0.0952 0.4422 0.3291
C6 C -0.0359(2) 0.1545(2) 0.3849(3)
H6 H -0.0294 0.1490 0.4549
H7 H -0.0604 0.1023 0.3498
C7 C 0.1704(2) 0.1102(2) 0.3905(3)
C8 C 0.0966(2) 0.0406(2) 0.4788(3)
H8 H 0.0532 0.0383 0.4981
C9 C 0.2971(2) 0.3973(3) 0.2063(4)
C10 C -0.0886(2) 0.2294(2) 0.3382(3)
H9 H -0.1414 0.2190 0.3379
H10 H -0.0672 0.2803 0.3785
C11 C 0.0236(2) 0.3775(2) 0.2161(3)
C12 C 0.1837(2) 0.1782(2) 0.3327(3)
H11 H 0.1467 0.2225 0.3100
C13 C 0.1558(2) -0.0213(2) 0.5137(3)
H12 H 0.1516 -0.0637 0.5571
C14 C 0.1890(2) 0.1031(3) 0.0767(3)
O5 O -0.06440(17) 0.04524(17) 0.1083(2)
C15 C 0.3051(2) 0.1113(2) 0.3390(3)
H13 H 0.3485 0.1112 0.3196
C16 C 0.2506(2) 0.1787(2) 0.3101(3)
H14 H 0.2597 0.2248 0.2750
C17 C 0.3541(2) -0.0240(3) 0.4273(3)
O6 O 0.36550(17) 0.3410(2) 0.1113(3)
C18 C -0.0673(2) 0.1215(3) 0.0857(3)
N7 N 0.3439(2) -0.0866(2) 0.4900(3)
C19 C 0.1183(3) 0.1508(3) 0.0656(3)
H15 H 0.1144 0.2083 0.0472
C20 C 0.2508(3) 0.1429(3) 0.0587(4)
H16 H 0.2455 0.1994 0.0362
C21 C -0.1405(2) 0.1747(3) 0.0676(3)
H17 H -0.1866 0.1467 0.0177
H18 H -0.1342 0.2302 0.0409
O7 O 0.27151(19) -0.1077(2) 0.1660(3)
C22 C 0.3205(3) 0.0979(5) 0.0745(5)
H19 H 0.3615 0.1241 0.0612
C23 C 0.3676(3) 0.3962(3) 0.1870(4)
C24 C 0.2799(2) -0.0896(3) 0.5220(4)
C25 C 0.2924(2) 0.4490(3) 0.2827(4)
C26 C -0.1549(2) 0.1875(2) 0.1633(3)
H20 H -0.2077 0.2117 0.1468
H21 H -0.1532 0.1324 0.1953
C27 C 0.3297(3) 0.0136(4) 0.1101(5)
H22 H 0.3769 -0.0158 0.1212
C28 C 0.2686(3) -0.0262(3) 0.1289(4)
C29 C 0.3580(3) 0.5013(4) 0.3376(5)
H23 H 0.3551 0.5366 0.3883
C30 C 0.4361(3) 0.3307(4) 0.0920(5)
H24 H 0.4517 0.3851 0.0741
H25 H 0.4263 0.2910 0.0374
H26 H 0.4782 0.3091 0.1514
C31 C 0.4294(3) 0.4498(4) 0.2409(6)
H27 H 0.4748 0.4518 0.2256
C32 C 0.4254(4) 0.5011(5) 0.3181(7)
H28 H 0.4687 0.5351 0.3560
C33 C 0.3383(3) -0.1571(4) 0.1824(6)
H29 H 0.3514 -0.1553 0.1238
H30 H 0.3276 -0.2153 0.1953
H31 H 0.3823 -0.1353 0.2395
C34 C 0.2203(2) 0.4507(3) 0.3045(4)
H32 H 0.2199 0.4828 0.3589
C35 C -0.11469(19) 0.3340(2) 0.2030(3)
H33 H -0.1580 0.3524 0.2221
H34 H -0.1335 0.3372 0.1300
C36 C -0.0450(2) 0.3947(2) 0.2487(3)
H35 H -0.0637 0.4529 0.2301
H36 H -0.0256 0.3905 0.3216
O8 O 0.27461(19) -0.1498(2) 0.5735(3)
C37 C 0.4597(6) -0.1521(8) 0.6020(9)
H37 H 0.4697 -0.0983 0.6323
C38 C 0.3933(6) -0.1677(8) 0.5036(9)
H38 H 0.3628 -0.2182 0.5060
H39 H 0.4128 -0.1744 0.4499
C39 C 0.5084(7) -0.2269(8) 0.6482(13)
H40 H 0.5226 -0.2404 0.7182
H41 H 0.5322 -0.2595 0.6102
C40? C 0.4168(12) -0.1412(12) 0.5486(17)
H42? H 0.4180 -0.1549 0.6151
H43? H 0.4656 -0.1112 0.5563
C41? C 0.4077(7) -0.2234(8) 0.4852(11)
H44? H 0.3698 -0.2299 0.4199
C42? C 0.4621(10) -0.2867(12) 0.5363(15)
H45? H 0.5176 -0.2806 0.5480
H46? H 0.4437 -0.3409 0.5510
loop_
_geom_bond_atom_site_label_1
_geom_bond_atom_site_label_2
_geom_bond_site_symmetry_1
_geom_bond_site_symmetry_2
O1 C11 1_555 1_555
O2 H1 1_555 1_555
N1 H2 1_555 1_555
C1 C2 1_555 1_555
N2 C10 1_555 1_555
C2 C15 1_555 1_555
N3 H3 1_555 1_555
O3 H4 1_555 1_555
N4 N3 1_555 1_555
N5 N6 1_555 1_555
C3 N1 1_555 1_555
O4 C17 1_555 1_555
C4 C1 1_555 1_555
C5 O3 1_555 1_555
N6 H5 1_555 1_555
C6 N1 1_555 1_555
H6 C6 1_555 1_555
H7 C6 1_555 1_555
C7 C1 1_555 1_555
C8 C3 1_555 1_555
H8 C8 1_555 1_555
C9 O2 1_555 1_555
C10 C6 1_555 1_555
H9 C10 1_555 1_555
H10 C10 1_555 1_555
C11 N6 1_555 1_555
C12 C7 1_555 1_555
H11 C12 1_555 1_555
C13 C4 1_555 1_555
H12 C13 1_555 1_555
C14 C5 1_555 1_555
O5 C18 1_555 1_555
C15 H13 1_555 1_555
C16 C12 1_555 1_555
H14 C16 1_555 1_555
C17 C2 1_555 1_555
O6 C23 1_555 1_555
C18 N3 1_555 1_555
N7 C17 1_555 1_555
C19 N4 1_555 1_555
H15 C19 1_555 1_555
C20 C14 1_555 1_555
H16 C20 1_555 1_555
C21 C18 1_555 1_555
H17 C21 1_555 1_555
H18 C21 1_555 1_555
O7 C28 1_555 1_555
C22 C20 1_555 1_555
H19 C22 1_555 1_555
C23 C9 1_555 1_555
C24 C4 1_555 1_555
C25 C9 1_555 1_555
C26 N2 1_555 1_555
H20 C26 1_555 1_555
H21 C26 1_555 1_555
C27 C22 1_555 1_555
H22 C27 1_555 1_555
C28 C5 1_555 1_555
C29 C25 1_555 1_555
H23 C29 1_555 1_555
C30 O6 1_555 1_555
H24 C30 1_555 1_555
H25 C30 1_555 1_555
H26 C30 1_555 1_555
C31 C23 1_555 1_555
H27 C31 1_555 1_555
C32 C29 1_555 1_555
H28 C32 1_555 1_555
C33 O7 1_555 1_555
H29 C33 1_555 1_555
H30 C33 1_555 1_555
H31 C33 1_555 1_555
C34 N5 1_555 1_555
H32 C34 1_555 1_555
C35 N2 1_555 1_555
H33 C35 1_555 1_555
H34 C35 1_555 1_555
C36 C11 1_555 1_555
H35 C36 1_555 1_555
H36 C36 1_555 1_555
O8 C24 1_555 1_555
C37 H37 1_555 1_555
C38 N7 1_555 1_555
H38 C38 1_555 1_555
H39 C38 1_555 1_555
C39 C37 1_555 1_555
H40 C39 1_555 1_555
H41 C39 1_555 1_555
C3 C7 1_555 1_555
C8 C13 1_555 1_555
C14 C19 1_555 1_555
C15 C16 1_555 1_555
N7 C24 1_555 1_555
C21 C26 1_555 1_555
C25 C34 1_555 1_555
C27 C28 1_555 1_555
C31 C32 1_555 1_555
C35 C36 1_555 1_555
C37 C38 1_555 1_555

#END
