
#######################################################################
#
#                 Cambridge Crystallographic Data Centre
#                                CCDC 
#
#######################################################################
#
# If this CIF has been generated from an entry in the Cambridge 
# Structural Database, then it will include bibliographic, chemical, 
# crystal, experimental, refinement or atomic coordinate data resulting 
# from the CCDC's data processing and validation procedures.
#
#######################################################################

data_IWEFIB
_chemical_formula_moiety         'C21 H20 N4 O6'
_chemical_name_systematic        
hexahydro-1H-pyrrolo[3,2-c]pyridine-1,5(4H)-diylbis((4-nitrophenyl)methanone)
_chemical_properties_biological  'protein methyltransferase activity tested'
_symmetry_cell_setting           monoclinic
_symmetry_space_group_name_H-M   'C c'
_symmetry_Int_Tables_number      9
_space_group_name_Hall           'C -2yc'
loop_
_symmetry_equiv_pos_site_id
_symmetry_equiv_pos_as_xyz
1 x,y,z
2 x,-y,1/2+z
3 1/2+x,1/2+y,z
4 1/2+x,1/2-y,1/2+z
_cell_length_a                   11.6541(4)
_cell_length_b                   22.2547(9)
_cell_length_c                   7.4256(3)
_cell_angle_alpha                90
_cell_angle_beta                 92.116(3)
_cell_angle_gamma                90
_cell_volume                     1924.58
_cell_formula_units_Z            4
loop_
_atom_site_label
_atom_site_type_symbol
_atom_site_fract_x
_atom_site_fract_y
_atom_site_fract_z
C1 C 0.9700(6) 0.3012(3) 0.1818(12)
C2 C 0.9244(7) 0.2696(3) 0.3225(11)
H1 H 0.9730 0.2495 0.4084
C3 C 0.8075(7) 0.2680(3) 0.3354(10)
H2 H 0.7750 0.2471 0.4329
C4 C 0.7360(7) 0.2962(3) 0.2084(12)
C5 C 0.7856(8) 0.3266(3) 0.0657(11)
H3 H 0.7377 0.3453 -0.0240
C6 C 0.9023(7) 0.3296(3) 0.0541(11)
H4 H 0.9357 0.3511 -0.0412
C7 C 0.6094(7) 0.2881(4) 0.2219(10)
C8 C 0.4149(6) 0.3283(3) 0.2353(10)
H5 H 0.3936 0.2865 0.2028
H6 H 0.3730 0.3558 0.1511
C9 C 0.3813(6) 0.3413(3) 0.4266(10)
H7 H 0.4170 0.3109 0.5083
H8 H 0.2970 0.3377 0.4339
C10 C 0.4185(6) 0.4038(3) 0.4897(11)
H9 H 0.3663 0.4351 0.4348
C11 C 0.5434(6) 0.4171(3) 0.4457(10)
H10 H 0.5553 0.4615 0.4579
C12 C 0.5771(7) 0.3993(3) 0.2575(10)
H11 H 0.5410 0.4271 0.1679
H12 H 0.6615 0.4022 0.2483
C13 C 0.6115(6) 0.3866(3) 0.6027(10)
H13 H 0.6176 0.3427 0.5835
H14 H 0.6896 0.4038 0.6184
C14 C 0.5392(6) 0.4007(3) 0.7627(10)
H15 H 0.5418 0.3671 0.8500
H16 H 0.5672 0.4376 0.8245
C15 C 0.3436(7) 0.4354(3) 0.7872(14)
C16 C 0.2259(6) 0.4461(4) 0.7055(10)
C17 C 0.1828(7) 0.5037(4) 0.6757(11)
H17 H 0.2295 0.5375 0.7064
C18 C 0.0744(7) 0.5127(4) 0.6030(9)
H18 H 0.0457 0.5522 0.5838
C19 C 0.0084(7) 0.4639(3) 0.5586(11)
C20 C 0.0459(7) 0.4067(4) 0.5909(10)
H19 H -0.0027 0.3736 0.5621
C21 C 0.1553(8) 0.3971(3) 0.6660(10)
H20 H 0.1816 0.3574 0.6901
N1 N 1.0943(6) 0.3036(3) 0.1658(9)
N2 N 0.5386(5) 0.3365(3) 0.2193(7)
N3 N 0.4229(5) 0.4093(3) 0.6893(9)
N4 N -0.1031(6) 0.4735(4) 0.4691(9)
O1 O 1.1517(4) 0.2630(2) 0.2421(8)
O2 O 1.1377(4) 0.3441(2) 0.0856(7)
O3 O 0.5693(4) 0.2369(2) 0.2304(7)
O4 O 0.3678(4) 0.4513(2) 0.9456(8)
O5 O -0.1422(5) 0.5235(3) 0.4536(8)
O6 O -0.1542(5) 0.4289(3) 0.4097(8)
loop_
_geom_bond_atom_site_label_1
_geom_bond_atom_site_label_2
_geom_bond_site_symmetry_1
_geom_bond_site_symmetry_2
C1 C2 1_555 1_555
C2 H1 1_555 1_555
C3 C2 1_555 1_555
H2 C3 1_555 1_555
C4 C3 1_555 1_555
C5 C4 1_555 1_555
H3 C5 1_555 1_555
C6 C1 1_555 1_555
H4 C6 1_555 1_555
C7 C4 1_555 1_555
C8 H5 1_555 1_555
H6 C8 1_555 1_555
C9 C8 1_555 1_555
H7 C9 1_555 1_555
H8 C9 1_555 1_555
C10 C9 1_555 1_555
H9 C10 1_555 1_555
C11 C10 1_555 1_555
H10 C11 1_555 1_555
C12 C11 1_555 1_555
H11 C12 1_555 1_555
H12 C12 1_555 1_555
C13 C11 1_555 1_555
H13 C13 1_555 1_555
H14 C13 1_555 1_555
C14 C13 1_555 1_555
H15 C14 1_555 1_555
H16 C14 1_555 1_555
C15 C16 1_555 1_555
C16 C17 1_555 1_555
C17 H17 1_555 1_555
C18 C17 1_555 1_555
H18 C18 1_555 1_555
C19 C18 1_555 1_555
C20 C19 1_555 1_555
H19 C20 1_555 1_555
C21 C16 1_555 1_555
H20 C21 1_555 1_555
N1 C1 1_555 1_555
N2 C7 1_555 1_555
N3 C10 1_555 1_555
N4 C19 1_555 1_555
O1 N1 1_555 1_555
O2 N1 1_555 1_555
O3 C7 1_555 1_555
O4 C15 1_555 1_555
O5 N4 1_555 1_555
O6 N4 1_555 1_555
C5 C6 1_555 1_555
C8 N2 1_555 1_555
C12 N2 1_555 1_555
C14 N3 1_555 1_555
C15 N3 1_555 1_555
C20 C21 1_555 1_555

#END
