
#######################################################################
#
#                 Cambridge Crystallographic Data Centre
#                                CCDC 
#
#######################################################################
#
# If this CIF has been generated from an entry in the Cambridge 
# Structural Database, then it will include bibliographic, chemical, 
# crystal, experimental, refinement or atomic coordinate data resulting 
# from the CCDC's data processing and validation procedures.
#
#######################################################################

data_IWEHIB
_chemical_formula_moiety         'C9 H22 N3 O1 1+,B1 F4 1-'
_chemical_name_systematic        
"N'-t-butylaminocarbonyl-2-(N,N-dimethylammonio)ethylamine tetrafluoroborate"
_symmetry_cell_setting           orthorhombic
_symmetry_space_group_name_H-M   'P b c a'
_symmetry_Int_Tables_number      61
_space_group_name_Hall           '-P 2ac 2ab'
loop_
_symmetry_equiv_pos_site_id
_symmetry_equiv_pos_as_xyz
1 x,y,z
2 1/2-x,-y,1/2+z
3 -x,1/2+y,1/2-z
4 1/2+x,1/2-y,-z
5 -x,-y,-z
6 1/2+x,y,1/2-z
7 x,1/2-y,1/2+z
8 1/2-x,1/2+y,z
_cell_length_a                   8.2346(7)
_cell_length_b                   9.6007(8)
_cell_length_c                   35.983(3)
_cell_angle_alpha                90
_cell_angle_beta                 90
_cell_angle_gamma                90
_cell_volume                     2844.74
_exptl_crystal_colour            blue
_exptl_crystal_description       plate
_cell_formula_units_Z            8
loop_
_atom_site_label
_atom_site_type_symbol
_atom_site_fract_x
_atom_site_fract_y
_atom_site_fract_z
C1 C -0.0623(3) 0.2856(2) 0.31905(7)
H1 H 0.0157 0.3618 0.3159
H2 H -0.0920 0.2776 0.3453
H3 H -0.1597 0.3049 0.3043
C2 C 0.0143(2) 0.1496(2) 0.30600(5)
C3 C -0.1110(3) 0.0329(2) 0.30781(7)
H4 H -0.0610 -0.0546 0.2997
H5 H -0.2025 0.0553 0.2915
H6 H -0.1500 0.0230 0.3334
C4 C 0.0796(3) 0.1644(3) 0.26658(6)
H7 H 0.1227 0.0746 0.2582
H8 H 0.1664 0.2342 0.2662
H9 H -0.0083 0.1939 0.2500
N1 N 0.14815(19) 0.10410(17) 0.33055(5)
H19 H 0.1491 0.0115 0.3369
C9 C 0.2720(2) 0.18254(19) 0.34283(5)
O1 O 0.29377(16) 0.30597(13) 0.33451(4)
N2 N 0.37489(18) 0.11554(16) 0.36730(4)
H20 H 0.3573 0.0230 0.3682
C10 C 0.5355(2) 0.1738(2) 0.37406(5)
H21 H 0.5813 0.2074 0.3503
H22 H 0.6077 0.0996 0.3836
C11 C 0.5324(2) 0.2931(2) 0.40164(5)
H23 H 0.6453 0.3200 0.4078
H24 H 0.4790 0.3746 0.3900
N3 N 0.4447(2) 0.25667(16) 0.43660(4)
H25 H 0.3449 0.2289 0.4309
C12 C 0.5198(3) 0.1374(2) 0.45676(6)
H26 H 0.4624 0.1224 0.4803
H27 H 0.6342 0.1580 0.4618
H28 H 0.5120 0.0532 0.4415
C13 C 0.4301(3) 0.3799(2) 0.46135(6)
H29 H 0.3676 0.3547 0.4835
H30 H 0.3744 0.4552 0.4481
H31 H 0.5387 0.4112 0.4688
B1 B -0.0063(3) 0.2507(2) 0.43313(6)
F1 F 0.11652(15) 0.19668(13) 0.45594(4)
F2 F -0.08254(15) 0.14440(12) 0.41403(3)
F3 F 0.06747(18) 0.34421(13) 0.40881(3)
F4 F -0.11923(14) 0.31989(12) 0.45520(3)
C5? C -0.081(3) 0.213(2) 0.3216(5)
H10? H -0.1206 0.1453 0.3398
H11? H -0.1705 0.2435 0.3057
H12? H -0.0347 0.2936 0.3346
C6? C 0.0507(16) 0.1453(16) 0.2976(3)
C7? C -0.020(3) 0.0171(17) 0.2783(6)
H13? H 0.0615 -0.0228 0.2615
H14? H -0.1161 0.0442 0.2640
H15? H -0.0507 -0.0523 0.2970
C8? C 0.108(2) 0.250(2) 0.2683(5)
H16? H 0.2013 0.2108 0.2549
H17? H 0.1398 0.3367 0.2805
H18? H 0.0196 0.2678 0.2507
loop_
_geom_bond_atom_site_label_1
_geom_bond_atom_site_label_2
_geom_bond_site_symmetry_1
_geom_bond_site_symmetry_2
C1 H1 1_555 1_555
H2 C1 1_555 1_555
H3 C1 1_555 1_555
C2 C1 1_555 1_555
C3 C2 1_555 1_555
H4 C3 1_555 1_555
H5 C3 1_555 1_555
H6 C3 1_555 1_555
C4 C2 1_555 1_555
H7 C4 1_555 1_555
H8 C4 1_555 1_555
H9 C4 1_555 1_555
N1 C2 1_555 1_555
H19 N1 1_555 1_555
C9 N1 1_555 1_555
O1 C9 1_555 1_555
N2 C9 1_555 1_555
H20 N2 1_555 1_555
C10 N2 1_555 1_555
H21 C10 1_555 1_555
H22 C10 1_555 1_555
C11 C10 1_555 1_555
H23 C11 1_555 1_555
H24 C11 1_555 1_555
N3 C11 1_555 1_555
H25 N3 1_555 1_555
C12 N3 1_555 1_555
H26 C12 1_555 1_555
H27 C12 1_555 1_555
H28 C12 1_555 1_555
C13 N3 1_555 1_555
H29 C13 1_555 1_555
H30 C13 1_555 1_555
H31 C13 1_555 1_555
B1 F1 1_555 1_555
F2 B1 1_555 1_555
F3 B1 1_555 1_555
F4 B1 1_555 1_555

#END
