
#######################################################################
#
#                 Cambridge Crystallographic Data Centre
#                                CCDC 
#
#######################################################################
#
# If this CIF has been generated from an entry in the Cambridge 
# Structural Database, then it will include bibliographic, chemical, 
# crystal, experimental, refinement or atomic coordinate data resulting 
# from the CCDC's data processing and validation procedures.
#
#######################################################################

data_IWEQAE
_chemical_formula_moiety         'C19 H28 O3'
_chemical_name_systematic        
(1R,3aR,4R,5S,9bR)-1-isopropyl-6-methoxy-3a,8-dimethyl-2,3,3a,4,5,9b-hexahydro-1H-cyclopenta[a]naphthalene-4,5-diol
_symmetry_cell_setting           monoclinic
_symmetry_space_group_name_H-M   'P 21'
_symmetry_Int_Tables_number      4
_space_group_name_Hall           'P 2yb'
loop_
_symmetry_equiv_pos_site_id
_symmetry_equiv_pos_as_xyz
1 x,y,z
2 -x,1/2+y,-z
_cell_length_a                   8.4987(7)
_cell_length_b                   7.2144(6)
_cell_length_c                   14.2180(11)
_cell_angle_alpha                90
_cell_angle_beta                 94.133(2)
_cell_angle_gamma                90
_cell_volume                     869.482
_exptl_crystal_colour            colorless
_exptl_crystal_description       block
_cell_formula_units_Z            2
loop_
_atom_site_label
_atom_site_type_symbol
_atom_site_fract_x
_atom_site_fract_y
_atom_site_fract_z
O1 O 0.78395(17) 0.3421(2) 0.49284(10)
O2 O 0.50958(15) 0.1345(2) 0.59385(11)
H1 H 0.4844 0.1883 0.5442
O3 O 0.54227(19) -0.2435(2) 0.59096(10)
H2 H 0.4643 -0.1781 0.5794
C1 C 0.9978(2) 0.2378(3) 0.75589(15)
H3 H 1.0473 0.2093 0.8146
C2 C 1.0623(2) 0.3735(3) 0.70271(16)
C3 C 0.9888(2) 0.4156(3) 0.61443(16)
H4 H 1.0287 0.5092 0.5780
C4 C 0.8570(2) 0.3182(3) 0.58136(14)
C5 C 0.7929(2) 0.1775(3) 0.63508(13)
C6 C 0.8607(2) 0.1405(3) 0.72545(13)
C7 C 0.7964(2) -0.0063(3) 0.78935(13)
H5 H 0.8846 -0.0844 0.8136
C8 C 0.6653(2) -0.1352(3) 0.74207(13)
C9 C 0.6678(2) -0.1335(3) 0.63436(13)
H6 H 0.7669 -0.1921 0.6191
C10 C 0.6642(2) 0.0570(3) 0.58984(14)
H7 H 0.6842 0.0421 0.5232
C11 C 0.5081(3) -0.0590(4) 0.77584(15)
H8 H 0.4345 -0.0315 0.7223
H9 H 0.4602 -0.1490 0.8156
C12 C 0.5504(3) 0.1156(3) 0.83079(15)
H10 H 0.4766 0.1384 0.8785
H11 H 0.5519 0.2224 0.7894
C13 C 0.7136(3) 0.0733(3) 0.87529(15)
H12 H 0.7002 -0.0325 0.9172
C14 C 0.7958(3) 0.2229(3) 0.93742(15)
H13 H 0.8328 0.3204 0.8964
C15 C 0.6816(4) 0.3098(4) 1.0032(2)
H14 H 0.5923 0.3599 0.9665
H15 H 0.7343 0.4072 1.0391
H16 H 0.6467 0.2169 1.0453
C16 C 0.9384(4) 0.1445(4) 0.99626(19)
H17 H 0.9879 0.2416 1.0339
H18 H 1.0125 0.0947 0.9551
H19 H 0.9042 0.0481 1.0367
C17 C 0.6926(3) -0.3352(3) 0.77634(17)
H20 H 0.7903 -0.3804 0.7551
H21 H 0.6075 -0.4122 0.7513
H22 H 0.6972 -0.3382 0.8440
C18 C 0.8544(3) 0.4678(5) 0.4316(2)
H23 H 0.7922 0.4733 0.3726
H24 H 0.9590 0.4263 0.4211
H25 H 0.8595 0.5887 0.4598
C19 C 1.2122(3) 0.4742(5) 0.7365(2)
H26 H 1.2473 0.4309 0.7984
H27 H 1.1920 0.6049 0.7388
H28 H 1.2925 0.4504 0.6939
loop_
_geom_bond_atom_site_label_1
_geom_bond_atom_site_label_2
_geom_bond_site_symmetry_1
_geom_bond_site_symmetry_2
O1 C4 1_555 1_555
O2 H1 1_555 1_555
O3 H2 1_555 1_555
C1 H3 1_555 1_555
C2 C1 1_555 1_555
C3 C2 1_555 1_555
H4 C3 1_555 1_555
C4 C3 1_555 1_555
C5 C4 1_555 1_555
C6 C1 1_555 1_555
C7 C6 1_555 1_555
H5 C7 1_555 1_555
C8 C7 1_555 1_555
C9 O3 1_555 1_555
H6 C9 1_555 1_555
C10 O2 1_555 1_555
H7 C10 1_555 1_555
C11 C8 1_555 1_555
H8 C11 1_555 1_555
H9 C11 1_555 1_555
C12 C11 1_555 1_555
H10 C12 1_555 1_555
H11 C12 1_555 1_555
C13 C7 1_555 1_555
H12 C13 1_555 1_555
C14 C13 1_555 1_555
H13 C14 1_555 1_555
C15 C14 1_555 1_555
H14 C15 1_555 1_555
H15 C15 1_555 1_555
H16 C15 1_555 1_555
C16 C14 1_555 1_555
H17 C16 1_555 1_555
H18 C16 1_555 1_555
H19 C16 1_555 1_555
C17 C8 1_555 1_555
H20 C17 1_555 1_555
H21 C17 1_555 1_555
H22 C17 1_555 1_555
C18 O1 1_555 1_555
H23 C18 1_555 1_555
H24 C18 1_555 1_555
H25 C18 1_555 1_555
C19 C2 1_555 1_555
H26 C19 1_555 1_555
H27 C19 1_555 1_555
H28 C19 1_555 1_555
C5 C6 1_555 1_555
C5 C10 1_555 1_555
C8 C9 1_555 1_555
C9 C10 1_555 1_555
C12 C13 1_555 1_555

#END
