
#######################################################################
#
#                 Cambridge Crystallographic Data Centre
#                                CCDC 
#
#######################################################################
#
# If this CIF has been generated from an entry in the Cambridge 
# Structural Database, then it will include bibliographic, chemical, 
# crystal, experimental, refinement or atomic coordinate data resulting 
# from the CCDC's data processing and validation procedures.
#
#######################################################################

data_IWEQEI
_chemical_formula_moiety         'C20 H28 O3'
_chemical_name_systematic        
4-hydroxy-1-isopropyl-7-methoxy-3a,9-dimethyl-2,3,3a,4,5,10b-hexahydrobenzo[e]azulen-6(1H)-one
_symmetry_cell_setting           triclinic
_symmetry_space_group_name_H-M   'P -1'
_symmetry_Int_Tables_number      2
_space_group_name_Hall           '-P 1'
loop_
_symmetry_equiv_pos_site_id
_symmetry_equiv_pos_as_xyz
1 x,y,z
2 -x,-y,-z
_cell_length_a                   7.262(3)
_cell_length_b                   8.265(3)
_cell_length_c                   14.624(5)
_cell_angle_alpha                82.067(14)
_cell_angle_beta                 82.939(17)
_cell_angle_gamma                75.545(11)
_cell_volume                     838.23
_exptl_crystal_colour            colorless
_exptl_crystal_description       block
_cell_formula_units_Z            2
loop_
_atom_site_label
_atom_site_type_symbol
_atom_site_fract_x
_atom_site_fract_y
_atom_site_fract_z
O1 O 0.2916(3) 0.7398(3) 0.50219(18)
O2 O 0.4265(4) 0.8713(3) 0.3075(2)
O3 O -0.2150(4) 0.9544(3) 0.2412(2)
H1 H -0.3103 0.9172 0.2640
C1 C 0.2390(5) 0.5339(5) 0.3066(3)
C2 C 0.2207(5) 0.3777(5) 0.3507(3)
H2 H 0.1960 0.2985 0.3153
C3 C 0.2375(5) 0.3341(5) 0.4453(3)
C4 C 0.2621(5) 0.4533(5) 0.4973(3)
H3 H 0.2696 0.4261 0.5623
C5 C 0.2760(5) 0.6106(5) 0.4567(3)
C6 C 0.2711(5) 0.6491(4) 0.3607(3)
C7 C 0.2800(5) 0.8216(5) 0.3153(3)
C8 C 0.0991(5) 0.9288(5) 0.2802(3)
H4 H 0.1315 0.9960 0.2217
H5 H 0.0372 1.0084 0.3259
C9 C -0.0444(5) 0.8320(5) 0.2624(3)
H6 H -0.0731 0.7608 0.3209
C10 C 0.0303(5) 0.7166(5) 0.1848(3)
C11 C 0.2252(5) 0.5917(4) 0.2037(3)
H7 H 0.3289 0.6518 0.1815
C12 C -0.0991(5) 0.5954(5) 0.1818(3)
H8 H -0.1585 0.5672 0.2447
H9 H -0.2017 0.6477 0.1408
C13 C 0.0292(5) 0.4360(5) 0.1442(3)
H10 H -0.0057 0.4244 0.0825
H11 H 0.0156 0.3348 0.1868
C14 C 0.2370(5) 0.4578(5) 0.1371(3)
H12 H 0.2587 0.5159 0.0735
C15 C 0.3965(5) 0.2974(5) 0.1426(3)
H13 H 0.3722 0.2266 0.2019
C16 C 0.5902(5) 0.3397(5) 0.1420(3)
H14 H 0.5873 0.4035 0.1941
H15 H 0.6171 0.4072 0.0837
H16 H 0.6903 0.2354 0.1480
C17 C 0.4002(7) 0.1976(6) 0.0624(3)
H17 H 0.2761 0.1704 0.0633
H18 H 0.5003 0.0934 0.0685
H19 H 0.4265 0.2646 0.0038
C18 C 0.0474(6) 0.8230(5) 0.0910(3)
H20 H 0.1307 0.8985 0.0941
H21 H -0.0795 0.8896 0.0764
H22 H 0.1017 0.7490 0.0427
C19 C 0.2825(6) 0.7117(5) 0.6012(3)
H23 H 0.2939 0.8130 0.6257
H24 H 0.3872 0.6172 0.6201
H25 H 0.1601 0.6857 0.6257
C20 C 0.2320(6) 0.1596(5) 0.4888(3)
H26 H 0.2462 0.1503 0.5552
H27 H 0.3366 0.0780 0.4594
H28 H 0.1097 0.1366 0.4801
loop_
_geom_bond_atom_site_label_1
_geom_bond_atom_site_label_2
_geom_bond_site_symmetry_1
_geom_bond_site_symmetry_2
O1 C5 1_555 1_555
O2 C7 1_555 1_555
O3 H1 1_555 1_555
C1 C2 1_555 1_555
C2 H2 1_555 1_555
C3 C2 1_555 1_555
C4 C3 1_555 1_555
H3 C4 1_555 1_555
C5 C4 1_555 1_555
C6 C1 1_555 1_555
C7 C6 1_555 1_555
C8 C7 1_555 1_555
H4 C8 1_555 1_555
H5 C8 1_555 1_555
C9 O3 1_555 1_555
H6 C9 1_555 1_555
C10 C9 1_555 1_555
C11 C1 1_555 1_555
H7 C11 1_555 1_555
C12 C10 1_555 1_555
H8 C12 1_555 1_555
H9 C12 1_555 1_555
C13 C12 1_555 1_555
H10 C13 1_555 1_555
H11 C13 1_555 1_555
C14 C11 1_555 1_555
H12 C14 1_555 1_555
C15 C14 1_555 1_555
H13 C15 1_555 1_555
C16 C15 1_555 1_555
H14 C16 1_555 1_555
H15 C16 1_555 1_555
H16 C16 1_555 1_555
C17 C15 1_555 1_555
H17 C17 1_555 1_555
H18 C17 1_555 1_555
H19 C17 1_555 1_555
C18 C10 1_555 1_555
H20 C18 1_555 1_555
H21 C18 1_555 1_555
H22 C18 1_555 1_555
C19 O1 1_555 1_555
H23 C19 1_555 1_555
H24 C19 1_555 1_555
H25 C19 1_555 1_555
C20 C3 1_555 1_555
H26 C20 1_555 1_555
H27 C20 1_555 1_555
H28 C20 1_555 1_555
C5 C6 1_555 1_555
C8 C9 1_555 1_555
C10 C11 1_555 1_555
C13 C14 1_555 1_555

#END
