
#######################################################################
#
#                 Cambridge Crystallographic Data Centre
#                                CCDC 
#
#######################################################################
#
# If this CIF has been generated from an entry in the Cambridge 
# Structural Database, then it will include bibliographic, chemical, 
# crystal, experimental, refinement or atomic coordinate data resulting 
# from the CCDC's data processing and validation procedures.
#
#######################################################################

data_IWEQIM
_chemical_formula_moiety         'C24 H21 Cl1 N2 O1'
_chemical_name_systematic        
1-(3-(4-chlorophenyl)-2-phenylaziridin-2-yl)-3,3-dimethyl-1,3-dihydro-2H-indol-2-one
_symmetry_cell_setting           orthorhombic
_symmetry_space_group_name_H-M   'P 21 21 21'
_symmetry_Int_Tables_number      19
_space_group_name_Hall           'P 2ac 2ab'
loop_
_symmetry_equiv_pos_site_id
_symmetry_equiv_pos_as_xyz
1 x,y,z
2 1/2-x,-y,1/2+z
3 -x,1/2+y,1/2-z
4 1/2+x,1/2-y,-z
_cell_length_a                   12.1900(4)
_cell_length_b                   14.2012(4)
_cell_length_c                   24.2598(8)
_cell_angle_alpha                90
_cell_angle_beta                 90
_cell_angle_gamma                90
_cell_volume                     4199.68
_exptl_crystal_colour            colorless
_exptl_crystal_description       plate
_cell_formula_units_Z            8
loop_
_atom_site_label
_atom_site_type_symbol
_atom_site_fract_x
_atom_site_fract_y
_atom_site_fract_z
Cl1 Cl 1.18279(12) 0.16154(13) 0.48289(5)
O1 O 0.9984(2) 0.3115(2) 0.19689(12)
N1 N 0.8148(2) 0.31471(18) 0.21916(11)
C1 C 0.8065(2) 0.1800(2) 0.28358(11)
N2 N 0.7771(3) 0.3450(2) 0.31856(13)
H1 H 0.753(4) 0.398(4) 0.302(2)
C2 C 0.7208(3) 0.1443(3) 0.31352(15)
H2 H 0.6697 0.1851 0.3290
C3 C 0.8224(3) 0.2838(2) 0.27566(12)
C4 C 0.9639(3) 0.2953(2) 0.35531(14)
C5 C 0.7156(3) 0.32964(19) 0.19136(13)
C6 C 0.9041(3) 0.3241(2) 0.18428(14)
C7 C 1.0755(3) 0.2898(3) 0.34771(16)
H3 H 1.1064 0.3144 0.3158
C8 C 0.8960(3) 0.3400(2) 0.31157(14)
H4 H 0.9293 0.3950 0.2939
C9 C 0.7381(3) 0.3532(2) 0.13685(15)
C10 C 0.8805(3) 0.1177(3) 0.26128(19)
H5 H 0.9386 0.1405 0.2403
C11 C 1.1427(3) 0.2483(3) 0.38690(17)
H6 H 1.2181 0.2451 0.3813
C12 C 0.9193(3) 0.2586(4) 0.40284(15)
H7 H 0.8440 0.2619 0.4086
C13 C 0.6103(3) 0.3244(2) 0.21169(15)
H8 H 0.5968 0.3087 0.2483
C14 C 0.8606(3) 0.3513(3) 0.12724(14)
C15 C 0.9865(4) 0.2165(4) 0.44231(16)
H9 H 0.9561 0.1916 0.4743
C16 C 0.7849(5) -0.0124(3) 0.2995(2)
H10 H 0.7784 -0.0769 0.3053
C17 C 0.5259(3) 0.3434(3) 0.1756(2)
H11 H 0.4539 0.3407 0.1881
C18 C 1.0970(4) 0.2119(3) 0.43386(15)
C19 C 0.6522(4) 0.3722(3) 0.10190(18)
H12 H 0.6653 0.3890 0.0654
C20 C 0.7094(4) 0.0484(3) 0.32102(18)
H13 H 0.6499 0.0251 0.3408
C21 C 0.9082(5) 0.4464(3) 0.1104(2)
H14 H 0.8846 0.4938 0.1360
H15 H 0.8830 0.4623 0.0741
H16 H 0.9868 0.4429 0.1105
C22 C 0.8946(4) 0.2757(3) 0.0859(2)
H17 H 0.9732 0.2738 0.0834
H18 H 0.8644 0.2903 0.0504
H19 H 0.8678 0.2156 0.0979
C23 C 0.5459(4) 0.3660(4) 0.1218(2)
H20 H 0.4873 0.3775 0.0982
C24 C 0.8703(5) 0.0229(3) 0.2693(2)
H21 H 0.9218 -0.0179 0.2542
Cl2 Cl 0.01811(16) 0.42871(10) 0.53466(8)
N3 N 0.5630(2) 0.5873(2) 0.36559(12)
N4 N 0.3674(3) 0.6006(2) 0.33849(15)
H22 H 0.398(4) 0.655(4) 0.323(2)
O2 O 0.5878(3) 0.6132(3) 0.45820(13)
C25 C 0.4502(3) 0.4441(2) 0.36042(12)
C26 C 0.6315(3) 0.5869(2) 0.31856(14)
C27 C 0.3884(3) 0.4011(3) 0.31988(14)
H23 H 0.3466 0.4373 0.2958
C28 C 0.5103(3) 0.3892(3) 0.39618(16)
H24 H 0.5519 0.4175 0.4237
C29 C 0.4488(3) 0.2499(3) 0.35131(19)
H25 H 0.4481 0.1846 0.3484
C30 C 0.3889(3) 0.3035(3) 0.31524(17)
H26 H 0.3485 0.2745 0.2875
C31 C 0.6057(3) 0.5592(2) 0.26570(14)
H27 H 0.5358 0.5382 0.2565
C32 C 0.3732(3) 0.6029(2) 0.39879(18)
H28 H 0.4006 0.6621 0.4144
C33 C 0.4546(3) 0.5488(2) 0.36596(14)
C34 C 0.6891(4) 0.5642(3) 0.22697(17)
H29 H 0.6755 0.5445 0.1911
C35 C 0.5091(4) 0.2923(3) 0.3914(2)
H30 H 0.5499 0.2558 0.4158
C36 C 0.1921(4) 0.5206(3) 0.4070(2)
H31 H 0.1837 0.5236 0.3689
C37 C 0.7346(3) 0.6200(3) 0.33283(18)
C38 C 0.1099(4) 0.4799(3) 0.4395(2)
H32 H 0.0466 0.4557 0.4234
C39 C 0.2857(3) 0.5562(2) 0.43123(17)
C40 C 0.6223(4) 0.6129(3) 0.41142(17)
C41 C 0.8151(4) 0.6259(3) 0.2937(2)
H33 H 0.8845 0.6483 0.3028
C42 C 0.7914(4) 0.5977(3) 0.2404(2)
H34 H 0.8453 0.6015 0.2133
C43 C 0.2975(5) 0.5497(4) 0.4876(2)
H35 H 0.3611 0.5724 0.5041
C44 C 0.1245(5) 0.4764(3) 0.4950(2)
C45 C 0.7377(4) 0.6409(3) 0.3928(2)
C46 C 0.7556(5) 0.7461(4) 0.4051(3)
H36 H 0.8254 0.7655 0.3906
H37 H 0.7544 0.7562 0.4442
H38 H 0.6983 0.7823 0.3881
C47 C 0.8204(6) 0.5779(6) 0.4238(3)
H39 H 0.8057 0.5130 0.4155
H40 H 0.8134 0.5881 0.4627
H41 H 0.8936 0.5934 0.4123
C48 C 0.2170(6) 0.5101(5) 0.5199(2)
H42 H 0.2254 0.5064 0.5580
loop_
_geom_bond_atom_site_label_1
_geom_bond_atom_site_label_2
_geom_bond_site_symmetry_1
_geom_bond_site_symmetry_2
Cl1 C18 1_555 1_555
O1 C6 1_555 1_555
N1 C3 1_555 1_555
C1 C2 1_555 1_555
N2 H1 1_555 1_555
C2 H2 1_555 1_555
C3 C1 1_555 1_555
C4 C7 1_555 1_555
C5 N1 1_555 1_555
C6 N1 1_555 1_555
C7 H3 1_555 1_555
C8 N2 1_555 1_555
H4 C8 1_555 1_555
C9 C5 1_555 1_555
C10 C1 1_555 1_555
H5 C10 1_555 1_555
C11 C7 1_555 1_555
H6 C11 1_555 1_555
C12 C4 1_555 1_555
H7 C12 1_555 1_555
C13 C5 1_555 1_555
H8 C13 1_555 1_555
C14 C6 1_555 1_555
C15 C12 1_555 1_555
H9 C15 1_555 1_555
C16 H10 1_555 1_555
C17 C13 1_555 1_555
H11 C17 1_555 1_555
C18 C11 1_555 1_555
C19 C9 1_555 1_555
H12 C19 1_555 1_555
C20 C2 1_555 1_555
H13 C20 1_555 1_555
C21 C14 1_555 1_555
H14 C21 1_555 1_555
H15 C21 1_555 1_555
H16 C21 1_555 1_555
C22 C14 1_555 1_555
H17 C22 1_555 1_555
H18 C22 1_555 1_555
H19 C22 1_555 1_555
C23 C17 1_555 1_555
H20 C23 1_555 1_555
C24 C10 1_555 1_555
H21 C24 1_555 1_555
Cl2 C44 1_555 1_555
N3 C26 1_555 1_555
N4 H22 1_555 1_555
O2 C40 1_555 1_555
C25 C27 1_555 1_555
C26 C31 1_555 1_555
C27 H23 1_555 1_555
C28 C25 1_555 1_555
H24 C28 1_555 1_555
C29 H25 1_555 1_555
C30 C27 1_555 1_555
H26 C30 1_555 1_555
C31 H27 1_555 1_555
C32 N4 1_555 1_555
H28 C32 1_555 1_555
C33 N3 1_555 1_555
C34 C31 1_555 1_555
H29 C34 1_555 1_555
C35 C28 1_555 1_555
H30 C35 1_555 1_555
C36 H31 1_555 1_555
C37 C26 1_555 1_555
C38 C36 1_555 1_555
H32 C38 1_555 1_555
C39 C32 1_555 1_555
C40 N3 1_555 1_555
C41 C37 1_555 1_555
H33 C41 1_555 1_555
C42 C34 1_555 1_555
H34 C42 1_555 1_555
C43 C39 1_555 1_555
H35 C43 1_555 1_555
C44 C38 1_555 1_555
C45 C37 1_555 1_555
C46 C45 1_555 1_555
H36 C46 1_555 1_555
H37 C46 1_555 1_555
H38 C46 1_555 1_555
C47 C45 1_555 1_555
H39 C47 1_555 1_555
H40 C47 1_555 1_555
H41 C47 1_555 1_555
C48 C43 1_555 1_555
H42 C48 1_555 1_555
N2 C3 1_555 1_555
C3 C8 1_555 1_555
C4 C8 1_555 1_555
C9 C14 1_555 1_555
C15 C18 1_555 1_555
C16 C20 1_555 1_555
C16 C24 1_555 1_555
C19 C23 1_555 1_555
N4 C33 1_555 1_555
C25 C33 1_555 1_555
C29 C30 1_555 1_555
C29 C35 1_555 1_555
C32 C33 1_555 1_555
C36 C39 1_555 1_555
C40 C45 1_555 1_555
C41 C42 1_555 1_555
C44 C48 1_555 1_555

#END
