
#######################################################################
#
#                 Cambridge Crystallographic Data Centre
#                                CCDC 
#
#######################################################################
#
# If this CIF has been generated from an entry in the Cambridge 
# Structural Database, then it will include bibliographic, chemical, 
# crystal, experimental, refinement or atomic coordinate data resulting 
# from the CCDC's data processing and validation procedures.
#
#######################################################################

data_IWEXAJ
_chemical_formula_moiety         'C22 H15 N1 O7'
_chemical_name_systematic        
syn-1-Acetyl-9'aH-8'-methoxyspiro(indole-3,2'-oxeto(3',2':4,5)furo(3,2-g)(1)benzopyran)-2,6'-dione
_symmetry_cell_setting           monoclinic
_symmetry_space_group_name_H-M   'P 21/c'
_symmetry_Int_Tables_number      14
_space_group_name_Hall           '-P 2ybc'
loop_
_symmetry_equiv_pos_site_id
_symmetry_equiv_pos_as_xyz
1 x,y,z
2 -x,1/2+y,1/2-z
3 -x,-y,-z
4 x,1/2-y,1/2+z
_cell_length_a                   12.391(3)
_cell_length_b                   15.035(3)
_cell_length_c                   9.5435(19)
_cell_angle_alpha                90
_cell_angle_beta                 93.66(3)
_cell_angle_gamma                90
_cell_volume                     1774.32
_exptl_crystal_colour            colorless
_exptl_crystal_description       prismatic
_chemical_melting_point          '240 deg.C(dec.)'
_cell_formula_units_Z            4
_exptl_crystal_recrystallization_method acetonitrile
loop_
_atom_site_label
_atom_site_type_symbol
_atom_site_fract_x
_atom_site_fract_y
_atom_site_fract_z
O1 O 0.7333(1) 0.5244(1) 0.5044(2)
O2 O 0.6387(1) 0.5817(1) 0.6698(2)
O3 O 0.6045(1) 0.7264(1) 0.8293(2)
O4 O 0.4345(1) 0.7152(1) 1.0192(2)
O5 O 0.2457(1) 0.7295(1) 1.0007(2)
O6 O 0.1328(1) 0.6350(1) 1.2208(2)
O7 O -0.1630(1) 0.5700(1) 1.0212(2)
N1 N 0.0102(1) 0.6162(1) 1.0269(2)
C1 C 0.6616(2) 0.5119(2) 0.5811(9)
C2 C 0.5973(2) 0.4327(2) 0.5917(3)
C3 C 0.5133(2) 0.4296(2) 0.6724(2)
C4 C 0.4856(2) 0.5046(1) 0.7562(2)
C5 C 0.5529(2) 0.5789(2) 0.7536(2)
C6 C 0.3986(2) 0.5053(1) 0.8428(2)
C7 C 0.3829(2) 0.5780(2) 0.9261(2)
C8 C 0.4537(2) 0.6498(2) 0.9229(2)
C9 C 0.5390(2) 0.6536(2) 0.8376(2)
C10 C 0.6761(2) 0.7418(2) 0.9502(9)
C11 C 0.3036(2) 0.5975(2) 1.0339(2)
C12 C 0.3366(2) 0.6920(2) 1.0784(2)
C13 C 0.1947(2) 0.6417(2) 0.9844(2)
C14 C 0.1118(2) 0.6313(2) 1.0963(2)
C15 C 0.1299(2) 0.6274(2) 0.8508(2)
C16 C 0.1599(2) 0.6298(2) 0.7145(2)
C17 C 0.0819(2) 0.6186(2) 0.6047(2)
C18 C -0.0236(2) 0.6054(2) 0.6336(2)
C19 C -0.0564(2) 0.6024(2) 0.7705(2)
C20 C 0.0219(2) 0.6138(2) 0.8775(2)
C21 C -0.0864(2) 0.5996(2) 1.0909(3)
C22 C -0.0904(2) 0.6204(2) 1.2438(3)
loop_
_geom_bond_atom_site_label_1
_geom_bond_atom_site_label_2
_geom_bond_site_symmetry_1
_geom_bond_site_symmetry_2
O1 C1 1_555 1_555
O2 C1 1_555 1_555
O3 C9 1_555 1_555
O4 C8 1_555 1_555
O5 C12 1_555 1_555
O6 C14 1_555 1_555
O7 C21 1_555 1_555
N1 C14 1_555 1_555
C1 C2 1_555 1_555
C2 C3 1_555 1_555
C3 C4 1_555 1_555
C4 C5 1_555 1_555
C5 O2 1_555 1_555
C6 C4 1_555 1_555
C7 C6 1_555 1_555
C8 C7 1_555 1_555
C9 C5 1_555 1_555
C10 O3 1_555 1_555
C11 C7 1_555 1_555
C12 O4 1_555 1_555
C13 O5 1_555 1_555
C14 C13 1_555 1_555
C15 C13 1_555 1_555
C16 C15 1_555 1_555
C17 C16 1_555 1_555
C18 C17 1_555 1_555
C19 C18 1_555 1_555
C20 N1 1_555 1_555
C21 N1 1_555 1_555
C22 C21 1_555 1_555
C8 C9 1_555 1_555
C11 C13 1_555 1_555
C11 C12 1_555 1_555
C15 C20 1_555 1_555
C19 C20 1_555 1_555

#END
