
#######################################################################
#
#                 Cambridge Crystallographic Data Centre
#                                CCDC 
#
#######################################################################
#
# If this CIF has been generated from an entry in the Cambridge 
# Structural Database, then it will include bibliographic, chemical, 
# crystal, experimental, refinement or atomic coordinate data resulting 
# from the CCDC's data processing and validation procedures.
#
#######################################################################

data_IWEYIU
_chemical_compound_source        'club moss Lycopodium annotinum'
_chemical_name_common            'annotinolide C'
_chemical_formula_moiety         'C16 H19 N1 O4'
_chemical_name_systematic        
(2R,1'R,2'S,7'S,9'R,10'R)-10'-methyl-5H,11'H-spiro[furan-2,8'-[12]oxa[6]azatetracyclo[7.3.1.1^7,10^.0^2,7^]tetradecane]-5,11'-dione
_chemical_properties_biological  'antiaggregation activity'
_symmetry_cell_setting           orthorhombic
_symmetry_space_group_name_H-M   'P 21 21 21'
_symmetry_Int_Tables_number      19
_space_group_name_Hall           'P 2ac 2ab'
loop_
_symmetry_equiv_pos_site_id
_symmetry_equiv_pos_as_xyz
1 x,y,z
2 1/2+x,1/2-y,-z
3 -x,1/2+y,1/2-z
4 1/2-x,-y,1/2+z
_cell_length_a                   7.8847(4)
_cell_length_b                   12.7310(6)
_cell_length_c                   13.5189(7)
_cell_angle_alpha                90
_cell_angle_beta                 90
_cell_angle_gamma                90
_cell_volume                     1357.03
_exptl_crystal_colour            colorless
_exptl_crystal_description       block
_cell_formula_units_Z            4
_exptl_crystal_recrystallization_method chloroform/methanol
loop_
_atom_site_label
_atom_site_type_symbol
_atom_site_fract_x
_atom_site_fract_y
_atom_site_fract_z
O1 O 0.0588(2) 1.26416(12) 0.66861(14)
O2 O 0.20255(19) 1.11235(10) 0.66399(11)
O3 O 0.3772(2) 0.77075(11) 0.66437(11)
O4 O 0.4018(3) 0.69536(12) 0.51917(14)
N1 N 0.5898(2) 1.10027(14) 0.65526(15)
H1 H 0.533(4) 1.147(2) 0.703(2)
C1 C 0.7500(3) 1.0629(2) 0.7004(2)
H2 H 0.8211 1.1231 0.7150
H3 H 0.8097 1.0195 0.6528
C2 C 0.7237(3) 1.0007(2) 0.7940(2)
H4 H 0.6802 1.0468 0.8452
H5 H 0.8319 0.9731 0.8163
C3 C 0.6003(3) 0.91005(17) 0.77837(18)
H6 H 0.5757 0.8770 0.8414
H7 H 0.6518 0.8579 0.7356
C4 C 0.4349(3) 0.94930(16) 0.73160(15)
H8 H 0.3844 0.9982 0.7792
C5 C 0.3051(3) 0.86094(16) 0.71652(16)
H9 H 0.2672 0.8371 0.7818
C6 C 0.1508(3) 0.89669(16) 0.65911(17)
H10 H 0.0849 0.9460 0.6980
H11 H 0.0795 0.8371 0.6429
C7 C 0.2149(3) 0.94920(15) 0.56503(16)
H12 H 0.1231 0.9601 0.5173
C8 C 0.3779(3) 0.77495(16) 0.56468(17)
C9 C 0.1512(3) 1.20628(16) 0.62425(18)
C10 C 0.2277(3) 1.21548(17) 0.52603(18)
H13 H 0.2145 1.2719 0.4830
C11 C 0.3185(3) 1.13038(16) 0.50882(16)
H14 H 0.3834 1.1192 0.4524
C12 C 0.3026(2) 1.05430(15) 0.59288(15)
C13 C 0.4718(3) 1.01402(15) 0.63660(15)
C14 C 0.5290(3) 0.94282(16) 0.55156(16)
H15 H 0.6149 0.8936 0.5738
H16 H 0.5748 0.9840 0.4974
C15 C 0.3645(3) 0.88372(15) 0.51881(16)
C16 C 0.3518(4) 0.8735(2) 0.40676(17)
H17 H 0.4515 0.8394 0.3818
H18 H 0.3421 0.9421 0.3778
H19 H 0.2535 0.8327 0.3901
loop_
_geom_bond_atom_site_label_1
_geom_bond_atom_site_label_2
_geom_bond_site_symmetry_1
_geom_bond_site_symmetry_2
O1 C9 1_555 1_555
O2 C9 1_555 1_555
O3 C5 1_555 1_555
O4 C8 1_555 1_555
N1 H1 1_555 1_555
C1 N1 1_555 1_555
H2 C1 1_555 1_555
H3 C1 1_555 1_555
C2 C1 1_555 1_555
H4 C2 1_555 1_555
H5 C2 1_555 1_555
C3 C2 1_555 1_555
H6 C3 1_555 1_555
H7 C3 1_555 1_555
C4 C3 1_555 1_555
H8 C4 1_555 1_555
C5 C4 1_555 1_555
H9 C5 1_555 1_555
C6 C5 1_555 1_555
H10 C6 1_555 1_555
H11 C6 1_555 1_555
C7 C6 1_555 1_555
H12 C7 1_555 1_555
C8 O3 1_555 1_555
C9 C10 1_555 1_555
C10 H13 1_555 1_555
C11 C10 1_555 1_555
H14 C11 1_555 1_555
C12 O2 1_555 1_555
C13 N1 1_555 1_555
C14 C13 1_555 1_555
H15 C14 1_555 1_555
H16 C14 1_555 1_555
C15 C7 1_555 1_555
C16 C15 1_555 1_555
H17 C16 1_555 1_555
H18 C16 1_555 1_555
H19 C16 1_555 1_555
C4 C13 1_555 1_555
C7 C12 1_555 1_555
C8 C15 1_555 1_555
C11 C12 1_555 1_555
C12 C13 1_555 1_555
C14 C15 1_555 1_555

#END
