
#######################################################################
#
#                 Cambridge Crystallographic Data Centre
#                                CCDC 
#
#######################################################################
#
# If this CIF has been generated from an entry in the Cambridge 
# Structural Database, then it will include bibliographic, chemical, 
# crystal, experimental, refinement or atomic coordinate data resulting 
# from the CCDC's data processing and validation procedures.
#
#######################################################################

data_IWIJOP
_chemical_formula_moiety         'C112 H110 N8 O6,2(H2 O1)'
_chemical_name_systematic        
'2,10-di-t-butyl-4,8-bis((4-(2-methoxyethoxy)-6-((2,10-di-t-butyl-8-(3-hydroxy-3-methylbut-1-yn-1-yl)-5,7-dihydroindolo[2,3-b]carbazol-4-yl)ethynyl)pyridin-2-yl)ethynyl)-5,7-dihydroindolo[2,3-b]carbazole unknown solvate dihydrate'
_symmetry_cell_setting           orthorhombic
_symmetry_space_group_name_H-M   'P b c a'
_symmetry_Int_Tables_number      61
_space_group_name_Hall           '-P 2ac 2ab'
loop_
_symmetry_equiv_pos_site_id
_symmetry_equiv_pos_as_xyz
1 x,y,z
2 1/2-x,-y,1/2+z
3 -x,1/2+y,1/2-z
4 1/2+x,1/2-y,-z
5 -x,-y,-z
6 1/2+x,y,1/2-z
7 x,1/2-y,1/2+z
8 1/2-x,1/2+y,z
_cell_length_a                   16.057(3)
_cell_length_b                   36.163(7)
_cell_length_c                   40.408(8)
_cell_angle_alpha                90
_cell_angle_beta                 90
_cell_angle_gamma                90
_cell_volume                     23463.7
_exptl_crystal_colour            yellow
_exptl_crystal_description       needle
_cell_formula_units_Z            8
loop_
_atom_site_label
_atom_site_type_symbol
_atom_site_fract_x
_atom_site_fract_y
_atom_site_fract_z
O1 O 0.07979(10) 0.72215(4) 0.83794(4)
H1 H 0.0485 0.7374 0.8296
O2 O 0.27212(10) 0.77931(4) 0.53354(4)
O3 O 0.28144(11) 0.77466(6) 0.46183(4)
O4 O 0.69382(11) 0.92903(5) 0.70284(4)
N1 N 0.33098(11) 0.84207(5) 0.79540(4)
H2 H 0.3128 0.8252 0.7822
N2 N 0.37752(13) 0.87363(5) 0.72385(4)
H3 H 0.3529 0.8531 0.7196
N3 N 0.40193(12) 0.68590(5) 0.71131(4)
H4 H 0.4099 0.7065 0.7012
N4 N 0.45204(12) 0.74166(5) 0.76754(4)
H5 H 0.4556 0.7544 0.7496
N5 N 0.54123(11) 0.73900(5) 0.59362(4)
H6 H 0.5561 0.7395 0.6141
N6 N 0.54925(12) 0.65301(5) 0.61340(4)
H7 H 0.5627 0.6639 0.6316
N7 N 0.35993(12) 0.77089(5) 0.63007(4)
N8 N 0.56044(12) 0.83057(5) 0.69931(4)
C1 C 0.28320(14) 0.81706(6) 0.85039(5)
C2 C 0.32315(13) 0.84208(6) 0.82954(5)
C3 C 0.37274(14) 0.87367(6) 0.78609(5)
C4 C 0.39352(14) 0.88768(6) 0.75495(5)
C5 C 0.40782(15) 0.89824(6) 0.70088(5)
C6 C 0.40780(15) 0.89585(6) 0.66621(6)
C7 C 0.44139(16) 0.92575(7) 0.64891(6)
H8 H 0.4415 0.9248 0.6259
C8 C 0.47487(16) 0.95704(6) 0.66423(6)
C9 C 0.47557(15) 0.95812(6) 0.69873(6)
H9 H 0.4980 0.9785 0.7096
C10 C 0.44299(15) 0.92890(6) 0.71711(6)
C11 C 0.43532(14) 0.92156(6) 0.75231(5)
C12 C 0.46098(16) 0.94100(6) 0.78076(6)
H10 H 0.4913 0.9628 0.7788
C13 C 0.44072(15) 0.92737(6) 0.81141(6)
H11 H 0.4572 0.9400 0.8303
C14 C 0.39504(14) 0.89428(6) 0.81432(5)
C15 C 0.36135(14) 0.87416(6) 0.84211(5)
C16 C 0.35575(14) 0.88215(6) 0.87597(5)
H12 H 0.3805 0.9034 0.8843
C17 C 0.31321(15) 0.85835(6) 0.89710(5)
C18 C 0.27948(14) 0.82623(6) 0.88380(5)
H13 H 0.2528 0.8099 0.8981
C19 C 0.36793(15) 0.64516(6) 0.66353(5)
C20 C 0.38223(15) 0.65271(7) 0.69686(5)
C21 C 0.40672(16) 0.68034(7) 0.74519(5)
C22 C 0.42779(14) 0.70536(7) 0.76991(5)
C23 C 0.46957(14) 0.75411(6) 0.79887(5)
C24 C 0.50253(15) 0.78805(6) 0.80822(5)
C25 C 0.51724(16) 0.79410(7) 0.84200(5)
H14 H 0.5378 0.8169 0.8488
C26 C 0.50192(14) 0.76683(6) 0.86567(5)
C27 C 0.47093(14) 0.73251(7) 0.85535(5)
H15 H 0.4611 0.7141 0.8710
C28 C 0.45466(14) 0.72551(6) 0.82202(5)
C29 C 0.42919(15) 0.69341(7) 0.80297(5)
C30 C 0.40973(17) 0.65676(8) 0.81094(6)
H16 H 0.4102 0.6492 0.8329
C31 C 0.3900(2) 0.63209(8) 0.78657(6)
H17 H 0.3775 0.6077 0.7919
C32 C 0.38873(18) 0.64387(7) 0.75286(6)
C33 C 0.37360(17) 0.62507(7) 0.72151(6)
C34 C 0.35402(17) 0.58966(7) 0.71217(6)
H18 H 0.3484 0.5714 0.7282
C35 C 0.34232(15) 0.58060(7) 0.67876(6)
C36 C 0.34919(15) 0.60872(6) 0.65512(6)
H19 H 0.3409 0.6029 0.6329
C37 C 0.53705(14) 0.80691(6) 0.58118(5)
C38 C 0.52988(14) 0.76936(6) 0.57370(5)
C39 C 0.52487(14) 0.70776(6) 0.57533(5)
C40 C 0.52861(15) 0.67041(6) 0.58385(5)
C41 C 0.54437(15) 0.61524(6) 0.60850(6)
C42 C 0.55939(15) 0.58585(7) 0.63056(6)
C43 C 0.55284(17) 0.55020(7) 0.61748(7)
H20 H 0.5635 0.5304 0.6315
C44 C 0.53131(19) 0.54237(7) 0.58462(7)
C45 C 0.51558(19) 0.57199(7) 0.56368(7)
H21 H 0.5010 0.5677 0.5417
C46 C 0.52159(18) 0.60811(7) 0.57548(6)
C47 C 0.51091(18) 0.64366(6) 0.55982(6)
C48 C 0.4884(2) 0.65392(7) 0.52727(6)
H22 H 0.4770 0.6359 0.5115
C49 C 0.48340(18) 0.69062(7) 0.51913(6)
H23 H 0.4675 0.6976 0.4979
C50 C 0.50237(15) 0.71767(6) 0.54295(5)
C51 C 0.50519(14) 0.75748(6) 0.54197(5)
C52 C 0.48910(15) 0.78357(6) 0.51720(5)
H24 H 0.4729 0.7757 0.4963
C53 C 0.49714(15) 0.82108(6) 0.52361(5)
C54 C 0.52084(14) 0.83206(6) 0.55572(5)
H25 H 0.5259 0.8572 0.5602
C55 C 0.34387(14) 0.80338(6) 0.61524(5)
C56 C 0.34696(14) 0.74012(6) 0.61166(5)
C57 C 0.31903(14) 0.74076(6) 0.57895(5)
H26 H 0.3122 0.7189 0.5671
C58 C 0.30173(14) 0.77457(6) 0.56453(5)
C59 C 0.31420(14) 0.80639(6) 0.58299(5)
H27 H 0.3029 0.8295 0.5739
C60 C 0.57714(16) 0.84732(6) 0.72864(5)
C61 C 0.59094(14) 0.84796(6) 0.67218(5)
C62 C 0.63563(15) 0.88035(6) 0.67320(5)
H28 H 0.6560 0.8909 0.6538
C63 C 0.64998(15) 0.89709(6) 0.70368(6)
C64 C 0.62005(15) 0.88017(6) 0.73172(6)
H29 H 0.6286 0.8907 0.7524
C65 C 0.20497(14) 0.75678(6) 0.83066(5)
C66 C 0.24267(14) 0.78403(6) 0.83855(5)
C67 C 0.37860(16) 0.86349(7) 0.64926(6)
C68 C 0.35990(16) 0.83624(7) 0.63446(6)
C69 C 0.36117(15) 0.70544(7) 0.62770(6)
C70 C 0.36666(15) 0.67600(7) 0.64149(5)
C71 C 0.52651(17) 0.81267(6) 0.78243(6)
C72 C 0.54799(17) 0.82831(6) 0.75771(6)
C73 C 0.57278(14) 0.83118(6) 0.64067(5)
C74 C 0.55846(14) 0.81945(6) 0.61350(5)
C75 C 0.15960(14) 0.72306(6) 0.82118(5)
C76 C 0.20645(16) 0.68919(7) 0.83332(7)
H30 H 0.2129 0.6905 0.8569
H31 H 0.2604 0.6883 0.8231
H32 H 0.1757 0.6673 0.8277
C77 C 0.14597(18) 0.72237(8) 0.78387(6)
H33 H 0.1988 0.7211 0.7728
H34 H 0.1173 0.7444 0.7772
H35 H 0.1131 0.7012 0.7781
C78 C 0.29963(16) 0.86955(7) 0.93350(6)
C79 C 0.2382(2) 0.90202(8) 0.93398(7)
H36 H 0.2599 0.9219 0.9208
H37 H 0.2306 0.9103 0.9563
H38 H 0.1857 0.8942 0.9251
C80 C 0.38191(19) 0.88108(8) 0.94948(6)
H39 H 0.4181 0.8600 0.9510
H40 H 0.3714 0.8906 0.9713
H41 H 0.4079 0.8998 0.9362
C81 C 0.26403(18) 0.83806(7) 0.95436(6)
H42 H 0.2084 0.8326 0.9471
H43 H 0.2630 0.8453 0.9772
H44 H 0.2983 0.8165 0.9518
C82 C 0.51067(17) 0.98832(7) 0.64303(6)
C83 C 0.5348(2) 1.02195(8) 0.66349(7)
H45 H 0.4866 1.0312 0.6749
H46 H 0.5564 1.0408 0.6492
H47 H 0.5765 1.0151 0.6794
C84 C 0.5895(2) 0.97359(9) 0.62528(8)
H48 H 0.6286 0.9648 0.6414
H49 H 0.6144 0.9932 0.6126
H50 H 0.5744 0.9537 0.6108
C85 C 0.44666(19) 1.00038(8) 0.61702(7)
H51 H 0.4342 0.9799 0.6027
H52 H 0.4691 1.0204 0.6042
H53 H 0.3966 1.0084 0.6279
C86 C 0.31998(16) 0.54068(7) 0.66947(6)
C87 C 0.31491(19) 0.53500(7) 0.63216(6)
H54 H 0.2722 0.5506 0.6232
H55 H 0.3018 0.5096 0.6275
H56 H 0.3675 0.5412 0.6223
C88 C 0.23514(18) 0.53095(7) 0.68495(7)
H57 H 0.2372 0.5352 0.7084
H58 H 0.2227 0.5054 0.6808
H59 H 0.1926 0.5462 0.6753
C89 C 0.3868(2) 0.51446(8) 0.68353(7)
H60 H 0.4404 0.5213 0.6749
H61 H 0.3742 0.4895 0.6772
H62 H 0.3876 0.5163 0.7072
C90 C 0.52214(16) 0.77286(7) 0.90243(6)
C91 C 0.44412(18) 0.76491(8) 0.92304(6)
H63 H 0.4004 0.7815 0.9166
H64 H 0.4565 0.7683 0.9461
H65 H 0.4265 0.7399 0.9194
C92 C 0.5509(2) 0.81229(8) 0.90939(7)
H66 H 0.5998 0.8175 0.8966
H67 H 0.5635 0.8149 0.9325
H68 H 0.5075 0.8293 0.9035
C93 C 0.59018(19) 0.74575(9) 0.91276(7)
H69 H 0.5710 0.7209 0.9094
H70 H 0.6033 0.7494 0.9357
H71 H 0.6391 0.7499 0.8996
C94 C 0.47960(18) 0.85114(7) 0.49773(6)
C95 C 0.4609(2) 0.83520(8) 0.46403(7)
H72 H 0.5081 0.8214 0.4564
H73 H 0.4493 0.8549 0.4488
H74 H 0.4134 0.8192 0.4655
C96 C 0.5540(3) 0.87666(13) 0.49461(11)
H75 H 0.5656 0.8877 0.5157
H76 H 0.5419 0.8957 0.4787
H77 H 0.6015 0.8627 0.4874
C97 C 0.4044(3) 0.87308(12) 0.50866(9)
H78 H 0.3568 0.8571 0.5098
H79 H 0.3938 0.8925 0.4930
H80 H 0.4147 0.8836 0.5301
C98 C 0.5274(2) 0.50252(7) 0.57106(8)
C99 C 0.5167(3) 0.47458(8) 0.59828(8)
H81 H 0.5674 0.4728 0.6108
H82 H 0.5036 0.4509 0.5888
H83 H 0.4723 0.4822 0.6126
C100 C 0.5911(4) 0.49614(10) 0.54780(11)
H84 H 0.5858 0.5134 0.5299
H85 H 0.5866 0.4714 0.5394
H86 H 0.6443 0.4993 0.5582
C101 C 0.4436(3) 0.49789(10) 0.55044(10)
H87 H 0.3978 0.5077 0.5629
H88 H 0.4341 0.4721 0.5461
H89 H 0.4484 0.5110 0.5299
C102 C 0.25602(16) 0.74691(7) 0.51386(6)
H90 H 0.2177 0.7306 0.5254
H91 H 0.3075 0.7336 0.5099
C103 C 0.21915(15) 0.75905(8) 0.48191(6)
H92 H 0.1943 0.7380 0.4707
H93 H 0.1758 0.7772 0.4860
C104 C 0.2495(2) 0.78580(12) 0.43064(8)
H94 H 0.2942 0.7950 0.4172
H95 H 0.2088 0.8049 0.4338
H96 H 0.2241 0.7650 0.4199
C105 C 0.70626(16) 0.94857(6) 0.73353(6)
H97 H 0.7301 0.9322 0.7500
H98 H 0.6536 0.9578 0.7418
C106 C 0.76357(17) 0.97962(8) 0.72673(7)
H99 H 0.7708 0.9936 0.7470
H100 H 0.8175 0.9695 0.7208
C107 C 0.58172(17) 0.59109(7) 0.66429(7)
O5 O 0.72063(16) 0.57262(7) 0.72739(7)
H101 H 0.7267 0.5538 0.7163
O6 O 0.7397(4) 1.00306(14) 0.70276(12)
C108 C 0.6080(4) 0.58869(15) 0.69111(15)
C109 C 0.6346(3) 0.58447(13) 0.72578(10)
C110 C 0.5797(5) 0.5571(2) 0.7430(2)
H102 H 0.5849 0.5334 0.7325
H103 H 0.5228 0.5652 0.7417
H104 H 0.5960 0.5551 0.7658
C111 C 0.6340(4) 0.62152(13) 0.74364(11)
H105 H 0.6565 0.6185 0.7655
H106 H 0.5779 0.6305 0.7452
H107 H 0.6673 0.6390 0.7315
C112 C 0.7825(4) 0.99651(17) 0.67117(13)
H108 H 0.7626 1.0138 0.6550
H109 H 0.7714 0.9718 0.6638
H110 H 0.8413 0.9997 0.6741
O9 O 0.45568(14) 0.76769(5) 0.69146(4)
H123 H 0.4198 0.7720 0.6765
H124 H 0.4819 0.7875 0.6959
O10 O 0.29430(19) 0.80372(8) 0.72826(6)
H125 H 0.2591 0.7999 0.7129
H126 H 0.2711 0.8004 0.7469
H111? H 0.8071 0.9719 0.7116
H112? H 0.7894 0.9880 0.7471
O7? O 0.5697(3) 0.63773(13) 0.74466(12)
H113? H 0.5648 0.6525 0.7294
O8? O 0.7103(7) 1.0118(3) 0.7108(3)
C113? C 0.5840(7) 0.6008(3) 0.6967(3)
C114? C 0.6023(5) 0.6028(3) 0.7320(2)
C115? C 0.6947(4) 0.6041(2) 0.7393(2)
H114? H 0.7189 0.6251 0.7285
H115? H 0.7206 0.5819 0.7312
H116? H 0.7033 0.6060 0.7627
C116? C 0.5574(7) 0.5701(4) 0.7505(4)
H117? H 0.5604 0.5740 0.7739
H118? H 0.5843 0.5472 0.7450
H119? H 0.5001 0.5691 0.7438
C117? C 0.7511(9) 1.0268(6) 0.6828(3)
H120? H 0.7686 1.0072 0.6685
H121? H 0.7988 1.0407 0.6899
H122? H 0.7134 1.0428 0.6711
loop_
_geom_bond_atom_site_label_1
_geom_bond_atom_site_label_2
_geom_bond_site_symmetry_1
_geom_bond_site_symmetry_2
O1 H1 1_555 1_555
O2 C58 1_555 1_555
O3 C103 1_555 1_555
O4 C63 1_555 1_555
N1 H2 1_555 1_555
N2 H3 1_555 1_555
N3 H4 1_555 1_555
N4 H5 1_555 1_555
N5 H6 1_555 1_555
N6 H7 1_555 1_555
N7 C55 1_555 1_555
N8 C60 1_555 1_555
C1 C2 1_555 1_555
C2 N1 1_555 1_555
C3 N1 1_555 1_555
C4 N2 1_555 1_555
C5 N2 1_555 1_555
C6 C5 1_555 1_555
C7 C6 1_555 1_555
H8 C7 1_555 1_555
C8 C7 1_555 1_555
C9 C8 1_555 1_555
H9 C9 1_555 1_555
C10 C5 1_555 1_555
C11 C4 1_555 1_555
C12 C11 1_555 1_555
H10 C12 1_555 1_555
C13 C12 1_555 1_555
H11 C13 1_555 1_555
C14 C3 1_555 1_555
C15 C2 1_555 1_555
C16 C15 1_555 1_555
H12 C16 1_555 1_555
C17 C16 1_555 1_555
C18 C1 1_555 1_555
H13 C18 1_555 1_555
C19 C20 1_555 1_555
C20 N3 1_555 1_555
C21 N3 1_555 1_555
C22 N4 1_555 1_555
C23 N4 1_555 1_555
C24 C23 1_555 1_555
C25 C24 1_555 1_555
H14 C25 1_555 1_555
C26 C25 1_555 1_555
C27 C26 1_555 1_555
H15 C27 1_555 1_555
C28 C23 1_555 1_555
C29 C22 1_555 1_555
C30 C29 1_555 1_555
H16 C30 1_555 1_555
C31 C30 1_555 1_555
H17 C31 1_555 1_555
C32 C21 1_555 1_555
C33 C20 1_555 1_555
C34 C33 1_555 1_555
H18 C34 1_555 1_555
C35 C34 1_555 1_555
C36 C19 1_555 1_555
H19 C36 1_555 1_555
C37 C38 1_555 1_555
C38 N5 1_555 1_555
C39 N5 1_555 1_555
C40 N6 1_555 1_555
C41 N6 1_555 1_555
C42 C41 1_555 1_555
C43 C42 1_555 1_555
H20 C43 1_555 1_555
C44 C43 1_555 1_555
C45 C44 1_555 1_555
H21 C45 1_555 1_555
C46 C41 1_555 1_555
C47 C40 1_555 1_555
C48 C47 1_555 1_555
H22 C48 1_555 1_555
C49 C48 1_555 1_555
H23 C49 1_555 1_555
C50 C39 1_555 1_555
C51 C38 1_555 1_555
C52 C51 1_555 1_555
H24 C52 1_555 1_555
C53 C52 1_555 1_555
C54 C37 1_555 1_555
H25 C54 1_555 1_555
C55 C59 1_555 1_555
C56 N7 1_555 1_555
C57 C56 1_555 1_555
H26 C57 1_555 1_555
C58 C57 1_555 1_555
C59 C58 1_555 1_555
H27 C59 1_555 1_555
C60 C64 1_555 1_555
C61 N8 1_555 1_555
C62 C61 1_555 1_555
H28 C62 1_555 1_555
C63 C62 1_555 1_555
C64 C63 1_555 1_555
H29 C64 1_555 1_555
C65 C66 1_555 1_555
C66 C1 1_555 1_555
C67 C6 1_555 1_555
C68 C55 1_555 1_555
C69 C56 1_555 1_555
C70 C19 1_555 1_555
C71 C24 1_555 1_555
C72 C60 1_555 1_555
C73 C61 1_555 1_555
C74 C37 1_555 1_555
C75 O1 1_555 1_555
C76 C75 1_555 1_555
H30 C76 1_555 1_555
H31 C76 1_555 1_555
H32 C76 1_555 1_555
C77 C75 1_555 1_555
H33 C77 1_555 1_555
H34 C77 1_555 1_555
H35 C77 1_555 1_555
C78 C17 1_555 1_555
C79 C78 1_555 1_555
H36 C79 1_555 1_555
H37 C79 1_555 1_555
H38 C79 1_555 1_555
C80 C78 1_555 1_555
H39 C80 1_555 1_555
H40 C80 1_555 1_555
H41 C80 1_555 1_555
C81 C78 1_555 1_555
H42 C81 1_555 1_555
H43 C81 1_555 1_555
H44 C81 1_555 1_555
C82 C8 1_555 1_555
C83 C82 1_555 1_555
H45 C83 1_555 1_555
H46 C83 1_555 1_555
H47 C83 1_555 1_555
C84 C82 1_555 1_555
H48 C84 1_555 1_555
H49 C84 1_555 1_555
H50 C84 1_555 1_555
C85 C82 1_555 1_555
H51 C85 1_555 1_555
H52 C85 1_555 1_555
H53 C85 1_555 1_555
C86 C35 1_555 1_555
C87 C86 1_555 1_555
H54 C87 1_555 1_555
H55 C87 1_555 1_555
H56 C87 1_555 1_555
C88 C86 1_555 1_555
H57 C88 1_555 1_555
H58 C88 1_555 1_555
H59 C88 1_555 1_555
C89 C86 1_555 1_555
H60 C89 1_555 1_555
H61 C89 1_555 1_555
H62 C89 1_555 1_555
C90 C26 1_555 1_555
C91 C90 1_555 1_555
H63 C91 1_555 1_555
H64 C91 1_555 1_555
H65 C91 1_555 1_555
C92 C90 1_555 1_555
H66 C92 1_555 1_555
H67 C92 1_555 1_555
H68 C92 1_555 1_555
C93 C90 1_555 1_555
H69 C93 1_555 1_555
H70 C93 1_555 1_555
H71 C93 1_555 1_555
C94 C53 1_555 1_555
C95 C94 1_555 1_555
H72 C95 1_555 1_555
H73 C95 1_555 1_555
H74 C95 1_555 1_555
C96 C94 1_555 1_555
H75 C96 1_555 1_555
H76 C96 1_555 1_555
H77 C96 1_555 1_555
C97 C94 1_555 1_555
H78 C97 1_555 1_555
H79 C97 1_555 1_555
H80 C97 1_555 1_555
C98 C44 1_555 1_555
C99 C98 1_555 1_555
H81 C99 1_555 1_555
H82 C99 1_555 1_555
H83 C99 1_555 1_555
C100 C98 1_555 1_555
H84 C100 1_555 1_555
H85 C100 1_555 1_555
H86 C100 1_555 1_555
C101 C98 1_555 1_555
H87 C101 1_555 1_555
H88 C101 1_555 1_555
H89 C101 1_555 1_555
C102 O2 1_555 1_555
H90 C102 1_555 1_555
H91 C102 1_555 1_555
C103 C102 1_555 1_555
H92 C103 1_555 1_555
H93 C103 1_555 1_555
C104 O3 1_555 1_555
H94 C104 1_555 1_555
H95 C104 1_555 1_555
H96 C104 1_555 1_555
C105 O4 1_555 1_555
H97 C105 1_555 1_555
H98 C105 1_555 1_555
C106 C105 1_555 1_555
H99 C106 1_555 1_555
H100 C106 1_555 1_555
C107 C42 1_555 1_555
O5 H101 1_555 1_555
O6 C106 1_555 1_555
C108 C107 1_555 1_555
C109 O5 1_555 1_555
C110 C109 1_555 1_555
H102 C110 1_555 1_555
H103 C110 1_555 1_555
H104 C110 1_555 1_555
C111 C109 1_555 1_555
H105 C111 1_555 1_555
H106 C111 1_555 1_555
H107 C111 1_555 1_555
C112 O6 1_555 1_555
H108 C112 1_555 1_555
H109 C112 1_555 1_555
H110 C112 1_555 1_555
O9 H123 1_555 1_555
H124 O9 1_555 1_555
O10 H125 1_555 1_555
H126 O10 1_555 1_555
C3 C4 1_555 1_555
C9 C10 1_555 1_555
C10 C11 1_555 1_555
C13 C14 1_555 1_555
C14 C15 1_555 1_555
C17 C18 1_555 1_555
C21 C22 1_555 1_555
C27 C28 1_555 1_555
C28 C29 1_555 1_555
C31 C32 1_555 1_555
C32 C33 1_555 1_555
C35 C36 1_555 1_555
C39 C40 1_555 1_555
C45 C46 1_555 1_555
C46 C47 1_555 1_555
C49 C50 1_555 1_555
C50 C51 1_555 1_555
C53 C54 1_555 1_555
C65 C75 1_555 1_555
C67 C68 1_555 1_555
C69 C70 1_555 1_555
C71 C72 1_555 1_555
C73 C74 1_555 1_555
C108 C109 1_555 1_555

#END
