
#######################################################################
#
#                 Cambridge Crystallographic Data Centre
#                                CCDC 
#
#######################################################################
#
# If this CIF has been generated from an entry in the Cambridge 
# Structural Database, then it will include bibliographic, chemical, 
# crystal, experimental, refinement or atomic coordinate data resulting 
# from the CCDC's data processing and validation procedures.
#
#######################################################################

data_IWIJIJ
_chemical_formula_moiety         'C106 H100 N8 O2 2+,O4 S1 2-,C2 H3 N1'
_chemical_name_systematic        
'2,10-di-t-butyl-4,8-bis((6-((2,10-di-t-butyl-8-(3-hydroxy-3-methylbut-1-yn-1-yl)-5,7-dihydroindolo[2,3-b]carbazol-4-yl)ethynyl)pyridin-1-ium-2-yl)ethynyl)-5,7-dihydroindolo[2,3-b]carbazole sulfate clathrate acetonitrile unknown solvate'
_symmetry_cell_setting           monoclinic
_symmetry_space_group_name_H-M   'P 21/c'
_symmetry_Int_Tables_number      14
_space_group_name_Hall           '-P 2ybc'
loop_
_symmetry_equiv_pos_site_id
_symmetry_equiv_pos_as_xyz
1 x,y,z
2 -x,1/2+y,1/2-z
3 -x,-y,-z
4 x,1/2-y,1/2+z
_cell_length_a                   20.026(4)
_cell_length_b                   36.681(7)
_cell_length_c                   14.516(3)
_cell_angle_alpha                90
_cell_angle_beta                 110.35(3)
_cell_angle_gamma                90
_cell_volume                     9997.55
_exptl_crystal_colour            'dull reddish brown'
_exptl_crystal_description       needle
_cell_formula_units_Z            4
loop_
_atom_site_label
_atom_site_type_symbol
_atom_site_fract_x
_atom_site_fract_y
_atom_site_fract_z
O1 O 0.58179(15) 0.55544(6) 0.53745(18)
H1 H 0.5453 0.5539 0.4892
O2 O 0.32443(13) 0.54578(7) 0.12378(18)
H2 H 0.3542 0.5435 0.1790
N1 N 0.55478(12) 0.71628(6) 0.39541(16)
H3 H 0.5219 0.7053 0.4101
N2 N 0.44158(11) 0.78013(6) 0.38074(15)
H4 H 0.4208 0.7612 0.3934
N3 N 0.36154(12) 0.60472(6) 0.37211(16)
H5 H 0.3553 0.6278 0.3634
N4 N 0.46108(12) 0.62477(6) 0.24939(17)
H6 H 0.4393 0.6448 0.2513
N5 N 0.17087(11) 0.74628(5) 0.18384(15)
H7 H 0.2093 0.7369 0.1804
N6 N 0.14216(11) 0.65930(5) 0.19851(16)
H8 H 0.1829 0.6593 0.1909
N7 N 0.23312(11) 0.72125(5) 0.42372(15)
H9 H 0.2729 0.7164 0.4161
N8 N 0.40329(11) 0.75912(6) 0.13553(15)
H10 H 0.3793 0.7430 0.1538
C1 C 0.64648(16) 0.66620(10) 0.4281(2)
C2 C 0.61821(15) 0.70084(9) 0.3954(2)
C3 C 0.55385(14) 0.75230(8) 0.36790(19)
C4 C 0.50566(14) 0.78022(8) 0.36390(19)
C5 C 0.41695(14) 0.81531(7) 0.37376(19)
C6 C 0.35505(14) 0.82910(7) 0.38519(19)
C7 C 0.34367(15) 0.86669(7) 0.37395(19)
H11 H 0.3027 0.8763 0.3807
C8 C 0.39123(16) 0.89045(7) 0.3530(2)
C9 C 0.45125(16) 0.87589(8) 0.3408(2)
H12 H 0.4830 0.8912 0.3255
C10 C 0.46483(15) 0.83865(8) 0.3509(2)
C11 C 0.52192(15) 0.81582(8) 0.3439(2)
C12 C 0.58481(16) 0.82372(10) 0.3254(2)
H13 H 0.5942 0.8475 0.3111
C13 C 0.63218(17) 0.79654(10) 0.3284(2)
H14 H 0.6738 0.8017 0.3161
C14 C 0.61729(15) 0.76056(10) 0.3504(2)
C15 C 0.65826(15) 0.72735(10) 0.3683(2)
C16 C 0.72676(17) 0.71936(13) 0.3705(3)
H15 H 0.7534 0.7369 0.3524
C17 C 0.75508(19) 0.68470(16) 0.4000(3)
C18 C 0.71396(18) 0.65895(12) 0.4270(3)
H16 H 0.7329 0.6358 0.4451
C19 C 0.26936(15) 0.59009(6) 0.4480(2)
C20 C 0.32582(15) 0.58210(6) 0.4154(2)
C21 C 0.40921(15) 0.58364(7) 0.3451(2)
C22 C 0.45361(15) 0.59247(7) 0.2926(2)
C23 C 0.50968(14) 0.61947(7) 0.2022(2)
C24 C 0.53385(14) 0.64461(8) 0.1491(2)
C25 C 0.58365(15) 0.63225(9) 0.1087(2)
H17 H 0.6001 0.6484 0.0720
C26 C 0.60970(16) 0.59663(9) 0.1212(2)
C27 C 0.58432(16) 0.57228(8) 0.1756(2)
H18 H 0.6014 0.5485 0.1849
C28 C 0.53408(15) 0.58323(8) 0.2156(2)
C29 C 0.49703(16) 0.56544(8) 0.2739(2)
C30 C 0.49642(17) 0.52950(8) 0.3074(2)
H19 H 0.5258 0.5119 0.2952
C31 C 0.45221(17) 0.52035(8) 0.3584(2)
H20 H 0.4517 0.4966 0.3806
C32 C 0.40752(16) 0.54726(7) 0.3768(2)
C33 C 0.35365(15) 0.54639(7) 0.4212(2)
C34 C 0.32308(16) 0.51815(7) 0.4580(2)
H21 H 0.3417 0.4947 0.4629
C35 C 0.26506(16) 0.52489(7) 0.4871(2)
C36 C 0.23969(15) 0.56072(7) 0.4834(2)
H22 H 0.2019 0.5653 0.5050
C37 C 0.19590(14) 0.81323(6) 0.17211(18)
C38 C 0.15553(13) 0.78299(6) 0.18171(18)
C39 C 0.11352(13) 0.72714(6) 0.19245(18)
C40 C 0.10143(13) 0.68963(6) 0.19961(18)
C41 C 0.10501(14) 0.62853(7) 0.2120(2)
C42 C 0.12290(14) 0.59151(7) 0.2157(2)
C43 C 0.07385(16) 0.56699(7) 0.2321(2)
H23 H 0.0855 0.5424 0.2380
C44 C 0.00899(16) 0.57737(7) 0.2402(2)
C45 C -0.00771(15) 0.61403(7) 0.2324(2)
H24 H -0.0508 0.6218 0.2365
C46 C 0.04003(14) 0.63968(7) 0.2184(2)
C47 C 0.03672(13) 0.67880(7) 0.20930(19)
C48 C -0.01616(14) 0.70402(7) 0.2097(2)
H25 H -0.0589 0.6960 0.2145
C49 C -0.00420(14) 0.74052(7) 0.2031(2)
H26 H -0.0383 0.7575 0.2047
C50 C 0.06011(13) 0.75213(6) 0.19378(19)
C51 C 0.08807(14) 0.78795(6) 0.18804(18)
C52 C 0.06002(15) 0.82296(7) 0.1865(2)
H27 H 0.0154 0.8258 0.1918
C53 C 0.09827(16) 0.85351(7) 0.1770(2)
C54 C 0.16587(15) 0.84783(7) 0.1697(2)
H28 H 0.1918 0.8681 0.1629
C55 C 0.21451(13) 0.75677(6) 0.42556(18)
C56 C 0.19228(13) 0.69294(6) 0.43332(18)
C57 C 0.12694(14) 0.70072(6) 0.44221(19)
H29 H 0.0971 0.6819 0.4468
C58 C 0.10652(14) 0.73676(7) 0.44414(19)
H30 H 0.0630 0.7420 0.4507
C59 C 0.15003(14) 0.76498(7) 0.43650(19)
H31 H 0.1363 0.7891 0.4386
C60 C 0.46252(14) 0.74837(7) 0.11837(19)
C61 C 0.37988(14) 0.79419(6) 0.12531(18)
C62 C 0.41709(15) 0.82023(7) 0.0940(2)
H32 H 0.4017 0.8443 0.0858
C63 C 0.47690(16) 0.81015(8) 0.0750(2)
H33 H 0.5018 0.8275 0.0531
C64 C 0.50083(15) 0.77445(8) 0.0881(2)
H34 H 0.5422 0.7680 0.0768
C65 C 0.59549(18) 0.61855(9) 0.5222(2)
C66 C 0.61357(17) 0.64071(10) 0.4729(2)
C67 C 0.30464(14) 0.80482(6) 0.40414(18)
C68 C 0.26348(14) 0.78344(6) 0.41631(19)
C69 C 0.21947(14) 0.65686(6) 0.43679(18)
C70 C 0.24138(14) 0.62627(6) 0.44243(19)
C71 C 0.50777(15) 0.68102(8) 0.1370(2)
C72 C 0.48353(14) 0.71143(7) 0.13016(19)
C73 C 0.31717(14) 0.80160(6) 0.14702(18)
C74 C 0.26263(14) 0.80808(6) 0.16038(18)
C75 C 0.18137(16) 0.57631(7) 0.1941(2)
C76 C 0.22092(17) 0.55807(8) 0.1677(2)
C77 C 0.5835(2) 0.59010(9) 0.5849(2)
C78 C 0.5138(2) 0.59551(9) 0.6050(3)
H35 H 0.4751 0.5986 0.5439
H36 H 0.5177 0.6167 0.6452
H37 H 0.5049 0.5745 0.6386
C79 C 0.6470(2) 0.58784(12) 0.6801(3)
H38 H 0.6387 0.5692 0.7212
H39 H 0.6533 0.6109 0.7135
H40 H 0.6890 0.5820 0.6656
C80 C 0.25733(18) 0.53195(8) 0.1229(2)
C81 C 0.2126(2) 0.52794(10) 0.0155(3)
H41 H 0.2073 0.5513 -0.0160
H42 H 0.1666 0.5186 0.0096
H43 H 0.2356 0.5114 -0.0152
C82 C 0.2670(2) 0.49547(8) 0.1757(3)
H44 H 0.2904 0.4787 0.1460
H45 H 0.2212 0.4859 0.1706
H46 H 0.2954 0.4988 0.2436
C83 C 0.37947(19) 0.93183(8) 0.3473(3)
C84 C 0.8335(3) 0.6779(2) 0.4083(4)
C85 C 0.8817(3) 0.6938(2) 0.4982(6)
H47 H 0.8682 0.7186 0.5033
H48 H 0.9294 0.6931 0.4975
H49 H 0.8794 0.6801 0.5535
C86 C 0.8405(4) 0.6745(3) 0.3196(7)
H50 H 0.8770 0.6569 0.3236
H51 H 0.8535 0.6976 0.2997
H52 H 0.7962 0.6665 0.2723
C87 C 0.8502(3) 0.63395(19) 0.4363(5)
H53 H 0.8170 0.6192 0.3864
H54 H 0.8452 0.6290 0.4985
H55 H 0.8978 0.6283 0.4399
C88 C 0.22886(18) 0.49233(7) 0.5173(2)
C89 C 0.2838(2) 0.46925(8) 0.5960(3)
H56 H 0.3193 0.4606 0.5708
H57 H 0.2603 0.4489 0.6130
H58 H 0.3060 0.4839 0.6533
C90 C 0.19395(19) 0.46892(8) 0.4264(2)
H59 H 0.1601 0.4833 0.3765
H60 H 0.1700 0.4487 0.4432
H61 H 0.2298 0.4600 0.4021
C91 C 0.1716(2) 0.50436(8) 0.5587(3)
H62 H 0.1923 0.5204 0.6135
H63 H 0.1523 0.4833 0.5799
H64 H 0.1342 0.5169 0.5086
C92 C -0.04322(18) 0.54828(8) 0.2518(3)
C93 C -0.0997(2) 0.56466(10) 0.2849(3)
H65 H -0.0779 0.5758 0.3482
H66 H -0.1319 0.5459 0.2892
H67 H -0.1255 0.5828 0.2384
C94 C -0.0039(2) 0.52048(10) 0.3300(3)
H68 H 0.0324 0.5088 0.3113
H69 H -0.0370 0.5025 0.3359
H70 H 0.0176 0.5326 0.3919
C95 C -0.0787(3) 0.53037(13) 0.1535(3)
H71 H -0.1011 0.5486 0.1052
H72 H -0.1140 0.5134 0.1580
H73 H -0.0437 0.5176 0.1345
C96 C 0.06809(18) 0.89214(7) 0.1705(3)
C97 C 0.0003(2) 0.89322(9) 0.1948(3)
H74 H -0.0366 0.8801 0.1456
H75 H -0.0142 0.9181 0.1964
H76 H 0.0088 0.8822 0.2578
C98 C 0.0521(2) 0.90645(10) 0.0653(3)
H77 H 0.0948 0.9060 0.0496
H78 H 0.0347 0.9310 0.0608
H79 H 0.0167 0.8913 0.0198
C99 C 0.1218(2) 0.91739(10) 0.2402(3)
H80 H 0.1362 0.9077 0.3056
H81 H 0.1006 0.9410 0.2389
H82 H 0.1626 0.9196 0.2204
C100 C 0.2988(3) 0.94263(13) 0.3148(5)
H83 H 0.2942 0.9686 0.3074
H84 H 0.2799 0.9348 0.3638
H85 H 0.2730 0.9311 0.2533
C101 C 0.4106(4) 0.95128(15) 0.2827(5)
H86 H 0.4018 0.9769 0.2847
H87 H 0.3892 0.9426 0.2166
H88 H 0.4610 0.9470 0.3050
C102 C 0.4147(3) 0.94687(12) 0.4581(4)
H89 H 0.4097 0.9729 0.4583
H90 H 0.4643 0.9406 0.4833
H91 H 0.3910 0.9361 0.4987
C103 C 0.6662(10) 0.5891(3) 0.0734(12)
C104 C 0.7286(4) 0.61704(18) 0.1089(9)
H92 H 0.7671 0.6090 0.0888
H93 H 0.7449 0.6188 0.1793
H94 H 0.7123 0.6405 0.0806
C105 C 0.6339(4) 0.5876(3) -0.0347(5)
H95 H 0.5973 0.5693 -0.0531
H96 H 0.6698 0.5816 -0.0620
H97 H 0.6134 0.6109 -0.0592
C106 C 0.6999(8) 0.5516(4) 0.1099(9)
H98 H 0.7158 0.5509 0.1803
H99 H 0.7398 0.5478 0.0887
H100 H 0.6652 0.5328 0.0833
N9 N 0.1469(3) 0.63963(10) -0.0384(3)
C114 C 0.2065(3) 0.63633(9) 0.0107(3)
C115 C 0.2806(2) 0.63277(9) 0.0736(3)
H119 H 0.2840 0.6338 0.1412
H120 H 0.3078 0.6523 0.0603
H121 H 0.2989 0.6099 0.0609
S1 S 0.34288(3) 0.69946(2) 0.28805(5)
O3 O 0.34644(10) 0.72184(5) 0.37483(14)
O4 O 0.31302(10) 0.72131(5) 0.19767(13)
O5 O 0.41546(9) 0.68830(5) 0.29965(14)
O6 O 0.29622(9) 0.66806(4) 0.28230(13)
C107? C 0.3293(9) 0.9424(3) 0.3880(14)
H101? H 0.3447 0.9350 0.4556
H102? H 0.2844 0.9312 0.3526
H103? H 0.3241 0.9685 0.3841
C108? C 0.3533(10) 0.9388(4) 0.2295(10)
H104? H 0.3110 0.9249 0.1975
H105? H 0.3901 0.9313 0.2053
H106? H 0.3435 0.9642 0.2162
C109? C 0.4518(8) 0.9516(4) 0.3898(14)
H107? H 0.4762 0.9435 0.4559
H108? H 0.4440 0.9774 0.3897
H109? H 0.4802 0.9462 0.3502
C110? C 0.6634(16) 0.5771(5) 0.079(2)
C111? C 0.7183(12) 0.5547(7) 0.1461(15)
H110? H 0.7437 0.5687 0.2036
H111? H 0.7508 0.5468 0.1148
H112? H 0.6970 0.5339 0.1648
C112? C 0.6935(8) 0.6084(4) 0.0349(12)
H113? H 0.7281 0.5989 0.0090
H114? H 0.7158 0.6260 0.0852
H115? H 0.6555 0.6198 -0.0169
C113? C 0.6194(6) 0.5522(4) -0.0105(9)
H116? H 0.6502 0.5432 -0.0433
H117? H 0.5817 0.5662 -0.0558
H118? H 0.5994 0.5320 0.0133
loop_
_geom_bond_atom_site_label_1
_geom_bond_atom_site_label_2
_geom_bond_site_symmetry_1
_geom_bond_site_symmetry_2
O1 H1 1_555 1_555
O2 H2 1_555 1_555
N1 H3 1_555 1_555
N2 H4 1_555 1_555
N3 H5 1_555 1_555
N4 H6 1_555 1_555
N5 H7 1_555 1_555
N6 H8 1_555 1_555
N7 H9 1_555 1_555
N8 H10 1_555 1_555
C1 C2 1_555 1_555
C2 N1 1_555 1_555
C3 N1 1_555 1_555
C4 N2 1_555 1_555
C5 N2 1_555 1_555
C6 C5 1_555 1_555
C7 C6 1_555 1_555
H11 C7 1_555 1_555
C8 C7 1_555 1_555
C9 C8 1_555 1_555
H12 C9 1_555 1_555
C10 C5 1_555 1_555
C11 C4 1_555 1_555
C12 C11 1_555 1_555
H13 C12 1_555 1_555
C13 C12 1_555 1_555
H14 C13 1_555 1_555
C14 C3 1_555 1_555
C15 C2 1_555 1_555
C16 C15 1_555 1_555
H15 C16 1_555 1_555
C17 C16 1_555 1_555
C18 C1 1_555 1_555
H16 C18 1_555 1_555
C19 C20 1_555 1_555
C20 N3 1_555 1_555
C21 N3 1_555 1_555
C22 N4 1_555 1_555
C23 N4 1_555 1_555
C24 C23 1_555 1_555
C25 C24 1_555 1_555
H17 C25 1_555 1_555
C26 C25 1_555 1_555
C27 C26 1_555 1_555
H18 C27 1_555 1_555
C28 C23 1_555 1_555
C29 C22 1_555 1_555
C30 C29 1_555 1_555
H19 C30 1_555 1_555
C31 C30 1_555 1_555
H20 C31 1_555 1_555
C32 C21 1_555 1_555
C33 C20 1_555 1_555
C34 C33 1_555 1_555
H21 C34 1_555 1_555
C35 C34 1_555 1_555
C36 C19 1_555 1_555
H22 C36 1_555 1_555
C37 C38 1_555 1_555
C38 N5 1_555 1_555
C39 N5 1_555 1_555
C40 N6 1_555 1_555
C41 N6 1_555 1_555
C42 C41 1_555 1_555
C43 C42 1_555 1_555
H23 C43 1_555 1_555
C44 C43 1_555 1_555
C45 C44 1_555 1_555
H24 C45 1_555 1_555
C46 C41 1_555 1_555
C47 C40 1_555 1_555
C48 C47 1_555 1_555
H25 C48 1_555 1_555
C49 C48 1_555 1_555
H26 C49 1_555 1_555
C50 C39 1_555 1_555
C51 C38 1_555 1_555
C52 C51 1_555 1_555
H27 C52 1_555 1_555
C53 C52 1_555 1_555
C54 C37 1_555 1_555
H28 C54 1_555 1_555
C55 N7 1_555 1_555
C56 N7 1_555 1_555
C57 C56 1_555 1_555
H29 C57 1_555 1_555
C58 C57 1_555 1_555
H30 C58 1_555 1_555
C59 C55 1_555 1_555
H31 C59 1_555 1_555
C60 N8 1_555 1_555
C61 N8 1_555 1_555
C62 C61 1_555 1_555
H32 C62 1_555 1_555
C63 C62 1_555 1_555
H33 C63 1_555 1_555
C64 C60 1_555 1_555
H34 C64 1_555 1_555
C65 C66 1_555 1_555
C66 C1 1_555 1_555
C67 C6 1_555 1_555
C68 C55 1_555 1_555
C69 C56 1_555 1_555
C70 C19 1_555 1_555
C71 C24 1_555 1_555
C72 C60 1_555 1_555
C73 C61 1_555 1_555
C74 C37 1_555 1_555
C75 C42 1_555 1_555
C76 C75 1_555 1_555
C77 O1 1_555 1_555
C78 C77 1_555 1_555
H35 C78 1_555 1_555
H36 C78 1_555 1_555
H37 C78 1_555 1_555
C79 C77 1_555 1_555
H38 C79 1_555 1_555
H39 C79 1_555 1_555
H40 C79 1_555 1_555
C80 O2 1_555 1_555
C81 C80 1_555 1_555
H41 C81 1_555 1_555
H42 C81 1_555 1_555
H43 C81 1_555 1_555
C82 C80 1_555 1_555
H44 C82 1_555 1_555
H45 C82 1_555 1_555
H46 C82 1_555 1_555
C83 C8 1_555 1_555
C84 C17 1_555 1_555
C85 C84 1_555 1_555
H47 C85 1_555 1_555
H48 C85 1_555 1_555
H49 C85 1_555 1_555
C86 C84 1_555 1_555
H50 C86 1_555 1_555
H51 C86 1_555 1_555
H52 C86 1_555 1_555
C87 C84 1_555 1_555
H53 C87 1_555 1_555
H54 C87 1_555 1_555
H55 C87 1_555 1_555
C88 C35 1_555 1_555
C89 C88 1_555 1_555
H56 C89 1_555 1_555
H57 C89 1_555 1_555
H58 C89 1_555 1_555
C90 C88 1_555 1_555
H59 C90 1_555 1_555
H60 C90 1_555 1_555
H61 C90 1_555 1_555
C91 C88 1_555 1_555
H62 C91 1_555 1_555
H63 C91 1_555 1_555
H64 C91 1_555 1_555
C92 C44 1_555 1_555
C93 C92 1_555 1_555
H65 C93 1_555 1_555
H66 C93 1_555 1_555
H67 C93 1_555 1_555
C94 C92 1_555 1_555
H68 C94 1_555 1_555
H69 C94 1_555 1_555
H70 C94 1_555 1_555
C95 C92 1_555 1_555
H71 C95 1_555 1_555
H72 C95 1_555 1_555
H73 C95 1_555 1_555
C96 C53 1_555 1_555
C97 C96 1_555 1_555
H74 C97 1_555 1_555
H75 C97 1_555 1_555
H76 C97 1_555 1_555
C98 C96 1_555 1_555
H77 C98 1_555 1_555
H78 C98 1_555 1_555
H79 C98 1_555 1_555
C99 C96 1_555 1_555
H80 C99 1_555 1_555
H81 C99 1_555 1_555
H82 C99 1_555 1_555
C100 C83 1_555 1_555
H83 C100 1_555 1_555
H84 C100 1_555 1_555
H85 C100 1_555 1_555
C101 C83 1_555 1_555
H86 C101 1_555 1_555
H87 C101 1_555 1_555
H88 C101 1_555 1_555
C102 C83 1_555 1_555
H89 C102 1_555 1_555
H90 C102 1_555 1_555
H91 C102 1_555 1_555
C103 C26 1_555 1_555
C104 C103 1_555 1_555
H92 C104 1_555 1_555
H93 C104 1_555 1_555
H94 C104 1_555 1_555
C105 C103 1_555 1_555
H95 C105 1_555 1_555
H96 C105 1_555 1_555
H97 C105 1_555 1_555
C106 C103 1_555 1_555
H98 C106 1_555 1_555
H99 C106 1_555 1_555
H100 C106 1_555 1_555
N9 C114 1_555 1_555
C114 C115 1_555 1_555
C115 H119 1_555 1_555
H120 C115 1_555 1_555
H121 C115 1_555 1_555
S1 O3 1_555 1_555
O4 S1 1_555 1_555
O5 S1 1_555 1_555
O6 S1 1_555 1_555
C3 C4 1_555 1_555
C9 C10 1_555 1_555
C10 C11 1_555 1_555
C13 C14 1_555 1_555
C14 C15 1_555 1_555
C17 C18 1_555 1_555
C21 C22 1_555 1_555
C27 C28 1_555 1_555
C28 C29 1_555 1_555
C31 C32 1_555 1_555
C32 C33 1_555 1_555
C35 C36 1_555 1_555
C39 C40 1_555 1_555
C45 C46 1_555 1_555
C46 C47 1_555 1_555
C49 C50 1_555 1_555
C50 C51 1_555 1_555
C53 C54 1_555 1_555
C58 C59 1_555 1_555
C63 C64 1_555 1_555
C65 C77 1_555 1_555
C67 C68 1_555 1_555
C69 C70 1_555 1_555
C71 C72 1_555 1_555
C73 C74 1_555 1_555
C76 C80 1_555 1_555

#END
