
#######################################################################
#
#                 Cambridge Crystallographic Data Centre
#                                CCDC 
#
#######################################################################
#
# If this CIF has been generated from an entry in the Cambridge 
# Structural Database, then it will include bibliographic, chemical, 
# crystal, experimental, refinement or atomic coordinate data resulting 
# from the CCDC's data processing and validation procedures.
#
#######################################################################

data_IWILOR
_chemical_formula_moiety         'C30 H46 B1 K1 N4'
_chemical_name_systematic        
(N,N,N-tris(2-(dimethylamino)ethyl)amine)-(hydrido(triphenyl)borate)-potassium
_symmetry_cell_setting           monoclinic
_symmetry_space_group_name_H-M   'P 21/c'
_symmetry_Int_Tables_number      14
_space_group_name_Hall           '-P 2ybc'
loop_
_symmetry_equiv_pos_site_id
_symmetry_equiv_pos_as_xyz
1 x,y,z
2 -x,1/2+y,1/2-z
3 -x,-y,-z
4 x,1/2-y,1/2+z
_cell_length_a                   16.436(7)
_cell_length_b                   10.063(4)
_cell_length_c                   18.000(8)
_cell_angle_alpha                90
_cell_angle_beta                 91.481(8)
_cell_angle_gamma                90
_cell_volume                     2976.12
_exptl_crystal_colour            colorless
_exptl_crystal_description       block
_cell_formula_units_Z            4
_chemical_properties_physical    
Air-sensitive,Moisture-sensitive,Hygroscopic,Oxygen-sensitive
loop_
_atom_site_label
_atom_site_type_symbol
_atom_site_fract_x
_atom_site_fract_y
_atom_site_fract_z
K1 K 0.75198(5) 0.89339(8) 0.05070(5)
B1 B 0.7425(3) 1.1345(4) -0.1046(3)
H1 H 0.738(2) 1.015(4) -0.114(2)
N1 N 0.8765(2) 0.7250(3) 0.00346(18)
N2 N 0.74284(19) 0.8213(3) 0.20180(17)
N3 N 0.6073(2) 0.7865(3) -0.00624(18)
N4 N 0.72828(19) 0.6136(3) 0.08098(17)
C1 C 0.8538(3) 0.7353(5) -0.0751(3)
H2 H 0.792(3) 0.707(5) -0.084(3)
H3 H 0.862(3) 0.845(5) -0.093(3)
H4 H 0.886(3) 0.683(5) -0.108(3)
C2 C 0.9604(3) 0.7691(5) 0.0147(3)
H5 H 0.999(3) 0.713(5) -0.015(3)
H6 H 0.964(3) 0.863(5) 0.000(3)
H7 H 0.978(3) 0.767(5) 0.068(3)
C3 C 0.8311(3) 0.8349(5) 0.2121(3)
H8 H 0.862(3) 0.772(5) 0.171(3)
H9 H 0.848(3) 0.926(5) 0.207(3)
H10 H 0.847(3) 0.805(5) 0.265(3)
C4 C 0.7007(3) 0.9086(5) 0.2530(2)
H11 H 0.710(3) 0.881(4) 0.310(3)
H12 H 0.639(3) 0.901(5) 0.240(3)
H13 H 0.716(3) 0.999(5) 0.246(3)
C5 C 0.5608(3) 0.8463(5) 0.0531(3)
H14 H 0.504(3) 0.815(5) 0.053(2)
H15 H 0.585(3) 0.824(4) 0.108(3)
H16 H 0.559(3) 0.946(5) 0.044(2)
C6 C 0.5768(3) 0.8339(5) -0.0785(3)
H17 H 0.612(3) 0.789(5) -0.118(3)
H18 H 0.518(3) 0.808(5) -0.089(3)
H19 H 0.581(3) 0.944(5) -0.079(3)
C7 C 0.8683(3) 0.5875(4) 0.0295(2)
H20 H 0.888(3) 0.582(4) 0.080(2)
H21 H 0.902(2) 0.526(4) -0.004(2)
C8 C 0.7806(3) 0.5379(4) 0.0315(2)
H22 H 0.758(3) 0.542(4) -0.019(3)
H23 H 0.784(2) 0.445(5) 0.049(2)
C9 C 0.7167(3) 0.6835(4) 0.2141(2)
H24 H 0.653(3) 0.677(4) 0.213(2)
H25 H 0.733(2) 0.651(4) 0.268(2)
C10 C 0.7493(3) 0.5832(4) 0.1595(2)
H26 H 0.810(3) 0.579(4) 0.165(2)
H27 H 0.727(2) 0.497(5) 0.172(2)
C11 C 0.6051(3) 0.6413(4) -0.0043(3)
H28 H 0.633(3) 0.614(4) -0.051(2)
H29 H 0.548(3) 0.617(4) -0.008(2)
C12 C 0.6421(3) 0.5792(4) 0.0653(3)
H30 H 0.609(3) 0.606(4) 0.109(2)
H31 H 0.637(2) 0.481(5) 0.060(2)
C13 C 0.7535(2) 1.1667(4) -0.0159(2)
C14 C 0.6871(2) 1.1828(4) 0.0315(2)
H32 H 0.632(3) 1.184(4) 0.010(2)
C15 C 0.6978(3) 1.1966(4) 0.1085(2)
H33 H 0.650(3) 1.203(4) 0.137(2)
C16 C 0.7750(3) 1.1973(4) 0.1410(2)
H34 H 0.782(3) 1.208(4) 0.194(2)
C17 C 0.8413(3) 1.1825(4) 0.0959(2)
H35 H 0.904(3) 1.190(4) 0.117(2)
C18 C 0.8299(2) 1.1681(4) 0.0194(2)
H36 H 0.879(2) 1.156(4) -0.011(2)
C19 C 0.8219(2) 1.1860(4) -0.1488(2)
C20 C 0.8469(2) 1.3202(4) -0.1458(2)
H37 H 0.813(2) 1.380(4) -0.115(2)
C21 C 0.9133(3) 1.3672(4) -0.1830(2)
H38 H 0.929(2) 1.461(5) -0.178(2)
C22 C 0.9591(3) 1.2819(5) -0.2256(2)
H39 H 1.006(3) 1.319(4) -0.252(2)
C23 C 0.9367(3) 1.1493(5) -0.2294(2)
H40 H 0.966(3) 1.090(4) -0.259(2)
C24 C 0.8700(3) 1.1030(5) -0.1918(2)
H41 H 0.855(3) 1.013(5) -0.196(2)
C25 C 0.6615(2) 1.2011(4) -0.1428(2)
C26 C 0.6331(2) 1.3295(4) -0.1251(2)
H42 H 0.658(2) 1.374(4) -0.083(2)
C27 C 0.5686(2) 1.3895(4) -0.1625(2)
H43 H 0.556(2) 1.488(4) -0.150(2)
C28 C 0.5286(2) 1.3243(4) -0.2210(2)
H44 H 0.478(3) 1.357(4) -0.247(2)
C29 C 0.5527(2) 1.1972(4) -0.2391(2)
H45 H 0.528(2) 1.149(4) -0.281(2)
C30 C 0.6174(2) 1.1373(4) -0.2010(2)
H46 H 0.636(2) 1.041(4) -0.215(2)
loop_
_geom_bond_atom_site_label_1
_geom_bond_atom_site_label_2
_geom_bond_site_symmetry_1
_geom_bond_site_symmetry_2
K1 N1 1_555 1_555
B1 H1 1_555 1_555
N1 C1 1_555 1_555
N2 K1 1_555 1_555
N3 K1 1_555 1_555
N4 K1 1_555 1_555
C1 H2 1_555 1_555
H3 C1 1_555 1_555
H4 C1 1_555 1_555
C2 N1 1_555 1_555
H5 C2 1_555 1_555
H6 C2 1_555 1_555
H7 C2 1_555 1_555
C3 N2 1_555 1_555
H8 C3 1_555 1_555
H9 C3 1_555 1_555
H10 C3 1_555 1_555
C4 N2 1_555 1_555
H11 C4 1_555 1_555
H12 C4 1_555 1_555
H13 C4 1_555 1_555
C5 N3 1_555 1_555
H14 C5 1_555 1_555
H15 C5 1_555 1_555
H16 C5 1_555 1_555
C6 N3 1_555 1_555
H17 C6 1_555 1_555
H18 C6 1_555 1_555
H19 C6 1_555 1_555
C7 N1 1_555 1_555
H20 C7 1_555 1_555
H21 C7 1_555 1_555
C8 N4 1_555 1_555
H22 C8 1_555 1_555
H23 C8 1_555 1_555
C9 N2 1_555 1_555
H24 C9 1_555 1_555
H25 C9 1_555 1_555
C10 N4 1_555 1_555
H26 C10 1_555 1_555
H27 C10 1_555 1_555
C11 N3 1_555 1_555
H28 C11 1_555 1_555
H29 C11 1_555 1_555
C12 N4 1_555 1_555
H30 C12 1_555 1_555
H31 C12 1_555 1_555
C13 K1 1_555 1_555
C14 K1 1_555 1_555
H32 C14 1_555 1_555
C15 C14 1_555 1_555
H33 C15 1_555 1_555
C16 C15 1_555 1_555
H34 C16 1_555 1_555
C17 C16 1_555 1_555
H35 C17 1_555 1_555
C18 K1 1_555 1_555
H36 C18 1_555 1_555
C19 B1 1_555 1_555
C20 C19 1_555 1_555
H37 C20 1_555 1_555
C21 C20 1_555 1_555
H38 C21 1_555 1_555
C22 C21 1_555 1_555
H39 C22 1_555 1_555
C23 C22 1_555 1_555
H40 C23 1_555 1_555
C24 C19 1_555 1_555
H41 C24 1_555 1_555
C25 B1 1_555 1_555
C26 C25 1_555 1_555
H42 C26 1_555 1_555
C27 C26 1_555 1_555
H43 C27 1_555 1_555
C28 C27 1_555 1_555
H44 C28 1_555 1_555
C29 C28 1_555 1_555
H45 C29 1_555 1_555
C30 C25 1_555 1_555
H46 C30 1_555 1_555
B1 C13 1_555 1_555
C7 C8 1_555 1_555
C9 C10 1_555 1_555
C11 C12 1_555 1_555
C13 C14 1_555 1_555
C13 C18 1_555 1_555
C17 C18 1_555 1_555
C23 C24 1_555 1_555
C29 C30 1_555 1_555

#END
