
#######################################################################
#
#                 Cambridge Crystallographic Data Centre
#                                CCDC 
#
#######################################################################
#
# If this CIF has been generated from an entry in the Cambridge 
# Structural Database, then it will include bibliographic, chemical, 
# crystal, experimental, refinement or atomic coordinate data resulting 
# from the CCDC's data processing and validation procedures.
#
#######################################################################

data_IWILUX
_chemical_formula_moiety         'C31 H46 B1 Li1 N4 O2'
_chemical_name_systematic        
(N,N,N-tris(2-(dimethylamino)ethyl)amine)-(formato(triphenyl)borate)-lithium
_symmetry_cell_setting           trigonal
_symmetry_space_group_name_H-M   'P -3'
_symmetry_Int_Tables_number      147
_space_group_name_Hall           '-P 3'
loop_
_symmetry_equiv_pos_site_id
_symmetry_equiv_pos_as_xyz
1 x,y,z
2 -y,x-y,z
3 -x+y,-x,z
4 -x,-y,-z
5 y,-x+y,-z
6 x-y,x,-z
_cell_length_a                   11.660(5)
_cell_length_b                   11.660(5)
_cell_length_c                   13.306(5)
_cell_angle_alpha                90
_cell_angle_beta                 90
_cell_angle_gamma                120
_cell_volume                     1566.66
_exptl_crystal_colour            colorless
_cell_formula_units_Z            2
_chemical_properties_physical    
Air-sensitive,Moisture-sensitive,Hygroscopic,Oxygen-sensitive
loop_
_atom_site_label
_atom_site_type_symbol
_atom_site_fract_x
_atom_site_fract_y
_atom_site_fract_z
N1 N 0.1911(3) 0.4558(3) 0.6475(2)
N2 N 0.3333 0.6667 0.7901(3)
O1 O 0.2929(13) 0.6229(13) 0.3224(5)
O2 O 0.342(15) 0.696(3) 0.4795(4)
C1 C 0.349(9) 0.7050(16) 0.3894(8)
H1 H 0.420(12) 0.810(12) 0.364(8)
B1 B 0.3333 0.6667 0.2056(5)
Li1 Li 0.3333 0.6667 0.6256(7)
C2 C 0.2341(3) 0.7189(3) 0.1695(3)
C3 C 0.2355(4) 0.8282(4) 0.2144(4)
H2 H 0.301(4) 0.868(4) 0.276(3)
C4 C 0.1544(5) 0.8776(4) 0.1789(5)
H3 H 0.155(5) 0.945(5) 0.214(4)
C5 C 0.0717(5) 0.8200(4) 0.0981(5)
H4 H 0.015(5) 0.856(5) 0.072(3)
C6 C 0.0682(4) 0.7132(4) 0.0521(4)
H5 H -0.005(4) 0.660(4) -0.004(3)
C7 C 0.1471(3) 0.6638(4) 0.0878(3)
H6 H 0.141(3) 0.588(4) 0.058(3)
C8 C 0.0598(4) 0.4405(5) 0.6308(3)
H7 H -0.015(4) 0.344(5) 0.651(3)
H8 H 0.061(4) 0.469(4) 0.558(4)
H9 H 0.048(4) 0.506(5) 0.675(3)
C9 C 0.2050(5) 0.3614(5) 0.5824(4)
H10 H 0.299(5) 0.377(5) 0.590(4)
H11 H 0.198(5) 0.385(5) 0.513(4)
H12 H 0.123(5) 0.260(5) 0.590(3)
C10 C 0.2067(4) 0.4286(3) 0.7535(3)
H13 H 0.292(4) 0.421(3) 0.754(3)
H14 H 0.134(4) 0.349(4) 0.771(3)
C11 C 0.2223(3) 0.5385(3) 0.8224(2)
H15 H 0.136(3) 0.543(3) 0.822(2)
H16 H 0.238(3) 0.521(3) 0.893(3)
N1A N 0.5442(3) 0.7353(4) 0.6475(2)
C8A C 0.5595(5) 0.6193(6) 0.6308(3)
H7A H 0.656(5) 0.641(6) 0.651(3)
H8A H 0.531(4) 0.592(6) 0.558(4)
H9A H 0.494(5) 0.542(6) 0.675(3)
C9A C 0.6386(5) 0.8436(7) 0.5824(4)
H10A H 0.623(5) 0.922(7) 0.590(4)
H11A H 0.615(5) 0.813(7) 0.513(4)
H12A H 0.740(5) 0.863(7) 0.590(3)
C10A C 0.5714(3) 0.7781(5) 0.7535(3)
H13A H 0.579(3) 0.871(5) 0.754(3)
H14A H 0.651(4) 0.785(6) 0.771(3)
C11A C 0.4615(3) 0.6838(4) 0.8224(2)
H15A H 0.457(3) 0.593(4) 0.822(2)
H16A H 0.479(3) 0.717(4) 0.893(3)
N1B N 0.2647(4) 0.8089(3) 0.6475(2)
C8B C 0.3807(6) 0.9402(4) 0.6308(3)
H7B H 0.359(6) 1.015(4) 0.651(3)
H8B H 0.408(6) 0.939(4) 0.558(4)
H9B H 0.458(6) 0.952(4) 0.675(3)
C9B C 0.1564(7) 0.7950(5) 0.5824(4)
H10B H 0.078(7) 0.701(5) 0.590(4)
H11B H 0.187(7) 0.802(5) 0.513(4)
H12B H 0.137(7) 0.877(5) 0.590(3)
C10B C 0.2219(5) 0.7933(4) 0.7535(3)
H13B H 0.129(5) 0.708(4) 0.754(3)
H14B H 0.215(6) 0.866(4) 0.771(3)
C11B C 0.3162(4) 0.7777(3) 0.8224(2)
H15B H 0.407(4) 0.864(3) 0.822(2)
H16B H 0.283(4) 0.762(3) 0.893(3)
O1A O 0.3771(13) 0.6700(18) 0.3224(5)
O2A O 0.304(3) 0.646(15) 0.4795(4)
C1A C 0.2950(16) 0.6440(91) 0.3894(8)
H1A H 0.190(12) 0.610(17) 0.364(8)
C2A C 0.2811(3) 0.5152(4) 0.1695(3)
C3A C 0.1718(4) 0.4073(6) 0.2144(4)
H2A H 0.132(4) 0.433(6) 0.276(3)
C4A C 0.1224(4) 0.2768(6) 0.1789(5)
H3A H 0.055(5) 0.210(7) 0.214(4)
C5A C 0.1800(4) 0.2517(6) 0.0981(5)
H4A H 0.144(5) 0.159(7) 0.072(3)
C6A C 0.2868(4) 0.3550(6) 0.0521(4)
H5A H 0.340(4) 0.335(6) -0.004(3)
C7A C 0.3362(4) 0.4833(5) 0.0878(3)
H6A H 0.412(4) 0.553(5) 0.058(3)
O1B O 0.3300(18) 0.7071(13) 0.3224(5)
O2B O 0.354(15) 0.658(15) 0.4795(4)
C1B C 0.3560(91) 0.651(9) 0.3894(8)
H1B H 0.390(17) 0.580(12) 0.364(8)
C2B C 0.4848(4) 0.7659(3) 0.1695(3)
C3B C 0.5927(6) 0.7645(4) 0.2144(4)
H2B H 0.567(6) 0.699(4) 0.276(3)
C4B C 0.7232(6) 0.8456(5) 0.1789(5)
H3B H 0.790(7) 0.845(5) 0.214(4)
C5B C 0.7483(6) 0.9283(5) 0.0981(5)
H4B H 0.841(7) 0.985(5) 0.072(3)
C6B C 0.6450(6) 0.9318(4) 0.0521(4)
H5B H 0.665(6) 1.005(4) -0.004(3)
C7B C 0.5167(5) 0.8529(3) 0.0878(3)
H6B H 0.447(5) 0.859(3) 0.058(3)
loop_
_geom_bond_atom_site_label_1
_geom_bond_atom_site_label_2
_geom_bond_site_symmetry_1
_geom_bond_site_symmetry_2
N1 Li1 1_555 1_555
N2 Li1 1_555 1_555
O1 C1 1_555 1_555
O2 C1 1_555 1_555
C1 H1 1_555 1_555
B1 O1 1_555 1_555
Li1 O2 1_555 1_555
C2 B1 1_555 1_555
C3 C2 1_555 1_555
H2 C3 1_555 1_555
C4 C3 1_555 1_555
H3 C4 1_555 1_555
C5 C4 1_555 1_555
H4 C5 1_555 1_555
C6 C5 1_555 1_555
H5 C6 1_555 1_555
C7 C2 1_555 1_555
H6 C7 1_555 1_555
C8 N1 1_555 1_555
H7 C8 1_555 1_555
H8 C8 1_555 1_555
H9 C8 1_555 1_555
C9 N1 1_555 1_555
H10 C9 1_555 1_555
H11 C9 1_555 1_555
H12 C9 1_555 1_555
C10 N1 1_555 1_555
H13 C10 1_555 1_555
H14 C10 1_555 1_555
C11 N2 1_555 1_555
H15 C11 1_555 1_555
H16 C11 1_555 1_555
N1A Li1 1_555 1_555
C8A N1A 1_555 1_555
H7A C8A 1_555 1_555
H8A C8A 1_555 1_555
H9A C8A 1_555 1_555
C9A N1A 1_555 1_555
H10A C9A 1_555 1_555
H11A C9A 1_555 1_555
H12A C9A 1_555 1_555
C10A N1A 1_555 1_555
H13A C10A 1_555 1_555
H14A C10A 1_555 1_555
C11A N2 1_555 1_555
H15A C11A 1_555 1_555
H16A C11A 1_555 1_555
N1B Li1 1_555 1_555
C8B N1B 1_555 1_555
H7B C8B 1_555 1_555
H8B C8B 1_555 1_555
H9B C8B 1_555 1_555
C9B N1B 1_555 1_555
H10B C9B 1_555 1_555
H11B C9B 1_555 1_555
H12B C9B 1_555 1_555
C10B N1B 1_555 1_555
H13B C10B 1_555 1_555
H14B C10B 1_555 1_555
C11B N2 1_555 1_555
H15B C11B 1_555 1_555
H16B C11B 1_555 1_555
O1A B1 1_555 1_555
O2A Li1 1_555 1_555
C1A O1A 1_555 1_555
H1A C1A 1_555 1_555
C2A B1 1_555 1_555
C3A C2A 1_555 1_555
H2A C3A 1_555 1_555
C4A C3A 1_555 1_555
H3A C4A 1_555 1_555
C5A C4A 1_555 1_555
H4A C5A 1_555 1_555
C6A C5A 1_555 1_555
H5A C6A 1_555 1_555
C7A C2A 1_555 1_555
H6A C7A 1_555 1_555
O1B B1 1_555 1_555
O2B Li1 1_555 1_555
C1B O1B 1_555 1_555
H1B C1B 1_555 1_555
C2B B1 1_555 1_555
C3B C2B 1_555 1_555
H2B C3B 1_555 1_555
C4B C3B 1_555 1_555
H3B C4B 1_555 1_555
C5B C4B 1_555 1_555
H4B C5B 1_555 1_555
C6B C5B 1_555 1_555
H5B C6B 1_555 1_555
C7B C2B 1_555 1_555
H6B C7B 1_555 1_555
C6 C7 1_555 1_555
C10 C11 1_555 1_555
C10A C11A 1_555 1_555
C10B C11B 1_555 1_555
O2A C1A 1_555 1_555
C6A C7A 1_555 1_555
O2B C1B 1_555 1_555
C6B C7B 1_555 1_555

#END
