
#######################################################################
#
#                 Cambridge Crystallographic Data Centre
#                                CCDC 
#
#######################################################################
#
# If this CIF has been generated from an entry in the Cambridge 
# Structural Database, then it will include bibliographic, chemical, 
# crystal, experimental, refinement or atomic coordinate data resulting 
# from the CCDC's data processing and validation procedures.
#
#######################################################################

data_IWIMAE
_chemical_formula_moiety         'C31 H46 B1 N4 Na1 O2'
_chemical_name_systematic        
(N,N,N-tris(2-(dimethylamino)ethyl)amine)-(formato(triphenyl)borate)-sodium
_symmetry_cell_setting           triclinic
_symmetry_space_group_name_H-M   'P -1'
_symmetry_Int_Tables_number      2
_space_group_name_Hall           '-P 1'
loop_
_symmetry_equiv_pos_site_id
_symmetry_equiv_pos_as_xyz
1 x,y,z
2 -x,-y,-z
_cell_length_a                   13.3224(13)
_cell_length_b                   17.0500(17)
_cell_length_c                   17.6861(18)
_cell_angle_alpha                99.8463(17)
_cell_angle_beta                 111.9899(17)
_cell_angle_gamma                112.8622(16)
_cell_volume                     3188.29
_exptl_crystal_colour            colorless
_exptl_crystal_description       block
_cell_formula_units_Z            4
_chemical_properties_physical    
Air-sensitive,Moisture-sensitive,Hygroscopic,Oxygen-sensitive
loop_
_atom_site_label
_atom_site_type_symbol
_atom_site_fract_x
_atom_site_fract_y
_atom_site_fract_z
Na1 Na 0.14014(10) 0.97998(7) 0.37967(7)
O1 O 0.0608(2) 0.89141(14) 0.44362(14)
O2 O 0.16747(18) 0.82794(12) 0.50919(12)
N1 N 0.2744(3) 1.13799(16) 0.49216(16)
N2 N -0.0594(3) 0.9492(2) 0.2645(2)
N3 N 0.2582(3) 0.93404(19) 0.32296(17)
N4 N 0.1946(3) 1.07929(18) 0.29960(17)
B1 B 0.2092(3) 0.7963(2) 0.5885(2)
C1 C 0.0884(3) 0.8552(2) 0.49619(19)
H1 H 0.0471 0.8467 0.5302
C2 C 0.2537(10) 1.1594(7) 0.5611(7)
H2 H 0.3059 1.2254 0.5952
H3 H 0.2745 1.1259 0.5988
H4 H 0.1657 1.1421 0.5387
C3 C 0.4146(8) 1.1565(6) 0.5345(6)
H5 H 0.4724 1.2220 0.5690
H6 H 0.4321 1.1370 0.4877
H7 H 0.4252 1.1217 0.5728
C4 C 0.3828(7) 0.9753(5) 0.4067(5)
H8 H 0.4415 0.9643 0.3922
H9 H 0.3702 0.9465 0.4482
H10 H 0.4164 1.0414 0.4332
C5 C 0.2115(10) 0.8350(6) 0.2882(5)
H11 H 0.1345 0.8062 0.2319
H12 H 0.1947 0.8084 0.3299
H13 H 0.2742 0.8243 0.2795
C6 C -0.0902(8) 1.0022(6) 0.3353(6)
H14 H -0.0178 1.0631 0.3739
H15 H -0.1081 0.9659 0.3706
H16 H -0.1626 1.0085 0.3024
C7 C -0.1692(7) 0.8525(5) 0.2382(5)
H17 H -0.2485 0.8499 0.2042
H18 H -0.1654 0.8408 0.2913
H19 H -0.1625 0.8059 0.2025
C8 C 0.2785(10) 1.1965(6) 0.4422(7)
H20 H 0.2139 1.2132 0.4384
H21 H 0.3597 1.2536 0.4790
C9 C 0.3084(6) 1.0749(4) 0.2898(4)
H22 H 0.3172 1.0976 0.2435
H23 H 0.3871 1.1147 0.3458
C10 C -0.0209(10) 1.0295(6) 0.2257(6)
H24 H -0.0914 1.0105 0.1672
H25 H -0.0082 1.0857 0.2646
C11 C 0.0970(7) 1.0532(4) 0.2169(4)
H26 H 0.0847 0.9993 0.1750
H27 H 0.1156 1.1039 0.1949
C12 C 0.2645(4) 1.1733(2) 0.3592(2)
H28 H 0.3493 1.1989 0.3659
H29 H 0.2261 1.2064 0.3294
C13 C 0.2858(4) 0.9837(3) 0.2678(3)
H30 H 0.3599 0.9845 0.2667
H31 H 0.2152 0.9480 0.2072
C14 C 0.2996(3) 0.88806(19) 0.67724(18)
C15 C 0.3233(3) 0.8870(2) 0.76118(19)
H32 H 0.2846 0.8299 0.7665
C16 C 0.4004(3) 0.9653(2) 0.8366(2)
H33 H 0.4133 0.9610 0.8920
C17 C 0.4587(3) 1.0499(2) 0.8314(2)
H34 H 0.5109 1.1040 0.8828
C18 C 0.4397(3) 1.0543(2) 0.7502(2)
H35 H 0.4793 1.1119 0.7458
C19 C 0.3626(3) 0.97464(19) 0.67430(19)
H36 H 0.3525 0.9792 0.6194
C20 C 0.0851(3) 0.72337(18) 0.58832(17)
C21 C 0.0303(3) 0.74965(18) 0.63487(18)
H37 H 0.0692 0.8124 0.6704
C22 C -0.0781(3) 0.68754(19) 0.63071(19)
H38 H -0.1118 0.7080 0.6633
C23 C -0.1374(3) 0.59560(19) 0.57915(18)
H39 H -0.2119 0.5529 0.5759
C24 C -0.0872(3) 0.56703(19) 0.53280(19)
H40 H -0.1270 0.5042 0.4974
C25 C 0.0220(3) 0.63000(18) 0.53757(18)
H41 H 0.0550 0.6086 0.5049
C26 C 0.2835(3) 0.74703(18) 0.56894(18)
C27 C 0.2630(3) 0.7083(2) 0.48373(19)
H42 H 0.2098 0.7169 0.4364
C28 C 0.3179(3) 0.6581(2) 0.4670(2)
H43 H 0.3015 0.6327 0.4087
C29 C 0.3960(3) 0.6446(2) 0.5339(2)
H44 H 0.4329 0.6097 0.5220
C30 C 0.4203(3) 0.6825(2) 0.6188(2)
H45 H 0.4741 0.6738 0.6656
C31 C 0.3655(3) 0.7333(2) 0.6351(2)
H46 H 0.3846 0.7599 0.6939
Na2 Na 0.79198(11) 0.51984(7) 0.13035(7)
O3 O 0.8098(6) 0.6477(4) 0.1006(4)
O4 O 0.8320(2) 0.66210(15) -0.01109(15)
N5 N 0.9882(3) 0.51692(19) 0.1686(2)
N6 N 0.6166(3) 0.36720(19) 0.01383(18)
N7 N 0.7563(2) 0.56988(18) 0.25348(17)
N8 N 0.7880(2) 0.40870(17) 0.20333(17)
B2 B 0.8324(3) 0.7010(2) -0.0853(2)
C42 C 0.8130(8) 0.6831(6) 0.0459(6)
H77 H 0.7981 0.7334 0.0508
C43 C 1.0961(5) 0.6086(3) 0.2006(4)
H78 H 1.1716 0.6038 0.2157
H79 H 1.1059 0.6488 0.2527
H80 H 1.0825 0.6343 0.1546
C44 C 0.9698(5) 0.4617(4) 0.0884(3)
H81 H 0.9576 0.4915 0.0456
H82 H 0.8961 0.4012 0.0648
H83 H 1.0432 0.4546 0.1001
C45 C 0.6070(5) 0.3433(3) -0.0709(2)
H84 H 0.6833 0.3440 -0.0654
H85 H 0.5955 0.3877 -0.0968
H86 H 0.5354 0.2819 -0.1087
C46 C 0.5064(4) 0.3706(3) 0.0095(3)
H87 H 0.4938 0.4132 -0.0187
H88 H 0.5186 0.3916 0.0691
H89 H 0.4330 0.3094 -0.0246
C47 C 0.8745(4) 0.6516(2) 0.3184(2)
H90 H 0.8682 0.6751 0.3701
H91 H 0.8934 0.6986 0.2929
H92 H 0.9410 0.6359 0.3357
C48 C 0.6600(4) 0.5979(3) 0.2313(3)
H93 H 0.5786 0.5447 0.1881
H94 H 0.6804 0.6455 0.2067
H95 H 0.6573 0.6220 0.2845
C49 C 1.0093(3) 0.4775(2) 0.2363(3)
H96 H 1.0411 0.5244 0.2934
H97 H 1.0743 0.4608 0.2413
C50 C 0.8941(3) 0.3940(2) 0.2180(2)
H98 H 0.8695 0.3441 0.1655
H99 H 0.9140 0.3736 0.2682
C51 C 0.6284(4) 0.2981(2) 0.0524(2)
H100 H 0.6886 0.2840 0.0421
H101 H 0.5466 0.2410 0.0205
C52 C 0.6694(3) 0.3252(2) 0.1488(2)
H102 H 0.6051 0.3330 0.1588
H103 H 0.6753 0.2747 0.1672
C53 C 0.7267(4) 0.4979(2) 0.2878(2)
H104 H 0.6372 0.4519 0.2507
H105 H 0.7412 0.5244 0.3478
C54 C 0.8011(3) 0.4512(2) 0.2913(2)
H106 H 0.7751 0.4026 0.3147
H107 H 0.8900 0.4961 0.3327
C55 C 0.7872(3) 0.77789(18) -0.07966(17)
C56 C 0.6642(3) 0.75788(19) -0.12641(18)
H108 H 0.6025 0.6964 -0.1644
C57 C 0.6273(3) 0.8236(2) -0.1201(2)
H109 H 0.5423 0.8067 -0.1539
C58 C 0.7145(3) 0.91340(19) -0.06461(19)
H110 H 0.6900 0.9586 -0.0595
C59 C 0.8366(3) 0.93645(19) -0.01703(19)
H111 H 0.8973 0.9981 0.0213
C60 C 0.8726(3) 0.86952(18) -0.02459(18)
H112 H 0.9579 0.8871 0.0089
C61 C 0.9759(3) 0.74922(18) -0.06498(18)
C62 C 1.0079(3) 0.7779(2) -0.12559(19)
H113 H 0.9431 0.7640 -0.1816
C63 C 1.1305(3) 0.8261(2) -0.1079(2)
H114 H 1.1482 0.8446 -0.1512
C64 C 1.2262(3) 0.8468(2) -0.0278(2)
H115 H 1.3103 0.8801 -0.0151
C65 C 1.1986(3) 0.8186(2) 0.0340(2)
H116 H 1.2640 0.8323 0.0896
C66 C 1.0758(3) 0.7703(2) 0.0151(2)
H117 H 1.0588 0.7508 0.0582
C67 C 0.7395(3) 0.61335(19) -0.1772(2)
C68 C 0.6952(3) 0.6233(2) -0.2581(2)
H118 H 0.7195 0.6834 -0.2588
C69 C 0.6169(3) 0.5488(2) -0.3382(2)
H119 H 0.5897 0.5582 -0.3920
C70 C 0.5794(3) 0.4604(2) -0.3376(3)
H120 H 0.5254 0.4089 -0.3912
C71 C 0.6210(3) 0.4482(2) -0.2589(3)
H121 H 0.5955 0.3880 -0.2585
C72 C 0.6993(3) 0.5227(2) -0.1810(2)
H122 H 0.7273 0.5124 -0.1277
C32? C 0.1684(6) 1.1548(5) 0.4946(4)
H47? H 0.1211 1.1099 0.5133
H48? H 0.1126 1.1483 0.4360
H49? H 0.2050 1.2168 0.5362
C33? C 0.3557(5) 1.1524(4) 0.5795(3)
H50? H 0.4191 1.1367 0.5797
H51? H 0.3075 1.1135 0.6020
H52? H 0.3963 1.2169 0.6170
C34? C 0.3479(10) 0.9212(8) 0.3762(7)
H53? H 0.3669 0.8841 0.3410
H54? H 0.3194 0.8894 0.4115
H55? H 0.4230 0.9807 0.4151
C35? C 0.1466(11) 0.8435(7) 0.2550(7)
H56? H 0.1701 0.8149 0.2167
H57? H 0.0796 0.8538 0.2198
H58? H 0.1178 0.8031 0.2844
C36? C -0.1518(7) 0.9431(7) 0.2796(5)
H59? H -0.1208 0.9974 0.3297
H60? H -0.1849 0.8880 0.2926
H61? H -0.2180 0.9396 0.2275
C37? C -0.1052(6) 0.8635(4) 0.1850(4)
H62? H -0.1257 0.8094 0.2012
H63? H -0.0391 0.8737 0.1695
H64? H -0.1794 0.8537 0.1347
C38? C 0.3365(8) 1.1974(5) 0.4567(5)
H65? H 0.4158 1.1977 0.4701
H66? H 0.3577 1.2605 0.4873
C39? C 0.2171(12) 1.0359(8) 0.2400(7)
H67? H 0.2654 1.0826 0.2225
H68? H 0.1358 0.9923 0.1870
C40? C -0.0535(12) 0.9868(7) 0.2119(7)
H69? H -0.1228 1.0004 0.1928
H70? H -0.0679 0.9425 0.1595
C41? C 0.0601(11) 1.0698(7) 0.2415(6)
H71? H 0.0564 1.1198 0.2762
H72? H 0.0594 1.0824 0.1888
H73? H 0.2054 1.1969 0.3497
H74? H 0.3245 1.2081 0.3411
H75? H 0.2680 0.9393 0.2140
H76? H 0.3763 1.0280 0.2993
O5? O 0.7452(6) 0.6105(4) 0.0670(4)
C73? C 0.7546(9) 0.6472(6) 0.0144(6)
H123? H 0.6955 0.6662 -0.0095
loop_
_geom_bond_atom_site_label_1
_geom_bond_atom_site_label_2
_geom_bond_site_symmetry_1
_geom_bond_site_symmetry_2
Na1 O1 1_555 1_555
O1 C1 1_555 1_555
O2 B1 1_555 1_555
N1 Na1 1_555 1_555
N2 Na1 1_555 1_555
N3 Na1 1_555 1_555
N4 Na1 1_555 1_555
B1 C14 1_555 1_555
C1 O2 1_555 1_555
H1 C1 1_555 1_555
C2 N1 1_555 1_555
H2 C2 1_555 1_555
H3 C2 1_555 1_555
H4 C2 1_555 1_555
C3 N1 1_555 1_555
H5 C3 1_555 1_555
H6 C3 1_555 1_555
H7 C3 1_555 1_555
C4 N3 1_555 1_555
H8 C4 1_555 1_555
H9 C4 1_555 1_555
H10 C4 1_555 1_555
C5 N3 1_555 1_555
H11 C5 1_555 1_555
H12 C5 1_555 1_555
H13 C5 1_555 1_555
C6 N2 1_555 1_555
H14 C6 1_555 1_555
H15 C6 1_555 1_555
H16 C6 1_555 1_555
C7 N2 1_555 1_555
H17 C7 1_555 1_555
H18 C7 1_555 1_555
H19 C7 1_555 1_555
C8 N1 1_555 1_555
H20 C8 1_555 1_555
H21 C8 1_555 1_555
C9 N4 1_555 1_555
H22 C9 1_555 1_555
H23 C9 1_555 1_555
C10 N2 1_555 1_555
H24 C10 1_555 1_555
H25 C10 1_555 1_555
C11 N4 1_555 1_555
H26 C11 1_555 1_555
H27 C11 1_555 1_555
C12 N4 1_555 1_555
H28 C12 1_555 1_555
H29 C12 1_555 1_555
C13 N3 1_555 1_555
H30 C13 1_555 1_555
H31 C13 1_555 1_555
C14 C15 1_555 1_555
C15 H32 1_555 1_555
C16 C15 1_555 1_555
H33 C16 1_555 1_555
C17 C16 1_555 1_555
H34 C17 1_555 1_555
C18 C17 1_555 1_555
H35 C18 1_555 1_555
C19 C14 1_555 1_555
H36 C19 1_555 1_555
C20 B1 1_555 1_555
C21 C20 1_555 1_555
H37 C21 1_555 1_555
C22 C21 1_555 1_555
H38 C22 1_555 1_555
C23 C22 1_555 1_555
H39 C23 1_555 1_555
C24 C23 1_555 1_555
H40 C24 1_555 1_555
C25 C20 1_555 1_555
H41 C25 1_555 1_555
C26 B1 1_555 1_555
C27 C26 1_555 1_555
H42 C27 1_555 1_555
C28 C27 1_555 1_555
H43 C28 1_555 1_555
C29 C28 1_555 1_555
H44 C29 1_555 1_555
C30 C29 1_555 1_555
H45 C30 1_555 1_555
C31 C26 1_555 1_555
H46 C31 1_555 1_555
Na2 O3 1_555 1_555
O3 C42 1_555 1_555
O4 B2 1_555 1_555
N5 Na2 1_555 1_555
N6 Na2 1_555 1_555
N7 Na2 1_555 1_555
N8 Na2 1_555 1_555
B2 C55 1_555 1_555
C42 O4 1_555 1_555
H77 C42 1_555 1_555
C43 N5 1_555 1_555
H78 C43 1_555 1_555
H79 C43 1_555 1_555
H80 C43 1_555 1_555
C44 N5 1_555 1_555
H81 C44 1_555 1_555
H82 C44 1_555 1_555
H83 C44 1_555 1_555
C45 N6 1_555 1_555
H84 C45 1_555 1_555
H85 C45 1_555 1_555
H86 C45 1_555 1_555
C46 N6 1_555 1_555
H87 C46 1_555 1_555
H88 C46 1_555 1_555
H89 C46 1_555 1_555
C47 N7 1_555 1_555
H90 C47 1_555 1_555
H91 C47 1_555 1_555
H92 C47 1_555 1_555
C48 N7 1_555 1_555
H93 C48 1_555 1_555
H94 C48 1_555 1_555
H95 C48 1_555 1_555
C49 N5 1_555 1_555
H96 C49 1_555 1_555
H97 C49 1_555 1_555
C50 N8 1_555 1_555
H98 C50 1_555 1_555
H99 C50 1_555 1_555
C51 N6 1_555 1_555
H100 C51 1_555 1_555
H101 C51 1_555 1_555
C52 N8 1_555 1_555
H102 C52 1_555 1_555
H103 C52 1_555 1_555
C53 N7 1_555 1_555
H104 C53 1_555 1_555
H105 C53 1_555 1_555
C54 N8 1_555 1_555
H106 C54 1_555 1_555
H107 C54 1_555 1_555
C55 C56 1_555 1_555
C56 H108 1_555 1_555
C57 C56 1_555 1_555
H109 C57 1_555 1_555
C58 C57 1_555 1_555
H110 C58 1_555 1_555
C59 C58 1_555 1_555
H111 C59 1_555 1_555
C60 C55 1_555 1_555
H112 C60 1_555 1_555
C61 B2 1_555 1_555
C62 C61 1_555 1_555
H113 C62 1_555 1_555
C63 C62 1_555 1_555
H114 C63 1_555 1_555
C64 C63 1_555 1_555
H115 C64 1_555 1_555
C65 C64 1_555 1_555
H116 C65 1_555 1_555
C66 C61 1_555 1_555
H117 C66 1_555 1_555
C67 B2 1_555 1_555
C68 C67 1_555 1_555
H118 C68 1_555 1_555
C69 C68 1_555 1_555
H119 C69 1_555 1_555
C70 C69 1_555 1_555
H120 C70 1_555 1_555
C71 C70 1_555 1_555
H121 C71 1_555 1_555
C72 C67 1_555 1_555
H122 C72 1_555 1_555
C8 C12 1_555 1_555
C9 C13 1_555 1_555
C10 C11 1_555 1_555
C18 C19 1_555 1_555
C24 C25 1_555 1_555
C30 C31 1_555 1_555
C49 C50 1_555 1_555
C51 C52 1_555 1_555
C53 C54 1_555 1_555
C59 C60 1_555 1_555
C65 C66 1_555 1_555
C71 C72 1_555 1_555

#END
