
#######################################################################
#
#                 Cambridge Crystallographic Data Centre
#                                CCDC 
#
#######################################################################
#
# If this CIF has been generated from an entry in the Cambridge 
# Structural Database, then it will include bibliographic, chemical, 
# crystal, experimental, refinement or atomic coordinate data resulting 
# from the CCDC's data processing and validation procedures.
#
#######################################################################

data_IWIWUI02
_chemical_formula_moiety         'C19 H22 N2 O2 S1'
_chemical_name_systematic        
'3,3,6-trimethyl-2-phenyl-3a,4,4a,7-tetrahydro-3H-pyrazolo[1,5-b][1,2]benzothiazine 9,9-dioxide'
_symmetry_cell_setting           monoclinic
_symmetry_space_group_name_H-M   'P 21'
_symmetry_Int_Tables_number      4
_space_group_name_Hall           'P 2yb'
loop_
_symmetry_equiv_pos_site_id
_symmetry_equiv_pos_as_xyz
1 x,y,z
2 -x,1/2+y,-z
_cell_length_a                   9.5967(10)
_cell_length_b                   9.2650(8)
_cell_length_c                   10.1709(10)
_cell_angle_alpha                90
_cell_angle_beta                 102.244(3)
_cell_angle_gamma                90
_cell_volume                     883.759
_exptl_crystal_description       block
_cell_formula_units_Z            2
loop_
_atom_site_label
_atom_site_type_symbol
_atom_site_fract_x
_atom_site_fract_y
_atom_site_fract_z
C1 C 0.4946(3) 0.0442(3) 0.2149(3)
H1 H 0.5583 0.0698 0.1523
C2 C 0.5353(3) 0.1405(3) 0.3409(3)
C3 C 0.6683(3) 0.0566(3) 0.4106(3)
C4 C 0.3790(3) -0.2189(4) 0.0709(3)
C5 C 0.3298(3) -0.0713(3) 0.0189(3)
H2 H 0.3933 -0.0385 -0.0415
C6 C 0.1787(4) -0.0781(4) -0.0643(3)
H3 H 0.1367 0.0098 -0.1012
C7 C 0.1009(4) -0.1966(4) -0.0896(3)
C8 C 0.1554(4) -0.3408(4) -0.0342(4)
H4 H 0.0899 -0.3794 0.0204
H5 H 0.1536 -0.4081 -0.1102
C9 C 0.3023(4) -0.3375(4) 0.0501(3)
H6 H 0.3423 -0.4246 0.0906
C10 C -0.0485(4) -0.1938(4) -0.1749(4)
H7 H -0.0697 -0.0971 -0.2127
H8 H -0.1168 -0.2185 -0.1191
H9 H -0.0561 -0.2641 -0.2481
C11 C 0.3430(3) 0.0388(3) 0.1344(3)
H10 H 0.3143 0.1356 0.0970
H11 H 0.2781 0.0111 0.1940
C12 C 0.5654(4) 0.2947(3) 0.3012(3)
H12 H 0.5878 0.3552 0.3820
H13 H 0.4812 0.3333 0.2394
H14 H 0.6466 0.2945 0.2568
C13 C 0.4210(3) 0.1370(3) 0.4260(3)
H15 H 0.3943 0.0367 0.4388
H16 H 0.3368 0.1907 0.3798
H17 H 0.4589 0.1813 0.5138
C14 C 0.7922(3) 0.1134(3) 0.5100(3)
C15 C 0.7753(4) 0.2171(3) 0.6049(3)
H18 H 0.6831 0.2528 0.6075
C16 C 0.8946(4) 0.2680(4) 0.6958(3)
H19 H 0.8828 0.3363 0.7623
C17 C 1.0287(4) 0.2210(3) 0.6908(3)
H20 H 1.1093 0.2584 0.7521
C18 C 1.0468(4) 0.1192(4) 0.5965(3)
H21 H 1.1397 0.0867 0.5924
C19 C 0.9278(4) 0.0647(4) 0.5075(3)
H22 H 0.9400 -0.0070 0.4441
N1 N 0.6706(3) -0.0765(3) 0.3726(2)
N2 N 0.5402(3) -0.0998(2) 0.2760(2)
O1 O 0.6495(2) -0.1797(2) 0.07772(19)
O2 O 0.5872(2) -0.3606(2) 0.2321(2)
S1 S 0.55615(9) -0.22618(7) 0.16305(7)
loop_
_geom_bond_atom_site_label_1
_geom_bond_atom_site_label_2
_geom_bond_site_symmetry_1
_geom_bond_site_symmetry_2
C1 H1 1_555 1_555
C2 C1 1_555 1_555
C3 C2 1_555 1_555
C4 C5 1_555 1_555
C5 H2 1_555 1_555
C6 C5 1_555 1_555
H3 C6 1_555 1_555
C7 C6 1_555 1_555
C8 C7 1_555 1_555
H4 C8 1_555 1_555
H5 C8 1_555 1_555
C9 C4 1_555 1_555
H6 C9 1_555 1_555
C10 C7 1_555 1_555
H7 C10 1_555 1_555
H8 C10 1_555 1_555
H9 C10 1_555 1_555
C11 C1 1_555 1_555
H10 C11 1_555 1_555
H11 C11 1_555 1_555
C12 C2 1_555 1_555
H12 C12 1_555 1_555
H13 C12 1_555 1_555
H14 C12 1_555 1_555
C13 C2 1_555 1_555
H15 C13 1_555 1_555
H16 C13 1_555 1_555
H17 C13 1_555 1_555
C14 C3 1_555 1_555
C15 C14 1_555 1_555
H18 C15 1_555 1_555
C16 C15 1_555 1_555
H19 C16 1_555 1_555
C17 C16 1_555 1_555
H20 C17 1_555 1_555
C18 C17 1_555 1_555
H21 C18 1_555 1_555
C19 C14 1_555 1_555
H22 C19 1_555 1_555
N1 C3 1_555 1_555
N2 C1 1_555 1_555
O1 S1 1_555 1_555
O2 S1 1_555 1_555
S1 C4 1_555 1_555
C5 C11 1_555 1_555
C8 C9 1_555 1_555
C18 C19 1_555 1_555
N1 N2 1_555 1_555
N2 S1 1_555 1_555

#END
