
#######################################################################
#
#                 Cambridge Crystallographic Data Centre
#                                CCDC 
#
#######################################################################
#
# If this CIF has been generated from an entry in the Cambridge 
# Structural Database, then it will include bibliographic, chemical, 
# crystal, experimental, refinement or atomic coordinate data resulting 
# from the CCDC's data processing and validation procedures.
#
#######################################################################

data_IWOCON
_chemical_name_common            Ataluren
_chemical_formula_moiety         'C15 H9 F1 N2 O3'
_chemical_name_systematic        
'3-(5-(2-fluorophenyl)-(1,2,4)oxadiazol-3-yl)benzoic acid'
_chemical_properties_biological  
'used in the treatment of premature translation termination or nonsense-mediated mRNA decay'
_symmetry_cell_setting           monoclinic
_symmetry_space_group_name_H-M   'P 21/n'
_symmetry_Int_Tables_number      14
_space_group_name_Hall           '-P 2yn'
loop_
_symmetry_equiv_pos_site_id
_symmetry_equiv_pos_as_xyz
1 x,y,z
2 1/2-x,1/2+y,1/2-z
3 -x,-y,-z
4 1/2+x,1/2-y,1/2+z
_cell_length_a                   24.2240(10)
_cell_length_b                   3.74640(10)
_cell_length_c                   27.4678(13)
_cell_angle_alpha                90
_cell_angle_beta                 92.9938(15)
_cell_angle_gamma                90
_cell_volume                     2489.38
_cell_formula_units_Z            8
loop_
_atom_site_label
_atom_site_type_symbol
_atom_site_fract_x
_atom_site_fract_y
_atom_site_fract_z
F1 F 0.43198(12) 0.7655(8) -0.17546(10)
O1 O 0.42977(13) 0.4875(8) -0.08927(11)
O2 O 0.25519(13) 0.4795(9) 0.10765(12)
O3 O 0.29215(13) 0.2155(9) 0.17515(12)
N1 N 0.35817(15) 0.5856(9) -0.04386(14)
N2 N 0.44373(16) 0.3409(10) -0.04263(14)
C1 C 0.37827(18) 0.6256(11) -0.08637(17)
C2 C 0.40019(10) 0.4091(11) -0.01823(17)
C3 C 0.35225(19) 0.7961(11) -0.12930(17)
C4 C 0.3784(2) 0.8567(12) -0.17244(18)
C5 C 0.3519(2) 1.0117(12) -0.21257(19)
C6 C 0.2973(2) 1.1101(13) -0.21014(19)
C7 C 0.2694(2) 1.0543(12) -0.1677(2)
C8 C 0.2966(2) 0.8996(12) -0.12784(18)
C9 C 0.39702(19) 0.3013(11) 0.03319(16)
C10 C 0.34897(19) 0.3623(11) 0.05704(16)
C11 C 0.34631(18) 0.2594(11) 0.10554(16)
C12 C 0.39150(19) 0.0970(11) 0.13029(17)
C13 C 0.43977(19) 0.0412(11) 0.10614(17)
C14 C 0.44250(19) 0.1421(11) 0.05765(17)
C15 C 0.2955(2) 0.3188(12) 0.13209(18)
H1 H 0.371 1.050 -0.241
H2 H 0.278 1.217 -0.238
H3 H 0.232 1.123 -0.166
H4 H 0.278 0.862 -0.099
H5 H 0.227 0.491 0.125
H6 H 0.318 0.473 0.041
H7 H 0.389 0.025 0.163
H8 H 0.471 -0.066 0.123
H9 H 0.475 0.103 0.041
F2 F -0.20343(15) 0.7129(10) 0.06378(14)
O4 O -0.12941(13) 0.4507(9) 0.12653(12)
O5 O 0.16226(13) 0.4813(9) 0.15012(12)
O6 O 0.19645(13) 0.1939(9) 0.21659(12)
N3 N -0.04134(10) 0.5165(9) 0.11065(14)
N4 N -0.09772(17) 0.3201(11) 0.16787(15)
C16 C -0.0926(2) 0.5601(12) 0.09502(18)
C17 C -0.0471(2) 0.3690(11) 0.15580(17)
C18 C -0.1109(2) 0.7083(12) 0.04727(19)
C19 C -0.1643(3) 0.7823(15) 0.0331(2)
C20 C -0.1825(3) 0.9272(15) -0.0122(3)
C21 C -0.1415(4) 0.9930(16) -0.0433(3)
C22 C -0.0870(3) 0.9202(15) -0.0316(2)
C23 C -0.0678(3) 0.7766(12) 0.01365(17)
C24 C 0.00110(10) 0.2695(11) 0.18877(17)
C25 C 0.05426(19) 0.3352(11) 0.17481(17)
C26 C 0.09949(19) 0.2449(11) 0.20524(17)
C27 C 0.0919(2) 0.0940(11) 0.25087(17)
C28 C 0.0389(2) 0.0335(11) 0.26491(17)
C29 C -0.0064(2) 0.1185(12) 0.23430(17)
C30 C 0.1559(2) 0.3165(12) 0.18902(17)
H10 H -0.220 0.975 -0.020
H11 H -0.151 1.094 -0.074
H12 H -0.061 0.969 -0.055
H13 H -0.030 0.729 0.021
H14 H 0.226 0.213 0.202
H15 H 0.123 0.034 0.272
H16 H 0.033 -0.068 0.296
H17 H -0.043 0.074 0.244
H18 H 0.060 0.443 0.144
loop_
_geom_bond_atom_site_label_1
_geom_bond_atom_site_label_2
_geom_bond_site_symmetry_1
_geom_bond_site_symmetry_2
F1 C4 1_555 1_555
O1 N2 1_555 1_555
O2 C15 1_555 1_555
O3 C15 1_555 1_555
N1 C1 1_555 1_555
N2 C2 1_555 1_555
C1 O1 1_555 1_555
C2 N1 1_555 1_555
C3 C1 1_555 1_555
C4 C3 1_555 1_555
C5 C4 1_555 1_555
C6 C5 1_555 1_555
C7 C6 1_555 1_555
C8 C3 1_555 1_555
C9 C2 1_555 1_555
C10 C9 1_555 1_555
C11 C10 1_555 1_555
C12 C11 1_555 1_555
C13 C12 1_555 1_555
C14 C9 1_555 1_555
C15 C11 1_555 1_555
H1 C5 1_555 1_555
H2 C6 1_555 1_555
H3 C7 1_555 1_555
H4 C8 1_555 1_555
H5 O2 1_555 1_555
H6 C10 1_555 1_555
H7 C12 1_555 1_555
H8 C13 1_555 1_555
H9 C14 1_555 1_555
F2 C19 1_555 1_555
O4 N4 1_555 1_555
O5 C30 1_555 1_555
O6 C30 1_555 1_555
N3 C16 1_555 1_555
N4 C17 1_555 1_555
C16 O4 1_555 1_555
C17 N3 1_555 1_555
C18 C16 1_555 1_555
C19 C18 1_555 1_555
C20 C19 1_555 1_555
C21 C20 1_555 1_555
C22 C21 1_555 1_555
C23 C18 1_555 1_555
C24 C17 1_555 1_555
C25 C24 1_555 1_555
C26 C25 1_555 1_555
C27 C26 1_555 1_555
C28 C27 1_555 1_555
C29 C24 1_555 1_555
C30 C26 1_555 1_555
H10 C20 1_555 1_555
H11 C21 1_555 1_555
H12 C22 1_555 1_555
H13 C23 1_555 1_555
H14 O6 1_555 1_555
H15 C27 1_555 1_555
H16 C28 1_555 1_555
H17 C29 1_555 1_555
H18 C25 1_555 1_555
C7 C8 1_555 1_555
C13 C14 1_555 1_555
C22 C23 1_555 1_555
C28 C29 1_555 1_555

#END
