
#######################################################################
#
#                 Cambridge Crystallographic Data Centre
#                                CCDC 
#
#######################################################################
#
# If this CIF has been generated from an entry in the Cambridge 
# Structural Database, then it will include bibliographic, chemical, 
# crystal, experimental, refinement or atomic coordinate data resulting 
# from the CCDC's data processing and validation procedures.
#
#######################################################################

data_IWOKOV
_chemical_formula_moiety         'C11 H7 Cl1 O4'
_chemical_name_systematic        
'Methyl 6-chloro-4-oxo-4H-chromene-3-carboxylate'
_symmetry_cell_setting           monoclinic
_symmetry_space_group_name_H-M   'P 21/n'
_symmetry_Int_Tables_number      14
_space_group_name_Hall           '-P 2yn'
loop_
_symmetry_equiv_pos_site_id
_symmetry_equiv_pos_as_xyz
1 x,y,z
2 1/2-x,1/2+y,1/2-z
3 -x,-y,-z
4 1/2+x,1/2-y,1/2+z
_cell_length_a                   7.9023(2)
_cell_length_b                   5.59906(18)
_cell_length_c                   46.0573(12)
_cell_angle_alpha                90
_cell_angle_beta                 90.931(3)
_cell_angle_gamma                90
_cell_volume                     2037.56
_exptl_crystal_colour            yellow
_exptl_crystal_description       plate
_cell_formula_units_Z            8
loop_
_atom_site_label
_atom_site_type_symbol
_atom_site_fract_x
_atom_site_fract_y
_atom_site_fract_z
Cl1 Cl 0.81729(9) 0.69550(13) 0.054444(12)
O1 O 0.72559(18) 1.0481(3) 0.17237(3)
O2 O 0.9947(2) 0.4331(3) 0.16144(3)
C1 C 0.8635(2) 0.6720(4) 0.11222(4)
H1 H 0.9228 0.5318 0.1087
C2 C 0.8742(2) 0.7183(4) 0.19365(4)
C5 C 0.9118(2) 0.6140(4) 0.16539(4)
O6 O 1.0049(2) 0.4100(3) 0.21998(3)
C6 C 0.7530(2) 0.9628(4) 0.14489(4)
C8 C 0.8418(2) 0.7514(3) 0.14063(4)
O8 O 0.8957(3) 0.7090(3) 0.24517(4)
C11 C 0.9259(3) 0.6162(4) 0.22226(5)
C12 C 0.7967(3) 0.8022(4) 0.08965(5)
C14 C 0.6872(3) 1.0956(4) 0.12200(5)
H4 H 0.6285 1.2366 0.1254
C16 C 0.7868(3) 0.9246(4) 0.19499(5)
H5 H 0.7673 0.9865 0.2134
C18 C 0.7103(3) 1.0150(4) 0.09421(5)
H7 H 0.6684 1.1023 0.0785
C22 C 1.0580(4) 0.2960(5) 0.24671(6)
H12 H 1.1349 0.1684 0.2425
H13 H 0.9608 0.2329 0.2563
H14 H 1.1134 0.4108 0.2591
Cl2 Cl 0.67509(13) 1.25162(16) 0.007689(15)
O3 O 0.5641(2) 1.4784(3) -0.10312(3)
O4 O 0.84098(19) 0.8615(3) -0.10598(3)
O5 O 0.59826(18) 1.4852(3) -0.16214(3)
C3 C 0.7036(3) 1.1682(4) -0.07811(5)
C4 C 0.7018(2) 1.1801(4) -0.13143(5)
C7 C 0.7965(3) 0.9585(4) -0.07961(5)
C9 C 0.6650(3) 1.2569(4) -0.05072(5)
H2 H 0.6027 1.3970 -0.0490
O7 O 0.7074(3) 1.1615(3) -0.18284(4)
C10 C 0.6483(2) 1.2954(4) -0.10470(5)
C13 C 0.7904(3) 0.9749(4) -0.13020(5)
H3 H 0.8191 0.9055 -0.1478
C15 C 0.6692(3) 1.2707(4) -0.16135(5)
C17 C 0.8113(4) 0.9263(5) -0.02839(6)
H6 H 0.8463 0.8463 -0.0117
C19 C 0.7192(3) 1.1373(5) -0.02634(5)
C20 C 0.8503(3) 0.8369(4) -0.05515(6)
H8 H 0.9122 0.6963 -0.0568
C21 C 0.5786(3) 1.5904(4) -0.19061(5)
H9 H 0.6820 1.5732 -0.2010
H10 H 0.5519 1.7569 -0.1887
H11 H 0.4886 1.5111 -0.2010
loop_
_geom_bond_atom_site_label_1
_geom_bond_atom_site_label_2
_geom_bond_site_symmetry_1
_geom_bond_site_symmetry_2
Cl1 C12 1_555 1_555
Cl2 C19 1_555 1_555
O1 C6 1_555 1_555
O2 C5 1_555 1_555
O3 C10 1_555 1_555
C1 H1 1_555 1_555
O4 C7 1_555 1_555
C2 C5 1_555 1_555
O5 C15 1_555 1_555
C3 C7 1_555 1_555
C4 C10 1_555 1_555
C5 C8 1_555 1_555
O6 C11 1_555 1_555
C6 C8 1_555 1_555
C7 C20 1_555 1_555
C8 C1 1_555 1_555
C9 C3 1_555 1_555
H2 C9 1_555 1_555
O7 C15 1_555 1_555
O8 C11 1_555 1_555
C10 C3 1_555 1_555
C11 C2 1_555 1_555
C12 C1 1_555 1_555
C13 O4 1_555 1_555
H3 C13 1_555 1_555
C14 C6 1_555 1_555
H4 C14 1_555 1_555
C15 C4 1_555 1_555
C16 O1 1_555 1_555
H5 C16 1_555 1_555
C17 H6 1_555 1_555
C18 C12 1_555 1_555
H7 C18 1_555 1_555
C19 C9 1_555 1_555
C20 C17 1_555 1_555
H8 C20 1_555 1_555
C21 O5 1_555 1_555
H9 C21 1_555 1_555
H10 C21 1_555 1_555
H11 C21 1_555 1_555
C22 O6 1_555 1_555
H12 C22 1_555 1_555
H13 C22 1_555 1_555
H14 C22 1_555 1_555
C2 C16 1_555 1_555
C4 C13 1_555 1_555
C14 C18 1_555 1_555
C17 C19 1_555 1_555

#END
