
#######################################################################
#
#                 Cambridge Crystallographic Data Centre
#                                CCDC 
#
#######################################################################
#
# If this CIF has been generated from an entry in the Cambridge 
# Structural Database, then it will include bibliographic, chemical, 
# crystal, experimental, refinement or atomic coordinate data resulting 
# from the CCDC's data processing and validation procedures.
#
#######################################################################

data_IWOPAM01
_chemical_formula_moiety         'C21 H24 N2 O7'
_chemical_name_systematic        
'Methyl 3-isopropoxy-4-((3-isopropoxy-4-nitrobenzoyl)amino)benzoate'
_symmetry_cell_setting           monoclinic
_symmetry_space_group_name_H-M   'P 21/c'
_symmetry_Int_Tables_number      14
_space_group_name_Hall           '-P 2ybc'
loop_
_symmetry_equiv_pos_site_id
_symmetry_equiv_pos_as_xyz
1 x,y,z
2 -x,1/2+y,1/2-z
3 -x,-y,-z
4 x,1/2-y,1/2+z
_cell_length_a                   11.1751(8)
_cell_length_b                   12.8604(9)
_cell_length_c                   14.9153(12)
_cell_angle_alpha                90
_cell_angle_beta                 100.532(4)
_cell_angle_gamma                90
_cell_volume                     2107.46
_exptl_crystal_colour            colorless
_exptl_crystal_description       plate
_cell_formula_units_Z            4
loop_
_atom_site_label
_atom_site_type_symbol
_atom_site_fract_x
_atom_site_fract_y
_atom_site_fract_z
O1 O 0.61277(7) 0.29847(6) 0.14944(6)
O2 O 0.31278(8) 0.55411(6) 0.05768(6)
O3 O 0.33281(8) -0.02376(7) 0.17230(7)
O4 O 0.15105(8) 0.04111(7) 0.10057(6)
N1 N 0.46945(9) 0.46180(7) 0.14418(7)
H1 H 0.5426 0.4684 0.1775
O5 O 0.83081(8) 0.70884(6) 0.09673(7)
C1 C 0.49151(11) 0.27419(9) 0.14632(8)
C2 C 0.63167(11) 0.62604(9) 0.09930(8)
H2 H 0.6637 0.5577 0.0981
C3 C 0.42002(11) 0.54852(9) 0.09771(8)
C4 C 0.41316(11) 0.36178(9) 0.14350(8)
C5 C 0.50649(11) 0.64015(9) 0.09938(8)
C6 C 0.65669(11) 0.81248(9) 0.10291(9)
C7 C 0.45656(12) 0.74101(9) 0.09852(9)
H3 H 0.3718 0.7501 0.0969
C8 C 0.44259(11) 0.17399(9) 0.14455(9)
H4 H 0.4943 0.1151 0.1464
C9 C 0.23913(11) 0.24668(9) 0.13844(9)
H5 H 0.1543 0.2371 0.1358
C10 C 0.70977(11) 0.71256(9) 0.10093(8)
C11 C 0.31589(11) 0.16026(9) 0.13998(8)
O6 O 0.69317(11) 0.98058(7) 0.05558(8)
C12 C 0.53247(12) 0.82732(9) 0.10012(9)
H6 H 0.4998 0.8956 0.0993
C13 C 0.28800(11) 0.34754(9) 0.14087(9)
H7 H 0.2363 0.4062 0.1407
N2 N 0.73429(12) 0.90680(9) 0.10639(9)
C14 C 0.69950(11) 0.21457(9) 0.14218(9)
H8 H 0.6627 0.1649 0.0933
C15 C 0.27015(11) 0.05036(9) 0.14002(9)
O7 O 0.83269(10) 0.90867(8) 0.16056(9)
C16 C 0.80979(12) 0.26735(10) 0.11484(10)
H9 H 0.7837 0.3077 0.0590
H10 H 0.8686 0.2144 0.1041
H11 H 0.8479 0.3138 0.1639
C17 C 0.73360(12) 0.15633(10) 0.23267(9)
H12 H 0.7672 0.2055 0.2810
H13 H 0.7946 0.1031 0.2272
H14 H 0.6609 0.1231 0.2478
C18 C 0.92188(13) 0.55850(12) 0.18502(10)
H15 H 0.9661 0.6082 0.2287
H16 H 0.9723 0.4967 0.1823
H17 H 0.8460 0.5384 0.2046
C19 C 0.89248(11) 0.60875(9) 0.09075(9)
H18 H 0.8393 0.5615 0.0474
C20 C 1.00633(12) 0.63711(11) 0.05269(10)
H19 H 0.9823 0.6643 -0.0094
H20 H 1.0569 0.5750 0.0515
H21 H 1.0528 0.6902 0.0915
C21 C 0.10354(13) -0.06540(10) 0.09559(11)
H22 H 0.0174 -0.0649 0.0667
H23 H 0.1119 -0.0941 0.1573
H24 H 0.1495 -0.1084 0.0595
loop_
_geom_bond_atom_site_label_1
_geom_bond_atom_site_label_2
_geom_bond_site_symmetry_1
_geom_bond_site_symmetry_2
O1 C1 1_555 1_555
O2 C3 1_555 1_555
O3 C15 1_555 1_555
O4 C15 1_555 1_555
N1 H1 1_555 1_555
O5 C10 1_555 1_555
C1 C4 1_555 1_555
C2 H2 1_555 1_555
C3 N1 1_555 1_555
C4 N1 1_555 1_555
C5 C2 1_555 1_555
C6 C10 1_555 1_555
C7 C5 1_555 1_555
H3 C7 1_555 1_555
C8 C1 1_555 1_555
H4 C8 1_555 1_555
C9 H5 1_555 1_555
C10 C2 1_555 1_555
C11 C8 1_555 1_555
O6 N2 1_555 1_555
C12 C6 1_555 1_555
H6 C12 1_555 1_555
C13 C4 1_555 1_555
H7 C13 1_555 1_555
N2 C6 1_555 1_555
C14 O1 1_555 1_555
H8 C14 1_555 1_555
C15 C11 1_555 1_555
O7 N2 1_555 1_555
C16 C14 1_555 1_555
H9 C16 1_555 1_555
H10 C16 1_555 1_555
H11 C16 1_555 1_555
C17 C14 1_555 1_555
H12 C17 1_555 1_555
H13 C17 1_555 1_555
H14 C17 1_555 1_555
C18 H15 1_555 1_555
H16 C18 1_555 1_555
H17 C18 1_555 1_555
C19 O5 1_555 1_555
H18 C19 1_555 1_555
C20 C19 1_555 1_555
H19 C20 1_555 1_555
H20 C20 1_555 1_555
H21 C20 1_555 1_555
C21 O4 1_555 1_555
H22 C21 1_555 1_555
H23 C21 1_555 1_555
H24 C21 1_555 1_555
C3 C5 1_555 1_555
C7 C12 1_555 1_555
C9 C11 1_555 1_555
C9 C13 1_555 1_555
C18 C19 1_555 1_555

#END
