
#######################################################################
#
#                 Cambridge Crystallographic Data Centre
#                                CCDC 
#
#######################################################################
#
# If this CIF has been generated from an entry in the Cambridge 
# Structural Database, then it will include bibliographic, chemical, 
# crystal, experimental, refinement or atomic coordinate data resulting 
# from the CCDC's data processing and validation procedures.
#
#######################################################################

data_IWOVAT
_chemical_formula_moiety         'C38 H30 B1 N3 O3,C1 H4 O1'
_chemical_name_systematic        
'methyl 4-(9c-methoxy-3,9-bis(4-methylphenyl)-9cH-8b\l^5^,9b,9d-triaza-9\L^5^-boratricyclopenta[cd,gh,kl]phenalen-6-yl)benzoate methanol solvate'
_symmetry_cell_setting           monoclinic
_symmetry_space_group_name_H-M   'P 21/c'
_symmetry_Int_Tables_number      14
_space_group_name_Hall           '-P 2ybc'
loop_
_symmetry_equiv_pos_site_id
_symmetry_equiv_pos_as_xyz
1 x,y,z
2 -x,1/2+y,1/2-z
3 -x,-y,-z
4 x,1/2-y,1/2+z
_cell_length_a                   9.922(2)
_cell_length_b                   22.060(4)
_cell_length_c                   13.917(3)
_cell_angle_alpha                90
_cell_angle_beta                 91.477(7)
_cell_angle_gamma                90
_cell_volume                     3045.13
_exptl_crystal_colour            orange
_exptl_crystal_description       Prism
_cell_formula_units_Z            4
loop_
_atom_site_label
_atom_site_type_symbol
_atom_site_fract_x
_atom_site_fract_y
_atom_site_fract_z
N1 N 0.1539(3) 0.25570(12) 0.94025(18)
N2 N 0.2451(3) 0.20672(12) 1.07890(19)
O1 O 0.3231(3) 0.17766(15) 0.91795(18)
C1 C 0.2621(3) 0.31445(14) 1.0658(2)
O2 O 0.4221(3) 0.59506(13) 1.1504(2)
O3 O 0.3216(3) 0.56993(12) 1.2877(2)
N3 N 0.0942(3) 0.15397(12) 0.97465(19)
C2 C 0.2870(3) 0.25993(15) 1.1187(2)
C3 C 0.0231(3) 0.32279(15) 0.8615(2)
H1 H -0.0405 0.3400 0.8172
C4 C 0.0512(3) 0.25950(15) 0.8731(2)
C5 C 0.1854(3) 0.31112(15) 0.9788(2)
C6 C 0.0296(3) -0.00288(15) 1.3070(2)
H2 H -0.0546 -0.0166 1.3295
C7 C 0.1593(4) 0.10920(15) 1.1256(2)
C8 C -0.1158(3) 0.20982(14) 0.7613(2)
C9 C 0.1531(3) 0.06064(14) 1.1991(2)
C10 C -0.0055(4) 0.15387(15) 0.9044(2)
C11 C 0.2957(3) 0.37535(15) 1.1055(2)
C12 C -0.0217(3) 0.20643(15) 0.8455(2)
C13 C -0.0840(4) 0.10051(15) 0.9219(3)
H3 H -0.1569 0.0861 0.8826
C14 C 0.1038(3) 0.35427(15) 0.9254(2)
H4 H 0.1057 0.3971 0.9332
C15 C -0.2457(4) 0.18632(15) 0.7588(2)
H5 H -0.2796 0.1674 0.8145
C16 C 0.2721(4) 0.03763(16) 1.2399(3)
H6 H 0.3563 0.0515 1.2176
C17 C -0.0701(3) 0.23793(15) 0.6776(2)
H7 H 0.0180 0.2547 0.6772
C18 C 0.2395(3) 0.16116(14) 1.1460(2)
C19 C 0.2996(3) 0.18606(15) 1.2323(2)
H8 H 0.3167 0.1647 1.2907
C20 C 0.2750(3) 0.39022(15) 1.2016(2)
H9 H 0.2436 0.3603 1.2446
C21 C 0.0776(4) 0.10878(15) 1.0404(2)
C22 C -0.1518(4) 0.24157(16) 0.5957(2)
H10 H -0.1186 0.2610 0.5401
C23 C 0.0312(4) 0.03922(15) 1.2339(2)
H11 H -0.0515 0.0538 1.2069
C24 C 0.3668(3) 0.47831(16) 1.0768(3)
H12 H 0.3977 0.5084 1.0338
C25 C 0.3003(4) 0.44914(16) 1.2345(3)
H13 H 0.2871 0.4589 1.3000
C26 C 0.3279(3) 0.24583(15) 1.2159(2)
H14 H 0.3678 0.2732 1.2610
C27 C 0.3445(3) 0.42035(16) 1.0442(3)
H15 H 0.3623 0.4106 0.9792
C28 C -0.0357(4) 0.07388(15) 1.0049(3)
H16 H -0.0710 0.0385 1.0339
C29 C 0.2693(4) -0.00545(16) 1.3129(2)
H17 H 0.3518 -0.0211 1.3384
C30 C 0.1487(4) -0.02603(14) 1.3490(2)
C31 C 0.1441(4) -0.07026(17) 1.4302(3)
H18 H 0.2353 -0.0853 1.4450
H19 H 0.0856 -0.1043 1.4118
H20 H 0.1085 -0.0502 1.4870
C32 C 0.3447(3) 0.49350(16) 1.1717(3)
C33 C -0.2820(4) 0.21730(17) 0.5928(2)
C34 C -0.3267(4) 0.19000(17) 0.6762(3)
H21 H -0.4151 0.1734 0.6768
C35 C 0.3678(4) 0.55803(17) 1.2006(3)
B1 B 0.2105(4) 0.19715(18) 0.9749(3)
C36 C -0.3688(5) 0.2192(3) 0.5022(3)
H22 H -0.3261 0.2452 0.4547
H23 H -0.4578 0.2355 0.5169
H24 H -0.3788 0.1781 0.4762
C37 C 0.3356(5) 0.63237(19) 1.3178(4)
H25 H 0.4315 0.6429 1.3231
H26 H 0.2941 0.6378 1.3804
H27 H 0.2908 0.6588 1.2703
C38 C 0.4081(6) 0.1331(2) 0.9470(4)
H28 H 0.4754 0.1263 0.8979
H29 H 0.3569 0.0957 0.9568
H30 H 0.4535 0.1449 1.0076
O4 O 0.3512(4) 0.52135(17) 0.5043(3)
C39 C 0.4160(6) 0.5370(3) 0.5745(5)
loop_
_geom_bond_atom_site_label_1
_geom_bond_atom_site_label_2
_geom_bond_site_symmetry_1
_geom_bond_site_symmetry_2
N1 C4 1_555 1_555
N2 C2 1_555 1_555
O1 B1 1_555 1_555
C1 C2 1_555 1_555
O2 C35 1_555 1_555
O3 C35 1_555 1_555
N3 C10 1_555 1_555
C2 C26 1_555 1_555
C3 H1 1_555 1_555
C4 C3 1_555 1_555
C5 N1 1_555 1_555
C6 H2 1_555 1_555
C7 C9 1_555 1_555
C8 C12 1_555 1_555
C9 C16 1_555 1_555
C10 C12 1_555 1_555
C11 C1 1_555 1_555
C12 C4 1_555 1_555
C13 C10 1_555 1_555
H3 C13 1_555 1_555
C14 C3 1_555 1_555
H4 C14 1_555 1_555
C15 C8 1_555 1_555
H5 C15 1_555 1_555
C16 H6 1_555 1_555
C17 C8 1_555 1_555
H7 C17 1_555 1_555
C18 N2 1_555 1_555
C19 C18 1_555 1_555
H8 C19 1_555 1_555
C20 C11 1_555 1_555
H9 C20 1_555 1_555
C21 N3 1_555 1_555
C22 C17 1_555 1_555
H10 C22 1_555 1_555
C23 C6 1_555 1_555
H11 C23 1_555 1_555
C24 H12 1_555 1_555
C25 C20 1_555 1_555
H13 C25 1_555 1_555
C26 C19 1_555 1_555
H14 C26 1_555 1_555
C27 C11 1_555 1_555
H15 C27 1_555 1_555
C28 C13 1_555 1_555
H16 C28 1_555 1_555
C29 C16 1_555 1_555
H17 C29 1_555 1_555
C30 C6 1_555 1_555
C31 C30 1_555 1_555
H18 C31 1_555 1_555
H19 C31 1_555 1_555
H20 C31 1_555 1_555
C32 C24 1_555 1_555
C33 C22 1_555 1_555
C34 C15 1_555 1_555
H21 C34 1_555 1_555
C35 C32 1_555 1_555
B1 N1 1_555 1_555
C36 C33 1_555 1_555
H22 C36 1_555 1_555
H23 C36 1_555 1_555
H24 C36 1_555 1_555
C37 O3 1_555 1_555
H25 C37 1_555 1_555
H26 C37 1_555 1_555
H27 C37 1_555 1_555
C38 O1 1_555 1_555
H28 C38 1_555 1_555
H29 C38 1_555 1_555
H30 C38 1_555 1_555
O4 C39 1_555 1_555
N2 B1 1_555 1_555
C1 C5 1_555 1_555
N3 B1 1_555 1_555
C5 C14 1_555 1_555
C7 C18 1_555 1_555
C7 C21 1_555 1_555
C9 C23 1_555 1_555
C21 C28 1_555 1_555
C24 C27 1_555 1_555
C25 C32 1_555 1_555
C29 C30 1_555 1_555
C33 C34 1_555 1_555

#END
