
#######################################################################
#
#                 Cambridge Crystallographic Data Centre
#                                CCDC 
#
#######################################################################
#
# If this CIF has been generated from an entry in the Cambridge 
# Structural Database, then it will include bibliographic, chemical, 
# crystal, experimental, refinement or atomic coordinate data resulting 
# from the CCDC's data processing and validation procedures.
#
#######################################################################

data_IWOXUO
_chemical_formula_moiety         'C32 H28 N2'
_chemical_name_systematic        
N,N'-bis(9H-fluoren-9-ylidene)hexane-1,6-diamine
_symmetry_cell_setting           monoclinic
_symmetry_space_group_name_H-M   'P 21/c'
_symmetry_Int_Tables_number      14
_space_group_name_Hall           '-P 2ybc'
loop_
_symmetry_equiv_pos_site_id
_symmetry_equiv_pos_as_xyz
1 x,y,z
2 -x,1/2+y,1/2-z
3 -x,-y,-z
4 x,1/2-y,1/2+z
_cell_length_a                   5.4338(3)
_cell_length_b                   12.8089(7)
_cell_length_c                   16.6194(9)
_cell_angle_alpha                90
_cell_angle_beta                 98.0130(10)
_cell_angle_gamma                90
_cell_volume                     1145.43
_exptl_crystal_colour            yellow
_exptl_crystal_description       prism
_cell_formula_units_Z            2
_exptl_crystal_preparation       Luminescent
loop_
_atom_site_label
_atom_site_type_symbol
_atom_site_fract_x
_atom_site_fract_y
_atom_site_fract_z
C1 C -0.1916(2) 0.87670(9) 0.33640(7)
H1 H -0.3502 0.8443 0.3122
H2 H -0.1595 0.9375 0.3026
C2 C -0.2120(2) 0.91266(9) 0.42236(7)
H3 H -0.2171 0.8508 0.4578
H4 H -0.3694 0.9516 0.4224
C3 C 0.0049(2) 0.98208(9) 0.45654(7)
H5 H 0.0071 1.0443 0.4213
H6 H 0.1618 0.9434 0.4548
C4 C 0.0916(2) 0.77532(8) 0.27177(7)
C5 C 0.2963(2) 0.69797(8) 0.27148(7)
C6 C 0.4192(2) 0.63923(9) 0.33466(7)
H7 H 0.3748 0.6442 0.3878
C7 C 0.6090(2) 0.57273(10) 0.31862(8)
H8 H 0.6938 0.5311 0.3610
C8 C 0.6754(2) 0.56683(10) 0.24093(8)
H9 H 0.8056 0.5212 0.2309
C9 C 0.5545(2) 0.62658(9) 0.17774(8)
H10 H 0.6025 0.6230 0.1250
C10 C 0.3626(2) 0.69142(9) 0.19315(7)
C11 C 0.1976(2) 0.76092(9) 0.13943(7)
C12 C 0.1847(2) 0.77833(10) 0.05667(7)
H11 H 0.2986 0.7455 0.0263
C13 C 0.0018(3) 0.84478(10) 0.01890(7)
H12 H -0.0089 0.8577 -0.0378
C14 C -0.1649(2) 0.89236(10) 0.06313(7)
H13 H -0.2891 0.9374 0.0363
C15 C -0.1534(2) 0.87529(9) 0.14641(7)
H14 H -0.2693 0.9078 0.1762
C16 C 0.0299(2) 0.81006(8) 0.18501(7)
N1 N 0.01067(18) 0.80093(7) 0.33736(6)
C1B C 0.1916(2) 1.12330(9) 0.66360(7)
H1B H 0.3502 1.1557 0.6878
H2B H 0.1595 1.0625 0.6974
C2B C 0.2120(2) 1.08734(9) 0.57764(7)
H3B H 0.2171 1.1492 0.5422
H4B H 0.3694 1.0484 0.5776
C3B C -0.0049(2) 1.01792(9) 0.54346(7)
H5B H -0.0071 0.9557 0.5787
H6B H -0.1618 1.0566 0.5452
C4B C -0.0916(2) 1.22468(8) 0.72823(7)
C5B C -0.2963(2) 1.30203(8) 0.72852(7)
C6B C -0.4192(2) 1.36077(9) 0.66534(7)
H7B H -0.3748 1.3558 0.6122
C7B C -0.6090(2) 1.42727(10) 0.68138(8)
H8B H -0.6938 1.4689 0.6390
C8B C -0.6754(2) 1.43317(10) 0.75907(8)
H9B H -0.8056 1.4788 0.7691
C9B C -0.5545(2) 1.37342(9) 0.82226(8)
H10B H -0.6025 1.3770 0.8750
C10B C -0.3626(2) 1.30858(9) 0.80685(7)
C11B C -0.1976(2) 1.23908(9) 0.86057(7)
C12B C -0.1847(2) 1.22167(10) 0.94333(7)
H11B H -0.2986 1.2545 0.9737
C13B C -0.0018(3) 1.15522(10) 0.98110(7)
H12B H 0.0089 1.1423 1.0378
C14B C 0.1649(2) 1.10764(10) 0.93687(7)
H13B H 0.2891 1.0626 0.9637
C15B C 0.1534(2) 1.12471(9) 0.85359(7)
H14B H 0.2693 1.0922 0.8238
C16B C -0.0299(2) 1.18994(8) 0.81499(7)
N1B N -0.01067(18) 1.19907(7) 0.66264(6)
loop_
_geom_bond_atom_site_label_1
_geom_bond_atom_site_label_2
_geom_bond_site_symmetry_1
_geom_bond_site_symmetry_2
C1 H1 1_555 1_555
H2 C1 1_555 1_555
C2 C1 1_555 1_555
H3 C2 1_555 1_555
H4 C2 1_555 1_555
C3 C2 1_555 1_555
H5 C3 1_555 1_555
H6 C3 1_555 1_555
C4 C5 1_555 1_555
C5 C6 1_555 1_555
C6 H7 1_555 1_555
C7 C6 1_555 1_555
H8 C7 1_555 1_555
C8 C7 1_555 1_555
H9 C8 1_555 1_555
C9 C8 1_555 1_555
H10 C9 1_555 1_555
C10 C5 1_555 1_555
C11 C10 1_555 1_555
C12 C11 1_555 1_555
H11 C12 1_555 1_555
C13 C12 1_555 1_555
H12 C13 1_555 1_555
C14 C13 1_555 1_555
H13 C14 1_555 1_555
C15 C14 1_555 1_555
H14 C15 1_555 1_555
C16 C4 1_555 1_555
N1 C1 1_555 1_555
C1B H1B 1_555 1_555
H2B C1B 1_555 1_555
C2B C1B 1_555 1_555
H3B C2B 1_555 1_555
H4B C2B 1_555 1_555
C3B C3 1_555 1_555
H5B C3B 1_555 1_555
H6B C3B 1_555 1_555
C4B C5B 1_555 1_555
C5B C6B 1_555 1_555
C6B H7B 1_555 1_555
C7B C6B 1_555 1_555
H8B C7B 1_555 1_555
C8B C7B 1_555 1_555
H9B C8B 1_555 1_555
C9B C8B 1_555 1_555
H10B C9B 1_555 1_555
C10B C5B 1_555 1_555
C11B C10B 1_555 1_555
C12B C11B 1_555 1_555
H11B C12B 1_555 1_555
C13B C12B 1_555 1_555
H12B C13B 1_555 1_555
C14B C13B 1_555 1_555
H13B C14B 1_555 1_555
C15B C14B 1_555 1_555
H14B C15B 1_555 1_555
C16B C4B 1_555 1_555
N1B C1B 1_555 1_555
C4 N1 1_555 1_555
C9 C10 1_555 1_555
C11 C16 1_555 1_555
C15 C16 1_555 1_555
C2B C3B 1_555 1_555
C4B N1B 1_555 1_555
C9B C10B 1_555 1_555
C11B C16B 1_555 1_555
C15B C16B 1_555 1_555

#END
