
#######################################################################
#
#                 Cambridge Crystallographic Data Centre
#                                CCDC 
#
#######################################################################
#
# If this CIF has been generated from an entry in the Cambridge 
# Structural Database, then it will include bibliographic, chemical, 
# crystal, experimental, refinement or atomic coordinate data resulting 
# from the CCDC's data processing and validation procedures.
#
#######################################################################

data_IWUGEO
_chemical_formula_moiety         'C28 H30 N2 O4 S2'
_chemical_name_systematic        
4-methyl-N-(3-methylene-1-((4-methylphenyl)sulfonyl)-4-(prop-1-en-2-yl)pyrrolidin-2-yl)-N-phenylbenzenesulfonamide
_symmetry_cell_setting           monoclinic
_symmetry_space_group_name_H-M   'P 21'
_symmetry_Int_Tables_number      4
_space_group_name_Hall           'P 2yb'
loop_
_symmetry_equiv_pos_site_id
_symmetry_equiv_pos_as_xyz
1 x,y,z
2 -x,1/2+y,-z
_cell_length_a                   10.0093(13)
_cell_length_b                   9.2415(12)
_cell_length_c                   15.575(2)
_cell_angle_alpha                90
_cell_angle_beta                 108.554(4)
_cell_angle_gamma                90
_cell_volume                     1365.82
_exptl_crystal_colour            colorless
_exptl_crystal_description       block
_cell_formula_units_Z            2
loop_
_atom_site_label
_atom_site_type_symbol
_atom_site_fract_x
_atom_site_fract_y
_atom_site_fract_z
S1 S 0.09329(12) 0.33995(13) 0.42454(9)
S2 S -0.02050(15) 0.39059(16) 0.15110(10)
O1 O -0.0269(4) 0.2732(4) 0.2100(3)
O2 O 0.0195(4) 0.3659(5) 0.0717(2)
O3 O 0.1352(3) 0.1945(4) 0.4144(2)
O4 O -0.0546(3) 0.3780(4) 0.3949(2)
N1 N 0.0916(4) 0.5067(5) 0.2121(3)
N2 N 0.1688(4) 0.4539(4) 0.3747(3)
C1 C -0.1875(5) 0.4743(6) 0.1176(4)
C2 C -0.2786(6) 0.4536(6) 0.1667(4)
H1 H -0.2529 0.3959 0.2183
C3 C -0.4090(6) 0.5200(7) 0.1379(4)
H2 H -0.4719 0.5021 0.1696
C4 C -0.4500(6) 0.6115(7) 0.0646(4)
C5 C -0.3591(7) 0.6291(7) 0.0164(4)
H3 H -0.3861 0.6869 -0.0352
C6 C -0.2262(6) 0.5631(7) 0.0419(4)
H4 H -0.1651 0.5786 0.0086
C7 C -0.5919(6) 0.6845(8) 0.0370(4)
H5 H -0.6403 0.6597 0.0792
H6 H -0.6464 0.6529 -0.0226
H7 H -0.5794 0.7875 0.0368
C8 C 0.1390(7) 0.6251(7) 0.1659(4)
H8 H 0.0593 0.6751 0.1243
H9 H 0.1991 0.5889 0.1327
C9 C 0.2203(6) 0.7246(6) 0.2420(4)
H10 H 0.3165 0.6871 0.2672
C10 C 0.1461(5) 0.7033(5) 0.3112(4)
C11 C 0.0869(5) 0.5516(5) 0.3020(4)
H11 H -0.0112 0.5548 0.3015
C12 C 0.3200(5) 0.4328(6) 0.3894(4)
C13 C 0.3610(5) 0.3336(6) 0.3385(4)
H12 H 0.2951 0.2776 0.2959
C14 C 0.5062(6) 0.3182(7) 0.3522(4)
H13 H 0.5376 0.2514 0.3182
C15 C 0.6000(6) 0.4003(7) 0.4147(4)
H14 H 0.6958 0.3889 0.4236
C16 C 0.5566(5) 0.4996(7) 0.4649(4)
H15 H 0.6226 0.5557 0.5074
C17 C 0.4142(5) 0.5171(6) 0.4527(4)
H16 H 0.3833 0.5843 0.4867
C18 C 0.1435(5) 0.5162(6) 0.5707(4)
H17 H 0.0995 0.5882 0.5298
C19 C 0.1877(5) 0.5450(6) 0.6614(4)
H18 H 0.1729 0.6367 0.6812
C20 C 0.2524(6) 0.4434(8) 0.7234(4)
C21 C 0.2708(7) 0.3086(8) 0.6930(5)
H19 H 0.3137 0.2366 0.7343
C22 C 0.2262(6) 0.2782(7) 0.6012(5)
H20 H 0.2390 0.1859 0.5812
C23 C 0.1636(4) 0.3825(6) 0.5400(3)
C24 C 0.3019(7) 0.4772(8) 0.8248(4)
H21 H 0.2805 0.5762 0.8339
H22 H 0.4017 0.4620 0.8492
H23 H 0.2544 0.4147 0.8549
C25 C 0.1309(5) 0.7993(6) 0.3688(3)
H24 H 0.1680 0.8918 0.3695
H25 H 0.0830 0.7754 0.4091
C26 C 0.2289(8) 0.8806(7) 0.2137(4)
C27 C 0.3531(10) 0.9457(9) 0.2351(6)
H26 H 0.3589 1.0418 0.2188
H27 H 0.4345 0.8953 0.2664
C28 C 0.0933(10) 0.9544(9) 0.1635(5)
H28 H 0.1123 1.0522 0.1501
H29 H 0.0323 0.9548 0.2002
H30 H 0.0485 0.9035 0.1081
loop_
_geom_bond_atom_site_label_1
_geom_bond_atom_site_label_2
_geom_bond_site_symmetry_1
_geom_bond_site_symmetry_2
S1 O3 1_555 1_555
S2 O1 1_555 1_555
O2 S2 1_555 1_555
O4 S1 1_555 1_555
N1 S2 1_555 1_555
N2 S1 1_555 1_555
C1 S2 1_555 1_555
C2 C1 1_555 1_555
H1 C2 1_555 1_555
C3 C2 1_555 1_555
H2 C3 1_555 1_555
C4 C3 1_555 1_555
C5 C4 1_555 1_555
H3 C5 1_555 1_555
C6 C1 1_555 1_555
H4 C6 1_555 1_555
C7 C4 1_555 1_555
H5 C7 1_555 1_555
H6 C7 1_555 1_555
H7 C7 1_555 1_555
C8 N1 1_555 1_555
H8 C8 1_555 1_555
H9 C8 1_555 1_555
C9 C8 1_555 1_555
H10 C9 1_555 1_555
C10 C9 1_555 1_555
C11 N1 1_555 1_555
H11 C11 1_555 1_555
C12 N2 1_555 1_555
C13 C12 1_555 1_555
H12 C13 1_555 1_555
C14 C13 1_555 1_555
H13 C14 1_555 1_555
C15 C14 1_555 1_555
H14 C15 1_555 1_555
C16 C15 1_555 1_555
H15 C16 1_555 1_555
C17 C12 1_555 1_555
H16 C17 1_555 1_555
C18 H17 1_555 1_555
C19 C18 1_555 1_555
H18 C19 1_555 1_555
C20 C19 1_555 1_555
C21 C20 1_555 1_555
H19 C21 1_555 1_555
C22 C21 1_555 1_555
H20 C22 1_555 1_555
C23 S1 1_555 1_555
C24 C20 1_555 1_555
H21 C24 1_555 1_555
H22 C24 1_555 1_555
H23 C24 1_555 1_555
C25 C10 1_555 1_555
H24 C25 1_555 1_555
H25 C25 1_555 1_555
C26 C9 1_555 1_555
C27 C26 1_555 1_555
H26 C27 1_555 1_555
H27 C27 1_555 1_555
C28 C26 1_555 1_555
H28 C28 1_555 1_555
H29 C28 1_555 1_555
H30 C28 1_555 1_555
N2 C11 1_555 1_555
C5 C6 1_555 1_555
C10 C11 1_555 1_555
C16 C17 1_555 1_555
C18 C23 1_555 1_555
C22 C23 1_555 1_555

#END
