
#######################################################################
#
#                 Cambridge Crystallographic Data Centre
#                                CCDC 
#
#######################################################################
#
# If this CIF has been generated from an entry in the Cambridge 
# Structural Database, then it will include bibliographic, chemical, 
# crystal, experimental, refinement or atomic coordinate data resulting 
# from the CCDC's data processing and validation procedures.
#
#######################################################################

data_IWUKUH
_chemical_formula_moiety         'C14 H11 N1 O2'
_chemical_name_systematic        
6,7-Dihydro-3H,5H-furo[3,2-f]pyrido[3,2,1-ij]quinolin-3-one
_symmetry_cell_setting           orthorhombic
_symmetry_space_group_name_H-M   'P n a 21'
_symmetry_Int_Tables_number      33
_space_group_name_Hall           'P 2c -2n'
loop_
_symmetry_equiv_pos_site_id
_symmetry_equiv_pos_as_xyz
1 x,y,z
2 -x,-y,1/2+z
3 1/2+x,1/2-y,z
4 1/2-x,1/2+y,1/2+z
_cell_length_a                   7.168(3)
_cell_length_b                   15.046(7)
_cell_length_c                   9.688(4)
_cell_angle_alpha                90
_cell_angle_beta                 90
_cell_angle_gamma                90
_cell_volume                     1044.85
_exptl_crystal_colour            colorless
_exptl_crystal_description       block
_cell_formula_units_Z            4
loop_
_atom_site_label
_atom_site_type_symbol
_atom_site_fract_x
_atom_site_fract_y
_atom_site_fract_z
C1 C 0.1106(4) 0.14372(17) 1.0232(3)
H1 H -0.0235 0.1366 1.0309
H2 H 0.1545 0.1729 1.1064
C2 C 0.1997(4) 0.05386(16) 1.0122(3)
H3 H 0.1571 0.0166 1.0876
H4 H 0.3341 0.0599 1.0196
C3 C 0.1508(4) 0.01017(17) 0.8754(3)
H5 H 0.2148 -0.0464 0.8677
H6 H 0.0176 -0.0008 0.8711
C4 C 0.2082(3) 0.07009(15) 0.7586(3)
C5 C 0.2681(4) 0.03472(17) 0.6352(2)
H7 H 0.2755 -0.0265 0.6227
C6 C 0.3170(3) 0.09255(17) 0.5305(3)
C7 C 0.3097(3) 0.18319(16) 0.5415(2)
C8 C 0.2513(4) 0.22134(15) 0.6669(2)
C9 C 0.2045(3) 0.16369(16) 0.7764(2)
C10 C 0.4158(4) 0.1465(2) 0.3338(3)
H8 H 0.4616 0.1503 0.2442
C11 C 0.3748(4) 0.21726(18) 0.4123(3)
H9 H 0.3864 0.2767 0.3877
C12 C 0.2391(3) 0.31454(15) 0.6884(3)
H10 H 0.2696 0.3530 0.6168
C13 C 0.1848(3) 0.34782(18) 0.8094(3)
H11 H 0.1751 0.4091 0.8196
C14 C 0.1409(3) 0.29153(17) 0.9241(3)
N1 N 0.1530(3) 0.20063(13) 0.90239(18)
O1 O 0.3823(3) 0.06785(12) 0.40155(18)
O2 O 0.0941(3) 0.32032(13) 1.03908(19)
loop_
_geom_bond_atom_site_label_1
_geom_bond_atom_site_label_2
_geom_bond_site_symmetry_1
_geom_bond_site_symmetry_2
C1 H1 1_555 1_555
H2 C1 1_555 1_555
C2 C1 1_555 1_555
H3 C2 1_555 1_555
H4 C2 1_555 1_555
C3 C2 1_555 1_555
H5 C3 1_555 1_555
H6 C3 1_555 1_555
C4 C3 1_555 1_555
C5 C4 1_555 1_555
H7 C5 1_555 1_555
C6 C5 1_555 1_555
C7 C6 1_555 1_555
C8 C7 1_555 1_555
C9 C4 1_555 1_555
C10 H8 1_555 1_555
C11 C7 1_555 1_555
H9 C11 1_555 1_555
C12 C8 1_555 1_555
H10 C12 1_555 1_555
C13 C12 1_555 1_555
H11 C13 1_555 1_555
C14 C13 1_555 1_555
N1 C1 1_555 1_555
O1 C6 1_555 1_555
O2 C14 1_555 1_555
C8 C9 1_555 1_555
C9 N1 1_555 1_555
C10 C11 1_555 1_555
C10 O1 1_555 1_555
C14 N1 1_555 1_555

#END
