
#######################################################################
#
#                 Cambridge Crystallographic Data Centre
#                                CCDC 
#
#######################################################################
#
# If this CIF has been generated from an entry in the Cambridge 
# Structural Database, then it will include bibliographic, chemical, 
# crystal, experimental, refinement or atomic coordinate data resulting 
# from the CCDC's data processing and validation procedures.
#
#######################################################################

data_IWUKER
_chemical_formula_moiety         'C21 H19 N1 O4'
_chemical_name_systematic        
'Dimethyl 1,4-diphenyl-1,4-dihydropyridine-3,5-dicarboxylate'
_symmetry_cell_setting           monoclinic
_symmetry_space_group_name_H-M   'C c'
_symmetry_Int_Tables_number      9
_space_group_name_Hall           'C -2yc'
loop_
_symmetry_equiv_pos_site_id
_symmetry_equiv_pos_as_xyz
1 x,y,z
2 x,-y,1/2+z
3 1/2+x,1/2+y,z
4 1/2+x,1/2-y,1/2+z
_cell_length_a                   19.404(4)
_cell_length_b                   8.0536(16)
_cell_length_c                   11.589(2)
_cell_angle_alpha                90
_cell_angle_beta                 102.32(3)
_cell_angle_gamma                90
_cell_volume                     1769.33
_exptl_crystal_colour            colorless
_exptl_crystal_description       block
_cell_formula_units_Z            4
loop_
_atom_site_label
_atom_site_type_symbol
_atom_site_fract_x
_atom_site_fract_y
_atom_site_fract_z
C1 C 0.7038(2) 0.2194(5) 0.7941(4)
C2 C 0.73468(18) 0.2662(5) 0.6938(3)
C3 C 0.69469(19) 0.2800(5) 0.5859(3)
H1 H 0.6471 0.2537 0.5746
N1 N 0.72079(16) 0.3323(4) 0.4886(3)
C4 C 0.79054(19) 0.3806(5) 0.5088(4)
H2 H 0.8076 0.4245 0.4460
C5 C 0.83484(18) 0.3677(5) 0.6136(3)
C6 C 0.6769(2) 0.3374(5) 0.3733(4)
C7 C 0.6081(2) 0.3918(5) 0.3556(4)
H3 H 0.5894 0.4258 0.4193
C8 C 0.5671(2) 0.3953(6) 0.2423(4)
H4 H 0.5204 0.4304 0.2299
C9 C 0.5947(3) 0.3475(6) 0.1486(4)
H5 H 0.5668 0.3507 0.0726
C10 C 0.6631(2) 0.2951(7) 0.1659(4)
H6 H 0.6817 0.2636 0.1017
C11 C 0.7045(2) 0.2885(6) 0.2781(4)
H7 H 0.7509 0.2514 0.2898
C12 C 0.84960(19) 0.1190(5) 0.7506(4)
C13 C 0.8852(2) 0.0823(6) 0.8631(4)
H8 H 0.8902 0.1638 0.9212
C14 C 0.9139(2) -0.0740(7) 0.8921(5)
H9 H 0.9372 -0.0973 0.9692
C15 C 0.9076(2) -0.1932(6) 0.8067(5)
H10 H 0.9276 -0.2973 0.8253
C16 C 0.8716(3) -0.1600(6) 0.6927(5)
H11 H 0.8667 -0.2420 0.6350
C17 C 0.8430(2) -0.0043(5) 0.6650(4)
H12 H 0.8191 0.0184 0.5881
C18 C 0.9074(2) 0.4287(5) 0.6303(4)
C19 C 0.9927(2) 0.5630(6) 0.5429(4)
H13 H 0.9986 0.6543 0.5974
H14 H 0.9990 0.6013 0.4673
H15 H 1.0271 0.4789 0.5720
C20 C 0.6041(2) 0.1104(7) 0.8547(4)
H16 H 0.6362 0.0446 0.9110
H17 H 0.5627 0.0463 0.8228
H18 H 0.5910 0.2075 0.8931
C21 C 0.81451(19) 0.2879(5) 0.7201(3)
H19 H 0.8283 0.3620 0.7882
O1 O 0.73331(14) 0.2324(4) 0.8965(3)
O2 O 0.63793(14) 0.1601(4) 0.7600(2)
O3 O 0.94950(14) 0.4254(4) 0.7237(3)
O4 O 0.92255(14) 0.4943(4) 0.5308(2)
loop_
_geom_bond_atom_site_label_1
_geom_bond_atom_site_label_2
_geom_bond_site_symmetry_1
_geom_bond_site_symmetry_2
C1 C2 1_555 1_555
C2 C3 1_555 1_555
C3 H1 1_555 1_555
N1 C3 1_555 1_555
C4 N1 1_555 1_555
H2 C4 1_555 1_555
C5 C4 1_555 1_555
C6 N1 1_555 1_555
C7 C6 1_555 1_555
H3 C7 1_555 1_555
C8 C7 1_555 1_555
H4 C8 1_555 1_555
C9 C8 1_555 1_555
H5 C9 1_555 1_555
C10 C9 1_555 1_555
H6 C10 1_555 1_555
C11 C6 1_555 1_555
H7 C11 1_555 1_555
C12 C13 1_555 1_555
C13 H8 1_555 1_555
C14 C13 1_555 1_555
H9 C14 1_555 1_555
C15 C14 1_555 1_555
H10 C15 1_555 1_555
C16 C15 1_555 1_555
H11 C16 1_555 1_555
C17 C12 1_555 1_555
H12 C17 1_555 1_555
C18 C5 1_555 1_555
C19 H13 1_555 1_555
H14 C19 1_555 1_555
H15 C19 1_555 1_555
C20 H16 1_555 1_555
H17 C20 1_555 1_555
H18 C20 1_555 1_555
C21 C2 1_555 1_555
H19 C21 1_555 1_555
O1 C1 1_555 1_555
O2 C1 1_555 1_555
O3 C18 1_555 1_555
O4 C18 1_555 1_555
C5 C21 1_555 1_555
C10 C11 1_555 1_555
C12 C21 1_555 1_555
C16 C17 1_555 1_555
C19 O4 1_555 1_555
C20 O2 1_555 1_555

#END
