
#######################################################################
#
#                 Cambridge Crystallographic Data Centre
#                                CCDC 
#
#######################################################################
#
# If this CIF has been generated from an entry in the Cambridge 
# Structural Database, then it will include bibliographic, chemical, 
# crystal, experimental, refinement or atomic coordinate data resulting 
# from the CCDC's data processing and validation procedures.
#
#######################################################################

data_IWUPIB
_chemical_formula_moiety         'C23 H19 N1 O3'
_chemical_name_systematic        
'ethyl 1-(4-hydroxyphenyl)-3-phenyl-1H-indole-2-carboxylate'
_symmetry_cell_setting           monoclinic
_symmetry_space_group_name_H-M   'P 21/n'
_symmetry_Int_Tables_number      14
_space_group_name_Hall           '-P 2yn'
loop_
_symmetry_equiv_pos_site_id
_symmetry_equiv_pos_as_xyz
1 x,y,z
2 1/2-x,1/2+y,1/2-z
3 -x,-y,-z
4 1/2+x,1/2-y,1/2+z
_cell_length_a                   21.509(7)
_cell_length_b                   10.135(3)
_cell_length_c                   34.288(10)
_cell_angle_alpha                90
_cell_angle_beta                 100.806(6)
_cell_angle_gamma                90
_cell_volume                     7342.03
_exptl_crystal_colour            'light yellow'
_exptl_crystal_description       rod
_cell_formula_units_Z            16
loop_
_atom_site_label
_atom_site_type_symbol
_atom_site_fract_x
_atom_site_fract_y
_atom_site_fract_z
O1 O 0.81152(8) 1.06992(18) 0.59127(5)
O2 O 0.7965(7) 0.9490(13) 0.6432(4)
O3 O 0.79142(10) 0.9870(2) 0.42314(5)
N1 N 0.90969(9) 0.8927(2) 0.57995(6)
C1 C 0.87979(11) 0.8895(2) 0.61282(7)
C2 C 0.91450(12) 0.8120(3) 0.64241(7)
C3 C 0.96690(12) 0.7601(3) 0.62681(8)
C4 C 0.96235(11) 0.8144(3) 0.58808(7)
C5 C 0.82555(12) 0.9755(3) 0.61313(7)
C6 C 0.7452(5) 1.0359(10) 0.6484(3)
H1 H 0.7115 1.0329 0.6252
H2 H 0.7601 1.1261 0.6523
C7 C 0.7221(6) 0.9878(13) 0.6839(3)
H3 H 0.7148 0.8944 0.6817
H4 H 0.6832 1.0318 0.6858
H5 H 0.7532 1.0061 0.7073
C8 C 0.90453(12) 0.7842(2) 0.68331(7)
C9 C 0.95401(13) 0.8055(3) 0.71538(8)
H6 H 0.9925 0.8378 0.7109
C10 C 0.94640(14) 0.7790(3) 0.75377(8)
H7 H 0.9799 0.7935 0.7748
C11 C 0.88975(14) 0.7313(3) 0.76118(8)
H8 H 0.8846 0.7141 0.7870
C12 C 0.84058(14) 0.7094(3) 0.72950(8)
H9 H 0.8021 0.6775 0.7342
C13 C 0.84790(13) 0.7343(3) 0.69119(8)
H10 H 0.8146 0.7175 0.6703
C14 C 1.01652(13) 0.6728(3) 0.64099(9)
H11 H 1.0214 0.6390 0.6666
C15 C 1.05792(14) 0.6373(3) 0.61683(10)
H12 H 1.0900 0.5770 0.6259
C16 C 1.05249(13) 0.6908(3) 0.57866(9)
H13 H 1.0814 0.6657 0.5630
C17 C 1.00544(12) 0.7798(3) 0.56363(8)
H14 H 1.0024 0.8153 0.5383
C18 C 0.87831(11) 0.9196(2) 0.53987(7)
C19 C 0.89972(12) 1.0183(3) 0.51780(7)
H15 H 0.9340 1.0703 0.5291
C20 C 0.86992(12) 1.0392(3) 0.47893(7)
H16 H 0.8842 1.1059 0.4642
C21 C 0.81912(12) 0.9619(2) 0.46182(7)
C22 C 0.79806(11) 0.8616(3) 0.48373(7)
H17 H 0.7643 0.8083 0.4723
C23 C 0.82798(11) 0.8416(3) 0.52298(7)
H18 H 0.8139 0.7752 0.5379
H19 H 0.762(2) 0.918(5) 0.4176(13)
O5 O 0.80459(9) 0.55356(19) 0.59581(5)
O6 O 0.78499(8) 0.40611(18) 0.64134(5)
O7 O 0.79420(10) 0.4929(2) 0.42854(5)
N2 N 0.90904(9) 0.3859(2) 0.58521(6)
C26 C 0.87856(11) 0.3833(3) 0.61773(7)
C27 C 0.91265(12) 0.3050(3) 0.64733(7)
C28 C 0.96550(12) 0.2529(3) 0.63229(7)
C29 C 0.96185(11) 0.3071(3) 0.59375(7)
C30 C 0.81967(12) 0.4561(3) 0.61655(7)
C31 C 0.72538(12) 0.4703(3) 0.64259(7)
H25 H 0.6969 0.4620 0.6172
H26 H 0.7320 0.5633 0.6487
C32 C 0.69804(15) 0.4022(4) 0.67473(10)
H27 H 0.6902 0.3112 0.6678
H28 H 0.6590 0.4442 0.6774
H29 H 0.7275 0.4080 0.6994
C33 C 0.89974(11) 0.2791(3) 0.68724(7)
C34 C 0.88928(12) 0.3802(3) 0.71269(7)
H30 H 0.8911 0.4674 0.7045
C35 C 0.87618(14) 0.3537(3) 0.75002(8)
H31 H 0.8686 0.4228 0.7664
C36 C 0.87428(15) 0.2245(3) 0.76304(9)
H32 H 0.8656 0.2065 0.7881
C37 C 0.88525(17) 0.1235(3) 0.73863(9)
H33 H 0.8836 0.0365 0.7470
C38 C 0.89877(15) 0.1506(3) 0.70152(8)
H34 H 0.9074 0.0810 0.6857
C39 C 1.01651(13) 0.1706(3) 0.64745(8)
H35 H 1.0214 0.1381 0.6732
C40 C 1.05954(13) 0.1379(3) 0.62365(9)
H36 H 1.0927 0.0807 0.6332
C41 C 1.05358(13) 0.1902(3) 0.58535(9)
H37 H 1.0831 0.1664 0.5700
C42 C 1.00589(12) 0.2751(3) 0.56972(8)
H38 H 1.0028 0.3101 0.5444
C43 C 0.87875(11) 0.4153(3) 0.54477(7)
C44 C 0.89824(13) 0.5208(3) 0.52463(7)
H39 H 0.9304 0.5758 0.5372
C45 C 0.86978(12) 0.5443(3) 0.48565(7)
H40 H 0.8833 0.6146 0.4719
C46 C 0.82157(12) 0.4644(2) 0.46704(7)
C47 C 0.80253(12) 0.3563(3) 0.48683(7)
H41 H 0.7708 0.3005 0.4741
C48 C 0.83172(12) 0.3325(3) 0.52610(7)
H42 H 0.8194 0.2605 0.5397
H43 H 0.763(2) 0.436(5) 0.4231(13)
O8 O 0.69317(8) 0.80521(18) 0.40333(5)
O9 O 0.71478(8) 0.65414(19) 0.36004(5)
O10 O 0.70582(9) 0.7350(2) 0.57305(5)
N3 N 0.59058(9) 0.6355(2) 0.41580(6)
C49 C 0.62049(11) 0.6304(3) 0.38307(7)
C50 C 0.58618(12) 0.5540(2) 0.35341(7)
C51 C 0.53288(12) 0.5067(3) 0.36912(7)
C52 C 0.53744(11) 0.5556(3) 0.40751(7)
C53 C 0.67912(12) 0.7072(3) 0.38360(7)
C54 C 0.77450(12) 0.7190(3) 0.35804(8)
H44 H 0.8035 0.7111 0.3833
H45 H 0.7675 0.8119 0.3520
C55 C 0.80119(16) 0.6533(4) 0.32630(11)
H46 H 0.7724 0.6628 0.3014
H47 H 0.8075 0.5613 0.3325
H48 H 0.8410 0.6933 0.3244
C56 C 0.59928(12) 0.5277(3) 0.31314(7)
C57 C 0.61018(12) 0.6314(3) 0.28850(7)
H49 H 0.6083 0.7181 0.2971
C58 C 0.62369(14) 0.6062(3) 0.25140(8)
H50 H 0.6313 0.6758 0.2353
C59 C 0.62587(15) 0.4786(3) 0.23819(8)
H51 H 0.6353 0.4620 0.2133
C60 C 0.61411(16) 0.3755(3) 0.26186(9)
H52 H 0.6154 0.2891 0.2529
C61 C 0.60031(14) 0.4004(3) 0.29919(8)
H53 H 0.5917 0.3304 0.3149
C62 C 0.48326(13) 0.4185(3) 0.35369(9)
H54 H 0.4794 0.3838 0.3283
C63 C 0.44141(14) 0.3865(3) 0.37747(9)
H55 H 0.4087 0.3282 0.3679
C64 C 0.44597(13) 0.4385(3) 0.41587(9)
H56 H 0.4161 0.4152 0.4310
C65 C 0.49437(12) 0.5236(3) 0.43131(8)
H57 H 0.4979 0.5583 0.4567
C66 C 0.62132(11) 0.6636(3) 0.45626(7)
C67 C 0.60247(12) 0.7680(3) 0.47652(8)
H58 H 0.5705 0.8238 0.4640
C68 C 0.63111(13) 0.7907(3) 0.51592(8)
H59 H 0.6183 0.8613 0.5298
C69 C 0.67901(11) 0.7072(3) 0.53425(7)
C70 C 0.69789(12) 0.6029(3) 0.51354(7)
H60 H 0.7303 0.5477 0.5257
C71 C 0.66885(12) 0.5805(3) 0.47490(7)
H61 H 0.6812 0.5090 0.4612
H62 H 0.7376(14) 0.680(3) 0.5805(9)
O11 O 0.68959(8) 1.31605(18) 0.40856(5)
O12 O 0.7039(8) 1.2011(17) 0.3555(4)
O13 O 0.70787(9) 1.24187(19) 0.57418(5)
N4 N 0.58891(9) 1.1426(2) 0.41805(6)
C72 C 0.61931(11) 1.1390(3) 0.38555(7)
C73 C 0.58509(12) 1.0618(2) 0.35554(7)
C74 C 0.53132(12) 1.0159(3) 0.37088(7)
C75 C 0.53564(11) 1.0629(3) 0.40925(7)
C76 C 0.67479(12) 1.2247(3) 0.38566(7)
C77 C 0.7564(7) 1.2858(15) 0.3522(4)
H63 H 0.7891 1.2791 0.3758
H64 H 0.7426 1.3769 0.3490
C78 C 0.7810(8) 1.2398(18) 0.3162(4)
H65 H 0.7491 1.2525 0.2929
H66 H 0.7917 1.1478 0.3190
H67 H 0.8181 1.2897 0.3138
C79 C 0.59557(12) 1.0352(3) 0.31472(7)
C80 C 0.54617(13) 1.0565(3) 0.28258(8)
H68 H 0.5077 1.0889 0.2870
C81 C 0.55385(14) 1.0301(3) 0.24420(8)
H69 H 0.5205 1.0442 0.2231
C82 C 0.61101(15) 0.9826(3) 0.23728(8)
H70 H 0.6164 0.9655 0.2115
C83 C 0.66010(14) 0.9607(3) 0.26877(8)
H71 H 0.6987 0.9291 0.2641
C84 C 0.65214(13) 0.9857(3) 0.30731(8)
H72 H 0.6852 0.9690 0.3284
C85 C 0.48366(14) 0.9234(3) 0.35604(9)
H73 H 0.4808 0.8868 0.3309
C86 C 0.44198(14) 0.8894(3) 0.37974(10)
H74 H 0.4102 0.8289 0.3704
C87 C 0.44549(13) 0.9426(3) 0.41778(9)
H75 H 0.4154 0.9193 0.4328
C88 C 0.49314(12) 1.0292(3) 0.43322(8)
H76 H 0.4966 1.0635 0.4587
C89 C 0.61951(11) 1.1694(3) 0.45865(7)
C90 C 0.59808(13) 1.2679(3) 0.48013(8)
H77 H 0.5637 1.3194 0.4687
C91 C 0.62804(12) 1.2902(3) 0.51909(7)
H78 H 0.6136 1.3564 0.5339
C92 C 0.67949(11) 1.2136(3) 0.53576(7)
C93 C 0.70038(12) 1.1141(3) 0.51412(7)
H79 H 0.7348 1.0625 0.5254
C94 C 0.66991(12) 1.0914(3) 0.47546(7)
H80 H 0.6834 1.0235 0.4608
H81 H 0.7424(16) 1.185(3) 0.5810(9)
O4? O 0.7874(12) 0.923(2) 0.6370(7)
C24? C 0.7303(7) 0.9942(17) 0.6395(4)
H20? H 0.7024 0.9966 0.6138
H21? H 0.7403 1.0841 0.6482
C25? C 0.6986(8) 0.922(2) 0.6696(5)
H22? H 0.6855 0.8357 0.6595
H23? H 0.6622 0.9708 0.6738
H24? H 0.7280 0.9133 0.6942
O14? O 0.7105(11) 1.180(2) 0.3617(6)
C95? C 0.7693(9) 1.2535(18) 0.3596(6)
H82? H 0.7596 1.3445 0.3521
H83? H 0.7976 1.2523 0.3852
C96? C 0.7988(8) 1.188(2) 0.3297(7)
H84? H 0.7699 1.1874 0.3047
H85? H 0.8092 1.0985 0.3378
H86? H 0.8366 1.2340 0.3269
loop_
_geom_bond_atom_site_label_1
_geom_bond_atom_site_label_2
_geom_bond_site_symmetry_1
_geom_bond_site_symmetry_2
O1 C5 1_555 1_555
O2 C5 1_555 1_555
O3 C21 1_555 1_555
N1 C1 1_555 1_555
C1 C2 1_555 1_555
C2 C3 1_555 1_555
C3 C4 1_555 1_555
C4 N1 1_555 1_555
C5 C1 1_555 1_555
C6 O2 1_555 1_555
H1 C6 1_555 1_555
H2 C6 1_555 1_555
C7 C6 1_555 1_555
H3 C7 1_555 1_555
H4 C7 1_555 1_555
H5 C7 1_555 1_555
C8 C2 1_555 1_555
C9 C8 1_555 1_555
H6 C9 1_555 1_555
C10 C9 1_555 1_555
H7 C10 1_555 1_555
C11 C10 1_555 1_555
H8 C11 1_555 1_555
C12 C11 1_555 1_555
H9 C12 1_555 1_555
C13 C8 1_555 1_555
H10 C13 1_555 1_555
C14 C3 1_555 1_555
H11 C14 1_555 1_555
C15 C14 1_555 1_555
H12 C15 1_555 1_555
C16 C15 1_555 1_555
H13 C16 1_555 1_555
C17 C4 1_555 1_555
H14 C17 1_555 1_555
C18 N1 1_555 1_555
C19 C18 1_555 1_555
H15 C19 1_555 1_555
C20 C19 1_555 1_555
H16 C20 1_555 1_555
C21 C20 1_555 1_555
C22 C21 1_555 1_555
H17 C22 1_555 1_555
C23 C18 1_555 1_555
H18 C23 1_555 1_555
H19 O3 1_555 1_555
O5 C30 1_555 1_555
O6 C30 1_555 1_555
O7 C46 1_555 1_555
N2 C26 1_555 1_555
C26 C27 1_555 1_555
C27 C28 1_555 1_555
C28 C29 1_555 1_555
C29 N2 1_555 1_555
C30 C26 1_555 1_555
C31 O6 1_555 1_555
H25 C31 1_555 1_555
H26 C31 1_555 1_555
C32 C31 1_555 1_555
H27 C32 1_555 1_555
H28 C32 1_555 1_555
H29 C32 1_555 1_555
C33 C27 1_555 1_555
C34 C33 1_555 1_555
H30 C34 1_555 1_555
C35 C34 1_555 1_555
H31 C35 1_555 1_555
C36 C35 1_555 1_555
H32 C36 1_555 1_555
C37 C36 1_555 1_555
H33 C37 1_555 1_555
C38 C33 1_555 1_555
H34 C38 1_555 1_555
C39 C28 1_555 1_555
H35 C39 1_555 1_555
C40 C39 1_555 1_555
H36 C40 1_555 1_555
C41 C40 1_555 1_555
H37 C41 1_555 1_555
C42 C29 1_555 1_555
H38 C42 1_555 1_555
C43 N2 1_555 1_555
C44 C43 1_555 1_555
H39 C44 1_555 1_555
C45 C44 1_555 1_555
H40 C45 1_555 1_555
C46 C45 1_555 1_555
C47 C46 1_555 1_555
H41 C47 1_555 1_555
C48 C43 1_555 1_555
H42 C48 1_555 1_555
H43 O7 1_555 1_555
O8 C53 1_555 1_555
O9 C53 1_555 1_555
O10 C69 1_555 1_555
N3 C49 1_555 1_555
C49 C50 1_555 1_555
C50 C51 1_555 1_555
C51 C52 1_555 1_555
C52 N3 1_555 1_555
C53 C49 1_555 1_555
C54 O9 1_555 1_555
H44 C54 1_555 1_555
H45 C54 1_555 1_555
C55 C54 1_555 1_555
H46 C55 1_555 1_555
H47 C55 1_555 1_555
H48 C55 1_555 1_555
C56 C50 1_555 1_555
C57 C56 1_555 1_555
H49 C57 1_555 1_555
C58 C57 1_555 1_555
H50 C58 1_555 1_555
C59 C58 1_555 1_555
H51 C59 1_555 1_555
C60 C59 1_555 1_555
H52 C60 1_555 1_555
C61 C56 1_555 1_555
H53 C61 1_555 1_555
C62 C51 1_555 1_555
H54 C62 1_555 1_555
C63 C62 1_555 1_555
H55 C63 1_555 1_555
C64 C63 1_555 1_555
H56 C64 1_555 1_555
C65 C52 1_555 1_555
H57 C65 1_555 1_555
C66 N3 1_555 1_555
C67 C66 1_555 1_555
H58 C67 1_555 1_555
C68 C67 1_555 1_555
H59 C68 1_555 1_555
C69 C68 1_555 1_555
C70 C69 1_555 1_555
H60 C70 1_555 1_555
C71 C66 1_555 1_555
H61 C71 1_555 1_555
H62 O10 1_555 1_555
O11 C76 1_555 1_555
O12 C76 1_555 1_555
O13 C92 1_555 1_555
N4 C72 1_555 1_555
C72 C73 1_555 1_555
C73 C74 1_555 1_555
C74 C75 1_555 1_555
C75 N4 1_555 1_555
C76 C72 1_555 1_555
C77 O12 1_555 1_555
H63 C77 1_555 1_555
H64 C77 1_555 1_555
C78 C77 1_555 1_555
H65 C78 1_555 1_555
H66 C78 1_555 1_555
H67 C78 1_555 1_555
C79 C73 1_555 1_555
C80 C79 1_555 1_555
H68 C80 1_555 1_555
C81 C80 1_555 1_555
H69 C81 1_555 1_555
C82 C81 1_555 1_555
H70 C82 1_555 1_555
C83 C82 1_555 1_555
H71 C83 1_555 1_555
C84 C79 1_555 1_555
H72 C84 1_555 1_555
C85 C74 1_555 1_555
H73 C85 1_555 1_555
C86 C85 1_555 1_555
H74 C86 1_555 1_555
C87 C86 1_555 1_555
H75 C87 1_555 1_555
C88 C75 1_555 1_555
H76 C88 1_555 1_555
C89 N4 1_555 1_555
C90 C89 1_555 1_555
H77 C90 1_555 1_555
C91 C90 1_555 1_555
H78 C91 1_555 1_555
C92 C91 1_555 1_555
C93 C92 1_555 1_555
H79 C93 1_555 1_555
C94 C89 1_555 1_555
H80 C94 1_555 1_555
H81 O13 1_555 1_555
C12 C13 1_555 1_555
C16 C17 1_555 1_555
C22 C23 1_555 1_555
C37 C38 1_555 1_555
C41 C42 1_555 1_555
C47 C48 1_555 1_555
C60 C61 1_555 1_555
C64 C65 1_555 1_555
C70 C71 1_555 1_555
C83 C84 1_555 1_555
C87 C88 1_555 1_555
C93 C94 1_555 1_555

#END
