
#######################################################################
#
#                 Cambridge Crystallographic Data Centre
#                                CCDC 
#
#######################################################################
#
# If this CIF has been generated from an entry in the Cambridge 
# Structural Database, then it will include bibliographic, chemical, 
# crystal, experimental, refinement or atomic coordinate data resulting 
# from the CCDC's data processing and validation procedures.
#
#######################################################################

data_IWUVIH
_chemical_formula_moiety         'C18 H13 N1 O2,C1 H4 O1'
_chemical_name_systematic        
'7-methyl-9-phenylfuro[3,4-b]quinolin-3(1H)-one methanol solvate'
_symmetry_cell_setting           monoclinic
_symmetry_space_group_name_H-M   'P 21/c'
_symmetry_Int_Tables_number      14
_space_group_name_Hall           '-P 2ybc'
loop_
_symmetry_equiv_pos_site_id
_symmetry_equiv_pos_as_xyz
1 x,y,z
2 -x,1/2+y,1/2-z
3 -x,-y,-z
4 x,1/2-y,1/2+z
_cell_length_a                   20.851(4)
_cell_length_b                   7.341(2)
_cell_length_c                   20.980(4)
_cell_angle_alpha                90
_cell_angle_beta                 108.138(12)
_cell_angle_gamma                90
_cell_volume                     3051.78
_exptl_crystal_colour            colorless
_exptl_crystal_description       block
_cell_formula_units_Z            8
loop_
_atom_site_label
_atom_site_type_symbol
_atom_site_fract_x
_atom_site_fract_y
_atom_site_fract_z
C1 C 0.15777(7) 0.5674(2) 0.61075(7)
C2 C 0.17619(7) 0.6191(2) 0.50844(7)
H1 H 0.1770 0.5239 0.4766
H2 H 0.2020 0.7224 0.5011
C3 C 0.10546(7) 0.67366(18) 0.50159(7)
C4 C 0.09551(7) 0.64465(18) 0.56387(7)
C5 C -0.01183(7) 0.73940(18) 0.52741(7)
C6 C -0.07292(7) 0.7761(2) 0.54055(7)
H3 H -0.0764 0.7538 0.5830
C7 C -0.12677(7) 0.8438(2) 0.49152(7)
H4 H -0.1669 0.8648 0.5009
C8 C -0.12335(7) 0.8835(2) 0.42597(7)
C9 C -0.06482(7) 0.84796(19) 0.41217(7)
H5 H -0.0622 0.8739 0.3696
C10 C -0.00789(7) 0.77262(18) 0.46089(7)
C11 C 0.05333(7) 0.73158(18) 0.44709(7)
C12 C -0.18368(7) 0.9607(2) 0.37332(8)
H6 H -0.1695 1.0162 0.3385
H7 H -0.2049 1.0505 0.3932
H8 H -0.2152 0.8647 0.3546
C13 C 0.06027(7) 0.74171(19) 0.37840(6)
C14 C 0.01504(7) 0.6502(2) 0.32451(7)
H9 H -0.0211 0.5873 0.3310
C15 C 0.02357(8) 0.6520(2) 0.26117(7)
H10 H -0.0067 0.5899 0.2258
C16 C 0.07683(8) 0.7457(2) 0.25070(7)
H11 H 0.0823 0.7481 0.2084
C17 C 0.12204(7) 0.8361(2) 0.30385(7)
H12 H 0.1580 0.8991 0.2970
C18 C 0.11436(7) 0.8338(2) 0.36743(7)
H13 H 0.1454 0.8941 0.4027
N1 N 0.03989(6) 0.67192(16) 0.57910(5)
O1 O 0.20333(5) 0.55246(15) 0.57757(5)
O2 O 0.17011(5) 0.52212(16) 0.66920(5)
C19 C 0.67626(7) 0.4202(2) 0.00442(8)
C20 C 0.68920(7) 0.3662(2) 0.11792(7)
H14 H 0.6899 0.4616 0.1501
H15 H 0.7124 0.2599 0.1417
C21 C 0.61845(7) 0.32051(19) 0.07720(7)
C22 C 0.61122(7) 0.35268(19) 0.00951(7)
C23 C 0.50232(7) 0.27202(19) -0.02601(7)
C24 C 0.50327(7) 0.23525(18) 0.04177(7)
C25 C 0.56374(7) 0.26729(19) 0.09606(7)
C26 C 0.56749(7) 0.25425(19) 0.16815(7)
C27 C 0.61988(7) 0.1605(2) 0.21443(7)
H16 H 0.6519 0.0998 0.1999
C28 C 0.62471(8) 0.1566(2) 0.28206(8)
H17 H 0.6598 0.0929 0.3122
C29 C 0.57793(9) 0.2465(2) 0.30487(7)
H18 H 0.5811 0.2433 0.3501
C30 C 0.52608(8) 0.3416(2) 0.25937(8)
H19 H 0.4945 0.4033 0.2744
C31 C 0.52071(7) 0.3460(2) 0.19165(7)
H20 H 0.4857 0.4106 0.1618
C32 C 0.44380(7) 0.16613(19) 0.05156(7)
H21 H 0.4439 0.1373 0.0947
C33 C 0.38616(7) 0.1406(2) -0.00091(8)
C34 C 0.38585(7) 0.1822(2) -0.06742(8)
H22 H 0.3464 0.1661 -0.1030
C35 C 0.44197(7) 0.2446(2) -0.07965(7)
H23 H 0.4409 0.2697 -0.1234
C36 C 0.32301(8) 0.0716(2) 0.01054(9)
H24 H 0.3345 0.0025 0.0514
H25 H 0.2989 -0.0046 -0.0263
H26 H 0.2951 0.1729 0.0139
N2 N 0.55649(6) 0.33437(16) -0.04232(6)
O3 O 0.71996(5) 0.42836(16) 0.06791(5)
O4 O 0.69283(5) 0.46017(17) -0.04402(6)
C37 C 0.33528(9) 0.1588(3) 0.22194(11)
H27 H 0.3711 0.2370 0.2472
H28 H 0.3194 0.1995 0.1762
H29 H 0.3518 0.0363 0.2234
O5 O 0.28209(6) 0.16407(18) 0.24964(6)
H30 H 0.2496 0.1086 0.2252
C38 C 0.18090(10) 0.3553(3) 0.32784(11)
H31 H 0.1981 0.2597 0.3598
H32 H 0.1506 0.3047 0.2875
H33 H 0.1572 0.4425 0.3463
O6 O 0.23471(6) 0.44168(18) 0.31314(7)
H34 H 0.2531 0.3692 0.2946
loop_
_geom_bond_atom_site_label_1
_geom_bond_atom_site_label_2
_geom_bond_site_symmetry_1
_geom_bond_site_symmetry_2
C1 C4 1_555 1_555
C2 H1 1_555 1_555
H2 C2 1_555 1_555
C3 C2 1_555 1_555
C4 C3 1_555 1_555
C5 C6 1_555 1_555
C6 H3 1_555 1_555
C7 C6 1_555 1_555
H4 C7 1_555 1_555
C8 C7 1_555 1_555
C9 C8 1_555 1_555
H5 C9 1_555 1_555
C10 C5 1_555 1_555
C11 C3 1_555 1_555
C12 C8 1_555 1_555
H6 C12 1_555 1_555
H7 C12 1_555 1_555
H8 C12 1_555 1_555
C13 C11 1_555 1_555
C14 C13 1_555 1_555
H9 C14 1_555 1_555
C15 C14 1_555 1_555
H10 C15 1_555 1_555
C16 C15 1_555 1_555
H11 C16 1_555 1_555
C17 C16 1_555 1_555
H12 C17 1_555 1_555
C18 C13 1_555 1_555
H13 C18 1_555 1_555
N1 C4 1_555 1_555
O1 C1 1_555 1_555
O2 C1 1_555 1_555
C19 C22 1_555 1_555
C20 H14 1_555 1_555
H15 C20 1_555 1_555
C21 C20 1_555 1_555
C22 C21 1_555 1_555
C23 C24 1_555 1_555
C24 C25 1_555 1_555
C25 C21 1_555 1_555
C26 C25 1_555 1_555
C27 C26 1_555 1_555
H16 C27 1_555 1_555
C28 C27 1_555 1_555
H17 C28 1_555 1_555
C29 C28 1_555 1_555
H18 C29 1_555 1_555
C30 C29 1_555 1_555
H19 C30 1_555 1_555
C31 C26 1_555 1_555
H20 C31 1_555 1_555
C32 C24 1_555 1_555
H21 C32 1_555 1_555
C33 C32 1_555 1_555
C34 C33 1_555 1_555
H22 C34 1_555 1_555
C35 C23 1_555 1_555
H23 C35 1_555 1_555
C36 C33 1_555 1_555
H24 C36 1_555 1_555
H25 C36 1_555 1_555
H26 C36 1_555 1_555
N2 C22 1_555 1_555
O3 C19 1_555 1_555
O4 C19 1_555 1_555
C37 H27 1_555 1_555
H28 C37 1_555 1_555
H29 C37 1_555 1_555
O5 C37 1_555 1_555
H30 O5 1_555 1_555
C38 H31 1_555 1_555
H32 C38 1_555 1_555
H33 C38 1_555 1_555
O6 C38 1_555 1_555
H34 O6 1_555 1_555
C2 O1 1_555 1_555
C5 N1 1_555 1_555
C9 C10 1_555 1_555
C10 C11 1_555 1_555
C17 C18 1_555 1_555
C20 O3 1_555 1_555
C23 N2 1_555 1_555
C30 C31 1_555 1_555
C34 C35 1_555 1_555

#END
