
#######################################################################
#
#                 Cambridge Crystallographic Data Centre
#                                CCDC 
#
#######################################################################
#
# If this CIF has been generated from an entry in the Cambridge 
# Structural Database, then it will include bibliographic, chemical, 
# crystal, experimental, refinement or atomic coordinate data resulting 
# from the CCDC's data processing and validation procedures.
#
#######################################################################

data_IWUWUT
_chemical_formula_moiety         'C12 H9 Cl3 N2 O4'
_chemical_name_systematic        
1-(2,2-Dichloro-1-(4-chlorophenyl)-2-nitroethyl)pyrrolidine-2,5-dione
_symmetry_cell_setting           monoclinic
_symmetry_space_group_name_H-M   'P 21/c'
_symmetry_Int_Tables_number      14
_space_group_name_Hall           '-P 2ybc'
loop_
_symmetry_equiv_pos_site_id
_symmetry_equiv_pos_as_xyz
1 x,y,z
2 -x,1/2+y,1/2-z
3 -x,-y,-z
4 x,1/2-y,1/2+z
_cell_length_a                   9.6896(13)
_cell_length_b                   19.218(3)
_cell_length_c                   7.5606(10)
_cell_angle_alpha                90
_cell_angle_beta                 97.729(2)
_cell_angle_gamma                90
_cell_volume                     1395.1
_exptl_crystal_colour            colorless
_exptl_crystal_description       block
_chemical_melting_point          '416 K'
_cell_formula_units_Z            4
loop_
_atom_site_label
_atom_site_type_symbol
_atom_site_fract_x
_atom_site_fract_y
_atom_site_fract_z
C1 C 0.8898(3) 0.86074(14) 0.7953(4)
C2 C 0.9133(3) 0.79681(15) 0.8823(4)
H1 H 0.8536 0.7597 0.8497
C3 C 1.0233(3) 0.78808(16) 1.0154(5)
H2 H 1.0395 0.7451 1.0710
C4 C 1.1093(3) 0.84391(15) 1.0653(4)
C5 C 1.0893(3) 0.90728(15) 0.9796(5)
H3 H 1.1495 0.9442 1.0118
C6 C 0.9791(3) 0.91520(15) 0.8458(5)
H4 H 0.9647 0.9579 0.7886
C7 C 0.7647(3) 0.86316(14) 0.6511(4)
H5 H 0.7614 0.8171 0.5950
C8 C 0.7730(3) 0.91593(15) 0.4949(4)
C9 C 0.6033(3) 0.91403(15) 0.8593(4)
C10 C 0.4539(3) 0.9014(2) 0.8877(5)
H6 H 0.4490 0.8873 1.0099
H7 H 0.3989 0.9433 0.8629
C11 C 0.4011(3) 0.84464(17) 0.7611(5)
H8 H 0.3203 0.8603 0.6813
H9 H 0.3750 0.8043 0.8260
C12 C 0.5183(3) 0.82689(15) 0.6573(4)
Cl1 Cl 1.24533(9) 0.83371(5) 1.23794(13)
Cl2 Cl 0.74719(9) 1.00235(4) 0.55181(12)
Cl3 Cl 0.92897(9) 0.90490(5) 0.40613(14)
N1 N 0.6530(3) 0.89527(15) 0.3428(4)
N2 N 0.6311(2) 0.87056(12) 0.7185(3)
O1 O 0.6748(3) 0.84434(13) 0.2566(4)
O2 O 0.5497(3) 0.93022(15) 0.3274(4)
O3 O 0.5225(3) 0.78433(12) 0.5410(3)
O4 O 0.6858(2) 0.95297(12) 0.9395(3)
loop_
_geom_bond_atom_site_label_1
_geom_bond_atom_site_label_2
_geom_bond_site_symmetry_1
_geom_bond_site_symmetry_2
C1 C2 1_555 1_555
C2 H1 1_555 1_555
C3 C2 1_555 1_555
H2 C3 1_555 1_555
C4 C3 1_555 1_555
C5 C4 1_555 1_555
H3 C5 1_555 1_555
C6 C1 1_555 1_555
H4 C6 1_555 1_555
C7 C1 1_555 1_555
H5 C7 1_555 1_555
C8 C7 1_555 1_555
C9 C10 1_555 1_555
C10 H6 1_555 1_555
H7 C10 1_555 1_555
C11 C10 1_555 1_555
H8 C11 1_555 1_555
H9 C11 1_555 1_555
C12 C11 1_555 1_555
Cl1 C4 1_555 1_555
Cl2 C8 1_555 1_555
Cl3 C8 1_555 1_555
N1 C8 1_555 1_555
N2 C7 1_555 1_555
O1 N1 1_555 1_555
O2 N1 1_555 1_555
O3 C12 1_555 1_555
O4 C9 1_555 1_555
C5 C6 1_555 1_555
C9 N2 1_555 1_555
C12 N2 1_555 1_555

#END
