
#######################################################################
#
#                 Cambridge Crystallographic Data Centre
#                                CCDC 
#
#######################################################################
#
# If this CIF has been generated from an entry in the Cambridge 
# Structural Database, then it will include bibliographic, chemical, 
# crystal, experimental, refinement or atomic coordinate data resulting 
# from the CCDC's data processing and validation procedures.
#
#######################################################################

data_IWUXEE
_chemical_formula_moiety         'C22 H20 N4 O3 S1,0.5(C3 H7 N1 O1)'
_chemical_name_systematic        
'5-Amino-4-cyano-3-(4-methoxyphenyl)-N-((2-phenylethyl)carbamoyl)thiophene-2-carboxamide N,N-dimethylformamide solvate'
_symmetry_cell_setting           triclinic
_symmetry_space_group_name_H-M   'P -1'
_symmetry_Int_Tables_number      2
_space_group_name_Hall           '-P 1'
loop_
_symmetry_equiv_pos_site_id
_symmetry_equiv_pos_as_xyz
1 x,y,z
2 -x,-y,-z
_cell_length_a                   9.688(7)
_cell_length_b                   10.255(7)
_cell_length_c                   13.572(10)
_cell_angle_alpha                91.312(8)
_cell_angle_beta                 109.401(7)
_cell_angle_gamma                112.345(7)
_cell_volume                     1158.99
_exptl_crystal_colour            red
_exptl_crystal_description       block
_cell_formula_units_Z            2
loop_
_atom_site_label
_atom_site_type_symbol
_atom_site_fract_x
_atom_site_fract_y
_atom_site_fract_z
C1 C 1.4699(2) 1.0530(2) 0.86827(15)
H1 H 1.4061 1.0351 0.9089
C2 C 1.6306(3) 1.1465(2) 0.91316(17)
H2 H 1.6743 1.1904 0.9837
C3 C 1.7244(3) 1.1741(2) 0.8538(2)
H3 H 1.8320 1.2373 0.8840
C4 C 1.6607(3) 1.1085(3) 0.7492(2)
H4 H 1.7253 1.1275 0.7090
C5 C 1.4997(3) 1.0141(2) 0.70390(17)
H5 H 1.4570 0.9700 0.6335
C6 C 1.4030(2) 0.98548(18) 0.76301(14)
C7 C 1.2271(2) 0.8879(2) 0.71420(17)
H6 H 1.1849 0.8615 0.7698
H7 H 1.2134 0.8011 0.6745
C8 C 1.1338(2) 0.9611(2) 0.64054(17)
H8 H 1.1552 1.0516 0.6794
H9 H 1.1720 0.9816 0.5826
C9 C 0.8962(2) 0.7662(2) 0.51792(14)
C10 C 0.6165(2) 0.72965(18) 0.49741(13)
C11 C 0.44896(19) 0.64650(18) 0.42893(13)
C12 C 0.1506(2) 0.55450(19) 0.36086(14)
C13 C 0.20840(19) 0.49903(17) 0.29660(13)
C14 C 0.1044(2) 0.4035(2) 0.19874(14)
C15 C 0.37893(19) 0.55351(17) 0.33435(12)
C16 C 0.46407(18) 0.51935(16) 0.27115(12)
C17 C 0.6322(2) 0.59989(19) 0.16758(15)
H10 H 0.6881 0.6721 0.1375
C18 C 0.5488(2) 0.62602(18) 0.22548(14)
H11 H 0.5494 0.7165 0.2340
C19 C 0.6315(2) 0.46488(18) 0.15493(13)
C20 C 0.5456(2) 0.35728(18) 0.19841(15)
H12 H 0.5440 0.2665 0.1890
C21 C 0.4622(2) 0.38395(17) 0.25584(13)
H13 H 0.4043 0.3108 0.2844
C22 C 0.7918(3) 0.5294(3) 0.04763(19)
H14 H 0.7139 0.5546 -0.0030
H15 H 0.8392 0.4880 0.0113
H16 H 0.8739 0.6136 0.0967
N1 N 0.96135(18) 0.87560(17) 0.59693(13)
H17 H 0.9007 0.8962 0.6227
N2 N 0.72885(17) 0.69490(16) 0.47639(12)
H18 H 0.6906 0.6181 0.4311
N3 N -0.00280(19) 0.5276(2) 0.34393(15)
H19 H -0.0783 0.4703 0.2881
H20 H -0.0257 0.5677 0.3889
N4 N 0.0193(2) 0.3283(2) 0.12086(15)
O1 O 0.97259(17) 0.7265(2) 0.47806(13)
O2 O 0.65316(16) 0.82348(15) 0.57091(11)
O3 O 0.71510(18) 0.42800(15) 0.10394(12)
S1 S 0.30648(5) 0.67068(5) 0.47084(3)
N5? N 1.0004(6) 1.0069(5) 0.9656(3)
O4? O 1.0404(8) 1.0589(6) 0.8112(4)
C23? C 0.9680(8) 0.9997(6) 0.8589(4)
C24? C 1.1397(6) 1.0895(5) 1.0107(5)
loop_
_geom_bond_atom_site_label_1
_geom_bond_atom_site_label_2
_geom_bond_site_symmetry_1
_geom_bond_site_symmetry_2
C1 H1 1_555 1_555
C2 C1 1_555 1_555
H2 C2 1_555 1_555
C3 C2 1_555 1_555
H3 C3 1_555 1_555
C4 C3 1_555 1_555
H4 C4 1_555 1_555
C5 C4 1_555 1_555
H5 C5 1_555 1_555
C6 C1 1_555 1_555
C7 C6 1_555 1_555
H6 C7 1_555 1_555
H7 C7 1_555 1_555
C8 C7 1_555 1_555
H8 C8 1_555 1_555
H9 C8 1_555 1_555
C9 N1 1_555 1_555
C10 C11 1_555 1_555
C11 C15 1_555 1_555
C12 C13 1_555 1_555
C13 C14 1_555 1_555
C14 N4 1_555 1_555
C15 C13 1_555 1_555
C16 C15 1_555 1_555
C17 H10 1_555 1_555
C18 C16 1_555 1_555
H11 C18 1_555 1_555
C19 C17 1_555 1_555
C20 C19 1_555 1_555
H12 C20 1_555 1_555
C21 C16 1_555 1_555
H13 C21 1_555 1_555
C22 H14 1_555 1_555
H15 C22 1_555 1_555
H16 C22 1_555 1_555
N1 C8 1_555 1_555
H17 N1 1_555 1_555
N2 C9 1_555 1_555
H18 N2 1_555 1_555
N3 C12 1_555 1_555
H19 N3 1_555 1_555
H20 N3 1_555 1_555
O1 C9 1_555 1_555
O2 C10 1_555 1_555
O3 C19 1_555 1_555
S1 C11 1_555 1_555
C5 C6 1_555 1_555
C10 N2 1_555 1_555
C12 S1 1_555 1_555
C17 C18 1_555 1_555
C20 C21 1_555 1_555
C22 O3 1_555 1_555

#END
