
#######################################################################
#
#                 Cambridge Crystallographic Data Centre
#                                CCDC 
#
#######################################################################
#
# If this CIF has been generated from an entry in the Cambridge 
# Structural Database, then it will include bibliographic, chemical, 
# crystal, experimental, refinement or atomic coordinate data resulting 
# from the CCDC's data processing and validation procedures.
#
#######################################################################

data_IWUXII
_chemical_formula_moiety         'C16 H17 N1 O3 S1'
_chemical_name_systematic        
2-(1-((4-Methylphenyl)sulfonyl)-1,6-dihydropyridin-3(2H)-ylidene)cyclobutanone
_symmetry_cell_setting           monoclinic
_symmetry_space_group_name_H-M   'P 21/c'
_symmetry_Int_Tables_number      14
_space_group_name_Hall           '-P 2ybc'
loop_
_symmetry_equiv_pos_site_id
_symmetry_equiv_pos_as_xyz
1 x,y,z
2 -x,1/2+y,1/2-z
3 -x,-y,-z
4 x,1/2-y,1/2+z
_cell_length_a                   10.919(2)
_cell_length_b                   17.508(4)
_cell_length_c                   7.9219(16)
_cell_angle_alpha                90
_cell_angle_beta                 97.43(3)
_cell_angle_gamma                90
_cell_volume                     1501.71
_cell_formula_units_Z            4
loop_
_atom_site_label
_atom_site_type_symbol
_atom_site_fract_x
_atom_site_fract_y
_atom_site_fract_z
S1 S 0.83588(3) 0.11291(2) 0.48005(5)
O1 O 0.73435(10) 0.15147(7) 0.54052(16)
O2 O 0.89742(10) 0.05202(7) 0.57829(15)
O3 O 1.39560(12) 0.32047(8) 0.6094(2)
N1 N 0.94061(11) 0.17842(8) 0.46295(18)
C1 C 0.78496(14) 0.07783(9) 0.2746(2)
C2 C 0.66821(15) 0.09864(10) 0.1943(2)
H1 H 0.6178 0.1311 0.2476
C3 C 0.62930(16) 0.06995(11) 0.0341(2)
H2 H 0.5506 0.0822 -0.0182
C4 C 0.70343(15) 0.02342(10) -0.0516(2)
C5 C 0.82094(15) 0.00463(10) 0.0304(2)
H3 H 0.8728 -0.0258 -0.0254
C6 C 0.86120(15) 0.03059(10) 0.1928(2)
H4 H 0.9386 0.0166 0.2470
C7 C 0.65894(18) -0.00708(11) -0.2260(2)
H5 H 0.5997 -0.0470 -0.2174
H6 H 0.7277 -0.0271 -0.2761
H7 H 0.6209 0.0334 -0.2960
C8 C 1.06527(14) 0.15292(10) 0.4344(2)
H8 H 1.0665 0.1413 0.3150
H9 H 1.0878 0.1071 0.5002
C9 C 1.15553(14) 0.21614(10) 0.4888(2)
C10 C 1.11247(16) 0.29319(10) 0.4490(2)
H10 H 1.1683 0.3334 0.4654
C11 C 0.99506(16) 0.30793(10) 0.3897(2)
H11 H 0.9729 0.3580 0.3608
C12 C 0.89765(15) 0.24783(10) 0.3677(2)
H12 H 0.8233 0.2667 0.4085
H13 H 0.8778 0.2356 0.2478
C13 C 1.27138(15) 0.20149(10) 0.5630(2)
C14 C 1.34617(16) 0.13161(11) 0.6264(3)
H14 H 1.3598 0.0958 0.5372
H15 H 1.3153 0.1057 0.7207
C15 C 1.45777(16) 0.18540(12) 0.6811(3)
H16 H 1.4838 0.1863 0.8029
H17 H 1.5275 0.1770 0.6190
C16 C 1.37769(16) 0.25245(11) 0.6169(2)
loop_
_geom_bond_atom_site_label_1
_geom_bond_atom_site_label_2
_geom_bond_site_symmetry_1
_geom_bond_site_symmetry_2
S1 O1 1_555 1_555
O2 S1 1_555 1_555
O3 C16 1_555 1_555
N1 S1 1_555 1_555
C1 S1 1_555 1_555
C2 C1 1_555 1_555
H1 C2 1_555 1_555
C3 C2 1_555 1_555
H2 C3 1_555 1_555
C4 C3 1_555 1_555
C5 C4 1_555 1_555
H3 C5 1_555 1_555
C6 C1 1_555 1_555
H4 C6 1_555 1_555
C7 C4 1_555 1_555
H5 C7 1_555 1_555
H6 C7 1_555 1_555
H7 C7 1_555 1_555
C8 N1 1_555 1_555
H8 C8 1_555 1_555
H9 C8 1_555 1_555
C9 C8 1_555 1_555
C10 C9 1_555 1_555
H10 C10 1_555 1_555
C11 C10 1_555 1_555
H11 C11 1_555 1_555
C12 N1 1_555 1_555
H12 C12 1_555 1_555
H13 C12 1_555 1_555
C13 C9 1_555 1_555
C14 C13 1_555 1_555
H14 C14 1_555 1_555
H15 C14 1_555 1_555
C15 C14 1_555 1_555
H16 C15 1_555 1_555
H17 C15 1_555 1_555
C16 C13 1_555 1_555
C5 C6 1_555 1_555
C11 C12 1_555 1_555
C15 C16 1_555 1_555

#END
