
#######################################################################
#
#                 Cambridge Crystallographic Data Centre
#                                CCDC 
#
#######################################################################
#
# If this CIF has been generated from an entry in the Cambridge 
# Structural Database, then it will include bibliographic, chemical, 
# crystal, experimental, refinement or atomic coordinate data resulting 
# from the CCDC's data processing and validation procedures.
#
#######################################################################

data_IXACOB
_chemical_formula_moiety         'C16 H19 N1 O1'
_chemical_name_systematic        
5-t-butyl-6-methyl-2,3-dihydropyrano[2,3,4-ij]isoquinoline
_symmetry_cell_setting           monoclinic
_symmetry_space_group_name_H-M   'P 21/m'
_symmetry_Int_Tables_number      11
_space_group_name_Hall           '-P 2yb'
loop_
_symmetry_equiv_pos_site_id
_symmetry_equiv_pos_as_xyz
1 x,y,z
2 -x,1/2+y,-z
3 -x,-y,-z
4 x,1/2-y,z
_cell_length_a                   8.686(2)
_cell_length_b                   7.044(2)
_cell_length_c                   10.612(6)
_cell_angle_alpha                90
_cell_angle_beta                 91.27(3)
_cell_angle_gamma                90
_cell_volume                     649.127
_exptl_crystal_colour            colorless
_exptl_crystal_description       block
_cell_formula_units_Z            2
loop_
_atom_site_label
_atom_site_type_symbol
_atom_site_fract_x
_atom_site_fract_y
_atom_site_fract_z
O1 O 0.2683(2) 0.2500 0.23555(16)
N1 N 0.3473(2) 0.2500 -0.1468(2)
C1 C 0.4089(4) 0.2955(6) 0.1857(3)
H1 H 0.4871 0.2643 0.2477
C2 C 0.4504(3) 0.2045(6) 0.0660(3)
H2 H 0.5456 0.2500 0.0355
C3 C 0.2270(3) 0.2500 -0.2328(2)
C4 C 0.0762(3) 0.2500 -0.1956(2)
C5 C -0.1037(3) 0.2500 -0.0139(3)
H3 H -0.1897 0.2500 -0.0677
C6 C -0.1222(3) 0.2500 0.1125(3)
H4 H -0.2214 0.2500 0.1437
C7 C 0.0021(3) 0.2500 0.1971(3)
H5 H -0.0135 0.2500 0.2835
C8 C 0.1464(3) 0.2500 0.1514(2)
C9 C 0.1709(3) 0.2500 0.0211(2)
C10 C 0.3187(3) 0.2500 -0.0267(2)
C11 C 0.0448(3) 0.2500 -0.0644(2)
C12 C -0.0624(3) 0.2500 -0.2848(3)
C13 C 0.2799(3) 0.2500 -0.3701(2)
C14 C 0.4563(3) 0.2500 -0.3758(3)
C15 C 0.2251(3) 0.0710(4) -0.43776(19)
H6 H 0.2518 0.0779 -0.5249
H7 H 0.1154 0.0602 -0.4314
H8 H 0.2736 -0.0378 -0.3996
C1C C 0.4089(4) 0.2045(6) 0.1857(3)
H1C H 0.4871 0.2357 0.2477
C2C C 0.4504(3) 0.2955(6) 0.0660(3)
C15C C 0.2251(3) 0.4290(4) -0.43776(19)
H6C H 0.2518 0.4221 -0.5249
H7C H 0.1154 0.4398 -0.4314
H8C H 0.2736 0.5378 -0.3996
H9? H -0.1363 0.1589 -0.2567
H10? H -0.0305 0.2171 -0.3681
H11? H -0.1082 0.3740 -0.2862
H12? H 0.4967 0.3558 -0.3286
H13? H 0.4867 0.2603 -0.4619
H14? H 0.4958 0.1339 -0.3404
H15? H 0.4605 0.0698 0.0772
H16? H 0.4123 0.4304 0.1733
loop_
_geom_bond_atom_site_label_1
_geom_bond_atom_site_label_2
_geom_bond_site_symmetry_1
_geom_bond_site_symmetry_2
O1 C1 1_555 1_555
N1 C3 1_555 1_555
C1 H1 1_555 1_555
H1 C1C 1_555 1_555
C2 C1 1_555 1_555
H2 C2 1_555 1_555
C3 C4 1_555 1_555
C4 C11 1_555 1_555
C5 H3 1_555 1_555
C6 C5 1_555 1_555
H4 C6 1_555 1_555
C7 C6 1_555 1_555
H5 C7 1_555 1_555
C8 O1 1_555 1_555
C9 C8 1_555 1_555
C10 N1 1_555 1_555
C11 C5 1_555 1_555
C12 C4 1_555 1_555
C13 C3 1_555 1_555
C14 C13 1_555 1_555
C15 C13 1_555 1_555
H6 C15 1_555 1_555
H7 C15 1_555 1_555
H8 C15 1_555 1_555
C1C O1 1_555 1_555
H1C C1 1_555 1_555
C2C C1 1_555 1_555
C15C C13 1_555 1_555
H6C C15C 1_555 1_555
H7C C15C 1_555 1_555
H8C C15C 1_555 1_555
C1 C1C 1_555 1_555
C2 C10 1_555 1_555
C2 C1C 1_555 1_555
C2 C2C 1_555 1_555
H2 C2C 1_555 1_555
C7 C8 1_555 1_555
C9 C10 1_555 1_555
C9 C11 1_555 1_555
C10 C2C 1_555 1_555
C1C H1C 1_555 1_555
C1C C2C 1_555 1_555

#END
