
#######################################################################
#
#                 Cambridge Crystallographic Data Centre
#                                CCDC 
#
#######################################################################
#
# If this CIF has been generated from an entry in the Cambridge 
# Structural Database, then it will include bibliographic, chemical, 
# crystal, experimental, refinement or atomic coordinate data resulting 
# from the CCDC's data processing and validation procedures.
#
#######################################################################

data_IXAHUM
_chemical_formula_moiety         'C27 H20 Br1 N1 O3'
_chemical_name_systematic        
6-benzoyl-4-(4-bromophenyl)-1'-methyl-2H-spiro[cyclohex-3-ene-1,3'-indole]-2,2'(1'H)-dione
_symmetry_cell_setting           monoclinic
_symmetry_space_group_name_H-M   'P 21'
_symmetry_Int_Tables_number      4
_space_group_name_Hall           'P 2yb'
loop_
_symmetry_equiv_pos_site_id
_symmetry_equiv_pos_as_xyz
1 x,y,z
2 -x,1/2+y,-z
_cell_length_a                   10.3634(3)
_cell_length_b                   7.8244(2)
_cell_length_c                   13.9755(4)
_cell_angle_alpha                90
_cell_angle_beta                 110.8110(10)
_cell_angle_gamma                90
_cell_volume                     1059.3
_exptl_crystal_colour            colorless
_exptl_crystal_description       block
_cell_formula_units_Z            2
loop_
_atom_site_label
_atom_site_type_symbol
_atom_site_fract_x
_atom_site_fract_y
_atom_site_fract_z
Br1 Br 0.295423(17) -0.75151(3) 0.070091(13)
O1 O 0.71300(12) 0.27376(18) 0.32370(10)
O2 O 1.01384(12) 0.2270(2) 0.47371(9)
O3 O 1.09199(13) -0.11846(17) 0.20859(10)
N1 N 1.04520(15) 0.37354(19) 0.34075(12)
C1 C 0.42028(18) -0.5663(3) 0.11888(14)
C2 C 0.38776(19) -0.4354(3) 0.17141(15)
H1 H 0.3051 -0.4379 0.1834
C3 C 0.47685(17) -0.3010(3) 0.20623(14)
H2 H 0.4529 -0.2115 0.2404
C4 C 0.60402(18) -0.2959(2) 0.19109(13)
C5 C 0.70179(18) -0.1528(2) 0.23104(13)
C6 C 0.84957(18) -0.1818(2) 0.24139(14)
H3 H 0.8554 -0.1773 0.1737
H4 H 0.8760 -0.2961 0.2680
C7 C 0.95355(17) -0.0558(2) 0.30997(14)
H5 H 0.9723 -0.0884 0.3813
C8 C 1.09003(18) -0.0637(2) 0.29009(14)
C9 C 1.21837(19) 0.0046(2) 0.36768(16)
C10 C 1.31344(19) 0.0859(2) 0.33388(16)
H6 H 1.2963 0.0942 0.2641
C11 C 1.4334(2) 0.1548(3) 0.40297(17)
H7 H 1.4960 0.2104 0.3797
C12 C 1.4595(2) 0.1403(3) 0.50651(16)
H8 H 1.5390 0.1884 0.5532
C13 C 0.66084(19) -0.0007(2) 0.25542(15)
H9 H 0.5680 0.0127 0.2461
C14 C 0.75199(19) 0.1431(2) 0.29511(14)
C15 C 0.90007(17) 0.1325(2) 0.29540(13)
C16 C 0.90685(16) 0.2222(2) 0.20104(13)
C17 C 0.84251(19) 0.1904(2) 0.09793(14)
H10 H 0.7830 0.0979 0.0755
C18 C 0.8682(2) 0.2994(2) 0.02810(16)
H11 H 0.8261 0.2788 -0.0417
C19 C 0.9552(2) 0.4370(3) 0.06110(16)
H12 H 0.9712 0.5079 0.0130
C20 C 1.01970(19) 0.4726(2) 0.16443(16)
H13 H 1.0775 0.5667 0.1865
C21 C 0.99469(18) 0.3629(2) 0.23328(14)
C22 C 0.99188(16) 0.2466(3) 0.38288(13)
C23 C 1.1504(2) 0.4916(3) 0.40142(18)
H14 H 1.1098 0.6019 0.4013
H15 H 1.2217 0.5008 0.3727
H16 H 1.1895 0.4502 0.4704
C24 C 1.2471(2) -0.0116(2) 0.47253(16)
H17 H 1.1850 -0.0670 0.4963
C25 C 1.36844(19) 0.0550(3) 0.54112(16)
H18 H 1.3886 0.0421 0.6111
C26 C 0.63424(19) -0.4333(2) 0.13941(15)
H19 H 0.7188 -0.4354 0.1302
C27 C 0.54324(19) -0.5664(3) 0.10147(15)
H20 H 0.5643 -0.6545 0.0648
loop_
_geom_bond_atom_site_label_1
_geom_bond_atom_site_label_2
_geom_bond_site_symmetry_1
_geom_bond_site_symmetry_2
Br1 C1 1_555 1_555
O1 C14 1_555 1_555
O2 C22 1_555 1_555
O3 C8 1_555 1_555
N1 C21 1_555 1_555
C1 C2 1_555 1_555
C2 H1 1_555 1_555
C3 C2 1_555 1_555
H2 C3 1_555 1_555
C4 C3 1_555 1_555
C5 C4 1_555 1_555
C6 C5 1_555 1_555
H3 C6 1_555 1_555
H4 C6 1_555 1_555
C7 C6 1_555 1_555
H5 C7 1_555 1_555
C8 C7 1_555 1_555
C9 C8 1_555 1_555
C10 C9 1_555 1_555
H6 C10 1_555 1_555
C11 C10 1_555 1_555
H7 C11 1_555 1_555
C12 C11 1_555 1_555
H8 C12 1_555 1_555
C13 C5 1_555 1_555
H9 C13 1_555 1_555
C14 C13 1_555 1_555
C15 C7 1_555 1_555
C16 C15 1_555 1_555
C17 C16 1_555 1_555
H10 C17 1_555 1_555
C18 C17 1_555 1_555
H11 C18 1_555 1_555
C19 C18 1_555 1_555
H12 C19 1_555 1_555
C20 C19 1_555 1_555
H13 C20 1_555 1_555
C21 C16 1_555 1_555
C22 N1 1_555 1_555
C23 N1 1_555 1_555
H14 C23 1_555 1_555
H15 C23 1_555 1_555
H16 C23 1_555 1_555
C24 C9 1_555 1_555
H17 C24 1_555 1_555
C25 C12 1_555 1_555
H18 C25 1_555 1_555
C26 C4 1_555 1_555
H19 C26 1_555 1_555
C27 C1 1_555 1_555
H20 C27 1_555 1_555
C14 C15 1_555 1_555
C15 C22 1_555 1_555
C20 C21 1_555 1_555
C24 C25 1_555 1_555
C26 C27 1_555 1_555

#END
