
#######################################################################
#
#                 Cambridge Crystallographic Data Centre
#                                CCDC 
#
#######################################################################
#
# If this CIF has been generated from an entry in the Cambridge 
# Structural Database, then it will include bibliographic, chemical, 
# crystal, experimental, refinement or atomic coordinate data resulting 
# from the CCDC's data processing and validation procedures.
#
#######################################################################

data_IXAHAS
_chemical_formula_moiety         
'C51 H28 Cl1 N5 O4,C18 H18 N2 2+,C3 H6 O1,2(F6 P1 1-),C2 H3 N1'
_chemical_name_systematic        
"[2]-(1,1'-bis(but-3-yn-1-yl)-4,4'-bipyridinium)-(23-chloro-2,20,26,44-tetraoxa-22,24,51,53,57-pentaazatetradecacyclo[43.5.3.2^3,6^.2^27,30^.1^15,19^.1^21,25^.1^39,43^.0^5,14^.0^7,16^.0^8,13^.0^29,38^.0^31,40^.0^32,37^.0^48,52^]hexaconta-1(51),3,5,8,10,12,15(58),16,18,21(57),22,24,27,29,32,34,36,39(54),40,42,45,47,49,52,55,59-hexacosaene)-pseudorotaxane bis(hexafluorophosphate) acetonitrile acetone solvate"
_symmetry_cell_setting           triclinic
_symmetry_space_group_name_H-M   'P -1'
_symmetry_Int_Tables_number      2
_space_group_name_Hall           '-P 1'
loop_
_symmetry_equiv_pos_site_id
_symmetry_equiv_pos_as_xyz
1 x,y,z
2 -x,-y,-z
_cell_length_a                   11.6137(12)
_cell_length_b                   12.7006(14)
_cell_length_c                   25.911(3)
_cell_angle_alpha                92.717(9)
_cell_angle_beta                 102.943(9)
_cell_angle_gamma                115.321(6)
_cell_volume                     3322.16
_exptl_crystal_colour            yellow
_exptl_crystal_description       block
_cell_formula_units_Z            2
loop_
_atom_site_label
_atom_site_type_symbol
_atom_site_fract_x
_atom_site_fract_y
_atom_site_fract_z
Cl1 Cl 1.40243(10) 0.86471(9) 0.44315(5)
O1 O 1.1250(3) 0.5306(2) 0.30345(10)
O2 O 0.9758(2) 0.5720(2) 0.45042(9)
O3 O 0.2937(3) 0.4237(2) 0.17150(10)
O4 O 0.4010(3) 0.0056(2) 0.03899(10)
N1 N 1.2473(3) 0.6848(2) 0.36876(12)
N2 N 1.1746(3) 0.7025(3) 0.44613(12)
N3 N 1.0365(3) 0.5411(2) 0.37419(11)
N4 N 0.3437(3) 0.2957(3) 0.12581(11)
N5 N 0.3774(3) 0.1555(3) 0.08098(11)
C1 C 1.2582(4) 0.7364(3) 0.41630(15)
C2 C 1.0641(3) 0.6051(3) 0.42158(14)
C3 C 1.1343(3) 0.5854(3) 0.35079(13)
C4 C 0.8416(3) 0.4928(3) 0.42559(13)
C5 C 0.7600(3) 0.5429(3) 0.40422(13)
H1 H 0.7955 0.6244 0.4012
C6 C 0.6249(3) 0.4702(3) 0.38735(13)
C7 C 0.5734(3) 0.3501(3) 0.39103(13)
C8 C 0.6577(4) 0.3024(3) 0.41177(13)
H2 H 0.6230 0.2206 0.4140
C9 C 0.7946(3) 0.3751(3) 0.42946(13)
H3 H 0.8535 0.3435 0.4438
C10 C 0.5189(3) 0.5091(3) 0.36625(14)
H4 H 0.5559 0.5951 0.3637
C11 C 0.4310(3) 0.4738(3) 0.40474(14)
C12 C 0.4038(4) 0.5485(3) 0.43529(14)
H5 H 0.4416 0.6306 0.4339
C13 C 0.3205(4) 0.5016(4) 0.46792(15)
H6 H 0.3020 0.5521 0.4892
C14 C 0.2646(4) 0.3822(4) 0.46961(15)
H7 H 0.2055 0.3510 0.4912
C15 C 0.2936(4) 0.3069(4) 0.44006(14)
H8 H 0.2563 0.2250 0.4419
C16 C 0.3775(3) 0.3532(3) 0.40804(13)
C17 C 0.4217(3) 0.2861(3) 0.37320(13)
H9 H 0.3848 0.2001 0.3757
C18 C 0.3801(3) 0.3098(3) 0.31641(13)
C19 C 0.2919(3) 0.2268(3) 0.27236(14)
H10 H 0.2514 0.1456 0.2755
C20 C 0.2623(4) 0.2627(3) 0.22310(14)
H11 H 0.2011 0.2064 0.1926
C21 C 0.3231(4) 0.3814(3) 0.21924(14)
C22 C 0.4083(4) 0.4668(3) 0.26355(14)
H12 H 0.4477 0.5481 0.2605
C23 C 0.4341(3) 0.4297(3) 0.31243(14)
C24 C 0.2933(4) 0.3698(3) 0.12425(14)
C25 C 0.2357(4) 0.4016(3) 0.07767(15)
H13 H 0.2036 0.4587 0.0798
C26 C 0.2278(4) 0.3470(3) 0.02927(15)
H14 H 0.1908 0.3666 -0.0032
C27 C 0.2746(4) 0.2614(3) 0.02776(14)
C28 C 0.3325(3) 0.2391(3) 0.07742(14)
C29 C 0.2634(4) 0.1927(3) -0.01938(15)
H15 H 0.2255 0.2051 -0.0536
C30 C 0.3070(4) 0.1088(3) -0.01566(15)
H16 H 0.3002 0.0617 -0.0469
C31 C 0.3625(3) 0.0941(3) 0.03585(15)
C32 C 0.5006(4) 0.0186(3) 0.08480(15)
C33 C 0.4781(4) -0.0676(3) 0.11646(15)
H17 H 0.3925 -0.1320 0.1101
C34 C 0.5831(4) -0.0599(3) 0.15848(15)
H18 H 0.5689 -0.1198 0.1804
C35 C 0.7067(3) 0.0346(3) 0.16797(14)
C36 C 0.7267(3) 0.1229(3) 0.13568(14)
C37 C 0.6246(3) 0.1155(3) 0.09403(14)
H19 H 0.6384 0.1752 0.0720
C38 C 0.8715(3) 0.2127(3) 0.14631(14)
H20 H 0.8853 0.2753 0.1231
C39 C 0.9357(3) 0.1341(3) 0.13564(14)
C40 C 0.9953(4) 0.1355(3) 0.09471(16)
H21 H 1.0027 0.1915 0.0710
C41 C 1.0441(4) 0.0544(4) 0.08861(18)
H22 H 1.0832 0.0536 0.0602
C42 C 1.0357(4) -0.0248(4) 0.12380(18)
H23 H 1.0731 -0.0775 0.1205
C43 C 0.9730(4) -0.0288(3) 0.16433(17)
H24 H 0.9665 -0.0847 0.1881
C44 C 0.9206(3) 0.0491(3) 0.16963(15)
C45 C 0.8362(3) 0.0510(3) 0.20698(14)
H25 H 0.8227 -0.0113 0.2304
C46 C 0.9049(3) 0.1751(3) 0.23872(14)
C47 C 0.9549(4) 0.2058(3) 0.29418(15)
H26 H 0.9415 0.1463 0.3163
C48 C 1.0251(4) 0.3253(3) 0.31713(14)
H27 H 1.0609 0.3481 0.3549
C49 C 1.0414(3) 0.4090(3) 0.28404(15)
C50 C 0.9932(3) 0.3813(3) 0.22847(14)
H28 H 1.0065 0.4412 0.2066
C51 C 0.9244(3) 0.2622(3) 0.20622(14)
P1 P 1.04914(11) -0.35453(10) 0.11437(4)
F1 F 1.1402(4) -0.2370(3) 0.0990(2)
F2 F 1.0096(3) -0.4177(3) 0.05590(12)
F3 F 1.1706(4) -0.3833(4) 0.12853(14)
F4 F 0.9549(5) -0.4707(4) 0.13073(19)
F5 F 1.0870(4) -0.2901(5) 0.17331(14)
F6 F 0.9280(3) -0.3239(3) 0.10025(10)
P2 P 1.03787(13) -0.09894(10) 0.35085(5)
F7 F 1.1343(12) -0.0621(10) 0.3131(5)
F8 F 0.9245(8) -0.1165(7) 0.3016(3)
F9 F 1.0817(9) 0.0401(5) 0.3615(3)
F10 F 0.9404(12) -0.1322(12) 0.3856(5)
F11 F 1.1525(11) -0.0770(7) 0.4029(4)
F12 F 1.0144(10) -0.2282(7) 0.3402(4)
O5 O 0.7250(4) 0.0696(3) 0.40530(15)
C52 C 0.9408(5) 0.1401(5) 0.4600(2)
H29 H 0.9574 0.2086 0.4416
H30 H 0.9987 0.1055 0.4542
H31 H 0.9589 0.1651 0.4986
C53 C 0.8011(5) 0.0514(4) 0.43853(18)
C54 C 0.7612(6) -0.0616(6) 0.4600(3)
H32 H 0.7714 -0.0463 0.4986
H33 H 0.8174 -0.0979 0.4539
H34 H 0.6685 -0.1151 0.4417
N6 N 0.4057(3) -0.0363(2) 0.26541(11)
N7 N 0.7667(3) 0.5335(3) 0.21810(12)
C55 C 0.6162(5) -0.1846(4) 0.30357(19)
H35 H 0.7068 -0.1604 0.3210
C56 C 0.5045(4) -0.2144(3) 0.28212(17)
C57 C 0.3656(4) -0.2453(3) 0.25630(16)
H36 H 0.3083 -0.3239 0.2635
H37 H 0.3520 -0.2502 0.2170
C58 C 0.3248(4) -0.1549(3) 0.27653(16)
H38 H 0.2303 -0.1798 0.2587
H39 H 0.3356 -0.1516 0.3157
C59 C 0.3655(4) -0.0010(3) 0.21951(14)
H40 H 0.2839 -0.0526 0.1945
C60 C 0.4402(3) 0.1079(3) 0.20828(14)
H41 H 0.4097 0.1319 0.1760
C61 C 0.5616(3) 0.1836(3) 0.24449(13)
C62 C 0.6027(4) 0.1433(3) 0.29101(14)
H42 H 0.6861 0.1914 0.3158
C63 C 0.5226(4) 0.0343(3) 0.30105(14)
H43 H 0.5499 0.0086 0.3333
C64 C 0.7830(4) 0.5092(3) 0.26860(14)
H44 H 0.8375 0.5714 0.2979
C65 C 0.7220(4) 0.3960(3) 0.27792(14)
H45 H 0.7353 0.3795 0.3136
C66 C 0.6401(3) 0.3047(3) 0.23514(14)
C67 C 0.6287(3) 0.3316(3) 0.18313(13)
H46 H 0.5762 0.2707 0.1531
C68 C 0.6938(4) 0.4461(3) 0.17572(14)
H47 H 0.6874 0.4642 0.1403
C69 C 0.8214(4) 0.6580(3) 0.20975(16)
H48 H 0.8574 0.6658 0.1782
H49 H 0.8947 0.7080 0.2415
C70 C 0.7145(5) 0.7004(4) 0.2008(2)
H50 H 0.6637 0.6746 0.2277
H51 H 0.7571 0.7878 0.2063
C71 C 0.6237(5) 0.6545(4) 0.1470(3)
C72 C 0.5568(6) 0.6160(5) 0.1019(3)
H52 H 0.5035 0.5854 0.0660
N8 N 0.6143(4) 0.3932(4) 0.04446(19)
C73 C 0.6706(5) 0.3671(4) 0.02071(18)
C74 C 0.7464(7) 0.3322(5) -0.0078(2)
H53 H 0.7218 0.3395 -0.0458
H54 H 0.7275 0.2502 -0.0048
H55 H 0.8411 0.3836 0.0078
F13? F 1.0127(13) -0.0815(7) 0.2911(3)
F14? F 0.8821(7) -0.2070(8) 0.3338(4)
F15? F 0.9794(13) -0.0154(9) 0.3680(4)
F16? F 1.0421(13) -0.1317(9) 0.4084(3)
F17? F 1.1799(9) -0.0190(10) 0.3665(5)
F18? F 1.0677(10) -0.2024(10) 0.3318(5)
loop_
_geom_bond_atom_site_label_1
_geom_bond_atom_site_label_2
_geom_bond_site_symmetry_1
_geom_bond_site_symmetry_2
Cl1 C1 1_555 1_555
O1 C3 1_555 1_555
O2 C2 1_555 1_555
O3 C21 1_555 1_555
O4 C31 1_555 1_555
N1 C1 1_555 1_555
N2 C1 1_555 1_555
N3 C2 1_555 1_555
N4 C24 1_555 1_555
N5 C28 1_555 1_555
C2 N2 1_555 1_555
C3 N1 1_555 1_555
C4 O2 1_555 1_555
C5 C4 1_555 1_555
H1 C5 1_555 1_555
C6 C5 1_555 1_555
C7 C6 1_555 1_555
C8 C7 1_555 1_555
H2 C8 1_555 1_555
C9 C4 1_555 1_555
H3 C9 1_555 1_555
C10 C6 1_555 1_555
H4 C10 1_555 1_555
C11 C10 1_555 1_555
C12 C11 1_555 1_555
H5 C12 1_555 1_555
C13 C12 1_555 1_555
H6 C13 1_555 1_555
C14 C13 1_555 1_555
H7 C14 1_555 1_555
C15 C14 1_555 1_555
H8 C15 1_555 1_555
C16 C11 1_555 1_555
C17 C7 1_555 1_555
H9 C17 1_555 1_555
C18 C17 1_555 1_555
C19 C18 1_555 1_555
H10 C19 1_555 1_555
C20 C19 1_555 1_555
H11 C20 1_555 1_555
C21 C20 1_555 1_555
C22 C21 1_555 1_555
H12 C22 1_555 1_555
C23 C10 1_555 1_555
C24 O3 1_555 1_555
C25 C24 1_555 1_555
H13 C25 1_555 1_555
C26 C25 1_555 1_555
H14 C26 1_555 1_555
C27 C26 1_555 1_555
C28 N4 1_555 1_555
C29 C27 1_555 1_555
H15 C29 1_555 1_555
C30 C29 1_555 1_555
H16 C30 1_555 1_555
C31 N5 1_555 1_555
C32 O4 1_555 1_555
C33 C32 1_555 1_555
H17 C33 1_555 1_555
C34 C33 1_555 1_555
H18 C34 1_555 1_555
C35 C34 1_555 1_555
C36 C35 1_555 1_555
C37 C32 1_555 1_555
H19 C37 1_555 1_555
C38 C36 1_555 1_555
H20 C38 1_555 1_555
C39 C38 1_555 1_555
C40 C39 1_555 1_555
H21 C40 1_555 1_555
C41 C40 1_555 1_555
H22 C41 1_555 1_555
C42 C41 1_555 1_555
H23 C42 1_555 1_555
C43 C42 1_555 1_555
H24 C43 1_555 1_555
C44 C39 1_555 1_555
C45 C35 1_555 1_555
H25 C45 1_555 1_555
C46 C45 1_555 1_555
C47 C46 1_555 1_555
H26 C47 1_555 1_555
C48 C47 1_555 1_555
H27 C48 1_555 1_555
C49 O1 1_555 1_555
C50 C49 1_555 1_555
H28 C50 1_555 1_555
C51 C38 1_555 1_555
P1 F1 1_555 1_555
F2 P1 1_555 1_555
F3 P1 1_555 1_555
F4 P1 1_555 1_555
F5 P1 1_555 1_555
F6 P1 1_555 1_555
P2 F7 1_555 1_555
F8 P2 1_555 1_555
F9 P2 1_555 1_555
F10 P2 1_555 1_555
F11 P2 1_555 1_555
F12 P2 1_555 1_555
O5 C53 1_555 1_555
C52 H29 1_555 1_555
H30 C52 1_555 1_555
H31 C52 1_555 1_555
C53 C52 1_555 1_555
C54 C53 1_555 1_555
H32 C54 1_555 1_555
H33 C54 1_555 1_555
H34 C54 1_555 1_555
N6 C58 1_555 1_555
N7 C64 1_555 1_555
C55 H35 1_555 1_555
C56 C55 1_555 1_555
C57 C56 1_555 1_555
H36 C57 1_555 1_555
H37 C57 1_555 1_555
C58 C57 1_555 1_555
H38 C58 1_555 1_555
H39 C58 1_555 1_555
C59 N6 1_555 1_555
H40 C59 1_555 1_555
C60 C59 1_555 1_555
H41 C60 1_555 1_555
C61 C60 1_555 1_555
C62 C61 1_555 1_555
H42 C62 1_555 1_555
C63 N6 1_555 1_555
H43 C63 1_555 1_555
C64 H44 1_555 1_555
C65 C64 1_555 1_555
H45 C65 1_555 1_555
C66 C61 1_555 1_555
C67 C66 1_555 1_555
H46 C67 1_555 1_555
C68 N7 1_555 1_555
H47 C68 1_555 1_555
C69 N7 1_555 1_555
H48 C69 1_555 1_555
H49 C69 1_555 1_555
C70 C69 1_555 1_555
H50 C70 1_555 1_555
H51 C70 1_555 1_555
C71 C70 1_555 1_555
C72 C71 1_555 1_555
H52 C72 1_555 1_555
N8 C73 1_555 1_555
C73 C74 1_555 1_555
C74 H53 1_555 1_555
H54 C74 1_555 1_555
H55 C74 1_555 1_555
N3 C3 1_555 1_555
C8 C9 1_555 1_555
C15 C16 1_555 1_555
C16 C17 1_555 1_555
C18 C23 1_555 1_555
C22 C23 1_555 1_555
C27 C28 1_555 1_555
C30 C31 1_555 1_555
C36 C37 1_555 1_555
C43 C44 1_555 1_555
C44 C45 1_555 1_555
C46 C51 1_555 1_555
C48 C49 1_555 1_555
C50 C51 1_555 1_555
C62 C63 1_555 1_555
C65 C66 1_555 1_555
C67 C68 1_555 1_555

#END
