
#######################################################################
#
#                 Cambridge Crystallographic Data Centre
#                                CCDC 
#
#######################################################################
#
# If this CIF has been generated from an entry in the Cambridge 
# Structural Database, then it will include bibliographic, chemical, 
# crystal, experimental, refinement or atomic coordinate data resulting 
# from the CCDC's data processing and validation procedures.
#
#######################################################################

data_IXAJAU
_chemical_formula_moiety         'C21 H20 F1 N1 O3,C1 H1 Cl3,H2 O1'
_chemical_name_systematic        
"(1R,6R)-1'-methyl-2'-hydroxy-4-(4-fluorophenyl)-6-(hydroxymethyl)spiro[cyclo-hex[3]ene-1,3'-indoline]-2-one chloroform solvate monohydrate"
_symmetry_cell_setting           monoclinic
_symmetry_space_group_name_H-M   'P 21'
_symmetry_Int_Tables_number      4
_space_group_name_Hall           'P 2yb'
loop_
_symmetry_equiv_pos_site_id
_symmetry_equiv_pos_as_xyz
1 x,y,z
2 -x,1/2+y,-z
_cell_length_a                   6.7332(4)
_cell_length_b                   13.7973(9)
_cell_length_c                   12.3490(8)
_cell_angle_alpha                90
_cell_angle_beta                 98.601(5)
_cell_angle_gamma                90
_cell_volume                     1134.32
_exptl_crystal_colour            colorless
_exptl_crystal_description       block
_cell_formula_units_Z            2
loop_
_atom_site_label
_atom_site_type_symbol
_atom_site_fract_x
_atom_site_fract_y
_atom_site_fract_z
Cl1 Cl 0.5725(3) 0.26521(14) 0.93774(16)
Cl2 Cl 0.8871(3) 0.3938(2) 0.89567(19)
Cl3 Cl 0.4823(4) 0.4234(3) 0.7906(2)
C1 C 0.6625(11) 0.3375(7) 0.8427(5)
H1 H 0.6883 0.2960 0.7819
O1 O 0.4884(5) 0.2006(3) 0.5792(3)
O2 O 0.3453(5) -0.0509(3) 0.6125(3)
C2 C 1.0524(9) 0.1298(5) 0.8613(5)
H2 H 1.1343 0.1478 0.9255
C3 C 1.1047(9) 0.1558(4) 0.7594(4)
H3 H 1.2206 0.1917 0.7564
C4 C 0.9843(7) 0.1282(4) 0.6634(4)
H4 H 1.0210 0.1442 0.5960
C5 C 0.8100(7) 0.0771(3) 0.6681(4)
C6 C 0.6454(7) 0.0400(3) 0.5803(4)
C7 C 0.7136(7) -0.0346(3) 0.5000(4)
H5 H 0.5939 -0.0560 0.4508
C8 C 0.8574(7) 0.0113(4) 0.4295(4)
H6 H 0.9891 0.0174 0.4733
H7 H 0.8703 -0.0318 0.3689
C9 C 0.7917(8) 0.1090(4) 0.3846(4)
C10 C 0.9070(7) 0.1519(4) 0.3027(4)
C11 C 0.8492(10) 0.2403(5) 0.2489(5)
H8 H 0.7318 0.2707 0.2621
C12 C 0.9617(10) 0.2822(5) 0.1780(5)
H9 H 0.9223 0.3407 0.1439
C13 C 1.1336(9) 0.2367(4) 0.1580(4)
F1 F 1.2457(6) 0.2767(3) 0.0879(3)
C14 C 1.1937(9) 0.1496(5) 0.2078(5)
H10 H 1.3099 0.1191 0.1932
C15 C 1.0810(9) 0.1094(5) 0.2780(5)
H11 H 1.1223 0.0508 0.3111
C16 C 0.6425(7) 0.1562(4) 0.4227(4)
H12 H 0.6039 0.2157 0.3911
C17 C 0.5331(7) 0.1209(3) 0.5115(4)
C18 C 0.8109(8) -0.1250(3) 0.5595(4)
H13 H 0.9322 -0.1063 0.6075
H14 H 0.7190 -0.1533 0.6041
O3 O 0.8591(5) -0.1952(2) 0.4822(3)
H15 H 0.7559 -0.2219 0.4533
C19 C 0.5014(8) -0.0077(4) 0.6489(4)
N1 N 0.5729(7) 0.0033(3) 0.7562(3)
C20 C 0.4727(9) -0.0299(4) 0.8462(4)
H16 H 0.4258 0.0251 0.8828
H17 H 0.5656 -0.0664 0.8970
H18 H 0.3607 -0.0702 0.8179
C21 C 0.7599(8) 0.0538(4) 0.7705(4)
C22 C 0.8790(9) 0.0773(4) 0.8662(4)
H19 H 0.8443 0.0584 0.9332
O4 O 0.7682(5) 0.3441(3) 0.5845(3)
H20 H 0.8790 0.3177 0.5763
H21 H 0.7093 0.3642 0.5229
loop_
_geom_bond_atom_site_label_1
_geom_bond_atom_site_label_2
_geom_bond_site_symmetry_1
_geom_bond_site_symmetry_2
Cl1 C1 1_555 1_555
Cl2 C1 1_555 1_555
Cl3 C1 1_555 1_555
C1 H1 1_555 1_555
O1 C17 1_555 1_555
O2 C19 1_555 1_555
C2 H2 1_555 1_555
C3 C2 1_555 1_555
H3 C3 1_555 1_555
C4 C3 1_555 1_555
H4 C4 1_555 1_555
C5 C4 1_555 1_555
C6 C5 1_555 1_555
C7 C6 1_555 1_555
H5 C7 1_555 1_555
C8 C7 1_555 1_555
H6 C8 1_555 1_555
H7 C8 1_555 1_555
C9 C8 1_555 1_555
C10 C9 1_555 1_555
C11 C10 1_555 1_555
H8 C11 1_555 1_555
C12 C11 1_555 1_555
H9 C12 1_555 1_555
C13 C12 1_555 1_555
F1 C13 1_555 1_555
C14 C13 1_555 1_555
H10 C14 1_555 1_555
C15 C10 1_555 1_555
H11 C15 1_555 1_555
C16 C9 1_555 1_555
H12 C16 1_555 1_555
C17 C6 1_555 1_555
C18 C7 1_555 1_555
H13 C18 1_555 1_555
H14 C18 1_555 1_555
O3 C18 1_555 1_555
H15 O3 1_555 1_555
C19 C6 1_555 1_555
N1 C19 1_555 1_555
C20 N1 1_555 1_555
H16 C20 1_555 1_555
H17 C20 1_555 1_555
H18 C20 1_555 1_555
C21 C5 1_555 1_555
C22 C2 1_555 1_555
H19 C22 1_555 1_555
O4 H20 1_555 1_555
H21 O4 1_555 1_555
C14 C15 1_555 1_555
C16 C17 1_555 1_555
N1 C21 1_555 1_555
C21 C22 1_555 1_555

#END
