
#######################################################################
#
#                 Cambridge Crystallographic Data Centre
#                                CCDC 
#
#######################################################################
#
# If this CIF has been generated from an entry in the Cambridge 
# Structural Database, then it will include bibliographic, chemical, 
# crystal, experimental, refinement or atomic coordinate data resulting 
# from the CCDC's data processing and validation procedures.
#
#######################################################################

data_IXAJOI
_chemical_formula_moiety         'C22 H22 O1'
_chemical_name_systematic        7-t-butyl-8-phenylbenzo[8]annulen-5(8H)-one
_symmetry_cell_setting           monoclinic
_symmetry_space_group_name_H-M   'P 21/c'
_symmetry_Int_Tables_number      14
_space_group_name_Hall           '-P 2ybc'
loop_
_symmetry_equiv_pos_site_id
_symmetry_equiv_pos_as_xyz
1 x,y,z
2 -x,1/2+y,1/2-z
3 -x,-y,-z
4 x,1/2-y,1/2+z
_cell_length_a                   6.8422(8)
_cell_length_b                   33.635(3)
_cell_length_c                   7.7979(8)
_cell_angle_alpha                90
_cell_angle_beta                 111.829(13)
_cell_angle_gamma                90
_cell_volume                     1665.91
_exptl_crystal_colour            colorless
_exptl_crystal_description       block
_cell_formula_units_Z            4
loop_
_atom_site_label
_atom_site_type_symbol
_atom_site_fract_x
_atom_site_fract_y
_atom_site_fract_z
O1 O 0.0434(2) 0.59210(4) 0.13643(16)
C1 C -0.5075(3) 0.65810(5) 0.2214(2)
H1 H -0.6263 0.6573 0.2566
C2 C -0.4994(3) 0.68661(5) 0.0973(2)
H2 H -0.6111 0.7052 0.0480
C3 C -0.3260(3) 0.68792(5) 0.0453(2)
H3 H -0.3153 0.7082 -0.0357
C4 C -0.1702(3) 0.65982(5) 0.1114(2)
H4 H -0.0548 0.6604 0.0716
C5 C -0.0139(2) 0.59829(5) 0.26586(19)
C6 C 0.0922(2) 0.57339(4) 0.43007(19)
H5 H 0.1589 0.5507 0.4040
C7 C 0.1149(2) 0.57588(4) 0.60843(19)
C8 C -0.0043(2) 0.60604(4) 0.67793(19)
H6 H 0.0430 0.6016 0.8142
C9 C -0.2325(2) 0.59334(5) 0.5977(2)
H7 H -0.2798 0.5769 0.6735
C10 C -0.3739(2) 0.60263(5) 0.4331(2)
H8 H -0.5075 0.5901 0.3991
C11 C -0.3462(2) 0.63024(5) 0.2972(2)
C12 C -0.1769(2) 0.63021(4) 0.23609(18)
C13 C 0.0376(2) 0.64985(4) 0.65376(18)
C14 C -0.0934(3) 0.67799(5) 0.6864(2)
H9 H -0.2114 0.6694 0.7129
C15 C -0.0545(3) 0.71817(5) 0.6808(2)
H10 H -0.1447 0.7370 0.7048
C16 C 0.1156(3) 0.73105(5) 0.6403(2)
H11 H 0.1416 0.7587 0.6350
C17 C 0.2475(3) 0.70350(5) 0.6076(2)
H12 H 0.3639 0.7122 0.5790
C18 C 0.2105(2) 0.66304(5) 0.61645(19)
H13 H 0.3039 0.6443 0.5969
C19 C 0.2552(2) 0.54687(4) 0.75308(19)
C20 C 0.3630(3) 0.51612(5) 0.6727(2)
H14 H 0.2558 0.4997 0.5814
H15 H 0.4548 0.4991 0.7722
H16 H 0.4471 0.5298 0.6130
C21 C 0.1205(3) 0.52413(5) 0.8415(2)
H17 H 0.0591 0.5430 0.9030
H18 H 0.2094 0.5051 0.9324
H19 H 0.0076 0.5098 0.7453
C22 C 0.4254(2) 0.57092(5) 0.9037(2)
H20 H 0.5088 0.5861 0.8477
H21 H 0.5177 0.5527 0.9969
H22 H 0.3581 0.5893 0.9624
loop_
_geom_bond_atom_site_label_1
_geom_bond_atom_site_label_2
_geom_bond_site_symmetry_1
_geom_bond_site_symmetry_2
O1 C5 1_555 1_555
C1 H1 1_555 1_555
C2 C1 1_555 1_555
H2 C2 1_555 1_555
C3 C2 1_555 1_555
H3 C3 1_555 1_555
C4 C3 1_555 1_555
H4 C4 1_555 1_555
C5 C6 1_555 1_555
C6 H5 1_555 1_555
C7 C6 1_555 1_555
C8 C7 1_555 1_555
H6 C8 1_555 1_555
C9 C8 1_555 1_555
H7 C9 1_555 1_555
C10 C9 1_555 1_555
H8 C10 1_555 1_555
C11 C1 1_555 1_555
C12 C4 1_555 1_555
C13 C8 1_555 1_555
C14 C13 1_555 1_555
H9 C14 1_555 1_555
C15 C14 1_555 1_555
H10 C15 1_555 1_555
C16 C15 1_555 1_555
H11 C16 1_555 1_555
C17 C16 1_555 1_555
H12 C17 1_555 1_555
C18 C13 1_555 1_555
H13 C18 1_555 1_555
C19 C7 1_555 1_555
C20 C19 1_555 1_555
H14 C20 1_555 1_555
H15 C20 1_555 1_555
H16 C20 1_555 1_555
C21 C19 1_555 1_555
H17 C21 1_555 1_555
H18 C21 1_555 1_555
H19 C21 1_555 1_555
C22 C19 1_555 1_555
H20 C22 1_555 1_555
H21 C22 1_555 1_555
H22 C22 1_555 1_555
C5 C12 1_555 1_555
C10 C11 1_555 1_555
C11 C12 1_555 1_555
C17 C18 1_555 1_555

#END
