
#######################################################################
#
#                 Cambridge Crystallographic Data Centre
#                                CCDC 
#
#######################################################################
#
# If this CIF has been generated from an entry in the Cambridge 
# Structural Database, then it will include bibliographic, chemical, 
# crystal, experimental, refinement or atomic coordinate data resulting 
# from the CCDC's data processing and validation procedures.
#
#######################################################################

data_IXAKEZ
_chemical_formula_moiety         'C22 H22 N2 O1 Si1'
_chemical_name_systematic        
5-phenyl-4-(trimethylsilyl)-2,5-dihydro-3H-benzo[7,8]cycloocta[1,2-c]pyrazol-3-one
_symmetry_cell_setting           monoclinic
_symmetry_space_group_name_H-M   'P 21/n'
_symmetry_Int_Tables_number      14
_space_group_name_Hall           '-P 2yn'
loop_
_symmetry_equiv_pos_site_id
_symmetry_equiv_pos_as_xyz
1 x,y,z
2 1/2-x,1/2+y,1/2-z
3 -x,-y,-z
4 1/2+x,1/2-y,1/2+z
_cell_length_a                   11.5291(2)
_cell_length_b                   12.0309(2)
_cell_length_c                   28.0685(8)
_cell_angle_alpha                90
_cell_angle_beta                 101.520(2)
_cell_angle_gamma                90
_cell_volume                     3814.82
_exptl_crystal_colour            orange
_exptl_crystal_description       plate
_cell_formula_units_Z            8
loop_
_atom_site_label
_atom_site_type_symbol
_atom_site_fract_x
_atom_site_fract_y
_atom_site_fract_z
O1 O 0.24928(9) 0.45384(10) 0.32013(4)
N1 N 0.55530(10) 0.43261(11) 0.35010(4)
C1 C 0.80139(13) 0.64886(14) 0.27453(5)
H1 H 0.8169 0.7187 0.2613
N2 N 0.44119(10) 0.41224(11) 0.35657(4)
H2 H 0.4253 0.3754 0.3816
C2 C 0.89540(14) 0.58136(16) 0.29430(6)
H3 H 0.9742 0.6048 0.2945
C3 C 0.87476(13) 0.47912(15) 0.31391(5)
H4 H 0.9389 0.4310 0.3264
C4 C 0.75982(13) 0.44789(14) 0.31505(5)
H5 H 0.7463 0.3785 0.3291
C5 C 0.54769(12) 0.48084(12) 0.30793(5)
C6 C 0.42265(12) 0.49523(11) 0.28373(5)
C7 C 0.37372(12) 0.52461(11) 0.23750(5)
C8 C 0.46191(12) 0.54496(11) 0.20441(5)
H6 H 0.5335 0.4998 0.2183
C9 C 0.49830(13) 0.66462(12) 0.21302(5)
H7 H 0.4527 0.7208 0.1942
C10 C 0.59282(13) 0.69403(12) 0.24637(5)
H8 H 0.6031 0.7711 0.2534
C11 C 0.68284(13) 0.61750(12) 0.27328(5)
C12 C 0.66230(12) 0.51594(12) 0.29592(5)
C13 C 0.42256(12) 0.50660(11) 0.15218(5)
C14 C 0.37074(13) 0.40192(12) 0.14376(5)
H9 H 0.3543 0.3599 0.1703
C15 C 0.34290(15) 0.35842(14) 0.09709(6)
H10 H 0.3066 0.2874 0.0918
C16 C 0.36796(15) 0.41834(14) 0.05813(5)
H11 H 0.3495 0.3885 0.0262
C17 C 0.42012(15) 0.52201(14) 0.06630(5)
H12 H 0.4375 0.5634 0.0398
C18 C 0.44748(13) 0.56621(13) 0.11316(5)
H13 H 0.4833 0.6374 0.1183
Si1 Si 0.20877(3) 0.56383(3) 0.21685(2)
C19 C 0.18284(14) 0.67975(13) 0.25782(6)
H14 H 0.1946 0.6526 0.2914
H15 H 0.1017 0.7072 0.2476
H16 H 0.2387 0.7402 0.2559
C20 C 0.10678(13) 0.44386(12) 0.21650(6)
H17 H 0.1271 0.3853 0.1953
H18 H 0.0251 0.4681 0.2044
H19 H 0.1145 0.4149 0.2496
C21 C 0.18006(14) 0.62313(15) 0.15391(6)
H20 H 0.2375 0.6822 0.1520
H21 H 0.0998 0.6539 0.1462
H22 H 0.1879 0.5644 0.1306
C22 C 0.35703(12) 0.45428(12) 0.32088(5)
O2 O 0.38474(8) 0.32242(9) 0.44269(3)
C23 C -0.15337(13) 0.39206(12) 0.52989(6)
H23 H -0.1631 0.4218 0.5602
N3 N 0.08020(10) 0.36124(9) 0.41420(4)
N4 N 0.19282(10) 0.35814(10) 0.40399(4)
H24 H 0.2079 0.3746 0.3753
C24 C -0.25248(13) 0.37265(12) 0.49427(6)
H25 H -0.3290 0.3885 0.5002
C25 C -0.23980(13) 0.32989(12) 0.44975(6)
H26 H -0.3076 0.3153 0.4252
C26 C -0.12778(12) 0.30860(12) 0.44140(5)
H27 H -0.1198 0.2788 0.4109
C27 C 0.08752(11) 0.32623(10) 0.45876(5)
C28 C 0.21097(11) 0.29900(11) 0.48129(5)
C29 C 0.25883(12) 0.25432(10) 0.52516(5)
C30 C 0.17205(12) 0.21892(11) 0.55678(5)
H28 H 0.0966 0.1969 0.5345
C31 C 0.14786(13) 0.32390(12) 0.58235(5)
H29 H 0.1994 0.3431 0.6120
C32 C 0.05724(13) 0.39091(12) 0.56511(5)
H30 H 0.0539 0.4593 0.5817
C33 C -0.03819(12) 0.36928(11) 0.52282(5)
C34 C -0.02538(12) 0.32967(11) 0.47675(5)
C35 C 0.21412(12) 0.11974(11) 0.58902(5)
C36 C 0.26535(13) 0.03012(12) 0.56948(5)
H31 H 0.2707 0.0311 0.5361
C37 C 0.30869(15) -0.06045(13) 0.59816(6)
H32 H 0.3447 -0.1205 0.5846
C38 C 0.29939(14) -0.06321(13) 0.64670(6)
H33 H 0.3296 -0.1248 0.6665
C39 C 0.24599(13) 0.02408(14) 0.66607(6)
H34 H 0.2388 0.0219 0.6992
C40 C 0.20274(13) 0.11503(13) 0.63743(5)
H35 H 0.1653 0.1742 0.6509
Si2 Si 0.42663(3) 0.25809(3) 0.55197(2)
C41 C 0.45887(15) 0.23126(15) 0.61900(6)
H36 H 0.4059 0.2763 0.6345
H37 H 0.5413 0.2511 0.6326
H38 H 0.4463 0.1523 0.6250
C42 C 0.50879(14) 0.15469(13) 0.52186(7)
H39 H 0.4981 0.0803 0.5345
H40 H 0.5932 0.1735 0.5286
H41 H 0.4782 0.1559 0.4867
C43 C 0.47304(13) 0.40542(12) 0.54788(5)
H42 H 0.4613 0.4275 0.5136
H43 H 0.5569 0.4131 0.5631
H44 H 0.4254 0.4532 0.5647
C44 C 0.27746(12) 0.32732(11) 0.44243(5)
loop_
_geom_bond_atom_site_label_1
_geom_bond_atom_site_label_2
_geom_bond_site_symmetry_1
_geom_bond_site_symmetry_2
O1 C22 1_555 1_555
N1 N2 1_555 1_555
C1 H1 1_555 1_555
N2 H2 1_555 1_555
C2 C1 1_555 1_555
H3 C2 1_555 1_555
C3 C2 1_555 1_555
H4 C3 1_555 1_555
C4 C3 1_555 1_555
H5 C4 1_555 1_555
C5 N1 1_555 1_555
C6 C5 1_555 1_555
C7 C6 1_555 1_555
C8 C7 1_555 1_555
H6 C8 1_555 1_555
C9 C8 1_555 1_555
H7 C9 1_555 1_555
C10 C9 1_555 1_555
H8 C10 1_555 1_555
C11 C1 1_555 1_555
C12 C4 1_555 1_555
C13 C8 1_555 1_555
C14 C13 1_555 1_555
H9 C14 1_555 1_555
C15 C14 1_555 1_555
H10 C15 1_555 1_555
C16 C15 1_555 1_555
H11 C16 1_555 1_555
C17 C16 1_555 1_555
H12 C17 1_555 1_555
C18 C13 1_555 1_555
H13 C18 1_555 1_555
Si1 C7 1_555 1_555
C19 Si1 1_555 1_555
H14 C19 1_555 1_555
H15 C19 1_555 1_555
H16 C19 1_555 1_555
C20 Si1 1_555 1_555
H17 C20 1_555 1_555
H18 C20 1_555 1_555
H19 C20 1_555 1_555
C21 Si1 1_555 1_555
H20 C21 1_555 1_555
H21 C21 1_555 1_555
H22 C21 1_555 1_555
C22 N2 1_555 1_555
O2 C44 1_555 1_555
C23 H23 1_555 1_555
N3 N4 1_555 1_555
N4 H24 1_555 1_555
C24 C23 1_555 1_555
H25 C24 1_555 1_555
C25 C24 1_555 1_555
H26 C25 1_555 1_555
C26 C25 1_555 1_555
H27 C26 1_555 1_555
C27 N3 1_555 1_555
C28 C27 1_555 1_555
C29 C28 1_555 1_555
C30 C29 1_555 1_555
H28 C30 1_555 1_555
C31 C30 1_555 1_555
H29 C31 1_555 1_555
C32 C31 1_555 1_555
H30 C32 1_555 1_555
C33 C23 1_555 1_555
C34 C26 1_555 1_555
C35 C30 1_555 1_555
C36 C35 1_555 1_555
H31 C36 1_555 1_555
C37 C36 1_555 1_555
H32 C37 1_555 1_555
C38 C37 1_555 1_555
H33 C38 1_555 1_555
C39 C38 1_555 1_555
H34 C39 1_555 1_555
C40 C35 1_555 1_555
H35 C40 1_555 1_555
Si2 C29 1_555 1_555
C41 Si2 1_555 1_555
H36 C41 1_555 1_555
H37 C41 1_555 1_555
H38 C41 1_555 1_555
C42 Si2 1_555 1_555
H39 C42 1_555 1_555
H40 C42 1_555 1_555
H41 C42 1_555 1_555
C43 Si2 1_555 1_555
H42 C43 1_555 1_555
H43 C43 1_555 1_555
H44 C43 1_555 1_555
C44 N4 1_555 1_555
C5 C12 1_555 1_555
C6 C22 1_555 1_555
C10 C11 1_555 1_555
C11 C12 1_555 1_555
C17 C18 1_555 1_555
C27 C34 1_555 1_555
C28 C44 1_555 1_555
C32 C33 1_555 1_555
C33 C34 1_555 1_555
C39 C40 1_555 1_555

#END
