
#######################################################################
#
#                 Cambridge Crystallographic Data Centre
#                                CCDC 
#
#######################################################################
#
# If this CIF has been generated from an entry in the Cambridge 
# Structural Database, then it will include bibliographic, chemical, 
# crystal, experimental, refinement or atomic coordinate data resulting 
# from the CCDC's data processing and validation procedures.
#
#######################################################################

data_IXAKUP
_chemical_formula_moiety         'C23 H26 O1'
_chemical_name_systematic        
7-t-butyl-5-methyl-8-phenyl-5,8-dihydrobenzo[8]annulen-5-ol
_symmetry_cell_setting           triclinic
_symmetry_space_group_name_H-M   'P -1'
_symmetry_Int_Tables_number      2
_space_group_name_Hall           '-P 1'
loop_
_symmetry_equiv_pos_site_id
_symmetry_equiv_pos_as_xyz
1 x,y,z
2 -x,-y,-z
_cell_length_a                   14.2643(6)
_cell_length_b                   14.9654(6)
_cell_length_c                   18.0597(6)
_cell_angle_alpha                78.026(3)
_cell_angle_beta                 88.561(3)
_cell_angle_gamma                81.147(4)
_cell_volume                     3726.32
_exptl_crystal_colour            colorless
_exptl_crystal_description       plank
_cell_formula_units_Z            8
loop_
_atom_site_label
_atom_site_type_symbol
_atom_site_fract_x
_atom_site_fract_y
_atom_site_fract_z
O1 O 0.46084(6) 0.22255(5) 0.18292(4)
H1 H 0.4050(12) 0.2345(11) 0.1977(9)
C1 C 0.55721(9) -0.04511(9) 0.37891(7)
H2 H 0.5599 -0.1088 0.4010
C2 C 0.58100(9) 0.01396(9) 0.42227(7)
H3 H 0.6008 -0.0089 0.4734
C3 C 0.57559(9) 0.10691(9) 0.39014(7)
H4 H 0.5933 0.1481 0.4189
C4 C 0.54444(8) 0.14012(8) 0.31606(6)
H5 H 0.5396 0.2044 0.2952
C5 C 0.48194(8) 0.12333(7) 0.19082(6)
C6 C 0.55148(8) 0.11204(8) 0.12686(6)
H6 H 0.5465 0.1658 0.0877
C7 C 0.61781(8) 0.04431(8) 0.11290(6)
C8 C 0.64656(8) -0.05047(8) 0.16485(6)
H7 H 0.6780 -0.0905 0.1305
C9 C 0.56352(9) -0.09740(8) 0.19823(7)
H8 H 0.5450 -0.1418 0.1731
C10 C 0.51422(8) -0.08272(8) 0.25888(7)
H9 H 0.4658 -0.1193 0.2750
C11 C 0.52923(8) -0.01345(8) 0.30315(6)
C12 C 0.52005(7) 0.08132(8) 0.27140(6)
C13 C 0.72239(8) -0.05419(8) 0.22462(6)
C14 C 0.74372(8) 0.02287(9) 0.24814(7)
H10 H 0.7107 0.0823 0.2264
C15 C 0.81289(9) 0.01419(10) 0.30320(7)
H11 H 0.8255 0.0673 0.3199
C16 C 0.86350(10) -0.07179(11) 0.33372(8)
H12 H 0.9115 -0.0776 0.3707
C17 C 0.84371(10) -0.14904(10) 0.31007(8)
H13 H 0.8785 -0.2081 0.3306
C18 C 0.77330(9) -0.14063(9) 0.25657(7)
H14 H 0.7594 -0.1943 0.2414
C19 C 0.38807(8) 0.09267(8) 0.17506(6)
H15 H 0.3412 0.1079 0.2129
H16 H 0.3981 0.0258 0.1778
H17 H 0.3648 0.1247 0.1244
C20 C 0.65115(11) 0.15630(10) -0.01029(7)
H18 H 0.5833 0.1716 -0.0228
H19 H 0.6880 0.1603 -0.0571
H20 H 0.6688 0.1999 0.0186
C21 C 0.64343(10) -0.00602(10) -0.01167(7)
H21 H 0.6560 -0.0702 0.0164
H22 H 0.6804 0.0005 -0.0584
H23 H 0.5757 0.0107 -0.0242
C22 C 0.77928(9) 0.03523(11) 0.05203(8)
H24 H 0.7981 0.0758 0.0833
H25 H 0.8130 0.0447 0.0037
H26 H 0.7954 -0.0293 0.0785
C23 C 0.67186(8) 0.05803(8) 0.03718(6)
O2 O 0.27870(6) 0.29797(6) 0.21826(5)
H27 H 0.2817(11) 0.3558(12) 0.2101(9)
C24 C 0.16704(9) 0.21160(9) 0.47341(7)
H28 H 0.1184 0.2085 0.5103
C25 C 0.26077(9) 0.19438(9) 0.49679(7)
H29 H 0.2766 0.1791 0.5492
C26 C 0.33115(9) 0.19979(9) 0.44283(7)
H30 H 0.3959 0.1860 0.4581
C27 C 0.30782(8) 0.22520(8) 0.36649(7)
H31 H 0.3571 0.2302 0.3302
C28 C 0.19103(8) 0.28057(7) 0.25703(6)
C29 C 0.15341(8) 0.21711(7) 0.21296(6)
H32 H 0.1726 0.2286 0.1615
C30 C 0.10058(7) 0.14975(7) 0.22790(6)
C31 C 0.05897(8) 0.11211(8) 0.30488(6)
H33 H 0.0096 0.0762 0.2932
C32 C 0.00450(8) 0.18846(8) 0.33945(6)
H34 H -0.0624 0.1998 0.3324
C33 C 0.04061(8) 0.24104(8) 0.37848(6)
H35 H -0.0022 0.2871 0.3961
C34 C 0.14226(8) 0.23352(8) 0.39664(6)
C35 C 0.21332(8) 0.24364(7) 0.34169(6)
C36 C 0.12729(8) 0.04199(7) 0.36019(6)
C37 C 0.22251(9) 0.01842(9) 0.34695(8)
H36 H 0.2498 0.0488 0.3020
C38 C 0.27944(10) -0.04931(10) 0.39836(9)
H37 H 0.3451 -0.0641 0.3884
C39 C 0.24137(10) -0.09470(9) 0.46327(8)
H38 H 0.2801 -0.1414 0.4979
C40 C 0.14619(10) -0.07184(9) 0.47768(7)
H39 H 0.1194 -0.1023 0.5228
C41 C 0.08958(9) -0.00447(9) 0.42639(7)
H40 H 0.0240 0.0102 0.4366
C42 C 0.12428(8) 0.37321(8) 0.24424(7)
H41 H 0.1518 0.4169 0.2676
H42 H 0.0626 0.3638 0.2672
H43 H 0.1158 0.3981 0.1898
C43 C 0.12305(9) 0.13676(9) 0.08885(7)
H44 H 0.1051 0.2035 0.0704
H45 H 0.1050 0.1038 0.0511
H46 H 0.1918 0.1224 0.0974
C44 C -0.03512(9) 0.13691(12) 0.14774(7)
H47 H -0.0705 0.1164 0.1938
H48 H -0.0546 0.1093 0.1070
H49 H -0.0484 0.2044 0.1326
C45 C 0.09374(15) 0.00077(10) 0.18521(9)
H50 H 0.1621 -0.0182 0.1937
H51 H 0.0733 -0.0259 0.1443
H52 H 0.0598 -0.0211 0.2317
C46 C 0.07187(9) 0.10646(8) 0.16325(6)
O3 O 0.34105(6) 0.46685(5) 0.18279(5)
H53 H 0.4022(13) 0.4508(11) 0.1790(9)
C47 C 0.36602(10) 0.61631(10) 0.39166(7)
H54 H 0.3766 0.6675 0.4122
C48 C 0.36888(11) 0.53093(10) 0.43915(7)
H55 H 0.3804 0.5235 0.4918
C49 C 0.35468(10) 0.45634(9) 0.40900(7)
H56 H 0.3547 0.3974 0.4412
C50 C 0.34036(9) 0.46743(8) 0.33196(7)
H57 H 0.3322 0.4152 0.3119
C51 C 0.32652(8) 0.55968(8) 0.19735(6)
C52 C 0.22868(8) 0.59986(8) 0.16323(6)
H58 H 0.2114 0.5686 0.1261
C53 C 0.16156(8) 0.66889(8) 0.17341(6)
C54 C 0.16486(9) 0.72946(8) 0.23165(7)
H59 H 0.1162 0.7850 0.2137
C55 C 0.25763(9) 0.76732(8) 0.23160(7)
H60 H 0.2594 0.8275 0.2022
C56 C 0.33639(9) 0.72448(9) 0.26858(7)
H61 H 0.3889 0.7572 0.2655
C57 C 0.34799(8) 0.62952(9) 0.31410(7)
C58 C 0.33753(8) 0.55310(8) 0.28289(6)
C59 C 0.13310(8) 0.68817(9) 0.31146(7)
C60 C 0.11466(10) 0.59863(10) 0.33333(8)
H62 H 0.1214 0.5594 0.2977
C61 C 0.08631(12) 0.56498(11) 0.40680(9)
H63 H 0.0752 0.5028 0.4213
C62 C 0.07422(12) 0.62166(12) 0.45876(8)
H64 H 0.0545 0.5989 0.5088
C63 C 0.09106(11) 0.71162(11) 0.43723(8)
H65 H 0.0826 0.7511 0.4726
C64 C 0.12022(9) 0.74490(9) 0.36446(7)
H66 H 0.1316 0.8070 0.3504
C65 C 0.40153(9) 0.60904(8) 0.14997(7)
H67 H 0.4650 0.5793 0.1687
H68 H 0.3923 0.6741 0.1542
H69 H 0.3952 0.6052 0.0968
C66 C 0.06439(12) 0.62774(11) 0.07054(10)
H70 H 0.1199 0.6235 0.0376
H71 H 0.0068 0.6486 0.0394
H72 H 0.0607 0.5669 0.1024
C67 C 0.08292(11) 0.78925(10) 0.06784(8)
H73 H 0.0906 0.8351 0.0980
H74 H 0.0258 0.8105 0.0362
H75 H 0.1385 0.7812 0.0355
C68 C -0.01795(11) 0.70771(15) 0.16631(10)
H76 H -0.0251 0.6483 0.1992
H77 H -0.0723 0.7281 0.1316
H78 H -0.0150 0.7537 0.1973
C69 C 0.07347(9) 0.69688(9) 0.12080(7)
O4 O 0.53014(6) 0.38596(6) 0.16901(5)
H79 H 0.5225(12) 0.3291(13) 0.1743(10)
C70 C 0.77583(9) 0.34514(9) 0.35678(7)
H80 H 0.8403 0.3330 0.3727
C71 C 0.70569(10) 0.34291(9) 0.41077(7)
H81 H 0.7216 0.3295 0.4631
C72 C 0.61176(9) 0.36055(9) 0.38746(7)
H82 H 0.5625 0.3609 0.4239
C73 C 0.58953(9) 0.37764(8) 0.31114(7)
H83 H 0.5247 0.3888 0.2960
C74 C 0.63065(8) 0.39065(8) 0.17246(7)
C75 C 0.63941(8) 0.48198(8) 0.11891(6)
H84 H 0.5924 0.4976 0.0801
C76 C 0.69668(8) 0.54516(8) 0.11317(6)
C77 C 0.77756(9) 0.54252(9) 0.16819(6)
H85 H 0.8155 0.5903 0.1415
C78 C 0.84472(9) 0.45211(10) 0.17751(7)
H86 H 0.8988 0.4508 0.1457
C79 C 0.83489(9) 0.37463(9) 0.22601(7)
H87 H 0.8820 0.3222 0.2265
C80 C 0.75498(8) 0.36468(8) 0.27941(7)
C81 C 0.65958(8) 0.37894(7) 0.25572(6)
C82 C 0.74815(10) 0.57201(9) 0.24286(7)
C83 C 0.65550(11) 0.60268(10) 0.25992(8)
H88 H 0.6062 0.6030 0.2254
C84 C 0.63296(14) 0.63323(12) 0.32706(9)
H89 H 0.5687 0.6537 0.3380
C85 C 0.70347(15) 0.63379(12) 0.37742(8)
H90 H 0.6883 0.6550 0.4230
C86 C 0.79642(15) 0.60336(12) 0.36119(8)
H91 H 0.8453 0.6035 0.3959
C87 C 0.81921(12) 0.57255(10) 0.29461(8)
H92 H 0.8835 0.5517 0.2842
C88 C 0.68197(9) 0.31153(9) 0.13743(8)
H93 H 0.6581 0.3181 0.0859
H94 H 0.6702 0.2522 0.1681
H95 H 0.7503 0.3138 0.1360
C89 C 0.60378(10) 0.63101(10) -0.00720(7)
H96 H 0.5453 0.6373 0.0222
H97 H 0.6092 0.5745 -0.0273
H98 H 0.6020 0.6846 -0.0492
C90 C 0.77854(11) 0.61273(11) -0.00467(8)
H99 H 0.7832 0.5538 -0.0211
H100 H 0.8349 0.6127 0.0253
H101 H 0.7745 0.6634 -0.0492
C91 C 0.68162(15) 0.71836(10) 0.06886(9)
H102 H 0.7353 0.7169 0.1021
H103 H 0.6221 0.7291 0.0963
H104 H 0.6826 0.7683 0.0242
C92 C 0.68919(9) 0.62581(8) 0.04384(7)
loop_
_geom_bond_atom_site_label_1
_geom_bond_atom_site_label_2
_geom_bond_site_symmetry_1
_geom_bond_site_symmetry_2
O1 H1 1_555 1_555
C1 H2 1_555 1_555
C2 C1 1_555 1_555
H3 C2 1_555 1_555
C3 C2 1_555 1_555
H4 C3 1_555 1_555
C4 C3 1_555 1_555
H5 C4 1_555 1_555
C5 O1 1_555 1_555
C6 C5 1_555 1_555
H6 C6 1_555 1_555
C7 C6 1_555 1_555
C8 C7 1_555 1_555
H7 C8 1_555 1_555
C9 C8 1_555 1_555
H8 C9 1_555 1_555
C10 C9 1_555 1_555
H9 C10 1_555 1_555
C11 C1 1_555 1_555
C12 C4 1_555 1_555
C13 C8 1_555 1_555
C14 C13 1_555 1_555
H10 C14 1_555 1_555
C15 C14 1_555 1_555
H11 C15 1_555 1_555
C16 C15 1_555 1_555
H12 C16 1_555 1_555
C17 C16 1_555 1_555
H13 C17 1_555 1_555
C18 C13 1_555 1_555
H14 C18 1_555 1_555
C19 C5 1_555 1_555
H15 C19 1_555 1_555
H16 C19 1_555 1_555
H17 C19 1_555 1_555
C20 H18 1_555 1_555
H19 C20 1_555 1_555
H20 C20 1_555 1_555
C21 H21 1_555 1_555
H22 C21 1_555 1_555
H23 C21 1_555 1_555
C22 H24 1_555 1_555
H25 C22 1_555 1_555
H26 C22 1_555 1_555
C23 C7 1_555 1_555
O2 H27 1_555 1_555
C24 H28 1_555 1_555
C25 C24 1_555 1_555
H29 C25 1_555 1_555
C26 C25 1_555 1_555
H30 C26 1_555 1_555
C27 C26 1_555 1_555
H31 C27 1_555 1_555
C28 O2 1_555 1_555
C29 C28 1_555 1_555
H32 C29 1_555 1_555
C30 C29 1_555 1_555
C31 C30 1_555 1_555
H33 C31 1_555 1_555
C32 C31 1_555 1_555
H34 C32 1_555 1_555
C33 C32 1_555 1_555
H35 C33 1_555 1_555
C34 C24 1_555 1_555
C35 C27 1_555 1_555
C36 C31 1_555 1_555
C37 C36 1_555 1_555
H36 C37 1_555 1_555
C38 C37 1_555 1_555
H37 C38 1_555 1_555
C39 C38 1_555 1_555
H38 C39 1_555 1_555
C40 C39 1_555 1_555
H39 C40 1_555 1_555
C41 C36 1_555 1_555
H40 C41 1_555 1_555
C42 C28 1_555 1_555
H41 C42 1_555 1_555
H42 C42 1_555 1_555
H43 C42 1_555 1_555
C43 H44 1_555 1_555
H45 C43 1_555 1_555
H46 C43 1_555 1_555
C44 H47 1_555 1_555
H48 C44 1_555 1_555
H49 C44 1_555 1_555
C45 H50 1_555 1_555
H51 C45 1_555 1_555
H52 C45 1_555 1_555
C46 C30 1_555 1_555
O3 H53 1_555 1_555
C47 H54 1_555 1_555
C48 C47 1_555 1_555
H55 C48 1_555 1_555
C49 C48 1_555 1_555
H56 C49 1_555 1_555
C50 C49 1_555 1_555
H57 C50 1_555 1_555
C51 O3 1_555 1_555
C52 C51 1_555 1_555
H58 C52 1_555 1_555
C53 C52 1_555 1_555
C54 C53 1_555 1_555
H59 C54 1_555 1_555
C55 C54 1_555 1_555
H60 C55 1_555 1_555
C56 C55 1_555 1_555
H61 C56 1_555 1_555
C57 C47 1_555 1_555
C58 C50 1_555 1_555
C59 C54 1_555 1_555
C60 C59 1_555 1_555
H62 C60 1_555 1_555
C61 C60 1_555 1_555
H63 C61 1_555 1_555
C62 C61 1_555 1_555
H64 C62 1_555 1_555
C63 C62 1_555 1_555
H65 C63 1_555 1_555
C64 C59 1_555 1_555
H66 C64 1_555 1_555
C65 C51 1_555 1_555
H67 C65 1_555 1_555
H68 C65 1_555 1_555
H69 C65 1_555 1_555
C66 H70 1_555 1_555
H71 C66 1_555 1_555
H72 C66 1_555 1_555
C67 H73 1_555 1_555
H74 C67 1_555 1_555
H75 C67 1_555 1_555
C68 H76 1_555 1_555
H77 C68 1_555 1_555
H78 C68 1_555 1_555
C69 C53 1_555 1_555
O4 H79 1_555 1_555
C70 H80 1_555 1_555
C71 C70 1_555 1_555
H81 C71 1_555 1_555
C72 C71 1_555 1_555
H82 C72 1_555 1_555
C73 C72 1_555 1_555
H83 C73 1_555 1_555
C74 O4 1_555 1_555
C75 C74 1_555 1_555
H84 C75 1_555 1_555
C76 C75 1_555 1_555
C77 C76 1_555 1_555
H85 C77 1_555 1_555
C78 C77 1_555 1_555
H86 C78 1_555 1_555
C79 C78 1_555 1_555
H87 C79 1_555 1_555
C80 C70 1_555 1_555
C81 C73 1_555 1_555
C82 C77 1_555 1_555
C83 C82 1_555 1_555
H88 C83 1_555 1_555
C84 C83 1_555 1_555
H89 C84 1_555 1_555
C85 C84 1_555 1_555
H90 C85 1_555 1_555
C86 C85 1_555 1_555
H91 C86 1_555 1_555
C87 C82 1_555 1_555
H92 C87 1_555 1_555
C88 C74 1_555 1_555
H93 C88 1_555 1_555
H94 C88 1_555 1_555
H95 C88 1_555 1_555
C89 H96 1_555 1_555
H97 C89 1_555 1_555
H98 C89 1_555 1_555
C90 H99 1_555 1_555
H100 C90 1_555 1_555
H101 C90 1_555 1_555
C91 H102 1_555 1_555
H103 C91 1_555 1_555
H104 C91 1_555 1_555
C92 C76 1_555 1_555
C5 C12 1_555 1_555
C10 C11 1_555 1_555
C11 C12 1_555 1_555
C17 C18 1_555 1_555
C20 C23 1_555 1_555
C21 C23 1_555 1_555
C22 C23 1_555 1_555
C28 C35 1_555 1_555
C33 C34 1_555 1_555
C34 C35 1_555 1_555
C40 C41 1_555 1_555
C43 C46 1_555 1_555
C44 C46 1_555 1_555
C45 C46 1_555 1_555
C51 C58 1_555 1_555
C56 C57 1_555 1_555
C57 C58 1_555 1_555
C63 C64 1_555 1_555
C66 C69 1_555 1_555
C67 C69 1_555 1_555
C68 C69 1_555 1_555
C74 C81 1_555 1_555
C79 C80 1_555 1_555
C80 C81 1_555 1_555
C86 C87 1_555 1_555
C89 C92 1_555 1_555
C90 C92 1_555 1_555
C91 C92 1_555 1_555

#END
