
#######################################################################
#
#                 Cambridge Crystallographic Data Centre
#                                CCDC 
#
#######################################################################
#
# If this CIF has been generated from an entry in the Cambridge 
# Structural Database, then it will include bibliographic, chemical, 
# crystal, experimental, refinement or atomic coordinate data resulting 
# from the CCDC's data processing and validation procedures.
#
#######################################################################

data_IXAKOJ
_chemical_formula_moiety         'C22 H26 O1 Si1'
_chemical_name_systematic        
5-methyl-8-phenyl-7-(trimethylsilyl)-5,8-dihydrobenzo[8]annulen-5-ol
_symmetry_cell_setting           orthorhombic
_symmetry_space_group_name_H-M   'P b c a'
_symmetry_Int_Tables_number      61
_space_group_name_Hall           '-P 2ac 2ab'
loop_
_symmetry_equiv_pos_site_id
_symmetry_equiv_pos_as_xyz
1 x,y,z
2 1/2-x,-y,1/2+z
3 1/2+x,1/2-y,-z
4 -x,1/2+y,1/2-z
5 -x,-y,-z
6 1/2+x,y,1/2-z
7 1/2-x,1/2+y,z
8 x,1/2-y,1/2+z
_cell_length_a                   12.8897(10)
_cell_length_b                   8.3102(14)
_cell_length_c                   35.146(4)
_cell_angle_alpha                90
_cell_angle_beta                 90
_cell_angle_gamma                90
_cell_volume                     3764.7
_exptl_crystal_colour            colorless
_exptl_crystal_description       irregular
_cell_formula_units_Z            8
loop_
_atom_site_label
_atom_site_type_symbol
_atom_site_fract_x
_atom_site_fract_y
_atom_site_fract_z
Si1 Si 0.56502(5) 0.22711(9) 0.70121(2)
O1 O 0.39704(15) 0.7359(2) 0.66126(5)
H1 H 0.463(3) 0.738(5) 0.6564(10)
C1 C 0.4325(2) 0.5932(4) 0.54552(7)
H2 H 0.4835 0.6413 0.5297
C2 C 0.3521(2) 0.5083(4) 0.52918(7)
H3 H 0.3484 0.4971 0.5023
C3 C 0.2770(2) 0.4398(4) 0.55201(8)
H4 H 0.2232 0.3770 0.5410
C4 C 0.2805(2) 0.4631(3) 0.59106(7)
H5 H 0.2270 0.4190 0.6065
C5 C 0.36032(19) 0.5767(3) 0.65149(7)
C6 C 0.42307(18) 0.4482(3) 0.67266(6)
H6 H 0.3877 0.4030 0.6938
C7 C 0.51779(18) 0.3872(3) 0.66715(6)
C8 C 0.59550(18) 0.4306(3) 0.63574(6)
H7 H 0.6649 0.4087 0.6473
C9 C 0.6007(2) 0.6065(3) 0.62378(7)
H8 H 0.6565 0.6680 0.6338
C10 C 0.5355(2) 0.6831(3) 0.60081(7)
H9 H 0.5508 0.7913 0.5942
C11 C 0.4404(2) 0.6095(3) 0.58498(7)
C12 C 0.36070(19) 0.5496(3) 0.60831(7)
C13 C 0.59045(19) 0.3179(3) 0.60126(6)
C14 C 0.5063(2) 0.2221(3) 0.59271(7)
H10 H 0.4462 0.2267 0.6083
C15 C 0.5079(2) 0.1182(3) 0.56134(7)
H11 H 0.4495 0.0526 0.5558
C16 C 0.5950(2) 0.1112(4) 0.53841(7)
H12 H 0.5967 0.0407 0.5171
C17 C 0.6793(2) 0.2071(4) 0.54655(7)
H13 H 0.7391 0.2028 0.5308
C18 C 0.6773(2) 0.3100(3) 0.57769(7)
H14 H 0.7359 0.3757 0.5830
C19 C 0.2506(2) 0.5750(4) 0.66740(7)
H15 H 0.2522 0.6041 0.6944
H16 H 0.2209 0.4670 0.6646
H17 H 0.2078 0.6527 0.6535
C20 C 0.4693(2) 0.1892(4) 0.73962(7)
H18 H 0.4066 0.1412 0.7287
H19 H 0.4515 0.2911 0.7520
H20 H 0.4993 0.1154 0.7584
C21 C 0.6901(2) 0.2915(4) 0.72302(9)
H21 H 0.7447 0.2903 0.7037
H22 H 0.7084 0.2175 0.7437
H23 H 0.6827 0.4007 0.7332
C22 C 0.5860(3) 0.0357(4) 0.67393(8)
H24 H 0.6085 -0.0493 0.6914
H25 H 0.6395 0.0529 0.6545
H26 H 0.5210 0.0037 0.6616
loop_
_geom_bond_atom_site_label_1
_geom_bond_atom_site_label_2
_geom_bond_site_symmetry_1
_geom_bond_site_symmetry_2
Si1 C7 1_555 1_555
O1 H1 1_555 1_555
C1 H2 1_555 1_555
C2 C1 1_555 1_555
H3 C2 1_555 1_555
C3 C2 1_555 1_555
H4 C3 1_555 1_555
C4 C3 1_555 1_555
H5 C4 1_555 1_555
C5 O1 1_555 1_555
C6 C5 1_555 1_555
H6 C6 1_555 1_555
C7 C6 1_555 1_555
C8 C7 1_555 1_555
H7 C8 1_555 1_555
C9 C8 1_555 1_555
H8 C9 1_555 1_555
C10 C9 1_555 1_555
H9 C10 1_555 1_555
C11 C1 1_555 1_555
C12 C4 1_555 1_555
C13 C8 1_555 1_555
C14 C13 1_555 1_555
H10 C14 1_555 1_555
C15 C14 1_555 1_555
H11 C15 1_555 1_555
C16 C15 1_555 1_555
H12 C16 1_555 1_555
C17 C16 1_555 1_555
H13 C17 1_555 1_555
C18 C13 1_555 1_555
H14 C18 1_555 1_555
C19 C5 1_555 1_555
H15 C19 1_555 1_555
H16 C19 1_555 1_555
H17 C19 1_555 1_555
C20 Si1 1_555 1_555
H18 C20 1_555 1_555
H19 C20 1_555 1_555
H20 C20 1_555 1_555
C21 Si1 1_555 1_555
H21 C21 1_555 1_555
H22 C21 1_555 1_555
H23 C21 1_555 1_555
C22 Si1 1_555 1_555
H24 C22 1_555 1_555
H25 C22 1_555 1_555
H26 C22 1_555 1_555
C5 C12 1_555 1_555
C10 C11 1_555 1_555
C11 C12 1_555 1_555
C17 C18 1_555 1_555

#END
