
#######################################################################
#
#                 Cambridge Crystallographic Data Centre
#                                CCDC 
#
#######################################################################
#
# If this CIF has been generated from an entry in the Cambridge 
# Structural Database, then it will include bibliographic, chemical, 
# crystal, experimental, refinement or atomic coordinate data resulting 
# from the CCDC's data processing and validation procedures.
#
#######################################################################

data_IXAMUP
_chemical_formula_moiety         'C24 H24 N2 O4'
_chemical_name_systematic        
N,N'-bis(p-Methylphenyl)-2,2'-(1,4-phenylenedioxy)-diacetamide
_symmetry_cell_setting           monoclinic
_symmetry_space_group_name_H-M   'P 21/c'
_symmetry_Int_Tables_number      14
_space_group_name_Hall           '-P 2ybc'
loop_
_symmetry_equiv_pos_site_id
_symmetry_equiv_pos_as_xyz
1 x,y,z
2 x,1/2-y,1/2+z
3 -x,-y,-z
4 -x,1/2+y,1/2-z
_cell_length_a                   6.8881(14)
_cell_length_b                   10.081(2)
_cell_length_c                   15.312(3)
_cell_angle_alpha                90
_cell_angle_beta                 91.68(3)
_cell_angle_gamma                90
_cell_volume                     1062.79
_exptl_crystal_colour            'light brown'
_exptl_crystal_description       block
_cell_formula_units_Z            2
_exptl_crystal_recrystallization_method DMF-ethanol
loop_
_atom_site_label
_atom_site_type_symbol
_atom_site_fract_x
_atom_site_fract_y
_atom_site_fract_z
O1 O 0.0016(2) 0.27325(18) 0.22215(13)
O2 O 0.1845(2) 0.06445(19) 0.39083(11)
N1 N -0.1010(3) 0.0744(2) 0.27399(13)
H1 H -0.067(4) 0.006(3) 0.3049(18)
C1 C -0.8208(4) -0.0246(4) 0.08341(19)
H2 H -0.8366 0.0372 0.0360
H3 H -0.9272 -0.0156 0.1221
H4 H -0.8186 -0.1133 0.0607
C2 C -0.6307(3) 0.0037(3) 0.13328(16)
C3 C -0.5740(3) -0.0719(3) 0.20499(17)
H5 H -0.650(5) -0.145(3) 0.2204(19)
C4 C -0.3999(3) -0.0467(2) 0.25098(16)
H6 H -0.365(4) -0.106(3) 0.3004(17)
C5 C -0.2784(3) 0.0550(2) 0.22422(14)
C6 C -0.3335(3) 0.1320(3) 0.15329(16)
H7 H -0.267(5) 0.209(3) 0.1380(18)
C7 C -0.5093(4) 0.1052(3) 0.10845(17)
H8 H -0.540(4) 0.160(3) 0.059(2)
C8 C 0.0216(3) 0.1777(2) 0.27050(15)
C9 C 0.1996(3) 0.1718(2) 0.33228(16)
H9 H 0.208(4) 0.259(3) 0.3593(19)
H10 H 0.318(4) 0.162(3) 0.2943(17)
C10 C 0.3455(3) 0.0362(2) 0.44476(14)
C11 C 0.3279(3) -0.0705(3) 0.49940(15)
H11 H 0.214(4) -0.121(3) 0.4958(16)
C12 C 0.5185(3) 0.1091(3) 0.44485(15)
H12 H 0.533(4) 0.189(3) 0.4108(17)
C12B C 0.4815(3) -0.1091(3) 0.55515(15)
C10B C 0.6545(3) -0.0362(2) 0.55524(14)
O2B O 0.8155(2) -0.06445(19) 0.60917(11)
C9B C 0.8004(3) -0.1718(2) 0.66772(16)
C8B C 0.9784(3) -0.1777(2) 0.72950(15)
O1B O 0.9984(2) -0.27325(18) 0.77785(13)
N1B N 1.1010(3) -0.0744(2) 0.72601(13)
H1B H 1.067(4) -0.006(3) 0.6951(18)
C5B C 1.2784(3) -0.0550(2) 0.77578(14)
C4B C 1.3999(3) 0.0467(2) 0.74902(16)
C3B C 1.5740(3) 0.0719(3) 0.79501(17)
C2B C 1.6307(3) -0.0037(3) 0.86672(16)
C1B C 1.8208(4) 0.0246(4) 0.91659(19)
H2B H 1.8366 -0.0372 0.9640
H3B H 1.9272 0.0156 0.8779
H4B H 1.8186 0.1133 0.9393
C7B C 1.5093(4) -0.1052(3) 0.89155(17)
C6B C 1.3335(3) -0.1320(3) 0.84671(16)
H7B H 1.267(5) -0.209(3) 0.8620(18)
H8B H 1.540(4) -0.160(3) 0.941(2)
H5B H 1.650(5) 0.145(3) 0.7796(19)
H6B H 1.365(4) 0.106(3) 0.6996(17)
H9B H 0.792(4) -0.259(3) 0.6407(19)
H10B H 0.682(4) -0.162(3) 0.7057(17)
C11B C 0.6721(3) 0.0705(3) 0.50060(15)
H11B H 0.786(4) 0.121(3) 0.5042(16)
H12B H 0.467(4) -0.189(3) 0.5892(17)
loop_
_geom_bond_atom_site_label_1
_geom_bond_atom_site_label_2
_geom_bond_site_symmetry_1
_geom_bond_site_symmetry_2
O1 C8 1_555 1_555
O2 C9 1_555 1_555
N1 H1 1_555 1_555
C1 H2 1_555 1_555
H3 C1 1_555 1_555
H4 C1 1_555 1_555
C2 C1 1_555 1_555
C3 C2 1_555 1_555
H5 C3 1_555 1_555
C4 C3 1_555 1_555
H6 C4 1_555 1_555
C5 N1 1_555 1_555
C6 C5 1_555 1_555
H7 C6 1_555 1_555
C7 C2 1_555 1_555
H8 C7 1_555 1_555
C8 N1 1_555 1_555
C9 C8 1_555 1_555
H9 C9 1_555 1_555
H10 C9 1_555 1_555
C10 O2 1_555 1_555
C11 C10 1_555 1_555
H11 C11 1_555 1_555
C12 C10 1_555 1_555
H12 C12 1_555 1_555
C12B C11 1_555 1_555
C10B C12B 1_555 1_555
O2B C10B 1_555 1_555
C9B O2B 1_555 1_555
C8B C9B 1_555 1_555
O1B C8B 1_555 1_555
N1B C8B 1_555 1_555
H1B N1B 1_555 1_555
C5B N1B 1_555 1_555
C4B C5B 1_555 1_555
C3B C4B 1_555 1_555
C2B C3B 1_555 1_555
C1B C2B 1_555 1_555
H2B C1B 1_555 1_555
H3B C1B 1_555 1_555
H4B C1B 1_555 1_555
C7B C2B 1_555 1_555
C6B C5B 1_555 1_555
H7B C6B 1_555 1_555
H8B C7B 1_555 1_555
H5B C3B 1_555 1_555
H6B C4B 1_555 1_555
H9B C9B 1_555 1_555
H10B C9B 1_555 1_555
C11B C12 1_555 1_555
H11B C11B 1_555 1_555
H12B C12B 1_555 1_555
C4 C5 1_555 1_555
C6 C7 1_555 1_555
C10B C11B 1_555 1_555
C7B C6B 1_555 1_555

#END
