
#######################################################################
#
#                 Cambridge Crystallographic Data Centre
#                                CCDC 
#
#######################################################################
#
# If this CIF has been generated from an entry in the Cambridge 
# Structural Database, then it will include bibliographic, chemical, 
# crystal, experimental, refinement or atomic coordinate data resulting 
# from the CCDC's data processing and validation procedures.
#
#######################################################################

data_IXAPII
_chemical_formula_moiety         'C25 H15 Cl1 O6'
_chemical_name_systematic        
3-(4-chlorophenyl)-3-(2-(2-hydroxyphenyl)-2-oxoethyl)-4H-furo[3,2-c]chromene-2,4(3H)-dione
_symmetry_cell_setting           monoclinic
_symmetry_space_group_name_H-M   'P 21/c'
_symmetry_Int_Tables_number      14
_space_group_name_Hall           '-P 2ybc'
loop_
_symmetry_equiv_pos_site_id
_symmetry_equiv_pos_as_xyz
1 x,y,z
2 -x,1/2+y,1/2-z
3 -x,-y,-z
4 x,1/2-y,1/2+z
_cell_length_a                   14.124(8)
_cell_length_b                   12.063(7)
_cell_length_c                   12.883(8)
_cell_angle_alpha                90
_cell_angle_beta                 104.898(9)
_cell_angle_gamma                90
_cell_volume                     2121.19
_exptl_crystal_colour            colorless
_exptl_crystal_description       block
_cell_formula_units_Z            4
loop_
_atom_site_label
_atom_site_type_symbol
_atom_site_fract_x
_atom_site_fract_y
_atom_site_fract_z
C1 C 0.77358(19) 1.13628(19) 0.59738(19)
H1 H 0.8162 1.1175 0.6629
C2 C 0.7189(2) 1.23229(19) 0.5867(2)
H2 H 0.7251 1.2785 0.6459
C3 C 0.65470(19) 1.26153(18) 0.4892(2)
H3 H 0.6178 1.3261 0.4842
C4 C 0.64545(16) 1.19484(15) 0.3993(2)
H4 H 0.6035 1.2150 0.3338
C5 C 0.70040(14) 1.09629(14) 0.40844(16)
C6 C 0.76371(15) 1.06788(15) 0.50798(16)
C7 C 0.69941(13) 1.01879(14) 0.32353(15)
C8 C 0.75083(13) 0.92354(13) 0.33713(14)
C9 C 0.81302(14) 0.89383(15) 0.44083(15)
C10 C 0.67119(14) 0.95255(15) 0.15570(16)
C11 C 0.73615(13) 0.86520(14) 0.22978(14)
C12 C 0.67812(12) 0.75485(13) 0.22028(14)
C13 C 0.64934(14) 0.70959(15) 0.30692(15)
H5 H 0.6615 0.7486 0.3713
C14 C 0.60265(14) 0.60691(16) 0.29893(16)
H6 H 0.5843 0.5772 0.3575
C15 C 0.58400(13) 0.55003(14) 0.20275(17)
C16 C 0.60828(16) 0.59464(17) 0.11410(17)
H7 H 0.5938 0.5565 0.0492
C17 C 0.65433(15) 0.69665(16) 0.12321(16)
H8 H 0.6698 0.7272 0.0634
C18 C 0.83237(14) 0.84537(14) 0.19585(16)
H9 H 0.8743 0.7967 0.2479
H10 H 0.8168 0.8077 0.1270
C19 C 0.88860(14) 0.95093(15) 0.18680(15)
C20 C 0.98372(14) 0.94437(14) 0.16028(15)
C21 C 1.03796(15) 1.04230(15) 0.15626(17)
C22 C 1.12671(17) 1.03703(18) 0.1281(2)
H11 H 1.1623 1.1015 0.1260
C23 C 1.16180(17) 0.93701(19) 0.10349(19)
H12 H 1.2211 0.9344 0.0848
C24 C 1.10991(15) 0.83925(18) 0.10608(18)
H13 H 1.1342 0.7720 0.0888
C25 C 1.02215(14) 0.84302(16) 0.13449(16)
H14 H 0.9878 0.7777 0.1367
Cl1 Cl 0.52970(4) 0.41836(4) 0.19303(5)
O1 O 0.81790(11) 0.97099(11) 0.52273(11)
O2 O 0.86023(12) 0.80966(12) 0.46439(12)
O3 O 0.64746(9) 1.03820(10) 0.21887(10)
O4 O 0.63984(13) 0.95312(12) 0.06059(11)
O5 O 0.85150(11) 1.04151(10) 0.19985(14)
O6 O 1.00644(12) 1.14379(11) 0.17844(16)
H15 H 0.9510 1.1385 0.1869
loop_
_geom_bond_atom_site_label_1
_geom_bond_atom_site_label_2
_geom_bond_site_symmetry_1
_geom_bond_site_symmetry_2
C1 H1 1_555 1_555
C2 C1 1_555 1_555
H2 C2 1_555 1_555
C3 C2 1_555 1_555
H3 C3 1_555 1_555
C4 C3 1_555 1_555
H4 C4 1_555 1_555
C5 C4 1_555 1_555
C6 C1 1_555 1_555
C7 C5 1_555 1_555
C8 C7 1_555 1_555
C9 C8 1_555 1_555
C10 C11 1_555 1_555
C11 C8 1_555 1_555
C12 C11 1_555 1_555
C13 C12 1_555 1_555
H5 C13 1_555 1_555
C14 C13 1_555 1_555
H6 C14 1_555 1_555
C15 C14 1_555 1_555
C16 C15 1_555 1_555
H7 C16 1_555 1_555
C17 C12 1_555 1_555
H8 C17 1_555 1_555
C18 C11 1_555 1_555
H9 C18 1_555 1_555
H10 C18 1_555 1_555
C19 C18 1_555 1_555
C20 C19 1_555 1_555
C21 C20 1_555 1_555
C22 C21 1_555 1_555
H11 C22 1_555 1_555
C23 C22 1_555 1_555
H12 C23 1_555 1_555
C24 C23 1_555 1_555
H13 C24 1_555 1_555
C25 C20 1_555 1_555
H14 C25 1_555 1_555
Cl1 C15 1_555 1_555
O1 C6 1_555 1_555
O2 C9 1_555 1_555
O3 C7 1_555 1_555
O4 C10 1_555 1_555
O5 C19 1_555 1_555
O6 C21 1_555 1_555
H15 O6 1_555 1_555
C5 C6 1_555 1_555
C9 O1 1_555 1_555
C10 O3 1_555 1_555
C16 C17 1_555 1_555
C24 C25 1_555 1_555

#END
