
#######################################################################
#
#                 Cambridge Crystallographic Data Centre
#                                CCDC 
#
#######################################################################
#
# If this CIF has been generated from an entry in the Cambridge 
# Structural Database, then it will include bibliographic, chemical, 
# crystal, experimental, refinement or atomic coordinate data resulting 
# from the CCDC's data processing and validation procedures.
#
#######################################################################

data_IXAVEJ
_chemical_formula_moiety         'C27 H26 Cl1 N1 O2 S1'
_chemical_name_systematic        
5-(4-Chlorophenyl)-8,8-dimethyl-10-(4-methylphenyl)-5,8,9,10-tetrahydro-1H-thiopyrano[3,4-b]quinoline-4,6(3H,7H)-dione
_symmetry_cell_setting           monoclinic
_symmetry_space_group_name_H-M   'P 21/n'
_symmetry_Int_Tables_number      14
_space_group_name_Hall           '-P 2yn'
loop_
_symmetry_equiv_pos_site_id
_symmetry_equiv_pos_as_xyz
1 x,y,z
2 1/2-x,1/2+y,1/2-z
3 -x,-y,-z
4 1/2+x,1/2-y,1/2+z
_cell_length_a                   14.7445(2)
_cell_length_b                   11.1680(2)
_cell_length_c                   15.5403(3)
_cell_angle_alpha                90
_cell_angle_beta                 111.7250(10)
_cell_angle_gamma                90
_cell_volume                     2377.21
_exptl_crystal_colour            colorless
_exptl_crystal_description       block
_cell_formula_units_Z            4
loop_
_atom_site_label
_atom_site_type_symbol
_atom_site_fract_x
_atom_site_fract_y
_atom_site_fract_z
S1 S 0.26033(4) 0.68332(5) 0.09228(4)
Cl1 Cl 0.56934(7) 0.14891(7) -0.01200(6)
O1 O 0.50428(9) 0.21608(11) 0.41811(9)
O2 O 0.22590(9) 0.37222(12) 0.16728(10)
C1 C 0.41051(11) 0.59699(14) 0.24525(11)
N1 N 0.50703(9) 0.60899(11) 0.30780(9)
C2 C 0.55867(11) 0.72158(14) 0.31657(12)
C3 C 0.36691(11) 0.48830(14) 0.23050(11)
C4 C 0.50817(10) 0.40689(14) 0.35643(11)
C5 C 0.42591(11) 0.37730(14) 0.26660(11)
H1 H 0.3836 0.3183 0.2799
C6 C 0.46362(11) 0.32194(14) 0.19590(12)
C7 C 0.54146(11) 0.31565(14) 0.42901(12)
C8 C 0.54985(10) 0.51638(14) 0.37065(11)
C9 C 0.69471(11) 0.43696(15) 0.50551(12)
C10 C 0.26240(11) 0.47185(16) 0.17803(12)
C11 C 0.63888(11) 0.54719(15) 0.45416(12)
H2 H 0.6191 0.5946 0.4965
H3 H 0.6823 0.5959 0.4346
C12 C 0.62058(12) 0.35004(16) 0.51843(13)
H4 H 0.6544 0.2783 0.5490
H5 H 0.5913 0.3868 0.5585
C13 C 0.54090(14) 0.81591(16) 0.36499(13)
H6 H 0.4931 0.8095 0.3905
C14 C 0.49519(14) 0.20412(17) 0.20562(14)
H7 H 0.4940 0.1597 0.2558
C15 C 0.36150(13) 0.71029(16) 0.19857(13)
H8 H 0.4090 0.7600 0.1858
H9 H 0.3386 0.7541 0.2405
C16 C 0.76685(13) 0.47458(19) 0.60043(13)
H10 H 0.7320 0.5099 0.6354
H11 H 0.8119 0.5319 0.5930
H12 H 0.8021 0.4056 0.6327
C17 C 0.52834(16) 0.15126(19) 0.14271(16)
H13 H 0.5490 0.0719 0.1502
C18 C 0.46685(18) 0.38464(18) 0.12098(16)
H14 H 0.4459 0.4639 0.1128
C19 C 0.53058(15) 0.2167(2) 0.06909(16)
C20 C 0.66702(17) 0.9306(2) 0.34145(18)
C21 C 0.74942(13) 0.37664(19) 0.45131(16)
H15 H 0.7817 0.3062 0.4837
H16 H 0.7970 0.4310 0.4450
H17 H 0.7041 0.3546 0.3910
C22 C 0.59428(16) 0.92024(18) 0.37565(16)
H18 H 0.5805 0.9847 0.4067
C23 C 0.62848(15) 0.73172(19) 0.27825(16)
H19 H 0.6391 0.6695 0.2434
C24 C 0.19942(13) 0.57954(19) 0.14008(16)
H20 H 0.1844 0.6181 0.1892
H21 H 0.1384 0.5547 0.0924
C25 C 0.7305(2) 1.0420(3) 0.3595(3)
H22 H 0.7091 1.0985 0.3945
H23 H 0.7253 1.0773 0.3015
H24 H 0.7973 1.0206 0.3939
C26 C 0.68318(17) 0.8366(2) 0.2924(2)
H25 H 0.7318 0.8429 0.2679
C27 C 0.5004(2) 0.3329(2) 0.05732(18)
H26 H 0.5023 0.3770 0.0072
loop_
_geom_bond_atom_site_label_1
_geom_bond_atom_site_label_2
_geom_bond_site_symmetry_1
_geom_bond_site_symmetry_2
S1 C15 1_555 1_555
Cl1 C19 1_555 1_555
O1 C7 1_555 1_555
O2 C10 1_555 1_555
C1 N1 1_555 1_555
N1 C2 1_555 1_555
C2 C13 1_555 1_555
C3 C1 1_555 1_555
C4 C5 1_555 1_555
C5 C3 1_555 1_555
H1 C5 1_555 1_555
C6 C5 1_555 1_555
C7 C4 1_555 1_555
C8 N1 1_555 1_555
C9 C11 1_555 1_555
C10 C3 1_555 1_555
C11 C8 1_555 1_555
H2 C11 1_555 1_555
H3 C11 1_555 1_555
C12 C7 1_555 1_555
H4 C12 1_555 1_555
H5 C12 1_555 1_555
C13 H6 1_555 1_555
C14 C6 1_555 1_555
H7 C14 1_555 1_555
C15 C1 1_555 1_555
H8 C15 1_555 1_555
H9 C15 1_555 1_555
C16 C9 1_555 1_555
H10 C16 1_555 1_555
H11 C16 1_555 1_555
H12 C16 1_555 1_555
C17 C14 1_555 1_555
H13 C17 1_555 1_555
C18 C6 1_555 1_555
H14 C18 1_555 1_555
C19 C17 1_555 1_555
C20 C22 1_555 1_555
C21 C9 1_555 1_555
H15 C21 1_555 1_555
H16 C21 1_555 1_555
H17 C21 1_555 1_555
C22 C13 1_555 1_555
H18 C22 1_555 1_555
C23 C2 1_555 1_555
H19 C23 1_555 1_555
C24 S1 1_555 1_555
H20 C24 1_555 1_555
H21 C24 1_555 1_555
C25 C20 1_555 1_555
H22 C25 1_555 1_555
H23 C25 1_555 1_555
H24 C25 1_555 1_555
C26 C20 1_555 1_555
H25 C26 1_555 1_555
C27 C18 1_555 1_555
H26 C27 1_555 1_555
C4 C8 1_555 1_555
C9 C12 1_555 1_555
C10 C24 1_555 1_555
C19 C27 1_555 1_555
C23 C26 1_555 1_555

#END
