
#######################################################################
#
#                 Cambridge Crystallographic Data Centre
#                                CCDC 
#
#######################################################################
#
# If this CIF has been generated from an entry in the Cambridge 
# Structural Database, then it will include bibliographic, chemical, 
# crystal, experimental, refinement or atomic coordinate data resulting 
# from the CCDC's data processing and validation procedures.
#
#######################################################################

data_IXAVOS
_chemical_formula_moiety         'C13 H7 Cl2 F3 N4 O1'
_chemical_name_systematic        
N-(3-Cyano-1-(2,6-dichloro-4-(trifluoromethyl)phenyl)-1H-pyrazol-5-yl)acetamide
_symmetry_cell_setting           monoclinic
_symmetry_space_group_name_H-M   'C 2/c'
_symmetry_Int_Tables_number      15
_space_group_name_Hall           '-C 2yn'
loop_
_symmetry_equiv_pos_site_id
_symmetry_equiv_pos_as_xyz
1 x,y,z
2 1/2+x,1/2+y,z
3 x,-y,1/2+z
4 1/2+x,1/2-y,1/2+z
5 -x,-y,-z
6 1/2-x,1/2-y,-z
7 -x,y,1/2-z
8 1/2-x,1/2+y,1/2-z
_cell_length_a                   18.8282(6)
_cell_length_b                   8.6541(3)
_cell_length_c                   19.0766(6)
_cell_angle_alpha                90
_cell_angle_beta                 95.5830(10)
_cell_angle_gamma                90
_cell_volume                     3093.62
_exptl_crystal_colour            colorless
_exptl_crystal_description       block
_chemical_melting_point          '477-478 K'
_cell_formula_units_Z            8
_exptl_crystal_recrystallization_method 'ethyl acetate-toluene'
loop_
_atom_site_label
_atom_site_type_symbol
_atom_site_fract_x
_atom_site_fract_y
_atom_site_fract_z
Cl1 Cl 1.01946(5) 0.58378(11) 0.11136(5)
Cl2 Cl 0.75365(5) 0.45026(11) 0.00088(6)
O1 O 0.81662(19) 0.4727(3) 0.29753(14)
N1 N 0.88236(15) 0.4100(3) 0.10069(13)
N2 N 0.89015(16) 0.2609(3) 0.08006(14)
N3 N 0.85589(17) 0.5641(3) 0.19798(14)
H1 H 0.8644 0.6456 0.1744
N4 N 0.8823(3) -0.1145(3) 0.1390(2)
F1 F 0.83902(17) 0.9102(3) -0.14120(14)
F2 F 0.94540(17) 0.8529(4) -0.14565(16)
F3 F 0.9151(3) 1.0206(3) -0.07088(16)
C1 C 0.8994(3) 0.8880(5) -0.1002(2)
C2 C 0.8945(2) 0.7617(3) -0.04721(16)
C3 C 0.95232(19) 0.7347(3) 0.00116(17)
H2 H 0.9936 0.7934 0.0006
C4 C 0.94806(18) 0.6198(3) 0.05024(16)
C5 C 0.88713(16) 0.5305(3) 0.05079(14)
C6 C 0.83010(18) 0.5599(3) 0.00141(17)
C7 C 0.8332(2) 0.6753(4) -0.04808(17)
H3 H 0.7947 0.6941 -0.0813
C8 C 0.86663(18) 0.4215(3) 0.16857(16)
C9 C 0.8647(2) 0.2742(3) 0.19370(17)
H4 H 0.8558 0.2425 0.2386
C10 C 0.87919(19) 0.1825(3) 0.13742(17)
C11 C 0.8817(2) 0.0160(4) 0.1367(2)
C12 C 0.8322(2) 0.5814(4) 0.26343(17)
C13 C 0.8274(2) 0.7454(4) 0.2878(2)
H5 H 0.8107 0.7472 0.3337
H6 H 0.7948 0.8015 0.2554
H7 H 0.8738 0.7924 0.2899
loop_
_geom_bond_atom_site_label_1
_geom_bond_atom_site_label_2
_geom_bond_site_symmetry_1
_geom_bond_site_symmetry_2
Cl1 C4 1_555 1_555
Cl2 C6 1_555 1_555
O1 C12 1_555 1_555
N1 N2 1_555 1_555
N2 C10 1_555 1_555
N3 H1 1_555 1_555
N4 C11 1_555 1_555
F1 C1 1_555 1_555
F2 C1 1_555 1_555
F3 C1 1_555 1_555
C1 C2 1_555 1_555
C2 C3 1_555 1_555
C3 H2 1_555 1_555
C4 C3 1_555 1_555
C5 N1 1_555 1_555
C6 C5 1_555 1_555
C7 C2 1_555 1_555
H3 C7 1_555 1_555
C8 N1 1_555 1_555
C9 C8 1_555 1_555
H4 C9 1_555 1_555
C10 C9 1_555 1_555
C11 C10 1_555 1_555
C12 N3 1_555 1_555
C13 C12 1_555 1_555
H5 C13 1_555 1_555
H6 C13 1_555 1_555
H7 C13 1_555 1_555
N3 C8 1_555 1_555
C4 C5 1_555 1_555
C6 C7 1_555 1_555

#END
