
#######################################################################
#
#                 Cambridge Crystallographic Data Centre
#                                CCDC 
#
#######################################################################
#
# If this CIF has been generated from an entry in the Cambridge 
# Structural Database, then it will include bibliographic, chemical, 
# crystal, experimental, refinement or atomic coordinate data resulting 
# from the CCDC's data processing and validation procedures.
#
#######################################################################

data_IXAWUA
_chemical_name_common            
trans-2-ethoxycarbonyl-3-phenyl-1-(4-toluenesulfonyl)azetidine
_chemical_formula_moiety         'C19 H21 N1 O4 S1'
_chemical_name_systematic        
'Ethyl 1-((4-methylphenyl)sulfonyl)-3-phenylazetidine-2-carboxylate'
_symmetry_cell_setting           monoclinic
_symmetry_space_group_name_H-M   'P 21/c'
_symmetry_Int_Tables_number      14
_space_group_name_Hall           '-P 2ybc'
loop_
_symmetry_equiv_pos_site_id
_symmetry_equiv_pos_as_xyz
1 x,y,z
2 -x,1/2+y,1/2-z
3 -x,-y,-z
4 x,1/2-y,1/2+z
_cell_length_a                   15.560(3)
_cell_length_b                   7.2273(12)
_cell_length_c                   16.660(3)
_cell_angle_alpha                90
_cell_angle_beta                 100.021(3)
_cell_angle_gamma                90
_cell_volume                     1844.95
_exptl_crystal_colour            colorless
_exptl_crystal_description       needle
_cell_formula_units_Z            4
loop_
_atom_site_label
_atom_site_type_symbol
_atom_site_fract_x
_atom_site_fract_y
_atom_site_fract_z
N1 N 0.23708(16) 0.4741(3) 0.28106(13)
O1 O 0.26081(16) 0.1400(3) 0.29368(14)
O2 O 0.36218(17) 0.3575(4) 0.37655(12)
O3 O 0.05683(17) 0.3607(5) 0.26786(18)
O4 O 0.03683(15) 0.4220(4) 0.13548(17)
S1 S 0.30866(5) 0.30757(10) 0.30132(4)
C1 C 0.17285(17) 0.4828(4) 0.20455(16)
H1 H 0.1962 0.4317 0.1583
C2 C 0.18003(18) 0.6973(4) 0.20850(16)
H2 H 0.1339 0.7471 0.2355
C3 C 0.2636(2) 0.6700(4) 0.27168(18)
H3 H 0.3169 0.6833 0.2495
H4 H 0.2656 0.7440 0.3206
C4 C 0.0835(2) 0.4090(4) 0.2088(2)
C5 C 0.18222(16) 0.8031(4) 0.13170(16)
C6 C 0.24439(19) 0.7710(4) 0.08302(19)
H5 H 0.2870 0.6813 0.0980
C7 C 0.2436(2) 0.8715(5) 0.01245(19)
H6 H 0.2858 0.8491 -0.0195
C8 C 0.1818(2) 1.0024(5) -0.0109(2)
H7 H 0.1814 1.0689 -0.0587
C9 C 0.1204(2) 1.0355(5) 0.0366(2)
H8 H 0.0783 1.1262 0.0214
C10 C 0.12006(18) 0.9358(4) 0.10691(18)
H9 H 0.0771 0.9586 0.1381
C11 C 0.37503(17) 0.3098(3) 0.22521(16)
C12 C 0.45355(19) 0.4017(4) 0.23799(19)
H10 H 0.4718 0.4661 0.2863
C13 C 0.50505(19) 0.3976(4) 0.1783(2)
H11 H 0.5581 0.4602 0.1869
C14 C 0.47951(18) 0.3026(4) 0.10613(19)
C15 C 0.39945(18) 0.2159(4) 0.09445(18)
H12 H 0.3800 0.1555 0.0454
C16 C 0.34753(17) 0.2160(4) 0.15308(17)
H13 H 0.2944 0.1536 0.1444
C17 C 0.5384(2) 0.2883(5) 0.0436(2)
H14 H 0.5705 0.1743 0.0512
H15 H 0.5785 0.3905 0.0499
H16 H 0.5039 0.2911 -0.0100
C18 C -0.0590(4) 0.4142(13) 0.1395(5)
H17 H -0.0795 0.2873 0.1375
H18 H -0.0706 0.4715 0.1892
C19 C -0.0999(8) 0.5147(18) 0.0697(8)
H19 H -0.0820 0.6418 0.0749
H20 H -0.1621 0.5073 0.0655
H21 H -0.0832 0.4626 0.0217
C20? C -0.0500(5) 0.3342(15) 0.1005(9)
C21? C -0.1116(12) 0.499(2) 0.1009(17)
H22? H -0.0644 0.2343 0.1347
H23? H -0.0506 0.2882 0.0457
H24? H -0.1100 0.5399 0.1559
H25? H -0.1700 0.4619 0.0778
H26? H -0.0935 0.5977 0.0692
loop_
_geom_bond_atom_site_label_1
_geom_bond_atom_site_label_2
_geom_bond_site_symmetry_1
_geom_bond_site_symmetry_2
N1 S1 1_555 1_555
O1 S1 1_555 1_555
O2 S1 1_555 1_555
O3 C4 1_555 1_555
O4 C4 1_555 1_555
S1 C11 1_555 1_555
C1 N1 1_555 1_555
H1 C1 1_555 1_555
C2 C1 1_555 1_555
H2 C2 1_555 1_555
C3 N1 1_555 1_555
H3 C3 1_555 1_555
H4 C3 1_555 1_555
C4 C1 1_555 1_555
C5 C2 1_555 1_555
C6 C5 1_555 1_555
H5 C6 1_555 1_555
C7 C6 1_555 1_555
H6 C7 1_555 1_555
C8 C7 1_555 1_555
H7 C8 1_555 1_555
C9 C8 1_555 1_555
H8 C9 1_555 1_555
C10 C5 1_555 1_555
H9 C10 1_555 1_555
C11 C12 1_555 1_555
C12 H10 1_555 1_555
C13 C12 1_555 1_555
H11 C13 1_555 1_555
C14 C13 1_555 1_555
C15 C14 1_555 1_555
H12 C15 1_555 1_555
C16 C11 1_555 1_555
H13 C16 1_555 1_555
C17 C14 1_555 1_555
H14 C17 1_555 1_555
H15 C17 1_555 1_555
H16 C17 1_555 1_555
C18 O4 1_555 1_555
H17 C18 1_555 1_555
H18 C18 1_555 1_555
C19 C18 1_555 1_555
H19 C19 1_555 1_555
H20 C19 1_555 1_555
H21 C19 1_555 1_555
C2 C3 1_555 1_555
C9 C10 1_555 1_555
C15 C16 1_555 1_555

#END
