
#######################################################################
#
#                 Cambridge Crystallographic Data Centre
#                                CCDC 
#
#######################################################################
#
# If this CIF has been generated from an entry in the Cambridge 
# Structural Database, then it will include bibliographic, chemical, 
# crystal, experimental, refinement or atomic coordinate data resulting 
# from the CCDC's data processing and validation procedures.
#
#######################################################################

data_IXEBIY
_chemical_formula_moiety         'C20 H18 N6 4+,4(C2 H3 O2 1-)'
_chemical_name_systematic        
"3,3'-(diazenediyl)di(4,4'-bipyridin-1-ium) tetrakis(acetate)"
_symmetry_cell_setting           monoclinic
_symmetry_space_group_name_H-M   'P 21/c'
_symmetry_Int_Tables_number      14
_space_group_name_Hall           '-P 2ybc'
loop_
_symmetry_equiv_pos_site_id
_symmetry_equiv_pos_as_xyz
1 x,y,z
2 -x,1/2+y,1/2-z
3 -x,-y,-z
4 x,1/2-y,1/2+z
_cell_length_a                   8.7616(2)
_cell_length_b                   22.2715(5)
_cell_length_c                   7.7960(2)
_cell_angle_alpha                90
_cell_angle_beta                 100.455(2)
_cell_angle_gamma                90
_cell_volume                     1496.01
_exptl_crystal_colour            'orange yellow'
_exptl_crystal_description       block
_cell_formula_units_Z            2
loop_
_atom_site_label
_atom_site_type_symbol
_atom_site_fract_x
_atom_site_fract_y
_atom_site_fract_z
N1 N -0.93468(18) 0.50101(8) 0.9777(2)
C1 C -0.9373(2) 0.52748(10) 0.8110(3)
C2 C -0.6908(2) 0.47146(11) 0.7887(3)
C3 C -1.0501(3) 0.56857(11) 0.7404(3)
H1 H -1.1321 0.5756 0.7986
C4 C -0.8136(2) 0.51586(10) 0.7248(3)
N2 N -1.0467(2) 0.59822(9) 0.5942(3)
H2 H -1.1184 0.6235 0.5535
C5 C -0.8132(3) 0.54795(12) 0.5713(3)
H3 H -0.7335 0.5422 0.5088
C6 C -0.7219(3) 0.41656(11) 0.8589(3)
H4 H -0.8233 0.4060 0.8660
C7 C -0.5367(3) 0.48348(12) 0.7765(3)
H5 H -0.5101 0.5193 0.7284
C8 C -0.9291(3) 0.58775(12) 0.5122(4)
H6 H -0.9256 0.6086 0.4096
N3 N -0.4554(2) 0.39051(11) 0.9089(3)
H7 H -0.3823 0.3658 0.9494
C9 C -0.4246(3) 0.44135(14) 0.8370(4)
H8 H -0.3225 0.4493 0.8264
C10 C -0.6020(3) 0.37806(13) 0.9175(4)
H9 H -0.6242 0.3416 0.9655
N1B N -1.06532(18) 0.49899(8) 1.0223(2)
C1B C -1.0627(2) 0.47252(10) 1.1890(3)
C2B C -1.3092(2) 0.52854(11) 1.2113(3)
C3B C -0.9499(3) 0.43143(11) 1.2596(3)
H1B H -0.8679 0.4244 1.2014
C4B C -1.1864(2) 0.48414(10) 1.2752(3)
N2B N -0.9533(2) 0.40178(9) 1.4058(3)
H2B H -0.8816 0.3765 1.4465
C5B C -1.1868(3) 0.45205(12) 1.4287(3)
H3B H -1.2665 0.4578 1.4912
C6B C -1.2781(3) 0.58344(11) 1.1411(3)
H4B H -1.1767 0.5940 1.1340
C7B C -1.4633(3) 0.51652(12) 1.2235(3)
H5B H -1.4899 0.4807 1.2716
C8B C -1.0709(3) 0.41225(12) 1.4878(4)
H6B H -1.0744 0.3914 1.5904
N3B N -1.5446(2) 0.60949(11) 1.0911(3)
H7B H -1.6177 0.6342 1.0506
C9B C -1.5754(3) 0.55865(14) 1.1630(4)
H8B H -1.6775 0.5507 1.1736
C10B C -1.3980(3) 0.62194(13) 1.0825(4)
H9B H -1.3758 0.6584 1.0345
O1 O 0.2289(2) 0.68307(9) -0.0573(3)
O2 O 0.0856(2) 0.64447(10) 0.1183(3)
C11 C -0.0173(3) 0.72492(15) -0.0641(5)
H10 H -0.1060 0.7207 -0.0087
H11 H -0.0476 0.7179 -0.1871
H12 H 0.0239 0.7648 -0.0450
C12 C 0.1028(3) 0.68081(13) 0.0105(4)
O3 O -0.4131(3) 0.60889(14) 0.6332(4)
O4 O -0.2945(2) 0.67519(9) 0.5056(3)
C13 C -0.4143(3) 0.65578(15) 0.5628(4)
C14 C -0.5556(4) 0.69492(17) 0.5250(6)
H13 H -0.6381 0.6768 0.5727
H14 H -0.5870 0.6993 0.4011
H15 H -0.5320 0.7337 0.5769
loop_
_geom_bond_atom_site_label_1
_geom_bond_atom_site_label_2
_geom_bond_site_symmetry_1
_geom_bond_site_symmetry_2
N1 C1 1_555 1_555
C1 C3 1_555 1_555
C2 C4 1_555 1_555
C3 H1 1_555 1_555
C4 C1 1_555 1_555
N2 C3 1_555 1_555
H2 N2 1_555 1_555
C5 C4 1_555 1_555
H3 C5 1_555 1_555
C6 C2 1_555 1_555
H4 C6 1_555 1_555
C7 C2 1_555 1_555
H5 C7 1_555 1_555
C8 N2 1_555 1_555
H6 C8 1_555 1_555
N3 H7 1_555 1_555
C9 C7 1_555 1_555
H8 C9 1_555 1_555
C10 C6 1_555 1_555
H9 C10 1_555 1_555
O1 C12 1_555 1_555
O2 C12 1_555 1_555
C11 H10 1_555 1_555
H11 C11 1_555 1_555
H12 C11 1_555 1_555
C12 C11 1_555 1_555
O3 C13 1_555 1_555
O4 C13 1_555 1_555
C13 C14 1_555 1_555
C14 H13 1_555 1_555
H14 C14 1_555 1_555
H15 C14 1_555 1_555
N1B N1 1_555 1_555
C1B N1B 1_555 1_555
C2B C4B 1_555 1_555
C3B C1B 1_555 1_555
H1B C3B 1_555 1_555
C4B C1B 1_555 1_555
N2B C3B 1_555 1_555
H2B N2B 1_555 1_555
C5B C4B 1_555 1_555
H3B C5B 1_555 1_555
C6B C2B 1_555 1_555
H4B C6B 1_555 1_555
C7B C2B 1_555 1_555
H5B C7B 1_555 1_555
C8B N2B 1_555 1_555
H6B C8B 1_555 1_555
N3B H7B 1_555 1_555
C9B C7B 1_555 1_555
H8B C9B 1_555 1_555
C10B C6B 1_555 1_555
H9B C10B 1_555 1_555
C5 C8 1_555 1_555
N3 C9 1_555 1_555
N3 C10 1_555 1_555
C5B C8B 1_555 1_555
N3B C9B 1_555 1_555
N3B C10B 1_555 1_555

#END
