
#######################################################################
#
#                 Cambridge Crystallographic Data Centre
#                                CCDC 
#
#######################################################################
#
# If this CIF has been generated from an entry in the Cambridge 
# Structural Database, then it will include bibliographic, chemical, 
# crystal, experimental, refinement or atomic coordinate data resulting 
# from the CCDC's data processing and validation procedures.
#
#######################################################################

data_IXEKEB
_chemical_formula_moiety         'C50 H36 O4,C8 H4 N2'
_chemical_name_systematic        
'syn-8,21-bis(Acetoxy)-5,7,10,12,17,19,22,24-octahydro-5,24:7,22:10,19:12,17-tetramethanodecacene 1,4-dicyanobenzene clathrate'
_symmetry_cell_setting           monoclinic
_symmetry_space_group_name_H-M   'P 21/n'
_symmetry_Int_Tables_number      14
_space_group_name_Hall           '-P 2yn'
loop_
_symmetry_equiv_pos_site_id
_symmetry_equiv_pos_as_xyz
1 x,y,z
2 1/2+x,1/2-y,1/2+z
3 -x,-y,-z
4 1/2-x,1/2+y,1/2-z
_cell_length_a                   19.1741(14)
_cell_length_b                   12.3870(9)
_cell_length_c                   19.3916(14)
_cell_angle_alpha                90
_cell_angle_beta                 113.5550(10)
_cell_angle_gamma                90
_cell_volume                     4221.93
_exptl_crystal_colour            colorless
_exptl_crystal_description       rod
_cell_formula_units_Z            4
_exptl_crystal_recrystallization_method chloroform/methanol
loop_
_atom_site_label
_atom_site_type_symbol
_atom_site_fract_x
_atom_site_fract_y
_atom_site_fract_z
O1 O 0.39931(6) 0.04357(8) 0.61085(6)
O2 O 0.37042(5) 0.49316(8) 0.59358(5)
O3 O 0.52689(7) 0.03422(9) 0.67317(7)
O4 O 0.26789(7) 0.47786(10) 0.48489(7)
C1 C 0.39808(8) 0.15747(12) 0.60911(8)
C2 C 0.43596(8) 0.21759(12) 0.57659(8)
C3 C 0.49237(8) 0.19411(13) 0.54028(8)
H1 H 0.4958 0.1207 0.5261
C4 C 0.56709(8) 0.24799(13) 0.59149(8)
C5 C 0.63600(8) 0.20485(13) 0.64013(8)
H2 H 0.6437 0.1283 0.6461
C6 C 0.69283(8) 0.27777(13) 0.68010(8)
C7 C 0.77242(8) 0.26173(13) 0.74193(9)
H3 H 0.7960 0.1928 0.7439
C8 C 0.76471(8) 0.29973(13) 0.81378(9)
C9 C 0.76249(8) 0.24517(14) 0.87481(9)
H4 H 0.7690 0.1683 0.8783
C10 C 0.75179(9) 0.30353(16) 0.93066(9)
H5 H 0.7502 0.2668 0.9736
C11 C 0.74279(9) 0.41408(15) 0.92517(9)
H6 H 0.7370 0.4530 0.9654
C12 C 0.74257(9) 0.46943(14) 0.86235(9)
H7 H 0.7345 0.5460 0.8573
C13 C 0.75391(8) 0.41138(13) 0.80736(8)
C14 C 0.75294(8) 0.44229(13) 0.73048(8)
H8 H 0.7603 0.5172 0.7227
C15 C 0.68062(8) 0.38920(13) 0.67278(8)
C16 C 0.61099(8) 0.43228(13) 0.62619(8)
H9 H 0.6017 0.5086 0.6230
C17 C 0.55492(8) 0.35893(13) 0.58491(8)
C18 C 0.47172(8) 0.37465(13) 0.53044(8)
H10 H 0.4580 0.4449 0.5083
C19 C 0.42445(8) 0.33080(12) 0.57084(8)
C20 C 0.37796(8) 0.38011(12) 0.59844(8)
C21 C 0.33988(8) 0.32006(12) 0.63539(7)
C22 C 0.29504(8) 0.37063(12) 0.66953(7)
H11 H 0.2889 0.4476 0.6672
C23 C 0.26077(8) 0.30927(12) 0.70523(8)
C24 C 0.21392(8) 0.33647(13) 0.75117(8)
H12 H 0.1917 0.4072 0.7443
C25 C 0.26539(8) 0.30334(12) 0.83199(8)
C26 C 0.30830(8) 0.36360(12) 0.89553(8)
H13 H 0.3057 0.4409 0.8957
C27 C 0.35522(8) 0.30662(13) 0.95906(8)
C28 C 0.41466(8) 0.34345(13) 1.03595(8)
H14 H 0.4092 0.4153 1.0516
C29 C 0.49175(9) 0.31344(13) 1.03469(8)
C30 C 0.55144(9) 0.37351(13) 1.03235(8)
H15 H 0.5507 0.4508 1.0354
C31 C 0.61216(9) 0.31976(15) 1.02580(9)
H16 H 0.6537 0.3607 1.0235
C32 C 0.61364(9) 0.20850(15) 1.02264(9)
H17 H 0.6559 0.1733 1.0173
C33 C 0.55470(9) 0.14736(14) 1.02692(8)
H18 H 0.5556 0.0700 1.0256
C34 C 0.49442(9) 0.20055(13) 1.03333(8)
C35 C 0.41950(8) 0.16040(13) 1.03457(8)
H19 H 0.4181 0.0867 1.0491
C36 C 0.35955(8) 0.19432(13) 0.95850(8)
C37 C 0.31873(8) 0.13410(12) 0.89456(8)
H20 H 0.3239 0.0571 0.8937
C38 C 0.27058(8) 0.19123(12) 0.83189(8)
C39 C 0.22315(8) 0.15375(12) 0.75137(8)
H21 H 0.2082 0.0793 0.7447
C40 C 0.26735(8) 0.19514(12) 0.70651(8)
C41 C 0.31032(8) 0.14424(12) 0.67509(7)
H22 H 0.3143 0.0670 0.6767
C42 C 0.34917(8) 0.20597(12) 0.63963(7)
C43 C 0.81280(9) 0.36148(13) 0.72714(9)
H23 H 0.8153 0.3594 0.6786
H24 H 0.8626 0.3736 0.7657
C44 C 0.46417(9) 0.27936(13) 0.47671(8)
H25 H 0.4129 0.2672 0.4413
H26 H 0.4975 0.2864 0.4509
C45 C 0.15888(8) 0.23903(12) 0.72862(8)
H27 H 0.1267 0.2377 0.6758
H28 H 0.1287 0.2338 0.7578
C46 C 0.40731(9) 0.24820(13) 1.08494(8)
H29 H 0.3583 0.2442 1.0874
H30 H 0.4468 0.2487 1.1348
C47 C 0.46654(11) -0.00927(13) 0.64805(10)
C48 C 0.45181(11) -0.12659(14) 0.65223(13)
H31 H 0.4992 -0.1663 0.6671
H32 H 0.4165 -0.1515 0.6032
H33 H 0.4299 -0.1383 0.6889
C49 C 0.31387(9) 0.53394(13) 0.53022(9)
C50 C 0.32042(9) 0.65288(12) 0.52739(9)
H34 H 0.3542 0.6711 0.5028
H35 H 0.3410 0.6815 0.5782
H36 H 0.2705 0.6839 0.4994
C51 C 0.49450(9) 0.20983(14) 0.81818(9)
C52 C 0.54833(9) 0.23063(14) 0.78814(9)
H37 H 0.5764 0.1724 0.7787
C53 C 0.56068(10) 0.33515(15) 0.77297(9)
H38 H 0.5972 0.3509 0.7520
C54 C 0.52093(10) 0.41895(15) 0.78740(9)
C55 C 0.46937(9) 0.39818(16) 0.81968(9)
H39 H 0.4432 0.4570 0.8312
C56 C 0.45647(9) 0.29313(16) 0.83489(9)
H40 H 0.4209 0.2778 0.8572
C57 C 0.47650(10) 0.09933(18) 0.82769(9)
C58 C 0.53213(11) 0.52712(18) 0.76665(10)
N1 N 0.46079(9) 0.01116(15) 0.83163(9)
N2 N 0.54092(12) 0.61225(15) 0.74795(10)
loop_
_geom_bond_atom_site_label_1
_geom_bond_atom_site_label_2
_geom_bond_site_symmetry_1
_geom_bond_site_symmetry_2
O1 C1 1_555 1_555
O2 C20 1_555 1_555
O3 C47 1_555 1_555
O4 C49 1_555 1_555
C1 C2 1_555 1_555
C2 C3 1_555 1_555
C3 H1 1_555 1_555
C4 C3 1_555 1_555
C5 C4 1_555 1_555
H2 C5 1_555 1_555
C6 C5 1_555 1_555
C7 C6 1_555 1_555
H3 C7 1_555 1_555
C8 C7 1_555 1_555
C9 C8 1_555 1_555
H4 C9 1_555 1_555
C10 C9 1_555 1_555
H5 C10 1_555 1_555
C11 C10 1_555 1_555
H6 C11 1_555 1_555
C12 C11 1_555 1_555
H7 C12 1_555 1_555
C13 C8 1_555 1_555
C14 C13 1_555 1_555
H8 C14 1_555 1_555
C15 C6 1_555 1_555
C16 C15 1_555 1_555
H9 C16 1_555 1_555
C17 C4 1_555 1_555
C18 C17 1_555 1_555
H10 C18 1_555 1_555
C19 C2 1_555 1_555
C20 C19 1_555 1_555
C21 C20 1_555 1_555
C22 C21 1_555 1_555
H11 C22 1_555 1_555
C23 C22 1_555 1_555
C24 C23 1_555 1_555
H12 C24 1_555 1_555
C25 C24 1_555 1_555
C26 C25 1_555 1_555
H13 C26 1_555 1_555
C27 C26 1_555 1_555
C28 C27 1_555 1_555
H14 C28 1_555 1_555
C29 C28 1_555 1_555
C30 C29 1_555 1_555
H15 C30 1_555 1_555
C31 C30 1_555 1_555
H16 C31 1_555 1_555
C32 C31 1_555 1_555
H17 C32 1_555 1_555
C33 C32 1_555 1_555
H18 C33 1_555 1_555
C34 C29 1_555 1_555
C35 C34 1_555 1_555
H19 C35 1_555 1_555
C36 C27 1_555 1_555
C37 C36 1_555 1_555
H20 C37 1_555 1_555
C38 C25 1_555 1_555
C39 C38 1_555 1_555
H21 C39 1_555 1_555
C40 C23 1_555 1_555
C41 C40 1_555 1_555
H22 C41 1_555 1_555
C42 C1 1_555 1_555
C43 C7 1_555 1_555
H23 C43 1_555 1_555
H24 C43 1_555 1_555
C44 C3 1_555 1_555
H25 C44 1_555 1_555
H26 C44 1_555 1_555
C45 C24 1_555 1_555
H27 C45 1_555 1_555
H28 C45 1_555 1_555
C46 C28 1_555 1_555
H29 C46 1_555 1_555
H30 C46 1_555 1_555
C47 O1 1_555 1_555
C48 C47 1_555 1_555
H31 C48 1_555 1_555
H32 C48 1_555 1_555
H33 C48 1_555 1_555
C49 O2 1_555 1_555
C50 C49 1_555 1_555
H34 C50 1_555 1_555
H35 C50 1_555 1_555
H36 C50 1_555 1_555
C51 C52 1_555 1_555
C52 H37 1_555 1_555
C53 C52 1_555 1_555
H38 C53 1_555 1_555
C54 C53 1_555 1_555
C55 C54 1_555 1_555
H39 C55 1_555 1_555
C56 C51 1_555 1_555
H40 C56 1_555 1_555
C57 C51 1_555 1_555
C58 C54 1_555 1_555
N1 C57 1_555 1_555
N2 C58 1_555 1_555
C12 C13 1_555 1_555
C14 C15 1_555 1_555
C14 C43 1_555 1_555
C16 C17 1_555 1_555
C18 C19 1_555 1_555
C18 C44 1_555 1_555
C21 C42 1_555 1_555
C33 C34 1_555 1_555
C35 C36 1_555 1_555
C35 C46 1_555 1_555
C37 C38 1_555 1_555
C39 C40 1_555 1_555
C39 C45 1_555 1_555
C41 C42 1_555 1_555
C55 C56 1_555 1_555

#END
