
#######################################################################
#
#                 Cambridge Crystallographic Data Centre
#                                CCDC 
#
#######################################################################
#
# If this CIF has been generated from an entry in the Cambridge 
# Structural Database, then it will include bibliographic, chemical, 
# crystal, experimental, refinement or atomic coordinate data resulting 
# from the CCDC's data processing and validation procedures.
#
#######################################################################

data_IXEKOL01
_chemical_formula_moiety         'C21 H18 O3'
_chemical_name_systematic        3,5-bis(benzyloxy)benzaldehyde
_symmetry_cell_setting           monoclinic
_symmetry_space_group_name_H-M   'P 21/c'
_symmetry_Int_Tables_number      14
_space_group_name_Hall           '-P 2ybc'
loop_
_symmetry_equiv_pos_site_id
_symmetry_equiv_pos_as_xyz
1 x,y,z
2 -x,1/2+y,1/2-z
3 -x,-y,-z
4 x,1/2-y,1/2+z
_cell_length_a                   5.2062(4)
_cell_length_b                   31.581(4)
_cell_length_c                   10.4251(5)
_cell_angle_alpha                90
_cell_angle_beta                 99.259(5)
_cell_angle_gamma                90
_cell_volume                     1691.73
_exptl_crystal_colour            colorless
_exptl_crystal_description       blocks
_cell_formula_units_Z            4
loop_
_atom_site_label
_atom_site_type_symbol
_atom_site_fract_x
_atom_site_fract_y
_atom_site_fract_z
C1 C 0.1374(9) 0.2469(2) 0.5524(5)
C2 C 0.2679(9) 0.2144(2) 0.4968(5)
H1 H 0.2409 0.1860 0.5147
C3 C 0.4388(9) 0.2265(2) 0.4138(5)
C4 C 0.4754(10) 0.2686(2) 0.3854(5)
H2 H 0.5917 0.2761 0.3302
C5 C 0.3396(10) 0.2993(2) 0.4388(5)
C6 C 0.1736(11) 0.2890(2) 0.5262(5)
H3 H 0.0891 0.3101 0.5658
C7 C -0.0404(11) 0.2349(3) 0.6441(6)
H4 H -0.1190 0.2567 0.6833
O1 O -0.0914(8) 0.19925(18) 0.6719(4)
O2 O 0.5866(7) 0.19845(14) 0.3565(4)
C8 C 0.5688(13) 0.1550(2) 0.3922(7)
H5 H 0.3925 0.1449 0.3647
H6 H 0.6095 0.1522 0.4859
C9 C 0.7544(11) 0.1287(2) 0.3298(6)
C10 C 0.9088(16) 0.0988(2) 0.4022(8)
H7 H 0.9057 0.0959 0.4907
C11 C 1.0700(18) 0.0731(3) 0.3403(11)
H8 H 1.1721 0.0526 0.3883
C12 C 1.0805(16) 0.0774(3) 0.2115(10)
H9 H 1.1897 0.0603 0.1714
C13 C 0.9326(17) 0.1062(3) 0.1446(8)
H10 H 0.9406 0.1095 0.0567
C14 C 0.7664(14) 0.1317(3) 0.2007(7)
H11 H 0.6615 0.1512 0.1498
O3 O 0.3567(8) 0.34165(15) 0.4158(4)
C15 C 0.5034(12) 0.3554(2) 0.3187(6)
H12 H 0.4446 0.3406 0.2378
H13 H 0.6862 0.3490 0.3461
C16 C 0.4684(11) 0.40169(13) 0.2988(5)
C17 C 0.2290(10) 0.4216(2) 0.2944(9)
H14 H 0.0904 0.4070 0.3199
C18 C 0.1967(15) 0.4632(2) 0.2518(10)
H15 H 0.0365 0.4765 0.2489
C19 C 0.404(2) 0.48500(17) 0.2137(9)
H16 H 0.3822 0.5129 0.1852
C20 C 0.6433(17) 0.4651(2) 0.2181(10)
H17 H 0.7819 0.4797 0.1926
C21 C 0.6756(11) 0.4235(2) 0.2607(9)
H18 H 0.8358 0.4102 0.2636
C22? C 0.464(3) 0.4261(2) 0.4095(5)
H19? H 0.4861 0.4133 0.4908
C23? C 0.428(3) 0.4697(2) 0.3989(7)
H20? H 0.4125 0.4856 0.4722
C24? C 0.415(3) 0.48934(14) 0.2788(9)
H21? H 0.4060 0.5187 0.2726
C25? C 0.417(3) 0.4650(2) 0.1678(7)
H22? H 0.4007 0.4779 0.0868
C26? C 0.442(3) 0.4212(2) 0.1779(5)
H23? H 0.4414 0.4050 0.1034
loop_
_geom_bond_atom_site_label_1
_geom_bond_atom_site_label_2
_geom_bond_site_symmetry_1
_geom_bond_site_symmetry_2
C1 C2 1_555 1_555
C2 H1 1_555 1_555
C3 C2 1_555 1_555
C4 C3 1_555 1_555
H2 C4 1_555 1_555
C5 C4 1_555 1_555
C6 C1 1_555 1_555
H3 C6 1_555 1_555
C7 C1 1_555 1_555
H4 C7 1_555 1_555
O1 C7 1_555 1_555
O2 C3 1_555 1_555
C8 O2 1_555 1_555
H5 C8 1_555 1_555
H6 C8 1_555 1_555
C9 C8 1_555 1_555
C10 C9 1_555 1_555
H7 C10 1_555 1_555
C11 C10 1_555 1_555
H8 C11 1_555 1_555
C12 C11 1_555 1_555
H9 C12 1_555 1_555
C13 C12 1_555 1_555
H10 C13 1_555 1_555
C14 C9 1_555 1_555
H11 C14 1_555 1_555
O3 C5 1_555 1_555
C15 O3 1_555 1_555
H12 C15 1_555 1_555
H13 C15 1_555 1_555
C16 C15 1_555 1_555
C17 C16 1_555 1_555
H14 C17 1_555 1_555
C18 C17 1_555 1_555
H15 C18 1_555 1_555
C19 C18 1_555 1_555
H16 C19 1_555 1_555
C20 C19 1_555 1_555
H17 C20 1_555 1_555
C21 C16 1_555 1_555
H18 C21 1_555 1_555
C5 C6 1_555 1_555
C13 C14 1_555 1_555
C20 C21 1_555 1_555

#END
