
#######################################################################
#
#                 Cambridge Crystallographic Data Centre
#                                CCDC 
#
#######################################################################
#
# If this CIF has been generated from an entry in the Cambridge 
# Structural Database, then it will include bibliographic, chemical, 
# crystal, experimental, refinement or atomic coordinate data resulting 
# from the CCDC's data processing and validation procedures.
#
#######################################################################

data_IXEPOQ
_chemical_formula_moiety         'C45 H58 O5,C1 H1 Cl3,3(H2 O1)'
_chemical_name_systematic        
'7,13,19,25-Tetra-t-butyl-27,28,29,30-tetrahydroxy-2,3-dihomo-3-oxacalix(4)arene chloroform solvate trihydrate'
_symmetry_cell_setting           triclinic
_symmetry_space_group_name_H-M   'P -1'
_symmetry_Int_Tables_number      2
_space_group_name_Hall           '-P 1'
loop_
_symmetry_equiv_pos_site_id
_symmetry_equiv_pos_as_xyz
1 x,y,z
2 -x,-y,-z
_cell_length_a                   9.5478(19)
_cell_length_b                   15.435(3)
_cell_length_c                   17.874(4)
_cell_angle_alpha                73.19(3)
_cell_angle_beta                 75.06(3)
_cell_angle_gamma                72.90(3)
_cell_volume                     2366.71
_exptl_crystal_colour            colorless
_exptl_crystal_description       prism
_cell_formula_units_Z            2
loop_
_atom_site_label
_atom_site_type_symbol
_atom_site_fract_x
_atom_site_fract_y
_atom_site_fract_z
Cl1 Cl 0.43606(15) 0.34513(14) 0.23947(12)
Cl2 Cl 0.74182(18) 0.25639(12) 0.19197(11)
Cl3 Cl 0.6609(2) 0.45047(11) 0.18475(10)
C1 C 0.6193(4) 0.3443(3) 0.2353(2)
H5 H 0.6344 0.3316 0.2900
O1 O 0.3279(3) 0.41211(16) 0.44633(15)
H1 H 0.3926 0.3633 0.4504
O3 O 0.0634(3) 0.40256(18) 0.40839(15)
H2 H 0.09070 0.347536 0.409052
O5 O 0.1539(3) 0.21300(18) 0.41737(14)
H3 H 0.1279 0.2696 0.4124
O7 O 0.4228(2) 0.19955(16) 0.45888(15)
H4 H 0.4424 0.2487 0.4564
O8 O 0.6356(2) 0.31430(14) 0.41787(12)
C2 C 0.5506(3) 0.1389(2) 0.42998(18)
C3 C 0.0756(3) 0.4546(2) 0.3299(2)
C4 C 0.1998(3) 0.1932(2) 0.3435(2)
C5 C 0.3929(4) 0.4854(2) 0.40668(19)
C6 C 0.5386(3) 0.0662(2) 0.40230(19)
C7 C 0.5417(4) 0.4780(2) 0.40462(19)
C8 C 0.1177(3) 0.5389(2) 0.3103(2)
C9 C 0.1290(4) 0.2486(2) 0.2809(2)
C10 C 0.6066(4) 0.5520(2) 0.3623(2)
H6 H 0.7075 0.5453 0.3603
C11 C 0.6705(4) 0.0064(2) 0.3751(2)
H7 H 0.6643 -0.0429 0.3571
C12 C 0.1832(4) 0.2283(3) 0.2065(2)
H8 H 0.1350 0.2642 0.1648
C13 C 0.1410(4) 0.5855(3) 0.2312(2)
H9 H 0.1718 0.6408 0.2177
C14 C 0.8113(4) 0.0167(2) 0.3736(2)
C15 C 0.1202(4) 0.5527(3) 0.1709(2)
C16 C 0.5255(4) 0.6358(2) 0.3229(2)
C17 C 0.3062(4) 0.1566(3) 0.1920(2)
C18 C 0.8170(4) 0.0901(2) 0.40260(19)
H10 H 0.9095 0.0985 0.4026
C19 C 0.3741(4) 0.6422(2) 0.3299(2)
H11 H 0.3158 0.6983 0.3063
C20 C 0.3706(4) 0.1011(3) 0.2564(2)
H12 H 0.4519 0.0516 0.2485
C21 C 0.0678(4) 0.4713(3) 0.1943(2)
H13 H 0.0469 0.4500 0.1557
C22 C 0.6895(4) 0.1505(2) 0.43116(18)
C23 C 0.3057(4) 0.5697(2) 0.3701(2)
C24 C 0.3177(3) 0.1171(2) 0.3324(2)
C25 C 0.0461(3) 0.4213(2) 0.2724(2)
C26 C 0.7002(4) 0.2268(2) 0.4645(2)
H14 H 0.6477 0.2200 0.5194
H15 H 0.8039 0.2231 0.4634
C27 C 0.6311(4) 0.3902(2) 0.4496(2)
H16 H 0.7316 0.3962 0.4446
H17 H 0.5855 0.3789 0.5056
C28 C 0.3887(4) 0.0515(2) 0.4011(2)
H18 H 0.4021 -0.0122 0.3979
H19 H 0.3213 0.0599 0.4507
C29 C -0.0019(4) 0.3300(3) 0.2924(2)
H20 H -0.0540 0.3182 0.3472
H21 H -0.0707 0.3358 0.2587
C30 C 0.1417(4) 0.5796(2) 0.3728(2)
H22 H 0.0908 0.6451 0.3644
H23 H 0.0979 0.5482 0.4252
C31 C 0.9548(4) -0.0485(3) 0.3406(2)
C32 C 0.5984(4) 0.7163(3) 0.2731(3)
C33 C 0.1571(6) 0.6004(4) 0.0828(3)
C34 C 0.3709(6) 0.1411(4) 0.1073(3)
C35 C 0.7580(8) 0.6982(5) 0.2767(7)
H24 H 0.7966 0.7507 0.2446
H25 H 0.8128 0.6437 0.2570
H26 H 0.7679 0.6883 0.3308
C36 C 0.9324(7) -0.1358(5) 0.3383(8)
H27 H 1.0255 -0.1736 0.3172
H28 H 0.8614 -0.1245 0.3051
H29 H 0.8955 -0.1677 0.3912
C37 C 0.0375(11) 0.6119(9) 0.0418(5)
H30 H 0.0637 0.6422 -0.0132
H31 H -0.0527 0.6493 0.0660
H32 H 0.0223 0.5520 0.0454
C38 C 0.2439(12) 0.1554(10) 0.0653(5)
H33 H 0.2837 0.1459 0.0124
H34 H 0.1834 0.2177 0.0625
H35 H 0.1840 0.1117 0.0943
C39 C 0.5229(9) 0.8036(4) 0.3001(6)
H36 H 0.5707 0.8524 0.2680
H37 H 0.5290 0.7942 0.3548
H38 H 0.4200 0.8208 0.2951
C40 C 1.0260(10) 0.0044(6) 0.2642(5)
H39 H 1.1160 -0.0354 0.2425
H40 H 1.0494 0.0566 0.2731
H41 H 0.9587 0.0264 0.2273
C41 C 0.4617(17) 0.0475(8) 0.1084(5)
H42 H 0.5000 0.0403 0.0548
H43 H 0.4020 0.0034 0.1364
H44 H 0.5432 0.0367 0.1347
C42 C 0.2921(12) 0.5454(11) 0.0455(5)
H45 H 0.3157 0.5754 -0.0097
H46 H 0.2786 0.4848 0.0501
H47 H 0.3723 0.5394 0.0712
C43 C 0.590(2) 0.7298(12) 0.1885(4)
H48 H 0.6348 0.7799 0.1563
H49 H 0.4872 0.7448 0.1835
H50 H 0.6419 0.6736 0.1710
C44 C 1.0661(7) -0.0736(6) 0.3954(5)
H51 H 1.1562 -0.1144 0.3751
H52 H 1.0240 -0.1043 0.4477
H53 H 1.0881 -0.0179 0.3981
C45 C 0.4493(19) 0.2132(12) 0.0622(6)
H54 H 0.4902 0.2044 0.0092
H55 H 0.5285 0.2097 0.0877
H56 H 0.3810 0.2732 0.0600
C46 C 0.173(3) 0.6950(11) 0.0724(6)
H57 H 0.1966 0.7229 0.0166
H58 H 0.2525 0.6923 0.0976
H59 H 0.0818 0.7316 0.0960
O2 O -0.1142(13) 0.9356(11) 0.0822(8)
O4 O 0.140(2) 0.9276(10) 0.0620(9)
O6 O 0.0835(18) 0.9426(15) -0.0474(11)
loop_
_geom_bond_atom_site_label_1
_geom_bond_atom_site_label_2
_geom_bond_site_symmetry_1
_geom_bond_site_symmetry_2
Cl1 C1 1_555 1_555
Cl2 C1 1_555 1_555
Cl3 C1 1_555 1_555
O1 H1 1_555 1_555
O3 H2 1_555 1_555
O5 H3 1_555 1_555
O7 H4 1_555 1_555
O8 C26 1_555 1_555
C1 H5 1_555 1_555
C2 O7 1_555 1_555
C3 O3 1_555 1_555
C4 O5 1_555 1_555
C5 O1 1_555 1_555
C6 C2 1_555 1_555
C7 C5 1_555 1_555
C8 C3 1_555 1_555
C9 C4 1_555 1_555
C10 C7 1_555 1_555
H6 C10 1_555 1_555
C11 C6 1_555 1_555
H7 C11 1_555 1_555
C12 C9 1_555 1_555
H8 C12 1_555 1_555
C13 C8 1_555 1_555
H9 C13 1_555 1_555
C14 C11 1_555 1_555
C15 C13 1_555 1_555
C16 C10 1_555 1_555
C17 C12 1_555 1_555
C18 C14 1_555 1_555
H10 C18 1_555 1_555
C19 C16 1_555 1_555
H11 C19 1_555 1_555
C20 C17 1_555 1_555
H12 C20 1_555 1_555
C21 C15 1_555 1_555
H13 C21 1_555 1_555
C22 C2 1_555 1_555
C23 C5 1_555 1_555
C24 C4 1_555 1_555
C25 C3 1_555 1_555
C26 C22 1_555 1_555
H14 C26 1_555 1_555
H15 C26 1_555 1_555
C27 O8 1_555 1_555
H16 C27 1_555 1_555
H17 C27 1_555 1_555
C28 C6 1_555 1_555
H18 C28 1_555 1_555
H19 C28 1_555 1_555
C29 C9 1_555 1_555
H20 C29 1_555 1_555
H21 C29 1_555 1_555
C30 C8 1_555 1_555
H22 C30 1_555 1_555
H23 C30 1_555 1_555
C31 C14 1_555 1_555
C32 C16 1_555 1_555
C33 C15 1_555 1_555
C34 C17 1_555 1_555
C35 C32 1_555 1_555
H24 C35 1_555 1_555
H25 C35 1_555 1_555
H26 C35 1_555 1_555
C36 C31 1_555 1_555
H27 C36 1_555 1_555
H28 C36 1_555 1_555
H29 C36 1_555 1_555
C37 C33 1_555 1_555
H30 C37 1_555 1_555
H31 C37 1_555 1_555
H32 C37 1_555 1_555
C38 C34 1_555 1_555
H33 C38 1_555 1_555
H34 C38 1_555 1_555
H35 C38 1_555 1_555
C39 C32 1_555 1_555
H36 C39 1_555 1_555
H37 C39 1_555 1_555
H38 C39 1_555 1_555
C40 C31 1_555 1_555
H39 C40 1_555 1_555
H40 C40 1_555 1_555
H41 C40 1_555 1_555
C41 C34 1_555 1_555
H42 C41 1_555 1_555
H43 C41 1_555 1_555
H44 C41 1_555 1_555
C42 C33 1_555 1_555
H45 C42 1_555 1_555
H46 C42 1_555 1_555
H47 C42 1_555 1_555
C43 C32 1_555 1_555
H48 C43 1_555 1_555
H49 C43 1_555 1_555
H50 C43 1_555 1_555
C44 C31 1_555 1_555
H51 C44 1_555 1_555
H52 C44 1_555 1_555
H53 C44 1_555 1_555
C45 C34 1_555 1_555
H54 C45 1_555 1_555
H55 C45 1_555 1_555
H56 C45 1_555 1_555
C46 C33 1_555 1_555
H57 C46 1_555 1_555
H58 C46 1_555 1_555
H59 C46 1_555 1_555
C7 C27 1_555 1_555
C18 C22 1_555 1_555
C19 C23 1_555 1_555
C20 C24 1_555 1_555
C21 C25 1_555 1_555
C23 C30 1_555 1_555
C24 C28 1_555 1_555
C25 C29 1_555 1_555

#END
