
#######################################################################
#
#                 Cambridge Crystallographic Data Centre
#                                CCDC 
#
#######################################################################
#
# If this CIF has been generated from an entry in the Cambridge 
# Structural Database, then it will include bibliographic, chemical, 
# crystal, experimental, refinement or atomic coordinate data resulting 
# from the CCDC's data processing and validation procedures.
#
#######################################################################

data_IXERAG
_chemical_formula_moiety         'C12 H10 N4'
_chemical_name_systematic        
7-(4-methylphenyl)[1,2,4]triazolo[1,5-a]pyrimidine
_symmetry_cell_setting           monoclinic
_symmetry_space_group_name_H-M   'P 21/n'
_symmetry_Int_Tables_number      14
_space_group_name_Hall           '-P 2yn'
loop_
_symmetry_equiv_pos_site_id
_symmetry_equiv_pos_as_xyz
1 x,y,z
2 1/2-x,1/2+y,1/2-z
3 -x,-y,-z
4 1/2+x,1/2-y,1/2+z
_cell_length_a                   17.5558(10)
_cell_length_b                   7.0307(4)
_cell_length_c                   17.5147(9)
_cell_angle_alpha                90
_cell_angle_beta                 106.484(6)
_cell_angle_gamma                90
_cell_volume                     2072.98
_exptl_crystal_colour            colorless
_exptl_crystal_description       block
_cell_formula_units_Z            8
loop_
_atom_site_label
_atom_site_type_symbol
_atom_site_fract_x
_atom_site_fract_y
_atom_site_fract_z
N1 N 0.13916(10) 0.1833(2) 0.68943(10)
N2 N 0.02166(11) 0.2225(3) 0.73153(12)
N3 N 0.15771(12) 0.1418(3) 0.62070(10)
N4 N 0.02265(12) 0.1511(3) 0.59817(12)
C1 C 0.27691(11) 0.1995(3) 0.78036(12)
C2 C 0.32179(13) 0.1505(4) 0.85746(14)
H1 H 0.2957(13) 0.117(3) 0.8956(13)
C3 C 0.40367(14) 0.1435(4) 0.87722(15)
H2 H 0.4322(14) 0.104(4) 0.9313(14)
C4 C 0.44374(13) 0.1850(4) 0.82181(16)
C5 C 0.39916(14) 0.2320(4) 0.74598(16)
H3 H 0.4256(15) 0.250(4) 0.7066(15)
C6 C 0.31726(14) 0.2388(3) 0.72499(14)
H4 H 0.2884(14) 0.264(3) 0.6715(14)
C7 C 0.19003(12) 0.2126(3) 0.76420(11)
C8 C 0.15282(13) 0.2530(3) 0.82102(13)
H5 H 0.1853(13) 0.286(3) 0.8747(13)
C9 C 0.07041(14) 0.2543(4) 0.80273(15)
H6 H 0.0452(14) 0.278(3) 0.8441(14)
C10 C 0.05718(12) 0.1879(3) 0.67483(13)
C11 C 0.08555(16) 0.1257(4) 0.57026(15)
H7 H 0.0824(15) 0.092(4) 0.5151(15)
C12 C 0.53349(17) 0.1803(6) 0.8434(3)
H8 H 0.554(2) 0.319(6) 0.855(2)
H9 H 0.552(2) 0.119(5) 0.803(2)
H10 H 0.554(2) 0.106(5) 0.890(2)
N5 N 0.19346(10) 0.3525(3) 0.13639(9)
N6 N 0.23338(12) 0.3147(3) 0.01747(11)
N7 N 0.12475(10) 0.3886(3) 0.15614(11)
N8 N 0.09988(12) 0.3710(3) 0.02078(11)
C13 C 0.28659(12) 0.3455(3) 0.27393(11)
C14 C 0.23180(14) 0.3063(3) 0.31514(13)
H11 H 0.1792(15) 0.273(3) 0.2867(14)
C15 C 0.25411(16) 0.3088(4) 0.39744(14)
H12 H 0.2146(15) 0.287(4) 0.4262(14)
C16 C 0.33087(15) 0.3511(3) 0.44137(13)
C17 C 0.38500(15) 0.3929(4) 0.40027(14)
H13 H 0.4381(15) 0.428(4) 0.4264(13)
C18 C 0.36393(13) 0.3907(4) 0.31816(13)
H14 H 0.4046(13) 0.422(3) 0.2918(12)
C19 C 0.26916(12) 0.3331(3) 0.18673(12)
C20 C 0.32569(14) 0.3022(4) 0.14823(13)
H15 H 0.3802(14) 0.280(3) 0.1796(13)
C21 C 0.30572(15) 0.2954(4) 0.06542(14)
H16 H 0.3493(15) 0.279(4) 0.0394(14)
C22 C 0.17711(14) 0.3431(3) 0.05420(12)
C23 C 0.07322(15) 0.3979(4) 0.08418(16)
H17 H 0.0175(15) 0.422(4) 0.0796(13)
C24 C 0.35370(19) 0.3505(4) 0.53124(13)
H18 H 0.3135 0.4148 0.5489
H19 H 0.4036 0.4148 0.5518
H20 H 0.3585 0.2217 0.5501
loop_
_geom_bond_atom_site_label_1
_geom_bond_atom_site_label_2
_geom_bond_site_symmetry_1
_geom_bond_site_symmetry_2
N1 N3 1_555 1_555
N2 C9 1_555 1_555
N3 C11 1_555 1_555
N4 C10 1_555 1_555
C1 C2 1_555 1_555
C2 H1 1_555 1_555
C3 C2 1_555 1_555
H2 C3 1_555 1_555
C4 C3 1_555 1_555
C5 C4 1_555 1_555
H3 C5 1_555 1_555
C6 C1 1_555 1_555
H4 C6 1_555 1_555
C7 N1 1_555 1_555
C8 C7 1_555 1_555
H5 C8 1_555 1_555
C9 C8 1_555 1_555
H6 C9 1_555 1_555
C10 N1 1_555 1_555
C11 N4 1_555 1_555
H7 C11 1_555 1_555
C12 C4 1_555 1_555
H8 C12 1_555 1_555
H9 C12 1_555 1_555
H10 C12 1_555 1_555
N5 N7 1_555 1_555
N6 C21 1_555 1_555
N7 C23 1_555 1_555
N8 C22 1_555 1_555
C13 C14 1_555 1_555
C14 H11 1_555 1_555
C15 C14 1_555 1_555
H12 C15 1_555 1_555
C16 C15 1_555 1_555
C17 C16 1_555 1_555
H13 C17 1_555 1_555
C18 C13 1_555 1_555
H14 C18 1_555 1_555
C19 N5 1_555 1_555
C20 C19 1_555 1_555
H15 C20 1_555 1_555
C21 C20 1_555 1_555
H16 C21 1_555 1_555
C22 N5 1_555 1_555
C23 N8 1_555 1_555
H17 C23 1_555 1_555
C24 C16 1_555 1_555
H18 C24 1_555 1_555
H19 C24 1_555 1_555
H20 C24 1_555 1_555
N2 C10 1_555 1_555
C1 C7 1_555 1_555
C5 C6 1_555 1_555
N6 C22 1_555 1_555
C13 C19 1_555 1_555
C17 C18 1_555 1_555

#END
