
#######################################################################
#
#                 Cambridge Crystallographic Data Centre
#                                CCDC 
#
#######################################################################
#
# If this CIF has been generated from an entry in the Cambridge 
# Structural Database, then it will include bibliographic, chemical, 
# crystal, experimental, refinement or atomic coordinate data resulting 
# from the CCDC's data processing and validation procedures.
#
#######################################################################

data_IXERUY
_chemical_compound_source        'Gnetum hainanense C.Y.Cheng (Gnetaceae)'
_chemical_formula_moiety         'C28 H22 O7,0.5(C1 H4 O1),3.5(H2 O1)'
_chemical_name_systematic        
'rel-(7aR,8aR,7bR,8bR)-Gntuhainin S methanol solvate hydrate'
_symmetry_cell_setting           monoclinic
_symmetry_space_group_name_H-M   'P 21'
_symmetry_Int_Tables_number      4
_space_group_name_Hall           'P 2yb'
loop_
_symmetry_equiv_pos_site_id
_symmetry_equiv_pos_as_xyz
1 x,y,z
2 -x,1/2+y,-z
_cell_length_a                   11.1870(7)
_cell_length_b                   16.4050(12)
_cell_length_c                   14.7230(9)
_cell_angle_alpha                90
_cell_angle_beta                 91.089(4)
_cell_angle_gamma                90
_cell_volume                     2701.52
_exptl_crystal_colour            'pale purple'
_exptl_crystal_description       needle
_chemical_melting_point          '539-542 K'
_cell_formula_units_Z            4
_exptl_crystal_recrystallization_method methanol/water
loop_
_atom_site_label
_atom_site_type_symbol
_atom_site_fract_x
_atom_site_fract_y
_atom_site_fract_z
O1 O 0.2325(6) 0.7680 0.8605(4)
O2 O 0.3146(7) 0.9880(5) 0.6628(5)
O3 O -0.1842(8) 0.7144(6) 0.3810(4)
O4 O 0.0869(7) 0.4995(5) 0.4534(4)
O5 O -0.2394(6) 0.5304(4) 0.6820(4)
O6 O -0.1335(6) 0.4499(5) 0.9879(4)
O7 O 0.1588(6) 0.6726(5) 1.2687(4)
C1 C 0.2058(8) 0.8084(6) 0.7787(6)
C2 C 0.2678(8) 0.8786(6) 0.7624(6)
C3 C 0.2509(9) 0.9204(7) 0.6837(7)
C4 C 0.1637(9) 0.8928(7) 0.6181(7)
C5 C 0.1012(9) 0.8233(7) 0.6356(6)
C6 C 0.1183(8) 0.7776(6) 0.7159(5)
C7 C 0.0645(7) 0.6965(5) 0.7367(5)
C8 C -0.0612(8) 0.6703(6) 0.6991(5)
C9 C -0.0598(7) 0.6459(6) 0.5991(5)
C10 C -0.1258(8) 0.6914(7) 0.5368(6)
C11 C -0.1194(9) 0.6695(9) 0.4426(6)
C12 C -0.0525(9) 0.6072(7) 0.4152(6)
C13 C 0.0143(9) 0.5644(7) 0.4771(6)
C14 C 0.0106(8) 0.5828(7) 0.5712(5)
C15 C -0.0907(8) 0.6030(6) 0.7658(5)
C16 C -0.1735(8) 0.5400(6) 0.7602(5)
C17 C -0.1871(9) 0.4873(6) 0.8334(6)
C18 C -0.1214(9) 0.4993(6) 0.9138(6)
C19 C -0.0378(8) 0.5623(5) 0.9217(5)
C20 C -0.0243(8) 0.6132(6) 0.8471(5)
C21 C 0.0518(7) 0.6888(6) 0.8391(5)
C22 C 0.1758(8) 0.6915(5) 0.8838(5)
C23 C 0.1730(7) 0.6869(6) 0.9877(5)
C24 C 0.2305(8) 0.6253(6) 1.0339(5)
C25 C 0.2252(9) 0.6198(6) 1.1285(6)
C26 C 0.1630(8) 0.6765(6) 1.1752(6)
C27 C 0.1039(8) 0.7400(7) 1.1305(6)
C28 C 0.1088(8) 0.7443(6) 1.0364(6)
H1 H 0.337 1.025 0.715
H2 H -0.224 0.758 0.397
H3 H 0.113 0.534 0.400
H4 H -0.288 0.492 0.675
H5 H -0.207 0.454 1.008
H6 H 0.213 0.642 1.275
H7 H 0.331 0.901 0.814
H8 H 0.147 0.926 0.555
H9 H 0.034 0.803 0.587
H10 H 0.127 0.650 0.716
H11 H -0.123 0.721 0.706
H12 H -0.181 0.745 0.558
H13 H -0.055 0.592 0.342
H14 H 0.063 0.548 0.622
H15 H -0.248 0.433 0.827
H16 H 0.017 0.572 0.983
H17 H 0.000 0.743 0.864
H18 H 0.225 0.640 0.858
H19 H 0.279 0.578 0.996
H20 H 0.272 0.570 1.165
H21 H 0.054 0.785 1.171
H22 H 0.054 0.791 1.000
O8 O -0.4209(7) 0.7959(5) 0.6639(4)
O9 O -0.1015(6) 0.9729(5) 0.7290(4)
O10 O -0.5759(6) 0.7824(4) 1.1689(4)
O11 O -0.1808(7) 0.6725(6) 1.2026(4)
O12 O -0.4812(7) 0.5027(4) 1.0131(4)
O13 O -0.7037(8) 0.4229(5) 0.7486(5)
O14 O -0.6353(8) 0.6041(7) 0.3363(5)
C29 C -0.3361(8) 0.8226(6) 0.7290(6)
C30 C -0.2618(9) 0.8838(6) 0.7003(5)
C31 C -0.1750(9) 0.9120(7) 0.7594(6)
C32 C -0.1628(9) 0.8804(6) 0.8479(6)
C33 C -0.2383(9) 0.8204(7) 0.8741(6)
C34 C -0.3276(9) 0.7875(6) 0.8167(6)
C35 C -0.4142(7) 0.7213(6) 0.8385(5)
C36 C -0.3811(8) 0.6529(6) 0.9074(5)
C37 C -0.3816(7) 0.6783(5) 1.0076(5)
C38 C -0.4813(8) 0.7154(6) 1.0430(5)
C39 C -0.4815(8) 0.7416(6) 1.1334(6)
C40 C -0.3816(9) 0.7300(7) 1.1899(6)
C41 C -0.2835(9) 0.6902(7) 1.1510(6)
C42 C -0.2825(8) 0.6660(7) 1.0619(5)
C43 C -0.4709(8) 0.5878(6) 0.8773(6)
C44 C -0.5141(8) 0.5199(6) 0.9230(6)
C45 C -0.5923(9) 0.4647(6) 0.8796(6)
C46 C -0.6259(10) 0.4799(7) 0.7899(7)
C47 C -0.5851(9) 0.5473(7) 0.7430(6)
C48 C -0.5081(8) 0.6010(6) 0.7872(6)
C49 C -0.4451(8) 0.6739(7) 0.7508(5)
C50 C -0.5031(8) 0.7307(7) 0.6824(5)
C51 C -0.5373(8) 0.6942(6) 0.5899(5)
C52 C -0.4571(10) 0.6520(9) 0.5394(7)
C53 C -0.4877(10) 0.6202(10) 0.4541(7)
C54 C -0.6042(9) 0.6323(8) 0.4233(6)
C55 C -0.6870(9) 0.6733(8) 0.4742(6)
C56 C -0.6532(8) 0.7032(7) 0.5571(6)
H23 H -0.038 0.982 0.781
H24 H -0.613 0.829 1.131
H25 H -0.188 0.708 1.265
H26 H -0.446 0.450 0.988
H27 H -0.604 0.554 0.354
H28 H -0.275 0.909 0.633
H29 H -0.093 0.902 0.896
H30 H -0.233 0.797 0.944
H31 H -0.497 0.750 0.862
H32 H -0.289 0.632 0.891
H33 H -0.562 0.727 0.999
H34 H -0.380 0.747 1.261
H35 H -0.201 0.638 1.032
H36 H -0.628 0.411 0.915
H37 H -0.619 0.559 0.671
H38 H -0.361 0.654 0.722
H39 H -0.584 0.757 0.712
H40 H -0.364 0.644 0.567
H41 H -0.424 0.589 0.411
H42 H -0.779 0.683 0.448
H43 H -0.719 0.735 0.599
O15 O 0.7503(15) 0.8975(10) 0.4345(9)
C57 C 0.7085(17) 0.9610(14) 0.4493(12)
H44 H 0.725 0.856 0.392
H45 H 0.635 0.965 0.400
H46 H 0.779 1.002 0.430
H47 H 0.683 0.965 0.517
O16 O -0.3340(6) 0.3607(5) 0.9940(5)
H48 H -0.416 0.387 1.003
H49 H -0.270 0.401 0.992
O17 O 0.0680(7) 1.0258(5) 0.8414(4)
H50 H 0.128 1.081 0.844
H51 H 0.057 0.998 0.892
O18 O 0.3602(8) 0.8788(6) 0.3353(5)
H52 H 0.423 0.840 0.307
O19 O 0.5110(9) 0.5248(6) 0.2130(5)
H53 H 0.435 0.538 0.234
H54 H 0.519 0.471 0.175
O20 O 0.1087(9) 0.8144(6) 0.3512(6)
H55 H 0.196 0.834 0.355
H56 H 0.105 0.768 0.376
O21 O 0.5056(12) 0.4059(9) 0.4892(8)
H57 H 0.575 0.373 0.542
O22 O 0.9506(13) 0.9026(10) 0.2419(12)
H58 H 0.950 0.875 0.292
H59 H 0.886 0.925 0.236
loop_
_geom_bond_atom_site_label_1
_geom_bond_atom_site_label_2
_geom_bond_site_symmetry_1
_geom_bond_site_symmetry_2
O1 C1 1_555 1_555
O2 C3 1_555 1_555
O3 C11 1_555 1_555
O4 C13 1_555 1_555
O5 C16 1_555 1_555
O6 C18 1_555 1_555
O7 C26 1_555 1_555
C1 C2 1_555 1_555
C2 C3 1_555 1_555
C3 C4 1_555 1_555
C4 C5 1_555 1_555
C5 C6 1_555 1_555
C6 C1 1_555 1_555
C7 C6 1_555 1_555
C8 C7 1_555 1_555
C9 C8 1_555 1_555
C10 C9 1_555 1_555
C11 C10 1_555 1_555
C12 C11 1_555 1_555
C13 C12 1_555 1_555
C14 C9 1_555 1_555
C15 C8 1_555 1_555
C16 C15 1_555 1_555
C17 C16 1_555 1_555
C18 C17 1_555 1_555
C19 C18 1_555 1_555
C20 C15 1_555 1_555
C21 C7 1_555 1_555
C22 O1 1_555 1_555
C23 C22 1_555 1_555
C24 C23 1_555 1_555
C25 C24 1_555 1_555
C26 C25 1_555 1_555
C27 C26 1_555 1_555
C28 C23 1_555 1_555
O8 C29 1_555 1_555
O9 C31 1_555 1_555
O10 C39 1_555 1_555
O11 C41 1_555 1_555
O12 C44 1_555 1_555
O13 C46 1_555 1_555
O14 C54 1_555 1_555
C29 C30 1_555 1_555
C30 C31 1_555 1_555
C31 C32 1_555 1_555
C32 C33 1_555 1_555
C33 C34 1_555 1_555
C34 C29 1_555 1_555
C35 C34 1_555 1_555
C36 C35 1_555 1_555
C37 C36 1_555 1_555
C38 C37 1_555 1_555
C39 C38 1_555 1_555
C40 C39 1_555 1_555
C41 C40 1_555 1_555
C42 C37 1_555 1_555
C43 C36 1_555 1_555
C44 C43 1_555 1_555
C45 C44 1_555 1_555
C46 C45 1_555 1_555
C47 C46 1_555 1_555
C48 C43 1_555 1_555
C49 C35 1_555 1_555
C50 O8 1_555 1_555
C51 C50 1_555 1_555
C52 C51 1_555 1_555
C53 C52 1_555 1_555
C54 C53 1_555 1_555
C55 C54 1_555 1_555
C56 C51 1_555 1_555
O15 C57 1_555 1_555
C57 H45 1_555 1_555
O16 H48 1_555 1_555
O17 H50 1_555 1_555
O18 H52 1_555 1_555
O19 H53 1_555 1_555
O20 H55 1_555 1_555
O21 H57 1_555 1_555
O22 H58 1_555 1_555
H1 O2 1_555 1_555
H2 O3 1_555 1_555
H3 O4 1_555 1_555
H4 O5 1_555 1_555
H5 O6 1_555 1_555
H6 O7 1_555 1_555
H7 C2 1_555 1_555
H8 C4 1_555 1_555
H9 C5 1_555 1_555
H10 C7 1_555 1_555
H11 C8 1_555 1_555
H12 C10 1_555 1_555
H13 C12 1_555 1_555
H14 C14 1_555 1_555
H15 C17 1_555 1_555
H16 C19 1_555 1_555
H17 C21 1_555 1_555
H18 C22 1_555 1_555
H19 C24 1_555 1_555
H20 C25 1_555 1_555
H21 C27 1_555 1_555
H22 C28 1_555 1_555
H23 O9 1_555 1_555
H24 O10 1_555 1_555
H25 O11 1_555 1_555
H26 O12 1_555 1_555
H27 O14 1_555 1_555
H28 C30 1_555 1_555
H29 C32 1_555 1_555
H30 C33 1_555 1_555
H31 C35 1_555 1_555
H32 C36 1_555 1_555
H33 C38 1_555 1_555
H34 C40 1_555 1_555
H35 C42 1_555 1_555
H36 C45 1_555 1_555
H37 C47 1_555 1_555
H38 C49 1_555 1_555
H39 C50 1_555 1_555
H40 C52 1_555 1_555
H41 C53 1_555 1_555
H42 C55 1_555 1_555
H43 C56 1_555 1_555
H44 O15 1_555 1_555
H46 C57 1_555 1_555
H47 C57 1_555 1_555
H49 O16 1_555 1_555
H51 O17 1_555 1_555
H54 O19 1_555 1_555
H56 O20 1_555 1_555
H59 O22 1_555 1_555
C13 C14 1_555 1_555
C19 C20 1_555 1_555
C20 C21 1_555 1_555
C21 C22 1_555 1_555
C27 C28 1_555 1_555
C41 C42 1_555 1_555
C47 C48 1_555 1_555
C48 C49 1_555 1_555
C49 C50 1_555 1_555
C55 C56 1_555 1_555

#END
