
#######################################################################
#
#                 Cambridge Crystallographic Data Centre
#                                CCDC 
#
#######################################################################
#
# If this CIF has been generated from an entry in the Cambridge 
# Structural Database, then it will include bibliographic, chemical, 
# crystal, experimental, refinement or atomic coordinate data resulting 
# from the CCDC's data processing and validation procedures.
#
#######################################################################

data_IXERAE
_chemical_formula_moiety         'C17 H15 N1 O4'
_chemical_name_systematic        
3-Hydroxy-3-(2-methoxy-2,3-dihydro-1-benzofuran-3-yl)-1,3-dihydro-2H-indol-2-one
_symmetry_cell_setting           monoclinic
_symmetry_space_group_name_H-M   'P 21/c'
_symmetry_Int_Tables_number      14
_space_group_name_Hall           '-P 2ybc'
loop_
_symmetry_equiv_pos_site_id
_symmetry_equiv_pos_as_xyz
1 x,y,z
2 x,1/2-y,1/2+z
3 -x,-y,-z
4 -x,1/2+y,1/2-z
_cell_length_a                   15.9269(6)
_cell_length_b                   10.8140(2)
_cell_length_c                   8.8675(3)
_cell_angle_alpha                90
_cell_angle_beta                 101.985(1)
_cell_angle_gamma                90
_cell_volume                     1493.99
_exptl_crystal_colour            colorless
_exptl_crystal_description       plate
_cell_formula_units_Z            4
loop_
_atom_site_label
_atom_site_type_symbol
_atom_site_fract_x
_atom_site_fract_y
_atom_site_fract_z
O1 O 0.42403(12) 0.37707(16) 0.46866(19)
O2 O 0.35482(13) 0.24823(16) 0.1759(2)
H1 H 0.4045 0.2407 0.1651
O3 O 0.11720(13) 0.40965(19) 0.0777(2)
O4 O 0.14241(13) 0.22167(18) 0.2057(2)
N1 N 0.44754(14) 0.51760(19) 0.2888(2)
H2 H 0.4881 0.5588 0.3463
C1 C 0.34851(16) 0.4614(2) 0.0744(3)
C2 C 0.30750(19) 0.4685(2) -0.0782(3)
H3 H 0.2630 0.4146 -0.1187
C3 C 0.3343(2) 0.5586(3) -0.1709(3)
H4 H 0.3080 0.5638 -0.2747
C4 C 0.3989(2) 0.6397(3) -0.1105(4)
H5 H 0.4146 0.7002 -0.1738
C5 C 0.44119(19) 0.6333(2) 0.0424(3)
H6 H 0.4857 0.6872 0.0829
C6 C 0.41455(17) 0.5442(2) 0.1310(3)
C7 C 0.40828(16) 0.4215(2) 0.3375(3)
C8 C 0.33796(17) 0.3746(2) 0.2021(3)
C9 C 0.25067(17) 0.3762(2) 0.2523(3)
H7 H 0.2571 0.3305 0.3494
C10 C 0.21437(17) 0.5005(2) 0.2744(3)
C11 C 0.2417(2) 0.5954(3) 0.3760(3)
H8 H 0.2937 0.5898 0.4464
C12 C 0.1904(3) 0.6995(3) 0.3718(4)
H9 H 0.2082 0.7640 0.4404
C13 C 0.1134(3) 0.7086(3) 0.2673(5)
H10 H 0.0801 0.7794 0.2653
C14 C 0.0857(2) 0.6140(3) 0.1661(5)
H11 H 0.0337 0.6191 0.0956
C15 C 0.1370(2) 0.5117(3) 0.1722(3)
C16 C 0.17840(18) 0.3152(3) 0.1335(3)
H12 H 0.2016 0.2812 0.0482
C17 C 0.0903(2) 0.1370(3) 0.1013(5)
H13 H 0.0676 0.0749 0.1591
H14 H 0.1247 0.0983 0.0377
H15 H 0.0439 0.1812 0.0375
loop_
_geom_bond_atom_site_label_1
_geom_bond_atom_site_label_2
_geom_bond_site_symmetry_1
_geom_bond_site_symmetry_2
O1 C7 1_555 1_555
O2 H1 1_555 1_555
O3 C15 1_555 1_555
O4 C16 1_555 1_555
N1 H2 1_555 1_555
C1 C2 1_555 1_555
C2 H3 1_555 1_555
C3 C2 1_555 1_555
H4 C3 1_555 1_555
C4 C3 1_555 1_555
H5 C4 1_555 1_555
C5 C4 1_555 1_555
H6 C5 1_555 1_555
C6 N1 1_555 1_555
C7 N1 1_555 1_555
C8 O2 1_555 1_555
C9 C8 1_555 1_555
H7 C9 1_555 1_555
C10 C9 1_555 1_555
C11 C10 1_555 1_555
H8 C11 1_555 1_555
C12 C11 1_555 1_555
H9 C12 1_555 1_555
C13 C12 1_555 1_555
H10 C13 1_555 1_555
C14 C13 1_555 1_555
H11 C14 1_555 1_555
C15 C10 1_555 1_555
C16 O3 1_555 1_555
H12 C16 1_555 1_555
C17 O4 1_555 1_555
H13 C17 1_555 1_555
H14 C17 1_555 1_555
H15 C17 1_555 1_555
C1 C6 1_555 1_555
C1 C8 1_555 1_555
C5 C6 1_555 1_555
C7 C8 1_555 1_555
C9 C16 1_555 1_555
C14 C15 1_555 1_555

#END
