
#######################################################################
#
#                 Cambridge Crystallographic Data Centre
#                                CCDC 
#
#######################################################################
#
# If this CIF has been generated from an entry in the Cambridge 
# Structural Database, then it will include bibliographic, chemical, 
# crystal, experimental, refinement or atomic coordinate data resulting 
# from the CCDC's data processing and validation procedures.
#
#######################################################################

data_IXEREK
_chemical_formula_moiety         'C11 H8 N4'
_chemical_name_systematic        3-phenyl[1,2,4]triazolo[4,3-a]pyrimidine
_symmetry_cell_setting           orthorhombic
_symmetry_space_group_name_H-M   'P c a 21'
_symmetry_Int_Tables_number      29
_space_group_name_Hall           'P 2c -2ac'
loop_
_symmetry_equiv_pos_site_id
_symmetry_equiv_pos_as_xyz
1 x,y,z
2 -x,-y,1/2+z
3 1/2-x,y,1/2+z
4 1/2+x,-y,z
_cell_length_a                   8.1955(3)
_cell_length_b                   10.6065(3)
_cell_length_c                   10.8282(3)
_cell_angle_alpha                90
_cell_angle_beta                 90
_cell_angle_gamma                90
_cell_volume                     941.247
_cell_formula_units_Z            4
loop_
_atom_site_label
_atom_site_type_symbol
_atom_site_fract_x
_atom_site_fract_y
_atom_site_fract_z
N1 N -0.7474(5) -0.9106(3) -0.4942(4)
N2 N -0.6943(4) -0.7948(3) -0.4548(4)
N3 N -0.5916(4) -0.9344(3) -0.3275(3)
N4 N -0.6968(5) -1.1276(4) -0.4158(5)
C1 C -0.3570(6) -0.5038(4) -0.1838(6)
H1 H -0.3025 -0.4367 -0.1470
C2 C -0.3790(5) -0.5058(4) -0.3087(6)
H2 H -0.3402 -0.4395 -0.3567
C3 C -0.4588(5) -0.6058(3) -0.3644(4)
H3 H -0.4729 -0.6071 -0.4496
C4 C -0.5179(4) -0.7045(3) -0.2922(4)
C5 C -0.4973(5) -0.7019(3) -0.1662(4)
H4 H -0.5379 -0.7671 -0.1177
C6 C -0.4158(6) -0.6018(4) -0.1115(5)
H5 H -0.4006 -0.6004 -0.0264
C7 C -0.6025(4) -0.8081(3) -0.3565(4)
C8 C -0.6843(5) -0.9947(3) -0.4169(4)
C9 C -0.6165(5) -1.1916(4) -0.3266(5)
H6 H -0.6256 -1.2790 -0.3230
C10 C -0.5188(5) -1.1281(3) -0.2386(4)
H7 H -0.4622 -1.1745 -0.1797
C11 C -0.5066(5) -1.0012(3) -0.2389(4)
H8 H -0.4424 -0.9597 -0.1809
loop_
_geom_bond_atom_site_label_1
_geom_bond_atom_site_label_2
_geom_bond_site_symmetry_1
_geom_bond_site_symmetry_2
N1 N2 1_555 1_555
N2 C7 1_555 1_555
N3 C7 1_555 1_555
N4 C8 1_555 1_555
C1 H1 1_555 1_555
C2 C1 1_555 1_555
H2 C2 1_555 1_555
C3 C2 1_555 1_555
H3 C3 1_555 1_555
C4 C3 1_555 1_555
C5 C4 1_555 1_555
H4 C5 1_555 1_555
C6 C1 1_555 1_555
H5 C6 1_555 1_555
C7 C4 1_555 1_555
C8 N1 1_555 1_555
C9 N4 1_555 1_555
H6 C9 1_555 1_555
C10 C9 1_555 1_555
H7 C10 1_555 1_555
C11 N3 1_555 1_555
H8 C11 1_555 1_555
N3 C8 1_555 1_555
C5 C6 1_555 1_555
C10 C11 1_555 1_555

#END
