
#######################################################################
#
#                 Cambridge Crystallographic Data Centre
#                                CCDC 
#
#######################################################################
#
# If this CIF has been generated from an entry in the Cambridge 
# Structural Database, then it will include bibliographic, chemical, 
# crystal, experimental, refinement or atomic coordinate data resulting 
# from the CCDC's data processing and validation procedures.
#
#######################################################################

data_IXESEL01
_chemical_formula_moiety         'C10 H21 B10 N1 O2 S1'
_chemical_name_systematic        
7-(p-tosylamino)-1-methyl-1,2-dicarba-closo-dodecaborane
_symmetry_cell_setting           monoclinic
_symmetry_space_group_name_H-M   'C 2/c'
_symmetry_Int_Tables_number      15
_space_group_name_Hall           '-C 2yn'
loop_
_symmetry_equiv_pos_site_id
_symmetry_equiv_pos_as_xyz
1 x,y,z
2 -x,y,1/2-z
3 1/2+x,1/2+y,z
4 1/2-x,1/2+y,1/2-z
5 -x,-y,-z
6 x,-y,1/2+z
7 1/2-x,1/2-y,-z
8 1/2+x,1/2-y,1/2+z
_cell_length_a                   24.181(2)
_cell_length_b                   7.3908(7)
_cell_length_c                   19.7113(17)
_cell_angle_alpha                90
_cell_angle_beta                 98.4240(10)
_cell_angle_gamma                90
_cell_volume                     3484.74
_exptl_crystal_colour            colorless
_exptl_crystal_description       block
_cell_formula_units_Z            8
loop_
_atom_site_label
_atom_site_type_symbol
_atom_site_fract_x
_atom_site_fract_y
_atom_site_fract_z
S1 S 0.20164(2) 0.37297(8) 0.28202(3)
O1 O 0.25052(7) 0.3223(3) 0.32831(9)
O2 O 0.18394(8) 0.5584(2) 0.28135(9)
N1 N 0.21397(8) 0.3189(3) 0.20634(10)
H1 H 0.2462 0.2727 0.2034
C1 C 0.15993(12) 0.5518(4) 0.10591(13)
H2 H 0.1773 0.6704 0.1354
C2 C 0.15370(12) 0.5530(4) 0.02177(13)
C3 C 0.17214(17) 0.7188(5) -0.01267(18)
H3 H 0.1936 0.6836 -0.0478
H4 H 0.1947 0.7927 0.0206
H5 H 0.1399 0.7862 -0.0328
C4 C 0.14558(9) 0.2368(3) 0.29952(11)
C5 C 0.09560(10) 0.3133(4) 0.31152(13)
H6 H 0.0907 0.4381 0.3097
C6 C 0.05308(11) 0.2018(4) 0.32624(13)
H7 H 0.0195 0.2530 0.3342
C7 C 0.05931(10) 0.0151(4) 0.32941(12)
C8 C 0.10973(11) -0.0582(4) 0.31684(14)
H8 H 0.1146 -0.1830 0.3186
C9 C 0.15273(10) 0.0505(4) 0.30179(14)
H9 H 0.1862 -0.0006 0.2933
C10 C 0.01275(12) -0.1042(5) 0.34590(17)
H10 H 0.0232 -0.2288 0.3424
H11 H -0.0205 -0.0805 0.3141
H12 H 0.0058 -0.0797 0.3917
B1 B 0.20485(13) 0.4246(5) 0.06915(15)
H13 H 0.2498 0.4532 0.0726
B2 B 0.17524(11) 0.3412(4) 0.14157(14)
B3 B 0.10732(14) 0.4357(7) 0.13374(16)
H14 H 0.0888 0.4697 0.1799
B4 B 0.09537(16) 0.5699(6) 0.05920(17)
H15 H 0.0692 0.6921 0.0567
B5 B 0.16545(15) 0.3412(5) -0.00649(16)
H16 H 0.1848 0.3131 -0.0525
B6 B 0.17807(15) 0.2035(5) 0.06817(16)
H17 H 0.2054 0.0841 0.0706
B7 B 0.11634(15) 0.2096(6) 0.10843(19)
H18 H 0.1029 0.0949 0.1375
B8 B 0.06717(14) 0.3523(7) 0.05797(19)
H19 H 0.0218 0.3301 0.0542
B9 B 0.09734(13) 0.4274(4) -0.01226(15)
H20 H 0.0720 0.4541 -0.0623
B10 B 0.11057(18) 0.2071(5) 0.01738(19)
H21 H 0.0943 0.0882 -0.0127
loop_
_geom_bond_atom_site_label_1
_geom_bond_atom_site_label_2
_geom_bond_site_symmetry_1
_geom_bond_site_symmetry_2
S1 O1 1_555 1_555
O2 S1 1_555 1_555
N1 S1 1_555 1_555
H1 N1 1_555 1_555
C1 H2 1_555 1_555
C2 C1 1_555 1_555
C3 C2 1_555 1_555
H3 C3 1_555 1_555
H4 C3 1_555 1_555
H5 C3 1_555 1_555
C4 S1 1_555 1_555
C5 C4 1_555 1_555
H6 C5 1_555 1_555
C6 C5 1_555 1_555
H7 C6 1_555 1_555
C7 C6 1_555 1_555
C8 C7 1_555 1_555
H8 C8 1_555 1_555
C9 C4 1_555 1_555
H9 C9 1_555 1_555
C10 C7 1_555 1_555
H10 C10 1_555 1_555
H11 C10 1_555 1_555
H12 C10 1_555 1_555
B1 C1 1_555 1_555
H13 B1 1_555 1_555
B2 N1 1_555 1_555
B3 C1 1_555 1_555
H14 B3 1_555 1_555
B4 C1 1_555 1_555
H15 B4 1_555 1_555
B5 C2 1_555 1_555
H16 B5 1_555 1_555
B6 B1 1_555 1_555
H17 B6 1_555 1_555
B7 B2 1_555 1_555
H18 B7 1_555 1_555
B8 B3 1_555 1_555
H19 B8 1_555 1_555
B9 C2 1_555 1_555
H20 B9 1_555 1_555
B10 B5 1_555 1_555
H21 B10 1_555 1_555
C1 B2 1_555 1_555
C2 B1 1_555 1_555
C2 B4 1_555 1_555
C8 C9 1_555 1_555
B1 B2 1_555 1_555
B1 B5 1_555 1_555
B2 B3 1_555 1_555
B2 B6 1_555 1_555
B3 B4 1_555 1_555
B3 B7 1_555 1_555
B4 B8 1_555 1_555
B4 B9 1_555 1_555
B5 B6 1_555 1_555
B5 B9 1_555 1_555
B6 B7 1_555 1_555
B6 B10 1_555 1_555
B7 B8 1_555 1_555
B7 B10 1_555 1_555
B8 B9 1_555 1_555
B8 B10 1_555 1_555
B9 B10 1_555 1_555

#END
