
#######################################################################
#
#                 Cambridge Crystallographic Data Centre
#                                CCDC 
#
#######################################################################
#
# If this CIF has been generated from an entry in the Cambridge 
# Structural Database, then it will include bibliographic, chemical, 
# crystal, experimental, refinement or atomic coordinate data resulting 
# from the CCDC's data processing and validation procedures.
#
#######################################################################

data_IXESOV
_chemical_formula_moiety         'C10 H21 B10 N1 O3 S1'
_chemical_name_systematic        
1-methyl-7-(4-methoxybenzenesulfonylamino)-1,2-dicarba-closo-dodecaborane(10)
_symmetry_cell_setting           monoclinic
_symmetry_space_group_name_H-M   'C 2/c'
_symmetry_Int_Tables_number      15
_space_group_name_Hall           '-C 2yn'
loop_
_symmetry_equiv_pos_site_id
_symmetry_equiv_pos_as_xyz
1 x,y,z
2 -x,y,1/2-z
3 1/2+x,1/2+y,z
4 1/2-x,1/2+y,1/2-z
5 -x,-y,-z
6 x,-y,1/2+z
7 1/2-x,1/2-y,-z
8 1/2+x,1/2-y,1/2+z
_cell_length_a                   25.0743(11)
_cell_length_b                   7.4905(3)
_cell_length_c                   19.9945(9)
_cell_angle_alpha                90
_cell_angle_beta                 101.1045(13)
_cell_angle_gamma                90
_cell_volume                     3685.04
_exptl_crystal_colour            colorless
_exptl_crystal_description       block
_cell_formula_units_Z            8
loop_
_atom_site_label
_atom_site_type_symbol
_atom_site_fract_x
_atom_site_fract_y
_atom_site_fract_z
S1 S 0.29594(4) 0.13437(13) 0.22009(5)
O1 O 0.24746(12) 0.1813(4) 0.17306(15)
O2 O 0.31286(14) -0.0476(4) 0.22158(16)
O3 O 0.4616(2) 0.6347(8) 0.1634(3)
N1 N 0.28566(12) 0.1885(4) 0.29451(15)
H1 H 0.2547 0.2357 0.2963
B1 B 0.3380(2) -0.0415(6) 0.3948(2)
H2 H 0.3203 -0.1561 0.3638
B2 B 0.32390(17) 0.1654(6) 0.3599(2)
B3 B 0.3206(2) 0.2914(8) 0.4337(3)
H3 H 0.2932 0.4071 0.4307
B4 B 0.3337(3) 0.1518(9) 0.5062(3)
H4 H 0.3149 0.1731 0.5509
B5 B 0.4010(3) -0.0627(11) 0.4441(3)
H5 H 0.4261 -0.1839 0.4473
B6 B 0.3889(3) 0.0748(14) 0.3707(3)
H6 H 0.4068 0.0444 0.3259
B7 B 0.3796(3) 0.2954(10) 0.3979(3)
H7 H 0.3919 0.4142 0.3723
B8 B 0.3849(3) 0.2890(8) 0.4875(4)
H8 H 0.4000 0.4043 0.5198
B9 B 0.4003(2) 0.0732(8) 0.5145(3)
H9 H 0.4261 0.0463 0.5645
B10 B 0.4281(2) 0.1510(15) 0.4475(4)
H10 H 0.4720 0.1734 0.4527
C1 C 0.2962(2) 0.0761(8) 0.4295(3)
H11 H 0.2526 0.0464 0.4233
C2 C 0.3456(2) -0.0482(6) 0.4772(2)
C3 C 0.3275(3) -0.2175(9) 0.5086(3)
H12 H 0.3340 -0.2053 0.5573
H13 H 0.2895 -0.2366 0.4918
H14 H 0.3477 -0.3174 0.4966
C4 C 0.34857(16) 0.2692(6) 0.20388(18)
C5 C 0.3414(2) 0.4546(6) 0.2063(3)
H15 H 0.3096 0.5005 0.2172
C6 C 0.3802(3) 0.5676(8) 0.1931(3)
H16 H 0.3753 0.6903 0.1954
C7 C 0.4253(3) 0.5028(9) 0.1768(2)
C8 C 0.4349(2) 0.3188(10) 0.1742(3)
H17 H 0.4669 0.2759 0.1632
C9 C 0.3952(2) 0.2007(8) 0.1887(2)
H18 H 0.4006 0.0779 0.1878
C10 C 0.5061(3) 0.5810(18) 0.1447(5)
H19 H 0.5274 0.6828 0.1370
H20 H 0.5266 0.5079 0.1799
H21 H 0.4969 0.5130 0.1034
loop_
_geom_bond_atom_site_label_1
_geom_bond_atom_site_label_2
_geom_bond_site_symmetry_1
_geom_bond_site_symmetry_2
S1 O1 1_555 1_555
O2 S1 1_555 1_555
O3 C7 1_555 1_555
N1 S1 1_555 1_555
H1 N1 1_555 1_555
B1 H2 1_555 1_555
B2 N1 1_555 1_555
B3 B2 1_555 1_555
H3 B3 1_555 1_555
B4 B3 1_555 1_555
H4 B4 1_555 1_555
B5 B1 1_555 1_555
H5 B5 1_555 1_555
B6 B1 1_555 1_555
H6 B6 1_555 1_555
B7 B2 1_555 1_555
H7 B7 1_555 1_555
B8 B3 1_555 1_555
H8 B8 1_555 1_555
B9 B4 1_555 1_555
H9 B9 1_555 1_555
B10 B5 1_555 1_555
H10 B10 1_555 1_555
C1 B1 1_555 1_555
H11 C1 1_555 1_555
C2 B1 1_555 1_555
C3 C2 1_555 1_555
H12 C3 1_555 1_555
H13 C3 1_555 1_555
H14 C3 1_555 1_555
C4 S1 1_555 1_555
C5 C4 1_555 1_555
H15 C5 1_555 1_555
C6 C5 1_555 1_555
H16 C6 1_555 1_555
C7 C6 1_555 1_555
C8 C7 1_555 1_555
H17 C8 1_555 1_555
C9 C4 1_555 1_555
H18 C9 1_555 1_555
C10 O3 1_555 1_555
H19 C10 1_555 1_555
H20 C10 1_555 1_555
H21 C10 1_555 1_555
B1 B2 1_555 1_555
B2 B6 1_555 1_555
B2 C1 1_555 1_555
B3 B7 1_555 1_555
B3 C1 1_555 1_555
B4 B8 1_555 1_555
B4 C1 1_555 1_555
B4 C2 1_555 1_555
B5 B6 1_555 1_555
B5 B9 1_555 1_555
B5 C2 1_555 1_555
B6 B7 1_555 1_555
B6 B10 1_555 1_555
B7 B8 1_555 1_555
B7 B10 1_555 1_555
B8 B9 1_555 1_555
B8 B10 1_555 1_555
B9 B10 1_555 1_555
B9 C2 1_555 1_555
C1 C2 1_555 1_555
C8 C9 1_555 1_555

#END
