
#######################################################################
#
#                 Cambridge Crystallographic Data Centre
#                                CCDC 
#
#######################################################################
#
# If this CIF has been generated from an entry in the Cambridge 
# Structural Database, then it will include bibliographic, chemical, 
# crystal, experimental, refinement or atomic coordinate data resulting 
# from the CCDC's data processing and validation procedures.
#
#######################################################################

data_IXETUB
_chemical_formula_moiety         'C16 H19 N1 O1'
_chemical_name_systematic        
(S,S)-1-Phenyl-2-((1-phenylethyl)amino)ethanol
_symmetry_cell_setting           orthorhombic
_symmetry_space_group_name_H-M   'P 21 21 21'
_symmetry_Int_Tables_number      19
_space_group_name_Hall           'P 2ac 2ab'
loop_
_symmetry_equiv_pos_site_id
_symmetry_equiv_pos_as_xyz
1 x,y,z
2 1/2-x,-y,1/2+z
3 -x,1/2+y,1/2-z
4 1/2+x,1/2-y,-z
_cell_length_a                   8.586(3)
_cell_length_b                   8.644(3)
_cell_length_c                   18.181(5)
_cell_angle_alpha                90
_cell_angle_beta                 90
_cell_angle_gamma                90
_cell_volume                     1349.35
_exptl_crystal_colour            colorless
_exptl_crystal_description       needle
_cell_formula_units_Z            4
loop_
_atom_site_label
_atom_site_type_symbol
_atom_site_fract_x
_atom_site_fract_y
_atom_site_fract_z
O1 O 0.46675(14) 0.23037(14) 1.00632(6)
N1 N 0.20155(13) 0.03539(14) 0.99310(7)
C1 C 0.38607(17) 0.22051(17) 0.93820(8)
C2 C 0.31517(18) 0.06062(17) 0.93412(9)
C3 C 0.16098(16) -0.12832(16) 1.00387(8)
C4 C 0.0590(2) -0.1418(2) 1.07226(10)
C5 C 0.07841(16) -0.19717(17) 0.93772(8)
C6 C -0.01721(19) -0.10977(19) 0.89220(9)
C7 C -0.0958(2) -0.1777(2) 0.83416(10)
C8 C -0.0826(2) -0.3336(2) 0.82151(11)
C9 C 0.0094(2) -0.4224(2) 0.86677(11)
C10 C 0.0899(2) -0.35411(19) 0.92429(10)
C11 C 0.48941(17) 0.24959(16) 0.87218(7)
C12 C 0.64171(18) 0.19588(19) 0.87035(8)
C13 C 0.7345(2) 0.2220(2) 0.80972(10)
C14 C 0.6766(2) 0.3009(2) 0.74955(9)
C15 C 0.5262(2) 0.3549(2) 0.75099(10)
C16 C 0.4333(2) 0.3295(2) 0.81187(9)
H1 H 0.2562(18) -0.1879(18) 1.0123(8)
H2 H 0.3038(18) 0.2938(18) 0.9371(7)
H3 H 0.840(2) 0.189(2) 0.8093(10)
H4 H -0.0258(19) -0.006(2) 0.9011(8)
H5 H 0.400(2) -0.015(2) 0.9370(9)
H6 H 0.2417(18) 0.0685(17) 1.0346(9)
H7 H 0.2629(19) 0.0510(18) 0.8859(9)
H8 H 0.111(2) -0.096(2) 1.1135(10)
H9 H -0.043(2) -0.091(2) 1.0649(11)
H10 H 0.041(2) -0.251(2) 1.0825(10)
H11 H 0.329(2) 0.367(2) 0.8126(9)
H12 H -0.137(2) -0.379(2) 0.7811(10)
H13 H 0.150(2) -0.416(2) 0.9551(9)
H14 H 0.681(2) 0.146(2) 0.9124(9)
H15 H 0.540(3) 0.318(3) 1.0039(12)
H16 H -0.162(3) -0.109(3) 0.8015(11)
H17 H 0.022(2) -0.528(2) 0.8573(10)
H18 H 0.739(2) 0.318(2) 0.7061(9)
H19 H 0.486(2) 0.412(2) 0.7107(10)
loop_
_geom_bond_atom_site_label_1
_geom_bond_atom_site_label_2
_geom_bond_site_symmetry_1
_geom_bond_site_symmetry_2
O1 C1 1_555 1_555
N1 C2 1_555 1_555
C1 C2 1_555 1_555
C2 H5 1_555 1_555
C3 N1 1_555 1_555
C4 C3 1_555 1_555
C5 C3 1_555 1_555
C6 C5 1_555 1_555
C7 C6 1_555 1_555
C8 C7 1_555 1_555
C9 C8 1_555 1_555
C10 C5 1_555 1_555
C11 C1 1_555 1_555
C12 C11 1_555 1_555
C13 C12 1_555 1_555
C14 C13 1_555 1_555
C15 C14 1_555 1_555
C16 C11 1_555 1_555
H1 C3 1_555 1_555
H2 C1 1_555 1_555
H3 C13 1_555 1_555
H4 C6 1_555 1_555
H6 N1 1_555 1_555
H7 C2 1_555 1_555
H8 C4 1_555 1_555
H9 C4 1_555 1_555
H10 C4 1_555 1_555
H11 C16 1_555 1_555
H12 C8 1_555 1_555
H13 C10 1_555 1_555
H14 C12 1_555 1_555
H15 O1 1_555 1_555
H16 C7 1_555 1_555
H17 C9 1_555 1_555
H18 C14 1_555 1_555
H19 C15 1_555 1_555
C9 C10 1_555 1_555
C15 C16 1_555 1_555

#END
