
#######################################################################
#
#                 Cambridge Crystallographic Data Centre
#                                CCDC 
#
#######################################################################
#
# If this CIF has been generated from an entry in the Cambridge 
# Structural Database, then it will include bibliographic, chemical, 
# crystal, experimental, refinement or atomic coordinate data resulting 
# from the CCDC's data processing and validation procedures.
#
#######################################################################

data_IXETAI
_chemical_formula_moiety         
'C21 H35 B2 F1 N1 O4 1+,C7 H7 O3 S1 1-,2(C1 H2 Cl2)'
_chemical_name_systematic        
'2-fluoro-N,N,N-trimethyl-3,5-bis(4,4,5,5-tetramethyl-1,3,2-dioxaborolan-2-yl)anilinium 4-methylbenzenesulfonate dichloromethane solvate'
_symmetry_cell_setting           monoclinic
_symmetry_space_group_name_H-M   'C 2/m'
_symmetry_Int_Tables_number      12
_space_group_name_Hall           '-C 2y'
loop_
_symmetry_equiv_pos_site_id
_symmetry_equiv_pos_as_xyz
1 x,y,z
2 -x,y,-z
3 1/2+x,1/2+y,z
4 1/2-x,1/2+y,-z
5 -x,-y,-z
6 x,-y,z
7 1/2-x,1/2-y,-z
8 1/2+x,1/2-y,z
_cell_length_a                   33.5416(10)
_cell_length_b                   7.4594(2)
_cell_length_c                   15.8608(5)
_cell_angle_alpha                90
_cell_angle_beta                 106.700(3)
_cell_angle_gamma                90
_cell_volume                     3801
_exptl_crystal_colour            colorless
_exptl_crystal_description       plate
_cell_formula_units_Z            4
loop_
_atom_site_label
_atom_site_type_symbol
_atom_site_fract_x
_atom_site_fract_y
_atom_site_fract_z
S1 S 0.15567(5) 0.5000 0.38849(11)
O5 O 0.2009(2) 0.5000 0.4069(4)
O6 O 0.14217(18) 0.3391(6) 0.4169(3)
C21 C 0.13800(18) 0.5000 0.2729(4)
C22 C 0.1649(2) 0.5000 0.2217(5)
H8 H 0.1941 0.5000 0.2495
C23 C 0.1506(2) 0.5000 0.1311(5)
H9 H 0.1700 0.5000 0.0977
C24 C 0.1094(2) 0.5000 0.0891(5)
C25 C 0.0822(2) 0.5000 0.1395(6)
H10 H 0.0531 0.5000 0.1111
C26 C 0.0963(2) 0.5000 0.2308(5)
H11 H 0.0768 0.5000 0.2641
C27 C 0.0934(4) 0.5000 -0.0105(6)
H12 H 0.0636 0.5000 -0.0291
H13 H 0.1035 0.3949 -0.0327
O6E O 0.14217(18) 0.6609(6) 0.4169(3)
H13E H 0.1035 0.6051 -0.0327
C28 C 0.1171(2) 0.0000 0.5082(5)
H14 H 0.1158 0.1073 0.4708
Cl1 Cl 0.16436(7) 0.0000 0.59286(13)
Cl2 Cl 0.07429(8) 0.0000 0.55123(17)
H14E H 0.1158 -0.1073 0.4708
C29 C 0.4045(3) 0.0000 0.4430(8)
H15 H 0.4028 0.1042 0.4774
Cl3 Cl 0.3654(3) 0.0000 0.3443(4)
Cl4 Cl 0.4528(3) 0.0000 0.4248(12)
H15E H 0.4028 -0.1042 0.4774
F1 F 0.25846(9) 0.5000 0.8116(2)
N1 N 0.26906(13) 0.5000 0.6428(3)
B1 B 0.32360(17) 0.5000 0.9780(4)
O1 O 0.28825(14) 0.4581(10) 0.9979(3)
O2 O 0.35542(15) 0.5499(8) 1.0492(3)
C1 C 0.3000(2) 0.4373(11) 1.0938(4)
C2 C 0.2630(2) 0.494(3) 1.1261(5)
C3 C 0.3086(5) 0.2359(15) 1.1095(10)
C4 C 0.3386(2) 0.5574(12) 1.1244(4)
C5 C 0.3720(2) 0.486(3) 1.2041(5)
C6 C 0.3274(6) 0.7523(17) 1.1356(12)
B2 B 0.42508(19) 0.5000 0.7923(4)
O3 O 0.45769(14) 0.463(3) 0.8641(3)
O4 O 0.43618(15) 0.515(8) 0.7181(3)
C7 C 0.4960(2) 0.476(3) 0.8386(5)
C8 C 0.5140(9) 0.290(3) 0.8665(18)
C9 C 0.5245(6) 0.623(2) 0.8894(13)
C10 C 0.4810(2) 0.480(3) 0.7380(5)
C11 C 0.4869(7) 0.292(2) 0.7059(17)
C12 C 0.4976(5) 0.621(2) 0.6870(10)
C13 C 0.30520(15) 0.5000 0.7242(3)
C14 C 0.29828(15) 0.5000 0.8066(3)
C15 C 0.33035(16) 0.5000 0.8847(3)
C16 C 0.37067(17) 0.5000 0.8778(4)
H1 H 0.3933 0.5000 0.9301
C17 C 0.37895(17) 0.5000 0.7969(4)
C18 C 0.34605(17) 0.5000 0.7209(3)
H2 H 0.3515 0.5000 0.6654
C19 C 0.28383(19) 0.5000 0.5607(3)
H3 H 0.2603 0.5000 0.5091
H4 H 0.2999 0.3938 0.5601
C20 C 0.24259(13) 0.3346(6) 0.6377(3)
H5 H 0.2324 0.3289 0.6897
H6 H 0.2593 0.2278 0.6358
H7 H 0.2189 0.3396 0.5845
O1E O 0.28825(14) 0.5419(10) 0.9979(3)
O2E O 0.35542(15) 0.4501(8) 1.0492(3)
C1E C 0.3000(2) 0.5627(11) 1.0938(4)
C2E C 0.2630(2) 0.506(3) 1.1261(5)
C3E C 0.3086(5) 0.7641(15) 1.1095(10)
C4E C 0.3386(2) 0.4426(12) 1.1244(4)
C5E C 0.3720(2) 0.514(3) 1.2041(5)
C6E C 0.3274(6) 0.2477(17) 1.1356(12)
O3E O 0.45769(14) 0.537(3) 0.8641(3)
O4E O 0.43618(15) 0.485(8) 0.7181(3)
C7E C 0.4960(2) 0.524(3) 0.8386(5)
C8E C 0.5140(9) 0.710(3) 0.8665(18)
C9E C 0.5245(6) 0.377(2) 0.8894(13)
C10E C 0.4810(2) 0.520(3) 0.7380(5)
C11E C 0.4869(7) 0.708(2) 0.7059(17)
C12E C 0.4976(5) 0.379(2) 0.6870(10)
H4E H 0.2999 0.6062 0.5601
C20E C 0.24259(13) 0.6654(6) 0.6377(3)
H5E H 0.2324 0.6711 0.6897
H6E H 0.2593 0.7722 0.6358
H7E H 0.2189 0.6604 0.5845
C30? C 0.4138(5) 0.0000 0.3234(13)
H16? H 0.4160 0.1044 0.2896
H17? H 0.5406 0.2777 0.8532
H18? H 0.5184 0.2749 0.9299
H19? H 0.4945 0.1987 0.8344
H20? H 0.5499 0.6278 0.8707
H21? H 0.5101 0.7386 0.8777
H22? H 0.5318 0.5969 0.9526
H23? H 0.5167 0.2660 0.7188
H24? H 0.4741 0.2040 0.7362
H25? H 0.4737 0.2839 0.6423
H26? H 0.5276 0.6045 0.6979
H27? H 0.4836 0.6085 0.6240
H28? H 0.4922 0.7412 0.7065
H29? H 0.3616 0.4889 1.2559
H30? H 0.3788 0.3617 1.1929
H31? H 0.3970 0.5600 1.2148
H32? H 0.3168 0.2113 1.1728
H33? H 0.2834 0.1679 1.0805
H34? H 0.3312 0.2000 1.0852
H35? H 0.3160 0.7623 1.1857
H36? H 0.3525 0.8268 1.1462
H37? H 0.3067 0.7932 1.0820
H38? H 0.2704 0.4811 1.1902
H39? H 0.2561 0.6196 1.1102
H40? H 0.2390 0.4182 1.0987
loop_
_geom_bond_atom_site_label_1
_geom_bond_atom_site_label_2
_geom_bond_site_symmetry_1
_geom_bond_site_symmetry_2
F1 C14 1_555 1_555
N1 C13 1_555 1_555
B1 O1 1_555 1_555
O1 C1 1_555 1_555
O2 B1 1_555 1_555
C1 C2 1_555 1_555
C2 C1E 1_555 1_555
C3 C1 1_555 1_555
C4 O2 1_555 1_555
C5 C4 1_555 1_555
C6 C4 1_555 1_555
B2 O3 1_555 1_555
O3 C7 1_555 1_555
O4 B2 1_555 1_555
C7 C8 1_555 1_555
C8 C9E 1_555 1_555
C9 C7 1_555 1_555
C10 O4 1_555 1_555
C11 C10 1_555 1_555
C12 C10 1_555 1_555
C13 C14 1_555 1_555
C14 C15 1_555 1_555
C15 B1 1_555 1_555
C16 C15 1_555 1_555
H1 C16 1_555 1_555
C17 B2 1_555 1_555
C18 C13 1_555 1_555
H2 C18 1_555 1_555
C19 N1 1_555 1_555
H3 C19 1_555 1_555
H4 C19 1_555 1_555
C20 N1 1_555 1_555
H5 C20 1_555 1_555
H6 C20 1_555 1_555
H7 C20 1_555 1_555
S1 O5 1_555 1_555
O6 S1 1_555 1_555
C21 S1 1_555 1_555
C22 C21 1_555 1_555
H8 C22 1_555 1_555
C23 C22 1_555 1_555
H9 C23 1_555 1_555
C24 C23 1_555 1_555
C25 C24 1_555 1_555
H10 C25 1_555 1_555
C26 C21 1_555 1_555
H11 C26 1_555 1_555
C27 C24 1_555 1_555
H12 C27 1_555 1_555
H13 C27 1_555 1_555
C28 H14 1_555 1_555
Cl1 C28 1_555 1_555
Cl2 C28 1_555 1_555
C29 H15 1_555 1_555
Cl3 C29 1_555 1_555
Cl4 C29 1_555 1_555
O1E B1 1_555 1_555
O2E B1 1_555 1_555
C1E O1 1_555 1_555
C2E C1 1_555 1_555
C3E C6 1_555 1_555
C4E O2 1_555 1_555
C5E C4 1_555 1_555
C6E C1 1_555 1_555
O3E B2 1_555 1_555
O4E B2 1_555 1_555
C7E O3 1_555 1_555
C8E C9 1_555 1_555
C9E C7 1_555 1_555
C10E O4 1_555 1_555
C11E C10 1_555 1_555
C12E C10 1_555 1_555
H4E C19 1_555 1_555
C20E N1 1_555 1_555
H5E C20E 1_555 1_555
H6E C20E 1_555 1_555
H7E C20E 1_555 1_555
O6E S1 1_555 1_555
H13E C27 1_555 1_555
H14E C28 1_555 1_555
H15E C29 1_555 1_555
O1 O1E 1_555 1_555
O2 O2E 1_555 1_555
C1 C4 1_555 1_555
C1 O1E 1_555 1_555
C1 C1E 1_555 1_555
C1 C4E 1_555 1_555
C3 C6E 1_555 1_555
C4 O2E 1_555 1_555
C4 C1E 1_555 1_555
C4 C4E 1_555 1_555
C5 C4E 1_555 1_555
C6 C1E 1_555 1_555
O3 O3E 1_555 1_555
C7 C10 1_555 1_555
C7 O3E 1_555 1_555
C7 C10E 1_555 1_555
C9 C7E 1_555 1_555
C10 O4E 1_555 1_555
C10 C7E 1_555 1_555
C11 C10E 1_555 1_555
C11 C12E 1_555 1_555
C12 C10E 1_555 1_555
C12 C11E 1_555 1_555
C12 C12E 1_555 1_555
C16 C17 1_555 1_555
C17 C18 1_555 1_555
C25 C26 1_555 1_555
O1E C1E 1_555 1_555
O2E C4E 1_555 1_555
C1E C2E 1_555 1_555
C1E C3E 1_555 1_555
C1E C4E 1_555 1_555
C4E C5E 1_555 1_555
C4E C6E 1_555 1_555
O3E C7E 1_555 1_555
O4E C10E 1_555 1_555
C7E C8E 1_555 1_555
C7E C9E 1_555 1_555
C7E C10E 1_555 1_555
C10E C11E 1_555 1_555
C10E C12E 1_555 1_555

#END
