
#######################################################################
#
#                 Cambridge Crystallographic Data Centre
#                                CCDC 
#
#######################################################################
#
# If this CIF has been generated from an entry in the Cambridge 
# Structural Database, then it will include bibliographic, chemical, 
# crystal, experimental, refinement or atomic coordinate data resulting 
# from the CCDC's data processing and validation procedures.
#
#######################################################################

data_IXEVIQ
_chemical_formula_moiety         'C33 H42 O12'
_chemical_name_systematic        
'Tetracyclo(10.3.0.0^2,6^.0^7,11^)pentadeca-1,6,11-triene-4,4,9,9,14,14-hexacarboxylic acid hexaethyl ester'
_symmetry_cell_setting           trigonal
_symmetry_space_group_name_H-M   'P -3'
_symmetry_Int_Tables_number      147
_space_group_name_Hall           '-P 3'
loop_
_symmetry_equiv_pos_site_id
_symmetry_equiv_pos_as_xyz
1 x,y,z
2 -y,x-y,z
3 -x+y,-x,z
4 -x,-y,-z
5 y,-x+y,-z
6 x-y,x,-z
_cell_length_a                   15.540(2)
_cell_length_b                   15.540(2)
_cell_length_c                   7.618(2)
_cell_angle_alpha                90
_cell_angle_beta                 90
_cell_angle_gamma                120
_cell_volume                     1593.21
_exptl_crystal_colour            colorless
_exptl_crystal_description       plates
_cell_formula_units_Z            2
loop_
_atom_site_label
_atom_site_type_symbol
_atom_site_fract_x
_atom_site_fract_y
_atom_site_fract_z
C1 C -0.28873(13) 0.27511(13) 0.4014(2)
C2 C -0.23064(12) 0.37758(13) 0.4019(2)
C3 C -0.12171(13) 0.41132(13) 0.4064(3)
H1 H -0.0910 0.4496 0.5117
H2 H -0.0882 0.4518 0.3046
C4 C -0.11690(13) 0.31327(13) 0.4050(3)
C5 C -0.22686(13) 0.22543(13) 0.3981(3)
H3 H -0.2389 0.1869 0.2916
H4 H -0.2416 0.1819 0.4986
C6 C -0.06759(14) 0.30384(14) 0.5703(3)
O1 O -0.04835(16) 0.35474(14) 0.6965(2)
O2 O -0.05131(13) 0.22818(12) 0.5580(2)
C7 C -0.0112(2) 0.2051(2) 0.7115(4)
H5 H 0.0587 0.2281 0.6929
H6 H -0.0170 0.2399 0.8126
C8 C -0.0620(3) 0.1015(3) 0.7461(5)
H7 H -0.0339 0.0887 0.8481
H8 H -0.0555 0.0670 0.6471
H9 H -0.1311 0.0788 0.7666
C9 C -0.05805(14) 0.31288(14) 0.2457(3)
O3 O -0.08771(14) 0.25337(13) 0.1307(2)
O4 O 0.03355(10) 0.39172(11) 0.25094(19)
C10 C 0.09567(19) 0.4129(2) 0.0955(3)
H10 H 0.0562 0.4019 -0.0096
H11 H 0.1233 0.3691 0.0917
C11 C 0.1763(2) 0.5171(2) 0.1029(4)
H12 H 0.2178 0.5320 0.0010
H13 H 0.2153 0.5273 0.2067
H14 H 0.1484 0.5600 0.1058
C1A C -0.27511(13) 0.43616(18) 0.4014(2)
C2A C -0.37758(13) 0.39178(18) 0.4019(2)
C1B C -0.43616(18) 0.28873(13) 0.4014(2)
C2B C -0.39178(18) 0.23064(12) 0.4019(2)
C3B C -0.46697(18) 0.12171(13) 0.4064(3)
H1B H -0.4594 0.0910 0.5117
H2B H -0.4600 0.0882 0.3046
C4B C -0.56983(18) 0.11690(13) 0.4050(3)
C5B C -0.54771(18) 0.22686(13) 0.3981(3)
H3B H -0.5742 0.2389 0.2916
H4B H -0.5765 0.2416 0.4986
C6B C -0.62857(20) 0.06759(14) 0.5703(3)
O1B O -0.59691(21) 0.04835(16) 0.6965(2)
O2B O -0.72051(18) 0.05131(13) 0.5580(2)
C7B C -0.7837(3) 0.0112(2) 0.7115(4)
H5B H -0.8306 -0.0587 0.6929
H6B H -0.7431 0.0170 0.8126
C8B C -0.8365(4) 0.0620(3) 0.7461(5)
H7B H -0.8774 0.0339 0.8481
H8B H -0.8775 0.0555 0.6471
H9B H -0.7901 0.1311 0.7666
C9B C -0.62907(20) 0.05805(14) 0.2457(3)
O3B O -0.65892(19) 0.08771(14) 0.1307(2)
O4B O -0.64183(15) -0.03355(10) 0.25094(19)
C10B C -0.68277(28) -0.09567(19) 0.0955(3)
H10B H -0.6543 -0.0562 -0.0096
H11B H -0.7542 -0.1233 0.0917
C11B C -0.6592(3) -0.1763(2) 0.1029(4)
H12B H -0.6858 -0.2178 0.0010
H13B H -0.6880 -0.2153 0.2067
H14B H -0.5884 -0.1484 0.1058
C3A C -0.41132(13) 0.46697(18) 0.4064(3)
H1A H -0.4496 0.4594 0.5117
H2A H -0.4518 0.4600 0.3046
C4A C -0.31327(13) 0.56983(18) 0.4050(3)
C5A C -0.22543(13) 0.54771(18) 0.3981(3)
H3A H -0.1869 0.5742 0.2916
H4A H -0.1819 0.5765 0.4986
C6A C -0.30384(14) 0.62857(20) 0.5703(3)
O1A O -0.35474(14) 0.59691(21) 0.6965(2)
O2A O -0.22818(12) 0.72051(18) 0.5580(2)
C7A C -0.2051(2) 0.7837(3) 0.7115(4)
H5A H -0.2281 0.8306 0.6929
H6A H -0.2399 0.7431 0.8126
C8A C -0.1015(3) 0.8365(4) 0.7461(5)
H7A H -0.0887 0.8774 0.8481
H8A H -0.0670 0.8775 0.6471
H9A H -0.0788 0.7901 0.7666
C9A C -0.31288(14) 0.62907(20) 0.2457(3)
O3A O -0.25337(13) 0.65892(19) 0.1307(2)
O4A O -0.39172(11) 0.64183(15) 0.25094(19)
C10A C -0.4129(2) 0.68277(28) 0.0955(3)
H10A H -0.4019 0.6543 -0.0096
H11A H -0.3691 0.7542 0.0917
C11A C -0.5171(2) 0.6592(3) 0.1029(4)
H12A H -0.5320 0.6858 0.0010
H13A H -0.5273 0.6880 0.2067
H14A H -0.5600 0.5884 0.1058
loop_
_geom_bond_atom_site_label_1
_geom_bond_atom_site_label_2
_geom_bond_site_symmetry_1
_geom_bond_site_symmetry_2
C1 C2 1_555 1_555
C2 C3 1_555 1_555
C3 H1 1_555 1_555
H2 C3 1_555 1_555
C4 C3 1_555 1_555
C5 C1 1_555 1_555
H3 C5 1_555 1_555
H4 C5 1_555 1_555
C6 C4 1_555 1_555
O1 C6 1_555 1_555
O2 C6 1_555 1_555
C7 O2 1_555 1_555
H5 C7 1_555 1_555
H6 C7 1_555 1_555
C8 C7 1_555 1_555
H7 C8 1_555 1_555
H8 C8 1_555 1_555
H9 C8 1_555 1_555
C9 C4 1_555 1_555
O3 C9 1_555 1_555
O4 C9 1_555 1_555
C10 O4 1_555 1_555
H10 C10 1_555 1_555
H11 C10 1_555 1_555
C11 C10 1_555 1_555
H12 C11 1_555 1_555
H13 C11 1_555 1_555
H14 C11 1_555 1_555
C1A C2 1_555 1_555
C2A C1A 1_555 1_555
C1B C2A 1_555 1_555
C2B C1 1_555 1_555
C3B C2B 1_555 1_555
H1B C3B 1_555 1_555
H2B C3B 1_555 1_555
C4B C3B 1_555 1_555
C5B C1B 1_555 1_555
H3B C5B 1_555 1_555
H4B C5B 1_555 1_555
C6B C4B 1_555 1_555
O1B C6B 1_555 1_555
O2B C6B 1_555 1_555
C7B O2B 1_555 1_555
H5B C7B 1_555 1_555
H6B C7B 1_555 1_555
C8B C7B 1_555 1_555
H7B C8B 1_555 1_555
H8B C8B 1_555 1_555
H9B C8B 1_555 1_555
C9B C4B 1_555 1_555
O3B C9B 1_555 1_555
O4B C9B 1_555 1_555
C10B O4B 1_555 1_555
H10B C10B 1_555 1_555
H11B C10B 1_555 1_555
C11B C10B 1_555 1_555
H12B C11B 1_555 1_555
H13B C11B 1_555 1_555
H14B C11B 1_555 1_555
C3A C2A 1_555 1_555
H1A C3A 1_555 1_555
H2A C3A 1_555 1_555
C4A C3A 1_555 1_555
C5A C1A 1_555 1_555
H3A C5A 1_555 1_555
H4A C5A 1_555 1_555
C6A C4A 1_555 1_555
O1A C6A 1_555 1_555
O2A C6A 1_555 1_555
C7A O2A 1_555 1_555
H5A C7A 1_555 1_555
H6A C7A 1_555 1_555
C8A C7A 1_555 1_555
H7A C8A 1_555 1_555
H8A C8A 1_555 1_555
H9A C8A 1_555 1_555
C9A C4A 1_555 1_555
O3A C9A 1_555 1_555
O4A C9A 1_555 1_555
C10A O4A 1_555 1_555
H10A C10A 1_555 1_555
H11A C10A 1_555 1_555
C11A C10A 1_555 1_555
H12A C11A 1_555 1_555
H13A C11A 1_555 1_555
H14A C11A 1_555 1_555
C4 C5 1_555 1_555
C1B C2B 1_555 1_555
C4B C5B 1_555 1_555
C4A C5A 1_555 1_555

#END
