
#######################################################################
#
#                 Cambridge Crystallographic Data Centre
#                                CCDC 
#
#######################################################################
#
# If this CIF has been generated from an entry in the Cambridge 
# Structural Database, then it will include bibliographic, chemical, 
# crystal, experimental, refinement or atomic coordinate data resulting 
# from the CCDC's data processing and validation procedures.
#
#######################################################################

data_IXEWOX
_chemical_formula_moiety         'C52 H64 N4 O10,4(C1 H4 O1)'
_chemical_name_systematic        
"5,23-Dimethoxy-11,17,45,48-tetramethyl-30,33,38,41-tetraoxa-1,9,19,27-tetra-azaspiro(cyclohexane-1',14-hexacyclo(25.8.8.2^10,13^.2^15,18^.1^3,7^.1^21,25^)nonatetracontane)-3(49),4,6,10,12,15,17,21(44),22,24,45,47-dodecaene-2,8,20,26-tetrone methanol solvate"
_symmetry_cell_setting           triclinic
_symmetry_space_group_name_H-M   'P -1'
_symmetry_Int_Tables_number      2
_space_group_name_Hall           '-P 1'
loop_
_symmetry_equiv_pos_site_id
_symmetry_equiv_pos_as_xyz
1 x,y,z
2 -x,-y,-z
_cell_length_a                   13.228(1)
_cell_length_b                   14.615(1)
_cell_length_c                   15.795(1)
_cell_angle_alpha                79.27(1)
_cell_angle_beta                 86.42(1)
_cell_angle_gamma                70.43(1)
_cell_volume                     2826.9
_exptl_crystal_colour            colorless
_exptl_crystal_description       blocks
_cell_formula_units_Z            2
loop_
_atom_site_label
_atom_site_type_symbol
_atom_site_fract_x
_atom_site_fract_y
_atom_site_fract_z
C1 C 0.6624(4) 0.5054(3) 0.5325(3)
C2 C 0.5903(3) 0.5790(3) 0.5831(3)
C3 C 0.5906(3) 0.6758(3) 0.5705(3)
H1 H 0.6366 0.6965 0.5305
C4 C 0.5209(3) 0.7411(3) 0.6189(3)
C5 C 0.4530(3) 0.7107(3) 0.6788(3)
H2 H 0.4091 0.7542 0.7124
C6 C 0.4502(3) 0.6154(3) 0.6889(3)
C7 C 0.5198(3) 0.5493(3) 0.6415(3)
H3 H 0.5192 0.4848 0.6490
C8 C 0.3766(3) 0.5813(3) 0.7526(3)
N1 N 0.3377(3) 0.5158(2) 0.7306(2)
H4 H 0.3463 0.5066 0.6780
C9 C 0.2825(3) 0.4596(3) 0.7877(2)
C10 C 0.3411(3) 0.3850(3) 0.8542(3)
C11 C 0.2877(3) 0.3270(3) 0.9031(3)
H5 H 0.3245 0.2790 0.9482
C12 C 0.1822(3) 0.3367(3) 0.8886(2)
C13 C 0.1274(3) 0.4129(3) 0.8240(3)
H6 H 0.0557 0.4226 0.8138
C14 C 0.1762(3) 0.4746(3) 0.7745(3)
C15 C 0.1354(3) 0.2603(3) 0.9402(2)
C16 C 0.0195(3) 0.2736(3) 0.9142(3)
H7 H 0.0168 0.2806 0.8520
H8 H 0.0036 0.2140 0.9389
C17 C -0.0685(3) 0.3616(3) 0.9419(3)
H9 H -0.0629 0.4221 0.9076
H10 H -0.1380 0.3578 0.9305
C18 C -0.0617(4) 0.3656(3) 1.0360(3)
H11 H -0.0800 0.3113 1.0709
H12 H -0.1128 0.4268 1.0487
C19 C 0.0506(3) 0.3592(3) 1.0585(3)
H13 H 0.0542 0.3602 1.1195
H14 H 0.0669 0.4159 1.0265
C20 C 0.1333(3) 0.2650(3) 1.0372(2)
H15 H 0.1172 0.2085 1.0699
H16 H 0.2038 0.2614 1.0546
C21 C 0.2103(3) 0.1591(3) 0.9220(2)
C22 C 0.2708(3) 0.0855(3) 0.9837(3)
H17 H 0.2616 0.0938 1.0410
C23 C 0.3457(3) -0.0014(3) 0.9643(3)
C24 C 0.3575(3) -0.0128(3) 0.8784(3)
C25 C 0.2935(4) 0.0575(3) 0.8144(3)
C26 C 0.2215(3) 0.1423(3) 0.8367(3)
H18 H 0.1791 0.1899 0.7940
N2 N 0.4387(3) -0.0995(2) 0.8572(2)
H19 H 0.4283 -0.1555 0.8689
C27 C 0.5311(3) -0.0935(3) 0.8191(3)
C28 C 0.6152(3) -0.1882(3) 0.8045(3)
C29 C 0.6149(3) -0.2820(3) 0.8437(3)
H20 H 0.5616 -0.2889 0.8831
C30 C 0.6940(3) -0.3642(3) 0.8236(3)
C31 C 0.7730(3) -0.3540(3) 0.7650(3)
H21 H 0.8245 -0.4099 0.7501
C32 C 0.7763(3) -0.2615(3) 0.7281(3)
C33 C 0.6971(3) -0.1793(3) 0.7495(3)
H22 H 0.6995 -0.1168 0.7261
C34 C 0.8582(4) -0.2525(3) 0.6602(3)
N3 N 0.9135(3) -0.1910(3) 0.6623(2)
C35 C 0.9256(4) -0.1534(4) 0.7385(3)
H23 H 1.0011 -0.1759 0.7533
H24 H 0.8884 -0.1805 0.7862
C36 C 0.8825(5) -0.0416(4) 0.7268(4)
H25 H 0.8994 -0.0130 0.6694
H26 H 0.8052 -0.0192 0.7338
O1 O 0.9295(4) -0.0127(3) 0.7879(3)
C37 C 0.9361(6) 0.0828(5) 0.7631(7)
H27 H 0.9595 0.0906 0.7035
H28 H 0.9902 0.0893 0.7980
C38 C 0.8344(6) 0.1625(4) 0.7716(4)
H29 H 0.7752 0.1478 0.7507
H30 H 0.8212 0.1694 0.8316
O2 O 0.8437(3) 0.2499(3) 0.7226(3)
C39 C 0.7560(5) 0.3374(4) 0.7305(4)
H31 H 0.7549 0.3523 0.7880
H32 H 0.6887 0.3279 0.7211
C40 C 0.7696(4) 0.4211(4) 0.6645(3)
H33 H 0.7294 0.4828 0.6832
H34 H 0.8448 0.4159 0.6623
N4 N 0.7343(3) 0.4248(3) 0.5765(2)
C41 C 0.7912(4) 0.3425(3) 0.5323(3)
H35 H 0.8589 0.3043 0.5611
H36 H 0.8065 0.3677 0.4734
C42 C 0.7237(4) 0.2776(3) 0.5325(3)
H37 H 0.7016 0.2581 0.5909
H38 H 0.6598 0.3133 0.4979
O3 O 0.7847(3) 0.1934(2) 0.4983(2)
C43 C 0.7276(4) 0.1281(4) 0.4983(4)
H39 H 0.6650 0.1602 0.4615
H40 H 0.7031 0.1105 0.5563
C44 C 0.7961(5) 0.0371(4) 0.4669(3)
H41 H 0.7516 0.0004 0.4542
H42 H 0.8322 0.0550 0.4142
O4 O 0.8711(3) -0.0208(2) 0.5285(2)
C45 C 0.9283(5) -0.1155(4) 0.5093(3)
H43 H 0.9797 -0.1107 0.4636
H44 H 0.8791 -0.1441 0.4903
C46 C 0.9855(4) -0.1791(4) 0.5901(4)
H45 H 1.0269 -0.2437 0.5775
H46 H 1.0355 -0.1500 0.6071
O5 O 0.6494(3) 0.5171(2) 0.4536(2)
O6 O 0.5148(2) 0.8376(2) 0.6107(2)
C47 C 0.5824(4) 0.8730(4) 0.5505(4)
H47 H 0.5694 0.9414 0.5518
H48 H 0.5677 0.8657 0.4939
H49 H 0.6559 0.8359 0.5650
O7 O 0.3560(3) 0.6088(2) 0.8226(2)
C48 C 0.4579(4) 0.3656(4) 0.8697(4)
H50 H 0.4821 0.4125 0.8303
H51 H 0.4986 0.3001 0.8609
H52 H 0.4677 0.3719 0.9278
C49 C 0.1123(4) 0.5581(4) 0.7062(4)
H53 H 0.0399 0.5578 0.7057
H54 H 0.1445 0.5496 0.6508
H55 H 0.1121 0.6199 0.7190
C50 C 0.4107(4) -0.0795(3) 1.0344(3)
H56 H 0.3913 -0.0586 1.0890
H57 H 0.4856 -0.0898 1.0238
H58 H 0.3966 -0.1400 1.0351
C51 C 0.3023(5) 0.0416(4) 0.7225(3)
H59 H 0.3561 -0.0207 0.7184
H60 H 0.3219 0.0936 0.6865
H61 H 0.2345 0.0418 0.7040
O8 O 0.5478(3) -0.0158(2) 0.7966(2)
O9 O 0.6990(3) -0.4596(2) 0.8565(2)
C52 C 0.6315(4) -0.4753(4) 0.9248(4)
H62 H 0.6434 -0.5447 0.9412
H63 H 0.5582 -0.4418 0.9075
H64 H 0.6465 -0.4502 0.9729
O10 O 0.8698(3) -0.3001(3) 0.6015(2)
O11 O 0.3622(4) 0.7387(4) 0.9196(3)
H65 H 0.3647 0.6976 0.8899
C53 C 0.2549(8) 0.7855(8) 0.9414(7)
H66 H 0.2516 0.8358 0.9739
H67 H 0.2268 0.7379 0.9754
H68 H 0.2132 0.8149 0.8898
O12 O 0.5756(9) 0.1627(10) 0.7093(9)
H69 H 0.5718 0.1098 0.7350
C54 C 0.4719(8) 0.2272(7) 0.6842(6)
H70 H 0.4211 0.2165 0.7277
H71 H 0.4533 0.2147 0.6307
H72 H 0.4707 0.2942 0.6770
O14 O 1.0484(12) 0.2833(11) 0.6466(9)
H77 H 0.9870 0.3218 0.6472
C56 C 1.1180(15) 0.3353(14) 0.6045(12)
H78 H 1.0919 0.3666 0.5474
H79 H 1.1892 0.2897 0.6013
H80 H 1.1192 0.3845 0.6368
O13? O 0.5319(11) 0.1362(9) 0.6581(9)
H73? H 0.5365 0.0907 0.6985
C55? C 0.4719(8) 0.2272(7) 0.6842(6)
H74? H 0.4336 0.2146 0.7363
H75? H 0.4218 0.2674 0.6397
H76? H 0.5198 0.2610 0.6941
O15? O 1.2004(18) 0.2777(14) 0.5608(15)
H81? H 1.1761 0.3031 0.5123
C57? C 1.2068(12) 0.3521(11) 0.6050(10)
H82? H 1.1777 0.3428 0.6619
H83? H 1.1667 0.4159 0.5740
H84? H 1.2805 0.3477 0.6089
O16? O 1.061(2) 0.3772(19) 0.5555(19)
H85? H 1.0705 0.3683 0.5054
C58? C 0.998(2) 0.4763(18) 0.5569(15)
H86? H 0.9598 0.4805 0.6104
H87? H 0.9485 0.4998 0.5099
H88? H 1.0442 0.5160 0.5516
O17? O 1.014(3) -0.074(2) 0.942(2)
H89? H 0.9908 -0.0405 0.8955
C59? C 1.0461(19) -0.016(2) 0.992(2)
H90? H 0.9837 0.0292 1.0139
H91? H 1.0855 0.0211 0.9554
H92? H 1.0908 -0.0580 1.0385
loop_
_geom_bond_atom_site_label_1
_geom_bond_atom_site_label_2
_geom_bond_site_symmetry_1
_geom_bond_site_symmetry_2
C1 C2 1_555 1_555
C2 C3 1_555 1_555
C3 H1 1_555 1_555
C4 C3 1_555 1_555
C5 C4 1_555 1_555
H2 C5 1_555 1_555
C6 C5 1_555 1_555
C7 C2 1_555 1_555
H3 C7 1_555 1_555
C8 C6 1_555 1_555
N1 C8 1_555 1_555
H4 N1 1_555 1_555
C9 N1 1_555 1_555
C10 C9 1_555 1_555
C11 C10 1_555 1_555
H5 C11 1_555 1_555
C12 C11 1_555 1_555
C13 C12 1_555 1_555
H6 C13 1_555 1_555
C14 C9 1_555 1_555
C15 C12 1_555 1_555
C16 C15 1_555 1_555
H7 C16 1_555 1_555
H8 C16 1_555 1_555
C17 C16 1_555 1_555
H9 C17 1_555 1_555
H10 C17 1_555 1_555
C18 C17 1_555 1_555
H11 C18 1_555 1_555
H12 C18 1_555 1_555
C19 C18 1_555 1_555
H13 C19 1_555 1_555
H14 C19 1_555 1_555
C20 C15 1_555 1_555
H15 C20 1_555 1_555
H16 C20 1_555 1_555
C21 C15 1_555 1_555
C22 C21 1_555 1_555
H17 C22 1_555 1_555
C23 C22 1_555 1_555
C24 C23 1_555 1_555
C25 C24 1_555 1_555
C26 C21 1_555 1_555
H18 C26 1_555 1_555
N2 C24 1_555 1_555
H19 N2 1_555 1_555
C27 N2 1_555 1_555
C28 C27 1_555 1_555
C29 C28 1_555 1_555
H20 C29 1_555 1_555
C30 C29 1_555 1_555
C31 C30 1_555 1_555
H21 C31 1_555 1_555
C32 C31 1_555 1_555
C33 C28 1_555 1_555
H22 C33 1_555 1_555
C34 C32 1_555 1_555
N3 C34 1_555 1_555
C35 N3 1_555 1_555
H23 C35 1_555 1_555
H24 C35 1_555 1_555
C36 C35 1_555 1_555
H25 C36 1_555 1_555
H26 C36 1_555 1_555
O1 C36 1_555 1_555
C37 O1 1_555 1_555
H27 C37 1_555 1_555
H28 C37 1_555 1_555
C38 C37 1_555 1_555
H29 C38 1_555 1_555
H30 C38 1_555 1_555
O2 C38 1_555 1_555
C39 O2 1_555 1_555
H31 C39 1_555 1_555
H32 C39 1_555 1_555
C40 C39 1_555 1_555
H33 C40 1_555 1_555
H34 C40 1_555 1_555
N4 C1 1_555 1_555
C41 N4 1_555 1_555
H35 C41 1_555 1_555
H36 C41 1_555 1_555
C42 C41 1_555 1_555
H37 C42 1_555 1_555
H38 C42 1_555 1_555
O3 C42 1_555 1_555
C43 O3 1_555 1_555
H39 C43 1_555 1_555
H40 C43 1_555 1_555
C44 C43 1_555 1_555
H41 C44 1_555 1_555
H42 C44 1_555 1_555
O4 C44 1_555 1_555
C45 O4 1_555 1_555
H43 C45 1_555 1_555
H44 C45 1_555 1_555
C46 N3 1_555 1_555
H45 C46 1_555 1_555
H46 C46 1_555 1_555
O5 C1 1_555 1_555
O6 C4 1_555 1_555
C47 O6 1_555 1_555
H47 C47 1_555 1_555
H48 C47 1_555 1_555
H49 C47 1_555 1_555
O7 C8 1_555 1_555
C48 C10 1_555 1_555
H50 C48 1_555 1_555
H51 C48 1_555 1_555
H52 C48 1_555 1_555
C49 C14 1_555 1_555
H53 C49 1_555 1_555
H54 C49 1_555 1_555
H55 C49 1_555 1_555
C50 C23 1_555 1_555
H56 C50 1_555 1_555
H57 C50 1_555 1_555
H58 C50 1_555 1_555
C51 C25 1_555 1_555
H59 C51 1_555 1_555
H60 C51 1_555 1_555
H61 C51 1_555 1_555
O8 C27 1_555 1_555
O9 C30 1_555 1_555
C52 O9 1_555 1_555
H62 C52 1_555 1_555
H63 C52 1_555 1_555
H64 C52 1_555 1_555
O10 C34 1_555 1_555
O11 H65 1_555 1_555
C53 O11 1_555 1_555
H66 C53 1_555 1_555
H67 C53 1_555 1_555
H68 C53 1_555 1_555
O12 H69 1_555 1_555
C54 O12 1_555 1_555
H70 C54 1_555 1_555
H71 C54 1_555 1_555
H72 C54 1_555 1_555
O14 H77 1_555 1_555
C56 O14 1_555 1_555
H78 C56 1_555 1_555
H79 C56 1_555 1_555
H80 C56 1_555 1_555
C6 C7 1_555 1_555
C13 C14 1_555 1_555
C19 C20 1_555 1_555
C25 C26 1_555 1_555
C32 C33 1_555 1_555
C40 N4 1_555 1_555
C45 C46 1_555 1_555

#END
