
#######################################################################
#
#                 Cambridge Crystallographic Data Centre
#                                CCDC 
#
#######################################################################
#
# If this CIF has been generated from an entry in the Cambridge 
# Structural Database, then it will include bibliographic, chemical, 
# crystal, experimental, refinement or atomic coordinate data resulting 
# from the CCDC's data processing and validation procedures.
#
#######################################################################

data_IXEWIR
_chemical_formula_moiety         'C56 H64 O4'
_chemical_name_systematic        
5,11,17,23-Tetra-t-butyl-25,26,27,28-tetrakis(prop-2-ynyloxy)calix(4)arene
_symmetry_cell_setting           triclinic
_symmetry_space_group_name_H-M   'P -1'
_symmetry_Int_Tables_number      2
_space_group_name_Hall           '-P 1'
loop_
_symmetry_equiv_pos_site_id
_symmetry_equiv_pos_as_xyz
1 x,y,z
2 -x,-y,-z
_cell_length_a                   11.274(1)
_cell_length_b                   13.900(1)
_cell_length_c                   17.380(1)
_cell_angle_alpha                96.08(1)
_cell_angle_beta                 95.26(1)
_cell_angle_gamma                113.54(1)
_cell_volume                     2455.94
_exptl_crystal_colour            colorless
_exptl_crystal_description       plates
_cell_formula_units_Z            2
loop_
_atom_site_label
_atom_site_type_symbol
_atom_site_fract_x
_atom_site_fract_y
_atom_site_fract_z
C1 C 0.2462(4) 0.0576(3) 0.0463(2)
H1 H 0.1758 0.0201 0.0032
H2 H 0.3270 0.0605 0.0293
C2 C 0.2199(3) -0.0023(3) 0.1155(2)
C3 C 0.0979(4) -0.0811(3) 0.1187(2)
H3 H 0.0335 -0.1006 0.0754
C4 C 0.0666(3) -0.1324(3) 0.1833(2)
C5 C 0.1650(4) -0.0993(3) 0.2471(2)
H4 H 0.1471 -0.1317 0.2913
C6 C 0.2887(3) -0.0200(3) 0.24797(19)
C7 C 0.3161(3) 0.0247(3) 0.1802(2)
O1 O 0.4389(2) 0.10483(19) 0.17971(15)
C8 C 0.5249(4) 0.0713(4) 0.1382(3)
H5 H 0.4726 0.0094 0.0995
H6 H 0.5761 0.1276 0.1108
C9 C 0.6118(5) 0.0460(4) 0.1895(3)
C10 C 0.6845(6) 0.0270(6) 0.2297(4)
H7 H 0.7430 0.0117 0.2620
C11 C -0.0689(4) -0.2190(3) 0.1845(2)
C12 C -0.0872(9) -0.2640(7) 0.2591(5)
H8 H -0.0607 -0.2071 0.3023
H9 H -0.0349 -0.3036 0.2653
H10 H -0.1776 -0.3100 0.2577
C13 C -0.1116(9) -0.3043(7) 0.1140(5)
H11 H -0.0964 -0.2721 0.0676
H12 H -0.2032 -0.3486 0.1108
H13 H -0.0626 -0.3467 0.1186
C14 C -0.1679(9) -0.1636(8) 0.1738(6)
H14 H -0.1602 -0.1348 0.1258
H15 H -0.1472 -0.1075 0.2169
H16 H -0.2558 -0.2153 0.1724
C15 C 0.3867(4) 0.0225(3) 0.3224(2)
H17 H 0.4738 0.0371 0.3100
H18 H 0.3657 -0.0302 0.3572
C16 C 0.3833(3) 0.1241(3) 0.36260(19)
C17 C 0.2684(3) 0.1218(3) 0.3866(2)
H19 H 0.1978 0.0563 0.3826
C18 C 0.2533(3) 0.2120(3) 0.4161(2)
C19 C 0.3596(4) 0.3081(3) 0.4191(2)
H20 H 0.3511 0.3704 0.4362
C20 C 0.4787(3) 0.3157(3) 0.39753(19)
C21 C 0.4906(3) 0.2220(3) 0.37196(19)
O2 O 0.6077(2) 0.22574(18) 0.34979(14)
C22 C 0.7048(4) 0.2358(3) 0.4126(2)
H21 H 0.7109 0.2912 0.4537
H22 H 0.7887 0.2579 0.3939
C23 C 0.6789(4) 0.1385(3) 0.4455(2)
C24 C 0.6638(5) 0.0628(4) 0.4736(3)
H23 H 0.6518 0.0023 0.4960
C25 C 0.1251(4) 0.2035(3) 0.4446(2)
C26 C 0.0077(4) 0.1263(4) 0.3865(3)
H24 H 0.0119 0.0584 0.3783
H25 H 0.0085 0.1530 0.3378
H26 H -0.0713 0.1188 0.4069
C27 C 0.1150(5) 0.3102(4) 0.4562(4)
H27 H 0.1881 0.3604 0.4928
H28 H 0.0352 0.3015 0.4760
H29 H 0.1153 0.3359 0.4070
C28 C 0.1196(5) 0.1619(5) 0.5229(3)
H30 H 0.1932 0.2102 0.5601
H31 H 0.1222 0.0933 0.5158
H32 H 0.0401 0.1560 0.5420
C29 C 0.5887(3) 0.4244(3) 0.4010(2)
H33 H 0.6689 0.4162 0.3943
H34 H 0.6020 0.4655 0.4522
C30 C 0.5611(3) 0.4847(3) 0.3387(2)
C31 C 0.5240(4) 0.5669(3) 0.3580(2)
H35 H 0.5226 0.5880 0.4104
C32 C 0.4887(4) 0.6194(3) 0.3023(2)
C33 C 0.4961(4) 0.5868(3) 0.2244(2)
H36 H 0.4769 0.6223 0.1860
C34 C 0.5309(3) 0.5041(3) 0.2020(2)
C35 C 0.5654(3) 0.4549(3) 0.2604(2)
O3 O 0.5894(2) 0.36581(19) 0.24016(14)
C36 C 0.7169(5) 0.3833(4) 0.2243(3)
H37 H 0.7320 0.4180 0.1783
H38 H 0.7200 0.3148 0.2115
C37 C 0.8240(6) 0.4470(5) 0.2874(4)
C38 C 0.9109(6) 0.4963(6) 0.3362(5)
H39 H 0.9809 0.5360 0.3754
C39 C 0.4406(4) 0.7042(3) 0.3241(2)
C40 C 0.5348(8) 0.7923(6) 0.3859(5)
H40 H 0.5624 0.7626 0.4278
H41 H 0.4926 0.8356 0.4059
H42 H 0.6096 0.8351 0.3637
C41 C 0.3154(8) 0.6503(7) 0.3676(5)
H43 H 0.3399 0.6225 0.4117
H44 H 0.2473 0.5937 0.3318
H45 H 0.2844 0.7027 0.3853
C42 C 0.3942(9) 0.7450(7) 0.2575(4)
H46 H 0.3338 0.6863 0.2197
H47 H 0.4675 0.7866 0.2336
H48 H 0.3513 0.7884 0.2760
C43 C 0.5114(4) 0.4576(3) 0.1166(2)
H49 H 0.5824 0.4377 0.1063
H50 H 0.5111 0.5099 0.0839
C44 C 0.3817(3) 0.3604(3) 0.09795(19)
C45 C 0.2688(4) 0.3701(3) 0.1142(2)
H51 H 0.2733 0.4379 0.1294
C46 C 0.1492(4) 0.2841(3) 0.1091(2)
C47 C 0.1470(4) 0.1847(3) 0.0871(2)
H52 H 0.0691 0.1252 0.0849
C48 C 0.2567(4) 0.1702(3) 0.06794(19)
C49 C 0.3729(3) 0.2591(3) 0.07174(19)
O4 O 0.4835(2) 0.24743(19) 0.05166(13)
C50 C 0.4974(4) 0.2581(4) -0.0280(2)
H53 H 0.5041 0.3277 -0.0368
H54 H 0.4204 0.2052 -0.0615
C51 C 0.6108(5) 0.2452(4) -0.0481(3)
C52 C 0.6997(6) 0.2314(6) -0.0688(4)
H55 H 0.7702 0.2205 -0.0852
C53 C 0.0322(4) 0.3011(4) 0.1341(3)
C54 C -0.0945(5) 0.2057(5) 0.1057(5)
H56 H -0.1079 0.1917 0.0496
H57 H -0.1654 0.2193 0.1234
H58 H -0.0911 0.1451 0.1261
C55 C 0.0532(7) 0.3233(7) 0.2220(4)
H59 H 0.1344 0.3839 0.2400
H60 H 0.0561 0.2626 0.2425
H61 H -0.0174 0.3374 0.2396
C56 C 0.0203(6) 0.3946(5) 0.1036(5)
H62 H 0.0070 0.3819 0.0474
H63 H 0.0990 0.4573 0.1221
H64 H -0.0526 0.4043 0.1218
C57? C -0.1748(9) -0.2238(10) 0.1251(6)
H65? H -0.1461 -0.2213 0.0747
H66? H -0.1961 -0.1644 0.1384
H67? H -0.2507 -0.2887 0.1235
C58? C -0.1083(12) -0.2199(10) 0.2657(5)
H68? H -0.0369 -0.2146 0.3030
H69? H -0.1828 -0.2849 0.2665
H70? H -0.1301 -0.1607 0.2789
C59? C -0.0523(13) -0.3271(8) 0.1610(8)
H71? H 0.0161 -0.3291 0.1970
H72? H -0.0303 -0.3302 0.1090
H73? H -0.1329 -0.3866 0.1628
C60? C 0.3111(9) 0.6811(9) 0.2779(6)
H74? H 0.3134 0.6627 0.2235
H75? H 0.2926 0.7429 0.2854
H76? H 0.2440 0.6230 0.2953
C61? C 0.5410(10) 0.8099(8) 0.2958(7)
H77? H 0.5405 0.7963 0.2404
H78? H 0.6276 0.8293 0.3226
H79? H 0.5148 0.8669 0.3076
C62? C 0.4486(11) 0.7354(9) 0.4089(5)
H80? H 0.5350 0.7515 0.4344
H81? H 0.3860 0.6779 0.4296
H82? H 0.4299 0.7969 0.4178
loop_
_geom_bond_atom_site_label_1
_geom_bond_atom_site_label_2
_geom_bond_site_symmetry_1
_geom_bond_site_symmetry_2
C1 H1 1_555 1_555
H2 C1 1_555 1_555
C2 C1 1_555 1_555
C3 C2 1_555 1_555
H3 C3 1_555 1_555
C4 C3 1_555 1_555
C5 C4 1_555 1_555
H4 C5 1_555 1_555
C6 C5 1_555 1_555
C7 C2 1_555 1_555
O1 C7 1_555 1_555
C8 O1 1_555 1_555
H5 C8 1_555 1_555
H6 C8 1_555 1_555
C9 C8 1_555 1_555
C10 C9 1_555 1_555
H7 C10 1_555 1_555
C11 C4 1_555 1_555
C12 C11 1_555 1_555
H8 C12 1_555 1_555
H9 C12 1_555 1_555
H10 C12 1_555 1_555
C13 C11 1_555 1_555
H11 C13 1_555 1_555
H12 C13 1_555 1_555
H13 C13 1_555 1_555
C14 C11 1_555 1_555
H14 C14 1_555 1_555
H15 C14 1_555 1_555
H16 C14 1_555 1_555
C15 C6 1_555 1_555
H17 C15 1_555 1_555
H18 C15 1_555 1_555
C16 C15 1_555 1_555
C17 C16 1_555 1_555
H19 C17 1_555 1_555
C18 C17 1_555 1_555
C19 C18 1_555 1_555
H20 C19 1_555 1_555
C20 C19 1_555 1_555
C21 C16 1_555 1_555
O2 C21 1_555 1_555
C22 O2 1_555 1_555
H21 C22 1_555 1_555
H22 C22 1_555 1_555
C23 C22 1_555 1_555
C24 C23 1_555 1_555
H23 C24 1_555 1_555
C25 C18 1_555 1_555
C26 C25 1_555 1_555
H24 C26 1_555 1_555
H25 C26 1_555 1_555
H26 C26 1_555 1_555
C27 C25 1_555 1_555
H27 C27 1_555 1_555
H28 C27 1_555 1_555
H29 C27 1_555 1_555
C28 C25 1_555 1_555
H30 C28 1_555 1_555
H31 C28 1_555 1_555
H32 C28 1_555 1_555
C29 C20 1_555 1_555
H33 C29 1_555 1_555
H34 C29 1_555 1_555
C30 C29 1_555 1_555
C31 C30 1_555 1_555
H35 C31 1_555 1_555
C32 C31 1_555 1_555
C33 C32 1_555 1_555
H36 C33 1_555 1_555
C34 C33 1_555 1_555
C35 C30 1_555 1_555
O3 C35 1_555 1_555
C36 O3 1_555 1_555
H37 C36 1_555 1_555
H38 C36 1_555 1_555
C37 C36 1_555 1_555
C38 C37 1_555 1_555
H39 C38 1_555 1_555
C39 C32 1_555 1_555
C40 C39 1_555 1_555
H40 C40 1_555 1_555
H41 C40 1_555 1_555
H42 C40 1_555 1_555
C41 C39 1_555 1_555
H43 C41 1_555 1_555
H44 C41 1_555 1_555
H45 C41 1_555 1_555
C42 C39 1_555 1_555
H46 C42 1_555 1_555
H47 C42 1_555 1_555
H48 C42 1_555 1_555
C43 C34 1_555 1_555
H49 C43 1_555 1_555
H50 C43 1_555 1_555
C44 C43 1_555 1_555
C45 C44 1_555 1_555
H51 C45 1_555 1_555
C46 C45 1_555 1_555
C47 C46 1_555 1_555
H52 C47 1_555 1_555
C48 C1 1_555 1_555
C49 C44 1_555 1_555
O4 C49 1_555 1_555
C50 O4 1_555 1_555
H53 C50 1_555 1_555
H54 C50 1_555 1_555
C51 C50 1_555 1_555
C52 C51 1_555 1_555
H55 C52 1_555 1_555
C53 C46 1_555 1_555
C54 C53 1_555 1_555
H56 C54 1_555 1_555
H57 C54 1_555 1_555
H58 C54 1_555 1_555
C55 C53 1_555 1_555
H59 C55 1_555 1_555
H60 C55 1_555 1_555
H61 C55 1_555 1_555
C56 C53 1_555 1_555
H62 C56 1_555 1_555
H63 C56 1_555 1_555
H64 C56 1_555 1_555
C6 C7 1_555 1_555
C20 C21 1_555 1_555
C34 C35 1_555 1_555
C47 C48 1_555 1_555
C48 C49 1_555 1_555

#END
