
#######################################################################
#
#                 Cambridge Crystallographic Data Centre
#                                CCDC 
#
#######################################################################
#
# If this CIF has been generated from an entry in the Cambridge 
# Structural Database, then it will include bibliographic, chemical, 
# crystal, experimental, refinement or atomic coordinate data resulting 
# from the CCDC's data processing and validation procedures.
#
#######################################################################

data_IXEXIU
_chemical_formula_moiety         'C15 H16 N4 O4 S1'
_chemical_name_systematic        
'methyl (methoxyimino)(2-(((((4-methyl-1,2,3-thiadiazol-5-yl)methylene)amino)oxy)methyl)phenyl)acetate'
_symmetry_cell_setting           triclinic
_symmetry_space_group_name_H-M   'P -1'
_symmetry_Int_Tables_number      2
_space_group_name_Hall           '-P 1'
loop_
_symmetry_equiv_pos_site_id
_symmetry_equiv_pos_as_xyz
1 x,y,z
2 -x,-y,-z
_cell_length_a                   7.9986(16)
_cell_length_b                   10.370(2)
_cell_length_c                   11.701(2)
_cell_angle_alpha                106.83(3)
_cell_angle_beta                 106.02(3)
_cell_angle_gamma                104.49(3)
_cell_volume                     833.437
_exptl_crystal_colour            colorless
_exptl_crystal_description       block
_cell_formula_units_Z            2
loop_
_atom_site_label
_atom_site_type_symbol
_atom_site_fract_x
_atom_site_fract_y
_atom_site_fract_z
S1 S 1.12216(6) 1.03963(4) 0.34140(4)
O1 O 0.76938(14) 0.60567(10) 0.28607(9)
O2 O 0.73146(13) 0.30035(11) -0.05224(9)
O3 O 0.92062(15) 0.32791(12) 0.36064(10)
O4 O 1.11517(13) 0.47685(11) 0.30856(9)
N1 N 1.39631(18) 1.16077(13) 0.54799(13)
N2 N 1.31650(18) 1.18182(13) 0.44632(13)
N3 N 0.87836(17) 0.74239(12) 0.30040(11)
N4 N 0.87393(16) 0.34543(12) 0.06797(11)
C1 C 1.3791(2) 0.99426(17) 0.66063(15)
H1 H 1.2986 0.8985 0.6473
H2 H 1.3827 1.0665 0.7378
H3 H 1.5054 0.9949 0.6719
C2 C 1.3053(2) 1.02865(16) 0.54821(15)
C3 C 1.1479(2) 0.94473(15) 0.43832(13)
C4 C 1.0192(2) 0.80117(15) 0.40746(13)
H4 H 1.0390 0.7527 0.4647
C5 C 0.6133(2) 0.54506(15) 0.16470(14)
H5 H 0.6573 0.5493 0.0942
H6 H 0.5283 0.5998 0.1680
C6 C 0.51391(19) 0.39103(15) 0.14201(12)
C7 C 0.3251(2) 0.34152(16) 0.12217(14)
H7 H 0.2595 0.4064 0.1246
C8 C 0.2319(2) 0.19836(17) 0.09888(14)
H8 H 0.1030 0.1656 0.0844
C9 C 0.3268(2) 0.10395(16) 0.09678(14)
H9 H 0.2635 0.0063 0.0816
C10 C 0.5154(2) 0.15190(15) 0.11696(13)
H10 H 0.5807 0.0869 0.1161
C11 C 0.60820(18) 0.29377(14) 0.13825(12)
C12 C 0.80906(18) 0.34194(14) 0.15646(12)
C13 C 0.8179(2) 0.30451(16) -0.14493(13)
H11 H 0.9014 0.4034 -0.1202
H12 H 0.7214 0.2726 -0.2304
H13 H 0.8896 0.2404 -0.1471
C14 C 0.95342(19) 0.38170(14) 0.28721(13)
C15 C 1.2667(2) 0.51209(17) 0.42933(14)
H14 H 1.2310 0.5511 0.5019
H15 H 1.3791 0.5841 0.4363
H16 H 1.2918 0.4247 0.4307
loop_
_geom_bond_atom_site_label_1
_geom_bond_atom_site_label_2
_geom_bond_site_symmetry_1
_geom_bond_site_symmetry_2
S1 N2 1_555 1_555
O1 N3 1_555 1_555
O2 N4 1_555 1_555
O3 C14 1_555 1_555
O4 C14 1_555 1_555
N1 N2 1_555 1_555
N3 C4 1_555 1_555
N4 C12 1_555 1_555
C1 H1 1_555 1_555
H2 C1 1_555 1_555
H3 C1 1_555 1_555
C2 N1 1_555 1_555
C3 S1 1_555 1_555
C4 C3 1_555 1_555
H4 C4 1_555 1_555
C5 O1 1_555 1_555
H5 C5 1_555 1_555
H6 C5 1_555 1_555
C6 C5 1_555 1_555
C7 C6 1_555 1_555
H7 C7 1_555 1_555
C8 C7 1_555 1_555
H8 C8 1_555 1_555
C9 C8 1_555 1_555
H9 C9 1_555 1_555
C10 C9 1_555 1_555
H10 C10 1_555 1_555
C11 C6 1_555 1_555
C12 C11 1_555 1_555
C13 O2 1_555 1_555
H11 C13 1_555 1_555
H12 C13 1_555 1_555
H13 C13 1_555 1_555
C14 C12 1_555 1_555
C15 O4 1_555 1_555
H14 C15 1_555 1_555
H15 C15 1_555 1_555
H16 C15 1_555 1_555
C1 C2 1_555 1_555
C2 C3 1_555 1_555
C10 C11 1_555 1_555

#END
