
#######################################################################
#
#                 Cambridge Crystallographic Data Centre
#                                CCDC 
#
#######################################################################
#
# If this CIF has been generated from an entry in the Cambridge 
# Structural Database, then it will include bibliographic, chemical, 
# crystal, experimental, refinement or atomic coordinate data resulting 
# from the CCDC's data processing and validation procedures.
#
#######################################################################

data_IXEXEQ
_chemical_formula_moiety         'C15 H13 Cl2 N3 O4 S1'
_chemical_name_systematic        
'methyl (2-(((((3,4-dichloro-1,2-thiazol-5-yl)methylene)amino)oxy)methyl)phenyl)(methoxyimino)acetate'
_symmetry_cell_setting           monoclinic
_symmetry_space_group_name_H-M   'P 21/c'
_symmetry_Int_Tables_number      14
_space_group_name_Hall           '-P 2ybc'
loop_
_symmetry_equiv_pos_site_id
_symmetry_equiv_pos_as_xyz
1 x,y,z
2 -x,1/2+y,1/2-z
3 -x,-y,-z
4 x,1/2-y,1/2+z
_cell_length_a                   11.3908(12)
_cell_length_b                   8.3911(7)
_cell_length_c                   18.9319(19)
_cell_angle_alpha                90
_cell_angle_beta                 106.049(2)
_cell_angle_gamma                90
_cell_volume                     1739.01
_exptl_crystal_colour            colorless
_exptl_crystal_description       Prism
_cell_formula_units_Z            4
loop_
_atom_site_label
_atom_site_type_symbol
_atom_site_fract_x
_atom_site_fract_y
_atom_site_fract_z
S1 S 0.35727(10) 0.55695(13) 0.23357(6)
Cl1 Cl 0.58556(10) 0.35263(15) 0.12675(7)
Cl2 Cl 0.30414(11) 0.22454(14) 0.06313(6)
O1 O 0.1291(3) 0.5810(4) 0.23613(16)
O2 O 0.2332(3) 0.2846(4) 0.36777(19)
O3 O 0.3822(3) 0.4533(4) 0.42505(18)
O4 O 0.1298(3) 0.7741(3) 0.43944(17)
N1 N 0.4883(4) 0.5189(5) 0.2150(2)
N2 N 0.0653(3) 0.4803(4) 0.1800(2)
N3 N 0.2223(3) 0.6687(4) 0.43551(19)
C1 C 0.4687(4) 0.4147(6) 0.1612(2)
C2 C 0.3477(4) 0.3602(5) 0.1330(2)
C3 C 0.2712(4) 0.4309(5) 0.1679(2)
C4 C 0.1400(4) 0.4095(5) 0.1506(2)
H1 H 0.1052 0.3344 0.1131
C5 C 0.0410(4) 0.6720(5) 0.2630(2)
H2 H -0.0211 0.7184 0.2207
H3 H 0.0837 0.7609 0.2941
C6 C -0.0217(4) 0.5698(5) 0.3071(2)
C7 C -0.1466(4) 0.5399(5) 0.2816(2)
H4 H -0.1922 0.5840 0.2360
C8 C -0.2053(4) 0.4462(5) 0.3220(3)
H5 H -0.2908 0.4283 0.3047
C9 C -0.1381(4) 0.3788(5) 0.3880(2)
H6 H -0.1778 0.3138 0.4154
C10 C -0.0142(4) 0.4062(5) 0.4136(2)
H7 H 0.0314 0.3585 0.4583
C11 C 0.0445(4) 0.5035(5) 0.3742(2)
C12 C 0.1771(4) 0.5376(5) 0.4038(2)
C13 C 0.2668(4) 0.4113(5) 0.3967(2)
C14 C 0.4718(4) 0.3335(6) 0.4200(3)
H8 H 0.4535 0.2332 0.4412
H9 H 0.5536 0.3699 0.4470
H10 H 0.4687 0.3166 0.3683
C15 C 0.1835(4) 0.9265(5) 0.4651(3)
H11 H 0.2546 0.9106 0.5076
H12 H 0.1232 0.9928 0.4796
H13 H 0.2090 0.9795 0.4257
loop_
_geom_bond_atom_site_label_1
_geom_bond_atom_site_label_2
_geom_bond_site_symmetry_1
_geom_bond_site_symmetry_2
S1 N1 1_555 1_555
Cl1 C1 1_555 1_555
Cl2 C2 1_555 1_555
O1 N2 1_555 1_555
O2 C13 1_555 1_555
O3 C13 1_555 1_555
O4 N3 1_555 1_555
N1 C1 1_555 1_555
N2 C4 1_555 1_555
N3 C12 1_555 1_555
C1 C2 1_555 1_555
C2 C3 1_555 1_555
C3 S1 1_555 1_555
C4 C3 1_555 1_555
H1 C4 1_555 1_555
C5 O1 1_555 1_555
H2 C5 1_555 1_555
H3 C5 1_555 1_555
C6 C5 1_555 1_555
C7 C6 1_555 1_555
H4 C7 1_555 1_555
C8 C7 1_555 1_555
H5 C8 1_555 1_555
C9 C8 1_555 1_555
H6 C9 1_555 1_555
C10 C9 1_555 1_555
H7 C10 1_555 1_555
C11 C6 1_555 1_555
C12 C11 1_555 1_555
C13 C12 1_555 1_555
C14 O3 1_555 1_555
H8 C14 1_555 1_555
H9 C14 1_555 1_555
H10 C14 1_555 1_555
C15 O4 1_555 1_555
H11 C15 1_555 1_555
H12 C15 1_555 1_555
H13 C15 1_555 1_555
C10 C11 1_555 1_555

#END
