
#######################################################################
#
#                 Cambridge Crystallographic Data Centre
#                                CCDC 
#
#######################################################################
#
# If this CIF has been generated from an entry in the Cambridge 
# Structural Database, then it will include bibliographic, chemical, 
# crystal, experimental, refinement or atomic coordinate data resulting 
# from the CCDC's data processing and validation procedures.
#
#######################################################################

data_IXICUP
_chemical_formula_moiety         'C21 H15 F6 N5'
_chemical_name_systematic        
4-(7-(3,5-bis(trifluoromethyl)phenyl)[1,2,4]triazolo[1,5-a]pyrimidin-2-yl)-N,N-dimethylaniline
_symmetry_cell_setting           triclinic
_symmetry_space_group_name_H-M   'P -1'
_symmetry_Int_Tables_number      2
_space_group_name_Hall           '-P 1'
loop_
_symmetry_equiv_pos_site_id
_symmetry_equiv_pos_as_xyz
1 x,y,z
2 -x,-y,-z
_cell_length_a                   7.4714(5)
_cell_length_b                   9.4834(4)
_cell_length_c                   15.0286(9)
_cell_angle_alpha                77.253(4)
_cell_angle_beta                 76.240(5)
_cell_angle_gamma                83.065(4)
_cell_volume                     1006.17
_cell_formula_units_Z            2
loop_
_atom_site_label
_atom_site_type_symbol
_atom_site_fract_x
_atom_site_fract_y
_atom_site_fract_z
C1 C 0.2710(4) 0.4740(3) 0.45707(19)
C2 C 0.1814(4) 0.6771(3) 0.49391(19)
C3 C 0.1160(4) 0.5996(3) 0.66162(19)
C4 C 0.0716(4) 0.7416(3) 0.6655(2)
H1 H 0.0341 0.7696 0.7230
C5 C 0.0823(5) 0.8458(3) 0.5828(2)
H2 H 0.0508 0.9420 0.5880
C6 C 0.3380(4) 0.3644(3) 0.40071(18)
C7 C 0.3767(4) 0.3985(3) 0.30360(19)
H3 H 0.3627 0.4947 0.2736
C8 C 0.4349(4) 0.2940(3) 0.25074(19)
H4 H 0.4570 0.3207 0.1859
C9 C 0.4621(4) 0.1473(3) 0.2925(2)
C10 C 0.4219(5) 0.1133(3) 0.3905(2)
H5 H 0.4364 0.0173 0.4208
C11 C 0.3619(4) 0.2183(3) 0.4421(2)
H6 H 0.3362 0.1917 0.5070
C12 C 0.1040(4) 0.4782(3) 0.74363(18)
C13 C 0.1784(4) 0.4906(3) 0.81755(19)
H7 H 0.2381 0.5728 0.8141
C14 C 0.1641(4) 0.3815(3) 0.89636(19)
C15 C 0.0725(4) 0.2609(3) 0.90297(19)
H8 H 0.0619 0.1878 0.9562
C16 C -0.0035(4) 0.2492(3) 0.83003(19)
C17 C 0.0133(4) 0.3556(3) 0.74979(18)
H9 H -0.0356 0.3452 0.7004
C18 C 0.2556(6) 0.3926(4) 0.9720(2)
C19 C -0.1060(6) 0.1220(4) 0.8379(3)
C20 C 0.5774(6) 0.0788(4) 0.1402(2)
H10 H 0.4750 0.1291 0.1153
H11 H 0.6149 -0.0081 0.1158
H12 H 0.6786 0.1400 0.1225
C21 C 0.5499(5) -0.1070(3) 0.2866(2)
H13 H 0.6483 -0.1163 0.3190
H14 H 0.5811 -0.1677 0.2410
H15 H 0.4382 -0.1361 0.3305
F1 F 0.1613(7) 0.3306(5) 1.0588(2)
F2 F 0.2619(16) 0.5344(10) 0.9793(7)
F3 F 0.4277(13) 0.3353(10) 0.9625(5)
F4 F -0.0827(7) 0.0738(4) 0.7599(3)
F5 F -0.0776(11) 0.0122(5) 0.9035(4)
F6 F -0.2884(7) 0.1550(5) 0.8550(6)
N1 N 0.1729(3) 0.5699(2) 0.57409(15)
N2 N 0.2302(3) 0.4389(2) 0.55057(15)
N3 N 0.2424(3) 0.6172(2) 0.41960(16)
N4 N 0.1337(4) 0.8173(2) 0.49801(18)
N5 N 0.5230(4) 0.0420(3) 0.24041(18)
F7? F 0.231(3) 0.290(2) 1.0380(10)
F8? F 0.223(6) 0.503(4) 0.997(3)
F9? F 0.430(5) 0.382(4) 0.936(2)
F10? F 0.003(2) 0.0070(15) 0.8238(10)
F11? F -0.203(4) 0.0801(17) 0.9150(15)
F12? F -0.217(2) 0.1379(19) 0.790(2)
loop_
_geom_bond_atom_site_label_1
_geom_bond_atom_site_label_2
_geom_bond_site_symmetry_1
_geom_bond_site_symmetry_2
C1 C6 1_555 1_555
C2 N1 1_555 1_555
C3 C4 1_555 1_555
C4 H1 1_555 1_555
C5 C4 1_555 1_555
H2 C5 1_555 1_555
C6 C7 1_555 1_555
C7 H3 1_555 1_555
C8 C7 1_555 1_555
H4 C8 1_555 1_555
C9 C8 1_555 1_555
C10 C9 1_555 1_555
H5 C10 1_555 1_555
C11 C6 1_555 1_555
H6 C11 1_555 1_555
C12 C3 1_555 1_555
C13 C12 1_555 1_555
H7 C13 1_555 1_555
C14 C13 1_555 1_555
C15 C14 1_555 1_555
H8 C15 1_555 1_555
C16 C15 1_555 1_555
C17 C12 1_555 1_555
H9 C17 1_555 1_555
C18 C14 1_555 1_555
C19 C16 1_555 1_555
C20 H10 1_555 1_555
H11 C20 1_555 1_555
H12 C20 1_555 1_555
C21 H13 1_555 1_555
H14 C21 1_555 1_555
H15 C21 1_555 1_555
F1 C18 1_555 1_555
F2 C18 1_555 1_555
F3 C18 1_555 1_555
F4 C19 1_555 1_555
F5 C19 1_555 1_555
F6 C19 1_555 1_555
N1 C3 1_555 1_555
N2 C1 1_555 1_555
N3 C1 1_555 1_555
N4 C2 1_555 1_555
N5 C9 1_555 1_555
C2 N3 1_555 1_555
C5 N4 1_555 1_555
C10 C11 1_555 1_555
C16 C17 1_555 1_555
C20 N5 1_555 1_555
C21 N5 1_555 1_555
N1 N2 1_555 1_555

#END
