
#######################################################################
#
#                 Cambridge Crystallographic Data Centre
#                                CCDC 
#
#######################################################################
#
# If this CIF has been generated from an entry in the Cambridge 
# Structural Database, then it will include bibliographic, chemical, 
# crystal, experimental, refinement or atomic coordinate data resulting 
# from the CCDC's data processing and validation procedures.
#
#######################################################################

data_IXICID
_chemical_formula_moiety         'C19 H10 F6 N4,0.5(C1 H1 Cl3)'
_chemical_name_systematic        
'2-(3,5-bis(trifluoromethyl)phenyl)-7-phenyl[1,2,4]triazolo[1,5-a]pyrimidine chloroform solvate'
_symmetry_cell_setting           monoclinic
_symmetry_space_group_name_H-M   'P 21/c'
_symmetry_Int_Tables_number      14
_space_group_name_Hall           '-P 2ybc'
loop_
_symmetry_equiv_pos_site_id
_symmetry_equiv_pos_as_xyz
1 x,y,z
2 -x,1/2+y,1/2-z
3 -x,-y,-z
4 x,1/2-y,1/2+z
_cell_length_a                   15.0395(16)
_cell_length_b                   7.5585(7)
_cell_length_c                   35.865(4)
_cell_angle_alpha                90
_cell_angle_beta                 101.240(10)
_cell_angle_gamma                90
_cell_volume                     3998.79
_cell_formula_units_Z            8
loop_
_atom_site_label
_atom_site_type_symbol
_atom_site_fract_x
_atom_site_fract_y
_atom_site_fract_z
N1 N 0.44236(19) 0.9634(3) 0.36865(8)
N2 N 0.43810(19) 1.0397(3) 0.40272(8)
N3 N 0.2963(2) 0.9636(4) 0.37821(9)
N4 N 0.3248(3) 1.1049(4) 0.43938(11)
C1 C 0.2065(3) 0.7434(5) 0.26768(12)
C2 C 0.2682(3) 0.6982(5) 0.24549(12)
H1 H 0.2483 0.6496 0.2209
C3 C 0.3605(2) 0.7250(4) 0.25975(11)
C4 C 0.3891(2) 0.7965(4) 0.29562(10)
H2 H 0.4520 0.8149 0.3050
C5 C 0.3270(2) 0.8414(4) 0.31795(10)
C6 C 0.2346(2) 0.8144(4) 0.30369(12)
H3 H 0.1912 0.8447 0.3186
C7 C 0.1080(3) 0.7261(7) 0.25137(17)
C8 C 0.4265(3) 0.6758(6) 0.23538(14)
C9 C 0.3556(2) 0.9222(4) 0.35549(10)
C10 C 0.3489(3) 1.0375(4) 0.40815(11)
C11 C 0.5075(3) 1.1072(4) 0.42927(10)
C12 C 0.4817(3) 1.1741(5) 0.46094(11)
H4 H 0.5261 1.2236 0.4807
C13 C 0.3913(4) 1.1706(5) 0.46473(12)
H5 H 0.3768 1.2192 0.4872
C14 C 0.6022(3) 1.1026(4) 0.42328(10)
C15 C 0.6240(3) 1.1237(5) 0.38787(11)
H6 H 0.5773 1.1382 0.3661
C16 C 0.7139(3) 1.1237(6) 0.38412(15)
H7 H 0.7291 1.1374 0.3598
C17 C 0.7813(3) 1.1037(7) 0.41593(19)
H8 H 0.8430 1.1026 0.4135
C18 C 0.7592(4) 1.0850(6) 0.45159(17)
H9 H 0.8058 1.0715 0.4735
C19 C 0.6708(3) 1.0862(5) 0.45512(13)
H10 H 0.6558 1.0758 0.4796
F1 F 0.0727(3) 0.8796(8) 0.2369(2)
F2 F 0.0587(4) 0.6843(11) 0.2784(2)
F3 F 0.5110(2) 0.6536(6) 0.25525(10)
F4 F 0.4058(2) 0.5269(4) 0.21675(10)
F5 F 0.4336(3) 0.7952(5) 0.20916(12)
F6 F 0.0869(3) 0.5850(9) 0.22995(18)
N5 N 0.47652(19) 0.5217(3) 0.38665(8)
N6 N 0.40245(19) 0.5410(3) 0.40313(8)
N7 N 0.5196(2) 0.6447(4) 0.44581(9)
N8 N 0.3728(3) 0.6557(4) 0.46195(10)
C20 C 0.7966(3) 0.5921(5) 0.43412(12)
C21 C 0.8158(3) 0.6136(5) 0.39803(12)
H11 H 0.8768 0.6221 0.3946
C22 C 0.7449(3) 0.6224(5) 0.36732(11)
C23 C 0.6565(2) 0.6125(5) 0.37182(11)
H12 H 0.6085 0.6177 0.3503
C24 C 0.6373(2) 0.5947(4) 0.40788(10)
C25 C 0.7071(3) 0.5849(5) 0.43900(11)
H13 H 0.6942 0.5733 0.4638
C26 C 0.8714(3) 0.5795(9) 0.46735(15)
C27 C 0.7665(3) 0.6489(8) 0.32937(14)
C28 C 0.5429(2) 0.5868(4) 0.41334(10)
C29 C 0.4301(3) 0.6157(4) 0.43904(11)
C30 C 0.3137(2) 0.4955(4) 0.38891(10)
C31 C 0.2562(3) 0.5354(5) 0.41316(13)
H14 H 0.1936 0.5075 0.4059
C32 C 0.2877(3) 0.6159(6) 0.44833(13)
H15 H 0.2444 0.6440 0.4635
C33 C 0.2847(2) 0.4108(4) 0.35146(10)
C34 C 0.3418(3) 0.3607(5) 0.32723(11)
H16 H 0.4050 0.3816 0.3347
C35 C 0.3090(3) 0.2811(5) 0.29253(12)
H17 H 0.3496 0.2492 0.2764
C36 C 0.2178(3) 0.2480(5) 0.28134(13)
H18 H 0.1948 0.1935 0.2575
C37 C 0.1608(3) 0.2945(7) 0.30497(15)
H19 H 0.0978 0.2705 0.2976
C38 C 0.1921(3) 0.3741(6) 0.33864(14)
H20 H 0.1503 0.4064 0.3542
F13 F 0.8531(4) 0.4885(14) 0.49611(17)
F14 F 0.9081(4) 0.7332(7) 0.47852(16)
F15 F 0.9468(3) 0.5022(10) 0.45875(14)
F16 F 0.8013(5) 0.8044(8) 0.32394(14)
F17 F 0.6964(4) 0.6332(11) 0.29989(12)
F18 F 0.8293(7) 0.5411(14) 0.32113(19)
C39 C 0.0863(3) 1.0150(9) 0.40115(19)
H21 H 0.1519 1.0270 0.4000
Cl1 Cl 0.0310(3) 0.9397(9) 0.35857(11)
Cl2 Cl 0.0457(2) 1.2258(4) 0.41111(14)
Cl3 Cl 0.0778(3) 0.8723(7) 0.43862(14)
F7? F 0.0936(15) 0.674(5) 0.2166(8)
F8? F 0.0876(16) 0.806(5) 0.2182(10)
F9? F 0.058(2) 0.773(4) 0.2716(11)
F10? F 0.484(5) 0.768(14) 0.240(3)
F11? F 0.460(5) 0.524(10) 0.256(2)
F12? F 0.423(6) 0.889(11) 0.224(2)
F19? F 0.8873(11) 0.440(4) 0.4816(5)
F20? F 0.8433(9) 0.6679(19) 0.4988(4)
F21? F 0.9393(10) 0.650(4) 0.4674(4)
F22? F 0.7252(18) 0.786(3) 0.3124(5)
F23? F 0.7412(14) 0.526(4) 0.3080(4)
F24? F 0.846(3) 0.662(5) 0.3291(7)
H22? H 0.1517 1.0410 0.4017
Cl4? Cl 0.0453(11) 0.833(3) 0.3761(4)
Cl5? Cl 0.0119(8) 1.1672(16) 0.3777(5)
Cl6? Cl 0.0619(11) 0.978(2) 0.4403(6)
loop_
_geom_bond_atom_site_label_1
_geom_bond_atom_site_label_2
_geom_bond_site_symmetry_1
_geom_bond_site_symmetry_2
N1 N2 1_555 1_555
N2 C10 1_555 1_555
N3 C9 1_555 1_555
N4 C10 1_555 1_555
C1 C2 1_555 1_555
C2 H1 1_555 1_555
C3 C2 1_555 1_555
C4 C3 1_555 1_555
H2 C4 1_555 1_555
C5 C4 1_555 1_555
C6 C1 1_555 1_555
H3 C6 1_555 1_555
C7 C1 1_555 1_555
C8 C3 1_555 1_555
C9 N1 1_555 1_555
C10 N3 1_555 1_555
C11 N2 1_555 1_555
C12 C11 1_555 1_555
H4 C12 1_555 1_555
C13 N4 1_555 1_555
H5 C13 1_555 1_555
C14 C11 1_555 1_555
C15 C14 1_555 1_555
H6 C15 1_555 1_555
C16 C15 1_555 1_555
H7 C16 1_555 1_555
C17 C16 1_555 1_555
H8 C17 1_555 1_555
C18 C17 1_555 1_555
H9 C18 1_555 1_555
C19 C14 1_555 1_555
H10 C19 1_555 1_555
F1 C7 1_555 1_555
F2 C7 1_555 1_555
F3 C8 1_555 1_555
F4 C8 1_555 1_555
F5 C8 1_555 1_555
F6 C7 1_555 1_555
N5 N6 1_555 1_555
N6 C29 1_555 1_555
N7 C28 1_555 1_555
N8 C29 1_555 1_555
C20 C21 1_555 1_555
C21 H11 1_555 1_555
C22 C21 1_555 1_555
C23 C22 1_555 1_555
H12 C23 1_555 1_555
C24 C23 1_555 1_555
C25 C20 1_555 1_555
H13 C25 1_555 1_555
C26 C20 1_555 1_555
C27 C22 1_555 1_555
C28 N5 1_555 1_555
C29 N7 1_555 1_555
C30 N6 1_555 1_555
C31 C30 1_555 1_555
H14 C31 1_555 1_555
C32 N8 1_555 1_555
H15 C32 1_555 1_555
C33 C30 1_555 1_555
C34 C33 1_555 1_555
H16 C34 1_555 1_555
C35 C34 1_555 1_555
H17 C35 1_555 1_555
C36 C35 1_555 1_555
H18 C36 1_555 1_555
C37 C36 1_555 1_555
H19 C37 1_555 1_555
C38 C33 1_555 1_555
H20 C38 1_555 1_555
F13 C26 1_555 1_555
F14 C26 1_555 1_555
F15 C26 1_555 1_555
F16 C27 1_555 1_555
F17 C27 1_555 1_555
F18 C27 1_555 1_555
C39 H21 1_555 1_555
Cl1 C39 1_555 1_555
Cl2 C39 1_555 1_555
Cl3 C39 1_555 1_555
C5 C6 1_555 1_555
C5 C9 1_555 1_555
C12 C13 1_555 1_555
C18 C19 1_555 1_555
C24 C25 1_555 1_555
C24 C28 1_555 1_555
C31 C32 1_555 1_555
C37 C38 1_555 1_555

#END
