
#######################################################################
#
#                 Cambridge Crystallographic Data Centre
#                                CCDC 
#
#######################################################################
#
# If this CIF has been generated from an entry in the Cambridge 
# Structural Database, then it will include bibliographic, chemical, 
# crystal, experimental, refinement or atomic coordinate data resulting 
# from the CCDC's data processing and validation procedures.
#
#######################################################################

data_IXIDEA
_chemical_formula_moiety         'C19 H16 Cl1 N5'
_chemical_name_systematic        
4-(7-(4-chlorophenyl)[1,2,4]triazolo[1,5-a]pyrimidin-2-yl)-N,N-dimethylaniline
_symmetry_cell_setting           triclinic
_symmetry_space_group_name_H-M   'P -1'
_symmetry_Int_Tables_number      2
_space_group_name_Hall           '-P 1'
loop_
_symmetry_equiv_pos_site_id
_symmetry_equiv_pos_as_xyz
1 x,y,z
2 -x,-y,-z
_cell_length_a                   7.6508(4)
_cell_length_b                   8.3307(4)
_cell_length_c                   13.6240(6)
_cell_angle_alpha                100.727(4)
_cell_angle_beta                 99.114(4)
_cell_angle_gamma                98.267(4)
_cell_volume                     828.856
_exptl_crystal_description       needle
_cell_formula_units_Z            2
loop_
_atom_site_label
_atom_site_type_symbol
_atom_site_fract_x
_atom_site_fract_y
_atom_site_fract_z
Cl1 Cl 0.39246(11) 0.29746(9) 0.49631(5)
N1 N 0.30188(18) -0.06813(16) 0.89632(10)
N2 N 0.26202(19) 0.08300(17) 0.93092(11)
N3 N 0.24772(19) -0.07639(17) 1.04995(11)
N4 N 0.3238(2) -0.32034(19) 0.95394(13)
N5 N 0.0530(3) 0.6084(2) 1.28731(13)
C1 C 0.2306(2) 0.0707(2) 1.02351(12)
C2 C 0.2912(2) -0.1641(2) 0.96877(13)
C3 C 0.3639(3) -0.3771(2) 0.86480(16)
H1 H 0.3859 -0.4852 0.8515
C4 C 0.3757(3) -0.2860(2) 0.78881(15)
H2 H 0.4046 -0.3345 0.7276
C5 C 0.3450(2) -0.1264(2) 0.80385(13)
C6 C 0.1853(2) 0.20951(19) 1.09152(12)
C7 C 0.1497(2) 0.1948(2) 1.18670(13)
H3 H 0.1537 0.0945 1.2069
C8 C 0.1086(3) 0.3254(2) 1.25186(13)
H4 H 0.0864 0.3121 1.3153
C9 C 0.0999(2) 0.4785(2) 1.22381(13)
C10 C 0.1401(2) 0.4940(2) 1.12847(13)
H5 H 0.1392 0.5947 1.1084
C11 C 0.1808(2) 0.3625(2) 1.06466(12)
H6 H 0.2060 0.3758 1.0018
C12 C 0.3557(2) -0.0183(2) 0.72985(13)
C13 C 0.4451(2) 0.1462(2) 0.75830(14)
H7 H 0.4959 0.1917 0.8263
C14 C 0.4590(3) 0.2420(2) 0.68664(16)
H8 H 0.5209 0.3509 0.7057
C15 C 0.3803(3) 0.1747(3) 0.58656(16)
C16 C 0.2901(4) 0.0138(3) 0.55628(16)
H9 H 0.2366 -0.0299 0.4885
C17 C 0.2802(3) -0.0822(3) 0.62853(16)
H10 H 0.2215 -0.1922 0.6085
C18 C 0.0243(4) 0.5941(3) 1.38673(16)
H11 H -0.0725 0.5038 1.3812
H12 H -0.0058 0.6954 1.4204
H13 H 0.1320 0.5735 1.4253
C19 C 0.0377(3) 0.7622(3) 1.25632(17)
H14 H -0.0085 0.8330 1.3061
H15 H -0.0426 0.7405 1.1918
H16 H 0.1541 0.8159 1.2504
loop_
_geom_bond_atom_site_label_1
_geom_bond_atom_site_label_2
_geom_bond_site_symmetry_1
_geom_bond_site_symmetry_2
Cl1 C15 1_555 1_555
N1 N2 1_555 1_555
N2 C1 1_555 1_555
N3 C1 1_555 1_555
N4 C2 1_555 1_555
N5 C9 1_555 1_555
C1 C6 1_555 1_555
C2 N1 1_555 1_555
C3 N4 1_555 1_555
H1 C3 1_555 1_555
C4 C3 1_555 1_555
H2 C4 1_555 1_555
C5 N1 1_555 1_555
C6 C7 1_555 1_555
C7 H3 1_555 1_555
C8 C7 1_555 1_555
H4 C8 1_555 1_555
C9 C8 1_555 1_555
C10 C9 1_555 1_555
H5 C10 1_555 1_555
C11 C6 1_555 1_555
H6 C11 1_555 1_555
C12 C5 1_555 1_555
C13 C12 1_555 1_555
H7 C13 1_555 1_555
C14 C13 1_555 1_555
H8 C14 1_555 1_555
C15 C14 1_555 1_555
C16 C15 1_555 1_555
H9 C16 1_555 1_555
C17 C12 1_555 1_555
H10 C17 1_555 1_555
C18 N5 1_555 1_555
H11 C18 1_555 1_555
H12 C18 1_555 1_555
H13 C18 1_555 1_555
C19 N5 1_555 1_555
H14 C19 1_555 1_555
H15 C19 1_555 1_555
H16 C19 1_555 1_555
N3 C2 1_555 1_555
C4 C5 1_555 1_555
C10 C11 1_555 1_555
C16 C17 1_555 1_555

#END
