
#######################################################################
#
#                 Cambridge Crystallographic Data Centre
#                                CCDC 
#
#######################################################################
#
# If this CIF has been generated from an entry in the Cambridge 
# Structural Database, then it will include bibliographic, chemical, 
# crystal, experimental, refinement or atomic coordinate data resulting 
# from the CCDC's data processing and validation procedures.
#
#######################################################################

data_IXIFAY
_chemical_formula_moiety         'C20 H12 F6 N4'
_chemical_name_systematic        
7-(3,5-bis(trifluoromethyl)phenyl)-2-(4-methylphenyl)[1,2,4]triazolo[1,5-a]pyrimidine
_symmetry_cell_setting           monoclinic
_symmetry_space_group_name_H-M   'I 2/c'
_symmetry_Int_Tables_number      15
_space_group_name_Hall           '-I 2yc'
loop_
_symmetry_equiv_pos_site_id
_symmetry_equiv_pos_as_xyz
1 x,y,z
2 -x,y,1/2-z
3 1/2+x,1/2+y,1/2+z
4 1/2-x,1/2+y,-z
5 -x,-y,-z
6 x,-y,1/2+z
7 1/2-x,1/2-y,1/2-z
8 1/2+x,1/2-y,z
_cell_length_a                   13.3500(3)
_cell_length_b                   10.0002(2)
_cell_length_c                   27.9606(7)
_cell_angle_alpha                90
_cell_angle_beta                 98.304(2)
_cell_angle_gamma                90
_cell_volume                     3693.68
_cell_formula_units_Z            8
loop_
_atom_site_label
_atom_site_type_symbol
_atom_site_fract_x
_atom_site_fract_y
_atom_site_fract_z
F1 F 0.2775(3) 0.5167(4) 0.40732(18)
F2 F 0.5814(2) 0.8508(3) 0.52946(9)
F3 F 0.6970(2) 0.8073(4) 0.48702(10)
F4 F 0.6296(2) 1.0002(3) 0.48407(10)
F5 F 0.3898(4) 0.4374(4) 0.3777(2)
N1 N 0.3462(2) 0.8858(3) 0.19942(10)
N2 N 0.38821(17) 0.7554(2) 0.26620(9)
N3 N 0.3508(3) 1.0973(3) 0.24072(12)
N4 N 0.38544(17) 0.8856(2) 0.27920(9)
C1 C 0.5061(2) 0.9001(3) 0.40480(11)
H1 H 0.5348 0.9843 0.4027
C2 C 0.3963(2) 0.7253(3) 0.36981(12)
H2 H 0.3514 0.6911 0.3442
C3 C 0.5321(3) 0.8239(4) 0.44574(12)
C4 C 0.4229(3) 0.6501(4) 0.41137(13)
C5 C 0.4373(2) 0.8521(3) 0.36672(11)
C6 C 0.3645(2) 0.7616(3) 0.21821(11)
C7 C 0.4891(3) 0.6984(4) 0.44910(12)
H3 H 0.5054 0.6475 0.4770
C8 C 0.3792(3) 0.5160(3) 0.21023(13)
H4 H 0.3951 0.5097 0.2436
C9 C 0.3592(2) 0.6399(3) 0.18884(11)
C10 C 0.3983(3) 1.0749(3) 0.32650(14)
H5 H 0.4116 1.1187 0.3561
C11 C 0.4073(2) 0.9392(3) 0.32440(11)
C12 C 0.3771(4) 0.5136(5) 0.41389(19)
C13 C 0.3347(2) 0.6455(3) 0.13900(12)
H6 H 0.3211 0.7275 0.1238
C14 C 0.6091(3) 0.8714(5) 0.48620(14)
C15 C 0.3507(3) 0.4061(4) 0.13254(15)
C16 C 0.3592(2) 0.9638(3) 0.23834(12)
C17 C 0.3472(4) 0.2808(5) 0.10354(19)
H7 H 0.3084 0.2958 0.0723
H8 H 0.3161 0.2111 0.1199
H9 H 0.4148 0.2546 0.0997
C18 C 0.3304(3) 0.5300(4) 0.11180(13)
H10 H 0.3133 0.5359 0.0784
C19 C 0.3694(3) 1.1479(4) 0.28436(15)
H11 H 0.3627 1.2400 0.2874
C20 C 0.3756(3) 0.4020(4) 0.18228(15)
H12 H 0.3904 0.3200 0.1973
F6 F 0.3714(6) 0.4802(8) 0.4620(3)
F7? F 0.4448(9) 0.4289(6) 0.4369(3)
loop_
_geom_bond_atom_site_label_1
_geom_bond_atom_site_label_2
_geom_bond_site_symmetry_1
_geom_bond_site_symmetry_2
F1 C12 1_555 1_555
F2 C14 1_555 1_555
F3 C14 1_555 1_555
F4 C14 1_555 1_555
F5 C12 1_555 1_555
N1 C6 1_555 1_555
N2 N4 1_555 1_555
N3 C16 1_555 1_555
N4 C11 1_555 1_555
C1 H1 1_555 1_555
C2 H2 1_555 1_555
C3 C1 1_555 1_555
C4 C2 1_555 1_555
C5 C1 1_555 1_555
C6 N2 1_555 1_555
C7 C3 1_555 1_555
H3 C7 1_555 1_555
C8 H4 1_555 1_555
C9 C6 1_555 1_555
C10 H5 1_555 1_555
C11 C5 1_555 1_555
C12 C4 1_555 1_555
C13 C9 1_555 1_555
H6 C13 1_555 1_555
C14 C3 1_555 1_555
C15 C17 1_555 1_555
C16 N1 1_555 1_555
C17 H7 1_555 1_555
H8 C17 1_555 1_555
H9 C17 1_555 1_555
C18 C13 1_555 1_555
H10 C18 1_555 1_555
C19 N3 1_555 1_555
H11 C19 1_555 1_555
C20 C8 1_555 1_555
H12 C20 1_555 1_555
F6 C12 1_555 1_555
N4 C16 1_555 1_555
C2 C5 1_555 1_555
C4 C7 1_555 1_555
C8 C9 1_555 1_555
C10 C11 1_555 1_555
C10 C19 1_555 1_555
C15 C18 1_555 1_555
C15 C20 1_555 1_555

#END
