
#######################################################################
#
#                 Cambridge Crystallographic Data Centre
#                                CCDC 
#
#######################################################################
#
# If this CIF has been generated from an entry in the Cambridge 
# Structural Database, then it will include bibliographic, chemical, 
# crystal, experimental, refinement or atomic coordinate data resulting 
# from the CCDC's data processing and validation procedures.
#
#######################################################################

data_IXIGAY
_chemical_formula_moiety         'C30 H52 Mg1 N10 Si2'
_chemical_name_systematic        
bis(2,4-bis(Dimethylamino)-5-phenyl-1-(trimethylsilyl)-1,3,5-triazapenta-1,3-diene-N,N')-magnesium
_symmetry_cell_setting           triclinic
_symmetry_space_group_name_H-M   'P -1'
_symmetry_Int_Tables_number      2
_space_group_name_Hall           '-P 1'
loop_
_symmetry_equiv_pos_site_id
_symmetry_equiv_pos_as_xyz
1 x,y,z
2 -x,-y,-z
_cell_length_a                   11.175(3)
_cell_length_b                   11.979(4)
_cell_length_c                   16.136(5)
_cell_angle_alpha                90.077(4)
_cell_angle_beta                 107.705(4)
_cell_angle_gamma                115.707(4)
_cell_volume                     1831.59
_cell_formula_units_Z            2
loop_
_atom_site_label
_atom_site_type_symbol
_atom_site_fract_x
_atom_site_fract_y
_atom_site_fract_z
Mg1 Mg -0.00393(11) 0.25857(10) 0.26654(7)
Si1 Si -0.16901(10) 0.40909(10) 0.15803(6)
N1 N 0.1226(3) 0.3269(3) 0.39473(18)
N2 N 0.1718(4) 0.4626(3) 0.51928(19)
N3 N 0.1316(3) 0.5275(3) 0.38721(19)
N4 N 0.1303(3) 0.6316(3) 0.2704(2)
N5 N -0.0269(3) 0.4178(3) 0.24455(18)
C1 C 0.1409(3) 0.4375(3) 0.4329(2)
C2 C 0.0768(3) 0.5189(3) 0.3004(2)
C3 C -0.1592(4) 0.0126(3) 0.1577(2)
C4 C 0.2149(4) 0.2753(3) 0.4339(2)
C5 C 0.3527(4) 0.3445(4) 0.4870(2)
H1 H 0.3865 0.4301 0.5063
C6 C 0.0825(4) 0.1221(3) 0.1669(2)
C7 C 0.1694(4) 0.1481(3) 0.4081(2)
H2 H 0.0754 0.0978 0.3719
C8 C 0.2292(4) 0.3424(3) 0.1871(2)
C9 C 0.2486(4) 0.3584(4) 0.1070(3)
H3 H 0.1860 0.2966 0.0575
C10 C 0.3216(4) 0.4378(4) 0.2581(3)
H4 H 0.3085 0.4300 0.3130
C11 C -0.2765(5) -0.1828(4) 0.0566(3)
H5 H -0.2476 -0.1468 0.0079
H6 H -0.3675 -0.2564 0.0338
H7 H -0.2072 -0.2065 0.0931
C12 C 0.3963(5) 0.1653(4) 0.4865(3)
H8 H 0.4577 0.1289 0.5042
C13 C 0.2595(5) 0.0950(4) 0.4347(3)
H9 H 0.2260 0.0090 0.4168
C14 C -0.3304(4) 0.2877(4) 0.1725(3)
H10 H -0.3287 0.2075 0.1705
H11 H -0.4126 0.2819 0.1258
H12 H -0.3347 0.3099 0.2290
C15 C -0.1876(5) 0.5563(4) 0.1577(3)
H13 H -0.1600 0.5945 0.2178
H14 H -0.2851 0.5371 0.1265
H15 H -0.1275 0.6140 0.1285
Si2 Si -0.26706(11) -0.00050(9) 0.28619(7)
N6 N 0.1121(3) 0.2371(3) 0.19630(19)
N7 N 0.1810(4) 0.0876(3) 0.1604(2)
N8 N -0.0509(3) 0.0261(3) 0.1355(2)
N9 N -0.2872(3) -0.0909(3) 0.1090(2)
N10 N -0.1619(3) 0.0796(3) 0.22453(19)
C16 C 0.3599(5) 0.4650(4) 0.0987(3)
H16 H 0.3724 0.4736 0.0437
C17 C 0.4431(4) 0.2909(4) 0.5127(3)
H17 H 0.5375 0.3407 0.5484
C18 C -0.2256(5) -0.1292(4) 0.3258(3)
H18 H -0.2339 -0.1812 0.2762
H19 H -0.2913 -0.1798 0.3545
H20 H -0.1301 -0.0940 0.3674
C19 C 0.1444(5) 0.3652(4) 0.5745(3)
H21 H 0.1072 0.2843 0.5392
H22 H 0.0761 0.3646 0.6002
H23 H 0.2315 0.3815 0.6211
C20 C 0.4512(4) 0.5574(4) 0.1681(3)
H24 H 0.5260 0.6294 0.1614
C21 C 0.1450(5) 0.6361(4) 0.1849(3)
H25 H 0.1127 0.5517 0.1567
H26 H 0.2434 0.6866 0.1911
H27 H 0.0889 0.6730 0.1492
C22 C -0.3947(4) -0.0569(4) 0.0559(3)
H28 H -0.3888 0.0150 0.0878
H29 H -0.4875 -0.1271 0.0438
H30 H -0.3789 -0.0361 0.0008
C23 C 0.4321(4) 0.5437(4) 0.2490(3)
H31 H 0.4945 0.6066 0.2978
C24 C 0.2090(5) 0.5861(4) 0.5596(3)
H32 H 0.2519 0.6478 0.5251
H33 H 0.2754 0.6042 0.6189
H34 H 0.1248 0.5893 0.5618
C25 C -0.2198(5) 0.1179(4) 0.3800(3)
H35 H -0.1223 0.1458 0.4167
H36 H -0.2807 0.0809 0.4146
H37 H -0.2316 0.1890 0.3578
C26 C -0.4624(4) -0.0693(5) 0.2375(3)
H38 H -0.4883 -0.0058 0.2129
H39 H -0.5037 -0.0991 0.2829
H40 H -0.4970 -0.1388 0.1914
C27 C 0.3266(5) 0.1551(5) 0.2183(4)
H41 H 0.3839 0.2080 0.1857
H42 H 0.3611 0.0957 0.2408
H43 H 0.3322 0.2067 0.2671
C28 C 0.2266(5) 0.7468(4) 0.3338(3)
H44 H 0.1952 0.7441 0.3839
H45 H 0.2272 0.8187 0.3060
H46 H 0.3211 0.7539 0.3535
C29 C -0.1655(5) 0.3551(5) 0.0500(3)
H47 H -0.0926 0.4227 0.0341
H48 H -0.2564 0.3309 0.0049
H49 H -0.1457 0.2837 0.0552
C30 C 0.1376(6) -0.0359(4) 0.1167(4)
H50 H 0.1176 -0.0959 0.1571
H51 H 0.2127 -0.0351 0.0981
H52 H 0.0534 -0.0595 0.0657
loop_
_geom_bond_atom_site_label_1
_geom_bond_atom_site_label_2
_geom_bond_site_symmetry_1
_geom_bond_site_symmetry_2
Mg1 N1 1_555 1_555
Si1 N5 1_555 1_555
N1 C1 1_555 1_555
N2 C1 1_555 1_555
N3 C1 1_555 1_555
N4 C2 1_555 1_555
N5 Mg1 1_555 1_555
C2 N3 1_555 1_555
C3 N8 1_555 1_555
C4 N1 1_555 1_555
C5 C4 1_555 1_555
H1 C5 1_555 1_555
C6 N6 1_555 1_555
C7 C4 1_555 1_555
H2 C7 1_555 1_555
C8 C9 1_555 1_555
C9 H3 1_555 1_555
C10 C8 1_555 1_555
H4 C10 1_555 1_555
C11 H5 1_555 1_555
H6 C11 1_555 1_555
H7 C11 1_555 1_555
C12 H8 1_555 1_555
C13 C7 1_555 1_555
H9 C13 1_555 1_555
C14 Si1 1_555 1_555
H10 C14 1_555 1_555
H11 C14 1_555 1_555
H12 C14 1_555 1_555
C15 Si1 1_555 1_555
H13 C15 1_555 1_555
H14 C15 1_555 1_555
H15 C15 1_555 1_555
Si2 N10 1_555 1_555
N6 Mg1 1_555 1_555
N7 C6 1_555 1_555
N8 C6 1_555 1_555
N9 C3 1_555 1_555
N10 Mg1 1_555 1_555
C16 C9 1_555 1_555
H16 C16 1_555 1_555
C17 C5 1_555 1_555
H17 C17 1_555 1_555
C18 Si2 1_555 1_555
H18 C18 1_555 1_555
H19 C18 1_555 1_555
H20 C18 1_555 1_555
C19 N2 1_555 1_555
H21 C19 1_555 1_555
H22 C19 1_555 1_555
H23 C19 1_555 1_555
C20 C16 1_555 1_555
H24 C20 1_555 1_555
C21 N4 1_555 1_555
H25 C21 1_555 1_555
H26 C21 1_555 1_555
H27 C21 1_555 1_555
C22 N9 1_555 1_555
H28 C22 1_555 1_555
H29 C22 1_555 1_555
H30 C22 1_555 1_555
C23 C10 1_555 1_555
H31 C23 1_555 1_555
C24 N2 1_555 1_555
H32 C24 1_555 1_555
H33 C24 1_555 1_555
H34 C24 1_555 1_555
C25 Si2 1_555 1_555
H35 C25 1_555 1_555
H36 C25 1_555 1_555
H37 C25 1_555 1_555
C26 Si2 1_555 1_555
H38 C26 1_555 1_555
H39 C26 1_555 1_555
H40 C26 1_555 1_555
C27 N7 1_555 1_555
H41 C27 1_555 1_555
H42 C27 1_555 1_555
H43 C27 1_555 1_555
C28 N4 1_555 1_555
H44 C28 1_555 1_555
H45 C28 1_555 1_555
H46 C28 1_555 1_555
C29 Si1 1_555 1_555
H47 C29 1_555 1_555
H48 C29 1_555 1_555
H49 C29 1_555 1_555
C30 N7 1_555 1_555
H50 C30 1_555 1_555
H51 C30 1_555 1_555
H52 C30 1_555 1_555
N5 C2 1_555 1_555
C3 N10 1_555 1_555
C8 N6 1_555 1_555
C11 N9 1_555 1_555
C12 C13 1_555 1_555
C12 C17 1_555 1_555
C20 C23 1_555 1_555

#END
