
#######################################################################
#
#                 Cambridge Crystallographic Data Centre
#                                CCDC 
#
#######################################################################
#
# If this CIF has been generated from an entry in the Cambridge 
# Structural Database, then it will include bibliographic, chemical, 
# crystal, experimental, refinement or atomic coordinate data resulting 
# from the CCDC's data processing and validation procedures.
#
#######################################################################

data_IXIGEC
_chemical_formula_moiety         'C36 H76 Mg1 N10 Si4,0.5(C4 H10 O1)'
_chemical_name_systematic        
"bis(2,4-bis(Piperidyl)-1,5-bis(trimethylsilyl)-1,3,5-triazapenta-1,3-diene-N,N')-magnesium diethyl ether solvate"
_symmetry_cell_setting           monoclinic
_symmetry_space_group_name_H-M   'P 21/c'
_symmetry_Int_Tables_number      14
_space_group_name_Hall           '-P 2ybc'
loop_
_symmetry_equiv_pos_site_id
_symmetry_equiv_pos_as_xyz
1 x,y,z
2 -x,1/2+y,1/2-z
3 -x,-y,-z
4 x,1/2-y,1/2+z
_cell_length_a                   15.188(4)
_cell_length_b                   28.697(7)
_cell_length_c                   11.888(3)
_cell_angle_alpha                90
_cell_angle_beta                 100.801(3)
_cell_angle_gamma                90
_cell_volume                     5089.59
_exptl_crystal_colour            colorless
_exptl_crystal_description       block
_cell_formula_units_Z            4
loop_
_atom_site_label
_atom_site_type_symbol
_atom_site_fract_x
_atom_site_fract_y
_atom_site_fract_z
Mg1 Mg 0.25083(6) 0.41835(3) 0.55693(8)
N1 N 0.24657(16) 0.47989(8) 0.64853(19)
N2 N 0.28875(17) 0.55911(8) 0.6560(2)
N3 N 0.23954(17) 0.52643(8) 0.4810(2)
N4 N 0.20401(16) 0.51599(8) 0.2846(2)
N5 N 0.24895(16) 0.45077(8) 0.40173(19)
N6 N 0.15914(16) 0.36408(8) 0.53415(19)
N7 N 0.14117(17) 0.28254(8) 0.5256(2)
N8 N 0.26100(16) 0.31214(8) 0.6502(2)
N9 N 0.39028(16) 0.31978(8) 0.7865(2)
N10 N 0.35325(16) 0.37945(8) 0.6496(2)
Si1 Si 0.21879(6) 0.47924(3) 0.78521(7)
Si2 Si 0.27688(6) 0.42262(3) 0.28231(7)
Si3 Si 0.04448(5) 0.37580(3) 0.49035(7)
Si4 Si 0.46620(6) 0.39638(3) 0.67274(7)
C1 C 0.25864(18) 0.51876(9) 0.5939(2)
C2 C 0.23126(18) 0.49550(9) 0.3967(2)
C3 C 0.3775(2) 0.55662(15) 0.7263(4)
H1 H 0.4226 0.5590 0.6774
H2 H 0.3852 0.5264 0.7654
C4 C 0.3920(3) 0.59513(15) 0.8140(4)
H3 H 0.4532 0.5934 0.8584
H4 H 0.3502 0.5914 0.8669
C5 C 0.3771(3) 0.64316(17) 0.7537(5)
H5 H 0.3812 0.6680 0.8109
H6 H 0.4232 0.6486 0.7075
C6 C 0.2872(4) 0.64317(14) 0.6798(4)
H7 H 0.2780 0.6729 0.6385
H8 H 0.2416 0.6407 0.7280
C7 C 0.2749(4) 0.60355(12) 0.5940(4)
H9 H 0.2144 0.6046 0.5476
H10 H 0.3181 0.6066 0.5426
C8 C 0.2387(3) 0.56348(12) 0.2751(3)
H11 H 0.3037 0.5639 0.3029
H12 H 0.2110 0.5849 0.3223
C9 C 0.2177(3) 0.57926(14) 0.1501(3)
H13 H 0.2420 0.6106 0.1432
H14 H 0.2457 0.5580 0.1028
C10 C 0.1174(3) 0.57961(16) 0.1094(3)
H15 H 0.0901 0.6028 0.1528
H16 H 0.1034 0.5882 0.0283
C11 C 0.0795(3) 0.53226(18) 0.1255(3)
H17 H 0.1003 0.5101 0.0735
H18 H 0.0139 0.5336 0.1057
C12 C 0.1073(2) 0.51504(15) 0.2483(3)
H19 H 0.0796 0.5348 0.2993
H20 H 0.0856 0.4831 0.2539
C13 C 0.1650(3) 0.42162(13) 0.8004(3)
H21 H 0.1061 0.4208 0.7517
H22 H 0.1591 0.4171 0.8795
H23 H 0.2018 0.3970 0.7779
C14 C 0.3115(3) 0.48186(16) 0.9113(3)
H24 H 0.3586 0.4604 0.9004
H25 H 0.2891 0.4733 0.9796
H26 H 0.3354 0.5133 0.9197
C15 C 0.1376(3) 0.52615(12) 0.7989(3)
H27 H 0.1668 0.5562 0.7984
H28 H 0.1162 0.5224 0.8702
H29 H 0.0874 0.5244 0.7351
C16 C 0.3175(3) 0.36387(13) 0.3340(4)
H30 H 0.3674 0.3671 0.3976
H31 H 0.3368 0.3469 0.2723
H32 H 0.2693 0.3469 0.3591
C17 C 0.3700(2) 0.45376(14) 0.2316(3)
H33 H 0.3481 0.4831 0.1966
H34 H 0.3924 0.4346 0.1758
H35 H 0.4181 0.4597 0.2961
C18 C 0.1856(3) 0.41260(15) 0.1578(3)
H36 H 0.1330 0.4010 0.1842
H37 H 0.2049 0.3899 0.1070
H38 H 0.1710 0.4417 0.1170
C19 C 0.18919(18) 0.32195(9) 0.5687(2)
C20 C 0.33048(19) 0.33901(9) 0.6898(2)
C21 C 0.1305(3) 0.27328(13) 0.4048(3)
H39 H 0.1860 0.2600 0.3881
H40 H 0.1186 0.3025 0.3622
C22 C 0.0534(4) 0.23953(18) 0.3665(4)
H41 H -0.0030 0.2544 0.3752
H42 H 0.0498 0.2322 0.2852
C23 C 0.0655(3) 0.19525(14) 0.4349(4)
H43 H 0.0124 0.1755 0.4133
H44 H 0.1174 0.1781 0.4185
C24 C 0.0790(3) 0.20614(12) 0.5579(4)
H45 H 0.0899 0.1773 0.6024
H46 H 0.0248 0.2208 0.5754
C25 C 0.1589(3) 0.23911(13) 0.5916(4)
H47 H 0.1680 0.2459 0.6737
H48 H 0.2135 0.2244 0.5756
C26 C 0.3954(2) 0.26884(11) 0.7885(3)
H49 H 0.4057 0.2573 0.7145
H50 H 0.3387 0.2558 0.8022
C27 C 0.4713(3) 0.25362(14) 0.8825(3)
H51 H 0.5280 0.2665 0.8683
H52 H 0.4759 0.2196 0.8830
C28 C 0.4543(3) 0.27054(14) 0.9975(3)
H53 H 0.4013 0.2549 1.0154
H54 H 0.5057 0.2626 1.0574
C29 C 0.4401(3) 0.32170(14) 0.9957(3)
H55 H 0.4967 0.3374 0.9914
H56 H 0.4220 0.3313 1.0671
C30 C 0.3685(3) 0.33693(12) 0.8942(3)
H57 H 0.3100 0.3247 0.9034
H58 H 0.3647 0.3710 0.8922
C31 C 0.0325(2) 0.44044(11) 0.5014(3)
H59 H 0.0590 0.4505 0.5782
H60 H -0.0305 0.4487 0.4852
H61 H 0.0630 0.4556 0.4466
C32 C -0.0071(3) 0.36252(15) 0.3392(3)
H62 H 0.0329 0.3725 0.2892
H63 H -0.0637 0.3789 0.3190
H64 H -0.0173 0.3292 0.3306
C33 C -0.0219(2) 0.34658(13) 0.5865(4)
H65 H -0.0188 0.3131 0.5772
H66 H -0.0839 0.3566 0.5670
H67 H 0.0023 0.3548 0.6654
C34 C 0.5378(2) 0.34952(13) 0.6319(4)
H68 H 0.5394 0.3236 0.6846
H69 H 0.5980 0.3613 0.6351
H70 H 0.5134 0.3391 0.5548
C35 C 0.5168(3) 0.41769(15) 0.8183(3)
H71 H 0.4833 0.4444 0.8373
H72 H 0.5786 0.4267 0.8197
H73 H 0.5149 0.3931 0.8738
C36 C 0.4701(2) 0.44656(12) 0.5731(3)
H74 H 0.4477 0.4367 0.4950
H75 H 0.5315 0.4572 0.5800
H76 H 0.4332 0.4718 0.5927
O1 O 0.2417(13) 0.7145(6) 0.180(2)
C37 C 0.2058(15) 0.7090(8) 0.283(2)
H77 H 0.2446 0.6884 0.3369
H78 H 0.1460 0.6949 0.2652
C38 C 0.1998(18) 0.7590(9) 0.340(3)
H79 H 0.1774 0.7555 0.4113
H80 H 0.1594 0.7788 0.2882
H81 H 0.2589 0.7731 0.3565
C39 C 0.1943(13) 0.7040(11) 0.075(2)
H82 H 0.1586 0.7316 0.0479
H83 H 0.1518 0.6794 0.0858
C40 C 0.238(3) 0.6887(9) -0.020(2)
H84 H 0.1929 0.6830 -0.0880
H85 H 0.2717 0.6603 0.0015
H86 H 0.2787 0.7129 -0.0365
loop_
_geom_bond_atom_site_label_1
_geom_bond_atom_site_label_2
_geom_bond_site_symmetry_1
_geom_bond_site_symmetry_2
Mg1 N1 1_555 1_555
N1 Si1 1_555 1_555
N2 C1 1_555 1_555
N3 C1 1_555 1_555
N4 C2 1_555 1_555
N5 Mg1 1_555 1_555
N6 Mg1 1_555 1_555
N7 C19 1_555 1_555
N8 C19 1_555 1_555
N9 C20 1_555 1_555
N10 Mg1 1_555 1_555
Si1 C13 1_555 1_555
Si2 N5 1_555 1_555
Si3 N6 1_555 1_555
Si4 N10 1_555 1_555
C1 N1 1_555 1_555
C2 N3 1_555 1_555
C3 N2 1_555 1_555
H1 C3 1_555 1_555
H2 C3 1_555 1_555
C4 C3 1_555 1_555
H3 C4 1_555 1_555
H4 C4 1_555 1_555
C5 C4 1_555 1_555
H5 C5 1_555 1_555
H6 C5 1_555 1_555
C6 C5 1_555 1_555
H7 C6 1_555 1_555
H8 C6 1_555 1_555
C7 N2 1_555 1_555
H9 C7 1_555 1_555
H10 C7 1_555 1_555
C8 N4 1_555 1_555
H11 C8 1_555 1_555
H12 C8 1_555 1_555
C9 C8 1_555 1_555
H13 C9 1_555 1_555
H14 C9 1_555 1_555
C10 C9 1_555 1_555
H15 C10 1_555 1_555
H16 C10 1_555 1_555
C11 C10 1_555 1_555
H17 C11 1_555 1_555
H18 C11 1_555 1_555
C12 N4 1_555 1_555
H19 C12 1_555 1_555
H20 C12 1_555 1_555
C13 H21 1_555 1_555
H22 C13 1_555 1_555
H23 C13 1_555 1_555
C14 Si1 1_555 1_555
H24 C14 1_555 1_555
H25 C14 1_555 1_555
H26 C14 1_555 1_555
C15 Si1 1_555 1_555
H27 C15 1_555 1_555
H28 C15 1_555 1_555
H29 C15 1_555 1_555
C16 Si2 1_555 1_555
H30 C16 1_555 1_555
H31 C16 1_555 1_555
H32 C16 1_555 1_555
C17 Si2 1_555 1_555
H33 C17 1_555 1_555
H34 C17 1_555 1_555
H35 C17 1_555 1_555
C18 Si2 1_555 1_555
H36 C18 1_555 1_555
H37 C18 1_555 1_555
H38 C18 1_555 1_555
C19 N6 1_555 1_555
C20 N8 1_555 1_555
C21 N7 1_555 1_555
H39 C21 1_555 1_555
H40 C21 1_555 1_555
C22 C21 1_555 1_555
H41 C22 1_555 1_555
H42 C22 1_555 1_555
C23 C22 1_555 1_555
H43 C23 1_555 1_555
H44 C23 1_555 1_555
C24 C23 1_555 1_555
H45 C24 1_555 1_555
H46 C24 1_555 1_555
C25 N7 1_555 1_555
H47 C25 1_555 1_555
H48 C25 1_555 1_555
C26 N9 1_555 1_555
H49 C26 1_555 1_555
H50 C26 1_555 1_555
C27 C26 1_555 1_555
H51 C27 1_555 1_555
H52 C27 1_555 1_555
C28 C27 1_555 1_555
H53 C28 1_555 1_555
H54 C28 1_555 1_555
C29 C28 1_555 1_555
H55 C29 1_555 1_555
H56 C29 1_555 1_555
C30 N9 1_555 1_555
H57 C30 1_555 1_555
H58 C30 1_555 1_555
C31 Si3 1_555 1_555
H59 C31 1_555 1_555
H60 C31 1_555 1_555
H61 C31 1_555 1_555
C32 Si3 1_555 1_555
H62 C32 1_555 1_555
H63 C32 1_555 1_555
H64 C32 1_555 1_555
C33 Si3 1_555 1_555
H65 C33 1_555 1_555
H66 C33 1_555 1_555
H67 C33 1_555 1_555
C34 Si4 1_555 1_555
H68 C34 1_555 1_555
H69 C34 1_555 1_555
H70 C34 1_555 1_555
C35 Si4 1_555 1_555
H71 C35 1_555 1_555
H72 C35 1_555 1_555
H73 C35 1_555 1_555
C36 Si4 1_555 1_555
H74 C36 1_555 1_555
H75 C36 1_555 1_555
H76 C36 1_555 1_555
O1 C37 1_555 1_555
C37 H77 1_555 1_555
H78 C37 1_555 1_555
C38 C37 1_555 1_555
H79 C38 1_555 1_555
H80 C38 1_555 1_555
H81 C38 1_555 1_555
C39 O1 1_555 1_555
H82 C39 1_555 1_555
H83 C39 1_555 1_555
C40 C39 1_555 1_555
H84 C40 1_555 1_555
H85 C40 1_555 1_555
H86 C40 1_555 1_555
N5 C2 1_555 1_555
N10 C20 1_555 1_555
C6 C7 1_555 1_555
C11 C12 1_555 1_555
C24 C25 1_555 1_555
C29 C30 1_555 1_555

#END
