
#######################################################################
#
#                 Cambridge Crystallographic Data Centre
#                                CCDC 
#
#######################################################################
#
# If this CIF has been generated from an entry in the Cambridge 
# Structural Database, then it will include bibliographic, chemical, 
# crystal, experimental, refinement or atomic coordinate data resulting 
# from the CCDC's data processing and validation procedures.
#
#######################################################################

data_IXIMEI
_chemical_formula_moiety         
'C20 H34 N1 O3 1+,Cl1 1-,3(H2 O1),0.5(C1 H1 Cl3)'
_chemical_name_systematic        
'6,9-dihydroxy-8-isopropyl-4,5,14-trimethyl-11-oxotetracyclo[6.5.1.0^1,10^.0^5,10^]tetradecan-7-aminium chloride chloroform solvate trihydrate'
_symmetry_cell_setting           tetragonal
_symmetry_space_group_name_H-M   'P 41 21 2'
_symmetry_Int_Tables_number      92
_space_group_name_Hall           'P 4abw 2nw'
loop_
_symmetry_equiv_pos_site_id
_symmetry_equiv_pos_as_xyz
1 x,y,z
2 -x,-y,1/2+z
3 1/2-y,1/2+x,1/4+z
4 1/2+y,1/2-x,3/4+z
5 1/2-x,1/2+y,1/4-z
6 1/2+x,1/2-y,3/4-z
7 y,x,-z
8 -y,-x,1/2-z
_cell_length_a                   15.2737(6)
_cell_length_b                   15.2737(6)
_cell_length_c                   44.2732(17)
_cell_angle_alpha                90
_cell_angle_beta                 90
_cell_angle_gamma                90
_cell_volume                     10328.3
_cell_formula_units_Z            16
loop_
_atom_site_label
_atom_site_type_symbol
_atom_site_fract_x
_atom_site_fract_y
_atom_site_fract_z
C1 C 0.1556(4) 0.5103(4) 0.10864(14)
C2 C 0.1191(4) 0.4785(6) 0.14002(15)
H1 H 0.1158 0.4152 0.1409
H2 H 0.1554 0.4993 0.1565
C3 C 0.0271(4) 0.5200(6) 0.14123(14)
H3 H -0.0124 0.4838 0.1530
H4 H 0.0296 0.5778 0.1503
C4 C -0.0031(4) 0.5256(4) 0.10901(14)
C5 C 0.0724(4) 0.5087(4) 0.08830(13)
C6 C 0.0683(4) 0.4088(4) 0.08164(13)
H5 H 0.0567 0.3778 0.1006
C7 C 0.1616(4) 0.3879(4) 0.07156(13)
C8 C 0.1779(4) 0.2858(4) 0.07063(16)
H6 H 0.2413 0.2774 0.0722
C9 C 0.1497(5) 0.2417(5) 0.04156(17)
H7 H 0.1607 0.1799 0.0429
H8 H 0.1823 0.2657 0.0250
H9 H 0.0883 0.2515 0.0384
C10 C 0.1377(5) 0.2379(5) 0.09716(19)
H10 H 0.1531 0.2672 0.1156
H11 H 0.1592 0.1789 0.0977
H12 H 0.0751 0.2372 0.0950
C11 C 0.2203(4) 0.4418(4) 0.09398(14)
H13 H 0.2602 0.4759 0.0813
C12 C 0.2783(4) 0.3945(6) 0.11691(16)
H14 H 0.2422 0.3634 0.1310
H15 H 0.3134 0.4366 0.1275
H16 H 0.3157 0.3539 0.1066
C13 C 0.1946(5) 0.5997(6) 0.11335(19)
H17 H 0.2552 0.5922 0.1194
H18 H 0.1643 0.6270 0.1302
C14 C 0.1924(5) 0.6629(5) 0.08698(18)
H19 H 0.2396 0.6485 0.0732
H20 H 0.2024 0.7218 0.0944
C15 C 0.1059(4) 0.6602(4) 0.07001(16)
H21 H 0.0605 0.6773 0.0845
C16 C 0.1059(6) 0.7302(5) 0.0451(2)
H22 H 0.1197 0.7862 0.0538
H23 H 0.0492 0.7327 0.0359
H24 H 0.1490 0.7156 0.0302
C17 C 0.0816(4) 0.5660(4) 0.05875(14)
C18 C -0.0035(4) 0.5697(4) 0.04087(15)
H25 H -0.0199 0.5115 0.0349
H26 H 0.0046 0.6053 0.0232
H27 H -0.0488 0.5944 0.0532
C19 C 0.1575(4) 0.5289(4) 0.03933(14)
H28 H 0.2112 0.5531 0.0482
C20 C 0.1692(4) 0.4297(4) 0.04013(13)
H29 H 0.1245 0.4035 0.0271
N1 N 0.2583(3) 0.4109(3) 0.02641(11)
H60 H 0.2550 0.4151 0.0064
H61 H 0.2752 0.3571 0.0315
H62 H 0.2971 0.4496 0.0333
O1 O -0.0796(3) 0.5355(3) 0.10224(9)
O2 O 0.0056(2) 0.3827(3) 0.06017(9)
H66 H -0.0263 0.3452 0.0675
O3 O 0.1565(3) 0.5586(3) 0.00875(10)
H67 H 0.1120 0.5410 0.0004
C21 C 0.6666(4) 0.3261(5) 0.11456(14)
C22 C 0.7000(4) 0.3663(6) 0.14444(15)
H30 H 0.6928 0.4294 0.1443
H31 H 0.6683 0.3424 0.1615
C23 C 0.7959(5) 0.3421(6) 0.14607(15)
H32 H 0.8296 0.3894 0.1549
H33 H 0.8040 0.2900 0.1583
C24 C 0.8244(4) 0.3257(4) 0.11430(14)
C25 C 0.7474(4) 0.3351(4) 0.09315(13)
C26 C 0.7408(4) 0.4328(4) 0.08541(14)
H34 H 0.7503 0.4668 0.1039
C27 C 0.6441(4) 0.4426(4) 0.07591(14)
C28 C 0.6115(5) 0.5401(5) 0.07612(16)
H35 H 0.5473 0.5388 0.0764
C29 C 0.6396(5) 0.5914(4) 0.04781(18)
H36 H 0.6225 0.6515 0.0499
H37 H 0.6119 0.5666 0.0303
H38 H 0.7021 0.5879 0.0456
C30 C 0.6409(6) 0.5909(5) 0.1036(2)
H39 H 0.6462 0.5518 0.1205
H40 H 0.5985 0.6354 0.1082
H41 H 0.6965 0.6177 0.0996
C31 C 0.5935(4) 0.3798(5) 0.09873(14)
H42 H 0.5614 0.3380 0.0861
C32 C 0.5258(4) 0.4175(6) 0.12100(17)
H43 H 0.5037 0.3713 0.1336
H44 H 0.4783 0.4433 0.1099
H45 H 0.5531 0.4613 0.1334
C33 C 0.6419(5) 0.2308(5) 0.12094(16)
H46 H 0.5832 0.2298 0.1293
H47 H 0.6812 0.2084 0.1363
C34 C 0.6447(5) 0.1677(5) 0.09368(17)
H48 H 0.5942 0.1784 0.0809
H49 H 0.6411 0.1078 0.1009
C35 C 0.7287(5) 0.1785(5) 0.07480(16)
H50 H 0.7780 0.1643 0.0881
C36 C 0.7285(5) 0.1090(5) 0.04936(19)
H51 H 0.7315 0.0516 0.0581
H52 H 0.7782 0.1181 0.0364
H53 H 0.6757 0.1144 0.0377
C37 C 0.7425(4) 0.2741(4) 0.06407(14)
C38 C 0.8284(4) 0.2764(4) 0.04548(15)
H54 H 0.8750 0.2509 0.0571
H55 H 0.8428 0.3360 0.0407
H56 H 0.8207 0.2437 0.0271
C39 C 0.6643(4) 0.3049(4) 0.04394(13)
H57 H 0.6125 0.2724 0.0506
C40 C 0.6412(3) 0.3996(4) 0.04480(13)
H58 H 0.6822 0.4309 0.0317
N2 N 0.5502(3) 0.4070(3) 0.03084(11)
H63 H 0.5545 0.4041 0.0108
H64 H 0.5262 0.4578 0.0361
H65 H 0.5168 0.3632 0.0375
O4 O 0.9009(3) 0.3118(3) 0.10710(10)
O5 O 0.7977(3) 0.4643(3) 0.06284(9)
H68 H 0.8363 0.4940 0.0706
O6 O 0.6783(3) 0.2829(3) 0.01230(9)
H69 H 0.6336 0.2610 0.0053
C41 C 0.7800(5) 0.4197(6) 0.95913(17)
H59 H 0.7220 0.3971 0.9645
Cl3 Cl 0.77307(17) 0.47043(19) 0.92377(5)
Cl4 Cl 0.81267(16) 0.49364(17) 0.98683(5)
Cl5 Cl 0.85437(16) 0.33082(16) 0.95791(5)
Cl1 Cl 0.40230(9) 0.55073(10) 0.04017(3)
Cl2 Cl 0.26183(10) 0.40502(9) 0.95486(3)
O7 O 0.8252(4) 0.7466(4) 0.02885(12)
O8 O 0.9514(11) -0.0271(6) 0.9573(2)
O9 O 0.8922(4) 0.7347(5) -0.02224(12)
O10 O 0.9628(5) 0.1246(6) 0.99367(19)
O11 O 0.0623(4) 0.4570(5) 0.96917(13)
O12 O 0.9849(5) 0.1296(7) 0.9322(3)
loop_
_geom_bond_atom_site_label_1
_geom_bond_atom_site_label_2
_geom_bond_site_symmetry_1
_geom_bond_site_symmetry_2
C1 C2 1_555 1_555
C2 H1 1_555 1_555
H2 C2 1_555 1_555
C3 C2 1_555 1_555
H3 C3 1_555 1_555
H4 C3 1_555 1_555
C4 C3 1_555 1_555
C5 C1 1_555 1_555
C6 C5 1_555 1_555
H5 C6 1_555 1_555
C7 C6 1_555 1_555
C8 C7 1_555 1_555
H6 C8 1_555 1_555
C9 C8 1_555 1_555
H7 C9 1_555 1_555
H8 C9 1_555 1_555
H9 C9 1_555 1_555
C10 C8 1_555 1_555
H10 C10 1_555 1_555
H11 C10 1_555 1_555
H12 C10 1_555 1_555
C11 C1 1_555 1_555
H13 C11 1_555 1_555
C12 C11 1_555 1_555
H14 C12 1_555 1_555
H15 C12 1_555 1_555
H16 C12 1_555 1_555
C13 C1 1_555 1_555
H17 C13 1_555 1_555
H18 C13 1_555 1_555
C14 C13 1_555 1_555
H19 C14 1_555 1_555
H20 C14 1_555 1_555
C15 C14 1_555 1_555
H21 C15 1_555 1_555
C16 C15 1_555 1_555
H22 C16 1_555 1_555
H23 C16 1_555 1_555
H24 C16 1_555 1_555
C17 C5 1_555 1_555
C18 C17 1_555 1_555
H25 C18 1_555 1_555
H26 C18 1_555 1_555
H27 C18 1_555 1_555
C19 C17 1_555 1_555
H28 C19 1_555 1_555
C20 C7 1_555 1_555
H29 C20 1_555 1_555
C21 C22 1_555 1_555
C22 H30 1_555 1_555
H31 C22 1_555 1_555
C23 C22 1_555 1_555
H32 C23 1_555 1_555
H33 C23 1_555 1_555
C24 C23 1_555 1_555
C25 C21 1_555 1_555
C26 C25 1_555 1_555
H34 C26 1_555 1_555
C27 C26 1_555 1_555
C28 C27 1_555 1_555
H35 C28 1_555 1_555
C29 C28 1_555 1_555
H36 C29 1_555 1_555
H37 C29 1_555 1_555
H38 C29 1_555 1_555
C30 C28 1_555 1_555
H39 C30 1_555 1_555
H40 C30 1_555 1_555
H41 C30 1_555 1_555
C31 C21 1_555 1_555
H42 C31 1_555 1_555
C32 C31 1_555 1_555
H43 C32 1_555 1_555
H44 C32 1_555 1_555
H45 C32 1_555 1_555
C33 C21 1_555 1_555
H46 C33 1_555 1_555
H47 C33 1_555 1_555
C34 C33 1_555 1_555
H48 C34 1_555 1_555
H49 C34 1_555 1_555
C35 C34 1_555 1_555
H50 C35 1_555 1_555
C36 C35 1_555 1_555
H51 C36 1_555 1_555
H52 C36 1_555 1_555
H53 C36 1_555 1_555
C37 C25 1_555 1_555
C38 C37 1_555 1_555
H54 C38 1_555 1_555
H55 C38 1_555 1_555
H56 C38 1_555 1_555
C39 C37 1_555 1_555
H57 C39 1_555 1_555
C40 C27 1_555 1_555
H58 C40 1_555 1_555
C41 H59 1_555 1_555
Cl3 C41 1_555 1_555
Cl4 C41 1_555 1_555
Cl5 C41 1_555 1_555
N1 C20 1_555 1_555
H60 N1 1_555 1_555
H61 N1 1_555 1_555
H62 N1 1_555 1_555
N2 C40 1_555 1_555
H63 N2 1_555 1_555
H64 N2 1_555 1_555
H65 N2 1_555 1_555
O1 C4 1_555 1_555
O2 C6 1_555 1_555
H66 O2 1_555 1_555
O3 C19 1_555 1_555
H67 O3 1_555 1_555
O4 C24 1_555 1_555
O5 C26 1_555 1_555
H68 O5 1_555 1_555
O6 C39 1_555 1_555
H69 O6 1_555 1_555
C4 C5 1_555 1_555
C7 C11 1_555 1_555
C15 C17 1_555 1_555
C19 C20 1_555 1_555
C24 C25 1_555 1_555
C27 C31 1_555 1_555
C35 C37 1_555 1_555
C39 C40 1_555 1_555

#END
