
#######################################################################
#
#                 Cambridge Crystallographic Data Centre
#                                CCDC 
#
#######################################################################
#
# If this CIF has been generated from an entry in the Cambridge 
# Structural Database, then it will include bibliographic, chemical, 
# crystal, experimental, refinement or atomic coordinate data resulting 
# from the CCDC's data processing and validation procedures.
#
#######################################################################

data_IXIVIV
_chemical_formula_moiety         'C18 H14 Cl1 F1 N2 O2'
_chemical_name_systematic        
8-Chloro-4-(4-fluorophenyl)-3a-methyl-2,3,3a,4-tetrahydropyrrolo[1,2-a]quinazoline-1,5-dione
_symmetry_cell_setting           monoclinic
_symmetry_space_group_name_H-M   'P 21/c'
_symmetry_Int_Tables_number      14
_space_group_name_Hall           '-P 2ybc'
loop_
_symmetry_equiv_pos_site_id
_symmetry_equiv_pos_as_xyz
1 x,y,z
2 -x,1/2+y,1/2-z
3 -x,-y,-z
4 x,1/2-y,1/2+z
_cell_length_a                   9.896(4)
_cell_length_b                   21.829(6)
_cell_length_c                   7.702(3)
_cell_angle_alpha                90
_cell_angle_beta                 107.900(9)
_cell_angle_gamma                90
_cell_volume                     1583.25
_exptl_crystal_colour            colorless
_exptl_crystal_description       block
_chemical_melting_point          '543-545 K'
_cell_formula_units_Z            4
loop_
_atom_site_label
_atom_site_type_symbol
_atom_site_fract_x
_atom_site_fract_y
_atom_site_fract_z
Cl1 Cl 1.56505(8) 0.46528(4) 0.82071(11)
F1 F 0.35381(19) 0.26397(11) 0.3091(4)
O1 O 0.9498(2) 0.33523(8) 0.8146(2)
O2 O 1.1212(2) 0.51020(8) 0.3030(2)
N1 N 0.9028(2) 0.35341(9) 0.5116(2)
N2 N 1.0561(2) 0.42199(9) 0.4185(2)
C1 C 0.9886(3) 0.35435(10) 0.6878(3)
C2 C 0.9560(3) 0.37096(11) 0.3579(3)
C3 C 0.8397(3) 0.40050(12) 0.1993(3)
H1 H 0.7977 0.3706 0.1051
H2 H 0.7656 0.4180 0.2419
C4 C 0.9164(3) 0.45003(13) 0.1278(3)
H3 H 0.9464 0.4348 0.0272
H4 H 0.8555 0.4854 0.0866
C5 C 1.0425(3) 0.46642(11) 0.2877(3)
C6 C 1.1640(2) 0.41673(10) 0.5857(3)
C7 C 1.1328(3) 0.38064(11) 0.7187(3)
C8 C 1.2379(3) 0.37146(12) 0.8837(3)
H5 H 1.2185 0.3475 0.9731
C9 C 1.3710(3) 0.39738(13) 0.9175(4)
H6 H 1.4414 0.3906 1.0278
C10 C 1.3977(3) 0.43348(13) 0.7849(4)
C11 C 1.2962(3) 0.44418(11) 0.6192(3)
H7 H 1.3158 0.4692 0.5321
C12 C 1.0291(3) 0.31740(12) 0.2987(4)
H8 H 1.0598 0.3295 0.1970
H9 H 0.9639 0.2838 0.2634
H10 H 1.1099 0.3051 0.3981
C13 C 0.7609(3) 0.32844(11) 0.4686(3)
C14 C 0.6518(3) 0.36551(12) 0.4803(4)
H11 H 0.6707 0.4053 0.5241
C15 C 0.5143(3) 0.34376(15) 0.4272(5)
H12 H 0.4397 0.3686 0.4337
C16 C 0.4901(3) 0.28487(15) 0.3649(4)
C17 C 0.5963(3) 0.24667(13) 0.3566(4)
H13 H 0.5768 0.2065 0.3165
C18 C 0.7344(3) 0.26873(11) 0.4091(3)
H14 H 0.8087 0.2434 0.4042
loop_
_geom_bond_atom_site_label_1
_geom_bond_atom_site_label_2
_geom_bond_site_symmetry_1
_geom_bond_site_symmetry_2
Cl1 C10 1_555 1_555
F1 C16 1_555 1_555
O1 C1 1_555 1_555
O2 C5 1_555 1_555
N1 C1 1_555 1_555
N2 C2 1_555 1_555
C1 C7 1_555 1_555
C2 N1 1_555 1_555
C3 C2 1_555 1_555
H1 C3 1_555 1_555
H2 C3 1_555 1_555
C4 C3 1_555 1_555
H3 C4 1_555 1_555
H4 C4 1_555 1_555
C5 N2 1_555 1_555
C6 N2 1_555 1_555
C7 C6 1_555 1_555
C8 C7 1_555 1_555
H5 C8 1_555 1_555
C9 C8 1_555 1_555
H6 C9 1_555 1_555
C10 C9 1_555 1_555
C11 C6 1_555 1_555
H7 C11 1_555 1_555
C12 C2 1_555 1_555
H8 C12 1_555 1_555
H9 C12 1_555 1_555
H10 C12 1_555 1_555
C13 N1 1_555 1_555
C14 C13 1_555 1_555
H11 C14 1_555 1_555
C15 C14 1_555 1_555
H12 C15 1_555 1_555
C16 C15 1_555 1_555
C17 C16 1_555 1_555
H13 C17 1_555 1_555
C18 C13 1_555 1_555
H14 C18 1_555 1_555
C4 C5 1_555 1_555
C10 C11 1_555 1_555
C17 C18 1_555 1_555

#END
