
#######################################################################
#
#                 Cambridge Crystallographic Data Centre
#                                CCDC 
#
#######################################################################
#
# If this CIF has been generated from an entry in the Cambridge 
# Structural Database, then it will include bibliographic, chemical, 
# crystal, experimental, refinement or atomic coordinate data resulting 
# from the CCDC's data processing and validation procedures.
#
#######################################################################

data_IXIWAO
_chemical_formula_moiety         'C5 H9 N4 O1'
_chemical_name_systematic        
'2,4,6-trimethyl-3-oxo-3,4-dihydro-1,2,4,5-tetrazin-1(2H)-yl radical'
_symmetry_cell_setting           orthorhombic
_symmetry_space_group_name_H-M   'P n m a'
_symmetry_Int_Tables_number      62
_space_group_name_Hall           '-P 2ac 2n'
loop_
_symmetry_equiv_pos_site_id
_symmetry_equiv_pos_as_xyz
1 x,y,z
2 1/2-x,-y,1/2+z
3 -x,1/2+y,-z
4 1/2+x,1/2-y,1/2-z
5 -x,-y,-z
6 1/2+x,y,1/2-z
7 x,1/2-y,z
8 1/2-x,1/2+y,1/2+z
_cell_length_a                   8.330(5)
_cell_length_b                   6.557(4)
_cell_length_c                   12.653(7)
_cell_angle_alpha                90
_cell_angle_beta                 90
_cell_angle_gamma                90
_cell_volume                     691.104
_exptl_crystal_colour            red
_exptl_crystal_description       block
_cell_formula_units_Z            4
loop_
_atom_site_label
_atom_site_type_symbol
_atom_site_fract_x
_atom_site_fract_y
_atom_site_fract_z
N1 N 0.92887(16) 0.2500 0.40492(12)
N2 N 0.84817(16) 0.2500 0.58574(13)
C1 C 1.13090(18) 0.2500 0.54368(14)
C2 C 0.82002(18) 0.2500 0.48181(14)
N3 N 1.08511(17) 0.2500 0.43925(13)
N4 N 1.00613(17) 0.2500 0.61301(12)
O1 O 1.27004(17) 0.2500 0.56969(13)
C3 C 1.2071(2) 0.2500 0.35722(18)
C4 C 1.0407(2) 0.2500 0.72650(15)
C5 C 0.6476(2) 0.2500 0.44922(16)
H1? H 1.1649 0.3174 0.2939
H2? H 1.2364 0.1091 0.3400
H3? H 1.3021 0.3234 0.3824
H4? H 0.9490 0.1929 0.7649
H5? H 1.0600 0.3901 0.7503
H6? H 1.1363 0.1670 0.7402
H7? H 0.6162 0.3879 0.4276
H8? H 0.5808 0.2062 0.5088
H9? H 0.6327 0.1559 0.3898
O2? O 0.9142(12) 0.2500 0.3142(7)
loop_
_geom_bond_atom_site_label_1
_geom_bond_atom_site_label_2
_geom_bond_site_symmetry_1
_geom_bond_site_symmetry_2
N1 C2 1_555 1_555
N2 C2 1_555 1_555
C1 N3 1_555 1_555
C2 C5 1_555 1_555
N3 N1 1_555 1_555
N4 N2 1_555 1_555
O1 C1 1_555 1_555
C3 N3 1_555 1_555
C4 N4 1_555 1_555
C1 N4 1_555 1_555

#END
