
#######################################################################
#
#                 Cambridge Crystallographic Data Centre
#                                CCDC 
#
#######################################################################
#
# If this CIF has been generated from an entry in the Cambridge 
# Structural Database, then it will include bibliographic, chemical, 
# crystal, experimental, refinement or atomic coordinate data resulting 
# from the CCDC's data processing and validation procedures.
#
#######################################################################

data_IXOHOU
_chemical_formula_moiety         'C13 H12 I1 N4 S1 1+,I1 1-'
_chemical_name_systematic        
"3-(iodomethyl)-3-methyl-3,10-dihydro-2H-[1,3]thiazolo[3',2':2,3][1,2,4]triazino[5,6-b]indol-4-ium iodide"
_symmetry_cell_setting           orthorhombic
_symmetry_space_group_name_H-M   'P c a 21'
_symmetry_Int_Tables_number      29
_space_group_name_Hall           'P 2c -2ac'
loop_
_symmetry_equiv_pos_site_id
_symmetry_equiv_pos_as_xyz
1 x,y,z
2 -x,-y,1/2+z
3 1/2-x,y,1/2+z
4 1/2+x,-y,z
_cell_length_a                   9.6880(9)
_cell_length_b                   10.9384(11)
_cell_length_c                   15.2152(15)
_cell_angle_alpha                90
_cell_angle_beta                 90
_cell_angle_gamma                90
_cell_volume                     1612.37
_exptl_crystal_colour            yellow
_exptl_crystal_description       block
_cell_formula_units_Z            4
loop_
_atom_site_label
_atom_site_type_symbol
_atom_site_fract_x
_atom_site_fract_y
_atom_site_fract_z
I1 I -0.22703(8) -0.67977(7) 0.39426(6)
C1 C 0.3761(10) -0.7511(10) 0.2814(7)
C2 C 0.6809(12) -0.7574(11) 0.1505(8)
H1 H 0.7361 -0.8198 0.1285
C3 C 0.6317(12) -0.5405(11) 0.1691(8)
H2 H 0.6563 -0.4597 0.1584
C4 C 0.4015(10) -0.8789(10) 0.2732(7)
C5 C 0.5641(11) -0.7807(9) 0.1966(7)
N1 N 0.5078(9) -0.8965(8) 0.2230(6)
H3 H 0.5398 -0.9667 0.2078
C6 C 0.7133(12) -0.6355(12) 0.1379(9)
H4 H 0.7933 -0.6162 0.1072
C7 C 0.4815(11) -0.6894(9) 0.2313(7)
C8 C 0.5149(11) -0.5668(11) 0.2157(7)
H5 H 0.4586 -0.5045 0.2367
N2 N 0.2025(8) -0.7955(7) 0.3738(6)
C9 C 0.2257(10) -0.9145(10) 0.3655(7)
N3 N 0.2751(9) -0.7072(8) 0.3291(6)
C10 C 0.0754(10) -0.7589(10) 0.4215(8)
C11 C 0.0489(12) -0.8667(10) 0.4829(8)
H6 H -0.0495 -0.8771 0.4920
H7 H 0.0921 -0.8522 0.5395
S1 S 0.1219(3) -1.0036(2) 0.4318(2)
N4 N 0.3256(9) -0.9648(8) 0.3155(6)
C12 C 0.1023(13) -0.6412(11) 0.4728(9)
H8 H 0.1832 -0.6512 0.5085
H9 H 0.0244 -0.6237 0.5097
H10 H 0.1161 -0.5749 0.4324
C13 C -0.0308(11) -0.7453(10) 0.3491(7)
H11 H -0.0439 -0.8240 0.3209
H12 H 0.0046 -0.6891 0.3052
I2 I 0.09767(9) -0.83922(6) 0.10645(5)
loop_
_geom_bond_atom_site_label_1
_geom_bond_atom_site_label_2
_geom_bond_site_symmetry_1
_geom_bond_site_symmetry_2
I1 C13 1_555 1_555
C1 C4 1_555 1_555
C2 H1 1_555 1_555
C3 H2 1_555 1_555
C4 N1 1_555 1_555
C5 C2 1_555 1_555
N1 C5 1_555 1_555
H3 N1 1_555 1_555
C6 C2 1_555 1_555
H4 C6 1_555 1_555
C7 C1 1_555 1_555
C8 C3 1_555 1_555
H5 C8 1_555 1_555
N2 C9 1_555 1_555
C9 S1 1_555 1_555
N3 C1 1_555 1_555
C10 N2 1_555 1_555
C11 C10 1_555 1_555
H6 C11 1_555 1_555
H7 C11 1_555 1_555
S1 C11 1_555 1_555
N4 C4 1_555 1_555
C12 C10 1_555 1_555
H8 C12 1_555 1_555
H9 C12 1_555 1_555
H10 C12 1_555 1_555
C13 C10 1_555 1_555
H11 C13 1_555 1_555
H12 C13 1_555 1_555
C3 C6 1_555 1_555
C5 C7 1_555 1_555
C7 C8 1_555 1_555
N2 N3 1_555 1_555
C9 N4 1_555 1_555

#END
