
#######################################################################
#
#                 Cambridge Crystallographic Data Centre
#                                CCDC 
#
#######################################################################
#
# If this CIF has been generated from an entry in the Cambridge 
# Structural Database, then it will include bibliographic, chemical, 
# crystal, experimental, refinement or atomic coordinate data resulting 
# from the CCDC's data processing and validation procedures.
#
#######################################################################

data_IXOJIO
_chemical_formula_moiety         'C54 H60 O12 S6 Sr1 2+,2(Cl1 O4 1-)'
_chemical_name_systematic        
'hexakis(Acetylmethyl(phenyl)sulfoxide)-strontium(ii) bis(perchlorate)'
_symmetry_cell_setting           rhombohedral
_symmetry_space_group_name_H-M   'R -3 c'
_symmetry_Int_Tables_number      167
_space_group_name_Hall           '-R 3 2"c'
loop_
_symmetry_equiv_pos_site_id
_symmetry_equiv_pos_as_xyz
1 x,y,z
2 -y,x-y,z
3 -x+y,-x,z
4 y,x,1/2-z
5 2/3+x,1/3+y,1/3+z
6 2/3-y,1/3+x-y,1/3+z
7 2/3-x+y,1/3-x,1/3+z
8 2/3+y,1/3+x,5/6-z
9 1/3+x,2/3+y,2/3+z
10 1/3+y,2/3+x,1/6-z
11 x-y,-y,1/2-z
12 -x,-x+y,1/2-z
13 1/3-y,2/3+x-y,2/3+z
14 1/3-x+y,2/3-x,2/3+z
15 1/3+x-y,2/3-y,1/6-z
16 1/3-x,2/3-x+y,1/6-z
17 2/3+x-y,1/3-y,5/6-z
18 2/3-x,1/3-x+y,5/6-z
19 -x,-y,-z
20 y,-x+y,-z
21 x-y,x,-z
22 -y,-x,1/2+z
23 1/3-x,2/3-y,2/3-z
24 1/3+y,2/3-x+y,2/3-z
25 1/3+x-y,2/3+x,2/3-z
26 1/3-y,2/3-x,1/6+z
27 2/3-x,1/3-y,1/3-z
28 2/3-y,1/3-x,5/6+z
29 -x+y,y,1/2+z
30 x,x-y,1/2+z
31 2/3+y,1/3-x+y,1/3-z
32 2/3+x-y,1/3+x,1/3-z
33 2/3-x+y,1/3+y,5/6+z
34 2/3+x,1/3+x-y,5/6+z
35 1/3-x+y,2/3+y,1/6+z
36 1/3+x,2/3+x-y,1/6+z
_cell_length_a                   13.570(4)
_cell_length_b                   13.570(4)
_cell_length_c                   60.77(3)
_cell_angle_alpha                90
_cell_angle_beta                 90
_cell_angle_gamma                120.00
_cell_volume                     9691.24
_cell_formula_units_Z            6
loop_
_atom_site_label
_atom_site_type_symbol
_atom_site_fract_x
_atom_site_fract_y
_atom_site_fract_z
Sr1 Sr 1.0000 1.0000 0.0000
S1 S 0.89692(5) 0.71752(5) 0.033308(10)
O1 O 0.95542(14) 0.83209(14) 0.02232(3)
O2 O 0.85110(15) 0.60846(17) -0.00864(3)
C1 C 0.8473(2) 0.8359(2) 0.06422(4)
H1 H 0.8602 0.8881 0.0531
C2 C 0.8212(2) 0.8537(3) 0.08526(5)
H2 H 0.8162 0.9182 0.0883
C3 C 0.8025(2) 0.7771(3) 0.10171(4)
H3 H 0.7852 0.7898 0.1159
C4 C 0.8094(2) 0.6810(3) 0.09724(4)
H4 H 0.7963 0.6289 0.1084
C5 C 0.8355(2) 0.6622(2) 0.07638(4)
H5 H 0.8407 0.5977 0.0734
C6 C 0.85395(18) 0.73952(19) 0.05990(4)
C7 C 0.75680(19) 0.6397(2) 0.02108(4)
H6 H 0.7069 0.5774 0.0307
H7 H 0.7254 0.6897 0.0195
C8 C 0.7622(2) 0.5932(2) -0.00118(4)
C9 C 0.6514(2) 0.5271(3) -0.01294(5)
H8 H 0.6651 0.5122 -0.0277
H9 H 0.6129 0.5703 -0.0132
H10 H 0.6051 0.4564 -0.0054
S1A S 1.28248(5) 1.17940(7) 0.033308(10)
S1B S 0.82060(7) 1.10308(5) 0.033308(10)
S1R S 1.10308(5) 1.28248(5) -0.033308(10)
S1S S 0.71752(5) 0.82060(7) -0.033308(10)
S1T S 1.17940(7) 0.89692(5) -0.033308(10)
O1A O 1.16791(14) 1.12333(20) 0.02232(3)
O1B O 0.87667(20) 1.04458(14) 0.02232(3)
O1R O 1.04458(14) 1.16791(14) -0.02232(3)
O1S O 0.83209(14) 0.87667(20) -0.02232(3)
O1T O 1.12333(20) 0.95542(14) -0.02232(3)
O2A O 1.39154(17) 1.24264(23) -0.00864(3)
O2B O 0.75736(23) 1.14890(15) -0.00864(3)
O2R O 1.14890(15) 1.39154(17) 0.00864(3)
O2S O 0.60846(17) 0.75736(23) 0.00864(3)
O2T O 1.24264(23) 0.85110(15) 0.00864(3)
C1A C 1.1641(2) 1.0114(3) 0.06422(4)
C1B C 0.9886(3) 1.1527(2) 0.06422(4)
C1R C 1.1527(2) 1.1641(2) -0.06422(4)
C1S C 0.8359(2) 0.9886(3) -0.06422(4)
C1T C 1.0114(3) 0.8473(2) -0.06422(4)
H1A H 1.1119 0.9721 0.0531
H1B H 1.0279 1.1398 0.0531
H1R H 1.1398 1.1119 -0.0531
H1S H 0.8881 1.0279 -0.0531
H1T H 0.9721 0.8602 -0.0531
C2A C 1.1463(3) 0.9675(4) 0.08526(5)
C2B C 1.0325(4) 1.1788(2) 0.08526(5)
C2R C 1.1788(2) 1.1463(3) -0.08526(5)
C2S C 0.8537(3) 1.0325(4) -0.08526(5)
C2T C 0.9675(4) 0.8212(2) -0.08526(5)
H2A H 1.0818 0.8980 0.0883
H2B H 1.1020 1.1838 0.0883
H2R H 1.1838 1.0818 -0.0883
H2S H 0.9182 1.1020 -0.0883
H2T H 0.8980 0.8162 -0.0883
C3A C 1.2229(3) 1.0254(4) 0.10171(4)
C3B C 0.9746(4) 1.1975(2) 0.10171(4)
C3R C 1.1975(2) 1.2229(3) -0.10171(4)
C3S C 0.7771(3) 0.9746(4) -0.10171(4)
C3T C 1.0254(4) 0.8025(2) -0.10171(4)
H3A H 1.2102 0.9954 0.1159
H3B H 1.0046 1.2148 0.1159
H3R H 1.2148 1.2102 -0.1159
H3S H 0.7898 1.0046 -0.1159
H3T H 0.9954 0.7852 -0.1159
C4A C 1.3190(3) 1.1284(4) 0.09724(4)
C4B C 0.8716(4) 1.1906(2) 0.09724(4)
C4R C 1.1906(2) 1.3190(3) -0.09724(4)
C4S C 0.6810(3) 0.8716(4) -0.09724(4)
C4T C 1.1284(4) 0.8094(2) -0.09724(4)
H4A H 1.3711 1.1674 0.1084
H4B H 0.8326 1.2037 0.1084
H4R H 1.2037 1.3711 -0.1084
H4S H 0.6289 0.8326 -0.1084
H4T H 1.1674 0.7963 -0.1084
C5A C 1.3378(2) 1.1733(3) 0.07638(4)
C5B C 0.8267(3) 1.1645(2) 0.07638(4)
C5R C 1.1645(2) 1.3378(2) -0.07638(4)
C5S C 0.6622(2) 0.8267(3) -0.07638(4)
C5T C 1.1733(3) 0.8355(2) -0.07638(4)
H5A H 1.4023 1.2430 0.0734
H5B H 0.7570 1.1593 0.0734
H5R H 1.1593 1.4023 -0.0734
H5S H 0.5977 0.7570 -0.0734
H5T H 1.2430 0.8407 -0.0734
C6A C 1.26048(19) 1.11443(26) 0.05990(4)
C6B C 0.88557(26) 1.14605(18) 0.05990(4)
C6R C 1.14605(18) 1.26048(19) -0.05990(4)
C6S C 0.73952(19) 0.88557(26) -0.05990(4)
C6T C 1.11443(26) 0.85395(18) -0.05990(4)
C7A C 1.3603(2) 1.11710(28) 0.02108(4)
C7B C 0.88290(28) 1.24320(19) 0.02108(4)
C7R C 1.24320(19) 1.3603(2) -0.02108(4)
C7S C 0.6397(2) 0.88290(28) -0.02108(4)
C7T C 1.11710(28) 0.75680(19) -0.02108(4)
H6A H 1.4226 1.1295 0.0307
H6B H 0.8705 1.2931 0.0307
H6R H 1.2931 1.4226 -0.0307
H6S H 0.5774 0.8705 -0.0307
H6T H 1.1295 0.7069 -0.0307
H7A H 1.3103 1.0357 0.0195
H7B H 0.9643 1.2746 0.0195
H7R H 1.2746 1.3103 -0.0195
H7S H 0.6897 0.9643 -0.0195
H7T H 1.0357 0.7254 -0.0195
C8A C 1.4068(2) 1.1690(3) -0.00118(4)
C8B C 0.8310(3) 1.2378(2) -0.00118(4)
C8R C 1.2378(2) 1.4068(2) 0.00118(4)
C8S C 0.5932(2) 0.8310(3) 0.00118(4)
C8T C 1.1690(3) 0.7622(2) 0.00118(4)
C9A C 1.4729(3) 1.1243(4) -0.01294(5)
C9B C 0.8757(4) 1.3486(2) -0.01294(5)
C9R C 1.3486(2) 1.4729(3) 0.01294(5)
C9S C 0.5271(3) 0.8757(4) 0.01294(5)
C9T C 1.1243(4) 0.6514(2) 0.01294(5)
H8A H 1.4878 1.1529 -0.0277
H8B H 0.8471 1.3349 -0.0277
H8R H 1.3349 1.4878 0.0277
H8S H 0.5122 0.8471 0.0277
H8T H 1.1529 0.6651 0.0277
H9A H 1.4297 1.0426 -0.0132
H9B H 0.9574 1.3871 -0.0132
H9R H 1.3871 1.4297 0.0132
H9S H 0.5703 0.9574 0.0132
H9T H 1.0426 0.6129 0.0132
H10A H 1.5436 1.1487 -0.0054
H10B H 0.8513 1.3949 -0.0054
H10R H 1.3949 1.5436 0.0054
H10S H 0.4564 0.8513 0.0054
H10T H 1.1487 0.6051 0.0054
Cl1 Cl 0.6667 0.3333 0.04047(2)
O3 O 0.6667 0.3333 0.01571(7)
O4 O 0.6428(4) 0.2244(3) 0.04667(7)
O4A O 0.7756(3) 0.4184(5) 0.04667(7)
O4B O 0.5816(5) 0.3572(4) 0.04667(7)
O5? O 0.6667 0.3333 0.06493(8)
O6? O 0.6455(4) 0.2237(3) 0.03394(8)
loop_
_geom_bond_atom_site_label_1
_geom_bond_atom_site_label_2
_geom_bond_site_symmetry_1
_geom_bond_site_symmetry_2
Sr1 O1 1_555 1_555
S1 O1 1_555 1_555
O2 C8 1_555 1_555
C1 H1 1_555 1_555
C2 C1 1_555 1_555
H2 C2 1_555 1_555
C3 C2 1_555 1_555
H3 C3 1_555 1_555
C4 C3 1_555 1_555
H4 C4 1_555 1_555
C5 C4 1_555 1_555
H5 C5 1_555 1_555
C6 S1 1_555 1_555
C7 S1 1_555 1_555
H6 C7 1_555 1_555
H7 C7 1_555 1_555
C8 C7 1_555 1_555
C9 C8 1_555 1_555
H8 C9 1_555 1_555
H9 C9 1_555 1_555
H10 C9 1_555 1_555
Cl1 O3 1_555 1_555
O4 Cl1 1_555 1_555
S1A O1A 1_555 1_555
S1B O1B 1_555 1_555
S1R O1R 1_555 1_555
S1S O1S 1_555 1_555
S1T O1T 1_555 1_555
O1A Sr1 1_555 1_555
O1B Sr1 1_555 1_555
O1R Sr1 1_555 1_555
O1S Sr1 1_555 1_555
O1T Sr1 1_555 1_555
O2A C8A 1_555 1_555
O2B C8B 1_555 1_555
O2R C8R 1_555 1_555
O2S C8S 1_555 1_555
O2T C8T 1_555 1_555
C1A H1A 1_555 1_555
C1B H1B 1_555 1_555
C1R H1R 1_555 1_555
C1S H1S 1_555 1_555
C1T H1T 1_555 1_555
C2A C1A 1_555 1_555
C2B C1B 1_555 1_555
C2R C1R 1_555 1_555
C2S C1S 1_555 1_555
C2T C1T 1_555 1_555
H2A C2A 1_555 1_555
H2B C2B 1_555 1_555
H2R C2R 1_555 1_555
H2S C2S 1_555 1_555
H2T C2T 1_555 1_555
C3A C2A 1_555 1_555
C3B C2B 1_555 1_555
C3R C2R 1_555 1_555
C3S C2S 1_555 1_555
C3T C2T 1_555 1_555
H3A C3A 1_555 1_555
H3B C3B 1_555 1_555
H3R C3R 1_555 1_555
H3S C3S 1_555 1_555
H3T C3T 1_555 1_555
C4A C3A 1_555 1_555
C4B C3B 1_555 1_555
C4R C3R 1_555 1_555
C4S C3S 1_555 1_555
C4T C3T 1_555 1_555
H4A C4A 1_555 1_555
H4B C4B 1_555 1_555
H4R C4R 1_555 1_555
H4S C4S 1_555 1_555
H4T C4T 1_555 1_555
C5A C4A 1_555 1_555
C5B C4B 1_555 1_555
C5R C4R 1_555 1_555
C5S C4S 1_555 1_555
C5T C4T 1_555 1_555
H5A C5A 1_555 1_555
H5B C5B 1_555 1_555
H5R C5R 1_555 1_555
H5S C5S 1_555 1_555
H5T C5T 1_555 1_555
C6A S1A 1_555 1_555
C6B S1B 1_555 1_555
C6R S1R 1_555 1_555
C6S S1S 1_555 1_555
C6T S1T 1_555 1_555
C7A S1A 1_555 1_555
C7B S1B 1_555 1_555
C7R S1R 1_555 1_555
C7S S1S 1_555 1_555
C7T S1T 1_555 1_555
H6A C7A 1_555 1_555
H6B C7B 1_555 1_555
H6R C7R 1_555 1_555
H6S C7S 1_555 1_555
H6T C7T 1_555 1_555
H7A C7A 1_555 1_555
H7B C7B 1_555 1_555
H7R C7R 1_555 1_555
H7S C7S 1_555 1_555
H7T C7T 1_555 1_555
C8A C7A 1_555 1_555
C8B C7B 1_555 1_555
C8R C7R 1_555 1_555
C8S C7S 1_555 1_555
C8T C7T 1_555 1_555
C9A C8A 1_555 1_555
C9B C8B 1_555 1_555
C9R C8R 1_555 1_555
C9S C8S 1_555 1_555
C9T C8T 1_555 1_555
H8A C9A 1_555 1_555
H8B C9B 1_555 1_555
H8R C9R 1_555 1_555
H8S C9S 1_555 1_555
H8T C9T 1_555 1_555
H9A C9A 1_555 1_555
H9B C9B 1_555 1_555
H9R C9R 1_555 1_555
H9S C9S 1_555 1_555
H9T C9T 1_555 1_555
H10A C9A 1_555 1_555
H10B C9B 1_555 1_555
H10R C9R 1_555 1_555
H10S C9S 1_555 1_555
H10T C9T 1_555 1_555
O4A Cl1 1_555 1_555
O4B Cl1 1_555 1_555
C1 C6 1_555 1_555
C5 C6 1_555 1_555
C1A C6A 1_555 1_555
C1B C6B 1_555 1_555
C1R C6R 1_555 1_555
C1S C6S 1_555 1_555
C1T C6T 1_555 1_555
C5A C6A 1_555 1_555
C5B C6B 1_555 1_555
C5R C6R 1_555 1_555
C5S C6S 1_555 1_555
C5T C6T 1_555 1_555

#END
