
#######################################################################
#
#                 Cambridge Crystallographic Data Centre
#                                CCDC 
#
#######################################################################
#
# If this CIF has been generated from an entry in the Cambridge 
# Structural Database, then it will include bibliographic, chemical, 
# crystal, experimental, refinement or atomic coordinate data resulting 
# from the CCDC's data processing and validation procedures.
#
#######################################################################

data_IXOJEK
_chemical_formula_moiety         'C54 H60 Ca1 O12 S6 2+,2(Cl1 O4 1-)'
_chemical_name_systematic        
'hexakis(Acetylmethyl(phenyl)sulfoxide)-calcium(ii) bis(perchlorate)'
_symmetry_cell_setting           rhombohedral
_symmetry_space_group_name_H-M   'R -3 c'
_symmetry_Int_Tables_number      167
_space_group_name_Hall           '-R 3 2"c'
loop_
_symmetry_equiv_pos_site_id
_symmetry_equiv_pos_as_xyz
1 x,y,z
2 -y,x-y,z
3 -x+y,-x,z
4 y,x,1/2-z
5 2/3+x,1/3+y,1/3+z
6 2/3-y,1/3+x-y,1/3+z
7 2/3-x+y,1/3-x,1/3+z
8 2/3+y,1/3+x,5/6-z
9 1/3+x,2/3+y,2/3+z
10 1/3+y,2/3+x,1/6-z
11 x-y,-y,1/2-z
12 -x,-x+y,1/2-z
13 1/3-y,2/3+x-y,2/3+z
14 1/3-x+y,2/3-x,2/3+z
15 1/3+x-y,2/3-y,1/6-z
16 1/3-x,2/3-x+y,1/6-z
17 2/3+x-y,1/3-y,5/6-z
18 2/3-x,1/3-x+y,5/6-z
19 -x,-y,-z
20 y,-x+y,-z
21 x-y,x,-z
22 -y,-x,1/2+z
23 1/3-x,2/3-y,2/3-z
24 1/3+y,2/3-x+y,2/3-z
25 1/3+x-y,2/3+x,2/3-z
26 1/3-y,2/3-x,1/6+z
27 2/3-x,1/3-y,1/3-z
28 2/3-y,1/3-x,5/6+z
29 -x+y,y,1/2+z
30 x,x-y,1/2+z
31 2/3+y,1/3-x+y,1/3-z
32 2/3+x-y,1/3+x,1/3-z
33 2/3-x+y,1/3+y,5/6+z
34 2/3+x,1/3+x-y,5/6+z
35 1/3-x+y,2/3+y,1/6+z
36 1/3+x,2/3+x-y,1/6+z
_cell_length_a                   13.5155(18)
_cell_length_b                   13.5155(18)
_cell_length_c                   60.512(17)
_cell_angle_alpha                90
_cell_angle_beta                 90
_cell_angle_gamma                120.00
_cell_volume                     9572.74
_cell_formula_units_Z            6
loop_
_atom_site_label
_atom_site_type_symbol
_atom_site_fract_x
_atom_site_fract_y
_atom_site_fract_z
Ca1 Ca 1.0000 1.0000 0.0000
S1 S 0.89756(5) 0.72471(5) 0.032116(10)
O1 O 0.95073(16) 0.83959(15) 0.02129(3)
O2 O 0.84883(19) 0.6104(2) -0.00973(4)
C1 C 0.8476(3) 0.8389(2) 0.06397(5)
H1 H 0.8601 0.8923 0.0530
C2 C 0.8211(3) 0.8538(3) 0.08529(5)
H2 H 0.8156 0.9180 0.0888
C3 C 0.8028(3) 0.7751(3) 0.10138(5)
H3 H 0.7856 0.7863 0.1157
C4 C 0.8097(3) 0.6799(3) 0.09644(5)
H4 H 0.7961 0.6261 0.1074
C5 C 0.8370(3) 0.6632(3) 0.07517(4)
H5 H 0.8430 0.5993 0.0718
C6 C 0.8552(2) 0.7432(2) 0.05919(4)
C7 C 0.7563(2) 0.6411(2) 0.02046(4)
H6 H 0.7094 0.5783 0.0303
H7 H 0.7214 0.6885 0.0191
C8 C 0.7601(2) 0.5945(2) -0.00192(5)
C9 C 0.6484(3) 0.5271(3) -0.01350(6)
H8 H 0.6614 0.5117 -0.0284
H9 H 0.6091 0.5698 -0.0137
H10 H 0.6026 0.4562 -0.0059
S1A S 1.27529(5) 1.17285(7) 0.032116(10)
S1B S 0.82715(7) 1.10244(5) 0.032116(10)
S1R S 1.10244(5) 1.27529(5) -0.032116(10)
S1S S 0.72471(5) 0.82715(7) -0.032116(10)
S1T S 1.17285(7) 0.89756(5) -0.032116(10)
O1A O 1.16041(15) 1.11114(22) 0.02129(3)
O1B O 0.88886(22) 1.04927(16) 0.02129(3)
O1R O 1.04927(16) 1.16041(15) -0.02129(3)
O1S O 0.83959(15) 0.88886(22) -0.02129(3)
O1T O 1.11114(22) 0.95073(16) -0.02129(3)
O2A O 1.3896(2) 1.23843(28) -0.00973(4)
O2B O 0.76157(28) 1.15117(19) -0.00973(4)
O2R O 1.15117(19) 1.3896(2) 0.00973(4)
O2S O 0.6104(2) 0.76157(28) 0.00973(4)
O2T O 1.23843(28) 0.84883(19) 0.00973(4)
C1A C 1.1611(2) 1.0087(4) 0.06397(5)
C1B C 0.9913(4) 1.1524(3) 0.06397(5)
C1R C 1.1524(3) 1.1611(2) -0.06397(5)
C1S C 0.8389(2) 0.9913(4) -0.06397(5)
C1T C 1.0087(4) 0.8476(3) -0.06397(5)
H1A H 1.1077 0.9678 0.0530
H1B H 1.0322 1.1399 0.0530
H1R H 1.1399 1.1077 -0.0530
H1S H 0.8923 1.0322 -0.0530
H1T H 0.9678 0.8601 -0.0530
C2A C 1.1462(3) 0.9673(4) 0.08529(5)
C2B C 1.0327(4) 1.1789(3) 0.08529(5)
C2R C 1.1789(3) 1.1462(3) -0.08529(5)
C2S C 0.8538(3) 1.0327(4) -0.08529(5)
C2T C 0.9673(4) 0.8211(3) -0.08529(5)
H2A H 1.0820 0.8976 0.0888
H2B H 1.1024 1.1844 0.0888
H2R H 1.1844 1.0820 -0.0888
H2S H 0.9180 1.1024 -0.0888
H2T H 0.8976 0.8156 -0.0888
C3A C 1.2249(3) 1.0277(4) 0.10138(5)
C3B C 0.9723(4) 1.1972(3) 0.10138(5)
C3R C 1.1972(3) 1.2249(3) -0.10138(5)
C3S C 0.7751(3) 0.9723(4) -0.10138(5)
C3T C 1.0277(4) 0.8028(3) -0.10138(5)
H3A H 1.2137 0.9993 0.1157
H3B H 1.0007 1.2144 0.1157
H3R H 1.2144 1.2137 -0.1157
H3S H 0.7863 1.0007 -0.1157
H3T H 0.9993 0.7856 -0.1157
C4A C 1.3201(3) 1.1298(4) 0.09644(5)
C4B C 0.8702(4) 1.1903(3) 0.09644(5)
C4R C 1.1903(3) 1.3201(3) -0.09644(5)
C4S C 0.6799(3) 0.8702(4) -0.09644(5)
C4T C 1.1298(4) 0.8097(3) -0.09644(5)
H4A H 1.3739 1.1700 0.1074
H4B H 0.8300 1.2039 0.1074
H4R H 1.2039 1.3739 -0.1074
H4S H 0.6261 0.8300 -0.1074
H4T H 1.1700 0.7961 -0.1074
C5A C 1.3368(3) 1.1738(4) 0.07517(4)
C5B C 0.8262(4) 1.1630(3) 0.07517(4)
C5R C 1.1630(3) 1.3368(3) -0.07517(4)
C5S C 0.6632(3) 0.8262(4) -0.07517(4)
C5T C 1.1738(4) 0.8370(3) -0.07517(4)
H5A H 1.4007 1.2437 0.0718
H5B H 0.7563 1.1570 0.0718
H5R H 1.1570 1.4007 -0.0718
H5S H 0.5993 0.7563 -0.0718
H5T H 1.2437 0.8430 -0.0718
C6A C 1.2568(2) 1.1120(3) 0.05919(4)
C6B C 0.8880(3) 1.1448(2) 0.05919(4)
C6R C 1.1448(2) 1.2568(2) -0.05919(4)
C6S C 0.7432(2) 0.8880(3) -0.05919(4)
C6T C 1.1120(3) 0.8552(2) -0.05919(4)
C7A C 1.3589(2) 1.1152(3) 0.02046(4)
C7B C 0.8848(3) 1.2437(2) 0.02046(4)
C7R C 1.2437(2) 1.3589(2) -0.02046(4)
C7S C 0.6411(2) 0.8848(3) -0.02046(4)
C7T C 1.1152(3) 0.7563(2) -0.02046(4)
H6A H 1.4217 1.1311 0.0303
H6B H 0.8689 1.2906 0.0303
H6R H 1.2906 1.4217 -0.0303
H6S H 0.5783 0.8689 -0.0303
H6T H 1.1311 0.7094 -0.0303
H7A H 1.3115 1.0329 0.0191
H7B H 0.9671 1.2786 0.0191
H7R H 1.2786 1.3115 -0.0191
H7S H 0.6885 0.9671 -0.0191
H7T H 1.0329 0.7214 -0.0191
C8A C 1.4055(2) 1.1656(3) -0.00192(5)
C8B C 0.8344(3) 1.2399(2) -0.00192(5)
C8R C 1.2399(2) 1.4055(2) 0.00192(5)
C8S C 0.5945(2) 0.8344(3) 0.00192(5)
C8T C 1.1656(3) 0.7601(2) 0.00192(5)
C9A C 1.4729(3) 1.1213(4) -0.01350(6)
C9B C 0.8787(4) 1.3516(3) -0.01350(6)
C9R C 1.3516(3) 1.4729(3) 0.01350(6)
C9S C 0.5271(3) 0.8787(4) 0.01350(6)
C9T C 1.1213(4) 0.6484(3) 0.01350(6)
H8A H 1.4883 1.1497 -0.0284
H8B H 0.8503 1.3386 -0.0284
H8R H 1.3386 1.4883 0.0284
H8S H 0.5117 0.8503 0.0284
H8T H 1.1497 0.6614 0.0284
H9A H 1.4302 1.0393 -0.0137
H9B H 0.9607 1.3909 -0.0137
H9R H 1.3909 1.4302 0.0137
H9S H 0.5698 0.9607 0.0137
H9T H 1.0393 0.6091 0.0137
H10A H 1.5438 1.1464 -0.0059
H10B H 0.8536 1.3974 -0.0059
H10R H 1.3974 1.5438 0.0059
H10S H 0.4562 0.8536 0.0059
H10T H 1.1464 0.6026 0.0059
Cl1 Cl 0.6667 0.3333 0.03974(3)
O3 O 0.6667 0.3333 0.01444(13)
O4 O 0.6438(11) 0.2256(7) 0.04517(17)
O4A O 0.7744(7) 0.4182(13) 0.04517(17)
O4B O 0.5818(13) 0.3562(11) 0.04517(17)
O5? O 0.6667 0.3333 0.06470(14)
O6? O 0.6459(8) 0.2247(6) 0.03382(14)
loop_
_geom_bond_atom_site_label_1
_geom_bond_atom_site_label_2
_geom_bond_site_symmetry_1
_geom_bond_site_symmetry_2
Ca1 O1 1_555 1_555
S1 O1 1_555 1_555
O2 C8 1_555 1_555
C1 H1 1_555 1_555
C2 C1 1_555 1_555
H2 C2 1_555 1_555
C3 C2 1_555 1_555
H3 C3 1_555 1_555
C4 C3 1_555 1_555
H4 C4 1_555 1_555
C5 C4 1_555 1_555
H5 C5 1_555 1_555
C6 S1 1_555 1_555
C7 S1 1_555 1_555
H6 C7 1_555 1_555
H7 C7 1_555 1_555
C8 C7 1_555 1_555
C9 C8 1_555 1_555
H8 C9 1_555 1_555
H9 C9 1_555 1_555
H10 C9 1_555 1_555
Cl1 O3 1_555 1_555
O4 Cl1 1_555 1_555
S1A O1A 1_555 1_555
S1B O1B 1_555 1_555
S1R O1R 1_555 1_555
S1S O1S 1_555 1_555
S1T O1T 1_555 1_555
O1A Ca1 1_555 1_555
O1B Ca1 1_555 1_555
O1R Ca1 1_555 1_555
O1S Ca1 1_555 1_555
O1T Ca1 1_555 1_555
O2A C8A 1_555 1_555
O2B C8B 1_555 1_555
O2R C8R 1_555 1_555
O2S C8S 1_555 1_555
O2T C8T 1_555 1_555
C1A H1A 1_555 1_555
C1B H1B 1_555 1_555
C1R H1R 1_555 1_555
C1S H1S 1_555 1_555
C1T H1T 1_555 1_555
C2A C1A 1_555 1_555
C2B C1B 1_555 1_555
C2R C1R 1_555 1_555
C2S C1S 1_555 1_555
C2T C1T 1_555 1_555
H2A C2A 1_555 1_555
H2B C2B 1_555 1_555
H2R C2R 1_555 1_555
H2S C2S 1_555 1_555
H2T C2T 1_555 1_555
C3A C2A 1_555 1_555
C3B C2B 1_555 1_555
C3R C2R 1_555 1_555
C3S C2S 1_555 1_555
C3T C2T 1_555 1_555
H3A C3A 1_555 1_555
H3B C3B 1_555 1_555
H3R C3R 1_555 1_555
H3S C3S 1_555 1_555
H3T C3T 1_555 1_555
C4A C3A 1_555 1_555
C4B C3B 1_555 1_555
C4R C3R 1_555 1_555
C4S C3S 1_555 1_555
C4T C3T 1_555 1_555
H4A C4A 1_555 1_555
H4B C4B 1_555 1_555
H4R C4R 1_555 1_555
H4S C4S 1_555 1_555
H4T C4T 1_555 1_555
C5A C4A 1_555 1_555
C5B C4B 1_555 1_555
C5R C4R 1_555 1_555
C5S C4S 1_555 1_555
C5T C4T 1_555 1_555
H5A C5A 1_555 1_555
H5B C5B 1_555 1_555
H5R C5R 1_555 1_555
H5S C5S 1_555 1_555
H5T C5T 1_555 1_555
C6A S1A 1_555 1_555
C6B S1B 1_555 1_555
C6R S1R 1_555 1_555
C6S S1S 1_555 1_555
C6T S1T 1_555 1_555
C7A S1A 1_555 1_555
C7B S1B 1_555 1_555
C7R S1R 1_555 1_555
C7S S1S 1_555 1_555
C7T S1T 1_555 1_555
H6A C7A 1_555 1_555
H6B C7B 1_555 1_555
H6R C7R 1_555 1_555
H6S C7S 1_555 1_555
H6T C7T 1_555 1_555
H7A C7A 1_555 1_555
H7B C7B 1_555 1_555
H7R C7R 1_555 1_555
H7S C7S 1_555 1_555
H7T C7T 1_555 1_555
C8A C7A 1_555 1_555
C8B C7B 1_555 1_555
C8R C7R 1_555 1_555
C8S C7S 1_555 1_555
C8T C7T 1_555 1_555
C9A C8A 1_555 1_555
C9B C8B 1_555 1_555
C9R C8R 1_555 1_555
C9S C8S 1_555 1_555
C9T C8T 1_555 1_555
H8A C9A 1_555 1_555
H8B C9B 1_555 1_555
H8R C9R 1_555 1_555
H8S C9S 1_555 1_555
H8T C9T 1_555 1_555
H9A C9A 1_555 1_555
H9B C9B 1_555 1_555
H9R C9R 1_555 1_555
H9S C9S 1_555 1_555
H9T C9T 1_555 1_555
H10A C9A 1_555 1_555
H10B C9B 1_555 1_555
H10R C9R 1_555 1_555
H10S C9S 1_555 1_555
H10T C9T 1_555 1_555
O4A Cl1 1_555 1_555
O4B Cl1 1_555 1_555
C1 C6 1_555 1_555
C5 C6 1_555 1_555
C1A C6A 1_555 1_555
C1B C6B 1_555 1_555
C1R C6R 1_555 1_555
C1S C6S 1_555 1_555
C1T C6T 1_555 1_555
C5A C6A 1_555 1_555
C5B C6B 1_555 1_555
C5R C6R 1_555 1_555
C5S C6S 1_555 1_555
C5T C6T 1_555 1_555

#END
