
#######################################################################
#
#                 Cambridge Crystallographic Data Centre
#                                CCDC 
#
#######################################################################
#
# If this CIF has been generated from an entry in the Cambridge 
# Structural Database, then it will include bibliographic, chemical, 
# crystal, experimental, refinement or atomic coordinate data resulting 
# from the CCDC's data processing and validation procedures.
#
#######################################################################

data_IXOXEY
_chemical_formula_moiety         'C54 H80 B4 Li4 N12 O4,C6 H14'
_chemical_name_systematic        
'bis(\m~4~-\h^1^-2-(bis(Pyrazolyl)t-butylborate)-6-(hydroxy(t-butyl)pyrazolylborate)benzene)-bis(tetrahydrofuran)-tetra-lithium n-hexane solvate'
_symmetry_cell_setting           monoclinic
_symmetry_space_group_name_H-M   'P 21/c'
_symmetry_Int_Tables_number      14
_space_group_name_Hall           '-P 2ybc'
loop_
_symmetry_equiv_pos_site_id
_symmetry_equiv_pos_as_xyz
1 x,y,z
2 x,1/2-y,1/2+z
3 -x,-y,-z
4 -x,1/2+y,1/2-z
_cell_length_a                   9.2660(16)
_cell_length_b                   18.810(5)
_cell_length_c                   37.439(7)
_cell_angle_alpha                90
_cell_angle_beta                 93.209(13)
_cell_angle_gamma                90
_cell_volume                     6515.14
_exptl_crystal_colour            colorless
_exptl_crystal_description       rod
_cell_formula_units_Z            4
loop_
_atom_site_label
_atom_site_type_symbol
_atom_site_fract_x
_atom_site_fract_y
_atom_site_fract_z
O1 O 0.1942(2) 0.67157(11) 0.19205(5)
O2 O 0.2248(2) 0.70161(11) 0.07267(6)
N1 N -0.0563(2) 0.71511(13) 0.16168(6)
N2 N 0.0062(2) 0.75728(12) 0.18828(6)
N3 N 0.0882(3) 0.59396(13) 0.07142(6)
N4 N -0.0560(3) 0.79875(14) 0.07098(7)
O3 O -0.0657(3) 0.60887(12) 0.25350(6)
N5 N 0.0631(2) 0.46686(12) 0.18221(6)
N6 N -0.0027(3) 0.62580(13) 0.09429(6)
N7 N 0.0052(3) 0.53412(13) 0.18027(7)
C1 C 0.2437(3) 0.79161(15) 0.15987(8)
C2 C 0.2596(3) 0.54173(14) 0.13276(8)
H1 H 0.1770 0.5183 0.1222
N8 N 0.2704(3) 0.46506(13) 0.22903(7)
C3 C 0.3200(3) 0.59690(15) 0.11318(8)
N9 N -0.0444(3) 0.87099(14) 0.06808(7)
C4 C 0.4354(3) 0.55280(15) 0.18111(8)
H2 H 0.4753 0.5388 0.2039
C5 C 0.3907(3) 0.78848(16) 0.15306(8)
H3 H 0.4547 0.7625 0.1689
N10 N 0.2257(3) 0.52582(15) 0.24496(7)
C6 C 0.1570(3) 0.83215(15) 0.13517(8)
H4 H 0.0576 0.8373 0.1396
C7 C 0.5009(3) 0.60688(15) 0.16275(8)
H5 H 0.5856 0.6290 0.1730
C8 C 0.3115(3) 0.51853(15) 0.16658(8)
O4 O -0.0105(3) 0.72900(13) -0.00647(7)
C9 C -0.1926(3) 0.73856(16) 0.15630(8)
H6 H -0.2618 0.7187 0.1395
N11 N 0.1801(3) 0.91387(15) 0.04003(7)
B1 B 0.1772(3) 0.75188(17) 0.19410(9)
C10 C 0.3548(3) 0.85949(17) 0.09974(8)
H7 H 0.3942 0.8814 0.0796
C11 C 0.2395(3) 0.78235(16) 0.23318(8)
C12 C -0.1385(3) 0.52526(18) 0.17759(8)
H8 H -0.2064 0.5631 0.1757
C13 C 0.4453(3) 0.82231(17) 0.12384(8)
H9 H 0.5459 0.8200 0.1203
C14 C 0.4439(3) 0.62889(16) 0.12956(8)
H10 H 0.4896 0.6665 0.1176
C15 C -0.1276(3) 0.58986(17) 0.09078(8)
H11 H -0.2110 0.6006 0.1034
N12 N 0.1989(3) 0.85063(16) 0.02294(8)
C16 C 0.2065(3) 0.86542(15) 0.10446(8)
C17 C 0.1498(4) 0.75813(18) 0.26424(8)
H12 H 0.1916 0.7779 0.2867
H13 H 0.1504 0.7061 0.2656
H14 H 0.0501 0.7750 0.2602
C18 C 0.3939(3) 0.75383(19) 0.24190(9)
H15 H 0.4303 0.7722 0.2652
H16 H 0.4576 0.7694 0.2234
H17 H 0.3919 0.7018 0.2426
C19 C 0.3460(4) 0.59337(18) 0.04126(9)
C20 C -0.2194(3) 0.79542(17) 0.17845(8)
H18 H -0.3069 0.8213 0.1799
C21 C 0.2489(4) 0.86395(17) 0.23338(9)
H19 H 0.2861 0.8802 0.2570
H20 H 0.1525 0.8841 0.2281
H21 H 0.3141 0.8796 0.2152
C22 C -0.0899(3) 0.80605(16) 0.19802(8)
H22 H -0.0719 0.8420 0.2155
B2 B 0.2512(4) 0.62132(18) 0.07407(9)
C23 C 0.2825(3) 0.37588(17) 0.17212(9)
C24 C -0.1752(3) 0.45455(19) 0.17790(9)
H23 H -0.2693 0.4343 0.1763
B3 B 0.2334(3) 0.45489(18) 0.18742(9)
C25 C 0.3584(3) 0.42901(18) 0.25254(9)
H24 H 0.4055 0.3854 0.2478
C26 C 0.0188(4) 0.53956(17) 0.05510(8)
H25 H 0.0590 0.5086 0.0382
C27 C -0.1194(4) 0.53526(19) 0.06645(9)
H26 H -0.1927 0.5022 0.0592
C28 C -0.1918(3) 0.78177(19) 0.06012(9)
H27 H -0.2297 0.7348 0.0596
C29 C 0.4484(4) 0.37378(19) 0.17026(11)
H28 H 0.4776 0.3273 0.1612
H29 H 0.4939 0.3814 0.1942
H30 H 0.4791 0.4112 0.1541
C30 C -0.0451(3) 0.41978(17) 0.18104(9)
H31 H -0.0336 0.3696 0.1822
C31 C -0.1894(4) 0.65232(19) 0.25128(10)
H32 H -0.2214 0.6603 0.2259
H33 H -0.1676 0.6990 0.2625
B4 B 0.1028(4) 0.9122(2) 0.07698(10)
C32 C 0.2852(4) 0.5249(2) 0.27828(9)
H34 H 0.2713 0.5608 0.2956
C33 C -0.2693(4) 0.8417(2) 0.04984(10)
H35 H -0.3674 0.8445 0.0411
C34 C 0.2360(4) 0.31042(19) 0.19334(11)
H36 H 0.2702 0.2671 0.1820
H37 H 0.1303 0.3092 0.1936
H38 H 0.2778 0.3133 0.2179
C35 C 0.2733(4) 0.6075(2) 0.00401(9)
H39 H 0.3350 0.5894 -0.0144
H40 H 0.2591 0.6588 0.0007
H41 H 0.1795 0.5834 0.0019
C36 C -0.1719(4) 0.8964(2) 0.05507(10)
H42 H -0.1921 0.9451 0.0502
C37 C 0.3694(4) 0.4651(2) 0.28434(10)
H43 H 0.4229 0.4520 0.3057
C38 C 0.2251(4) 0.36447(19) 0.13305(10)
H44 H 0.2555 0.3176 0.1248
H45 H 0.2641 0.4014 0.1178
H46 H 0.1193 0.3671 0.1317
C39 C 0.2897(4) 0.8636(2) -0.00301(10)
H47 H 0.3215 0.8289 -0.0193
C40 C 0.4909(4) 0.6335(2) 0.04231(10)
H48 H 0.5484 0.6168 0.0228
H49 H 0.5439 0.6248 0.0653
H50 H 0.4727 0.6846 0.0395
Li1 Li 0.0715(5) 0.6246(3) 0.15346(14)
C41 C 0.2601(4) 0.9639(2) 0.02452(11)
H51 H 0.2661 1.0124 0.0316
C42 C 0.0745(5) 0.99226(19) 0.09354(12)
C43 C -0.1034(4) 0.5476(2) 0.27177(12)
H52 H -0.0380 0.5415 0.2934
H53 H -0.0932 0.5055 0.2563
Li2 Li 0.0603(6) 0.7305(3) 0.10412(14)
C44 C 0.3816(5) 0.5134(2) 0.04496(11)
H54 H 0.4384 0.4984 0.0250
H55 H 0.2916 0.4860 0.0447
H56 H 0.4374 0.5050 0.0676
C45 C -0.0564(5) 0.7850(2) -0.02896(11)
H57 H 0.0214 0.7976 -0.0449
H58 H -0.0775 0.8273 -0.0144
C46 C -0.0248(6) 0.9867(2) 0.12614(12)
H59 H -0.0402 1.0343 0.1359
H60 H 0.0220 0.9565 0.1447
H61 H -0.1181 0.9660 0.1181
C47 C 0.3307(4) 0.9346(2) -0.00275(11)
H62 H 0.3940 0.9575 -0.0182
C48 C -0.2496(5) 0.5536(3) 0.28182(18)
H63 H -0.3084 0.5142 0.2712
H64 H -0.2533 0.5512 0.3082
Li3 Li 0.0979(6) 0.6000(3) 0.22170(14)
C49 C 0.2166(6) 1.0247(2) 0.10944(14)
H65 H 0.1972 1.0718 0.1194
H66 H 0.2854 1.0293 0.0906
H67 H 0.2576 0.9938 0.1285
C50 C -0.1059(5) 0.6711(2) -0.01363(11)
H68 H -0.1354 0.6499 0.0090
H69 H -0.0578 0.6340 -0.0275
Li4 Li 0.1101(6) 0.7575(3) 0.03648(15)
C51 C -0.2317(6) 0.6991(3) -0.03422(13)
H70 H -0.2653 0.6650 -0.0530
H71 H -0.3118 0.7083 -0.0185
C52 C -0.3015(5) 0.6167(2) 0.26966(16)
H72 H -0.3309 0.6462 0.2899
H73 H -0.3872 0.6091 0.2531
C53 C -0.1837(6) 0.7644(3) -0.05000(15)
H74 H -0.1612 0.7567 -0.0752
H75 H -0.2592 0.8015 -0.0491
C54 C 0.0019(6) 1.0478(2) 0.06810(15)
H76 H -0.0090 1.0926 0.0810
H77 H -0.0934 1.0304 0.0594
H78 H 0.0621 1.0555 0.0477
H93 H 0.274(4) 0.6592(18) 0.1900(9)
H94 H 0.297(4) 0.724(2) 0.0810(10)
C55 C 0.2182(7) 0.7205(4) -0.11875(17)
H79 H 0.2442 0.7008 -0.1420
H80 H 0.1213 0.7424 -0.1220
C56 C 0.3358(10) 0.8323(4) -0.1349(3)
H81 H 0.3530 0.8088 -0.1579
H82 H 0.2410 0.8565 -0.1377
C57 C 0.4462(16) 0.8860(8) -0.1284(5)
H83 H 0.5266 0.8641 -0.1138
H84 H 0.4845 0.8986 -0.1518
C58 C 0.3255(10) 0.7754(4) -0.1068(2)
H85 H 0.4214 0.7529 -0.1021
H86 H 0.2964 0.7971 -0.0842
C59 C 0.2143(10) 0.6616(4) -0.09163(17)
H87 H 0.1426 0.6260 -0.0998
H88 H 0.1879 0.6812 -0.0686
H89 H 0.3098 0.6393 -0.0888
C60 C 0.4127(16) 0.9419(11) -0.1136(6)
H90 H 0.4994 0.9710 -0.1087
H91 H 0.3691 0.9308 -0.0910
H92 H 0.3431 0.9682 -0.1292
loop_
_geom_bond_atom_site_label_1
_geom_bond_atom_site_label_2
_geom_bond_site_symmetry_1
_geom_bond_site_symmetry_2
O1 B1 1_555 1_555
O2 B2 1_555 1_555
N1 N2 1_555 1_555
N2 B1 1_555 1_555
N3 N6 1_555 1_555
N4 N9 1_555 1_555
O3 C31 1_555 1_555
N5 N7 1_555 1_555
N6 C15 1_555 1_555
N7 C12 1_555 1_555
C1 C5 1_555 1_555
C2 H1 1_555 1_555
N8 N10 1_555 1_555
C3 C2 1_555 1_555
N9 B4 1_555 1_555
C4 H2 1_555 1_555
C5 H3 1_555 1_555
N10 C32 1_555 1_555
C6 C1 1_555 1_555
H4 C6 1_555 1_555
C7 C4 1_555 1_555
H5 C7 1_555 1_555
C8 C2 1_555 1_555
O4 C45 1_555 1_555
C9 N1 1_555 1_555
H6 C9 1_555 1_555
N11 N12 1_555 1_555
B1 C1 1_555 1_555
C10 H7 1_555 1_555
C11 B1 1_555 1_555
C12 H8 1_555 1_555
C13 C5 1_555 1_555
H9 C13 1_555 1_555
C14 C3 1_555 1_555
H10 C14 1_555 1_555
C15 H11 1_555 1_555
N12 C39 1_555 1_555
C16 C6 1_555 1_555
C17 C11 1_555 1_555
H12 C17 1_555 1_555
H13 C17 1_555 1_555
H14 C17 1_555 1_555
C18 C11 1_555 1_555
H15 C18 1_555 1_555
H16 C18 1_555 1_555
H17 C18 1_555 1_555
C19 B2 1_555 1_555
C20 C9 1_555 1_555
H18 C20 1_555 1_555
C21 C11 1_555 1_555
H19 C21 1_555 1_555
H20 C21 1_555 1_555
H21 C21 1_555 1_555
C22 N2 1_555 1_555
H22 C22 1_555 1_555
B2 N3 1_555 1_555
C23 B3 1_555 1_555
C24 C12 1_555 1_555
H23 C24 1_555 1_555
B3 N5 1_555 1_555
C25 N8 1_555 1_555
H24 C25 1_555 1_555
C26 N3 1_555 1_555
H25 C26 1_555 1_555
C27 C15 1_555 1_555
H26 C27 1_555 1_555
C28 N4 1_555 1_555
H27 C28 1_555 1_555
C29 C23 1_555 1_555
H28 C29 1_555 1_555
H29 C29 1_555 1_555
H30 C29 1_555 1_555
C30 N5 1_555 1_555
H31 C30 1_555 1_555
C31 H32 1_555 1_555
H33 C31 1_555 1_555
B4 N11 1_555 1_555
C32 H34 1_555 1_555
C33 C28 1_555 1_555
H35 C33 1_555 1_555
C34 C23 1_555 1_555
H36 C34 1_555 1_555
H37 C34 1_555 1_555
H38 C34 1_555 1_555
C35 C19 1_555 1_555
H39 C35 1_555 1_555
H40 C35 1_555 1_555
H41 C35 1_555 1_555
C36 N9 1_555 1_555
H42 C36 1_555 1_555
C37 C25 1_555 1_555
H43 C37 1_555 1_555
C38 C23 1_555 1_555
H44 C38 1_555 1_555
H45 C38 1_555 1_555
H46 C38 1_555 1_555
C39 H47 1_555 1_555
C40 C19 1_555 1_555
H48 C40 1_555 1_555
H49 C40 1_555 1_555
H50 C40 1_555 1_555
Li1 O1 1_555 1_555
C41 N11 1_555 1_555
H51 C41 1_555 1_555
C42 B4 1_555 1_555
C43 O3 1_555 1_555
H52 C43 1_555 1_555
H53 C43 1_555 1_555
Li2 O2 1_555 1_555
C44 C19 1_555 1_555
H54 C44 1_555 1_555
H55 C44 1_555 1_555
H56 C44 1_555 1_555
C45 H57 1_555 1_555
H58 C45 1_555 1_555
C46 C42 1_555 1_555
H59 C46 1_555 1_555
H60 C46 1_555 1_555
H61 C46 1_555 1_555
C47 C39 1_555 1_555
H62 C47 1_555 1_555
C48 C43 1_555 1_555
H63 C48 1_555 1_555
H64 C48 1_555 1_555
Li3 O1 1_555 1_555
C49 C42 1_555 1_555
H65 C49 1_555 1_555
H66 C49 1_555 1_555
H67 C49 1_555 1_555
C50 O4 1_555 1_555
H68 C50 1_555 1_555
H69 C50 1_555 1_555
Li4 O2 1_555 1_555
C51 C50 1_555 1_555
H70 C51 1_555 1_555
H71 C51 1_555 1_555
C52 C31 1_555 1_555
H72 C52 1_555 1_555
H73 C52 1_555 1_555
C53 C45 1_555 1_555
H74 C53 1_555 1_555
H75 C53 1_555 1_555
C54 C42 1_555 1_555
H76 C54 1_555 1_555
H77 C54 1_555 1_555
H78 C54 1_555 1_555
C55 H79 1_555 1_555
H80 C55 1_555 1_555
C56 H81 1_555 1_555
H82 C56 1_555 1_555
C57 C56 1_555 1_555
H83 C57 1_555 1_555
H84 C57 1_555 1_555
C58 C55 1_555 1_555
H85 C58 1_555 1_555
H86 C58 1_555 1_555
C59 C55 1_555 1_555
H87 C59 1_555 1_555
H88 C59 1_555 1_555
H89 C59 1_555 1_555
C60 C57 1_555 1_555
H90 C60 1_555 1_555
H91 C60 1_555 1_555
H92 C60 1_555 1_555
H93 O1 1_555 1_555
H94 O2 1_555 1_555
N1 Li1 1_555 1_555
N1 Li2 1_555 1_555
N4 Li2 1_555 1_555
N4 Li4 1_555 1_555
O3 Li3 1_555 1_555
N6 Li1 1_555 1_555
N6 Li2 1_555 1_555
N7 Li3 1_555 1_555
N7 Li1 1_555 1_555
C2 Li1 1_555 1_555
N8 B3 1_555 1_555
C3 B2 1_555 1_555
C4 C8 1_555 1_555
N10 Li3 1_555 1_555
C6 Li2 1_555 1_555
C7 C14 1_555 1_555
C8 B3 1_555 1_555
O4 Li4 1_555 1_555
C10 C13 1_555 1_555
C10 C16 1_555 1_555
N12 Li4 1_555 1_555
C16 B4 1_555 1_555
C20 C22 1_555 1_555
C24 C30 1_555 1_555
C26 C27 1_555 1_555
C32 C37 1_555 1_555
C33 C36 1_555 1_555
C41 C47 1_555 1_555
C48 C52 1_555 1_555
C51 C53 1_555 1_555
C56 C58 1_555 1_555

#END
