
#######################################################################
#
#                 Cambridge Crystallographic Data Centre
#                                CCDC 
#
#######################################################################
#
# If this CIF has been generated from an entry in the Cambridge 
# Structural Database, then it will include bibliographic, chemical, 
# crystal, experimental, refinement or atomic coordinate data resulting 
# from the CCDC's data processing and validation procedures.
#
#######################################################################

data_IXOYAX
_chemical_formula_moiety         'C18 H16 Cl1 N5 O3 S1'
_chemical_name_systematic        
4-chloro-5-(dimethoxymethyl)-2-(2-(3-methyl-5-oxo-1-phenyl-1,5-dihydro-4H-pyrazol-4-ylidene)hydrazino)thiophene-3-carbonitrile
_symmetry_cell_setting           monoclinic
_symmetry_space_group_name_H-M   'P 21/n'
_symmetry_Int_Tables_number      14
_space_group_name_Hall           '-P 2yn'
loop_
_symmetry_equiv_pos_site_id
_symmetry_equiv_pos_as_xyz
1 x,y,z
2 1/2-x,1/2+y,1/2-z
3 -x,-y,-z
4 1/2+x,1/2-y,1/2+z
_cell_length_a                   7.8594(11)
_cell_length_b                   8.8676(12)
_cell_length_c                   27.363(4)
_cell_angle_alpha                90
_cell_angle_beta                 94.684(3)
_cell_angle_gamma                90
_cell_volume                     1900.67
_exptl_crystal_colour            orange
_exptl_crystal_description       block
_cell_formula_units_Z            4
loop_
_atom_site_label
_atom_site_type_symbol
_atom_site_fract_x
_atom_site_fract_y
_atom_site_fract_z
C1 C 0.7530(4) 0.6751(3) 0.17425(10)
C2 C 0.6030(4) 0.6295(3) 0.19017(10)
C3 C 0.5094(4) 0.5296(3) 0.15759(10)
C4 C 0.5944(4) 0.5051(3) 0.11637(11)
C5 C 0.8862(4) 0.7801(4) 0.19755(11)
H1 H 0.8388 0.8824 0.1955
C6 C 1.1562(5) 0.8817(5) 0.17912(14)
H2 H 1.1109 0.9822 0.1763
H3 H 1.2432 0.8694 0.1568
H4 H 1.2045 0.8652 0.2121
C7 C 1.0051(5) 0.6015(5) 0.25455(15)
H5 H 0.9151 0.5281 0.2541
H6 H 1.0701 0.5990 0.2858
H7 H 1.0784 0.5787 0.2291
C8 C 0.3510(5) 0.4579(4) 0.16585(11)
C9 C 0.5901(4) 0.3108(3) 0.00521(10)
C10 C 0.4337(4) 0.2210(4) -0.00040(10)
C11 C 0.6838(4) 0.2748(4) -0.03636(11)
C12 C 0.8510(4) 0.3390(4) -0.04774(12)
H8 H 0.8830 0.2977 -0.0781
H9 H 0.9363 0.3140 -0.0219
H10 H 0.8415 0.4466 -0.0506
C13 C 0.3341(4) 0.0370(3) -0.06705(10)
C14 C 0.1762(4) 0.0082(4) -0.04990(12)
H11 H 0.1436 0.0564 -0.0220
C15 C 0.0672(5) -0.0941(4) -0.07518(13)
H12 H -0.0394 -0.1132 -0.0641
C16 C 0.1139(5) -0.1671(4) -0.11616(12)
H13 H 0.0409 -0.2368 -0.1323
C17 C 0.2685(5) -0.1364(4) -0.13281(12)
H14 H 0.3000 -0.1843 -0.1609
C18 C 0.3795(4) -0.0356(4) -0.10870(11)
H15 H 0.4850 -0.0164 -0.1205
Cl1 Cl 0.52719(11) 0.68541(11) 0.24460(3)
N1 N 0.2276(4) 0.3950(4) 0.17039(12)
N2 N 0.5373(3) 0.4167(3) 0.07687(9)
N3 N 0.6406(3) 0.4018(3) 0.04088(8)
N4 N 0.4477(3) 0.1421(3) -0.04276(8)
N5 N 0.6006(3) 0.1783(3) -0.06435(9)
O1 O 1.0219(3) 0.7749(3) 0.16754(8)
O2 O 0.9321(3) 0.7503(3) 0.24639(8)
O3 O 0.3161(3) 0.2206(3) 0.02718(7)
S1 S 0.78473(10) 0.59737(10) 0.11781(3)
H16 H 0.434(4) 0.356(4) 0.0728(12)
loop_
_geom_bond_atom_site_label_1
_geom_bond_atom_site_label_2
_geom_bond_site_symmetry_1
_geom_bond_site_symmetry_2
C1 C2 1_555 1_555
C2 C3 1_555 1_555
C3 C4 1_555 1_555
C4 N2 1_555 1_555
C5 C1 1_555 1_555
H1 C5 1_555 1_555
C6 H2 1_555 1_555
H3 C6 1_555 1_555
H4 C6 1_555 1_555
C7 H5 1_555 1_555
H6 C7 1_555 1_555
H7 C7 1_555 1_555
C8 C3 1_555 1_555
C9 C10 1_555 1_555
C10 N4 1_555 1_555
C11 C9 1_555 1_555
C12 C11 1_555 1_555
H8 C12 1_555 1_555
H9 C12 1_555 1_555
H10 C12 1_555 1_555
C13 C14 1_555 1_555
C14 H11 1_555 1_555
C15 C14 1_555 1_555
H12 C15 1_555 1_555
C16 C15 1_555 1_555
H13 C16 1_555 1_555
C17 C16 1_555 1_555
H14 C17 1_555 1_555
C18 C13 1_555 1_555
H15 C18 1_555 1_555
Cl1 C2 1_555 1_555
N1 C8 1_555 1_555
N2 N3 1_555 1_555
N3 C9 1_555 1_555
N4 C13 1_555 1_555
N5 C11 1_555 1_555
O1 C5 1_555 1_555
O2 C5 1_555 1_555
O3 C10 1_555 1_555
S1 C1 1_555 1_555
H16 N2 1_555 1_555
C4 S1 1_555 1_555
C6 O1 1_555 1_555
C7 O2 1_555 1_555
C17 C18 1_555 1_555
N4 N5 1_555 1_555

#END
