
#######################################################################
#
#                 Cambridge Crystallographic Data Centre
#                                CCDC 
#
#######################################################################
#
# If this CIF has been generated from an entry in the Cambridge 
# Structural Database, then it will include bibliographic, chemical, 
# crystal, experimental, refinement or atomic coordinate data resulting 
# from the CCDC's data processing and validation procedures.
#
#######################################################################

data_IXOZAY02
_chemical_formula_moiety         'C18 H19 N1 O3'
_chemical_name_systematic        
'12-methoxy-5,6,9,10-tetrahydrodibenzo[d,f]azecin-13-ol 7-oxide'
_symmetry_cell_setting           orthorhombic
_symmetry_space_group_name_H-M   'P c c n'
_symmetry_Int_Tables_number      56
_space_group_name_Hall           '-P 2ab 2ac'
loop_
_symmetry_equiv_pos_site_id
_symmetry_equiv_pos_as_xyz
1 x,y,z
2 1/2+x,-y,1/2-z
3 -x,1/2+y,1/2-z
4 1/2-x,1/2-y,z
5 -x,-y,-z
6 1/2-x,y,1/2+z
7 x,1/2-y,1/2+z
8 1/2+x,1/2+y,-z
_cell_length_a                   15.0206(2)
_cell_length_b                   15.7775(3)
_cell_length_c                   12.3137(2)
_cell_angle_alpha                90
_cell_angle_beta                 90
_cell_angle_gamma                90
_cell_volume                     2918.19
_exptl_crystal_colour            colorless
_exptl_crystal_description       prism
_cell_formula_units_Z            8
loop_
_atom_site_label
_atom_site_type_symbol
_atom_site_fract_x
_atom_site_fract_y
_atom_site_fract_z
O1 O 0.21599(6) 0.40979(6) 0.84339(8)
O2 O 0.18952(6) 0.52343(6) 0.99760(8)
H1 H 0.1870 0.5631 1.0429
O3 O 0.32269(6) 0.64524(6) 0.64608(8)
N1 N 0.39599(7) 0.68829(7) 0.66569(9)
C1 C 0.22363(9) 0.36114(9) 0.74664(13)
H2 H 0.2303 0.3992 0.6843
H3 H 0.1700 0.3265 0.7373
H4 H 0.2759 0.3241 0.7517
C2 C 0.28289(8) 0.46759(7) 0.86043(11)
C3 C 0.36234(8) 0.46838(7) 0.80440(10)
H5 H 0.3726 0.4266 0.7502
C4 C 0.42843(8) 0.52889(7) 0.82494(10)
C5 C 0.51156(8) 0.52586(7) 0.75551(11)
H6 H 0.5298 0.4661 0.7456
H7 H 0.5604 0.5558 0.7936
C6 C 0.49707(8) 0.56703(8) 0.64284(11)
H8 H 0.5516 0.5614 0.5982
H9 H 0.4475 0.5385 0.6044
C7 C 0.47569(8) 0.65793(8) 0.65965(10)
H10 H 0.5240 0.6965 0.6664
C8 C 0.38146(9) 0.77452(8) 0.70979(11)
H11 H 0.3265 0.7989 0.6783
H12 H 0.4320 0.8115 0.6894
C9 C 0.26748(8) 0.52791(8) 0.94226(11)
C10 C 0.33182(8) 0.58922(7) 0.96098(11)
H13 H 0.3214 0.6310 1.0151
C11 C 0.41192(8) 0.59142(7) 0.90243(10)
C12 C 0.37317(8) 0.77103(8) 0.83337(11)
H14 H 0.3543 0.8274 0.8600
H15 H 0.3259 0.7300 0.8527
C13 C 0.45827(8) 0.74592(8) 0.89103(10)
C14 C 0.47659(8) 0.66204(8) 0.92297(10)
C15 C 0.55749(8) 0.64421(8) 0.97424(10)
H16 H 0.5696 0.5879 0.9971
C16 C 0.62059(8) 0.70708(8) 0.99245(11)
H17 H 0.6752 0.6936 1.0274
C17 C 0.60347(8) 0.78955(8) 0.95943(11)
H18 H 0.6465 0.8328 0.9704
C18 C 0.52266(8) 0.80813(8) 0.91012(10)
H19 H 0.5108 0.8649 0.8887
loop_
_geom_bond_atom_site_label_1
_geom_bond_atom_site_label_2
_geom_bond_site_symmetry_1
_geom_bond_site_symmetry_2
O1 C1 1_555 1_555
O2 H1 1_555 1_555
O3 N1 1_555 1_555
N1 C7 1_555 1_555
C1 H2 1_555 1_555
H3 C1 1_555 1_555
H4 C1 1_555 1_555
C2 O1 1_555 1_555
C3 C2 1_555 1_555
H5 C3 1_555 1_555
C4 C3 1_555 1_555
C5 C4 1_555 1_555
H6 C5 1_555 1_555
H7 C5 1_555 1_555
C6 C5 1_555 1_555
H8 C6 1_555 1_555
H9 C6 1_555 1_555
C7 C6 1_555 1_555
H10 C7 1_555 1_555
C8 N1 1_555 1_555
H11 C8 1_555 1_555
H12 C8 1_555 1_555
C9 O2 1_555 1_555
C10 C9 1_555 1_555
H13 C10 1_555 1_555
C11 C4 1_555 1_555
C12 C8 1_555 1_555
H14 C12 1_555 1_555
H15 C12 1_555 1_555
C13 C12 1_555 1_555
C14 C11 1_555 1_555
C15 C14 1_555 1_555
H16 C15 1_555 1_555
C16 C15 1_555 1_555
H17 C16 1_555 1_555
C17 C16 1_555 1_555
H18 C17 1_555 1_555
C18 C13 1_555 1_555
H19 C18 1_555 1_555
C2 C9 1_555 1_555
C10 C11 1_555 1_555
C13 C14 1_555 1_555
C17 C18 1_555 1_555

#END
