
#######################################################################
#
#                 Cambridge Crystallographic Data Centre
#                                CCDC 
#
#######################################################################
#
# If this CIF has been generated from an entry in the Cambridge 
# Structural Database, then it will include bibliographic, chemical, 
# crystal, experimental, refinement or atomic coordinate data resulting 
# from the CCDC's data processing and validation procedures.
#
#######################################################################

data_IXUFEN
_chemical_formula_moiety         'C38 H40 O10'
_chemical_name_systematic        
1,3,4,8,10,11-Hexamethoxy-6-(4-methoxyphenyl)-7-(2-(4-methoxyphenyl)vinyl)-6a,12a-dihydro-6H,7H-chromeno[4,3-b]chromene
_symmetry_cell_setting           monoclinic
_symmetry_space_group_name_H-M   'C 2/c'
_symmetry_Int_Tables_number      15
_space_group_name_Hall           '-C 2yn'
loop_
_symmetry_equiv_pos_site_id
_symmetry_equiv_pos_as_xyz
1 x,y,z
2 -x,y,1/2-z
3 1/2+x,1/2+y,z
4 1/2-x,1/2+y,1/2-z
5 -x,-y,-z
6 x,-y,1/2+z
7 1/2-x,1/2-y,-z
8 1/2+x,1/2-y,1/2+z
_cell_length_a                   35.5891(12)
_cell_length_b                   9.6315(3)
_cell_length_c                   24.3878(9)
_cell_angle_alpha                90
_cell_angle_beta                 127.021(3)
_cell_angle_gamma                90
_cell_volume                     6674.4
_exptl_crystal_colour            colorless
_exptl_crystal_description       'thick needles'
_cell_formula_units_Z            8
loop_
_atom_site_label
_atom_site_type_symbol
_atom_site_fract_x
_atom_site_fract_y
_atom_site_fract_z
O1 O 0.18544(6) 0.52280(18) 0.40516(8)
O2 O 0.09255(6) 0.72081(17) 0.25786(8)
O3 O 0.04810(6) 0.77724(19) 0.33110(9)
O4 O 0.18179(8) 0.7486(2) 0.57193(9)
O5 O 0.22502(6) 0.5785(2) 0.53682(9)
O6 O 0.05699(8) 0.9105(2) 0.05545(10)
O7 O 0.07436(7) 0.94069(18) 0.17842(10)
O8 O 0.06984(7) 0.40963(18) 0.08938(9)
O9 O -0.15963(7) 0.0908(2) 0.07132(10)
O10 O 0.29018(8) 0.1666(3) 0.32190(12)
C1 C 0.07538(9) 0.8099(3) 0.15587(13)
C2 C 0.06566(10) 0.7912(3) 0.09225(13)
C3 C 0.06413(10) 0.6584(3) 0.06828(14)
C4 C 0.07147(9) 0.5450(3) 0.10861(13)
C5 C 0.08123(8) 0.5595(3) 0.17302(12)
C6 C 0.08298(9) 0.6934(3) 0.19557(12)
C7 C 0.09041(9) 0.6043(3) 0.29420(13)
C8 C 0.11438(9) 0.4773(3) 0.29133(12)
C9 C 0.08979(9) 0.4337(3) 0.21623(12)
C10 C 0.16657(9) 0.5141(3) 0.33287(12)
C11 C 0.16013(9) 0.6049(3) 0.41847(13)
C12 C 0.18189(9) 0.6375(3) 0.48722(13)
C13 C 0.11481(9) 0.6510(3) 0.36660(12)
C14 C 0.15812(10) 0.7216(3) 0.50334(13)
C15 C 0.11355(10) 0.7731(3) 0.45252(14)
C16 C 0.09224(9) 0.7353(3) 0.38492(13)
C17 C 0.01753(11) 0.8286(3) 0.34607(16)
C18 C 0.16333(15) 0.8507(5) 0.59174(19)
C19 C 0.26345(11) 0.6726(4) 0.57880(17)
H1 H 0.2619 0.7469 0.5501
H2 H 0.2933 0.6224 0.6012
H3 H 0.2614 0.7129 0.6138
C20 C -0.20394(11) 0.1194(4) 0.00705(17)
C21 C 0.04104(17) 0.8960(4) -0.01349(18)
C22 C 0.05932(12) 0.3847(3) 0.02405(15)
C23 C 0.04560(9) 0.3539(3) 0.19211(13)
C24 C 0.00164(9) 0.3978(3) 0.15129(13)
C25 C -0.04072(9) 0.3206(3) 0.13070(12)
C26 C -0.08530(9) 0.3696(3) 0.07925(13)
C27 C -0.03826(10) 0.1935(3) 0.16113(14)
C28 C -0.12578(10) 0.2956(3) 0.05691(14)
C29 C -0.12223(9) 0.1715(3) 0.08796(13)
C30 C -0.07811(10) 0.1215(3) 0.14123(14)
C31 C 0.20605(10) 0.2814(3) 0.35356(15)
C32 C 0.23699(11) 0.1949(3) 0.35278(16)
C33 C 0.25892(10) 0.2426(3) 0.32542(15)
C34 C 0.24978(12) 0.3747(3) 0.29853(16)
C35 C 0.21985(10) 0.4614(3) 0.30076(15)
C36 C 0.30873(15) 0.0432(5) 0.3621(2)
C37 C 0.19773(9) 0.4157(3) 0.32911(12)
H4 H 0.0529(10) 0.263(3) 0.2145(14)
H5 H -0.0038(9) 0.492(3) 0.1329(14)
H6 H -0.0061(10) 0.157(3) 0.2001(14)
H7 H -0.1530(10) 0.331(3) 0.0231(15)
H8 H 0.2133(10) 0.556(3) 0.2816(15)
H9 H 0.2674(12) 0.408(3) 0.2843(17)
H10 H 0.2429(11) 0.104(3) 0.3712(16)
H11 H 0.0575(9) 0.641(3) 0.0240(15)
H12 H 0.1312(14) 0.820(4) 0.5782(19)
H13 H 0.1868(12) 0.859(4) 0.640(2)
H14 H 0.1608(14) 0.950(4) 0.570(2)
H15 H 0.0549(11) 0.283(4) 0.0178(16)
H16 H 0.0310(11) 0.435(3) -0.0126(16)
H17 H 0.0863(10) 0.419(3) 0.0233(14)
H18 H -0.0791(11) 0.035(3) 0.1596(16)
H19 H 0.1106(9) 0.366(3) 0.2153(13)
H20 H 0.0566(9) 0.585(2) 0.2713(12)
H21 H 0.1102(9) 0.400(3) 0.3137(13)
H22 H 0.1919(11) 0.249(3) 0.3744(16)
H23 H 0.0144(12) 0.833(4) -0.0390(17)
H24 H 0.0338(12) 0.984(4) -0.0306(18)
H25 H 0.0668(13) 0.857(4) -0.0133(17)
H26 H -0.2274(12) 0.044(3) 0.0027(17)
H27 H -0.2022(13) 0.114(4) -0.035(2)
H28 H -0.2128(12) 0.212(4) 0.0090(17)
H29 H 0.0151(11) 0.758(3) 0.3721(17)
H30 H 0.0296(10) 0.924(3) 0.3713(15)
H31 H -0.0148(11) 0.845(3) 0.2980(15)
H32 H 0.2816(17) -0.029(5) 0.342(2)
H33 H 0.3305(12) 0.003(3) 0.3526(16)
H34 H 0.3233(13) 0.062(4) 0.408(2)
H35 H -0.0885(10) 0.457(3) 0.0584(14)
H36 H 0.0979(11) 0.833(3) 0.4630(16)
H37 H 0.1698(8) 0.609(3) 0.3189(12)
C38 C 0.11858(15) 1.0090(4) 0.2194(3)
H38 H 0.1426 0.9444 0.2540
H39 H 0.1165 1.0890 0.2423
H40 H 0.1272 1.0408 0.1901
loop_
_geom_bond_atom_site_label_1
_geom_bond_atom_site_label_2
_geom_bond_site_symmetry_1
_geom_bond_site_symmetry_2
O1 C10 1_555 1_555
O2 C6 1_555 1_555
O3 C16 1_555 1_555
O4 C14 1_555 1_555
O5 C12 1_555 1_555
O6 C2 1_555 1_555
O7 C1 1_555 1_555
O8 C4 1_555 1_555
O9 C20 1_555 1_555
O10 C33 1_555 1_555
C1 C2 1_555 1_555
C2 C3 1_555 1_555
C3 C4 1_555 1_555
C4 C5 1_555 1_555
C5 C6 1_555 1_555
C6 C1 1_555 1_555
C7 O2 1_555 1_555
C8 C7 1_555 1_555
C9 C5 1_555 1_555
C10 C8 1_555 1_555
C11 O1 1_555 1_555
C12 C11 1_555 1_555
C13 C7 1_555 1_555
C14 C12 1_555 1_555
C15 C14 1_555 1_555
C16 C13 1_555 1_555
C17 O3 1_555 1_555
C18 O4 1_555 1_555
C19 O5 1_555 1_555
H1 C19 1_555 1_555
H2 C19 1_555 1_555
H3 C19 1_555 1_555
C20 H26 1_555 1_555
C21 O6 1_555 1_555
C22 O8 1_555 1_555
C23 C9 1_555 1_555
C24 C23 1_555 1_555
C25 C24 1_555 1_555
C26 C25 1_555 1_555
C27 C25 1_555 1_555
C28 C26 1_555 1_555
C29 O9 1_555 1_555
C30 C27 1_555 1_555
C31 C32 1_555 1_555
C32 C33 1_555 1_555
C33 C34 1_555 1_555
C34 C35 1_555 1_555
C35 C37 1_555 1_555
C36 O10 1_555 1_555
C37 C10 1_555 1_555
H4 C23 1_555 1_555
H5 C24 1_555 1_555
H6 C27 1_555 1_555
H7 C28 1_555 1_555
H8 C35 1_555 1_555
H9 C34 1_555 1_555
H10 C32 1_555 1_555
H11 C3 1_555 1_555
H12 C18 1_555 1_555
H13 C18 1_555 1_555
H14 C18 1_555 1_555
H15 C22 1_555 1_555
H16 C22 1_555 1_555
H17 C22 1_555 1_555
H18 C30 1_555 1_555
H19 C9 1_555 1_555
H20 C7 1_555 1_555
H21 C8 1_555 1_555
H22 C31 1_555 1_555
H23 C21 1_555 1_555
H24 C21 1_555 1_555
H25 C21 1_555 1_555
H27 C20 1_555 1_555
H28 C20 1_555 1_555
H29 C17 1_555 1_555
H30 C17 1_555 1_555
H31 C17 1_555 1_555
H32 C36 1_555 1_555
H33 C36 1_555 1_555
H34 C36 1_555 1_555
H35 C26 1_555 1_555
H36 C15 1_555 1_555
H37 C10 1_555 1_555
C38 O7 1_555 1_555
H38 C38 1_555 1_555
H39 C38 1_555 1_555
H40 C38 1_555 1_555
C8 C9 1_555 1_555
C11 C13 1_555 1_555
C15 C16 1_555 1_555
C28 C29 1_555 1_555
C29 C30 1_555 1_555
C31 C37 1_555 1_555

#END
