
#######################################################################
#
#                 Cambridge Crystallographic Data Centre
#                                CCDC 
#
#######################################################################
#
# If this CIF has been generated from an entry in the Cambridge 
# Structural Database, then it will include bibliographic, chemical, 
# crystal, experimental, refinement or atomic coordinate data resulting 
# from the CCDC's data processing and validation procedures.
#
#######################################################################

data_IXUJES
_chemical_formula_moiety         'C50 H20 O2,C1 H1 Br3'
_chemical_name_systematic        
"benzo[e]benzo[6,7]indeno[2',1':4,5]-as-indaceno[8,1,2,3-klmno]diindeno[2,1-b:1',2',3'-hi]acephenanthrylene-21,22-dione bromoform solvate"
_symmetry_cell_setting           orthorhombic
_symmetry_space_group_name_H-M   'P b c a'
_symmetry_Int_Tables_number      61
_space_group_name_Hall           '-P 2ac 2ab'
loop_
_symmetry_equiv_pos_site_id
_symmetry_equiv_pos_as_xyz
1 x,y,z
2 1/2-x,-y,1/2+z
3 -x,1/2+y,1/2-z
4 1/2+x,1/2-y,-z
5 -x,-y,-z
6 1/2+x,y,1/2-z
7 x,1/2-y,1/2+z
8 1/2-x,1/2+y,z
_cell_length_a                   29.485(6)
_cell_length_b                   7.2480(14)
_cell_length_c                   31.239(6)
_cell_angle_alpha                90
_cell_angle_beta                 90
_cell_angle_gamma                90
_cell_volume                     6676
_exptl_crystal_colour            orange
_exptl_crystal_description       plate
_cell_formula_units_Z            8
_exptl_crystal_recrystallization_method bromoform
loop_
_atom_site_label
_atom_site_type_symbol
_atom_site_fract_x
_atom_site_fract_y
_atom_site_fract_z
Br1 Br 0.06046(4) 0.44295(15) -0.00934(4)
Br2 Br 0.04090(4) 0.83590(16) 0.03129(4)
Br3 Br 0.10839(5) 0.79794(16) -0.04611(3)
C1 C 0.0851(4) 0.6790(13) 0.0041(3)
H1 H 0.1108 0.6606 0.0245
O1 O 0.1658(2) 0.7948(8) 0.05863(18)
O2 O 0.1143(2) 0.5350(7) 0.09491(18)
C2 C 0.2066(3) 0.7466(11) 0.1501(3)
C3 C 0.2413(4) 0.7697(11) 0.1821(2)
C4 C 0.2220(3) 0.7603(10) 0.2228(2)
C5 C 0.1758(3) 0.7230(10) 0.2189(3)
C6 C 0.1632(3) 0.7055(11) 0.1742(2)
C7 C 0.2274(3) 0.7377(11) 0.1091(3)
C8 C 0.2758(3) 0.7281(10) 0.1031(2)
C9 C 0.3059(3) 0.7097(11) 0.1376(2)
C10 C 0.2866(3) 0.7436(11) 0.1787(2)
C11 C 0.3149(3) 0.6946(10) 0.2149(2)
C12 C 0.2944(3) 0.6772(11) 0.2550(2)
C13 C 0.2460(3) 0.7068(10) 0.2577(2)
C14 C 0.2245(4) 0.6314(11) 0.2943(2)
C15 C 0.1768(3) 0.6058(10) 0.2926(2)
C16 C 0.1544(4) 0.6476(11) 0.2525(3)
C17 C 0.1108(3) 0.5677(11) 0.2482(3)
C18 C 0.0936(3) 0.5658(11) 0.2064(3)
C19 C 0.1211(3) 0.6207(11) 0.1691(3)
C20 C 0.2054(4) 0.7544(11) 0.0661(3)
C21 C 0.2435(4) 0.7379(10) 0.0346(3)
C22 C 0.2854(3) 0.7311(10) 0.0566(2)
C23 C 0.3248(4) 0.7429(11) 0.0334(3)
H2 H 0.3535 0.7479 0.0471
C24 C 0.3211(4) 0.7473(12) -0.0120(3)
H3 H 0.3481 0.7476 -0.0285
C25 C 0.2811(4) 0.7510(11) -0.0324(3)
H4 H 0.2805 0.7525 -0.0629
C26 C 0.2401(3) 0.7526(11) -0.0096(3)
H5 H 0.2116 0.7632 -0.0236
C27 C 0.3527(3) 0.6452(11) 0.1481(3)
C28 C 0.3581(3) 0.6427(11) 0.1938(3)
C29 C 0.3988(3) 0.5827(11) 0.2113(3)
H6 H 0.4031 0.5832 0.2414
C30 C 0.4329(4) 0.5225(11) 0.1847(3)
H7 H 0.4609 0.4828 0.1967
C31 C 0.4270(3) 0.5190(11) 0.1409(3)
H8 H 0.4507 0.4736 0.1232
C32 C 0.3875(3) 0.5800(10) 0.1225(3)
H9 H 0.3841 0.5776 0.0923
C33 C 0.3045(3) 0.5963(10) 0.2979(3)
C34 C 0.2626(3) 0.5684(11) 0.3210(3)
C35 C 0.2649(4) 0.4896(11) 0.3621(3)
H10 H 0.2378 0.4713 0.3780
C36 C 0.3059(4) 0.4388(12) 0.3796(3)
H11 H 0.3069 0.3831 0.4071
C37 C 0.3451(4) 0.4684(11) 0.3573(3)
H12 H 0.3731 0.4347 0.3701
C38 C 0.3453(4) 0.5460(12) 0.3168(3)
H13 H 0.3731 0.5645 0.3020
C39 C 0.1403(3) 0.5119(11) 0.3178(3)
C40 C 0.1014(4) 0.4848(10) 0.2907(3)
C41 C 0.0650(3) 0.3942(11) 0.3069(3)
H14 H 0.0397 0.3698 0.2890
C42 C 0.0642(4) 0.3348(11) 0.3507(3)
H15 H 0.0382 0.2740 0.3619
C43 C 0.1006(4) 0.3659(11) 0.3760(3)
H16 H 0.1000 0.3260 0.4050
C44 C 0.1395(3) 0.4564(11) 0.3602(3)
H17 H 0.1647 0.4790 0.3784
C45 C 0.0494(3) 0.4989(11) 0.1891(3)
C46 C 0.0522(3) 0.4854(12) 0.1446(3)
C47 C 0.0174(4) 0.4150(12) 0.1196(3)
H18 H 0.0207 0.4057 0.0894
C48 C -0.0221(4) 0.3588(12) 0.1395(3)
H19 H -0.0465 0.3070 0.1236
C49 C -0.0248(4) 0.3817(12) 0.1847(3)
H20 H -0.0522 0.3463 0.1985
C50 C 0.0081(4) 0.4487(12) 0.2088(3)
H21 H 0.0041 0.4628 0.2388
C51 C 0.0979(3) 0.5474(12) 0.1304(3)
loop_
_geom_bond_atom_site_label_1
_geom_bond_atom_site_label_2
_geom_bond_site_symmetry_1
_geom_bond_site_symmetry_2
Br1 C1 1_555 1_555
Br2 C1 1_555 1_555
Br3 C1 1_555 1_555
C1 H1 1_555 1_555
O1 C20 1_555 1_555
O2 C51 1_555 1_555
C2 C3 1_555 1_555
C3 C4 1_555 1_555
C4 C5 1_555 1_555
C5 C6 1_555 1_555
C6 C2 1_555 1_555
C7 C2 1_555 1_555
C8 C7 1_555 1_555
C9 C8 1_555 1_555
C10 C3 1_555 1_555
C11 C10 1_555 1_555
C12 C11 1_555 1_555
C13 C4 1_555 1_555
C14 C13 1_555 1_555
C15 C14 1_555 1_555
C16 C5 1_555 1_555
C17 C16 1_555 1_555
C18 C17 1_555 1_555
C19 C6 1_555 1_555
C20 C7 1_555 1_555
C21 C20 1_555 1_555
C22 C8 1_555 1_555
C23 C22 1_555 1_555
H2 C23 1_555 1_555
C24 C23 1_555 1_555
H3 C24 1_555 1_555
C25 C24 1_555 1_555
H4 C25 1_555 1_555
C26 C21 1_555 1_555
H5 C26 1_555 1_555
C27 C9 1_555 1_555
C28 C11 1_555 1_555
C29 C28 1_555 1_555
H6 C29 1_555 1_555
C30 C29 1_555 1_555
H7 C30 1_555 1_555
C31 C30 1_555 1_555
H8 C31 1_555 1_555
C32 C27 1_555 1_555
H9 C32 1_555 1_555
C33 C12 1_555 1_555
C34 C14 1_555 1_555
C35 C34 1_555 1_555
H10 C35 1_555 1_555
C36 C35 1_555 1_555
H11 C36 1_555 1_555
C37 C36 1_555 1_555
H12 C37 1_555 1_555
C38 C33 1_555 1_555
H13 C38 1_555 1_555
C39 C15 1_555 1_555
C40 C17 1_555 1_555
C41 C40 1_555 1_555
H14 C41 1_555 1_555
C42 C41 1_555 1_555
H15 C42 1_555 1_555
C43 C42 1_555 1_555
H16 C43 1_555 1_555
C44 C39 1_555 1_555
H17 C44 1_555 1_555
C45 C18 1_555 1_555
C46 C45 1_555 1_555
C47 C46 1_555 1_555
H18 C47 1_555 1_555
C48 C47 1_555 1_555
H19 C48 1_555 1_555
C49 C48 1_555 1_555
H20 C49 1_555 1_555
C50 C45 1_555 1_555
H21 C50 1_555 1_555
C51 C19 1_555 1_555
C9 C10 1_555 1_555
C12 C13 1_555 1_555
C15 C16 1_555 1_555
C18 C19 1_555 1_555
C21 C22 1_555 1_555
C25 C26 1_555 1_555
C27 C28 1_555 1_555
C31 C32 1_555 1_555
C33 C34 1_555 1_555
C37 C38 1_555 1_555
C39 C40 1_555 1_555
C43 C44 1_555 1_555
C46 C51 1_555 1_555
C49 C50 1_555 1_555

#END
