
#######################################################################
#
#                 Cambridge Crystallographic Data Centre
#                                CCDC 
#
#######################################################################
#
# If this CIF has been generated from an entry in the Cambridge 
# Structural Database, then it will include bibliographic, chemical, 
# crystal, experimental, refinement or atomic coordinate data resulting 
# from the CCDC's data processing and validation procedures.
#
#######################################################################

data_IXUQID01
_chemical_name_common            
"(5-methyl-2-oxo-1,3-dioxol-4-yl)methyl 2-ethoxy-1-((2'-(5-oxo-4,5-dihydro-1,2,4-oxadiazol-3-yl)biphenyl-4-yl)methyl)-1H-benzimidazole-7-carboxylate"
_chemical_formula_moiety         'C30 H24 N4 O8'
_chemical_name_systematic        'Azilsartan medoxomil'
_symmetry_cell_setting           monoclinic
_symmetry_space_group_name_H-M   'C 2/c'
_symmetry_Int_Tables_number      15
_space_group_name_Hall           '-C 2yn'
loop_
_symmetry_equiv_pos_site_id
_symmetry_equiv_pos_as_xyz
1 x,y,z
2 -x,y,1/2-z
3 1/2+x,1/2+y,z
4 1/2-x,1/2+y,1/2-z
5 -x,-y,-z
6 x,-y,1/2+z
7 1/2-x,1/2-y,-z
8 1/2+x,1/2-y,1/2+z
_cell_length_a                   26.7661(12)
_cell_length_b                   10.7467(5)
_cell_length_c                   20.7113(8)
_cell_angle_alpha                90
_cell_angle_beta                 96.097(4)
_cell_angle_gamma                90
_cell_volume                     5923.85
_exptl_crystal_colour            colorless
_exptl_crystal_description       needle
_cell_formula_units_Z            8
loop_
_atom_site_label
_atom_site_type_symbol
_atom_site_fract_x
_atom_site_fract_y
_atom_site_fract_z
C1 C 0.34066(10) 0.3056(2) 0.04795(11)
C2 C 0.32292(8) 0.5059(2) 0.04838(10)
C3 C 0.32968(9) 0.6415(2) 0.04886(11)
C4 C 0.31528(10) 0.7051(3) -0.00840(12)
H1 H 0.3000 0.6626 -0.0443
C5 C 0.32361(11) 0.8311(3) -0.01194(14)
H2 H 0.3142 0.8738 -0.0504
C6 C 0.34584(12) 0.8937(3) 0.04122(15)
H3 H 0.3515 0.9789 0.0386
C7 C 0.35996(11) 0.8315(2) 0.09894(13)
H4 H 0.3750 0.8753 0.1346
C8 C 0.35185(9) 0.7037(2) 0.10403(11)
C9 C 0.36574(9) 0.6375(2) 0.16648(11)
C10 C 0.33080(9) 0.5623(2) 0.19341(11)
H5 H 0.2987 0.5529 0.1719
C11 C 0.41329(9) 0.6490(2) 0.19972(11)
H6 H 0.4370 0.6997 0.1830
C12 C 0.34340(9) 0.5016(2) 0.25188(11)
H7 H 0.3194 0.4537 0.2697
C13 C 0.42604(9) 0.5861(3) 0.25756(11)
H8 H 0.4583 0.5942 0.2787
C14 C 0.39125(9) 0.5112(2) 0.28430(11)
C15 C 0.40365(9) 0.4366(3) 0.34603(11)
H9 H 0.3759 0.4428 0.3724
H10 H 0.4074 0.3497 0.3348
C16 C 0.24564(11) 0.7559(3) 0.22069(13)
C17 C 0.27755(10) 0.7735(2) 0.32343(12)
C18 C 0.24738(9) 0.6760(3) 0.31998(11)
C19 C 0.23126(11) 0.5841(3) 0.36587(13)
H11 H 0.2473 0.6014 0.4086
H12 H 0.2405 0.5022 0.3529
H13 H 0.1955 0.5885 0.3662
C20 C 0.30711(9) 0.8377(3) 0.37773(13)
H14 H 0.3005 0.9263 0.3740
H15 H 0.2957 0.8096 0.4182
C21 C 0.37726(10) 0.7061(3) 0.40440(11)
C22 C 0.43263(9) 0.7017(3) 0.41981(11)
C23 C 0.45830(11) 0.8029(3) 0.44906(14)
C24 C 0.50888(11) 0.7964(3) 0.47191(14)
C25 C 0.53653(10) 0.6898(3) 0.46580(12)
C26 C 0.51246(9) 0.5886(3) 0.43489(11)
C27 C 0.46056(9) 0.5939(2) 0.41312(11)
C28 C 0.49401(10) 0.4149(3) 0.38876(12)
C29 C 0.53957(14) 0.2318(4) 0.3683(2)
C30 C 0.5282(6) 0.1064(13) 0.3522(10)
H16 H 0.5141 0.1013 0.3077
H17 H 0.5044 0.0753 0.3798
H18 H 0.5583 0.0576 0.3583
H19 H 0.3926(12) 0.433(3) 0.0656(15)
H20 H 0.4403(11) 0.877(3) 0.4555(13)
H21 H 0.5236(11) 0.867(3) 0.4931(14)
H22 H 0.5712(11) 0.684(3) 0.4827(13)
N1 N 0.36088(8) 0.42139(19) 0.05889(9)
N2 N 0.27946(8) 0.4530(2) 0.03501(10)
N3 N 0.44966(8) 0.4788(2) 0.38424(9)
N4 N 0.53253(8) 0.4740(2) 0.41905(9)
O1 O 0.36031(7) 0.20465(17) 0.04805(10)
O2 O 0.29025(7) 0.32238(17) 0.03538(8)
O3 O 0.34884(6) 0.62214(18) 0.41411(8)
O4 O 0.36123(6) 0.81767(18) 0.38082(8)
O5 O 0.49290(7) 0.30248(19) 0.36231(9)
O6 O 0.27707(7) 0.82612(17) 0.26090(8)
O7 O 0.22652(7) 0.66332(18) 0.25489(8)
O8 O 0.23499(8) 0.7741(2) 0.16386(9)
H23 H 0.5545(11) 0.241(3) 0.4148(16)
H24 H 0.5621(12) 0.280(3) 0.3452(17)
C31? C 0.5409(14) 0.139(3) 0.320(2)
H25? H 0.5281 0.1725 0.2786
H26? H 0.5206 0.0696 0.3303
H27? H 0.5749 0.1118 0.3184
C32? C 0.5700(3) 0.2597(9) 0.3133(4)
H28? H 0.5803 0.3453 0.3154
H29? H 0.5499 0.2446 0.2728
H30? H 0.5991 0.2071 0.3164
loop_
_geom_bond_atom_site_label_1
_geom_bond_atom_site_label_2
_geom_bond_site_symmetry_1
_geom_bond_site_symmetry_2
C1 N1 1_555 1_555
C2 C3 1_555 1_555
C3 C4 1_555 1_555
C4 H1 1_555 1_555
C5 C4 1_555 1_555
H2 C5 1_555 1_555
C6 C5 1_555 1_555
H3 C6 1_555 1_555
C7 C6 1_555 1_555
H4 C7 1_555 1_555
C8 C3 1_555 1_555
C9 C8 1_555 1_555
C10 C9 1_555 1_555
H5 C10 1_555 1_555
C11 C9 1_555 1_555
H6 C11 1_555 1_555
C12 C10 1_555 1_555
H7 C12 1_555 1_555
C13 C11 1_555 1_555
H8 C13 1_555 1_555
C14 C12 1_555 1_555
C15 C14 1_555 1_555
H9 C15 1_555 1_555
H10 C15 1_555 1_555
C16 O6 1_555 1_555
C17 C18 1_555 1_555
C18 C19 1_555 1_555
C19 H11 1_555 1_555
H12 C19 1_555 1_555
H13 C19 1_555 1_555
C20 C17 1_555 1_555
H14 C20 1_555 1_555
H15 C20 1_555 1_555
C21 C22 1_555 1_555
C22 C23 1_555 1_555
C23 C24 1_555 1_555
C24 C25 1_555 1_555
C25 C26 1_555 1_555
C26 C27 1_555 1_555
C27 C22 1_555 1_555
C28 N3 1_555 1_555
C29 C30 1_555 1_555
C30 H16 1_555 1_555
H17 C30 1_555 1_555
H18 C30 1_555 1_555
H19 N1 1_555 1_555
H20 C23 1_555 1_555
H21 C24 1_555 1_555
H22 C25 1_555 1_555
N1 C2 1_555 1_555
N2 C2 1_555 1_555
N3 C15 1_555 1_555
N4 C26 1_555 1_555
O1 C1 1_555 1_555
O2 C1 1_555 1_555
O3 C21 1_555 1_555
O4 C20 1_555 1_555
O5 C28 1_555 1_555
O6 C17 1_555 1_555
O7 C16 1_555 1_555
O8 C16 1_555 1_555
H23 C29 1_555 1_555
H24 C29 1_555 1_555
C7 C8 1_555 1_555
C13 C14 1_555 1_555
C18 O7 1_555 1_555
C21 O4 1_555 1_555
C27 N3 1_555 1_555
C28 N4 1_555 1_555
C29 O5 1_555 1_555
N2 O2 1_555 1_555

#END
