
#######################################################################
#
#                 Cambridge Crystallographic Data Centre
#                                CCDC 
#
#######################################################################
#
# If this CIF has been generated from an entry in the Cambridge 
# Structural Database, then it will include bibliographic, chemical, 
# crystal, experimental, refinement or atomic coordinate data resulting 
# from the CCDC's data processing and validation procedures.
#
#######################################################################

data_IXUQID
_chemical_name_common            'Azilsartan medoxomil'
_chemical_formula_moiety         'C30 H24 N4 O8'
_chemical_name_systematic        
"(5-methyl-2-oxo-1,3-dioxol-4-yl)methyl 2-ethoxy-1-((2'-(5-oxo-4,5-dihydro-1,2,4-oxadiazol-3-yl)biphenyl-4-yl)methyl)-1H-benzimidazole-7-carboxylate"
_chemical_properties_biological  
'prodrug of the angiotensin receptor blocker azilsartan'
_symmetry_cell_setting           monoclinic
_symmetry_space_group_name_H-M   'P 21/n'
_symmetry_Int_Tables_number      14
_space_group_name_Hall           '-P 2yn'
loop_
_symmetry_equiv_pos_site_id
_symmetry_equiv_pos_as_xyz
1 x,y,z
2 1/2-x,1/2+y,1/2-z
3 -x,-y,-z
4 1/2+x,1/2-y,1/2+z
_cell_length_a                   13.867(3)
_cell_length_b                   13.376(3)
_cell_length_c                   29.422(6)
_cell_angle_alpha                90
_cell_angle_beta                 99.44(3)
_cell_angle_gamma                90
_cell_volume                     5383.44
_exptl_crystal_colour            colorless
_exptl_crystal_description       block
_cell_formula_units_Z            8
loop_
_atom_site_label
_atom_site_type_symbol
_atom_site_fract_x
_atom_site_fract_y
_atom_site_fract_z
C1 C 0.61244(14) 0.60232(17) 0.16727(6)
C2 C 0.59744(12) 0.76542(15) 0.15756(6)
C3 C 0.57647(13) 0.86216(15) 0.13427(7)
C4 C 0.50148(17) 0.91901(19) 0.14738(9)
H1 H 0.4708 0.8978 0.1715
C5 C 0.4729(2) 1.0061(2) 0.12474(13)
H2 H 0.4223 1.0434 0.1334
C6 C 0.5182(2) 1.0389(2) 0.08927(12)
H3 H 0.4984 1.0981 0.0740
C7 C 0.59298(18) 0.98360(18) 0.07655(10)
H4 H 0.6231 1.0062 0.0525
C8 C 0.62474(13) 0.89519(15) 0.09863(7)
C9 C 0.70981(12) 0.84240(13) 0.08476(6)
C10 C 0.78669(12) 0.80690(14) 0.11744(6)
H5 H 0.7830 0.8123 0.1486
C11 C 0.71818(12) 0.83224(14) 0.03870(6)
H6 H 0.6676 0.8546 0.0162
C12 C 0.80010(11) 0.78958(13) 0.02539(6)
H7 H 0.8039 0.7839 -0.0058
C13 C 0.86781(12) 0.76407(14) 0.10412(6)
H8 H 0.9179 0.7405 0.1265
C14 C 0.87617(11) 0.75543(12) 0.05779(5)
C15 C 0.96540(11) 0.70489(13) 0.04512(5)
H9 H 1.0222 0.7254 0.0669
H10 H 0.9583 0.6332 0.0482
C16 C 0.81713(14) 0.43088(16) -0.05403(8)
H11 H 0.8578 0.3957 -0.0297
H12 H 0.7991 0.3868 -0.0798
H13 H 0.7593 0.4540 -0.0433
C17 C 0.87201(13) 0.51844(14) -0.06860(6)
H14 H 0.9279 0.4953 -0.0817
H15 H 0.8300 0.5568 -0.0919
C18 C 0.95021(11) 0.66360(13) -0.03753(5)
C19 C 1.01560(11) 0.78372(13) -0.06831(5)
C20 C 1.02732(10) 0.80714(12) -0.02111(5)
C21 C 1.04882(13) 0.84495(15) -0.10030(6)
H16 H 1.0394 0.8280 -0.1314
C22 C 1.09626(13) 0.93175(15) -0.08473(6)
H17 H 1.1191 0.9748 -0.1054
C23 C 1.11000(12) 0.95502(14) -0.03851(6)
H18 H 1.1428 1.0139 -0.0289
C24 C 1.07749(11) 0.89512(13) -0.00519(5)
C25 C 1.10566(12) 0.93408(14) 0.04248(6)
C26 C 1.09869(19) 0.91102(17) 0.12162(7)
H19 H 1.0420 0.9220 0.1364
H20 H 1.1360 0.9726 0.1231
C27 C 1.08107(18) 0.7619(2) 0.21161(8)
H21 H 1.0327 0.8136 0.2053
H22 H 1.1142 0.7679 0.2428
H23 H 1.0498 0.6977 0.2074
C28 C 1.15191(16) 0.77166(16) 0.18002(7)
C29 C 1.15985(16) 0.82967(16) 0.14534(6)
C30 C 1.28877(19) 0.7300(2) 0.15514(8)
N1 N 0.59895(10) 0.67708(12) 0.13534(5)
N2 N 0.61079(13) 0.75475(16) 0.20186(5)
N3 N 0.98329(9) 0.72662(10) -0.00154(4)
N4 N 0.96770(10) 0.69278(11) -0.07747(4)
O1 O 0.61731(13) 0.51347(13) 0.16272(5)
O2 O 0.62049(11) 0.64873(13) 0.20873(4)
O3 O 0.90474(9) 0.58080(9) -0.02851(4)
O4 O 1.15690(13) 1.00470(14) 0.05203(6)
O5 O 1.06790(11) 0.88201(11) 0.07404(4)
O6 O 1.24651(12) 0.80624(13) 0.12891(5)
O7 O 1.23259(11) 0.70744(12) 0.18683(5)
O8 O 1.36288(15) 0.69021(17) 0.15071(6)
H24 H 0.5858(15) 0.6668(17) 0.1044(8)
C31 C 0.96231(15) 0.51049(17) 0.82382(7)
C32 C 0.90246(12) 0.65415(15) 0.79499(5)
C33 C 0.87194(12) 0.75963(14) 0.79187(5)
C34 C 0.92135(14) 0.82256(17) 0.76599(6)
H25 H 0.9717 0.7973 0.7520
C35 C 0.89663(16) 0.92148(18) 0.76080(6)
H26 H 0.9309 0.9635 0.7440
C36 C 0.82095(17) 0.95829(16) 0.78058(6)
H27 H 0.8022 1.0248 0.7762
C37 C 0.77234(14) 0.89608(15) 0.80708(6)
H28 H 0.7218 0.9222 0.8206
C38 C 0.79700(12) 0.79648(13) 0.81387(5)
C39 C 0.74201(11) 0.73391(12) 0.84297(5)
C40 C 0.70258(12) 0.64134(13) 0.82875(5)
H29 H 0.7145 0.6144 0.8011
C41 C 0.64593(12) 0.58846(13) 0.85501(5)
H30 H 0.6204 0.5266 0.8448
C42 C 0.62679(10) 0.62664(12) 0.89644(5)
C43 C 0.72416(11) 0.77066(13) 0.88511(5)
H31 H 0.7507 0.8318 0.8958
C44 C 0.66762(11) 0.71770(13) 0.91130(5)
H32 H 0.6568 0.7437 0.9394
C45 C 0.56140(11) 0.56735(13) 0.92270(5)
H33 H 0.5008 0.5529 0.9022
H34 H 0.5929 0.5040 0.9317
C46 C 0.80404(13) 0.47264(17) 1.06274(7)
H35 H 0.7858 0.4077 1.0503
H36 H 0.8362 0.4659 1.0941
H37 H 0.8476 0.5038 1.0448
C47 C 0.71470(12) 0.53563(14) 1.06125(6)
H38 H 0.6709 0.5053 1.0798
H39 H 0.7326 0.6015 1.0736
C48 C 0.58656(11) 0.60113(12) 1.00762(5)
C49 C 0.45955(11) 0.67853(13) 0.96880(5)
C50 C 0.46768(11) 0.69489(13) 1.01647(5)
C51 C 0.40085(14) 0.75255(17) 1.03472(7)
H40 H 0.4076 0.7639 1.0663
C52 C 0.32403(14) 0.79266(18) 1.00480(7)
H41 H 0.2780 0.8318 1.0162
C53 C 0.31427(13) 0.77565(16) 0.95791(7)
H42 H 0.2607 0.8028 0.9387
C54 C 0.38134(12) 0.71960(14) 0.93832(6)
C55 C 0.37078(13) 0.71489(15) 0.88730(6)
C56 C 0.25645(17) 0.7158(2) 0.81786(7)
H43 H 0.1946 0.6837 0.8061
H44 H 0.3074 0.6819 0.8048
C57 C 0.3962(3) 0.8610(4) 0.76288(13)
H45 H 0.4168 0.7928 0.7675
H46 H 0.4468 0.9045 0.7778
H47 H 0.3834 0.8754 0.7305
C58 C 0.30654(19) 0.8771(3) 0.78266(8)
C59 C 0.25250(14) 0.8205(2) 0.80399(6)
C60 C 0.1821(3) 0.9677(3) 0.79712(10)
N5 N 0.94063(11) 0.60546(13) 0.83449(5)
N6 N 0.89812(13) 0.59750(15) 0.75902(5)
N7 N 0.53793(9) 0.61652(10) 0.96392(4)
N8 N 0.54871(9) 0.64519(11) 1.03989(4)
O9 O 0.99659(14) 0.44247(14) 0.84776(6)
O10 O 0.93679(12) 0.50342(13) 0.77709(5)
O11 O 0.66586(8) 0.54405(9) 1.01329(4)
O12 O 0.43617(10) 0.71899(12) 0.86561(4)
O13 O 0.27625(10) 0.70713(14) 0.86783(5)
O14 O 0.26442(18) 0.97212(19) 0.77797(7)
O15 O 0.17306(11) 0.87710(17) 0.81323(5)
O16 O 0.1277(2) 1.0368(2) 0.79881(9)
H48 H 0.9532(16) 0.6269(18) 0.8623(8)
loop_
_geom_bond_atom_site_label_1
_geom_bond_atom_site_label_2
_geom_bond_site_symmetry_1
_geom_bond_site_symmetry_2
C1 N1 1_555 1_555
C2 C3 1_555 1_555
C3 C4 1_555 1_555
C4 H1 1_555 1_555
C5 C4 1_555 1_555
H2 C5 1_555 1_555
C6 C5 1_555 1_555
H3 C6 1_555 1_555
C7 C6 1_555 1_555
H4 C7 1_555 1_555
C8 C3 1_555 1_555
C9 C8 1_555 1_555
C10 C9 1_555 1_555
H5 C10 1_555 1_555
C11 C9 1_555 1_555
H6 C11 1_555 1_555
C12 C11 1_555 1_555
H7 C12 1_555 1_555
C13 C10 1_555 1_555
H8 C13 1_555 1_555
C14 C12 1_555 1_555
C15 C14 1_555 1_555
H9 C15 1_555 1_555
H10 C15 1_555 1_555
C16 H11 1_555 1_555
H12 C16 1_555 1_555
H13 C16 1_555 1_555
C17 C16 1_555 1_555
H14 C17 1_555 1_555
H15 C17 1_555 1_555
C18 N3 1_555 1_555
C19 C20 1_555 1_555
C20 C24 1_555 1_555
C21 C19 1_555 1_555
H16 C21 1_555 1_555
C22 C21 1_555 1_555
H17 C22 1_555 1_555
C23 C22 1_555 1_555
H18 C23 1_555 1_555
C24 C23 1_555 1_555
C25 C24 1_555 1_555
C26 H19 1_555 1_555
H20 C26 1_555 1_555
C27 H21 1_555 1_555
H22 C27 1_555 1_555
H23 C27 1_555 1_555
C28 C27 1_555 1_555
C29 C26 1_555 1_555
C30 O6 1_555 1_555
N1 C2 1_555 1_555
N2 C2 1_555 1_555
N3 C15 1_555 1_555
N4 C18 1_555 1_555
O1 C1 1_555 1_555
O2 C1 1_555 1_555
O3 C17 1_555 1_555
O4 C25 1_555 1_555
O5 C25 1_555 1_555
O6 C29 1_555 1_555
O7 C28 1_555 1_555
O8 C30 1_555 1_555
H24 N1 1_555 1_555
C31 N5 1_555 1_555
C32 C33 1_555 1_555
C33 C34 1_555 1_555
C34 H25 1_555 1_555
C35 C34 1_555 1_555
H26 C35 1_555 1_555
C36 C35 1_555 1_555
H27 C36 1_555 1_555
C37 C36 1_555 1_555
H28 C37 1_555 1_555
C38 C33 1_555 1_555
C39 C38 1_555 1_555
C40 C39 1_555 1_555
H29 C40 1_555 1_555
C41 C40 1_555 1_555
H30 C41 1_555 1_555
C42 C41 1_555 1_555
C43 C39 1_555 1_555
H31 C43 1_555 1_555
C44 C42 1_555 1_555
H32 C44 1_555 1_555
C45 C42 1_555 1_555
H33 C45 1_555 1_555
H34 C45 1_555 1_555
C46 H35 1_555 1_555
H36 C46 1_555 1_555
H37 C46 1_555 1_555
C47 C46 1_555 1_555
H38 C47 1_555 1_555
H39 C47 1_555 1_555
C48 N7 1_555 1_555
C49 C50 1_555 1_555
C50 C51 1_555 1_555
C51 H40 1_555 1_555
C52 C51 1_555 1_555
H41 C52 1_555 1_555
C53 C52 1_555 1_555
H42 C53 1_555 1_555
C54 C49 1_555 1_555
C55 C54 1_555 1_555
C56 H43 1_555 1_555
H44 C56 1_555 1_555
C57 H45 1_555 1_555
H46 C57 1_555 1_555
H47 C57 1_555 1_555
C58 C57 1_555 1_555
C59 C56 1_555 1_555
C60 O14 1_555 1_555
N5 C32 1_555 1_555
N6 C32 1_555 1_555
N7 C45 1_555 1_555
N8 C48 1_555 1_555
O9 C31 1_555 1_555
O10 C31 1_555 1_555
O11 C47 1_555 1_555
O12 C55 1_555 1_555
O13 C55 1_555 1_555
O14 C58 1_555 1_555
O15 C59 1_555 1_555
O16 C60 1_555 1_555
H48 N5 1_555 1_555
C7 C8 1_555 1_555
C13 C14 1_555 1_555
C18 O3 1_555 1_555
C19 N4 1_555 1_555
C20 N3 1_555 1_555
C26 O5 1_555 1_555
C28 C29 1_555 1_555
C30 O7 1_555 1_555
N2 O2 1_555 1_555
C37 C38 1_555 1_555
C43 C44 1_555 1_555
C48 O11 1_555 1_555
C49 N7 1_555 1_555
C50 N8 1_555 1_555
C53 C54 1_555 1_555
C56 O13 1_555 1_555
C58 C59 1_555 1_555
C60 O15 1_555 1_555
N6 O10 1_555 1_555

#END
