
#######################################################################
#
#                 Cambridge Crystallographic Data Centre
#                                CCDC 
#
#######################################################################
#
# If this CIF has been generated from an entry in the Cambridge 
# Structural Database, then it will include bibliographic, chemical, 
# crystal, experimental, refinement or atomic coordinate data resulting 
# from the CCDC's data processing and validation procedures.
#
#######################################################################

data_IYACUH01
_chemical_formula_moiety         'C16 H14 N4 O4,2(C3 H7 N1 O1)'
_chemical_name_systematic        
"N'^1^,N'^2^-dibenzoylethanedihydrazide N,N-dimethylformamide  solvate"
_symmetry_cell_setting           orthorhombic
_symmetry_space_group_name_H-M   'P n a 21'
_symmetry_Int_Tables_number      33
_space_group_name_Hall           'P 2c -2n'
loop_
_symmetry_equiv_pos_site_id
_symmetry_equiv_pos_as_xyz
1 x,y,z
2 -x,-y,1/2+z
3 1/2+x,1/2-y,z
4 1/2-x,1/2+y,1/2+z
_cell_length_a                   16.0222(15)
_cell_length_b                   6.4656(7)
_cell_length_c                   24.504(2)
_cell_angle_alpha                90
_cell_angle_beta                 90
_cell_angle_gamma                90
_cell_volume                     2538.45
_exptl_crystal_colour            colorless
_exptl_crystal_description       block
_cell_formula_units_Z            4
loop_
_atom_site_label
_atom_site_type_symbol
_atom_site_fract_x
_atom_site_fract_y
_atom_site_fract_z
N1 N 0.1436(4) 0.7517(6) 0.5999(3)
H1 H 0.1907 0.7773 0.6153
N2 N 0.1105(2) 0.8909(6) 0.56272(17)
H2 H 0.0829 0.9974 0.5734
N3 N 0.1062(4) 0.2676(7) 0.6658(3)
H3 H 0.0589 0.2422 0.6506
N4 N 0.1398(2) 0.1275(6) 0.70365(18)
H4 H 0.1662 0.0190 0.6930
O1 O 0.0343(2) 0.5281(6) 0.59202(16)
O2 O 0.2166(2) 0.4874(6) 0.67277(15)
O3 O 0.1706(4) 0.7178(8) 0.4927(2)
O4 O 0.0832(4) 0.3040(9) 0.7759(2)
C1 C 0.1021(3) 0.5770(8) 0.6120(2)
C2 C 0.1479(3) 0.4416(8) 0.6532(2)
C3 C 0.1235(4) 0.8524(9) 0.5075(2)
C4 C 0.0759(3) 0.9919(9) 0.46979(19)
C5 C 0.0518(4) 1.1899(11) 0.4835(3)
H5 H 0.0664 1.2457 0.5172
C6 C 0.0051(5) 1.3058(12) 0.4461(4)
H6 H -0.0117 1.4390 0.4553
C7 C -0.0164(6) 1.2260(14) 0.3956(4)
H7 H -0.0480 1.3036 0.3713
C8 C 0.0097(4) 1.0300(13) 0.3821(3)
H8 H -0.0036 0.9761 0.3480
C9 C 0.0555(3) 0.9113(10) 0.4184(2)
H9 H 0.0726 0.7788 0.4088
C10 C 0.1293(3) 0.1687(10) 0.7585(2)
C11 C 0.1777(3) 0.0260(9) 0.7952(2)
C12 C 0.2032(3) 0.1008(9) 0.8458(2)
H10 H 0.1877 0.2332 0.8566
C13 C 0.2511(4) -0.0203(13) 0.8801(3)
H11 H 0.2696 0.0318 0.9133
C14 C 0.2714(6) -0.2210(14) 0.8644(5)
H12 H 0.3032 -0.3030 0.8877
C15 C 0.2451(5) -0.3003(12) 0.8151(4)
H13 H 0.2580 -0.4356 0.8053
C16 C 0.1998(4) -0.1760(11) 0.7807(3)
H14 H 0.1833 -0.2274 0.7470
N5 N 0.3940(2) 0.9189(7) 0.71148(18)
O5 O 0.2854(2) 0.9435(6) 0.65114(14)
C17 C 0.3446(3) 0.8487(10) 0.6724(2)
H15 H 0.3551 0.7157 0.6597
C18 C 0.4608(5) 0.7897(11) 0.7355(4)
H16 H 0.4435 0.7418 0.7709
H17 H 0.5108 0.8704 0.7391
H18 H 0.4713 0.6732 0.7122
C19 C 0.3816(3) 1.1215(9) 0.7353(2)
H19 H 0.3334 1.1853 0.7193
H20 H 0.4298 1.2058 0.7286
H21 H 0.3734 1.1078 0.7740
N6 N 0.3575(2) 0.4084(7) 0.55327(18)
O6 O 0.4655(2) 0.4305(6) 0.61436(14)
C20 C 0.4057(3) 0.3375(10) 0.5929(2)
H22 H 0.3938 0.2058 0.6061
C21 C 0.3703(3) 0.6141(9) 0.5298(2)
H23 H 0.4089 0.6903 0.5520
H24 H 0.3180 0.6863 0.5284
H25 H 0.3924 0.6007 0.4935
C22 C 0.2911(5) 0.2820(11) 0.5312(4)
H26 H 0.2841 0.1610 0.5535
H27 H 0.3049 0.2413 0.4946
H28 H 0.2400 0.3599 0.5309
loop_
_geom_bond_atom_site_label_1
_geom_bond_atom_site_label_2
_geom_bond_site_symmetry_1
_geom_bond_site_symmetry_2
N1 H1 1_555 1_555
N2 N1 1_555 1_555
H2 N2 1_555 1_555
N3 H3 1_555 1_555
N4 N3 1_555 1_555
H4 N4 1_555 1_555
O1 C1 1_555 1_555
O2 C2 1_555 1_555
O3 C3 1_555 1_555
O4 C10 1_555 1_555
C1 N1 1_555 1_555
C2 N3 1_555 1_555
C3 N2 1_555 1_555
C4 C3 1_555 1_555
C5 C4 1_555 1_555
H5 C5 1_555 1_555
C6 C5 1_555 1_555
H6 C6 1_555 1_555
C7 C6 1_555 1_555
H7 C7 1_555 1_555
C8 C7 1_555 1_555
H8 C8 1_555 1_555
C9 C4 1_555 1_555
H9 C9 1_555 1_555
C10 N4 1_555 1_555
C11 C10 1_555 1_555
C12 C11 1_555 1_555
H10 C12 1_555 1_555
C13 C12 1_555 1_555
H11 C13 1_555 1_555
C14 C13 1_555 1_555
H12 C14 1_555 1_555
C15 C14 1_555 1_555
H13 C15 1_555 1_555
C16 C11 1_555 1_555
H14 C16 1_555 1_555
N5 C17 1_555 1_555
O5 C17 1_555 1_555
C17 H15 1_555 1_555
C18 N5 1_555 1_555
H16 C18 1_555 1_555
H17 C18 1_555 1_555
H18 C18 1_555 1_555
C19 N5 1_555 1_555
H19 C19 1_555 1_555
H20 C19 1_555 1_555
H21 C19 1_555 1_555
N6 C20 1_555 1_555
O6 C20 1_555 1_555
C20 H22 1_555 1_555
C21 N6 1_555 1_555
H23 C21 1_555 1_555
H24 C21 1_555 1_555
H25 C21 1_555 1_555
C22 N6 1_555 1_555
H26 C22 1_555 1_555
H27 C22 1_555 1_555
H28 C22 1_555 1_555
C1 C2 1_555 1_555
C8 C9 1_555 1_555
C15 C16 1_555 1_555

#END
