
#######################################################################
#
#                 Cambridge Crystallographic Data Centre
#                                CCDC 
#
#######################################################################
#
# If this CIF has been generated from an entry in the Cambridge 
# Structural Database, then it will include bibliographic, chemical, 
# crystal, experimental, refinement or atomic coordinate data resulting 
# from the CCDC's data processing and validation procedures.
#
#######################################################################

data_IYADOD
_chemical_name_common            
"(5-methyl-2-oxo-1,3-dioxol-4-yl)methyl 2-ethoxy-1-((2'-(5-oxo-4,5-dihydro-1,2,4-oxadiazol-3-yl)biphenyl-4-yl)methyl)-1H-benzimidazole-7-carboxylate 1,4-dioxane solvate"
_chemical_formula_moiety         'C30 H24 N4 O8,0.75(C4 H8 O2)'
_chemical_name_systematic        'Azilsartan medoxomil 1,4-dioxane solvate'
_symmetry_cell_setting           triclinic
_symmetry_space_group_name_H-M   'P -1'
_symmetry_Int_Tables_number      2
_space_group_name_Hall           '-P 1'
loop_
_symmetry_equiv_pos_site_id
_symmetry_equiv_pos_as_xyz
1 x,y,z
2 -x,-y,-z
_cell_length_a                   12.416(3)
_cell_length_b                   14.763(3)
_cell_length_c                   18.392(4)
_cell_angle_alpha                94.59(3)
_cell_angle_beta                 108.67(3)
_cell_angle_gamma                99.38(3)
_cell_volume                     3119.43
_exptl_crystal_colour            colorless
_exptl_crystal_description       plate
_cell_formula_units_Z            4
loop_
_atom_site_label
_atom_site_type_symbol
_atom_site_fract_x
_atom_site_fract_y
_atom_site_fract_z
C1 C -0.0705(4) -0.0402(2) 0.3604(3)
C2 C 0.1159(4) -0.0183(2) 0.4244(2)
C3 C 0.2394(3) 0.0260(2) 0.4604(2)
C4 C 0.2904(4) 0.0288(3) 0.5402(2)
H1 H 0.2471 0.0013 0.5684
C5 C 0.4038(5) 0.0716(3) 0.5772(3)
H2 H 0.4374 0.0723 0.6304
C6 C 0.4677(4) 0.1133(3) 0.5368(3)
H3 H 0.5445 0.1427 0.5622
C7 C 0.4180(4) 0.1114(3) 0.4585(3)
H4 H 0.4619 0.1410 0.4314
C8 C 0.3047(3) 0.0671(2) 0.4183(2)
C9 C 0.2609(3) 0.0629(2) 0.33311(19)
C10 C 0.2055(3) -0.0190(2) 0.2837(2)
H5 H 0.1902 -0.0731 0.3043
C11 C 0.2799(3) 0.1421(2) 0.2993(2)
H6 H 0.3162 0.1984 0.3310
C12 C 0.1727(3) -0.0219(2) 0.20447(19)
H7 H 0.1369 -0.0781 0.1727
C13 C 0.2467(3) 0.1394(2) 0.22075(19)
H8 H 0.2609 0.1936 0.1999
C14 C 0.1921(2) 0.05685(19) 0.17150(18)
C15 C 0.1524(3) 0.0537(2) 0.08501(18)
H9 H 0.1579 -0.0059 0.0616
H10 H 0.0716 0.0591 0.0664
C16 C -0.0867(4) 0.2784(3) -0.0191(3)
H11 H -0.1187 0.2254 -0.0586
H12 H -0.1124 0.3320 -0.0396
H13 H -0.1120 0.2674 0.0241
C17 C 0.0385(3) 0.2943(3) 0.0061(3)
H14 H 0.0715 0.3455 0.0482
H15 H 0.0649 0.3102 -0.0363
C18 C 0.1871(3) 0.2088(2) 0.04568(19)
C19 C 0.3401(3) 0.1440(2) 0.07267(19)
C20 C 0.3669(3) 0.2379(2) 0.0632(2)
C21 C 0.4792(3) 0.2794(3) 0.0710(2)
H16 H 0.4971 0.3413 0.0647
C22 C 0.5628(3) 0.2273(3) 0.0883(3)
H17 H 0.6388 0.2542 0.0942
C23 C 0.5363(3) 0.1350(3) 0.0972(3)
H18 H 0.5954 0.1014 0.1091
C24 C 0.4240(3) 0.0906(2) 0.0889(2)
C25 C 0.4009(3) -0.0097(2) 0.0929(2)
C26 C 0.4818(3) -0.1401(2) 0.1281(3)
H19 H 0.4381 -0.1627 0.1605
H20 H 0.4409 -0.1700 0.0752
C27 C 0.6302(3) -0.2390(3) 0.2781(2)
H21 H 0.5542 -0.2323 0.2772
H22 H 0.6871 -0.2060 0.3255
H23 H 0.6343 -0.3035 0.2748
C28 C 0.5982(3) -0.1597(2) 0.1557(2)
C29 C 0.6533(3) -0.2011(2) 0.2118(2)
C30 C 0.7702(3) -0.1632(3) 0.1453(2)
H24 H 0.035(3) 0.078(2) 0.3622(19)
N1 N 0.0324(3) 0.01924(19) 0.37791(18)
N2 N 0.0761(3) -0.0994(2) 0.4383(2)
N3 N 0.2210(2) 0.12751(17) 0.06078(15)
N4 N 0.2681(2) 0.27741(17) 0.04540(16)
O1 O -0.1670(3) -0.03371(18) 0.32101(18)
O2 O -0.0460(3) -0.11465(17) 0.39700(18)
O3 O 0.07623(18) 0.21084(15) 0.03192(15)
O4 O 0.3090(2) -0.06144(16) 0.06309(15)
O5 O 0.4954(2) -0.03967(15) 0.13193(17)
O6 O 0.76145(18) -0.20603(16) 0.20602(14)
O7 O 0.6705(2) -0.13598(17) 0.11180(16)
O8 O 0.8530(2) -0.1518(2) 0.12587(17)
C31 C 0.2086(4) 0.4967(3) -0.0406(3)
C32 C 0.3674(3) 0.5384(2) 0.0610(2)
C33 C 0.4654(3) 0.5326(2) 0.1284(2)
C34 C 0.5760(3) 0.5570(2) 0.1231(2)
H25 H 0.5840 0.5789 0.0787
C35 C 0.6731(3) 0.5491(3) 0.1829(2)
H26 H 0.7462 0.5643 0.1785
C36 C 0.6618(3) 0.5186(2) 0.2488(2)
H27 H 0.7273 0.5128 0.2890
C37 C 0.5529(3) 0.4964(2) 0.2559(2)
H28 H 0.5467 0.4771 0.3016
C38 C 0.4539(3) 0.5024(2) 0.19662(19)
C39 C 0.3389(3) 0.47740(19) 0.20713(18)
C40 C 0.2535(3) 0.5288(2) 0.18528(19)
H29 H 0.2671 0.5816 0.1625
C41 C 0.1479(3) 0.50390(19) 0.19634(17)
H30 H 0.0917 0.5397 0.1808
C42 C 0.1255(2) 0.42590(18) 0.23049(17)
C43 C 0.2110(3) 0.3759(2) 0.25385(19)
H31 H 0.1982 0.3242 0.2781
C44 C 0.3160(3) 0.4004(2) 0.24223(19)
H32 H 0.3722 0.3647 0.2583
C45 C 0.0087(2) 0.39737(19) 0.24012(18)
H33 H -0.0177 0.4525 0.2538
H34 H -0.0471 0.3655 0.1910
C46 C -0.1440(3) 0.0817(3) 0.1106(2)
H35 H -0.2149 0.1046 0.0973
H36 H -0.1614 0.0155 0.0965
H37 H -0.0962 0.1095 0.0831
C47 C -0.0812(3) 0.1054(2) 0.1955(2)
H38 H -0.1304 0.0815 0.2242
H39 H -0.0118 0.0792 0.2104
C48 C -0.0041(3) 0.2425(2) 0.2843(2)
C49 C 0.0753(3) 0.2734(2) 0.40626(19)
C50 C 0.1240(3) 0.2678(2) 0.4836(2)
H40 H 0.1300 0.2110 0.5013
C51 C 0.1640(4) 0.3501(3) 0.5344(2)
H41 H 0.1989 0.3485 0.5871
C52 C 0.1531(4) 0.4339(3) 0.5082(2)
H42 H 0.1808 0.4877 0.5440
C53 C 0.1023(3) 0.4411(2) 0.4306(2)
C54 C 0.0639(3) 0.35814(19) 0.37927(18)
C55 C 0.0795(4) 0.5308(2) 0.4075(2)
C56 C 0.1517(4) 0.6940(2) 0.4312(2)
H43 H 0.0731 0.7002 0.4259
H44 H 0.2044 0.7400 0.4736
C57 C 0.1734(3) 0.7115(2) 0.3598(3)
C58 C 0.2852(4) 0.7413(3) 0.2892(3)
C59 C 0.1074(3) 0.7194(2) 0.2904(2)
C60 C -0.0165(3) 0.7145(3) 0.2526(3)
H45 H -0.0551 0.7083 0.2901
H46 H -0.0476 0.6618 0.2127
H47 H -0.0284 0.7701 0.2301
H48 H 0.274(3) 0.407(3) 0.029(2)
N5 N 0.2803(2) 0.4660(2) 0.02052(17)
N6 N 0.3578(3) 0.6137(2) 0.0313(2)
N7 N 0.0122(2) 0.33720(15) 0.29922(14)
N8 N 0.0309(2) 0.20102(16) 0.34447(16)
O9 O 0.1212(2) 0.4569(2) -0.09098(16)
O10 O 0.2543(2) 0.58827(17) -0.03546(16)
O11 O -0.05127(19) 0.20571(13) 0.21099(13)
O12 O -0.0059(2) 0.54245(16) 0.35880(17)
O13 O 0.1671(2) 0.60154(15) 0.44939(15)
O14 O 0.2881(2) 0.7240(2) 0.3607(2)
O15 O 0.1764(2) 0.73915(16) 0.24492(15)
O16 O 0.3672(3) 0.7580(3) 0.2690(2)
C61 C 0.7517(5) 0.3038(4) 0.3362(5)
H49 H 0.8107 0.3054 0.3862
H50 H 0.7733 0.3591 0.3148
C62 C 0.7085(7) 0.1479(4) 0.3142(5)
H51 H 0.7656 0.1446 0.3638
H52 H 0.7014 0.0926 0.2793
C63 C 0.6015(6) 0.1482(4) 0.3243(5)
H53 H 0.5800 0.0935 0.3464
H54 H 0.5423 0.1461 0.2744
C64 C 0.6451(6) 0.3039(4) 0.3465(4)
H55 H 0.6524 0.3587 0.3819
H56 H 0.5880 0.3079 0.2971
O17 O 0.7474(3) 0.2232(3) 0.2854(2)
O18 O 0.6069(3) 0.2290(3) 0.3741(2)
C65 C 0.4723(8) 0.5489(5) 0.4413(4)
H57 H 0.3882 0.5335 0.4214
H58 H 0.4972 0.5932 0.4108
C66 C 0.5094(7) 0.5911(5) 0.5197(5)
H59 H 0.5925 0.6145 0.5373
H60 H 0.4722 0.6435 0.5226
O19 O 0.5153(4) 0.4682(4) 0.4315(2)
C65A C 0.5277(8) 0.4511(5) 0.5587(4)
H57A H 0.6118 0.4665 0.5786
H58A H 0.5028 0.4068 0.5892
C66A C 0.4906(7) 0.4089(5) 0.4803(5)
H59A H 0.4075 0.3855 0.4627
H60A H 0.5278 0.3565 0.4774
O19A O 0.4847(4) 0.5318(4) 0.5685(2)
loop_
_geom_bond_atom_site_label_1
_geom_bond_atom_site_label_2
_geom_bond_site_symmetry_1
_geom_bond_site_symmetry_2
C1 N1 1_555 1_555
C2 C3 1_555 1_555
C3 C4 1_555 1_555
C4 H1 1_555 1_555
C5 C4 1_555 1_555
H2 C5 1_555 1_555
C6 C5 1_555 1_555
H3 C6 1_555 1_555
C7 C6 1_555 1_555
H4 C7 1_555 1_555
C8 C3 1_555 1_555
C9 C8 1_555 1_555
C10 C9 1_555 1_555
H5 C10 1_555 1_555
C11 C9 1_555 1_555
H6 C11 1_555 1_555
C12 C10 1_555 1_555
H7 C12 1_555 1_555
C13 C11 1_555 1_555
H8 C13 1_555 1_555
C14 C12 1_555 1_555
C15 C14 1_555 1_555
H9 C15 1_555 1_555
H10 C15 1_555 1_555
C16 H11 1_555 1_555
H12 C16 1_555 1_555
H13 C16 1_555 1_555
C17 C16 1_555 1_555
H14 C17 1_555 1_555
H15 C17 1_555 1_555
C18 N3 1_555 1_555
C19 C20 1_555 1_555
C20 C21 1_555 1_555
C21 H16 1_555 1_555
C22 C21 1_555 1_555
H17 C22 1_555 1_555
C23 C22 1_555 1_555
H18 C23 1_555 1_555
C24 C19 1_555 1_555
C25 C24 1_555 1_555
C26 H19 1_555 1_555
H20 C26 1_555 1_555
C27 H21 1_555 1_555
H22 C27 1_555 1_555
H23 C27 1_555 1_555
C28 C26 1_555 1_555
C29 C27 1_555 1_555
C30 O6 1_555 1_555
H24 N1 1_555 1_555
N1 C2 1_555 1_555
N2 C2 1_555 1_555
N3 C15 1_555 1_555
N4 C18 1_555 1_555
O1 C1 1_555 1_555
O2 C1 1_555 1_555
O3 C17 1_555 1_555
O4 C25 1_555 1_555
O5 C25 1_555 1_555
O6 C29 1_555 1_555
O7 C28 1_555 1_555
O8 C30 1_555 1_555
C31 N5 1_555 1_555
C32 C33 1_555 1_555
C33 C34 1_555 1_555
C34 H25 1_555 1_555
C35 C34 1_555 1_555
H26 C35 1_555 1_555
C36 C35 1_555 1_555
H27 C36 1_555 1_555
C37 C36 1_555 1_555
H28 C37 1_555 1_555
C38 C33 1_555 1_555
C39 C38 1_555 1_555
C40 C39 1_555 1_555
H29 C40 1_555 1_555
C41 C40 1_555 1_555
H30 C41 1_555 1_555
C42 C41 1_555 1_555
C43 C42 1_555 1_555
H31 C43 1_555 1_555
C44 C39 1_555 1_555
H32 C44 1_555 1_555
C45 C42 1_555 1_555
H33 C45 1_555 1_555
H34 C45 1_555 1_555
C46 H35 1_555 1_555
H36 C46 1_555 1_555
H37 C46 1_555 1_555
C47 C46 1_555 1_555
H38 C47 1_555 1_555
H39 C47 1_555 1_555
C48 N7 1_555 1_555
C49 C50 1_555 1_555
C50 H40 1_555 1_555
C51 C50 1_555 1_555
H41 C51 1_555 1_555
C52 C51 1_555 1_555
H42 C52 1_555 1_555
C53 C52 1_555 1_555
C54 C49 1_555 1_555
C55 C53 1_555 1_555
C56 H43 1_555 1_555
H44 C56 1_555 1_555
C57 C56 1_555 1_555
C58 O14 1_555 1_555
C59 C57 1_555 1_555
C60 C59 1_555 1_555
H45 C60 1_555 1_555
H46 C60 1_555 1_555
H47 C60 1_555 1_555
H48 N5 1_555 1_555
N5 C32 1_555 1_555
N6 C32 1_555 1_555
N7 C45 1_555 1_555
N8 C48 1_555 1_555
O9 C31 1_555 1_555
O10 C31 1_555 1_555
O11 C47 1_555 1_555
O12 C55 1_555 1_555
O13 C55 1_555 1_555
O14 C57 1_555 1_555
O15 C58 1_555 1_555
O16 C58 1_555 1_555
C61 H49 1_555 1_555
H50 C61 1_555 1_555
C62 H51 1_555 1_555
H52 C62 1_555 1_555
C63 C62 1_555 1_555
H53 C63 1_555 1_555
H54 C63 1_555 1_555
C64 C61 1_555 1_555
H55 C64 1_555 1_555
H56 C64 1_555 1_555
O17 C61 1_555 1_555
O18 C63 1_555 1_555
C65 H57 1_555 1_555
H58 C65 1_555 1_555
C66 C65 1_555 1_555
H59 C66 1_555 1_555
H60 C66 1_555 1_555
O19 C65 1_555 1_555
C65A H57A 1_555 1_555
H58A C65A 1_555 1_555
C66A O19 1_555 1_555
H59A C66A 1_555 1_555
H60A C66A 1_555 1_555
O19A C66 1_555 1_555
C7 C8 1_555 1_555
C13 C14 1_555 1_555
C18 O3 1_555 1_555
C19 N3 1_555 1_555
C20 N4 1_555 1_555
C23 C24 1_555 1_555
C26 O5 1_555 1_555
C28 C29 1_555 1_555
C30 O7 1_555 1_555
N2 O2 1_555 1_555
C37 C38 1_555 1_555
C43 C44 1_555 1_555
C48 O11 1_555 1_555
C49 N8 1_555 1_555
C53 C54 1_555 1_555
C54 N7 1_555 1_555
C56 O13 1_555 1_555
C59 O15 1_555 1_555
N6 O10 1_555 1_555
C62 O17 1_555 1_555
C64 O18 1_555 1_555
C65A C66A 1_555 1_555
C65A O19A 1_555 1_555

#END
