
#######################################################################
#
#                 Cambridge Crystallographic Data Centre
#                                CCDC 
#
#######################################################################
#
# If this CIF has been generated from an entry in the Cambridge 
# Structural Database, then it will include bibliographic, chemical, 
# crystal, experimental, refinement or atomic coordinate data resulting 
# from the CCDC's data processing and validation procedures.
#
#######################################################################

data_IYADOC
_chemical_formula_moiety         '0.5(C1 H1 Cl3),C72 H70 N2 O8'
_chemical_name_systematic        
'11,23-di-t-butyl-5,17-bis((9H-fluoren-2-ylmethylene)amino)-26,28-dihydroxy-25,27-bis((ethoxycarbonyl)methoxy)calix(4)arene chloroform solvate'
_symmetry_cell_setting           triclinic
_symmetry_space_group_name_H-M   'P -1'
_symmetry_Int_Tables_number      2
_space_group_name_Hall           '-P 1'
loop_
_symmetry_equiv_pos_site_id
_symmetry_equiv_pos_as_xyz
1 x,y,z
2 -x,-y,-z
_cell_length_a                   13.6175(10)
_cell_length_b                   13.7993(10)
_cell_length_c                   19.4909(14)
_cell_angle_alpha                95.4900(10)
_cell_angle_beta                 90.1150(10)
_cell_angle_gamma                119.0180(10)
_cell_volume                     3183.17
_exptl_crystal_colour            'pale pink'
_exptl_crystal_description       block
_cell_formula_units_Z            2
loop_
_atom_site_label
_atom_site_type_symbol
_atom_site_fract_x
_atom_site_fract_y
_atom_site_fract_z
C1 C 0.3336(2) 0.4975(2) 0.33073(14)
C2 C 0.2695(2) 0.4500(2) 0.26885(15)
H1 H 0.3011 0.4288 0.2308
C3 C 0.1605(2) 0.4326(2) 0.26114(14)
N1 N 0.1055(2) 0.3910(2) 0.19370(14)
C4 C 0.043(2) 0.413(2) 0.1707(8)
H2 H 0.0234 0.4590 0.2007
C5 C -0.0104(10) 0.3813(10) 0.1013(5)
C6 C 0.0245(6) 0.3266(6) 0.0506(4)
H3 H 0.0797 0.3070 0.0626
C7 C -0.0212(5) 0.3011(5) -0.0167(3)
H4 H 0.0017 0.2636 -0.0509
C8 C -0.1009(6) 0.3317(7) -0.0328(4)
C9 C -0.1378(7) 0.3846(8) 0.0176(4)
C10 C -0.0905(6) 0.4118(6) 0.0845(4)
H5 H -0.1124 0.4507 0.1184
C11 C -0.1589(7) 0.3210(8) -0.0989(4)
C12 C -0.1469(10) 0.2823(10) -0.1650(6)
H6 H -0.0948 0.2556 -0.1723
C13 C -0.2120(11) 0.2827(14) -0.2218(7)
H7 H -0.2030 0.2579 -0.2673
C14 C -0.2866(14) 0.3188(16) -0.2099(8)
H8 H -0.3329 0.3156 -0.2476
C15 C -0.2990(8) 0.3610(9) -0.1443(6)
H9 H -0.3514 0.3876 -0.1378
C16 C -0.2327(8) 0.3634(8) -0.0884(5)
C17 C -0.2264(4) 0.4068(5) -0.0131(3)
H10 H -0.2026 0.4874 -0.0074
H11 H -0.2994 0.3654 0.0081
C18 C 0.1142(2) 0.4607(2) 0.31782(14)
H12 H 0.0393 0.4482 0.3133
C19 C 0.1743(2) 0.5065(2) 0.38073(14)
C20 C 0.2846(2) 0.5248(2) 0.38764(14)
O1 O 0.33675(16) 0.56334(17) 0.45183(9)
H13 H 0.4059 0.5861 0.4491
C21 C 0.1218(2) 0.5411(2) 0.43992(15)
H14 H 0.1692 0.5601 0.4829
H15 H 0.0466 0.4783 0.4469
C22 C 0.1104(2) 0.6415(2) 0.42458(14)
C23 C 0.0113(2) 0.6263(3) 0.39337(16)
H16 H -0.0518 0.5534 0.3876
C24 C 0.0003(2) 0.7132(3) 0.37013(15)
C25 C -0.1128(3) 0.6885(3) 0.33680(18)
C26 C -0.2045(3) 0.6386(4) 0.3880(2)
H17 H -0.2071 0.5714 0.4025
H18 H -0.2774 0.6193 0.3659
H19 H -0.1878 0.6932 0.4284
C27 C -0.1095(3) 0.7946(4) 0.3152(2)
H20 H -0.1831 0.7755 0.2943
H21 H -0.0519 0.8267 0.2816
H22 H -0.0915 0.8489 0.3559
C28 C -0.1420(3) 0.6056(4) 0.2721(2)
H23 H -0.1448 0.5372 0.2845
H24 H -0.0844 0.6386 0.2386
H25 H -0.2154 0.5880 0.2517
C29 C 0.0946(2) 0.8187(3) 0.37776(15)
H26 H 0.0899 0.8788 0.3610
C30 C 0.1969(2) 0.8391(2) 0.40960(14)
C31 C 0.2010(2) 0.7496(2) 0.43423(14)
C32 C 0.3012(2) 0.9538(2) 0.41334(15)
H27 H 0.2779 1.0114 0.4120
H28 H 0.3446 0.9690 0.4576
O2 O 0.30097(15) 0.76971(16) 0.46699(9)
C33 C 0.2957(3) 0.7731(3) 0.54040(14)
H29 H 0.2258 0.7085 0.5530
H30 H 0.2967 0.8424 0.5601
C34 C 0.3974(3) 0.7692(2) 0.56757(15)
O3 O 0.48600(17) 0.80864(18) 0.54046(11)
O4 O 0.3780(2) 0.7218(2) 0.62583(12)
C35 C 0.4764(3) 0.7209(3) 0.65707(19)
H31 H 0.4900 0.6641 0.6306
H32 H 0.5442 0.7947 0.6563
C36 C 0.4537(5) 0.6951(5) 0.7284(2)
H33 H 0.5181 0.6936 0.7497
H34 H 0.3864 0.6221 0.7287
H35 H 0.4414 0.7523 0.7544
C37 C 0.3752(2) 0.9608(2) 0.35379(14)
C38 C 0.3461(2) 0.9761(2) 0.28905(14)
H36 H 0.2822 0.9858 0.2835
C39 C 0.4080(2) 0.9777(2) 0.23179(14)
N2 N 0.3690(2) 0.9886(2) 0.16668(13)
C40 C 0.3838(2) 0.9392(2) 0.11296(15)
H37 H 0.4248 0.9006 0.1180
C41 C 0.3415(2) 0.9378(2) 0.04312(15)
C42 C 0.2725(3) 0.9854(3) 0.03284(16)
H38 H 0.2596 1.0260 0.0706
C43 C 0.2231(3) 0.9735(3) -0.03181(16)
H39 H 0.1759 1.0051 -0.0385
C44 C 0.2430(2) 0.9153(3) -0.08617(15)
C45 C 0.1960(2) 0.8824(3) -0.15789(15)
C46 C 0.1186(3) 0.9030(3) -0.19195(16)
H40 H 0.0898 0.9470 -0.1689
C47 C 0.0847(3) 0.8580(3) -0.26021(17)
H41 H 0.0311 0.8699 -0.2839
C48 C 0.1289(3) 0.7954(3) -0.29408(17)
H42 H 0.1059 0.7661 -0.3410
C49 C 0.2062(3) 0.7754(3) -0.26033(17)
H43 H 0.2356 0.7321 -0.2836
C50 C 0.2393(2) 0.8192(3) -0.19258(16)
C51 C 0.3207(3) 0.8101(3) -0.14360(16)
H44 H 0.2969 0.7312 -0.1383
H45 H 0.3980 0.8462 -0.1600
C52 C 0.3141(2) 0.8705(2) -0.07746(15)
C53 C 0.3633(2) 0.8816(2) -0.01209(15)
H46 H 0.4112 0.8508 -0.0057
C54 C 0.5034(2) 0.9666(2) 0.24075(14)
H47 H 0.5470 0.9690 0.2023
C55 C 0.5359(2) 0.9520(2) 0.30501(14)
C56 C 0.4720(2) 0.9505(2) 0.36159(13)
O5 O 0.51231(15) 0.94580(16) 0.42516(9)
H48 H 0.4617 0.8929 0.4439
C57 C 0.6383(2) 0.9368(2) 0.31150(14)
H49 H 0.6644 0.9510 0.3607
H50 H 0.6996 0.9919 0.2861
C58 C 0.6131(2) 0.8200(2) 0.28324(13)
C59 C 0.6369(2) 0.7996(2) 0.21589(14)
H51 H 0.6735 0.8607 0.1894
C60 C 0.6089(2) 0.6920(3) 0.18529(15)
C61 C 0.6419(3) 0.6774(3) 0.11144(16)
C62 C 0.5860(4) 0.7190(4) 0.06236(18)
H52 H 0.5041 0.6761 0.0646
H53 H 0.6066 0.7093 0.0151
H54 H 0.6115 0.7981 0.0760
C63 C 0.6032(4) 0.5531(4) 0.0869(2)
H55 H 0.6380 0.5248 0.1178
H56 H 0.6260 0.5467 0.0398
H57 H 0.5212 0.5093 0.0877
C64 C 0.7683(3) 0.7444(4) 0.1082(2)
H58 H 0.8043 0.7176 0.1392
H59 H 0.7933 0.8233 0.1224
H60 H 0.7892 0.7357 0.0608
C65 C 0.5515(2) 0.6045(2) 0.22490(14)
H61 H 0.5287 0.5308 0.2048
C66 C 0.5260(2) 0.6202(2) 0.29243(14)
C67 C 0.5608(2) 0.7294(2) 0.32153(13)
O6 O 0.53864(14) 0.74432(15) 0.39053(9)
C68 C 0.4554(2) 0.5221(2) 0.33229(14)
H62 H 0.4859 0.5392 0.3807
H63 H 0.4589 0.4555 0.3116
C69 C 0.6371(2) 0.8039(2) 0.43586(14)
H64 H 0.6395 0.8721 0.4590
H65 H 0.7049 0.8267 0.4088
C70 C 0.6373(2) 0.7327(2) 0.48899(14)
O7 O 0.56500(17) 0.63753(16) 0.49449(10)
O8 O 0.72965(17) 0.78893(17) 0.53011(11)
C71 C 0.7476(3) 0.7289(3) 0.58198(19)
H66 H 0.7165 0.6494 0.5642
H67 H 0.7092 0.7336 0.6243
C72 C 0.8704(4) 0.7808(5) 0.5978(3)
H68 H 0.8846 0.7417 0.6326
H69 H 0.9002 0.8594 0.6156
H70 H 0.9075 0.7757 0.5557
C73 C 0.1706(5) 0.2070(6) 0.1406(3)
H71 H 0.1370 0.2544 0.1578
Cl1 Cl 0.08552(16) 0.1080(2) 0.06951(11)
Cl2 Cl 0.30180(19) 0.2860(2) 0.11772(13)
Cl3 Cl 0.1754(3) 0.1229(3) 0.20925(15)
C74? C -0.1667(12) 0.2731(12) -0.1958(7)
C75? C -0.2504(13) 0.2897(15) -0.2237(8)
C76? C -0.3038(14) 0.3345(15) -0.1863(8)
C77? C -0.2741(9) 0.3653(7) -0.1141(6)
C78? C -0.1916(9) 0.3495(8) -0.0850(5)
C79? C -0.0568(5) 0.2858(6) -0.0795(3)
C80? C -0.1111(7) 0.4399(7) 0.1061(4)
C81? C -0.1681(5) 0.4237(6) 0.0434(3)
C82? C 0.029(2) 0.429(2) 0.1789(8)
C83? C -0.0315(11) 0.4032(11) 0.1125(6)
C84? C -0.0099(6) 0.3497(7) 0.0552(5)
C85? C -0.0666(7) 0.3357(8) -0.0098(4)
C86? C 0.7476(3) 0.7289(3) 0.58198(19)
C87? C 0.7960(14) 0.8138(12) 0.6481(7)
C88? C -0.1455(8) 0.3723(8) -0.0132(4)
C89? C -0.1384(9) 0.3013(9) -0.1245(6)
H72? H -0.1291 0.2432 -0.2243
H73? H -0.2708 0.2684 -0.2716
H74? H -0.3602 0.3455 -0.2072
H75? H -0.3111 0.3967 -0.0863
H76? H -0.0795 0.2059 -0.0794
H77? H 0.0208 0.3260 -0.0949
H78? H -0.1259 0.4761 0.1454
H79? H -0.2222 0.4480 0.0397
H80? H 0.0170 0.4736 0.2143
H81? H 0.0419 0.3227 0.0593
H82? H 0.8014 0.7036 0.5665
H83? H 0.6758 0.6631 0.5909
H84? H 0.8099 0.7782 0.6852
H85? H 0.7419 0.8384 0.6624
H86? H 0.8668 0.8784 0.6382
loop_
_geom_bond_atom_site_label_1
_geom_bond_atom_site_label_2
_geom_bond_site_symmetry_1
_geom_bond_site_symmetry_2
C1 C2 1_555 1_555
C2 H1 1_555 1_555
C3 C2 1_555 1_555
N1 C3 1_555 1_555
C4 N1 1_555 1_555
H2 C4 1_555 1_555
C5 C4 1_555 1_555
C6 C5 1_555 1_555
H3 C6 1_555 1_555
C7 C6 1_555 1_555
H4 C7 1_555 1_555
C8 C7 1_555 1_555
C9 C8 1_555 1_555
C10 C5 1_555 1_555
H5 C10 1_555 1_555
C11 C8 1_555 1_555
C12 C11 1_555 1_555
H6 C12 1_555 1_555
C13 C12 1_555 1_555
H7 C13 1_555 1_555
C14 C13 1_555 1_555
H8 C14 1_555 1_555
C15 C14 1_555 1_555
H9 C15 1_555 1_555
C16 C11 1_555 1_555
C17 C9 1_555 1_555
H10 C17 1_555 1_555
H11 C17 1_555 1_555
C18 C3 1_555 1_555
H12 C18 1_555 1_555
C19 C18 1_555 1_555
C20 C1 1_555 1_555
O1 C20 1_555 1_555
H13 O1 1_555 1_555
C21 C19 1_555 1_555
H14 C21 1_555 1_555
H15 C21 1_555 1_555
C22 C21 1_555 1_555
C23 C22 1_555 1_555
H16 C23 1_555 1_555
C24 C23 1_555 1_555
C25 C24 1_555 1_555
C26 C25 1_555 1_555
H17 C26 1_555 1_555
H18 C26 1_555 1_555
H19 C26 1_555 1_555
C27 C25 1_555 1_555
H20 C27 1_555 1_555
H21 C27 1_555 1_555
H22 C27 1_555 1_555
C28 C25 1_555 1_555
H23 C28 1_555 1_555
H24 C28 1_555 1_555
H25 C28 1_555 1_555
C29 C24 1_555 1_555
H26 C29 1_555 1_555
C30 C29 1_555 1_555
C31 C22 1_555 1_555
C32 C30 1_555 1_555
H27 C32 1_555 1_555
H28 C32 1_555 1_555
O2 C31 1_555 1_555
C33 O2 1_555 1_555
H29 C33 1_555 1_555
H30 C33 1_555 1_555
C34 C33 1_555 1_555
O3 C34 1_555 1_555
O4 C34 1_555 1_555
C35 O4 1_555 1_555
H31 C35 1_555 1_555
H32 C35 1_555 1_555
C36 C35 1_555 1_555
H33 C36 1_555 1_555
H34 C36 1_555 1_555
H35 C36 1_555 1_555
C37 C32 1_555 1_555
C38 C37 1_555 1_555
H36 C38 1_555 1_555
C39 C38 1_555 1_555
N2 C39 1_555 1_555
C40 N2 1_555 1_555
H37 C40 1_555 1_555
C41 C40 1_555 1_555
C42 C41 1_555 1_555
H38 C42 1_555 1_555
C43 C42 1_555 1_555
H39 C43 1_555 1_555
C44 C43 1_555 1_555
C45 C44 1_555 1_555
C46 C45 1_555 1_555
H40 C46 1_555 1_555
C47 C46 1_555 1_555
H41 C47 1_555 1_555
C48 C47 1_555 1_555
H42 C48 1_555 1_555
C49 C48 1_555 1_555
H43 C49 1_555 1_555
C50 C45 1_555 1_555
C51 C50 1_555 1_555
H44 C51 1_555 1_555
H45 C51 1_555 1_555
C52 C44 1_555 1_555
C53 C41 1_555 1_555
H46 C53 1_555 1_555
C54 C39 1_555 1_555
H47 C54 1_555 1_555
C55 C54 1_555 1_555
C56 C37 1_555 1_555
O5 C56 1_555 1_555
H48 O5 1_555 1_555
C57 C55 1_555 1_555
H49 C57 1_555 1_555
H50 C57 1_555 1_555
C58 C57 1_555 1_555
C59 C58 1_555 1_555
H51 C59 1_555 1_555
C60 C59 1_555 1_555
C61 C60 1_555 1_555
C62 C61 1_555 1_555
H52 C62 1_555 1_555
H53 C62 1_555 1_555
H54 C62 1_555 1_555
C63 C61 1_555 1_555
H55 C63 1_555 1_555
H56 C63 1_555 1_555
H57 C63 1_555 1_555
C64 C61 1_555 1_555
H58 C64 1_555 1_555
H59 C64 1_555 1_555
H60 C64 1_555 1_555
C65 C60 1_555 1_555
H61 C65 1_555 1_555
C66 C65 1_555 1_555
C67 C58 1_555 1_555
O6 C67 1_555 1_555
C68 C1 1_555 1_555
H62 C68 1_555 1_555
H63 C68 1_555 1_555
C69 O6 1_555 1_555
H64 C69 1_555 1_555
H65 C69 1_555 1_555
C70 C69 1_555 1_555
O7 C70 1_555 1_555
O8 C70 1_555 1_555
C71 O8 1_555 1_555
H66 C71 1_555 1_555
H67 C71 1_555 1_555
C72 C71 1_555 1_555
H68 C72 1_555 1_555
H69 C72 1_555 1_555
H70 C72 1_555 1_555
C73 H71 1_555 1_555
Cl1 C73 1_555 1_555
Cl2 C73 1_555 1_555
Cl3 C73 1_555 1_555
C9 C10 1_555 1_555
C15 C16 1_555 1_555
C16 C17 1_555 1_555
C19 C20 1_555 1_555
C30 C31 1_555 1_555
C49 C50 1_555 1_555
C51 C52 1_555 1_555
C52 C53 1_555 1_555
C55 C56 1_555 1_555
C66 C67 1_555 1_555
C66 C68 1_555 1_555

#END
