
#######################################################################
#
#                 Cambridge Crystallographic Data Centre
#                                CCDC 
#
#######################################################################
#
# If this CIF has been generated from an entry in the Cambridge 
# Structural Database, then it will include bibliographic, chemical, 
# crystal, experimental, refinement or atomic coordinate data resulting 
# from the CCDC's data processing and validation procedures.
#
#######################################################################

data_IYADES
_chemical_formula_moiety         'C41 H32 Cl4 N8 O4,1.5(C2 H3 N1)'
_chemical_name_systematic        
"4,4'-(Methylenebis(3-(3,5-dichlorophenyl)-1-methyl-2,4-dioxo-1,3,7-triazaspiro[4.4]nonane-7,9-diyl))dibenzonitrile acetonitrile solvate"
_symmetry_cell_setting           triclinic
_symmetry_space_group_name_H-M   'P -1'
_symmetry_Int_Tables_number      2
_space_group_name_Hall           '-P 1'
loop_
_symmetry_equiv_pos_site_id
_symmetry_equiv_pos_as_xyz
1 x,y,z
2 -x,-y,-z
_cell_length_a                   13.3272
_cell_length_b                   17.9482
_cell_length_c                   19.1330
_cell_angle_alpha                82.1520
_cell_angle_beta                 83.3320
_cell_angle_gamma                83.1110
_cell_volume                     4477.8
_cell_formula_units_Z            4
loop_
_atom_site_label
_atom_site_type_symbol
_atom_site_fract_x
_atom_site_fract_y
_atom_site_fract_z
Cl1 Cl 0.904490 -0.457430 0.300410
Cl2 Cl 1.020030 -0.364890 0.529610
Cl3 Cl -0.165510 0.250590 0.149040
Cl4 Cl 0.121390 0.348930 -0.052740
O1 O 0.582240 -0.303430 0.421280
O2 O 0.806420 -0.124500 0.380310
O3 O 0.106670 0.010090 0.113700
O4 O 0.313310 0.184520 0.145680
N1 N 0.557480 -0.173190 0.399570
N2 N 0.715340 -0.228210 0.406290
N3 N 0.553110 0.002400 0.319510
N4 N 0.864810 -0.081610 0.721310
N5 N 0.502920 0.031350 0.204170
N6 N 0.269480 -0.002110 0.146570
N7 N 0.193650 0.112990 0.119820
N8 N 0.340600 0.229920 -0.232350
C1 C 0.450190 -0.165500 0.390330
C2 C 0.612640 -0.241930 0.409790
C3 C 0.727810 -0.152790 0.388560
C4 C 0.622030 -0.111390 0.382310
C5 C 0.613570 -0.068980 0.307340
C6 C 0.593850 0.025160 0.379930
C7 C 0.591920 -0.048030 0.432090
C8 C 0.797210 -0.287820 0.409780
C9 C 0.808940 -0.336470 0.359110
C10 C 0.887470 -0.394030 0.363350
C11 C 0.951300 -0.404800 0.416130
C12 C 0.937080 -0.354470 0.464700
C13 C 0.859620 -0.295290 0.463100
C14 C 0.652860 -0.052830 0.494810
C15 C 0.706360 0.005350 0.506480
C16 C 0.760250 -0.000300 0.564470
C17 C 0.761870 -0.066880 0.611880
C18 C 0.706900 -0.125570 0.602650
C19 C 0.652600 -0.118440 0.544390
C20 C 0.820420 -0.074690 0.672270
C21 C 0.556990 0.057520 0.256020
C22 C 0.518870 0.072630 0.133230
C23 C 0.438490 0.042860 0.096250
C24 C 0.345310 0.047810 0.152900
C25 C 0.392120 0.036310 0.223330
C26 C 0.286860 -0.083860 0.153790
C27 C 0.181630 0.035420 0.125700
C28 C 0.284000 0.124740 0.140210
C29 C 0.120250 0.173940 0.095800
C30 C 0.023560 0.178520 0.130140
C31 C -0.043950 0.240870 0.104860
C32 C -0.016430 0.293100 0.048650
C33 C 0.080910 0.283880 0.017510
C34 C 0.151870 0.224800 0.039540
C35 C 0.418480 0.082930 0.023560
C36 C 0.350800 0.055900 -0.014570
C37 C 0.328820 0.092810 -0.081300
C38 C 0.378150 0.155420 -0.110340
C39 C 0.447940 0.180700 -0.074010
C40 C 0.469010 0.144130 -0.006760
C41 C 0.356140 0.196710 -0.179220
H1 H 0.406200 -0.169200 0.441800
H2 H 0.428900 -0.111300 0.360700
H3 H 0.433200 -0.210000 0.362000
H4 H 0.575900 -0.101100 0.276200
H5 H 0.688000 -0.059700 0.281100
H6 H 0.669400 0.041900 0.366200
H7 H 0.545200 0.072400 0.400900
H8 H 0.516600 -0.053400 0.459900
H9 H 0.758300 -0.329400 0.317000
H10 H 1.011100 -0.451800 0.420400
H11 H 0.848000 -0.256700 0.503300
H12 H 0.704600 0.057300 0.469900
H13 H 0.801700 0.045900 0.572500
H14 H 0.705200 -0.176100 0.641500
H15 H 0.608800 -0.164300 0.537500
H16 H 0.522100 0.112900 0.268700
H17 H 0.635800 0.063300 0.235200
H18 H 0.504700 0.133900 0.134800
H19 H 0.595400 0.060300 0.108900
H20 H 0.461300 -0.014700 0.085500
H21 H 0.370800 -0.015600 0.255000
H22 H 0.366400 0.083200 0.253300
H23 H 0.218000 -0.108000 0.147200
H24 H 0.346000 -0.101900 0.113200
H25 H 0.311000 -0.106700 0.205300
H26 H 0.000700 0.136100 0.174500
H27 H -0.071000 0.340600 0.030100
H28 H 0.229400 0.218600 0.013200
H29 H 0.314000 0.006100 0.009000
H30 H 0.274700 0.072500 -0.111400
H31 H 0.486800 0.229800 -0.097400
H32 H 0.525000 0.164000 0.021300
Cl5 Cl 0.874480 0.047320 0.277560
Cl6 Cl 1.005690 0.118130 0.512810
Cl7 Cl -0.102420 0.830380 0.152050
Cl8 Cl 0.176210 0.921040 -0.057610
O5 O 0.559230 0.199460 0.428980
O6 O 0.795850 0.367480 0.367990
O7 O 0.126870 0.581490 0.095450
O8 O 0.371360 0.726170 0.129070
N9 N 0.543010 0.329550 0.401430
N10 N 0.698190 0.269150 0.402150
N11 N 0.563200 0.509110 0.316880
N12 N 0.846250 0.377150 0.729790
N13 N 0.522520 0.548400 0.200360
N14 N 0.286090 0.549530 0.133750
N15 N 0.235670 0.671530 0.103870
N16 N 0.418590 0.744320 -0.250090
C42 C 0.433420 0.342010 0.398640
C43 C 0.594140 0.258820 0.413080
C44 C 0.714310 0.342910 0.382310
C45 C 0.610610 0.388800 0.380170
C46 C 0.600230 0.430800 0.305540
C47 C 0.612670 0.523650 0.377140
C48 C 0.593640 0.452720 0.429670
C49 C 0.776940 0.205940 0.401090
C50 C 0.784670 0.162550 0.347250
C51 C 0.862110 0.102850 0.345940
C52 C 0.928550 0.087830 0.397190
C53 C 0.918970 0.134290 0.449830
C54 C 0.842590 0.193660 0.453980
C55 C 0.650760 0.439310 0.494530
C56 C 0.714330 0.489810 0.509270
C57 C 0.764400 0.476910 0.569960
C58 C 0.753030 0.410290 0.615250
C59 C 0.688400 0.358950 0.602210
C60 C 0.637390 0.374650 0.542840
C61 C 0.806320 0.394150 0.679300
C62 C 0.583920 0.561990 0.254010
C63 C 0.554420 0.582790 0.128470
C64 C 0.467550 0.567990 0.088970
C65 C 0.373120 0.588540 0.141860
C66 C 0.414180 0.574150 0.214840
C67 C 0.281800 0.469050 0.149040
C68 C 0.207060 0.597740 0.110310
C69 C 0.328610 0.670970 0.125210
C70 C 0.169890 0.737830 0.084310
C71 C 0.077500 0.748810 0.122170
C72 C 0.014800 0.815250 0.102410
C73 C 0.043100 0.868270 0.047830
C74 C 0.137380 0.854580 0.011830
C75 C 0.202820 0.789720 0.028140
C76 C 0.461910 0.606470 0.013790
C77 C 0.387180 0.589310 -0.025900
C78 C 0.378070 0.624690 -0.094440
C79 C 0.445380 0.676150 -0.124540
C80 C 0.522840 0.692010 -0.087560
C81 C 0.530480 0.656820 -0.017590
C82 C 0.432720 0.714960 -0.194770
H33 H 0.411700 0.397800 0.372100
H34 H 0.408100 0.300100 0.370900
H35 H 0.394600 0.337500 0.452500
H36 H 0.547100 0.406000 0.279000
H37 H 0.673300 0.428200 0.273400
H38 H 0.694400 0.525900 0.362000
H39 H 0.581200 0.574800 0.397200
H40 H 0.516000 0.457900 0.454500
H41 H 0.732300 0.174700 0.306100
H42 H 0.989400 0.041700 0.395800
H43 H 0.834400 0.228600 0.496300
H44 H 0.724900 0.541600 0.471800
H45 H 0.813200 0.517100 0.582000
H46 H 0.678300 0.307100 0.638600
H47 H 0.584800 0.336000 0.532800
H48 H 0.569000 0.620000 0.264600
H49 H 0.665100 0.552700 0.233200
H50 H 0.561500 0.642400 0.125500
H51 H 0.627000 0.554700 0.107300
H52 H 0.471900 0.508400 0.081400
H53 H 0.375200 0.532100 0.249600
H54 H 0.404400 0.626400 0.239900
H55 H 0.266700 0.445600 0.101800
H56 H 0.352200 0.440700 0.166500
H57 H 0.220300 0.456500 0.190400
H58 H 0.054600 0.708500 0.167300
H59 H -0.006700 0.918900 0.034000
H60 H 0.278700 0.780600 -0.002500
H61 H 0.336500 0.547100 -0.002900
H62 H 0.317100 0.612200 -0.123600
H63 H 0.576100 0.732100 -0.112400
H64 H 0.592100 0.667700 0.011900
N17 N 0.214900 0.836880 0.346780
C83 C 0.045510 0.843680 0.298090
C84 C 0.142560 0.839180 0.325860
H65 H 0.037100 0.795300 0.274500
H66 H 0.035800 0.894600 0.260300
H67 H -0.016500 0.850000 0.342100
N18 N -0.189900 0.473320 0.118220
C85 C -0.016140 0.453450 0.143520
C86 C -0.116070 0.463870 0.129530
H68 H 0.037700 0.424800 0.109400
H69 H 0.011900 0.506500 0.153000
H70 H -0.009900 0.417300 0.199700
N19 N 0.194440 0.340910 0.317160
C87 C 0.038150 0.283580 0.297440
C88 C 0.126730 0.314820 0.307180
H71 H -0.027800 0.318300 0.313000
H72 H 0.037300 0.227200 0.330000
H73 H 0.041200 0.274200 0.242700
loop_
_geom_bond_atom_site_label_1
_geom_bond_atom_site_label_2
_geom_bond_site_symmetry_1
_geom_bond_site_symmetry_2
Cl1 C10 1_555 1_555
Cl2 C12 1_555 1_555
Cl3 C31 1_555 1_555
Cl4 C33 1_555 1_555
O1 C2 1_555 1_555
O2 C3 1_555 1_555
O3 C27 1_555 1_555
O4 C28 1_555 1_555
N1 C1 1_555 1_555
N2 C2 1_555 1_555
N3 C5 1_555 1_555
N4 C20 1_555 1_555
N5 C21 1_555 1_555
N6 C24 1_555 1_555
N7 C27 1_555 1_555
N8 C41 1_555 1_555
C1 H1 1_555 1_555
C2 N1 1_555 1_555
C3 N2 1_555 1_555
C4 N1 1_555 1_555
C5 C4 1_555 1_555
C6 N3 1_555 1_555
C7 C4 1_555 1_555
C8 N2 1_555 1_555
C9 C8 1_555 1_555
C10 C9 1_555 1_555
C11 C10 1_555 1_555
C12 C11 1_555 1_555
C13 C8 1_555 1_555
C14 C7 1_555 1_555
C15 C14 1_555 1_555
C16 C15 1_555 1_555
C17 C16 1_555 1_555
C18 C17 1_555 1_555
C19 C14 1_555 1_555
C20 C17 1_555 1_555
C21 N3 1_555 1_555
C22 N5 1_555 1_555
C23 C22 1_555 1_555
C24 C23 1_555 1_555
C25 N5 1_555 1_555
C26 N6 1_555 1_555
C27 N6 1_555 1_555
C28 N7 1_555 1_555
C29 N7 1_555 1_555
C30 C29 1_555 1_555
C31 C30 1_555 1_555
C32 C31 1_555 1_555
C33 C32 1_555 1_555
C34 C29 1_555 1_555
C35 C23 1_555 1_555
C36 C35 1_555 1_555
C37 C36 1_555 1_555
C38 C37 1_555 1_555
C39 C38 1_555 1_555
C40 C35 1_555 1_555
C41 C38 1_555 1_555
H2 C1 1_555 1_555
H3 C1 1_555 1_555
H4 C5 1_555 1_555
H5 C5 1_555 1_555
H6 C6 1_555 1_555
H7 C6 1_555 1_555
H8 C7 1_555 1_555
H9 C9 1_555 1_555
H10 C11 1_555 1_555
H11 C13 1_555 1_555
H12 C15 1_555 1_555
H13 C16 1_555 1_555
H14 C18 1_555 1_555
H15 C19 1_555 1_555
H16 C21 1_555 1_555
H17 C21 1_555 1_555
H18 C22 1_555 1_555
H19 C22 1_555 1_555
H20 C23 1_555 1_555
H21 C25 1_555 1_555
H22 C25 1_555 1_555
H23 C26 1_555 1_555
H24 C26 1_555 1_555
H25 C26 1_555 1_555
H26 C30 1_555 1_555
H27 C32 1_555 1_555
H28 C34 1_555 1_555
H29 C36 1_555 1_555
H30 C37 1_555 1_555
H31 C39 1_555 1_555
H32 C40 1_555 1_555
Cl5 C51 1_555 1_555
Cl6 C53 1_555 1_555
Cl7 C72 1_555 1_555
Cl8 C74 1_555 1_555
O5 C43 1_555 1_555
O6 C44 1_555 1_555
O7 C68 1_555 1_555
O8 C69 1_555 1_555
N9 C42 1_555 1_555
N10 C43 1_555 1_555
N11 C46 1_555 1_555
N12 C61 1_555 1_555
N13 C62 1_555 1_555
N14 C65 1_555 1_555
N15 C68 1_555 1_555
N16 C82 1_555 1_555
C42 H33 1_555 1_555
C43 N9 1_555 1_555
C44 N10 1_555 1_555
C45 N9 1_555 1_555
C46 C45 1_555 1_555
C47 N11 1_555 1_555
C48 C45 1_555 1_555
C49 N10 1_555 1_555
C50 C49 1_555 1_555
C51 C50 1_555 1_555
C52 C51 1_555 1_555
C53 C52 1_555 1_555
C54 C49 1_555 1_555
C55 C48 1_555 1_555
C56 C55 1_555 1_555
C57 C56 1_555 1_555
C58 C57 1_555 1_555
C59 C58 1_555 1_555
C60 C55 1_555 1_555
C61 C58 1_555 1_555
C62 N11 1_555 1_555
C63 N13 1_555 1_555
C64 C63 1_555 1_555
C65 C64 1_555 1_555
C66 N13 1_555 1_555
C67 N14 1_555 1_555
C68 N14 1_555 1_555
C69 N15 1_555 1_555
C70 N15 1_555 1_555
C71 C70 1_555 1_555
C72 C71 1_555 1_555
C73 C72 1_555 1_555
C74 C73 1_555 1_555
C75 C70 1_555 1_555
C76 C64 1_555 1_555
C77 C76 1_555 1_555
C78 C77 1_555 1_555
C79 C78 1_555 1_555
C80 C79 1_555 1_555
C81 C76 1_555 1_555
C82 C79 1_555 1_555
H34 C42 1_555 1_555
H35 C42 1_555 1_555
H36 C46 1_555 1_555
H37 C46 1_555 1_555
H38 C47 1_555 1_555
H39 C47 1_555 1_555
H40 C48 1_555 1_555
H41 C50 1_555 1_555
H42 C52 1_555 1_555
H43 C54 1_555 1_555
H44 C56 1_555 1_555
H45 C57 1_555 1_555
H46 C59 1_555 1_555
H47 C60 1_555 1_555
H48 C62 1_555 1_555
H49 C62 1_555 1_555
H50 C63 1_555 1_555
H51 C63 1_555 1_555
H52 C64 1_555 1_555
H53 C66 1_555 1_555
H54 C66 1_555 1_555
H55 C67 1_555 1_555
H56 C67 1_555 1_555
H57 C67 1_555 1_555
H58 C71 1_555 1_555
H59 C73 1_555 1_555
H60 C75 1_555 1_555
H61 C77 1_555 1_555
H62 C78 1_555 1_555
H63 C80 1_555 1_555
H64 C81 1_555 1_555
N17 C84 1_555 1_555
C83 C84 1_555 1_555
H65 C83 1_555 1_555
H66 C83 1_555 1_555
H67 C83 1_555 1_555
N18 C86 1_555 1_555
C85 C86 1_555 1_555
H68 C85 1_555 1_555
H69 C85 1_555 1_555
H70 C85 1_555 1_555
N19 C88 1_555 1_555
C87 C88 1_555 1_555
H71 C87 1_555 1_555
H72 C87 1_555 1_555
H73 C87 1_555 1_555
C3 C4 1_555 1_555
C6 C7 1_555 1_555
C12 C13 1_555 1_555
C18 C19 1_555 1_555
C24 C25 1_555 1_555
C24 C28 1_555 1_555
C33 C34 1_555 1_555
C39 C40 1_555 1_555
C44 C45 1_555 1_555
C47 C48 1_555 1_555
C53 C54 1_555 1_555
C59 C60 1_555 1_555
C65 C66 1_555 1_555
C65 C69 1_555 1_555
C74 C75 1_555 1_555
C80 C81 1_555 1_555

#END
