
#######################################################################
#
#                 Cambridge Crystallographic Data Centre
#                                CCDC 
#
#######################################################################
#
# If this CIF has been generated from an entry in the Cambridge 
# Structural Database, then it will include bibliographic, chemical, 
# crystal, experimental, refinement or atomic coordinate data resulting 
# from the CCDC's data processing and validation procedures.
#
#######################################################################

data_IYADUJ
_chemical_name_common            
"(5-methyl-2-oxo-1,3-dioxol-4-yl)methyl 2-ethoxy-1-((2'-(5-oxo-4,5-dihydro-1,2,4-oxadiazol-3-yl)biphenyl-4-yl)methyl)-1H-benzimidazole-7-carboxylate N,N-dimethylacetamide solvate"
_chemical_formula_moiety         'C30 H24 N4 O8,C4 H9 N1 O1'
_chemical_name_systematic        
'Azilsartan medoxomil N,N-dimethylacetamide solvate'
_symmetry_cell_setting           monoclinic
_symmetry_space_group_name_H-M   'P 21/n'
_symmetry_Int_Tables_number      14
_space_group_name_Hall           '-P 2yn'
loop_
_symmetry_equiv_pos_site_id
_symmetry_equiv_pos_as_xyz
1 x,y,z
2 1/2-x,1/2+y,1/2-z
3 -x,-y,-z
4 1/2+x,1/2-y,1/2+z
_cell_length_a                   16.427(5)
_cell_length_b                   9.562(3)
_cell_length_c                   21.968(6)
_cell_angle_alpha                90
_cell_angle_beta                 109.076(4)
_cell_angle_gamma                90
_cell_volume                     3261.14
_exptl_crystal_colour            colorless
_exptl_crystal_description       block
_cell_formula_units_Z            4
loop_
_atom_site_label
_atom_site_type_symbol
_atom_site_fract_x
_atom_site_fract_y
_atom_site_fract_z
C1 C 0.09389(14) 0.2200(3) 1.10461(10)
C2 C 0.18375(12) 0.0888(2) 1.07486(9)
C3 C 0.25760(12) 0.04502(19) 1.05508(9)
C4 C 0.31896(14) -0.0391(2) 1.09819(10)
H1 H 0.3109 -0.0664 1.1364
C5 C 0.39152(14) -0.0825(2) 1.08505(12)
H2 H 0.4323 -0.1384 1.1142
C6 C 0.40288(14) -0.0420(2) 1.02836(12)
H3 H 0.4516 -0.0708 1.0191
C7 C 0.34250(13) 0.0410(2) 0.98515(10)
H4 H 0.3516 0.0677 0.9472
C8 C 0.26785(11) 0.08636(18) 0.99672(9)
C9 C 0.20412(11) 0.17416(19) 0.94819(8)
C10 C 0.11495(12) 0.1566(2) 0.93254(9)
H5 H 0.0939 0.0847 0.9517
C11 C 0.05792(12) 0.2443(2) 0.88922(9)
H6 H -0.0010 0.2309 0.8800
C12 C 0.08675(12) 0.3523(2) 0.85902(8)
C13 C 0.17505(12) 0.3669(2) 0.87280(9)
H7 H 0.1959 0.4365 0.8523
C14 C 0.23254(12) 0.2799(2) 0.91647(8)
H8 H 0.2913 0.2922 0.9248
C15 C 0.02448(13) 0.4526(2) 0.81367(9)
H9 H -0.0148 0.4889 0.8345
H10 H 0.0564 0.5308 0.8048
C16 C -0.2763(2) 0.3546(4) 0.8043(3)
H11 H -0.2436 0.3633 0.8492
H12 H -0.3281 0.3029 0.7997
H13 H -0.2909 0.4459 0.7859
C17 C -0.22796(19) 0.2850(4) 0.77307(16)
H14 H -0.2587 0.2846 0.7271
H15 H -0.2199 0.1887 0.7877
C18 C -0.10376(13) 0.3220(2) 0.74272(10)
C19 C 0.00143(11) 0.33932(19) 0.70209(8)
C20 C -0.06505(12) 0.2495(2) 0.66604(9)
C21 C -0.06124(14) 0.1843(2) 0.61109(10)
H16 H -0.1060 0.1273 0.5869
C22 C 0.01052(14) 0.2056(2) 0.59297(10)
H17 H 0.0148 0.1606 0.5566
C23 C 0.07628(13) 0.2928(2) 0.62793(9)
H18 H 0.1241 0.3041 0.6146
C24 C 0.07351(11) 0.36487(19) 0.68277(8)
C25 C 0.13862(12) 0.4741(2) 0.71087(9)
C26 C 0.28554(12) 0.5420(2) 0.72843(11)
H19 H 0.2680 0.6174 0.7510
H20 H 0.3004 0.5817 0.6928
C27 C 0.36011(12) 0.4687(2) 0.77243(9)
C28 C 0.42962(14) 0.3651(3) 0.86445(11)
C29 C 0.43537(12) 0.4292(2) 0.76935(9)
C30 C 0.47927(16) 0.4379(3) 0.72053(11)
H21 H 0.4415 0.4805 0.6821
H22 H 0.4944 0.3456 0.7108
H23 H 0.5305 0.4934 0.7370
H24 H 0.1878(14) 0.298(2) 1.0743(10)
N1 N 0.16231(10) 0.22295(19) 1.08270(7)
N2 N 0.13414(13) -0.0006(2) 1.08956(10)
N3 N -0.02545(10) 0.38598(17) 0.75254(7)
N4 N -0.13103(11) 0.24160(19) 0.69301(8)
O1 O 0.05440(12) 0.3137(2) 1.11880(9)
O2 O 0.07439(10) 0.08286(18) 1.10857(8)
O3 O -0.14372(10) 0.3512(2) 0.78531(8)
O4 O 0.12630(10) 0.58136(16) 0.73511(8)
O5 O 0.21529(8) 0.44174(15) 0.70433(7)
O6 O 0.35462(9) 0.42893(16) 0.83234(7)
O7 O 0.48085(8) 0.36394(15) 0.82744(6)
O8 O 0.44749(11) 0.3174(2) 0.91725(8)
C31 C 0.10532(17) 0.5849(3) 1.01834(15)
H25 H 0.0930 0.5299 1.0509
H26 H 0.0647 0.5625 0.9769
H27 H 0.1009 0.6824 1.0272
C32 C 0.19583(16) 0.5529(3) 1.01846(12)
C33 C 0.1788(2) 0.7391(3) 0.93842(15)
H28 H 0.1234 0.7501 0.9436
H29 H 0.1715 0.7120 0.8949
H30 H 0.2096 0.8261 0.9478
C34 C 0.31737(16) 0.6033(3) 0.98518(15)
H31 H 0.3557 0.6654 1.0157
H32 H 0.3220 0.6190 0.9433
H33 H 0.3326 0.5083 0.9980
N5 N 0.22812(14) 0.6299(2) 0.98309(10)
O9 O 0.23873(10) 0.45561(17) 1.05211(8)
loop_
_geom_bond_atom_site_label_1
_geom_bond_atom_site_label_2
_geom_bond_site_symmetry_1
_geom_bond_site_symmetry_2
C1 N1 1_555 1_555
C2 C3 1_555 1_555
C3 C4 1_555 1_555
C4 H1 1_555 1_555
C5 C4 1_555 1_555
H2 C5 1_555 1_555
C6 C5 1_555 1_555
H3 C6 1_555 1_555
C7 C6 1_555 1_555
H4 C7 1_555 1_555
C8 C3 1_555 1_555
C9 C8 1_555 1_555
C10 C9 1_555 1_555
H5 C10 1_555 1_555
C11 C10 1_555 1_555
H6 C11 1_555 1_555
C12 C11 1_555 1_555
C13 C12 1_555 1_555
H7 C13 1_555 1_555
C14 C9 1_555 1_555
H8 C14 1_555 1_555
C15 C12 1_555 1_555
H9 C15 1_555 1_555
H10 C15 1_555 1_555
C16 H11 1_555 1_555
H12 C16 1_555 1_555
H13 C16 1_555 1_555
C17 C16 1_555 1_555
H14 C17 1_555 1_555
H15 C17 1_555 1_555
C18 N3 1_555 1_555
C19 C20 1_555 1_555
C20 C21 1_555 1_555
C21 H16 1_555 1_555
C22 C21 1_555 1_555
H17 C22 1_555 1_555
C23 C22 1_555 1_555
H18 C23 1_555 1_555
C24 C19 1_555 1_555
C25 C24 1_555 1_555
C26 H19 1_555 1_555
H20 C26 1_555 1_555
C27 C26 1_555 1_555
C28 O6 1_555 1_555
C29 C27 1_555 1_555
C30 C29 1_555 1_555
H21 C30 1_555 1_555
H22 C30 1_555 1_555
H23 C30 1_555 1_555
H24 N1 1_555 1_555
N1 C2 1_555 1_555
N2 C2 1_555 1_555
N3 C15 1_555 1_555
N4 C18 1_555 1_555
O1 C1 1_555 1_555
O2 C1 1_555 1_555
O3 C17 1_555 1_555
O4 C25 1_555 1_555
O5 C25 1_555 1_555
O6 C27 1_555 1_555
O7 C28 1_555 1_555
O8 C28 1_555 1_555
C31 H25 1_555 1_555
H26 C31 1_555 1_555
H27 C31 1_555 1_555
C32 C31 1_555 1_555
C33 H28 1_555 1_555
H29 C33 1_555 1_555
H30 C33 1_555 1_555
C34 H31 1_555 1_555
H32 C34 1_555 1_555
H33 C34 1_555 1_555
N5 C32 1_555 1_555
O9 C32 1_555 1_555
C7 C8 1_555 1_555
C13 C14 1_555 1_555
C18 O3 1_555 1_555
C19 N3 1_555 1_555
C20 N4 1_555 1_555
C23 C24 1_555 1_555
C26 O5 1_555 1_555
C29 O7 1_555 1_555
N2 O2 1_555 1_555
C33 N5 1_555 1_555
C34 N5 1_555 1_555

#END
