
#######################################################################
#
#                 Cambridge Crystallographic Data Centre
#                                CCDC 
#
#######################################################################
#
# If this CIF has been generated from an entry in the Cambridge 
# Structural Database, then it will include bibliographic, chemical, 
# crystal, experimental, refinement or atomic coordinate data resulting 
# from the CCDC's data processing and validation procedures.
#
#######################################################################

data_IYAGAS
_chemical_formula_moiety         'C29 H35 N3 O2'
_chemical_name_systematic        
3-((3-methyl-4-(1-(octyloxy)prop-2-en-1-yl)-5-oxo-1-phenyl-4,5-dihydro-1H-pyrazol-4-yl)methyl)benzonitrile
_symmetry_cell_setting           triclinic
_symmetry_space_group_name_H-M   'P -1'
_symmetry_Int_Tables_number      2
_space_group_name_Hall           '-P 1'
loop_
_symmetry_equiv_pos_site_id
_symmetry_equiv_pos_as_xyz
1 x,y,z
2 -x,-y,-z
_cell_length_a                   7.9220(3)
_cell_length_b                   9.1466(3)
_cell_length_c                   19.2078(6)
_cell_angle_alpha                90.682(2)
_cell_angle_beta                 92.776(2)
_cell_angle_gamma                97.318(3)
_cell_volume                     1378.6
_exptl_crystal_colour            colorless
_exptl_crystal_description       plate
_cell_formula_units_Z            2
loop_
_atom_site_label
_atom_site_type_symbol
_atom_site_fract_x
_atom_site_fract_y
_atom_site_fract_z
O1 O 0.8946(2) 0.4623(2) 0.73101(10)
O2 O 0.7591(2) 0.1177(2) 0.78138(9)
N1 N 0.5035(2) 0.2696(2) 0.67584(10)
N2 N 0.6074(2) 0.3930(2) 0.70633(10)
N3 N 0.7862(4) 0.8565(3) 0.51716(16)
C1 C 0.7760(3) 0.3759(3) 0.70678(12)
C2 C 0.7869(3) 0.2288(3) 0.67209(12)
C3 C 0.6010(3) 0.1770(3) 0.65655(11)
C4 C 0.5262(4) 0.0347(3) 0.62214(15)
H1 H 0.5358 -0.0446 0.6538
H2 H 0.5865 0.0185 0.5811
H3 H 0.4082 0.0385 0.6093
C5 C 0.8747(3) 0.1368(3) 0.72661(13)
H4 H 0.9796 0.1960 0.7449
C6 C 0.9191(4) -0.0079(4) 0.70126(16)
H5 H 0.8314 -0.0784 0.6842
C7 C 1.0734(6) -0.0400(5) 0.7019(3)
H6 H 1.1633 0.0287 0.7187
H7 H 1.0945 -0.1317 0.6855
C8 C 0.8938(3) 0.2486(3) 0.60623(13)
H8 H 1.0077 0.2946 0.6203
H9 H 0.9037 0.1520 0.5867
C9 C 0.7442(4) 0.2734(3) 0.48921(14)
H10 H 0.7374 0.1717 0.4833
C10 C 0.6786(4) 0.3552(3) 0.43732(15)
H11 H 0.6277 0.3084 0.3969
C11 C 0.6877(4) 0.5050(3) 0.44480(14)
H12 H 0.6431 0.5602 0.4097
C12 C 0.7638(3) 0.5738(3) 0.50516(12)
C13 C 0.8315(3) 0.4910(3) 0.55750(12)
H13 H 0.8842 0.5380 0.5975
C14 C 0.8208(3) 0.3398(3) 0.55048(12)
C15 C 0.7761(4) 0.7308(3) 0.51209(15)
C16 C 0.5285(3) 0.5081(3) 0.73575(11)
C17 C 0.3581(3) 0.4873(3) 0.74806(15)
H14 H 0.2941 0.3969 0.7369
C18 C 0.2813(4) 0.5979(4) 0.77651(18)
H15 H 0.1656 0.5821 0.7844
C19 C 0.3743(4) 0.7332(4) 0.79375(17)
H16 H 0.3228 0.8080 0.8140
C20 C 0.5433(5) 0.7544(3) 0.78032(18)
H17 H 0.6067 0.8453 0.7910
C21 C 0.6220(4) 0.6436(3) 0.75109(16)
H18 H 0.7369 0.6602 0.7418
C22 C 0.8348(5) 0.1318(5) 0.84933(16)
H19 H 0.9053 0.2264 0.8551
H20 H 0.9067 0.0547 0.8573
C23 C 0.6974(7) 0.1201(6) 0.9007(2)
H21 H 0.6330 0.0226 0.8961
H22 H 0.7503 0.1297 0.9474
C24 C 0.5826(8) 0.2267(7) 0.8929(3)
H23 H 0.5222 0.2130 0.8477
H24 H 0.6464 0.3246 0.8947
C25 C 0.4544(11) 0.2143(12) 0.9498(4)
H25 H 0.4016 0.1126 0.9499
H26 H 0.5181 0.2330 0.9941
C26 C 0.3292(12) 0.2994(12) 0.9484(4)
H27 H 0.2891 0.3072 0.9002
H28 H 0.3772 0.3974 0.9645
C27 C 0.172(2) 0.249(3) 0.9920(9)
H29 H 0.0677 0.2558 0.9641
H30 H 0.1726 0.1466 1.0049
C28 C 0.176(2) 0.336(2) 1.0509(9)
H31 H 0.1858 0.4387 1.0386
H32 H 0.2729 0.3207 1.0815
C29 C 0.0064(11) 0.2913(11) 1.0886(4)
H33 H 0.0063 0.3507 1.1301
H34 H -0.0889 0.3068 1.0580
H35 H -0.0021 0.1892 1.1007
H36? H 0.2375 0.2509 0.9177
H37? H 0.3718 0.3907 0.9264
C30? C 0.249(2) 0.341(2) 1.0172(8)
H38? H 0.3275 0.3320 1.0567
H39? H 0.2237 0.4420 1.0156
C31? C 0.100(2) 0.245(3) 1.0233(9)
H40? H 0.1270 0.1448 1.0285
H41? H 0.0264 0.2476 0.9816
H42? H -0.0966 0.2250 1.0930
H43? H 0.0794 0.2874 1.1297
H44? H -0.0209 0.3899 1.0829
loop_
_geom_bond_atom_site_label_1
_geom_bond_atom_site_label_2
_geom_bond_site_symmetry_1
_geom_bond_site_symmetry_2
O1 C1 1_555 1_555
O2 C5 1_555 1_555
N1 N2 1_555 1_555
N2 C1 1_555 1_555
N3 C15 1_555 1_555
C1 C2 1_555 1_555
C2 C3 1_555 1_555
C3 N1 1_555 1_555
C4 C3 1_555 1_555
H1 C4 1_555 1_555
H2 C4 1_555 1_555
H3 C4 1_555 1_555
C5 C2 1_555 1_555
H4 C5 1_555 1_555
C6 C5 1_555 1_555
H5 C6 1_555 1_555
C7 C6 1_555 1_555
H6 C7 1_555 1_555
H7 C7 1_555 1_555
C8 C2 1_555 1_555
H8 C8 1_555 1_555
H9 C8 1_555 1_555
C9 H10 1_555 1_555
C10 C9 1_555 1_555
H11 C10 1_555 1_555
C11 C10 1_555 1_555
H12 C11 1_555 1_555
C12 C11 1_555 1_555
C13 C12 1_555 1_555
H13 C13 1_555 1_555
C14 C8 1_555 1_555
C15 C12 1_555 1_555
C16 N2 1_555 1_555
C17 C16 1_555 1_555
H14 C17 1_555 1_555
C18 C17 1_555 1_555
H15 C18 1_555 1_555
C19 C18 1_555 1_555
H16 C19 1_555 1_555
C20 C19 1_555 1_555
H17 C20 1_555 1_555
C21 C16 1_555 1_555
H18 C21 1_555 1_555
C22 O2 1_555 1_555
H19 C22 1_555 1_555
H20 C22 1_555 1_555
C23 C22 1_555 1_555
H21 C23 1_555 1_555
H22 C23 1_555 1_555
C24 C23 1_555 1_555
H23 C24 1_555 1_555
H24 C24 1_555 1_555
C25 C24 1_555 1_555
H25 C25 1_555 1_555
H26 C25 1_555 1_555
C26 C25 1_555 1_555
H27 C26 1_555 1_555
H28 C26 1_555 1_555
C27 C26 1_555 1_555
H29 C27 1_555 1_555
H30 C27 1_555 1_555
C28 C27 1_555 1_555
H31 C28 1_555 1_555
H32 C28 1_555 1_555
C29 C28 1_555 1_555
H33 C29 1_555 1_555
H34 C29 1_555 1_555
H35 C29 1_555 1_555
C9 C14 1_555 1_555
C13 C14 1_555 1_555
C20 C21 1_555 1_555

#END
