
#######################################################################
#
#                 Cambridge Crystallographic Data Centre
#                                CCDC 
#
#######################################################################
#
# If this CIF has been generated from an entry in the Cambridge 
# Structural Database, then it will include bibliographic, chemical, 
# crystal, experimental, refinement or atomic coordinate data resulting 
# from the CCDC's data processing and validation procedures.
#
#######################################################################

data_IYAJEZ
_chemical_formula_moiety         'C18 H16 Cl1 N3 O3'
_chemical_name_systematic        
(3R,7\aS)-3-(4-chlorophenyl)-2-(4-nitrophenyl)hexahydro-1H-pyrrolo[1,2-c]imidazol-1-one
_symmetry_cell_setting           orthorhombic
_symmetry_space_group_name_H-M   'P 21 21 21'
_symmetry_Int_Tables_number      19
_space_group_name_Hall           'P 2ac 2ab'
loop_
_symmetry_equiv_pos_site_id
_symmetry_equiv_pos_as_xyz
1 x,y,z
2 1/2-x,-y,1/2+z
3 -x,1/2+y,1/2-z
4 1/2+x,1/2-y,-z
_cell_length_a                   6.6720(13)
_cell_length_b                   8.0540(16)
_cell_length_c                   31.570(6)
_cell_angle_alpha                90
_cell_angle_beta                 90
_cell_angle_gamma                90
_cell_volume                     1696.45
_chemical_melting_point          '146.0-151.8 deg.C'
_cell_formula_units_Z            4
loop_
_atom_site_label
_atom_site_type_symbol
_atom_site_fract_x
_atom_site_fract_y
_atom_site_fract_z
Cl1 Cl 0.4975(3) 0.6402(2) 0.25324(4)
N1 N 1.1053(7) 1.1756(4) 0.15647(11)
O1 O 0.7980(7) 1.3394(5) 0.07513(12)
C1 C 0.8853(9) 1.2530(6) 0.10018(15)
N2 N 0.9358(6) 1.0886(4) 0.09558(10)
O2 O 0.8791(6) 0.7651(5) -0.08589(11)
C2 C 0.9643(10) 1.3063(6) 0.14395(17)
H1 H 0.8544 1.3155 0.1644
N3 N 0.9000(6) 0.6951(6) -0.05164(13)
O3 O 0.9103(7) 0.5452(5) -0.04772(12)
C3 C 1.0916(13) 1.4685(7) 0.1431(2)
H2 H 1.0812 1.5225 0.1157
H3 H 1.0467 1.5452 0.1648
C4 C 1.3032(12) 1.4145(7) 0.1513(2)
H4 H 1.3387 1.4299 0.1808
H5 H 1.3969 1.4757 0.1338
C5 C 1.3010(9) 1.2329(6) 0.13972(18)
H6 H 1.3087 1.2179 0.1093
H7 H 1.4112 1.1741 0.1530
C6 C 1.0324(7) 1.0256(5) 0.13494(12)
H8 H 1.1466 0.9549 0.1274
C7 C 0.8919(7) 0.9304(5) 0.16411(12)
C8 C 0.9662(8) 0.8755(5) 0.20328(13)
H9 H 1.0975 0.9002 0.2110
C9 C 0.8464(9) 0.7853(5) 0.23051(15)
H10 H 0.8962 0.7485 0.2564
C10 C 0.6516(9) 0.7505(6) 0.21877(15)
C11 C 0.5736(8) 0.8039(5) 0.18065(14)
H11 H 0.4417 0.7800 0.1733
C12 C 0.6956(7) 0.8942(5) 0.15334(13)
H12 H 0.6447 0.9306 0.1275
C13 C 0.9184(7) 0.9920(5) 0.05861(13)
C14 C 0.9144(7) 0.8201(5) 0.06172(13)
H13 H 0.9166 0.7700 0.0883
C15 C 0.9073(6) 0.7230(5) 0.02571(14)
H14 H 0.9043 0.6078 0.0278
C16 C 0.9046(7) 0.7994(6) -0.01332(13)
C17 C 0.9086(8) 0.9681(6) -0.01740(14)
H15 H 0.9078 1.0168 -0.0441
C18 C 0.9139(8) 1.0666(6) 0.01877(14)
H16 H 0.9145 1.1817 0.0164
loop_
_geom_bond_atom_site_label_1
_geom_bond_atom_site_label_2
_geom_bond_site_symmetry_1
_geom_bond_site_symmetry_2
Cl1 C10 1_555 1_555
N1 C2 1_555 1_555
O1 C1 1_555 1_555
C1 N2 1_555 1_555
N2 C6 1_555 1_555
O2 N3 1_555 1_555
C2 C1 1_555 1_555
H1 C2 1_555 1_555
N3 O3 1_555 1_555
C3 C2 1_555 1_555
H2 C3 1_555 1_555
H3 C3 1_555 1_555
C4 C3 1_555 1_555
H4 C4 1_555 1_555
H5 C4 1_555 1_555
C5 N1 1_555 1_555
H6 C5 1_555 1_555
H7 C5 1_555 1_555
C6 N1 1_555 1_555
H8 C6 1_555 1_555
C7 C6 1_555 1_555
C8 C7 1_555 1_555
H9 C8 1_555 1_555
C9 C8 1_555 1_555
H10 C9 1_555 1_555
C10 C9 1_555 1_555
C11 C10 1_555 1_555
H11 C11 1_555 1_555
C12 C7 1_555 1_555
H12 C12 1_555 1_555
C13 N2 1_555 1_555
C14 C13 1_555 1_555
H13 C14 1_555 1_555
C15 C14 1_555 1_555
H14 C15 1_555 1_555
C16 N3 1_555 1_555
C17 C16 1_555 1_555
H15 C17 1_555 1_555
C18 C13 1_555 1_555
H16 C18 1_555 1_555
C4 C5 1_555 1_555
C11 C12 1_555 1_555
C15 C16 1_555 1_555
C17 C18 1_555 1_555

#END
