
#######################################################################
#
#                 Cambridge Crystallographic Data Centre
#                                CCDC 
#
#######################################################################
#
# If this CIF has been generated from an entry in the Cambridge 
# Structural Database, then it will include bibliographic, chemical, 
# crystal, experimental, refinement or atomic coordinate data resulting 
# from the CCDC's data processing and validation procedures.
#
#######################################################################

data_IYAJAV
_chemical_formula_moiety         'C18 H16 N4 O5'
_chemical_name_systematic        
(3R,7\aS)-2,3-bis(4-nitrophenyl)hexahydro-1H-pyrrolo[1,2-c]imidazol-1-one
_chemical_properties_biological  
'Antiviral activity against wild-type DENV-2 virus'
_symmetry_cell_setting           monoclinic
_symmetry_space_group_name_H-M   'C 2'
_symmetry_Int_Tables_number      5
_space_group_name_Hall           'C 2y'
loop_
_symmetry_equiv_pos_site_id
_symmetry_equiv_pos_as_xyz
1 x,y,z
2 -x,y,-z
3 1/2+x,1/2+y,z
4 1/2-x,1/2+y,-z
_cell_length_a                   31.746(6)
_cell_length_b                   6.9740(14)
_cell_length_c                   8.1230(16)
_cell_angle_alpha                90
_cell_angle_beta                 102.94(3)
_cell_angle_gamma                90
_cell_volume                     1752.73
_chemical_melting_point          '125.3-142.1 deg.C'
_cell_formula_units_Z            4
loop_
_atom_site_label
_atom_site_type_symbol
_atom_site_fract_x
_atom_site_fract_y
_atom_site_fract_z
O1 O 0.68410(12) 0.8079(8) 1.0202(4)
C1 C 0.65736(14) 0.7214(10) 0.9187(5)
N1 N 0.59719(11) 0.5240(8) 0.8041(4)
N2 N 0.65973(10) 0.6664(7) 0.7590(4)
O2 O 0.50369(16) 1.2280(9) 0.2277(7)
C2 C 0.61314(15) 0.6560(11) 0.9422(6)
H1 H 0.5936 0.7656 0.9372
O3 O 0.46913(13) 0.9773(8) 0.1185(5)
N3 N 0.49908(15) 1.0538(9) 0.2170(6)
C3 C 0.61510(19) 0.5386(16) 1.1044(7)
H2 H 0.6445 0.5321 1.1710
H3 H 0.5970 0.5963 1.1725
N4 N 0.80520(13) 0.7034(7) 0.4727(6)
O4 O 0.84071(10) 0.7215(8) 0.5653(5)
C4 C 0.5990(2) 0.3435(14) 1.0473(7)
H4 H 0.5682 0.3321 1.0408
H5 H 0.6142 0.2453 1.1223
O5 O 0.79962(12) 0.6899(9) 0.3194(5)
C5 C 0.60888(19) 0.3294(11) 0.8751(6)
H6 H 0.6392 0.3019 0.8829
H7 H 0.5915 0.2312 0.8074
C6 C 0.61857(12) 0.5768(8) 0.6698(5)
H8 H 0.6247 0.4611 0.6109
C7 C 0.58909(13) 0.7090(9) 0.5456(5)
C8 C 0.55324(13) 0.6264(8) 0.4399(5)
H9 H 0.5491 0.4945 0.4428
C9 C 0.52393(14) 0.7374(9) 0.3315(6)
H10 H 0.4999 0.6824 0.2607
C10 C 0.53079(15) 0.9313(10) 0.3294(6)
C11 C 0.56667(16) 1.0155(10) 0.4308(7)
H11 H 0.5713 1.1469 0.4258
C12 C 0.59547(15) 0.9017(9) 0.5393(6)
H12 H 0.6196 0.9568 0.6094
C13 C 0.69625(12) 0.6822(8) 0.6881(5)
C14 C 0.69109(13) 0.6892(8) 0.5149(5)
H13 H 0.6634 0.6892 0.4457
C15 C 0.72678(13) 0.6961(8) 0.4431(5)
H14 H 0.7233 0.7017 0.3265
C16 C 0.76735(13) 0.6946(8) 0.5473(6)
C17 C 0.77335(13) 0.6867(10) 0.7194(6)
H15 H 0.8011 0.6859 0.7874
C18 C 0.73787(13) 0.6798(10) 0.7911(6)
H16 H 0.7417 0.6736 0.9079
loop_
_geom_bond_atom_site_label_1
_geom_bond_atom_site_label_2
_geom_bond_site_symmetry_1
_geom_bond_site_symmetry_2
O1 C1 1_555 1_555
C1 N2 1_555 1_555
N1 C2 1_555 1_555
N2 C6 1_555 1_555
O2 N3 1_555 1_555
C2 C1 1_555 1_555
H1 C2 1_555 1_555
O3 N3 1_555 1_555
N3 C10 1_555 1_555
C3 C2 1_555 1_555
H2 C3 1_555 1_555
H3 C3 1_555 1_555
N4 O4 1_555 1_555
C4 C3 1_555 1_555
H4 C4 1_555 1_555
H5 C4 1_555 1_555
O5 N4 1_555 1_555
C5 N1 1_555 1_555
H6 C5 1_555 1_555
H7 C5 1_555 1_555
C6 N1 1_555 1_555
H8 C6 1_555 1_555
C7 C6 1_555 1_555
C8 C7 1_555 1_555
H9 C8 1_555 1_555
C9 C8 1_555 1_555
H10 C9 1_555 1_555
C10 C9 1_555 1_555
C11 C10 1_555 1_555
H11 C11 1_555 1_555
C12 C7 1_555 1_555
H12 C12 1_555 1_555
C13 N2 1_555 1_555
C14 C13 1_555 1_555
H13 C14 1_555 1_555
C15 C14 1_555 1_555
H14 C15 1_555 1_555
C16 N4 1_555 1_555
C17 C16 1_555 1_555
H15 C17 1_555 1_555
C18 C13 1_555 1_555
H16 C18 1_555 1_555
C4 C5 1_555 1_555
C11 C12 1_555 1_555
C15 C16 1_555 1_555
C17 C18 1_555 1_555

#END
