
#######################################################################
#
#                 Cambridge Crystallographic Data Centre
#                                CCDC 
#
#######################################################################
#
# If this CIF has been generated from an entry in the Cambridge 
# Structural Database, then it will include bibliographic, chemical, 
# crystal, experimental, refinement or atomic coordinate data resulting 
# from the CCDC's data processing and validation procedures.
#
#######################################################################

data_IYASUY
_chemical_formula_moiety         'C18 H15 N1 O1'
_chemical_name_systematic        4-methyl-2-(1-naphthylcarbonoimidoyl)phenol
_symmetry_cell_setting           monoclinic
_symmetry_space_group_name_H-M   'P 21/c'
_symmetry_Int_Tables_number      14
_space_group_name_Hall           '-P 2ybc'
loop_
_symmetry_equiv_pos_site_id
_symmetry_equiv_pos_as_xyz
1 x,y,z
2 -x,1/2+y,1/2-z
3 -x,-y,-z
4 x,1/2-y,1/2+z
_cell_length_a                   7.7237(11)
_cell_length_b                   12.7346(19)
_cell_length_c                   28.877(3)
_cell_angle_alpha                90
_cell_angle_beta                 90.026(2)
_cell_angle_gamma                90
_cell_volume                     2840.29
_exptl_crystal_colour            yellow
_exptl_crystal_description       block
_cell_formula_units_Z            8
loop_
_atom_site_label
_atom_site_type_symbol
_atom_site_fract_x
_atom_site_fract_y
_atom_site_fract_z
N1 N 0.3843(3) 0.7117(2) 0.08301(10)
O1 O 0.2590(3) 0.54681(19) 0.04099(9)
H1 H 0.2841 0.5853 0.0627
C1 C 0.3842(4) 0.6915(3) 0.00036(12)
C2 C 0.3049(4) 0.5940(3) 0.00040(14)
C3 C 0.2706(5) 0.5433(3) -0.04091(17)
H2 H 0.2195 0.4771 -0.0410
C4 C 0.3129(5) 0.5919(4) -0.08178(15)
H3 H 0.2857 0.5583 -0.1094
C5 C 0.3936(4) 0.6880(4) -0.08367(13)
C6 C 0.4275(4) 0.7362(3) -0.04194(12)
H4 H 0.4815 0.8015 -0.0421
C7 C 0.4207(4) 0.7483(3) 0.04260(12)
H5 H 0.4726 0.8140 0.0405
C8 C 0.4173(4) 0.7759(3) 0.12223(11)
C9 C 0.3743(4) 0.8796(3) 0.12264(13)
H6 H 0.3211 0.9098 0.0970
C10 C 0.4102(5) 0.9406(3) 0.16172(17)
H7 H 0.3789 1.0111 0.1619
C11 C 0.4896(5) 0.8989(4) 0.19922(15)
H8 H 0.5152 0.9414 0.2245
C12 C 0.5336(4) 0.7917(4) 0.20022(12)
C13 C 0.6190(5) 0.7458(4) 0.23815(12)
H9 H 0.6470 0.7870 0.2637
C14 C 0.6612(5) 0.6429(4) 0.23810(13)
H10 H 0.7187 0.6140 0.2634
C15 C 0.6189(4) 0.5797(3) 0.20043(13)
H11 H 0.6473 0.5087 0.2009
C16 C 0.5363(4) 0.6210(3) 0.16290(11)
H12 H 0.5081 0.5779 0.1380
C17 C 0.4933(4) 0.7286(3) 0.16143(11)
C18 C 0.4422(4) 0.7389(3) -0.12917(11)
H13 H 0.5621 0.7586 -0.1285
H14 H 0.3723 0.8003 -0.1339
H15 H 0.4230 0.6902 -0.1540
N2 N 0.1161(3) 0.2123(2) 0.08319(10)
O2 O 0.2417(3) 0.04717(19) 0.04095(9)
H16 H 0.2143 0.0851 0.0627
C19 C 0.1164(4) 0.1915(3) 0.00051(12)
C20 C 0.1950(4) 0.0935(3) 0.00065(14)
C21 C 0.2300(5) 0.0433(3) -0.04071(18)
H17 H 0.2820 -0.0225 -0.0409
C22 C 0.1868(5) 0.0921(4) -0.08173(15)
H18 H 0.2128 0.0584 -0.1094
C23 C 0.1063(4) 0.1891(4) -0.08351(13)
C24 C 0.0729(4) 0.2362(3) -0.04189(12)
H19 H 0.0184 0.3013 -0.0419
C25 C 0.0802(4) 0.2473(3) 0.04274(12)
H20 H 0.0276 0.3128 0.0405
C26 C 0.0824(4) 0.2754(3) 0.12226(11)
C27 C 0.1261(4) 0.3798(3) 0.12279(13)
H21 H 0.1800 0.4096 0.0972
C28 C 0.0901(5) 0.4415(3) 0.16163(16)
H22 H 0.1205 0.5121 0.1617
C29 C 0.0110(5) 0.3994(4) 0.19927(14)
H23 H -0.0142 0.4418 0.2246
C30 C -0.0331(4) 0.2921(3) 0.20033(12)
C31 C -0.1195(4) 0.2454(4) 0.23846(12)
H24 H -0.1476 0.2861 0.2641
C32 C -0.1614(5) 0.1423(4) 0.23790(13)
H25 H -0.2194 0.1132 0.2630
C33 C -0.1189(4) 0.0795(3) 0.20023(14)
H26 H -0.1470 0.0084 0.2005
C34 C -0.0361(4) 0.1215(3) 0.16291(11)
H27 H -0.0076 0.0787 0.1380
C35 C 0.0066(4) 0.2287(3) 0.16156(11)
C36 C 0.0580(4) 0.2368(3) -0.12946(11)
H28 H 0.1493 0.2247 -0.1513
H29 H 0.0407 0.3110 -0.1258
H30 H -0.0469 0.2051 -0.1406
loop_
_geom_bond_atom_site_label_1
_geom_bond_atom_site_label_2
_geom_bond_site_symmetry_1
_geom_bond_site_symmetry_2
N1 C7 1_555 1_555
O1 H1 1_555 1_555
C1 C2 1_555 1_555
C2 O1 1_555 1_555
C3 C2 1_555 1_555
H2 C3 1_555 1_555
C4 C3 1_555 1_555
H3 C4 1_555 1_555
C5 C4 1_555 1_555
C6 C1 1_555 1_555
H4 C6 1_555 1_555
C7 C1 1_555 1_555
H5 C7 1_555 1_555
C8 N1 1_555 1_555
C9 C8 1_555 1_555
H6 C9 1_555 1_555
C10 C9 1_555 1_555
H7 C10 1_555 1_555
C11 C10 1_555 1_555
H8 C11 1_555 1_555
C12 C11 1_555 1_555
C13 C12 1_555 1_555
H9 C13 1_555 1_555
C14 C13 1_555 1_555
H10 C14 1_555 1_555
C15 C14 1_555 1_555
H11 C15 1_555 1_555
C16 C15 1_555 1_555
H12 C16 1_555 1_555
C17 C8 1_555 1_555
C18 C5 1_555 1_555
H13 C18 1_555 1_555
H14 C18 1_555 1_555
H15 C18 1_555 1_555
N2 C25 1_555 1_555
O2 H16 1_555 1_555
C19 C20 1_555 1_555
C20 O2 1_555 1_555
C21 C20 1_555 1_555
H17 C21 1_555 1_555
C22 C21 1_555 1_555
H18 C22 1_555 1_555
C23 C22 1_555 1_555
C24 C19 1_555 1_555
H19 C24 1_555 1_555
C25 C19 1_555 1_555
H20 C25 1_555 1_555
C26 N2 1_555 1_555
C27 C26 1_555 1_555
H21 C27 1_555 1_555
C28 C27 1_555 1_555
H22 C28 1_555 1_555
C29 C28 1_555 1_555
H23 C29 1_555 1_555
C30 C29 1_555 1_555
C31 C30 1_555 1_555
H24 C31 1_555 1_555
C32 C31 1_555 1_555
H25 C32 1_555 1_555
C33 C32 1_555 1_555
H26 C33 1_555 1_555
C34 C33 1_555 1_555
H27 C34 1_555 1_555
C35 C26 1_555 1_555
C36 C23 1_555 1_555
H28 C36 1_555 1_555
H29 C36 1_555 1_555
H30 C36 1_555 1_555
C5 C6 1_555 1_555
C12 C17 1_555 1_555
C16 C17 1_555 1_555
C23 C24 1_555 1_555
C30 C35 1_555 1_555
C34 C35 1_555 1_555

#END
