
#######################################################################
#
#                 Cambridge Crystallographic Data Centre
#                                CCDC 
#
#######################################################################
#
# If this CIF has been generated from an entry in the Cambridge 
# Structural Database, then it will include bibliographic, chemical, 
# crystal, experimental, refinement or atomic coordinate data resulting 
# from the CCDC's data processing and validation procedures.
#
#######################################################################

data_IYAWUA
_chemical_formula_moiety         'C17 H17 Cl4 O3 P1'
_chemical_name_systematic        
'2-((4-t-Butylphenoxy)dichloromethyl)phenyl dichlorophosphonate'
_symmetry_cell_setting           monoclinic
_symmetry_space_group_name_H-M   'C 2/c'
_symmetry_Int_Tables_number      15
_space_group_name_Hall           '-C 2yn'
loop_
_symmetry_equiv_pos_site_id
_symmetry_equiv_pos_as_xyz
1 x,y,z
2 1/2+x,1/2+y,z
3 x,-y,1/2+z
4 1/2+x,1/2-y,1/2+z
5 -x,-y,-z
6 1/2-x,1/2-y,-z
7 -x,y,1/2-z
8 1/2-x,1/2+y,1/2-z
_cell_length_a                   27.166(2)
_cell_length_b                   5.9811(5)
_cell_length_c                   24.158(2)
_cell_angle_alpha                90
_cell_angle_beta                 90.944(8)
_cell_angle_gamma                90
_cell_volume                     3924.72
_exptl_crystal_colour            colorless
_exptl_crystal_description       block
_chemical_melting_point          '350.0-350.6 K'
_cell_formula_units_Z            8
_exptl_crystal_recrystallization_method 'hot n-hexane'
loop_
_atom_site_label
_atom_site_type_symbol
_atom_site_fract_x
_atom_site_fract_y
_atom_site_fract_z
Cl1 Cl 0.200052(9) 0.71226(4) 0.373034(11)
Cl2 Cl 0.205345(9) 0.38244(5) 0.461396(10)
Cl3 Cl 0.175260(11) 0.88158(5) 0.543468(13)
Cl4 Cl 0.072379(14) 1.07744(5) 0.511177(13)
P1 P 0.109345(10) 0.79097(5) 0.515584(11)
O1 O 0.19826(3) 0.27940(13) 0.35503(3)
O2 O 0.08542(3) 0.61912(15) 0.54841(3)
O3 O 0.11955(3) 0.73374(13) 0.45310(3)
C1 C 0.18091(3) 0.43453(17) 0.39198(4)
C2 C 0.12529(3) 0.41515(17) 0.39318(4)
C3 C 0.09591(4) 0.56082(18) 0.42358(4)
C4 C 0.04495(4) 0.5418(2) 0.42382(5)
H1 H 0.0261 0.6430 0.4436
C5 C 0.02237(4) 0.3696(2) 0.39411(5)
H2 H -0.0117 0.3547 0.3941
C6 C 0.05076(4) 0.2204(2) 0.36445(5)
H3 H 0.0357 0.1047 0.3448
C7 C 0.10187(4) 0.24317(19) 0.36397(4)
H4 H 0.1206 0.1423 0.3439
C8 C 0.24898(4) 0.27338(17) 0.34249(4)
C9 C 0.26444(4) 0.37789(19) 0.29469(4)
H5 H 0.2426 0.4624 0.2733
C10 C 0.31358(4) 0.35424(18) 0.27905(4)
H6 H 0.3243 0.4251 0.2471
C11 C 0.34693(4) 0.22652(17) 0.31033(4)
C12 C 0.32975(4) 0.12488(18) 0.35869(4)
H7 H 0.3515 0.0413 0.3805
C13 C 0.28095(4) 0.14617(18) 0.37484(4)
H8 H 0.2700 0.0763 0.4068
C14 C 0.40068(4) 0.18858(17) 0.29389(4)
C15 C 0.40976(4) -0.0649(2) 0.28827(5)
H9 H 0.4037 -0.1368 0.3230
H10 H 0.4433 -0.0905 0.2779
H11 H 0.3880 -0.1252 0.2603
C16 C 0.41304(4) 0.3005(2) 0.23875(5)
H12 H 0.3916 0.2438 0.2101
H13 H 0.4466 0.2687 0.2297
H14 H 0.4087 0.4593 0.2419
C17 C 0.43511(4) 0.2843(2) 0.33924(5)
H15 H 0.4295 0.4421 0.3428
H16 H 0.4687 0.2586 0.3294
H17 H 0.4286 0.2121 0.3738
loop_
_geom_bond_atom_site_label_1
_geom_bond_atom_site_label_2
_geom_bond_site_symmetry_1
_geom_bond_site_symmetry_2
Cl1 C1 1_555 1_555
Cl2 C1 1_555 1_555
Cl3 P1 1_555 1_555
Cl4 P1 1_555 1_555
P1 O2 1_555 1_555
O1 C1 1_555 1_555
O3 P1 1_555 1_555
C1 C2 1_555 1_555
C2 C3 1_555 1_555
C3 O3 1_555 1_555
C4 C3 1_555 1_555
H1 C4 1_555 1_555
C5 C4 1_555 1_555
H2 C5 1_555 1_555
C6 C5 1_555 1_555
H3 C6 1_555 1_555
C7 C2 1_555 1_555
H4 C7 1_555 1_555
C8 O1 1_555 1_555
C9 C8 1_555 1_555
H5 C9 1_555 1_555
C10 C9 1_555 1_555
H6 C10 1_555 1_555
C11 C10 1_555 1_555
C12 C11 1_555 1_555
H7 C12 1_555 1_555
C13 C8 1_555 1_555
H8 C13 1_555 1_555
C14 C11 1_555 1_555
C15 C14 1_555 1_555
H9 C15 1_555 1_555
H10 C15 1_555 1_555
H11 C15 1_555 1_555
C16 C14 1_555 1_555
H12 C16 1_555 1_555
H13 C16 1_555 1_555
H14 C16 1_555 1_555
C17 C14 1_555 1_555
H15 C17 1_555 1_555
H16 C17 1_555 1_555
H17 C17 1_555 1_555
C6 C7 1_555 1_555
C12 C13 1_555 1_555

#END
