
#######################################################################
#
#                 Cambridge Crystallographic Data Centre
#                                CCDC 
#
#######################################################################
#
# If this CIF has been generated from an entry in the Cambridge 
# Structural Database, then it will include bibliographic, chemical, 
# crystal, experimental, refinement or atomic coordinate data resulting 
# from the CCDC's data processing and validation procedures.
#
#######################################################################

data_IYAXIP
_chemical_formula_moiety         'C18 H28 N2 O2'
_chemical_name_systematic        2,5-bis(1-Piperidinylmethyl)benzene-1,4-diol
_symmetry_cell_setting           triclinic
_symmetry_space_group_name_H-M   'P -1'
_symmetry_Int_Tables_number      2
_space_group_name_Hall           '-P 1'
loop_
_symmetry_equiv_pos_site_id
_symmetry_equiv_pos_as_xyz
1 x,y,z
2 -x,-y,-z
_cell_length_a                   6.372(2)
_cell_length_b                   8.184(3)
_cell_length_c                   8.649(3)
_cell_angle_alpha                72.349(5)
_cell_angle_beta                 81.745(6)
_cell_angle_gamma                80.865(5)
_cell_volume                     422.158
_exptl_crystal_colour            colorless
_exptl_crystal_description       prism
_chemical_melting_point          '469-471 K'
_cell_formula_units_Z            1
_exptl_crystal_recrystallization_method ethanol
loop_
_atom_site_label
_atom_site_type_symbol
_atom_site_fract_x
_atom_site_fract_y
_atom_site_fract_z
O1 O -0.3143(2) 0.1153(2) -0.20974(19)
H1 H -0.3528 0.0338 -0.2302
N1 N -0.2925(3) -0.2183(2) -0.2098(2)
C1 C -0.1591(3) 0.0548(3) -0.1044(2)
C2 C -0.0403(3) 0.1709(3) -0.0821(2)
H2 H -0.0689 0.2872 -0.1383
C3 C -0.1196(3) -0.1210(3) -0.0209(2)
C4 C -0.2558(4) -0.2465(3) -0.0386(3)
H3 H -0.3923 -0.2353 0.0256
H4 H -0.1868 -0.3632 0.0040
C5 C -0.4543(4) -0.3219(3) -0.2205(3)
H5 H -0.4056 -0.4435 -0.1746
H6 H -0.5857 -0.2935 -0.1570
C6 C -0.4975(4) -0.2899(3) -0.3947(3)
H7 H -0.6000 -0.3642 -0.3983
H8 H -0.5595 -0.1709 -0.4371
C7 C -0.2954(4) -0.3242(4) -0.5005(3)
H9 H -0.2437 -0.4466 -0.4683
H10 H -0.3248 -0.2914 -0.6136
C8 C -0.1266(4) -0.2217(3) -0.4828(3)
H11 H -0.1705 -0.0993 -0.5290
H12 H 0.0069 -0.2525 -0.5428
C9 C -0.0935(3) -0.2569(3) -0.3067(2)
H13 H 0.0116 -0.1871 -0.2983
H14 H -0.0381 -0.3774 -0.2634
C3A C 0.1196(3) 0.1210(3) 0.0209(2)
C1A C 0.1591(3) -0.0548(3) 0.1044(2)
O1A O 0.3143(2) -0.1153(2) 0.20974(19)
H1A H 0.3528 -0.0338 0.2302
C2A C 0.0403(3) -0.1709(3) 0.0821(2)
H2A H 0.0689 -0.2872 0.1383
C4A C 0.2558(4) 0.2465(3) 0.0386(3)
N1A N 0.2925(3) 0.2183(2) 0.2098(2)
C5A C 0.4543(4) 0.3219(3) 0.2205(3)
H5A H 0.4056 0.4435 0.1746
H6A H 0.5857 0.2935 0.1570
C6A C 0.4975(4) 0.2899(3) 0.3947(3)
H7A H 0.6000 0.3642 0.3983
H8A H 0.5595 0.1709 0.4371
C7A C 0.2954(4) 0.3242(4) 0.5005(3)
H9A H 0.2437 0.4466 0.4683
H10A H 0.3248 0.2914 0.6136
C8A C 0.1266(4) 0.2217(3) 0.4828(3)
H11A H 0.1705 0.0993 0.5290
H12A H -0.0069 0.2525 0.5428
C9A C 0.0935(3) 0.2569(3) 0.3067(2)
H13A H -0.0116 0.1871 0.2983
H14A H 0.0381 0.3774 0.2634
H3A H 0.3923 0.2353 -0.0256
H4A H 0.1868 0.3632 -0.0040
loop_
_geom_bond_atom_site_label_1
_geom_bond_atom_site_label_2
_geom_bond_site_symmetry_1
_geom_bond_site_symmetry_2
O1 H1 1_555 1_555
N1 C4 1_555 1_555
C1 O1 1_555 1_555
C2 C1 1_555 1_555
H2 C2 1_555 1_555
C3 C1 1_555 1_555
C4 C3 1_555 1_555
H3 C4 1_555 1_555
H4 C4 1_555 1_555
C5 N1 1_555 1_555
H5 C5 1_555 1_555
H6 C5 1_555 1_555
C6 C5 1_555 1_555
H7 C6 1_555 1_555
H8 C6 1_555 1_555
C7 C6 1_555 1_555
H9 C7 1_555 1_555
H10 C7 1_555 1_555
C8 C7 1_555 1_555
H11 C8 1_555 1_555
H12 C8 1_555 1_555
C9 N1 1_555 1_555
H13 C9 1_555 1_555
H14 C9 1_555 1_555
C3A C2 1_555 1_555
C1A C3A 1_555 1_555
O1A C1A 1_555 1_555
H1A O1A 1_555 1_555
C2A C3 1_555 1_555
H2A C2A 1_555 1_555
C4A C3A 1_555 1_555
N1A C4A 1_555 1_555
C5A N1A 1_555 1_555
H5A C5A 1_555 1_555
H6A C5A 1_555 1_555
C6A C5A 1_555 1_555
H7A C6A 1_555 1_555
H8A C6A 1_555 1_555
C7A C6A 1_555 1_555
H9A C7A 1_555 1_555
H10A C7A 1_555 1_555
C8A C7A 1_555 1_555
H11A C8A 1_555 1_555
H12A C8A 1_555 1_555
C9A N1A 1_555 1_555
H13A C9A 1_555 1_555
H14A C9A 1_555 1_555
H3A C4A 1_555 1_555
H4A C4A 1_555 1_555
C8 C9 1_555 1_555
C1A C2A 1_555 1_555
C8A C9A 1_555 1_555

#END
