
#######################################################################
#
#                 Cambridge Crystallographic Data Centre
#                                CCDC 
#
#######################################################################
#
# If this CIF has been generated from an entry in the Cambridge 
# Structural Database, then it will include bibliographic, chemical, 
# crystal, experimental, refinement or atomic coordinate data resulting 
# from the CCDC's data processing and validation procedures.
#
#######################################################################

data_IYAZAJ
_chemical_formula_moiety         'C21 H28 O4'
_chemical_name_systematic        11-Hydroxy-16,17-epoxypregn-4-ene-3,20-dione
_symmetry_cell_setting           orthorhombic
_symmetry_space_group_name_H-M   'P 21 21 21'
_symmetry_Int_Tables_number      19
_space_group_name_Hall           'P 2ac 2ab'
loop_
_symmetry_equiv_pos_site_id
_symmetry_equiv_pos_as_xyz
1 x,y,z
2 1/2-x,-y,1/2+z
3 -x,1/2+y,1/2-z
4 1/2+x,1/2-y,-z
_cell_length_a                   7.229(3)
_cell_length_b                   13.112(5)
_cell_length_c                   19.334(7)
_cell_angle_alpha                90
_cell_angle_beta                 90
_cell_angle_gamma                90
_cell_volume                     1832.61
_exptl_crystal_colour            colorless
_exptl_crystal_description       block
_chemical_melting_point          '522.8 K'
_cell_formula_units_Z            4
_exptl_crystal_recrystallization_method chloroform
loop_
_atom_site_label
_atom_site_type_symbol
_atom_site_fract_x
_atom_site_fract_y
_atom_site_fract_z
O1 O 0.6796(4) -0.07843(18) 0.23497(13)
O2 O 0.4845(3) 0.38028(17) 0.13540(11)
H1 H 0.4434 0.3918 0.1741
O3 O 0.9346(3) 0.52182(17) -0.06774(10)
O4 O 0.8418(6) 0.7348(2) 0.04087(16)
C1 C 0.5916(4) 0.1881(2) 0.19382(16)
H2 H 0.5160 0.2419 0.2135
H3 H 0.5407 0.1712 0.1489
C2 C 0.5790(5) 0.0942(2) 0.24039(18)
H4 H 0.6078 0.1140 0.2875
H5 H 0.4531 0.0687 0.2397
C3 C 0.7068(5) 0.0109(2) 0.21888(15)
C4 C 0.8720(4) 0.0414(2) 0.18208(15)
H6 H 0.9517 -0.0096 0.1669
C5 C 0.9176(4) 0.1387(2) 0.16850(14)
C6 C 1.1067(4) 0.1627(2) 0.14127(17)
H7 H 1.1654 0.1000 0.1264
H8 H 1.1808 0.1913 0.1783
C7 C 1.1031(4) 0.2373(2) 0.08111(15)
H9 H 1.0439 0.2056 0.0416
H10 H 1.2288 0.2548 0.0681
C8 C 0.9985(4) 0.3336(2) 0.10097(14)
H11 H 1.0609 0.3652 0.1405
C9 C 0.7960(4) 0.3071(2) 0.12241(13)
H12 H 0.7412 0.2721 0.0826
C10 C 0.7890(4) 0.2286(2) 0.18399(13)
C11 C 0.6779(4) 0.4047(2) 0.13369(14)
H13 H 0.7128 0.4357 0.1779
C12 C 0.6977(4) 0.4849(2) 0.07631(14)
H14 H 0.6396 0.4597 0.0344
H15 H 0.6336 0.5466 0.0901
C13 C 0.9003(4) 0.5102(2) 0.06120(13)
C14 C 0.9943(4) 0.4096(2) 0.04185(13)
H16 H 0.9165 0.3788 0.0060
C15 C 1.1728(4) 0.4424(2) 0.00533(15)
H17 H 1.2691 0.4590 0.0384
H18 H 1.2173 0.3896 -0.0256
C16 C 1.1112(5) 0.5356(2) -0.03420(14)
H19 H 1.2030 0.5823 -0.0539
C17 C 0.9401(4) 0.5762(2) -0.00210(15)
C18 C 0.8870(5) 0.6866(2) -0.0091(2)
C19 C 0.8961(7) 0.7336(3) -0.0789(2)
H20 H 0.7910 0.7123 -0.1056
H21 H 1.0076 0.7123 -0.1016
H22 H 0.8955 0.8065 -0.0745
C20 C 0.8574(5) 0.2797(3) 0.25155(14)
H23 H 0.8629 0.2298 0.2878
H24 H 0.7734 0.3331 0.2645
H25 H 0.9783 0.3080 0.2442
C21 C 0.9919(5) 0.5625(2) 0.12388(15)
H26 H 0.9828 0.5188 0.1636
H27 H 0.9301 0.6258 0.1333
H28 H 1.1198 0.5755 0.1138
loop_
_geom_bond_atom_site_label_1
_geom_bond_atom_site_label_2
_geom_bond_site_symmetry_1
_geom_bond_site_symmetry_2
O1 C3 1_555 1_555
O2 H1 1_555 1_555
O3 C16 1_555 1_555
O4 C18 1_555 1_555
C1 H2 1_555 1_555
H3 C1 1_555 1_555
C2 C1 1_555 1_555
H4 C2 1_555 1_555
H5 C2 1_555 1_555
C3 C2 1_555 1_555
C4 C3 1_555 1_555
H6 C4 1_555 1_555
C5 C4 1_555 1_555
C6 C5 1_555 1_555
H7 C6 1_555 1_555
H8 C6 1_555 1_555
C7 C6 1_555 1_555
H9 C7 1_555 1_555
H10 C7 1_555 1_555
C8 C7 1_555 1_555
H11 C8 1_555 1_555
C9 C8 1_555 1_555
H12 C9 1_555 1_555
C10 C1 1_555 1_555
C11 O2 1_555 1_555
H13 C11 1_555 1_555
C12 C11 1_555 1_555
H14 C12 1_555 1_555
H15 C12 1_555 1_555
C13 C12 1_555 1_555
C14 C8 1_555 1_555
H16 C14 1_555 1_555
C15 C14 1_555 1_555
H17 C15 1_555 1_555
H18 C15 1_555 1_555
C16 C15 1_555 1_555
H19 C16 1_555 1_555
C17 O3 1_555 1_555
C18 C17 1_555 1_555
C19 C18 1_555 1_555
H20 C19 1_555 1_555
H21 C19 1_555 1_555
H22 C19 1_555 1_555
C20 C10 1_555 1_555
H23 C20 1_555 1_555
H24 C20 1_555 1_555
H25 C20 1_555 1_555
C21 C13 1_555 1_555
H26 C21 1_555 1_555
H27 C21 1_555 1_555
H28 C21 1_555 1_555
C5 C10 1_555 1_555
C9 C10 1_555 1_555
C9 C11 1_555 1_555
C13 C14 1_555 1_555
C13 C17 1_555 1_555
C16 C17 1_555 1_555

#END
