
#######################################################################
#
#                 Cambridge Crystallographic Data Centre
#                                CCDC 
#
#######################################################################
#
# If this CIF has been generated from an entry in the Cambridge 
# Structural Database, then it will include bibliographic, chemical, 
# crystal, experimental, refinement or atomic coordinate data resulting 
# from the CCDC's data processing and validation procedures.
#
#######################################################################

data_IYEGAW02
_chemical_formula_moiety         'C26 H22 N16 Si1,C2 H3 N1'
_chemical_name_systematic        
"bis(azido)-(2,2'-bipyridine)-bis(5-(4-methylphenyl)tetrazolato)-silicon acetonitrile solvate"
_symmetry_cell_setting           monoclinic
_symmetry_space_group_name_H-M   'P 21/c'
_symmetry_Int_Tables_number      14
_space_group_name_Hall           '-P 2ybc'
loop_
_symmetry_equiv_pos_site_id
_symmetry_equiv_pos_as_xyz
1 x,y,z
2 -x,1/2+y,1/2-z
3 -x,-y,-z
4 x,1/2-y,1/2+z
_cell_length_a                   10.8508(6)
_cell_length_b                   24.9343(13)
_cell_length_c                   11.6091(6)
_cell_angle_alpha                90
_cell_angle_beta                 110.092(2)
_cell_angle_gamma                90
_cell_volume                     2949.77
_exptl_crystal_colour            colorless
_exptl_crystal_description       plate
_cell_formula_units_Z            4
loop_
_atom_site_label
_atom_site_type_symbol
_atom_site_fract_x
_atom_site_fract_y
_atom_site_fract_z
Si1 Si 0.78643(8) 0.98437(3) 0.09983(7)
N1 N 0.8575(2) 0.97808(9) -0.0183(2)
N2 N 0.7984(2) 0.96788(9) -0.1257(3)
N3 N 0.7530(3) 0.95860(11) -0.2283(3)
N4 N 0.6421(2) 1.02009(9) 0.0125(2)
N5 N 0.6364(2) 1.05693(10) -0.0589(2)
N6 N 0.6212(3) 1.09096(12) -0.1274(3)
N7 N 0.7326(2) 0.98574(9) 0.2426(2)
N8 N 0.9364(2) 0.94715(9) 0.2134(2)
N9 N 0.5985(2) 0.90564(9) -0.0421(2)
N10 N 0.6963(2) 0.91792(9) 0.0622(2)
N11 N 0.7227(3) 0.87690(10) 0.1413(2)
N12 N 0.6421(3) 0.83713(10) 0.0885(2)
N13 N 0.9183(2) 1.08592(9) 0.0923(2)
N14 N 0.8839(2) 1.04861(9) 0.1599(2)
N15 N 0.9236(2) 1.06259(10) 0.2783(2)
N16 N 0.9836(2) 1.10952(10) 0.2892(2)
C1 C 0.6192(3) 1.00706(11) 0.2444(3)
H1 H 0.5598 1.0226 0.1718
C2 C 0.5880(3) 1.00666(11) 0.3501(3)
H2 H 0.5081 1.0221 0.3502
C3 C 0.6733(3) 0.98372(12) 0.4554(3)
H3 H 0.6528 0.9835 0.5286
C4 C 0.7889(3) 0.96104(11) 0.4535(3)
H4 H 0.8486 0.9449 0.5251
C5 C 0.8159(3) 0.96241(11) 0.3453(3)
C6 C 0.9348(3) 0.94071(11) 0.3292(3)
C7 C 1.0374(3) 0.91688(11) 0.4197(3)
H5 H 1.0341 0.9124 0.4999
C8 C 1.1456(3) 0.89941(12) 0.3926(3)
H6 H 1.2173 0.8828 0.4538
C9 C 1.1479(3) 0.90653(11) 0.2755(3)
H7 H 1.2218 0.8952 0.2557
C10 C 1.0423(3) 0.93025(11) 0.1873(3)
H8 H 1.0441 0.9348 0.1066
C11 C 0.5669(3) 0.85572(12) -0.0235(3)
C12 C 0.4693(3) 0.82260(12) -0.1136(3)
C13 C 0.3643(3) 0.84513(13) -0.2068(3)
H9 H 0.3500 0.8827 -0.2078
C14 C 0.2799(3) 0.81304(13) -0.2985(3)
H10 H 0.2087 0.8292 -0.3612
C15 C 0.2980(4) 0.75814(14) -0.2999(4)
C16 C 0.4000(4) 0.73546(15) -0.2030(4)
H11 H 0.4126 0.6977 -0.2002
C17 C 0.4831(4) 0.76725(13) -0.1111(4)
H12 H 0.5506 0.7509 -0.0453
C18 C 0.2124(4) 0.72400(16) -0.4031(4)
H13 H 0.1545 0.7471 -0.4673
H14 H 0.1594 0.7000 -0.3721
H15 H 0.2676 0.7026 -0.4371
C19 C 0.9791(3) 1.12289(11) 0.1747(3)
C20 C 1.0369(3) 1.17237(11) 0.1475(3)
C21 C 1.0363(3) 1.21887(11) 0.2140(3)
H16 H 0.9976 1.2185 0.2760
C22 C 1.0925(3) 1.26587(12) 0.1897(3)
H17 H 1.0913 1.2973 0.2355
C23 C 1.1500(3) 1.26750(12) 0.0999(3)
C24 C 1.1503(3) 1.22084(12) 0.0346(3)
H18 H 1.1890 1.2213 -0.0275
C25 C 1.0953(3) 1.17361(12) 0.0580(3)
H19 H 1.0975 1.1421 0.0128
C26 C 1.2103(3) 1.31838(12) 0.0743(3)
H20 H 1.1528 1.3340 -0.0030
H21 H 1.2961 1.3104 0.0679
H22 H 1.2211 1.3439 0.1413
N17 N 0.5285(3) 0.38535(13) 0.0095(3)
C27 C 0.3828(4) 0.32698(19) -0.1677(4)
H23 H 0.3587 0.3474 -0.2443
H24 H 0.3031 0.3168 -0.1513
H25 H 0.4307 0.2946 -0.1749
C28 C 0.4647(4) 0.35952(17) -0.0683(4)
loop_
_geom_bond_atom_site_label_1
_geom_bond_atom_site_label_2
_geom_bond_site_symmetry_1
_geom_bond_site_symmetry_2
Si1 N1 1_555 1_555
N1 N2 1_555 1_555
N2 N3 1_555 1_555
N4 Si1 1_555 1_555
N5 N4 1_555 1_555
N6 N5 1_555 1_555
N7 Si1 1_555 1_555
N8 Si1 1_555 1_555
N9 N10 1_555 1_555
N10 Si1 1_555 1_555
N11 N10 1_555 1_555
N12 N11 1_555 1_555
N13 N14 1_555 1_555
N14 Si1 1_555 1_555
N15 N14 1_555 1_555
N16 N15 1_555 1_555
C1 N7 1_555 1_555
H1 C1 1_555 1_555
C2 C1 1_555 1_555
H2 C2 1_555 1_555
C3 C2 1_555 1_555
H3 C3 1_555 1_555
C4 C3 1_555 1_555
H4 C4 1_555 1_555
C5 N7 1_555 1_555
C6 N8 1_555 1_555
C7 C6 1_555 1_555
H5 C7 1_555 1_555
C8 C7 1_555 1_555
H6 C8 1_555 1_555
C9 C8 1_555 1_555
H7 C9 1_555 1_555
C10 N8 1_555 1_555
H8 C10 1_555 1_555
C11 N9 1_555 1_555
C12 C11 1_555 1_555
C13 C12 1_555 1_555
H9 C13 1_555 1_555
C14 C13 1_555 1_555
H10 C14 1_555 1_555
C15 C14 1_555 1_555
C16 C15 1_555 1_555
H11 C16 1_555 1_555
C17 C12 1_555 1_555
H12 C17 1_555 1_555
C18 C15 1_555 1_555
H13 C18 1_555 1_555
H14 C18 1_555 1_555
H15 C18 1_555 1_555
C19 N13 1_555 1_555
C20 C19 1_555 1_555
C21 C20 1_555 1_555
H16 C21 1_555 1_555
C22 C21 1_555 1_555
H17 C22 1_555 1_555
C23 C22 1_555 1_555
C24 C23 1_555 1_555
H18 C24 1_555 1_555
C25 C20 1_555 1_555
H19 C25 1_555 1_555
C26 C23 1_555 1_555
H20 C26 1_555 1_555
H21 C26 1_555 1_555
H22 C26 1_555 1_555
N17 C28 1_555 1_555
C27 H23 1_555 1_555
H24 C27 1_555 1_555
H25 C27 1_555 1_555
C28 C27 1_555 1_555
N12 C11 1_555 1_555
N16 C19 1_555 1_555
C4 C5 1_555 1_555
C5 C6 1_555 1_555
C9 C10 1_555 1_555
C16 C17 1_555 1_555
C24 C25 1_555 1_555

#END
