
#######################################################################
#
#                 Cambridge Crystallographic Data Centre
#                                CCDC 
#
#######################################################################
#
# If this CIF has been generated from an entry in the Cambridge 
# Structural Database, then it will include bibliographic, chemical, 
# crystal, experimental, refinement or atomic coordinate data resulting 
# from the CCDC's data processing and validation procedures.
#
#######################################################################

data_IYEGOK02
_chemical_formula_moiety         'C14 H14 N16 Si1,C2 H3 N1'
_chemical_name_systematic        
"bis(azido)-(2,2'-bipyridine)-bis(5-methyltetrazolato)-silicon acetonitrile solvate"
_symmetry_cell_setting           monoclinic
_symmetry_space_group_name_H-M   'P 21/c'
_symmetry_Int_Tables_number      14
_space_group_name_Hall           '-P 2ybc'
loop_
_symmetry_equiv_pos_site_id
_symmetry_equiv_pos_as_xyz
1 x,y,z
2 -x,1/2+y,1/2-z
3 -x,-y,-z
4 x,1/2-y,1/2+z
_cell_length_a                   10.8760(3)
_cell_length_b                   14.5601(4)
_cell_length_c                   14.9281(4)
_cell_angle_alpha                90
_cell_angle_beta                 110.732(2)
_cell_angle_gamma                90
_cell_volume                     2210.87
_exptl_crystal_colour            colorless
_exptl_crystal_description       block
_cell_formula_units_Z            4
loop_
_atom_site_label
_atom_site_type_symbol
_atom_site_fract_x
_atom_site_fract_y
_atom_site_fract_z
Si1 Si 0.26908(7) 0.35639(5) 0.24351(6)
N1 N 0.2218(2) 0.27193(16) 0.31341(17)
N2 N 0.2993(2) 0.22790(17) 0.37749(19)
N3 N 0.3671(3) 0.1846(2) 0.4391(2)
N4 N 0.4122(2) 0.39962(16) 0.33972(17)
N5 N 0.5219(2) 0.36592(17) 0.36993(18)
N6 N 0.6270(3) 0.3396(2) 0.4023(2)
N7 N 0.1208(2) 0.31928(15) 0.13155(17)
N8 N 0.2926(2) 0.44328(15) 0.15273(16)
N9 N 0.3696(2) 0.27109(15) 0.20161(17)
N10 N 0.3385(2) 0.18233(16) 0.1899(2)
N11 N 0.4287(2) 0.14164(17) 0.16257(19)
N12 N 0.4793(2) 0.28945(17) 0.18298(19)
N13 N 0.1663(2) 0.44487(15) 0.27452(17)
N14 N 0.0883(2) 0.50260(16) 0.20593(18)
N15 N 0.0286(2) 0.55700(16) 0.24587(19)
N16 N 0.0650(3) 0.53927(18) 0.34026(19)
C1 C 0.0342(3) 0.25260(19) 0.1291(2)
H1 H 0.0382 0.2239 0.1872
C2 C -0.0607(3) 0.22465(19) 0.0439(2)
H2 H -0.1220 0.1782 0.0439
C3 C -0.0652(3) 0.26463(19) -0.0406(2)
H3 H -0.1294 0.2457 -0.0996
C4 C 0.0247(3) 0.33301(19) -0.0391(2)
H4 H 0.0244 0.3606 -0.0969
C5 C 0.1140(3) 0.35966(18) 0.0476(2)
C6 C 0.2095(2) 0.43440(18) 0.0609(2)
C7 C 0.2130(3) 0.4942(2) -0.0100(2)
H5 H 0.1544 0.4864 -0.0741
C8 C 0.3027(3) 0.5653(2) 0.0136(2)
H6 H 0.3074 0.6070 -0.0340
C9 C 0.3857(3) 0.5749(2) 0.1078(2)
H7 H 0.4467 0.6243 0.1255
C10 C 0.3800(3) 0.51289(19) 0.1758(2)
H8 H 0.4387 0.5192 0.2401
C11 C 0.5129(3) 0.2080(2) 0.1589(2)
C12 C 0.6296(3) 0.1898(2) 0.1316(3)
H9 H 0.6267 0.2298 0.0780
H10 H 0.6290 0.1254 0.1123
H11 H 0.7100 0.2022 0.1864
C13 C 0.1485(3) 0.4699(2) 0.3567(2)
C14 C 0.2119(4) 0.4283(2) 0.4531(2)
H12 H 0.1912 0.4651 0.5009
H13 H 0.3074 0.4267 0.4691
H14 H 0.1790 0.3656 0.4530
N17 N 0.1296(3) 0.6538(2) 0.7600(2)
C15 C 0.2609(4) 0.5123(3) 0.7405(3)
H15 H 0.2961 0.4800 0.8020
H16 H 0.3336 0.5318 0.7206
H17 H 0.2028 0.4710 0.6920
C16 C 0.1871(3) 0.5924(2) 0.7507(3)
loop_
_geom_bond_atom_site_label_1
_geom_bond_atom_site_label_2
_geom_bond_site_symmetry_1
_geom_bond_site_symmetry_2
Si1 N1 1_555 1_555
N1 N2 1_555 1_555
N2 N3 1_555 1_555
N4 Si1 1_555 1_555
N5 N4 1_555 1_555
N6 N5 1_555 1_555
N7 Si1 1_555 1_555
N8 Si1 1_555 1_555
N9 Si1 1_555 1_555
N10 N9 1_555 1_555
N11 N10 1_555 1_555
N12 N9 1_555 1_555
N13 Si1 1_555 1_555
N14 N13 1_555 1_555
N15 N14 1_555 1_555
N16 N15 1_555 1_555
C1 N7 1_555 1_555
H1 C1 1_555 1_555
C2 C1 1_555 1_555
H2 C2 1_555 1_555
C3 C2 1_555 1_555
H3 C3 1_555 1_555
C4 C3 1_555 1_555
H4 C4 1_555 1_555
C5 N7 1_555 1_555
C6 N8 1_555 1_555
C7 C6 1_555 1_555
H5 C7 1_555 1_555
C8 C7 1_555 1_555
H6 C8 1_555 1_555
C9 C8 1_555 1_555
H7 C9 1_555 1_555
C10 N8 1_555 1_555
H8 C10 1_555 1_555
C11 N11 1_555 1_555
C12 C11 1_555 1_555
H9 C12 1_555 1_555
H10 C12 1_555 1_555
H11 C12 1_555 1_555
C13 N13 1_555 1_555
C14 C13 1_555 1_555
H12 C14 1_555 1_555
H13 C14 1_555 1_555
H14 C14 1_555 1_555
N17 C16 1_555 1_555
C15 H15 1_555 1_555
H16 C15 1_555 1_555
H17 C15 1_555 1_555
C16 C15 1_555 1_555
N12 C11 1_555 1_555
N16 C13 1_555 1_555
C4 C5 1_555 1_555
C5 C6 1_555 1_555
C9 C10 1_555 1_555

#END
