
#######################################################################
#
#                 Cambridge Crystallographic Data Centre
#                                CCDC 
#
#######################################################################
#
# If this CIF has been generated from an entry in the Cambridge 
# Structural Database, then it will include bibliographic, chemical, 
# crystal, experimental, refinement or atomic coordinate data resulting 
# from the CCDC's data processing and validation procedures.
#
#######################################################################

data_IYEGUQ02
_chemical_formula_moiety         'C12 H8 N16 Si1'
_chemical_name_systematic        
bis(azido)-bis(5-(pyridin-2-yl)tetrazolato)-silicon
_symmetry_cell_setting           orthorhombic
_symmetry_space_group_name_H-M   'P b c n'
_symmetry_Int_Tables_number      60
_space_group_name_Hall           '-P 2n 2ab'
loop_
_symmetry_equiv_pos_site_id
_symmetry_equiv_pos_as_xyz
1 x,y,z
2 1/2+x,1/2-y,-z
3 -x,y,1/2-z
4 1/2-x,1/2-y,1/2+z
5 -x,-y,-z
6 1/2-x,1/2+y,z
7 x,-y,1/2+z
8 1/2+x,1/2+y,1/2-z
_cell_length_a                   12.030(4)
_cell_length_b                   9.833(3)
_cell_length_c                   13.979(4)
_cell_angle_alpha                90
_cell_angle_beta                 90
_cell_angle_gamma                90
_cell_volume                     1653.59
_exptl_crystal_colour            colorless
_exptl_crystal_description       Needle
_cell_formula_units_Z            4
loop_
_atom_site_label
_atom_site_type_symbol
_atom_site_fract_x
_atom_site_fract_y
_atom_site_fract_z
Si1 Si 1.0000 0.07622(13) 0.7500
C1 C 1.0014(3) -0.1082(3) 0.8982(2)
N1 N 0.9509(2) -0.2065(3) 0.94582(18)
N2 N 1.0470(2) 0.3108(3) 0.65721(18)
N3 N 0.93875(19) -0.0625(3) 0.82640(17)
N4 N 0.8439(2) -0.1354(3) 0.82777(18)
N5 N 0.8514(2) -0.2212(3) 0.89968(19)
N6 N 0.8760(2) 0.0518(3) 0.66292(16)
N7 N 1.0750(2) 0.1946(3) 0.67703(17)
C2 C 0.7065(3) -0.0120(3) 0.5375(2)
H1 H 0.6476 -0.0338 0.4949
C3 C 0.7777(2) 0.1160(3) 0.6685(2)
H2 H 0.7673 0.1838 0.7160
C4 C 0.8071(3) -0.0776(3) 0.5303(2)
H3 H 0.8192 -0.1439 0.4821
C5 C 0.6921(3) 0.0863(4) 0.6075(2)
H4 H 0.6231 0.1327 0.6131
N8 N 1.0285(3) 0.4192(3) 0.6337(2)
C6 C 0.8898(3) -0.0455(3) 0.5942(2)
C1B C 0.9986(3) -0.1082(3) 0.6018(2)
N1B N 1.0491(2) -0.2065(3) 0.55418(18)
N2B N 0.9530(2) 0.3108(3) 0.84279(18)
N3B N 1.06125(19) -0.0625(3) 0.67360(17)
N4B N 1.1561(2) -0.1354(3) 0.67223(18)
N5B N 1.1486(2) -0.2212(3) 0.60032(19)
N6B N 1.1240(2) 0.0518(3) 0.83708(16)
N7B N 0.9250(2) 0.1946(3) 0.82297(17)
C2B C 1.2935(3) -0.0120(3) 0.9625(2)
H1B H 1.3524 -0.0338 1.0051
C3B C 1.2223(2) 0.1160(3) 0.8315(2)
H2B H 1.2327 0.1838 0.7840
C4B C 1.1929(3) -0.0776(3) 0.9697(2)
H3B H 1.1808 -0.1439 1.0179
C5B C 1.3079(3) 0.0863(4) 0.8925(2)
H4B H 1.3769 0.1327 0.8869
N8B N 0.9715(3) 0.4192(3) 0.8663(2)
C6B C 1.1102(3) -0.0455(3) 0.9058(2)
loop_
_geom_bond_atom_site_label_1
_geom_bond_atom_site_label_2
_geom_bond_site_symmetry_1
_geom_bond_site_symmetry_2
Si1 N3 1_555 1_555
C1 N1 1_555 1_555
N1 N5 1_555 1_555
N2 N7 1_555 1_555
N3 C1 1_555 1_555
N4 N3 1_555 1_555
N5 N4 1_555 1_555
N6 Si1 1_555 1_555
N7 Si1 1_555 1_555
C2 H1 1_555 1_555
C3 N6 1_555 1_555
H2 C3 1_555 1_555
C4 C2 1_555 1_555
H3 C4 1_555 1_555
C5 C2 1_555 1_555
H4 C5 1_555 1_555
N8 N2 1_555 1_555
C6 N6 1_555 1_555
C1B C6 1_555 1_555
N1B C1B 1_555 1_555
N2B N7B 1_555 1_555
N3B Si1 1_555 1_555
N4B N3B 1_555 1_555
N5B N1B 1_555 1_555
N6B Si1 1_555 1_555
N7B Si1 1_555 1_555
C2B H1B 1_555 1_555
C3B N6B 1_555 1_555
H2B C3B 1_555 1_555
C4B C2B 1_555 1_555
H3B C4B 1_555 1_555
C5B C2B 1_555 1_555
H4B C5B 1_555 1_555
N8B N2B 1_555 1_555
C6B C1 1_555 1_555
C3 C5 1_555 1_555
C4 C6 1_555 1_555
C1B N3B 1_555 1_555
N4B N5B 1_555 1_555
N6B C6B 1_555 1_555
C3B C5B 1_555 1_555
C4B C6B 1_555 1_555

#END
