
#######################################################################
#
#                 Cambridge Crystallographic Data Centre
#                                CCDC 
#
#######################################################################
#
# If this CIF has been generated from an entry in the Cambridge 
# Structural Database, then it will include bibliographic, chemical, 
# crystal, experimental, refinement or atomic coordinate data resulting 
# from the CCDC's data processing and validation procedures.
#
#######################################################################

data_IYELEF
_chemical_formula_moiety         'C20 H16 F2 N4 O3'
_chemical_name_systematic        
'methyl (2S,3R)-7-fluoro-2-(4-fluorophenyl)-3-(1-methyl-1H-1,2,4-triazol-5-yl)-4-oxo-1,2,3,4-tetrahydroquinoline-5-carboxylate'
_symmetry_cell_setting           tetragonal
_symmetry_space_group_name_H-M   'P 43 21 2'
_symmetry_Int_Tables_number      96
_space_group_name_Hall           'P 4nw 2abw'
loop_
_symmetry_equiv_pos_site_id
_symmetry_equiv_pos_as_xyz
1 x,y,z
2 -x,-y,1/2+z
3 1/2-y,1/2+x,3/4+z
4 1/2+y,1/2-x,1/4+z
5 1/2-x,1/2+y,3/4-z
6 1/2+x,1/2-y,1/4-z
7 y,x,-z
8 -y,-x,1/2-z
_cell_length_a                   8.8428(2)
_cell_length_b                   8.8428(2)
_cell_length_c                   47.153(3)
_cell_angle_alpha                90
_cell_angle_beta                 90
_cell_angle_gamma                90
_cell_volume                     3687.13
_cell_formula_units_Z            8
loop_
_atom_site_label
_atom_site_type_symbol
_atom_site_fract_x
_atom_site_fract_y
_atom_site_fract_z
F1 F 0.53477(19) 0.71906(19) 0.24920(3)
F2 F 0.47299(19) 0.76574(19) 0.01669(3)
O1 O 0.8578(2) 0.3024(2) 0.15876(3)
O2 O 0.7834(2) 0.1873(2) 0.21736(4)
O3 O 0.9882(2) 0.3376(2) 0.21642(4)
N1 N 0.5845(3) 0.6734(3) 0.14943(4)
N2 N 0.9516(3) 0.4996(3) 0.09660(4)
N3 N 0.9540(3) 0.2712(3) 0.07469(5)
N4 N 0.8322(3) 0.2841(3) 0.09263(4)
C1 C 0.5972(3) 0.6469(3) 0.22648(5)
C2 C 0.5600(3) 0.6980(4) 0.20006(5)
C3 C 0.6231(3) 0.6238(3) 0.17651(5)
C4 C 0.6871(3) 0.6342(3) 0.12608(5)
C5 C 0.7217(3) 0.4648(3) 0.12742(5)
C6 C 0.7757(3) 0.4141(3) 0.15663(5)
C7 C 0.7188(3) 0.4987(3) 0.18081(5)
C8 C 0.7519(3) 0.4506(3) 0.20874(5)
C9 C 0.8412(3) 0.3108(3) 0.21417(5)
C10 C 1.0796(5) 0.2060(4) 0.22220(9)
C11 C 0.6926(3) 0.5264(3) 0.23179(6)
C12 C 0.8330(3) 0.4187(3) 0.10542(5)
C13 C 1.0206(4) 0.4033(4) 0.07803(6)
C14 C 0.7307(5) 0.1565(4) 0.09625(8)
C15 C 0.6204(3) 0.6781(3) 0.09770(5)
C16 C 0.6962(3) 0.7787(3) 0.08039(5)
C17 C 0.6470(4) 0.8104(3) 0.05301(6)
C18 C 0.5190(3) 0.7404(3) 0.04381(5)
C19 C 0.4376(3) 0.6414(3) 0.06017(6)
C20 C 0.4887(3) 0.6108(3) 0.08751(5)
H1 H 0.546(4) 0.783(5) 0.1491(7)
H2 H 0.493(3) 0.785(3) 0.1973(5)
H3 H 0.782(3) 0.687(3) 0.1289(5)
H4 H 0.632(3) 0.414(3) 0.1240(5)
H5 H 0.721(3) 0.500(3) 0.2522(6)
H6 H 1.125(4) 0.424(3) 0.0676(6)
H7 H 0.793(3) 0.826(3) 0.0870(6)
H8 H 0.697(4) 0.879(4) 0.0413(6)
H9 H 0.346(4) 0.593(4) 0.0532(6)
H10 H 0.435(4) 0.536(4) 0.0995(5)
H11 H 1.058(4) 0.159(4) 0.2421(7)
H12 H 1.185(4) 0.243(4) 0.2231(6)
H13 H 1.068(4) 0.142(4) 0.2058(7)
H14 H 0.770(5) 0.080(5) 0.1101(9)
H15 H 0.739(5) 0.103(5) 0.0779(8)
H16 H 0.625(6) 0.184(6) 0.0968(9)
loop_
_geom_bond_atom_site_label_1
_geom_bond_atom_site_label_2
_geom_bond_site_symmetry_1
_geom_bond_site_symmetry_2
F1 C1 1_555 1_555
F2 C18 1_555 1_555
O1 C6 1_555 1_555
O2 C9 1_555 1_555
O3 C9 1_555 1_555
N1 C3 1_555 1_555
N2 C12 1_555 1_555
N3 N4 1_555 1_555
N4 C12 1_555 1_555
C1 C2 1_555 1_555
C2 C3 1_555 1_555
C3 C7 1_555 1_555
C4 N1 1_555 1_555
C5 C4 1_555 1_555
C6 C5 1_555 1_555
C7 C6 1_555 1_555
C8 C7 1_555 1_555
C9 C8 1_555 1_555
C10 O3 1_555 1_555
C11 C1 1_555 1_555
C12 C5 1_555 1_555
C13 N2 1_555 1_555
C14 N4 1_555 1_555
C15 C4 1_555 1_555
C16 C15 1_555 1_555
C17 C16 1_555 1_555
C18 C17 1_555 1_555
C19 C18 1_555 1_555
C20 C15 1_555 1_555
H1 N1 1_555 1_555
H2 C2 1_555 1_555
H3 C4 1_555 1_555
H4 C5 1_555 1_555
H5 C11 1_555 1_555
H6 C13 1_555 1_555
H7 C16 1_555 1_555
H8 C17 1_555 1_555
H9 C19 1_555 1_555
H10 C20 1_555 1_555
H11 C10 1_555 1_555
H12 C10 1_555 1_555
H13 C10 1_555 1_555
H14 C14 1_555 1_555
H15 C14 1_555 1_555
H16 C14 1_555 1_555
N3 C13 1_555 1_555
C8 C11 1_555 1_555
C19 C20 1_555 1_555

#END
