
#######################################################################
#
#                 Cambridge Crystallographic Data Centre
#                                CCDC 
#
#######################################################################
#
# If this CIF has been generated from an entry in the Cambridge 
# Structural Database, then it will include bibliographic, chemical, 
# crystal, experimental, refinement or atomic coordinate data resulting 
# from the CCDC's data processing and validation procedures.
#
#######################################################################

data_IYEMEG
_chemical_formula_moiety         'C72 H84 N12 O12,13.75(C1 H4 O1),10.5(H2 O1)'
_chemical_name_systematic        
'5,12,20,27,35,42,50,57,62,69,74,81-dodecaazatridecacyclo[29.29.10.10^16,46^.1^3,59^.1^14,18^.1^29,33^.1^44,48^.0^6,11^.0^21,26^.0^36,41^.0^51,56^.0^63,68^.0^75,80^]tetraoctaconta-1,3(71),4,12,14(84),15,17,19,27,29(83),30,32,34,42,44(72),45,47,49,57,59,61,69,73,81-tetracosaene-8,9,23,24,38,39,53,54,65,66,77,78-dodecol methanol solvate hydrate'
_symmetry_cell_setting           tetragonal
_symmetry_space_group_name_H-M   'P 43 21 2'
_symmetry_Int_Tables_number      96
_space_group_name_Hall           'P 4nw 2abw'
loop_
_symmetry_equiv_pos_site_id
_symmetry_equiv_pos_as_xyz
1 x,y,z
2 1/2-y,1/2+x,3/4+z
3 -x,-y,1/2+z
4 1/2+y,1/2-x,1/4+z
5 1/2+x,1/2-y,1/4-z
6 1/2-x,1/2+y,3/4-z
7 y,x,-z
8 -y,-x,1/2-z
_cell_length_a                   20.4170(14)
_cell_length_b                   20.4170(14)
_cell_length_c                   56.059(4)
_cell_angle_alpha                90
_cell_angle_beta                 90
_cell_angle_gamma                90
_cell_volume                     23368.4
_exptl_crystal_colour            colorless
_exptl_crystal_description       needle
_cell_formula_units_Z            8
_exptl_crystal_recrystallization_method methanol
loop_
_atom_site_label
_atom_site_type_symbol
_atom_site_fract_x
_atom_site_fract_y
_atom_site_fract_z
O1 O 0.36187(18) 1.03238(16) 0.71573(7)
H1 H 0.3642 1.0635 0.7060
O2 O 0.25773(15) 0.94168(17) 0.72330(5)
H2 H 0.2603 0.9772 0.7308
O3 O 0.1025(2) 0.5344(3) 0.55269(9)
H3 H 0.0990 0.4935 0.5514
O4 O 0.1812(2) 0.5145(2) 0.50969(6)
H4 H 0.1502 0.5416 0.5094
O5 O 0.80525(18) 0.18493(16) 0.56449(8)
H5 H 0.7895 0.1471 0.5632
O6 O 0.99604(17) 0.62851(17) 0.73830(7)
H6 H 0.9786 0.6265 0.7519
O7 O 0.96541(15) 0.76047(15) 0.73803(5)
H7 H 0.9976 0.7572 0.7288
O8 O 0.77371(16) 0.96043(14) 0.53045(5)
H8 H 0.8035 0.9621 0.5201
O9 O 0.75995(14) 0.85811(14) 0.49381(4)
H9 H 0.7689 0.8957 0.4887
O10 O 0.46114(17) 0.24552(15) 0.75798(5)
H10 H 0.4431 0.2419 0.7714
O11 O 0.33733(15) 0.31225(15) 0.75692(5)
H11 H 0.3023 0.2992 0.7507
O12 O 0.73752(18) 0.2262(2) 0.52153(7)
H12 H 0.6973 0.2176 0.5211
N1 N 0.79719(17) 0.57908(18) 0.69404(6)
N2 N 0.37720(17) 0.55657(17) 0.55453(6)
N3 N 0.66368(15) 0.82144(16) 0.58671(5)
N4 N 0.37208(16) 0.77535(16) 0.67850(5)
N5 N 0.49213(16) 0.85424(16) 0.68214(6)
N6 N 0.54714(18) 0.3934(2) 0.69950(6)
N7 N 0.64514(16) 0.72314(15) 0.54989(5)
N8 N 0.42576(19) 0.46803(16) 0.69944(6)
N9 N 0.30046(17) 0.55857(17) 0.59869(6)
N10 N 0.72769(19) 0.37543(17) 0.60654(7)
N11 N 0.65188(18) 0.41340(17) 0.56448(7)
N12 N 0.78081(16) 0.71991(17) 0.68528(5)
C1 C 0.39263(19) 0.71942(18) 0.68478(6)
H13 H 0.4144 0.7157 0.6997
C2 C 0.42575(18) 0.88152(18) 0.68373(6)
H14 H 0.4093 0.8912 0.6673
C3 C 0.70334(18) 0.7648(2) 0.64651(6)
H15 H 0.7451 0.7469 0.6429
C4 C 0.3144(2) 0.85912(19) 0.70147(7)
H16 H 0.2879 0.8261 0.7101
H17 H 0.2912 0.8705 0.6865
C5 C 0.36084(18) 0.66140(18) 0.64697(6)
H18 H 0.3520 0.7024 0.6396
C6 C 0.38144(19) 0.83004(18) 0.69541(6)
H19 H 0.4027 0.8134 0.7103
C7 C 0.71855(19) 0.86352(19) 0.51440(6)
H20 H 0.6801 0.8920 0.5105
C8 C 0.4997(2) 0.3899(2) 0.71885(7)
H21 H 0.5097 0.4245 0.7310
C9 C 0.5046(2) 0.3221(2) 0.73046(7)
H22 H 0.5003 0.2882 0.7179
H23 H 0.5484 0.3172 0.7378
C10 C 0.60352(19) 0.8183(2) 0.63405(7)
H24 H 0.5777 0.8376 0.6218
C11 C 0.4527(2) 0.3107(2) 0.74932(7)
H25 H 0.4596 0.3422 0.7627
C12 C 0.61916(19) 0.7893(2) 0.67527(6)
H26 H 0.6032 0.7880 0.6912
C13 C 0.38562(19) 0.32172(18) 0.73872(6)
H27 H 0.3782 0.2889 0.7257
C14 C 0.71748(18) 0.89212(19) 0.55805(6)
H28 H 0.6773 0.9188 0.5561
H29 H 0.7436 0.9111 0.5712
C15 C 0.3804(2) 0.39053(19) 0.72819(7)
H30 H 0.3359 0.3970 0.7216
H31 H 0.3872 0.4233 0.7410
C16 C 0.3596(2) 0.97155(19) 0.70299(8)
H32 H 0.3372 0.9790 0.6874
C17 C 0.38929(18) 0.54086(18) 0.66815(6)
C18 C 0.5871(2) 0.7025(2) 0.54948(8)
H33 H 0.5526 0.7322 0.5461
C19 C 0.6438(3) 0.4425(3) 0.68332(9)
C20 C 0.40165(19) 0.47589(18) 0.67894(6)
H34 H 0.3908 0.4380 0.6699
C21 C 0.32219(19) 0.60814(19) 0.61002(6)
H35 H 0.3205 0.6499 0.6025
C22 C 0.6946(2) 0.79499(19) 0.52080(6)
H36 H 0.7328 0.7653 0.5219
H37 H 0.6661 0.7788 0.5078
C23 C 0.65662(17) 0.79181(18) 0.54427(6)
H38 H 0.6141 0.8159 0.5429
C24 C 0.75715(19) 0.89373(18) 0.53503(6)
H39 H 0.7984 0.8681 0.5374
C25 C 0.39907(18) 0.59915(18) 0.68069(6)
H40 H 0.4157 0.5977 0.6965
C26 C 0.69892(17) 0.82145(18) 0.56408(6)
H41 H 0.7398 0.7949 0.5658
C27 C 0.6214(2) 0.5865(2) 0.55541(8)
H42 H 0.6655 0.5995 0.5528
C28 C 0.4282(2) 0.94528(19) 0.69818(7)
H43 H 0.4507 0.9371 0.7135
H44 H 0.4537 0.9785 0.6893
C29 C 0.5065(2) 0.6135(2) 0.55699(8)
H45 H 0.4722 0.6448 0.5558
C30 C 0.6610(2) 0.4730(2) 0.56093(8)
H46 H 0.7045 0.4880 0.5585
C31 C 0.32129(19) 0.92045(19) 0.71698(7)
H47 H 0.3461 0.9090 0.7318
C32 C 0.6875(2) 0.3754(2) 0.62347(8)
H48 H 0.6506 0.3472 0.6221
C33 C 0.6440(3) 0.4061(3) 0.66229(9)
H49 H 0.6106 0.3747 0.6595
C34 C 0.6071(2) 0.5211(2) 0.56039(8)
C35 C 0.31057(19) 0.5292(2) 0.55677(7)
H50 H 0.3132 0.4827 0.5622
C36 C 0.5713(2) 0.6330(2) 0.55419(8)
C37 C 0.7087(2) 0.3698(2) 0.56319(8)
H51 H 0.7496 0.3960 0.5609
C38 C 0.4232(2) 0.5246(2) 0.56329(8)
H52 H 0.4141 0.4844 0.5712
C39 C 0.6989(2) 0.3230(2) 0.54233(8)
H53 H 0.6552 0.3024 0.5437
H54 H 0.6997 0.3484 0.5273
C40 C 0.7503(2) 0.2695(2) 0.54100(8)
H55 H 0.7939 0.2907 0.5383
C41 C 0.7533(2) 0.2318(2) 0.56465(9)
H56 H 0.7107 0.2087 0.5673
C42 C 0.34983(18) 0.60335(18) 0.63426(6)
C43 C 0.7659(2) 0.2793(2) 0.58521(9)
H57 H 0.7677 0.2547 0.6004
H58 H 0.8088 0.3010 0.5829
C44 C 0.7126(2) 0.3309(2) 0.58666(8)
H59 H 0.6696 0.3091 0.5897
C45 C 0.58030(19) 0.8166(2) 0.65712(7)
C46 C 0.84937(18) 0.6280(2) 0.69677(6)
H60 H 0.8719 0.6350 0.6811
C47 C 0.89877(19) 0.6025(2) 0.71530(7)
H61 H 0.8750 0.5896 0.7300
H62 H 0.9210 0.5632 0.7089
C48 C 0.66493(18) 0.7916(2) 0.62849(6)
C49 C 0.94991(19) 0.6540(2) 0.72155(7)
H63 H 0.9739 0.6664 0.7067
C50 C 0.91661(19) 0.7143(2) 0.73134(7)
H64 H 0.8906 0.7019 0.7458
C51 C 0.68022(19) 0.7644(2) 0.67012(7)
C52 C 0.87051(19) 0.7421(2) 0.71244(7)
H65 H 0.8962 0.7548 0.6982
H66 H 0.8490 0.7819 0.7188
C53 C 0.81791(18) 0.69219(19) 0.70515(6)
H67 H 0.7880 0.6835 0.7189
C54 C 0.51479(19) 0.8447(2) 0.66185(7)
H68 H 0.4883 0.8561 0.6485
C55 C 0.69175(18) 0.79282(19) 0.60395(6)
H69 H 0.7320 0.7710 0.6010
C56 C 0.4309(2) 0.40100(18) 0.70861(6)
H70 H 0.4228 0.3692 0.6954
C57 C 0.72214(19) 0.7363(2) 0.68912(6)
H71 H 0.7043 0.7304 0.7046
C58 C 0.2726(2) 0.5700(2) 0.57518(7)
H72 H 0.2754 0.6176 0.5711
C59 C 0.6927(3) 0.4894(3) 0.68675(8)
H73 H 0.6920 0.5156 0.7007
C60 C 0.2009(2) 0.5478(2) 0.57531(7)
H74 H 0.1986 0.5019 0.5810
H75 H 0.1760 0.5753 0.5867
C61 C 0.7426(3) 0.4985(3) 0.67009(8)
C62 C 0.7420(2) 0.4614(3) 0.64922(8)
H76 H 0.7754 0.4676 0.6376
C63 C 0.1691(2) 0.5524(3) 0.55088(9)
H77 H 0.1715 0.5988 0.5453
C64 C 0.6928(3) 0.4153(3) 0.64522(9)
C65 C 0.2065(2) 0.5098(3) 0.53335(8)
H78 H 0.2048 0.4631 0.5387
C66 C 0.5923(3) 0.4343(3) 0.70134(8)
H79 H 0.5933 0.4615 0.7151
C67 C 0.7934(2) 0.5488(2) 0.67438(8)
H80 H 0.8240 0.5585 0.6621
C68 C 0.2778(2) 0.5323(3) 0.53234(7)
H81 H 0.3022 0.5041 0.5210
H82 H 0.2796 0.5778 0.5263
C69 C 0.38466(18) 0.65959(18) 0.67024(7)
C70 C 0.4917(2) 0.5476(2) 0.56166(8)
C71 C 0.5420(2) 0.50189(19) 0.56372(8)
H83 H 0.5320 0.4576 0.5674
C72 C 0.36419(18) 0.54328(18) 0.64503(6)
H84 H 0.3568 0.5037 0.6365
O13 O 0.0566 0.4323 0.5801
H85 H 0.0392 0.4538 0.5919
H86 H 0.0686 0.4597 0.5690
O14 O 0.8642(5) 0.4093(6) 0.6063(2)
H87 H 0.8669 0.4102 0.6213
C73 C 0.8226(17) 0.4615(15) 0.5983(6)
H88 H 0.8186 0.4598 0.5809
H89 H 0.8415 0.5037 0.6030
H90 H 0.7791 0.4568 0.6055
O15 O 1.0446(3) 0.4973(3) 0.68501(11)
H91 H 1.0326 0.5309 0.6935
H92 H 1.0145 0.4885 0.6746
O16 O 0.8573(10) 0.3009(10) 0.6502(4)
H93 H 0.8212 0.3206 0.6508
C74 C 0.9044(9) 0.3431(9) 0.6447(3)
H94 H 0.8908 0.3691 0.6308
H95 H 0.9446 0.3191 0.6408
H96 H 0.9125 0.3722 0.6582
O17 O 0.8996(10) 0.4061(11) 0.7000(4)
H97 H 0.8604 0.4182 0.6991
C75 C 0.9311(7) 0.4279(7) 0.6818(3)
H98 H 0.9044 0.4607 0.6735
H99 H 0.9408 0.3916 0.6709
H100 H 0.9722 0.4480 0.6870
O18 O 0.9458(13) 0.4895(14) 0.6082(4)
H101 H 0.9217 0.4568 0.6058
C76 C 0.9127(13) 0.5350(12) 0.6235(4)
H102 H 0.9120 0.5783 0.6159
H103 H 0.9357 0.5379 0.6388
H104 H 0.8676 0.5201 0.6262
O19 O 0.5803(6) 0.6612(6) 0.7117(2)
H105 H 0.6150 0.6535 0.7193
C77 C 0.5555(10) 0.6003(10) 0.7014(4)
H106 H 0.5897 0.5800 0.6916
H107 H 0.5172 0.6099 0.6914
H108 H 0.5429 0.5703 0.7142
O20 O 0.9727(5) 0.4467(5) 0.76156(17)
H109 H 0.9883 0.4602 0.7486
C78 C 0.9164(11) 0.4037(13) 0.7568(5)
H110 H 0.9311 0.3650 0.7479
H111 H 0.8838 0.4275 0.7473
H112 H 0.8967 0.3899 0.7719
O21 O 0.4452(12) 0.3492(12) 0.5723(4)
H113 H 0.4179 0.3560 0.5614
C79 C 0.4955(18) 0.3055(19) 0.5638(7)
H114 H 0.5166 0.3275 0.5485
H115 H 0.4781 0.2646 0.5581
H116 H 0.5300 0.3010 0.5749
O22 O 0.6076(2) 0.1946(2) 0.52418(8)
H117 H 0.6233 0.1746 0.5124
C80 C 0.5860(5) 0.1489(5) 0.54136(14)
H118 H 0.6040 0.1056 0.5377
H119 H 0.5380 0.1468 0.5411
H120 H 0.6008 0.1626 0.5572
O23 O 0.4302(5) 0.1159(5) 0.68496(16)
H121 H 0.4659 0.0963 0.6828
C81 C 0.4406(16) 0.1713(15) 0.6988(5)
H122 H 0.4362 0.1600 0.7157
H123 H 0.4083 0.2049 0.6946
H124 H 0.4848 0.1882 0.6958
O24 O 0.6389(5) 0.1698(5) 0.60892(19)
H125 H 0.6632 0.1864 0.6194
C82 C 0.5742(11) 0.1844(12) 0.6140(4)
H126 H 0.5720 0.2119 0.6283
H127 H 0.5499 0.1437 0.6167
H128 H 0.5548 0.2079 0.6004
O25 O 0.7190(3) 0.6143(3) 0.62963(12)
H129 H 0.6968 0.6465 0.6343
C83 C 0.6960(7) 0.5936(7) 0.6081(2)
H130 H 0.7293 0.6014 0.5959
H131 H 0.6561 0.6179 0.6041
H132 H 0.6861 0.5467 0.6089
O26 O 0.5675(4) 0.8070(5) 0.74121(11)
H133 H 0.5601 0.8052 0.7559
C84 C 0.5321(5) 0.8549(5) 0.73161(13)
H134 H 0.5473 0.8632 0.7153
H135 H 0.5372 0.8948 0.7412
H136 H 0.4859 0.8421 0.7313
O27 O 0.4463(2) 0.8087(3) 0.60520(8)
H137 H 0.4757 0.8337 0.6001
C85 C 0.4668(4) 0.7427(4) 0.60274(14)
H138 H 0.5030 0.7404 0.5913
H139 H 0.4301 0.7161 0.5970
H140 H 0.4815 0.7261 0.6182
O28 O 0.4066(2) 0.61925(17) 0.51010(6)
H141 H 0.3961 0.6050 0.5236
C86 C 0.4364(5) 0.5694(3) 0.49702(13)
H142 H 0.4244 0.5737 0.4802
H143 H 0.4215 0.5268 0.5030
H144 H 0.4840 0.5726 0.4987
O29 O 0.1478(3) 0.4571(3) 0.65735(8)
H145 H 0.1292 0.4237 0.6518
C87 C 0.1596(4) 0.5025(4) 0.63857(12)
H146 H 0.1360 0.4885 0.6242
H147 H 0.2067 0.5043 0.6352
H148 H 0.1443 0.5460 0.6434
O30 O 0.5626 0.9822 0.5172
H149 H 0.5233 0.9963 0.5203
H150 H 0.5739 0.9531 0.5278
O31 O 0.2509(2) 0.4360(2) 0.68806(8)
H151 H 0.2216 0.4450 0.6773
H152 H 0.2898 0.4408 0.6820
O32 O 0.5354(2) 0.8753(2) 0.58017(7)
H153 H 0.5375 0.9170 0.5832
H154 H 0.5748 0.8593 0.5794
O33 O 0.83226(17) 0.67919(17) 0.61835(6)
H155 H 0.8082 0.6443 0.6198
H156 H 0.8696 0.6730 0.6255
O34 O 0.6139(5) 0.6181(5) 0.66131(16)
H157 H 0.6268 0.6512 0.6689
C88 C 0.5654(8) 0.6357(8) 0.6462(3)
H158 H 0.5826 0.6378 0.6299
H159 H 0.5484 0.6788 0.6508
H160 H 0.5300 0.6033 0.6470
O35 O 0.2392(8) 0.3239(8) 0.6092(3)
H161 H 0.2552 0.2865 0.6115
C89 C 0.2870(11) 0.3740(11) 0.6160(4)
H162 H 0.2827 0.4119 0.6054
H163 H 0.3314 0.3560 0.6147
H164 H 0.2790 0.3877 0.6325
O36 O 0.5061(8) 0.4587(8) 0.6246(3)
H165 H 0.5415 0.4519 0.6174
C90 C 0.4579(11) 0.4100(11) 0.6173(4)
H166 H 0.4650 0.3986 0.6005
H167 H 0.4137 0.4281 0.6192
H168 H 0.4625 0.3707 0.6271
O37 O 0.3302 0.3501 0.5454
H169 H 0.3279 0.3374 0.5602
H170 H 0.3263 0.3162 0.5361
O38 O 0.4681(3) 0.6676(3) 0.73731(10)
H171 H 0.4478 0.6302 0.7364
H172 H 0.5086 0.6626 0.7328
O39? O 0.8522 0.4838 0.7710
H173? H 0.8568 0.4591 0.7585
H174? H 0.8797 0.5163 0.7702
O40? O 0.9492(16) 0.4214(16) 0.7452(5)
H175? H 0.9661 0.3884 0.7517
C91? C 0.9170(10) 0.4624(10) 0.7637(3)
H176? H 0.9275 0.5086 0.7609
H177? H 0.9327 0.4493 0.7795
H178? H 0.8694 0.4562 0.7629
O41? O 0.8512(8) 0.4360(9) 0.6016(3)
H179? H 0.8499 0.4004 0.5930
H180? H 0.8842 0.4600 0.5970
O42? O 0.9666(12) 0.5133(12) 0.6293(4)
H181? H 0.9975 0.5202 0.6388
C92? C 0.9210(19) 0.4696(19) 0.6397(7)
H182? H 0.9150 0.4317 0.6293
H183? H 0.8790 0.4920 0.6419
H184? H 0.9376 0.4549 0.6552
O43? O 0.4046(3) 0.5526(3) 0.73916(11)
H185? H 0.4100 0.5249 0.7276
H186? H 0.4335 0.5451 0.7502
O44? O 0.5865 0.6379 0.7071
H187? H 0.6263 0.6243 0.7095
H188? H 0.5715 0.6210 0.6940
O45? O 0.5161(4) 0.5541(4) 0.72306(13)
H189? H 0.4988 0.5370 0.7103
H190? H 0.5325 0.5923 0.7196
O46? O 0.7252 0.5763 0.6076
H191? H 0.7153 0.5371 0.6125
H192? H 0.6919 0.5931 0.6001
O47? O 0.4610(8) 0.2704(8) 0.6581(3)
H193? H 0.4518 0.2308 0.6604
C93? C 0.5277(11) 0.2840(11) 0.6668(4)
H194? H 0.5596 0.2727 0.6544
H195? H 0.5362 0.2577 0.6811
H196? H 0.5317 0.3306 0.6707
O48? O 0.4024 0.3148 0.6495
H197? H 0.3856 0.3295 0.6627
H198? H 0.4201 0.2766 0.6521
O49? O 0.5084 0.3137 0.6571
H199? H 0.4704 0.3321 0.6593
H200? H 0.5195 0.2922 0.6699
O50? O 0.4242 0.2498 0.6783
H201? H 0.3969 0.2171 0.6779
H202? H 0.4641 0.2351 0.6771
O51? O 0.4005 0.1283 0.6896
H203? H 0.4328 0.1162 0.6988
H204? H 0.3685 0.1429 0.6983
O52? O 0.4890 0.4229 0.6237
H205? H 0.4929 0.4269 0.6083
H206? H 0.4704 0.3856 0.6270
O53? O 0.5369(10) 0.3392(9) 0.5828(3)
H207? H 0.5292 0.3783 0.5865
C94? C 0.5384(13) 0.3337(13) 0.5587(3)
H208? H 0.5026 0.3593 0.5518
H209? H 0.5334 0.2875 0.5542
H210? H 0.5804 0.3502 0.5527
loop_
_geom_bond_atom_site_label_1
_geom_bond_atom_site_label_2
_geom_bond_site_symmetry_1
_geom_bond_site_symmetry_2
O1 H1 1_555 1_555
O2 H2 1_555 1_555
O3 H3 1_555 1_555
O4 H4 1_555 1_555
O5 H5 1_555 1_555
O6 H6 1_555 1_555
O7 H7 1_555 1_555
O8 H8 1_555 1_555
O9 H9 1_555 1_555
O10 H10 1_555 1_555
O11 H11 1_555 1_555
O12 H12 1_555 1_555
N1 C46 1_555 1_555
N2 C35 1_555 1_555
N3 C26 1_555 1_555
N4 C1 1_555 1_555
N5 C2 1_555 1_555
N6 C8 1_555 1_555
N7 C18 1_555 1_555
N8 C20 1_555 1_555
N9 C21 1_555 1_555
N10 C32 1_555 1_555
N11 C30 1_555 1_555
N12 C53 1_555 1_555
C1 H13 1_555 1_555
C2 H14 1_555 1_555
C3 H15 1_555 1_555
C4 H16 1_555 1_555
H17 C4 1_555 1_555
C5 H18 1_555 1_555
C6 N4 1_555 1_555
H19 C6 1_555 1_555
C7 O9 1_555 1_555
H20 C7 1_555 1_555
C8 H21 1_555 1_555
C9 C8 1_555 1_555
H22 C9 1_555 1_555
H23 C9 1_555 1_555
C10 H24 1_555 1_555
C11 O10 1_555 1_555
H25 C11 1_555 1_555
C12 H26 1_555 1_555
C13 O11 1_555 1_555
H27 C13 1_555 1_555
C14 H28 1_555 1_555
H29 C14 1_555 1_555
C15 C13 1_555 1_555
H30 C15 1_555 1_555
H31 C15 1_555 1_555
C16 O1 1_555 1_555
H32 C16 1_555 1_555
C17 C20 1_555 1_555
C18 H33 1_555 1_555
C19 C33 1_555 1_555
C20 H34 1_555 1_555
C21 H35 1_555 1_555
C22 C7 1_555 1_555
H36 C22 1_555 1_555
H37 C22 1_555 1_555
C23 N7 1_555 1_555
H38 C23 1_555 1_555
C24 O8 1_555 1_555
H39 C24 1_555 1_555
C25 C17 1_555 1_555
H40 C25 1_555 1_555
C26 C14 1_555 1_555
H41 C26 1_555 1_555
C27 H42 1_555 1_555
C28 C2 1_555 1_555
H43 C28 1_555 1_555
H44 C28 1_555 1_555
C29 H45 1_555 1_555
C30 H46 1_555 1_555
C31 O2 1_555 1_555
H47 C31 1_555 1_555
C32 H48 1_555 1_555
C33 H49 1_555 1_555
C34 C27 1_555 1_555
C35 H50 1_555 1_555
C36 C18 1_555 1_555
C37 N11 1_555 1_555
H51 C37 1_555 1_555
C38 N2 1_555 1_555
H52 C38 1_555 1_555
C39 C37 1_555 1_555
H53 C39 1_555 1_555
H54 C39 1_555 1_555
C40 O12 1_555 1_555
H55 C40 1_555 1_555
C41 O5 1_555 1_555
H56 C41 1_555 1_555
C42 C5 1_555 1_555
C43 C41 1_555 1_555
H57 C43 1_555 1_555
H58 C43 1_555 1_555
C44 N10 1_555 1_555
H59 C44 1_555 1_555
C45 C10 1_555 1_555
C46 H60 1_555 1_555
C47 C46 1_555 1_555
H61 C47 1_555 1_555
H62 C47 1_555 1_555
C48 C3 1_555 1_555
C49 O6 1_555 1_555
H63 C49 1_555 1_555
C50 O7 1_555 1_555
H64 C50 1_555 1_555
C51 C3 1_555 1_555
C52 C50 1_555 1_555
H65 C52 1_555 1_555
H66 C52 1_555 1_555
C53 C46 1_555 1_555
H67 C53 1_555 1_555
C54 N5 1_555 1_555
H68 C54 1_555 1_555
C55 N3 1_555 1_555
H69 C55 1_555 1_555
C56 N8 1_555 1_555
H70 C56 1_555 1_555
C57 N12 1_555 1_555
H71 C57 1_555 1_555
C58 N9 1_555 1_555
H72 C58 1_555 1_555
C59 C19 1_555 1_555
H73 C59 1_555 1_555
C60 C58 1_555 1_555
H74 C60 1_555 1_555
H75 C60 1_555 1_555
C61 C59 1_555 1_555
C62 C61 1_555 1_555
H76 C62 1_555 1_555
C63 O3 1_555 1_555
H77 C63 1_555 1_555
C64 C32 1_555 1_555
C65 O4 1_555 1_555
H78 C65 1_555 1_555
C66 N6 1_555 1_555
H79 C66 1_555 1_555
C67 N1 1_555 1_555
H80 C67 1_555 1_555
C68 C35 1_555 1_555
H81 C68 1_555 1_555
H82 C68 1_555 1_555
C69 C1 1_555 1_555
C70 C29 1_555 1_555
C71 C34 1_555 1_555
H83 C71 1_555 1_555
C72 C17 1_555 1_555
H84 C72 1_555 1_555
O13 H85 1_555 1_555
H86 O13 1_555 1_555
O14 H87 1_555 1_555
C73 O14 1_555 1_555
H88 C73 1_555 1_555
H89 C73 1_555 1_555
H90 C73 1_555 1_555
O15 H91 1_555 1_555
H92 O15 1_555 1_555
O16 H93 1_555 1_555
C74 O16 1_555 1_555
H94 C74 1_555 1_555
H95 C74 1_555 1_555
H96 C74 1_555 1_555
O17 H97 1_555 1_555
C75 O17 1_555 1_555
H98 C75 1_555 1_555
H99 C75 1_555 1_555
H100 C75 1_555 1_555
O18 H101 1_555 1_555
C76 O18 1_555 1_555
H102 C76 1_555 1_555
H103 C76 1_555 1_555
H104 C76 1_555 1_555
O19 H105 1_555 1_555
C77 O19 1_555 1_555
H106 C77 1_555 1_555
H107 C77 1_555 1_555
H108 C77 1_555 1_555
O20 H109 1_555 1_555
C78 O20 1_555 1_555
H110 C78 1_555 1_555
H111 C78 1_555 1_555
H112 C78 1_555 1_555
O21 H113 1_555 1_555
C79 O21 1_555 1_555
H114 C79 1_555 1_555
H115 C79 1_555 1_555
H116 C79 1_555 1_555
O22 H117 1_555 1_555
C80 O22 1_555 1_555
H118 C80 1_555 1_555
H119 C80 1_555 1_555
H120 C80 1_555 1_555
O23 H121 1_555 1_555
C81 O23 1_555 1_555
H122 C81 1_555 1_555
H123 C81 1_555 1_555
H124 C81 1_555 1_555
O24 H125 1_555 1_555
C82 O24 1_555 1_555
H126 C82 1_555 1_555
H127 C82 1_555 1_555
H128 C82 1_555 1_555
O25 H129 1_555 1_555
C83 O25 1_555 1_555
H130 C83 1_555 1_555
H131 C83 1_555 1_555
H132 C83 1_555 1_555
O26 H133 1_555 1_555
C84 O26 1_555 1_555
H134 C84 1_555 1_555
H135 C84 1_555 1_555
H136 C84 1_555 1_555
O27 H137 1_555 1_555
C85 O27 1_555 1_555
H138 C85 1_555 1_555
H139 C85 1_555 1_555
H140 C85 1_555 1_555
O28 H141 1_555 1_555
C86 O28 1_555 1_555
H142 C86 1_555 1_555
H143 C86 1_555 1_555
H144 C86 1_555 1_555
O29 H145 1_555 1_555
C87 O29 1_555 1_555
H146 C87 1_555 1_555
H147 C87 1_555 1_555
H148 C87 1_555 1_555
O30 H149 1_555 1_555
H150 O30 1_555 1_555
O31 H151 1_555 1_555
H152 O31 1_555 1_555
O32 H153 1_555 1_555
H154 O32 1_555 1_555
O33 H155 1_555 1_555
H156 O33 1_555 1_555
O34 H157 1_555 1_555
C88 O34 1_555 1_555
H158 C88 1_555 1_555
H159 C88 1_555 1_555
H160 C88 1_555 1_555
O35 H161 1_555 1_555
C89 O35 1_555 1_555
H162 C89 1_555 1_555
H163 C89 1_555 1_555
H164 C89 1_555 1_555
O36 H165 1_555 1_555
C90 O36 1_555 1_555
H166 C90 1_555 1_555
H167 C90 1_555 1_555
H168 C90 1_555 1_555
O37 H169 1_555 1_555
H170 O37 1_555 1_555
O38 H171 1_555 1_555
H172 O38 1_555 1_555
C2 C6 1_555 1_555
C4 C6 1_555 1_555
C4 C31 1_555 1_555
C5 C69 1_555 1_555
C7 C24 1_555 1_555
C8 C56 1_555 1_555
C9 C11 1_555 1_555
C10 C48 1_555 1_555
C11 C13 1_555 1_555
C12 C45 1_555 1_555
C12 C51 1_555 1_555
C14 C24 1_555 1_555
C15 C56 1_555 1_555
C16 C28 1_555 1_555
C16 C31 1_555 1_555
C19 C66 1_555 1_555
C21 C42 1_555 1_555
C22 C23 1_555 1_555
C23 C26 1_555 1_555
C25 C69 1_555 1_555
C27 C36 1_555 1_555
C29 C36 1_555 1_555
C30 C34 1_555 1_555
C33 C64 1_555 1_555
C35 C58 1_555 1_555
C37 C44 1_555 1_555
C38 C70 1_555 1_555
C39 C40 1_555 1_555
C40 C41 1_555 1_555
C42 C72 1_555 1_555
C43 C44 1_555 1_555
C45 C54 1_555 1_555
C47 C49 1_555 1_555
C48 C55 1_555 1_555
C49 C50 1_555 1_555
C51 C57 1_555 1_555
C52 C53 1_555 1_555
C60 C63 1_555 1_555
C61 C67 1_555 1_555
C62 C64 1_555 1_555
C63 C65 1_555 1_555
C65 C68 1_555 1_555
C70 C71 1_555 1_555

#END
