
#######################################################################
#
#                 Cambridge Crystallographic Data Centre
#                                CCDC 
#
#######################################################################
#
# If this CIF has been generated from an entry in the Cambridge 
# Structural Database, then it will include bibliographic, chemical, 
# crystal, experimental, refinement or atomic coordinate data resulting 
# from the CCDC's data processing and validation procedures.
#
#######################################################################

data_IYENIL
_chemical_formula_moiety         'C20 H19 N1 O4 S1'
_chemical_name_systematic        
'dimethyl (1S,3aR)-1-phenyl-1,2-dihydropyrrolo[2,1-b][1,3]benzothiazole-3,3(3aH)-dicarboxylate'
_symmetry_cell_setting           orthorhombic
_symmetry_space_group_name_H-M   'P 21 21 21'
_symmetry_Int_Tables_number      19
_space_group_name_Hall           'P 2ac 2ab'
loop_
_symmetry_equiv_pos_site_id
_symmetry_equiv_pos_as_xyz
1 x,y,z
2 1/2-x,-y,1/2+z
3 -x,1/2+y,1/2-z
4 1/2+x,1/2-y,-z
_cell_length_a                   10.971(2)
_cell_length_b                   10.971(2)
_cell_length_c                   15.341(3)
_cell_angle_alpha                90
_cell_angle_beta                 90
_cell_angle_gamma                90
_cell_volume                     1846.49
_exptl_crystal_colour            colorless
_exptl_crystal_description       block
_cell_formula_units_Z            4
_exptl_crystal_recrystallization_method 'dichloromethane/petroleum ether'
loop_
_atom_site_label
_atom_site_type_symbol
_atom_site_fract_x
_atom_site_fract_y
_atom_site_fract_z
S1 S 0.45427(16) 0.49105(14) -0.15544(8)
N1 N 0.5075(3) 0.4999(4) 0.0134(2)
O1 O 0.3509(3) 0.7888(4) -0.1236(2)
O2 O 0.4913(3) 0.9096(4) -0.0607(3)
O3 O 0.7349(3) 0.6545(4) -0.0703(3)
O4 O 0.6306(3) 0.7356(4) -0.1793(2)
C1 C 0.6764(6) 0.2069(6) -0.1058(5)
H1 H 0.7131 0.1413 -0.1339
C2 C 0.6942(6) 0.2244(6) -0.0171(5)
H2 H 0.7437 0.1706 0.0137
C3 C 0.6399(5) 0.3198(5) 0.0260(4)
H3 H 0.6521 0.3308 0.0854
C4 C 0.5665(4) 0.3994(5) -0.0207(3)
C5 C 0.5501(5) 0.3793(5) -0.1099(3)
C6 C 0.6040(6) 0.2870(6) -0.1523(4)
H4 H 0.5929 0.2771 -0.2120
C7 C 0.4511(5) 0.5780(4) -0.0537(3)
H5 H 0.3660 0.5931 -0.0375
C8 C 0.5218(4) 0.6998(5) -0.0496(3)
C9 C 0.5439(4) 0.7078(4) 0.0490(3)
H6 H 0.6132 0.7599 0.0614
H7 H 0.4728 0.7404 0.0784
C10 C 0.5692(4) 0.5769(4) 0.0787(3)
H8 H 0.6571 0.5623 0.0743
C11 C 0.5304(5) 0.5513(4) 0.1713(3)
C12 C 0.5912(7) 0.6043(7) 0.2388(3)
H9 H 0.6589 0.6526 0.2270
C13 C 0.5548(8) 0.5882(7) 0.3241(4)
H10 H 0.5965 0.6271 0.3690
C14 C 0.4583(7) 0.5157(5) 0.3424(3)
H11 H 0.4335 0.5047 0.3998
C15 C 0.3978(8) 0.4592(8) 0.2767(4)
H12 H 0.3312 0.4095 0.2888
C16 C 0.4354(6) 0.4757(6) 0.1922(4)
H13 H 0.3951 0.4344 0.1478
C17 C 0.4438(4) 0.8011(5) -0.0833(3)
C18 C 0.4223(6) 1.0153(6) -0.0842(6)
H14 H 0.4644 1.0872 -0.0650
H15 H 0.3436 1.0118 -0.0571
H16 H 0.4127 1.0180 -0.1464
C19 C 0.6420(4) 0.6946(4) -0.0995(3)
C20 C 0.7359(6) 0.7276(8) -0.2347(4)
H17 H 0.7167 0.7605 -0.2910
H18 H 0.7597 0.6438 -0.2407
H19 H 0.8017 0.7732 -0.2094
loop_
_geom_bond_atom_site_label_1
_geom_bond_atom_site_label_2
_geom_bond_site_symmetry_1
_geom_bond_site_symmetry_2
S1 C5 1_555 1_555
N1 C4 1_555 1_555
O1 C17 1_555 1_555
O2 C17 1_555 1_555
O3 C19 1_555 1_555
O4 C19 1_555 1_555
C1 H1 1_555 1_555
C2 C1 1_555 1_555
H2 C2 1_555 1_555
C3 C2 1_555 1_555
H3 C3 1_555 1_555
C4 C3 1_555 1_555
C5 C4 1_555 1_555
C6 C1 1_555 1_555
H4 C6 1_555 1_555
C7 S1 1_555 1_555
H5 C7 1_555 1_555
C8 C7 1_555 1_555
C9 C8 1_555 1_555
H6 C9 1_555 1_555
H7 C9 1_555 1_555
C10 N1 1_555 1_555
H8 C10 1_555 1_555
C11 C10 1_555 1_555
C12 C11 1_555 1_555
H9 C12 1_555 1_555
C13 C12 1_555 1_555
H10 C13 1_555 1_555
C14 C13 1_555 1_555
H11 C14 1_555 1_555
C15 C14 1_555 1_555
H12 C15 1_555 1_555
C16 C11 1_555 1_555
H13 C16 1_555 1_555
C17 C8 1_555 1_555
C18 O2 1_555 1_555
H14 C18 1_555 1_555
H15 C18 1_555 1_555
H16 C18 1_555 1_555
C19 C8 1_555 1_555
C20 O4 1_555 1_555
H17 C20 1_555 1_555
H18 C20 1_555 1_555
H19 C20 1_555 1_555
N1 C7 1_555 1_555
C5 C6 1_555 1_555
C9 C10 1_555 1_555
C15 C16 1_555 1_555

#END
