
#######################################################################
#
#                 Cambridge Crystallographic Data Centre
#                                CCDC 
#
#######################################################################
#
# If this CIF has been generated from an entry in the Cambridge 
# Structural Database, then it will include bibliographic, chemical, 
# crystal, experimental, refinement or atomic coordinate data resulting 
# from the CCDC's data processing and validation procedures.
#
#######################################################################

data_IYERUA
_chemical_formula_moiety         'C35 H24 Br1 Cl1 N4 O3,0.5(C1 H2 Cl2)'
_chemical_name_systematic        
"2-(4-Bromophenyl)-N-(4-chlorophenyl)-5,5-dicyano-1'-(4-methoxybenzyl)-2'-oxo-1',2'-dihydrospiro[cyclopent-3-ene-1,3'-indole]-3-carboxamide dichloromethane solvate"
_symmetry_cell_setting           orthorhombic
_symmetry_space_group_name_H-M   'P 21 21 21'
_symmetry_Int_Tables_number      19
_space_group_name_Hall           'P 2ac 2ab'
loop_
_symmetry_equiv_pos_site_id
_symmetry_equiv_pos_as_xyz
1 x,y,z
2 1/2-x,-y,1/2+z
3 -x,1/2+y,1/2-z
4 1/2+x,1/2-y,-z
_cell_length_a                   16.6920(15)
_cell_length_b                   17.9543(15)
_cell_length_c                   21.2092(18)
_cell_angle_alpha                90
_cell_angle_beta                 90
_cell_angle_gamma                90
_cell_volume                     6356.25
_exptl_crystal_colour            colorless
_exptl_crystal_description       rod
_cell_formula_units_Z            8
loop_
_atom_site_label
_atom_site_type_symbol
_atom_site_fract_x
_atom_site_fract_y
_atom_site_fract_z
Br1 Br 1.17376(9) 0.57415(8) 0.68352(6)
Cl1 Cl 0.9484(2) -0.04577(19) 0.69971(15)
O1 O 0.9910(5) 0.2943(5) 0.5584(4)
O2 O 1.2260(5) 0.3996(4) 0.4246(4)
O3 O 1.3311(6) 0.7652(5) 0.5605(5)
N1 N 1.0399(6) 0.1877(6) 0.5143(4)
H1 H 1.0683 0.1710 0.4829
N2 N 1.1794(6) 0.5096(5) 0.3822(4)
N3 N 1.2123(6) 0.3368(6) 0.2817(4)
N4 N 0.9544(7) 0.3274(6) 0.2830(5)
C1 C 0.9676(8) 0.0252(7) 0.6444(5)
C2 C 0.9618(8) 0.0964(7) 0.6614(6)
H3 H 0.9431 0.1090 0.7019
C3 C 0.9841(8) 0.1533(7) 0.6183(5)
H4 H 0.9804 0.2037 0.6300
C4 C 1.0109(8) 0.1339(7) 0.5595(5)
C5 C 1.0172(8) 0.0608(7) 0.5419(5)
H5 H 1.0370 0.0479 0.5018
C6 C 0.9935(8) 0.0053(7) 0.5851(5)
H6 H 0.9953 -0.0451 0.5735
C7 C 1.0261(7) 0.2628(7) 0.5168(5)
C8 C 1.0563(7) 0.3041(7) 0.4594(5)
C9 C 1.0796(7) 0.2789(7) 0.4041(5)
H7 H 1.0931 0.2290 0.3961
C10 C 1.0823(7) 0.3404(7) 0.3542(5)
C11 C 1.0822(7) 0.4143(6) 0.3958(5)
C12 C 1.0429(8) 0.3882(6) 0.4589(5)
H8 H 0.9845 0.3974 0.4560
C13 C 1.0753(7) 0.4327(7) 0.5144(5)
C14 C 1.1321(7) 0.4043(7) 0.5556(5)
H9 H 1.1516 0.3557 0.5495
C15 C 1.1602(8) 0.4457(7) 0.6053(5)
H10 H 1.1994 0.4262 0.6325
C16 C 1.1294(8) 0.5180(7) 0.6147(5)
C17 C 1.0753(7) 0.5476(7) 0.5757(5)
H11 H 1.0566 0.5964 0.5820
C18 C 1.0469(8) 0.5046(7) 0.5252(5)
H12 H 1.0079 0.5247 0.4981
C19 C 1.1728(7) 0.4393(6) 0.4043(5)
C20 C 1.1067(3) 0.5374(4) 0.3640(3)
C21 C 1.0466(4) 0.4838(3) 0.3666(3)
C22 C 0.9699(4) 0.5008(3) 0.3455(3)
H13 H 0.9293 0.4646 0.3472
C23 C 0.9532(3) 0.5714(4) 0.3220(3)
H14 H 0.9013 0.5828 0.3078
C24 C 1.0132(4) 0.6249(3) 0.3195(3)
H15 H 1.0019 0.6727 0.3036
C25 C 1.0899(3) 0.6080(3) 0.3405(3)
H16 H 1.1305 0.6442 0.3388
C26 C 1.2551(8) 0.5487(7) 0.3765(5)
H17 H 1.2576 0.5716 0.3346
H18 H 1.2985 0.5120 0.3790
C27 C 1.2700(8) 0.6078(7) 0.4248(6)
C28 C 1.2369(9) 0.6053(7) 0.4841(6)
H19 H 1.2014 0.5663 0.4937
C29 C 1.2533(8) 0.6575(7) 0.5302(6)
H20 H 1.2290 0.6538 0.5700
C30 C 1.3066(9) 0.7162(8) 0.5172(7)
C31 C 1.3395(9) 0.7196(8) 0.4572(6)
H21 H 1.3757 0.7580 0.4472
C32 C 1.3200(8) 0.6672(7) 0.4115(7)
H22 H 1.3413 0.6721 0.3707
C33 C 1.3183(9) 0.7500(8) 0.6248(6)
H23 H 1.2614 0.7518 0.6338
H24 H 1.3459 0.7869 0.6502
H25 H 1.3389 0.7009 0.6347
C34 C 1.1557(7) 0.3394(6) 0.3124(5)
C35 C 1.0113(7) 0.3336(6) 0.3143(5)
Br2 Br 0.69345(9) 0.56658(8) 0.31582(6)
Cl2 Cl 0.9280(2) -0.05070(18) 0.30507(14)
O4 O 0.8731(5) 0.2926(5) 0.4419(3)
O5 O 0.6410(5) 0.3973(5) 0.5785(4)
O6 O 0.5439(7) 0.7641(5) 0.4407(5)
N5 N 0.8285(6) 0.1856(5) 0.4868(4)
H2 H 0.8013 0.1681 0.5185
N6 N 0.6880(6) 0.5059(6) 0.6204(5)
N7 N 0.6534(7) 0.3305(6) 0.7186(5)
N8 N 0.9109(7) 0.3196(6) 0.7180(5)
C36 C 0.8994(8) 0.0219(7) 0.3576(6)
C37 C 0.9134(8) 0.0928(7) 0.3423(6)
H26 H 0.9371 0.1047 0.3033
C38 C 0.8921(8) 0.1502(7) 0.3854(5)
H27 H 0.9021 0.2003 0.3752
C39 C 0.8572(8) 0.1324(7) 0.4416(5)
C40 C 0.8459(8) 0.0581(7) 0.4586(6)
H28 H 0.8235 0.0455 0.4978
C41 C 0.8691(8) 0.0013(7) 0.4145(6)
H29 H 0.8635 -0.0493 0.4249
C42 C 0.8392(7) 0.2598(7) 0.4853(5)
C43 C 0.8094(7) 0.3016(7) 0.5425(5)
C44 C 0.7845(7) 0.2742(7) 0.5968(5)
H30 H 0.7702 0.2242 0.6036
C45 C 0.7823(7) 0.3354(7) 0.6474(5)
C46 C 0.7828(7) 0.4095(7) 0.6065(5)
C47 C 0.8211(7) 0.3847(7) 0.5435(5)
H31 H 0.8794 0.3941 0.5468
C48 C 0.7896(7) 0.4308(7) 0.4865(5)
C49 C 0.7301(8) 0.4007(7) 0.4483(5)
H32 H 0.7088 0.3535 0.4575
C50 C 0.7020(7) 0.4404(7) 0.3967(5)
H33 H 0.6633 0.4204 0.3693
C51 C 0.7345(8) 0.5123(7) 0.3873(5)
C52 C 0.7909(7) 0.5427(7) 0.4254(5)
H34 H 0.8109 0.5909 0.4179
C53 C 0.8185(7) 0.4997(7) 0.4766(5)
H35 H 0.8574 0.5193 0.5040
C54 C 0.6949(7) 0.4353(7) 0.5990(5)
C55 C 0.7633(8) 0.5341(7) 0.6422(6)
C56 C 0.8209(7) 0.4776(7) 0.6378(5)
C57 C 0.8985(8) 0.4919(7) 0.6564(5)
H36 H 0.9378 0.4546 0.6529
C58 C 0.9189(8) 0.5626(7) 0.6807(6)
H37 H 0.9714 0.5726 0.6944
C59 C 0.8562(8) 0.6210(7) 0.6842(6)
H38 H 0.8687 0.6690 0.6989
C60 C 0.7801(8) 0.6040(7) 0.6658(6)
H39 H 0.7392 0.6398 0.6693
C61 C 0.6133(8) 0.5453(7) 0.6265(6)
H40 H 0.6105 0.5674 0.6687
H41 H 0.5691 0.5097 0.6227
C62 C 0.6023(8) 0.6061(7) 0.5779(6)
C63 C 0.6275(9) 0.5989(8) 0.5183(6)
H42 H 0.6576 0.5563 0.5083
C64 C 0.6125(9) 0.6498(8) 0.4696(7)
H43 H 0.6328 0.6426 0.4288
C65 C 0.5660(8) 0.7116(8) 0.4848(7)
C66 C 0.5415(9) 0.7220(8) 0.5457(6)
H44 H 0.5135 0.7657 0.5560
C67 C 0.5565(9) 0.6700(8) 0.5929(7)
H45 H 0.5366 0.6772 0.6339
C68 C 0.5538(11) 0.7461(10) 0.3760(7)
H46 H 0.6104 0.7394 0.3670
H47 H 0.5327 0.7861 0.3502
H48 H 0.5252 0.7004 0.3667
C69 C 0.7098(7) 0.3327(7) 0.6896(5)
C70 C 0.8543(7) 0.3253(7) 0.6887(5)
C71 C 0.2492(13) 0.7761(12) 0.1905(9)
H49 H 0.2060 0.7739 0.1593
H50 H 0.2538 0.8279 0.2045
Cl3 Cl 0.2219(5) 0.7224(4) 0.2543(3)
Cl4 Cl 0.3348(4) 0.7519(3) 0.1552(3)
loop_
_geom_bond_atom_site_label_1
_geom_bond_atom_site_label_2
_geom_bond_site_symmetry_1
_geom_bond_site_symmetry_2
Br1 C16 1_555 1_555
Br2 C51 1_555 1_555
Cl1 C1 1_555 1_555
Cl2 C36 1_555 1_555
O1 C7 1_555 1_555
O2 C19 1_555 1_555
O3 C30 1_555 1_555
O4 C42 1_555 1_555
O5 C54 1_555 1_555
O6 C65 1_555 1_555
N1 H1 1_555 1_555
N2 C19 1_555 1_555
N3 C34 1_555 1_555
N4 C35 1_555 1_555
N5 H2 1_555 1_555
N6 C54 1_555 1_555
N7 C69 1_555 1_555
N8 C70 1_555 1_555
C1 C2 1_555 1_555
C2 H3 1_555 1_555
C3 C2 1_555 1_555
H4 C3 1_555 1_555
C4 N1 1_555 1_555
C5 C4 1_555 1_555
H5 C5 1_555 1_555
C6 C1 1_555 1_555
H6 C6 1_555 1_555
C7 N1 1_555 1_555
C8 C7 1_555 1_555
C9 C8 1_555 1_555
H7 C9 1_555 1_555
C10 C9 1_555 1_555
C11 C10 1_555 1_555
C12 C8 1_555 1_555
H8 C12 1_555 1_555
C13 C12 1_555 1_555
C14 C13 1_555 1_555
H9 C14 1_555 1_555
C15 C14 1_555 1_555
H10 C15 1_555 1_555
C16 C15 1_555 1_555
C17 C16 1_555 1_555
H11 C17 1_555 1_555
C18 C13 1_555 1_555
H12 C18 1_555 1_555
C19 C11 1_555 1_555
C20 N2 1_555 1_555
C21 C11 1_555 1_555
C22 C21 1_555 1_555
H13 C22 1_555 1_555
C23 C22 1_555 1_555
H14 C23 1_555 1_555
C24 C23 1_555 1_555
H15 C24 1_555 1_555
C25 C20 1_555 1_555
H16 C25 1_555 1_555
C26 N2 1_555 1_555
H17 C26 1_555 1_555
H18 C26 1_555 1_555
C27 C26 1_555 1_555
C28 C27 1_555 1_555
H19 C28 1_555 1_555
C29 C28 1_555 1_555
H20 C29 1_555 1_555
C30 C29 1_555 1_555
C31 C30 1_555 1_555
H21 C31 1_555 1_555
C32 C27 1_555 1_555
H22 C32 1_555 1_555
C33 O3 1_555 1_555
H23 C33 1_555 1_555
H24 C33 1_555 1_555
H25 C33 1_555 1_555
C34 C10 1_555 1_555
C35 C10 1_555 1_555
C36 C37 1_555 1_555
C37 H26 1_555 1_555
C38 C37 1_555 1_555
H27 C38 1_555 1_555
C39 N5 1_555 1_555
C40 C39 1_555 1_555
H28 C40 1_555 1_555
C41 C36 1_555 1_555
H29 C41 1_555 1_555
C42 N5 1_555 1_555
C43 C42 1_555 1_555
C44 C43 1_555 1_555
H30 C44 1_555 1_555
C45 C44 1_555 1_555
C46 C45 1_555 1_555
C47 C43 1_555 1_555
H31 C47 1_555 1_555
C48 C47 1_555 1_555
C49 C48 1_555 1_555
H32 C49 1_555 1_555
C50 C49 1_555 1_555
H33 C50 1_555 1_555
C51 C50 1_555 1_555
C52 C51 1_555 1_555
H34 C52 1_555 1_555
C53 C48 1_555 1_555
H35 C53 1_555 1_555
C54 C46 1_555 1_555
C55 N6 1_555 1_555
C56 C46 1_555 1_555
C57 C56 1_555 1_555
H36 C57 1_555 1_555
C58 C57 1_555 1_555
H37 C58 1_555 1_555
C59 C58 1_555 1_555
H38 C59 1_555 1_555
C60 C55 1_555 1_555
H39 C60 1_555 1_555
C61 N6 1_555 1_555
H40 C61 1_555 1_555
H41 C61 1_555 1_555
C62 C61 1_555 1_555
C63 C62 1_555 1_555
H42 C63 1_555 1_555
C64 C63 1_555 1_555
H43 C64 1_555 1_555
C65 C64 1_555 1_555
C66 C65 1_555 1_555
H44 C66 1_555 1_555
C67 C62 1_555 1_555
H45 C67 1_555 1_555
C68 O6 1_555 1_555
H46 C68 1_555 1_555
H47 C68 1_555 1_555
H48 C68 1_555 1_555
C69 C45 1_555 1_555
C70 C45 1_555 1_555
C71 H49 1_555 1_555
H50 C71 1_555 1_555
Cl3 C71 1_555 1_555
Cl4 C71 1_555 1_555
C3 C4 1_555 1_555
C5 C6 1_555 1_555
C11 C12 1_555 1_555
C17 C18 1_555 1_555
C20 C21 1_555 1_555
C24 C25 1_555 1_555
C31 C32 1_555 1_555
C38 C39 1_555 1_555
C40 C41 1_555 1_555
C46 C47 1_555 1_555
C52 C53 1_555 1_555
C55 C56 1_555 1_555
C59 C60 1_555 1_555
C66 C67 1_555 1_555

#END
