
#######################################################################
#
#                 Cambridge Crystallographic Data Centre
#                                CCDC 
#
#######################################################################
#
# If this CIF has been generated from an entry in the Cambridge 
# Structural Database, then it will include bibliographic, chemical, 
# crystal, experimental, refinement or atomic coordinate data resulting 
# from the CCDC's data processing and validation procedures.
#
#######################################################################

data_IYESUB
_chemical_formula_moiety         'C36 H36 N24 O12,6.11(H2 O1),1.06(H2 O4 S1)'
_chemical_name_systematic        'Cucurbit[6]uril sulfuric acid solvate hydrate'
_symmetry_cell_setting           rhombohedral
_symmetry_space_group_name_H-M   'R -3'
_symmetry_Int_Tables_number      148
_space_group_name_Hall           '-R 3'
loop_
_symmetry_equiv_pos_site_id
_symmetry_equiv_pos_as_xyz
1 x,y,z
2 -y,x-y,z
3 -x+y,-x,z
4 2/3+x,1/3+y,1/3+z
5 2/3-y,1/3+x-y,1/3+z
6 2/3-x+y,1/3-x,1/3+z
7 1/3+x,2/3+y,2/3+z
8 1/3-y,2/3+x-y,2/3+z
9 1/3-x+y,2/3-x,2/3+z
10 -x,-y,-z
11 y,-x+y,-z
12 x-y,x,-z
13 1/3-x,2/3-y,2/3-z
14 1/3+y,2/3-x+y,2/3-z
15 1/3+x-y,2/3+x,2/3-z
16 2/3-x,1/3-y,1/3-z
17 2/3+y,1/3-x+y,1/3-z
18 2/3+x-y,1/3+x,1/3-z
_cell_length_a                   32.0277(17)
_cell_length_b                   32.0277(17)
_cell_length_c                   12.3802(7)
_cell_angle_alpha                90
_cell_angle_beta                 90
_cell_angle_gamma                120
_cell_volume                     10997.9
_exptl_crystal_colour            colorless
_exptl_crystal_description       hexagonal
_cell_formula_units_Z            9
loop_
_atom_site_label
_atom_site_type_symbol
_atom_site_fract_x
_atom_site_fract_y
_atom_site_fract_z
O1 O 0.1809(4) 0.1303(4) 0.6697(6)
O2 O 0.2378(3) 0.2268(3) 0.8182(6)
O3 O 0.3501(3) 0.3019(2) 0.6911(5)
O4 O 0.4002(2) 0.30982(18) 0.4423(4)
O5 O 0.32700(19) 0.20567(18) 0.3048(4)
O6 O 0.2101(3) 0.1142(3) 0.4080(5)
N1 N 0.1724(3) 0.0549(4) 0.6826(6)
N2 N 0.1801(3) 0.0957(4) 0.8337(7)
N3 N 0.2257(3) 0.1682(3) 0.9424(5)
N4 N 0.2960(3) 0.2355(3) 0.9386(5)
N5 N 0.3725(3) 0.2953(3) 0.8643(6)
N6 N 0.4278(3) 0.3190(2) 0.7341(5)
N7 N 0.4618(3) 0.3233(3) 0.5589(6)
N8 N 0.4518(2) 0.2804(3) 0.4116(5)
N9 N 0.3987(2) 0.2057(2) 0.3169(5)
N10 N 0.3314(3) 0.1361(2) 0.3022(5)
N11 N 0.2548(3) 0.0762(2) 0.3809(5)
N12 N 0.1957(3) 0.0452(3) 0.5011(6)
C1 C 0.1785(3) 0.0970(5) 0.7232(8)
C2 C 0.1795(4) 0.1327(5) 0.9037(9)
H1 H 0.1652 0.1491 0.8628
H2 H 0.1584 0.1165 0.9664
C3 C 0.2507(4) 0.2095(4) 0.8901(7)
C4 C 0.3290(5) 0.2852(4) 0.9180(8)
H3 H 0.3375 0.3027 0.9877
H4 H 0.3124 0.2982 0.8736
C5 C 0.3809(4) 0.3045(2) 0.7567(6)
C6 C 0.1579(3) 0.0417(4) 0.5706(8)
H5 H 0.1306 0.0082 0.5684
H6 H 0.1463 0.0629 0.5417
C7 C 0.4343(3) 0.3046(3) 0.4690(6)
C8 C 0.4314(3) 0.2575(3) 0.3106(6)
H7 H 0.4137 0.2726 0.2791
H8 H 0.4580 0.2637 0.2606
C9 C 0.3499(3) 0.1842(3) 0.3089(5)
C10 C 0.2801(3) 0.1024(3) 0.2853(5)
H9 H 0.2766 0.0790 0.2288
H10 H 0.2648 0.1206 0.2580
C11 C 0.2187(3) 0.0817(3) 0.4286(6)
C12 C 0.4510(5) 0.3485(3) 0.6402(7)
H11 H 0.4813 0.3775 0.6628
H12 H 0.4297 0.3594 0.6088
C13 C 0.1670(3) 0.0212(3) 0.7681(7)
H13 H 0.1346 -0.0086 0.7657
C14 C 0.1737(3) 0.0510(4) 0.8739(7)
H14 H 0.1448 0.0345 0.9221
C15 C 0.2514(3) 0.1619(4) 1.0315(6)
H15 H 0.2331 0.1557 1.1007
C16 C 0.2985(4) 0.2098(3) 1.0352(6)
H16 H 0.3009 0.2280 1.1027
C17 C 0.4148(4) 0.3019(3) 0.9203(7)
H17 H 0.4235 0.3249 0.9821
C18 C 0.4539(4) 0.3214(3) 0.8317(7)
H18 H 0.4803 0.3550 0.8474
O1O O 0.4858(4) 0.2030(4) 0.6636(6)
O2O O 0.4289(3) 0.1065(3) 0.5151(6)
O3O O 0.3166(3) 0.0314(2) 0.6422(5)
O4O O 0.2665(2) 0.02351(18) 0.8910(4)
O5O O 0.33967(19) 0.12766(18) 1.0285(4)
O6O O 0.4566(3) 0.2191(3) 0.9253(5)
N1O N 0.4943(3) 0.2784(4) 0.6507(6)
N2O N 0.4866(3) 0.2376(4) 0.4996(7)
N3O N 0.4410(3) 0.1651(3) 0.3909(5)
N4O N 0.3707(3) 0.0978(3) 0.3947(5)
N5O N 0.2942(3) 0.0380(3) 0.4690(6)
N6O N 0.2389(3) 0.0143(2) 0.5992(5)
N7O N 0.2049(3) 0.0100(3) 0.7744(6)
N8O N 0.2149(2) 0.0529(3) 0.9217(5)
N9O N 0.2680(2) 0.1276(2) 1.0164(5)
N10O N 0.3353(3) 0.1972(2) 1.0311(5)
N11O N 0.4119(3) 0.2571(2) 0.9524(5)
N12O N 0.4710(3) 0.2881(3) 0.8322(6)
C1O C 0.4882(3) 0.2363(5) 0.6101(8)
C2O C 0.4872(4) 0.2006(5) 0.4296(9)
H1O H 0.5015 0.1842 0.4705
H2O H 0.5083 0.2168 0.3669
C3O C 0.4160(4) 0.1238(4) 0.4432(7)
C4O C 0.3377(5) 0.0481(4) 0.4153(8)
H3O H 0.3292 0.0306 0.3456
H4O H 0.3543 0.0351 0.4597
C5O C 0.2858(4) 0.0288(2) 0.5766(6)
C6O C 0.5088(3) 0.2916(4) 0.7627(8)
H5O H 0.5361 0.3251 0.7649
H6O H 0.5204 0.2704 0.7916
C7O C 0.2324(3) 0.0287(3) 0.8643(6)
C8O C 0.2353(3) 0.0758(3) 1.0227(6)
H7O H 0.2530 0.0607 1.0542
H8O H 0.2087 0.0696 1.0727
C9O C 0.3168(3) 0.1491(3) 1.0244(5)
C10O C 0.3866(3) 0.2309(3) 1.0480(5)
H9O H 0.3901 0.2543 1.1045
H10O H 0.4019 0.2127 1.0753
C11O C 0.4480(3) 0.2516(3) 0.9047(6)
C12O C 0.2157(5) -0.0152(3) 0.6931(7)
H11O H 0.1854 -0.0442 0.6705
H12O H 0.2370 -0.0261 0.7245
C13O C 0.4997(3) 0.3121(3) 0.5652(7)
H13O H 0.5321 0.3419 0.5676
C14O C 0.4930(3) 0.2823(4) 0.4594(7)
H14O H 0.5219 0.2988 0.4112
C15O C 0.4153(3) 0.1714(4) 0.3018(6)
H15O H 0.4336 0.1776 0.2326
C16O C 0.3682(4) 0.1235(3) 0.2981(6)
H16O H 0.3658 0.1053 0.2306
C17O C 0.2519(4) 0.0314(3) 0.4130(7)
H17O H 0.2432 0.0084 0.3512
C18O C 0.2128(4) 0.0119(3) 0.5016(7)
H18O H 0.1864 -0.0217 0.4859
S1 S 0.0572(3) 0.0921(3) 0.8134(10)
O7 O 0.0708(9) 0.1344(8) 0.881(2)
O8 O 0.0727(11) 0.1083(10) 0.698(2)
O9 O 0.0777(9) 0.0627(9) 0.849(3)
O10 O 0.0028(7) 0.0614(8) 0.811(3)
O14 O 0.3536(2) 0.0991(2) 0.8176(7)
O15 O 0.3381(5) 0.1769(5) 0.7657(9)
O16 O 0.3858(4) 0.1639(5) 0.7166(10)
O18 O 0.0000 0.0000 0.5000
O19 O 0.053(2) 0.062(3) 0.595(6)
S2? S 0.0474(13) 0.0780(11) 0.907(3)
O11? O 0.063(3) 0.061(3) 0.975(7)
O12? O 0.0745(14) 0.0666(13) 0.763(4)
O13? O 0.004(3) 0.0579(16) 0.950(7)
O17? O 0.0817(5) 0.1518(5) 0.8177(13)
loop_
_geom_bond_atom_site_label_1
_geom_bond_atom_site_label_2
_geom_bond_site_symmetry_1
_geom_bond_site_symmetry_2
O1 C1 1_555 1_555
O2 C3 1_555 1_555
O3 C5 1_555 1_555
O4 C7 1_555 1_555
O5 C9 1_555 1_555
O6 C11 1_555 1_555
N1 C1 1_555 1_555
N2 C1 1_555 1_555
N3 C2 1_555 1_555
N4 C3 1_555 1_555
N5 C4 1_555 1_555
N6 C5 1_555 1_555
N7 C7 1_555 1_555
N8 C7 1_555 1_555
N9 C8 1_555 1_555
N10 C9 1_555 1_555
N11 C10 1_555 1_555
N12 C6 1_555 1_555
C2 N2 1_555 1_555
H1 C2 1_555 1_555
H2 C2 1_555 1_555
C3 N3 1_555 1_555
C4 N4 1_555 1_555
H3 C4 1_555 1_555
H4 C4 1_555 1_555
C5 N5 1_555 1_555
C6 N1 1_555 1_555
H5 C6 1_555 1_555
H6 C6 1_555 1_555
C8 N8 1_555 1_555
H7 C8 1_555 1_555
H8 C8 1_555 1_555
C9 N9 1_555 1_555
C10 N10 1_555 1_555
H9 C10 1_555 1_555
H10 C10 1_555 1_555
C11 N11 1_555 1_555
C12 N6 1_555 1_555
H11 C12 1_555 1_555
H12 C12 1_555 1_555
C13 N1 1_555 1_555
H13 C13 1_555 1_555
C14 N2 1_555 1_555
H14 C14 1_555 1_555
C15 N3 1_555 1_555
H15 C15 1_555 1_555
C16 N4 1_555 1_555
H16 C16 1_555 1_555
C17 N5 1_555 1_555
H17 C17 1_555 1_555
C18 N6 1_555 1_555
H18 C18 1_555 1_555
S1 O7 1_555 1_555
O8 S1 1_555 1_555
O9 S1 1_555 1_555
O10 S1 1_555 1_555
O1O C1O 1_555 1_555
O2O C3O 1_555 1_555
O3O C5O 1_555 1_555
O4O C7O 1_555 1_555
O5O C9O 1_555 1_555
O6O C11O 1_555 1_555
N1O C1O 1_555 1_555
N2O C1O 1_555 1_555
N3O C2O 1_555 1_555
N4O C3O 1_555 1_555
N5O C4O 1_555 1_555
N6O C5O 1_555 1_555
N7O C13 1_555 1_555
N8O C14 1_555 1_555
N9O C15 1_555 1_555
N10O C16 1_555 1_555
N11O C17 1_555 1_555
N12O C18 1_555 1_555
C2O N2O 1_555 1_555
H1O C2O 1_555 1_555
H2O C2O 1_555 1_555
C3O N3O 1_555 1_555
C4O N4O 1_555 1_555
H3O C4O 1_555 1_555
H4O C4O 1_555 1_555
C5O N5O 1_555 1_555
C6O N1O 1_555 1_555
H5O C6O 1_555 1_555
H6O C6O 1_555 1_555
C7O N7O 1_555 1_555
C8O N8O 1_555 1_555
H7O C8O 1_555 1_555
H8O C8O 1_555 1_555
C9O N9O 1_555 1_555
C10O N10O 1_555 1_555
H9O C10O 1_555 1_555
H10O C10O 1_555 1_555
C11O N11O 1_555 1_555
C12O N6O 1_555 1_555
H11O C12O 1_555 1_555
H12O C12O 1_555 1_555
C13O N7 1_555 1_555
H13O C13O 1_555 1_555
C14O N8 1_555 1_555
H14O C14O 1_555 1_555
C15O N9 1_555 1_555
H15O C15O 1_555 1_555
C16O N10 1_555 1_555
H16O C16O 1_555 1_555
C17O N11 1_555 1_555
H17O C17O 1_555 1_555
C18O N12 1_555 1_555
H18O C18O 1_555 1_555
N7 C12 1_555 1_555
N12 C11 1_555 1_555
C13 C14 1_555 1_555
C15 C16 1_555 1_555
C17 C18 1_555 1_555
N1O C13O 1_555 1_555
N2O C14O 1_555 1_555
N3O C15O 1_555 1_555
N4O C16O 1_555 1_555
N5O C17O 1_555 1_555
N6O C18O 1_555 1_555
N7O C12O 1_555 1_555
N8O C7O 1_555 1_555
N9O C8O 1_555 1_555
N10O C9O 1_555 1_555
N11O C10O 1_555 1_555
N12O C6O 1_555 1_555
N12O C11O 1_555 1_555
C13O C14O 1_555 1_555
C15O C16O 1_555 1_555
C17O C18O 1_555 1_555

#END
