
#######################################################################
#
#                 Cambridge Crystallographic Data Centre
#                                CCDC 
#
#######################################################################
#
# If this CIF has been generated from an entry in the Cambridge 
# Structural Database, then it will include bibliographic, chemical, 
# crystal, experimental, refinement or atomic coordinate data resulting 
# from the CCDC's data processing and validation procedures.
#
#######################################################################

data_IYEYIW
_chemical_formula_moiety         'C10 H14 N1 O1 1+,C6 H2 N3 O7 1-'
_chemical_name_systematic        
'(S,R)-4-(hexa-4,5-dien-1-yn-3-yl)morpholin-4-ium 2,4,6-trinitrophenolate'
_symmetry_cell_setting           triclinic
_symmetry_space_group_name_H-M   'P -1'
_symmetry_Int_Tables_number      2
_space_group_name_Hall           '-P 1'
loop_
_symmetry_equiv_pos_site_id
_symmetry_equiv_pos_as_xyz
1 x,y,z
2 -x,-y,-z
_cell_length_a                   8.4533(17)
_cell_length_b                   10.704(2)
_cell_length_c                   11.184(2)
_cell_angle_alpha                67.32(3)
_cell_angle_beta                 82.77(3)
_cell_angle_gamma                80.88(3)
_cell_volume                     919.587
_exptl_crystal_colour            colorless
_exptl_crystal_description       prism
_cell_formula_units_Z            2
loop_
_atom_site_label
_atom_site_type_symbol
_atom_site_fract_x
_atom_site_fract_y
_atom_site_fract_z
H1 H 0.228(3) 0.271(2) 0.260(2)
N1 N 0.18567(18) 0.32792(14) 0.30517(14)
C1 C 0.0064(2) 0.3439(2) 0.3053(2)
H2 H -0.034(2) 0.406(2) 0.346(2)
H3 H -0.018(3) 0.377(2) 0.218(2)
C2 C -0.0542(3) 0.2074(2) 0.3784(2)
H4 H -0.170(3) 0.215(2) 0.386(2)
H5 H -0.011(3) 0.148(2) 0.338(2)
O1 O -0.00947(17) 0.15201(14) 0.50866(14)
C3 C 0.1608(3) 0.1272(2) 0.5086(2)
H6 H 0.185(3) 0.088(2) 0.599(3)
H7 H 0.202(2) 0.061(2) 0.4658(19)
C4 C 0.2357(3) 0.25813(19) 0.44174(18)
H8 H 0.201(2) 0.323(2) 0.484(2)
H9 H 0.349(3) 0.240(2) 0.4339(19)
C5 C 0.2535(2) 0.46275(18) 0.23323(18)
H10 H 0.211(2) 0.495(2) 0.152(2)
C6 C 0.1966(2) 0.55833(18) 0.29842(18)
C7 C 0.1521(3) 0.6393(2) 0.3458(2)
H11 H 0.118(3) 0.706(3) 0.379(3)
C8 C 0.4341(3) 0.4355(2) 0.2187(2)
H12 H 0.469(3) 0.397(3) 0.162(3)
C9 C 0.5294(3) 0.4633(2) 0.2847(2)
C10 C 0.6195(4) 0.4901(5) 0.3531(5)
H13 H 0.642(5) 0.425(5) 0.435(4)
H14 H 0.658(4) 0.576(4) 0.317(3)
C11 C 0.3129(2) 0.07658(18) 0.14933(17)
C12 C 0.2232(2) 0.12717(18) 0.03568(17)
C13 C 0.2021(2) 0.0487(2) -0.03256(18)
H15 H 0.143(3) 0.085(2) -0.102(2)
C14 C 0.2733(2) -0.08379(19) 0.00454(17)
C15 C 0.3661(2) -0.14096(19) 0.11100(17)
H16 H 0.416(2) -0.231(2) 0.136(2)
C16 C 0.3800(2) -0.06393(18) 0.18037(16)
O2 O 0.33827(18) 0.14138(15) 0.21576(15)
N2 N 0.1503(2) 0.26774(18) -0.01345(17)
O3 O 0.1761(4) 0.34509(19) 0.0329(2)
O4 O 0.0655(3) 0.3044(2) -0.1015(2)
N3 N 0.2525(2) -0.1653(2) -0.06871(17)
O5 O 0.1685(3) -0.1126(2) -0.16125(18)
O6 O 0.3179(2) -0.28345(18) -0.03319(18)
N4 N 0.4702(2) -0.12793(16) 0.29629(16)
O7 O 0.4061(3) -0.1285(3) 0.39834(17)
O8 O 0.6048(2) -0.1835(2) 0.28627(17)
loop_
_geom_bond_atom_site_label_1
_geom_bond_atom_site_label_2
_geom_bond_site_symmetry_1
_geom_bond_site_symmetry_2
H1 N1 1_555 1_555
N1 C1 1_555 1_555
C1 H2 1_555 1_555
H3 C1 1_555 1_555
C2 C1 1_555 1_555
H4 C2 1_555 1_555
H5 C2 1_555 1_555
O1 C2 1_555 1_555
C3 O1 1_555 1_555
H6 C3 1_555 1_555
H7 C3 1_555 1_555
C4 N1 1_555 1_555
H8 C4 1_555 1_555
H9 C4 1_555 1_555
C5 N1 1_555 1_555
H10 C5 1_555 1_555
C6 C5 1_555 1_555
C7 C6 1_555 1_555
H11 C7 1_555 1_555
C8 C5 1_555 1_555
H12 C8 1_555 1_555
C9 C8 1_555 1_555
C10 C9 1_555 1_555
H13 C10 1_555 1_555
H14 C10 1_555 1_555
C11 C12 1_555 1_555
C12 C13 1_555 1_555
C13 H15 1_555 1_555
C14 C13 1_555 1_555
C15 C14 1_555 1_555
H16 C15 1_555 1_555
C16 C11 1_555 1_555
O2 C11 1_555 1_555
N2 C12 1_555 1_555
O3 N2 1_555 1_555
O4 N2 1_555 1_555
N3 C14 1_555 1_555
O5 N3 1_555 1_555
O6 N3 1_555 1_555
N4 C16 1_555 1_555
O7 N4 1_555 1_555
O8 N4 1_555 1_555
C3 C4 1_555 1_555
C15 C16 1_555 1_555

#END
