
#######################################################################
#
#                 Cambridge Crystallographic Data Centre
#                                CCDC 
#
#######################################################################
#
# If this CIF has been generated from an entry in the Cambridge 
# Structural Database, then it will include bibliographic, chemical, 
# crystal, experimental, refinement or atomic coordinate data resulting 
# from the CCDC's data processing and validation procedures.
#
#######################################################################

data_IYEZIX
_chemical_formula_moiety         'C16 H21 N1 O4'
_chemical_name_systematic        
'ethyl 5-(dimethylamino)-2-(3-methoxy-3-oxoprop-1-en-1-yl)-3-methylbenzoate'
_symmetry_cell_setting           monoclinic
_symmetry_space_group_name_H-M   'P 21/c'
_symmetry_Int_Tables_number      14
_space_group_name_Hall           '-P 2ybc'
loop_
_symmetry_equiv_pos_site_id
_symmetry_equiv_pos_as_xyz
1 x,y,z
2 -x,1/2+y,1/2-z
3 -x,-y,-z
4 x,1/2-y,1/2+z
_cell_length_a                   11.993(5)
_cell_length_b                   6.296(2)
_cell_length_c                   20.196(8)
_cell_angle_alpha                90
_cell_angle_beta                 102.178(7)
_cell_angle_gamma                90
_cell_volume                     1490.64
_exptl_crystal_colour            'light yellow'
_exptl_crystal_description       Prism
_cell_formula_units_Z            4
loop_
_atom_site_label
_atom_site_type_symbol
_atom_site_fract_x
_atom_site_fract_y
_atom_site_fract_z
C1 C 0.54204(11) 0.9277(2) 0.20863(7)
H1 H 0.6223 0.9086 0.2309
H2 H 0.4949 0.9278 0.2428
H3 H 0.5328 1.0633 0.1842
C2 C 0.50513(10) 0.7481(2) 0.15923(6)
C3 C 0.59038(10) 0.6229(2) 0.14201(6)
H4 H 0.6677 0.6582 0.1605
C4 C 0.56765(10) 0.4468(2) 0.09854(6)
C5 C 0.45178(10) 0.4007(2) 0.07129(6)
H5 H 0.4325 0.2834 0.0415
C6 C 0.36542(10) 0.5253(2) 0.08769(6)
C7 C 0.38857(10) 0.6992(2) 0.13239(6)
C8 C 0.76301(11) 0.3081(2) 0.13149(8)
H6 H 0.7896 0.4494 0.1482
H7 H 0.8204 0.2411 0.1103
H8 H 0.7509 0.2205 0.1694
C9 C 0.62671(11) 0.1395(2) 0.03958(7)
H9 H 0.5991 0.0280 0.0660
H10 H 0.6947 0.0890 0.0246
H11 H 0.5670 0.1746 -0.0001
C10 C 0.24407(10) 0.4763(2) 0.05257(6)
C11 C 0.11454(11) 0.1992(2) 0.00573(7)
H12 H 0.0589 0.2758 0.0269
H13 H 0.1073 0.0456 0.0143
C12 C 0.08690(12) 0.2387(3) -0.06942(8)
H14 H 0.0810 0.3919 -0.0780
H15 H 0.0142 0.1705 -0.0895
H16 H 0.1475 0.1795 -0.0897
C13 C 0.29410(11) 0.8081(2) 0.15459(6)
H17 H 0.2310 0.7212 0.1584
C14 C 0.28530(10) 1.0126(2) 0.17005(6)
H18 H 0.3447 1.1091 0.1665
C15 C 0.18309(10) 1.0885(2) 0.19267(6)
C16 C 0.08571(11) 1.3918(2) 0.22042(8)
H19 H 0.0142 1.3459 0.1908
H20 H 0.0904 1.5471 0.2201
H21 H 0.0879 1.3424 0.2667
N1 N 0.65548(9) 0.32832(17) 0.08154(6)
O1 O 0.16816(7) 0.60681(15) 0.03944(5)
O2 O 0.23005(7) 0.26935(14) 0.03689(5)
O3 O 0.10867(8) 0.97787(15) 0.20678(5)
O4 O 0.18140(7) 1.30261(14) 0.19636(5)
loop_
_geom_bond_atom_site_label_1
_geom_bond_atom_site_label_2
_geom_bond_site_symmetry_1
_geom_bond_site_symmetry_2
C1 H1 1_555 1_555
H2 C1 1_555 1_555
H3 C1 1_555 1_555
C2 C1 1_555 1_555
C3 C2 1_555 1_555
H4 C3 1_555 1_555
C4 C3 1_555 1_555
C5 C4 1_555 1_555
H5 C5 1_555 1_555
C6 C5 1_555 1_555
C7 C2 1_555 1_555
C8 H6 1_555 1_555
H7 C8 1_555 1_555
H8 C8 1_555 1_555
C9 H9 1_555 1_555
H10 C9 1_555 1_555
H11 C9 1_555 1_555
C10 C6 1_555 1_555
C11 H12 1_555 1_555
H13 C11 1_555 1_555
C12 C11 1_555 1_555
H14 C12 1_555 1_555
H15 C12 1_555 1_555
H16 C12 1_555 1_555
C13 C7 1_555 1_555
H17 C13 1_555 1_555
C14 C13 1_555 1_555
H18 C14 1_555 1_555
C15 C14 1_555 1_555
C16 H19 1_555 1_555
H20 C16 1_555 1_555
H21 C16 1_555 1_555
N1 C4 1_555 1_555
O1 C10 1_555 1_555
O2 C10 1_555 1_555
O3 C15 1_555 1_555
O4 C15 1_555 1_555
C6 C7 1_555 1_555
C8 N1 1_555 1_555
C9 N1 1_555 1_555
C11 O2 1_555 1_555
C16 O4 1_555 1_555

#END
