
#######################################################################
#
#                 Cambridge Crystallographic Data Centre
#                                CCDC 
#
#######################################################################
#
# If this CIF has been generated from an entry in the Cambridge 
# Structural Database, then it will include bibliographic, chemical, 
# crystal, experimental, refinement or atomic coordinate data resulting 
# from the CCDC's data processing and validation procedures.
#
#######################################################################

data_IYIBAV
_chemical_formula_moiety         'C8 H9 N2 O1 S1 1+,Br1 1-'
_chemical_name_systematic        
'4-hydroxy-6-methyl-2-(prop-2-ynylsulfanyl)pyrimidinium bromide'
_symmetry_cell_setting           monoclinic
_symmetry_space_group_name_H-M   'P 21/c'
_symmetry_Int_Tables_number      14
_space_group_name_Hall           '-P 2ybc'
loop_
_symmetry_equiv_pos_site_id
_symmetry_equiv_pos_as_xyz
1 x,y,z
2 -x,1/2+y,1/2-z
3 -x,-y,-z
4 x,1/2-y,1/2+z
_cell_length_a                   5.0133(3)
_cell_length_b                   18.7869(14)
_cell_length_c                   11.3836(9)
_cell_angle_alpha                90
_cell_angle_beta                 100.162(2)
_cell_angle_gamma                90
_cell_volume                     1055.34
_exptl_crystal_colour            colorless
_exptl_crystal_description       plate
_cell_formula_units_Z            4
loop_
_atom_site_label
_atom_site_type_symbol
_atom_site_fract_x
_atom_site_fract_y
_atom_site_fract_z
Br1 Br 0.59587(8) 0.64657(2) 0.93320(3)
S1 S 0.2149(2) 0.96256(5) 0.63606(10)
O1 O -0.2741(7) 0.80230(18) 0.8649(3)
N1 N 0.2293(6) 0.82377(15) 0.6346(3)
H1 H 0.3374 0.8314 0.5850
N2 N -0.0452(6) 0.87268(16) 0.7601(3)
C1 C 0.2198(15) 1.0533(3) 0.9301(5)
H2 H 0.2941 1.0658 1.0081
C2 C 0.1251(10) 1.0374(2) 0.8306(5)
C3 C 0.0040(8) 1.0200(2) 0.7089(4)
H3 H -0.0309 1.0637 0.6635
H4 H -0.1686 0.9967 0.7090
C4 C 0.1213(7) 0.88015(19) 0.6833(3)
C5 C 0.1730(7) 0.75561(18) 0.6612(3)
C6 C 0.0028(7) 0.7458(2) 0.7423(3)
H5 H -0.0394 0.7003 0.7656
C7 C 0.2982(8) 0.6970(2) 0.6023(3)
H6 H 0.1680 0.6782 0.5377
H7 H 0.3557 0.6599 0.6592
H8 H 0.4520 0.7149 0.5718
C8 C -0.1045(7) 0.80583(19) 0.7887(3)
H9 H -0.304(11) 0.770(3) 0.869(5)
loop_
_geom_bond_atom_site_label_1
_geom_bond_atom_site_label_2
_geom_bond_site_symmetry_1
_geom_bond_site_symmetry_2
S1 C3 1_555 1_555
O1 C8 1_555 1_555
N1 H1 1_555 1_555
N2 C4 1_555 1_555
C1 H2 1_555 1_555
C2 C1 1_555 1_555
C3 C2 1_555 1_555
H3 C3 1_555 1_555
H4 C3 1_555 1_555
C4 S1 1_555 1_555
C5 N1 1_555 1_555
C6 C5 1_555 1_555
H5 C6 1_555 1_555
C7 C5 1_555 1_555
H6 C7 1_555 1_555
H7 C7 1_555 1_555
H8 C7 1_555 1_555
C8 N2 1_555 1_555
H9 O1 1_555 1_555
N1 C4 1_555 1_555
C6 C8 1_555 1_555

#END
