
#######################################################################
#
#                 Cambridge Crystallographic Data Centre
#                                CCDC 
#
#######################################################################
#
# If this CIF has been generated from an entry in the Cambridge 
# Structural Database, then it will include bibliographic, chemical, 
# crystal, experimental, refinement or atomic coordinate data resulting 
# from the CCDC's data processing and validation procedures.
#
#######################################################################

data_IYIBOJ
_chemical_formula_moiety         'C15 H11 Br1 N2'
_chemical_name_systematic        
2-(4-aminophenyl)-3-(4-bromophenyl)acrylonitrile
_symmetry_cell_setting           orthorhombic
_symmetry_space_group_name_H-M   'P 21 21 21'
_symmetry_Int_Tables_number      19
_space_group_name_Hall           'P 2ac 2ab'
loop_
_symmetry_equiv_pos_site_id
_symmetry_equiv_pos_as_xyz
1 x,y,z
2 1/2-x,-y,1/2+z
3 -x,1/2+y,1/2-z
4 1/2+x,1/2-y,-z
_cell_length_a                   8.6100(14)
_cell_length_b                   9.6923(16)
_cell_length_c                   15.705(3)
_cell_angle_alpha                90
_cell_angle_beta                 90
_cell_angle_gamma                90
_cell_volume                     1310.59
_exptl_crystal_colour            yellow
_exptl_crystal_description       Rod-like
_cell_formula_units_Z            4
loop_
_atom_site_label
_atom_site_type_symbol
_atom_site_fract_x
_atom_site_fract_y
_atom_site_fract_z
Br1 Br 0.14205(4) 0.36557(4) -0.365672(19)
N1 N 0.2376(4) -0.0120(3) 0.02280(18)
N2 N 0.0584(3) 0.2440(3) 0.43548(16)
H1 H 0.1158 0.1954 0.4688
H2 H -0.0120 0.2969 0.4564
C1 C 0.1371(3) 0.3530(3) -0.24481(17)
C2 C 0.1226(3) 0.2296(3) 0.17078(16)
C3 C 0.1438(3) 0.2251(3) 0.07768(16)
C4 C 0.2115(3) 0.1484(3) 0.22567(17)
H3 H 0.2863 0.0898 0.2030
C5 C 0.1913(3) 0.1530(3) 0.31218(17)
H4 H 0.2539 0.0989 0.3470
C6 C 0.1706(4) 0.4565(3) -0.10939(19)
H5 H 0.1960 0.5331 -0.0766
C7 C 0.1789(3) 0.4660(3) -0.1965(2)
H6 H 0.2119 0.5471 -0.2225
C8 C 0.1249(3) 0.3349(3) -0.06858(17)
C9 C 0.0792(3) 0.2370(3) 0.34874(16)
C10 C 0.1190(3) 0.3320(3) 0.02462(18)
H7 H 0.0948 0.4154 0.0507
C11 C 0.1960(3) 0.0940(3) 0.04446(18)
C12 C 0.0104(3) 0.3143(3) 0.20755(19)
H8 H -0.0517 0.3690 0.1728
C13 C 0.0838(3) 0.2238(3) -0.11974(19)
H9 H 0.0511 0.1421 -0.0944
C14 C -0.0103(3) 0.3185(3) 0.29444(19)
H10 H -0.0852 0.3768 0.3173
C15 C 0.0904(3) 0.2319(3) -0.20657(19)
H11 H 0.0635 0.1560 -0.2397
loop_
_geom_bond_atom_site_label_1
_geom_bond_atom_site_label_2
_geom_bond_site_symmetry_1
_geom_bond_site_symmetry_2
Br1 C1 1_555 1_555
N1 C11 1_555 1_555
N2 H1 1_555 1_555
H2 N2 1_555 1_555
C1 C7 1_555 1_555
C2 C3 1_555 1_555
C3 C10 1_555 1_555
C4 C2 1_555 1_555
H3 C4 1_555 1_555
C5 C4 1_555 1_555
H4 C5 1_555 1_555
C6 H5 1_555 1_555
C7 C6 1_555 1_555
H6 C7 1_555 1_555
C8 C6 1_555 1_555
C9 N2 1_555 1_555
C10 C8 1_555 1_555
H7 C10 1_555 1_555
C11 C3 1_555 1_555
C12 C2 1_555 1_555
H8 C12 1_555 1_555
C13 C8 1_555 1_555
H9 C13 1_555 1_555
C14 C9 1_555 1_555
H10 C14 1_555 1_555
C15 C1 1_555 1_555
H11 C15 1_555 1_555
C5 C9 1_555 1_555
C12 C14 1_555 1_555
C13 C15 1_555 1_555

#END
