
#######################################################################
#
#                 Cambridge Crystallographic Data Centre
#                                CCDC 
#
#######################################################################
#
# If this CIF has been generated from an entry in the Cambridge 
# Structural Database, then it will include bibliographic, chemical, 
# crystal, experimental, refinement or atomic coordinate data resulting 
# from the CCDC's data processing and validation procedures.
#
#######################################################################

data_IYIJAD
_chemical_formula_moiety         'C18 H25 N3 O3 S1'
_chemical_name_systematic        
2-(4-((5-(dimethylamino)-1-naphthyl)sulfonyl)piperazin-1-yl)ethanol
_symmetry_cell_setting           monoclinic
_symmetry_space_group_name_H-M   'C 2/c'
_symmetry_Int_Tables_number      15
_space_group_name_Hall           '-C 2yn'
loop_
_symmetry_equiv_pos_site_id
_symmetry_equiv_pos_as_xyz
1 x,y,z
2 -x,y,1/2-z
3 1/2+x,1/2+y,z
4 1/2-x,1/2+y,1/2-z
5 -x,-y,-z
6 x,-y,1/2+z
7 1/2-x,1/2-y,-z
8 1/2+x,1/2-y,1/2+z
_cell_length_a                   31.0248(19)
_cell_length_b                   6.8895(4)
_cell_length_c                   16.9803(9)
_cell_angle_alpha                90
_cell_angle_beta                 94.757(4)
_cell_angle_gamma                90
_cell_volume                     3616.96
_exptl_crystal_colour            colorless
_exptl_crystal_description       block
_cell_formula_units_Z            8
loop_
_atom_site_label
_atom_site_type_symbol
_atom_site_fract_x
_atom_site_fract_y
_atom_site_fract_z
C1 C 0.46097(11) 0.5157(6) 0.3538(2)
H1 H 0.4618 0.6557 0.3600
H2 H 0.4505 0.4865 0.2997
C2 C 0.50592(12) 0.4325(8) 0.3714(2)
H3 H 0.5251 0.4862 0.3348
H4 H 0.5169 0.4686 0.4245
C3 C 0.47706(14) 0.1472(6) 0.4206(3)
H5 H 0.4879 0.1869 0.4734
H6 H 0.4773 0.0064 0.4189
C4 C 0.43132(12) 0.2183(5) 0.4043(2)
H7 H 0.4197 0.1757 0.3524
H8 H 0.4133 0.1667 0.4433
C5 C 0.35863(9) 0.5029(4) 0.31189(16)
C6 C 0.36687(10) 0.6455(4) 0.25982(19)
H9 H 0.3828 0.7539 0.2772
C7 C 0.35153(11) 0.6299(5) 0.1806(2)
H10 H 0.3566 0.7299 0.1458
C8 C 0.32940(10) 0.4720(4) 0.15393(17)
H11 H 0.3197 0.4642 0.1007
C9 C 0.32052(8) 0.3167(4) 0.20534(15)
C10 C 0.33445(8) 0.3324(4) 0.28721(15)
C11 C 0.32122(9) 0.1851(4) 0.33885(16)
H12 H 0.3300 0.1901 0.3925
C12 C 0.29571(10) 0.0371(5) 0.30946(17)
H13 H 0.2863 -0.0548 0.3443
C13 C 0.28311(10) 0.0179(4) 0.22936(17)
H14 H 0.2657 -0.0859 0.2116
C14 C 0.29624(8) 0.1519(4) 0.17615(15)
C15 C 0.24878(12) 0.0126(6) 0.0698(2)
H15 H 0.2572 -0.1206 0.0778
H16 H 0.2400 0.0337 0.0149
H17 H 0.2251 0.0417 0.1008
C16 C 0.32102(11) 0.1036(6) 0.04542(18)
H18 H 0.3453 0.1821 0.0643
H19 H 0.3124 0.1368 -0.0085
H20 H 0.3290 -0.0310 0.0485
C17 C 0.5541(5) 0.199(3) 0.3680(10)
H21 H 0.5664 0.3232 0.3555
H22 H 0.5643 0.1677 0.4221
C18 C 0.5688(4) 0.073(3) 0.3235(8)
H23 H 0.5782 -0.0337 0.3581
H24 H 0.5949 0.1294 0.3057
N1 N 0.43200(8) 0.4315(4) 0.40798(14)
N2 N 0.50517(11) 0.2215(7) 0.3644(2)
N3 N 0.28517(8) 0.1381(4) 0.09390(13)
O1 O 0.36170(7) 0.4385(4) 0.46634(12)
O2 O 0.39314(8) 0.7387(3) 0.41877(14)
O3 O 0.5475(6) -0.0150(18) 0.2560(8)
H25 H 0.5357 0.0688 0.2275
S1 S 0.38449(2) 0.53621(12) 0.40895(4)
C19? C 0.5451(4) 0.095(3) 0.3865(7)
H26? H 0.5698 0.1818 0.3898
H27? H 0.5423 0.0481 0.4396
C20? C 0.5547(5) -0.039(3) 0.3497(11)
H28? H 0.5423 -0.1489 0.3752
H29? H 0.5857 -0.0502 0.3610
O4? O 0.5477(6) -0.076(4) 0.2714(13)
H30? H 0.5224 -0.1073 0.2610
loop_
_geom_bond_atom_site_label_1
_geom_bond_atom_site_label_2
_geom_bond_site_symmetry_1
_geom_bond_site_symmetry_2
C1 H1 1_555 1_555
H2 C1 1_555 1_555
C2 C1 1_555 1_555
H3 C2 1_555 1_555
H4 C2 1_555 1_555
C3 H5 1_555 1_555
H6 C3 1_555 1_555
C4 C3 1_555 1_555
H7 C4 1_555 1_555
H8 C4 1_555 1_555
C5 C6 1_555 1_555
C6 H9 1_555 1_555
C7 C6 1_555 1_555
H10 C7 1_555 1_555
C8 C7 1_555 1_555
H11 C8 1_555 1_555
C9 C8 1_555 1_555
C10 C5 1_555 1_555
C11 C10 1_555 1_555
H12 C11 1_555 1_555
C12 C11 1_555 1_555
H13 C12 1_555 1_555
C13 C12 1_555 1_555
H14 C13 1_555 1_555
C14 C9 1_555 1_555
C15 H15 1_555 1_555
H16 C15 1_555 1_555
H17 C15 1_555 1_555
C16 H18 1_555 1_555
H19 C16 1_555 1_555
H20 C16 1_555 1_555
C17 H21 1_555 1_555
H22 C17 1_555 1_555
C18 C17 1_555 1_555
H23 C18 1_555 1_555
H24 C18 1_555 1_555
N1 C1 1_555 1_555
N2 C2 1_555 1_555
N3 C14 1_555 1_555
O1 S1 1_555 1_555
O2 S1 1_555 1_555
O3 C18 1_555 1_555
H25 O3 1_555 1_555
S1 C5 1_555 1_555
C3 N2 1_555 1_555
C4 N1 1_555 1_555
C9 C10 1_555 1_555
C13 C14 1_555 1_555
C15 N3 1_555 1_555
C16 N3 1_555 1_555
C17 N2 1_555 1_555
N1 S1 1_555 1_555

#END
