
#######################################################################
#
#                 Cambridge Crystallographic Data Centre
#                                CCDC 
#
#######################################################################
#
# If this CIF has been generated from an entry in the Cambridge 
# Structural Database, then it will include bibliographic, chemical, 
# crystal, experimental, refinement or atomic coordinate data resulting 
# from the CCDC's data processing and validation procedures.
#
#######################################################################

data_IYIQEM01
_chemical_formula_moiety         'C9 H8 N4 O1 S2'
_chemical_name_systematic        
6-Methyl-4-((2-thienylmethylene)amino)-3-thioxo-3,4-dihydro-1,2,4-triazin-5(2H)-one
_symmetry_cell_setting           monoclinic
_symmetry_space_group_name_H-M   'C 2/c'
_symmetry_Int_Tables_number      15
_space_group_name_Hall           '-C 2yn'
loop_
_symmetry_equiv_pos_site_id
_symmetry_equiv_pos_as_xyz
1 x,y,z
2 -x,y,1/2-z
3 1/2+x,1/2+y,z
4 1/2-x,1/2+y,1/2-z
5 -x,-y,-z
6 x,-y,1/2+z
7 1/2-x,1/2-y,-z
8 1/2+x,1/2-y,1/2+z
_cell_length_a                   23.135(6)
_cell_length_b                   6.1108(13)
_cell_length_c                   16.378(4)
_cell_angle_alpha                90
_cell_angle_beta                 106.805(3)
_cell_angle_gamma                90
_cell_volume                     2216.53
_cell_formula_units_Z            8
loop_
_atom_site_label
_atom_site_type_symbol
_atom_site_fract_x
_atom_site_fract_y
_atom_site_fract_z
S1 S 0.660771(16) -0.10305(6) 0.49594(2)
C1 C 0.71408(6) 0.0466(2) 0.56416(9)
N1 N 0.70130(5) 0.2197(2) 0.60961(8)
C2 C 0.74625(7) 0.3449(3) 0.66722(10)
C3 C 0.80853(7) 0.2803(3) 0.67120(9)
N2 N 0.82081(5) 0.1187(2) 0.62840(8)
N3 N 0.77328(6) 0.0083(2) 0.57617(9)
H1 H 0.7832(8) -0.098(3) 0.5518(12)
N4 N 0.64054(5) 0.2346(2) 0.61212(8)
O1 O 0.73413(5) 0.4924(2) 0.70886(7)
C4 C 0.85880(7) 0.4086(3) 0.72863(10)
H2 H 0.8975 0.3500 0.7255
H3 H 0.8566 0.3981 0.7874
H4 H 0.8553 0.5623 0.7107
C5 C 0.61877(6) 0.4289(3) 0.59938(9)
H5 H 0.6417 0.5431 0.5844
C6 C 0.55949(6) 0.4740(3) 0.60773(9)
S2 S 0.517382(17) 0.27888(7) 0.64126(3)
C7 C 0.45975(7) 0.4621(3) 0.63250(10)
H6 H 0.4233 0.4276 0.6454
C8 C 0.47194(7) 0.6625(3) 0.60509(10)
H7 H 0.4449 0.7832 0.5965
C9 C 0.52951(7) 0.6708(3) 0.59077(10)
H8 H 0.5455 0.7976 0.5717
loop_
_geom_bond_atom_site_label_1
_geom_bond_atom_site_label_2
_geom_bond_site_symmetry_1
_geom_bond_site_symmetry_2
S1 C1 1_555 1_555
C1 N1 1_555 1_555
N1 C2 1_555 1_555
C2 C3 1_555 1_555
C3 N2 1_555 1_555
N2 N3 1_555 1_555
N3 C1 1_555 1_555
H1 N3 1_555 1_555
N4 N1 1_555 1_555
O1 C2 1_555 1_555
C4 C3 1_555 1_555
H2 C4 1_555 1_555
H3 C4 1_555 1_555
H4 C4 1_555 1_555
C5 N4 1_555 1_555
H5 C5 1_555 1_555
C6 C5 1_555 1_555
S2 C6 1_555 1_555
C7 S2 1_555 1_555
H6 C7 1_555 1_555
C8 C7 1_555 1_555
H7 C8 1_555 1_555
C9 C6 1_555 1_555
H8 C9 1_555 1_555
C8 C9 1_555 1_555

#END
