
#######################################################################
#
#                 Cambridge Crystallographic Data Centre
#                                CCDC 
#
#######################################################################
#
# If this CIF has been generated from an entry in the Cambridge 
# Structural Database, then it will include bibliographic, chemical, 
# crystal, experimental, refinement or atomic coordinate data resulting 
# from the CCDC's data processing and validation procedures.
#
#######################################################################

data_IYITOA
_chemical_formula_moiety         'C20 H17 N1 O2'
_chemical_name_systematic        6-Methoxy-9-methyl-4-phenyl-9H-carbazol-2-ol
_symmetry_cell_setting           orthorhombic
_symmetry_space_group_name_H-M   'P 21 21 21'
_symmetry_Int_Tables_number      19
_space_group_name_Hall           'P 2ac 2ab'
loop_
_symmetry_equiv_pos_site_id
_symmetry_equiv_pos_as_xyz
1 x,y,z
2 1/2-x,-y,1/2+z
3 -x,1/2+y,1/2-z
4 1/2+x,1/2-y,-z
_cell_length_a                   5.5936(5)
_cell_length_b                   13.6523(12)
_cell_length_c                   20.1920(17)
_cell_angle_alpha                90
_cell_angle_beta                 90
_cell_angle_gamma                90
_cell_volume                     1541.97
_exptl_crystal_colour            colorless
_exptl_crystal_description       prismatic
_cell_formula_units_Z            4
loop_
_atom_site_label
_atom_site_type_symbol
_atom_site_fract_x
_atom_site_fract_y
_atom_site_fract_z
N1 N 0.8443(3) 0.41592(11) 0.29450(7)
O1 O 0.7083(3) 0.67482(10) 0.13354(6)
H1 H 0.7972 0.6423 0.1098
O2 O 0.4685(3) 0.40930(11) 0.54565(6)
C1 C 0.7872(3) 0.54038(13) 0.20642(8)
H2 H 0.8888 0.5106 0.1760
C2 C 0.6750(3) 0.62729(13) 0.19239(8)
C3 C 0.5220(3) 0.67236(13) 0.23768(8)
H3 H 0.4498 0.7314 0.2265
C4 C 0.4754(3) 0.63094(12) 0.29904(8)
C5 C 0.5844(3) 0.54121(12) 0.31444(7)
C6 C 0.7424(3) 0.49872(12) 0.26801(8)
C7 C 0.7611(3) 0.40470(12) 0.35880(8)
C8 C 0.5975(3) 0.47975(12) 0.37329(7)
C9 C 0.4942(3) 0.48275(12) 0.43631(8)
H4 H 0.3859 0.5317 0.4474
C10 C 0.5560(3) 0.41178(13) 0.48146(8)
C11 C 0.7175(4) 0.33827(13) 0.46623(9)
H5 H 0.7550 0.2913 0.4979
C12 C 0.8225(4) 0.33398(14) 0.40502(9)
H6 H 0.9319 0.2850 0.3948
C13 C 1.0416(4) 0.36140(16) 0.26594(10)
H7 H 1.0227 0.3583 0.2187
H8 H 1.0433 0.2962 0.2838
H9 H 1.1895 0.3936 0.2764
C14 C 0.2476(4) 0.45447(18) 0.55877(10)
H10 H 0.2671 0.5243 0.5582
H11 H 0.1910 0.4343 0.6015
H12 H 0.1338 0.4356 0.5255
C15 C 0.3201(3) 0.68337(12) 0.34700(8)
C16 C 0.3754(3) 0.77824(12) 0.36709(9)
H13 H 0.5090 0.8095 0.3496
C17 C 0.2337(4) 0.82632(14) 0.41266(9)
H14 H 0.2736 0.8893 0.4262
C18 C 0.0335(4) 0.78131(15) 0.43813(10)
H15 H -0.0614 0.8136 0.4690
C19 C -0.0252(3) 0.68847(15) 0.41774(9)
H16 H -0.1614 0.6582 0.4344
C20 C 0.1166(3) 0.64002(13) 0.37266(9)
H17 H 0.0750 0.5771 0.3592
loop_
_geom_bond_atom_site_label_1
_geom_bond_atom_site_label_2
_geom_bond_site_symmetry_1
_geom_bond_site_symmetry_2
N1 C6 1_555 1_555
O1 H1 1_555 1_555
O2 C10 1_555 1_555
C1 H2 1_555 1_555
C2 O1 1_555 1_555
C3 C2 1_555 1_555
H3 C3 1_555 1_555
C4 C3 1_555 1_555
C5 C4 1_555 1_555
C6 C1 1_555 1_555
C7 N1 1_555 1_555
C8 C5 1_555 1_555
C9 C8 1_555 1_555
H4 C9 1_555 1_555
C10 C9 1_555 1_555
C11 C10 1_555 1_555
H5 C11 1_555 1_555
C12 C7 1_555 1_555
H6 C12 1_555 1_555
C13 N1 1_555 1_555
H7 C13 1_555 1_555
H8 C13 1_555 1_555
H9 C13 1_555 1_555
C14 O2 1_555 1_555
H10 C14 1_555 1_555
H11 C14 1_555 1_555
H12 C14 1_555 1_555
C15 C4 1_555 1_555
C16 C15 1_555 1_555
H13 C16 1_555 1_555
C17 C16 1_555 1_555
H14 C17 1_555 1_555
C18 C17 1_555 1_555
H15 C18 1_555 1_555
C19 C18 1_555 1_555
H16 C19 1_555 1_555
C20 C15 1_555 1_555
H17 C20 1_555 1_555
C1 C2 1_555 1_555
C5 C6 1_555 1_555
C7 C8 1_555 1_555
C11 C12 1_555 1_555
C19 C20 1_555 1_555

#END
