
#######################################################################
#
#                 Cambridge Crystallographic Data Centre
#                                CCDC 
#
#######################################################################
#
# If this CIF has been generated from an entry in the Cambridge 
# Structural Database, then it will include bibliographic, chemical, 
# crystal, experimental, refinement or atomic coordinate data resulting 
# from the CCDC's data processing and validation procedures.
#
#######################################################################

data_IYIVAO
_chemical_formula_moiety         'C24 H31 N1 O2'
_chemical_name_systematic        
1-(4-Hexyl-2-hydroxy-9-methyl-9H-carbazol-1-yl)-3-methylbutan-1-one
_symmetry_cell_setting           triclinic
_symmetry_space_group_name_H-M   'P -1'
_symmetry_Int_Tables_number      2
_space_group_name_Hall           '-P 1'
loop_
_symmetry_equiv_pos_site_id
_symmetry_equiv_pos_as_xyz
1 x,y,z
2 -x,-y,-z
_cell_length_a                   7.927(2)
_cell_length_b                   8.405(2)
_cell_length_c                   17.286(5)
_cell_angle_alpha                100.810(6)
_cell_angle_beta                 92.514(5)
_cell_angle_gamma                108.286(5)
_cell_volume                     1067.61
_exptl_crystal_colour            colorless
_exptl_crystal_description       plate
_cell_formula_units_Z            2
loop_
_atom_site_label
_atom_site_type_symbol
_atom_site_fract_x
_atom_site_fract_y
_atom_site_fract_z
N1 N 1.4083(3) 1.1424(4) 0.29320(17)
O1 O 0.8975(3) 1.0932(4) 0.45175(15)
H1 H 0.9711 1.1643 0.4864
O2 O 1.1995(4) 1.3422(3) 0.50334(15)
C1 C 1.4168(5) 1.0442(5) 0.2194(2)
C2 C 1.5677(5) 1.0559(6) 0.1776(3)
H2 H 1.6800 1.1325 0.1988
C3 C 1.5412(6) 0.9487(6) 0.1038(3)
H3 H 1.6376 0.9540 0.0745
C4 C 1.3723(6) 0.8322(6) 0.0724(3)
H4 H 1.3591 0.7620 0.0225
C5 C 1.2238(5) 0.8187(5) 0.1139(2)
H5 H 1.1126 0.7403 0.0924
C6 C 1.2454(5) 0.9262(5) 0.1891(2)
C7 C 1.1260(4) 0.9525(4) 0.2489(2)
C8 C 0.9444(5) 0.8651(5) 0.2565(2)
C9 C 0.8770(5) 0.9150(5) 0.3265(2)
H6 H 0.7600 0.8557 0.3335
C10 C 0.9805(5) 1.0530(5) 0.3874(2)
C11 C 1.1578(4) 1.1516(4) 0.3792(2)
C12 C 1.2301(4) 1.0888(4) 0.3108(2)
C13 C 1.2387(5) 1.3209(5) 0.4339(2)
C14 C 1.3420(5) 1.4762(5) 0.4038(2)
H7 H 1.3578 1.4413 0.3486
H8 H 1.4595 1.5273 0.4336
C15 C 1.2455(5) 1.6106(5) 0.4116(2)
H9 H 1.2172 1.6326 0.4664
C16 C 1.0696(6) 1.5422(7) 0.3575(3)
H10 H 1.0928 1.5129 0.3036
H11 H 1.0129 1.6287 0.3625
H12 H 0.9923 1.4421 0.3725
C17 C 1.3655(7) 1.7802(6) 0.3954(3)
H13 H 1.3915 1.7633 0.3413
H14 H 1.4749 1.8201 0.4301
H15 H 1.3053 1.8638 0.4046
C18 C 1.5676(5) 1.2310(5) 0.3506(2)
H16 H 1.5352 1.2279 0.4033
H17 H 1.6163 1.3480 0.3455
H18 H 1.6553 1.1749 0.3405
C19 C 0.8319(5) 0.7183(5) 0.1910(2)
H19 H 0.8911 0.6325 0.1819
H20 H 0.8298 0.7613 0.1428
C20 C 0.6395(5) 0.6302(5) 0.2048(2)
H21 H 0.5802 0.7156 0.2156
H22 H 0.6403 0.5814 0.2514
C21 C 0.5315(5) 0.4878(5) 0.1347(2)
H23 H 0.5385 0.5339 0.0871
H24 H 0.5844 0.3972 0.1267
C22 C 0.3358(5) 0.4121(5) 0.1473(2)
H25 H 0.2866 0.5048 0.1598
H26 H 0.3296 0.3592 0.1928
C23 C 0.2190(6) 0.2794(6) 0.0769(2)
H27 H 0.2267 0.3310 0.0309
H28 H 0.2654 0.1846 0.0652
C24 C 0.0259(6) 0.2109(7) 0.0906(3)
H29 H 0.0177 0.1679 0.1385
H30 H -0.0378 0.1198 0.0468
H31 H -0.0255 0.3011 0.0954
loop_
_geom_bond_atom_site_label_1
_geom_bond_atom_site_label_2
_geom_bond_site_symmetry_1
_geom_bond_site_symmetry_2
N1 C1 1_555 1_555
O1 H1 1_555 1_555
O2 C13 1_555 1_555
C1 C2 1_555 1_555
C2 H2 1_555 1_555
C3 C2 1_555 1_555
H3 C3 1_555 1_555
C4 C3 1_555 1_555
H4 C4 1_555 1_555
C5 C4 1_555 1_555
H5 C5 1_555 1_555
C6 C1 1_555 1_555
C7 C6 1_555 1_555
C8 C7 1_555 1_555
C9 C8 1_555 1_555
H6 C9 1_555 1_555
C10 O1 1_555 1_555
C11 C10 1_555 1_555
C12 N1 1_555 1_555
C13 C11 1_555 1_555
C14 C13 1_555 1_555
H7 C14 1_555 1_555
H8 C14 1_555 1_555
C15 C14 1_555 1_555
H9 C15 1_555 1_555
C16 C15 1_555 1_555
H10 C16 1_555 1_555
H11 C16 1_555 1_555
H12 C16 1_555 1_555
C17 C15 1_555 1_555
H13 C17 1_555 1_555
H14 C17 1_555 1_555
H15 C17 1_555 1_555
C18 N1 1_555 1_555
H16 C18 1_555 1_555
H17 C18 1_555 1_555
H18 C18 1_555 1_555
C19 C8 1_555 1_555
H19 C19 1_555 1_555
H20 C19 1_555 1_555
C20 C19 1_555 1_555
H21 C20 1_555 1_555
H22 C20 1_555 1_555
C21 C20 1_555 1_555
H23 C21 1_555 1_555
H24 C21 1_555 1_555
C22 C21 1_555 1_555
H25 C22 1_555 1_555
H26 C22 1_555 1_555
C23 C22 1_555 1_555
H27 C23 1_555 1_555
H28 C23 1_555 1_555
C24 C23 1_555 1_555
H29 C24 1_555 1_555
H30 C24 1_555 1_555
H31 C24 1_555 1_555
C5 C6 1_555 1_555
C7 C12 1_555 1_555
C9 C10 1_555 1_555
C11 C12 1_555 1_555

#END
