
#######################################################################
#
#                 Cambridge Crystallographic Data Centre
#                                CCDC 
#
#######################################################################
#
# If this CIF has been generated from an entry in the Cambridge 
# Structural Database, then it will include bibliographic, chemical, 
# crystal, experimental, refinement or atomic coordinate data resulting 
# from the CCDC's data processing and validation procedures.
#
#######################################################################

data_IYIVUI
_chemical_formula_moiety         'C15 H10 Br1 F3 N2'
_chemical_name_systematic        
2-((4-Bromophenyl)amino)-3,3,3-trifluoro-2-phenylpropanenitrile
_symmetry_cell_setting           orthorhombic
_symmetry_space_group_name_H-M   'P 21 21 21'
_symmetry_Int_Tables_number      19
_space_group_name_Hall           'P 2ac 2ab'
loop_
_symmetry_equiv_pos_site_id
_symmetry_equiv_pos_as_xyz
1 x,y,z
2 1/2-x,-y,1/2+z
3 -x,1/2+y,1/2-z
4 1/2+x,1/2-y,-z
_cell_length_a                   5.9903(2)
_cell_length_b                   16.9293(6)
_cell_length_c                   28.8205(10)
_cell_angle_alpha                90
_cell_angle_beta                 90
_cell_angle_gamma                90
_cell_volume                     2922.73
_exptl_crystal_colour            colorless
_exptl_crystal_description       block
_cell_formula_units_Z            8
loop_
_atom_site_label
_atom_site_type_symbol
_atom_site_fract_x
_atom_site_fract_y
_atom_site_fract_z
Br1 Br 0.29125(11) 0.49231(3) 0.180700(16)
F1 F 0.0318(5) 0.62582(18) -0.10857(9)
F2 F 0.1517(5) 0.73518(16) -0.08060(9)
F3 F 0.3580(5) 0.66737(18) -0.12637(9)
N1 N 0.1480(6) 0.61986(19) -0.01367(11)
H1 H 0.0200 0.6408 -0.0193
N2 N 0.6700(8) 0.6951(2) -0.02544(14)
C1 C 0.3832(9) 0.5499(3) 0.04260(14)
H2 H 0.4943 0.5425 0.0205
C2 C 0.4109(8) 0.5210(3) 0.08704(15)
H3 H 0.5400 0.4934 0.0947
C3 C 0.2483(9) 0.5328(3) 0.11979(15)
C4 C 0.0552(9) 0.5731(3) 0.10894(16)
H4 H -0.0542 0.5811 0.1313
C5 C 0.0269(8) 0.6011(3) 0.06479(15)
H5 H -0.1038 0.6278 0.0573
C6 C 0.1887(9) 0.5903(2) 0.03097(13)
C7 C 0.5646(8) 0.5143(3) -0.08684(15)
H6 H 0.6720 0.5534 -0.0910
C8 C 0.6058(10) 0.4382(3) -0.10198(17)
H7 H 0.7413 0.4261 -0.1160
C9 C 0.4478(11) 0.3805(3) -0.09637(17)
H8 H 0.4740 0.3297 -0.1074
C10 C 0.2520(10) 0.3980(3) -0.07458(17)
H9 H 0.1472 0.3583 -0.0697
C11 C 0.2077(8) 0.4736(3) -0.05967(14)
H10 H 0.0718 0.4852 -0.0456
C12 C 0.3652(8) 0.5324(3) -0.06566(13)
C13 C 0.3090(8) 0.6168(2) -0.05035(13)
C14 C 0.5157(9) 0.6612(3) -0.03685(15)
C15 C 0.2111(9) 0.6622(3) -0.09199(15)
Br2 Br -0.15909(13) 0.64983(4) -0.486039(18)
F4 F -0.0097(4) 0.79850(17) -0.17338(8)
F5 F -0.3389(5) 0.81121(15) -0.20180(8)
F6 F -0.2094(5) 0.69647(15) -0.18701(9)
N3 N 0.3042(8) 0.6752(2) -0.24578(13)
N4 N -0.2205(6) 0.7242(2) -0.28084(12)
H11 H -0.3437 0.7103 -0.2679
C16 C -0.3546(10) 0.6496(3) -0.39663(17)
H12 H -0.4702 0.6224 -0.4111
C17 C -0.3670(8) 0.6673(3) -0.34962(16)
H13 H -0.4923 0.6525 -0.3327
C18 C -0.1927(8) 0.7070(2) -0.32782(14)
C19 C -0.0083(8) 0.7277(3) -0.35356(15)
H14 H 0.1098 0.7538 -0.3393
C20 C 0.0039(9) 0.7100(3) -0.40073(17)
H15 H 0.1297 0.7237 -0.4178
C21 C -0.1713(11) 0.6724(3) -0.42148(15)
C22 C -0.1578(9) 0.8906(3) -0.29258(14)
H16 H -0.2940 0.8678 -0.3004
C23 C -0.1126(10) 0.9677(3) -0.30506(16)
H17 H -0.2185 0.9966 -0.3215
C24 C 0.0875(10) 1.0021(3) -0.29342(17)
H18 H 0.1176 1.0541 -0.3017
C25 C 0.2410(10) 0.9589(3) -0.26954(19)
H19 H 0.3762 0.9821 -0.2614
C26 C 0.2002(9) 0.8818(3) -0.25726(16)
H20 H 0.3081 0.8529 -0.2414
C27 C -0.0009(8) 0.8474(3) -0.26848(14)
C28 C 0.1509(9) 0.7140(3) -0.24873(15)
C29 C -0.0567(7) 0.7638(3) -0.25257(15)
C30 C -0.1549(9) 0.7677(3) -0.20308(14)
loop_
_geom_bond_atom_site_label_1
_geom_bond_atom_site_label_2
_geom_bond_site_symmetry_1
_geom_bond_site_symmetry_2
Br1 C3 1_555 1_555
F1 C15 1_555 1_555
F2 C15 1_555 1_555
F3 C15 1_555 1_555
N1 H1 1_555 1_555
N2 C14 1_555 1_555
C1 H2 1_555 1_555
C2 C1 1_555 1_555
H3 C2 1_555 1_555
C3 C2 1_555 1_555
C4 C3 1_555 1_555
H4 C4 1_555 1_555
C5 C4 1_555 1_555
H5 C5 1_555 1_555
C6 N1 1_555 1_555
C7 H6 1_555 1_555
C8 C7 1_555 1_555
H7 C8 1_555 1_555
C9 C8 1_555 1_555
H8 C9 1_555 1_555
C10 C9 1_555 1_555
H9 C10 1_555 1_555
C11 C10 1_555 1_555
H10 C11 1_555 1_555
C12 C7 1_555 1_555
C13 N1 1_555 1_555
C14 C13 1_555 1_555
C15 C13 1_555 1_555
Br2 C21 1_555 1_555
F4 C30 1_555 1_555
F5 C30 1_555 1_555
F6 C30 1_555 1_555
N3 C28 1_555 1_555
N4 H11 1_555 1_555
C16 H12 1_555 1_555
C17 C16 1_555 1_555
H13 C17 1_555 1_555
C18 N4 1_555 1_555
C19 C18 1_555 1_555
H14 C19 1_555 1_555
C20 C19 1_555 1_555
H15 C20 1_555 1_555
C21 C16 1_555 1_555
C22 H16 1_555 1_555
C23 C22 1_555 1_555
H17 C23 1_555 1_555
C24 C23 1_555 1_555
H18 C24 1_555 1_555
C25 C24 1_555 1_555
H19 C25 1_555 1_555
C26 C25 1_555 1_555
H20 C26 1_555 1_555
C27 C22 1_555 1_555
C28 C29 1_555 1_555
C29 N4 1_555 1_555
C30 C29 1_555 1_555
C1 C6 1_555 1_555
C5 C6 1_555 1_555
C11 C12 1_555 1_555
C12 C13 1_555 1_555
C17 C18 1_555 1_555
C20 C21 1_555 1_555
C26 C27 1_555 1_555
C27 C29 1_555 1_555

#END
