
#######################################################################
#
#                 Cambridge Crystallographic Data Centre
#                                CCDC 
#
#######################################################################
#
# If this CIF has been generated from an entry in the Cambridge 
# Structural Database, then it will include bibliographic, chemical, 
# crystal, experimental, refinement or atomic coordinate data resulting 
# from the CCDC's data processing and validation procedures.
#
#######################################################################

data_IYIWAO
_chemical_formula_moiety         'C21 H21 N2 O3 1+,Cl1 1-'
_chemical_name_systematic        
'4-(4-Methoxybenzyl)-8,9-dimethoxy-4H-benzo(de)(1,6)naphthyridine hydrochloride'
_symmetry_cell_setting           monoclinic
_symmetry_space_group_name_H-M   'P 21/c'
_symmetry_Int_Tables_number      14
_space_group_name_Hall           '-P 2ybc'
loop_
_symmetry_equiv_pos_site_id
_symmetry_equiv_pos_as_xyz
1 x,y,z
2 x,1/2-y,1/2+z
3 -x,-y,-z
4 -x,1/2+y,1/2-z
_cell_length_a                   13.7536(13)
_cell_length_b                   19.0271(17)
_cell_length_c                   7.1665(6)
_cell_angle_alpha                90
_cell_angle_beta                 98.060(5)
_cell_angle_gamma                90
_cell_volume                     1856.88
_exptl_crystal_colour            'pale yellow'
_exptl_crystal_description       plate
_chemical_melting_point          235-237deg.C(dec.)
_cell_formula_units_Z            4
loop_
_atom_site_label
_atom_site_type_symbol
_atom_site_fract_x
_atom_site_fract_y
_atom_site_fract_z
Cl1 Cl 0.27982(11) 0.00480(7) 0.22209(19)
N1 N 0.4433(4) 0.1165(3) 0.2001(8)
H1 H 0.3889 0.0982 0.2301
C1 C 0.5159(5) 0.0736(4) 0.1612(10)
H2 H 0.5065 0.0242 0.1669
C2 C 0.6020(6) 0.0983(4) 0.1139(10)
H3 H 0.6507 0.0667 0.0829
C3 C 0.6179(5) 0.1713(4) 0.1116(9)
N2 N 0.7040(5) 0.2004(3) 0.0774(8)
C4 C 0.7155(6) 0.2737(4) 0.0770(10)
H4 H 0.7765 0.2927 0.0535
C5 C 0.6437(5) 0.3180(4) 0.1085(9)
H5 H 0.6546 0.3672 0.1056
C6 C 0.5509(5) 0.2918(4) 0.1465(9)
C7 C 0.5413(5) 0.2172(4) 0.1518(9)
C8 C 0.4529(5) 0.1886(4) 0.1938(9)
C9 C 0.3767(5) 0.2321(4) 0.2289(9)
O1 O 0.2957(4) 0.1983(3) 0.2853(7)
C10 C 0.3859(5) 0.3030(4) 0.2183(10)
O2 O 0.3052(4) 0.3403(3) 0.2497(7)
C11 C 0.4718(5) 0.3335(4) 0.1760(9)
H6 H 0.4765 0.3831 0.1672
C12 C 0.3034(7) 0.4146(4) 0.2177(12)
H7 H 0.2411 0.4340 0.2465
H8 H 0.3097 0.4240 0.0855
H9 H 0.3581 0.4367 0.2992
C13 C 0.2052(6) 0.2015(5) 0.1567(12)
H10 H 0.1536 0.1765 0.2111
H11 H 0.2147 0.1794 0.0369
H12 H 0.1859 0.2507 0.1345
C14 C 0.7906(5) 0.1575(4) 0.0485(10)
H13 H 0.8276 0.1823 -0.0405
H14 H 0.7677 0.1122 -0.0100
C15 C 0.8580(5) 0.1430(4) 0.2263(10)
C16 C 0.9435(6) 0.1811(5) 0.2703(11)
H15 H 0.9596 0.2158 0.1843
C17 C 1.0072(7) 0.1701(5) 0.4378(12)
H16 H 1.0662 0.1965 0.4638
C18 C 0.9835(5) 0.1199(5) 0.5670(11)
O3 O 1.0495(4) 0.1135(3) 0.7250(8)
C19 C 0.9005(6) 0.0816(4) 0.5290(10)
H17 H 0.8848 0.0473 0.6164
C20 C 0.8362(6) 0.0929(4) 0.3570(11)
H18 H 0.7777 0.0659 0.3311
C21 C 1.0315(7) 0.0597(5) 0.8569(12)
H19 H 1.0834 0.0607 0.9654
H20 H 1.0309 0.0136 0.7956
H21 H 0.9678 0.0680 0.8996
loop_
_geom_bond_atom_site_label_1
_geom_bond_atom_site_label_2
_geom_bond_site_symmetry_1
_geom_bond_site_symmetry_2
N1 H1 1_555 1_555
C1 N1 1_555 1_555
H2 C1 1_555 1_555
C2 C1 1_555 1_555
H3 C2 1_555 1_555
C3 C2 1_555 1_555
N2 C3 1_555 1_555
C4 N2 1_555 1_555
H4 C4 1_555 1_555
C5 C4 1_555 1_555
H5 C5 1_555 1_555
C6 C5 1_555 1_555
C7 C3 1_555 1_555
C8 N1 1_555 1_555
C9 C8 1_555 1_555
O1 C9 1_555 1_555
C10 C9 1_555 1_555
O2 C10 1_555 1_555
C11 C6 1_555 1_555
H6 C11 1_555 1_555
C12 O2 1_555 1_555
H7 C12 1_555 1_555
H8 C12 1_555 1_555
H9 C12 1_555 1_555
C13 O1 1_555 1_555
H10 C13 1_555 1_555
H11 C13 1_555 1_555
H12 C13 1_555 1_555
C14 N2 1_555 1_555
H13 C14 1_555 1_555
H14 C14 1_555 1_555
C15 C14 1_555 1_555
C16 C15 1_555 1_555
H15 C16 1_555 1_555
C17 C16 1_555 1_555
H16 C17 1_555 1_555
C18 C17 1_555 1_555
O3 C18 1_555 1_555
C19 C18 1_555 1_555
H17 C19 1_555 1_555
C20 C15 1_555 1_555
H18 C20 1_555 1_555
C21 O3 1_555 1_555
H19 C21 1_555 1_555
H20 C21 1_555 1_555
H21 C21 1_555 1_555
C6 C7 1_555 1_555
C7 C8 1_555 1_555
C10 C11 1_555 1_555
C19 C20 1_555 1_555

#END
