
#######################################################################
#
#                 Cambridge Crystallographic Data Centre
#                                CCDC 
#
#######################################################################
#
# If this CIF has been generated from an entry in the Cambridge 
# Structural Database, then it will include bibliographic, chemical, 
# crystal, experimental, refinement or atomic coordinate data resulting 
# from the CCDC's data processing and validation procedures.
#
#######################################################################

data_IYIWUI
_chemical_name_common            
(1R*,3aS*,9bR*)-1-Isopropyl-6-methoxy-3a,8-dimethyl-1,3,3a,4,5,9b-hexahydrocyclopenta(a)naphthalene-2-one
_chemical_formula_moiety         'C19 H26 O2'
_chemical_name_systematic        
(1R*,3aS*,9bR*)-1-Isopropyl-6-methoxy-3a,8-dimethyl-1,3,3a,4,5,9b-hexahydro-2H-benz(e)inden-2-one
_symmetry_cell_setting           monoclinic
_symmetry_space_group_name_H-M   'P 21/c'
_symmetry_Int_Tables_number      14
_space_group_name_Hall           '-P 2ybc'
loop_
_symmetry_equiv_pos_site_id
_symmetry_equiv_pos_as_xyz
1 x,y,z
2 -x,1/2+y,1/2-z
3 -x,-y,-z
4 x,1/2-y,1/2+z
_cell_length_a                   8.1883(13)
_cell_length_b                   9.7259(15)
_cell_length_c                   20.835(3)
_cell_angle_alpha                90
_cell_angle_beta                 98.414(3)
_cell_angle_gamma                90
_cell_volume                     1641.41
_exptl_crystal_colour            white
_chemical_melting_point          98-99deg.C
_cell_formula_units_Z            4
loop_
_atom_site_label
_atom_site_type_symbol
_atom_site_fract_x
_atom_site_fract_y
_atom_site_fract_z
O1 O -0.03030(18) 0.27495(16) 0.03481(6)
O2 O 0.33531(18) 0.31052(14) 0.39210(6)
C1 C -0.0699(2) 0.33698(16) 0.14530(8)
C2 C 0.0070(2) 0.34497(19) 0.08249(8)
C3 C 0.1387(2) 0.4541(2) 0.09001(9)
C4 C 0.1868(2) 0.47069(17) 0.16372(8)
C5 C 0.2984(2) 0.35151(18) 0.18998(8)
C6 C 0.3287(2) 0.34562(19) 0.26395(8)
C7 C 0.1768(2) 0.37607(16) 0.29467(8)
C8 C 0.1856(2) 0.35817(17) 0.36211(8)
C9 C 0.0539(2) 0.38973(18) 0.39414(8)
C10 C -0.0904(2) 0.44352(18) 0.35979(9)
C11 C -0.0992(2) 0.46425(17) 0.29352(8)
C12 C 0.0324(2) 0.42964(16) 0.26031(8)
C13 C 0.0172(2) 0.45363(16) 0.18781(8)
C14 C -0.2605(2) 0.34009(17) 0.13389(8)
C15 C -0.3324(2) 0.20186(19) 0.11016(9)
C16 C -0.3282(2) 0.4551(2) 0.08787(10)
C17 C 0.2664(3) 0.60923(19) 0.18247(10)
C18 C 0.3642(3) 0.3098(2) 0.46109(9)
C19 C -0.2349(3) 0.4769(2) 0.39491(11)
H1 H -0.0351 0.2477 0.1669
H2 H 0.0954 0.5416 0.0699
H3 H 0.2349 0.4248 0.0696
H4 H 0.2473 0.2640 0.1731
H5 H 0.4057 0.3606 0.1738
H6 H 0.3698 0.2529 0.2776
H7 H 0.4159 0.4127 0.2802
H8 H 0.0621 0.3747 0.4396
H9 H -0.1967 0.5028 0.2700
H10 H -0.0472 0.5402 0.1774
H11 H -0.2975 0.3588 0.1767
H12 H -0.4532 0.2071 0.1039
H13 H -0.2953 0.1309 0.1424
H14 H -0.2951 0.1786 0.0689
H15 H -0.4492 0.4538 0.0824
H16 H -0.2913 0.4414 0.0457
H17 H -0.2879 0.5438 0.1060
H18 H 0.2933 0.6150 0.2298
H19 H 0.1895 0.6832 0.1667
H20 H 0.3677 0.6187 0.1630
H21 H 0.4747 0.2732 0.4761
H22 H 0.2815 0.2518 0.4775
H23 H 0.3563 0.4038 0.4773
H24 H -0.3305 0.4213 0.3769
H25 H -0.2624 0.5746 0.3894
H26 H -0.2053 0.4563 0.4412
loop_
_geom_bond_atom_site_label_1
_geom_bond_atom_site_label_2
_geom_bond_site_symmetry_1
_geom_bond_site_symmetry_2
O1 C2 1_555 1_555
O2 C8 1_555 1_555
C1 C2 1_555 1_555
C2 C3 1_555 1_555
C3 C4 1_555 1_555
C4 C5 1_555 1_555
C5 C6 1_555 1_555
C6 C7 1_555 1_555
C7 C8 1_555 1_555
C8 C9 1_555 1_555
C9 C10 1_555 1_555
C10 C11 1_555 1_555
C11 C12 1_555 1_555
C12 C7 1_555 1_555
C13 C1 1_555 1_555
C14 C1 1_555 1_555
C15 C14 1_555 1_555
C16 C14 1_555 1_555
C17 C4 1_555 1_555
C18 O2 1_555 1_555
C19 C10 1_555 1_555
H1 C1 1_555 1_555
H2 C3 1_555 1_555
H3 C3 1_555 1_555
H4 C5 1_555 1_555
H5 C5 1_555 1_555
H6 C6 1_555 1_555
H7 C6 1_555 1_555
H8 C9 1_555 1_555
H9 C11 1_555 1_555
H10 C13 1_555 1_555
H11 C14 1_555 1_555
H12 C15 1_555 1_555
H13 C15 1_555 1_555
H14 C15 1_555 1_555
H15 C16 1_555 1_555
H16 C16 1_555 1_555
H17 C16 1_555 1_555
H18 C17 1_555 1_555
H19 C17 1_555 1_555
H20 C17 1_555 1_555
H21 C18 1_555 1_555
H22 C18 1_555 1_555
H23 C18 1_555 1_555
H24 C19 1_555 1_555
H25 C19 1_555 1_555
H26 C19 1_555 1_555
C4 C13 1_555 1_555
C12 C13 1_555 1_555

#END
