
#######################################################################
#
#                 Cambridge Crystallographic Data Centre
#                                CCDC 
#
#######################################################################
#
# If this CIF has been generated from an entry in the Cambridge 
# Structural Database, then it will include bibliographic, chemical, 
# crystal, experimental, refinement or atomic coordinate data resulting 
# from the CCDC's data processing and validation procedures.
#
#######################################################################

data_IYIXUJ
_chemical_formula_moiety         'C11 H7 Cl1 F1 N1 O2'
_chemical_name_systematic        
2-Chloro-5-fluoro-6-methoxyquinoline-3-carbaldehyde
_symmetry_cell_setting           monoclinic
_symmetry_space_group_name_H-M   'P 21/c'
_symmetry_Int_Tables_number      14
_space_group_name_Hall           '-P 2ybc'
loop_
_symmetry_equiv_pos_site_id
_symmetry_equiv_pos_as_xyz
1 x,y,z
2 x,1/2-y,1/2+z
3 -x,-y,-z
4 -x,1/2+y,1/2-z
_cell_length_a                   3.8149(4)
_cell_length_b                   20.897(2)
_cell_length_c                   12.275(1)
_cell_angle_alpha                90
_cell_angle_beta                 91.12(1)
_cell_angle_gamma                90
_cell_volume                     978.376
_exptl_crystal_colour            yellow
_exptl_crystal_description       needle
_chemical_melting_point          '419-420 K'
_cell_formula_units_Z            4
loop_
_atom_site_label
_atom_site_type_symbol
_atom_site_fract_x
_atom_site_fract_y
_atom_site_fract_z
Cl1 Cl 0.13021(11) 0.309829(19) 0.36255(3)
F1 F 0.8180(2) 0.37508(4) 0.85547(7)
N1 N 0.2281(3) 0.39782(6) 0.50810(10)
O1 O 0.7464(3) 0.19507(5) 0.58828(11)
O2 O 0.7558(3) 0.49932(5) 0.89531(9)
C1 C 0.5425(4) 0.22669(8) 0.53418(14)
H1 H 0.422(5) 0.2086(9) 0.4731(16)
C2 C 0.2852(4) 0.33766(7) 0.48940(12)
C3 C 0.4646(4) 0.29460(7) 0.56079(13)
C4 C 0.5803(4) 0.31845(7) 0.65897(13)
H2 H 0.700(5) 0.2920(8) 0.7076(15)
C5 C 0.6485(4) 0.41235(7) 0.78076(11)
C6 C 0.6111(4) 0.47685(7) 0.80149(12)
C7 C 0.4332(4) 0.51428(7) 0.72222(12)
H3 H 0.411(4) 0.5594(8) 0.7335(13)
C8 C 0.3039(4) 0.48808(7) 0.62719(12)
H4 H 0.185(5) 0.5139(9) 0.5754(15)
C9 C 0.3512(4) 0.42245(7) 0.60546(12)
C10 C 0.5274(4) 0.38385(7) 0.68447(12)
C11 C 0.7065(5) 0.56625(7) 0.91866(14)
H5 H 0.813(5) 0.5732(8) 0.9859(16)
H6 H 0.457(5) 0.5761(8) 0.9267(15)
H7 H 0.827(5) 0.5908(9) 0.8617(16)
loop_
_geom_bond_atom_site_label_1
_geom_bond_atom_site_label_2
_geom_bond_site_symmetry_1
_geom_bond_site_symmetry_2
Cl1 C2 1_555 1_555
F1 C5 1_555 1_555
N1 C2 1_555 1_555
O1 C1 1_555 1_555
O2 C6 1_555 1_555
C1 H1 1_555 1_555
C2 C3 1_555 1_555
C3 C1 1_555 1_555
C4 C3 1_555 1_555
H2 C4 1_555 1_555
C5 C6 1_555 1_555
C6 C7 1_555 1_555
C7 H3 1_555 1_555
C8 C7 1_555 1_555
H4 C8 1_555 1_555
C9 N1 1_555 1_555
C10 C4 1_555 1_555
C11 O2 1_555 1_555
H5 C11 1_555 1_555
H6 C11 1_555 1_555
H7 C11 1_555 1_555
C5 C10 1_555 1_555
C8 C9 1_555 1_555
C9 C10 1_555 1_555

#END
