
#######################################################################
#
#                 Cambridge Crystallographic Data Centre
#                                CCDC 
#
#######################################################################
#
# If this CIF has been generated from an entry in the Cambridge 
# Structural Database, then it will include bibliographic, chemical, 
# crystal, experimental, refinement or atomic coordinate data resulting 
# from the CCDC's data processing and validation procedures.
#
#######################################################################

data_IYIXOD
_chemical_formula_moiety         'C10 H8 F1 N1 O1'
_chemical_name_systematic        8-Fluoro-8-methyl-8-hydroquinoline-5-one
_symmetry_cell_setting           orthorhombic
_symmetry_space_group_name_H-M   'P b c a'
_symmetry_Int_Tables_number      61
_space_group_name_Hall           '-P 2ac 2ab'
loop_
_symmetry_equiv_pos_site_id
_symmetry_equiv_pos_as_xyz
1 x,y,z
2 1/2+x,y,1/2-z
3 x,1/2-y,1/2+z
4 1/2-x,1/2+y,z
5 -x,-y,-z
6 1/2-x,-y,1/2+z
7 -x,1/2+y,1/2-z
8 1/2+x,1/2-y,-z
_cell_length_a                   11.426(1)
_cell_length_b                   6.726(1)
_cell_length_c                   21.586(2)
_cell_angle_alpha                90
_cell_angle_beta                 90
_cell_angle_gamma                90
_cell_volume                     1658.91
_exptl_crystal_colour            colorless
_exptl_crystal_description       prism
_chemical_melting_point          '341-343 K'
_cell_formula_units_Z            8
loop_
_atom_site_label
_atom_site_type_symbol
_atom_site_fract_x
_atom_site_fract_y
_atom_site_fract_z
F1 F 0.37771(7) 0.12580(13) 0.61343(3)
O1 O 0.82358(9) 0.19867(17) 0.57889(5)
N1 N 0.49718(10) 0.30132(16) 0.71311(5)
C1 C 0.40154(11) 0.4714(2) 0.59838(6)
H1 H 0.3481(14) 0.472(3) 0.5639(8)
H2 H 0.3614(14) 0.499(3) 0.6369(8)
H3 H 0.4560(14) 0.572(3) 0.5923(7)
C2 C 0.56853(13) 0.30291(19) 0.76240(6)
H4 H 0.5313(16) 0.330(3) 0.8013(9)
C3 C 0.68893(13) 0.2757(2) 0.75920(6)
H5 H 0.7358(16) 0.276(3) 0.7961(8)
C4 C 0.73861(12) 0.2457(2) 0.70191(7)
H6 H 0.8229(16) 0.228(3) 0.6949(8)
C5 C 0.71754(11) 0.21197(19) 0.58688(6)
C6 C 0.63497(13) 0.1962(2) 0.53496(6)
H7 H 0.6733(12) 0.165(2) 0.4929(6)
C7 C 0.52067(12) 0.2226(2) 0.54238(6)
H8 H 0.4634(15) 0.209(2) 0.5089(8)
C8 C 0.46431(10) 0.27415(19) 0.60288(5)
C9 C 0.54702(10) 0.27028(17) 0.65772(5)
C10 C 0.66727(10) 0.24270(17) 0.64955(6)
loop_
_geom_bond_atom_site_label_1
_geom_bond_atom_site_label_2
_geom_bond_site_symmetry_1
_geom_bond_site_symmetry_2
F1 C8 1_555 1_555
O1 C5 1_555 1_555
N1 C2 1_555 1_555
C1 H1 1_555 1_555
H2 C1 1_555 1_555
H3 C1 1_555 1_555
C2 H4 1_555 1_555
C3 C2 1_555 1_555
H5 C3 1_555 1_555
C4 C3 1_555 1_555
H6 C4 1_555 1_555
C5 C6 1_555 1_555
C6 H7 1_555 1_555
C7 C6 1_555 1_555
H8 C7 1_555 1_555
C8 C1 1_555 1_555
C9 N1 1_555 1_555
C10 C4 1_555 1_555
C5 C10 1_555 1_555
C7 C8 1_555 1_555
C8 C9 1_555 1_555
C9 C10 1_555 1_555

#END
