
#######################################################################
#
#                 Cambridge Crystallographic Data Centre
#                                CCDC 
#
#######################################################################
#
# If this CIF has been generated from an entry in the Cambridge 
# Structural Database, then it will include bibliographic, chemical, 
# crystal, experimental, refinement or atomic coordinate data resulting 
# from the CCDC's data processing and validation procedures.
#
#######################################################################

data_IYIXEV
_chemical_formula_moiety         'C32 H27 N2 O2 1+,Cl1 1-'
_chemical_name_systematic        
'2-(2-carboxyethyl)-1,3-bis(2-naphthylmethyl)-1H-3,1-benzimidazol-3-ium chloride'
_chemical_properties_biological  'in vitro anti-tumor activity investigated'
_symmetry_cell_setting           triclinic
_symmetry_space_group_name_H-M   'P -1'
_symmetry_Int_Tables_number      2
_space_group_name_Hall           '-P 1'
loop_
_symmetry_equiv_pos_site_id
_symmetry_equiv_pos_as_xyz
1 x,y,z
2 -x,-y,-z
_cell_length_a                   8.0368(15)
_cell_length_b                   12.690(2)
_cell_length_c                   12.996(3)
_cell_angle_alpha                106.523(7)
_cell_angle_beta                 100.163(7)
_cell_angle_gamma                92.637(7)
_cell_volume                     1244.24
_exptl_crystal_colour            colorless
_exptl_crystal_description       block
_cell_formula_units_Z            2
loop_
_atom_site_label
_atom_site_type_symbol
_atom_site_fract_x
_atom_site_fract_y
_atom_site_fract_z
Cl1 Cl 0.27200(5) 0.21186(3) 0.30782(3)
O1 O 0.31819(19) 1.01541(12) 1.12950(11)
H1 H 0.2980 1.0743 1.1728
O2 O 0.16748(18) 1.08074(11) 1.00322(11)
N1 N 0.23925(19) 0.76271(12) 0.68761(12)
N2 N 0.09738(19) 0.65954(12) 0.75863(12)
C1 C 0.1521(2) 0.76378(14) 0.76673(14)
C2 C 0.1260(2) 0.86504(15) 0.85140(15)
H2 H 0.0259 0.8494 0.8815
H3 H 0.1013 0.9242 0.8167
C3 C 0.2807(2) 0.90627(16) 0.94555(15)
H4 H 0.3045 0.8483 0.9819
H5 H 0.3816 0.9217 0.9161
C4 C 0.2477(2) 1.01032(15) 1.02817(15)
C5 C 0.2389(2) 0.65332(14) 0.62442(14)
C6 C 0.3092(2) 0.60944(15) 0.53306(15)
H6 H 0.3717 0.6546 0.5030
C7 C 0.2824(2) 0.49568(15) 0.48855(15)
H7 H 0.3271 0.4616 0.4256
C8 C 0.1911(2) 0.42931(15) 0.53356(15)
H8 H 0.1760 0.3516 0.5002
C9 C 0.1225(2) 0.47334(15) 0.62494(15)
H9 H 0.0612 0.4283 0.6557
C10 C 0.1486(2) 0.58833(14) 0.66946(14)
C11 C 0.3103(2) 0.85857(14) 0.66075(15)
H10 H 0.4307 0.8508 0.6555
H11 H 0.3061 0.9269 0.7201
C12 C 0.2122(2) 0.86782(14) 0.55375(15)
C13 C 0.0384(2) 0.84965(14) 0.52714(15)
H12 H -0.0224 0.8328 0.5778
C14 C -0.0522(2) 0.85551(14) 0.42525(15)
C15 C -0.2312(3) 0.83227(15) 0.39452(16)
H13 H -0.2938 0.8142 0.4438
C16 C -0.3145(3) 0.83571(16) 0.29451(17)
H14 H -0.4344 0.8190 0.2743
C17 C -0.2233(3) 0.86391(16) 0.22113(17)
H15 H -0.2822 0.8659 0.1517
C18 C -0.0507(3) 0.88844(15) 0.24921(16)
H16 H 0.0090 0.9081 0.1994
C19 C 0.0400(3) 0.88474(14) 0.35181(15)
C20 C 0.2194(3) 0.90744(15) 0.38304(16)
H17 H 0.2819 0.9299 0.3359
C21 C 0.3030(3) 0.89732(15) 0.48028(16)
H18 H 0.4234 0.9102 0.4989
C22 C -0.0081(2) 0.62433(16) 0.82767(15)
H19 H -0.0772 0.5540 0.7844
H20 H -0.0870 0.6806 0.8491
C23 C 0.0969(2) 0.60860(16) 0.92969(15)
C24 C 0.1740(2) 0.51393(15) 0.92703(15)
H21 H 0.1626 0.4575 0.8593
C25 C 0.2701(2) 0.49830(15) 1.02284(16)
C26 C 0.3439(3) 0.39867(17) 1.02246(18)
H22 H 0.3329 0.3412 0.9555
C27 C 0.4304(3) 0.38449(18) 1.11698(18)
H23 H 0.4775 0.3169 1.1158
C28 C 0.4501(3) 0.46996(19) 1.21652(18)
H24 H 0.5107 0.4596 1.2820
C29 C 0.3831(3) 0.56717(18) 1.21965(17)
H25 H 0.3999 0.6245 1.2871
C30 C 0.2884(2) 0.58405(16) 1.12339(16)
C31 C 0.2076(3) 0.68060(16) 1.12429(16)
H26 H 0.2190 0.7383 1.1911
C32 C 0.1132(3) 0.69238(16) 1.03081(16)
H27 H 0.0580 0.7574 1.0336
loop_
_geom_bond_atom_site_label_1
_geom_bond_atom_site_label_2
_geom_bond_site_symmetry_1
_geom_bond_site_symmetry_2
O1 H1 1_555 1_555
O2 C4 1_555 1_555
N1 C1 1_555 1_555
N2 C1 1_555 1_555
C1 C2 1_555 1_555
C2 H2 1_555 1_555
H3 C2 1_555 1_555
C3 C2 1_555 1_555
H4 C3 1_555 1_555
H5 C3 1_555 1_555
C4 O1 1_555 1_555
C5 N1 1_555 1_555
C6 C5 1_555 1_555
H6 C6 1_555 1_555
C7 C6 1_555 1_555
H7 C7 1_555 1_555
C8 C7 1_555 1_555
H8 C8 1_555 1_555
C9 C8 1_555 1_555
H9 C9 1_555 1_555
C10 N2 1_555 1_555
C11 N1 1_555 1_555
H10 C11 1_555 1_555
H11 C11 1_555 1_555
C12 C11 1_555 1_555
C13 C12 1_555 1_555
H12 C13 1_555 1_555
C14 C13 1_555 1_555
C15 C14 1_555 1_555
H13 C15 1_555 1_555
C16 C15 1_555 1_555
H14 C16 1_555 1_555
C17 C16 1_555 1_555
H15 C17 1_555 1_555
C18 C17 1_555 1_555
H16 C18 1_555 1_555
C19 C14 1_555 1_555
C20 C19 1_555 1_555
H17 C20 1_555 1_555
C21 C12 1_555 1_555
H18 C21 1_555 1_555
C22 N2 1_555 1_555
H19 C22 1_555 1_555
H20 C22 1_555 1_555
C23 C22 1_555 1_555
C24 C23 1_555 1_555
H21 C24 1_555 1_555
C25 C24 1_555 1_555
C26 C25 1_555 1_555
H22 C26 1_555 1_555
C27 C26 1_555 1_555
H23 C27 1_555 1_555
C28 C27 1_555 1_555
H24 C28 1_555 1_555
C29 C28 1_555 1_555
H25 C29 1_555 1_555
C30 C25 1_555 1_555
C31 C30 1_555 1_555
H26 C31 1_555 1_555
C32 C23 1_555 1_555
H27 C32 1_555 1_555
C3 C4 1_555 1_555
C5 C10 1_555 1_555
C9 C10 1_555 1_555
C18 C19 1_555 1_555
C20 C21 1_555 1_555
C29 C30 1_555 1_555
C31 C32 1_555 1_555

#END
