
#######################################################################
#
#                 Cambridge Crystallographic Data Centre
#                                CCDC 
#
#######################################################################
#
# If this CIF has been generated from an entry in the Cambridge 
# Structural Database, then it will include bibliographic, chemical, 
# crystal, experimental, refinement or atomic coordinate data resulting 
# from the CCDC's data processing and validation procedures.
#
#######################################################################

data_IYIXAP
_chemical_formula_moiety         'C19 H28 O3'
_chemical_name_systematic        
1-Isopropyl-6-methoxy-3a,8-dimethyl-2,3,3a,4,5,9b-hexahydro-1H-cyclopenta(a)naphthalene-4,5-diol
_symmetry_cell_setting           triclinic
_symmetry_space_group_name_H-M   'P -1'
_symmetry_Int_Tables_number      2
_space_group_name_Hall           '-P 1'
loop_
_symmetry_equiv_pos_site_id
_symmetry_equiv_pos_as_xyz
1 x,y,z
2 -x,-y,-z
_cell_length_a                   10.4105(15)
_cell_length_b                   11.5629(17)
_cell_length_c                   14.918(2)
_cell_angle_alpha                80.133(3)
_cell_angle_beta                 75.273(3)
_cell_angle_gamma                81.329(3)
_cell_volume                     1700.22
_cell_formula_units_Z            4
loop_
_atom_site_label
_atom_site_type_symbol
_atom_site_fract_x
_atom_site_fract_y
_atom_site_fract_z
O1 O -0.12276(18) -0.12296(15) 0.36620(12)
O2 O 0.05457(17) 0.02103(16) 0.39291(13)
O3 O -0.07374(17) 0.23232(15) 0.49659(12)
C1 C 0.0471(3) 0.1597(3) 0.10813(18)
C2 C 0.1466(3) 0.0805(3) 0.15754(19)
C3 C 0.0755(3) -0.0284(3) 0.19959(19)
C4 C -0.0760(3) 0.0176(2) 0.22591(18)
C5 C -0.1363(3) 0.0006(2) 0.33114(17)
C6 C -0.0788(3) 0.0687(2) 0.38703(18)
C7 C -0.0838(2) 0.1969(2) 0.34804(17)
C8 C -0.0897(2) 0.2794(2) 0.40816(18)
C9 C -0.1130(2) 0.3990(2) 0.37938(18)
C10 C -0.1391(3) 0.4395(2) 0.29182(19)
C11 C -0.1319(3) 0.3577(2) 0.23253(18)
C12 C -0.1005(2) 0.2364(2) 0.25764(18)
C13 C -0.0858(2) 0.1523(2) 0.18640(17)
C14 C 0.0842(3) 0.2795(3) 0.05636(19)
C15 C -0.0096(3) 0.3318(3) -0.0076(2)
C16 C 0.2279(3) 0.2720(3) -0.0018(2)
C17 C -0.1546(3) -0.0479(3) 0.1802(2)
C18 C -0.0910(3) 0.3137(2) 0.56197(19)
C19 C -0.1774(3) 0.5692(3) 0.2643(2)
H1 H -0.1505 -0.1324 0.4247
H2 H 0.0551 -0.0502 0.4171
H3 H 0.0366 0.1149 0.0592
H4 H 0.2319 0.0605 0.1126
H5 H 0.1648 0.1188 0.2068
H6 H 0.1061 -0.0686 0.2559
H7 H 0.0928 -0.0846 0.1536
H8 H -0.2340 0.0280 0.3410
H9 H -0.1362 0.0621 0.4522
H10 H -0.1112 0.4539 0.4196
H11 H -0.1490 0.3850 0.1724
H12 H -0.1632 0.1722 0.1562
H13 H 0.0750 0.3339 0.1036
H14 H -0.1021 0.3377 0.0295
H15 H -0.0001 0.2805 -0.0554
H16 H 0.0131 0.4106 -0.0379
H17 H 0.2888 0.2390 0.0389
H18 H 0.2493 0.3513 -0.0319
H19 H 0.2380 0.2210 -0.0499
H20 H -0.2498 -0.0186 0.1971
H21 H -0.1423 -0.1327 0.2022
H22 H -0.1219 -0.0340 0.1120
H23 H -0.0771 0.2706 0.6219
H24 H -0.1817 0.3551 0.5711
H25 H -0.0259 0.3712 0.5377
H26 H -0.2136 0.5803 0.2085
H27 H -0.0982 0.6114 0.2507
H28 H -0.2452 0.6003 0.3158
O4 O 0.41186(18) 0.14616(18) 0.55736(12)
O5 O 0.23244(16) 0.13749(16) 0.44190(12)
O6 O 0.37267(19) -0.07112(17) 0.30881(13)
C20 C 0.3803(3) 0.4337(2) 0.28819(19)
C21 C 0.2532(2) 0.4035(2) 0.36012(19)
C22 C 0.3019(2) 0.3690(2) 0.44998(18)
C23 C 0.4435(2) 0.3013(2) 0.42158(18)
C24 C 0.4488(3) 0.1691(2) 0.45722(17)
C25 C 0.3733(2) 0.1006(2) 0.41327(18)
C26 C 0.4275(2) 0.1182(2) 0.30838(17)
C27 C 0.4330(3) 0.0254(2) 0.25797(19)
C28 C 0.4956(3) 0.0325(3) 0.1641(2)
C29 C 0.5556(3) 0.1319(3) 0.11821(18)
C30 C 0.5499(3) 0.2238(2) 0.16810(18)
C31 C 0.4844(2) 0.2197(2) 0.26266(17)
C32 C 0.4823(2) 0.3252(2) 0.31186(17)
C33 C 0.3725(3) 0.4715(3) 0.1865(2)
C34 C 0.4936(3) 0.5350(3) 0.1314(2)
C35 C 0.2443(3) 0.5528(3) 0.1788(2)
C36 C 0.5433(3) 0.3517(3) 0.4602(2)
C37 C 0.4063(3) -0.1791(3) 0.2711(2)
C38 C 0.6280(3) 0.1400(3) 0.0160(2)
H29 H 0.3291 0.1637 0.5760
H30 H 0.1906 0.1037 0.4145
H31 H 0.4082 0.5027 0.3079
H32 H 0.2166 0.3370 0.3449
H33 H 0.1841 0.4726 0.3646
H34 H 0.2412 0.3178 0.4965
H35 H 0.3060 0.4401 0.4774
H36 H 0.5449 0.1366 0.4387
H37 H 0.3899 0.0147 0.4370
H38 H 0.4974 -0.0311 0.1309
H39 H 0.5918 0.2920 0.1370
H40 H 0.5737 0.3515 0.2922
H41 H 0.3732 0.3992 0.1579
H42 H 0.5759 0.4827 0.1353
H43 H 0.4935 0.6069 0.1579
H44 H 0.4889 0.5558 0.0657
H45 H 0.1666 0.5122 0.2133
H46 H 0.2412 0.5734 0.1128
H47 H 0.2430 0.6250 0.2054
H48 H 0.5192 0.3372 0.5287
H49 H 0.5409 0.4369 0.4392
H50 H 0.6335 0.3132 0.4372
H51 H 0.3567 -0.2401 0.3140
H52 H 0.5025 -0.2032 0.2630
H53 H 0.3830 -0.1687 0.2104
H54 H 0.7039 0.1856 0.0047
H55 H 0.5665 0.1791 -0.0228
H56 H 0.6604 0.0603 0.0000
loop_
_geom_bond_atom_site_label_1
_geom_bond_atom_site_label_2
_geom_bond_site_symmetry_1
_geom_bond_site_symmetry_2
O1 C5 1_555 1_555
O2 C6 1_555 1_555
O3 C8 1_555 1_555
C1 C2 1_555 1_555
C2 C3 1_555 1_555
C3 C4 1_555 1_555
C4 C5 1_555 1_555
C5 C6 1_555 1_555
C6 C7 1_555 1_555
C7 C8 1_555 1_555
C8 C9 1_555 1_555
C9 C10 1_555 1_555
C10 C11 1_555 1_555
C11 C12 1_555 1_555
C12 C7 1_555 1_555
C13 C1 1_555 1_555
C14 C1 1_555 1_555
C15 C14 1_555 1_555
C16 C14 1_555 1_555
C17 C4 1_555 1_555
C18 O3 1_555 1_555
C19 C10 1_555 1_555
H1 O1 1_555 1_555
H2 O2 1_555 1_555
H3 C1 1_555 1_555
H4 C2 1_555 1_555
H5 C2 1_555 1_555
H6 C3 1_555 1_555
H7 C3 1_555 1_555
H8 C5 1_555 1_555
H9 C6 1_555 1_555
H10 C9 1_555 1_555
H11 C11 1_555 1_555
H12 C13 1_555 1_555
H13 C14 1_555 1_555
H14 C15 1_555 1_555
H15 C15 1_555 1_555
H16 C15 1_555 1_555
H17 C16 1_555 1_555
H18 C16 1_555 1_555
H19 C16 1_555 1_555
H20 C17 1_555 1_555
H21 C17 1_555 1_555
H22 C17 1_555 1_555
H23 C18 1_555 1_555
H24 C18 1_555 1_555
H25 C18 1_555 1_555
H26 C19 1_555 1_555
H27 C19 1_555 1_555
H28 C19 1_555 1_555
O4 C24 1_555 1_555
O5 C25 1_555 1_555
O6 C27 1_555 1_555
C20 C21 1_555 1_555
C21 C22 1_555 1_555
C22 C23 1_555 1_555
C23 C24 1_555 1_555
C24 C25 1_555 1_555
C25 C26 1_555 1_555
C26 C27 1_555 1_555
C27 C28 1_555 1_555
C28 C29 1_555 1_555
C29 C30 1_555 1_555
C30 C31 1_555 1_555
C31 C26 1_555 1_555
C32 C20 1_555 1_555
C33 C20 1_555 1_555
C34 C33 1_555 1_555
C35 C33 1_555 1_555
C36 C23 1_555 1_555
C37 O6 1_555 1_555
C38 C29 1_555 1_555
H29 O4 1_555 1_555
H30 O5 1_555 1_555
H31 C20 1_555 1_555
H32 C21 1_555 1_555
H33 C21 1_555 1_555
H34 C22 1_555 1_555
H35 C22 1_555 1_555
H36 C24 1_555 1_555
H37 C25 1_555 1_555
H38 C28 1_555 1_555
H39 C30 1_555 1_555
H40 C32 1_555 1_555
H41 C33 1_555 1_555
H42 C34 1_555 1_555
H43 C34 1_555 1_555
H44 C34 1_555 1_555
H45 C35 1_555 1_555
H46 C35 1_555 1_555
H47 C35 1_555 1_555
H48 C36 1_555 1_555
H49 C36 1_555 1_555
H50 C36 1_555 1_555
H51 C37 1_555 1_555
H52 C37 1_555 1_555
H53 C37 1_555 1_555
H54 C38 1_555 1_555
H55 C38 1_555 1_555
H56 C38 1_555 1_555
C4 C13 1_555 1_555
C12 C13 1_555 1_555
C23 C32 1_555 1_555
C31 C32 1_555 1_555

#END
