
#######################################################################
#
#                 Cambridge Crystallographic Data Centre
#                                CCDC 
#
#######################################################################
#
# If this CIF has been generated from an entry in the Cambridge 
# Structural Database, then it will include bibliographic, chemical, 
# crystal, experimental, refinement or atomic coordinate data resulting 
# from the CCDC's data processing and validation procedures.
#
#######################################################################

data_IYIXAQ
_chemical_compound_source        'Flueggea virosa'
_chemical_name_common            'flueggines A'
_chemical_formula_moiety         'C24 H26 N2 O6'
_chemical_name_systematic        
10-(6-Hydroxy-2-oxo-6,7-dihydro-1-benzofuran-7a(2H)-yl)-2,12-dioxa-11,15-diazahexacyclo[12.5.1.0^1,5^.0^6,13^.0^7,11^.0^15,19^]icos-4-en-3-one
_symmetry_cell_setting           orthorhombic
_symmetry_space_group_name_H-M   'P 21 21 21'
_symmetry_Int_Tables_number      19
_space_group_name_Hall           'P 2ac 2ab'
loop_
_symmetry_equiv_pos_site_id
_symmetry_equiv_pos_as_xyz
1 x,y,z
2 1/2-x,-y,1/2+z
3 -x,1/2+y,1/2-z
4 1/2+x,1/2-y,-z
_cell_length_a                   5.91240(10)
_cell_length_b                   11.5275(2)
_cell_length_c                   30.0634(4)
_cell_angle_alpha                90
_cell_angle_beta                 90
_cell_angle_gamma                90
_cell_volume                     2048.98
_exptl_crystal_colour            colorless
_exptl_crystal_description       plate
_cell_formula_units_Z            4
loop_
_atom_site_label
_atom_site_type_symbol
_atom_site_fract_x
_atom_site_fract_y
_atom_site_fract_z
O1 O 0.83692(18) 0.67540(9) 0.37721(4)
O2 O 0.43601(18) 0.19440(8) 0.35758(3)
O3 O 0.6784(2) -0.03817(10) 0.53748(4)
O4 O 0.41132(19) -0.03018(9) 0.31927(3)
H1 H 0.4182 0.0363 0.3289
N1 N 0.13458(19) 0.41367(10) 0.29075(4)
C1 C 0.2366(2) 0.52671(11) 0.30517(4)
H2 H 0.1412 0.5638 0.3277
C2 C 0.2503(3) 0.60260(12) 0.26351(5)
H3 H 0.2268 0.6838 0.2706
H4 H 0.3948 0.5937 0.2486
C3 C 0.0568(3) 0.55455(13) 0.23526(5)
H5 H -0.0884 0.5834 0.2454
H6 H 0.0763 0.5741 0.2041
C4 C 0.0777(3) 0.42491(13) 0.24282(5)
H7 H -0.0635 0.3858 0.2361
H8 H 0.1964 0.3922 0.2244
C5 C 0.3047(2) 0.32303(12) 0.29979(4)
H9 H 0.2972 0.2614 0.2774
C6 C 0.5326(2) 0.38527(11) 0.29799(4)
H10 H 0.5758 0.4057 0.2679
H11 H 0.6523 0.3406 0.3119
C7 C 0.4661(2) 0.49140(11) 0.32550(4)
O5 O 0.62804(17) 0.58394(8) 0.32592(3)
C8 C 0.7000(2) 0.60128(12) 0.36875(5)
C9 C 0.5838(2) 0.51879(12) 0.39796(5)
H12 H 0.6049 0.5118 0.4285
C10 C 0.4434(2) 0.45585(11) 0.37341(4)
C11 C 0.2717(2) 0.36460(11) 0.38398(4)
H13 H 0.1233 0.4012 0.3877
C12 C 0.2584(2) 0.27477(11) 0.34638(4)
H14 H 0.1115 0.2354 0.3470
N2 N 0.4481(2) 0.18518(9) 0.40636(4)
C13 C 0.3247(2) 0.07946(11) 0.42042(4)
H15 H 0.2221 0.0559 0.3965
C14 C 0.1840(3) 0.11682(12) 0.46065(4)
H16 H 0.0533 0.0670 0.4646
H17 H 0.2736 0.1162 0.4877
C15 C 0.1132(3) 0.24007(13) 0.44811(5)
H18 H 0.0776 0.2854 0.4744
H19 H -0.0171 0.2394 0.4285
C16 C 0.3218(2) 0.28824(12) 0.42435(4)
H20 H 0.4171 0.3305 0.4455
C17 C 0.4955(3) -0.10928(12) 0.35211(4)
H21 H 0.5970 -0.1628 0.3365
C18 C 0.6372(2) -0.05073(12) 0.38877(5)
H22 H 0.7579 -0.1026 0.3978
H23 H 0.7057 0.0192 0.3769
C19 C 0.4947(2) -0.01982(11) 0.42917(4)
O6 O 0.63623(16) 0.01465(8) 0.46621(3)
C20 C 0.5875(3) -0.05446(12) 0.50224(5)
C21 C 0.4259(3) -0.14308(12) 0.48831(5)
H24 H 0.3661 -0.2009 0.5064
C22 C 0.3783(2) -0.12748(12) 0.44532(5)
C23 C 0.2530(3) -0.19428(12) 0.41280(5)
H25 H 0.1397 -0.2452 0.4217
C24 C 0.3035(3) -0.18129(12) 0.36987(5)
H26 H 0.2129 -0.2197 0.3493
loop_
_geom_bond_atom_site_label_1
_geom_bond_atom_site_label_2
_geom_bond_site_symmetry_1
_geom_bond_site_symmetry_2
O1 C8 1_555 1_555
O2 C12 1_555 1_555
O3 C20 1_555 1_555
O4 H1 1_555 1_555
N1 C1 1_555 1_555
C1 H2 1_555 1_555
C2 C1 1_555 1_555
H3 C2 1_555 1_555
H4 C2 1_555 1_555
C3 C2 1_555 1_555
H5 C3 1_555 1_555
H6 C3 1_555 1_555
C4 N1 1_555 1_555
H7 C4 1_555 1_555
H8 C4 1_555 1_555
C5 N1 1_555 1_555
H9 C5 1_555 1_555
C6 C5 1_555 1_555
H10 C6 1_555 1_555
H11 C6 1_555 1_555
C7 C1 1_555 1_555
O5 C7 1_555 1_555
C8 O5 1_555 1_555
C9 C8 1_555 1_555
H12 C9 1_555 1_555
C10 C7 1_555 1_555
C11 C10 1_555 1_555
H13 C11 1_555 1_555
C12 C5 1_555 1_555
H14 C12 1_555 1_555
N2 O2 1_555 1_555
C13 N2 1_555 1_555
H15 C13 1_555 1_555
C14 C13 1_555 1_555
H16 C14 1_555 1_555
H17 C14 1_555 1_555
C15 C14 1_555 1_555
H18 C15 1_555 1_555
H19 C15 1_555 1_555
C16 C11 1_555 1_555
H20 C16 1_555 1_555
C17 O4 1_555 1_555
H21 C17 1_555 1_555
C18 C17 1_555 1_555
H22 C18 1_555 1_555
H23 C18 1_555 1_555
C19 C13 1_555 1_555
O6 C19 1_555 1_555
C20 O6 1_555 1_555
C21 C20 1_555 1_555
H24 C21 1_555 1_555
C22 C19 1_555 1_555
C23 C22 1_555 1_555
H25 C23 1_555 1_555
C24 C17 1_555 1_555
H26 C24 1_555 1_555
C3 C4 1_555 1_555
C6 C7 1_555 1_555
C9 C10 1_555 1_555
C11 C12 1_555 1_555
N2 C16 1_555 1_555
C15 C16 1_555 1_555
C18 C19 1_555 1_555
C21 C22 1_555 1_555
C23 C24 1_555 1_555

#END
