
#######################################################################
#
#                 Cambridge Crystallographic Data Centre
#                                CCDC 
#
#######################################################################
#
# If this CIF has been generated from an entry in the Cambridge 
# Structural Database, then it will include bibliographic, chemical, 
# crystal, experimental, refinement or atomic coordinate data resulting 
# from the CCDC's data processing and validation procedures.
#
#######################################################################

data_IYIYAR
_chemical_formula_moiety         'C11 H11 N5 O6,0.5(C1 H4 O1)'
_chemical_name_systematic        
'3-((2,4-Dinitrophenyl)amino)-2-oxopyrrolidine-1-carboxamide methanol solvate'
_symmetry_cell_setting           monoclinic
_symmetry_space_group_name_H-M   'P 21'
_symmetry_Int_Tables_number      4
_space_group_name_Hall           'P 2yb'
loop_
_symmetry_equiv_pos_site_id
_symmetry_equiv_pos_as_xyz
1 x,y,z
2 -x,1/2+y,-z
_cell_length_a                   9.7813(5)
_cell_length_b                   7.8382(4)
_cell_length_c                   18.1030(10)
_cell_angle_alpha                90
_cell_angle_beta                 90.163(4)
_cell_angle_gamma                90
_cell_volume                     1387.91
_exptl_crystal_colour            yellow
_exptl_crystal_description       needle
_cell_formula_units_Z            4
loop_
_atom_site_label
_atom_site_type_symbol
_atom_site_fract_x
_atom_site_fract_y
_atom_site_fract_z
H1 H 0.245(6) 0.891(10) 0.139(3)
C23 C 0.1454(6) 1.0292(7) 0.0851(3)
H21 H 0.1013 1.1389 0.0954
H22 H 0.0758 0.9396 0.0821
H23 H 0.1944 1.0361 0.0381
O13 O 0.2391(4) 0.9902(5) 0.1426(2)
C1 C 0.8725(5) 0.5749(7) 0.5507(3)
C2 C 0.8762(5) 0.6340(6) 0.4722(3)
H2 H 0.9658 0.6921 0.4634
C3 C 0.7630(5) 0.7688(6) 0.4701(3)
H3 H 0.7811 0.8559 0.4317
H4 H 0.6727 0.7160 0.4606
C4 C 0.7698(5) 0.8453(7) 0.5466(3)
H5 H 0.8338 0.9431 0.5482
H6 H 0.6784 0.8839 0.5631
C5 C 0.7934(5) 0.7047(7) 0.6689(3)
C6 C 0.8895(5) 0.4969(6) 0.3493(3)
C7 C 0.8854(5) 0.3541(6) 0.3011(3)
C8 C 0.9102(4) 0.3685(6) 0.2268(3)
H7 H 0.9107 0.2699 0.1963
C9 C 0.9345(5) 0.5262(6) 0.1968(2)
C10 C 0.9385(5) 0.6713(7) 0.2407(3)
H8 H 0.9550 0.7799 0.2192
C11 C 0.9188(5) 0.6568(7) 0.3149(3)
H9 H 0.9248 0.7562 0.3447
N1 N 0.8195(4) 0.7040(5) 0.5923(2)
N2 N 0.8308(5) 0.5657(6) 0.7054(3)
N3 N 0.8655(5) 0.4916(6) 0.4222(2)
N4 N 0.8507(4) 0.1852(5) 0.3281(3)
N5 N 0.9460(4) 0.5434(6) 0.1169(2)
O1 O 0.7405(4) 0.8297(5) 0.69607(19)
O2 O 0.9104(4) 0.4353(5) 0.57323(19)
O3 O 0.8271(4) 0.1648(4) 0.3944(2)
O4 O 0.8444(4) 0.0675(4) 0.2835(2)
O5 O 0.9713(4) 0.4140(4) 0.08067(19)
O6 O 0.9299(4) 0.6847(4) 0.08936(18)
H10 H 0.807(6) 0.552(8) 0.752(3)
H11 H 0.853(6) 0.481(8) 0.687(3)
H12 H 0.844(5) 0.406(8) 0.436(3)
C12 C 0.6245(5) 0.8772(7) 0.0023(3)
C13 C 0.6114(5) 0.9403(6) 0.0809(3)
H13 H 0.5236 1.0047 0.0859
C14 C 0.7312(5) 1.0650(6) 0.0888(3)
H14 H 0.7110 1.1549 0.1256
H15 H 0.8162 1.0050 0.1034
C15 C 0.7423(5) 1.1388(7) 0.0114(3)
H16 H 0.6837 1.2411 0.0060
H17 H 0.8379 1.1702 0.0000
C16 C 0.7176(5) 1.0079(7) -0.1126(3)
C17 C 0.5670(5) 0.7973(6) 0.2006(3)
C18 C 0.5517(5) 0.6488(6) 0.2451(3)
C19 C 0.5022(5) 0.6576(7) 0.3174(3)
H18 H 0.4881 0.5568 0.3454
C20 C 0.4742(5) 0.8159(7) 0.3470(3)
C21 C 0.4954(5) 0.9646(7) 0.3067(3)
H19 H 0.4784 1.0725 0.3287
C22 C 0.5404(5) 0.9558(6) 0.2355(3)
H20 H 0.5544 1.0585 0.2087
N6 N 0.6953(4) 1.0022(5) -0.0362(2)
N7 N 0.6900(5) 0.8679(6) -0.1507(3)
N8 N 0.6088(4) 0.7935(5) 0.1302(2)
N9 N 0.5848(4) 0.4807(5) 0.2181(2)
N10 N 0.4213(4) 0.8258(6) 0.4218(2)
O7 O 0.7612(4) 1.1403(4) -0.14018(19)
O8 O 0.5841(3) 0.7426(4) -0.02090(19)
O9 O 0.6203(3) 0.4632(4) 0.1529(2)
O10 O 0.5796(3) 0.3601(4) 0.2611(2)
O11 O 0.3924(4) 0.6934(5) 0.4545(2)
O12 O 0.4110(4) 0.9678(5) 0.45005(19)
H24 H 0.669(6) 0.780(9) -0.130(3)
H25 H 0.715(6) 0.874(8) -0.201(3)
H26 H 0.611(5) 0.692(7) 0.110(3)
loop_
_geom_bond_atom_site_label_1
_geom_bond_atom_site_label_2
_geom_bond_site_symmetry_1
_geom_bond_site_symmetry_2
H1 O13 1_555 1_555
C1 C2 1_555 1_555
C2 H2 1_555 1_555
C3 C2 1_555 1_555
H3 C3 1_555 1_555
H4 C3 1_555 1_555
C4 C3 1_555 1_555
H5 C4 1_555 1_555
H6 C4 1_555 1_555
C5 N1 1_555 1_555
C6 C7 1_555 1_555
C7 C8 1_555 1_555
C8 H7 1_555 1_555
C9 C8 1_555 1_555
C10 C9 1_555 1_555
H8 C10 1_555 1_555
C11 C6 1_555 1_555
H9 C11 1_555 1_555
N1 C1 1_555 1_555
N2 C5 1_555 1_555
N3 C2 1_555 1_555
N4 C7 1_555 1_555
N5 C9 1_555 1_555
O1 C5 1_555 1_555
O2 C1 1_555 1_555
O3 N4 1_555 1_555
O4 N4 1_555 1_555
O5 N5 1_555 1_555
O6 N5 1_555 1_555
H10 N2 1_555 1_555
H11 N2 1_555 1_555
H12 N3 1_555 1_555
C12 C13 1_555 1_555
C13 H13 1_555 1_555
C14 C13 1_555 1_555
H14 C14 1_555 1_555
H15 C14 1_555 1_555
C15 C14 1_555 1_555
H16 C15 1_555 1_555
H17 C15 1_555 1_555
C16 N6 1_555 1_555
C17 C18 1_555 1_555
C18 C19 1_555 1_555
C19 H18 1_555 1_555
C20 C19 1_555 1_555
C21 C20 1_555 1_555
H19 C21 1_555 1_555
C22 C17 1_555 1_555
H20 C22 1_555 1_555
C23 H21 1_555 1_555
H22 C23 1_555 1_555
H23 C23 1_555 1_555
N6 C12 1_555 1_555
N7 C16 1_555 1_555
N8 C13 1_555 1_555
N9 C18 1_555 1_555
N10 C20 1_555 1_555
O7 C16 1_555 1_555
O8 C12 1_555 1_555
O9 N9 1_555 1_555
O10 N9 1_555 1_555
O11 N10 1_555 1_555
O12 N10 1_555 1_555
O13 C23 1_555 1_555
H24 N7 1_555 1_555
H25 N7 1_555 1_555
H26 N8 1_555 1_555
C4 N1 1_555 1_555
C6 N3 1_555 1_555
C10 C11 1_555 1_555
C15 N6 1_555 1_555
C17 N8 1_555 1_555
C21 C22 1_555 1_555

#END
