
#######################################################################
#
#                 Cambridge Crystallographic Data Centre
#                                CCDC 
#
#######################################################################
#
# If this CIF has been generated from an entry in the Cambridge 
# Structural Database, then it will include bibliographic, chemical, 
# crystal, experimental, refinement or atomic coordinate data resulting 
# from the CCDC's data processing and validation procedures.
#
#######################################################################

data_IYIYUM
_chemical_formula_moiety         'C29 H22 N2 O1'
_chemical_name_systematic        
1,3-bis(2-naphthylmethyl)-1,3-dihydro-2H-benzimidazol-2-one
_chemical_properties_biological  'anti-tumour activity'
_symmetry_cell_setting           monoclinic
_symmetry_space_group_name_H-M   'C 2/c'
_symmetry_Int_Tables_number      15
_space_group_name_Hall           '-C 2yn'
loop_
_symmetry_equiv_pos_site_id
_symmetry_equiv_pos_as_xyz
1 x,y,z
2 -x,y,1/2-z
3 1/2+x,1/2+y,z
4 1/2-x,1/2+y,1/2-z
5 -x,-y,-z
6 x,-y,1/2+z
7 1/2-x,1/2-y,-z
8 1/2+x,1/2-y,1/2+z
_cell_length_a                   20.1385(6)
_cell_length_b                   7.0851(3)
_cell_length_c                   29.7407(11)
_cell_angle_alpha                90
_cell_angle_beta                 104.9380(10)
_cell_angle_gamma                90
_cell_volume                     4100.09
_exptl_crystal_colour            colorless
_exptl_crystal_description       plate
_chemical_melting_point          '147-150 deg.C'
_cell_formula_units_Z            8
loop_
_atom_site_label
_atom_site_type_symbol
_atom_site_fract_x
_atom_site_fract_y
_atom_site_fract_z
O1 O 0.19872(10) 0.1432(3) 0.04854(7)
N1 N 0.10616(12) 0.2263(3) -0.01337(8)
N2 N 0.08634(12) 0.1734(3) 0.05517(8)
C1 C 0.13730(15) 0.1770(4) 0.03197(10)
C2 C 0.03598(14) 0.2512(4) -0.01879(10)
C3 C -0.01625(15) 0.2986(4) -0.05713(10)
H1 H -0.0077 0.3184 -0.0867
C4 C -0.08194(15) 0.3164(4) -0.05074(11)
H2 H -0.1190 0.3497 -0.0764
C5 C -0.09446(15) 0.2864(4) -0.00761(11)
H3 H -0.1399 0.2997 -0.0043
C6 C -0.04145(15) 0.2371(4) 0.03115(10)
H4 H -0.0499 0.2161 0.0607
C7 C 0.02339(14) 0.2201(4) 0.02467(10)
C8 C 0.14338(16) 0.2543(4) -0.04894(11)
H5 H 0.1891 0.3084 -0.0342
H6 H 0.1181 0.3468 -0.0720
C9 C 0.15283(15) 0.0745(4) -0.07393(10)
C10 C 0.11328(16) 0.0339(5) -0.11783(10)
H7 H 0.0798 0.1227 -0.1334
C11 C 0.12118(16) -0.1381(5) -0.14064(10)
C12 C 0.08237(19) -0.1831(5) -0.18615(11)
H8 H 0.0483 -0.0973 -0.2024
C13 C 0.0929(2) -0.3472(6) -0.20722(12)
H9 H 0.0669 -0.3729 -0.2381
C14 C 0.14183(18) -0.4784(5) -0.18358(11)
H10 H 0.1487 -0.5927 -0.1985
C15 C 0.17949(17) -0.4423(5) -0.13930(11)
H11 H 0.2118 -0.5330 -0.1233
C16 C 0.17093(15) -0.2702(4) -0.11676(10)
C17 C 0.21194(15) -0.2247(4) -0.07177(11)
H12 H 0.2458 -0.3113 -0.0557
C18 C 0.20320(15) -0.0578(4) -0.05140(10)
H13 H 0.2316 -0.0293 -0.0213
C19 C 0.09950(16) 0.1269(4) 0.10461(10)
H14 H 0.1360 0.0298 0.1126
H15 H 0.0573 0.0730 0.1107
C20 C 0.12126(19) 0.2970(4) 0.13511(10)
C21 C 0.07852(19) 0.3985(5) 0.15284(11)
H16 H 0.0325 0.3560 0.1483
C22 C 0.09964(16) 0.5742(5) 0.17927(10)
C23 C 0.0542(2) 0.6830(6) 0.19450(13)
H17 H 0.0075 0.6465 0.1895
C24 C 0.0778(2) 0.8438(6) 0.21681(13)
H18 H 0.0462 0.9193 0.2277
C25 C 0.14596(19) 0.9088(5) 0.22530(11)
H19 H 0.1591 1.0249 0.2410
C26 C 0.1924(2) 0.8034(6) 0.21072(11)
H20 H 0.2389 0.8428 0.2164
C27 C 0.16868(17) 0.6233(5) 0.18533(11)
C28 C 0.21535(18) 0.5157(5) 0.16908(12)
H21 H 0.2624 0.5513 0.1756
C29 C 0.19219(19) 0.3583(5) 0.14361(12)
H22 H 0.2232 0.2869 0.1311
loop_
_geom_bond_atom_site_label_1
_geom_bond_atom_site_label_2
_geom_bond_site_symmetry_1
_geom_bond_site_symmetry_2
O1 C1 1_555 1_555
N1 C1 1_555 1_555
N2 C1 1_555 1_555
C2 N1 1_555 1_555
C3 C2 1_555 1_555
H1 C3 1_555 1_555
C4 C3 1_555 1_555
H2 C4 1_555 1_555
C5 C4 1_555 1_555
H3 C5 1_555 1_555
C6 C5 1_555 1_555
H4 C6 1_555 1_555
C7 N2 1_555 1_555
C8 N1 1_555 1_555
H5 C8 1_555 1_555
H6 C8 1_555 1_555
C9 C8 1_555 1_555
C10 C9 1_555 1_555
H7 C10 1_555 1_555
C11 C10 1_555 1_555
C12 C11 1_555 1_555
H8 C12 1_555 1_555
C13 C12 1_555 1_555
H9 C13 1_555 1_555
C14 C13 1_555 1_555
H10 C14 1_555 1_555
C15 C14 1_555 1_555
H11 C15 1_555 1_555
C16 C11 1_555 1_555
C17 C16 1_555 1_555
H12 C17 1_555 1_555
C18 C9 1_555 1_555
H13 C18 1_555 1_555
C19 N2 1_555 1_555
H14 C19 1_555 1_555
H15 C19 1_555 1_555
C20 C19 1_555 1_555
C21 C20 1_555 1_555
H16 C21 1_555 1_555
C22 C21 1_555 1_555
C23 C22 1_555 1_555
H17 C23 1_555 1_555
C24 C23 1_555 1_555
H18 C24 1_555 1_555
C25 C24 1_555 1_555
H19 C25 1_555 1_555
C26 C25 1_555 1_555
H20 C26 1_555 1_555
C27 C22 1_555 1_555
C28 C27 1_555 1_555
H21 C28 1_555 1_555
C29 C20 1_555 1_555
H22 C29 1_555 1_555
C2 C7 1_555 1_555
C6 C7 1_555 1_555
C15 C16 1_555 1_555
C17 C18 1_555 1_555
C26 C27 1_555 1_555
C28 C29 1_555 1_555

#END
