
#######################################################################
#
#                 Cambridge Crystallographic Data Centre
#                                CCDC 
#
#######################################################################
#
# If this CIF has been generated from an entry in the Cambridge 
# Structural Database, then it will include bibliographic, chemical, 
# crystal, experimental, refinement or atomic coordinate data resulting 
# from the CCDC's data processing and validation procedures.
#
#######################################################################

data_IYIZOG
_chemical_formula_moiety         'C42 H34 O8,2(C1 H1 Cl3)'
_chemical_name_systematic        
'9,10-bis((3,5-bis(ethoxycarbonyl)phenyl)ethynyl)anthracene chloroform solvate'
_symmetry_cell_setting           triclinic
_symmetry_space_group_name_H-M   'P -1'
_symmetry_Int_Tables_number      2
_space_group_name_Hall           '-P 1'
loop_
_symmetry_equiv_pos_site_id
_symmetry_equiv_pos_as_xyz
1 x,y,z
2 -x,-y,-z
_cell_length_a                   9.0622(6)
_cell_length_b                   10.4386(6)
_cell_length_c                   13.4203(13)
_cell_angle_alpha                96.907(7)
_cell_angle_beta                 106.550(7)
_cell_angle_gamma                114.877(4)
_cell_volume                     1061.1
_exptl_crystal_colour            orange
_exptl_crystal_description       block
_cell_formula_units_Z            1
loop_
_atom_site_label
_atom_site_type_symbol
_atom_site_fract_x
_atom_site_fract_y
_atom_site_fract_z
Cl1 Cl 0.20310(13) 0.11033(12) 0.31756(9)
Cl2 Cl 0.39612(13) 0.10527(12) 0.52519(8)
Cl3 Cl 0.07239(19) -0.14421(14) 0.38885(11)
C20 C 0.2597(5) 0.0031(4) 0.3929(3)
H12 H 0.322(4) -0.037(4) 0.357(3)
C1 C 0.3730(3) -0.0097(3) 0.9041(3)
C2 C 0.4832(3) -0.0745(3) 0.8982(3)
O1 O -0.3848(2) 0.3505(2) 0.88021(16)
C3 C 0.3912(3) 0.0630(3) 1.0055(3)
C4 C 0.0767(3) 0.2404(3) 1.0287(3)
C5 C 0.0196(4) 0.4441(3) 1.2556(3)
C6 C -0.0544(4) 0.2344(4) 0.9408(3)
C7 C -0.1603(3) 0.2949(3) 0.9537(3)
O2 O 0.1501(3) 0.4437(2) 1.33322(19)
C8 C -0.2970(4) 0.2845(3) 0.8547(3)
C9 C -0.1362(4) 0.3613(3) 1.0561(3)
C10 C -0.0043(4) 0.3704(3) 1.1458(3)
O3 O -0.0682(3) 0.4963(3) 1.27368(18)
C11 C 0.1848(4) 0.1761(3) 1.0164(2)
C12 C 0.0999(4) 0.3086(3) 1.1311(3)
C13 C 0.2783(4) 0.1255(3) 1.0110(2)
O4 O -0.3218(3) 0.2288(3) 0.7647(2)
C14 C 0.2325(4) -0.0925(4) 0.7096(3)
C15 C 0.2478(4) -0.0239(4) 0.8060(3)
C16 C 0.4602(4) -0.1479(4) 0.7949(3)
C17 C 0.3403(5) -0.1565(4) 0.7038(3)
C18 C -0.5196(5) 0.3515(5) 0.7893(3)
C19 C 0.1753(10) 0.5081(9) 1.4429(4)
C21 C -0.5995(7) 0.4286(6) 0.8373(4)
C22 C 0.2711(8) 0.4685(6) 1.5184(4)
H1 H 0.2874 0.5167 1.5893
H2 H 0.3832 0.4970 1.5128
H3 H 0.2102 0.3640 1.5065
H4 H -0.204(3) 0.399(3) 1.0691(19)
H5 H 0.530(3) -0.186(3) 0.7911(19)
H6 H -0.074(3) 0.194(3) 0.874(2)
H7 H 0.181(3) 0.020(3) 0.809(2)
H8 H 0.190(3) 0.316(2) 1.1952(19)
H9 H -0.457(3) 0.408(3) 0.748(2)
H10 H -0.509(4) 0.537(4) 0.877(3)
H11 H -0.663(5) 0.363(4) 0.874(3)
H13 H 0.330(3) -0.208(3) 0.635(2)
H14 H -0.685(4) 0.434(4) 0.783(3)
H15 H 0.148(4) -0.103(3) 0.649(2)
H16 H -0.601(4) 0.246(4) 0.749(3)
H17 H 0.298(7) 0.586(6) 1.458(5)
H18 H 0.155(6) 0.587(5) 1.449(4)
C1A C 0.6270(3) 0.0097(3) 1.0959(3)
C2A C 0.5168(3) 0.0745(3) 1.1018(3)
O1A O 1.3848(2) -0.3505(2) 1.11979(16)
C3A C 0.6088(3) -0.0630(3) 0.9945(3)
C4A C 0.9233(3) -0.2404(3) 0.9713(3)
C5A C 0.9804(4) -0.4441(3) 0.7444(3)
C6A C 1.0544(4) -0.2344(4) 1.0592(3)
C7A C 1.1603(3) -0.2949(3) 1.0463(3)
O2A O 0.8499(3) -0.4437(2) 0.66678(19)
C8A C 1.2970(4) -0.2845(3) 1.1453(3)
C9A C 1.1362(4) -0.3613(3) 0.9439(3)
C10A C 1.0043(4) -0.3704(3) 0.8542(3)
O3A O 1.0682(3) -0.4963(3) 0.72632(18)
C11A C 0.8152(4) -0.1761(3) 0.9836(2)
C12A C 0.9001(4) -0.3086(3) 0.8689(3)
C13A C 0.7217(4) -0.1255(3) 0.9890(2)
O4A O 1.3218(3) -0.2288(3) 1.2353(2)
C14A C 0.7675(4) 0.0925(4) 1.2904(3)
C15A C 0.7522(4) 0.0239(4) 1.1940(3)
C16A C 0.5398(4) 0.1479(4) 1.2051(3)
C17A C 0.6597(5) 0.1565(4) 1.2962(3)
C18A C 1.5196(5) -0.3515(5) 1.2107(3)
C19A C 0.8247(10) -0.5081(9) 0.5571(4)
C21A C 1.5995(7) -0.4286(6) 1.1627(4)
C22A C 0.7289(8) -0.4685(6) 0.4816(4)
H1A H 0.7126 -0.5167 0.4107
H2A H 0.6168 -0.4970 0.4872
H3A H 0.7898 -0.3640 0.4935
H4A H 1.204(3) -0.399(3) 0.9309(19)
H5A H 0.470(3) 0.186(3) 1.2089(19)
H6A H 1.074(3) -0.194(3) 1.126(2)
H7A H 0.819(3) -0.020(3) 1.191(2)
H8A H 0.810(3) -0.316(2) 0.8048(19)
H9A H 1.457(3) -0.408(3) 1.252(2)
H10A H 1.509(4) -0.537(4) 1.123(3)
H11A H 1.663(5) -0.363(4) 1.126(3)
H13A H 0.670(3) 0.208(3) 1.365(2)
H14A H 1.685(4) -0.434(4) 1.217(3)
H15A H 0.852(4) 0.103(3) 1.351(2)
H16A H 1.601(4) -0.246(4) 1.251(3)
H17A H 0.702(7) -0.586(6) 0.542(5)
H18A H 0.845(6) -0.587(5) 0.551(4)
loop_
_geom_bond_atom_site_label_1
_geom_bond_atom_site_label_2
_geom_bond_site_symmetry_1
_geom_bond_site_symmetry_2
Cl1 C20 1_555 1_555
Cl2 C20 1_555 1_555
C1 C2 1_555 1_555
C2 C16 1_555 1_555
O1 C8 1_555 1_555
C3 C1 1_555 1_555
C4 C6 1_555 1_555
C5 O2 1_555 1_555
C6 C7 1_555 1_555
C7 C8 1_555 1_555
O2 C19 1_555 1_555
C8 O4 1_555 1_555
C9 C7 1_555 1_555
C10 C5 1_555 1_555
O3 C5 1_555 1_555
C11 C4 1_555 1_555
C12 C4 1_555 1_555
C13 C3 1_555 1_555
C14 C15 1_555 1_555
C15 C1 1_555 1_555
C16 C17 1_555 1_555
C17 C14 1_555 1_555
C18 O1 1_555 1_555
C19 C22 1_555 1_555
Cl3 C20 1_555 1_555
C20 H12 1_555 1_555
C21 C18 1_555 1_555
C22 H1 1_555 1_555
H2 C22 1_555 1_555
H3 C22 1_555 1_555
H4 C9 1_555 1_555
H5 C16 1_555 1_555
H6 C6 1_555 1_555
H7 C15 1_555 1_555
H8 C12 1_555 1_555
H9 C18 1_555 1_555
H10 C21 1_555 1_555
H11 C21 1_555 1_555
H13 C17 1_555 1_555
H14 C21 1_555 1_555
H15 C14 1_555 1_555
H16 C18 1_555 1_555
H17 C19 1_555 1_555
H18 C19 1_555 1_555
C1A C2A 1_555 1_555
C2A C3 1_555 1_555
O1A C8A 1_555 1_555
C3A C2 1_555 1_555
C4A C6A 1_555 1_555
C5A O2A 1_555 1_555
C6A C7A 1_555 1_555
C7A C8A 1_555 1_555
O2A C19A 1_555 1_555
C8A O4A 1_555 1_555
C9A C7A 1_555 1_555
C10A C5A 1_555 1_555
O3A C5A 1_555 1_555
C11A C4A 1_555 1_555
C12A C4A 1_555 1_555
C13A C3A 1_555 1_555
C14A C15A 1_555 1_555
C15A C1A 1_555 1_555
C16A C2A 1_555 1_555
C17A C14A 1_555 1_555
C18A O1A 1_555 1_555
C19A C22A 1_555 1_555
C21A C18A 1_555 1_555
C22A H1A 1_555 1_555
H2A C22A 1_555 1_555
H3A C22A 1_555 1_555
H4A C9A 1_555 1_555
H5A C16A 1_555 1_555
H6A C6A 1_555 1_555
H7A C15A 1_555 1_555
H8A C12A 1_555 1_555
H9A C18A 1_555 1_555
H10A C21A 1_555 1_555
H11A C21A 1_555 1_555
H13A C17A 1_555 1_555
H14A C21A 1_555 1_555
H15A C14A 1_555 1_555
H16A C18A 1_555 1_555
H17A C19A 1_555 1_555
H18A C19A 1_555 1_555
C9 C10 1_555 1_555
C10 C12 1_555 1_555
C11 C13 1_555 1_555
C1A C3A 1_555 1_555
C9A C10A 1_555 1_555
C10A C12A 1_555 1_555
C11A C13A 1_555 1_555
C16A C17A 1_555 1_555

#END
