
#######################################################################
#
#                 Cambridge Crystallographic Data Centre
#                                CCDC 
#
#######################################################################
#
# If this CIF has been generated from an entry in the Cambridge 
# Structural Database, then it will include bibliographic, chemical, 
# crystal, experimental, refinement or atomic coordinate data resulting 
# from the CCDC's data processing and validation procedures.
#
#######################################################################

data_IYIZIA
_chemical_formula_moiety         'C34 H18 O8,2(C4 H9 N1 O1)'
_chemical_name_systematic        
'9,10-bis((3,5-dicarboxyphenyl)ethynyl)anthracene N,N-dimethylacetamide solvate'
_symmetry_cell_setting           monoclinic
_symmetry_space_group_name_H-M   'P 21/n'
_symmetry_Int_Tables_number      14
_space_group_name_Hall           '-P 2yn'
loop_
_symmetry_equiv_pos_site_id
_symmetry_equiv_pos_as_xyz
1 x,y,z
2 1/2-x,1/2+y,1/2-z
3 -x,-y,-z
4 1/2+x,1/2-y,1/2+z
_cell_length_a                   6.6344(12)
_cell_length_b                   14.612(3)
_cell_length_c                   19.350(4)
_cell_angle_alpha                90
_cell_angle_beta                 93.758(4)
_cell_angle_gamma                90
_cell_volume                     1871.79
_exptl_crystal_colour            orange
_exptl_crystal_description       block
_cell_formula_units_Z            2
loop_
_atom_site_label
_atom_site_type_symbol
_atom_site_fract_x
_atom_site_fract_y
_atom_site_fract_z
C1 C 0.1411(8) 0.3726(4) 0.8646(3)
C2 C 0.9312(7) 0.4176(3) 1.0292(2)
O1 O -0.3458(6) 0.3205(3) 0.7804(2)
C3 C -0.0356(7) 0.3264(3) 0.8471(3)
C4 C 0.2491(7) 0.2543(4) 0.9431(3)
C5 C 1.1260(7) 0.4538(3) 1.0515(3)
C6 C 0.4685(7) 0.3865(3) 0.9335(3)
C7 C 0.6209(8) 0.4235(3) 0.9537(3)
C8 C -0.0696(8) 0.2431(4) 0.8776(3)
C9 C 0.8095(7) 0.4634(3) 0.9778(2)
O2 O 0.1755(6) 0.0837(3) 0.9984(3)
C10 C 0.0733(7) 0.2062(3) 0.9256(3)
O3 O -0.1295(6) 0.0772(3) 0.9448(3)
C11 C 1.2472(10) 0.4042(4) 1.1012(3)
C12 C 0.0386(9) 0.1167(4) 0.9591(3)
C13 C 0.2862(7) 0.3380(3) 0.9132(3)
C14 C -0.1860(9) 0.3697(4) 0.7960(3)
O4 O -0.1597(6) 0.4450(3) 0.7729(2)
C15 C 0.8707(9) 0.3353(4) 1.0608(3)
C16 C 1.1841(11) 0.3262(5) 1.1288(4)
C17 C 0.9910(10) 0.2910(5) 1.1090(3)
H1 H 0.941(8) 0.231(4) 1.131(3)
H2 H -0.187(6) 0.214(3) 0.8675(19)
H3 H 0.748(7) 0.314(3) 1.046(3)
H4 H 0.342(6) 0.227(3) 0.977(2)
H5 H 1.259(8) 0.297(4) 1.163(3)
H6 H -0.411(11) 0.357(5) 0.747(4)
H16 H 0.163(7) 0.424(3) 0.847(2)
H17 H 1.370(8) 0.431(4) 1.114(3)
H18 H -0.156(13) 0.004(7) 0.972(5)
C1B C 1.8589(8) 0.6274(4) 1.1354(3)
C2B C 1.0688(7) 0.5824(3) 0.9708(2)
O1B O 2.3458(6) 0.6795(3) 1.2196(2)
C3B C 2.0356(7) 0.6736(3) 1.1529(3)
C4B C 1.7509(7) 0.7457(4) 1.0569(3)
C5B C 0.8740(7) 0.5462(3) 0.9485(3)
C6B C 1.5315(7) 0.6135(3) 1.0665(3)
C7B C 1.3791(8) 0.5765(3) 1.0463(3)
C8B C 2.0696(8) 0.7569(4) 1.1224(3)
C9B C 1.1905(7) 0.5366(3) 1.0222(2)
O2B O 1.8245(6) 0.9163(3) 1.0016(3)
C10B C 1.9267(7) 0.7938(3) 1.0744(3)
O3B O 2.1295(6) 0.9228(3) 1.0552(3)
C11B C 0.7528(10) 0.5958(4) 0.8988(3)
C12B C 1.9614(9) 0.8833(4) 1.0409(3)
C13B C 1.7138(7) 0.6620(3) 1.0868(3)
C14B C 2.1860(9) 0.6303(4) 1.2040(3)
O4B O 2.1597(6) 0.5550(3) 1.2271(2)
C15B C 1.1293(9) 0.6647(4) 0.9392(3)
C16B C 0.8159(11) 0.6738(5) 0.8712(4)
C17B C 1.0090(10) 0.7090(5) 0.8910(3)
H1B H 1.059(8) 0.769(4) 0.869(3)
H2B H 2.187(6) 0.786(3) 1.1325(19)
H3B H 1.252(7) 0.686(3) 0.954(3)
H4B H 1.658(6) 0.773(3) 1.023(2)
H5B H 0.741(8) 0.703(4) 0.837(3)
H6B H 2.411(11) 0.643(5) 1.253(4)
H16B H 1.837(7) 0.576(3) 1.153(2)
H17B H 0.630(8) 0.569(4) 0.886(3)
H18B H 2.156(13) 0.996(7) 1.028(5)
O5 O 0.8758(8) 0.0985(4) 0.1965(3)
C18 C 0.8929(12) -0.0638(6) 0.2506(4)
H7 H 0.8728 -0.1264 0.2636
H8 H 0.8872 -0.0253 0.2906
H9 H 1.0226 -0.0576 0.2318
C19 C 0.5437(11) -0.0948(5) 0.1782(5)
H10 H 0.5723 -0.1526 0.2002
H11 H 0.5208 -0.1037 0.1291
H12 H 0.4253 -0.0685 0.1962
C20 C 0.5658(13) 0.0750(7) 0.1209(5)
H13 H 0.5895 0.1376 0.1087
H14 H 0.4366 0.0700 0.1402
H15 H 0.5677 0.0374 0.0803
N1 N 0.7146(14) -0.0333(7) 0.1918(6)
C21 C 0.7521(19) 0.0393(8) 0.1811(6)
loop_
_geom_bond_atom_site_label_1
_geom_bond_atom_site_label_2
_geom_bond_site_symmetry_1
_geom_bond_site_symmetry_2
C1 C3 1_555 1_555
C2 C5 1_555 1_555
O1 C14 1_555 1_555
C3 C8 1_555 1_555
C4 C10 1_555 1_555
C5 C11 1_555 1_555
C6 C7 1_555 1_555
C7 C9 1_555 1_555
C8 C10 1_555 1_555
C9 C2 1_555 1_555
O2 C12 1_555 1_555
C10 C12 1_555 1_555
O3 C12 1_555 1_555
C11 C16 1_555 1_555
C13 C1 1_555 1_555
C14 C3 1_555 1_555
O4 C14 1_555 1_555
C15 C2 1_555 1_555
C16 C17 1_555 1_555
C17 C15 1_555 1_555
H1 C17 1_555 1_555
H2 C8 1_555 1_555
H3 C15 1_555 1_555
H4 C4 1_555 1_555
H5 C16 1_555 1_555
H6 O1 1_555 1_555
O5 C21 1_555 1_555
C18 H7 1_555 1_555
H8 C18 1_555 1_555
H9 C18 1_555 1_555
C19 H10 1_555 1_555
H11 C19 1_555 1_555
H12 C19 1_555 1_555
C20 H13 1_555 1_555
H14 C20 1_555 1_555
H15 C20 1_555 1_555
N1 C18 1_555 1_555
C21 C20 1_555 1_555
H16 C1 1_555 1_555
H17 C11 1_555 1_555
H18 O3 1_555 1_555
C1B C3B 1_555 1_555
C2B C5B 1_555 1_555
O1B C14B 1_555 1_555
C3B C8B 1_555 1_555
C4B C10B 1_555 1_555
C5B C9 1_555 1_555
C6B C7B 1_555 1_555
C7B C9B 1_555 1_555
C8B C10B 1_555 1_555
C9B C5 1_555 1_555
O2B C12B 1_555 1_555
C10B C12B 1_555 1_555
O3B C12B 1_555 1_555
C11B C5B 1_555 1_555
C13B C1B 1_555 1_555
C14B C3B 1_555 1_555
O4B C14B 1_555 1_555
C15B C2B 1_555 1_555
C16B C11B 1_555 1_555
C17B C15B 1_555 1_555
H1B C17B 1_555 1_555
H2B C8B 1_555 1_555
H3B C15B 1_555 1_555
H4B C4B 1_555 1_555
H5B C16B 1_555 1_555
H6B O1B 1_555 1_555
H16B C1B 1_555 1_555
H17B C11B 1_555 1_555
H18B O3B 1_555 1_555
C4 C13 1_555 1_555
C6 C13 1_555 1_555
C19 N1 1_555 1_555
N1 C21 1_555 1_555
C2B C9B 1_555 1_555
C4B C13B 1_555 1_555
C6B C13B 1_555 1_555
C16B C17B 1_555 1_555

#END
