
#######################################################################
#
#                 Cambridge Crystallographic Data Centre
#                                CCDC 
#
#######################################################################
#
# If this CIF has been generated from an entry in the Cambridge 
# Structural Database, then it will include bibliographic, chemical, 
# crystal, experimental, refinement or atomic coordinate data resulting 
# from the CCDC's data processing and validation procedures.
#
#######################################################################

data_IYOWEZ
_chemical_formula_moiety         'C42 H50 N2 O14,2(F6 P1 1-),C26 H24 N2 2+'
_chemical_name_systematic        
"(2)-(2,5,8,11,14,20,23,26,29,32-Decaoxatricyclo[31.3.1.1^15,19^]octatriaconta-1(37),15(38),16,18,33,35-hexaene-17,35-diylbis(methylene) dipyridine-2-carboxylate)-(4,4'-ethene-1,2-diylbis(1-benzylpyridinium)) pseudorotaxane bis(hexafluorophosphate)"
_symmetry_cell_setting           triclinic
_symmetry_space_group_name_H-M   'P -1'
_symmetry_Int_Tables_number      2
_space_group_name_Hall           '-P 1'
loop_
_symmetry_equiv_pos_site_id
_symmetry_equiv_pos_as_xyz
1 x,y,z
2 -x,-y,-z
_cell_length_a                   10.7621(4)
_cell_length_b                   12.8281(5)
_cell_length_c                   29.8195(11)
_cell_angle_alpha                85.387(3)
_cell_angle_beta                 84.518(3)
_cell_angle_gamma                70.803(4)
_cell_volume                     3864.83
_exptl_crystal_colour            yellow
_exptl_crystal_description       block
_cell_formula_units_Z            2
loop_
_atom_site_label
_atom_site_type_symbol
_atom_site_fract_x
_atom_site_fract_y
_atom_site_fract_z
P1 P 0.05823(7) 0.21822(7) 0.03437(2)
F1 F 0.0976(2) 0.1920(2) -0.01723(6)
F2 F -0.0851(2) 0.2894(3) 0.02271(8)
F3 F 0.1080(3) 0.32220(18) 0.02707(8)
F4 F 0.02001(19) 0.2471(2) 0.08556(6)
F5 F 0.20313(18) 0.14560(15) 0.04668(7)
F6 F 0.0149(3) 0.1108(3) 0.04233(9)
P2 P 0.36308(13) 0.24012(7) 0.41844(3)
F7 F 0.2595(9) 0.1914(4) 0.4076(2)
F8 F 0.4506(9) 0.1819(2) 0.38005(12)
F9 F 0.4630(3) 0.2921(3) 0.43289(14)
F10 F 0.2721(3) 0.3002(2) 0.45985(11)
F11 F 0.4180(3) 0.13344(17) 0.45080(7)
F12 F 0.3077(4) 0.34539(19) 0.38594(9)
O1 O -0.1281(2) 0.36705(15) 0.18658(7)
O2 O -0.00286(17) 0.20315(13) 0.21517(6)
O3 O 0.00564(19) -0.18979(14) 0.28444(6)
O4 O 0.0438(2) -0.27274(16) 0.37350(6)
O5 O 0.2270(2) -0.34806(16) 0.44080(7)
O6 O 0.4316(2) -0.25639(19) 0.43425(7)
O7 O 0.5839(2) -0.19772(16) 0.36125(6)
O8 O 0.74510(18) -0.23464(14) 0.21043(6)
O9 O 0.75997(17) -0.34065(15) 0.12844(6)
O10 O 0.62589(18) -0.43771(14) 0.07441(6)
O11 O 0.34553(18) -0.34183(14) 0.07660(5)
O12 O 0.13848(18) -0.22368(14) 0.13280(5)
O13 O 0.47116(18) 0.18474(14) 0.23263(6)
O14 O 0.4770(2) 0.35229(15) 0.24653(7)
N1 N 0.1076(2) 0.30224(18) 0.26831(7)
N2 N 0.3147(2) 0.26656(18) 0.16607(7)
C1 C 0.1589(3) 0.3526(3) 0.29552(10)
H1 H 0.2243 0.3081 0.3145
C2 C 0.1214(4) 0.4666(3) 0.29740(10)
H2 H 0.1603 0.4988 0.3174
C3 C 0.0277(4) 0.5323(3) 0.27009(10)
H3 H 0.0004 0.6105 0.2709
C4 C -0.0263(3) 0.4820(2) 0.24132(9)
H4 H -0.0909 0.5250 0.2217
C5 C 0.0164(3) 0.3670(2) 0.24178(8)
C6 C -0.0458(3) 0.3142(2) 0.21146(8)
C7 C -0.0681(3) 0.1531(2) 0.18684(9)
H5 H -0.0507 0.1735 0.1547
H6 H -0.1646 0.1803 0.1943
C8 C -0.0163(2) 0.0293(2) 0.19482(9)
C9 C -0.0313(3) -0.0181(2) 0.23788(9)
H7 H -0.0720 0.0269 0.2624
C10 C 0.0147(2) -0.1329(2) 0.24416(8)
C11 C 0.0751(2) -0.1988(2) 0.20850(8)
H8 H 0.1096 -0.2768 0.2134
C12 C 0.0849(2) -0.1501(2) 0.16565(8)
C13 C 0.0413(2) -0.0354(2) 0.15844(8)
H9 H 0.0509 -0.0022 0.1292
C14 C -0.0701(3) -0.1297(2) 0.32168(9)
H10 H -0.1583 -0.0833 0.3126
H11 H -0.0251 -0.0810 0.3321
C15 C -0.0831(3) -0.2132(2) 0.35871(9)
H12 H -0.1416 -0.1751 0.3842
H13 H -0.1225 -0.2648 0.3474
C16 C 0.0391(4) -0.3575(3) 0.40690(10)
H14 H 0.0003 -0.4086 0.3948
H15 H -0.0173 -0.3243 0.4337
C17 C 0.1745(4) -0.4194(3) 0.42005(11)
H16 H 0.1721 -0.4822 0.4414
H17 H 0.2319 -0.4496 0.3930
C18 C 0.3536(4) -0.4071(3) 0.45516(11)
H18 H 0.4108 -0.4470 0.4298
H19 H 0.3469 -0.4621 0.4797
C19 C 0.4120(4) -0.3274(3) 0.47157(10)
H20 H 0.3517 -0.2834 0.4954
H21 H 0.4972 -0.3681 0.4844
C20 C 0.5279(4) -0.2068(3) 0.44014(10)
H22 H 0.6147 -0.2644 0.4435
H23 H 0.5036 -0.1642 0.4677
C21 C 0.5358(3) -0.1309(2) 0.39937(9)
H24 H 0.4474 -0.0772 0.3944
H25 H 0.5962 -0.0894 0.4039
C22 C 0.6009(3) -0.1433(2) 0.32078(8)
C23 C 0.5651(3) -0.0284(2) 0.31485(9)
H26 H 0.5239 0.0172 0.3392
C24 C 0.5906(3) 0.0182(2) 0.27300(9)
C25 C 0.6503(3) -0.0475(2) 0.23672(9)
H27 H 0.6676 -0.0146 0.2081
C26 C 0.6842(3) -0.1618(2) 0.24301(8)
C27 C 0.6600(3) -0.2102(2) 0.28500(8)
H28 H 0.6836 -0.2883 0.2892
C28 C 0.7723(3) -0.1887(2) 0.16657(8)
H29 H 0.8262 -0.1402 0.1689
H30 H 0.6887 -0.1439 0.1536
C29 C 0.8455(3) -0.2819(2) 0.13692(9)
H31 H 0.8776 -0.2523 0.1081
H32 H 0.9228 -0.3322 0.1519
C30 C 0.8259(3) -0.4335(2) 0.10161(9)
H33 H 0.9077 -0.4796 0.1153
H34 H 0.8504 -0.4074 0.0710
C31 C 0.7375(3) -0.5006(2) 0.09868(9)
H35 H 0.7864 -0.5690 0.0831
H36 H 0.7073 -0.5218 0.1294
C32 C 0.5384(3) -0.4993(2) 0.07244(8)
H37 H 0.5115 -0.5219 0.1034
H38 H 0.5837 -0.5668 0.0558
C33 C 0.4193(3) -0.4303(2) 0.04922(8)
H39 H 0.4465 -0.4007 0.0196
H40 H 0.3643 -0.4761 0.0440
C34 C 0.2217(3) -0.2810(2) 0.05962(8)
H41 H 0.1646 -0.3282 0.0613
H42 H 0.2347 -0.2567 0.0277
C35 C 0.1573(3) -0.1824(2) 0.08737(8)
H43 H 0.2143 -0.1352 0.0861
H44 H 0.0715 -0.1379 0.0758
C36 C 0.5610(3) 0.1412(2) 0.26810(9)
H45 H 0.5202 0.1750 0.2969
H46 H 0.6436 0.1588 0.2603
C37 C 0.4375(3) 0.2948(2) 0.22563(8)
C38 C 0.3462(2) 0.3391(2) 0.18860(8)
C39 C 0.3011(3) 0.4525(2) 0.17936(8)
H47 H 0.3247 0.5009 0.1968
C40 C 0.2209(3) 0.4932(2) 0.14413(9)
H48 H 0.1886 0.5703 0.1367
C41 C 0.1887(3) 0.4196(2) 0.12005(9)
H49 H 0.1346 0.4450 0.0954
C42 C 0.2365(3) 0.3078(2) 0.13241(9)
H50 H 0.2123 0.2578 0.1160
N3 N 0.51587(19) 0.86775(16) 0.08414(6)
N4 N 0.1774(2) 0.9700(2) 0.38007(7)
C43 C 0.5362(3) 0.7683(2) -0.03188(8)
H51 H 0.6235 0.7176 -0.0331
C44 C 0.4553(3) 0.7742(2) -0.06574(9)
H52 H 0.4876 0.7284 -0.0906
C45 C 0.3268(3) 0.8467(3) -0.06385(9)
H53 H 0.2711 0.8490 -0.0870
C46 C 0.2800(3) 0.9152(2) -0.02842(9)
H54 H 0.1922 0.9650 -0.0271
C47 C 0.3628(3) 0.9110(2) 0.00567(8)
H55 H 0.3314 0.9592 0.0298
C48 C 0.4898(2) 0.83722(19) 0.00444(8)
C49 C 0.5840(2) 0.8298(2) 0.04007(8)
H56 H 0.6417 0.7522 0.0440
H57 H 0.6408 0.8752 0.0295
C50 C 0.4837(2) 0.79429(19) 0.11406(7)
H58 H 0.5055 0.7194 0.1066
C51 C 0.4197(2) 0.82702(19) 0.15501(8)
H59 H 0.3961 0.7749 0.1756
C52 C 0.3888(2) 0.93651(19) 0.16694(8)
C53 C 0.4225(3) 1.0105(2) 0.13496(8)
H60 H 0.4023 1.0858 0.1416
C54 C 0.4847(3) 0.9747(2) 0.09403(8)
H61 H 0.5061 1.0257 0.0723
C55 C 0.3270(2) 0.9746(2) 0.21117(8)
H62 H 0.2985 1.0514 0.2161
C56 C 0.3096(2) 0.9045(2) 0.24471(8)
H63 H 0.3335 0.8290 0.2380
C57 C 0.2575(2) 0.9323(2) 0.29066(8)
C58 C 0.2641(3) 0.8452(2) 0.32276(8)
H64 H 0.2968 0.7712 0.3137
C59 C 0.2241(3) 0.8656(2) 0.36706(9)
H65 H 0.2293 0.8058 0.3886
C60 C 0.1640(3) 1.0565(2) 0.34961(9)
H66 H 0.1273 1.1297 0.3594
C61 C 0.2025(3) 1.0404(2) 0.30497(9)
H67 H 0.1921 1.1017 0.2839
C62 C 0.1363(4) 0.9894(3) 0.42874(9)
H68 H 0.1386 1.0630 0.4354
H69 H 0.1996 0.9331 0.4474
C63 C 0.0004(3) 0.9836(3) 0.44102(9)
C64 C -0.1093(4) 1.0726(3) 0.43095(11)
H70 H -0.0979 1.1367 0.4153
C65 C -0.2343(4) 1.0698(3) 0.44312(12)
H71 H -0.3083 1.1315 0.4356
C66 C -0.2536(4) 0.9778(3) 0.46629(11)
H72 H -0.3402 0.9764 0.4751
C67 C -0.1453(4) 0.8881(3) 0.47648(10)
H73 H -0.1573 0.8244 0.4923
C68 C -0.0192(4) 0.8907(3) 0.46377(9)
H74 H 0.0547 0.8282 0.4707
loop_
_geom_bond_atom_site_label_1
_geom_bond_atom_site_label_2
_geom_bond_site_symmetry_1
_geom_bond_site_symmetry_2
P1 F1 1_555 1_555
P2 F7 1_555 1_555
F2 P1 1_555 1_555
F3 P1 1_555 1_555
F4 P1 1_555 1_555
F5 P1 1_555 1_555
F6 P1 1_555 1_555
F8 P2 1_555 1_555
F9 P2 1_555 1_555
F10 P2 1_555 1_555
F11 P2 1_555 1_555
F12 P2 1_555 1_555
O1 C6 1_555 1_555
O2 C6 1_555 1_555
O3 C10 1_555 1_555
O4 C15 1_555 1_555
O5 C17 1_555 1_555
O6 C19 1_555 1_555
O7 C21 1_555 1_555
O8 C26 1_555 1_555
O9 C29 1_555 1_555
O10 C31 1_555 1_555
O11 C33 1_555 1_555
O12 C12 1_555 1_555
O13 C36 1_555 1_555
O14 C37 1_555 1_555
N1 C1 1_555 1_555
N2 C38 1_555 1_555
N3 C49 1_555 1_555
N4 C59 1_555 1_555
C1 H1 1_555 1_555
C2 C1 1_555 1_555
H2 C2 1_555 1_555
C3 C2 1_555 1_555
H3 C3 1_555 1_555
C4 C3 1_555 1_555
H4 C4 1_555 1_555
C5 N1 1_555 1_555
C6 C5 1_555 1_555
C7 O2 1_555 1_555
H5 C7 1_555 1_555
H6 C7 1_555 1_555
C8 C7 1_555 1_555
C9 C8 1_555 1_555
H7 C9 1_555 1_555
C10 C9 1_555 1_555
C11 C10 1_555 1_555
H8 C11 1_555 1_555
C12 C11 1_555 1_555
C13 C8 1_555 1_555
H9 C13 1_555 1_555
C14 O3 1_555 1_555
H10 C14 1_555 1_555
H11 C14 1_555 1_555
C15 C14 1_555 1_555
H12 C15 1_555 1_555
H13 C15 1_555 1_555
C16 O4 1_555 1_555
H14 C16 1_555 1_555
H15 C16 1_555 1_555
C17 C16 1_555 1_555
H16 C17 1_555 1_555
H17 C17 1_555 1_555
C18 O5 1_555 1_555
H18 C18 1_555 1_555
H19 C18 1_555 1_555
C19 C18 1_555 1_555
H20 C19 1_555 1_555
H21 C19 1_555 1_555
C20 O6 1_555 1_555
H22 C20 1_555 1_555
H23 C20 1_555 1_555
C21 C20 1_555 1_555
H24 C21 1_555 1_555
H25 C21 1_555 1_555
C22 O7 1_555 1_555
C23 C22 1_555 1_555
H26 C23 1_555 1_555
C24 C23 1_555 1_555
C25 C24 1_555 1_555
H27 C25 1_555 1_555
C26 C25 1_555 1_555
C27 C22 1_555 1_555
H28 C27 1_555 1_555
C28 O8 1_555 1_555
H29 C28 1_555 1_555
H30 C28 1_555 1_555
C29 C28 1_555 1_555
H31 C29 1_555 1_555
H32 C29 1_555 1_555
C30 O9 1_555 1_555
H33 C30 1_555 1_555
H34 C30 1_555 1_555
C31 C30 1_555 1_555
H35 C31 1_555 1_555
H36 C31 1_555 1_555
C32 O10 1_555 1_555
H37 C32 1_555 1_555
H38 C32 1_555 1_555
C33 C32 1_555 1_555
H39 C33 1_555 1_555
H40 C33 1_555 1_555
C34 O11 1_555 1_555
H41 C34 1_555 1_555
H42 C34 1_555 1_555
C35 O12 1_555 1_555
H43 C35 1_555 1_555
H44 C35 1_555 1_555
C36 C24 1_555 1_555
H45 C36 1_555 1_555
H46 C36 1_555 1_555
C37 O13 1_555 1_555
C38 C37 1_555 1_555
C39 C38 1_555 1_555
H47 C39 1_555 1_555
C40 C39 1_555 1_555
H48 C40 1_555 1_555
C41 C40 1_555 1_555
H49 C41 1_555 1_555
C42 N2 1_555 1_555
H50 C42 1_555 1_555
C43 H51 1_555 1_555
C44 C43 1_555 1_555
H52 C44 1_555 1_555
C45 C44 1_555 1_555
H53 C45 1_555 1_555
C46 C45 1_555 1_555
H54 C46 1_555 1_555
C47 C46 1_555 1_555
H55 C47 1_555 1_555
C48 C43 1_555 1_555
C49 C48 1_555 1_555
H56 C49 1_555 1_555
H57 C49 1_555 1_555
C50 N3 1_555 1_555
H58 C50 1_555 1_555
C51 C50 1_555 1_555
H59 C51 1_555 1_555
C52 C51 1_555 1_555
C53 C52 1_555 1_555
H60 C53 1_555 1_555
C54 N3 1_555 1_555
H61 C54 1_555 1_555
C55 C52 1_555 1_555
H62 C55 1_555 1_555
C56 C55 1_555 1_555
H63 C56 1_555 1_555
C57 C56 1_555 1_555
C58 C57 1_555 1_555
H64 C58 1_555 1_555
C59 C58 1_555 1_555
H65 C59 1_555 1_555
C60 N4 1_555 1_555
H66 C60 1_555 1_555
C61 C57 1_555 1_555
H67 C61 1_555 1_555
C62 N4 1_555 1_555
H68 C62 1_555 1_555
H69 C62 1_555 1_555
C63 C62 1_555 1_555
C64 C63 1_555 1_555
H70 C64 1_555 1_555
C65 C64 1_555 1_555
H71 C65 1_555 1_555
C66 C65 1_555 1_555
H72 C66 1_555 1_555
C67 C66 1_555 1_555
H73 C67 1_555 1_555
C68 C63 1_555 1_555
H74 C68 1_555 1_555
C4 C5 1_555 1_555
C12 C13 1_555 1_555
C26 C27 1_555 1_555
C34 C35 1_555 1_555
C41 C42 1_555 1_555
C47 C48 1_555 1_555
C53 C54 1_555 1_555
C60 C61 1_555 1_555
C67 C68 1_555 1_555

#END
