
#######################################################################
#
#                 Cambridge Crystallographic Data Centre
#                                CCDC 
#
#######################################################################
#
# If this CIF has been generated from an entry in the Cambridge 
# Structural Database, then it will include bibliographic, chemical, 
# crystal, experimental, refinement or atomic coordinate data resulting 
# from the CCDC's data processing and validation procedures.
#
#######################################################################

data_IYUCAI
_chemical_name_common            'delta-Oleanolic acid ethanol solvate'
_chemical_formula_moiety         'C30 H48 O3,C2 H6 O1'
_chemical_name_systematic        
'3-hydroxyolean-13(18)-en-28-oic acid ethanol solvate'
_symmetry_cell_setting           orthorhombic
_symmetry_space_group_name_H-M   'P 21 21 21'
_symmetry_Int_Tables_number      19
_space_group_name_Hall           'P 2ac 2ab'
loop_
_symmetry_equiv_pos_site_id
_symmetry_equiv_pos_as_xyz
1 x,y,z
2 1/2-x,-y,1/2+z
3 -x,1/2+y,1/2-z
4 1/2+x,1/2-y,-z
_cell_length_a                   12.104(2)
_cell_length_b                   34.297(7)
_cell_length_c                   7.1950(14)
_cell_angle_alpha                90
_cell_angle_beta                 90
_cell_angle_gamma                90
_cell_volume                     2986.87
_cell_formula_units_Z            4
loop_
_atom_site_label
_atom_site_type_symbol
_atom_site_fract_x
_atom_site_fract_y
_atom_site_fract_z
C1 C 0.9073(4) 0.30608(13) 0.3638(7)
H1 H 0.9659 0.2973 0.2818
H2 H 0.9224 0.2958 0.4867
O1 O 0.8897(3) 0.41000(10) 0.2010(5)
H3 H 0.8770 0.4239 0.1056
C2 C 0.9092(4) 0.35051(14) 0.3726(7)
H4 H 0.8559 0.3594 0.4638
H5 H 0.9818 0.3592 0.4118
O2 O 0.5846(4) 0.09559(16) 0.3223(7)
H6 H 0.5289 0.0836 0.3532
O3 O 0.5506(3) 0.06829(12) 0.0585(6)
C3 C 0.8822(4) 0.36810(14) 0.1858(7)
H7 H 0.9400 0.3597 0.0993
C4 C 0.7728(4) 0.35549(14) 0.1040(6)
C5 C 0.7712(3) 0.31036(13) 0.1058(6)
H8 H 0.8329 0.3030 0.0248
C6 C 0.6704(4) 0.29114(15) 0.0152(7)
H9 H 0.6081 0.2925 0.0998
H10 H 0.6510 0.3053 -0.0967
C7 C 0.6923(4) 0.24932(14) -0.0331(6)
H11 H 0.7508 0.2483 -0.1250
H12 H 0.6264 0.2384 -0.0893
C8 C 0.7253(3) 0.22400(13) 0.1324(5)
C9 C 0.8163(3) 0.24551(12) 0.2471(5)
H13 H 0.8814 0.2453 0.1662
C10 C 0.7979(4) 0.28964(12) 0.2951(5)
C11 C 0.8493(5) 0.22059(14) 0.4127(6)
H14 H 0.9057 0.2340 0.4841
H15 H 0.7857 0.2167 0.4926
C12 C 0.8926(4) 0.18201(14) 0.3504(7)
H16 H 0.9088 0.1664 0.4595
H17 H 0.9615 0.1862 0.2847
C13 C 0.8141(4) 0.15868(14) 0.2235(6)
C14 C 0.7741(3) 0.18352(13) 0.0601(5)
C15 C 0.6866(4) 0.16106(14) -0.0518(6)
H18 H 0.6170 0.1616 0.0150
H19 H 0.6756 0.1739 -0.1705
C16 C 0.7200(4) 0.11914(15) -0.0851(6)
H20 H 0.7905 0.1184 -0.1492
H21 H 0.6655 0.1065 -0.1636
C17 C 0.7294(4) 0.09689(14) 0.1001(6)
C18 C 0.7912(4) 0.12065(13) 0.2457(6)
C19 C 0.8272(5) 0.09551(14) 0.4139(7)
H22 H 0.8686 0.1119 0.4991
H23 H 0.7615 0.0867 0.4785
C20 C 0.8955(5) 0.06105(17) 0.3672(8)
C21 C 0.8275(5) 0.03614(16) 0.2333(8)
H24 H 0.7625 0.0265 0.2973
H25 H 0.8711 0.0138 0.1946
C22 C 0.7915(4) 0.05910(15) 0.0614(7)
H26 H 0.8567 0.0652 -0.0114
H27 H 0.7447 0.0425 -0.0141
C23 C 0.7683(5) 0.36981(17) -0.0998(7)
H28 H 0.7684 0.3978 -0.1021
H29 H 0.7022 0.3603 -0.1579
H30 H 0.8317 0.3602 -0.1659
C24 C 0.6767(4) 0.37482(16) 0.2073(9)
H31 H 0.6708 0.4016 0.1696
H32 H 0.6899 0.3736 0.3388
H33 H 0.6093 0.3614 0.1784
C25 C 0.7079(5) 0.29590(17) 0.4452(7)
H34 H 0.7216 0.3199 0.5094
H35 H 0.7097 0.2747 0.5322
H36 H 0.6366 0.2969 0.3870
C26 C 0.6233(4) 0.21581(16) 0.2495(7)
H37 H 0.5932 0.2400 0.2940
H38 H 0.6432 0.1997 0.3533
H39 H 0.5691 0.2026 0.1752
C27 C 0.8735(4) 0.18989(15) -0.0706(6)
H40 H 0.9010 0.1651 -0.1118
H41 H 0.9307 0.2036 -0.0053
H42 H 0.8505 0.2050 -0.1762
C28 C 0.6124(5) 0.08562(16) 0.1592(8)
C29 C 0.9116(6) 0.03769(19) 0.5463(9)
H43 H 0.9540 0.0147 0.5202
H44 H 0.8408 0.0303 0.5953
H45 H 0.9500 0.0534 0.6359
C30 C 1.0049(5) 0.0722(2) 0.2867(10)
H46 H 0.9937 0.0861 0.1726
H47 H 1.0475 0.0491 0.2628
H48 H 1.0439 0.0885 0.3731
O4 O 0.4081(5) 0.06186(17) 0.4517(7)
H49 H 0.4108 0.0660 0.5681
C31 C 0.3555(11) 0.0319(4) 0.3973(15)
H50 H 0.4122 0.0185 0.3267
H51 H 0.3076 0.0433 0.3037
C32 C 0.2900(13) -0.0001(4) 0.457(2)
H52 H 0.2935 -0.0206 0.3666
H53 H 0.2148 0.0082 0.4721
H54 H 0.3176 -0.0095 0.5742
loop_
_geom_bond_atom_site_label_1
_geom_bond_atom_site_label_2
_geom_bond_site_symmetry_1
_geom_bond_site_symmetry_2
C1 H1 1_555 1_555
H2 C1 1_555 1_555
O1 H3 1_555 1_555
C2 C1 1_555 1_555
H4 C2 1_555 1_555
H5 C2 1_555 1_555
O2 H6 1_555 1_555
O3 C28 1_555 1_555
C3 O1 1_555 1_555
H7 C3 1_555 1_555
C4 C3 1_555 1_555
C5 C4 1_555 1_555
H8 C5 1_555 1_555
C6 C5 1_555 1_555
H9 C6 1_555 1_555
H10 C6 1_555 1_555
C7 C6 1_555 1_555
H11 C7 1_555 1_555
H12 C7 1_555 1_555
C8 C7 1_555 1_555
C9 C8 1_555 1_555
H13 C9 1_555 1_555
C10 C1 1_555 1_555
C11 C9 1_555 1_555
H14 C11 1_555 1_555
H15 C11 1_555 1_555
C12 C11 1_555 1_555
H16 C12 1_555 1_555
H17 C12 1_555 1_555
C13 C12 1_555 1_555
C14 C8 1_555 1_555
C15 C14 1_555 1_555
H18 C15 1_555 1_555
H19 C15 1_555 1_555
C16 C15 1_555 1_555
H20 C16 1_555 1_555
H21 C16 1_555 1_555
C17 C16 1_555 1_555
C18 C13 1_555 1_555
C19 C18 1_555 1_555
H22 C19 1_555 1_555
H23 C19 1_555 1_555
C20 C19 1_555 1_555
C21 C20 1_555 1_555
H24 C21 1_555 1_555
H25 C21 1_555 1_555
C22 C17 1_555 1_555
H26 C22 1_555 1_555
H27 C22 1_555 1_555
C23 C4 1_555 1_555
H28 C23 1_555 1_555
H29 C23 1_555 1_555
H30 C23 1_555 1_555
C24 C4 1_555 1_555
H31 C24 1_555 1_555
H32 C24 1_555 1_555
H33 C24 1_555 1_555
C25 C10 1_555 1_555
H34 C25 1_555 1_555
H35 C25 1_555 1_555
H36 C25 1_555 1_555
C26 C8 1_555 1_555
H37 C26 1_555 1_555
H38 C26 1_555 1_555
H39 C26 1_555 1_555
C27 C14 1_555 1_555
H40 C27 1_555 1_555
H41 C27 1_555 1_555
H42 C27 1_555 1_555
C28 O2 1_555 1_555
C29 C20 1_555 1_555
H43 C29 1_555 1_555
H44 C29 1_555 1_555
H45 C29 1_555 1_555
C30 C20 1_555 1_555
H46 C30 1_555 1_555
H47 C30 1_555 1_555
H48 C30 1_555 1_555
O4 H49 1_555 1_555
C31 O4 1_555 1_555
H50 C31 1_555 1_555
H51 C31 1_555 1_555
C32 C31 1_555 1_555
H52 C32 1_555 1_555
H53 C32 1_555 1_555
H54 C32 1_555 1_555
C2 C3 1_555 1_555
C5 C10 1_555 1_555
C9 C10 1_555 1_555
C13 C14 1_555 1_555
C17 C18 1_555 1_555
C17 C28 1_555 1_555
C21 C22 1_555 1_555

#END
