
#######################################################################
#
#                 Cambridge Crystallographic Data Centre
#                                CCDC 
#
#######################################################################
#
# If this CIF has been generated from an entry in the Cambridge 
# Structural Database, then it will include bibliographic, chemical, 
# crystal, experimental, refinement or atomic coordinate data resulting 
# from the CCDC's data processing and validation procedures.
#
#######################################################################

data_IYURUR
_chemical_formula_moiety         'C60 H82 O13,H2 O1'
_chemical_name_systematic        
'5,11,17,23-tetra-t-butyl-26,28-(1,4,7,10,13,16,19-heptaoxanonadecan-1,19-diyl)-25,27-bis((carboxymethyl)oxy)calix[4]arene monohydrate'
_symmetry_cell_setting           monoclinic
_symmetry_space_group_name_H-M   'C 2/m'
_symmetry_Int_Tables_number      12
_space_group_name_Hall           '-C 2y'
loop_
_symmetry_equiv_pos_site_id
_symmetry_equiv_pos_as_xyz
1 x,y,z
2 -x,y,-z
3 1/2+x,1/2+y,z
4 1/2-x,1/2+y,-z
5 -x,-y,-z
6 x,-y,z
7 1/2-x,1/2-y,-z
8 1/2+x,1/2-y,z
_cell_length_a                   26.595(12)
_cell_length_b                   19.522(8)
_cell_length_c                   14.323(6)
_cell_angle_alpha                90
_cell_angle_beta                 112.625(9)
_cell_angle_gamma                90
_cell_volume                     6864.04
_exptl_crystal_colour            colorless
_exptl_crystal_description       block
_cell_formula_units_Z            4
_exptl_crystal_recrystallization_method water
loop_
_atom_site_label
_atom_site_type_symbol
_atom_site_fract_x
_atom_site_fract_y
_atom_site_fract_z
O11 O 0.515(2) 0.247(3) 0.055(4)
O12 O 0.484(2) 0.309(3) 0.335(4)
O1 O 0.2563(3) 0.0000 0.0393(4)
O2 O 0.1946(2) 0.1302(2) 0.0602(3)
O3 O 0.1387(3) 0.0000 0.1169(4)
O4 O 0.2065(3) 0.1839(3) -0.1189(4)
O5 O 0.2843(3) 0.1223(4) -0.1786(5)
O6 O 0.3442(5) 0.0000 -0.1808(8)
O7 O 0.1536(4) 0.0236(4) -0.0650(6)
O8 O 0.1573(4) 0.0000 -0.2053(5)
C1 C 0.3125(4) 0.0000 0.0907(6)
C2 C 0.3406(3) 0.0624(4) 0.1173(5)
C3 C 0.3963(3) 0.0624(5) 0.1673(5)
H1 H 0.4152 0.1047 0.1859
C4 C 0.4258(5) 0.0000 0.1914(8)
C5 C 0.4872(5) 0.0000 0.2495(9)
C6 C 0.5018(6) 0.0000 0.3605(11)
C7 C 0.5148(6) 0.0603(9) 0.2232(12)
H2 H 0.5044 0.0621 0.1497
H3 H 0.5544 0.0553 0.2566
H4 H 0.5034 0.1027 0.2460
C8 C 0.3088(3) 0.1291(4) 0.0998(5)
H5 H 0.3332 0.1680 0.1020
H6 H 0.2789 0.1284 0.0321
C9 C 0.2322(3) 0.1374(3) 0.1607(5)
C10 C 0.2854(3) 0.1389(3) 0.1800(5)
C11 C 0.3224(3) 0.1470(4) 0.2805(5)
H7 H 0.3604 0.1483 0.2952
C12 C 0.3038(3) 0.1534(4) 0.3592(5)
C13 C 0.2498(3) 0.1482(3) 0.3359(5)
H8 H 0.2371 0.1512 0.3894
C14 C 0.2115(3) 0.1389(3) 0.2381(5)
C15 C 0.3447(4) 0.1620(5) 0.4703(6)
C16 C 0.4031(5) 0.1617(8) 0.4810(7)
H9 H 0.4269 0.1665 0.5525
H10 H 0.4094 0.1999 0.4425
H11 H 0.4111 0.1184 0.4549
C17 C 0.3405(5) 0.1007(6) 0.5313(7)
H12 H 0.3670 0.1052 0.6010
H13 H 0.3481 0.0588 0.5012
H14 H 0.3037 0.0982 0.5311
C18 C 0.3305(5) 0.2272(6) 0.5118(8)
H15 H 0.3504 0.2286 0.5853
H16 H 0.2913 0.2283 0.4962
H17 H 0.3407 0.2668 0.4810
C19 C 0.1526(3) 0.1288(4) 0.2195(5)
H18 H 0.1308 0.1280 0.1458
H19 H 0.1397 0.1674 0.2491
C20 C 0.1416(4) 0.0000 0.2161(7)
C21 C 0.1447(3) 0.0621(4) 0.2662(5)
C22 C 0.1447(3) 0.0607(4) 0.3614(5)
H20 H 0.1449 0.1029 0.3947
C23 C 0.1445(4) 0.0000 0.4114(7)
C24 C 0.1461(5) 0.0000 0.5214(7)
C25 C 0.2066(7) 0.0000 0.5934(11)
H21 H 0.2246 0.0406 0.5804
H22 H 0.2094 0.0007 0.6636
C26 C 0.1178(5) 0.0629(6) 0.5409(8)
H23 H 0.0797 0.0635 0.4932
H24 H 0.1362 0.1044 0.5319
H25 H 0.1192 0.0614 0.6103
C27 C 0.1743(3) 0.1955(4) 0.0116(5)
H26 H 0.2027 0.2312 0.0383
H27 H 0.1419 0.2098 0.0248
C28 C 0.1593(4) 0.1861(4) -0.1011(6)
H28 H 0.1386 0.1430 -0.1241
H29 H 0.1362 0.2247 -0.1387
C29 C 0.1965(5) 0.1697(5) -0.2228(6)
H30 H 0.1810 0.1232 -0.2412
H31 H 0.1704 0.2032 -0.2675
C30 C 0.2471(5) 0.1743(6) -0.2343(7)
H32 H 0.2634 0.2198 -0.2107
H33 H 0.2407 0.1701 -0.3068
C31 C 0.3333(6) 0.1219(8) -0.1857(10)
H34 H 0.3524 0.1655 -0.1588
H35 H 0.3282 0.1184 -0.2577
C32 C 0.3687(6) 0.0611(9) -0.1260(11)
H36 H 0.4066 0.0659 -0.1215
H37 H 0.3692 0.0595 -0.0565
C33 C 0.2392(4) 0.0000 -0.0679(7)
H38 H 0.2541 0.0410 -0.0889
C34 C 0.1817(4) 0.0000 -0.1175(7)
O9 O 0.0226(4) -0.0110(17) -0.1104(7)
O10 O 0.0649(5) 0.0921(8) -0.0138(9)
C35 C 0.0902(5) -0.0243(6) 0.0438(9)
C36 C 0.0590(6) 0.0307(9) -0.0280(11)
O2E O 0.1946(2) -0.1302(2) 0.0602(3)
O4E O 0.2065(3) -0.1839(3) -0.1189(4)
O5E O 0.2843(3) -0.1223(4) -0.1786(5)
O7E O 0.1536(4) -0.0236(4) -0.0650(6)
C2E C 0.3406(3) -0.0624(4) 0.1173(5)
C3E C 0.3963(3) -0.0624(5) 0.1673(5)
H1E H 0.4152 -0.1047 0.1859
C7E C 0.5148(6) -0.0603(9) 0.2232(12)
H2E H 0.5044 -0.0621 0.1497
H3E H 0.5544 -0.0553 0.2566
H4E H 0.5034 -0.1027 0.2460
C8E C 0.3088(3) -0.1291(4) 0.0998(5)
H5E H 0.3332 -0.1680 0.1020
H6E H 0.2789 -0.1284 0.0321
C9E C 0.2322(3) -0.1374(3) 0.1607(5)
C10E C 0.2854(3) -0.1389(3) 0.1800(5)
C11E C 0.3224(3) -0.1470(4) 0.2805(5)
H7E H 0.3604 -0.1483 0.2952
C12E C 0.3038(3) -0.1534(4) 0.3592(5)
C13E C 0.2498(3) -0.1482(3) 0.3359(5)
H8E H 0.2371 -0.1512 0.3894
C14E C 0.2115(3) -0.1389(3) 0.2381(5)
C15E C 0.3447(4) -0.1620(5) 0.4703(6)
C16E C 0.4031(5) -0.1617(8) 0.4810(7)
H9E H 0.4269 -0.1665 0.5525
H10E H 0.4094 -0.1999 0.4425
H11E H 0.4111 -0.1184 0.4549
C17E C 0.3405(5) -0.1007(6) 0.5313(7)
H12E H 0.3670 -0.1052 0.6010
H13E H 0.3481 -0.0588 0.5012
H14E H 0.3037 -0.0982 0.5311
C18E C 0.3305(5) -0.2272(6) 0.5118(8)
H15E H 0.3504 -0.2286 0.5853
H16E H 0.2913 -0.2283 0.4962
H17E H 0.3407 -0.2668 0.4810
C19E C 0.1526(3) -0.1288(4) 0.2195(5)
H18E H 0.1308 -0.1280 0.1458
H19E H 0.1397 -0.1674 0.2491
C21E C 0.1447(3) -0.0621(4) 0.2662(5)
C22E C 0.1447(3) -0.0607(4) 0.3614(5)
H20E H 0.1449 -0.1029 0.3947
H21E H 0.2246 -0.0406 0.5804
C26E C 0.1178(5) -0.0629(6) 0.5409(8)
H23E H 0.0797 -0.0635 0.4932
H24E H 0.1362 -0.1044 0.5319
H25E H 0.1192 -0.0614 0.6103
C27E C 0.1743(3) -0.1955(4) 0.0116(5)
H26E H 0.2027 -0.2312 0.0383
H27E H 0.1419 -0.2098 0.0248
C28E C 0.1593(4) -0.1861(4) -0.1011(6)
H28E H 0.1386 -0.1430 -0.1241
H29E H 0.1362 -0.2247 -0.1387
C29E C 0.1965(5) -0.1697(5) -0.2228(6)
H30E H 0.1810 -0.1232 -0.2412
H31E H 0.1704 -0.2032 -0.2675
C30E C 0.2471(5) -0.1743(6) -0.2343(7)
H32E H 0.2634 -0.2198 -0.2107
H33E H 0.2407 -0.1701 -0.3068
C31E C 0.3333(6) -0.1219(8) -0.1857(10)
H34E H 0.3524 -0.1655 -0.1588
H35E H 0.3282 -0.1184 -0.2577
C32E C 0.3687(6) -0.0611(9) -0.1260(11)
H36E H 0.4066 -0.0659 -0.1215
H37E H 0.3692 -0.0595 -0.0565
H38E H 0.2541 -0.0410 -0.0889
O9E O 0.0226(4) 0.0110(17) -0.1104(7)
O10E O 0.0649(5) -0.0921(8) -0.0138(9)
C35E C 0.0902(5) 0.0243(6) 0.0438(9)
C36E C 0.0590(6) -0.0307(9) -0.0280(11)
O13? O -0.0105(10) 0.0538(14) -0.1917(19)
H39? H 0.2243 0.0413 0.5818
H40? H 0.2541 0.0410 -0.0889
H41? H 0.1703 0.0566 -0.0289
H42? H 0.0289 -0.0526 -0.0957
H43? H 0.0985 -0.0616 0.0052
H44? H 0.0672 -0.0436 0.0778
H45? H 0.4894 -0.0428 0.3804
H46? H 0.4842 0.0389 0.3789
H47? H 0.5414 0.0038 0.3955
loop_
_geom_bond_atom_site_label_1
_geom_bond_atom_site_label_2
_geom_bond_site_symmetry_1
_geom_bond_site_symmetry_2
O1 C1 1_555 1_555
O2 C9 1_555 1_555
O3 C20 1_555 1_555
O4 C28 1_555 1_555
O5 C30 1_555 1_555
O6 C32 1_555 1_555
O7 C34 1_555 1_555
O8 C34 1_555 1_555
C1 C2 1_555 1_555
C2 C3 1_555 1_555
C3 H1 1_555 1_555
C4 C3 1_555 1_555
C5 C4 1_555 1_555
C6 C5 1_555 1_555
C7 C5 1_555 1_555
H2 C7 1_555 1_555
H3 C7 1_555 1_555
H4 C7 1_555 1_555
C8 C2 1_555 1_555
H5 C8 1_555 1_555
H6 C8 1_555 1_555
C9 C10 1_555 1_555
C10 C8 1_555 1_555
C11 C10 1_555 1_555
H7 C11 1_555 1_555
C12 C11 1_555 1_555
C13 C12 1_555 1_555
H8 C13 1_555 1_555
C14 C9 1_555 1_555
C15 C12 1_555 1_555
C16 C15 1_555 1_555
H9 C16 1_555 1_555
H10 C16 1_555 1_555
H11 C16 1_555 1_555
C17 C15 1_555 1_555
H12 C17 1_555 1_555
H13 C17 1_555 1_555
H14 C17 1_555 1_555
C18 C15 1_555 1_555
H15 C18 1_555 1_555
H16 C18 1_555 1_555
H17 C18 1_555 1_555
C19 C14 1_555 1_555
H18 C19 1_555 1_555
H19 C19 1_555 1_555
C20 C21 1_555 1_555
C21 C19 1_555 1_555
C22 C21 1_555 1_555
H20 C22 1_555 1_555
C23 C22 1_555 1_555
C24 C23 1_555 1_555
C25 C24 1_555 1_555
H21 C25 1_555 1_555
H22 C25 1_555 1_555
C26 C24 1_555 1_555
H23 C26 1_555 1_555
H24 C26 1_555 1_555
H25 C26 1_555 1_555
C27 O2 1_555 1_555
H26 C27 1_555 1_555
H27 C27 1_555 1_555
C28 C27 1_555 1_555
H28 C28 1_555 1_555
H29 C28 1_555 1_555
C29 O4 1_555 1_555
H30 C29 1_555 1_555
H31 C29 1_555 1_555
C30 C29 1_555 1_555
H32 C30 1_555 1_555
H33 C30 1_555 1_555
C31 O5 1_555 1_555
H34 C31 1_555 1_555
H35 C31 1_555 1_555
C32 C31 1_555 1_555
H36 C32 1_555 1_555
H37 C32 1_555 1_555
C33 O1 1_555 1_555
H38 C33 1_555 1_555
C34 C33 1_555 1_555
O9 C36 1_555 1_555
O10 C36 1_555 1_555
C35 O3 1_555 1_555
C36 C35 1_555 1_555
O2E C9E 1_555 1_555
O4E C28E 1_555 1_555
O5E C30E 1_555 1_555
O7E O7 1_555 1_555
C2E C1 1_555 1_555
C3E C4 1_555 1_555
H1E C3E 1_555 1_555
C7E C5 1_555 1_555
H2E C7E 1_555 1_555
H3E C7E 1_555 1_555
H4E C7E 1_555 1_555
C8E C2E 1_555 1_555
H5E C8E 1_555 1_555
H6E C8E 1_555 1_555
C9E C10E 1_555 1_555
C10E C8E 1_555 1_555
C11E C10E 1_555 1_555
H7E C11E 1_555 1_555
C12E C11E 1_555 1_555
C13E C12E 1_555 1_555
H8E C13E 1_555 1_555
C14E C9E 1_555 1_555
C15E C12E 1_555 1_555
C16E C15E 1_555 1_555
H9E C16E 1_555 1_555
H10E C16E 1_555 1_555
H11E C16E 1_555 1_555
C17E C15E 1_555 1_555
H12E C17E 1_555 1_555
H13E C17E 1_555 1_555
H14E C17E 1_555 1_555
C18E C15E 1_555 1_555
H15E C18E 1_555 1_555
H16E C18E 1_555 1_555
H17E C18E 1_555 1_555
C19E C14E 1_555 1_555
H18E C19E 1_555 1_555
H19E C19E 1_555 1_555
C21E C20 1_555 1_555
C22E C23 1_555 1_555
H20E C22E 1_555 1_555
H21E C25 1_555 1_555
C26E C24 1_555 1_555
H23E C26E 1_555 1_555
H24E C26E 1_555 1_555
H25E C26E 1_555 1_555
C27E O2E 1_555 1_555
H26E C27E 1_555 1_555
H27E C27E 1_555 1_555
C28E C27E 1_555 1_555
H28E C28E 1_555 1_555
H29E C28E 1_555 1_555
C29E O4E 1_555 1_555
H30E C29E 1_555 1_555
H31E C29E 1_555 1_555
C30E C29E 1_555 1_555
H32E C30E 1_555 1_555
H33E C30E 1_555 1_555
C31E O5E 1_555 1_555
H34E C31E 1_555 1_555
H35E C31E 1_555 1_555
C32E O6 1_555 1_555
H36E C32E 1_555 1_555
H37E C32E 1_555 1_555
H38E C33 1_555 1_555
O9E C36 1_555 1_555
O10E C35 1_555 1_555
C35E O3 1_555 1_555
C36E O9 1_555 1_555
C13 C14 1_555 1_555
C34 O7E 1_555 1_555
O10 C35E 1_555 1_555
C35 C35E 1_555 1_555
C35 C36E 1_555 1_555
C36 C35E 1_555 1_555
C36 C36E 1_555 1_555
C2E C3E 1_555 1_555
C13E C14E 1_555 1_555
C19E C21E 1_555 1_555
C21E C22E 1_555 1_555
C31E C32E 1_555 1_555
O9E C36E 1_555 1_555
O10E C36E 1_555 1_555
C35E C36E 1_555 1_555

#END
