
#######################################################################
#
#                 Cambridge Crystallographic Data Centre
#                                CCDC 
#
#######################################################################
#
# If this CIF has been generated from an entry in the Cambridge 
# Structural Database, then it will include bibliographic, chemical, 
# crystal, experimental, refinement or atomic coordinate data resulting 
# from the CCDC's data processing and validation procedures.
#
#######################################################################

data_IYUSAY
_chemical_name_common            
'5,11,17,23-tetra-t-butyl-25,27-dihydroxy-26,28-bis(2-oxo-2-N-(aza-12-crown-4)ethoxy)calix[4]arene dichloromethane solvate'
_chemical_formula_moiety         'C64 H90 N2 O12,C1 H2 Cl2'
_chemical_name_systematic        
"2,2'-((5,11,17,23-tetra-t-butyl-26,28-dihydroxypentacyclo[19.3.1.1^3,7^.1^9,13^.1^15,19^]octacosa-1(25),3(28),4,6,9(27),10,12,15(26),16,18,21,23-dodecaene-25,27-diyl)bis(oxy))bis(1-(1,4,7-trioxa-10-azacyclododecan-10-yl)ethanone) dichloromethane solvate"
_symmetry_cell_setting           monoclinic
_symmetry_space_group_name_H-M   'P 21/c'
_symmetry_Int_Tables_number      14
_space_group_name_Hall           '-P 2ybc'
loop_
_symmetry_equiv_pos_site_id
_symmetry_equiv_pos_as_xyz
1 x,y,z
2 -x,1/2+y,1/2-z
3 -x,-y,-z
4 x,1/2-y,1/2+z
_cell_length_a                   21.062(7)
_cell_length_b                   12.274(4)
_cell_length_c                   24.511(9)
_cell_angle_alpha                90
_cell_angle_beta                 98.496(18)
_cell_angle_gamma                90
_cell_volume                     6266.93
_exptl_crystal_colour            colorless
_exptl_crystal_description       plate
_cell_formula_units_Z            4
_exptl_crystal_recrystallization_method dichloromethane
loop_
_atom_site_label
_atom_site_type_symbol
_atom_site_fract_x
_atom_site_fract_y
_atom_site_fract_z
Cl1 Cl 0.0571(3) 0.3134(6) 0.3327(3)
Cl2 Cl 0.1533(3) 0.4629(5) 0.3157(2)
C1 C 0.1385(6) 0.3460(11) 0.3507(6)
H1 H 0.1486 0.3581 0.3910
H2 H 0.1656 0.2856 0.3405
O1 O 0.3563(4) 0.5028(7) 0.4384(3)
O2 O 0.3456(4) 0.2604(7) 0.4216(3)
H3 H 0.3477 0.2636 0.3877
O3 O 0.3608(4) 0.2762(6) 0.3134(3)
O4 O 0.3676(4) 0.5181(7) 0.3253(4)
H4 H 0.3650 0.5129 0.3591
O5 O 0.4540(4) 0.6337(7) 0.4225(4)
O6 O 0.4281(5) 0.9196(7) 0.5094(4)
O7 O 0.3331(5) 0.9305(8) 0.5733(4)
O8 O 0.3619(4) 0.6871(7) 0.5675(4)
O9 O 0.4385(4) 0.1291(8) 0.3680(4)
O10 O 0.4162(6) 0.1277(9) 0.1864(4)
O11 O 0.3468(5) -0.0783(10) 0.1854(4)
O12 O 0.4485(5) -0.1345(7) 0.2715(4)
N1 N 0.4752(5) 0.6847(9) 0.5123(4)
N2 N 0.4918(6) 0.0895(9) 0.2951(5)
C2 C 0.2942(6) 0.5308(10) 0.4456(5)
C3 C 0.2659(7) 0.6268(10) 0.4193(5)
C4 C 0.2057(6) 0.6516(10) 0.4264(5)
H5 H 0.1851 0.7121 0.4072
C5 C 0.1720(6) 0.5908(10) 0.4616(5)
C6 C 0.2011(6) 0.4961(10) 0.4873(5)
H6 H 0.1783 0.4551 0.5109
C7 C 0.2604(6) 0.4617(9) 0.4794(5)
C8 C 0.2867(6) 0.3536(9) 0.5032(5)
H7 H 0.3338 0.3520 0.5038
H8 H 0.2780 0.3468 0.5416
C9 C 0.2863(6) 0.2241(10) 0.4291(5)
C10 C 0.2573(6) 0.2599(10) 0.4703(5)
C11 C 0.2000(6) 0.2195(10) 0.4794(5)
H9 H 0.1804 0.2499 0.5085
C12 C 0.1686(6) 0.1360(10) 0.4484(5)
C13 C 0.1991(6) 0.0970(10) 0.4061(5)
H10 H 0.1800 0.0371 0.3852
C14 C 0.2556(6) 0.1394(10) 0.3920(5)
C15 C 0.2833(6) 0.0942(10) 0.3448(5)
H11 H 0.2677 0.0189 0.3371
H12 H 0.3307 0.0925 0.3535
C16 C 0.3041(7) 0.2566(11) 0.2818(5)
C17 C 0.2621(6) 0.1686(10) 0.2933(5)
C18 C 0.2042(6) 0.1549(11) 0.2602(5)
H13 H 0.1772 0.0983 0.2698
C19 C 0.1830(7) 0.2131(11) 0.2165(6)
C20 C 0.2231(7) 0.3006(12) 0.2019(6)
H14 H 0.2098 0.3424 0.1696
C21 C 0.2815(7) 0.3244(12) 0.2352(6)
C22 C 0.3179(7) 0.4277(11) 0.2228(6)
H15 H 0.3174 0.4355 0.1826
H16 H 0.3632 0.4233 0.2407
C23 C 0.3100(7) 0.5644(11) 0.2972(6)
C24 C 0.2843(7) 0.5267(11) 0.2456(5)
C25 C 0.2355(7) 0.5668(12) 0.2138(6)
H17 H 0.2218 0.5399 0.1776
C26 C 0.2038(7) 0.6537(13) 0.2365(5)
C27 C 0.2240(7) 0.7000(12) 0.2917(6)
H18 H 0.2021 0.7586 0.3062
C28 C 0.2786(7) 0.6501(11) 0.3212(6)
C29 C 0.3021(7) 0.6918(12) 0.3809(5)
H19 H 0.3490 0.6804 0.3907
H20 H 0.2930 0.7706 0.3837
C30 C 0.1013(7) 0.6178(12) 0.4668(6)
C31 C 0.0733(7) 0.7206(13) 0.4368(6)
H21 H 0.0391 0.7001 0.4071
H22 H 0.1073 0.7591 0.4213
H23 H 0.0558 0.7683 0.4630
C32 C 0.0561(7) 0.5229(12) 0.4494(5)
H24 H 0.0391 0.5295 0.4101
H25 H 0.0205 0.5240 0.4711
H26 H 0.0796 0.4541 0.4559
C33 C 0.0981(8) 0.6400(12) 0.5324(6)
H27 H 0.0540 0.6588 0.5372
H28 H 0.1268 0.7004 0.5454
H29 H 0.1115 0.5742 0.5536
C34 C 0.1034(6) 0.0888(11) 0.4604(5)
C35 C 0.0674(7) 0.0170(13) 0.4153(6)
H30 H 0.0559 0.0601 0.3816
H31 H 0.0284 -0.0113 0.4275
H32 H 0.0950 -0.0439 0.4078
C36 C 0.0596(8) 0.1828(12) 0.4735(7)
H33 H 0.0502 0.2304 0.4412
H34 H 0.0813 0.2249 0.5048
H35 H 0.0194 0.1530 0.4828
C37 C 0.1186(7) 0.0154(13) 0.5120(6)
H36 H 0.0784 -0.0135 0.5220
H37 H 0.1407 0.0583 0.5427
H38 H 0.1461 -0.0451 0.5039
C38 C 0.1213(8) 0.1943(13) 0.1795(6)
C39 C 0.0768(7) 0.1214(13) 0.2007(6)
H39 H 0.0594 0.1570 0.2311
H40 H 0.0993 0.0545 0.2142
H41 H 0.0417 0.1035 0.1713
C40 C 0.0840(7) 0.3046(12) 0.1701(6)
H42 H 0.0858 0.3430 0.2054
H43 H 0.0392 0.2902 0.1548
H44 H 0.1039 0.3499 0.1443
C41 C 0.1354(7) 0.1543(13) 0.1196(5)
H45 H 0.0947 0.1391 0.0959
H46 H 0.1616 0.0880 0.1238
H47 H 0.1585 0.2116 0.1028
C42 C 0.1450(9) 0.7065(13) 0.2041(7)
C43 C 0.0872(10) 0.673(3) 0.2369(11)
H48 H 0.0470 0.7045 0.2183
H49 H 0.0834 0.5936 0.2377
H50 H 0.0960 0.7009 0.2747
C44 C 0.1284(15) 0.652(2) 0.1434(10)
H51 H 0.0903 0.6867 0.1230
H52 H 0.1648 0.6613 0.1232
H53 H 0.1200 0.5736 0.1472
C45 C 0.1434(18) 0.8364(16) 0.1948(15)
H54 H 0.1023 0.8573 0.1732
H55 H 0.1483 0.8733 0.2307
H56 H 0.1785 0.8578 0.1750
C46 C 0.4076(6) 0.5215(10) 0.4843(5)
H57 H 0.4364 0.4574 0.4893
H58 H 0.3892 0.5328 0.5187
C47 C 0.4452(6) 0.6219(11) 0.4717(6)
C48 C 0.5072(6) 0.7814(11) 0.4982(5)
H59 H 0.5380 0.7611 0.4731
H60 H 0.5323 0.8113 0.5323
C49 C 0.4636(7) 0.8708(11) 0.4710(6)
H61 H 0.4899 0.9270 0.4558
H62 H 0.4337 0.8396 0.4400
C50 C 0.3724(7) 0.9767(11) 0.4841(6)
H63 H 0.3439 0.9280 0.4593
H64 H 0.3845 1.0397 0.4626
C51 C 0.3387(8) 1.0154(12) 0.5329(7)
H65 H 0.3632 1.0771 0.5515
H66 H 0.2953 1.0423 0.5181
C52 C 0.2899(8) 0.8476(12) 0.5503(6)
H67 H 0.2957 0.8332 0.5116
H68 H 0.2450 0.8707 0.5509
C53 C 0.3053(6) 0.7425(11) 0.5862(6)
H69 H 0.3155 0.7623 0.6257
H70 H 0.2678 0.6931 0.5816
C54 C 0.4216(6) 0.7240(11) 0.5963(5)
H71 H 0.4250 0.7073 0.6361
H72 H 0.4262 0.8037 0.5917
C55 C 0.4718(7) 0.6637(10) 0.5710(5)
H73 H 0.5141 0.6813 0.5924
H74 H 0.4645 0.5847 0.5754
C56 C 0.4196(7) 0.2546(11) 0.2913(5)
H75 H 0.4493 0.3173 0.2978
H76 H 0.4104 0.2405 0.2512
C57 C 0.4500(6) 0.1501(11) 0.3230(6)
C58 C 0.5118(7) 0.1202(12) 0.2445(6)
H77 H 0.5569 0.0968 0.2455
H78 H 0.5111 0.2008 0.2423
C59 C 0.4755(8) 0.0787(13) 0.1951(6)
H79 H 0.4986 0.0932 0.1635
H80 H 0.4704 -0.0011 0.1983
C60 C 0.3730(9) 0.0962(15) 0.1405(7)
H81 H 0.3954 0.0509 0.1158
H82 H 0.3558 0.1616 0.1197
C61 C 0.3198(8) 0.0337(14) 0.1577(7)
H83 H 0.2871 0.0184 0.1253
H84 H 0.2993 0.0767 0.1846
C62 C 0.3373(9) -0.0796(18) 0.2375(8)
H85 H 0.2910 -0.0902 0.2392
H86 H 0.3503 -0.0086 0.2548
C63 C 0.3764(8) -0.1724(13) 0.2701(9)
H87 H 0.3686 -0.2431 0.2509
H88 H 0.3654 -0.1790 0.3078
C64 C 0.4746(8) -0.0951(12) 0.3286(6)
H89 H 0.4389 -0.0690 0.3472
H90 H 0.4959 -0.1562 0.3504
C65 C 0.5182(7) -0.0116(12) 0.3261(6)
H91 H 0.5542 -0.0398 0.3084
H92 H 0.5359 0.0098 0.3643
C66? C 0.100(2) 0.782(5) 0.238(2)
H93? H 0.0640 0.8105 0.2118
H94? H 0.0837 0.7374 0.2657
H95? H 0.1255 0.8421 0.2554
C67? C 0.103(2) 0.620(4) 0.165(2)
H96? H 0.0657 0.6559 0.1449
H97? H 0.1296 0.5887 0.1393
H98? H 0.0893 0.5613 0.1881
C68? C 0.168(2) 0.820(2) 0.1790(17)
H99? H 0.1312 0.8564 0.1576
H100? H 0.1870 0.8674 0.2092
H101? H 0.2003 0.8044 0.1549
loop_
_geom_bond_atom_site_label_1
_geom_bond_atom_site_label_2
_geom_bond_site_symmetry_1
_geom_bond_site_symmetry_2
Cl1 C1 1_555 1_555
Cl2 C1 1_555 1_555
C1 H1 1_555 1_555
H2 C1 1_555 1_555
O1 C2 1_555 1_555
O2 H3 1_555 1_555
O3 C16 1_555 1_555
O4 H4 1_555 1_555
O5 C47 1_555 1_555
O6 C49 1_555 1_555
O7 C51 1_555 1_555
O8 C53 1_555 1_555
O9 C57 1_555 1_555
O10 C59 1_555 1_555
O11 C61 1_555 1_555
O12 C63 1_555 1_555
N1 C47 1_555 1_555
N2 C57 1_555 1_555
C2 C3 1_555 1_555
C3 C4 1_555 1_555
C4 H5 1_555 1_555
C5 C4 1_555 1_555
C6 C5 1_555 1_555
H6 C6 1_555 1_555
C7 C2 1_555 1_555
C8 C7 1_555 1_555
H7 C8 1_555 1_555
H8 C8 1_555 1_555
C9 O2 1_555 1_555
C10 C8 1_555 1_555
C11 C10 1_555 1_555
H9 C11 1_555 1_555
C12 C11 1_555 1_555
C13 C12 1_555 1_555
H10 C13 1_555 1_555
C14 C9 1_555 1_555
C15 C14 1_555 1_555
H11 C15 1_555 1_555
H12 C15 1_555 1_555
C16 C17 1_555 1_555
C17 C15 1_555 1_555
C18 C17 1_555 1_555
H13 C18 1_555 1_555
C19 C18 1_555 1_555
C20 C19 1_555 1_555
H14 C20 1_555 1_555
C21 C16 1_555 1_555
C22 C21 1_555 1_555
H15 C22 1_555 1_555
H16 C22 1_555 1_555
C23 O4 1_555 1_555
C24 C22 1_555 1_555
C25 C24 1_555 1_555
H17 C25 1_555 1_555
C26 C25 1_555 1_555
C27 C26 1_555 1_555
H18 C27 1_555 1_555
C28 C23 1_555 1_555
C29 C3 1_555 1_555
H19 C29 1_555 1_555
H20 C29 1_555 1_555
C30 C5 1_555 1_555
C31 C30 1_555 1_555
H21 C31 1_555 1_555
H22 C31 1_555 1_555
H23 C31 1_555 1_555
C32 C30 1_555 1_555
H24 C32 1_555 1_555
H25 C32 1_555 1_555
H26 C32 1_555 1_555
C33 C30 1_555 1_555
H27 C33 1_555 1_555
H28 C33 1_555 1_555
H29 C33 1_555 1_555
C34 C12 1_555 1_555
C35 C34 1_555 1_555
H30 C35 1_555 1_555
H31 C35 1_555 1_555
H32 C35 1_555 1_555
C36 C34 1_555 1_555
H33 C36 1_555 1_555
H34 C36 1_555 1_555
H35 C36 1_555 1_555
C37 C34 1_555 1_555
H36 C37 1_555 1_555
H37 C37 1_555 1_555
H38 C37 1_555 1_555
C38 C19 1_555 1_555
C39 C38 1_555 1_555
H39 C39 1_555 1_555
H40 C39 1_555 1_555
H41 C39 1_555 1_555
C40 C38 1_555 1_555
H42 C40 1_555 1_555
H43 C40 1_555 1_555
H44 C40 1_555 1_555
C41 C38 1_555 1_555
H45 C41 1_555 1_555
H46 C41 1_555 1_555
H47 C41 1_555 1_555
C42 C26 1_555 1_555
C43 C42 1_555 1_555
H48 C43 1_555 1_555
H49 C43 1_555 1_555
H50 C43 1_555 1_555
C44 C42 1_555 1_555
H51 C44 1_555 1_555
H52 C44 1_555 1_555
H53 C44 1_555 1_555
C45 C42 1_555 1_555
H54 C45 1_555 1_555
H55 C45 1_555 1_555
H56 C45 1_555 1_555
C46 O1 1_555 1_555
H57 C46 1_555 1_555
H58 C46 1_555 1_555
C47 C46 1_555 1_555
C48 N1 1_555 1_555
H59 C48 1_555 1_555
H60 C48 1_555 1_555
C49 C48 1_555 1_555
H61 C49 1_555 1_555
H62 C49 1_555 1_555
C50 O6 1_555 1_555
H63 C50 1_555 1_555
H64 C50 1_555 1_555
C51 C50 1_555 1_555
H65 C51 1_555 1_555
H66 C51 1_555 1_555
C52 O7 1_555 1_555
H67 C52 1_555 1_555
H68 C52 1_555 1_555
C53 C52 1_555 1_555
H69 C53 1_555 1_555
H70 C53 1_555 1_555
C54 O8 1_555 1_555
H71 C54 1_555 1_555
H72 C54 1_555 1_555
C55 N1 1_555 1_555
H73 C55 1_555 1_555
H74 C55 1_555 1_555
C56 O3 1_555 1_555
H75 C56 1_555 1_555
H76 C56 1_555 1_555
C57 C56 1_555 1_555
C58 N2 1_555 1_555
H77 C58 1_555 1_555
H78 C58 1_555 1_555
C59 C58 1_555 1_555
H79 C59 1_555 1_555
H80 C59 1_555 1_555
C60 O10 1_555 1_555
H81 C60 1_555 1_555
H82 C60 1_555 1_555
C61 C60 1_555 1_555
H83 C61 1_555 1_555
H84 C61 1_555 1_555
C62 O11 1_555 1_555
H85 C62 1_555 1_555
H86 C62 1_555 1_555
C63 C62 1_555 1_555
H87 C63 1_555 1_555
H88 C63 1_555 1_555
C64 O12 1_555 1_555
H89 C64 1_555 1_555
H90 C64 1_555 1_555
C65 N2 1_555 1_555
H91 C65 1_555 1_555
H92 C65 1_555 1_555
C6 C7 1_555 1_555
C9 C10 1_555 1_555
C13 C14 1_555 1_555
C20 C21 1_555 1_555
C23 C24 1_555 1_555
C27 C28 1_555 1_555
C28 C29 1_555 1_555
C54 C55 1_555 1_555
C64 C65 1_555 1_555

#END
