
#######################################################################
#
#                 Cambridge Crystallographic Data Centre
#                                CCDC 
#
#######################################################################
#
# If this CIF has been generated from an entry in the Cambridge 
# Structural Database, then it will include bibliographic, chemical, 
# crystal, experimental, refinement or atomic coordinate data resulting 
# from the CCDC's data processing and validation procedures.
#
#######################################################################

data_IYUTUS
_chemical_formula_moiety         'C20 H21 N5 O6 S1'
_chemical_name_systematic        
1-(2-(2,4-Dimethyl-6-nitro-5-(2-thienyl)cyclohex-2-en-1-yl)ethylidene)-2-(2,4-dinitrophenyl)hydrazine
_symmetry_cell_setting           orthorhombic
_symmetry_space_group_name_H-M   'P 21 21 21'
_symmetry_Int_Tables_number      19
_space_group_name_Hall           'P 2ac 2ab'
loop_
_symmetry_equiv_pos_site_id
_symmetry_equiv_pos_as_xyz
1 x,y,z
2 1/2-x,-y,1/2+z
3 1/2+x,1/2-y,-z
4 -x,1/2+y,1/2-z
_cell_length_a                   8.2844(15)
_cell_length_b                   12.026(2)
_cell_length_c                   21.694(4)
_cell_angle_alpha                90
_cell_angle_beta                 90
_cell_angle_gamma                90
_cell_volume                     2161.33
_exptl_crystal_colour            orange
_exptl_crystal_description       Prism
_cell_formula_units_Z            4
loop_
_atom_site_label
_atom_site_type_symbol
_atom_site_fract_x
_atom_site_fract_y
_atom_site_fract_z
S1 S 0.87423(6) 0.60797(4) 0.90879(2)
O1 O 0.78286(18) 0.95860(12) 0.87691(8)
O2 O 0.7322(2) 0.95368(13) 0.77923(8)
O3 O -0.13681(15) 0.80003(12) 0.66642(6)
O4 O -0.18283(14) 0.70512(11) 0.58349(6)
O5 O 0.47645(18) 0.58167(11) 0.48223(6)
O6 O 0.2239(2) 0.55065(12) 0.46199(7)
N1 N 0.28042(17) 0.88849(13) 0.73722(6)
N2 N 0.16120(19) 0.83819(14) 0.70245(7)
N3 N 0.70515(19) 0.92670(13) 0.83252(8)
N4 N -0.08907(17) 0.74769(13) 0.62082(7)
N5 N 0.3311(2) 0.59342(13) 0.49304(7)
C1 C 1.0063(2) 0.57129(15) 0.85166(9)
H1 H 1.0932 0.5206 0.8570
C2 C 0.9719(2) 0.62308(15) 0.79815(9)
H2 H 1.0329 0.6137 0.7614
C3 C 0.8336(2) 0.69372(15) 0.80277(8)
H3 H 0.7913 0.7351 0.7691
C4 C 0.7691(2) 0.69539(14) 0.86030(8)
C5 C 0.6209(2) 0.75214(13) 0.88470(7)
H4 H 0.6476 0.7823 0.9264
C6 C 0.5649(2) 0.84902(14) 0.84487(8)
H5 H 0.5242 0.8194 0.8047
C7 C 0.4300(2) 0.91650(14) 0.87582(8)
H6 H 0.4818 0.9652 0.9075
C8 C 0.3098(2) 0.84205(15) 0.90915(8)
C9 C 0.3323(2) 0.73370(16) 0.91509(8)
H7 H 0.2503 0.6924 0.9354
C10 C 0.4776(2) 0.67055(15) 0.89232(8)
H8 H 0.5082 0.6169 0.9255
C11 C 0.1664(2) 0.90024(19) 0.93745(9)
H9 H 0.1022 0.8465 0.9609
H10 H 0.0998 0.9327 0.9047
H11 H 0.2042 0.9593 0.9651
C12 C 0.4417(2) 0.60194(17) 0.83457(9)
H12 H 0.3578 0.5470 0.8439
H13 H 0.5401 0.5636 0.8212
H14 H 0.4041 0.6513 0.8016
C13 C 0.3470(2) 0.99421(15) 0.82773(8)
H15 H 0.2883 1.0538 0.8499
H16 H 0.4312 1.0299 0.8021
C14 C 0.2313(2) 0.93407(15) 0.78652(8)
H17 H 0.1203 0.9300 0.7974
C15 C 0.1993(2) 0.78400(14) 0.65006(8)
C16 C 0.0826(2) 0.73602(14) 0.61034(8)
C17 C 0.1266(2) 0.67473(14) 0.55882(7)
H18 H 0.0465 0.6419 0.5333
C18 C 0.2865(2) 0.66232(14) 0.54527(8)
C19 C 0.4060(2) 0.71153(14) 0.58164(8)
H19 H 0.5165 0.7038 0.5708
C20 C 0.3635(2) 0.77067(14) 0.63284(8)
H20 H 0.4455 0.8036 0.6574
H21 H 0.070(2) 0.8470(16) 0.7126(9)
loop_
_geom_bond_atom_site_label_1
_geom_bond_atom_site_label_2
_geom_bond_site_symmetry_1
_geom_bond_site_symmetry_2
S1 C1 1_555 1_555
O1 N3 1_555 1_555
O2 N3 1_555 1_555
O3 N4 1_555 1_555
O4 N4 1_555 1_555
O5 N5 1_555 1_555
O6 N5 1_555 1_555
N1 N2 1_555 1_555
N2 C15 1_555 1_555
N3 C6 1_555 1_555
N4 C16 1_555 1_555
N5 C18 1_555 1_555
C1 H1 1_555 1_555
C2 C1 1_555 1_555
H2 C2 1_555 1_555
C3 C2 1_555 1_555
H3 C3 1_555 1_555
C4 S1 1_555 1_555
C5 C4 1_555 1_555
H4 C5 1_555 1_555
C6 C5 1_555 1_555
H5 C6 1_555 1_555
C7 C6 1_555 1_555
H6 C7 1_555 1_555
C8 C7 1_555 1_555
C9 C8 1_555 1_555
H7 C9 1_555 1_555
C10 C5 1_555 1_555
H8 C10 1_555 1_555
C11 C8 1_555 1_555
H9 C11 1_555 1_555
H10 C11 1_555 1_555
H11 C11 1_555 1_555
C12 C10 1_555 1_555
H12 C12 1_555 1_555
H13 C12 1_555 1_555
H14 C12 1_555 1_555
C13 C7 1_555 1_555
H15 C13 1_555 1_555
H16 C13 1_555 1_555
C14 N1 1_555 1_555
H17 C14 1_555 1_555
C15 C16 1_555 1_555
C16 C17 1_555 1_555
C17 H18 1_555 1_555
C18 C17 1_555 1_555
C19 C18 1_555 1_555
H19 C19 1_555 1_555
C20 C15 1_555 1_555
H20 C20 1_555 1_555
H21 N2 1_555 1_555
C3 C4 1_555 1_555
C9 C10 1_555 1_555
C13 C14 1_555 1_555
C19 C20 1_555 1_555

#END
