
#######################################################################
#
#                 Cambridge Crystallographic Data Centre
#                                CCDC 
#
#######################################################################
#
# If this CIF has been generated from an entry in the Cambridge 
# Structural Database, then it will include bibliographic, chemical, 
# crystal, experimental, refinement or atomic coordinate data resulting 
# from the CCDC's data processing and validation procedures.
#
#######################################################################

data_IYUVOO
_chemical_formula_moiety         'C22 H23 Br1 N2 O3 S1'
_chemical_name_systematic        
11-Bromo-3-((4-methylphenyl)sulfonyl)-1,2,3,4,4a,5,7a,8-octahydropyrido[3,4-d]carbazol-6(7H)-one
_symmetry_cell_setting           monoclinic
_symmetry_space_group_name_H-M   'P 21'
_symmetry_Int_Tables_number      4
_space_group_name_Hall           'P 2yb'
loop_
_symmetry_equiv_pos_site_id
_symmetry_equiv_pos_as_xyz
1 x,y,z
2 -x,1/2+y,-z
_cell_length_a                   11.1740(17)
_cell_length_b                   8.2575(12)
_cell_length_c                   11.6714(17)
_cell_angle_alpha                90
_cell_angle_beta                 102.291(3)
_cell_angle_gamma                90
_cell_volume                     1052.23
_exptl_crystal_colour            colorless
_exptl_crystal_description       block
_cell_formula_units_Z            2
loop_
_atom_site_label
_atom_site_type_symbol
_atom_site_fract_x
_atom_site_fract_y
_atom_site_fract_z
Br1 Br 0.316732(19) 0.24298(4) 1.173602(16)
S1 S 0.06418(4) 0.77791(6) 0.74146(5)
N1 N 0.43403(15) 0.1466(2) 0.69804(16)
H1 H 0.5026 0.1253 0.6754
N2 N 0.12881(16) 0.6176(2) 0.69580(18)
O1 O 0.46287(17) 0.4166(2) 0.44570(16)
O2 O 0.12581(16) 0.9170(2) 0.70953(16)
O3 O -0.06555(12) 0.7613(2) 0.69892(13)
C1 C 0.26154(17) 0.3117(3) 0.69311(18)
C2 C 0.32086(17) 0.4794(3) 0.67894(17)
H2 H 0.4088 0.4718 0.7201
C3 C 0.3191(2) 0.5227(3) 0.5511(2)
H3 H 0.2334 0.5384 0.5083
H4 H 0.3637 0.6257 0.5481
C4 C 0.3777(2) 0.3910(3) 0.4930(2)
C5 C 0.32411(18) 0.2261(4) 0.49836(17)
H5 H 0.3760 0.1456 0.4690
H6 H 0.2417 0.2228 0.4463
C6 C 0.31387(18) 0.1796(3) 0.62262(18)
H7 H 0.2621 0.0801 0.6187
C7 C 0.12196(18) 0.3233(3) 0.6546(2)
H8 H 0.0999 0.3363 0.5684
H9 H 0.0854 0.2205 0.6743
C8 C 0.06680(18) 0.4628(3) 0.7112(2)
H10 H -0.0216 0.4719 0.6753
H11 H 0.0751 0.4407 0.7959
C9 C 0.26302(18) 0.6106(3) 0.7410(2)
H12 H 0.2804 0.5882 0.8263
H13 H 0.2997 0.7168 0.7290
C10 C 0.31433(15) 0.2503(3) 0.81793(16)
C11 C 0.28327(17) 0.2777(2) 0.92486(18)
H14 H 0.2141 0.3418 0.9303
C12 C 0.35693(18) 0.2080(3) 1.02480(18)
C13 C 0.45820(19) 0.1158(3) 1.0194(2)
H15 H 0.5062 0.0705 1.0890
C14 C 0.49033(19) 0.0887(3) 0.9128(2)
H16 H 0.5603 0.0256 0.9083
C15 C 0.41776(17) 0.1560(3) 0.81232(19)
C16 C 0.09674(17) 0.7644(3) 0.89566(18)
C17 C 0.02079(19) 0.6771(3) 0.9525(2)
H17 H -0.0533 0.6319 0.9091
C18 C 0.0534(2) 0.6562(3) 1.0731(2)
H18 H 0.0006 0.5978 1.1121
C19 C 0.16313(18) 0.7200(3) 1.1377(2)
C20 C 0.2362(2) 0.8099(3) 1.0791(2)
H19 H 0.3098 0.8564 1.1225
C21 C 0.2048(2) 0.8334(3) 0.9593(2)
H20 H 0.2559 0.8957 0.9208
C22 C 0.2013(2) 0.6896(4) 1.2671(2)
H21 H 0.2875 0.6567 1.2865
H22 H 0.1505 0.6034 1.2895
H23 H 0.1907 0.7890 1.3098
loop_
_geom_bond_atom_site_label_1
_geom_bond_atom_site_label_2
_geom_bond_site_symmetry_1
_geom_bond_site_symmetry_2
Br1 C12 1_555 1_555
S1 N2 1_555 1_555
N1 H1 1_555 1_555
N2 C8 1_555 1_555
O1 C4 1_555 1_555
O2 S1 1_555 1_555
O3 S1 1_555 1_555
C1 C2 1_555 1_555
C2 H2 1_555 1_555
C3 C2 1_555 1_555
H3 C3 1_555 1_555
H4 C3 1_555 1_555
C4 C3 1_555 1_555
C5 C4 1_555 1_555
H5 C5 1_555 1_555
H6 C5 1_555 1_555
C6 N1 1_555 1_555
H7 C6 1_555 1_555
C7 C1 1_555 1_555
H8 C7 1_555 1_555
H9 C7 1_555 1_555
C8 C7 1_555 1_555
H10 C8 1_555 1_555
H11 C8 1_555 1_555
C9 N2 1_555 1_555
H12 C9 1_555 1_555
H13 C9 1_555 1_555
C10 C1 1_555 1_555
C11 C10 1_555 1_555
H14 C11 1_555 1_555
C12 C11 1_555 1_555
C13 C12 1_555 1_555
H15 C13 1_555 1_555
C14 C13 1_555 1_555
H16 C14 1_555 1_555
C15 N1 1_555 1_555
C16 S1 1_555 1_555
C17 C16 1_555 1_555
H17 C17 1_555 1_555
C18 C17 1_555 1_555
H18 C18 1_555 1_555
C19 C18 1_555 1_555
C20 C19 1_555 1_555
H19 C20 1_555 1_555
C21 C16 1_555 1_555
H20 C21 1_555 1_555
C22 C19 1_555 1_555
H21 C22 1_555 1_555
H22 C22 1_555 1_555
H23 C22 1_555 1_555
C1 C6 1_555 1_555
C2 C9 1_555 1_555
C5 C6 1_555 1_555
C10 C15 1_555 1_555
C14 C15 1_555 1_555
C20 C21 1_555 1_555

#END
