
#######################################################################
#
#                 Cambridge Crystallographic Data Centre
#                                CCDC 
#
#######################################################################
#
# If this CIF has been generated from an entry in the Cambridge 
# Structural Database, then it will include bibliographic, chemical, 
# crystal, experimental, refinement or atomic coordinate data resulting 
# from the CCDC's data processing and validation procedures.
#
#######################################################################

data_IYUWAB
_chemical_formula_moiety         'C18 H23 N1 O1'
_chemical_name_systematic        
rac-7,12-Dimethyl-1,2,3,4,4a,5,7a,8-octahydrobenzo[d]carbazol-6(7H)-one
_symmetry_cell_setting           monoclinic
_symmetry_space_group_name_H-M   'C 2'
_symmetry_Int_Tables_number      5
_space_group_name_Hall           'C 2y'
loop_
_symmetry_equiv_pos_site_id
_symmetry_equiv_pos_as_xyz
1 x,y,z
2 -x,y,-z
3 1/2+x,1/2+y,z
4 1/2-x,1/2+y,-z
_cell_length_a                   55.790(3)
_cell_length_b                   10.2021(5)
_cell_length_c                   13.5968(7)
_cell_angle_alpha                90
_cell_angle_beta                 101.1470(10)
_cell_angle_gamma                90
_cell_volume                     7592.96
_exptl_crystal_colour            colorless
_exptl_crystal_description       prismatic
_cell_formula_units_Z            20
loop_
_atom_site_label
_atom_site_type_symbol
_atom_site_fract_x
_atom_site_fract_y
_atom_site_fract_z
N1 N 0.18936(4) 0.9613(2) 0.35916(15)
O1 O 0.18532(4) 1.2836(2) 0.61614(13)
C1 C 0.18221(4) 0.8485(3) 0.40472(17)
C2 C 0.16530(4) 0.7552(3) 0.3618(2)
H1 H 0.1560 0.7669 0.2979
C3 C 0.16275(5) 0.6449(3) 0.4167(2)
H2 H 0.1516 0.5808 0.3893
C4 C 0.17649(5) 0.6273(3) 0.5120(2)
H3 H 0.1744 0.5513 0.5472
C5 C 0.19338(4) 0.7209(2) 0.55655(17)
C6 C 0.19600(4) 0.8330(2) 0.50113(16)
C7 C 0.21460(4) 0.9449(2) 0.51832(14)
C8 C 0.23807(4) 0.8938(3) 0.48700(17)
H4 H 0.2436 0.8164 0.5264
H5 H 0.2341 0.8673 0.4172
C9 C 0.25899(4) 0.9916(3) 0.49952(18)
H6 H 0.2733 0.9495 0.4836
H7 H 0.2546 1.0639 0.4533
C10 C 0.26484(4) 1.0435(3) 0.60544(18)
H8 H 0.2774 1.1100 0.6107
H9 H 0.2710 0.9729 0.6511
C11 C 0.24209(4) 1.1022(3) 0.63452(17)
H10 H 0.2368 1.1770 0.5919
H11 H 0.2461 1.1331 0.7032
C12 C 0.22118(4) 1.0037(2) 0.62500(15)
H12 H 0.2267 0.9315 0.6715
C13 C 0.19873(4) 1.0653(3) 0.65575(17)
H13 H 0.1862 0.9990 0.6544
H14 H 0.2031 1.0986 0.7237
C14 C 0.18894(4) 1.1744(3) 0.58647(17)
C15 C 0.18326(4) 1.1394(2) 0.47688(16)
H15 H 0.1678 1.0911 0.4669
C16 C 0.20169(4) 1.0461(2) 0.44031(15)
H16 H 0.2141 1.0985 0.4161
C17 C 0.20761(5) 0.6956(3) 0.66059(18)
H17 H 0.2247 0.7061 0.6613
H18 H 0.2045 0.6078 0.6804
H19 H 0.2026 0.7567 0.7065
C18 C 0.17818(5) 1.2601(3) 0.41033(19)
H20 H 0.1650 1.3092 0.4284
H21 H 0.1738 1.2334 0.3415
H22 H 0.1926 1.3138 0.4191
H114 H 0.1786(5) 0.997(3) 0.316(2)
N2 N 0.19781(4) 0.4063(2) 0.82895(15)
O2 O 0.17694(4) 0.1497(2) 1.09545(18)
C19 C 0.22328(4) 0.4100(2) 0.84945(16)
C20 C 0.23873(5) 0.3995(3) 0.78197(18)
H23 H 0.2326 0.3841 0.7143
C21 C 0.26345(5) 0.4123(3) 0.8176(2)
H24 H 0.2742 0.4068 0.7734
C22 C 0.27235(4) 0.4334(3) 0.91777(19)
H25 H 0.2891 0.4400 0.9402
C23 C 0.25699(4) 0.4451(2) 0.98698(16)
C24 C 0.23208(4) 0.4346(2) 0.95101(16)
C25 C 0.20965(4) 0.4629(2) 0.99744(15)
C26 C 0.20488(4) 0.6121(3) 0.98468(18)
H26 H 0.2193 0.6587 1.0187
H27 H 0.2025 0.6336 0.9140
C27 C 0.18287(5) 0.6610(3) 1.0249(2)
H28 H 0.1818 0.7556 1.0185
H29 H 0.1681 0.6239 0.9854
C28 C 0.18472(5) 0.6235(3) 1.1327(2)
H30 H 0.1700 0.6502 1.1554
H31 H 0.1985 0.6682 1.1735
C29 C 0.18803(5) 0.4765(3) 1.14476(19)
H32 H 0.1736 0.4330 1.1077
H33 H 0.1894 0.4540 1.2150
C30 C 0.21056(4) 0.4255(3) 1.10799(16)
H34 H 0.2250 0.4677 1.1482
C31 C 0.21326(5) 0.2784(3) 1.1244(2)
H35 H 0.2283 0.2481 1.1062
H36 H 0.2138 0.2577 1.1945
C32 C 0.19169(5) 0.2123(3) 1.0602(2)
C33 C 0.18949(4) 0.2367(3) 0.9497(2)
H37 H 0.2041 0.1983 0.9312
C34 C 0.19005(4) 0.3844(2) 0.92458(16)
H38 H 0.1739 0.4231 0.9225
C35 C 0.26815(4) 0.4683(3) 1.09559(18)
H39 H 0.2623 0.5499 1.1170
H40 H 0.2856 0.4716 1.1035
H41 H 0.2636 0.3982 1.1355
C36 C 0.16764(5) 0.1665(3) 0.8860(2)
H42 H 0.1688 0.0741 0.8994
H43 H 0.1676 0.1819 0.8163
H44 H 0.1528 0.1996 0.9024
H113 H 0.1910(4) 0.357(3) 0.7786(17)
N3 N 0.06322(4) 0.6983(2) 0.71616(17)
O3 O 0.12518(3) 0.4138(2) 0.88433(15)
C37 C 0.05800(4) 0.6467(3) 0.61990(19)
C38 C 0.03532(4) 0.6180(3) 0.5630(2)
H45 H 0.0211 0.6314 0.5879
C39 C 0.03443(5) 0.5689(3) 0.4680(2)
H46 H 0.0194 0.5460 0.4290
C40 C 0.05521(5) 0.5533(3) 0.4298(2)
H47 H 0.0539 0.5216 0.3648
C41 C 0.07831(4) 0.5836(3) 0.48571(18)
C42 C 0.07947(4) 0.6272(2) 0.58361(17)
C43 C 0.10071(4) 0.6727(2) 0.66552(17)
C44 C 0.10501(5) 0.8193(3) 0.64464(19)
H48 H 0.1089 0.8273 0.5783
H49 H 0.0900 0.8671 0.6445
C45 C 0.12544(5) 0.8831(3) 0.7203(2)
H50 H 0.1278 0.9726 0.7001
H51 H 0.1209 0.8854 0.7856
C46 C 0.14910(5) 0.8073(3) 0.7272(2)
H52 H 0.1544 0.8111 0.6634
H53 H 0.1617 0.8464 0.7778
C47 C 0.14523(4) 0.6663(3) 0.7541(2)
H54 H 0.1409 0.6634 0.8199
H55 H 0.1604 0.6187 0.7578
C48 C 0.12520(4) 0.5982(3) 0.67871(19)
H56 H 0.1303 0.5979 0.6137
C49 C 0.12267(5) 0.4558(3) 0.7096(2)
H57 H 0.1114 0.4100 0.6578
H58 H 0.1384 0.4122 0.7184
C50 C 0.11343(5) 0.4538(3) 0.8056(2)
C51 C 0.08866(4) 0.5143(3) 0.79731(18)
H59 H 0.0776 0.4643 0.7462
C52 C 0.08837(4) 0.6571(3) 0.75872(18)
H60 H 0.0958 0.7165 0.8126
C53 C 0.10035(5) 0.5692(3) 0.4376(2)
H61 H 0.1100 0.6476 0.4484
H62 H 0.0951 0.5549 0.3669
H63 H 0.1100 0.4960 0.4668
C54 C 0.07878(5) 0.5026(3) 0.8938(2)
H64 H 0.0786 0.4121 0.9128
H65 H 0.0625 0.5373 0.8833
H66 H 0.0891 0.5511 0.9461
H112 H 0.0532(4) 0.679(3) 0.7566(17)
N4 N 0.04661(5) -0.0192(3) 0.95208(18)
O4 O 0.08530(4) 0.1787(3) 0.70599(14)
C55 C 0.03170(5) -0.1170(3) 0.90066(19)
C56 C 0.02849(6) -0.2424(3) 0.9339(2)
H67 H 0.0376 -0.2727 0.9943
C57 C 0.01150(6) -0.3217(3) 0.8752(2)
H68 H 0.0089 -0.4063 0.8963
C58 C -0.00174(5) -0.2762(3) 0.7850(2)
H69 H -0.0130 -0.3317 0.7461
C59 C 0.00130(5) -0.1492(3) 0.7507(2)
C60 C 0.01853(4) -0.0696(3) 0.81027(18)
C61 C 0.02444(4) 0.0760(3) 0.80460(17)
C62 C 0.00484(5) 0.1483(3) 0.8507(2)
H70 H -0.0112 0.1240 0.8135
H71 H 0.0060 0.1182 0.9191
C63 C 0.00689(6) 0.2973(3) 0.8515(3)
H72 H -0.0068 0.3351 0.8758
H73 H 0.0218 0.3237 0.8964
C64 C 0.00711(7) 0.3476(3) 0.7476(3)
H74 H 0.0093 0.4419 0.7496
H75 H -0.0084 0.3283 0.7041
C65 C 0.02754(6) 0.2841(3) 0.7066(2)
H76 H 0.0430 0.3082 0.7485
H77 H 0.0274 0.3177 0.6397
C66 C 0.02554(5) 0.1357(3) 0.70203(18)
H78 H 0.0102 0.1138 0.6564
C67 C 0.04648(5) 0.0768(3) 0.65808(18)
H79 H 0.0445 -0.0174 0.6510
H80 H 0.0466 0.1140 0.5925
C68 C 0.06991(5) 0.1085(3) 0.72868(19)
C69 C 0.07181(4) 0.0498(3) 0.83054(17)
H81 H 0.0720 -0.0456 0.8218
C70 C 0.04957(4) 0.0809(3) 0.87746(17)
H82 H 0.0517 0.1671 0.9098
C71 C -0.01431(5) -0.1060(3) 0.6528(2)
H83 H -0.0041 -0.0911 0.6044
H84 H -0.0227 -0.0264 0.6630
H85 H -0.0261 -0.1730 0.6286
C72 C 0.09565(5) 0.0857(3) 0.9013(2)
H86 H 0.1093 0.0586 0.8724
H87 H 0.0964 0.0423 0.9645
H88 H 0.0963 0.1789 0.9116
H115 H 0.0589(5) -0.046(3) 0.990(2)
N5 N 0.13706(4) 0.0937(2) 0.21192(15)
O5 O 0.07330(4) 0.4181(3) 0.1504(2)
C73 C 0.12522(4) -0.0189(3) 0.16729(16)
C74 C 0.13367(5) -0.1053(3) 0.10455(19)
H89 H 0.1482 -0.0898 0.0825
C75 C 0.11994(5) -0.2156(3) 0.0753(2)
H90 H 0.1250 -0.2745 0.0313
C76 C 0.09875(5) -0.2404(3) 0.1102(2)
H91 H 0.0901 -0.3171 0.0908
C77 C 0.09004(5) -0.1532(3) 0.17400(18)
C78 C 0.10343(4) -0.0389(2) 0.20103(16)
C79 C 0.10097(4) 0.0698(3) 0.27518(16)
C80 C 0.11212(5) 0.0157(3) 0.38095(17)
H92 H 0.1034 -0.0631 0.3927
H93 H 0.1290 -0.0084 0.3825
C81 C 0.11120(7) 0.1126(4) 0.4650(2)
H94 H 0.1215 0.1874 0.4583
H95 H 0.1174 0.0712 0.5291
C82 C 0.08508(8) 0.1585(4) 0.4619(3)
H96 H 0.0848 0.2225 0.5144
H97 H 0.0750 0.0848 0.4733
C83 C 0.07496(6) 0.2197(3) 0.3600(3)
H98 H 0.0583 0.2481 0.3584
H99 H 0.0846 0.2966 0.3511
C84 C 0.07528(5) 0.1258(3) 0.2739(2)
H100 H 0.0645 0.0521 0.2815
C85 C 0.06492(5) 0.1930(3) 0.1749(2)
H101 H 0.0642 0.1313 0.1202
H102 H 0.0484 0.2232 0.1752
C86 C 0.08074(5) 0.3068(3) 0.1602(2)
C87 C 0.10680(4) 0.2710(3) 0.16015(18)
H103 H 0.1067 0.2250 0.0968
C88 C 0.11823(4) 0.1749(3) 0.24453(16)
H104 H 0.1257 0.2252 0.3040
C89 C 0.06689(5) -0.1891(3) 0.2100(2)
H105 H 0.0541 -0.1289 0.1824
H106 H 0.0698 -0.1848 0.2819
H107 H 0.0621 -0.2765 0.1886
C90 C 0.12294(5) 0.3911(3) 0.1590(2)
H108 H 0.1169 0.4423 0.1002
H109 H 0.1394 0.3637 0.1584
H110 H 0.1227 0.4430 0.2177
H111 H 0.1456(4) 0.137(2) 0.1785(16)
loop_
_geom_bond_atom_site_label_1
_geom_bond_atom_site_label_2
_geom_bond_site_symmetry_1
_geom_bond_site_symmetry_2
N1 C1 1_555 1_555
N2 C19 1_555 1_555
N3 C37 1_555 1_555
N4 C55 1_555 1_555
N5 C73 1_555 1_555
O1 C14 1_555 1_555
O2 C32 1_555 1_555
O3 C50 1_555 1_555
O4 C68 1_555 1_555
O5 C86 1_555 1_555
C1 C2 1_555 1_555
C2 H1 1_555 1_555
C3 C2 1_555 1_555
H2 C3 1_555 1_555
C4 C3 1_555 1_555
H3 C4 1_555 1_555
C5 C4 1_555 1_555
C6 C1 1_555 1_555
C7 C6 1_555 1_555
C8 C7 1_555 1_555
H4 C8 1_555 1_555
H5 C8 1_555 1_555
C9 C8 1_555 1_555
H6 C9 1_555 1_555
H7 C9 1_555 1_555
C10 C9 1_555 1_555
H8 C10 1_555 1_555
H9 C10 1_555 1_555
C11 C10 1_555 1_555
H10 C11 1_555 1_555
H11 C11 1_555 1_555
C12 C7 1_555 1_555
H12 C12 1_555 1_555
C13 C12 1_555 1_555
H13 C13 1_555 1_555
H14 C13 1_555 1_555
C14 C13 1_555 1_555
C15 C14 1_555 1_555
H15 C15 1_555 1_555
C16 N1 1_555 1_555
H16 C16 1_555 1_555
C17 C5 1_555 1_555
H17 C17 1_555 1_555
H18 C17 1_555 1_555
H19 C17 1_555 1_555
C18 C15 1_555 1_555
H20 C18 1_555 1_555
H21 C18 1_555 1_555
H22 C18 1_555 1_555
C19 C20 1_555 1_555
C20 H23 1_555 1_555
C21 C20 1_555 1_555
H24 C21 1_555 1_555
C22 C21 1_555 1_555
H25 C22 1_555 1_555
C23 C22 1_555 1_555
C24 C19 1_555 1_555
C25 C24 1_555 1_555
C26 C25 1_555 1_555
H26 C26 1_555 1_555
H27 C26 1_555 1_555
C27 C26 1_555 1_555
H28 C27 1_555 1_555
H29 C27 1_555 1_555
C28 C27 1_555 1_555
H30 C28 1_555 1_555
H31 C28 1_555 1_555
C29 C28 1_555 1_555
H32 C29 1_555 1_555
H33 C29 1_555 1_555
C30 C25 1_555 1_555
H34 C30 1_555 1_555
C31 C30 1_555 1_555
H35 C31 1_555 1_555
H36 C31 1_555 1_555
C32 C31 1_555 1_555
C33 C32 1_555 1_555
H37 C33 1_555 1_555
C34 N2 1_555 1_555
H38 C34 1_555 1_555
C35 C23 1_555 1_555
H39 C35 1_555 1_555
H40 C35 1_555 1_555
H41 C35 1_555 1_555
C36 C33 1_555 1_555
H42 C36 1_555 1_555
H43 C36 1_555 1_555
H44 C36 1_555 1_555
C37 C38 1_555 1_555
C38 H45 1_555 1_555
C39 C38 1_555 1_555
H46 C39 1_555 1_555
C40 C39 1_555 1_555
H47 C40 1_555 1_555
C41 C40 1_555 1_555
C42 C37 1_555 1_555
C43 C42 1_555 1_555
C44 C43 1_555 1_555
H48 C44 1_555 1_555
H49 C44 1_555 1_555
C45 C44 1_555 1_555
H50 C45 1_555 1_555
H51 C45 1_555 1_555
C46 C45 1_555 1_555
H52 C46 1_555 1_555
H53 C46 1_555 1_555
C47 C46 1_555 1_555
H54 C47 1_555 1_555
H55 C47 1_555 1_555
C48 C43 1_555 1_555
H56 C48 1_555 1_555
C49 C48 1_555 1_555
H57 C49 1_555 1_555
H58 C49 1_555 1_555
C50 C49 1_555 1_555
C51 C50 1_555 1_555
H59 C51 1_555 1_555
C52 N3 1_555 1_555
H60 C52 1_555 1_555
C53 C41 1_555 1_555
H61 C53 1_555 1_555
H62 C53 1_555 1_555
H63 C53 1_555 1_555
C54 C51 1_555 1_555
H64 C54 1_555 1_555
H65 C54 1_555 1_555
H66 C54 1_555 1_555
C55 C56 1_555 1_555
C56 H67 1_555 1_555
C57 C56 1_555 1_555
H68 C57 1_555 1_555
C58 C57 1_555 1_555
H69 C58 1_555 1_555
C59 C58 1_555 1_555
C60 C55 1_555 1_555
C61 C60 1_555 1_555
C62 C61 1_555 1_555
H70 C62 1_555 1_555
H71 C62 1_555 1_555
C63 C62 1_555 1_555
H72 C63 1_555 1_555
H73 C63 1_555 1_555
C64 C63 1_555 1_555
H74 C64 1_555 1_555
H75 C64 1_555 1_555
C65 C64 1_555 1_555
H76 C65 1_555 1_555
H77 C65 1_555 1_555
C66 C61 1_555 1_555
H78 C66 1_555 1_555
C67 C66 1_555 1_555
H79 C67 1_555 1_555
H80 C67 1_555 1_555
C68 C67 1_555 1_555
C69 C68 1_555 1_555
H81 C69 1_555 1_555
C70 N4 1_555 1_555
H82 C70 1_555 1_555
C71 C59 1_555 1_555
H83 C71 1_555 1_555
H84 C71 1_555 1_555
H85 C71 1_555 1_555
C72 C69 1_555 1_555
H86 C72 1_555 1_555
H87 C72 1_555 1_555
H88 C72 1_555 1_555
C73 C74 1_555 1_555
C74 H89 1_555 1_555
C75 C74 1_555 1_555
H90 C75 1_555 1_555
C76 C75 1_555 1_555
H91 C76 1_555 1_555
C77 C76 1_555 1_555
C78 C73 1_555 1_555
C79 C78 1_555 1_555
C80 C79 1_555 1_555
H92 C80 1_555 1_555
H93 C80 1_555 1_555
C81 C80 1_555 1_555
H94 C81 1_555 1_555
H95 C81 1_555 1_555
C82 C81 1_555 1_555
H96 C82 1_555 1_555
H97 C82 1_555 1_555
C83 C82 1_555 1_555
H98 C83 1_555 1_555
H99 C83 1_555 1_555
C84 C79 1_555 1_555
H100 C84 1_555 1_555
C85 C84 1_555 1_555
H101 C85 1_555 1_555
H102 C85 1_555 1_555
C86 C85 1_555 1_555
C87 C86 1_555 1_555
H103 C87 1_555 1_555
C88 N5 1_555 1_555
H104 C88 1_555 1_555
C89 C77 1_555 1_555
H105 C89 1_555 1_555
H106 C89 1_555 1_555
H107 C89 1_555 1_555
C90 C87 1_555 1_555
H108 C90 1_555 1_555
H109 C90 1_555 1_555
H110 C90 1_555 1_555
H111 N5 1_555 1_555
H112 N3 1_555 1_555
H113 N2 1_555 1_555
H114 N1 1_555 1_555
H115 N4 1_555 1_555
C5 C6 1_555 1_555
C7 C16 1_555 1_555
C11 C12 1_555 1_555
C15 C16 1_555 1_555
C23 C24 1_555 1_555
C25 C34 1_555 1_555
C29 C30 1_555 1_555
C33 C34 1_555 1_555
C41 C42 1_555 1_555
C43 C52 1_555 1_555
C47 C48 1_555 1_555
C51 C52 1_555 1_555
C59 C60 1_555 1_555
C61 C70 1_555 1_555
C65 C66 1_555 1_555
C69 C70 1_555 1_555
C77 C78 1_555 1_555
C79 C88 1_555 1_555
C83 C84 1_555 1_555
C87 C88 1_555 1_555

#END
