
#######################################################################
#
#                 Cambridge Crystallographic Data Centre
#                                CCDC 
#
#######################################################################
#
# If this CIF has been generated from an entry in the Cambridge 
# Structural Database, then it will include bibliographic, chemical, 
# crystal, experimental, refinement or atomic coordinate data resulting 
# from the CCDC's data processing and validation procedures.
#
#######################################################################

data_IYUYOS
_chemical_formula_moiety         'C128 H168 O12,C6 H12'
_chemical_name_systematic        
"(P)-2,8,14,20-tetra-n-hexyl-5,11,17,23-tetrakis(3,5-di-tert-butyl-8-hydroxy-8-methylnona-3,4-diene-1,6-diyn-1-yl)-4,24:6,10:12,16:18,22-O,O'-tetramethylenecalix[4]resorcinarene cyclohexane clathrate"
_symmetry_cell_setting           orthorhombic
_symmetry_space_group_name_H-M   'P 21 21 21'
_symmetry_Int_Tables_number      19
_space_group_name_Hall           'P 2ac 2ab'
loop_
_symmetry_equiv_pos_site_id
_symmetry_equiv_pos_as_xyz
1 x,y,z
2 1/2+x,1/2-y,-z
3 -x,1/2+y,1/2-z
4 1/2-x,-y,1/2+z
_cell_length_a                   15.6442(3)
_cell_length_b                   18.7259(3)
_cell_length_c                   43.2790(7)
_cell_angle_alpha                90
_cell_angle_beta                 90
_cell_angle_gamma                90
_cell_volume                     12678.7
_exptl_crystal_colour            colorless
_exptl_crystal_description       plate
_cell_formula_units_Z            4
_exptl_crystal_recrystallization_method acetonitrile/cyclohexane/water
loop_
_atom_site_label
_atom_site_type_symbol
_atom_site_fract_x
_atom_site_fract_y
_atom_site_fract_z
O1 O 0.16628(18) 0.88671(12) 0.96560(6)
H1 H 0.1668 0.9274 0.9574
O2 O 0.67390(15) 0.83654(11) 0.84854(5)
O3 O 0.57342(17) 0.74900(12) 0.83448(5)
O4 O 0.28941(16) 0.75256(12) 0.79527(6)
O5 O 0.67283(15) 1.09089(11) 0.84650(5)
O6 O 0.57112(15) 1.17696(11) 0.83185(5)
O7 O 0.28987(15) 1.17841(12) 0.79016(6)
O8 O 0.18869(15) 1.09286(12) 0.77407(6)
C1 C 0.3742(3) 1.0999(3) 1.03096(10)
H2 H 0.3936 1.0526 1.0376
H3 H 0.3141 1.1064 1.0368
H4 H 0.4090 1.1368 1.0409
C2 C 0.3830(2) 1.10612(19) 0.99617(9)
C3 C 0.4730(2) 1.09544(18) 0.98707(8)
C4 C 0.5471(2) 1.08912(18) 0.97992(8)
C5 C 0.6356(2) 1.08299(18) 0.97075(7)
C6 C 0.6607(2) 1.02533(18) 0.95589(7)
C7 C 0.6900(2) 0.96989(18) 0.94099(7)
C8 C 0.6837(2) 0.96830(17) 0.90783(7)
C9 C 0.6771(2) 0.96548(18) 0.88027(7)
C10 C 0.6685(2) 0.96381(18) 0.84740(7)
C11 C 0.6639(2) 0.89872(17) 0.83156(7)
C12 C 0.6525(2) 0.89654(17) 0.79956(7)
C13 C 0.6424(2) 0.82499(17) 0.78294(8)
H5 H 0.6752 0.7888 0.7951
C14 C 0.5480(2) 0.80447(17) 0.78501(8)
C15 C 0.4886(2) 0.82108(17) 0.76187(8)
H6 H 0.5083 0.8436 0.7435
C16 C 0.4020(2) 0.80599(17) 0.76459(8)
C17 C 0.3368(3) 0.82574(18) 0.73994(8)
H7 H 0.2899 0.7896 0.7412
C18 C 0.2976(2) 0.89754(17) 0.74832(7)
C19 C 0.2275(2) 0.90054(17) 0.76806(8)
C20 C 0.1907(2) 0.96557(19) 0.77703(7)
C21 C 0.1211(2) 0.96745(19) 0.79808(8)
C22 C 0.0647(2) 0.96744(19) 0.81690(8)
C23 C -0.0019(2) 0.9679(2) 0.83969(8)
C24 C -0.0112(2) 0.9106(2) 0.85697(8)
C25 C -0.0170(2) 0.85154(19) 0.87316(8)
C26 C 0.0346(2) 0.84572(19) 0.90063(9)
C27 C 0.0841(3) 0.84279(19) 0.92182(9)
C28 C 0.1597(3) 0.83300(18) 0.94187(8)
C29 C 0.2389(3) 0.8372(2) 0.92117(9)
H8 H 0.2414 0.8842 0.9113
H9 H 0.2356 0.8001 0.9052
H10 H 0.2903 0.8298 0.9337
C30 C 0.1552(3) 0.76231(19) 0.95899(9)
H11 H 0.2063 0.7566 0.9718
H12 H 0.1521 0.7231 0.9440
H13 H 0.1042 0.7616 0.9721
C31 C 0.5980(2) 0.80015(18) 0.85694(8)
H14 H 0.5513 0.8353 0.8596
H15 H 0.6069 0.7758 0.8770
C32 C 0.5177(2) 0.77162(17) 0.81155(8)
C33 C 0.4307(2) 0.75534(17) 0.81541(8)
C34 C 0.3742(2) 0.77307(17) 0.79176(8)
C35 C 0.2301(3) 0.80572(19) 0.80441(8)
H16 H 0.1861 0.7837 0.8179
H17 H 0.2602 0.8426 0.8167
O9 O 0.18932(16) 0.83872(12) 0.77896(6)
C36 C 0.4012(2) 0.72165(17) 0.84307(8)
C37 C 0.3771(2) 0.69434(18) 0.86649(8)
C38 C 0.3448(2) 0.65892(17) 0.89356(8)
C39 C 0.2689(2) 0.60802(18) 0.88915(8)
C40 C 0.2976(3) 0.54986(19) 0.86629(9)
H18 H 0.3168 0.5723 0.8470
H19 H 0.2496 0.5178 0.8619
H20 H 0.3448 0.5225 0.8753
C41 C 0.2431(3) 0.5738(2) 0.91969(9)
H21 H 0.2915 0.5469 0.9281
H22 H 0.1948 0.5414 0.9163
H23 H 0.2264 0.6111 0.9344
C42 C 0.1930(3) 0.6489(2) 0.87553(9)
H24 H 0.1731 0.6846 0.8905
H25 H 0.1465 0.6155 0.8709
H26 H 0.2108 0.6729 0.8565
C43 C 0.3831(2) 0.66978(17) 0.92015(8)
C44 C 0.4283(2) 0.67830(18) 0.94561(8)
C45 C 0.5010(2) 0.62762(18) 0.95455(8)
C46 C 0.5851(3) 0.6696(2) 0.95529(9)
H27 H 0.5988 0.6865 0.9344
H28 H 0.6311 0.6386 0.9627
H29 H 0.5791 0.7107 0.9692
C47 C 0.4828(3) 0.5970(2) 0.98665(9)
H30 H 0.4767 0.6361 1.0015
H31 H 0.5302 0.5661 0.9930
H32 H 0.4298 0.5691 0.9861
C48 C 0.5081(3) 0.5670(2) 0.93127(9)
H33 H 0.4546 0.5397 0.9310
H34 H 0.5554 0.5354 0.9371
H35 H 0.5189 0.5867 0.9107
C49 C 0.4114(2) 0.73905(18) 0.96569(8)
C50 C 0.4010(2) 0.79000(19) 0.98185(8)
C51 C 0.3896(3) 0.85274(18) 1.00245(8)
O10 O 0.33813(18) 0.90672(13) 0.98803(7)
H36 H 0.2897 0.8898 0.9839
C52 C 0.3476(4) 0.8292(2) 1.03231(10)
H37 H 0.2916 0.8082 1.0278
H38 H 0.3403 0.8706 1.0459
H39 H 0.3838 0.7936 1.0425
C53 C 0.4756(3) 0.8876(2) 1.00787(11)
H40 H 0.5151 0.8526 1.0168
H41 H 0.4688 0.9278 1.0222
H42 H 0.4985 0.9049 0.9882
O11 O 0.32920(17) 1.05377(12) 0.98134(6)
H43 H 0.3456 1.0126 0.9862
C54 C 0.3513(3) 1.1775(2) 0.98428(11)
H44 H 0.2919 1.1847 0.9908
H45 H 0.3544 1.1781 0.9617
H46 H 0.3870 1.2158 0.9927
C55 C 0.6956(2) 1.14480(19) 0.97854(8)
C56 C 0.6650(3) 1.2116(2) 0.96128(9)
H47 H 0.6667 1.2027 0.9390
H48 H 0.7025 1.2519 0.9663
H49 H 0.6063 1.2228 0.9675
C57 C 0.6918(3) 1.1583(2) 1.01338(8)
H50 H 0.6327 1.1688 1.0194
H51 H 0.7284 1.1990 1.0186
H52 H 0.7117 1.1157 1.0244
C58 C 0.7869(3) 1.1268(2) 0.96903(10)
H53 H 0.8061 1.0842 0.9802
H54 H 0.8245 1.1671 0.9740
H55 H 0.7889 1.1177 0.9467
C59 C 0.7336(2) 0.90668(18) 0.95705(8)
C60 C 0.7270(3) 0.9137(2) 0.99223(8)
H56 H 0.7548 0.9580 0.9988
H57 H 0.7554 0.8729 1.0020
H58 H 0.6667 0.9146 0.9983
C61 C 0.6893(3) 0.83764(18) 0.94674(9)
H59 H 0.6285 0.8399 0.9521
H60 H 0.7157 0.7968 0.9572
H61 H 0.6953 0.8321 0.9243
C62 C 0.8279(2) 0.90649(19) 0.94742(8)
H62 H 0.8320 0.9044 0.9248
H63 H 0.8565 0.8648 0.9564
H64 H 0.8556 0.9502 0.9549
C63 C 0.6630(2) 1.02725(17) 0.83043(7)
C64 C 0.5955(2) 1.12605(17) 0.85456(8)
H65 H 0.6029 1.1504 0.8747
H66 H 0.5495 1.0902 0.8569
C65 C 0.5165(2) 1.15418(17) 0.80857(8)
C66 C 0.4298(2) 1.17327(17) 0.81136(8)
C67 C 0.3746(2) 1.15478(16) 0.78761(8)
C68 C 0.2272(2) 1.12808(18) 0.79951(8)
H67 H 0.2542 1.0921 0.8131
H68 H 0.1824 1.1529 0.8116
C69 C 0.2268(2) 1.02892(18) 0.76560(8)
C70 C 0.2973(2) 1.02831(18) 0.74612(7)
C71 C 0.3315(2) 0.96208(18) 0.73801(7)
H69 H 0.3801 0.9610 0.7249
C72 C 0.3387(2) 1.09868(17) 0.73625(8)
H70 H 0.2927 1.1357 0.7361
C73 C 0.4021(2) 1.11976(16) 0.76129(8)
C74 C 0.4892(2) 1.10211(17) 0.75957(8)
H71 H 0.5093 1.0776 0.7418
C75 C 0.5469(2) 1.11882(16) 0.78257(8)
C76 C 0.6409(2) 1.09750(18) 0.78084(8)
H72 H 0.6742 1.1347 0.7923
C77 C 0.6763(2) 1.09517(18) 0.74774(7)
H73 H 0.6480 1.0559 0.7363
H74 H 0.6621 1.1405 0.7372
C78 C 0.7726(2) 1.0840(2) 0.74662(8)
H75 H 0.8009 1.1250 0.7569
H76 H 0.7871 1.0405 0.7585
C79 C 0.8079(3) 1.0767(2) 0.71406(10)
H77 H 0.7756 1.0389 0.7031
H78 H 0.7984 1.1221 0.7029
C80 C 0.9003(3) 1.0591(3) 0.71296(15)
H79 H 0.9112 1.0197 0.7277
H80 H 0.9138 1.0410 0.6920
C81 C 0.6515(2) 1.02722(17) 0.79851(7)
C82 C 0.6450(2) 0.96121(18) 0.78411(7)
H81 H 0.6348 0.9602 0.7625
C83 C 0.3770(2) 1.09624(19) 0.70360(8)
H82 H 0.4100 1.1404 0.6998
H83 H 0.4167 1.0553 0.7020
C84 C 0.3074(3) 1.0890(2) 0.67902(8)
H84 H 0.2702 1.0481 0.6843
H85 H 0.2717 1.1327 0.6792
C85 C 0.3433(3) 1.0780(2) 0.64661(9)
H86 H 0.3754 1.0324 0.6460
H87 H 0.3840 1.1170 0.6419
C86 C 0.2736(4) 1.0764(3) 0.62181(11)
H88 H 0.2394 1.1208 0.6234
H89 H 0.3012 1.0762 0.6012
C87 C 0.4019(2) 1.21117(17) 0.83823(8)
C88 C 0.3803(2) 1.24207(18) 0.86135(8)
C89 C 0.3561(2) 1.27930(17) 0.88877(8)
C90 C 0.2771(2) 1.27199(17) 0.89845(8)
C91 C 0.1947(2) 1.26380(17) 0.90426(8)
C92 C 0.1660(2) 1.20393(18) 0.92253(8)
C93 C 0.1417(2) 1.15232(19) 0.93664(9)
C94 C 0.1117(3) 1.08891(19) 0.95388(9)
C95 C 0.0328(3) 1.0579(2) 0.93855(12)
H90 H -0.0125 1.0939 0.9381
H91 H 0.0133 1.0162 0.9503
H92 H 0.0468 1.0435 0.9174
O12 O 0.17504(18) 1.03318(14) 0.95228(7)
H93 H 0.2194 1.0463 0.9616
C96 C 0.0954(3) 1.1088(2) 0.98725(10)
H94 H 0.1492 1.1234 0.9970
H95 H 0.0720 1.0674 0.9983
H96 H 0.0544 1.1483 0.9881
C97 C 0.1274(2) 1.31300(18) 0.88970(8)
C98 C 0.1704(3) 1.3747(2) 0.87265(10)
H97 H 0.2044 1.4028 0.8873
H98 H 0.1266 1.4052 0.8633
H99 H 0.2077 1.3556 0.8564
C99 C 0.0686(3) 1.3428(2) 0.91469(9)
H100 H 0.0412 1.3033 0.9257
H101 H 0.0246 1.3729 0.9051
H102 H 0.1021 1.3714 0.9293
C100 C 0.0760(3) 1.2687(2) 0.86679(9)
H103 H 0.1144 1.2491 0.8510
H104 H 0.0329 1.2990 0.8569
H105 H 0.0475 1.2295 0.8777
C101 C 0.4238(2) 1.32578(19) 0.90453(8)
C102 C 0.4546(3) 1.3816(2) 0.88105(10)
H106 H 0.4795 1.3574 0.8631
H107 H 0.4978 1.4123 0.8907
H108 H 0.4061 1.4109 0.8744
C103 C 0.3869(3) 1.3629(2) 0.93285(10)
H109 H 0.3398 1.3942 0.9265
H110 H 0.4315 1.3914 0.9428
H111 H 0.3655 1.3270 0.9474
C104 C 0.4986(3) 1.2783(2) 0.91396(10)
H112 H 0.4781 1.2405 0.9278
H113 H 0.5417 1.3071 0.9247
H114 H 0.5241 1.2568 0.8955
C105 C 0.6797(3) 0.82542(19) 0.75047(8)
H115 H 0.6558 0.8664 0.7389
H116 H 0.6625 0.7811 0.7397
C106 C 0.7769(3) 0.8308(2) 0.75063(9)
H117 H 0.7940 0.8706 0.7643
H118 H 0.8007 0.7862 0.7594
C107 C 0.8158(3) 0.8428(2) 0.71893(9)
H119 H 0.7944 0.8887 0.7106
H120 H 0.7961 0.8044 0.7049
C108 C 0.9133(3) 0.8443(2) 0.71862(10)
H121 H 0.9326 0.8630 0.6984
H122 H 0.9331 0.8780 0.7347
C109 C 0.9553(3) 0.7721(3) 0.72413(12)
H123 H 0.9412 0.7556 0.7452
H124 H 0.9317 0.7371 0.7093
C110 C 1.0519(4) 0.7745(4) 0.72056(16)
H125 H 1.0664 0.7852 0.6990
H126 H 1.0762 0.7282 0.7263
H127 H 1.0754 0.8118 0.7340
C111 C 0.3712(3) 0.8233(2) 0.70675(8)
H128 H 0.4121 0.8631 0.7038
H129 H 0.4028 0.7780 0.7037
C112 C 0.3026(3) 0.8286(2) 0.68291(9)
H130 H 0.2631 0.7882 0.6866
H131 H 0.2702 0.8728 0.6875
C113 C 0.3202(4) 0.8295(3) 0.65037(12)
H132 H 0.3619 0.7908 0.6463
H133 H 0.3497 0.8751 0.6459
C114 C 0.2494(4) 0.8216(3) 0.62672(13)
H134 H 0.2026 0.8549 0.6322
H135 H 0.2718 0.8362 0.6063
C115 C 0.2141(3) 0.7504(3) 0.62403(9)
H136 H 0.1881 0.7364 0.6440
H137 H 0.2606 0.7162 0.6194
C116 C 0.1467(3) 0.7463(3) 0.59866(11)
H138 H 0.1018 0.7816 0.6027
H139 H 0.1216 0.6984 0.5983
H140 H 0.1733 0.7564 0.5786
C117 C -0.0595(2) 1.0337(2) 0.84184(8)
C118 C -0.1193(2) 1.0278(2) 0.86953(9)
H141 H -0.1517 0.9831 0.8682
H142 H -0.1591 1.0683 0.8695
H143 H -0.0857 1.0283 0.8886
C119 C -0.0043(3) 1.1005(2) 0.84473(11)
H144 H 0.0302 1.0976 0.8636
H145 H -0.0412 1.1428 0.8457
H146 H 0.0334 1.1042 0.8267
C120 C -0.1119(2) 1.0382(2) 0.81206(9)
H147 H -0.0732 1.0420 0.7943
H148 H -0.1489 1.0804 0.8128
H149 H -0.1471 0.9952 0.8100
C121 C -0.0714(3) 0.7873(2) 0.86265(9)
C122 C -0.0150(3) 0.7210(2) 0.86207(13)
H150 H 0.0332 0.7289 0.8480
H151 H -0.0485 0.6800 0.8549
H152 H 0.0067 0.7115 0.8829
C123 C -0.1454(3) 0.7770(2) 0.88540(10)
H153 H -0.1225 0.7701 0.9063
H154 H -0.1788 0.7350 0.8794
H155 H -0.1821 0.8194 0.8851
C124 C -0.1088(3) 0.8010(2) 0.83055(10)
H156 H -0.1440 0.8443 0.8311
H157 H -0.1441 0.7603 0.8243
H158 H -0.0622 0.8074 0.8157
C125 C 0.1428(6) 1.0179(5) 0.60102(17)
H159 H 0.1654 1.0152 0.5799
H160 H 0.1113 1.0628 0.6036
H161 H 0.1042 0.9775 0.6047
C126 C 0.2159(6) 1.0152(5) 0.62387(19)
H162 H 0.1922 1.0128 0.6450
H163 H 0.2491 0.9709 0.6203
C127 C 0.9596(5) 1.1178(4) 0.7201(2)
H164 H 0.9545 1.1312 0.7421
H165 H 0.9455 1.1601 0.7073
C128 C 1.0510(5) 1.0932(7) 0.7131(2)
H166 H 1.0587 1.0890 0.6907
H167 H 1.0610 1.0466 0.7228
H168 H 1.0916 1.1281 0.7214
C133 C 0.3450(4) 0.9954(3) 0.84957(11)
H184 H 0.3000 0.9818 0.8346
H185 H 0.3888 1.0233 0.8383
C134 C 0.3854(3) 0.9289(3) 0.86243(11)
H186 H 0.4155 0.9033 0.8456
H187 H 0.3401 0.8971 0.8705
C135 C 0.4480(3) 0.9457(3) 0.88799(12)
H188 H 0.4674 0.9004 0.8975
H189 H 0.4986 0.9696 0.8790
C136 C 0.4113(4) 0.9929(3) 0.91287(12)
H190 H 0.3680 0.9656 0.9247
H191 H 0.4574 1.0067 0.9273
C137 C 0.3709(4) 1.0586(3) 0.90027(12)
H192 H 0.4160 1.0900 0.8917
H193 H 0.3423 1.0846 0.9173
C138 C 0.3055(4) 1.0421(3) 0.87494(11)
H194 H 0.2849 1.0874 0.8658
H195 H 0.2559 1.0171 0.8841
H169? H 0.9271 1.0965 0.7259
H170? H 0.9046 1.0146 0.7252
H171? H 0.2747 0.8757 0.6857
H172? H 0.3313 0.8298 0.6625
H173? H 0.2343 0.7017 0.6291
H174? H 0.2636 0.7784 0.6166
C129? C 0.9618(6) 1.0484(7) 0.6879(2)
H175? H 0.9586 1.0911 0.6745
H176? H 0.9408 1.0076 0.6755
C130? C 1.0533(7) 1.0352(11) 0.6942(3)
H177? H 1.0819 1.0212 0.6749
H178? H 1.0590 0.9968 0.7094
H179? H 1.0796 1.0788 0.7022
C131? C 0.2345(6) 0.7752(5) 0.68097(15)
H180? H 0.1987 0.7782 0.6998
H181? H 0.2605 0.7270 0.6803
C132? C 0.1779(5) 0.7849(6) 0.65272(17)
H182? H 0.1209 0.7642 0.6571
H183? H 0.1701 0.8366 0.6488
loop_
_geom_bond_atom_site_label_1
_geom_bond_atom_site_label_2
_geom_bond_site_symmetry_1
_geom_bond_site_symmetry_2
O1 H1 1_555 1_555
O2 C11 1_555 1_555
O3 C31 1_555 1_555
O4 C34 1_555 1_555
O5 C63 1_555 1_555
O6 C64 1_555 1_555
O7 C67 1_555 1_555
O8 C68 1_555 1_555
C1 H2 1_555 1_555
H3 C1 1_555 1_555
H4 C1 1_555 1_555
C2 C1 1_555 1_555
C3 C2 1_555 1_555
C4 C3 1_555 1_555
C5 C4 1_555 1_555
C6 C5 1_555 1_555
C7 C6 1_555 1_555
C8 C7 1_555 1_555
C9 C8 1_555 1_555
C10 C9 1_555 1_555
C11 C10 1_555 1_555
C12 C11 1_555 1_555
C13 C12 1_555 1_555
H5 C13 1_555 1_555
C14 C13 1_555 1_555
C15 C14 1_555 1_555
H6 C15 1_555 1_555
C16 C15 1_555 1_555
C17 C16 1_555 1_555
H7 C17 1_555 1_555
C18 C17 1_555 1_555
C19 C18 1_555 1_555
C20 C19 1_555 1_555
C21 C20 1_555 1_555
C22 C21 1_555 1_555
C23 C22 1_555 1_555
C24 C23 1_555 1_555
C25 C24 1_555 1_555
C26 C25 1_555 1_555
C27 C26 1_555 1_555
C28 O1 1_555 1_555
C29 C28 1_555 1_555
H8 C29 1_555 1_555
H9 C29 1_555 1_555
H10 C29 1_555 1_555
C30 C28 1_555 1_555
H11 C30 1_555 1_555
H12 C30 1_555 1_555
H13 C30 1_555 1_555
C31 O2 1_555 1_555
H14 C31 1_555 1_555
H15 C31 1_555 1_555
C32 O3 1_555 1_555
C33 C32 1_555 1_555
C34 C16 1_555 1_555
C35 O4 1_555 1_555
H16 C35 1_555 1_555
H17 C35 1_555 1_555
O9 C19 1_555 1_555
C36 C33 1_555 1_555
C37 C36 1_555 1_555
C38 C37 1_555 1_555
C39 C38 1_555 1_555
C40 C39 1_555 1_555
H18 C40 1_555 1_555
H19 C40 1_555 1_555
H20 C40 1_555 1_555
C41 C39 1_555 1_555
H21 C41 1_555 1_555
H22 C41 1_555 1_555
H23 C41 1_555 1_555
C42 C39 1_555 1_555
H24 C42 1_555 1_555
H25 C42 1_555 1_555
H26 C42 1_555 1_555
C43 C38 1_555 1_555
C44 C43 1_555 1_555
C45 C44 1_555 1_555
C46 C45 1_555 1_555
H27 C46 1_555 1_555
H28 C46 1_555 1_555
H29 C46 1_555 1_555
C47 C45 1_555 1_555
H30 C47 1_555 1_555
H31 C47 1_555 1_555
H32 C47 1_555 1_555
C48 C45 1_555 1_555
H33 C48 1_555 1_555
H34 C48 1_555 1_555
H35 C48 1_555 1_555
C49 C44 1_555 1_555
C50 C49 1_555 1_555
C51 C50 1_555 1_555
O10 C51 1_555 1_555
H36 O10 1_555 1_555
C52 C51 1_555 1_555
H37 C52 1_555 1_555
H38 C52 1_555 1_555
H39 C52 1_555 1_555
C53 C51 1_555 1_555
H40 C53 1_555 1_555
H41 C53 1_555 1_555
H42 C53 1_555 1_555
O11 C2 1_555 1_555
H43 O11 1_555 1_555
C54 C2 1_555 1_555
H44 C54 1_555 1_555
H45 C54 1_555 1_555
H46 C54 1_555 1_555
C55 C5 1_555 1_555
C56 C55 1_555 1_555
H47 C56 1_555 1_555
H48 C56 1_555 1_555
H49 C56 1_555 1_555
C57 C55 1_555 1_555
H50 C57 1_555 1_555
H51 C57 1_555 1_555
H52 C57 1_555 1_555
C58 C55 1_555 1_555
H53 C58 1_555 1_555
H54 C58 1_555 1_555
H55 C58 1_555 1_555
C59 C7 1_555 1_555
C60 C59 1_555 1_555
H56 C60 1_555 1_555
H57 C60 1_555 1_555
H58 C60 1_555 1_555
C61 C59 1_555 1_555
H59 C61 1_555 1_555
H60 C61 1_555 1_555
H61 C61 1_555 1_555
C62 C59 1_555 1_555
H62 C62 1_555 1_555
H63 C62 1_555 1_555
H64 C62 1_555 1_555
C63 C10 1_555 1_555
C64 O5 1_555 1_555
H65 C64 1_555 1_555
H66 C64 1_555 1_555
C65 O6 1_555 1_555
C66 C65 1_555 1_555
C67 C66 1_555 1_555
C68 O7 1_555 1_555
H67 C68 1_555 1_555
H68 C68 1_555 1_555
C69 O8 1_555 1_555
C70 C69 1_555 1_555
C71 C18 1_555 1_555
H69 C71 1_555 1_555
C72 C70 1_555 1_555
H70 C72 1_555 1_555
C73 C67 1_555 1_555
C74 C73 1_555 1_555
H71 C74 1_555 1_555
C75 C65 1_555 1_555
C76 C75 1_555 1_555
H72 C76 1_555 1_555
C77 C76 1_555 1_555
H73 C77 1_555 1_555
H74 C77 1_555 1_555
C78 C77 1_555 1_555
H75 C78 1_555 1_555
H76 C78 1_555 1_555
C79 C78 1_555 1_555
H77 C79 1_555 1_555
H78 C79 1_555 1_555
C80 C79 1_555 1_555
H79 C80 1_555 1_555
H80 C80 1_555 1_555
C81 C63 1_555 1_555
C82 C12 1_555 1_555
H81 C82 1_555 1_555
C83 C72 1_555 1_555
H82 C83 1_555 1_555
H83 C83 1_555 1_555
C84 C83 1_555 1_555
H84 C84 1_555 1_555
H85 C84 1_555 1_555
C85 C84 1_555 1_555
H86 C85 1_555 1_555
H87 C85 1_555 1_555
C86 C85 1_555 1_555
H88 C86 1_555 1_555
H89 C86 1_555 1_555
C87 C66 1_555 1_555
C88 C87 1_555 1_555
C89 C88 1_555 1_555
C90 C89 1_555 1_555
C91 C90 1_555 1_555
C92 C91 1_555 1_555
C93 C92 1_555 1_555
C94 C93 1_555 1_555
C95 C94 1_555 1_555
H90 C95 1_555 1_555
H91 C95 1_555 1_555
H92 C95 1_555 1_555
O12 C94 1_555 1_555
H93 O12 1_555 1_555
C96 C94 1_555 1_555
H94 C96 1_555 1_555
H95 C96 1_555 1_555
H96 C96 1_555 1_555
C97 C91 1_555 1_555
C98 C97 1_555 1_555
H97 C98 1_555 1_555
H98 C98 1_555 1_555
H99 C98 1_555 1_555
C99 C97 1_555 1_555
H100 C99 1_555 1_555
H101 C99 1_555 1_555
H102 C99 1_555 1_555
C100 C97 1_555 1_555
H103 C100 1_555 1_555
H104 C100 1_555 1_555
H105 C100 1_555 1_555
C101 C89 1_555 1_555
C102 C101 1_555 1_555
H106 C102 1_555 1_555
H107 C102 1_555 1_555
H108 C102 1_555 1_555
C103 C101 1_555 1_555
H109 C103 1_555 1_555
H110 C103 1_555 1_555
H111 C103 1_555 1_555
C104 C101 1_555 1_555
H112 C104 1_555 1_555
H113 C104 1_555 1_555
H114 C104 1_555 1_555
C105 C13 1_555 1_555
H115 C105 1_555 1_555
H116 C105 1_555 1_555
C106 C105 1_555 1_555
H117 C106 1_555 1_555
H118 C106 1_555 1_555
C107 C106 1_555 1_555
H119 C107 1_555 1_555
H120 C107 1_555 1_555
C108 C107 1_555 1_555
H121 C108 1_555 1_555
H122 C108 1_555 1_555
C109 C108 1_555 1_555
H123 C109 1_555 1_555
H124 C109 1_555 1_555
C110 C109 1_555 1_555
H125 C110 1_555 1_555
H126 C110 1_555 1_555
H127 C110 1_555 1_555
C111 C17 1_555 1_555
H128 C111 1_555 1_555
H129 C111 1_555 1_555
C112 C111 1_555 1_555
H130 C112 1_555 1_555
H131 C112 1_555 1_555
C113 C112 1_555 1_555
H132 C113 1_555 1_555
H133 C113 1_555 1_555
C114 C113 1_555 1_555
H134 C114 1_555 1_555
H135 C114 1_555 1_555
C115 C114 1_555 1_555
H136 C115 1_555 1_555
H137 C115 1_555 1_555
C116 C115 1_555 1_555
H138 C116 1_555 1_555
H139 C116 1_555 1_555
H140 C116 1_555 1_555
C117 C23 1_555 1_555
C118 C117 1_555 1_555
H141 C118 1_555 1_555
H142 C118 1_555 1_555
H143 C118 1_555 1_555
C119 C117 1_555 1_555
H144 C119 1_555 1_555
H145 C119 1_555 1_555
H146 C119 1_555 1_555
C120 C117 1_555 1_555
H147 C120 1_555 1_555
H148 C120 1_555 1_555
H149 C120 1_555 1_555
C121 C25 1_555 1_555
C122 C121 1_555 1_555
H150 C122 1_555 1_555
H151 C122 1_555 1_555
H152 C122 1_555 1_555
C123 C121 1_555 1_555
H153 C123 1_555 1_555
H154 C123 1_555 1_555
H155 C123 1_555 1_555
C124 C121 1_555 1_555
H156 C124 1_555 1_555
H157 C124 1_555 1_555
H158 C124 1_555 1_555
C125 H159 1_555 1_555
H160 C125 1_555 1_555
H161 C125 1_555 1_555
C126 C86 1_555 1_555
H162 C126 1_555 1_555
H163 C126 1_555 1_555
C127 C80 1_555 1_555
H164 C127 1_555 1_555
H165 C127 1_555 1_555
C128 C127 1_555 1_555
H166 C128 1_555 1_555
H167 C128 1_555 1_555
H168 C128 1_555 1_555
C133 H184 1_555 1_555
H185 C133 1_555 1_555
C134 C133 1_555 1_555
H186 C134 1_555 1_555
H187 C134 1_555 1_555
C135 C134 1_555 1_555
H188 C135 1_555 1_555
H189 C135 1_555 1_555
C136 C135 1_555 1_555
H190 C136 1_555 1_555
H191 C136 1_555 1_555
C137 C136 1_555 1_555
H192 C137 1_555 1_555
H193 C137 1_555 1_555
C138 C133 1_555 1_555
H194 C138 1_555 1_555
H195 C138 1_555 1_555
C14 C32 1_555 1_555
C20 C69 1_555 1_555
C27 C28 1_555 1_555
C33 C34 1_555 1_555
C35 O9 1_555 1_555
C70 C71 1_555 1_555
C72 C73 1_555 1_555
C74 C75 1_555 1_555
C76 C81 1_555 1_555
C81 C82 1_555 1_555
C125 C126 1_555 1_555
C137 C138 1_555 1_555

#END
