
#######################################################################
#
#                 Cambridge Crystallographic Data Centre
#                                CCDC 
#
#######################################################################
#
# If this CIF has been generated from an entry in the Cambridge 
# Structural Database, then it will include bibliographic, chemical, 
# crystal, experimental, refinement or atomic coordinate data resulting 
# from the CCDC's data processing and validation procedures.
#
#######################################################################

data_IYUYUY
_chemical_formula_moiety         'C128 H168 O12,C7 H14,C2 H3 N1'
_chemical_name_systematic        
"(P)-2,8,14,20-tetra-n-hexyl-5,11,17,23-tetrakis(3,5-di-tert-butyl-8-hydroxy-8-methylnona-3,4-diene-1,6-diyn-1-yl)-4,24:6,10:12,16:18,22-O,O'-tetramethylenecalix[4]resorcinarene methylcyclohexane clathrate acetonitrile solvate"
_symmetry_cell_setting           monoclinic
_symmetry_space_group_name_H-M   'P 21'
_symmetry_Int_Tables_number      4
_space_group_name_Hall           'P 2yb'
loop_
_symmetry_equiv_pos_site_id
_symmetry_equiv_pos_as_xyz
1 x,y,z
2 -x,1/2+y,-z
_cell_length_a                   15.5105(8)
_cell_length_b                   45.273(3)
_cell_length_c                   18.3926(9)
_cell_angle_alpha                90
_cell_angle_beta                 91.374(3)
_cell_angle_gamma                90
_cell_volume                     12911.7
_exptl_crystal_colour            colorless
_exptl_crystal_description       block
_cell_formula_units_Z            4
_exptl_crystal_recrystallization_method acetonitrile/methylcyclohexane/water
loop_
_atom_site_label
_atom_site_type_symbol
_atom_site_fract_x
_atom_site_fract_y
_atom_site_fract_z
C1 C 0.5902(10) 0.2160(4) -0.3053(7)
O1 O 0.7905(6) 0.2461(2) -0.2551(4)
O2 O 0.8932(5) 0.23348(18) -0.1640(4)
O3 O 0.5115(6) 0.2890(2) -0.2611(4)
O4 O 0.4142(5) 0.3071(2) -0.1772(4)
O5 O 0.4227(5) 0.3128(2) 0.0829(4)
O6 O 0.3893(5) 0.1314(2) 0.0560(4)
H1 H 0.4320 0.1214 0.0703
O7 O 0.5538(5) 0.1098(2) 0.0738(5)
H2 H 0.5588 0.1000 0.0353
C2 C 0.6054(11) 0.0653(4) 0.1270(12)
H3 H 0.5463 0.0594 0.1380
H4 H 0.6455 0.0567 0.1632
H5 H 0.6199 0.0581 0.0785
C3 C 0.6124(8) 0.0982(3) 0.1290(7)
C4 C 0.7031(8) 0.1077(3) 0.1164(6)
C5 C 0.7745(8) 0.1147(3) 0.1080(7)
C6 C 0.8628(7) 0.1239(3) 0.1026(7)
C7 C 0.8882(7) 0.1372(3) 0.0431(7)
C8 C 0.9198(7) 0.1499(3) -0.0153(7)
C9 C 0.9121(7) 0.1813(3) -0.0216(6)
C10 C 0.9048(7) 0.2073(3) -0.0283(6)
C11 C 0.8963(6) 0.2390(3) -0.0338(6)
C12 C 0.8882(7) 0.2520(3) -0.1020(6)
C13 C 0.8806(7) 0.2820(3) -0.1107(5)
C14 C 0.8691(8) 0.2958(3) -0.1856(6)
H6 H 0.8987 0.2824 -0.2202
C15 C 0.7729(8) 0.2953(3) -0.2078(6)
C16 C 0.7177(8) 0.3188(3) -0.1934(5)
H7 H 0.7406 0.3364 -0.1723
C17 C 0.6285(8) 0.3170(3) -0.2097(6)
C18 C 0.5684(8) 0.3417(3) -0.1916(6)
H8 H 0.5202 0.3408 -0.2286
C19 C 0.5275(8) 0.3353(3) -0.1175(6)
C20 C 0.4551(8) 0.3174(3) -0.1134(6)
C21 C 0.4203(8) 0.3096(3) -0.0479(6)
C22 C 0.3488(8) 0.2893(3) -0.0444(6)
C23 C 0.2927(9) 0.2713(4) -0.0427(7)
C24 C 0.2274(7) 0.2491(3) -0.0373(7)
C25 C 0.2171(8) 0.2313(4) -0.0917(8)
C26 C 0.2093(8) 0.2129(4) -0.1484(7)
C27 C 0.2619(8) 0.1872(4) -0.1488(6)
C28 C 0.3112(9) 0.1666(4) -0.1448(7)
C29 C 0.3738(11) 0.1437(4) -0.1496(7)
C30 C 0.4652(13) 0.1610(6) -0.1418(13)
H9 H 0.4643 0.1783 -0.1737
H10 H 0.5120 0.1477 -0.1557
H11 H 0.4745 0.1673 -0.0913
O8 O 0.5808(8) 0.1094(4) -0.0716(6)
H12 H 0.5311 0.1134 -0.0877
C31 C 0.6272(9) 0.0921(5) -0.1261(8)
C32 C 0.5744(12) 0.0669(5) -0.1407(11)
H13 H 0.5666 0.0558 -0.0956
H14 H 0.6022 0.0543 -0.1765
H15 H 0.5180 0.0734 -0.1600
C33 C 0.6361(8) 0.1106(4) -0.1926(9)
C34 C 0.6433(8) 0.1247(4) -0.2471(8)
C35 C 0.6539(9) 0.1422(4) -0.3105(7)
C36 C 0.6039(10) 0.1648(5) -0.3217(7)
C37 C 0.5587(10) 0.1888(4) -0.3350(7)
C38 C 0.6148(9) 0.2391(4) -0.2824(7)
C39 C 0.6507(9) 0.2670(4) -0.2527(6)
C40 C 0.7375(9) 0.2697(3) -0.2374(6)
C41 C 0.8157(9) 0.2259(3) -0.1980(6)
H16 H 0.7701 0.2254 -0.1613
H17 H 0.8208 0.2058 -0.2186
C42 C 0.8768(7) 0.2997(3) -0.0472(5)
H18 H 0.8691 0.3204 -0.0523
C43 C 0.8840(7) 0.2876(3) 0.0221(5)
C44 C 0.8953(7) 0.2574(3) 0.0269(6)
O9 O 0.9094(4) 0.24296(16) 0.0937(4)
C45 C 0.8317(7) 0.2364(3) 0.1324(6)
H19 H 0.7835 0.2330 0.0972
H20 H 0.8402 0.2181 0.1613
O10 O 0.8105(4) 0.26040(16) 0.1799(3)
C46 C 0.7533(7) 0.2819(3) 0.1531(5)
C47 C 0.6688(7) 0.2794(3) 0.1716(5)
C48 C 0.6114(7) 0.3015(3) 0.1495(5)
C49 C 0.6382(7) 0.3262(3) 0.1108(5)
C50 C 0.5745(7) 0.3496(2) 0.0858(6)
H21 H 0.5287 0.3500 0.1231
C51 C 0.5297(7) 0.3385(3) 0.0145(6)
C52 C 0.5643(8) 0.3456(3) -0.0527(6)
H22 H 0.6142 0.3577 -0.0542
C53 C 0.5965(9) 0.2907(4) -0.2390(6)
C54 C 0.4496(9) 0.2822(4) -0.2088(7)
H23 H 0.4028 0.2704 -0.2322
H24 H 0.4769 0.2698 -0.1703
C55 C 0.4588(7) 0.3206(3) 0.0161(6)
C56 C 0.4636(8) 0.2896(3) 0.1211(6)
H25 H 0.4914 0.2763 0.0859
H26 H 0.4196 0.2780 0.1468
O11 O 0.5265(4) 0.29979(16) 0.1722(3)
C57 C 0.1740(7) 0.2479(3) 0.0304(7)
C58 C 0.1151(8) 0.2204(3) 0.0293(7)
H27 H 0.0759 0.2213 -0.0132
H28 H 0.0815 0.2199 0.0737
H29 H 0.1506 0.2025 0.0267
C59 C 0.1190(8) 0.2758(3) 0.0336(7)
H30 H 0.1567 0.2932 0.0355
H31 H 0.0840 0.2752 0.0772
H32 H 0.0812 0.2769 -0.0097
C60 C 0.2354(8) 0.2464(4) 0.0983(7)
H33 H 0.2746 0.2296 0.0936
H34 H 0.2013 0.2440 0.1421
H35 H 0.2690 0.2647 0.1019
C61 C 0.1502(8) 0.2194(4) -0.2141(7)
C62 C 0.1063(11) 0.2489(4) -0.2065(9)
H36 H 0.0765 0.2497 -0.1601
H37 H 0.0644 0.2516 -0.2466
H38 H 0.1495 0.2647 -0.2077
C63 C 0.2028(10) 0.2199(5) -0.2819(9)
H39 H 0.2587 0.2292 -0.2712
H40 H 0.1720 0.2312 -0.3199
H41 H 0.2118 0.1996 -0.2988
C64 C 0.0779(9) 0.1958(4) -0.2186(8)
H42 H 0.1035 0.1763 -0.2263
H43 H 0.0382 0.2005 -0.2593
H44 H 0.0462 0.1957 -0.1731
C65 C 0.3850(13) 0.1286(5) -0.2158(9)
H45 H 0.3360 0.1153 -0.2248
H46 H 0.4384 0.1170 -0.2129
H47 H 0.3883 0.1429 -0.2556
O12 O 0.3983(12) 0.1252(4) -0.0909(7)
H48 H 0.4047 0.1354 -0.0529
C66 C 0.9125(8) 0.3250(3) -0.1913(6)
H49 H 0.8929 0.3379 -0.1515
H50 H 0.8949 0.3344 -0.2380
C67 C 1.0115(8) 0.3228(3) -0.1871(7)
H51 H 1.0283 0.3108 -0.1441
H52 H 1.0313 0.3122 -0.2308
C68 C 1.0571(9) 0.3519(3) -0.1822(8)
H53 H 1.0436 0.3613 -0.1353
H54 H 1.0349 0.3649 -0.2217
C69 C 1.1547(11) 0.3493(4) -0.1879(13)
H55 H 1.1778 0.3382 -0.1454
H56 H 1.1682 0.3380 -0.2322
C70 C 1.1991(12) 0.3788(4) -0.1910(15)
H57 H 1.1848 0.3905 -0.1473
H58 H 1.1775 0.3898 -0.2343
C71 C 0.6034(8) 0.3728(3) -0.1944(6)
H59 H 0.6373 0.3752 -0.2389
H60 H 0.6425 0.3762 -0.1519
C72 C 0.5319(10) 0.3954(3) -0.1943(8)
H61 H 0.4973 0.3936 -0.2400
H62 H 0.4934 0.3911 -0.1534
C73 C 0.5646(11) 0.4263(3) -0.1873(9)
H63 H 0.6159 0.4286 -0.2177
H64 H 0.5826 0.4300 -0.1361
C74 C 0.4959(11) 0.4493(4) -0.2107(11)
H65 H 0.4751 0.4443 -0.2605
H66 H 0.4463 0.4473 -0.1782
C75 C 0.5237(13) 0.4809(4) -0.2103(14)
H67 H 0.5751 0.4834 -0.2407
H68 H 0.5392 0.4871 -0.1600
C76 C 0.6089(7) 0.3804(2) 0.0822(6)
H69 H 0.6516 0.3815 0.0431
H70 H 0.6393 0.3850 0.1287
C77 C 0.5403(9) 0.4034(3) 0.0680(7)
H71 H 0.5048 0.3969 0.0255
H72 H 0.5021 0.4037 0.1104
C78 C 0.5694(11) 0.4344(3) 0.0542(8)
H73 H 0.6106 0.4345 0.0139
H74 H 0.5992 0.4423 0.0982
C79 C 0.7255(6) 0.3276(2) 0.0929(5)
H75 H 0.7453 0.3441 0.0661
C80 C 0.7841(6) 0.3057(2) 0.1128(5)
C81 C 0.8769(7) 0.3061(2) 0.0907(5)
H76 H 0.9118 0.2962 0.1300
C82 C 0.9116(7) 0.3378(2) 0.0828(6)
H77 H 0.8798 0.3476 0.0422
H78 H 0.8993 0.3489 0.1278
C83 C 1.0083(6) 0.3399(3) 0.0688(6)
H79 H 1.0405 0.3312 0.1108
H80 H 1.0213 0.3279 0.0254
C84 C 1.0397(8) 0.3708(3) 0.0569(7)
H81 H 1.0306 0.3823 0.1019
H82 H 1.0038 0.3799 0.0178
C85 C 1.1329(8) 0.3735(4) 0.0371(8)
H83 H 1.1446 0.3594 -0.0026
H84 H 1.1429 0.3937 0.0183
C86 C 1.1939(9) 0.3679(5) 0.0973(10)
H85 H 1.1884 0.3472 0.1137
H86 H 1.1805 0.3810 0.1387
C87 C 1.2867(10) 0.3737(5) 0.0732(14)
H87 H 1.2853 0.3849 0.0276
H88 H 1.3160 0.3548 0.0657
H89 H 1.3178 0.3850 0.1108
C88 C 0.6388(7) 0.2545(3) 0.2123(6)
C89 C 0.6138(7) 0.2334(3) 0.2440(6)
C90 C 0.5869(7) 0.2076(3) 0.2839(6)
C91 C 0.6525(7) 0.1934(2) 0.3364(6)
C92 C 0.7319(8) 0.1841(3) 0.2927(7)
H90 H 0.7130 0.1724 0.2503
H91 H 0.7707 0.1721 0.3237
H92 H 0.7625 0.2017 0.2764
C93 C 0.6137(8) 0.1661(3) 0.3717(6)
H93 H 0.5665 0.1721 0.4029
H94 H 0.6582 0.1560 0.4010
H95 H 0.5915 0.1528 0.3337
C94 C 0.6809(8) 0.2158(3) 0.3947(6)
H96 H 0.6966 0.2344 0.3714
H97 H 0.7307 0.2080 0.4222
H98 H 0.6333 0.2193 0.4278
C95 C 0.5067(8) 0.1992(2) 0.2755(6)
C96 C 0.4245(7) 0.1920(3) 0.2702(6)
C97 C 0.3933(7) 0.1707(3) 0.2176(6)
C98 C 0.3662(7) 0.1539(3) 0.1716(7)
C99 C 0.3292(7) 0.1343(3) 0.1143(6)
C100 C 0.2515(8) 0.1493(4) 0.0783(8)
H99 H 0.2704 0.1670 0.0523
H100 H 0.2105 0.1550 0.1155
H101 H 0.2235 0.1356 0.0437
C101 C 0.3093(11) 0.1044(3) 0.1464(8)
H102 H 0.2755 0.0928 0.1111
H103 H 0.2763 0.1070 0.1907
H104 H 0.3634 0.0941 0.1584
C102 C 0.3590(8) 0.2063(3) 0.3194(6)
C103 C 0.3202(9) 0.1826(3) 0.3695(7)
H105 H 0.3002 0.1657 0.3401
H106 H 0.2715 0.1910 0.3953
H107 H 0.3643 0.1759 0.4048
C104 C 0.2891(9) 0.2208(3) 0.2722(7)
H108 H 0.3157 0.2346 0.2383
H109 H 0.2494 0.2316 0.3032
H110 H 0.2572 0.2056 0.2448
C105 C 0.4034(9) 0.2303(3) 0.3672(7)
H111 H 0.4536 0.2217 0.3928
H112 H 0.3626 0.2377 0.4027
H113 H 0.4221 0.2466 0.3363
C106 C 0.9633(7) 0.1324(3) -0.0754(7)
C107 C 0.9621(8) 0.1000(3) -0.0620(8)
H114 H 0.9934 0.0956 -0.0163
H115 H 0.9899 0.0898 -0.1021
H116 H 0.9023 0.0932 -0.0586
C108 C 0.9207(7) 0.1405(3) -0.1487(7)
H117 H 0.8688 0.1285 -0.1567
H118 H 0.9612 0.1368 -0.1878
H119 H 0.9049 0.1615 -0.1486
C109 C 1.0590(7) 0.1428(3) -0.0757(7)
H120 H 1.0610 0.1642 -0.0839
H121 H 1.0893 0.1327 -0.1146
H122 H 1.0870 0.1382 -0.0287
C110 C 0.9240(7) 0.1183(3) 0.1674(7)
C111 C 0.9232(9) 0.0854(3) 0.1845(8)
H123 H 0.8642 0.0791 0.1946
H124 H 0.9605 0.0815 0.2271
H125 H 0.9444 0.0743 0.1427
C112 C 0.8889(8) 0.1355(3) 0.2327(7)
H126 H 0.8868 0.1566 0.2211
H127 H 0.9268 0.1323 0.2754
H128 H 0.8307 0.1284 0.2431
C113 C 1.0149(7) 0.1284(3) 0.1516(7)
H129 H 1.0366 0.1173 0.1100
H130 H 1.0525 0.1248 0.1943
H131 H 1.0145 0.1495 0.1401
C114 C 0.5823(9) 0.1103(4) 0.2006(8)
H132 H 0.5862 0.1319 0.2000
H133 H 0.6188 0.1025 0.2403
H134 H 0.5223 0.1044 0.2078
C115 C 0.4745(10) 0.1897(4) -0.3831(7)
C116 C 0.4029(10) 0.2024(4) -0.3396(8)
H135 H 0.3947 0.1903 -0.2961
H136 H 0.3496 0.2026 -0.3692
H137 H 0.4178 0.2226 -0.3250
C117 C 0.4930(12) 0.2098(4) -0.4479(8)
H138 H 0.5098 0.2294 -0.4302
H139 H 0.4411 0.2114 -0.4791
H140 H 0.5400 0.2013 -0.4759
C118 C 0.4540(10) 0.1587(4) -0.4106(8)
H141 H 0.4999 0.1520 -0.4424
H142 H 0.3990 0.1589 -0.4379
H143 H 0.4500 0.1452 -0.3691
C119 C 0.7244(9) 0.1348(4) -0.3627(7)
C120 C 0.7301(10) 0.1565(5) -0.4245(8)
H144 H 0.6737 0.1582 -0.4492
H145 H 0.7727 0.1495 -0.4591
H146 H 0.7478 0.1758 -0.4055
C121 C 0.8102(8) 0.1349(4) -0.3215(7)
H147 H 0.8224 0.1548 -0.3033
H148 H 0.8560 0.1288 -0.3541
H149 H 0.8078 0.1211 -0.2805
C122 C 0.7133(10) 0.0871(6) -0.0903(10)
H150 H 0.7423 0.1061 -0.0826
H151 H 0.7484 0.0746 -0.1215
H152 H 0.7058 0.0773 -0.0434
C123 C 0.4903(14) 0.4540(5) 0.0341(13)
H153 H 0.4669 0.4472 -0.0136
H154 H 0.4455 0.4502 0.0703
C124 C 0.7043(11) 0.1048(5) -0.3944(10)
H155 H 0.6998 0.0903 -0.3551
H156 H 0.7506 0.0989 -0.4268
H157 H 0.6496 0.1057 -0.4221
C125 C 0.5024(19) 0.4848(5) 0.030(2)
H158 H 0.5496 0.4899 -0.0032
H159 H 0.5149 0.4935 0.0784
C126 C 1.2962(15) 0.3757(5) -0.195(3)
H160 H 1.3137 0.3775 -0.2454
H161 H 1.3136 0.3563 -0.1757
H162 H 1.3241 0.3912 -0.1656
C127 C 0.4494(15) 0.5001(5) -0.2405(16)
H163 H 0.4317 0.4929 -0.2888
H164 H 0.4686 0.5206 -0.2439
H165 H 0.4005 0.4989 -0.2078
C128 C 0.414(2) 0.4951(7) -0.0012(17)
H166 H 0.3900 0.4799 -0.0337
H167 H 0.4212 0.5136 -0.0283
H168 H 0.3745 0.4985 0.0389
C129 C 0.8939(15) 0.4088(4) -0.1377(10)
H169 H 0.8674 0.4125 -0.1858
H170 H 0.9469 0.3973 -0.1432
H171 H 0.9076 0.4276 -0.1140
N1 N 0.7865(9) 0.3786(3) -0.0587(7)
C130 C 0.8325(11) 0.3918(3) -0.0924(8)
C131 C 0.9251(6) 0.3359(2) 0.4580(5)
H172 H 0.8760 0.3234 0.4584
O13 O 1.1012(6) 0.5517(3) 0.5148(6)
H173 H 1.0771 0.5684 0.5132
O14 O 0.6868(5) 0.42969(17) 0.6666(4)
O15 O 0.9155(7) 0.5682(3) 0.3784(6)
H174 H 0.9681 0.5702 0.3700
O16 O 1.0677(4) 0.37082(17) 0.3269(4)
O17 O 0.9709(4) 0.39109(16) 0.6714(4)
C132 C 1.2407(8) 0.5357(3) 0.5438(7)
H175 H 1.2244 0.5155 0.5302
H176 H 1.2872 0.5351 0.5808
H177 H 1.2607 0.5462 0.5008
C133 C 1.1647(8) 0.5513(3) 0.5735(8)
C134 C 1.1317(8) 0.5330(3) 0.6361(8)
C135 C 1.1064(7) 0.5189(3) 0.6854(7)
C136 C 1.0773(8) 0.5007(2) 0.7457(6)
C137 C 0.9942(8) 0.4954(3) 0.7499(6)
C138 C 0.9129(7) 0.4883(3) 0.7550(6)
C139 C 0.8854(7) 0.4611(3) 0.7198(6)
C140 C 0.8599(7) 0.4385(3) 0.6940(6)
C141 C 0.8298(7) 0.4113(2) 0.6624(5)
C142 C 0.8850(7) 0.3881(2) 0.6478(5)
C143 C 0.8572(7) 0.3619(2) 0.6158(5)
C144 C 0.9225(7) 0.3380(2) 0.5974(5)
H178 H 0.9700 0.3387 0.6351
C145 C 0.9614(6) 0.3455(2) 0.5243(5)
C146 C 0.9588(7) 0.3441(2) 0.3917(5)
C147 C 0.9174(7) 0.3336(2) 0.3206(6)
H179 H 0.9643 0.3332 0.2842
C148 C 0.8526(7) 0.3572(3) 0.2944(6)
C149 C 0.8811(7) 0.3820(3) 0.2570(5)
C150 C 0.8251(7) 0.4046(3) 0.2362(5)
C151 C 0.8543(8) 0.4299(3) 0.1975(6)
C152 C 0.8783(8) 0.4521(3) 0.1672(6)
C153 C 0.9100(8) 0.4781(3) 0.1313(6)
C154 C 0.8696(8) 0.5034(3) 0.1410(6)
C155 C 0.8244(8) 0.5277(3) 0.1469(7)
C156 C 0.8442(8) 0.5483(3) 0.2076(8)
C157 C 0.8549(8) 0.5634(3) 0.2592(8)
C158 C 0.8647(8) 0.5827(3) 0.3221(7)
C159 C 0.9103(14) 0.6110(4) 0.2996(10)
H180 H 0.8996 0.6265 0.3354
H181 H 0.8880 0.6173 0.2518
H182 H 0.9724 0.6074 0.2972
C160 C 1.1849(12) 0.5815(4) 0.6000(9)
H183 H 1.2153 0.5924 0.5624
H184 H 1.2216 0.5803 0.6441
H185 H 1.1313 0.5918 0.6111
C161 C 0.7415(7) 0.4080(3) 0.6442(5)
C162 C 0.6581(7) 0.4513(3) 0.6120(6)
H186 H 0.6471 0.4704 0.6360
H187 H 0.7044 0.4543 0.5766
O18 O 0.5838(4) 0.44200(16) 0.5754(4)
C163 C 0.5948(6) 0.4255(2) 0.5107(5)
C164 C 0.6053(6) 0.3954(2) 0.5144(5)
C165 C 0.6114(6) 0.3802(2) 0.4509(5)
H188 H 0.6209 0.3594 0.4524
C166 C 0.6040(6) 0.3944(2) 0.3829(5)
C167 C 0.6116(7) 0.3766(2) 0.3114(5)
H189 H 0.5780 0.3877 0.2731
C168 C 0.7063(7) 0.3777(2) 0.2896(5)
C169 C 0.7370(7) 0.4013(3) 0.2535(5)
C170 C 0.7810(9) 0.5878(4) 0.3557(8)
H190 H 0.7528 0.5688 0.3645
H191 H 0.7445 0.5998 0.3230
H192 H 0.7899 0.5983 0.4020
C171 C 0.7549(8) 0.5368(4) 0.0923(7)
C172 C 0.7436(9) 0.5132(4) 0.0355(8)
H193 H 0.7991 0.5093 0.0130
H194 H 0.7018 0.5199 -0.0018
H195 H 0.7226 0.4951 0.0582
C173 C 0.7839(10) 0.5669(4) 0.0569(9)
H196 H 0.7865 0.5824 0.0942
H197 H 0.7423 0.5726 0.0185
H198 H 0.8410 0.5645 0.0360
C174 C 0.6703(8) 0.5402(4) 0.1318(7)
H199 H 0.6513 0.5208 0.1489
H200 H 0.6264 0.5485 0.0986
H201 H 0.6788 0.5534 0.1736
C175 C 0.9868(7) 0.4735(3) 0.0806(6)
C176 C 1.0105(8) 0.5032(3) 0.0476(7)
H202 H 0.9654 0.5093 0.0125
H203 H 1.0655 0.5014 0.0229
H204 H 1.0159 0.5180 0.0863
C177 C 1.0613(8) 0.4603(3) 0.1263(7)
H205 H 1.0820 0.4750 0.1618
H206 H 1.1084 0.4548 0.0944
H207 H 1.0410 0.4427 0.1518
C178 C 0.9593(8) 0.4522(3) 0.0221(6)
H208 H 0.9379 0.4341 0.0444
H209 H 1.0087 0.4476 -0.0081
H210 H 0.9134 0.4611 -0.0082
O19 O 0.9663(4) 0.38451(18) 0.2357(4)
C179 C 1.0272(7) 0.3945(3) 0.2876(6)
H211 H 0.9985 0.4077 0.3223
H212 H 1.0720 0.4061 0.2628
C180 C 1.0293(7) 0.3625(3) 0.3924(6)
C181 C 1.0675(7) 0.3732(2) 0.4561(6)
C182 C 1.0318(7) 0.3637(2) 0.5223(6)
O20 O 1.0714(4) 0.37418(16) 0.5866(4)
C183 C 1.0330(7) 0.3992(2) 0.6190(6)
H213 H 1.0045 0.4114 0.5807
H214 H 1.0784 0.4114 0.6429
C184 C 0.7694(7) 0.3595(2) 0.5979(5)
H215 H 0.7492 0.3419 0.5753
C185 C 0.7100(7) 0.3819(2) 0.6117(5)
C186 C 0.6153(6) 0.3795(2) 0.5891(5)
H216 H 0.5817 0.3911 0.6250
C187 C 0.5802(7) 0.3481(2) 0.5894(6)
H217 H 0.5956 0.3386 0.6364
H218 H 0.6076 0.3366 0.5504
C188 C 0.4825(7) 0.3473(3) 0.5778(6)
H219 H 0.4670 0.3585 0.5331
H220 H 0.4551 0.3572 0.6192
C189 C 0.4463(8) 0.3151(3) 0.5707(7)
H221 H 0.4713 0.3054 0.5278
H222 H 0.4638 0.3036 0.6143
C190 C 0.3481(9) 0.3150(4) 0.5627(10)
H223 H 0.3241 0.3259 0.6043
H224 H 0.3315 0.3259 0.5179
C191 C 0.8842(7) 0.3071(2) 0.5980(6)
H225 H 0.8411 0.3054 0.5577
H226 H 0.8538 0.3042 0.6442
C192 C 0.9526(7) 0.2825(2) 0.5901(6)
H227 H 0.9871 0.2867 0.5468
H228 H 0.9921 0.2830 0.6332
C193 C 0.9159(9) 0.2527(3) 0.5830(6)
H229 H 0.8761 0.2524 0.5401
H230 H 0.8812 0.2486 0.6264
C194 C 0.9799(9) 0.2282(3) 0.5751(7)
H231 H 1.0142 0.2320 0.5313
H232 H 1.0200 0.2284 0.6178
C195 C 0.9407(11) 0.1984(3) 0.5687(9)
H233 H 0.8988 0.1982 0.5272
H234 H 0.9089 0.1940 0.6134
C196 C 1.0075(14) 0.1748(3) 0.5574(12)
H235 H 0.9818 0.1585 0.5294
H236 H 1.0285 0.1675 0.6047
H237 H 1.0558 0.1832 0.5308
C197 C 0.7657(7) 0.3562(3) 0.3109(5)
H238 H 0.7456 0.3398 0.3381
C198 C 0.8793(7) 0.3026(2) 0.3221(6)
H239 H 0.8478 0.2987 0.2756
H240 H 0.8374 0.3013 0.3618
C199 C 0.9487(9) 0.2790(3) 0.3336(7)
H241 H 0.9853 0.2785 0.2903
H242 H 0.9859 0.2847 0.3758
C200 C 0.9141(9) 0.2495(3) 0.3462(7)
H243 H 0.8724 0.2450 0.3062
H244 H 0.8813 0.2501 0.3917
C201 C 0.9777(12) 0.2238(4) 0.3522(10)
H245 H 1.0217 0.2286 0.3902
H246 H 0.9462 0.2060 0.3684
C202 C 1.0212(13) 0.2167(4) 0.2856(11)
H247 H 1.0615 0.2328 0.2728
H248 H 0.9787 0.2142 0.2450
C203 C 1.1388(7) 0.3931(3) 0.4549(6)
C204 C 1.1942(8) 0.4119(3) 0.4531(6)
C205 C 1.2593(7) 0.4332(3) 0.4498(7)
C206 C 1.2700(7) 0.4475(3) 0.3882(7)
C207 C 1.2741(7) 0.4609(3) 0.3264(7)
C208 C 1.2222(8) 0.4873(3) 0.3177(7)
C209 C 1.1749(8) 0.5091(3) 0.3141(8)
C210 C 1.1110(10) 0.5316(4) 0.3052(8)
C211 C 1.0228(12) 0.5110(5) 0.3167(13)
H249 H 1.0102 0.4997 0.2723
H250 H 0.9738 0.5240 0.3269
H251 H 1.0326 0.4975 0.3575
C212 C 1.0937(13) 0.5416(4) 0.2325(8)
H252 H 1.1483 0.5452 0.2082
H253 H 1.0603 0.5600 0.2338
H254 H 1.0607 0.5265 0.2056
O21 O 1.0916(10) 0.5499(4) 0.3609(7)
H255 H 1.0841 0.5399 0.3988
C213 C 1.3282(7) 0.4495(3) 0.2627(7)
C214 C 1.3994(9) 0.4722(3) 0.2467(8)
H256 H 1.3731 0.4915 0.2369
H257 H 1.4313 0.4658 0.2042
H258 H 1.4389 0.4737 0.2889
C215 C 1.3694(8) 0.4212(3) 0.2813(8)
H259 H 1.4024 0.4233 0.3271
H260 H 1.4083 0.4155 0.2425
H261 H 1.3251 0.4060 0.2866
C216 C 1.2688(9) 0.4453(4) 0.1963(9)
H262 H 1.2129 0.4378 0.2118
H263 H 1.2947 0.4312 0.1630
H264 H 1.2607 0.4643 0.1715
C217 C 1.3178(7) 0.4387(3) 0.5179(7)
C218 C 1.3762(8) 0.4648(3) 0.5070(8)
H265 H 1.4068 0.4624 0.4613
H266 H 1.4182 0.4660 0.5476
H267 H 1.3418 0.4829 0.5050
C219 C 1.2589(9) 0.4441(3) 0.5827(8)
H268 H 1.2216 0.4611 0.5722
H269 H 1.2943 0.4481 0.6264
H270 H 1.2232 0.4266 0.5906
C220 C 1.3702(8) 0.4100(3) 0.5306(7)
H271 H 1.3307 0.3932 0.5338
H272 H 1.4042 0.4117 0.5760
H273 H 1.4090 0.4070 0.4900
O22 O 0.6822(4) 0.42416(16) 0.2287(4)
C221 C 0.6612(7) 0.4458(3) 0.2799(6)
H274 H 0.7096 0.4478 0.3157
H275 H 0.6546 0.4650 0.2546
O23 O 0.5855(4) 0.43979(16) 0.3172(4)
C222 C 0.5938(6) 0.4247(2) 0.3825(5)
C223 C 0.5909(6) 0.4406(2) 0.4462(5)
C224 C 0.5837(6) 0.4721(3) 0.4432(6)
C225 C 0.5788(6) 0.4986(3) 0.4448(6)
C226 C 0.5719(6) 0.5306(2) 0.4399(6)
C227 C 0.5269(6) 0.5433(2) 0.3727(6)
C228 C 0.4318(7) 0.5338(3) 0.3744(7)
H276 H 0.4284 0.5127 0.3860
H277 H 0.4042 0.5374 0.3268
H278 H 0.4022 0.5452 0.4116
C229 C 0.5689(7) 0.5307(3) 0.3051(7)
H279 H 0.6296 0.5367 0.3046
H280 H 0.5388 0.5382 0.2614
H281 H 0.5652 0.5091 0.3061
C230 C 0.5311(7) 0.5765(3) 0.3736(7)
H282 H 0.5024 0.5840 0.4168
H283 H 0.5020 0.5844 0.3298
H284 H 0.5915 0.5829 0.3748
C231 C 0.6026(7) 0.5465(2) 0.4933(7)
C232 C 0.6280(7) 0.5634(2) 0.5473(7)
C233 C 0.5666(8) 0.5735(3) 0.6073(7)
C234 C 0.5685(10) 0.6069(3) 0.6098(9)
H285 H 0.6273 0.6136 0.6217
H286 H 0.5293 0.6140 0.6470
H287 H 0.5503 0.6149 0.5623
C235 C 0.6006(9) 0.5611(3) 0.6814(7)
H288 H 0.6037 0.5395 0.6788
H289 H 0.5613 0.5669 0.7199
H290 H 0.6582 0.5691 0.6923
C236 C 0.4773(8) 0.5616(3) 0.5924(8)
H291 H 0.4579 0.5674 0.5433
H292 H 0.4377 0.5697 0.6280
H293 H 0.4781 0.5400 0.5962
C237 C 0.7170(8) 0.5733(2) 0.5538(7)
C238 C 0.7909(9) 0.5810(3) 0.5627(7)
C239 C 0.8789(9) 0.5923(4) 0.5744(9)
C240 C 0.9104(11) 0.5855(5) 0.6476(10)
H294 H 0.8668 0.5912 0.6827
H295 H 0.9637 0.5965 0.6578
H296 H 0.9218 0.5643 0.6516
C241 C 0.8804(12) 0.6252(4) 0.5585(12)
H297 H 0.8697 0.6285 0.5064
H298 H 0.9370 0.6333 0.5727
H299 H 0.8355 0.6351 0.5862
O24 O 0.9379(6) 0.5793(3) 0.5251(6)
H300 H 0.9165 0.5637 0.5078
C242 C 0.5731(7) 0.3463(2) 0.3148(6)
H301 H 0.5989 0.3357 0.3571
H302 H 0.5884 0.3353 0.2705
C243 C 0.4745(8) 0.3462(3) 0.3213(7)
H303 H 0.4584 0.3606 0.3593
H304 H 0.4482 0.3530 0.2746
C244 C 0.4376(8) 0.3164(3) 0.3399(7)
H305 H 0.4612 0.3104 0.3882
H306 H 0.4577 0.3019 0.3039
C245 C 0.3385(8) 0.3150(3) 0.3417(8)
H307 H 0.3218 0.2971 0.3690
H308 H 0.3174 0.3323 0.3688
C246 C 0.2959(9) 0.3143(4) 0.2714(9)
H309 H 0.3196 0.2978 0.2428
H310 H 0.3086 0.3329 0.2454
C247 C 0.1966(9) 0.3106(4) 0.2753(12)
H311 H 0.1742 0.3021 0.2296
H312 H 0.1699 0.3300 0.2830
H313 H 0.1829 0.2975 0.3157
C248 C 0.8441(7) 0.5059(3) 0.7929(6)
C249 C 0.8876(9) 0.5330(3) 0.8323(8)
H314 H 0.9270 0.5259 0.8709
H315 H 0.8430 0.5454 0.8534
H316 H 0.9201 0.5445 0.7971
C250 C 0.8007(8) 0.4864(3) 0.8475(6)
H317 H 0.7713 0.4701 0.8221
H318 H 0.7585 0.4980 0.8741
H319 H 0.8441 0.4784 0.8817
C251 C 0.7769(9) 0.5171(3) 0.7371(8)
H320 H 0.8057 0.5285 0.6994
H321 H 0.7352 0.5297 0.7615
H322 H 0.7468 0.5002 0.7147
C252 C 1.1437(7) 0.4882(3) 0.8006(6)
C253 C 1.0993(9) 0.4684(3) 0.8568(7)
H323 H 1.0573 0.4801 0.8833
H324 H 1.1427 0.4605 0.8911
H325 H 1.0698 0.4521 0.8317
C254 C 1.2089(10) 0.4691(4) 0.7589(9)
H326 H 1.1777 0.4544 0.7294
H327 H 1.2476 0.4590 0.7937
H328 H 1.2427 0.4818 0.7272
C255 C 1.1896(9) 0.5134(3) 0.8386(9)
H329 H 1.2144 0.5265 0.8023
H330 H 1.2358 0.5056 0.8704
H331 H 1.1485 0.5244 0.8677
C256 C 1.0721(12) 0.1871(4) 0.2995(15)
H332 H 1.0900 0.1788 0.2530
H333 H 1.0348 0.1729 0.3239
H334 H 1.1232 0.1910 0.3303
C257 C 0.3091(11) 0.2864(4) 0.5593(13)
H335 H 0.3269 0.2751 0.6032
H336 H 0.3307 0.2758 0.5164
C258 C 0.2062(13) 0.2877(6) 0.5541(19)
H337 H 0.1879 0.2955 0.5066
H338 H 0.1848 0.3006 0.5926
H339 H 0.1828 0.2678 0.5601
C259 C 0.6686(10) 0.2666(3) 0.5597(7)
H340 H 0.6477 0.2474 0.5423
H341 H 0.6246 0.2758 0.5897
H342 H 0.7217 0.2638 0.5889
C260 C 0.6861(9) 0.2857(3) 0.4975(8)
N2 N 0.7015(7) 0.3005(3) 0.4494(6)
C261 C 0.8436(10) 0.4178(4) 0.4400(9)
H343 H 0.8382 0.4212 0.3874
H344 H 0.7875 0.4119 0.4587
H345 H 0.8858 0.4021 0.4496
C262 C 0.8720(13) 0.4445(5) 0.4753(11)
H346 H 0.8661 0.4403 0.5284
C263 C 0.9718(13) 0.4523(5) 0.4668(15)
H347 H 1.0081 0.4346 0.4752
H348 H 0.9825 0.4600 0.4175
C264 C 0.9929(14) 0.4769(5) 0.5267(14)
H349 H 0.9828 0.4684 0.5753
H350 H 1.0549 0.4820 0.5245
C265 C 0.9386(13) 0.5063(5) 0.5187(15)
H351 H 0.9514 0.5164 0.4725
H352 H 0.9522 0.5199 0.5595
C266 C 0.8403(14) 0.4966(5) 0.5198(15)
H353 H 0.8273 0.4885 0.5683
H354 H 0.8033 0.5141 0.5113
C267 C 0.8195(14) 0.4735(5) 0.4624(15)
H355 H 0.8327 0.4816 0.4139
H356 H 0.7571 0.4690 0.4629
C268 C 0.6471(15) 0.1887(5) 0.0591(13)
H357 H 0.6803 0.1701 0.0562
H358 H 0.6649 0.1992 0.1043
C269 C 0.6653(14) 0.2096(6) -0.0125(16)
H359 H 0.7265 0.2158 -0.0100
H360 H 0.6576 0.1972 -0.0564
C270 C 0.6149(18) 0.2352(7) -0.022(3)
H361 H 0.6212 0.2412 0.0297
C271 C 0.5117(16) 0.2285(6) -0.0164(17)
H362 H 0.4801 0.2474 -0.0136
H363 H 0.4912 0.2180 -0.0608
C272 C 0.4911(15) 0.2091(5) 0.0522(15)
H364 H 0.4978 0.2214 0.0966
H365 H 0.4304 0.2024 0.0487
C273 C 0.5505(15) 0.1822(6) 0.0590(15)
H366 H 0.5372 0.1717 0.1046
H367 H 0.5367 0.1686 0.0181
C274 C 0.6411(11) 0.2627(5) -0.0485(10)
H368 H 0.6912 0.2696 -0.0198
H369 H 0.5938 0.2769 -0.0442
H370 H 0.6566 0.2609 -0.0996
loop_
_geom_bond_atom_site_label_1
_geom_bond_atom_site_label_2
_geom_bond_site_symmetry_1
_geom_bond_site_symmetry_2
C1 C37 1_555 1_555
O1 C40 1_555 1_555
O2 C12 1_555 1_555
O3 C53 1_555 1_555
O4 C20 1_555 1_555
O5 C55 1_555 1_555
O6 H1 1_555 1_555
O7 H2 1_555 1_555
C2 H3 1_555 1_555
H4 C2 1_555 1_555
H5 C2 1_555 1_555
C3 O7 1_555 1_555
C4 C3 1_555 1_555
C5 C4 1_555 1_555
C6 C5 1_555 1_555
C7 C6 1_555 1_555
C8 C7 1_555 1_555
C9 C8 1_555 1_555
C10 C9 1_555 1_555
C11 C10 1_555 1_555
C12 C11 1_555 1_555
C13 C12 1_555 1_555
C14 C13 1_555 1_555
H6 C14 1_555 1_555
C15 C14 1_555 1_555
C16 C15 1_555 1_555
H7 C16 1_555 1_555
C17 C16 1_555 1_555
C18 C17 1_555 1_555
H8 C18 1_555 1_555
C19 C18 1_555 1_555
C20 C19 1_555 1_555
C21 C20 1_555 1_555
C22 C21 1_555 1_555
C23 C22 1_555 1_555
C24 C23 1_555 1_555
C25 C24 1_555 1_555
C26 C25 1_555 1_555
C27 C26 1_555 1_555
C28 C27 1_555 1_555
C29 C28 1_555 1_555
C30 C29 1_555 1_555
H9 C30 1_555 1_555
H10 C30 1_555 1_555
H11 C30 1_555 1_555
O8 H12 1_555 1_555
C31 O8 1_555 1_555
C32 C31 1_555 1_555
H13 C32 1_555 1_555
H14 C32 1_555 1_555
H15 C32 1_555 1_555
C33 C31 1_555 1_555
C34 C33 1_555 1_555
C35 C34 1_555 1_555
C36 C35 1_555 1_555
C37 C36 1_555 1_555
C38 C1 1_555 1_555
C39 C38 1_555 1_555
C40 C15 1_555 1_555
C41 O1 1_555 1_555
H16 C41 1_555 1_555
H17 C41 1_555 1_555
C42 C13 1_555 1_555
H18 C42 1_555 1_555
C43 C42 1_555 1_555
C44 C11 1_555 1_555
O9 C44 1_555 1_555
C45 O9 1_555 1_555
H19 C45 1_555 1_555
H20 C45 1_555 1_555
O10 C45 1_555 1_555
C46 O10 1_555 1_555
C47 C46 1_555 1_555
C48 C47 1_555 1_555
C49 C48 1_555 1_555
C50 C49 1_555 1_555
H21 C50 1_555 1_555
C51 C50 1_555 1_555
C52 C19 1_555 1_555
H22 C52 1_555 1_555
C53 C17 1_555 1_555
C54 O3 1_555 1_555
H23 C54 1_555 1_555
H24 C54 1_555 1_555
C55 C21 1_555 1_555
C56 O5 1_555 1_555
H25 C56 1_555 1_555
H26 C56 1_555 1_555
O11 C48 1_555 1_555
C57 C24 1_555 1_555
C58 C57 1_555 1_555
H27 C58 1_555 1_555
H28 C58 1_555 1_555
H29 C58 1_555 1_555
C59 C57 1_555 1_555
H30 C59 1_555 1_555
H31 C59 1_555 1_555
H32 C59 1_555 1_555
C60 C57 1_555 1_555
H33 C60 1_555 1_555
H34 C60 1_555 1_555
H35 C60 1_555 1_555
C61 C26 1_555 1_555
C62 C61 1_555 1_555
H36 C62 1_555 1_555
H37 C62 1_555 1_555
H38 C62 1_555 1_555
C63 C61 1_555 1_555
H39 C63 1_555 1_555
H40 C63 1_555 1_555
H41 C63 1_555 1_555
C64 C61 1_555 1_555
H42 C64 1_555 1_555
H43 C64 1_555 1_555
H44 C64 1_555 1_555
C65 C29 1_555 1_555
H45 C65 1_555 1_555
H46 C65 1_555 1_555
H47 C65 1_555 1_555
O12 C29 1_555 1_555
H48 O12 1_555 1_555
C66 C14 1_555 1_555
H49 C66 1_555 1_555
H50 C66 1_555 1_555
C67 C66 1_555 1_555
H51 C67 1_555 1_555
H52 C67 1_555 1_555
C68 C67 1_555 1_555
H53 C68 1_555 1_555
H54 C68 1_555 1_555
C69 C68 1_555 1_555
H55 C69 1_555 1_555
H56 C69 1_555 1_555
C70 C69 1_555 1_555
H57 C70 1_555 1_555
H58 C70 1_555 1_555
C71 C18 1_555 1_555
H59 C71 1_555 1_555
H60 C71 1_555 1_555
C72 C71 1_555 1_555
H61 C72 1_555 1_555
H62 C72 1_555 1_555
C73 C72 1_555 1_555
H63 C73 1_555 1_555
H64 C73 1_555 1_555
C74 C73 1_555 1_555
H65 C74 1_555 1_555
H66 C74 1_555 1_555
C75 C74 1_555 1_555
H67 C75 1_555 1_555
H68 C75 1_555 1_555
C76 C50 1_555 1_555
H69 C76 1_555 1_555
H70 C76 1_555 1_555
C77 C76 1_555 1_555
H71 C77 1_555 1_555
H72 C77 1_555 1_555
C78 C77 1_555 1_555
H73 C78 1_555 1_555
H74 C78 1_555 1_555
C79 C49 1_555 1_555
H75 C79 1_555 1_555
C80 C46 1_555 1_555
C81 C43 1_555 1_555
H76 C81 1_555 1_555
C82 C81 1_555 1_555
H77 C82 1_555 1_555
H78 C82 1_555 1_555
C83 C82 1_555 1_555
H79 C83 1_555 1_555
H80 C83 1_555 1_555
C84 C83 1_555 1_555
H81 C84 1_555 1_555
H82 C84 1_555 1_555
C85 C84 1_555 1_555
H83 C85 1_555 1_555
H84 C85 1_555 1_555
C86 C85 1_555 1_555
H85 C86 1_555 1_555
H86 C86 1_555 1_555
C87 C86 1_555 1_555
H87 C87 1_555 1_555
H88 C87 1_555 1_555
H89 C87 1_555 1_555
C88 C47 1_555 1_555
C89 C88 1_555 1_555
C90 C89 1_555 1_555
C91 C90 1_555 1_555
C92 C91 1_555 1_555
H90 C92 1_555 1_555
H91 C92 1_555 1_555
H92 C92 1_555 1_555
C93 C91 1_555 1_555
H93 C93 1_555 1_555
H94 C93 1_555 1_555
H95 C93 1_555 1_555
C94 C91 1_555 1_555
H96 C94 1_555 1_555
H97 C94 1_555 1_555
H98 C94 1_555 1_555
C95 C90 1_555 1_555
C96 C95 1_555 1_555
C97 C96 1_555 1_555
C98 C97 1_555 1_555
C99 O6 1_555 1_555
C100 C99 1_555 1_555
H99 C100 1_555 1_555
H100 C100 1_555 1_555
H101 C100 1_555 1_555
C101 C99 1_555 1_555
H102 C101 1_555 1_555
H103 C101 1_555 1_555
H104 C101 1_555 1_555
C102 C96 1_555 1_555
C103 C102 1_555 1_555
H105 C103 1_555 1_555
H106 C103 1_555 1_555
H107 C103 1_555 1_555
C104 C102 1_555 1_555
H108 C104 1_555 1_555
H109 C104 1_555 1_555
H110 C104 1_555 1_555
C105 C102 1_555 1_555
H111 C105 1_555 1_555
H112 C105 1_555 1_555
H113 C105 1_555 1_555
C106 C8 1_555 1_555
C107 C106 1_555 1_555
H114 C107 1_555 1_555
H115 C107 1_555 1_555
H116 C107 1_555 1_555
C108 C106 1_555 1_555
H117 C108 1_555 1_555
H118 C108 1_555 1_555
H119 C108 1_555 1_555
C109 C106 1_555 1_555
H120 C109 1_555 1_555
H121 C109 1_555 1_555
H122 C109 1_555 1_555
C110 C6 1_555 1_555
C111 C110 1_555 1_555
H123 C111 1_555 1_555
H124 C111 1_555 1_555
H125 C111 1_555 1_555
C112 C110 1_555 1_555
H126 C112 1_555 1_555
H127 C112 1_555 1_555
H128 C112 1_555 1_555
C113 C110 1_555 1_555
H129 C113 1_555 1_555
H130 C113 1_555 1_555
H131 C113 1_555 1_555
C114 C3 1_555 1_555
H132 C114 1_555 1_555
H133 C114 1_555 1_555
H134 C114 1_555 1_555
C115 C37 1_555 1_555
C116 C115 1_555 1_555
H135 C116 1_555 1_555
H136 C116 1_555 1_555
H137 C116 1_555 1_555
C117 C115 1_555 1_555
H138 C117 1_555 1_555
H139 C117 1_555 1_555
H140 C117 1_555 1_555
C118 C115 1_555 1_555
H141 C118 1_555 1_555
H142 C118 1_555 1_555
H143 C118 1_555 1_555
C119 C35 1_555 1_555
C120 C119 1_555 1_555
H144 C120 1_555 1_555
H145 C120 1_555 1_555
H146 C120 1_555 1_555
C121 C119 1_555 1_555
H147 C121 1_555 1_555
H148 C121 1_555 1_555
H149 C121 1_555 1_555
C122 C31 1_555 1_555
H150 C122 1_555 1_555
H151 C122 1_555 1_555
H152 C122 1_555 1_555
C123 C78 1_555 1_555
H153 C123 1_555 1_555
H154 C123 1_555 1_555
C124 C119 1_555 1_555
H155 C124 1_555 1_555
H156 C124 1_555 1_555
H157 C124 1_555 1_555
C125 C123 1_555 1_555
H158 C125 1_555 1_555
H159 C125 1_555 1_555
C126 C70 1_555 1_555
H160 C126 1_555 1_555
H161 C126 1_555 1_555
H162 C126 1_555 1_555
C127 C75 1_555 1_555
H163 C127 1_555 1_555
H164 C127 1_555 1_555
H165 C127 1_555 1_555
C128 C125 1_555 1_555
H166 C128 1_555 1_555
H167 C128 1_555 1_555
H168 C128 1_555 1_555
C129 H169 1_555 1_555
H170 C129 1_555 1_555
H171 C129 1_555 1_555
N1 C130 1_555 1_555
C130 C129 1_555 1_555
C131 H172 1_555 1_555
O13 H173 1_555 1_555
O14 C161 1_555 1_555
O15 H174 1_555 1_555
O16 C179 1_555 1_555
O17 C142 1_555 1_555
C132 H175 1_555 1_555
H176 C132 1_555 1_555
H177 C132 1_555 1_555
C133 O13 1_555 1_555
C134 C133 1_555 1_555
C135 C134 1_555 1_555
C136 C135 1_555 1_555
C137 C136 1_555 1_555
C138 C137 1_555 1_555
C139 C138 1_555 1_555
C140 C139 1_555 1_555
C141 C140 1_555 1_555
C142 C141 1_555 1_555
C143 C142 1_555 1_555
C144 C143 1_555 1_555
H178 C144 1_555 1_555
C145 C131 1_555 1_555
C146 C131 1_555 1_555
C147 C146 1_555 1_555
H179 C147 1_555 1_555
C148 C147 1_555 1_555
C149 C148 1_555 1_555
C150 C149 1_555 1_555
C151 C150 1_555 1_555
C152 C151 1_555 1_555
C153 C152 1_555 1_555
C154 C153 1_555 1_555
C155 C154 1_555 1_555
C156 C155 1_555 1_555
C157 C156 1_555 1_555
C158 O15 1_555 1_555
C159 C158 1_555 1_555
H180 C159 1_555 1_555
H181 C159 1_555 1_555
H182 C159 1_555 1_555
C160 C133 1_555 1_555
H183 C160 1_555 1_555
H184 C160 1_555 1_555
H185 C160 1_555 1_555
C161 C141 1_555 1_555
C162 O14 1_555 1_555
H186 C162 1_555 1_555
H187 C162 1_555 1_555
O18 C162 1_555 1_555
C163 O18 1_555 1_555
C164 C163 1_555 1_555
C165 C164 1_555 1_555
H188 C165 1_555 1_555
C166 C165 1_555 1_555
C167 C166 1_555 1_555
H189 C167 1_555 1_555
C168 C167 1_555 1_555
C169 C150 1_555 1_555
C170 C158 1_555 1_555
H190 C170 1_555 1_555
H191 C170 1_555 1_555
H192 C170 1_555 1_555
C171 C155 1_555 1_555
C172 C171 1_555 1_555
H193 C172 1_555 1_555
H194 C172 1_555 1_555
H195 C172 1_555 1_555
C173 C171 1_555 1_555
H196 C173 1_555 1_555
H197 C173 1_555 1_555
H198 C173 1_555 1_555
C174 C171 1_555 1_555
H199 C174 1_555 1_555
H200 C174 1_555 1_555
H201 C174 1_555 1_555
C175 C153 1_555 1_555
C176 C175 1_555 1_555
H202 C176 1_555 1_555
H203 C176 1_555 1_555
H204 C176 1_555 1_555
C177 C175 1_555 1_555
H205 C177 1_555 1_555
H206 C177 1_555 1_555
H207 C177 1_555 1_555
C178 C175 1_555 1_555
H208 C178 1_555 1_555
H209 C178 1_555 1_555
H210 C178 1_555 1_555
O19 C149 1_555 1_555
C179 O19 1_555 1_555
H211 C179 1_555 1_555
H212 C179 1_555 1_555
C180 O16 1_555 1_555
C181 C180 1_555 1_555
C182 C145 1_555 1_555
O20 C182 1_555 1_555
C183 O17 1_555 1_555
H213 C183 1_555 1_555
H214 C183 1_555 1_555
C184 C143 1_555 1_555
H215 C184 1_555 1_555
C185 C161 1_555 1_555
C186 C164 1_555 1_555
H216 C186 1_555 1_555
C187 C186 1_555 1_555
H217 C187 1_555 1_555
H218 C187 1_555 1_555
C188 C187 1_555 1_555
H219 C188 1_555 1_555
H220 C188 1_555 1_555
C189 C188 1_555 1_555
H221 C189 1_555 1_555
H222 C189 1_555 1_555
C190 C189 1_555 1_555
H223 C190 1_555 1_555
H224 C190 1_555 1_555
C191 C144 1_555 1_555
H225 C191 1_555 1_555
H226 C191 1_555 1_555
C192 C191 1_555 1_555
H227 C192 1_555 1_555
H228 C192 1_555 1_555
C193 C192 1_555 1_555
H229 C193 1_555 1_555
H230 C193 1_555 1_555
C194 C193 1_555 1_555
H231 C194 1_555 1_555
H232 C194 1_555 1_555
C195 C194 1_555 1_555
H233 C195 1_555 1_555
H234 C195 1_555 1_555
C196 C195 1_555 1_555
H235 C196 1_555 1_555
H236 C196 1_555 1_555
H237 C196 1_555 1_555
C197 C148 1_555 1_555
H238 C197 1_555 1_555
C198 C147 1_555 1_555
H239 C198 1_555 1_555
H240 C198 1_555 1_555
C199 C198 1_555 1_555
H241 C199 1_555 1_555
H242 C199 1_555 1_555
C200 C199 1_555 1_555
H243 C200 1_555 1_555
H244 C200 1_555 1_555
C201 C200 1_555 1_555
H245 C201 1_555 1_555
H246 C201 1_555 1_555
C202 C201 1_555 1_555
H247 C202 1_555 1_555
H248 C202 1_555 1_555
C203 C181 1_555 1_555
C204 C203 1_555 1_555
C205 C204 1_555 1_555
C206 C205 1_555 1_555
C207 C206 1_555 1_555
C208 C207 1_555 1_555
C209 C208 1_555 1_555
C210 C209 1_555 1_555
C211 C210 1_555 1_555
H249 C211 1_555 1_555
H250 C211 1_555 1_555
H251 C211 1_555 1_555
C212 C210 1_555 1_555
H252 C212 1_555 1_555
H253 C212 1_555 1_555
H254 C212 1_555 1_555
O21 C210 1_555 1_555
H255 O21 1_555 1_555
C213 C207 1_555 1_555
C214 C213 1_555 1_555
H256 C214 1_555 1_555
H257 C214 1_555 1_555
H258 C214 1_555 1_555
C215 C213 1_555 1_555
H259 C215 1_555 1_555
H260 C215 1_555 1_555
H261 C215 1_555 1_555
C216 C213 1_555 1_555
H262 C216 1_555 1_555
H263 C216 1_555 1_555
H264 C216 1_555 1_555
C217 C205 1_555 1_555
C218 C217 1_555 1_555
H265 C218 1_555 1_555
H266 C218 1_555 1_555
H267 C218 1_555 1_555
C219 C217 1_555 1_555
H268 C219 1_555 1_555
H269 C219 1_555 1_555
H270 C219 1_555 1_555
C220 C217 1_555 1_555
H271 C220 1_555 1_555
H272 C220 1_555 1_555
H273 C220 1_555 1_555
O22 C169 1_555 1_555
C221 O22 1_555 1_555
H274 C221 1_555 1_555
H275 C221 1_555 1_555
O23 C221 1_555 1_555
C222 C166 1_555 1_555
C223 C163 1_555 1_555
C224 C223 1_555 1_555
C225 C224 1_555 1_555
C226 C225 1_555 1_555
C227 C226 1_555 1_555
C228 C227 1_555 1_555
H276 C228 1_555 1_555
H277 C228 1_555 1_555
H278 C228 1_555 1_555
C229 C227 1_555 1_555
H279 C229 1_555 1_555
H280 C229 1_555 1_555
H281 C229 1_555 1_555
C230 C227 1_555 1_555
H282 C230 1_555 1_555
H283 C230 1_555 1_555
H284 C230 1_555 1_555
C231 C226 1_555 1_555
C232 C231 1_555 1_555
C233 C232 1_555 1_555
C234 C233 1_555 1_555
H285 C234 1_555 1_555
H286 C234 1_555 1_555
H287 C234 1_555 1_555
C235 C233 1_555 1_555
H288 C235 1_555 1_555
H289 C235 1_555 1_555
H290 C235 1_555 1_555
C236 C233 1_555 1_555
H291 C236 1_555 1_555
H292 C236 1_555 1_555
H293 C236 1_555 1_555
C237 C232 1_555 1_555
C238 C237 1_555 1_555
C239 C238 1_555 1_555
C240 C239 1_555 1_555
H294 C240 1_555 1_555
H295 C240 1_555 1_555
H296 C240 1_555 1_555
C241 C239 1_555 1_555
H297 C241 1_555 1_555
H298 C241 1_555 1_555
H299 C241 1_555 1_555
O24 C239 1_555 1_555
H300 O24 1_555 1_555
C242 C167 1_555 1_555
H301 C242 1_555 1_555
H302 C242 1_555 1_555
C243 C242 1_555 1_555
H303 C243 1_555 1_555
H304 C243 1_555 1_555
C244 C243 1_555 1_555
H305 C244 1_555 1_555
H306 C244 1_555 1_555
C245 C244 1_555 1_555
H307 C245 1_555 1_555
H308 C245 1_555 1_555
C246 C245 1_555 1_555
H309 C246 1_555 1_555
H310 C246 1_555 1_555
C247 C246 1_555 1_555
H311 C247 1_555 1_555
H312 C247 1_555 1_555
H313 C247 1_555 1_555
C248 C138 1_555 1_555
C249 C248 1_555 1_555
H314 C249 1_555 1_555
H315 C249 1_555 1_555
H316 C249 1_555 1_555
C250 C248 1_555 1_555
H317 C250 1_555 1_555
H318 C250 1_555 1_555
H319 C250 1_555 1_555
C251 C248 1_555 1_555
H320 C251 1_555 1_555
H321 C251 1_555 1_555
H322 C251 1_555 1_555
C252 C136 1_555 1_555
C253 C252 1_555 1_555
H323 C253 1_555 1_555
H324 C253 1_555 1_555
H325 C253 1_555 1_555
C254 C252 1_555 1_555
H326 C254 1_555 1_555
H327 C254 1_555 1_555
H328 C254 1_555 1_555
C255 C252 1_555 1_555
H329 C255 1_555 1_555
H330 C255 1_555 1_555
H331 C255 1_555 1_555
C256 C202 1_555 1_555
H332 C256 1_555 1_555
H333 C256 1_555 1_555
H334 C256 1_555 1_555
C257 C190 1_555 1_555
H335 C257 1_555 1_555
H336 C257 1_555 1_555
C258 C257 1_555 1_555
H337 C258 1_555 1_555
H338 C258 1_555 1_555
H339 C258 1_555 1_555
C259 H340 1_555 1_555
H341 C259 1_555 1_555
H342 C259 1_555 1_555
C260 C259 1_555 1_555
N2 C260 1_555 1_555
C261 H343 1_555 1_555
H344 C261 1_555 1_555
H345 C261 1_555 1_555
C262 C261 1_555 1_555
H346 C262 1_555 1_555
C263 C262 1_555 1_555
H347 C263 1_555 1_555
H348 C263 1_555 1_555
C264 C263 1_555 1_555
H349 C264 1_555 1_555
H350 C264 1_555 1_555
C265 C264 1_555 1_555
H351 C265 1_555 1_555
H352 C265 1_555 1_555
C266 C265 1_555 1_555
H353 C266 1_555 1_555
H354 C266 1_555 1_555
C267 C262 1_555 1_555
H355 C267 1_555 1_555
H356 C267 1_555 1_555
C268 H357 1_555 1_555
H358 C268 1_555 1_555
C269 C268 1_555 1_555
H359 C269 1_555 1_555
H360 C269 1_555 1_555
C270 C269 1_555 1_555
H361 C270 1_555 1_555
C271 C270 1_555 1_555
H362 C271 1_555 1_555
H363 C271 1_555 1_555
C272 C271 1_555 1_555
H364 C272 1_555 1_555
H365 C272 1_555 1_555
C273 C268 1_555 1_555
H366 C273 1_555 1_555
H367 C273 1_555 1_555
C274 C270 1_555 1_555
H368 C274 1_555 1_555
H369 C274 1_555 1_555
H370 C274 1_555 1_555
O2 C41 1_555 1_555
O4 C54 1_555 1_555
C2 C3 1_555 1_555
C39 C40 1_555 1_555
C39 C53 1_555 1_555
C43 C44 1_555 1_555
C51 C52 1_555 1_555
C51 C55 1_555 1_555
C56 O11 1_555 1_555
C79 C80 1_555 1_555
C80 C81 1_555 1_555
C98 C99 1_555 1_555
C132 C133 1_555 1_555
C144 C145 1_555 1_555
C146 C180 1_555 1_555
C157 C158 1_555 1_555
C168 C169 1_555 1_555
C168 C197 1_555 1_555
C181 C182 1_555 1_555
O20 C183 1_555 1_555
C184 C185 1_555 1_555
C185 C186 1_555 1_555
O23 C222 1_555 1_555
C222 C223 1_555 1_555
C266 C267 1_555 1_555
C272 C273 1_555 1_555

#END
