
#######################################################################
#
#                 Cambridge Crystallographic Data Centre
#                                CCDC 
#
#######################################################################
#
# If this CIF has been generated from an entry in the Cambridge 
# Structural Database, then it will include bibliographic, chemical, 
# crystal, experimental, refinement or atomic coordinate data resulting 
# from the CCDC's data processing and validation procedures.
#
#######################################################################

data_IYUYIM
_chemical_formula_moiety         'C128 H168 O12,3(C2 H3 N1)'
_chemical_name_systematic        
"(P)-2,8,14,20-tetra-n-hexyl-5,11,17,23-tetrakis(3,5-di-tert-butyl-8-hydroxy-8-methylnona-3,4-diene-1,6-diyn-1-yl)-4,24:6,10:12,16:18,22-O,O'-tetramethylenecalix[4]resorcinarene tris(acetonitrile) clathrate"
_symmetry_cell_setting           monoclinic
_symmetry_space_group_name_H-M   'P 21'
_symmetry_Int_Tables_number      4
_space_group_name_Hall           'P 2yb'
loop_
_symmetry_equiv_pos_site_id
_symmetry_equiv_pos_as_xyz
1 x,y,z
2 -x,1/2+y,-z
_cell_length_a                   16.7212(8)
_cell_length_b                   17.1312(8)
_cell_length_c                   22.5210(11)
_cell_angle_alpha                90
_cell_angle_beta                 93.873(3)
_cell_angle_gamma                90
_cell_volume                     6436.5
_exptl_crystal_colour            'light yellow'
_exptl_crystal_description       plate
_cell_formula_units_Z            2
_exptl_crystal_recrystallization_method acetonitrile/water
loop_
_atom_site_label
_atom_site_type_symbol
_atom_site_fract_x
_atom_site_fract_y
_atom_site_fract_z
O1 O 0.15633(14) 0.42934(14) 0.82036(11)
O2 O -0.4551(2) 0.1582(2) 0.73336(17)
H1 H -0.4753 0.2012 0.7421
O3 O 0.61620(14) 0.44099(16) 0.51500(13)
H2 H 0.5985 0.4809 0.4969
O4 O -0.56403(16) 1.06585(17) 0.67099(14)
H3 H -0.5259 1.0881 0.6904
O5 O 0.41910(14) 1.07944(16) 0.54915(13)
H4 H 0.4222 1.0750 0.5864
O6 O 0.02546(14) 0.42192(14) 0.85197(11)
O7 O -0.18165(13) 0.59888(14) 0.89281(11)
O8 O -0.20190(13) 0.73439(15) 0.89592(11)
O9 O -0.04223(13) 0.95152(14) 0.84641(11)
O10 O 0.08405(13) 0.95980(14) 0.80733(11)
O11 O 0.28404(14) 0.77968(14) 0.75590(10)
O12 O 0.31374(13) 0.64513(14) 0.76412(11)
C1 C -0.00456(19) 0.7982(2) 0.95848(15)
H5 H 0.0352 0.7832 0.9884
C2 C 0.5170(3) 0.4114(4) 1.0877(3)
H6 H 0.5607 0.4286 1.0640
H7 H 0.5101 0.3548 1.0837
H8 H 0.5297 0.4245 1.1296
C3 C 0.6702(4) 0.6226(6) 1.0835(4)
H9 H 0.7041 0.6368 1.0514
H10 H 0.6592 0.5665 1.0820
H11 H 0.6979 0.6357 1.1220
C4 C -0.1510(4) 0.6035(4) 1.2792(2)
H12 H -0.1951 0.5757 1.2574
H13 H -0.1681 0.6200 1.3180
H14 H -0.1046 0.5687 1.2849
C5 C 0.00911(19) 0.8641(2) 0.92420(15)
C6 C 0.4373(3) 0.4535(4) 1.0650(3)
H15 H 0.4422 0.5100 1.0736
H16 H 0.4291 0.4470 1.0214
C7 C 0.5924(4) 0.6671(6) 1.0763(3)
H17 H 0.6041 0.7236 1.0804
H18 H 0.5587 0.6522 1.1090
C8 C -0.1295(3) 0.6712(3) 1.2455(2)
H19 H -0.0797 0.6928 1.2654
H20 H -0.1719 0.7107 1.2495
C9 C 0.3812(4) 0.9761(5) 1.1217(3)
H21 H 0.3477 0.9908 1.1546
H22 H 0.3935 0.9198 1.1257
C10 C 0.14162(19) 0.8741(2) 0.88425(15)
C11 C 0.3650(3) 0.4210(4) 1.0945(3)
H23 H 0.3573 0.3657 1.0826
H24 H 0.3759 0.4225 1.1382
C12 C 0.5455(3) 0.6535(4) 1.0178(2)
H25 H 0.5787 0.6701 0.9853
H26 H 0.5358 0.5967 1.0131
C13 C -0.1165(3) 0.6643(3) 1.1818(2)
H27 H -0.1672 0.6463 1.1609
H28 H -0.0759 0.6232 1.1769
C14 C 0.3330(3) 0.9906(3) 1.0615(2)
H29 H 0.3180 1.0464 1.0587
H30 H 0.3676 0.9789 1.0287
C15 C 0.19748(19) 0.8160(2) 0.89924(15)
H31 H 0.2026 0.7982 0.9393
C16 C 0.2882(3) 0.4655(3) 1.0781(2)
H32 H 0.2987 0.5220 1.0840
H33 H 0.2475 0.4500 1.1058
C17 C 0.4661(3) 0.6951(3) 1.0104(2)
H34 H 0.4750 0.7517 1.0162
H35 H 0.4315 0.6769 1.0416
C18 C -0.0901(3) 0.7363(3) 1.1518(2)
H36 H -0.0321 0.7435 1.1625
H37 H -0.1183 0.7812 1.1685
C19 C 0.2580(2) 0.9417(3) 1.05370(19)
H38 H 0.2262 0.9493 1.0888
H39 H 0.2735 0.8860 1.0525
C20 C 0.24636(19) 0.7826(2) 0.85839(15)
C21 C 0.2530(2) 0.4525(3) 1.01349(19)
H40 H 0.2914 0.4719 0.9853
H41 H 0.2449 0.3960 1.0063
C22 C 0.4226(2) 0.6818(3) 0.94965(18)
H42 H 0.4594 0.6943 0.9184
H43 H 0.4081 0.6259 0.9457
C23 C -0.1028(3) 0.7402(2) 1.08493(19)
H44 H -0.0873 0.7930 1.0719
H45 H -0.1607 0.7336 1.0739
C24 C 0.2051(2) 0.9609(2) 0.99742(16)
H46 H 0.2358 0.9514 0.9620
H47 H 0.1905 1.0169 0.9978
C25 C 0.27068(18) 0.6408(2) 0.86404(15)
C26 C 0.1736(2) 0.4950(2) 1.00275(16)
H48 H 0.1813 0.5508 1.0133
H49 H 0.1346 0.4729 1.0293
C27 C 0.3471(2) 0.7308(2) 0.93964(16)
H50 H 0.3606 0.7865 0.9465
H51 H 0.3081 0.7154 0.9687
C28 C -0.0565(2) 0.6799(2) 1.05063(16)
H52 H 0.0013 0.6931 1.0538
H53 H -0.0629 0.6276 1.0685
C29 C 0.1284(2) 0.9117(2) 0.99254(16)
H54 H 0.0901 0.9331 1.0200
H55 H 0.1416 0.8576 1.0053
C30 C 0.22816(19) 0.6009(2) 0.90603(15)
H56 H 0.2257 0.6228 0.9446
C31 C 0.1388(2) 0.4892(2) 0.93826(16)
H57 H 0.1376 0.4326 0.9276
C32 C 0.30836(19) 0.7206(2) 0.87605(15)
H58 H 0.3523 0.7261 0.8484
C33 C -0.08677(19) 0.6778(2) 0.98504(15)
H59 H -0.1461 0.6697 0.9844
C34 C 0.08790(19) 0.9097(2) 0.92931(15)
H60 H 0.0760 0.9648 0.9169
C35 C 0.18925(19) 0.5302(2) 0.89340(15)
C36 C -0.3591(3) 0.0601(3) 0.7640(3)
H61 H -0.3545 0.0470 0.7220
H62 H -0.4011 0.0280 0.7800
H63 H -0.3079 0.0499 0.7864
C37 C 0.5863(2) 0.3205(2) 0.55830(19)
H64 H 0.5944 0.3427 0.5984
H65 H 0.6375 0.3007 0.5456
H66 H 0.5476 0.2775 0.5586
C38 C -0.6636(2) 0.9677(3) 0.6682(2)
H67 H -0.6462 0.9524 0.6292
H68 H -0.7065 1.0066 0.6630
H69 H -0.6835 0.9217 0.6885
C39 C 0.3675(3) 1.1506(3) 0.4657(2)
H70 H 0.3634 1.1013 0.4436
H71 H 0.4201 1.1742 0.4610
H72 H 0.3253 1.1863 0.4501
C40 C 0.0537(2) 0.5193(2) 0.92830(15)
C41 C -0.3902(4) 0.1686(5) 0.8331(3)
H73 H -0.4282 0.1329 0.8503
H74 H -0.4104 0.2221 0.8348
H75 H -0.3381 0.1651 0.8557
C42 C 0.5369(2) 0.3502(2) 0.45283(18)
H76 H 0.5856 0.3265 0.4390
H77 H 0.5189 0.3924 0.4256
H78 H 0.4947 0.3106 0.4537
C43 C -0.6176(3) 1.0326(3) 0.7651(2)
H79 H -0.6417 0.9900 0.7868
H80 H -0.6567 1.0749 0.7584
H81 H -0.5703 1.0524 0.7884
C44 C 0.3670(3) 1.2079(3) 0.5692(3)
H82 H 0.3259 1.2460 0.5559
H83 H 0.4203 1.2303 0.5652
H84 H 0.3609 1.1944 0.6109
C45 C 0.0235(2) 0.5809(2) 0.96094(16)
H85 H 0.0573 0.6036 0.9918
C46 C -0.3807(3) 0.1464(3) 0.7694(2)
C47 C 0.5545(2) 0.3834(2) 0.51518(17)
C48 C -0.5930(2) 1.0025(2) 0.70546(19)
C49 C 0.3576(2) 1.1351(2) 0.5313(2)
C50 C -0.05376(19) 0.6105(2) 0.95028(15)
C51 C -0.3175(3) 0.1952(3) 0.7456(2)
C52 C 0.4794(2) 0.4187(2) 0.53488(16)
C53 C -0.5297(2) 0.9422(2) 0.71458(17)
C54 C 0.2779(2) 1.1000(2) 0.53805(17)
C55 C -0.0739(2) 0.7535(2) 0.95063(15)
C56 C -0.2644(2) 0.2333(3) 0.72796(18)
C57 C 0.4176(2) 0.4490(2) 0.54538(16)
C58 C -0.4793(2) 0.8927(2) 0.72108(17)
C59 C 0.2126(2) 1.0724(2) 0.54351(16)
C60 C -0.13048(19) 0.7754(2) 0.90565(16)
C61 C -0.1983(2) 0.2764(2) 0.70731(17)
C62 C 0.34475(19) 0.4918(2) 0.55292(16)
C63 C -0.4217(2) 0.8300(2) 0.72477(17)
C64 C 0.13498(19) 1.0390(2) 0.55141(15)
C65 C -0.0498(2) 0.8844(2) 0.87992(16)
C66 C -0.1336(2) 0.2295(2) 0.67706(18)
C67 C 0.3336(2) 0.5699(2) 0.51915(17)
C68 C -0.4538(2) 0.7469(2) 0.73305(17)
C69 C 0.0611(2) 1.0844(2) 0.52658(17)
C70 C 0.0015(2) 0.9447(2) 0.79514(16)
H86 H -0.0204 0.9818 0.7645
H87 H -0.0053 0.8912 0.7788
C71 C -0.1736(3) 0.1942(3) 0.61979(19)
H88 H -0.2181 0.1606 0.6298
H89 H -0.1342 0.1633 0.5997
H90 H -0.1939 0.2362 0.5934
C72 C 0.2464(2) 0.5953(2) 0.5179(2)
H91 H 0.2124 0.5551 0.4982
H92 H 0.2396 0.6445 0.4959
H93 H 0.2309 0.6028 0.5587
C73 C -0.5201(2) 0.7296(3) 0.6852(2)
H94 H -0.5602 0.7713 0.6846
H95 H -0.5455 0.6797 0.6939
H96 H -0.4972 0.7266 0.6463
C74 C 0.0639(2) 1.0894(3) 0.45919(18)
H97 H 0.1121 1.1178 0.4494
H98 H 0.0162 1.1169 0.4424
H99 H 0.0651 1.0366 0.4425
C75 C 0.13305(19) 0.8974(2) 0.82490(16)
C76 C -0.1005(3) 0.1640(3) 0.7186(2)
H100 H -0.0749 0.1870 0.7550
H101 H -0.0609 0.1334 0.6984
H102 H -0.1445 0.1299 0.7290
C77 C 0.3584(3) 0.5625(3) 0.45556(19)
H103 H 0.4141 0.5447 0.4561
H104 H 0.3534 0.6134 0.4358
H105 H 0.3236 0.5246 0.4339
C78 C -0.4891(3) 0.7431(3) 0.79401(19)
H106 H -0.4463 0.7508 0.8254
H107 H -0.5140 0.6919 0.7990
H108 H -0.5296 0.7841 0.7967
C79 C 0.0629(2) 1.1657(2) 0.5539(2)
H109 H 0.0596 1.1615 0.5970
H110 H 0.0173 1.1960 0.5368
H111 H 0.1130 1.1918 0.5454
C80 C 0.2346(2) 0.8061(2) 0.79889(16)
C81 C -0.0656(2) 0.2832(3) 0.66259(19)
H112 H -0.0867 0.3263 0.6375
H113 H -0.0261 0.2539 0.6413
H114 H -0.0399 0.3043 0.6996
C82 C 0.3873(3) 0.6295(3) 0.5527(2)
H115 H 0.3714 0.6343 0.5936
H116 H 0.3818 0.6803 0.5328
H117 H 0.4432 0.6123 0.5532
C83 C -0.3869(2) 0.6877(3) 0.7299(2)
H118 H -0.3650 0.6902 0.6907
H119 H -0.4079 0.6352 0.7363
H120 H -0.3443 0.6994 0.7607
C84 C -0.0156(2) 1.0418(3) 0.5425(2)
H121 H -0.0172 0.9899 0.5243
H122 H -0.0626 1.0719 0.5276
H123 H -0.0157 1.0367 0.5859
C85 C 0.2700(2) 0.7037(2) 0.73177(16)
H124 H 0.2121 0.6918 0.7316
H125 H 0.2850 0.7031 0.6900
C86 C -0.1950(2) 0.3521(2) 0.71469(16)
C87 C 0.2918(2) 0.4674(2) 0.58955(16)
C88 C -0.3448(2) 0.8453(2) 0.72242(16)
C89 C 0.13219(19) 0.9723(2) 0.57973(15)
C90 C 0.27258(19) 0.6086(2) 0.80773(15)
C91 C -0.19466(19) 0.4285(2) 0.72144(16)
C92 C 0.23600(19) 0.4497(2) 0.62521(15)
C93 C -0.2677(2) 0.8563(2) 0.71959(17)
C94 C 0.13665(18) 0.9027(2) 0.60457(15)
C95 C 0.1928(2) 0.4998(2) 0.83602(16)
C96 C -0.2360(2) 0.4834(2) 0.67494(17)
C97 C 0.1638(2) 0.3968(2) 0.60727(16)
C98 C -0.2273(2) 0.8638(2) 0.66031(18)
C99 C 0.1436(2) 0.8281(2) 0.56688(17)
C100 C 0.0736(2) 0.4337(2) 0.80335(16)
H126 H 0.0600 0.3937 0.7726
H127 H 0.0614 0.4855 0.7856
C101 C -0.3264(2) 0.4831(3) 0.6855(2)
H128 H -0.3469 0.4296 0.6823
H129 H -0.3552 0.5160 0.6556
H130 H -0.3343 0.5035 0.7253
C102 C 0.1655(2) 0.3714(2) 0.54251(17)
H131 H 0.1649 0.4176 0.5169
H132 H 0.1183 0.3391 0.5317
H133 H 0.2142 0.3411 0.5374
C103 C -0.2905(3) 0.8554(3) 0.60861(18)
H134 H -0.3147 0.8034 0.6096
H135 H -0.2653 0.8624 0.5709
H136 H -0.3322 0.8951 0.6121
C104 C 0.1069(3) 0.8415(3) 0.50403(19)
H137 H 0.0503 0.8556 0.5056
H138 H 0.1114 0.7937 0.4806
H139 H 0.1355 0.8840 0.4854
C105 C 0.0030(2) 0.4874(2) 0.88270(15)
C106 C -0.2024(3) 0.5661(3) 0.6813(2)
H140 H -0.2152 0.5878 0.7198
H141 H -0.2263 0.5989 0.6492
H142 H -0.1441 0.5647 0.6790
C107 C 0.0865(2) 0.4437(3) 0.61496(19)
H143 H 0.0848 0.4597 0.6566
H144 H 0.0398 0.4110 0.6037
H145 H 0.0859 0.4901 0.5895
C108 C -0.1873(3) 0.9437(3) 0.65828(19)
H146 H -0.2278 0.9846 0.6612
H147 H -0.1615 0.9493 0.6207
H148 H -0.1469 0.9485 0.6917
C109 C 0.2338(3) 0.8113(3) 0.5656(3)
H149 H 0.2599 0.8546 0.5461
H150 H 0.2416 0.7629 0.5435
H151 H 0.2573 0.8055 0.6064
C110 C -0.10232(19) 0.5777(2) 0.90363(15)
C111 C -0.2236(2) 0.4524(3) 0.61259(17)
H152 H -0.1662 0.4520 0.6062
H153 H -0.2517 0.4862 0.5829
H154 H -0.2449 0.3992 0.6087
C112 C 0.1664(2) 0.3255(2) 0.64844(18)
H155 H 0.2153 0.2954 0.6430
H156 H 0.1194 0.2927 0.6387
H157 H 0.1663 0.3429 0.6899
C113 C -0.1637(3) 0.8000(3) 0.6570(2)
H158 H -0.1238 0.8055 0.6906
H159 H -0.1374 0.8050 0.6196
H160 H -0.1893 0.7486 0.6586
C114 C 0.1015(3) 0.7597(2) 0.5947(2)
H161 H 0.1254 0.7507 0.6351
H162 H 0.1078 0.7128 0.5705
H163 H 0.0444 0.7717 0.5964
C115 C -0.1999(2) 0.6672(2) 0.85976(17)
H164 H -0.2526 0.6607 0.8376
H165 H -0.1592 0.6746 0.8303
C116 C -0.1559(2) 0.4601(2) 0.77488(16)
C117 C 0.23965(19) 0.4803(2) 0.68458(16)
C118 C -0.2175(2) 0.8589(2) 0.77387(17)
C119 C 0.14560(19) 0.8938(2) 0.66737(16)
C120 C -0.1213(2) 0.4864(2) 0.81921(16)
C121 C 0.23764(19) 0.5058(2) 0.73404(16)
C122 C -0.1731(2) 0.8548(2) 0.81815(17)
C123 C 0.16042(19) 0.8814(2) 0.72001(16)
C124 C -0.0738(2) 0.5170(2) 0.86881(15)
C125 C 0.23517(19) 0.5380(2) 0.79287(16)
C126 C -0.11828(19) 0.8399(2) 0.86878(16)
C127 C 0.17663(19) 0.8620(2) 0.78124(15)
C128 C 0.4575(8) 1.0214(9) 1.1275(6)
H166 H 0.5003 0.9910 1.1109
H167 H 0.4718 1.0321 1.1696
H168 H 0.4505 1.0708 1.1058
N1 N 0.4936(4) 0.3213(4) 0.7220(3)
C130 C 0.4784(3) 0.3835(4) 0.7148(3)
C131 C 0.4594(3) 0.4659(4) 0.7053(3)
H174 H 0.4744 0.4817 0.6658
H175 H 0.4894 0.4973 0.7357
H176 H 0.4018 0.4740 0.7082
N2 N 0.0294(4) 0.6262(4) 0.7147(2)
C132 C 0.0356(3) 0.6559(3) 0.7601(2)
C133 C 0.0453(2) 0.6914(3) 0.81795(19)
H177 H 0.0967 0.7191 0.8220
H178 H 0.0444 0.6509 0.8486
H179 H 0.0016 0.7285 0.8227
N4 N 0.8162(2) 0.2020(2) 0.95572(17)
C136 C 0.8284(2) 0.2374(2) 0.91486(18)
C137 C 0.8454(3) 0.2836(3) 0.8632(2)
H183 H 0.8924 0.3166 0.8730
H184 H 0.7991 0.3166 0.8517
H185 H 0.8563 0.2488 0.8302
H169? H 0.4335 1.0029 1.1205
H170? H 0.3520 1.0012 1.1535
C129? C 0.3958(16) 0.8984(14) 1.1381(14)
H171? H 0.3447 0.8715 1.1418
H172? H 0.4275 0.8968 1.1763
H173? H 0.4254 0.8726 1.1075
N3? N 0.3980(9) 0.4315(12) 0.8666(10)
C134? C 0.3649(8) 0.3812(10) 0.8463(7)
C135? C 0.3216(7) 0.3225(8) 0.8135(6)
H180? H 0.2826 0.3470 0.7848
H181? H 0.2934 0.2895 0.8408
H182? H 0.3588 0.2905 0.7921
loop_
_geom_bond_atom_site_label_1
_geom_bond_atom_site_label_2
_geom_bond_site_symmetry_1
_geom_bond_site_symmetry_2
O1 C95 1_555 1_555
O2 H1 1_555 1_555
O3 H2 1_555 1_555
O4 H3 1_555 1_555
O5 H4 1_555 1_555
O6 C100 1_555 1_555
O7 C110 1_555 1_555
O8 C60 1_555 1_555
O9 C65 1_555 1_555
O10 C70 1_555 1_555
O11 C80 1_555 1_555
O12 C85 1_555 1_555
C1 H5 1_555 1_555
C2 H6 1_555 1_555
H7 C2 1_555 1_555
H8 C2 1_555 1_555
C3 H9 1_555 1_555
H10 C3 1_555 1_555
H11 C3 1_555 1_555
C4 H12 1_555 1_555
H13 C4 1_555 1_555
H14 C4 1_555 1_555
C5 C1 1_555 1_555
C6 C2 1_555 1_555
H15 C6 1_555 1_555
H16 C6 1_555 1_555
C7 C3 1_555 1_555
H17 C7 1_555 1_555
H18 C7 1_555 1_555
C8 C4 1_555 1_555
H19 C8 1_555 1_555
H20 C8 1_555 1_555
C9 H21 1_555 1_555
H22 C9 1_555 1_555
C10 C15 1_555 1_555
C11 C6 1_555 1_555
H23 C11 1_555 1_555
H24 C11 1_555 1_555
C12 C7 1_555 1_555
H25 C12 1_555 1_555
H26 C12 1_555 1_555
C13 C8 1_555 1_555
H27 C13 1_555 1_555
H28 C13 1_555 1_555
C14 C9 1_555 1_555
H29 C14 1_555 1_555
H30 C14 1_555 1_555
C15 H31 1_555 1_555
C16 C11 1_555 1_555
H32 C16 1_555 1_555
H33 C16 1_555 1_555
C17 C12 1_555 1_555
H34 C17 1_555 1_555
H35 C17 1_555 1_555
C18 C13 1_555 1_555
H36 C18 1_555 1_555
H37 C18 1_555 1_555
C19 C14 1_555 1_555
H38 C19 1_555 1_555
H39 C19 1_555 1_555
C20 C15 1_555 1_555
C21 C16 1_555 1_555
H40 C21 1_555 1_555
H41 C21 1_555 1_555
C22 C17 1_555 1_555
H42 C22 1_555 1_555
H43 C22 1_555 1_555
C23 C18 1_555 1_555
H44 C23 1_555 1_555
H45 C23 1_555 1_555
C24 C19 1_555 1_555
H46 C24 1_555 1_555
H47 C24 1_555 1_555
C25 C30 1_555 1_555
C26 C21 1_555 1_555
H48 C26 1_555 1_555
H49 C26 1_555 1_555
C27 C22 1_555 1_555
H50 C27 1_555 1_555
H51 C27 1_555 1_555
C28 C23 1_555 1_555
H52 C28 1_555 1_555
H53 C28 1_555 1_555
C29 C24 1_555 1_555
H54 C29 1_555 1_555
H55 C29 1_555 1_555
C30 H56 1_555 1_555
C31 C26 1_555 1_555
H57 C31 1_555 1_555
C32 C20 1_555 1_555
H58 C32 1_555 1_555
C33 C28 1_555 1_555
H59 C33 1_555 1_555
C34 C5 1_555 1_555
H60 C34 1_555 1_555
C35 C30 1_555 1_555
C36 H61 1_555 1_555
H62 C36 1_555 1_555
H63 C36 1_555 1_555
C37 H64 1_555 1_555
H65 C37 1_555 1_555
H66 C37 1_555 1_555
C38 H67 1_555 1_555
H68 C38 1_555 1_555
H69 C38 1_555 1_555
C39 H70 1_555 1_555
H71 C39 1_555 1_555
H72 C39 1_555 1_555
C40 C31 1_555 1_555
C41 H73 1_555 1_555
H74 C41 1_555 1_555
H75 C41 1_555 1_555
C42 H76 1_555 1_555
H77 C42 1_555 1_555
H78 C42 1_555 1_555
C43 H79 1_555 1_555
H80 C43 1_555 1_555
H81 C43 1_555 1_555
C44 H82 1_555 1_555
H83 C44 1_555 1_555
H84 C44 1_555 1_555
C45 C40 1_555 1_555
H85 C45 1_555 1_555
C46 O2 1_555 1_555
C47 O3 1_555 1_555
C48 O4 1_555 1_555
C49 O5 1_555 1_555
C50 C33 1_555 1_555
C51 C46 1_555 1_555
C52 C47 1_555 1_555
C53 C48 1_555 1_555
C54 C49 1_555 1_555
C55 C1 1_555 1_555
C56 C51 1_555 1_555
C57 C52 1_555 1_555
C58 C53 1_555 1_555
C59 C54 1_555 1_555
C60 C55 1_555 1_555
C61 C56 1_555 1_555
C62 C57 1_555 1_555
C63 C58 1_555 1_555
C64 C59 1_555 1_555
C65 C5 1_555 1_555
C66 C61 1_555 1_555
C67 C62 1_555 1_555
C68 C63 1_555 1_555
C69 C64 1_555 1_555
C70 O9 1_555 1_555
H86 C70 1_555 1_555
H87 C70 1_555 1_555
C71 C66 1_555 1_555
H88 C71 1_555 1_555
H89 C71 1_555 1_555
H90 C71 1_555 1_555
C72 C67 1_555 1_555
H91 C72 1_555 1_555
H92 C72 1_555 1_555
H93 C72 1_555 1_555
C73 C68 1_555 1_555
H94 C73 1_555 1_555
H95 C73 1_555 1_555
H96 C73 1_555 1_555
C74 C69 1_555 1_555
H97 C74 1_555 1_555
H98 C74 1_555 1_555
H99 C74 1_555 1_555
C75 O10 1_555 1_555
C76 C66 1_555 1_555
H100 C76 1_555 1_555
H101 C76 1_555 1_555
H102 C76 1_555 1_555
C77 C67 1_555 1_555
H103 C77 1_555 1_555
H104 C77 1_555 1_555
H105 C77 1_555 1_555
C78 C68 1_555 1_555
H106 C78 1_555 1_555
H107 C78 1_555 1_555
H108 C78 1_555 1_555
C79 C69 1_555 1_555
H109 C79 1_555 1_555
H110 C79 1_555 1_555
H111 C79 1_555 1_555
C80 C20 1_555 1_555
C81 C66 1_555 1_555
H112 C81 1_555 1_555
H113 C81 1_555 1_555
H114 C81 1_555 1_555
C82 C67 1_555 1_555
H115 C82 1_555 1_555
H116 C82 1_555 1_555
H117 C82 1_555 1_555
C83 C68 1_555 1_555
H118 C83 1_555 1_555
H119 C83 1_555 1_555
H120 C83 1_555 1_555
C84 C69 1_555 1_555
H121 C84 1_555 1_555
H122 C84 1_555 1_555
H123 C84 1_555 1_555
C85 O11 1_555 1_555
H124 C85 1_555 1_555
H125 C85 1_555 1_555
C86 C61 1_555 1_555
C87 C62 1_555 1_555
C88 C63 1_555 1_555
C89 C64 1_555 1_555
C90 O12 1_555 1_555
C91 C86 1_555 1_555
C92 C87 1_555 1_555
C93 C88 1_555 1_555
C94 C89 1_555 1_555
C95 C35 1_555 1_555
C96 C91 1_555 1_555
C97 C92 1_555 1_555
C98 C93 1_555 1_555
C99 C94 1_555 1_555
C100 O1 1_555 1_555
H126 C100 1_555 1_555
H127 C100 1_555 1_555
C101 C96 1_555 1_555
H128 C101 1_555 1_555
H129 C101 1_555 1_555
H130 C101 1_555 1_555
C102 C97 1_555 1_555
H131 C102 1_555 1_555
H132 C102 1_555 1_555
H133 C102 1_555 1_555
C103 C98 1_555 1_555
H134 C103 1_555 1_555
H135 C103 1_555 1_555
H136 C103 1_555 1_555
C104 C99 1_555 1_555
H137 C104 1_555 1_555
H138 C104 1_555 1_555
H139 C104 1_555 1_555
C105 O6 1_555 1_555
C106 C96 1_555 1_555
H140 C106 1_555 1_555
H141 C106 1_555 1_555
H142 C106 1_555 1_555
C107 C97 1_555 1_555
H143 C107 1_555 1_555
H144 C107 1_555 1_555
H145 C107 1_555 1_555
C108 C98 1_555 1_555
H146 C108 1_555 1_555
H147 C108 1_555 1_555
H148 C108 1_555 1_555
C109 C99 1_555 1_555
H149 C109 1_555 1_555
H150 C109 1_555 1_555
H151 C109 1_555 1_555
C110 C50 1_555 1_555
C111 C96 1_555 1_555
H152 C111 1_555 1_555
H153 C111 1_555 1_555
H154 C111 1_555 1_555
C112 C97 1_555 1_555
H155 C112 1_555 1_555
H156 C112 1_555 1_555
H157 C112 1_555 1_555
C113 C98 1_555 1_555
H158 C113 1_555 1_555
H159 C113 1_555 1_555
H160 C113 1_555 1_555
C114 C99 1_555 1_555
H161 C114 1_555 1_555
H162 C114 1_555 1_555
H163 C114 1_555 1_555
C115 O7 1_555 1_555
H164 C115 1_555 1_555
H165 C115 1_555 1_555
C116 C91 1_555 1_555
C117 C92 1_555 1_555
C118 C93 1_555 1_555
C119 C94 1_555 1_555
C120 C116 1_555 1_555
C121 C117 1_555 1_555
C122 C118 1_555 1_555
C123 C119 1_555 1_555
C124 C105 1_555 1_555
C125 C90 1_555 1_555
C126 C60 1_555 1_555
C127 C75 1_555 1_555
C128 C9 1_555 1_555
H166 C128 1_555 1_555
H167 C128 1_555 1_555
H168 C128 1_555 1_555
N1 C130 1_555 1_555
C130 C131 1_555 1_555
C131 H174 1_555 1_555
H175 C131 1_555 1_555
H176 C131 1_555 1_555
N2 C132 1_555 1_555
C132 C133 1_555 1_555
C133 H177 1_555 1_555
H178 C133 1_555 1_555
H179 C133 1_555 1_555
N4 C136 1_555 1_555
C136 C137 1_555 1_555
C137 H183 1_555 1_555
H184 C137 1_555 1_555
H185 C137 1_555 1_555
O8 C115 1_555 1_555
C10 C34 1_555 1_555
C10 C75 1_555 1_555
C25 C32 1_555 1_555
C25 C90 1_555 1_555
C27 C32 1_555 1_555
C29 C34 1_555 1_555
C31 C35 1_555 1_555
C33 C55 1_555 1_555
C36 C46 1_555 1_555
C37 C47 1_555 1_555
C38 C48 1_555 1_555
C39 C49 1_555 1_555
C40 C105 1_555 1_555
C41 C46 1_555 1_555
C42 C47 1_555 1_555
C43 C48 1_555 1_555
C44 C49 1_555 1_555
C45 C50 1_555 1_555
C65 C126 1_555 1_555
C80 C127 1_555 1_555
C95 C125 1_555 1_555
C110 C124 1_555 1_555
C120 C124 1_555 1_555
C121 C125 1_555 1_555
C122 C126 1_555 1_555
C123 C127 1_555 1_555

#END
