
#######################################################################
#
#                 Cambridge Crystallographic Data Centre
#                                CCDC 
#
#######################################################################
#
# If this CIF has been generated from an entry in the Cambridge 
# Structural Database, then it will include bibliographic, chemical, 
# crystal, experimental, refinement or atomic coordinate data resulting 
# from the CCDC's data processing and validation procedures.
#
#######################################################################

data_IYUZIN
_chemical_formula_moiety         'C128 H168 O12,C8 H16,C2 H3 N1'
_chemical_name_systematic        
"(P)-2,8,14,20-tetra-n-hexyl-5,11,17,23-tetrakis(3,5-di-tert-butyl-8-hydroxy-8-methylnona-3,4-diene-1,6-diyn-1-yl)-4,24:6,10:12,16:18,22-O,O'-tetramethylenecalix[4]resorcinarene trans-(R,R)-1,2-dimethylcyclohexane clathrate acetonitrile solvate"
_symmetry_cell_setting           orthorhombic
_symmetry_space_group_name_H-M   'P 21 21 21'
_symmetry_Int_Tables_number      19
_space_group_name_Hall           'P 2ac 2ab'
loop_
_symmetry_equiv_pos_site_id
_symmetry_equiv_pos_as_xyz
1 x,y,z
2 1/2+x,1/2-y,-z
3 -x,1/2+y,1/2-z
4 1/2-x,-y,1/2+z
_cell_length_a                   15.4855(5)
_cell_length_b                   18.2133(6)
_cell_length_c                   46.5845(16)
_cell_angle_alpha                90
_cell_angle_beta                 90
_cell_angle_gamma                90
_cell_volume                     13138.8
_exptl_crystal_colour            colorless
_exptl_crystal_description       block
_cell_formula_units_Z            4
_exptl_crystal_recrystallization_method 
acetonitrile/(R,R)-trans-1,2-dimethylcyclohexane/water
loop_
_atom_site_label
_atom_site_type_symbol
_atom_site_fract_x
_atom_site_fract_y
_atom_site_fract_z
O1 O 0.17826(17) 0.62301(15) 0.55502(6)
H1 H 0.154(3) 0.5766(18) 0.5546(12)
O2 O 0.14043(18) 0.47250(14) 0.54228(7)
H2 H 0.186(3) 0.448(3) 0.5334(11)
O3 O 0.30522(16) 0.45416(15) 0.52107(7)
H3 H 0.325(4) 0.5007(18) 0.5196(12)
O4 O 0.32635(17) 0.60314(13) 0.52401(6)
H4 H 0.277(2) 0.619(3) 0.5322(11)
O5 O 0.56243(14) 0.75788(11) 0.66521(5)
O6 O 0.66010(14) 0.66701(11) 0.64983(5)
O7 O 0.66617(14) 0.40608(11) 0.65225(5)
O8 O 0.56307(14) 0.31855(11) 0.66590(5)
O9 O 0.27911(14) 0.32124(11) 0.70421(5)
O10 O 0.17836(14) 0.40982(12) 0.71986(5)
O11 O 0.18114(14) 0.67151(12) 0.72200(5)
O12 O 0.28210(14) 0.75988(11) 0.70710(5)
C1 C 0.3295(2) 0.39844(16) 0.75508(7)
H5 H 0.2827 0.3622 0.7546
C2 C 0.29037(19) 0.47211(16) 0.74666(6)
C3 C 0.32696(18) 0.53837(17) 0.75504(6)
H6 H 0.3766 0.5373 0.7663
C4 C 0.29295(19) 0.60622(16) 0.74740(6)
C5 C 0.3348(2) 0.67814(16) 0.75624(7)
H7 H 0.2891 0.7153 0.7563
C6 C 0.3983(2) 0.69995(15) 0.73278(7)
C7 C 0.48617(19) 0.68251(15) 0.73376(6)
H8 H 0.5077 0.6583 0.7498
C8 C 0.54261(19) 0.70020(15) 0.71143(6)
C9 C 0.63752(19) 0.67923(16) 0.71116(6)
H9 H 0.6671 0.7157 0.6992
C10 C 0.64543(18) 0.60560(16) 0.69559(7)
C11 C 0.63931(17) 0.53967(17) 0.71039(6)
H10 H 0.6313 0.5410 0.7302
C12 C 0.64475(17) 0.47151(16) 0.69681(6)
C13 C 0.63485(19) 0.39962(16) 0.71330(7)
H11 H 0.6679 0.3621 0.7030
C14 C 0.53970(19) 0.37795(15) 0.71173(7)
C15 C 0.48161(19) 0.39423(15) 0.73356(6)
H12 H 0.5020 0.4174 0.7500
C16 C 0.3936(2) 0.37711(15) 0.73181(7)
C17 C 0.3642(2) 0.34359(16) 0.70692(7)
C18 C 0.4202(2) 0.32672(15) 0.68419(7)
C19 C 0.5084(2) 0.34320(15) 0.68726(7)
C20 C 0.5899(2) 0.36917(17) 0.64455(7)
H13 H 0.5992 0.3431 0.6266
H14 H 0.5443 0.4049 0.6414
C21 C 0.65530(18) 0.47172(16) 0.66692(6)
C22 C 0.65753(17) 0.53611(17) 0.65115(6)
C23 C 0.65290(17) 0.60342(16) 0.66605(7)
C24 C 0.5821(2) 0.70497(17) 0.64397(7)
H15 H 0.5869 0.7292 0.6255
H16 H 0.5352 0.6698 0.6428
C25 C 0.5089(2) 0.73561(15) 0.68751(6)
C26 C 0.4215(2) 0.75437(15) 0.68561(7)
C27 C 0.36728(19) 0.73609(16) 0.70863(7)
C28 C 0.2185(2) 0.70860(18) 0.69853(7)
H17 H 0.1736 0.7340 0.6880
H18 H 0.2446 0.6729 0.6857
C29 C 0.2199(2) 0.60628(17) 0.72985(7)
C30 C 0.18205(18) 0.54103(18) 0.72022(6)
C31 C 0.21838(19) 0.47443(16) 0.72896(7)
C32 C 0.2171(2) 0.37469(17) 0.69608(7)
H19 H 0.2448 0.4114 0.6841
H20 H 0.1725 0.3512 0.6847
C33 C 0.3891(2) 0.29428(16) 0.65814(7)
C34 C 0.3621(2) 0.26884(18) 0.63615(7)
C35 C 0.3340(2) 0.23387(18) 0.61005(8)
C36 C 0.4016(2) 0.1923(2) 0.59223(8)
C37 C 0.4691(3) 0.2468(3) 0.58143(11)
H21 H 0.4410 0.2853 0.5709
H22 H 0.5092 0.2219 0.5691
H23 H 0.4995 0.2674 0.5975
C38 C 0.4472(3) 0.1361(3) 0.61083(9)
H24 H 0.4717 0.1601 0.6273
H25 H 0.4923 0.1130 0.6000
H26 H 0.4065 0.0997 0.6170
C39 C 0.3587(3) 0.1545(3) 0.56664(9)
H27 H 0.3199 0.1173 0.5734
H28 H 0.4023 0.1324 0.5548
H29 H 0.3272 0.1901 0.5556
C40 C 0.2521(2) 0.23959(18) 0.60279(7)
C41 C 0.1695(2) 0.24478(18) 0.59609(7)
C42 C 0.1013(2) 0.19034(19) 0.60725(7)
C43 C 0.1438(3) 0.1358(2) 0.62791(9)
H30 H 0.1894 0.1102 0.6182
H31 H 0.1015 0.1011 0.6345
H32 H 0.1671 0.1618 0.6441
C44 C 0.0616(3) 0.1497(2) 0.58192(9)
H33 H 0.0357 0.1845 0.5690
H34 H 0.0183 0.1163 0.5888
H35 H 0.1058 0.1228 0.5720
C45 C 0.0316(3) 0.2332(2) 0.62338(9)
H36 H 0.0574 0.2590 0.6392
H37 H -0.0112 0.1997 0.6305
H38 H 0.0049 0.2677 0.6106
C46 C 0.1410(2) 0.3038(2) 0.57772(8)
C47 C 0.1150(2) 0.3538(2) 0.56301(9)
C48 C 0.0802(2) 0.4131(2) 0.54479(9)
C49 C 0.0588(4) 0.3826(3) 0.51540(11)
H39 H 0.0378 0.4214 0.5033
H40 H 0.0153 0.3453 0.5172
H41 H 0.1099 0.3618 0.5070
C50 C 0.0017(3) 0.4470(3) 0.55893(12)
H42 H 0.0178 0.4672 0.5772
H43 H -0.0417 0.4100 0.5617
H44 H -0.0209 0.4852 0.5469
C51 C 0.66287(17) 0.53474(16) 0.62037(6)
C52 C 0.66640(18) 0.53387(17) 0.59453(6)
C53 C 0.67128(18) 0.53644(18) 0.56377(6)
C54 C 0.7155(2) 0.60307(18) 0.55012(7)
C55 C 0.7085(2) 0.6008(2) 0.51735(8)
H45 H 0.7390 0.5587 0.5102
H46 H 0.7332 0.6446 0.5094
H47 H 0.6488 0.5976 0.5119
C56 C 0.8112(2) 0.6008(2) 0.55861(8)
H48 H 0.8161 0.6003 0.5791
H49 H 0.8400 0.6434 0.5511
H50 H 0.8374 0.5574 0.5509
C57 C 0.6730(2) 0.67334(18) 0.56169(8)
H51 H 0.6139 0.6752 0.5555
H52 H 0.7033 0.7155 0.5545
H53 H 0.6752 0.6732 0.5823
C58 C 0.64015(19) 0.48174(18) 0.54847(7)
C59 C 0.6141(2) 0.42719(19) 0.53238(7)
C60 C 0.6751(2) 0.3648(2) 0.52299(8)
C61 C 0.7665(2) 0.3780(2) 0.53420(10)
H54 H 0.7890 0.4225 0.5261
H55 H 0.8028 0.3376 0.5288
H56 H 0.7652 0.3821 0.5547
C62 C 0.6764(3) 0.3620(3) 0.49016(9)
H57 H 0.6190 0.3530 0.4832
H58 H 0.7140 0.3232 0.4840
H59 H 0.6969 0.4080 0.4828
C63 C 0.6405(3) 0.2924(2) 0.53449(10)
H60 H 0.6378 0.2944 0.5551
H61 H 0.6781 0.2532 0.5287
H62 H 0.5837 0.2839 0.5269
C64 C 0.5255(2) 0.42310(19) 0.52300(7)
C65 C 0.4520(2) 0.41682(19) 0.51546(8)
C66 C 0.3620(2) 0.4075(2) 0.50540(8)
C67 C 0.3578(3) 0.4268(3) 0.47352(11)
H63 H 0.2996 0.4211 0.4668
H64 H 0.3953 0.3948 0.4629
H65 H 0.3758 0.4768 0.4708
C68 C 0.3312(3) 0.3302(2) 0.51134(13)
H66 H 0.3344 0.3206 0.5316
H67 H 0.3672 0.2959 0.5012
H68 H 0.2726 0.3250 0.5050
C69 C 0.11093(19) 0.54232(18) 0.70072(7)
C70 C 0.05542(19) 0.54464(19) 0.68294(7)
C71 C -0.01018(19) 0.5458(2) 0.66112(7)
C72 C -0.0671(2) 0.4772(2) 0.65756(8)
C73 C -0.0093(3) 0.4098(2) 0.65361(11)
H69 H 0.0265 0.4164 0.6370
H70 H -0.0447 0.3670 0.6511
H71 H 0.0264 0.4036 0.6703
C74 C -0.1212(2) 0.4685(2) 0.68482(9)
H72 H -0.0837 0.4660 0.7012
H73 H -0.1545 0.4241 0.6836
H74 H -0.1593 0.5097 0.6868
C75 C -0.1264(2) 0.4862(2) 0.63178(9)
H75 H -0.1626 0.5283 0.6345
H76 H -0.1616 0.4431 0.6298
H77 H -0.0922 0.4928 0.6148
C76 C -0.0197(2) 0.6055(2) 0.64571(7)
C77 C -0.0291(2) 0.6647(2) 0.63011(7)
C78 C -0.0878(2) 0.7289(2) 0.63888(8)
C79 C -0.0333(2) 0.7980(2) 0.64054(10)
H78 H 0.0115 0.7915 0.6546
H79 H -0.0691 0.8387 0.6460
H80 H -0.0078 0.8076 0.6221
C80 C -0.1590(2) 0.7381(2) 0.61644(8)
H81 H -0.1335 0.7439 0.5978
H82 H -0.1929 0.7807 0.6209
H83 H -0.1955 0.6955 0.6165
C81 C -0.1281(2) 0.7136(2) 0.66815(8)
H84 H -0.1594 0.6681 0.6674
H85 H -0.1669 0.7528 0.6730
H86 H -0.0834 0.7103 0.6824
C82 C 0.0193(2) 0.6699(2) 0.60378(7)
C83 C 0.0609(2) 0.6721(2) 0.58218(7)
C84 C 0.1106(2) 0.6771(2) 0.55520(8)
C85 C 0.1550(3) 0.7505(2) 0.55302(9)
H87 H 0.1956 0.7556 0.5685
H88 H 0.1128 0.7890 0.5542
H89 H 0.1849 0.7538 0.5350
C86 C 0.0514(3) 0.6633(3) 0.53003(8)
H90 H 0.0843 0.6639 0.5126
H91 H 0.0080 0.7009 0.5293
H92 H 0.0241 0.6162 0.5322
C87 C 0.3890(2) 0.79052(17) 0.66084(7)
C88 C 0.3628(2) 0.81852(17) 0.63900(7)
C89 C 0.3273(2) 0.85390(17) 0.61419(7)
C90 C 0.2483(2) 0.90342(18) 0.61916(7)
C91 C 0.1754(2) 0.8575(2) 0.63170(9)
H93 H 0.1596 0.8197 0.6183
H94 H 0.1263 0.8884 0.6354
H95 H 0.1942 0.8355 0.6493
C92 C 0.2742(2) 0.9631(2) 0.64057(8)
H96 H 0.2909 0.9407 0.6584
H97 H 0.2262 0.9954 0.6438
H98 H 0.3219 0.9907 0.6330
C93 C 0.2198(3) 0.9385(2) 0.59096(8)
H99 H 0.2663 0.9673 0.5833
H100 H 0.1708 0.9695 0.5943
H101 H 0.2045 0.9007 0.5775
C94 C 0.3636(2) 0.84338(17) 0.58919(7)
C95 C 0.4054(2) 0.83667(18) 0.56468(7)
C96 C 0.4750(2) 0.89231(19) 0.55550(8)
C97 C 0.5605(2) 0.8513(2) 0.55124(8)
H102 H 0.5773 0.8285 0.5690
H103 H 0.6044 0.8853 0.5453
H104 H 0.5533 0.8143 0.5367
C98 C 0.4452(3) 0.9284(2) 0.52763(9)
H105 H 0.4337 0.8912 0.5135
H106 H 0.4896 0.9606 0.5207
H107 H 0.3935 0.9561 0.5311
C99 C 0.4871(3) 0.9508(2) 0.57868(9)
H108 H 0.4338 0.9768 0.5814
H109 H 0.5312 0.9847 0.5728
H110 H 0.5038 0.9277 0.5963
C100 C 0.3892(2) 0.77639(18) 0.54554(7)
C101 C 0.3804(2) 0.72516(18) 0.52953(8)
C102 C 0.3711(2) 0.66148(19) 0.50990(8)
C103 C 0.4606(3) 0.6312(2) 0.50303(10)
H111 H 0.4888 0.6169 0.5205
H112 H 0.4942 0.6684 0.4936
H113 H 0.4552 0.5893 0.4907
C104 C 0.3224(3) 0.6841(2) 0.48294(9)
H114 H 0.3159 0.6424 0.4706
H115 H 0.3542 0.7218 0.4731
H116 H 0.2665 0.7025 0.4881
C105 C 0.2112(5) 0.4607(4) 0.91079(12)
H117 H 0.1700 0.4214 0.9107
H118 H 0.1833 0.5055 0.9051
H119 H 0.2345 0.4664 0.9298
C106 C 0.2836(4) 0.4433(3) 0.89002(10)
H120 H 0.3286 0.4799 0.8921
H121 H 0.3081 0.3960 0.8950
C107 C 0.2554(3) 0.4415(2) 0.85941(9)
H122 H 0.2318 0.4891 0.8544
H123 H 0.2095 0.4056 0.8574
C108 C 0.3273(3) 0.4226(2) 0.83820(8)
H124 H 0.3703 0.4613 0.8386
H125 H 0.3551 0.3775 0.8443
C109 C 0.2952(2) 0.41323(19) 0.80776(7)
H126 H 0.2643 0.4573 0.8022
H127 H 0.2544 0.3728 0.8073
C110 C 0.3659(2) 0.39850(17) 0.78571(7)
H128 H 0.3924 0.3513 0.7897
H129 H 0.4102 0.4360 0.7873
C111 C 0.2084(4) 0.6968(4) 0.91112(12)
H130 H 0.1859 0.7435 0.9052
H131 H 0.2285 0.7001 0.9306
H132 H 0.1638 0.6603 0.9099
C112 C 0.2827(4) 0.6754(3) 0.89177(10)
H133 H 0.3311 0.7081 0.8952
H134 H 0.3010 0.6258 0.8963
C113 C 0.2575(3) 0.6794(3) 0.86111(10)
H135 H 0.2357 0.7283 0.8572
H136 H 0.2105 0.6452 0.8578
C114 C 0.3310(3) 0.6622(2) 0.83959(8)
H137 H 0.3796 0.6944 0.8433
H138 H 0.3502 0.6120 0.8423
C115 C 0.3012(2) 0.6724(2) 0.80912(8)
H139 H 0.2677 0.7173 0.8081
H140 H 0.2629 0.6321 0.8042
C116 C 0.3726(2) 0.67614(17) 0.78669(7)
H141 H 0.4100 0.6337 0.7886
H142 H 0.4073 0.7198 0.7899
C117 C 0.8284(2) 0.6734(2) 0.76578(8)
H143 H 0.8120 0.7149 0.7777
H144 H 0.8093 0.6292 0.7755
C118 C 0.7805(2) 0.6792(2) 0.73747(8)
H145 H 0.7967 0.6380 0.7255
H146 H 0.7987 0.7237 0.7278
C119 C 0.6825(2) 0.68033(17) 0.74055(7)
H147 H 0.6653 0.7241 0.7509
H148 H 0.6642 0.6380 0.7516
C120 C 0.8949(3) 0.4453(3) 0.77785(14)
H149 H 0.9106 0.4784 0.7624
H150 H 0.9070 0.4700 0.7958
C121 C 0.7993(3) 0.4302(2) 0.77613(9)
H151 H 0.7684 0.4719 0.7841
H152 H 0.7861 0.3877 0.7879
C122 C 0.7668(2) 0.41635(19) 0.74572(8)
H153 H 0.7968 0.3742 0.7379
H154 H 0.7808 0.4585 0.7339
C123 C 0.6697(2) 0.40253(17) 0.74417(7)
H155 H 0.6400 0.4412 0.7545
H156 H 0.6568 0.3564 0.7536
C124 C 1.0663(7) 0.6795(11) 0.7904(3)
H157 H 1.0929 0.6348 0.7840
H158 H 1.0886 0.6924 0.8089
H159 H 1.0787 0.7182 0.7770
C125 C 0.9696(6) 0.6686(8) 0.7924(2)
H160 H 0.9581 0.6213 0.8012
H161 H 0.9455 0.7062 0.8047
C126 C 0.9252(6) 0.6715(7) 0.7639(2)
H162 H 0.9422 0.6289 0.7527
H163 H 0.9447 0.7149 0.7536
C127 C 1.0425(6) 0.3997(10) 0.7808(2)
H164 H 1.0779 0.3630 0.7718
H165 H 1.0544 0.4010 0.8010
H166 H 1.0550 0.4468 0.7725
C128 C 0.9477(5) 0.3813(6) 0.7760(2)
H167 H 0.9407 0.3590 0.7572
H168 H 0.9292 0.3459 0.7903
C134 C 0.3598(5) 0.5708(4) 0.64161(15)
H185 H 0.3663 0.6234 0.6455
C135 C 0.4174(6) 0.5581(4) 0.61514(17)
H186 H 0.4764 0.5566 0.6228
C136 C 0.4011(6) 0.4762(5) 0.60215(18)
H187 H 0.4362 0.4682 0.5852
H188 H 0.4152 0.4390 0.6163
C137 C 0.3122(6) 0.4736(6) 0.59516(16)
H189 H 0.3008 0.4279 0.5852
H190 H 0.2996 0.5134 0.5820
C138 C 0.2498(8) 0.4794(5) 0.62086(14)
H191 H 0.2642 0.4431 0.6353
H192 H 0.1908 0.4713 0.6147
C139 C 0.2609(6) 0.5625(6) 0.63385(19)
H193 H 0.2440 0.5988 0.6197
H194 H 0.2254 0.5688 0.6508
C140 C 0.3925(6) 0.5344(4) 0.66923(15)
H195 H 0.4000 0.4827 0.6660
H196 H 0.3512 0.5419 0.6843
H197 H 0.4467 0.5558 0.6746
C141 C 0.4181(6) 0.6180(5) 0.59436(15)
H198 H 0.3598 0.6303 0.5892
H199 H 0.4491 0.6030 0.5775
H200 H 0.4458 0.6601 0.6027
N1 N 0.5500(2) 0.5360(2) 0.78946(8)
C142 C 0.5964(3) 0.5713(2) 0.80175(8)
C143 C 0.6598(4) 0.6178(3) 0.81677(9)
H201 H 0.6615 0.6654 0.8079
H202 H 0.7159 0.5955 0.8156
H203 H 0.6433 0.6228 0.8365
H169? H 0.8300 0.6225 0.7719
H170? H 0.7982 0.7015 0.7803
H171? H 0.9216 0.4032 0.7687
H172? H 0.9042 0.4862 0.7649
C129? C 1.0638(8) 0.7325(12) 0.7889(3)
H173? H 1.0974 0.6995 0.7773
H174? H 1.0883 0.7356 0.8077
H175? H 1.0637 0.7803 0.7802
C130? C 0.9721(7) 0.7044(8) 0.7909(2)
H176? H 0.9405 0.7349 0.8044
H177? H 0.9732 0.6549 0.7986
C131? C 0.9241(7) 0.7036(8) 0.7625(2)
H178? H 0.9553 0.6731 0.7490
H179? H 0.9222 0.7531 0.7548
C132? C 1.0439(7) 0.4689(12) 0.7988(3)
H180? H 1.0677 0.4815 0.8172
H181? H 1.0567 0.5071 0.7852
H182? H 1.0687 0.4236 0.7923
C133? C 0.9472(6) 0.4603(8) 0.8014(2)
H183? H 0.9372 0.4215 0.8153
H184? H 0.9256 0.5052 0.8099
loop_
_geom_bond_atom_site_label_1
_geom_bond_atom_site_label_2
_geom_bond_site_symmetry_1
_geom_bond_site_symmetry_2
O1 H1 1_555 1_555
O2 H2 1_555 1_555
O3 H3 1_555 1_555
O4 H4 1_555 1_555
O5 C24 1_555 1_555
O6 C23 1_555 1_555
O7 C20 1_555 1_555
O8 C19 1_555 1_555
O9 C17 1_555 1_555
O10 C31 1_555 1_555
O11 C28 1_555 1_555
O12 C27 1_555 1_555
C1 H5 1_555 1_555
C2 C1 1_555 1_555
C3 C2 1_555 1_555
H6 C3 1_555 1_555
C4 C3 1_555 1_555
C5 C4 1_555 1_555
H7 C5 1_555 1_555
C6 C5 1_555 1_555
C7 C6 1_555 1_555
H8 C7 1_555 1_555
C8 C7 1_555 1_555
C9 C8 1_555 1_555
H9 C9 1_555 1_555
C10 C9 1_555 1_555
C11 C10 1_555 1_555
H10 C11 1_555 1_555
C12 C11 1_555 1_555
C13 C12 1_555 1_555
H11 C13 1_555 1_555
C14 C13 1_555 1_555
C15 C14 1_555 1_555
H12 C15 1_555 1_555
C16 C1 1_555 1_555
C17 C16 1_555 1_555
C18 C17 1_555 1_555
C19 C14 1_555 1_555
C20 O8 1_555 1_555
H13 C20 1_555 1_555
H14 C20 1_555 1_555
C21 O7 1_555 1_555
C22 C21 1_555 1_555
C23 C10 1_555 1_555
C24 O6 1_555 1_555
H15 C24 1_555 1_555
H16 C24 1_555 1_555
C25 O5 1_555 1_555
C26 C25 1_555 1_555
C27 C6 1_555 1_555
C28 O12 1_555 1_555
H17 C28 1_555 1_555
H18 C28 1_555 1_555
C29 O11 1_555 1_555
C30 C29 1_555 1_555
C31 C2 1_555 1_555
C32 O9 1_555 1_555
H19 C32 1_555 1_555
H20 C32 1_555 1_555
C33 C18 1_555 1_555
C34 C33 1_555 1_555
C35 C34 1_555 1_555
C36 C35 1_555 1_555
C37 C36 1_555 1_555
H21 C37 1_555 1_555
H22 C37 1_555 1_555
H23 C37 1_555 1_555
C38 C36 1_555 1_555
H24 C38 1_555 1_555
H25 C38 1_555 1_555
H26 C38 1_555 1_555
C39 C36 1_555 1_555
H27 C39 1_555 1_555
H28 C39 1_555 1_555
H29 C39 1_555 1_555
C40 C35 1_555 1_555
C41 C40 1_555 1_555
C42 C41 1_555 1_555
C43 C42 1_555 1_555
H30 C43 1_555 1_555
H31 C43 1_555 1_555
H32 C43 1_555 1_555
C44 C42 1_555 1_555
H33 C44 1_555 1_555
H34 C44 1_555 1_555
H35 C44 1_555 1_555
C45 C42 1_555 1_555
H36 C45 1_555 1_555
H37 C45 1_555 1_555
H38 C45 1_555 1_555
C46 C41 1_555 1_555
C47 C46 1_555 1_555
C48 O2 1_555 1_555
C49 C48 1_555 1_555
H39 C49 1_555 1_555
H40 C49 1_555 1_555
H41 C49 1_555 1_555
C50 C48 1_555 1_555
H42 C50 1_555 1_555
H43 C50 1_555 1_555
H44 C50 1_555 1_555
C51 C22 1_555 1_555
C52 C51 1_555 1_555
C53 C52 1_555 1_555
C54 C53 1_555 1_555
C55 C54 1_555 1_555
H45 C55 1_555 1_555
H46 C55 1_555 1_555
H47 C55 1_555 1_555
C56 C54 1_555 1_555
H48 C56 1_555 1_555
H49 C56 1_555 1_555
H50 C56 1_555 1_555
C57 C54 1_555 1_555
H51 C57 1_555 1_555
H52 C57 1_555 1_555
H53 C57 1_555 1_555
C58 C53 1_555 1_555
C59 C58 1_555 1_555
C60 C59 1_555 1_555
C61 C60 1_555 1_555
H54 C61 1_555 1_555
H55 C61 1_555 1_555
H56 C61 1_555 1_555
C62 C60 1_555 1_555
H57 C62 1_555 1_555
H58 C62 1_555 1_555
H59 C62 1_555 1_555
C63 C60 1_555 1_555
H60 C63 1_555 1_555
H61 C63 1_555 1_555
H62 C63 1_555 1_555
C64 C59 1_555 1_555
C65 C64 1_555 1_555
C66 O3 1_555 1_555
C67 C66 1_555 1_555
H63 C67 1_555 1_555
H64 C67 1_555 1_555
H65 C67 1_555 1_555
C68 C66 1_555 1_555
H66 C68 1_555 1_555
H67 C68 1_555 1_555
H68 C68 1_555 1_555
C69 C30 1_555 1_555
C70 C69 1_555 1_555
C71 C70 1_555 1_555
C72 C71 1_555 1_555
C73 C72 1_555 1_555
H69 C73 1_555 1_555
H70 C73 1_555 1_555
H71 C73 1_555 1_555
C74 C72 1_555 1_555
H72 C74 1_555 1_555
H73 C74 1_555 1_555
H74 C74 1_555 1_555
C75 C72 1_555 1_555
H75 C75 1_555 1_555
H76 C75 1_555 1_555
H77 C75 1_555 1_555
C76 C71 1_555 1_555
C77 C76 1_555 1_555
C78 C77 1_555 1_555
C79 C78 1_555 1_555
H78 C79 1_555 1_555
H79 C79 1_555 1_555
H80 C79 1_555 1_555
C80 C78 1_555 1_555
H81 C80 1_555 1_555
H82 C80 1_555 1_555
H83 C80 1_555 1_555
C81 C78 1_555 1_555
H84 C81 1_555 1_555
H85 C81 1_555 1_555
H86 C81 1_555 1_555
C82 C77 1_555 1_555
C83 C82 1_555 1_555
C84 O1 1_555 1_555
C85 C84 1_555 1_555
H87 C85 1_555 1_555
H88 C85 1_555 1_555
H89 C85 1_555 1_555
C86 C84 1_555 1_555
H90 C86 1_555 1_555
H91 C86 1_555 1_555
H92 C86 1_555 1_555
C87 C26 1_555 1_555
C88 C87 1_555 1_555
C89 C88 1_555 1_555
C90 C89 1_555 1_555
C91 C90 1_555 1_555
H93 C91 1_555 1_555
H94 C91 1_555 1_555
H95 C91 1_555 1_555
C92 C90 1_555 1_555
H96 C92 1_555 1_555
H97 C92 1_555 1_555
H98 C92 1_555 1_555
C93 C90 1_555 1_555
H99 C93 1_555 1_555
H100 C93 1_555 1_555
H101 C93 1_555 1_555
C94 C89 1_555 1_555
C95 C94 1_555 1_555
C96 C95 1_555 1_555
C97 C96 1_555 1_555
H102 C97 1_555 1_555
H103 C97 1_555 1_555
H104 C97 1_555 1_555
C98 C96 1_555 1_555
H105 C98 1_555 1_555
H106 C98 1_555 1_555
H107 C98 1_555 1_555
C99 C96 1_555 1_555
H108 C99 1_555 1_555
H109 C99 1_555 1_555
H110 C99 1_555 1_555
C100 C95 1_555 1_555
C101 C100 1_555 1_555
C102 O4 1_555 1_555
C103 C102 1_555 1_555
H111 C103 1_555 1_555
H112 C103 1_555 1_555
H113 C103 1_555 1_555
C104 C102 1_555 1_555
H114 C104 1_555 1_555
H115 C104 1_555 1_555
H116 C104 1_555 1_555
C105 H117 1_555 1_555
H118 C105 1_555 1_555
H119 C105 1_555 1_555
C106 C105 1_555 1_555
H120 C106 1_555 1_555
H121 C106 1_555 1_555
C107 C106 1_555 1_555
H122 C107 1_555 1_555
H123 C107 1_555 1_555
C108 C107 1_555 1_555
H124 C108 1_555 1_555
H125 C108 1_555 1_555
C109 C108 1_555 1_555
H126 C109 1_555 1_555
H127 C109 1_555 1_555
C110 C1 1_555 1_555
H128 C110 1_555 1_555
H129 C110 1_555 1_555
C111 H130 1_555 1_555
H131 C111 1_555 1_555
H132 C111 1_555 1_555
C112 C111 1_555 1_555
H133 C112 1_555 1_555
H134 C112 1_555 1_555
C113 C112 1_555 1_555
H135 C113 1_555 1_555
H136 C113 1_555 1_555
C114 C113 1_555 1_555
H137 C114 1_555 1_555
H138 C114 1_555 1_555
C115 C114 1_555 1_555
H139 C115 1_555 1_555
H140 C115 1_555 1_555
C116 C5 1_555 1_555
H141 C116 1_555 1_555
H142 C116 1_555 1_555
C117 H143 1_555 1_555
H144 C117 1_555 1_555
C118 C117 1_555 1_555
H145 C118 1_555 1_555
H146 C118 1_555 1_555
C119 C9 1_555 1_555
H147 C119 1_555 1_555
H148 C119 1_555 1_555
C120 H149 1_555 1_555
H150 C120 1_555 1_555
C121 C120 1_555 1_555
H151 C121 1_555 1_555
H152 C121 1_555 1_555
C122 C121 1_555 1_555
H153 C122 1_555 1_555
H154 C122 1_555 1_555
C123 C13 1_555 1_555
H155 C123 1_555 1_555
H156 C123 1_555 1_555
C124 H157 1_555 1_555
H158 C124 1_555 1_555
H159 C124 1_555 1_555
C125 C124 1_555 1_555
H160 C125 1_555 1_555
H161 C125 1_555 1_555
C126 C117 1_555 1_555
H162 C126 1_555 1_555
H163 C126 1_555 1_555
C127 H164 1_555 1_555
H165 C127 1_555 1_555
H166 C127 1_555 1_555
C128 C120 1_555 1_555
H167 C128 1_555 1_555
H168 C128 1_555 1_555
C134 H185 1_555 1_555
C135 C134 1_555 1_555
H186 C135 1_555 1_555
C136 C135 1_555 1_555
H187 C136 1_555 1_555
H188 C136 1_555 1_555
C137 C136 1_555 1_555
H189 C137 1_555 1_555
H190 C137 1_555 1_555
C138 C137 1_555 1_555
H191 C138 1_555 1_555
H192 C138 1_555 1_555
C139 C134 1_555 1_555
H193 C139 1_555 1_555
H194 C139 1_555 1_555
C140 C134 1_555 1_555
H195 C140 1_555 1_555
H196 C140 1_555 1_555
H197 C140 1_555 1_555
C141 C135 1_555 1_555
H198 C141 1_555 1_555
H199 C141 1_555 1_555
H200 C141 1_555 1_555
N1 C142 1_555 1_555
C142 C143 1_555 1_555
C143 H201 1_555 1_555
H202 C143 1_555 1_555
H203 C143 1_555 1_555
O10 C32 1_555 1_555
C4 C29 1_555 1_555
C8 C25 1_555 1_555
C12 C21 1_555 1_555
C15 C16 1_555 1_555
C18 C19 1_555 1_555
C22 C23 1_555 1_555
C26 C27 1_555 1_555
C30 C31 1_555 1_555
C47 C48 1_555 1_555
C65 C66 1_555 1_555
C83 C84 1_555 1_555
C101 C102 1_555 1_555
C109 C110 1_555 1_555
C115 C116 1_555 1_555
C118 C119 1_555 1_555
C122 C123 1_555 1_555
C125 C126 1_555 1_555
C127 C128 1_555 1_555
C138 C139 1_555 1_555

#END
