
#######################################################################
#
#                 Cambridge Crystallographic Data Centre
#                                CCDC 
#
#######################################################################
#
# If this CIF has been generated from an entry in the Cambridge 
# Structural Database, then it will include bibliographic, chemical, 
# crystal, experimental, refinement or atomic coordinate data resulting 
# from the CCDC's data processing and validation procedures.
#
#######################################################################

data_IYUZIN01
_chemical_formula_moiety         'C128 H168 O12,C8 H16,C2 H3 N1'
_chemical_name_systematic        
"(P)-2,8,14,20-tetra-n-hexyl-5,11,17,23-tetrakis(3,5-di-t-butyl-8-hydroxy-8-methylnona-3,4-diene-1,6-diyn-1-yl)-4,24:6,10:12,16:18,22-O,O'-tetramethylenecalix[4]resorcinarene (R,R)-trans-1,2-dimethylcyclohexane acetonitrile solvate"
_symmetry_cell_setting           orthorhombic
_symmetry_space_group_name_H-M   'P 21 21 21'
_symmetry_Int_Tables_number      19
_space_group_name_Hall           'P 2ac 2ab'
loop_
_symmetry_equiv_pos_site_id
_symmetry_equiv_pos_as_xyz
1 x,y,z
2 1/2-x,-y,1/2+z
3 -x,1/2+y,1/2-z
4 1/2+x,1/2-y,-z
_cell_length_a                   15.49690(10)
_cell_length_b                   18.24030(10)
_cell_length_c                   46.6272(3)
_cell_angle_alpha                90
_cell_angle_beta                 90
_cell_angle_gamma                90
_cell_volume                     13180
_exptl_crystal_colour            colorless
_exptl_crystal_description       block
_cell_formula_units_Z            4
_exptl_crystal_recrystallization_method water/acetonitrile
loop_
_atom_site_label
_atom_site_type_symbol
_atom_site_fract_x
_atom_site_fract_y
_atom_site_fract_z
O1 O 0.1786(2) 0.3766(2) 0.44489(9)
H1 H 0.1573 0.4187 0.4469
O2 O 0.3261(3) 0.39686(19) 0.47593(9)
H2 H 0.2817 0.3803 0.4679
O3 O 0.3051(2) 0.5461(2) 0.47884(10)
H3 H 0.3200 0.5022 0.4810
O4 O 0.1402(3) 0.5276(2) 0.45763(10)
H4 H 0.1864 0.5428 0.4649
O5 O 0.5624(2) 0.24216(16) 0.33484(6)
O6 O 0.66019(19) 0.33304(16) 0.35023(6)
O7 O 0.6665(2) 0.59383(16) 0.34780(7)
O8 O 0.5634(2) 0.68151(16) 0.33420(7)
O9 O 0.2791(2) 0.67894(16) 0.29594(7)
O10 O 0.1785(2) 0.59019(17) 0.28033(7)
O11 O 0.18123(19) 0.32847(16) 0.27805(7)
O12 O 0.2826(2) 0.24014(16) 0.29295(7)
C1 C 0.8955(4) 0.5553(4) 0.22229(18)
H5 H 0.9120 0.5218 0.2381
H6 H 0.9077 0.5299 0.2040
C2 C 0.7998(4) 0.5701(3) 0.22415(12)
H7 H 0.7686 0.5277 0.2160
H8 H 0.7863 0.6134 0.2121
C3 C 0.7661(3) 0.5840(3) 0.25437(11)
H9 H 0.7804 0.5410 0.2665
H10 H 0.7966 0.6270 0.2625
C4 C 0.6697(3) 0.5976(2) 0.25604(10)
H11 H 0.6394 0.5581 0.2455
H12 H 0.6564 0.6445 0.2464
C5 C 1.0635(11) 0.2717(19) 0.2115(5)
H13 H 1.0898 0.2698 0.1924
H14 H 1.0634 0.2224 0.2199
H15 H 1.0969 0.3049 0.2237
C6 C 0.9711(9) 0.2995(14) 0.2090(4)
H16 H 0.9720 0.3500 0.2013
H17 H 0.9393 0.2683 0.1952
C7 C 0.9234(7) 0.2997(11) 0.2373(3)
H18 H 0.9541 0.3320 0.2510
H19 H 0.9236 0.2494 0.2454
C8 C 0.8280(3) 0.3264(3) 0.23424(11)
H20 H 0.8275 0.3780 0.2276
H21 H 0.7981 0.2963 0.2197
C9 C 0.7806(3) 0.3207(3) 0.26264(11)
H22 H 0.7973 0.3627 0.2749
H23 H 0.7990 0.2752 0.2725
C10 C 0.6825(3) 0.3198(3) 0.25947(10)
H24 H 0.6648 0.2753 0.2489
H25 H 0.6640 0.3631 0.2482
C11 C 0.2087(5) 0.3031(5) 0.08885(16)
H26 H 0.2290 0.3013 0.0690
H27 H 0.1621 0.3392 0.0905
H28 H 0.1872 0.2547 0.0945
C12 C 0.2831(5) 0.3252(4) 0.10845(13)
H29 H 0.3329 0.2923 0.1050
H30 H 0.3013 0.3758 0.1038
C13 C 0.2585(5) 0.3211(4) 0.13878(13)
H31 H 0.2366 0.2711 0.1427
H32 H 0.2104 0.3557 0.1421
C14 C 0.3316(4) 0.3384(3) 0.16056(11)
H33 H 0.3815 0.3059 0.1568
H34 H 0.3508 0.3897 0.1580
C15 C 0.3012(4) 0.3276(3) 0.19097(10)
H35 H 0.2673 0.2816 0.1919
H36 H 0.2619 0.3684 0.1960
C16 C 0.3731(3) 0.3239(3) 0.21342(9)
H37 H 0.4111 0.3672 0.2114
H38 H 0.4084 0.2795 0.2102
C17 C 0.2116(6) 0.5397(5) 0.08932(15)
H39 H 0.2346 0.5380 0.0697
H40 H 0.1673 0.5779 0.0906
H41 H 0.1861 0.4921 0.0942
C18 C 0.2842(5) 0.5569(4) 0.11019(13)
H42 H 0.3300 0.5195 0.1081
H43 H 0.3094 0.6051 0.1052
C19 C 0.2552(4) 0.5586(3) 0.14084(12)
H44 H 0.2311 0.5100 0.1459
H45 H 0.2085 0.5952 0.1429
C20 C 0.3281(4) 0.5776(3) 0.16206(11)
H46 H 0.3719 0.5382 0.1617
H47 H 0.3564 0.6236 0.1558
C21 C 0.2957(3) 0.5868(3) 0.19231(10)
H48 H 0.2643 0.5418 0.1979
H49 H 0.2540 0.6279 0.1927
C22 C 0.3661(3) 0.6017(3) 0.21449(10)
H50 H 0.3929 0.6499 0.2105
H51 H 0.4115 0.5637 0.2128
C23 C 0.2906(3) 0.5279(2) 0.25350(9)
C24 C 0.3272(3) 0.4618(2) 0.24510(9)
H52 H 0.3779 0.4628 0.2336
C25 C 0.2929(3) 0.3940(2) 0.25274(9)
C26 C 0.3355(3) 0.3220(2) 0.24382(9)
H53 H 0.2889 0.2841 0.2437
C27 C 0.3986(3) 0.3000(2) 0.26739(9)
C28 C 0.4864(3) 0.3176(2) 0.26639(9)
H54 H 0.5085 0.3425 0.2501
C29 C 0.5424(3) 0.2995(2) 0.28869(9)
C30 C 0.6380(3) 0.3209(2) 0.28893(9)
H55 H 0.6684 0.2839 0.3011
C31 C 0.6452(3) 0.3946(2) 0.30454(9)
C32 C 0.6394(3) 0.4607(2) 0.28963(9)
H56 H 0.6316 0.4595 0.2694
C33 C 0.6446(3) 0.5288(2) 0.30335(9)
C34 C 0.6348(3) 0.6005(2) 0.28688(10)
H57 H 0.6686 0.6388 0.2974
C35 C 0.5397(3) 0.6225(2) 0.28838(10)
C36 C 0.4814(3) 0.6055(2) 0.26651(9)
H58 H 0.5020 0.5810 0.2499
C37 C 0.3302(3) 0.6015(2) 0.24506(9)
H59 H 0.2826 0.6384 0.2456
C38 C 0.2182(3) 0.5256(2) 0.27118(9)
C39 C 0.1822(3) 0.4593(3) 0.27993(9)
C40 C 0.2203(3) 0.3936(2) 0.27022(9)
C41 C 0.2189(3) 0.2914(3) 0.30164(10)
H60 H 0.1731 0.2654 0.3124
H61 H 0.2454 0.3277 0.3147
C42 C 0.3673(3) 0.2640(2) 0.29141(10)
C43 C 0.4221(3) 0.2453(2) 0.31452(9)
C44 C 0.5088(3) 0.2648(2) 0.31257(9)
C45 C 0.5823(3) 0.2952(2) 0.35615(9)
H62 H 0.5344 0.3310 0.3574
H63 H 0.5873 0.2705 0.3750
C46 C 0.6528(3) 0.3967(2) 0.33389(9)
C47 C 0.6575(3) 0.4638(3) 0.34900(9)
C48 C 0.6550(3) 0.5286(2) 0.33302(9)
C49 C 0.5898(3) 0.6310(2) 0.35553(10)
H64 H 0.5992 0.6575 0.3738
H65 H 0.5432 0.5947 0.3587
C50 C 0.5085(3) 0.6563(2) 0.31284(10)
C51 C 0.4202(3) 0.6735(2) 0.31602(10)
C52 C 0.3641(3) 0.6565(2) 0.29319(10)
C53 C 0.2172(3) 0.6252(3) 0.30410(10)
H66 H 0.2457 0.5879 0.3162
H67 H 0.1717 0.6490 0.3158
C54 C 0.3893(3) 0.7055(2) 0.34197(10)
C55 C 0.3619(3) 0.7312(3) 0.36396(11)
C56 C 0.3337(3) 0.7660(3) 0.38992(10)
C57 C 0.4017(3) 0.8073(3) 0.40793(11)
C58 C 0.4682(4) 0.7524(4) 0.41866(14)
H68 H 0.4394 0.7151 0.4304
H69 H 0.5115 0.7779 0.4303
H70 H 0.4963 0.7288 0.4023
C59 C 0.4470(4) 0.8639(3) 0.38920(13)
H71 H 0.4722 0.8395 0.3724
H72 H 0.4928 0.8878 0.4003
H73 H 0.4052 0.9007 0.3828
C60 C 0.3579(4) 0.8453(4) 0.43335(12)
H74 H 0.3169 0.8819 0.4262
H75 H 0.4017 0.8695 0.4452
H76 H 0.3272 0.8088 0.4449
C61 C 0.2518(4) 0.7604(3) 0.39713(11)
C62 C 0.1690(3) 0.7554(3) 0.40382(10)
C63 C 0.1015(3) 0.8095(3) 0.39270(10)
C64 C 0.0318(4) 0.7672(3) 0.37666(13)
H77 H 0.0581 0.7400 0.3608
H78 H -0.0111 0.8016 0.3691
H79 H 0.0037 0.7327 0.3898
C65 C 0.0621(4) 0.8506(3) 0.41787(12)
H80 H 0.0360 0.8156 0.4312
H81 H 0.0176 0.8843 0.4108
H82 H 0.1072 0.8786 0.4278
C66 C 0.1441(4) 0.8642(3) 0.37206(13)
H83 H 0.1906 0.8903 0.3820
H84 H 0.1010 0.8995 0.3654
H85 H 0.1681 0.8377 0.3556
C67 C 0.1409(3) 0.6964(3) 0.42226(11)
C68 C 0.1150(3) 0.6469(3) 0.43697(12)
C69 C 0.0799(3) 0.5873(3) 0.45526(13)
C70 C 0.0590(5) 0.6175(4) 0.48438(15)
H86 H 0.0354 0.5783 0.4965
H87 H 0.0162 0.6568 0.4825
H88 H 0.1115 0.6370 0.4932
C71 C 0.0016(4) 0.5533(4) 0.44108(17)
H89 H 0.0186 0.5311 0.4228
H90 H -0.0419 0.5913 0.4376
H91 H -0.0226 0.5155 0.4537
C72 C 0.1108(3) 0.4576(3) 0.29928(10)
C73 C 0.0563(3) 0.4556(3) 0.31714(10)
C74 C -0.0101(3) 0.4540(3) 0.33904(10)
C75 C -0.0670(3) 0.5226(3) 0.34248(11)
C76 C -0.0093(4) 0.5899(3) 0.34640(15)
H92 H 0.0294 0.5820 0.3627
H93 H -0.0454 0.6331 0.3500
H94 H 0.0248 0.5977 0.3290
C77 C -0.1210(3) 0.5315(3) 0.31528(12)
H95 H -0.0826 0.5374 0.2987
H96 H -0.1579 0.5749 0.3171
H97 H -0.1571 0.4879 0.3126
C78 C -0.1262(4) 0.5138(3) 0.36828(12)
H98 H -0.1623 0.4702 0.3657
H99 H -0.1631 0.5572 0.3700
H100 H -0.0914 0.5084 0.3857
C79 C -0.0197(3) 0.3944(3) 0.35441(10)
C80 C -0.0289(3) 0.3351(3) 0.36993(10)
C81 C -0.0879(3) 0.2711(3) 0.36115(11)
C82 C -0.0338(4) 0.2018(3) 0.35951(14)
H101 H 0.0129 0.2087 0.3456
H102 H -0.0702 0.1607 0.3535
H103 H -0.0091 0.1912 0.3784
C83 C -0.1594(3) 0.2618(3) 0.38373(12)
H104 H -0.1333 0.2561 0.4027
H105 H -0.1938 0.2182 0.3792
H106 H -0.1968 0.3052 0.3836
C84 C -0.1281(3) 0.2861(3) 0.33192(11)
H107 H -0.1604 0.3323 0.3326
H108 H -0.1674 0.2459 0.3269
H109 H -0.0825 0.2896 0.3174
C85 C 0.0196(3) 0.3302(3) 0.39617(10)
C86 C 0.0606(3) 0.3275(3) 0.41790(11)
C87 C 0.1098(3) 0.3226(3) 0.44473(11)
C88 C 0.0515(5) 0.3365(4) 0.46995(12)
H110 H 0.0856 0.3360 0.4877
H111 H 0.0073 0.2982 0.4709
H112 H 0.0237 0.3845 0.4678
C89 C 0.1540(4) 0.2488(3) 0.44703(13)
H113 H 0.1942 0.2428 0.4310
H114 H 0.1106 0.2098 0.4464
H115 H 0.1858 0.2462 0.4652
C90 C 0.3890(3) 0.2095(2) 0.33931(10)
C91 C 0.3630(3) 0.1814(2) 0.36093(10)
C92 C 0.3271(3) 0.1457(2) 0.38579(10)
C93 C 0.2489(3) 0.0969(3) 0.38070(10)
C94 C 0.1754(4) 0.1428(3) 0.36823(13)
H116 H 0.1597 0.1815 0.3818
H117 H 0.1253 0.1112 0.3647
H118 H 0.1941 0.1650 0.3501
C95 C 0.2741(3) 0.0368(3) 0.35946(11)
H119 H 0.2931 0.0592 0.3414
H120 H 0.2241 0.0052 0.3558
H121 H 0.3211 0.0074 0.3675
C96 C 0.2200(4) 0.0617(3) 0.40892(11)
H122 H 0.2674 0.0326 0.4169
H123 H 0.1703 0.0297 0.4053
H124 H 0.2037 0.1001 0.4226
C97 C 0.3639(3) 0.1566(2) 0.41084(10)
C98 C 0.4050(3) 0.1629(2) 0.43523(10)
C99 C 0.4747(3) 0.1078(3) 0.44445(11)
C100 C 0.5605(4) 0.1487(3) 0.44878(12)
H125 H 0.5789 0.1704 0.4306
H126 H 0.6046 0.1142 0.4555
H127 H 0.5527 0.1875 0.4631
C101 C 0.4453(4) 0.0716(3) 0.47230(12)
H128 H 0.4332 0.1095 0.4866
H129 H 0.4909 0.0392 0.4794
H130 H 0.3928 0.0430 0.4687
C102 C 0.4870(4) 0.0492(3) 0.42128(13)
H131 H 0.4325 0.0231 0.4182
H132 H 0.5315 0.0144 0.4274
H133 H 0.5050 0.0727 0.4033
C103 C 0.3891(3) 0.2233(3) 0.45434(10)
C104 C 0.3802(3) 0.2748(3) 0.47036(11)
C105 C 0.3708(3) 0.3385(3) 0.48996(11)
C106 C 0.3226(4) 0.3159(3) 0.51689(13)
H134 H 0.3171 0.3581 0.5297
H135 H 0.3544 0.2767 0.5266
H136 H 0.2650 0.2981 0.5117
C107 C 0.4611(4) 0.3685(3) 0.49682(14)
H137 H 0.4900 0.3826 0.4790
H138 H 0.4950 0.3305 0.5065
H139 H 0.4559 0.4114 0.5093
C108 C 0.6633(3) 0.4654(2) 0.37969(9)
C109 C 0.6667(3) 0.4661(2) 0.40546(9)
C110 C 0.6711(3) 0.4641(3) 0.43627(9)
C111 C 0.7151(3) 0.3968(3) 0.44985(10)
C112 C 0.6729(3) 0.3269(3) 0.43826(11)
H140 H 0.6118 0.3262 0.4437
H141 H 0.7020 0.2840 0.4463
H142 H 0.6778 0.3260 0.4173
C113 C 0.8107(3) 0.3993(3) 0.44146(11)
H143 H 0.8158 0.4001 0.4205
H144 H 0.8400 0.3558 0.4490
H145 H 0.8373 0.4435 0.4495
C114 C 0.7080(4) 0.3996(3) 0.48249(11)
H146 H 0.7374 0.4435 0.4896
H147 H 0.7350 0.3559 0.4908
H148 H 0.6470 0.4012 0.4880
C115 C 0.6399(3) 0.5182(3) 0.45149(9)
C116 C 0.6143(3) 0.5726(3) 0.46755(10)
C117 C 0.6749(3) 0.6349(3) 0.47709(11)
C118 C 0.6408(4) 0.7074(3) 0.46560(14)
H149 H 0.6400 0.7060 0.4446
H150 H 0.6784 0.7474 0.4720
H151 H 0.5822 0.7155 0.4728
C119 C 0.6760(4) 0.6377(4) 0.50990(13)
H152 H 0.6174 0.6466 0.5170
H153 H 0.7141 0.6774 0.5163
H154 H 0.6971 0.5909 0.5174
C120 C 0.7659(3) 0.6219(3) 0.46580(14)
H155 H 0.7886 0.5762 0.4738
H156 H 0.8031 0.6628 0.4715
H157 H 0.7644 0.6184 0.4448
C121 C 0.5254(3) 0.5768(3) 0.47709(10)
C122 C 0.4517(3) 0.5828(3) 0.48442(11)
C123 C 0.3622(3) 0.5924(3) 0.49462(12)
C124 C 0.3314(4) 0.6695(3) 0.48880(17)
H158 H 0.3357 0.6799 0.4682
H159 H 0.3673 0.7044 0.4995
H160 H 0.2712 0.6744 0.4949
C125 C 0.3574(4) 0.5730(5) 0.52621(14)
H161 H 0.2979 0.5788 0.5330
H162 H 0.3954 0.6056 0.5371
H163 H 0.3757 0.5220 0.5290
C126 C 0.3942(3) 0.6231(2) 0.26827(10)
C127 C 0.9485(7) 0.6200(8) 0.2239(3)
H164 H 0.9406 0.6432 0.2430
H165 H 0.9294 0.6555 0.2092
C128 C 1.0424(7) 0.6031(12) 0.2196(3)
H166 H 1.0543 0.5983 0.1990
H167 H 1.0567 0.5570 0.2293
H168 H 1.0774 0.6428 0.2276
C134 C 0.4156(9) 0.4406(6) 0.3857(2)
H185 H 0.4753 0.4413 0.3776
C135 C 0.3567(9) 0.4281(6) 0.3583(2)
H186 H 0.3650 0.3747 0.3542
C136 C 0.2589(8) 0.4322(10) 0.3670(3)
H187 H 0.2451 0.3963 0.3822
H188 H 0.2209 0.4233 0.3503
C137 C 0.2494(11) 0.5207(7) 0.37921(19)
H189 H 0.2643 0.5563 0.3640
H190 H 0.1900 0.5306 0.3860
C138 C 0.3152(10) 0.5246(10) 0.4044(2)
H191 H 0.3024 0.5697 0.4155
H192 H 0.3034 0.4826 0.4173
C139 C 0.4035(8) 0.5245(6) 0.3986(2)
H193 H 0.4381 0.5322 0.4162
H194 H 0.4189 0.5622 0.3842
C140 C 0.4185(8) 0.3815(6) 0.4058(2)
H195 H 0.3600 0.3628 0.4090
H196 H 0.4424 0.3991 0.4240
H197 H 0.4550 0.3422 0.3982
C141 C 0.3934(8) 0.4656(5) 0.3303(2)
H198 H 0.3941 0.5189 0.3329
H199 H 0.3567 0.4530 0.3139
H200 H 0.4523 0.4481 0.3268
N1 N 0.9502(3) 0.5359(3) 0.71072(11)
C142 C 0.8412(6) 0.6178(4) 0.68336(12)
H201 H 0.8596 0.6246 0.6634
H202 H 0.8379 0.6656 0.6929
H203 H 0.7843 0.5943 0.6837
C143 C 0.9038(4) 0.5713(3) 0.69837(12)
C129? C 1.0428(9) 0.5322(17) 0.2015(4)
H169? H 1.0688 0.5283 0.1824
H170? H 1.0558 0.4879 0.2126
H171? H 1.0663 0.5752 0.2114
C130? C 0.9471(8) 0.5403(11) 0.1986(3)
H172? H 0.9367 0.5797 0.1844
H173? H 0.9252 0.4943 0.1900
H174? H 0.9229 0.5984 0.2315
H175? H 0.9055 0.5137 0.2355
H176? H 0.8067 0.3702 0.2239
H177? H 0.8135 0.2830 0.2225
C131? C 0.9267(9) 0.3317(12) 0.2367(5)
H178? H 0.9421 0.3762 0.2477
H179? H 0.9486 0.2886 0.2473
C132? C 0.9697(12) 0.3347(18) 0.2072(5)
H180? H 0.9548 0.3816 0.1977
H181? H 0.9476 0.2942 0.1952
C133? C 1.0681(11) 0.328(2) 0.2098(6)
H182? H 1.0931 0.3214 0.1907
H183? H 1.0827 0.2864 0.2219
H184? H 1.0913 0.3733 0.2183
loop_
_geom_bond_atom_site_label_1
_geom_bond_atom_site_label_2
_geom_bond_site_symmetry_1
_geom_bond_site_symmetry_2
O1 H1 1_555 1_555
O2 H2 1_555 1_555
O3 H3 1_555 1_555
O4 H4 1_555 1_555
O5 C44 1_555 1_555
O6 C45 1_555 1_555
O7 C48 1_555 1_555
O8 C49 1_555 1_555
O9 C52 1_555 1_555
O10 C38 1_555 1_555
O11 C40 1_555 1_555
O12 C41 1_555 1_555
C1 H5 1_555 1_555
H6 C1 1_555 1_555
C2 C1 1_555 1_555
H7 C2 1_555 1_555
H8 C2 1_555 1_555
C3 C2 1_555 1_555
H9 C3 1_555 1_555
H10 C3 1_555 1_555
C4 C3 1_555 1_555
H11 C4 1_555 1_555
H12 C4 1_555 1_555
C5 H13 1_555 1_555
H14 C5 1_555 1_555
H15 C5 1_555 1_555
C6 C5 1_555 1_555
H16 C6 1_555 1_555
H17 C6 1_555 1_555
C7 C6 1_555 1_555
H18 C7 1_555 1_555
H19 C7 1_555 1_555
C8 C7 1_555 1_555
H20 C8 1_555 1_555
H21 C8 1_555 1_555
C9 C8 1_555 1_555
H22 C9 1_555 1_555
H23 C9 1_555 1_555
C10 C9 1_555 1_555
H24 C10 1_555 1_555
H25 C10 1_555 1_555
C11 H26 1_555 1_555
H27 C11 1_555 1_555
H28 C11 1_555 1_555
C12 C11 1_555 1_555
H29 C12 1_555 1_555
H30 C12 1_555 1_555
C13 C12 1_555 1_555
H31 C13 1_555 1_555
H32 C13 1_555 1_555
C14 C13 1_555 1_555
H33 C14 1_555 1_555
H34 C14 1_555 1_555
C15 C14 1_555 1_555
H35 C15 1_555 1_555
H36 C15 1_555 1_555
C16 C15 1_555 1_555
H37 C16 1_555 1_555
H38 C16 1_555 1_555
C17 H39 1_555 1_555
H40 C17 1_555 1_555
H41 C17 1_555 1_555
C18 C17 1_555 1_555
H42 C18 1_555 1_555
H43 C18 1_555 1_555
C19 C18 1_555 1_555
H44 C19 1_555 1_555
H45 C19 1_555 1_555
C20 C19 1_555 1_555
H46 C20 1_555 1_555
H47 C20 1_555 1_555
C21 C20 1_555 1_555
H48 C21 1_555 1_555
H49 C21 1_555 1_555
C22 C21 1_555 1_555
H50 C22 1_555 1_555
H51 C22 1_555 1_555
C23 C24 1_555 1_555
C24 H52 1_555 1_555
C25 C24 1_555 1_555
C26 C16 1_555 1_555
H53 C26 1_555 1_555
C27 C26 1_555 1_555
C28 C27 1_555 1_555
H54 C28 1_555 1_555
C29 C28 1_555 1_555
C30 C10 1_555 1_555
H55 C30 1_555 1_555
C31 C30 1_555 1_555
C32 C31 1_555 1_555
H56 C32 1_555 1_555
C33 C32 1_555 1_555
C34 C4 1_555 1_555
H57 C34 1_555 1_555
C35 C34 1_555 1_555
C36 C35 1_555 1_555
H58 C36 1_555 1_555
C37 C22 1_555 1_555
H59 C37 1_555 1_555
C38 C23 1_555 1_555
C39 C38 1_555 1_555
C40 C25 1_555 1_555
C41 O11 1_555 1_555
H60 C41 1_555 1_555
H61 C41 1_555 1_555
C42 O12 1_555 1_555
C43 C42 1_555 1_555
C44 C29 1_555 1_555
C45 O5 1_555 1_555
H62 C45 1_555 1_555
H63 C45 1_555 1_555
C46 O6 1_555 1_555
C47 C46 1_555 1_555
C48 C33 1_555 1_555
C49 O7 1_555 1_555
H64 C49 1_555 1_555
H65 C49 1_555 1_555
C50 O8 1_555 1_555
C51 C50 1_555 1_555
C52 C51 1_555 1_555
C53 O9 1_555 1_555
H66 C53 1_555 1_555
H67 C53 1_555 1_555
C54 C51 1_555 1_555
C55 C54 1_555 1_555
C56 C55 1_555 1_555
C57 C56 1_555 1_555
C58 C57 1_555 1_555
H68 C58 1_555 1_555
H69 C58 1_555 1_555
H70 C58 1_555 1_555
C59 C57 1_555 1_555
H71 C59 1_555 1_555
H72 C59 1_555 1_555
H73 C59 1_555 1_555
C60 C57 1_555 1_555
H74 C60 1_555 1_555
H75 C60 1_555 1_555
H76 C60 1_555 1_555
C61 C56 1_555 1_555
C62 C61 1_555 1_555
C63 C62 1_555 1_555
C64 C63 1_555 1_555
H77 C64 1_555 1_555
H78 C64 1_555 1_555
H79 C64 1_555 1_555
C65 C63 1_555 1_555
H80 C65 1_555 1_555
H81 C65 1_555 1_555
H82 C65 1_555 1_555
C66 C63 1_555 1_555
H83 C66 1_555 1_555
H84 C66 1_555 1_555
H85 C66 1_555 1_555
C67 C62 1_555 1_555
C68 C67 1_555 1_555
C69 O4 1_555 1_555
C70 C69 1_555 1_555
H86 C70 1_555 1_555
H87 C70 1_555 1_555
H88 C70 1_555 1_555
C71 C69 1_555 1_555
H89 C71 1_555 1_555
H90 C71 1_555 1_555
H91 C71 1_555 1_555
C72 C39 1_555 1_555
C73 C72 1_555 1_555
C74 C73 1_555 1_555
C75 C74 1_555 1_555
C76 C75 1_555 1_555
H92 C76 1_555 1_555
H93 C76 1_555 1_555
H94 C76 1_555 1_555
C77 C75 1_555 1_555
H95 C77 1_555 1_555
H96 C77 1_555 1_555
H97 C77 1_555 1_555
C78 C75 1_555 1_555
H98 C78 1_555 1_555
H99 C78 1_555 1_555
H100 C78 1_555 1_555
C79 C74 1_555 1_555
C80 C79 1_555 1_555
C81 C80 1_555 1_555
C82 C81 1_555 1_555
H101 C82 1_555 1_555
H102 C82 1_555 1_555
H103 C82 1_555 1_555
C83 C81 1_555 1_555
H104 C83 1_555 1_555
H105 C83 1_555 1_555
H106 C83 1_555 1_555
C84 C81 1_555 1_555
H107 C84 1_555 1_555
H108 C84 1_555 1_555
H109 C84 1_555 1_555
C85 C80 1_555 1_555
C86 C85 1_555 1_555
C87 O1 1_555 1_555
C88 C87 1_555 1_555
H110 C88 1_555 1_555
H111 C88 1_555 1_555
H112 C88 1_555 1_555
C89 C87 1_555 1_555
H113 C89 1_555 1_555
H114 C89 1_555 1_555
H115 C89 1_555 1_555
C90 C43 1_555 1_555
C91 C90 1_555 1_555
C92 C91 1_555 1_555
C93 C92 1_555 1_555
C94 C93 1_555 1_555
H116 C94 1_555 1_555
H117 C94 1_555 1_555
H118 C94 1_555 1_555
C95 C93 1_555 1_555
H119 C95 1_555 1_555
H120 C95 1_555 1_555
H121 C95 1_555 1_555
C96 C93 1_555 1_555
H122 C96 1_555 1_555
H123 C96 1_555 1_555
H124 C96 1_555 1_555
C97 C92 1_555 1_555
C98 C97 1_555 1_555
C99 C98 1_555 1_555
C100 C99 1_555 1_555
H125 C100 1_555 1_555
H126 C100 1_555 1_555
H127 C100 1_555 1_555
C101 C99 1_555 1_555
H128 C101 1_555 1_555
H129 C101 1_555 1_555
H130 C101 1_555 1_555
C102 C99 1_555 1_555
H131 C102 1_555 1_555
H132 C102 1_555 1_555
H133 C102 1_555 1_555
C103 C98 1_555 1_555
C104 C103 1_555 1_555
C105 O2 1_555 1_555
C106 C105 1_555 1_555
H134 C106 1_555 1_555
H135 C106 1_555 1_555
H136 C106 1_555 1_555
C107 C105 1_555 1_555
H137 C107 1_555 1_555
H138 C107 1_555 1_555
H139 C107 1_555 1_555
C108 C47 1_555 1_555
C109 C108 1_555 1_555
C110 C109 1_555 1_555
C111 C110 1_555 1_555
C112 C111 1_555 1_555
H140 C112 1_555 1_555
H141 C112 1_555 1_555
H142 C112 1_555 1_555
C113 C111 1_555 1_555
H143 C113 1_555 1_555
H144 C113 1_555 1_555
H145 C113 1_555 1_555
C114 C111 1_555 1_555
H146 C114 1_555 1_555
H147 C114 1_555 1_555
H148 C114 1_555 1_555
C115 C110 1_555 1_555
C116 C115 1_555 1_555
C117 C116 1_555 1_555
C118 C117 1_555 1_555
H149 C118 1_555 1_555
H150 C118 1_555 1_555
H151 C118 1_555 1_555
C119 C117 1_555 1_555
H152 C119 1_555 1_555
H153 C119 1_555 1_555
H154 C119 1_555 1_555
C120 C117 1_555 1_555
H155 C120 1_555 1_555
H156 C120 1_555 1_555
H157 C120 1_555 1_555
C121 C116 1_555 1_555
C122 C121 1_555 1_555
C123 O3 1_555 1_555
C124 C123 1_555 1_555
H158 C124 1_555 1_555
H159 C124 1_555 1_555
H160 C124 1_555 1_555
C125 C123 1_555 1_555
H161 C125 1_555 1_555
H162 C125 1_555 1_555
H163 C125 1_555 1_555
C126 C36 1_555 1_555
C127 C1 1_555 1_555
H164 C127 1_555 1_555
H165 C127 1_555 1_555
C128 C127 1_555 1_555
H166 C128 1_555 1_555
H167 C128 1_555 1_555
H168 C128 1_555 1_555
C134 H185 1_555 1_555
C135 C134 1_555 1_555
H186 C135 1_555 1_555
C136 C135 1_555 1_555
H187 C136 1_555 1_555
H188 C136 1_555 1_555
C137 C136 1_555 1_555
H189 C137 1_555 1_555
H190 C137 1_555 1_555
C138 C137 1_555 1_555
H191 C138 1_555 1_555
H192 C138 1_555 1_555
C139 C134 1_555 1_555
H193 C139 1_555 1_555
H194 C139 1_555 1_555
C140 C134 1_555 1_555
H195 C140 1_555 1_555
H196 C140 1_555 1_555
H197 C140 1_555 1_555
C141 C135 1_555 1_555
H198 C141 1_555 1_555
H199 C141 1_555 1_555
H200 C141 1_555 1_555
N1 C143 1_555 1_555
C142 H201 1_555 1_555
H202 C142 1_555 1_555
H203 C142 1_555 1_555
C143 C142 1_555 1_555
O10 C53 1_555 1_555
C23 C37 1_555 1_555
C25 C26 1_555 1_555
C27 C42 1_555 1_555
C29 C30 1_555 1_555
C31 C46 1_555 1_555
C33 C34 1_555 1_555
C35 C50 1_555 1_555
C37 C126 1_555 1_555
C39 C40 1_555 1_555
C43 C44 1_555 1_555
C47 C48 1_555 1_555
C52 C126 1_555 1_555
C68 C69 1_555 1_555
C86 C87 1_555 1_555
C104 C105 1_555 1_555
C122 C123 1_555 1_555
C138 C139 1_555 1_555

#END
