
#######################################################################
#
#                 Cambridge Crystallographic Data Centre
#                                CCDC 
#
#######################################################################
#
# If this CIF has been generated from an entry in the Cambridge 
# Structural Database, then it will include bibliographic, chemical, 
# crystal, experimental, refinement or atomic coordinate data resulting 
# from the CCDC's data processing and validation procedures.
#
#######################################################################

data_IYUZOT
_chemical_formula_moiety         'C128 H168 O12,C7 H14,1.31(C2 H3 N1)'
_chemical_name_systematic        
"(P)-2,8,14,20-tetra-n-hexyl-5,11,17,23-tetrakis(3,5-di-tert-butyl-8-hydroxy-8-methylnona-3,4-diene-1,6-diyn-1-yl)-4,24:6,10:12,16:18,22-O,O'-tetramethylenecalix[4]resorcinarene cycloheptane clathrate acetonitrile solvate"
_symmetry_cell_setting           orthorhombic
_symmetry_space_group_name_H-M   'P 21 21 21'
_symmetry_Int_Tables_number      19
_space_group_name_Hall           'P 2ac 2ab'
loop_
_symmetry_equiv_pos_site_id
_symmetry_equiv_pos_as_xyz
1 x,y,z
2 1/2+x,1/2-y,-z
3 -x,1/2+y,1/2-z
4 1/2-x,-y,1/2+z
_cell_length_a                   15.4903(5)
_cell_length_b                   18.2600(6)
_cell_length_c                   46.4926(17)
_cell_angle_alpha                90
_cell_angle_beta                 90
_cell_angle_gamma                90
_cell_volume                     13150.6
_exptl_crystal_colour            colorless
_exptl_crystal_description       block
_cell_formula_units_Z            4
_exptl_crystal_recrystallization_method acetonitrile/cycloheptane/water
loop_
_atom_site_label
_atom_site_type_symbol
_atom_site_fract_x
_atom_site_fract_y
_atom_site_fract_z
O1 O 0.66871(13) 0.89874(10) 0.02593(5)
H1 H 0.7158 0.8832 0.0325
C1 C 0.61323(17) 0.70686(13) 0.16114(6)
O2 O 0.71844(11) 0.73752(9) 0.20797(4)
O3 O 0.81915(11) 0.82615(9) 0.22299(4)
O4 O 0.82148(13) 0.87705(11) 0.05429(5)
H2 H 0.8438 0.9185 0.0517
O5 O 0.81942(11) 1.08718(9) 0.21916(4)
O6 O 0.71866(11) 1.17575(9) 0.20336(4)
O7 O 0.43433(11) 1.17765(9) 0.16525(4)
O8 O 0.33221(11) 1.08933(9) 0.15167(4)
O9 O 0.34112(11) 0.82886(9) 0.14945(4)
O10 O 0.44003(12) 0.73935(9) 0.16510(4)
O11 O 0.69259(13) 1.04597(12) 0.01951(5)
H3 H 0.6769 1.0023 0.0173
O12 O 0.85760(14) 1.02593(11) 0.04072(5)
H4 H 0.8111 1.0418 0.0338
C2 C 0.8419(2) 0.74892(16) 0.05280(7)
H5 H 0.7993 0.7452 0.0683
H6 H 0.8839 0.7091 0.0546
H7 H 0.8126 0.7454 0.0342
C3 C 0.88828(17) 0.82211(15) 0.05487(6)
C4 C 0.93707(17) 0.82614(15) 0.08189(6)
C5 C 0.97909(17) 0.82846(15) 0.10356(6)
C6 C 1.02816(17) 0.83306(16) 0.12983(6)
C7 C 1.01880(16) 0.89221(17) 0.14568(6)
C8 C 1.00903(15) 0.95144(16) 0.16114(6)
C9 C 0.94372(16) 0.95255(15) 0.18301(5)
C10 C 0.88799(16) 0.95466(14) 0.20089(5)
C11 C 0.81678(15) 0.95652(14) 0.22031(5)
C12 C 0.77937(16) 0.89141(13) 0.23047(5)
C13 C 0.70664(15) 0.89183(13) 0.24798(5)
C14 C 0.66456(16) 0.81963(13) 0.25694(5)
H8 H 0.7112 0.7818 0.2572
C15 C 0.60169(16) 0.79777(12) 0.23337(5)
C16 C 0.51396(16) 0.81485(12) 0.23401(5)
H9 H 0.4914 0.8394 0.2504
C17 C 0.45809(16) 0.79723(12) 0.21147(5)
C18 C 0.36282(16) 0.81729(13) 0.21095(5)
H10 H 0.3333 0.7799 0.1987
C19 C 0.35446(15) 0.89060(13) 0.19533(5)
C20 C 0.34723(15) 0.89283(13) 0.16564(5)
C21 C 0.34167(14) 0.95942(13) 0.15066(5)
C22 C 0.33515(14) 0.96109(13) 0.11993(5)
C23 C 0.33080(15) 0.96295(13) 0.09412(5)
C24 C 0.32620(15) 0.96149(14) 0.06325(5)
C25 C 0.35722(16) 1.01635(15) 0.04828(5)
C26 C 0.38317(17) 1.07172(14) 0.03233(5)
C27 C 0.47190(18) 1.07652(14) 0.02304(6)
C28 C 0.54481(18) 1.08346(14) 0.01541(6)
C29 C 0.63464(18) 1.09323(15) 0.00474(7)
C30 C 0.6657(2) 1.17029(18) 0.01150(10)
H11 H 0.6640 1.1783 0.0323
H12 H 0.6282 1.2060 0.0019
H13 H 0.7251 1.1763 0.0046
C31 C 0.5354(2) 0.87108(16) 0.00449(7)
H14 H 0.5072 0.8868 0.0223
H15 H 0.5005 0.8331 -0.0048
H16 H 0.5414 0.9130 -0.0085
C32 C 0.62448(19) 0.84038(14) 0.01144(6)
C33 C 0.6741(2) 0.81927(19) -0.01564(7)
H17 H 0.6772 0.8615 -0.0286
H18 H 0.6443 0.7789 -0.0253
H19 H 0.7326 0.8038 -0.0104
C34 C 0.61607(17) 0.77634(14) 0.03069(6)
C35 C 0.60827(18) 0.72471(14) 0.04650(6)
C36 C 0.59339(18) 0.66327(14) 0.06522(6)
C37 C 0.52389(19) 0.60798(15) 0.05603(6)
C38 C 0.5533(2) 0.57225(17) 0.02772(7)
H20 H 0.5674 0.6105 0.0137
H21 H 0.5068 0.5414 0.0201
H22 H 0.6045 0.5420 0.0313
C39 C 0.43848(19) 0.64894(16) 0.05195(7)
H23 H 0.4202 0.6700 0.0703
H24 H 0.3943 0.6148 0.0451
H25 H 0.4463 0.6882 0.0378
C40 C 0.5125(2) 0.54907(18) 0.07904(7)
H26 H 0.5667 0.5220 0.0814
H27 H 0.4667 0.5152 0.0732
H28 H 0.4969 0.5722 0.0973
C41 C 0.63682(18) 0.65575(13) 0.08938(6)
C42 C 0.67402(17) 0.64451(13) 0.11422(5)
C43 C 0.75338(18) 0.59506(14) 0.11867(6)
C44 C 0.72845(19) 0.53536(15) 0.14029(6)
H29 H 0.7087 0.5582 0.1582
H30 H 0.7787 0.5044 0.1443
H31 H 0.6819 0.5053 0.1322
C45 C 0.8270(2) 0.64091(17) 0.13096(7)
H32 H 0.8419 0.6799 0.1174
H33 H 0.8775 0.6096 0.1342
H34 H 0.8088 0.6626 0.1493
C46 C 0.7810(2) 0.56021(16) 0.09030(7)
H35 H 0.7335 0.5307 0.0826
H36 H 0.8314 0.5288 0.0936
H37 H 0.7959 0.5987 0.0765
C47 C 0.63926(17) 0.67901(13) 0.13950(5)
C48 C 0.57998(16) 0.74346(12) 0.18602(5)
C49 C 0.63350(16) 0.76132(12) 0.20920(5)
C50 C 0.78264(17) 0.78850(14) 0.19940(6)
H38 H 0.8289 0.7622 0.1889
H39 H 0.7567 0.8245 0.1860
C51 C 0.9484(2) 0.83400(19) 0.02961(6)
H40 H 0.9155 0.8313 0.0116
H41 H 0.9932 0.7961 0.0296
H42 H 0.9755 0.8823 0.0312
C52 C 1.08815(17) 0.76918(16) 0.13831(6)
C53 C 1.15858(18) 0.76140(17) 0.11553(7)
H43 H 1.1319 0.7557 0.0966
H44 H 1.1940 0.7183 0.1198
H45 H 1.1950 0.8053 0.1156
C54 C 1.1287(2) 0.78373(18) 0.16754(7)
H46 H 1.1619 0.8294 0.1668
H47 H 1.1671 0.7431 0.1726
H48 H 1.0831 0.7881 0.1821
C55 C 1.0344(2) 0.69945(18) 0.13969(8)
H49 H 0.9875 0.7058 0.1536
H50 H 1.0711 0.6585 0.1457
H51 H 1.0099 0.6892 0.1207
C56 C 1.06499(17) 1.01996(16) 0.15732(6)
C57 C 1.11896(19) 1.03015(18) 0.18460(7)
H52 H 1.0805 1.0373 0.2011
H53 H 1.1563 1.0731 0.1824
H54 H 1.1546 0.9866 0.1878
C58 C 1.1241(2) 1.01129(19) 0.13128(7)
H55 H 1.1620 0.9689 0.1341
H56 H 1.1592 1.0555 0.1290
H57 H 1.0891 1.0038 0.1140
C59 C 1.0064(2) 1.08686(19) 0.15335(9)
H58 H 0.9702 1.0799 0.1363
H59 H 1.0420 1.1308 0.1509
H60 H 0.9697 1.0927 0.1704
C60 C 0.77992(16) 1.02314(13) 0.22866(5)
C61 C 0.78013(17) 1.12170(14) 0.19531(6)
H61 H 0.7511 1.0841 0.1834
H62 H 0.8255 1.1449 0.1834
C62 C 0.63339(16) 1.15342(12) 0.20615(6)
C63 C 0.57720(16) 1.17038(12) 0.18361(5)
C64 C 0.48943(16) 1.15376(12) 0.18665(5)
C65 C 0.40866(17) 1.12653(14) 0.14400(5)
H63 H 0.3995 1.1525 0.1256
H64 H 0.4555 1.0904 0.1411
C66 C 0.34336(14) 1.02460(13) 0.16662(5)
C67 C 0.42013(17) 0.79211(14) 0.14372(5)
H65 H 0.4163 0.7675 0.1248
H66 H 0.4674 0.8285 0.1427
C68 C 0.49270(16) 0.76181(12) 0.18755(5)
C69 C 0.67185(15) 0.95944(13) 0.25527(5)
H67 H 0.6212 0.9606 0.2668
C70 C 0.70787(15) 1.02568(13) 0.24644(5)
C71 C 0.66855(16) 1.09948(13) 0.25467(5)
H68 H 0.7161 1.1364 0.2541
C72 C 0.60455(16) 1.11999(12) 0.23130(5)
C73 C 0.51656(16) 1.10268(12) 0.23312(5)
H69 H 0.4960 1.0789 0.2500
C74 C 0.45810(16) 1.11877(12) 0.21136(5)
C75 C 0.36306(16) 1.09668(13) 0.21289(5)
H70 H 0.3290 1.1347 0.2023
C76 C 0.35369(14) 1.02460(13) 0.19645(5)
C77 C 0.35952(14) 0.95698(13) 0.21004(5)
H71 H 0.3673 0.9560 0.2303
C78 C 0.31783(16) 0.81602(13) 0.24033(5)
H72 H 0.3361 0.7719 0.2511
H73 H 0.3356 0.8596 0.2516
C79 C 0.21974(17) 0.81566(17) 0.23709(6)
H74 H 0.2026 0.8571 0.2246
H75 H 0.2022 0.7699 0.2273
C80 C 0.17119(19) 0.82146(19) 0.26547(6)
H76 H 0.1921 0.7824 0.2785
H77 H 0.1854 0.8691 0.2745
C81 C 0.32860(16) 1.09374(13) 0.24391(5)
H78 H 0.3593 1.0545 0.2545
H79 H 0.3417 1.1408 0.2536
C82 C 0.23178(17) 1.07968(15) 0.24568(6)
H80 H 0.2008 1.1224 0.2375
H81 H 0.2175 1.0365 0.2337
C83 C 0.1997(2) 1.06636(17) 0.27618(7)
H82 H 0.2307 1.0237 0.2843
H83 H 0.2140 1.1095 0.2881
C84 C 0.1034(3) 1.0523(2) 0.27798(11)
H84 H 0.0760 1.0959 0.2692
H85 H 0.0924 1.0113 0.2646
C85 C 0.63207(17) 1.10004(13) 0.28521(5)
H86 H 0.5872 1.0617 0.2870
H87 H 0.6047 1.1480 0.2891
C86 C 0.70342(19) 1.08617(15) 0.30753(6)
H88 H 0.7361 1.0420 0.3018
H89 H 0.7440 1.1281 0.3072
C87 C 0.6713(2) 1.07576(16) 0.33784(6)
H90 H 0.6288 1.0352 0.3381
H91 H 0.6413 1.1209 0.3441
C88 C 0.7443(2) 1.05846(18) 0.35911(7)
H92 H 0.7705 1.0109 0.3538
H93 H 0.7895 1.0965 0.3573
C89 C 0.7160(3) 1.0549(2) 0.38991(8)
H94 H 0.6711 1.0166 0.3919
H95 H 0.6897 1.1023 0.3953
C90 C 0.7898(4) 1.0380(3) 0.41049(9)
H96 H 0.8164 0.9912 0.4052
H97 H 0.7674 1.0348 0.4302
H98 H 0.8331 1.0770 0.4094
C91 C 0.62625(17) 0.82220(14) 0.28736(5)
H99 H 0.5878 0.8653 0.2891
H100 H 0.5912 0.7777 0.2907
C92 C 0.6970(2) 0.82695(17) 0.31008(6)
H101 H 0.7318 0.7815 0.3093
H102 H 0.7357 0.8683 0.3052
C93 C 0.6653(3) 0.83735(19) 0.34033(6)
H103 H 0.6154 0.8049 0.3442
H104 H 0.6473 0.8888 0.3435
C94 C 0.7458(3) 0.8164(3) 0.36089(10)
H105 H 0.7653 0.7660 0.3566
H106 H 0.7944 0.8502 0.3571
C95 C 0.7193(3) 0.8217(3) 0.39251(9)
H107 H 0.7027 0.8726 0.3974
H108 H 0.6697 0.7891 0.3965
C96 C 0.7969(3) 0.7984(3) 0.40981(12)
H109 H 0.7831 0.8008 0.4304
H110 H 0.8126 0.7480 0.4047
H111 H 0.8454 0.8311 0.4056
C97 C 0.32156(18) 1.13392(16) 0.02300(6)
C98 C 0.3207(3) 1.1373(2) -0.00985(7)
H112 H 0.3795 1.1455 -0.0169
H113 H 0.2834 1.1776 -0.0161
H114 H 0.2986 1.0910 -0.0176
C99 C 0.23073(19) 1.11992(18) 0.03426(8)
H115 H 0.2098 1.0729 0.0269
H116 H 0.1923 1.1592 0.0278
H117 H 0.2317 1.1187 0.0553
C100 C 0.3558(2) 1.20611(17) 0.03499(8)
H118 H 0.3593 1.2030 0.0560
H119 H 0.3168 1.2460 0.0296
H120 H 0.4134 1.2156 0.0271
C101 C 0.6366(3) 1.0765(3) -0.02737(8)
H121 H 0.6954 1.0834 -0.0347
H122 H 0.5971 1.1097 -0.0375
H123 H 0.6186 1.0257 -0.0306
C102 C 0.28181(16) 0.89503(14) 0.04906(6)
C103 C 0.2889(2) 0.89889(17) 0.01642(6)
H124 H 0.2598 0.9432 0.0095
H125 H 0.2615 0.8556 0.0079
H126 H 0.3499 0.9004 0.0109
C104 C 0.32448(18) 0.82459(15) 0.06032(7)
H127 H 0.3852 0.8235 0.0544
H128 H 0.2944 0.7819 0.0524
H129 H 0.3210 0.8235 0.0814
C105 C 0.18610(17) 0.89717(16) 0.05765(7)
H130 H 0.1813 0.8982 0.0787
H131 H 0.1569 0.8535 0.0502
H132 H 0.1591 0.9411 0.0496
C106 C 0.60798(16) 1.20382(13) 0.15767(6)
C107 C 0.63372(17) 1.23026(14) 0.13562(6)
C108 C 0.66264(18) 1.26514(14) 0.10967(6)
C109 C 0.59518(18) 1.30771(16) 0.09203(6)
C110 C 0.5517(2) 1.36496(18) 0.11097(7)
H133 H 0.5244 1.3408 0.1275
H134 H 0.5077 1.3910 0.0998
H135 H 0.5950 1.3999 0.1179
C111 C 0.6378(2) 1.34520(18) 0.06632(7)
H136 H 0.6784 1.3825 0.0732
H137 H 0.5934 1.3685 0.0544
H138 H 0.6689 1.3087 0.0549
C112 C 0.5265(2) 1.2541(2) 0.08139(8)
H139 H 0.5541 1.2154 0.0700
H140 H 0.4846 1.2802 0.0694
H141 H 0.4968 1.2323 0.0979
C113 C 0.74359(19) 1.25831(14) 0.10219(6)
C114 C 0.82607(18) 1.25203(14) 0.09561(6)
C115 C 0.89521(19) 1.30559(15) 0.10706(6)
C116 C 0.9358(2) 1.34570(18) 0.08161(7)
H142 H 0.9602 1.3099 0.0682
H143 H 0.9817 1.3781 0.0886
H144 H 0.8916 1.3748 0.0718
C117 C 0.8535(2) 1.36075(17) 0.12761(7)
H145 H 0.8082 1.3878 0.1174
H146 H 0.8974 1.3951 0.1346
H147 H 0.8281 1.3346 0.1440
C118 C 0.9635(2) 1.26162(19) 0.12312(7)
H148 H 0.9367 1.2362 0.1394
H149 H 1.0085 1.2948 0.1302
H150 H 0.9894 1.2256 0.1101
C119 C 0.85459(18) 1.19270(15) 0.07734(6)
C120 C 0.88028(19) 1.14360(16) 0.06259(7)
C121 C 0.91707(19) 1.08502(16) 0.04407(7)
C122 C 0.9402(3) 1.1169(2) 0.01515(9)
H151 H 0.9605 1.0777 0.0024
H152 H 0.9860 1.1534 0.0175
H153 H 0.8892 1.1402 0.0067
C123 C 0.9952(2) 1.0517(2) 0.05850(10)
H154 H 0.9776 1.0281 0.0765
H155 H 1.0374 1.0903 0.0627
H156 H 1.0212 1.0153 0.0457
C124 C 0.0545(4) 1.0370(5) 0.30193(15)
H157 H 0.0663 1.0752 0.3165
H158 H 0.0747 0.9898 0.3100
C125 C -0.0452(5) 1.0321(8) 0.2978(2)
H159 H -0.0727 1.0210 0.3162
H160 H -0.0670 1.0789 0.2905
H161 H -0.0586 0.9932 0.2839
C126 C 0.0738(4) 0.8153(4) 0.26302(16)
H162 H 0.0592 0.7690 0.2531
H163 H 0.0520 0.8563 0.2511
C127 C 0.0286(4) 0.8169(5) 0.29214(17)
H164 H 0.0560 0.7804 0.3050
H165 H 0.0368 0.8658 0.3009
C128 C -0.0671(5) 0.8009(8) 0.29021(19)
H166 H -0.0926 0.8027 0.3095
H167 H -0.0950 0.8376 0.2779
H168 H -0.0758 0.7520 0.2820
C138 C 0.5819(4) 1.0017(3) 0.09224(13)
H197 H 0.5337 1.0337 0.0983
H198 H 0.5746 0.9929 0.0714
C139 C 0.6603(5) 1.0432(3) 0.09578(13)
H199 H 0.6996 1.0281 0.0801
H200 H 0.6453 1.0951 0.0922
C140 C 0.5703(4) 0.9335(3) 0.10620(15)
H201 H 0.5218 0.9085 0.0964
H202 H 0.5506 0.9443 0.1260
C141 C 0.7101(5) 1.0417(4) 0.12183(13)
H203 H 0.6703 1.0465 0.1384
H204 H 0.7489 1.0848 0.1220
C142 C 0.6406(4) 0.8800(3) 0.10860(15)
H205 H 0.6667 0.8731 0.0894
H206 H 0.6160 0.8325 0.1147
C143 C 0.7635(4) 0.9743(5) 0.12599(16)
H207 H 0.8017 0.9823 0.1428
H208 H 0.8011 0.9684 0.1089
C144 C 0.7145(6) 0.9025(4) 0.13062(14)
H209 H 0.6884 0.9044 0.1500
H210 H 0.7576 0.8624 0.1308
C145 C 0.3378(3) 0.8807(2) 0.31680(7)
H211 H 0.3364 0.8320 0.3080
H212 H 0.2806 0.9034 0.3152
H213 H 0.3536 0.8764 0.3371
C146 C 0.4012(2) 0.92607(17) 0.30199(7)
N2 N 0.4491(2) 0.96191(19) 0.28976(7)
H169? H 0.1642 0.8736 0.2708
H170? H 0.2045 0.7968 0.2809
C129? C 0.0798(8) 0.7843(11) 0.2624(4)
H171? H 0.0449 0.8123 0.2483
H172? H 0.0872 0.7341 0.2548
C130? C 0.0318(10) 0.7808(12) 0.2908(4)
H173? H 0.0233 0.8312 0.2981
H174? H 0.0672 0.7538 0.3049
H175? H 0.0866 1.0192 0.2621
H176? H 0.0909 1.0267 0.2963
H177? H 0.6227 0.8776 0.3389
H178? H 0.6311 0.7927 0.3444
H179? H 0.8267 0.7548 0.4170
H180? H 0.8377 0.8392 0.4086
H181? H 0.7497 0.8113 0.4229
C131? C 0.0504(8) 1.1178(9) 0.2765(4)
H182? H 0.0609 1.1421 0.2578
H183? H 0.0694 1.1519 0.2918
C132? C -0.0452(9) 1.1053(16) 0.2797(5)
H184? H -0.0756 1.1522 0.2785
H185? H -0.0654 1.0728 0.2644
H186? H -0.0569 1.0826 0.2984
C133? C -0.0569(11) 0.7429(17) 0.2878(5)
H187? H -0.0856 0.7419 0.3066
H188? H -0.0926 0.7701 0.2741
H189? H -0.0487 0.6927 0.2809
C134? C -0.0724(7) 0.9399(5) 0.3205(2)
C135? C -0.0975(10) 0.9339(7) 0.2920(2)
H190? H -0.0578 0.9620 0.2798
H191? H -0.1562 0.9531 0.2898
H192? H -0.0963 0.8823 0.2862
N1? N -0.0509(7) 0.9436(6) 0.3443(2)
C136? C 0.7549(8) 0.7803(6) 0.3757(2)
H193? H 0.8016 0.7675 0.3620
H194? H 0.7131 0.7394 0.3764
C137? C 0.7102(8) 0.8515(6) 0.36661(17)
H195? H 0.6692 0.8675 0.3817
H196? H 0.7535 0.8907 0.3637
loop_
_geom_bond_atom_site_label_1
_geom_bond_atom_site_label_2
_geom_bond_site_symmetry_1
_geom_bond_site_symmetry_2
O1 H1 1_555 1_555
C1 C47 1_555 1_555
O2 C49 1_555 1_555
O3 C12 1_555 1_555
O4 H2 1_555 1_555
O5 C60 1_555 1_555
O6 C61 1_555 1_555
O7 C64 1_555 1_555
O8 C65 1_555 1_555
O9 C20 1_555 1_555
O10 C67 1_555 1_555
O11 H3 1_555 1_555
O12 H4 1_555 1_555
C2 H5 1_555 1_555
H6 C2 1_555 1_555
H7 C2 1_555 1_555
C3 O4 1_555 1_555
C4 C3 1_555 1_555
C5 C4 1_555 1_555
C6 C5 1_555 1_555
C7 C6 1_555 1_555
C8 C7 1_555 1_555
C9 C8 1_555 1_555
C10 C9 1_555 1_555
C11 C10 1_555 1_555
C12 C11 1_555 1_555
C13 C12 1_555 1_555
C14 C13 1_555 1_555
H8 C14 1_555 1_555
C15 C14 1_555 1_555
C16 C15 1_555 1_555
H9 C16 1_555 1_555
C17 C16 1_555 1_555
C18 C17 1_555 1_555
H10 C18 1_555 1_555
C19 C18 1_555 1_555
C20 C19 1_555 1_555
C21 C20 1_555 1_555
C22 C21 1_555 1_555
C23 C22 1_555 1_555
C24 C23 1_555 1_555
C25 C24 1_555 1_555
C26 C25 1_555 1_555
C27 C26 1_555 1_555
C28 C27 1_555 1_555
C29 O11 1_555 1_555
C30 C29 1_555 1_555
H11 C30 1_555 1_555
H12 C30 1_555 1_555
H13 C30 1_555 1_555
C31 H14 1_555 1_555
H15 C31 1_555 1_555
H16 C31 1_555 1_555
C32 O1 1_555 1_555
C33 C32 1_555 1_555
H17 C33 1_555 1_555
H18 C33 1_555 1_555
H19 C33 1_555 1_555
C34 C32 1_555 1_555
C35 C34 1_555 1_555
C36 C35 1_555 1_555
C37 C36 1_555 1_555
C38 C37 1_555 1_555
H20 C38 1_555 1_555
H21 C38 1_555 1_555
H22 C38 1_555 1_555
C39 C37 1_555 1_555
H23 C39 1_555 1_555
H24 C39 1_555 1_555
H25 C39 1_555 1_555
C40 C37 1_555 1_555
H26 C40 1_555 1_555
H27 C40 1_555 1_555
H28 C40 1_555 1_555
C41 C36 1_555 1_555
C42 C41 1_555 1_555
C43 C42 1_555 1_555
C44 C43 1_555 1_555
H29 C44 1_555 1_555
H30 C44 1_555 1_555
H31 C44 1_555 1_555
C45 C43 1_555 1_555
H32 C45 1_555 1_555
H33 C45 1_555 1_555
H34 C45 1_555 1_555
C46 C43 1_555 1_555
H35 C46 1_555 1_555
H36 C46 1_555 1_555
H37 C46 1_555 1_555
C47 C42 1_555 1_555
C48 C1 1_555 1_555
C49 C15 1_555 1_555
C50 O2 1_555 1_555
H38 C50 1_555 1_555
H39 C50 1_555 1_555
C51 C3 1_555 1_555
H40 C51 1_555 1_555
H41 C51 1_555 1_555
H42 C51 1_555 1_555
C52 C6 1_555 1_555
C53 C52 1_555 1_555
H43 C53 1_555 1_555
H44 C53 1_555 1_555
H45 C53 1_555 1_555
C54 C52 1_555 1_555
H46 C54 1_555 1_555
H47 C54 1_555 1_555
H48 C54 1_555 1_555
C55 C52 1_555 1_555
H49 C55 1_555 1_555
H50 C55 1_555 1_555
H51 C55 1_555 1_555
C56 C8 1_555 1_555
C57 C56 1_555 1_555
H52 C57 1_555 1_555
H53 C57 1_555 1_555
H54 C57 1_555 1_555
C58 C56 1_555 1_555
H55 C58 1_555 1_555
H56 C58 1_555 1_555
H57 C58 1_555 1_555
C59 C56 1_555 1_555
H58 C59 1_555 1_555
H59 C59 1_555 1_555
H60 C59 1_555 1_555
C60 C11 1_555 1_555
C61 O5 1_555 1_555
H61 C61 1_555 1_555
H62 C61 1_555 1_555
C62 O6 1_555 1_555
C63 C62 1_555 1_555
C64 C63 1_555 1_555
C65 O7 1_555 1_555
H63 C65 1_555 1_555
H64 C65 1_555 1_555
C66 O8 1_555 1_555
C67 O9 1_555 1_555
H65 C67 1_555 1_555
H66 C67 1_555 1_555
C68 O10 1_555 1_555
C69 C13 1_555 1_555
H67 C69 1_555 1_555
C70 C60 1_555 1_555
C71 C70 1_555 1_555
H68 C71 1_555 1_555
C72 C62 1_555 1_555
C73 C72 1_555 1_555
H69 C73 1_555 1_555
C74 C64 1_555 1_555
C75 C74 1_555 1_555
H70 C75 1_555 1_555
C76 C66 1_555 1_555
C77 C19 1_555 1_555
H71 C77 1_555 1_555
C78 C18 1_555 1_555
H72 C78 1_555 1_555
H73 C78 1_555 1_555
C79 C78 1_555 1_555
H74 C79 1_555 1_555
H75 C79 1_555 1_555
C80 C79 1_555 1_555
H76 C80 1_555 1_555
H77 C80 1_555 1_555
C81 C75 1_555 1_555
H78 C81 1_555 1_555
H79 C81 1_555 1_555
C82 C81 1_555 1_555
H80 C82 1_555 1_555
H81 C82 1_555 1_555
C83 C82 1_555 1_555
H82 C83 1_555 1_555
H83 C83 1_555 1_555
C84 C83 1_555 1_555
H84 C84 1_555 1_555
H85 C84 1_555 1_555
C85 C71 1_555 1_555
H86 C85 1_555 1_555
H87 C85 1_555 1_555
C86 C85 1_555 1_555
H88 C86 1_555 1_555
H89 C86 1_555 1_555
C87 C86 1_555 1_555
H90 C87 1_555 1_555
H91 C87 1_555 1_555
C88 C87 1_555 1_555
H92 C88 1_555 1_555
H93 C88 1_555 1_555
C89 C88 1_555 1_555
H94 C89 1_555 1_555
H95 C89 1_555 1_555
C90 C89 1_555 1_555
H96 C90 1_555 1_555
H97 C90 1_555 1_555
H98 C90 1_555 1_555
C91 C14 1_555 1_555
H99 C91 1_555 1_555
H100 C91 1_555 1_555
C92 C91 1_555 1_555
H101 C92 1_555 1_555
H102 C92 1_555 1_555
C93 C92 1_555 1_555
H103 C93 1_555 1_555
H104 C93 1_555 1_555
C94 C93 1_555 1_555
H105 C94 1_555 1_555
H106 C94 1_555 1_555
C95 C94 1_555 1_555
H107 C95 1_555 1_555
H108 C95 1_555 1_555
C96 C95 1_555 1_555
H109 C96 1_555 1_555
H110 C96 1_555 1_555
H111 C96 1_555 1_555
C97 C26 1_555 1_555
C98 C97 1_555 1_555
H112 C98 1_555 1_555
H113 C98 1_555 1_555
H114 C98 1_555 1_555
C99 C97 1_555 1_555
H115 C99 1_555 1_555
H116 C99 1_555 1_555
H117 C99 1_555 1_555
C100 C97 1_555 1_555
H118 C100 1_555 1_555
H119 C100 1_555 1_555
H120 C100 1_555 1_555
C101 C29 1_555 1_555
H121 C101 1_555 1_555
H122 C101 1_555 1_555
H123 C101 1_555 1_555
C102 C24 1_555 1_555
C103 C102 1_555 1_555
H124 C103 1_555 1_555
H125 C103 1_555 1_555
H126 C103 1_555 1_555
C104 C102 1_555 1_555
H127 C104 1_555 1_555
H128 C104 1_555 1_555
H129 C104 1_555 1_555
C105 C102 1_555 1_555
H130 C105 1_555 1_555
H131 C105 1_555 1_555
H132 C105 1_555 1_555
C106 C63 1_555 1_555
C107 C106 1_555 1_555
C108 C107 1_555 1_555
C109 C108 1_555 1_555
C110 C109 1_555 1_555
H133 C110 1_555 1_555
H134 C110 1_555 1_555
H135 C110 1_555 1_555
C111 C109 1_555 1_555
H136 C111 1_555 1_555
H137 C111 1_555 1_555
H138 C111 1_555 1_555
C112 C109 1_555 1_555
H139 C112 1_555 1_555
H140 C112 1_555 1_555
H141 C112 1_555 1_555
C113 C108 1_555 1_555
C114 C113 1_555 1_555
C115 C114 1_555 1_555
C116 C115 1_555 1_555
H142 C116 1_555 1_555
H143 C116 1_555 1_555
H144 C116 1_555 1_555
C117 C115 1_555 1_555
H145 C117 1_555 1_555
H146 C117 1_555 1_555
H147 C117 1_555 1_555
C118 C115 1_555 1_555
H148 C118 1_555 1_555
H149 C118 1_555 1_555
H150 C118 1_555 1_555
C119 C114 1_555 1_555
C120 C119 1_555 1_555
C121 O12 1_555 1_555
C122 C121 1_555 1_555
H151 C122 1_555 1_555
H152 C122 1_555 1_555
H153 C122 1_555 1_555
C123 C121 1_555 1_555
H154 C123 1_555 1_555
H155 C123 1_555 1_555
H156 C123 1_555 1_555
C124 C84 1_555 1_555
H157 C124 1_555 1_555
H158 C124 1_555 1_555
C125 C124 1_555 1_555
H159 C125 1_555 1_555
H160 C125 1_555 1_555
H161 C125 1_555 1_555
C126 C80 1_555 1_555
H162 C126 1_555 1_555
H163 C126 1_555 1_555
C127 C126 1_555 1_555
H164 C127 1_555 1_555
H165 C127 1_555 1_555
C128 C127 1_555 1_555
H166 C128 1_555 1_555
H167 C128 1_555 1_555
H168 C128 1_555 1_555
C138 H197 1_555 1_555
H198 C138 1_555 1_555
C139 C138 1_555 1_555
H199 C139 1_555 1_555
H200 C139 1_555 1_555
C140 C138 1_555 1_555
H201 C140 1_555 1_555
H202 C140 1_555 1_555
C141 C139 1_555 1_555
H203 C141 1_555 1_555
H204 C141 1_555 1_555
C142 C140 1_555 1_555
H205 C142 1_555 1_555
H206 C142 1_555 1_555
C143 C141 1_555 1_555
H207 C143 1_555 1_555
H208 C143 1_555 1_555
C144 C142 1_555 1_555
H209 C144 1_555 1_555
H210 C144 1_555 1_555
C145 H211 1_555 1_555
H212 C145 1_555 1_555
H213 C145 1_555 1_555
C146 C145 1_555 1_555
N2 C146 1_555 1_555
O3 C50 1_555 1_555
C2 C3 1_555 1_555
C17 C68 1_555 1_555
C21 C66 1_555 1_555
C28 C29 1_555 1_555
C31 C32 1_555 1_555
C48 C49 1_555 1_555
C48 C68 1_555 1_555
C69 C70 1_555 1_555
C71 C72 1_555 1_555
C73 C74 1_555 1_555
C75 C76 1_555 1_555
C76 C77 1_555 1_555
C120 C121 1_555 1_555
C143 C144 1_555 1_555

#END
