
#######################################################################
#
#                 Cambridge Crystallographic Data Centre
#                                CCDC 
#
#######################################################################
#
# If this CIF has been generated from an entry in the Cambridge 
# Structural Database, then it will include bibliographic, chemical, 
# crystal, experimental, refinement or atomic coordinate data resulting 
# from the CCDC's data processing and validation procedures.
#
#######################################################################

data_IZACET
_chemical_formula_moiety         'C7 H7 N1 O3'
_chemical_name_systematic        
'6-methyl-2-oxo-1,2-dihydropyridine-3-carboxylic acid'
_symmetry_cell_setting           orthorhombic
_symmetry_space_group_name_H-M   'P b c a'
_symmetry_Int_Tables_number      61
_space_group_name_Hall           '-P 2ac 2ab'
loop_
_symmetry_equiv_pos_site_id
_symmetry_equiv_pos_as_xyz
1 x,y,z
2 1/2-x,-y,1/2+z
3 -x,1/2+y,1/2-z
4 1/2+x,1/2-y,-z
5 -x,-y,-z
6 1/2+x,y,1/2-z
7 x,1/2-y,1/2+z
8 1/2-x,1/2+y,z
_cell_length_a                   7.39817(15)
_cell_length_b                   13.0179(2)
_cell_length_c                   14.3767(3)
_cell_angle_alpha                90
_cell_angle_beta                 90
_cell_angle_gamma                90
_cell_volume                     1384.6
_exptl_crystal_colour            colorless
_exptl_crystal_description       block
_cell_formula_units_Z            8
loop_
_atom_site_label
_atom_site_type_symbol
_atom_site_fract_x
_atom_site_fract_y
_atom_site_fract_z
C1 C 0.1956(2) 0.90668(10) 0.23847(9)
H1 H 0.2207 0.9389 0.1822
C2 C 0.23634(19) 0.95702(10) 0.32100(10)
H2 H 0.2866 1.0225 0.3199
C3 C 0.20177(18) 0.90938(10) 0.40376(9)
N1 N 0.12441(15) 0.81473(8) 0.40272(8)
H3 H 0.109(2) 0.7836(11) 0.4574(13)
C4 C 0.07888(17) 0.76149(10) 0.32427(8)
C5 C 0.11939(17) 0.81089(10) 0.23789(9)
C6 C 0.07691(19) 0.75812(11) 0.14978(9)
O1 O 0.11154(17) 0.79505(8) 0.07384(7)
O2 O -0.00328(16) 0.66813(8) 0.15692(8)
H4 H -0.013(3) 0.6533(14) 0.2235(14)
C7 C 0.2458(2) 0.95440(12) 0.49639(10)
H5 H 0.1414 0.9506 0.5360
H6 H 0.2807 1.0249 0.4888
H7 H 0.3435 0.9167 0.5241
O3 O 0.00596(15) 0.67456(7) 0.33145(7)
loop_
_geom_bond_atom_site_label_1
_geom_bond_atom_site_label_2
_geom_bond_site_symmetry_1
_geom_bond_site_symmetry_2
C1 H1 1_555 1_555
C2 C1 1_555 1_555
H2 C2 1_555 1_555
C3 C2 1_555 1_555
N1 C3 1_555 1_555
H3 N1 1_555 1_555
C4 N1 1_555 1_555
C5 C1 1_555 1_555
C6 C5 1_555 1_555
O1 C6 1_555 1_555
O2 C6 1_555 1_555
H4 O2 1_555 1_555
C7 C3 1_555 1_555
H5 C7 1_555 1_555
H6 C7 1_555 1_555
H7 C7 1_555 1_555
O3 C4 1_555 1_555
C4 C5 1_555 1_555

#END
