
#######################################################################
#
#                 Cambridge Crystallographic Data Centre
#                                CCDC 
#
#######################################################################
#
# If this CIF has been generated from an entry in the Cambridge 
# Structural Database, then it will include bibliographic, chemical, 
# crystal, experimental, refinement or atomic coordinate data resulting 
# from the CCDC's data processing and validation procedures.
#
#######################################################################

data_IZAHEW
_chemical_formula_moiety         'C60 H52 Li2 O2 P2'
_chemical_name_systematic        
bis(\m~2~-(2,6-bis(1-Naphthyl)phenyl)phosphanido)-bis((tetrahydrofuran)-lithium(i))
_symmetry_cell_setting           triclinic
_symmetry_space_group_name_H-M   'P -1'
_symmetry_Int_Tables_number      2
_space_group_name_Hall           '-P 1'
loop_
_symmetry_equiv_pos_site_id
_symmetry_equiv_pos_as_xyz
1 x,y,z
2 -x,-y,-z
_cell_length_a                   10.4586(19)
_cell_length_b                   11.3387(19)
_cell_length_c                   11.5813(19)
_cell_angle_alpha                62.710(10)
_cell_angle_beta                 74.360(11)
_cell_angle_gamma                86.041(11)
_cell_volume                     1172.95
_exptl_crystal_colour            red
_exptl_crystal_description       block
_cell_formula_units_Z            1
_exptl_crystal_recrystallization_method toluene
loop_
_atom_site_label
_atom_site_type_symbol
_atom_site_fract_x
_atom_site_fract_y
_atom_site_fract_z
Li1 Li 0.3720(11) 0.4127(9) 0.5206(10)
P1 P 0.61343(17) 0.38032(14) 0.45739(14)
H1 H 0.676(6) 0.399(6) 0.333(6)
O1 O 0.2253(4) 0.2899(4) 0.6183(4)
C1 C 0.6847(5) 0.2310(5) 0.5547(5)
C2 C 0.6522(5) 0.1794(5) 0.6970(5)
C3 C 0.7032(6) 0.0645(5) 0.7749(5)
H2 H 0.6806 0.0332 0.8698
C4 C 0.7857(5) -0.0063(5) 0.7197(6)
H3 H 0.8193 -0.0862 0.7752
C5 C 0.8186(5) 0.0404(5) 0.5833(6)
H4 H 0.8755 -0.0082 0.5441
C6 C 0.7714(5) 0.1560(5) 0.5011(5)
C7 C 0.8238(6) 0.2069(5) 0.3524(6)
C8 C 0.7451(6) 0.1942(5) 0.2809(6)
C9 C 0.6129(5) 0.1304(5) 0.3411(5)
H5 H 0.5745 0.0965 0.4354
C10 C 0.5444(6) 0.1189(5) 0.2647(6)
H6 H 0.4581 0.0751 0.3079
C11 C 0.5889(7) 0.1645(6) 0.1319(7)
H7 H 0.5358 0.1532 0.0824
C12 C 0.7090(7) 0.2264(6) 0.0702(6)
H8 H 0.7390 0.2593 -0.0249
C13 C 0.7941(5) 0.2467(5) 0.1332(5)
C14 C 0.9229(7) 0.3085(7) 0.0691(8)
H9 H 0.9578 0.3419 -0.0256
C15 C 1.0008(7) 0.3209(7) 0.1470(7)
H10 H 1.0871 0.3650 0.1057
C16 C 0.9479(5) 0.2679(6) 0.2817(7)
H11 H 1.0026 0.2736 0.3326
C17 C 0.5573(5) 0.2499(5) 0.7668(5)
C18 C 0.6033(6) 0.3642(5) 0.7627(5)
C19 C 0.7353(5) 0.4212(5) 0.6941(5)
H12 H 0.7966 0.3812 0.6478
C20 C 0.7740(7) 0.5326(6) 0.6945(6)
H13 H 0.8632 0.5682 0.6493
C21 C 0.6893(8) 0.5958(7) 0.7577(6)
H14 H 0.7188 0.6741 0.7559
C22 C 0.5617(7) 0.5436(6) 0.8232(6)
H15 H 0.5022 0.5875 0.8663
C23 C 0.5156(6) 0.4287(5) 0.8290(5)
C24 C 0.3842(7) 0.3742(6) 0.8988(5)
H16 H 0.3246 0.4177 0.9424
C25 C 0.3408(6) 0.2596(6) 0.9048(5)
H17 H 0.2527 0.2224 0.9537
C26 C 0.4316(5) 0.1970(5) 0.8355(5)
H18 H 0.4031 0.1179 0.8380
C27 C 0.1016(7) 0.3143(7) 0.6916(8)
H19 H 0.1180 0.3517 0.7489
H20 H 0.0544 0.3795 0.6279
C28 C 0.018(2) 0.1868(13) 0.778(2)
H21 H -0.0163 0.1726 0.8718
H22 H -0.0578 0.1859 0.7422
C29 C 0.1147(16) 0.0804(14) 0.769(2)
H23 H 0.0686 0.0037 0.7750
H24 H 0.1630 0.0488 0.8397
C30 C 0.207(2) 0.163(4) 0.628(3)
H25 H 0.2927 0.1215 0.6173
H26 H 0.1653 0.1693 0.5583
Li1A Li 0.6280(11) 0.5873(9) 0.4794(10)
P1A P 0.38657(17) 0.61968(14) 0.54261(14)
H1A H 0.324(6) 0.601(6) 0.667(6)
C1A C 0.3153(5) 0.7690(5) 0.4453(5)
C2A C 0.3478(5) 0.8206(5) 0.3030(5)
C3A C 0.2968(6) 0.9355(5) 0.2251(5)
H2A H 0.3194 0.9668 0.1302
C4A C 0.2143(5) 1.0063(5) 0.2803(6)
H3A H 0.1807 1.0862 0.2248
C5A C 0.1814(5) 0.9596(5) 0.4167(6)
H4A H 0.1245 1.0082 0.4559
C6A C 0.2286(5) 0.8440(5) 0.4989(5)
C7A C 0.1762(6) 0.7931(5) 0.6476(6)
C8A C 0.2549(6) 0.8058(5) 0.7191(6)
C9A C 0.3871(5) 0.8696(5) 0.6589(5)
H5A H 0.4255 0.9035 0.5646
C10A C 0.4556(6) 0.8811(5) 0.7353(6)
H6A H 0.5419 0.9249 0.6921
C11A C 0.4111(7) 0.8355(6) 0.8681(7)
H7A H 0.4642 0.8468 0.9176
C12A C 0.2910(7) 0.7736(6) 0.9298(6)
H8A H 0.2610 0.7407 1.0249
C13A C 0.2059(5) 0.7533(5) 0.8668(5)
C14A C 0.0771(7) 0.6915(7) 0.9309(8)
H9A H 0.0422 0.6581 1.0256
C15A C -0.0008(7) 0.6791(7) 0.8530(7)
H10A H -0.0871 0.6350 0.8943
C16A C 0.0521(5) 0.7321(6) 0.7183(7)
H11A H -0.0026 0.7264 0.6674
C17A C 0.4427(5) 0.7501(5) 0.2332(5)
C18A C 0.3967(6) 0.6358(5) 0.2373(5)
C19A C 0.2647(5) 0.5788(5) 0.3059(5)
H12A H 0.2034 0.6188 0.3522
C20A C 0.2260(7) 0.4674(6) 0.3055(6)
H13A H 0.1368 0.4318 0.3507
C21A C 0.3107(8) 0.4042(7) 0.2423(6)
H14A H 0.2812 0.3259 0.2441
C22A C 0.4383(7) 0.4564(6) 0.1768(6)
H15A H 0.4978 0.4125 0.1337
C23A C 0.4844(6) 0.5713(5) 0.1710(5)
C24A C 0.6158(7) 0.6258(6) 0.1012(5)
H16A H 0.6754 0.5823 0.0576
C25A C 0.6592(6) 0.7404(6) 0.0952(5)
H17A H 0.7473 0.7776 0.0463
C26A C 0.5684(5) 0.8030(5) 0.1645(5)
H18A H 0.5969 0.8821 0.1620
O1A O 0.7747(4) 0.7101(4) 0.3817(4)
C27A C 0.8984(7) 0.6857(7) 0.3084(8)
H19A H 0.8820 0.6483 0.2511
H20A H 0.9456 0.6205 0.3721
C28A C 0.982(2) 0.8132(13) 0.222(2)
H21A H 1.0163 0.8274 0.1282
H22A H 1.0578 0.8141 0.2578
C29A C 0.8853(16) 0.9196(14) 0.231(2)
H23A H 0.9314 0.9963 0.2250
H24A H 0.8370 0.9512 0.1603
C30A C 0.793(2) 0.837(4) 0.372(3)
H25A H 0.7073 0.8785 0.3827
H26A H 0.8347 0.8307 0.4417
C31? C 0.051(5) 0.172(2) 0.796(3)
H27? H -0.0466 0.1644 0.8363
H28? H 0.0968 0.1365 0.8691
C32? C 0.091(3) 0.106(3) 0.702(4)
H29? H 0.0777 0.0083 0.7538
H30? H 0.0409 0.1393 0.6334
C33? C 0.239(4) 0.151(7) 0.639(5)
H31? H 0.2744 0.1464 0.5533
H32? H 0.2940 0.1016 0.7018
loop_
_geom_bond_atom_site_label_1
_geom_bond_atom_site_label_2
_geom_bond_site_symmetry_1
_geom_bond_site_symmetry_2
Li1 P1 1_555 1_555
P1 H1 1_555 1_555
O1 Li1 1_555 1_555
C1 P1 1_555 1_555
C2 C1 1_555 1_555
C3 C2 1_555 1_555
H2 C3 1_555 1_555
C4 C3 1_555 1_555
H3 C4 1_555 1_555
C5 C4 1_555 1_555
H4 C5 1_555 1_555
C6 C1 1_555 1_555
C7 C6 1_555 1_555
C8 C7 1_555 1_555
C9 C8 1_555 1_555
H5 C9 1_555 1_555
C10 C9 1_555 1_555
H6 C10 1_555 1_555
C11 C10 1_555 1_555
H7 C11 1_555 1_555
C12 C11 1_555 1_555
H8 C12 1_555 1_555
C13 C8 1_555 1_555
C14 C13 1_555 1_555
H9 C14 1_555 1_555
C15 C14 1_555 1_555
H10 C15 1_555 1_555
C16 C7 1_555 1_555
H11 C16 1_555 1_555
C17 C2 1_555 1_555
C18 C17 1_555 1_555
C19 C18 1_555 1_555
H12 C19 1_555 1_555
C20 C19 1_555 1_555
H13 C20 1_555 1_555
C21 C20 1_555 1_555
H14 C21 1_555 1_555
C22 C21 1_555 1_555
H15 C22 1_555 1_555
C23 C18 1_555 1_555
C24 C23 1_555 1_555
H16 C24 1_555 1_555
C25 C24 1_555 1_555
H17 C25 1_555 1_555
C26 C17 1_555 1_555
H18 C26 1_555 1_555
C27 O1 1_555 1_555
H19 C27 1_555 1_555
H20 C27 1_555 1_555
C28 C27 1_555 1_555
H21 C28 1_555 1_555
H22 C28 1_555 1_555
C29 C28 1_555 1_555
H23 C29 1_555 1_555
H24 C29 1_555 1_555
C30 O1 1_555 1_555
H25 C30 1_555 1_555
H26 C30 1_555 1_555
Li1A P1 1_555 1_555
P1A Li1 1_555 1_555
H1A P1A 1_555 1_555
C1A P1A 1_555 1_555
C2A C1A 1_555 1_555
C3A C2A 1_555 1_555
H2A C3A 1_555 1_555
C4A C3A 1_555 1_555
H3A C4A 1_555 1_555
C5A C4A 1_555 1_555
H4A C5A 1_555 1_555
C6A C1A 1_555 1_555
C7A C6A 1_555 1_555
C8A C7A 1_555 1_555
C9A C8A 1_555 1_555
H5A C9A 1_555 1_555
C10A C9A 1_555 1_555
H6A C10A 1_555 1_555
C11A C10A 1_555 1_555
H7A C11A 1_555 1_555
C12A C11A 1_555 1_555
H8A C12A 1_555 1_555
C13A C8A 1_555 1_555
C14A C13A 1_555 1_555
H9A C14A 1_555 1_555
C15A C14A 1_555 1_555
H10A C15A 1_555 1_555
C16A C7A 1_555 1_555
H11A C16A 1_555 1_555
C17A C2A 1_555 1_555
C18A C17A 1_555 1_555
C19A C18A 1_555 1_555
H12A C19A 1_555 1_555
C20A C19A 1_555 1_555
H13A C20A 1_555 1_555
C21A C20A 1_555 1_555
H14A C21A 1_555 1_555
C22A C21A 1_555 1_555
H15A C22A 1_555 1_555
C23A C18A 1_555 1_555
C24A C23A 1_555 1_555
H16A C24A 1_555 1_555
C25A C24A 1_555 1_555
H17A C25A 1_555 1_555
C26A C17A 1_555 1_555
H18A C26A 1_555 1_555
O1A Li1A 1_555 1_555
C27A O1A 1_555 1_555
H19A C27A 1_555 1_555
H20A C27A 1_555 1_555
C28A C27A 1_555 1_555
H21A C28A 1_555 1_555
H22A C28A 1_555 1_555
C29A C28A 1_555 1_555
H23A C29A 1_555 1_555
H24A C29A 1_555 1_555
C30A O1A 1_555 1_555
H25A C30A 1_555 1_555
H26A C30A 1_555 1_555
C5 C6 1_555 1_555
C12 C13 1_555 1_555
C15 C16 1_555 1_555
C22 C23 1_555 1_555
C25 C26 1_555 1_555
C29 C30 1_555 1_555
Li1A P1A 1_555 1_555
C5A C6A 1_555 1_555
C12A C13A 1_555 1_555
C15A C16A 1_555 1_555
C22A C23A 1_555 1_555
C25A C26A 1_555 1_555
C29A C30A 1_555 1_555

#END
