
#######################################################################
#
#                 Cambridge Crystallographic Data Centre
#                                CCDC 
#
#######################################################################
#
# If this CIF has been generated from an entry in the Cambridge 
# Structural Database, then it will include bibliographic, chemical, 
# crystal, experimental, refinement or atomic coordinate data resulting 
# from the CCDC's data processing and validation procedures.
#
#######################################################################

data_IZAKOJ01
_chemical_formula_moiety         'C16 H14 Cl2 N2 O2'
_chemical_name_systematic        
N,N'-bis(5-Chloro-2-hydroxybenzylidene)ethane-1,2-diamine
_symmetry_cell_setting           monoclinic
_symmetry_space_group_name_H-M   'P 21/c'
_symmetry_Int_Tables_number      14
_space_group_name_Hall           '-P 2ybc'
loop_
_symmetry_equiv_pos_site_id
_symmetry_equiv_pos_as_xyz
1 x,y,z
2 -x,1/2+y,1/2-z
3 -x,-y,-z
4 x,1/2-y,1/2+z
_cell_length_a                   17.790(3)
_cell_length_b                   7.253(6)
_cell_length_c                   6.137(5)
_cell_angle_alpha                90
_cell_angle_beta                 92.653(7)
_cell_angle_gamma                90
_cell_volume                     791.014
_exptl_crystal_colour            yellow
_exptl_crystal_description       plate
_cell_formula_units_Z            2
loop_
_atom_site_label
_atom_site_type_symbol
_atom_site_fract_x
_atom_site_fract_y
_atom_site_fract_z
Cl1 Cl 0.93910(9) 0.4303(4) 0.7022(4)
O1 O 0.6432(2) 0.5737(7) 1.0643(7)
H1 H 0.6093 0.5353 0.9814
N1 N 0.5813(3) 0.4525(7) 0.6925(8)
C1 C 0.7160(3) 0.4643(7) 0.7675(9)
C2 C 0.7107(3) 0.5378(7) 0.9787(10)
C3 C 0.7761(4) 0.5802(8) 1.1005(10)
H2 H 0.7728 0.6325 1.2380
C4 C 0.8468(4) 0.5456(9) 1.0197(11)
H3 H 0.8902 0.5722 1.1043
C5 C 0.8521(3) 0.4708(8) 0.8108(10)
C6 C 0.7881(3) 0.4290(8) 0.6882(9)
H4 H 0.7920 0.3767 0.5509
C7 C 0.6476(3) 0.4264(7) 0.6303(9)
H5 H 0.6533 0.3808 0.4904
C8 C 0.5178(3) 0.4116(8) 0.5416(11)
H6 H 0.4809 0.3389 0.6153
H7 H 0.5349 0.3400 0.4200
Cl1B Cl 0.06090(9) 0.5697(4) 0.2978(4)
O1B O 0.3568(2) 0.4263(7) -0.0643(7)
H1B H 0.3907 0.4647 0.0186
N1B N 0.4187(3) 0.5475(7) 0.3075(8)
C1B C 0.2840(3) 0.5357(7) 0.2325(9)
C2B C 0.2893(3) 0.4622(7) 0.0213(10)
C3B C 0.2239(4) 0.4198(8) -0.1005(10)
H2B H 0.2272 0.3675 -0.2380
C4B C 0.1532(4) 0.4544(9) -0.0197(11)
H3B H 0.1098 0.4278 -0.1043
C5B C 0.1479(3) 0.5292(8) 0.1892(10)
C6B C 0.2119(3) 0.5710(8) 0.3118(9)
H4B H 0.2080 0.6233 0.4491
C7B C 0.3524(3) 0.5736(7) 0.3697(9)
H5B H 0.3467 0.6192 0.5096
C8B C 0.4822(3) 0.5884(8) 0.4584(11)
H6B H 0.5191 0.6611 0.3847
H7B H 0.4651 0.6600 0.5800
loop_
_geom_bond_atom_site_label_1
_geom_bond_atom_site_label_2
_geom_bond_site_symmetry_1
_geom_bond_site_symmetry_2
Cl1 C5 1_555 1_555
O1 H1 1_555 1_555
N1 C7 1_555 1_555
C1 C2 1_555 1_555
C2 O1 1_555 1_555
C3 C2 1_555 1_555
H2 C3 1_555 1_555
C4 C3 1_555 1_555
H3 C4 1_555 1_555
C5 C4 1_555 1_555
C6 C1 1_555 1_555
H4 C6 1_555 1_555
C7 C1 1_555 1_555
H5 C7 1_555 1_555
C8 N1 1_555 1_555
H6 C8 1_555 1_555
H7 C8 1_555 1_555
Cl1B C5B 1_555 1_555
O1B H1B 1_555 1_555
N1B C7B 1_555 1_555
C1B C2B 1_555 1_555
C2B O1B 1_555 1_555
C3B C2B 1_555 1_555
H2B C3B 1_555 1_555
C4B C3B 1_555 1_555
H3B C4B 1_555 1_555
C5B C4B 1_555 1_555
C6B C1B 1_555 1_555
H4B C6B 1_555 1_555
C7B C1B 1_555 1_555
H5B C7B 1_555 1_555
C8B C8 1_555 1_555
H6B C8B 1_555 1_555
H7B C8B 1_555 1_555
C5 C6 1_555 1_555
N1B C8B 1_555 1_555
C5B C6B 1_555 1_555

#END
