
#######################################################################
#
#                 Cambridge Crystallographic Data Centre
#                                CCDC 
#
#######################################################################
#
# If this CIF has been generated from an entry in the Cambridge 
# Structural Database, then it will include bibliographic, chemical, 
# crystal, experimental, refinement or atomic coordinate data resulting 
# from the CCDC's data processing and validation procedures.
#
#######################################################################

data_IZALEA
_chemical_formula_moiety         'C24 H24 N2 O4'
_chemical_name_systematic        
N,N'-bis(p-Methylphenyl)-2,2'-(m-phenylenedioxy)diacetamide
_symmetry_cell_setting           orthorhombic
_symmetry_space_group_name_H-M   'P b c a'
_symmetry_Int_Tables_number      61
_space_group_name_Hall           '-P 2ac 2ab'
loop_
_symmetry_equiv_pos_site_id
_symmetry_equiv_pos_as_xyz
1 x,y,z
2 1/2+x,y,1/2-z
3 x,1/2-y,1/2+z
4 1/2-x,1/2+y,z
5 -x,-y,-z
6 1/2-x,-y,1/2+z
7 -x,1/2+y,1/2-z
8 1/2+x,1/2-y,-z
_cell_length_a                   18.5029(11)
_cell_length_b                   10.6914(7)
_cell_length_c                   21.3741(13)
_cell_angle_alpha                90
_cell_angle_beta                 90
_cell_angle_gamma                90
_cell_volume                     4228.27
_exptl_crystal_colour            brown
_exptl_crystal_description       block
_cell_formula_units_Z            8
_exptl_crystal_recrystallization_method DMF-ethanol
loop_
_atom_site_label
_atom_site_type_symbol
_atom_site_fract_x
_atom_site_fract_y
_atom_site_fract_z
O1 O -0.08633(13) 0.8412(3) 0.05980(15)
O2 O -0.07191(13) 0.6435(2) -0.00938(12)
O3 O -0.21159(14) 0.3120(2) -0.09462(12)
O4 O -0.16985(13) 0.1752(3) 0.00680(14)
N1 N 0.03382(14) 0.8831(3) 0.05858(13)
H1 H 0.0737 0.8630 0.0405
N2 N -0.27843(15) 0.2024(3) 0.05389(14)
H2 H -0.3170 0.2472 0.0523
C1 C 0.0643(3) 1.2702(5) 0.2422(2)
H3 H 0.0176 1.2961 0.2568
H4 H 0.0887 1.3401 0.2235
H5 H 0.0923 1.2396 0.2768
C2 C 0.0555(2) 1.1678(4) 0.19434(19)
C3 C 0.1145(2) 1.1122(5) 0.1650(2)
H6 H 0.1608 1.1389 0.1754
C4 C 0.1066(2) 1.0188(4) 0.1210(2)
H7 H 0.1472 0.9839 0.1022
C5 C 0.03856(18) 0.9771(3) 0.10476(16)
C6 C -0.0206(2) 1.0304(4) 0.13402(18)
H8 H -0.0670 1.0033 0.1240
C7 C -0.0112(2) 1.1240(4) 0.17811(19)
H9 H -0.0517 1.1581 0.1973
C8 C -0.02557(17) 0.8211(3) 0.03936(17)
C9 C -0.01254(17) 0.7265(3) -0.01123(17)
H10 H -0.0096 0.7671 -0.0517
H11 H 0.0323 0.6818 -0.0037
C10 C -0.07819(18) 0.5548(3) -0.05519(15)
C11 C -0.0293(2) 0.5374(4) -0.10303(18)
H12 H 0.0117 0.5872 -0.1063
C12 C -0.0431(2) 0.4441(4) -0.1459(2)
H13 H -0.0102 0.4306 -0.1782
C13 C -0.1036(2) 0.3705(4) -0.14255(18)
H14 H -0.1120 0.3089 -0.1724
C14 C -0.15208(18) 0.3891(3) -0.09383(16)
C15 C -0.13915(18) 0.4796(3) -0.04985(16)
H15 H -0.1710 0.4907 -0.0166
C16 C -0.25818(19) 0.3078(4) -0.04228(18)
H16 H -0.3053 0.2784 -0.0556
H17 H -0.2640 0.3916 -0.0257
C17 C -0.23015(17) 0.2231(3) 0.00896(17)
C18 C -0.27437(18) 0.1163(4) 0.10374(19)
C19 C -0.2118(2) 0.0751(7) 0.1289(3)
H18 H -0.1679 0.1043 0.1136
C20 C -0.2127(3) -0.0101(7) 0.1772(3)
H19 H -0.1688 -0.0392 0.1925
C21 C -0.2736(3) -0.0531(5) 0.2033(3)
C22 C -0.3355(3) -0.0076(7) 0.1801(3)
H20 H -0.3791 -0.0322 0.1979
C23 C -0.3364(2) 0.0750(7) 0.1302(3)
H21 H -0.3805 0.1027 0.1147
C24 C -0.2715(4) -0.1444(7) 0.2578(3)
H22 H -0.2222 -0.1654 0.2670
H23 H -0.2976 -0.2189 0.2468
H24 H -0.2934 -0.1065 0.2938
loop_
_geom_bond_atom_site_label_1
_geom_bond_atom_site_label_2
_geom_bond_site_symmetry_1
_geom_bond_site_symmetry_2
O1 C8 1_555 1_555
O2 C9 1_555 1_555
O3 C14 1_555 1_555
O4 C17 1_555 1_555
N1 H1 1_555 1_555
N2 H2 1_555 1_555
C1 H3 1_555 1_555
H4 C1 1_555 1_555
H5 C1 1_555 1_555
C2 C1 1_555 1_555
C3 C2 1_555 1_555
H6 C3 1_555 1_555
C4 C3 1_555 1_555
H7 C4 1_555 1_555
C5 N1 1_555 1_555
C6 C5 1_555 1_555
H8 C6 1_555 1_555
C7 C2 1_555 1_555
H9 C7 1_555 1_555
C8 N1 1_555 1_555
C9 C8 1_555 1_555
H10 C9 1_555 1_555
H11 C9 1_555 1_555
C10 O2 1_555 1_555
C11 C10 1_555 1_555
H12 C11 1_555 1_555
C12 C11 1_555 1_555
H13 C12 1_555 1_555
C13 C12 1_555 1_555
H14 C13 1_555 1_555
C14 C13 1_555 1_555
C15 C10 1_555 1_555
H15 C15 1_555 1_555
C16 O3 1_555 1_555
H16 C16 1_555 1_555
H17 C16 1_555 1_555
C17 N2 1_555 1_555
C18 N2 1_555 1_555
C19 C18 1_555 1_555
H18 C19 1_555 1_555
C20 C19 1_555 1_555
H19 C20 1_555 1_555
C21 C20 1_555 1_555
C22 C21 1_555 1_555
H20 C22 1_555 1_555
C23 C18 1_555 1_555
H21 C23 1_555 1_555
C24 C21 1_555 1_555
H22 C24 1_555 1_555
H23 C24 1_555 1_555
H24 C24 1_555 1_555
C4 C5 1_555 1_555
C6 C7 1_555 1_555
C14 C15 1_555 1_555
C16 C17 1_555 1_555
C22 C23 1_555 1_555

#END
