
#######################################################################
#
#                 Cambridge Crystallographic Data Centre
#                                CCDC 
#
#######################################################################
#
# If this CIF has been generated from an entry in the Cambridge 
# Structural Database, then it will include bibliographic, chemical, 
# crystal, experimental, refinement or atomic coordinate data resulting 
# from the CCDC's data processing and validation procedures.
#
#######################################################################

data_IZALOM
_chemical_formula_moiety         'C12 H12 O2'
_chemical_name_systematic        
3a,4,9,9a-tetrahydronaphtho[2,3-b]furan-2(3H)-one
_symmetry_cell_setting           monoclinic
_symmetry_space_group_name_H-M   'P 21/n'
_symmetry_Int_Tables_number      14
_space_group_name_Hall           '-P 2yn'
loop_
_symmetry_equiv_pos_site_id
_symmetry_equiv_pos_as_xyz
1 x,y,z
2 1/2-x,1/2+y,1/2-z
3 -x,-y,-z
4 1/2+x,1/2-y,1/2+z
_cell_length_a                   8.270(5)
_cell_length_b                   8.534(6)
_cell_length_c                   13.743(9)
_cell_angle_alpha                90
_cell_angle_beta                 90.047(6)
_cell_angle_gamma                90
_cell_volume                     969.928
_exptl_crystal_colour            colorless
_exptl_crystal_description       block
_cell_formula_units_Z            4
loop_
_atom_site_label
_atom_site_type_symbol
_atom_site_fract_x
_atom_site_fract_y
_atom_site_fract_z
C1 C -0.0175(4) 0.1928(4) 0.7521(2)
C2 C -0.0712(4) 0.3558(4) 0.7788(2)
H1 H -0.1865 0.3693 0.7686
H2 H -0.0452 0.3801 0.8460
C3 C 0.0248(6) 0.4547(4) 0.7100(3)
H3 H 0.1124 0.4671 0.7574
C4 C 0.0145(4) 0.6215(4) 0.6948(2)
H4 H 0.0435 0.6748 0.7547
H5 H -0.0964 0.6490 0.6793
C5 C 0.1238(3) 0.6779(3) 0.6138(2)
C6 C 0.1249(4) 0.8361(4) 0.5893(3)
H6 H 0.0581 0.9048 0.6231
C7 C 0.2216(5) 0.8936(4) 0.5166(3)
H7 H 0.2207 1.0000 0.5020
C8 C 0.3194(4) 0.7935(5) 0.4657(3)
H8 H 0.3858 0.8319 0.4165
C9 C 0.3193(4) 0.6357(4) 0.4875(2)
H9 H 0.3847 0.5682 0.4517
C10 C 0.2236(3) 0.5755(3) 0.5617(2)
C11 C 0.2271(4) 0.4009(4) 0.5820(2)
H10 H 0.2020 0.3439 0.5229
H11 H 0.3347 0.3706 0.6030
C12 C 0.1137(7) 0.3616(4) 0.6551(4)
H12 H 0.0269 0.3527 0.6069
O1 O -0.0611(3) 0.0690(3) 0.7842(2)
O2 O 0.0959(3) 0.1990(3) 0.68213(19)
loop_
_geom_bond_atom_site_label_1
_geom_bond_atom_site_label_2
_geom_bond_site_symmetry_1
_geom_bond_site_symmetry_2
C1 C2 1_555 1_555
C2 H1 1_555 1_555
H2 C2 1_555 1_555
C3 C2 1_555 1_555
H3 C3 1_555 1_555
C4 C3 1_555 1_555
H4 C4 1_555 1_555
H5 C4 1_555 1_555
C5 C4 1_555 1_555
C6 C5 1_555 1_555
H6 C6 1_555 1_555
C7 C6 1_555 1_555
H7 C7 1_555 1_555
C8 C7 1_555 1_555
H8 C8 1_555 1_555
C9 C8 1_555 1_555
H9 C9 1_555 1_555
C10 C5 1_555 1_555
C11 C10 1_555 1_555
H10 C11 1_555 1_555
H11 C11 1_555 1_555
C12 C3 1_555 1_555
H12 C12 1_555 1_555
O1 C1 1_555 1_555
O2 C1 1_555 1_555
C9 C10 1_555 1_555
C11 C12 1_555 1_555
C12 O2 1_555 1_555

#END
