
#######################################################################
#
#                 Cambridge Crystallographic Data Centre
#                                CCDC 
#
#######################################################################
#
# If this CIF has been generated from an entry in the Cambridge 
# Structural Database, then it will include bibliographic, chemical, 
# crystal, experimental, refinement or atomic coordinate data resulting 
# from the CCDC's data processing and validation procedures.
#
#######################################################################

data_IZANOO
_chemical_formula_moiety         'C14 H16 O2'
_chemical_name_systematic        
4,4-dimethyl-3a,4,9,9a-tetrahydronaphtho[2,3-b]furan-2(3H)-one
_symmetry_cell_setting           monoclinic
_symmetry_space_group_name_H-M   'P 21/n'
_symmetry_Int_Tables_number      14
_space_group_name_Hall           '-P 2yn'
loop_
_symmetry_equiv_pos_site_id
_symmetry_equiv_pos_as_xyz
1 x,y,z
2 1/2-x,1/2+y,1/2-z
3 -x,-y,-z
4 1/2+x,1/2-y,1/2+z
_cell_length_a                   8.5881(7)
_cell_length_b                   15.4507(11)
_cell_length_c                   8.7345(6)
_cell_angle_alpha                90
_cell_angle_beta                 99.603(8)
_cell_angle_gamma                90
_cell_volume                     1142.76
_exptl_crystal_colour            'light colorless'
_exptl_crystal_description       plate
_cell_formula_units_Z            4
loop_
_atom_site_label
_atom_site_type_symbol
_atom_site_fract_x
_atom_site_fract_y
_atom_site_fract_z
O1 O 0.79517(13) 0.32892(8) 0.66516(13)
O2 O 0.96201(14) 0.33939(9) 0.88869(16)
C1 C 0.39472(19) 0.38122(9) 0.43750(17)
C2 C 0.3144(2) 0.38986(10) 0.28543(19)
H1 H 0.3707 0.3853 0.2036
C3 C 0.1535(2) 0.40497(11) 0.2529(2)
H2 H 0.1029 0.4116 0.1509
C4 C 0.0691(2) 0.41007(11) 0.3740(2)
H3 H -0.0389 0.4208 0.3538
C5 C 0.14547(19) 0.39922(10) 0.5258(2)
H4 H 0.0869 0.4013 0.6062
C6 C 0.30832(18) 0.38520(9) 0.56087(17)
C7 C 0.38416(17) 0.37201(10) 0.73187(17)
C8 C 0.56327(18) 0.37869(10) 0.74222(17)
H5 H 0.5871 0.4396 0.7253
C9 C 0.62375(18) 0.32748(11) 0.61721(18)
H6 H 0.5850 0.2678 0.6163
C10 C 0.57234(19) 0.36829(10) 0.46184(17)
H7 H 0.6004 0.3313 0.3809
H8 H 0.6248 0.4236 0.4571
C11 C 0.67678(19) 0.34939(11) 0.88600(18)
H9 H 0.6871 0.3927 0.9675
H10 H 0.6438 0.2950 0.9258
C12 C 0.82820(19) 0.33939(11) 0.8208(2)
C13 C 0.3309(2) 0.28418(11) 0.7862(2)
H11 H 0.2177 0.2828 0.7739
H12 H 0.3749 0.2758 0.8936
H13 H 0.3666 0.2389 0.7252
C14 C 0.3316(2) 0.44341(11) 0.83483(18)
H14 H 0.3864 0.4367 0.9393
H15 H 0.2199 0.4390 0.8336
H16 H 0.3557 0.4991 0.7958
loop_
_geom_bond_atom_site_label_1
_geom_bond_atom_site_label_2
_geom_bond_site_symmetry_1
_geom_bond_site_symmetry_2
O1 C9 1_555 1_555
O2 C12 1_555 1_555
C1 C2 1_555 1_555
C2 H1 1_555 1_555
C3 C2 1_555 1_555
H2 C3 1_555 1_555
C4 C3 1_555 1_555
H3 C4 1_555 1_555
C5 C4 1_555 1_555
H4 C5 1_555 1_555
C6 C1 1_555 1_555
C7 C6 1_555 1_555
C8 C7 1_555 1_555
H5 C8 1_555 1_555
C9 C8 1_555 1_555
H6 C9 1_555 1_555
C10 C1 1_555 1_555
H7 C10 1_555 1_555
H8 C10 1_555 1_555
C11 C8 1_555 1_555
H9 C11 1_555 1_555
H10 C11 1_555 1_555
C12 O1 1_555 1_555
C13 C7 1_555 1_555
H11 C13 1_555 1_555
H12 C13 1_555 1_555
H13 C13 1_555 1_555
C14 C7 1_555 1_555
H14 C14 1_555 1_555
H15 C14 1_555 1_555
H16 C14 1_555 1_555
C5 C6 1_555 1_555
C9 C10 1_555 1_555
C11 C12 1_555 1_555

#END
