
#######################################################################
#
#                 Cambridge Crystallographic Data Centre
#                                CCDC 
#
#######################################################################
#
# If this CIF has been generated from an entry in the Cambridge 
# Structural Database, then it will include bibliographic, chemical, 
# crystal, experimental, refinement or atomic coordinate data resulting 
# from the CCDC's data processing and validation procedures.
#
#######################################################################

data_IZAPAC
_chemical_formula_moiety         'C16 H22 O4'
_chemical_name_systematic        
2-ethoxy-6,7-dimethoxy-2,3,3a,4,9,9a-hexahydronaphtho[2,3-b]furan
_symmetry_cell_setting           monoclinic
_symmetry_space_group_name_H-M   'P 21/c'
_symmetry_Int_Tables_number      14
_space_group_name_Hall           '-P 2ybc'
loop_
_symmetry_equiv_pos_site_id
_symmetry_equiv_pos_as_xyz
1 x,y,z
2 -x,1/2+y,1/2-z
3 -x,-y,-z
4 x,1/2-y,1/2+z
_cell_length_a                   25.983(2)
_cell_length_b                   5.7576(5)
_cell_length_c                   10.4224(11)
_cell_angle_alpha                90
_cell_angle_beta                 100.350(9)
_cell_angle_gamma                90
_cell_volume                     1533.82
_exptl_crystal_colour            'light colorless'
_exptl_crystal_description       block
_cell_formula_units_Z            4
loop_
_atom_site_label
_atom_site_type_symbol
_atom_site_fract_x
_atom_site_fract_y
_atom_site_fract_z
O1 O 0.90976(7) -0.1357(3) 0.82594(17)
O2 O 0.93664(7) 0.2140(3) 0.70154(17)
O3 O 0.67868(10) 0.1908(5) 0.2736(3)
C1 C 0.78527(9) -0.0429(4) 0.5964(2)
C2 C 0.82178(10) -0.1379(4) 0.6981(2)
H1 H 0.8120 -0.2636 0.7444
C3 C 0.87154(10) -0.0508(4) 0.7312(2)
C4 C 0.88601(9) 0.1417(4) 0.6624(2)
C5 C 0.85003(9) 0.2360(4) 0.5637(2)
H2 H 0.8595 0.3641 0.5189
C6 C 0.79966(9) 0.1461(4) 0.5282(2)
C7 C 0.76434(10) 0.2459(5) 0.4098(3)
H3 H 0.7638 0.4139 0.4164
H4 H 0.7779 0.2054 0.3318
C8 C 0.71128(13) 0.1560(6) 0.3997(4)
H5 H 0.6950 0.2439 0.4624
C9 C 0.70614(14) -0.0837(6) 0.4300(4)
H6 H 0.7259 -0.1688 0.3733
C10 C 0.73068(11) -0.1468(5) 0.5659(3)
H7 H 0.7327 -0.3144 0.5748
H8 H 0.7096 -0.0876 0.6266
C11 C 0.64877(14) -0.1403(6) 0.3795(4)
H9 H 0.6274 -0.1099 0.4448
H10 H 0.6442 -0.3007 0.3511
C12 C 0.63609(14) 0.0308(8) 0.2627(4)
H11 H 0.6325 -0.0545 0.1802
C13 C 0.95440(11) 0.3977(5) 0.6283(3)
H12 H 0.9501 0.3533 0.5382
H13 H 0.9907 0.4279 0.6613
H14 H 0.9343 0.5353 0.6361
C14 C 0.89769(12) -0.3346(4) 0.8963(3)
H15 H 0.8876 -0.4605 0.8367
H16 H 0.8694 -0.2985 0.9409
H17 H 0.9279 -0.3788 0.9588
O4 O 0.59274(12) 0.1389(7) 0.2697(4)
C15 C 0.5737(2) 0.2800(12) 0.1528(8)
H18 H 0.6003 0.3910 0.1392
H19 H 0.5660 0.1810 0.0765
C16 C 0.5279(4) 0.399(2) 0.1722(11)
H20 H 0.5196 0.5184 0.1077
H21 H 0.5336 0.4669 0.2577
H22 H 0.4993 0.2908 0.1644
H23? H 0.6130 0.1321 0.3024
O5? O 0.6046(5) -0.019(3) 0.1691(10)
C17? C 0.5900(12) 0.132(4) 0.0764(19)
H24? H 0.6036 0.0905 -0.0013
H25? H 0.6029 0.2859 0.1042
C18? C 0.5278(11) 0.129(5) 0.048(3)
H26? H 0.5157 -0.0245 0.0226
H27? H 0.5151 0.2360 -0.0215
H28? H 0.5150 0.1744 0.1250
loop_
_geom_bond_atom_site_label_1
_geom_bond_atom_site_label_2
_geom_bond_site_symmetry_1
_geom_bond_site_symmetry_2
O1 C3 1_555 1_555
O2 C4 1_555 1_555
O3 C8 1_555 1_555
C1 C2 1_555 1_555
C2 H1 1_555 1_555
C3 C2 1_555 1_555
C4 C3 1_555 1_555
C5 C4 1_555 1_555
H2 C5 1_555 1_555
C6 C1 1_555 1_555
C7 C6 1_555 1_555
H3 C7 1_555 1_555
H4 C7 1_555 1_555
C8 C7 1_555 1_555
H5 C8 1_555 1_555
C9 C8 1_555 1_555
H6 C9 1_555 1_555
C10 C1 1_555 1_555
H7 C10 1_555 1_555
H8 C10 1_555 1_555
C11 C9 1_555 1_555
H9 C11 1_555 1_555
H10 C11 1_555 1_555
C12 O3 1_555 1_555
H11 C12 1_555 1_555
C13 O2 1_555 1_555
H12 C13 1_555 1_555
H13 C13 1_555 1_555
H14 C13 1_555 1_555
C14 O1 1_555 1_555
H15 C14 1_555 1_555
H16 C14 1_555 1_555
H17 C14 1_555 1_555
O4 C12 1_555 1_555
C15 O4 1_555 1_555
H18 C15 1_555 1_555
H19 C15 1_555 1_555
C16 C15 1_555 1_555
H20 C16 1_555 1_555
H21 C16 1_555 1_555
H22 C16 1_555 1_555
C5 C6 1_555 1_555
C9 C10 1_555 1_555
C11 C12 1_555 1_555

#END
