
#######################################################################
#
#                 Cambridge Crystallographic Data Centre
#                                CCDC 
#
#######################################################################
#
# If this CIF has been generated from an entry in the Cambridge 
# Structural Database, then it will include bibliographic, chemical, 
# crystal, experimental, refinement or atomic coordinate data resulting 
# from the CCDC's data processing and validation procedures.
#
#######################################################################

data_IZAPEG
_chemical_formula_moiety         'C14 H14 O2'
_chemical_name_systematic        
3a',9a'-dihydro-4'H-spiro[cyclopropane-1,9'-naphtho[2,3-b]furan]-2'(3'H)-one
_symmetry_cell_setting           orthorhombic
_symmetry_space_group_name_H-M   'P b c a'
_symmetry_Int_Tables_number      61
_space_group_name_Hall           '-P 2ac 2ab'
loop_
_symmetry_equiv_pos_site_id
_symmetry_equiv_pos_as_xyz
1 x,y,z
2 1/2-x,-y,1/2+z
3 1/2+x,1/2-y,-z
4 -x,1/2+y,1/2-z
5 -x,-y,-z
6 1/2+x,y,1/2-z
7 1/2-x,1/2+y,z
8 x,1/2-y,1/2+z
_cell_length_a                   14.9062(6)
_cell_length_b                   8.6079(5)
_cell_length_c                   17.2918(10)
_cell_angle_alpha                90
_cell_angle_beta                 90
_cell_angle_gamma                90
_cell_volume                     2218.73
_exptl_crystal_colour            'light colorless'
_exptl_crystal_description       block
_cell_formula_units_Z            8
loop_
_atom_site_label
_atom_site_type_symbol
_atom_site_fract_x
_atom_site_fract_y
_atom_site_fract_z
O1 O 0.93734(19) 0.0483(4) 0.71667(16)
O2 O 1.0559(2) 0.0427(4) 0.7945(2)
C1 C 0.9059(3) 0.2140(5) 0.4901(2)
C2 C 0.8999(3) 0.2672(5) 0.4142(3)
H1 H 0.9418 0.3390 0.3966
C3 C 0.8341(4) 0.2171(6) 0.3645(3)
H2 H 0.8312 0.2552 0.3142
C4 C 0.7731(4) 0.1106(6) 0.3899(3)
H3 H 0.7287 0.0744 0.3566
C5 C 0.7771(3) 0.0568(5) 0.4646(2)
H4 H 0.7347 -0.0151 0.4812
C6 C 0.8428(2) 0.1064(5) 0.5165(2)
C7 C 0.8468(2) 0.0405(5) 0.5970(2)
C8 C 0.9121(3) 0.1298(5) 0.6457(2)
H5 H 0.8854 0.2302 0.6594
C9 C 0.9979(2) 0.1573(5) 0.6054(3)
H6 H 1.0164 0.0583 0.5824
C10 C 0.9837(3) 0.2691(5) 0.5406(3)
H7 H 1.0378 0.2765 0.5097
H8 H 0.9704 0.3713 0.5613
C11 C 1.0602(2) 0.1889(5) 0.6728(3)
H9 H 1.1216 0.1611 0.6603
H10 H 1.0582 0.2974 0.6879
C12 C 1.0235(3) 0.0869(5) 0.7350(3)
C13 C 0.7630(3) -0.0176(6) 0.6364(3)
H11 H 0.7577 -0.0012 0.6917
H12 H 0.7070 -0.0112 0.6080
C14 C 0.8312(3) -0.1303(5) 0.6091(3)
H13 H 0.8167 -0.1928 0.5641
H14 H 0.8673 -0.1827 0.6478
loop_
_geom_bond_atom_site_label_1
_geom_bond_atom_site_label_2
_geom_bond_site_symmetry_1
_geom_bond_site_symmetry_2
O1 C8 1_555 1_555
O2 C12 1_555 1_555
C1 C2 1_555 1_555
C2 H1 1_555 1_555
C3 C2 1_555 1_555
H2 C3 1_555 1_555
C4 C3 1_555 1_555
H3 C4 1_555 1_555
C5 C4 1_555 1_555
H4 C5 1_555 1_555
C6 C1 1_555 1_555
C7 C6 1_555 1_555
C8 C7 1_555 1_555
H5 C8 1_555 1_555
C9 C8 1_555 1_555
H6 C9 1_555 1_555
C10 C1 1_555 1_555
H7 C10 1_555 1_555
H8 C10 1_555 1_555
C11 C9 1_555 1_555
H9 C11 1_555 1_555
H10 C11 1_555 1_555
C12 O1 1_555 1_555
C13 C7 1_555 1_555
H11 C13 1_555 1_555
H12 C13 1_555 1_555
C14 C7 1_555 1_555
H13 C14 1_555 1_555
H14 C14 1_555 1_555
C5 C6 1_555 1_555
C9 C10 1_555 1_555
C11 C12 1_555 1_555
C13 C14 1_555 1_555

#END
