
#######################################################################
#
#                 Cambridge Crystallographic Data Centre
#                                CCDC 
#
#######################################################################
#
# If this CIF has been generated from an entry in the Cambridge 
# Structural Database, then it will include bibliographic, chemical, 
# crystal, experimental, refinement or atomic coordinate data resulting 
# from the CCDC's data processing and validation procedures.
#
#######################################################################

data_IZAQEF
_chemical_name_common            
9-(2-Hydroxy-4,4-dimethyl-6-oxocyclohex-1-enyl)-3,3,7-trimethyl-2,3,4,9-hexahydro-1H-xanthen-1-one
_chemical_formula_moiety         'C24 H28 O4'
_chemical_name_systematic        
9-(2-Hydroxy-4,4-dimethyl-6-oxocyclohex-1-enyl)-3,3,7-trimethyl-1,2,3,4-hexahydro-9H-xanthen-1-one
_symmetry_cell_setting           orthorhombic
_symmetry_space_group_name_H-M   'P b c a'
_symmetry_Int_Tables_number      61
_space_group_name_Hall           '-P 2ac 2ab'
loop_
_symmetry_equiv_pos_site_id
_symmetry_equiv_pos_as_xyz
1 x,y,z
2 1/2+x,1/2-y,-z
3 -x,1/2+y,1/2-z
4 1/2-x,-y,1/2+z
5 -x,-y,-z
6 1/2-x,1/2+y,z
7 x,1/2-y,1/2+z
8 1/2+x,y,1/2-z
_cell_length_a                   15.559(3)
_cell_length_b                   11.1768(19)
_cell_length_c                   23.057(4)
_cell_angle_alpha                90
_cell_angle_beta                 90
_cell_angle_gamma                90
_cell_volume                     4009.61
_exptl_crystal_colour            colorless
_exptl_crystal_description       'plate or platelet'
_chemical_melting_point          '491-492 K'
_cell_formula_units_Z            8
_exptl_crystal_recrystallization_method ethanol
loop_
_atom_site_label
_atom_site_type_symbol
_atom_site_fract_x
_atom_site_fract_y
_atom_site_fract_z
O1 O 0.51809(11) 0.72013(15) 0.46441(7)
O2 O 0.33493(13) 1.02752(16) 0.52857(8)
O3 O 0.40994(13) 0.94837(19) 0.67231(8)
O4 O 0.29587(12) 0.68028(16) 0.53686(7)
C1 C 0.53210(15) 0.6742(2) 0.52013(10)
C2 C 0.49515(14) 0.7237(2) 0.56866(11)
C3 C 0.43668(14) 0.8327(2) 0.56512(10)
H1 H 0.4691 0.9007 0.5829
C4 C 0.42109(14) 0.8661(2) 0.50234(10)
C5 C 0.46129(15) 0.8114(2) 0.45790(10)
C6 C 0.58321(16) 0.5722(2) 0.52222(12)
H2 H 0.6082 0.5405 0.4879
C7 C 0.59674(16) 0.5185(2) 0.57502(12)
H3 H 0.6307 0.4480 0.5769
C8 C 0.56187(16) 0.5648(2) 0.62598(11)
C9 C 0.51201(16) 0.6676(2) 0.62168(11)
H4 H 0.4885 0.7011 0.6561
C10 C 0.36586(15) 0.9666(2) 0.48906(11)
C11 C 0.34807(16) 0.9995(2) 0.42653(11)
H5 H 0.3850 1.0682 0.4160
H6 H 0.2876 1.0262 0.4234
C12 C 0.36303(17) 0.8990(2) 0.38243(11)
C13 C 0.45069(16) 0.8423(2) 0.39541(10)
H7 H 0.4573 0.7689 0.3718
H8 H 0.4967 0.8988 0.3839
C14 C 0.35594(14) 0.8162(2) 0.60140(10)
C15 C 0.35357(16) 0.8775(2) 0.65712(11)
C16 C 0.28197(18) 0.8459(3) 0.69887(12)
H9 H 0.2731 0.9142 0.7256
H10 H 0.3004 0.7766 0.7225
C17 C 0.19696(16) 0.8159(2) 0.67026(11)
C18 C 0.21112(16) 0.7229(2) 0.62250(11)
H11 H 0.2145 0.6427 0.6406
H12 H 0.1606 0.7234 0.5964
C19 C 0.29045(15) 0.7423(2) 0.58674(10)
C20 C 0.5775(2) 0.5052(3) 0.68354(13)
H13 H 0.5483 0.5504 0.7142
H14 H 0.6394 0.5031 0.6914
H15 H 0.5549 0.4234 0.6825
C21 C 0.29149(17) 0.8051(2) 0.38696(12)
H16 H 0.2897 0.7732 0.4265
H17 H 0.3030 0.7398 0.3596
H18 H 0.2361 0.8422 0.3776
C22 C 0.3647(2) 0.9509(3) 0.32117(13)
H19 H 0.3095 0.9896 0.3129
H20 H 0.3746 0.8865 0.2931
H21 H 0.4110 1.0100 0.3182
C23 C 0.1325(2) 0.7688(3) 0.71442(13)
H22 H 0.1561 0.6975 0.7334
H23 H 0.0788 0.7479 0.6947
H24 H 0.1212 0.8306 0.7436
C24 C 0.1592(2) 0.9305(2) 0.64239(14)
H25 H 0.1515 0.9918 0.6723
H26 H 0.1035 0.9119 0.6247
H27 H 0.1986 0.9602 0.6126
H28 H 0.249(2) 0.637(3) 0.5316(13)
loop_
_geom_bond_atom_site_label_1
_geom_bond_atom_site_label_2
_geom_bond_site_symmetry_1
_geom_bond_site_symmetry_2
O1 C1 1_555 1_555
O2 C10 1_555 1_555
O3 C15 1_555 1_555
O4 C19 1_555 1_555
C1 C2 1_555 1_555
C2 C3 1_555 1_555
C3 H1 1_555 1_555
C4 C3 1_555 1_555
C5 O1 1_555 1_555
C6 C1 1_555 1_555
H2 C6 1_555 1_555
C7 C6 1_555 1_555
H3 C7 1_555 1_555
C8 C7 1_555 1_555
C9 C2 1_555 1_555
H4 C9 1_555 1_555
C10 C4 1_555 1_555
C11 C10 1_555 1_555
H5 C11 1_555 1_555
H6 C11 1_555 1_555
C12 C11 1_555 1_555
C13 C5 1_555 1_555
H7 C13 1_555 1_555
H8 C13 1_555 1_555
C14 C3 1_555 1_555
C15 C14 1_555 1_555
C16 C15 1_555 1_555
H9 C16 1_555 1_555
H10 C16 1_555 1_555
C17 C16 1_555 1_555
C18 C17 1_555 1_555
H11 C18 1_555 1_555
H12 C18 1_555 1_555
C19 C14 1_555 1_555
C20 C8 1_555 1_555
H13 C20 1_555 1_555
H14 C20 1_555 1_555
H15 C20 1_555 1_555
C21 C12 1_555 1_555
H16 C21 1_555 1_555
H17 C21 1_555 1_555
H18 C21 1_555 1_555
C22 C12 1_555 1_555
H19 C22 1_555 1_555
H20 C22 1_555 1_555
H21 C22 1_555 1_555
C23 C17 1_555 1_555
H22 C23 1_555 1_555
H23 C23 1_555 1_555
H24 C23 1_555 1_555
C24 C17 1_555 1_555
H25 C24 1_555 1_555
H26 C24 1_555 1_555
H27 C24 1_555 1_555
H28 O4 1_555 1_555
C4 C5 1_555 1_555
C8 C9 1_555 1_555
C12 C13 1_555 1_555
C18 C19 1_555 1_555

#END
