
#######################################################################
#
#                 Cambridge Crystallographic Data Centre
#                                CCDC 
#
#######################################################################
#
# If this CIF has been generated from an entry in the Cambridge 
# Structural Database, then it will include bibliographic, chemical, 
# crystal, experimental, refinement or atomic coordinate data resulting 
# from the CCDC's data processing and validation procedures.
#
#######################################################################

data_IZAROS
_chemical_formula_moiety         'C23 H21 N3 O3'
_chemical_name_systematic        
'ethyl 2-(1H-indol-1-yl)-4-(4-methoxyphenyl)-6-methylpyrimidine-5-carboxylate'
_symmetry_cell_setting           monoclinic
_symmetry_space_group_name_H-M   'P 21/n'
_symmetry_Int_Tables_number      14
_space_group_name_Hall           '-P 2yn'
loop_
_symmetry_equiv_pos_site_id
_symmetry_equiv_pos_as_xyz
1 x,y,z
2 1/2-x,1/2+y,1/2-z
3 -x,-y,-z
4 1/2+x,1/2-y,1/2+z
_cell_length_a                   11.8337(6)
_cell_length_b                   7.1479(5)
_cell_length_c                   23.6321(16)
_cell_angle_alpha                90
_cell_angle_beta                 90.174(6)
_cell_angle_gamma                90
_cell_volume                     1998.94
_exptl_crystal_colour            colorless
_exptl_crystal_description       block
_cell_formula_units_Z            4
loop_
_atom_site_label
_atom_site_type_symbol
_atom_site_fract_x
_atom_site_fract_y
_atom_site_fract_z
O1 O 0.75839(13) 0.9038(2) 0.18696(7)
O2 O 0.71272(11) 0.6097(2) 0.16612(6)
O3 O 1.17122(15) 0.7346(2) 0.34193(7)
N1 N 1.08194(12) 0.7553(2) -0.01551(6)
N2 N 0.89803(12) 0.7407(2) 0.01517(7)
N3 N 1.05014(12) 0.7500(2) 0.08144(6)
C1 C 1.04654(17) 0.7562(3) -0.07191(8)
H1 H 0.9716 0.7540 -0.0838
C2 C 1.13591(17) 0.7606(3) -0.10637(9)
H2 H 1.1337 0.7619 -0.1457
C3 C 1.23537(16) 0.7628(3) -0.07196(8)
C4 C 1.34986(18) 0.7675(3) -0.08466(10)
H3 H 1.3737 0.7699 -0.1221
C5 C 1.42723(18) 0.7686(3) -0.04153(11)
H4 H 1.5041 0.7711 -0.0496
C6 C 1.39104(18) 0.7661(3) 0.01432(11)
H5 H 1.4448 0.7670 0.0431
C7 C 1.27813(16) 0.7622(3) 0.02860(9)
H6 H 1.2552 0.7609 0.0662
C8 C 1.20031(15) 0.7603(2) -0.01523(8)
C9 C 1.00693(14) 0.7490(2) 0.02966(8)
C10 C 0.82377(15) 0.7400(2) 0.05751(8)
C11 C 0.85922(15) 0.7454(2) 0.11387(8)
C12 C 0.97543(15) 0.7476(2) 0.12432(8)
C13 C 0.70230(16) 0.7387(3) 0.04019(9)
H7 H 0.6966 0.7597 0.0002
H8 H 0.6627 0.8359 0.0599
H9 H 0.6695 0.6197 0.0493
C14 C 0.77313(15) 0.7644(3) 0.15983(9)
C15 C 0.61675(18) 0.6169(4) 0.20465(10)
H10 H 0.6288 0.7144 0.2326
H11 H 0.6097 0.4985 0.2244
C16 C 0.51091(19) 0.6558(4) 0.17214(12)
H12 H 0.4997 0.5597 0.1443
H13 H 0.5172 0.7749 0.1536
H14 H 0.4478 0.6579 0.1976
C17 C 1.02648(15) 0.7456(2) 0.18167(8)
C18 C 0.98085(15) 0.6429(3) 0.22596(8)
H15 H 0.9151 0.5742 0.2201
C19 C 1.03186(17) 0.6416(3) 0.27843(8)
H16 H 1.0005 0.5715 0.3076
C20 C 1.12932(17) 0.7436(3) 0.28808(9)
C21 C 1.17700(16) 0.8445(3) 0.24452(9)
H17 H 1.2430 0.9125 0.2505
C22 C 1.12584(15) 0.8437(3) 0.19185(8)
H18 H 1.1588 0.9106 0.1625
C23 C 1.2649(2) 0.8501(5) 0.35590(12)
H19 H 1.2460 0.9785 0.3486
H20 H 1.3287 0.8150 0.3333
H21 H 1.2832 0.8349 0.3952
loop_
_geom_bond_atom_site_label_1
_geom_bond_atom_site_label_2
_geom_bond_site_symmetry_1
_geom_bond_site_symmetry_2
O1 C14 1_555 1_555
O2 C14 1_555 1_555
O3 C20 1_555 1_555
N1 C1 1_555 1_555
N2 C9 1_555 1_555
N3 C9 1_555 1_555
C1 H1 1_555 1_555
C2 C1 1_555 1_555
H2 C2 1_555 1_555
C3 C2 1_555 1_555
C4 C3 1_555 1_555
H3 C4 1_555 1_555
C5 C4 1_555 1_555
H4 C5 1_555 1_555
C6 C5 1_555 1_555
H5 C6 1_555 1_555
C7 C6 1_555 1_555
H6 C7 1_555 1_555
C8 N1 1_555 1_555
C9 N1 1_555 1_555
C10 N2 1_555 1_555
C11 C10 1_555 1_555
C12 N3 1_555 1_555
C13 C10 1_555 1_555
H7 C13 1_555 1_555
H8 C13 1_555 1_555
H9 C13 1_555 1_555
C14 C11 1_555 1_555
C15 O2 1_555 1_555
H10 C15 1_555 1_555
H11 C15 1_555 1_555
C16 C15 1_555 1_555
H12 C16 1_555 1_555
H13 C16 1_555 1_555
H14 C16 1_555 1_555
C17 C12 1_555 1_555
C18 C17 1_555 1_555
H15 C18 1_555 1_555
C19 C18 1_555 1_555
H16 C19 1_555 1_555
C20 C19 1_555 1_555
C21 C20 1_555 1_555
H17 C21 1_555 1_555
C22 C17 1_555 1_555
H18 C22 1_555 1_555
C23 O3 1_555 1_555
H19 C23 1_555 1_555
H20 C23 1_555 1_555
H21 C23 1_555 1_555
C3 C8 1_555 1_555
C7 C8 1_555 1_555
C11 C12 1_555 1_555
C21 C22 1_555 1_555

#END
