
#######################################################################
#
#                 Cambridge Crystallographic Data Centre
#                                CCDC 
#
#######################################################################
#
# If this CIF has been generated from an entry in the Cambridge 
# Structural Database, then it will include bibliographic, chemical, 
# crystal, experimental, refinement or atomic coordinate data resulting 
# from the CCDC's data processing and validation procedures.
#
#######################################################################

data_IZAVEM
_chemical_formula_moiety         'C35 H27 N1 O1'
_chemical_name_systematic        
1-(4-methylphenyl)-3,3,4,5-tetraphenyl-1,3-dihydro-2H-pyrrol-2-one
_symmetry_cell_setting           triclinic
_symmetry_space_group_name_H-M   'P -1'
_symmetry_Int_Tables_number      2
_space_group_name_Hall           '-P 1'
loop_
_symmetry_equiv_pos_site_id
_symmetry_equiv_pos_as_xyz
1 x,y,z
2 -x,-y,-z
_cell_length_a                   10.9744(18)
_cell_length_b                   11.0820(18)
_cell_length_c                   12.581(2)
_cell_angle_alpha                106.191(2)
_cell_angle_beta                 94.071(2)
_cell_angle_gamma                112.876(2)
_cell_volume                     1325.71
_exptl_crystal_colour            colorless
_exptl_crystal_description       block
_cell_formula_units_Z            2
loop_
_atom_site_label
_atom_site_type_symbol
_atom_site_fract_x
_atom_site_fract_y
_atom_site_fract_z
C1 C -0.0070(2) -0.5850(2) -0.19357(17)
H1 H -0.0559 -0.6439 -0.1533
H2 H 0.0510 -0.6212 -0.2306
H3 H -0.0696 -0.5819 -0.2489
C2 C 0.07671(16) -0.44065(16) -0.11179(13)
C3 C 0.02953(17) -0.33883(18) -0.09350(16)
H4 H -0.0553 -0.3603 -0.1329
C4 C 0.10510(16) -0.20635(17) -0.01836(15)
H5 H 0.0705 -0.1403 -0.0068
C5 C 0.23188(15) -0.17197(15) 0.03959(12)
C6 C 0.28149(16) -0.27093(16) 0.02253(14)
H6 H 0.3672 -0.2485 0.0608
C7 C 0.20346(17) -0.40410(17) -0.05178(15)
H7 H 0.2372 -0.4706 -0.0615
C8 C 0.34026(17) -0.01329(16) 0.23362(13)
C9 C 0.39178(16) 0.14457(15) 0.29679(12)
C10 C 0.36696(15) 0.19672(15) 0.20066(12)
C11 C 0.32073(14) 0.09057(15) 0.10275(12)
C12 C 0.54094(16) 0.19707(15) 0.34899(12)
C13 C 0.57545(19) 0.15956(19) 0.43951(13)
H8 H 0.5075 0.1061 0.4692
C14 C 0.7086(2) 0.2003(2) 0.48594(15)
H9 H 0.7299 0.1740 0.5462
C15 C 0.8096(2) 0.2793(2) 0.44341(19)
H10 H 0.8994 0.3078 0.4754
C16 C 0.7780(2) 0.3167(2) 0.35297(19)
H11 H 0.8466 0.3695 0.3235
C17 C 0.64391(18) 0.2756(2) 0.30586(16)
H12 H 0.6232 0.3011 0.2449
C18 C 0.30733(16) 0.17091(17) 0.38447(13)
C19 C 0.1695(2) 0.0923(2) 0.36114(18)
H13 H 0.1294 0.0152 0.2958
C20 C 0.0906(2) 0.1268(3) 0.4336(2)
H14 H -0.0023 0.0731 0.4161
C21 C 0.1469(3) 0.2382(3) 0.53032(19)
H15 H 0.0931 0.2604 0.5790
C22 C 0.2836(2) 0.3176(3) 0.55535(16)
H16 H 0.3228 0.3942 0.6212
C23 C 0.3634(2) 0.2841(2) 0.48311(14)
H17 H 0.4561 0.3384 0.5010
C24 C 0.38955(16) 0.34131(15) 0.21281(12)
C25 C 0.47299(18) 0.41333(17) 0.15162(14)
H18 H 0.5182 0.3717 0.1055
C26 C 0.4897(2) 0.5459(2) 0.15835(18)
H19 H 0.5453 0.5921 0.1165
C27 C 0.4245(3) 0.6097(2) 0.22671(19)
H20 H 0.4370 0.6993 0.2322
C28 C 0.3410(2) 0.5401(2) 0.28672(17)
H21 H 0.2963 0.5827 0.3325
C29 C 0.32244(19) 0.40663(19) 0.27992(14)
H22 H 0.2646 0.3604 0.3205
C30 C 0.28948(14) 0.09386(15) -0.01204(12)
C31 C 0.20616(17) 0.15520(18) -0.03461(15)
H23 H 0.1674 0.1911 0.0221
C32 C 0.1809(2) 0.1630(2) -0.14067(18)
H24 H 0.1242 0.2031 -0.1556
C33 C 0.2395(2) 0.1112(2) -0.22530(16)
H25 H 0.2239 0.1185 -0.2964
C34 C 0.3203(2) 0.0495(2) -0.20399(14)
H26 H 0.3592 0.0141 -0.2609
C35 C 0.34453(17) 0.03924(17) -0.09866(13)
H27 H 0.3982 -0.0046 -0.0854
N1 N 0.30962(13) -0.03510(12) 0.11960(10)
O1 O 0.32911(15) -0.10223(13) 0.27500(10)
loop_
_geom_bond_atom_site_label_1
_geom_bond_atom_site_label_2
_geom_bond_site_symmetry_1
_geom_bond_site_symmetry_2
C1 H1 1_555 1_555
H2 C1 1_555 1_555
H3 C1 1_555 1_555
C2 C1 1_555 1_555
C3 C2 1_555 1_555
H4 C3 1_555 1_555
C4 C3 1_555 1_555
H5 C4 1_555 1_555
C5 C4 1_555 1_555
C6 C5 1_555 1_555
H6 C6 1_555 1_555
C7 C2 1_555 1_555
H7 C7 1_555 1_555
C8 C9 1_555 1_555
C9 C10 1_555 1_555
C10 C11 1_555 1_555
C11 C30 1_555 1_555
C12 C9 1_555 1_555
C13 C12 1_555 1_555
H8 C13 1_555 1_555
C14 C13 1_555 1_555
H9 C14 1_555 1_555
C15 C14 1_555 1_555
H10 C15 1_555 1_555
C16 C15 1_555 1_555
H11 C16 1_555 1_555
C17 C12 1_555 1_555
H12 C17 1_555 1_555
C18 C9 1_555 1_555
C19 C18 1_555 1_555
H13 C19 1_555 1_555
C20 C19 1_555 1_555
H14 C20 1_555 1_555
C21 C20 1_555 1_555
H15 C21 1_555 1_555
C22 C21 1_555 1_555
H16 C22 1_555 1_555
C23 C18 1_555 1_555
H17 C23 1_555 1_555
C24 C10 1_555 1_555
C25 C24 1_555 1_555
H18 C25 1_555 1_555
C26 C25 1_555 1_555
H19 C26 1_555 1_555
C27 C26 1_555 1_555
H20 C27 1_555 1_555
C28 C27 1_555 1_555
H21 C28 1_555 1_555
C29 C24 1_555 1_555
H22 C29 1_555 1_555
C30 C31 1_555 1_555
C31 H23 1_555 1_555
C32 C31 1_555 1_555
H24 C32 1_555 1_555
C33 C32 1_555 1_555
H25 C33 1_555 1_555
C34 C33 1_555 1_555
H26 C34 1_555 1_555
C35 C30 1_555 1_555
H27 C35 1_555 1_555
N1 C5 1_555 1_555
O1 C8 1_555 1_555
C6 C7 1_555 1_555
C8 N1 1_555 1_555
C11 N1 1_555 1_555
C16 C17 1_555 1_555
C22 C23 1_555 1_555
C28 C29 1_555 1_555
C34 C35 1_555 1_555

#END
