
#######################################################################
#
#                 Cambridge Crystallographic Data Centre
#                                CCDC 
#
#######################################################################
#
# If this CIF has been generated from an entry in the Cambridge 
# Structural Database, then it will include bibliographic, chemical, 
# crystal, experimental, refinement or atomic coordinate data resulting 
# from the CCDC's data processing and validation procedures.
#
#######################################################################

data_IZAVIQ
_chemical_formula_moiety         'C28 H20 O2'
_chemical_name_systematic        1,2,3,4-tetraphenylbut-2-ene-1,4-dione
_symmetry_cell_setting           triclinic
_symmetry_space_group_name_H-M   'P -1'
_symmetry_Int_Tables_number      2
_space_group_name_Hall           '-P 1'
loop_
_symmetry_equiv_pos_site_id
_symmetry_equiv_pos_as_xyz
1 x,y,z
2 -x,-y,-z
_cell_length_a                   8.442(2)
_cell_length_b                   8.555(2)
_cell_length_c                   8.879(2)
_cell_angle_alpha                115.940(3)
_cell_angle_beta                 96.787(4)
_cell_angle_gamma                111.417(4)
_cell_volume                     506.387
_exptl_crystal_colour            colorless
_exptl_crystal_description       cube
_cell_formula_units_Z            1
loop_
_atom_site_label
_atom_site_type_symbol
_atom_site_fract_x
_atom_site_fract_y
_atom_site_fract_z
C1 C 0.19747(16) 0.11477(18) 0.36703(17)
C2 C 0.04186(19) -0.0494(2) 0.2313(2)
H1 H -0.0308 -0.0361 0.1551
C3 C -0.0037(2) -0.2319(2) 0.2107(3)
H2 H -0.1064 -0.3418 0.1194
C4 C 0.1013(2) -0.2523(2) 0.3237(3)
H3 H 0.0686 -0.3755 0.3093
C5 C 0.2548(2) -0.0914(2) 0.4584(2)
H4 H 0.3256 -0.1056 0.5350
C6 C 0.30343(19) 0.0922(2) 0.47912(19)
H5 H 0.4080 0.2007 0.5690
C7 C 0.24368(16) 0.31016(19) 0.38938(17)
C8 C 0.42534(16) 0.48188(18) 0.52317(16)
C9 C 0.41845(17) 0.59665(18) 0.70334(17)
C10 C 0.28505(18) 0.6564(2) 0.72373(19)
H6 H 0.2024 0.6275 0.6243
C11 C 0.2747(2) 0.7580(2) 0.8903(2)
H7 H 0.1863 0.7986 0.9025
C12 C 0.3946(2) 0.7992(2) 1.0378(2)
H8 H 0.3870 0.8674 1.1496
C13 C 0.5256(2) 0.7398(3) 1.0207(2)
H9 H 0.6064 0.7680 1.1210
C14 C 0.5379(2) 0.6379(2) 0.85428(19)
H10 H 0.6262 0.5970 0.8435
O1 O 0.13865(14) 0.33713(16) 0.31049(16)
C1A C 0.80253(16) 0.88523(18) 0.63297(17)
C2A C 0.95814(19) 1.0494(2) 0.7687(2)
H1A H 1.0308 1.0361 0.8449
C3A C 1.0037(2) 1.2319(2) 0.7893(3)
H2A H 1.1064 1.3418 0.8806
C4A C 0.8987(2) 1.2523(2) 0.6763(3)
H3A H 0.9314 1.3755 0.6907
C5A C 0.7452(2) 1.0914(2) 0.5416(2)
H4A H 0.6744 1.1056 0.4650
C6A C 0.69657(19) 0.9078(2) 0.52088(19)
H5A H 0.5920 0.7993 0.4310
C7A C 0.75632(16) 0.68984(19) 0.61062(17)
C8A C 0.57466(16) 0.51812(18) 0.47683(16)
C9A C 0.58155(17) 0.40335(18) 0.29666(17)
C10A C 0.71495(18) 0.3436(2) 0.27627(19)
H6A H 0.7976 0.3725 0.3757
C11A C 0.7253(2) 0.2420(2) 0.1097(2)
H7A H 0.8137 0.2014 0.0975
C12A C 0.6054(2) 0.2008(2) -0.0378(2)
H8A H 0.6130 0.1326 -0.1496
C13A C 0.4744(2) 0.2602(3) -0.0207(2)
H9A H 0.3936 0.2320 -0.1210
C14A C 0.4621(2) 0.3621(2) 0.14572(19)
H10A H 0.3738 0.4030 0.1565
O1A O 0.86135(14) 0.66287(16) 0.68951(16)
loop_
_geom_bond_atom_site_label_1
_geom_bond_atom_site_label_2
_geom_bond_site_symmetry_1
_geom_bond_site_symmetry_2
C1 C2 1_555 1_555
C2 H1 1_555 1_555
C3 C2 1_555 1_555
H2 C3 1_555 1_555
C4 C3 1_555 1_555
H3 C4 1_555 1_555
C5 C4 1_555 1_555
H4 C5 1_555 1_555
C6 C1 1_555 1_555
H5 C6 1_555 1_555
C7 C1 1_555 1_555
C8 C7 1_555 1_555
C9 C8 1_555 1_555
C10 C9 1_555 1_555
H6 C10 1_555 1_555
C11 C10 1_555 1_555
H7 C11 1_555 1_555
C12 C11 1_555 1_555
H8 C12 1_555 1_555
C13 C12 1_555 1_555
H9 C13 1_555 1_555
C14 C9 1_555 1_555
H10 C14 1_555 1_555
O1 C7 1_555 1_555
C1A C2A 1_555 1_555
C2A H1A 1_555 1_555
C3A C2A 1_555 1_555
H2A C3A 1_555 1_555
C4A C3A 1_555 1_555
H3A C4A 1_555 1_555
C5A C4A 1_555 1_555
H4A C5A 1_555 1_555
C6A C1A 1_555 1_555
H5A C6A 1_555 1_555
C7A C1A 1_555 1_555
C8A C8 1_555 1_555
C9A C8A 1_555 1_555
C10A C9A 1_555 1_555
H6A C10A 1_555 1_555
C11A C10A 1_555 1_555
H7A C11A 1_555 1_555
C12A C11A 1_555 1_555
H8A C12A 1_555 1_555
C13A C12A 1_555 1_555
H9A C13A 1_555 1_555
C14A C9A 1_555 1_555
H10A C14A 1_555 1_555
O1A C7A 1_555 1_555
C5 C6 1_555 1_555
C13 C14 1_555 1_555
C5A C6A 1_555 1_555
C7A C8A 1_555 1_555
C13A C14A 1_555 1_555

#END
