
#######################################################################
#
#                 Cambridge Crystallographic Data Centre
#                                CCDC 
#
#######################################################################
#
# If this CIF has been generated from an entry in the Cambridge 
# Structural Database, then it will include bibliographic, chemical, 
# crystal, experimental, refinement or atomic coordinate data resulting 
# from the CCDC's data processing and validation procedures.
#
#######################################################################

data_IZEBUK
_chemical_formula_moiety         'C20 H12 N8'
_chemical_name_systematic        
3,6-bis(2-Pyridyl)di-1,2,4-triazolo(3,4-a:4',3'-c)phthalazine
_symmetry_cell_setting           monoclinic
_symmetry_space_group_name_H-M   'P 21/n'
_symmetry_Int_Tables_number      14
_space_group_name_Hall           '-P 2yn'
loop_
_symmetry_equiv_pos_site_id
_symmetry_equiv_pos_as_xyz
1 x,y,z
2 1/2+x,1/2-y,1/2+z
3 -x,-y,-z
4 1/2-x,1/2+y,1/2-z
_cell_length_a                   8.1968(12)
_cell_length_b                   12.390(2)
_cell_length_c                   16.409(5)
_cell_angle_alpha                90
_cell_angle_beta                 91.23(2)
_cell_angle_gamma                90
_cell_volume                     1666.09
_exptl_crystal_colour            'light brown'
_exptl_crystal_description       prism
_cell_formula_units_Z            4
_exptl_crystal_recrystallization_method dichloromethane/hexane
loop_
_atom_site_label
_atom_site_type_symbol
_atom_site_fract_x
_atom_site_fract_y
_atom_site_fract_z
N1 N 0.01910(16) 0.84254(11) 0.58191(7)
N2 N -0.01094(16) 0.85012(11) 0.66450(7)
N3 N 0.13455(18) 0.89263(13) 0.46880(8)
N4 N 0.03278(19) 0.80564(13) 0.45265(8)
N5 N 0.05590(19) 0.89496(13) 0.79008(9)
N6 N -0.09433(19) 0.84524(13) 0.78929(8)
N7 N -0.09507(18) 0.61730(13) 0.59863(8)
N8 N -0.35555(17) 0.79389(12) 0.61635(8)
C1 C 0.1035(2) 0.89927(14) 0.71459(10)
C2 C 0.2364(2) 0.96101(13) 0.68143(10)
C3 C 0.3548(2) 1.00964(15) 0.73134(11)
H1 H 0.3570 0.9968 0.7872
C4 C 0.4676(2) 1.07630(17) 0.69763(12)
H2 H 0.5477 1.1080 0.7307
C5 C 0.4637(2) 1.09698(17) 0.61491(13)
H3 H 0.5396 1.1441 0.5931
C6 C 0.3489(2) 1.04882(16) 0.56413(12)
H4 H 0.3475 1.0630 0.5085
C7 C 0.2353(2) 0.97871(14) 0.59715(10)
C8 C 0.1275(2) 0.91271(14) 0.54713(10)
C9 C -0.0324(2) 0.77310(14) 0.52089(9)
C10 C -0.1377(2) 0.82081(14) 0.71403(9)
C11 C -0.1209(2) 0.67138(14) 0.52889(9)
C12 C -0.1693(2) 0.52197(17) 0.60461(11)
H5 H -0.1544 0.4832 0.6527
C13 C -0.2666(2) 0.47728(17) 0.54405(12)
H6 H -0.3150 0.4102 0.5512
C14 C -0.2906(2) 0.53393(17) 0.47285(11)
H7 H -0.3562 0.5060 0.4310
C15 C -0.2159(2) 0.63285(16) 0.46458(10)
H8 H -0.2291 0.6728 0.4169
C16 C -0.3006(2) 0.77931(13) 0.69284(10)
C17 C -0.5062(2) 0.75735(17) 0.59940(12)
H9 H -0.5466 0.7648 0.5463
C18 C -0.6051(2) 0.70944(16) 0.65571(13)
H10 H -0.7087 0.6848 0.6409
C19 C -0.5465(2) 0.69901(17) 0.73456(13)
H11 H -0.6114 0.6689 0.7744
C20 C -0.3919(2) 0.73348(16) 0.75362(11)
H12 H -0.3492 0.7262 0.8063
loop_
_geom_bond_atom_site_label_1
_geom_bond_atom_site_label_2
_geom_bond_site_symmetry_1
_geom_bond_site_symmetry_2
N1 N2 1_555 1_555
N2 C1 1_555 1_555
N3 N4 1_555 1_555
N4 C9 1_555 1_555
N5 N6 1_555 1_555
N6 C10 1_555 1_555
N7 C11 1_555 1_555
N8 C16 1_555 1_555
C1 N5 1_555 1_555
C2 C1 1_555 1_555
C3 C2 1_555 1_555
H1 C3 1_555 1_555
C4 C3 1_555 1_555
H2 C4 1_555 1_555
C5 C4 1_555 1_555
H3 C5 1_555 1_555
C6 C5 1_555 1_555
H4 C6 1_555 1_555
C7 C2 1_555 1_555
C8 N1 1_555 1_555
C9 N1 1_555 1_555
C10 N2 1_555 1_555
C11 C9 1_555 1_555
C12 N7 1_555 1_555
H5 C12 1_555 1_555
C13 C12 1_555 1_555
H6 C13 1_555 1_555
C14 C13 1_555 1_555
H7 C14 1_555 1_555
C15 C11 1_555 1_555
H8 C15 1_555 1_555
C16 C10 1_555 1_555
C17 N8 1_555 1_555
H9 C17 1_555 1_555
C18 C17 1_555 1_555
H10 C18 1_555 1_555
C19 C18 1_555 1_555
H11 C19 1_555 1_555
C20 C16 1_555 1_555
H12 C20 1_555 1_555
N3 C8 1_555 1_555
C6 C7 1_555 1_555
C7 C8 1_555 1_555
C14 C15 1_555 1_555
C19 C20 1_555 1_555

#END
