
#######################################################################
#
#                 Cambridge Crystallographic Data Centre
#                                CCDC 
#
#######################################################################
#
# If this CIF has been generated from an entry in the Cambridge 
# Structural Database, then it will include bibliographic, chemical, 
# crystal, experimental, refinement or atomic coordinate data resulting 
# from the CCDC's data processing and validation procedures.
#
#######################################################################

data_IZECEX
_chemical_compound_source        'Carpesium cernuum'
_chemical_name_common            'cernuumolide E dihydrate'
_chemical_formula_moiety         'C19 H28 O8,2(H2 O1)'
_chemical_name_systematic        
'1,2,9-trihydroxy-9,13-dimethyl-4-methylene-5-oxo-6,14-dioxatricyclo[9.2.1.0^3,7^]tetradec-8-yl 2-methylpropanoate dihydrate'
_chemical_properties_biological  
'tested for anti-cancer activity against A549, HCT116, MDA-MB-231 and BEL7404 cell lines'
_symmetry_cell_setting           tetragonal
_symmetry_space_group_name_H-M   'P 41'
_symmetry_Int_Tables_number      76
_space_group_name_Hall           'P 4w'
loop_
_symmetry_equiv_pos_site_id
_symmetry_equiv_pos_as_xyz
1 x,y,z
2 -y,x,1/4+z
3 y,-x,3/4+z
4 -x,-y,1/2+z
_cell_length_a                   10.23070(10)
_cell_length_b                   10.23070(10)
_cell_length_c                   20.5352(3)
_cell_angle_alpha                90
_cell_angle_beta                 90
_cell_angle_gamma                90
_cell_volume                     2149.36
_exptl_crystal_colour            colorless
_exptl_crystal_description       block
_cell_formula_units_Z            4
loop_
_atom_site_label
_atom_site_type_symbol
_atom_site_fract_x
_atom_site_fract_y
_atom_site_fract_z
O1 O -0.01227(17) -0.00607(18) -0.16011(11)
O2 O 0.20598(18) -0.02693(18) -0.18683(11)
H1 H 0.1981 -0.1082 -0.1912
O3 O 0.25833(19) 0.19719(19) -0.10435(11)
H2 H 0.315(4) 0.188(4) -0.132(2)
O4 O -0.10328(18) 0.37605(18) -0.17438(10)
O5 O -0.0070(2) 0.56954(19) -0.16451(12)
O6 O -0.30397(18) 0.0405(2) -0.16371(11)
H3 H -0.3756 0.0721 -0.1760
O7 O -0.32570(18) 0.3061(2) -0.13035(11)
O8 O -0.2783(3) 0.4726(2) -0.06289(14)
C1 C 0.0222(3) -0.1552(3) -0.07546(16)
H4 H 0.0522 -0.2355 -0.0979
H5 H -0.0089 -0.1784 -0.0313
C2 C -0.0839(3) -0.0865(3) -0.11425(15)
H6 H -0.1360 -0.1530 -0.1387
C3 C -0.1746(3) -0.0096(3) -0.06951(15)
H7 H -0.1193 0.0417 -0.0393
H8 H -0.2236 -0.0735 -0.0428
C4 C -0.2754(3) 0.0854(3) -0.10012(15)
C5 C -0.2227(2) 0.2277(3) -0.10202(16)
H9 H -0.2049 0.2583 -0.0566
C6 C -0.0996(2) 0.2465(2) -0.14400(15)
H10 H -0.0962 0.1776 -0.1785
C7 C 0.0285(2) 0.2429(3) -0.10311(15)
H11 H 0.0108 0.2041 -0.0593
C8 C 0.1390(2) 0.1678(2) -0.13707(15)
H12 H 0.1458 0.1998 -0.1830
C9 C 0.1176(3) 0.0179(2) -0.13847(15)
C10 C 0.1319(3) -0.0520(3) -0.07243(15)
H13 H 0.1109 0.0117 -0.0370
C11 C 0.0591(3) 0.3867(3) -0.09649(16)
C12 C -0.0158(3) 0.4574(3) -0.14695(16)
C13 C 0.1337(3) 0.4489(3) -0.05431(18)
H14 H 0.1402 0.5415 -0.0559
H15 H 0.1809 0.4012 -0.0223
C14 C 0.2659(3) -0.1114(3) -0.05871(18)
H16 H 0.2829 -0.1822 -0.0897
H17 H 0.2677 -0.1462 -0.0143
H18 H 0.3333 -0.0439 -0.0633
C15 C -0.3980(3) 0.0862(3) -0.05736(18)
H19 H -0.3748 0.1145 -0.0133
H20 H -0.4352 -0.0020 -0.0557
H21 H -0.4625 0.1467 -0.0758
C16 C -0.3372(3) 0.4289(3) -0.10868(19)
C17 C -0.4346(4) 0.5066(4) -0.1490(3)
H22 H -0.4432 0.4659 -0.1930
C18 C -0.5625(6) 0.5088(8) -0.1173(5)
H23 H -0.5847 0.4206 -0.1023
H24 H -0.6287 0.5390 -0.1483
H25 H -0.5598 0.5683 -0.0799
C19 C -0.3870(7) 0.6473(7) -0.1563(5)
H26 H -0.3765 0.6867 -0.1131
H27 H -0.4510 0.6976 -0.1814
H28 H -0.3028 0.6479 -0.1791
O9 O -0.1276(2) 0.4377(2) 0.05052(11)
H29 H -0.1748 0.4468 0.0155
H30 H -0.0645 0.3827 0.0430
O10 O 0.2855(2) 0.2025(2) 0.03158(11)
H31 H 0.3366 0.1437 0.0486
H32 H 0.2833 0.1925 -0.0105
loop_
_geom_bond_atom_site_label_1
_geom_bond_atom_site_label_2
_geom_bond_site_symmetry_1
_geom_bond_site_symmetry_2
O1 C2 1_555 1_555
O2 H1 1_555 1_555
O3 H2 1_555 1_555
O4 C6 1_555 1_555
O5 C12 1_555 1_555
O6 H3 1_555 1_555
O7 C5 1_555 1_555
O8 C16 1_555 1_555
C1 H4 1_555 1_555
H5 C1 1_555 1_555
C2 C1 1_555 1_555
H6 C2 1_555 1_555
C3 C2 1_555 1_555
H7 C3 1_555 1_555
H8 C3 1_555 1_555
C4 O6 1_555 1_555
C5 C4 1_555 1_555
H9 C5 1_555 1_555
C6 C5 1_555 1_555
H10 C6 1_555 1_555
C7 C6 1_555 1_555
H11 C7 1_555 1_555
C8 O3 1_555 1_555
H12 C8 1_555 1_555
C9 O1 1_555 1_555
C10 C1 1_555 1_555
H13 C10 1_555 1_555
C11 C7 1_555 1_555
C12 O4 1_555 1_555
C13 C11 1_555 1_555
H14 C13 1_555 1_555
H15 C13 1_555 1_555
C14 C10 1_555 1_555
H16 C14 1_555 1_555
H17 C14 1_555 1_555
H18 C14 1_555 1_555
C15 C4 1_555 1_555
H19 C15 1_555 1_555
H20 C15 1_555 1_555
H21 C15 1_555 1_555
C16 O7 1_555 1_555
C17 C16 1_555 1_555
H22 C17 1_555 1_555
C18 C17 1_555 1_555
H23 C18 1_555 1_555
H24 C18 1_555 1_555
H25 C18 1_555 1_555
C19 C17 1_555 1_555
H26 C19 1_555 1_555
H27 C19 1_555 1_555
H28 C19 1_555 1_555
O9 H29 1_555 1_555
H30 O9 1_555 1_555
O10 H31 1_555 1_555
H32 O10 1_555 1_555
O2 C9 1_555 1_555
C3 C4 1_555 1_555
C7 C8 1_555 1_555
C8 C9 1_555 1_555
C9 C10 1_555 1_555
C11 C12 1_555 1_555

#END
