
#######################################################################
#
#                 Cambridge Crystallographic Data Centre
#                                CCDC 
#
#######################################################################
#
# If this CIF has been generated from an entry in the Cambridge 
# Structural Database, then it will include bibliographic, chemical, 
# crystal, experimental, refinement or atomic coordinate data resulting 
# from the CCDC's data processing and validation procedures.
#
#######################################################################

data_IZEFAU
_chemical_formula_moiety         'C7 H7 N3 O2'
_chemical_name_systematic        '3-Nitrobenzaldehyde hydrazone'
_symmetry_cell_setting           orthorhombic
_symmetry_space_group_name_H-M   'P 21 21 21'
_symmetry_Int_Tables_number      19
_space_group_name_Hall           'P 2ac 2ab'
loop_
_symmetry_equiv_pos_site_id
_symmetry_equiv_pos_as_xyz
1 x,y,z
2 1/2-x,-y,1/2+z
3 -x,1/2+y,1/2-z
4 1/2+x,1/2-y,-z
_cell_length_a                   3.7231(2)
_cell_length_b                   10.2200(7)
_cell_length_c                   19.4119(12)
_cell_angle_alpha                90
_cell_angle_beta                 90
_cell_angle_gamma                90
_cell_volume                     738.624
_exptl_crystal_colour            yellow
_exptl_crystal_description       block
_chemical_melting_point          '381-383 K'
_cell_formula_units_Z            4
_exptl_crystal_recrystallization_method ethanol
loop_
_atom_site_label
_atom_site_type_symbol
_atom_site_fract_x
_atom_site_fract_y
_atom_site_fract_z
O1 O 0.0097(4) 0.40565(13) 0.19783(6)
O2 O 0.1823(5) 0.20713(13) 0.18010(6)
N1 N 0.1550(5) 0.30367(14) 0.21710(7)
N2 N 0.5447(5) 0.52039(17) 0.49804(7)
N3 N 0.5347(6) 0.63742(19) 0.53425(8)
C1 C 0.4233(5) 0.40460(18) 0.39441(9)
C2 C 0.2855(5) 0.40998(18) 0.32747(8)
C3 C 0.2997(5) 0.29776(17) 0.28743(8)
C4 C 0.4377(5) 0.18055(18) 0.31065(9)
C5 C 0.5711(5) 0.17631(19) 0.37728(9)
C6 C 0.5652(5) 0.28659(18) 0.41810(9)
C7 C 0.4112(6) 0.5220(2) 0.43755(9)
H1 H 0.1847 0.4886 0.3099
H2 H 0.4412 0.1053 0.2820
H3 H 0.6672 0.0970 0.3949
H4 H 0.6602 0.2821 0.4635
H5 H 0.3035 0.5997 0.4204
H6 H 0.5516 0.6215 0.5787
H7 H 0.3507 0.6862 0.5220
loop_
_geom_bond_atom_site_label_1
_geom_bond_atom_site_label_2
_geom_bond_site_symmetry_1
_geom_bond_site_symmetry_2
O1 N1 1_555 1_555
O2 N1 1_555 1_555
N1 C3 1_555 1_555
N2 N3 1_555 1_555
N3 H6 1_555 1_555
C1 C2 1_555 1_555
C2 C3 1_555 1_555
C3 C4 1_555 1_555
C4 C5 1_555 1_555
C5 C6 1_555 1_555
C6 C1 1_555 1_555
C7 N2 1_555 1_555
H1 C2 1_555 1_555
H2 C4 1_555 1_555
H3 C5 1_555 1_555
H4 C6 1_555 1_555
H5 C7 1_555 1_555
H7 N3 1_555 1_555
C1 C7 1_555 1_555

#END
