
#######################################################################
#
#                 Cambridge Crystallographic Data Centre
#                                CCDC 
#
#######################################################################
#
# If this CIF has been generated from an entry in the Cambridge 
# Structural Database, then it will include bibliographic, chemical, 
# crystal, experimental, refinement or atomic coordinate data resulting 
# from the CCDC's data processing and validation procedures.
#
#######################################################################

data_IZEFOI
_chemical_name_common            4-Methylphenyl-4'-bromophenylchalcone
_chemical_formula_moiety         'C16 H13 Br1 O1'
_chemical_name_systematic        
1-(4-Bromophenyl)-3-(4-methylphenyl)prop-2-en-1-one
_symmetry_cell_setting           monoclinic
_symmetry_space_group_name_H-M   'P 21/c'
_symmetry_Int_Tables_number      14
_space_group_name_Hall           '-P 2ybc'
loop_
_symmetry_equiv_pos_site_id
_symmetry_equiv_pos_as_xyz
1 x,y,z
2 x,1/2-y,1/2+z
3 -x,-y,-z
4 -x,1/2+y,1/2-z
_cell_length_a                   15.600(3)
_cell_length_b                   14.235(3)
_cell_length_c                   5.8621(11)
_cell_angle_alpha                90
_cell_angle_beta                 92.029(4)
_cell_angle_gamma                90
_cell_volume                     1300.96
_exptl_crystal_colour            'light yellow'
_exptl_crystal_description       block
_chemical_melting_point          '437-439 K'
_cell_formula_units_Z            4
_exptl_crystal_recrystallization_method acetone
loop_
_atom_site_label
_atom_site_type_symbol
_atom_site_fract_x
_atom_site_fract_y
_atom_site_fract_z
Br1 Br -0.38335(2) 0.37129(3) 0.22424(7)
O1 O 0.01755(15) 0.38037(19) -0.1995(4)
C1 C 0.22169(19) 0.3884(2) 0.3007(5)
C2 C 0.2183(2) 0.3475(2) 0.5172(5)
H1 H 0.1650 0.3260 0.5705
C3 C 0.2920(2) 0.3382(2) 0.6551(5)
H2 H 0.2885 0.3095 0.8008
C4 C 0.3711(2) 0.3702(2) 0.5832(5)
C5 C 0.3741(2) 0.4126(2) 0.3704(5)
H3 H 0.4272 0.4363 0.3201
C6 C 0.30137(19) 0.4210(2) 0.2304(5)
H4 H 0.3054 0.4493 0.0844
C7 C -0.09306(19) 0.3758(2) 0.0649(5)
C8 C -0.1539(2) 0.3431(2) -0.0966(5)
H5 H -0.1358 0.3213 -0.2403
C9 C -0.2397(2) 0.3422(2) -0.0500(5)
H6 H -0.2807 0.3195 -0.1601
C10 C -0.26536(19) 0.3747(2) 0.1584(5)
C11 C -0.2069(2) 0.4095(2) 0.3208(5)
H7 H -0.2257 0.4336 0.4615
C12 C -0.12066(19) 0.4086(2) 0.2744(5)
H8 H -0.0798 0.4304 0.3861
C13 C 0.1473(2) 0.3945(2) 0.1434(5)
H9 H 0.1581 0.4145 -0.0075
C14 C 0.06604(19) 0.3753(2) 0.1870(5)
H10 H 0.0510 0.3597 0.3380
C15 C -0.0012(2) 0.3780(2) 0.0020(6)
C16 C 0.4515(2) 0.3583(2) 0.7358(5)
H11 H 0.4992 0.3379 0.6432
H12 H 0.4410 0.3110 0.8530
H13 H 0.4660 0.4183 0.8092
loop_
_geom_bond_atom_site_label_1
_geom_bond_atom_site_label_2
_geom_bond_site_symmetry_1
_geom_bond_site_symmetry_2
Br1 C10 1_555 1_555
O1 C15 1_555 1_555
C1 C2 1_555 1_555
C2 H1 1_555 1_555
C3 C2 1_555 1_555
H2 C3 1_555 1_555
C4 C3 1_555 1_555
C5 C4 1_555 1_555
H3 C5 1_555 1_555
C6 C1 1_555 1_555
H4 C6 1_555 1_555
C7 C8 1_555 1_555
C8 H5 1_555 1_555
C9 C8 1_555 1_555
H6 C9 1_555 1_555
C10 C9 1_555 1_555
C11 C10 1_555 1_555
H7 C11 1_555 1_555
C12 C7 1_555 1_555
H8 C12 1_555 1_555
C13 C1 1_555 1_555
H9 C13 1_555 1_555
C14 C13 1_555 1_555
H10 C14 1_555 1_555
C15 C7 1_555 1_555
C16 C4 1_555 1_555
H11 C16 1_555 1_555
H12 C16 1_555 1_555
H13 C16 1_555 1_555
C5 C6 1_555 1_555
C11 C12 1_555 1_555
C14 C15 1_555 1_555

#END
