
#######################################################################
#
#                 Cambridge Crystallographic Data Centre
#                                CCDC 
#
#######################################################################
#
# If this CIF has been generated from an entry in the Cambridge 
# Structural Database, then it will include bibliographic, chemical, 
# crystal, experimental, refinement or atomic coordinate data resulting 
# from the CCDC's data processing and validation procedures.
#
#######################################################################

data_IZEFOK
_chemical_compound_source        'bark of Streblus indicus (Bur.) Corner'
_chemical_name_common            'rac-indidene A'
_chemical_formula_moiety         'C21 H24 O6,0.5(C1 H4 O1)'
_chemical_name_systematic        
'2-(4,5-dihydroxy-2-(2-hydroxypropan-2-yl)-2,3-dihydro-1H-inden-1-yl)-1-(4-hydroxy-2-methoxyphenyl)ethanone methanol solvate'
_chemical_properties_biological  'cytotoxic activity'
_symmetry_cell_setting           triclinic
_symmetry_space_group_name_H-M   'P -1'
_symmetry_Int_Tables_number      2
_space_group_name_Hall           '-P 1'
loop_
_symmetry_equiv_pos_site_id
_symmetry_equiv_pos_as_xyz
1 x,y,z
2 -x,-y,-z
_cell_length_a                   8.9728(4)
_cell_length_b                   13.5806(6)
_cell_length_c                   16.6376(7)
_cell_angle_alpha                93.952(2)
_cell_angle_beta                 103.777(2)
_cell_angle_gamma                90.502(2)
_cell_volume                     1963.72
_exptl_crystal_colour            colorless
_exptl_crystal_description       plate
_chemical_melting_point          '156-157 deg.C'
_cell_formula_units_Z            4
_exptl_crystal_recrystallization_method methanol
loop_
_atom_site_label
_atom_site_type_symbol
_atom_site_fract_x
_atom_site_fract_y
_atom_site_fract_z
O1 O 0.5523(2) 0.25305(12) 1.18421(9)
H1 H 0.6300 0.2222 1.1832
O2 O 0.22715(16) 0.47649(11) 1.01771(8)
O3 O 0.45724(15) 0.42165(10) 0.83423(8)
O4 O 0.41432(15) 0.47126(12) 0.67128(8)
H2 H 0.4312 0.4486 0.7169
O5 O -0.33220(16) 0.47086(12) 0.61237(9)
H3 H -0.2877 0.4420 0.5803
O6 O -0.42311(16) 0.64916(11) 0.68930(9)
H4 H -0.4454 0.6765 0.6457
C1 C 0.5040(2) 0.29704(14) 1.11167(12)
C2 C 0.3870(2) 0.36424(14) 1.10198(11)
H5 H 0.3403 0.3795 1.1454
C3 C 0.3390(2) 0.40878(13) 1.02823(11)
C4 C 0.4083(2) 0.38666(12) 0.96162(11)
C5 C 0.5272(2) 0.31897(14) 0.97458(12)
H6 H 0.5760 0.3040 0.9320
C6 C 0.5747(2) 0.27379(15) 1.04746(13)
H7 H 0.6529 0.2284 1.0536
C7 C 0.1675(3) 0.51015(18) 1.08674(13)
H8 H 0.2500 0.5362 1.1314
H9 H 0.1174 0.4560 1.1048
H10 H 0.0950 0.5609 1.0705
C8 C 0.3680(2) 0.43008(13) 0.87988(11)
C9 C 0.2181(2) 0.48142(14) 0.85216(11)
H11 H 0.2168 0.5381 0.8908
H12 H 0.1352 0.4367 0.8554
C10 C 0.1858(2) 0.51641(13) 0.76458(10)
H13 H 0.2673 0.5627 0.7601
C11 C 0.1670(2) 0.43071(13) 0.69555(11)
H14 H 0.2092 0.3710 0.7213
C12 C 0.2530(2) 0.45299(15) 0.62866(11)
C13 C 0.2474(3) 0.3646(2) 0.56680(15)
H15 H 0.2875 0.3082 0.5959
H16 H 0.3081 0.3790 0.5285
H17 H 0.1430 0.3506 0.5369
C14 C 0.2011(3) 0.54568(18) 0.58537(13)
H18 H 0.2595 0.5557 0.5451
H19 H 0.2168 0.6014 0.6255
H20 H 0.0941 0.5387 0.5581
C15 C -0.0085(2) 0.41389(14) 0.66123(12)
H21 H -0.0344 0.4047 0.6011
H22 H -0.0446 0.3565 0.6834
C16 C -0.0772(2) 0.50604(13) 0.68982(11)
C17 C -0.2299(2) 0.53194(14) 0.66868(11)
C18 C -0.2717(2) 0.62060(14) 0.70417(11)
C19 C -0.1616(2) 0.68226(14) 0.75687(12)
H23 H -0.1903 0.7422 0.7785
C20 C -0.0087(2) 0.65566(13) 0.77782(11)
H24 H 0.0649 0.6973 0.8132
C21 C 0.0325(2) 0.56623(13) 0.74525(10)
O7 O 0.12826(19) 0.75408(12) 1.19960(9)
H25 H 0.0531 0.7188 1.1986
O8 O 0.29258(16) 0.97686(10) 1.02527(8)
O9 O -0.10300(15) 0.90838(10) 0.84608(8)
O10 O -0.21430(16) 0.94508(14) 0.67852(9)
H26 H -0.1838 0.9333 0.7273
O11 O 0.48721(15) 0.97750(11) 0.62004(8)
H27 H 0.5807 0.9784 0.6376
O12 O 0.61422(17) 1.16673(12) 0.68215(8)
H28 H 0.6083 1.1544 0.6325
C22 C 0.1090(2) 0.79630(14) 1.12650(12)
C23 C -0.0194(2) 0.76897(14) 1.06324(12)
H29 H -0.0902 0.7223 1.0710
C24 C -0.0402(2) 0.81177(14) 0.98915(12)
H30 H -0.1270 0.7937 0.9474
C25 C 0.0636(2) 0.88159(12) 0.97374(11)
C26 C 0.1925(2) 0.90793(13) 1.03895(11)
C27 C 0.2137(2) 0.86580(14) 1.11424(11)
H31 H 0.2989 0.8843 1.1569
C28 C 0.4160(3) 1.01284(18) 1.09234(13)
H32 H 0.3757 1.0383 1.1379
H33 H 0.4716 1.0645 1.0745
H34 H 0.4837 0.9599 1.1097
C29 C 0.0270(2) 0.92199(13) 0.89055(11)
C30 C 0.1483(2) 0.97594(14) 0.85989(11)
H35 H 0.2356 0.9335 0.8629
H36 H 0.1828 1.0341 0.8971
C31 C 0.0973(2) 1.00805(13) 0.77140(11)
H37 H 0.0085 1.0507 0.7667
C32 C 0.0593(2) 0.92029(13) 0.70393(11)
H38 H 0.0449 0.8603 0.7310
C33 C -0.0884(2) 0.93655(17) 0.63770(12)
C34 C -0.1284(3) 0.8470(2) 0.57487(15)
H39 H -0.2259 0.8562 0.5375
H40 H -0.1336 0.7887 0.6036
H41 H -0.0508 0.8400 0.5440
C35 C -0.0821(3) 1.0306(2) 0.59463(14)
H42 H -0.0694 1.0864 0.6346
H43 H -0.1758 1.0362 0.5531
H44 H 0.0029 1.0289 0.5688
C36 C 0.2050(2) 0.90899(13) 0.66941(12)
H45 H 0.2655 0.8545 0.6929
H46 H 0.1774 0.8974 0.6095
C37 C 0.2925(2) 1.00519(13) 0.69514(10)
C38 C 0.4230(2) 1.03705(13) 0.67228(10)
C39 C 0.4836(2) 1.13150(14) 0.70167(11)
C40 C 0.4175(2) 1.18961(14) 0.75485(12)
H47 H 0.4588 1.2523 0.7741
C41 C 0.2908(2) 1.15567(14) 0.77984(12)
H48 H 0.2482 1.1946 0.8164
C42 C 0.2285(2) 1.06316(13) 0.74962(10)
O13 O 0.4156(2) 0.84346(13) 0.47968(9)
H49 H 0.4325 0.8872 0.5175
C43 C 0.3849(5) 0.7561(2) 0.5098(2)
H50 H 0.3898 0.7025 0.4698
H51 H 0.2841 0.7573 0.5200
loop_
_geom_bond_atom_site_label_1
_geom_bond_atom_site_label_2
_geom_bond_site_symmetry_1
_geom_bond_site_symmetry_2
O1 H1 1_555 1_555
O2 C3 1_555 1_555
O3 C8 1_555 1_555
O4 H2 1_555 1_555
O5 H3 1_555 1_555
O6 H4 1_555 1_555
C1 O1 1_555 1_555
C2 C1 1_555 1_555
H5 C2 1_555 1_555
C3 C2 1_555 1_555
C4 C3 1_555 1_555
C5 C4 1_555 1_555
H6 C5 1_555 1_555
C6 C1 1_555 1_555
H7 C6 1_555 1_555
C7 O2 1_555 1_555
H8 C7 1_555 1_555
H9 C7 1_555 1_555
H10 C7 1_555 1_555
C8 C4 1_555 1_555
C9 C8 1_555 1_555
H11 C9 1_555 1_555
H12 C9 1_555 1_555
C10 C9 1_555 1_555
H13 C10 1_555 1_555
C11 C10 1_555 1_555
H14 C11 1_555 1_555
C12 O4 1_555 1_555
C13 C12 1_555 1_555
H15 C13 1_555 1_555
H16 C13 1_555 1_555
H17 C13 1_555 1_555
C14 C12 1_555 1_555
H18 C14 1_555 1_555
H19 C14 1_555 1_555
H20 C14 1_555 1_555
C15 C11 1_555 1_555
H21 C15 1_555 1_555
H22 C15 1_555 1_555
C16 C15 1_555 1_555
C17 O5 1_555 1_555
C18 O6 1_555 1_555
C19 C18 1_555 1_555
H23 C19 1_555 1_555
C20 C19 1_555 1_555
H24 C20 1_555 1_555
C21 C10 1_555 1_555
O7 H25 1_555 1_555
O8 C26 1_555 1_555
O9 C29 1_555 1_555
O10 H26 1_555 1_555
O11 H27 1_555 1_555
O12 H28 1_555 1_555
C22 O7 1_555 1_555
C23 C22 1_555 1_555
H29 C23 1_555 1_555
C24 C23 1_555 1_555
H30 C24 1_555 1_555
C25 C24 1_555 1_555
C26 C25 1_555 1_555
C27 C22 1_555 1_555
H31 C27 1_555 1_555
C28 O8 1_555 1_555
H32 C28 1_555 1_555
H33 C28 1_555 1_555
H34 C28 1_555 1_555
C29 C25 1_555 1_555
C30 C29 1_555 1_555
H35 C30 1_555 1_555
H36 C30 1_555 1_555
C31 C30 1_555 1_555
H37 C31 1_555 1_555
C32 C31 1_555 1_555
H38 C32 1_555 1_555
C33 O10 1_555 1_555
C34 C33 1_555 1_555
H39 C34 1_555 1_555
H40 C34 1_555 1_555
H41 C34 1_555 1_555
C35 C33 1_555 1_555
H42 C35 1_555 1_555
H43 C35 1_555 1_555
H44 C35 1_555 1_555
C36 C32 1_555 1_555
H45 C36 1_555 1_555
H46 C36 1_555 1_555
C37 C36 1_555 1_555
C38 O11 1_555 1_555
C39 O12 1_555 1_555
C40 C39 1_555 1_555
H47 C40 1_555 1_555
C41 C40 1_555 1_555
H48 C41 1_555 1_555
C42 C31 1_555 1_555
O13 H49 1_555 1_555
C43 O13 1_555 1_555
H50 C43 1_555 1_555
H51 C43 1_555 1_555
C5 C6 1_555 1_555
C11 C12 1_555 1_555
C16 C17 1_555 1_555
C16 C21 1_555 1_555
C17 C18 1_555 1_555
C20 C21 1_555 1_555
C26 C27 1_555 1_555
C32 C33 1_555 1_555
C37 C38 1_555 1_555
C37 C42 1_555 1_555
C38 C39 1_555 1_555
C41 C42 1_555 1_555

#END
