
#######################################################################
#
#                 Cambridge Crystallographic Data Centre
#                                CCDC 
#
#######################################################################
#
# If this CIF has been generated from an entry in the Cambridge 
# Structural Database, then it will include bibliographic, chemical, 
# crystal, experimental, refinement or atomic coordinate data resulting 
# from the CCDC's data processing and validation procedures.
#
#######################################################################

data_IZEHUS
_chemical_compound_source        'Stachybotrys sp. KCB13F013'
_chemical_name_common            'Stachybotrysin dihydrate'
_chemical_formula_moiety         'C26 H36 O5,2(H2 O1)'
_chemical_name_systematic        
"4-(4,6'-dihydroxy-6-(hydroxymethyl)-2',5',5',8a'-tetramethyl-3',4',4a',5',6',7',8',8a'-octahydro-2'H,3H-spiro[1-benzofuran-2,1'-naphthalen]-7-yl)but-3-en-2-one dihydrate"
_chemical_properties_biological  
'inhibitory effect on osteoclast differentiation in bone marrow macrophage cells via suppression of the RANKL-induced activation of p-ERK, p-JNK, p-p38, C-Fos and NFATc1'
_symmetry_cell_setting           monoclinic
_symmetry_space_group_name_H-M   'P 21'
_symmetry_Int_Tables_number      4
_space_group_name_Hall           'P 2yb'
loop_
_symmetry_equiv_pos_site_id
_symmetry_equiv_pos_as_xyz
1 x,y,z
2 -x,1/2+y,-z
_cell_length_a                   10.09710(18)
_cell_length_b                   6.95501(13)
_cell_length_c                   18.0231(3)
_cell_angle_alpha                90
_cell_angle_beta                 100.8400(7)
_cell_angle_gamma                90
_cell_volume                     1243.1
_exptl_crystal_colour            colorless
_exptl_crystal_description       pillar
_cell_formula_units_Z            2
loop_
_atom_site_label
_atom_site_type_symbol
_atom_site_fract_x
_atom_site_fract_y
_atom_site_fract_z
O1 O 0.2034(2) -0.3680(3) 0.24261(11)
H1 H 0.135(5) -0.412(7) 0.212(3)
O2 O 0.52450(16) 0.1160(3) 0.26881(9)
O3 O 0.11070(19) 0.3148(4) 0.04472(11)
H2 H 0.142(5) 0.378(9) 0.000(3)
O4 O 0.70073(18) 0.5813(3) 0.11863(11)
O5 O 0.8988(2) 0.1153(3) 0.21609(10)
H3 H 0.943(5) 0.223(8) 0.207(3)
C1 C 0.3644(3) -0.1212(4) 0.25160(14)
C2 C 0.2476(3) -0.2066(4) 0.21330(15)
C3 C 0.1801(3) -0.1193(4) 0.14655(14)
H4 H 0.0990 -0.1750 0.1200
C4 C 0.2293(3) 0.0462(4) 0.11870(14)
C5 C 0.3498(2) 0.1359(4) 0.15639(14)
C6 C 0.4116(2) 0.0446(4) 0.22346(14)
C7 C 0.5551(3) -0.0020(4) 0.33815(14)
C8 C 0.4585(3) -0.1785(5) 0.32301(15)
H5 H 0.5084 -0.2973 0.3157
H6 H 0.4092 -0.1981 0.3650
C9 C 0.7078(3) -0.0537(4) 0.34981(14)
C10 C 0.7358(3) -0.1624(5) 0.27971(14)
H7 H 0.6953 -0.2923 0.2785
H8 H 0.6916 -0.0933 0.2336
C11 C 0.8864(3) -0.1821(5) 0.27876(15)
H9 H 0.9291 -0.2626 0.3220
H10 H 0.8979 -0.2482 0.2317
C12 C 0.9567(3) 0.0106(4) 0.28331(15)
H11 H 1.0547 -0.0107 0.2835
C13 C 0.9421(2) 0.1231(4) 0.35522(14)
C14 C 0.7888(2) 0.1379(4) 0.35848(14)
H12 H 0.7488 0.2152 0.3130
C15 C 0.7609(3) 0.2553(5) 0.42558(15)
H13 H 0.7894 0.1813 0.4728
H14 H 0.8137 0.3760 0.4297
C16 C 0.6117(3) 0.3021(5) 0.41557(15)
H15 H 0.5870 0.3905 0.3721
H16 H 0.5950 0.3700 0.4612
C17 C 0.5214(3) 0.1251(5) 0.40242(15)
H17 H 0.5380 0.0472 0.4499
C18 C 0.1561(3) 0.1198(5) 0.04288(14)
H18 H 0.2172 0.1100 0.0060
H19 H 0.0773 0.0361 0.0249
C19 C 0.4054(3) 0.3070(4) 0.12699(14)
H20 H 0.3442 0.3820 0.0922
C20 C 0.5335(3) 0.3715(4) 0.14337(15)
H21 H 0.5972 0.3014 0.1787
C21 C 0.5786(3) 0.5438(5) 0.10940(14)
C22 C 0.4785(3) 0.6787(5) 0.06439(16)
H22 H 0.5265 0.7831 0.0443
H23 H 0.4203 0.7325 0.0970
H24 H 0.4232 0.6086 0.0225
C23 C 0.7411(3) -0.1874(5) 0.41935(15)
H25 H 0.7570 -0.1098 0.4655
H26 H 0.8222 -0.2624 0.4165
H27 H 0.6653 -0.2749 0.4201
C24 C 1.0265(3) 0.0252(5) 0.42475(15)
H28 H 1.0091 0.0877 0.4707
H29 H 1.1224 0.0365 0.4226
H30 H 1.0017 -0.1109 0.4253
C25 C 0.9999(3) 0.3252(5) 0.34972(15)
H31 H 1.0104 0.3889 0.3990
H32 H 0.9384 0.4002 0.3120
H33 H 1.0880 0.3157 0.3346
C26 C 0.3737(3) 0.1891(6) 0.38772(17)
H34 H 0.3151 0.0758 0.3795
H35 H 0.3559 0.2715 0.3428
H36 H 0.3554 0.2610 0.4315
O6 O 0.9850(2) 0.4511(3) 0.15502(11)
H37 H 0.903(4) 0.478(7) 0.141(2)
H38 H 1.025(4) 0.409(7) 0.115(3)
O7 O 0.7965(2) -0.0591(4) 0.07822(12)
H39 H 0.833(6) 0.019(9) 0.117(3)
H40 H 0.754(5) -0.188(8) 0.095(2)
loop_
_geom_bond_atom_site_label_1
_geom_bond_atom_site_label_2
_geom_bond_site_symmetry_1
_geom_bond_site_symmetry_2
O1 H1 1_555 1_555
O2 C6 1_555 1_555
O3 H2 1_555 1_555
O4 C21 1_555 1_555
O5 H3 1_555 1_555
C1 C2 1_555 1_555
C2 O1 1_555 1_555
C3 C2 1_555 1_555
H4 C3 1_555 1_555
C4 C3 1_555 1_555
C5 C4 1_555 1_555
C6 C1 1_555 1_555
C7 O2 1_555 1_555
C8 C1 1_555 1_555
H5 C8 1_555 1_555
H6 C8 1_555 1_555
C9 C7 1_555 1_555
C10 C9 1_555 1_555
H7 C10 1_555 1_555
H8 C10 1_555 1_555
C11 C10 1_555 1_555
H9 C11 1_555 1_555
H10 C11 1_555 1_555
C12 O5 1_555 1_555
H11 C12 1_555 1_555
C13 C12 1_555 1_555
C14 C9 1_555 1_555
H12 C14 1_555 1_555
C15 C14 1_555 1_555
H13 C15 1_555 1_555
H14 C15 1_555 1_555
C16 C15 1_555 1_555
H15 C16 1_555 1_555
H16 C16 1_555 1_555
C17 C7 1_555 1_555
H17 C17 1_555 1_555
C18 O3 1_555 1_555
H18 C18 1_555 1_555
H19 C18 1_555 1_555
C19 C5 1_555 1_555
H20 C19 1_555 1_555
C20 C19 1_555 1_555
H21 C20 1_555 1_555
C21 C20 1_555 1_555
C22 C21 1_555 1_555
H22 C22 1_555 1_555
H23 C22 1_555 1_555
H24 C22 1_555 1_555
C23 C9 1_555 1_555
H25 C23 1_555 1_555
H26 C23 1_555 1_555
H27 C23 1_555 1_555
C24 C13 1_555 1_555
H28 C24 1_555 1_555
H29 C24 1_555 1_555
H30 C24 1_555 1_555
C25 C13 1_555 1_555
H31 C25 1_555 1_555
H32 C25 1_555 1_555
H33 C25 1_555 1_555
C26 C17 1_555 1_555
H34 C26 1_555 1_555
H35 C26 1_555 1_555
H36 C26 1_555 1_555
O6 H37 1_555 1_555
H38 O6 1_555 1_555
O7 H39 1_555 1_555
H40 O7 1_555 1_555
C4 C18 1_555 1_555
C5 C6 1_555 1_555
C7 C8 1_555 1_555
C11 C12 1_555 1_555
C13 C14 1_555 1_555
C16 C17 1_555 1_555

#END
