
#######################################################################
#
#                 Cambridge Crystallographic Data Centre
#                                CCDC 
#
#######################################################################
#
# If this CIF has been generated from an entry in the Cambridge 
# Structural Database, then it will include bibliographic, chemical, 
# crystal, experimental, refinement or atomic coordinate data resulting 
# from the CCDC's data processing and validation procedures.
#
#######################################################################

data_IZEQEK
_chemical_formula_moiety         'C24 H15 F6 N3 S1'
_chemical_name_systematic        
1-[2-Methyl-5-(3-cyanophenyl)-3-thienyl]-2-(2-cyano-1,5-dimethyl-4-pyrryl)perfluorocyclopentene
_symmetry_cell_setting           triclinic
_symmetry_space_group_name_H-M   'P -1'
_symmetry_Int_Tables_number      2
_space_group_name_Hall           '-P 1'
loop_
_symmetry_equiv_pos_site_id
_symmetry_equiv_pos_as_xyz
1 x,y,z
2 -x,-y,-z
_cell_length_a                   8.999(17)
_cell_length_b                   11.24(4)
_cell_length_c                   12.62(3)
_cell_angle_alpha                113.08(6)
_cell_angle_beta                 109.49(5)
_cell_angle_gamma                90.20(5)
_cell_volume                     1093.68
_exptl_crystal_colour            colorless
_exptl_crystal_description       block
_cell_formula_units_Z            2
loop_
_atom_site_label
_atom_site_type_symbol
_atom_site_fract_x
_atom_site_fract_y
_atom_site_fract_z
S1 S 0.55518(6) 0.33074(5) 0.51090(5)
F1 F 0.99945(14) 0.19437(13) 0.35964(11)
F2 F 0.82433(15) 0.02393(12) 0.22717(13)
F3 F 1.08340(15) 0.14929(14) 0.17245(14)
F4 F 0.84906(17) 0.04747(13) 0.04105(12)
F5 F 1.00121(13) 0.37565(12) 0.20050(12)
F6 F 0.82733(14) 0.26142(13) 0.01783(11)
N1 N -0.0293(2) -0.29484(19) 0.14004(19)
N2 N 0.44037(17) 0.50999(15) 0.14646(14)
N3 N 0.5427(2) 0.80759(17) 0.14334(16)
C1 C 0.4826(2) 0.17025(18) 0.40373(17)
C2 C 0.5494(2) 0.13783(18) 0.31632(17)
H1 H 0.5264 0.0536 0.2499
C3 C 0.6575(2) 0.24299(18) 0.33409(17)
C4 C 0.6741(2) 0.35403(19) 0.43701(17)
C5 C 0.3669(2) 0.08879(18) 0.41593(17)
C6 C 0.2696(2) -0.02020(19) 0.31421(18)
H2 H 0.2763 -0.0427 0.2353
C7 C 0.1618(2) -0.09648(19) 0.32875(19)
C8 C 0.1505(2) -0.0659(2) 0.44326(19)
H3 H 0.0777 -0.1195 0.4521
C9 C 0.2458(2) 0.0426(2) 0.54365(19)
H4 H 0.2385 0.0650 0.6224
C10 C 0.3528(2) 0.1194(2) 0.53006(18)
H5 H 0.4178 0.1946 0.6000
C11 C 0.0563(2) -0.2071(2) 0.2224(2)
C12 C 0.7482(2) 0.23356(18) 0.25453(17)
C13 C 0.8739(2) 0.14749(19) 0.24972(19)
C14 C 0.9285(2) 0.1515(2) 0.1479(2)
C15 C 0.8750(2) 0.27700(19) 0.13656(18)
C16 C 0.7467(2) 0.30547(18) 0.19001(16)
C17 C 0.7799(3) 0.4826(2) 0.4889(2)
H6 H 0.7619 0.5443 0.5622
H7 H 0.7551 0.5180 0.4263
H8 H 0.8918 0.4694 0.5119
C18 C 0.6475(2) 0.40371(17) 0.17375(16)
C19 C 0.4855(2) 0.39770(18) 0.15453(17)
C20 C 0.5696(2) 0.58611(18) 0.15687(17)
C21 C 0.6994(2) 0.52165(18) 0.17256(17)
H9 H 0.8036 0.5508 0.1810
C22 C 0.3679(2) 0.2925(2) 0.1362(2)
H10 H 0.2669 0.2865 0.0713
H11 H 0.3503 0.3124 0.2136
H12 H 0.4084 0.2090 0.1115
C23 C 0.2817(2) 0.5465(2) 0.13145(19)
H13 H 0.2820 0.6337 0.1316
H14 H 0.2522 0.5474 0.1998
H15 H 0.2043 0.4828 0.0528
C24 C 0.5563(2) 0.70827(19) 0.14887(17)
loop_
_geom_bond_atom_site_label_1
_geom_bond_atom_site_label_2
_geom_bond_site_symmetry_1
_geom_bond_site_symmetry_2
S1 C1 1_555 1_555
F1 C13 1_555 1_555
F2 C13 1_555 1_555
F3 C14 1_555 1_555
F4 C14 1_555 1_555
F5 C15 1_555 1_555
F6 C15 1_555 1_555
N1 C11 1_555 1_555
N2 C19 1_555 1_555
N3 C24 1_555 1_555
C1 C2 1_555 1_555
C2 H1 1_555 1_555
C3 C2 1_555 1_555
C4 S1 1_555 1_555
C5 C1 1_555 1_555
C6 C5 1_555 1_555
H2 C6 1_555 1_555
C7 C6 1_555 1_555
C8 C7 1_555 1_555
H3 C8 1_555 1_555
C9 C8 1_555 1_555
H4 C9 1_555 1_555
C10 C5 1_555 1_555
H5 C10 1_555 1_555
C11 C7 1_555 1_555
C12 C3 1_555 1_555
C13 C12 1_555 1_555
C14 C13 1_555 1_555
C15 C14 1_555 1_555
C16 C12 1_555 1_555
C17 C4 1_555 1_555
H6 C17 1_555 1_555
H7 C17 1_555 1_555
H8 C17 1_555 1_555
C18 C16 1_555 1_555
C19 C18 1_555 1_555
C20 N2 1_555 1_555
C21 C18 1_555 1_555
H9 C21 1_555 1_555
C22 C19 1_555 1_555
H10 C22 1_555 1_555
H11 C22 1_555 1_555
H12 C22 1_555 1_555
C23 N2 1_555 1_555
H13 C23 1_555 1_555
H14 C23 1_555 1_555
H15 C23 1_555 1_555
C24 C20 1_555 1_555
C3 C4 1_555 1_555
C9 C10 1_555 1_555
C15 C16 1_555 1_555
C20 C21 1_555 1_555

#END
