
#######################################################################
#
#                 Cambridge Crystallographic Data Centre
#                                CCDC 
#
#######################################################################
#
# If this CIF has been generated from an entry in the Cambridge 
# Structural Database, then it will include bibliographic, chemical, 
# crystal, experimental, refinement or atomic coordinate data resulting 
# from the CCDC's data processing and validation procedures.
#
#######################################################################

data_IZERIP
_chemical_formula_moiety         'C17 H17 N3 O1 S1,0.5(H2 O1)'
_chemical_name_systematic        
'5-(1H-Indol-3-ylmethylene)-2-(piperidin-1-yl)-1,3-thiazol-4(5H)-one hemihydrate'
_symmetry_cell_setting           tetragonal
_symmetry_space_group_name_H-M   'I 41/a'
_symmetry_Int_Tables_number      88
_space_group_name_Hall           '-I 4ad'
loop_
_symmetry_equiv_pos_site_id
_symmetry_equiv_pos_as_xyz
1 x,y,z
2 1/2-x,-y,1/2+z
3 3/4-y,1/4+x,1/4+z
4 3/4+y,3/4-x,3/4+z
5 1/2+x,1/2+y,1/2+z
6 -x,1/2-y,z
7 1/4-y,3/4+x,3/4+z
8 1/4+y,1/4-x,1/4+z
9 -x,-y,-z
10 1/2+x,y,1/2-z
11 1/4+y,3/4-x,3/4-z
12 1/4-y,1/4+x,1/4-z
13 1/2-x,1/2-y,1/2-z
14 x,1/2+y,-z
15 3/4+y,1/4-x,1/4-z
16 3/4-y,3/4+x,3/4-z
_cell_length_a                   17.9910(12)
_cell_length_b                   17.9910(12)
_cell_length_c                   20.4515(15)
_cell_angle_alpha                90
_cell_angle_beta                 90
_cell_angle_gamma                90
_cell_volume                     6619.66
_cell_formula_units_Z            16
loop_
_atom_site_label
_atom_site_type_symbol
_atom_site_fract_x
_atom_site_fract_y
_atom_site_fract_z
S1 S 0.92970(5) 0.49559(4) 0.10520(4)
N1 N 0.88670(13) 0.32183(13) -0.05595(12)
H1 H 0.8938 0.2760 -0.0458
N2 N 0.93494(14) 0.64226(13) 0.11296(13)
N3 N 0.96372(16) 0.58089(14) 0.20854(13)
O1 O 0.90559(13) 0.67529(11) 0.00804(11)
C1 C 0.85941(16) 0.34644(15) -0.11406(15)
C2 C 0.83622(19) 0.30632(19) -0.16876(16)
H2 H 0.8380 0.2547 -0.1694
C3 C 0.8106(2) 0.3458(2) -0.22153(18)
H3 H 0.7948 0.3205 -0.2586
C4 C 0.8080(2) 0.4231(2) -0.22052(17)
H4 H 0.7910 0.4485 -0.2572
C5 C 0.8298(2) 0.46287(19) -0.16651(16)
H5 H 0.8270 0.5145 -0.1663
C6 C 0.85650(17) 0.42422(15) -0.11173(14)
C7 C 0.88341(16) 0.44583(14) -0.04766(14)
C8 C 0.90091(16) 0.38071(15) -0.01647(15)
H6 H 0.9198 0.3774 0.0257
C9 C 0.89120(16) 0.52100(16) -0.02443(15)
H7 H 0.8815 0.5576 -0.0554
C10 C 0.91004(16) 0.54626(15) 0.03433(15)
C11 C 0.91710(17) 0.62677(16) 0.04973(17)
C12 C 0.94413(16) 0.58126(17) 0.14630(16)
C13 C 0.9760(2) 0.65117(17) 0.24301(18)
H8 H 0.9723 0.6922 0.2124
H9 H 1.0256 0.6516 0.2617
C14 C 0.9191(2) 0.6606(2) 0.29676(17)
H10 H 0.8703 0.6670 0.2775
H11 H 0.9306 0.7049 0.3218
C15 C 0.9181(3) 0.5939(2) 0.34199(18)
H12 H 0.8774 0.5988 0.3728
H13 H 0.9641 0.5921 0.3666
C16 C 0.9089(2) 0.5213(2) 0.30308(17)
H14 H 0.9136 0.4794 0.3326
H15 H 0.8595 0.5198 0.2841
C17 C 0.9658(2) 0.51458(18) 0.24954(17)
H16 H 1.0149 0.5090 0.2685
H17 H 0.9554 0.4709 0.2232
O2? O 0.9466(6) 0.7703(12) 0.8806(4)
loop_
_geom_bond_atom_site_label_1
_geom_bond_atom_site_label_2
_geom_bond_site_symmetry_1
_geom_bond_site_symmetry_2
S1 C10 1_555 1_555
N1 H1 1_555 1_555
N2 C11 1_555 1_555
N3 C12 1_555 1_555
O1 C11 1_555 1_555
C1 N1 1_555 1_555
C2 C1 1_555 1_555
H2 C2 1_555 1_555
C3 C2 1_555 1_555
H3 C3 1_555 1_555
C4 C3 1_555 1_555
H4 C4 1_555 1_555
C5 C4 1_555 1_555
H5 C5 1_555 1_555
C6 C1 1_555 1_555
C7 C6 1_555 1_555
C8 N1 1_555 1_555
H6 C8 1_555 1_555
C9 C7 1_555 1_555
H7 C9 1_555 1_555
C10 C9 1_555 1_555
C11 C10 1_555 1_555
C12 S1 1_555 1_555
C13 N3 1_555 1_555
H8 C13 1_555 1_555
H9 C13 1_555 1_555
C14 C13 1_555 1_555
H10 C14 1_555 1_555
H11 C14 1_555 1_555
C15 C14 1_555 1_555
H12 C15 1_555 1_555
H13 C15 1_555 1_555
C16 C15 1_555 1_555
H14 C16 1_555 1_555
H15 C16 1_555 1_555
C17 N3 1_555 1_555
H16 C17 1_555 1_555
H17 C17 1_555 1_555
N2 C12 1_555 1_555
C5 C6 1_555 1_555
C7 C8 1_555 1_555
C16 C17 1_555 1_555

#END
