
#######################################################################
#
#                 Cambridge Crystallographic Data Centre
#                                CCDC 
#
#######################################################################
#
# If this CIF has been generated from an entry in the Cambridge 
# Structural Database, then it will include bibliographic, chemical, 
# crystal, experimental, refinement or atomic coordinate data resulting 
# from the CCDC's data processing and validation procedures.
#
#######################################################################

data_IZETEO
_chemical_formula_moiety         'C37 H11 F15 N4 O2'
_chemical_name_systematic        
5-((2-((5-((5-oxo-1,5-dihydro-2H-pyrrol-2-ylidene)(perfluorophenyl)methyl)-1H-pyrrol-2-yl)(perfluorophenyl)methylene)-2H-pyrrol-5-yl)(perfluorophenyl)methylene)-1,5-dihydro-2H-pyrrol-2-one
_symmetry_cell_setting           monoclinic
_symmetry_space_group_name_H-M   'C 2/c'
_symmetry_Int_Tables_number      15
_space_group_name_Hall           '-C 2yn'
loop_
_symmetry_equiv_pos_site_id
_symmetry_equiv_pos_as_xyz
1 x,y,z
2 -x,y,1/2-z
3 1/2+x,1/2+y,z
4 1/2-x,1/2+y,1/2-z
5 -x,-y,-z
6 x,-y,1/2+z
7 1/2-x,1/2-y,-z
8 1/2+x,1/2-y,1/2+z
_cell_length_a                   21.968(14)
_cell_length_b                   16.256(10)
_cell_length_c                   22.143(13)
_cell_angle_alpha                90
_cell_angle_beta                 116.348(11)
_cell_angle_gamma                90
_cell_volume                     7086.05
_exptl_crystal_colour            'dark purple'
_exptl_crystal_description       block
_cell_formula_units_Z            8
_chemical_properties_physical    ', Light-sensitive,Photo-sensitive'
loop_
_atom_site_label
_atom_site_type_symbol
_atom_site_fract_x
_atom_site_fract_y
_atom_site_fract_z
F1 F 0.1688(3) 0.61272(17) -0.00481(14)
F2 F 0.1535(4) 0.5782(2) -0.12889(15)
F3 F 0.1657(2) 0.4242(2) -0.16441(14)
F4 F 0.1968(3) 0.3043(2) -0.0734(2)
F5 F 0.2129(2) 0.33671(17) 0.05221(18)
F6 F 0.4179(5) 0.5392(6) 0.3947(5)
F7 F 0.5445(3) 0.5815(4) 0.4786(3)
F8 F 0.6489(4) 0.4872(5) 0.4908(3)
F9 F 0.6258(4) 0.3483(5) 0.4184(5)
F10 F 0.4967(6) 0.3060(6) 0.3302(5)
F11 F 0.06696(13) 0.34903(17) 0.21752(14)
F12 F 0.00251(16) 0.3477(2) 0.08313(15)
F13 F 0.04914(19) 0.2538(3) 0.01202(12)
F14 F 0.16006(19) 0.1601(2) 0.07623(14)
F15 F 0.22393(15) 0.15683(18) 0.21130(13)
O1 O 0.00706(13) 0.14767(17) 0.33584(12)
O2 O -0.01996(15) 0.5488(2) 0.06649(14)
N1 N 0.08208(14) 0.5180(2) 0.06454(14)
H1 H 0.0671 0.5068 0.0224
N2 N 0.28235(13) 0.43911(18) 0.20758(13)
N3 N 0.27604(13) 0.33079(17) 0.29368(13)
H2 H 0.2514 0.3521 0.2548
N4 N 0.08453(13) 0.19376(16) 0.30008(12)
H3 H 0.0609 0.1859 0.2575
C1 C 0.0421(2) 0.5424(3) 0.0945(2)
C2 C 0.0895(2) 0.5573(3) 0.16526(19)
H4 H 0.0776 0.5757 0.1983
C3 C 0.1520(2) 0.5404(3) 0.17464(18)
H5 H 0.1910 0.5448 0.2153
C4 C 0.15003(17) 0.5138(2) 0.11129(15)
C5 C 0.20157(16) 0.4917(2) 0.09744(15)
C6 C 0.27061(17) 0.4813(2) 0.15136(16)
C7 C 0.33230(18) 0.5121(2) 0.15614(17)
H6 H 0.3381 0.5424 0.1234
C8 C 0.38263(17) 0.4894(2) 0.21792(18)
H7 H 0.4285 0.5026 0.2353
C9 C 0.35148(16) 0.4424(2) 0.24980(15)
C10 C 0.38050(16) 0.3999(2) 0.31154(16)
C11 C 0.34378(16) 0.3460(2) 0.33250(15)
C12 C 0.36589(18) 0.2974(2) 0.39175(16)
H8 H 0.4096 0.2951 0.4267
C13 C 0.31069(18) 0.2549(2) 0.38750(17)
H9 H 0.3098 0.2178 0.4191
C14 C 0.25450(17) 0.2777(2) 0.32580(16)
C15 C 0.18422(16) 0.2507(2) 0.29455(16)
C16 C 0.15016(17) 0.2253(2) 0.32949(15)
C17 C 0.16994(19) 0.2300(2) 0.40103(16)
H10 H 0.2113 0.2496 0.4336
C18 C 0.11882(19) 0.2015(2) 0.41253(17)
H11 H 0.1187 0.1977 0.4544
C19 C 0.06267(19) 0.1770(2) 0.34741(17)
C20 C 0.19081(16) 0.4752(2) 0.02753(15)
C21 C 0.1767(3) 0.5342(3) -0.02027(19)
C22 C 0.1688(3) 0.5176(3) -0.0838(2)
C23 C 0.1738(3) 0.4410(3) -0.1013(2)
C24 C 0.1877(3) 0.3806(3) -0.0565(3)
C25 C 0.1960(2) 0.3982(3) 0.0066(2)
C26 C 0.4528(6) 0.4156(6) 0.3574(6)
C27 C 0.4697(8) 0.4917(9) 0.3994(5)
C28 C 0.5320(4) 0.5122(5) 0.4425(4)
C29 C 0.5845(7) 0.4626(7) 0.4476(7)
C30 C 0.5762(6) 0.3942(12) 0.4123(8)
C31 C 0.5080(6) 0.3732(5) 0.3656(6)
C32 C 0.14792(18) 0.2530(2) 0.21913(16)
C33 C 0.0919(2) 0.3009(3) 0.18433(19)
C34 C 0.0582(2) 0.3018(3) 0.1149(2)
C35 C 0.0818(3) 0.2548(4) 0.0795(2)
C36 C 0.1374(3) 0.2070(3) 0.1115(2)
C37 C 0.1702(2) 0.2063(3) 0.18093(18)
F16? F 0.4466(11) 0.5185(17) 0.4036(13)
F17? F 0.5808(12) 0.531(2) 0.4778(10)
F18? F 0.6595(5) 0.414(2) 0.4643(10)
F19? F 0.6044(10) 0.2883(19) 0.3739(13)
F20? F 0.4684(9) 0.2812(13) 0.2986(10)
C38? C 0.4517(19) 0.412(3) 0.354(2)
C39? C 0.4796(15) 0.459(3) 0.3911(17)
C40? C 0.5502(15) 0.479(3) 0.4354(15)
C41? C 0.590(2) 0.410(5) 0.428(2)
C42? C 0.5637(11) 0.351(2) 0.3802(11)
C43? C 0.500(2) 0.335(3) 0.352(2)
loop_
_geom_bond_atom_site_label_1
_geom_bond_atom_site_label_2
_geom_bond_site_symmetry_1
_geom_bond_site_symmetry_2
F1 C21 1_555 1_555
F2 C22 1_555 1_555
F3 C23 1_555 1_555
F4 C24 1_555 1_555
F5 C25 1_555 1_555
F6 C27 1_555 1_555
F7 C28 1_555 1_555
F8 C29 1_555 1_555
F9 C30 1_555 1_555
F10 C31 1_555 1_555
F11 C33 1_555 1_555
F12 C34 1_555 1_555
F13 C35 1_555 1_555
F14 C36 1_555 1_555
F15 C37 1_555 1_555
O1 C19 1_555 1_555
O2 C1 1_555 1_555
N1 H1 1_555 1_555
N2 C6 1_555 1_555
N3 H2 1_555 1_555
N4 H3 1_555 1_555
C1 N1 1_555 1_555
C2 C1 1_555 1_555
H4 C2 1_555 1_555
C3 C2 1_555 1_555
H5 C3 1_555 1_555
C4 N1 1_555 1_555
C5 C4 1_555 1_555
C6 C5 1_555 1_555
C7 C6 1_555 1_555
H6 C7 1_555 1_555
C8 C7 1_555 1_555
H7 C8 1_555 1_555
C9 N2 1_555 1_555
C10 C9 1_555 1_555
C11 N3 1_555 1_555
C12 C11 1_555 1_555
H8 C12 1_555 1_555
C13 C12 1_555 1_555
H9 C13 1_555 1_555
C14 N3 1_555 1_555
C15 C14 1_555 1_555
C16 N4 1_555 1_555
C17 C16 1_555 1_555
H10 C17 1_555 1_555
C18 C17 1_555 1_555
H11 C18 1_555 1_555
C19 N4 1_555 1_555
C20 C5 1_555 1_555
C21 C20 1_555 1_555
C22 C21 1_555 1_555
C23 C22 1_555 1_555
C24 C23 1_555 1_555
C25 C20 1_555 1_555
C26 C10 1_555 1_555
C27 C26 1_555 1_555
C28 C27 1_555 1_555
C29 C28 1_555 1_555
C30 C29 1_555 1_555
C31 C26 1_555 1_555
C32 C15 1_555 1_555
C33 C32 1_555 1_555
C34 C33 1_555 1_555
C35 C34 1_555 1_555
C36 C35 1_555 1_555
C37 C32 1_555 1_555
C3 C4 1_555 1_555
C8 C9 1_555 1_555
C10 C11 1_555 1_555
C13 C14 1_555 1_555
C15 C16 1_555 1_555
C18 C19 1_555 1_555
C24 C25 1_555 1_555
C30 C31 1_555 1_555
C36 C37 1_555 1_555

#END
