
#######################################################################
#
#                 Cambridge Crystallographic Data Centre
#                                CCDC 
#
#######################################################################
#
# If this CIF has been generated from an entry in the Cambridge 
# Structural Database, then it will include bibliographic, chemical, 
# crystal, experimental, refinement or atomic coordinate data resulting 
# from the CCDC's data processing and validation procedures.
#
#######################################################################

data_IZEVAL
_chemical_formula_moiety         'C42 H45 N3 O3'
_chemical_name_systematic        
2,2',2''-((2,4,6-Triethylbenzene-1,3,5-triyl)tris(methylene))tris(4-phenyl-4,5-dihydro-1,3-oxazole)
_symmetry_cell_setting           cubic
_symmetry_space_group_name_H-M   'I 2 3'
_symmetry_Int_Tables_number      197
_space_group_name_Hall           'I 2 2 3'
loop_
_symmetry_equiv_pos_site_id
_symmetry_equiv_pos_as_xyz
1 x,y,z
2 -x,-y,z
3 -x,y,-z
4 x,-y,-z
5 z,x,y
6 z,-x,-y
7 -z,-x,y
8 -z,x,-y
9 y,z,x
10 -y,z,-x
11 y,-z,-x
12 -y,-z,x
13 1/2+x,1/2+y,1/2+z
14 1/2-x,1/2-y,1/2+z
15 1/2-x,1/2+y,1/2-z
16 1/2+x,1/2-y,1/2-z
17 1/2+z,1/2+x,1/2+y
18 1/2+z,1/2-x,1/2-y
19 1/2-z,1/2-x,1/2+y
20 1/2-z,1/2+x,1/2-y
21 1/2+y,1/2+z,1/2+x
22 1/2-y,1/2+z,1/2-x
23 1/2+y,1/2-z,1/2-x
24 1/2-y,1/2-z,1/2+x
_cell_length_a                   19.7093(3)
_cell_length_b                   19.7093(3)
_cell_length_c                   19.7093(3)
_cell_angle_alpha                90
_cell_angle_beta                 90
_cell_angle_gamma                90
_cell_volume                     7656.21
_exptl_crystal_colour            colorless
_cell_formula_units_Z            8
loop_
_atom_site_label
_atom_site_type_symbol
_atom_site_fract_x
_atom_site_fract_y
_atom_site_fract_z
O1 O -0.13852(12) -0.35061(12) -0.16719(12)
N1 N -0.17789(15) -0.37084(14) -0.06187(14)
C1 C -0.12805(15) -0.20850(15) -0.11681(14)
C2 C -0.18598(14) -0.17447(15) -0.09331(14)
C3 C -0.22258(17) -0.19862(17) -0.02972(15)
H1 H -0.2155 -0.2475 -0.0243
H2 H -0.2714 -0.1907 -0.0349
C4 C -0.10411(15) -0.27232(16) -0.07966(17)
H3 H -0.0558 -0.2795 -0.0891
H4 H -0.1092 -0.2655 -0.0307
C5 C -0.14260(15) -0.33390(15) -0.10017(15)
C6 C -0.17819(19) -0.4119(2) -0.1755(2)
H5 H -0.1495 -0.4498 -0.1901
H6 H -0.2144 -0.4053 -0.2090
C7 C -0.20802(16) -0.42508(17) -0.1042(2)
H7 H -0.1923 -0.4698 -0.0876
C8 C -0.28460(15) -0.42267(14) -0.10210(16)
C9 C -0.32114(18) -0.48059(17) -0.08735(18)
H8 H -0.2981 -0.5214 -0.0783
C10 C -0.3915(2) -0.47918(19) -0.0857(2)
H9 H -0.4158 -0.5189 -0.0753
C11 C -0.42535(19) -0.4207(2) -0.0992(2)
H10 H -0.4730 -0.4200 -0.0985
C12 C -0.39007(19) -0.3629(2) -0.1139(2)
H11 H -0.4136 -0.3223 -0.1227
C13 C -0.31977(18) -0.36345(18) -0.11602(19)
H12 H -0.2959 -0.3236 -0.1269
C14 C -0.1973(2) -0.1620(2) 0.03389(18)
H13 H -0.2215 -0.1789 0.0733
H14 H -0.2053 -0.1136 0.0292
H15 H -0.1491 -0.1702 0.0395
O1D O -0.16719(12) -0.13852(12) -0.35061(12)
O1H O -0.35061(12) -0.16719(12) -0.13852(12)
N1D N -0.06187(14) -0.17789(15) -0.37084(14)
N1H N -0.37084(14) -0.06187(14) -0.17789(15)
C1D C -0.11681(14) -0.12805(15) -0.20850(15)
C1H C -0.20850(15) -0.11681(14) -0.12805(15)
C2D C -0.09331(14) -0.18598(14) -0.17447(15)
C2H C -0.17447(15) -0.09331(14) -0.18598(14)
C3D C -0.02972(15) -0.22258(17) -0.19862(17)
C3H C -0.19862(17) -0.02972(15) -0.22258(17)
H1D H -0.0243 -0.2155 -0.2475
H1H H -0.2475 -0.0243 -0.2155
H2D H -0.0349 -0.2714 -0.1907
H2H H -0.1907 -0.0349 -0.2714
C4D C -0.07966(17) -0.10411(15) -0.27232(16)
C4H C -0.27232(16) -0.07966(17) -0.10411(15)
H3D H -0.0891 -0.0558 -0.2795
H3H H -0.2795 -0.0891 -0.0558
H4D H -0.0307 -0.1092 -0.2655
H4H H -0.2655 -0.0307 -0.1092
C5D C -0.10017(15) -0.14260(15) -0.33390(15)
C5H C -0.33390(15) -0.10017(15) -0.14260(15)
C6D C -0.1755(2) -0.17819(19) -0.4119(2)
C6H C -0.4119(2) -0.1755(2) -0.17819(19)
H5D H -0.1901 -0.1495 -0.4498
H5H H -0.4498 -0.1901 -0.1495
H6D H -0.2090 -0.2144 -0.4053
H6H H -0.4053 -0.2090 -0.2144
C7D C -0.1042(2) -0.20802(16) -0.42508(17)
C7H C -0.42508(17) -0.1042(2) -0.20802(16)
H7D H -0.0876 -0.1923 -0.4698
H7H H -0.4698 -0.0876 -0.1923
C8D C -0.10210(16) -0.28460(15) -0.42267(14)
C8H C -0.42267(14) -0.10210(16) -0.28460(15)
C9D C -0.08735(18) -0.32114(18) -0.48059(17)
C9H C -0.48059(17) -0.08735(18) -0.32114(18)
H8D H -0.0783 -0.2981 -0.5214
H8H H -0.5214 -0.0783 -0.2981
C10D C -0.0857(2) -0.3915(2) -0.47918(19)
C10H C -0.47918(19) -0.0857(2) -0.3915(2)
H9D H -0.0753 -0.4158 -0.5189
H9H H -0.5189 -0.0753 -0.4158
C11D C -0.0992(2) -0.42535(19) -0.4207(2)
C11H C -0.4207(2) -0.0992(2) -0.42535(19)
H10D H -0.0985 -0.4730 -0.4200
H10H H -0.4200 -0.0985 -0.4730
C12D C -0.1139(2) -0.39007(19) -0.3629(2)
C12H C -0.3629(2) -0.1139(2) -0.39007(19)
H11D H -0.1227 -0.4136 -0.3223
H11H H -0.3223 -0.1227 -0.4136
C13D C -0.11602(19) -0.31977(18) -0.36345(18)
C13H C -0.36345(18) -0.11602(19) -0.31977(18)
H12D H -0.1269 -0.2959 -0.3236
H12H H -0.3236 -0.1269 -0.2959
C14D C 0.03389(18) -0.1973(2) -0.1620(2)
C14H C -0.1620(2) 0.03389(18) -0.1973(2)
H13D H 0.0733 -0.2215 -0.1789
H13H H -0.1789 0.0733 -0.2215
H14D H 0.0292 -0.2053 -0.1136
H14H H -0.1136 0.0292 -0.2053
H15D H 0.0395 -0.1491 -0.1702
H15H H -0.1702 0.0395 -0.1491
loop_
_geom_bond_atom_site_label_1
_geom_bond_atom_site_label_2
_geom_bond_site_symmetry_1
_geom_bond_site_symmetry_2
O1 C5 1_555 1_555
N1 C5 1_555 1_555
C1 C2 1_555 1_555
C2 C3 1_555 1_555
C3 H1 1_555 1_555
H2 C3 1_555 1_555
C4 C1 1_555 1_555
H3 C4 1_555 1_555
H4 C4 1_555 1_555
C5 C4 1_555 1_555
C6 O1 1_555 1_555
H5 C6 1_555 1_555
H6 C6 1_555 1_555
C7 N1 1_555 1_555
H7 C7 1_555 1_555
C8 C7 1_555 1_555
C9 C8 1_555 1_555
H8 C9 1_555 1_555
C10 C9 1_555 1_555
H9 C10 1_555 1_555
C11 C10 1_555 1_555
H10 C11 1_555 1_555
C12 C11 1_555 1_555
H11 C12 1_555 1_555
C13 C8 1_555 1_555
H12 C13 1_555 1_555
C14 C3 1_555 1_555
H13 C14 1_555 1_555
H14 C14 1_555 1_555
H15 C14 1_555 1_555
O1D C5D 1_555 1_555
O1H C5H 1_555 1_555
N1D C5D 1_555 1_555
N1H C5H 1_555 1_555
C1D C2D 1_555 1_555
C1H C2 1_555 1_555
C2D C1 1_555 1_555
C2H C1D 1_555 1_555
C3D C2D 1_555 1_555
C3H C2H 1_555 1_555
H1D C3D 1_555 1_555
H1H C3H 1_555 1_555
H2D C3D 1_555 1_555
H2H C3H 1_555 1_555
C4D C1D 1_555 1_555
C4H C1H 1_555 1_555
H3D C4D 1_555 1_555
H3H C4H 1_555 1_555
H4D C4D 1_555 1_555
H4H C4H 1_555 1_555
C5D C4D 1_555 1_555
C5H C4H 1_555 1_555
C6D O1D 1_555 1_555
C6H O1H 1_555 1_555
H5D C6D 1_555 1_555
H5H C6H 1_555 1_555
H6D C6D 1_555 1_555
H6H C6H 1_555 1_555
C7D N1D 1_555 1_555
C7H N1H 1_555 1_555
H7D C7D 1_555 1_555
H7H C7H 1_555 1_555
C8D C7D 1_555 1_555
C8H C7H 1_555 1_555
C9D C8D 1_555 1_555
C9H C8H 1_555 1_555
H8D C9D 1_555 1_555
H8H C9H 1_555 1_555
C10D C9D 1_555 1_555
C10H C9H 1_555 1_555
H9D C10D 1_555 1_555
H9H C10H 1_555 1_555
C11D C10D 1_555 1_555
C11H C10H 1_555 1_555
H10D C11D 1_555 1_555
H10H C11H 1_555 1_555
C12D C11D 1_555 1_555
C12H C11H 1_555 1_555
H11D C12D 1_555 1_555
H11H C12H 1_555 1_555
C13D C8D 1_555 1_555
C13H C8H 1_555 1_555
H12D C13D 1_555 1_555
H12H C13H 1_555 1_555
C14D C3D 1_555 1_555
C14H C3H 1_555 1_555
H13D C14D 1_555 1_555
H13H C14H 1_555 1_555
H14D C14D 1_555 1_555
H14H C14H 1_555 1_555
H15D C14D 1_555 1_555
H15H C14H 1_555 1_555
C6 C7 1_555 1_555
C12 C13 1_555 1_555
C1H C2H 1_555 1_555
C6D C7D 1_555 1_555
C6H C7H 1_555 1_555
C12D C13D 1_555 1_555
C12H C13H 1_555 1_555

#END
