
#######################################################################
#
#                 Cambridge Crystallographic Data Centre
#                                CCDC 
#
#######################################################################
#
# If this CIF has been generated from an entry in the Cambridge 
# Structural Database, then it will include bibliographic, chemical, 
# crystal, experimental, refinement or atomic coordinate data resulting 
# from the CCDC's data processing and validation procedures.
#
#######################################################################

data_IZEVAK
_chemical_formula_moiety         'C14 H16 N3 O3 1+,Br1 1-'
_chemical_name_systematic        
'2-(3-Carboxypropyl)-6-(4-hydroxyphenyl)-3H-pyridazin-3-ylidene-ammonium bromide'
_chemical_properties_biological  'potent inhibitor of GABA!A$ receptor'
_symmetry_cell_setting           monoclinic
_symmetry_space_group_name_H-M   'P 21/n'
_symmetry_Int_Tables_number      14
_space_group_name_Hall           '-P 2yn'
loop_
_symmetry_equiv_pos_site_id
_symmetry_equiv_pos_as_xyz
1 x,y,z
2 1/2+x,1/2-y,1/2+z
3 -x,-y,-z
4 1/2-x,1/2+y,1/2-z
_cell_length_a                   7.6258(4)
_cell_length_b                   19.309(2)
_cell_length_c                   10.6700(7)
_cell_angle_alpha                90
_cell_angle_beta                 108.283(5)
_cell_angle_gamma                90
_cell_volume                     1491.81
_exptl_crystal_colour            colorless
_exptl_crystal_description       platelet
_cell_formula_units_Z            4
_exptl_crystal_recrystallization_method methanol
loop_
_atom_site_label
_atom_site_type_symbol
_atom_site_fract_x
_atom_site_fract_y
_atom_site_fract_z
Br1 Br -0.34954(7) -0.15388(2) 0.09241(4)
O1 O 0.5416(4) -0.1813(1) 0.7834(3)
O2 O -0.1217(4) 0.2188(1) -0.0377(3)
O3 O -0.1517(5) 0.1880(1) -0.2447(3)
N1 N 0.1641(5) 0.0445(2) 0.3497(3)
N2 N 0.0847(5) 0.1011(2) 0.2752(3)
N3 N -0.0372(5) 0.2119(2) 0.2460(3)
C1 C 0.4595(6) -0.1245(2) 0.7109(4)
C2 C 0.3952(7) -0.1304(2) 0.5735(4)
C3 C 0.3115(7) -0.0736(2) 0.5001(4)
C4 C 0.2900(5) -0.0117(2) 0.5577(3)
C5 C 0.3579(6) -0.0070(2) 0.6944(4)
C6 C 0.4431(6) -0.0631(2) 0.7703(4)
C7 C 0.0383(6) 0.1597(2) 0.3236(4)
C8 C 0.0743(7) 0.1634(2) 0.4625(4)
C9 C 0.1538(7) 0.1093(2) 0.5373(4)
C10 C 0.2006(6) 0.0491(2) 0.4781(4)
C11 C 0.0638(6) 0.0936(2) 0.1331(3)
C12 C -0.1339(6) 0.0823(2) 0.0472(4)
C13 C -0.1587(6) 0.0982(2) -0.0969(4)
C14 C -0.1423(6) 0.1743(2) -0.1203(4)
H1 H 0.426(7) -0.178(3) 0.529(5)
H2 H 0.274(8) -0.073(3) 0.413(5)
H3 H 0.353(8) 0.034(3) 0.735(5)
H4 H 0.495(7) -0.054(3) 0.869(5)
H5 H 0.563(9) -0.177(3) 0.869(6)
H6 H 0.044(6) 0.208(2) 0.499(4)
H7 H 0.171(9) 0.108(3) 0.620(7)
H8 H -0.052(7) 0.216(3) 0.170(5)
H9 H -0.084(8) 0.254(3) 0.285(5)
H10 H 0.160(7) 0.056(3) 0.129(4)
H11 H 0.113(6) 0.135(2) 0.105(4)
H12 H -0.170(7) 0.035(3) 0.057(5)
H13 H -0.225(8) 0.111(3) 0.073(6)
H14 H -0.057(7) 0.069(3) -0.133(5)
H15 H -0.281(8) 0.085(3) -0.145(5)
H16 H -0.116(9) 0.236(4) -0.260(7)
loop_
_geom_bond_atom_site_label_1
_geom_bond_atom_site_label_2
_geom_bond_site_symmetry_1
_geom_bond_site_symmetry_2
O1 C1 1_555 1_555
O2 C14 1_555 1_555
O3 C14 1_555 1_555
N1 N2 1_555 1_555
N2 C7 1_555 1_555
N3 C7 1_555 1_555
C1 C2 1_555 1_555
C2 C3 1_555 1_555
C3 C4 1_555 1_555
C4 C5 1_555 1_555
C5 C6 1_555 1_555
C6 C1 1_555 1_555
C7 C8 1_555 1_555
C8 C9 1_555 1_555
C9 C10 1_555 1_555
C10 N1 1_555 1_555
C11 N2 1_555 1_555
C12 C11 1_555 1_555
C13 C12 1_555 1_555
C14 C13 1_555 1_555
H1 C2 1_555 1_555
H2 C3 1_555 1_555
H3 C5 1_555 1_555
H4 C6 1_555 1_555
H5 O1 1_555 1_555
H6 C8 1_555 1_555
H7 C9 1_555 1_555
H8 N3 1_555 1_555
H9 N3 1_555 1_555
H10 C11 1_555 1_555
H11 C11 1_555 1_555
H12 C12 1_555 1_555
H13 C12 1_555 1_555
H14 C13 1_555 1_555
H15 C13 1_555 1_555
H16 O3 1_555 1_555
C4 C10 1_555 1_555

#END
