
#######################################################################
#
#                 Cambridge Crystallographic Data Centre
#                                CCDC 
#
#######################################################################
#
# If this CIF has been generated from an entry in the Cambridge 
# Structural Database, then it will include bibliographic, chemical, 
# crystal, experimental, refinement or atomic coordinate data resulting 
# from the CCDC's data processing and validation procedures.
#
#######################################################################

data_IZEYAO
_chemical_formula_moiety         'C6 H19 B10 I1 O1'
_chemical_name_systematic        
1-(1-Ethoxyethyl)-9-iodo-1,2-dicarba-closo-dodecaborane
_symmetry_cell_setting           orthorhombic
_symmetry_space_group_name_H-M   'P 21 21 21'
_symmetry_Int_Tables_number      19
_space_group_name_Hall           'P 2ac 2ab'
loop_
_symmetry_equiv_pos_site_id
_symmetry_equiv_pos_as_xyz
1 x,y,z
2 1/2-x,-y,1/2+z
3 -x,1/2+y,1/2-z
4 1/2+x,1/2-y,-z
_cell_length_a                   7.1977(4)
_cell_length_b                   9.1857(5)
_cell_length_c                   22.8755(12)
_cell_angle_alpha                90
_cell_angle_beta                 90
_cell_angle_gamma                90
_cell_volume                     1512.43
_exptl_crystal_colour            colorless
_exptl_crystal_description       block
_cell_formula_units_Z            4
loop_
_atom_site_label
_atom_site_type_symbol
_atom_site_fract_x
_atom_site_fract_y
_atom_site_fract_z
I1 I 0.44072(2) 0.01921(2) 0.212337(7)
O1 O -0.1157(3) -0.5571(2) 0.10189(8)
C1 C 0.0534(4) -0.3524(2) 0.13491(9)
C2 C -0.0496(4) -0.2730(3) 0.07922(10)
H1 H -0.1506 -0.3332 0.0524
C3 C -0.0061(4) -0.5100(3) 0.14928(10)
H2 H -0.0851 -0.5072 0.1841
C4 C 0.1553(5) -0.6099(3) 0.16173(15)
H3 H 0.1096 -0.7057 0.1705
H4 H 0.2242 -0.5734 0.1945
H5 H 0.2348 -0.6143 0.1281
C5 C -0.2464(5) -0.6682(4) 0.11549(16)
H6 H -0.3277 -0.6353 0.1466
H7 H -0.1814 -0.7544 0.1290
C6 C -0.3573(7) -0.7043(4) 0.06360(19)
H8 H -0.4474 -0.7774 0.0735
H9 H -0.2772 -0.7407 0.0334
H10 H -0.4200 -0.6186 0.0499
B1 B -0.1183(4) -0.2242(3) 0.14825(12)
H11 H -0.2544 -0.2483 0.1678
B2 B 0.0911(4) -0.2297(3) 0.18906(11)
H12 H 0.0912 -0.2568 0.2359
B3 B 0.2758(4) -0.2871(3) 0.14210(13)
H13 H 0.3946 -0.3502 0.1587
B4 B 0.1795(4) -0.3209(3) 0.07236(12)
H14 H 0.2325 -0.4074 0.0436
B5 B -0.0912(4) -0.0936(3) 0.09152(13)
H15 H -0.2106 -0.0321 0.0745
B6 B 0.0030(4) -0.0618(3) 0.16190(12)
H16 H -0.0537 0.0219 0.1913
B7 B 0.2445(4) -0.1002(3) 0.15769(11)
B8 B 0.3016(4) -0.1566(3) 0.08546(12)
H17 H 0.4372 -0.1342 0.0652
B9 B 0.0925(4) -0.1531(3) 0.04493(12)
H18 H 0.0912 -0.1299 -0.0023
B10 B 0.1331(4) -0.0158(3) 0.09765(11)
H19 H 0.1602 0.0979 0.0853
loop_
_geom_bond_atom_site_label_1
_geom_bond_atom_site_label_2
_geom_bond_site_symmetry_1
_geom_bond_site_symmetry_2
I1 B7 1_555 1_555
O1 C3 1_555 1_555
C1 C2 1_555 1_555
C2 H1 1_555 1_555
C3 C1 1_555 1_555
H2 C3 1_555 1_555
C4 C3 1_555 1_555
H3 C4 1_555 1_555
H4 C4 1_555 1_555
H5 C4 1_555 1_555
C5 O1 1_555 1_555
H6 C5 1_555 1_555
H7 C5 1_555 1_555
C6 C5 1_555 1_555
H8 C6 1_555 1_555
H9 C6 1_555 1_555
H10 C6 1_555 1_555
B1 C1 1_555 1_555
H11 B1 1_555 1_555
B2 C1 1_555 1_555
H12 B2 1_555 1_555
B3 C1 1_555 1_555
H13 B3 1_555 1_555
B4 C1 1_555 1_555
H14 B4 1_555 1_555
B5 C2 1_555 1_555
H15 B5 1_555 1_555
B6 B1 1_555 1_555
H16 B6 1_555 1_555
B7 B2 1_555 1_555
B8 B3 1_555 1_555
H17 B8 1_555 1_555
B9 C2 1_555 1_555
H18 B9 1_555 1_555
B10 B5 1_555 1_555
H19 B10 1_555 1_555
C2 B1 1_555 1_555
C2 B4 1_555 1_555
B1 B2 1_555 1_555
B1 B5 1_555 1_555
B2 B3 1_555 1_555
B2 B6 1_555 1_555
B3 B4 1_555 1_555
B3 B7 1_555 1_555
B4 B8 1_555 1_555
B4 B9 1_555 1_555
B5 B6 1_555 1_555
B5 B9 1_555 1_555
B6 B7 1_555 1_555
B6 B10 1_555 1_555
B7 B8 1_555 1_555
B7 B10 1_555 1_555
B8 B9 1_555 1_555
B8 B10 1_555 1_555
B9 B10 1_555 1_555

#END
