
#######################################################################
#
#                 Cambridge Crystallographic Data Centre
#                                CCDC 
#
#######################################################################
#
# If this CIF has been generated from an entry in the Cambridge 
# Structural Database, then it will include bibliographic, chemical, 
# crystal, experimental, refinement or atomic coordinate data resulting 
# from the CCDC's data processing and validation procedures.
#
#######################################################################

data_IZEZOE
_chemical_formula_moiety         'C21 H18 N2 O6 S1'
_chemical_name_systematic        
2-((2-acetyl-6-methoxy-3-methyl-1,1-dioxido-2H-1,2-benzothiazin-4-yl)methyl)-1H-isoindole-1,3(2H)-dione
_symmetry_cell_setting           monoclinic
_symmetry_space_group_name_H-M   'P 21'
_symmetry_Int_Tables_number      4
_space_group_name_Hall           'P 2yb'
loop_
_symmetry_equiv_pos_site_id
_symmetry_equiv_pos_as_xyz
1 x,y,z
2 -x,1/2+y,-z
_cell_length_a                   13.8561(2)
_cell_length_b                   18.2190(4)
_cell_length_c                   15.6092(2)
_cell_angle_alpha                90
_cell_angle_beta                 95.4553(16)
_cell_angle_gamma                90
_cell_volume                     3922.61
_exptl_crystal_colour            colorless
_exptl_crystal_description       prismatic
_cell_formula_units_Z            8
loop_
_atom_site_label
_atom_site_type_symbol
_atom_site_fract_x
_atom_site_fract_y
_atom_site_fract_z
S1 S 0.07495(5) 0.13061(4) 0.13976(4)
O1 O 0.02722(18) 0.09897(14) 0.06410(16)
O2 O 0.06356(18) 0.09737(14) 0.22091(15)
O3 O 0.34834(17) 0.14820(14) 0.17825(15)
O4 O 0.09748(18) 0.18383(13) -0.16267(14)
O5 O 0.08847(18) 0.42698(13) -0.09616(13)
O6 O -0.0465(2) 0.43680(14) 0.14188(16)
N1 N 0.19195(18) 0.13833(14) 0.12560(15)
N2 N 0.10302(16) 0.30101(13) -0.10765(13)
C1 C 0.2113(2) 0.18195(18) 0.05240(18)
C2 C 0.16124(19) 0.24401(16) 0.03402(16)
C3 C 0.08713(18) 0.27114(16) 0.08783(15)
C4 C 0.0451(2) 0.22293(16) 0.14329(16)
C5 C 0.2729(2) 0.11714(18) 0.18463(19)
C6 C 0.2613(3) 0.0555(2) 0.2452(2)
H1 H 0.3236 0.0422 0.2732
H2 H 0.2335 0.0141 0.2139
H3 H 0.2194 0.0704 0.2875
C7 C 0.2849(3) 0.1496(2) -0.0016(2)
H4 H 0.2605 0.1516 -0.0612
H5 H 0.2970 0.0994 0.0150
H6 H 0.3441 0.1771 0.0070
C8 C 0.18417(19) 0.29076(17) -0.04177(17)
H7 H 0.2059 0.3386 -0.0205
H8 H 0.2374 0.2682 -0.0683
C9 C 0.0704(2) 0.24683(17) -0.16620(17)
C10 C 0.0009(2) 0.28365(18) -0.23081(17)
C11 C -0.0526(2) 0.2558(2) -0.30245(19)
H9 H -0.0500 0.2065 -0.3173
C12 C -0.1109(2) 0.3057(3) -0.3514(2)
H10 H -0.1475 0.2892 -0.4006
C13 C -0.1159(3) 0.3788(3) -0.3292(2)
H11 H -0.1569 0.4101 -0.3627
C14 C -0.0608(2) 0.4062(2) -0.2576(2)
H12 H -0.0629 0.4556 -0.2427
C15 C -0.0028(2) 0.35691(18) -0.20933(17)
C16 C 0.0655(2) 0.36971(17) -0.13189(17)
C17 C 0.05757(19) 0.34433(17) 0.08672(16)
H13 H 0.0840 0.3778 0.0505
C18 C -0.0123(2) 0.36731(17) 0.14052(17)
C19 C -0.0503(2) 0.31885(19) 0.19643(19)
H14 H -0.0946 0.3354 0.2332
C20 C -0.0230(2) 0.24626(19) 0.19803(17)
H15 H -0.0494 0.2133 0.2349
C21 C -0.0181(4) 0.4885(2) 0.0811(3)
H16 H 0.0512 0.4940 0.0878
H17 H -0.0480 0.5350 0.0903
H18 H -0.0381 0.4715 0.0239
S2 S 0.45679(5) 0.34373(5) 0.95194(5)
O7 O 0.39865(16) 0.34322(16) 1.02302(16)
O8 O 0.41081(19) 0.36088(15) 0.86894(16)
O9 O 0.66338(18) 0.47728(13) 0.93522(15)
O10 O 0.5352(2) 0.34346(15) 1.25695(16)
O11 O 0.7105(2) 0.13877(17) 1.20867(15)
O12 O 0.6548(2) 0.06101(16) 0.95475(18)
N3 N 0.54834(19) 0.40128(15) 0.97635(16)
N4 N 0.63001(18) 0.24895(16) 1.21380(15)
C22 C 0.6079(2) 0.38207(18) 1.05402(18)
C23 C 0.6281(2) 0.31171(18) 1.07248(17)
C24 C 0.5972(2) 0.25147(18) 1.01326(17)
C25 C 0.5207(2) 0.26211(17) 0.94913(17)
C26 C 0.5802(2) 0.45936(18) 0.92435(19)
C27 C 0.5079(3) 0.4963(2) 0.8628(2)
H19 H 0.5302 0.5448 0.8509
H20 H 0.4471 0.4994 0.8874
H21 H 0.4996 0.4686 0.8103
C28 C 0.6361(3) 0.4467(2) 1.1117(2)
H22 H 0.6214 0.4360 1.1693
H23 H 0.6006 0.4894 1.0909
H24 H 0.7044 0.4559 1.1116
C29 C 0.6860(2) 0.2917(2) 1.15623(19)
H25 H 0.7424 0.2636 1.1438
H26 H 0.7087 0.3364 1.1854
C30 C 0.5589(2) 0.28002(19) 1.26071(18)
C31 C 0.5258(2) 0.2191(2) 1.31388(17)
C32 C 0.4542(2) 0.2189(2) 1.3706(2)
H27 H 0.4190 0.2608 1.3811
C33 C 0.4383(3) 0.1525(3) 1.4106(2)
H28 H 0.3910 0.1500 1.4489
C34 C 0.4906(3) 0.0902(3) 1.3952(2)
H29 H 0.4772 0.0466 1.4227
C35 C 0.5632(3) 0.0916(2) 1.3388(2)
H30 H 0.5996 0.0501 1.3288
C36 C 0.5781(2) 0.15722(19) 1.29905(17)
C37 C 0.6485(2) 0.1763(2) 1.23575(18)
C38 C 0.6431(2) 0.18278(19) 1.01592(18)
H31 H 0.6935 0.1732 1.0581
C39 C 0.6138(3) 0.1290(2) 0.9562(2)
C40 C 0.5396(3) 0.1422(2) 0.8920(2)
H32 H 0.5217 0.1061 0.8514
C41 C 0.4928(2) 0.2085(2) 0.88860(19)
H33 H 0.4426 0.2176 0.8460
C42 C 0.7321(4) 0.0426(3) 1.0188(3)
H34 H 0.7845 0.0766 1.0158
H35 H 0.7544 -0.0062 1.0087
H36 H 0.7090 0.0450 1.0748
S3 S 0.27308(6) 0.17581(5) 0.65434(4)
O13 O 0.33846(17) 0.17151(16) 0.58877(15)
O14 O 0.3080(2) 0.15462(17) 0.73936(15)
O15 O 0.0337(2) 0.08124(16) 0.65715(19)
O16 O 0.21107(19) 0.20883(14) 0.34069(16)
O17 O 0.0260(2) 0.40641(16) 0.39637(15)
O18 O 0.1126(2) 0.47219(14) 0.64120(15)
N5 N 0.17437(19) 0.12912(17) 0.62112(15)
N6 N 0.11427(19) 0.29933(15) 0.38962(14)
C43 C 0.1245(2) 0.15452(19) 0.54094(19)
C44 C 0.1155(2) 0.22691(17) 0.52535(17)
C45 C 0.1529(2) 0.28250(17) 0.58807(16)
C46 C 0.2235(2) 0.26342(18) 0.65500(16)
C47 C 0.1201(3) 0.08333(18) 0.6735(2)
C48 C 0.1755(3) 0.0368(2) 0.7405(3)
H37 H 0.1877 0.0644 0.7928
H38 H 0.2361 0.0223 0.7205
H39 H 0.1383 -0.0061 0.7512
C49 C 0.0912(3) 0.0931(2) 0.4805(3)
H40 H 0.0218 0.0943 0.4698
H41 H 0.1109 0.0469 0.5060
H42 H 0.1196 0.0989 0.4272
C50 C 0.0591(2) 0.2532(2) 0.44297(19)
H43 H 0.0359 0.2107 0.4096
H44 H 0.0029 0.2804 0.4578
C51 C 0.1847(2) 0.27190(18) 0.33917(17)
C52 C 0.2144(2) 0.33464(18) 0.28709(17)
C53 C 0.2825(2) 0.3387(2) 0.2285(2)
H45 H 0.3180 0.2977 0.2149
C54 C 0.2958(3) 0.4061(2) 0.1907(2)
H46 H 0.3412 0.4105 0.1509
C55 C 0.2430(3) 0.4668(2) 0.2110(2)
H47 H 0.2548 0.5116 0.1854
C56 C 0.1722(3) 0.4626(2) 0.2690(2)
H48 H 0.1357 0.5032 0.2820
C57 C 0.1596(3) 0.39506(18) 0.30582(18)
C58 C 0.0913(3) 0.37225(19) 0.36861(18)
C59 C 0.1195(2) 0.35376(18) 0.58687(17)
H49 H 0.0734 0.3684 0.5430
C60 C 0.1531(2) 0.40486(19) 0.64994(18)
C61 C 0.2217(2) 0.3841(2) 0.71641(19)
H50 H 0.2440 0.4175 0.7588
C62 C 0.2562(2) 0.3127(2) 0.71838(18)
H51 H 0.3017 0.2979 0.7627
C63 C 0.1399(3) 0.5258(2) 0.7055(2)
H52 H 0.1269 0.5074 0.7609
H53 H 0.1034 0.5700 0.6932
H54 H 0.2079 0.5362 0.7058
S4 S 0.65744(6) 0.42423(5) 0.46879(5)
O19 O 0.69600(18) 0.45554(15) 0.54805(17)
O20 O 0.6709(2) 0.46127(18) 0.39049(18)
O21 O 0.38488(18) 0.40144(17) 0.41823(16)
O22 O 0.6151(2) 0.36805(15) 0.76078(16)
O23 O 0.6871(2) 0.13142(14) 0.69658(15)
O24 O 0.8042(2) 0.12466(19) 0.45464(17)
N7 N 0.53961(18) 0.40926(16) 0.47601(15)
N8 N 0.63780(18) 0.25204(14) 0.70767(14)
C64 C 0.5195(2) 0.36099(18) 0.54495(18)
C65 C 0.57604(19) 0.30191(17) 0.56456(17)
C66 C 0.65556(19) 0.28080(18) 0.51287(16)
C67 C 0.6952(2) 0.3339(2) 0.46152(17)
C68 C 0.4608(2) 0.4330(2) 0.4168(2)
C69 C 0.4743(3) 0.4966(2) 0.3599(3)
H55 H 0.5074 0.4809 0.3117
H56 H 0.5121 0.5335 0.3915
H57 H 0.4122 0.5165 0.3396
C70 C 0.4373(2) 0.3845(2) 0.5954(2)
H58 H 0.3847 0.3502 0.5856
H59 H 0.4156 0.4325 0.5770
H60 H 0.4591 0.3856 0.6556
C71 C 0.5573(2) 0.25312(19) 0.63941(18)
H61 H 0.4992 0.2699 0.6635
H62 H 0.5455 0.2035 0.6185
C72 C 0.6570(2) 0.31028(19) 0.76483(18)
C73 C 0.7353(2) 0.28363(19) 0.82962(18)
C74 C 0.7823(2) 0.3194(2) 0.89948(19)
H63 H 0.7683 0.3678 0.9124
C75 C 0.8514(2) 0.2793(3) 0.9493(2)
H64 H 0.8839 0.3012 0.9976
C76 C 0.8739(2) 0.2072(3) 0.9297(2)
H65 H 0.9209 0.1820 0.9646
C77 C 0.8266(2) 0.1728(2) 0.8584(2)
H66 H 0.8418 0.1249 0.8440
C78 C 0.7563(2) 0.21215(19) 0.80947(18)
C79 C 0.6925(2) 0.19025(18) 0.73234(18)
C80 C 0.6916(2) 0.20985(19) 0.51149(18)
H67 H 0.6673 0.1738 0.5458
C81 C 0.7647(3) 0.1923(2) 0.4584(2)
C82 C 0.7989(2) 0.2454(3) 0.4051(2)
H68 H 0.8447 0.2328 0.3678
C83 C 0.7658(2) 0.3159(2) 0.4070(2)
H69 H 0.7901 0.3515 0.3722
C84 C 0.7837(5) 0.0702(3) 0.5152(3)
H70 H 0.8007 0.0882 0.5724
H71 H 0.8208 0.0268 0.5060
H72 H 0.7158 0.0586 0.5081
loop_
_geom_bond_atom_site_label_1
_geom_bond_atom_site_label_2
_geom_bond_site_symmetry_1
_geom_bond_site_symmetry_2
S1 O1 1_555 1_555
O2 S1 1_555 1_555
O3 C5 1_555 1_555
O4 C9 1_555 1_555
O5 C16 1_555 1_555
O6 C18 1_555 1_555
N1 S1 1_555 1_555
N2 C8 1_555 1_555
C1 N1 1_555 1_555
C2 C1 1_555 1_555
C3 C2 1_555 1_555
C4 S1 1_555 1_555
C5 N1 1_555 1_555
C6 C5 1_555 1_555
H1 C6 1_555 1_555
H2 C6 1_555 1_555
H3 C6 1_555 1_555
C7 C1 1_555 1_555
H4 C7 1_555 1_555
H5 C7 1_555 1_555
H6 C7 1_555 1_555
C8 C2 1_555 1_555
H7 C8 1_555 1_555
H8 C8 1_555 1_555
C9 N2 1_555 1_555
C10 C9 1_555 1_555
C11 C10 1_555 1_555
H9 C11 1_555 1_555
C12 C11 1_555 1_555
H10 C12 1_555 1_555
C13 C12 1_555 1_555
H11 C13 1_555 1_555
C14 C13 1_555 1_555
H12 C14 1_555 1_555
C15 C10 1_555 1_555
C16 N2 1_555 1_555
C17 C3 1_555 1_555
H13 C17 1_555 1_555
C18 C17 1_555 1_555
C19 C18 1_555 1_555
H14 C19 1_555 1_555
C20 C4 1_555 1_555
H15 C20 1_555 1_555
C21 O6 1_555 1_555
H16 C21 1_555 1_555
H17 C21 1_555 1_555
H18 C21 1_555 1_555
S2 O7 1_555 1_555
O8 S2 1_555 1_555
O9 C26 1_555 1_555
O10 C30 1_555 1_555
O11 C37 1_555 1_555
O12 C39 1_555 1_555
N3 S2 1_555 1_555
N4 C29 1_555 1_555
C22 N3 1_555 1_555
C23 C22 1_555 1_555
C24 C23 1_555 1_555
C25 S2 1_555 1_555
C26 N3 1_555 1_555
C27 C26 1_555 1_555
H19 C27 1_555 1_555
H20 C27 1_555 1_555
H21 C27 1_555 1_555
C28 C22 1_555 1_555
H22 C28 1_555 1_555
H23 C28 1_555 1_555
H24 C28 1_555 1_555
C29 C23 1_555 1_555
H25 C29 1_555 1_555
H26 C29 1_555 1_555
C30 N4 1_555 1_555
C31 C30 1_555 1_555
C32 C31 1_555 1_555
H27 C32 1_555 1_555
C33 C32 1_555 1_555
H28 C33 1_555 1_555
C34 C33 1_555 1_555
H29 C34 1_555 1_555
C35 C34 1_555 1_555
H30 C35 1_555 1_555
C36 C31 1_555 1_555
C37 N4 1_555 1_555
C38 C24 1_555 1_555
H31 C38 1_555 1_555
C39 C38 1_555 1_555
C40 C39 1_555 1_555
H32 C40 1_555 1_555
C41 C25 1_555 1_555
H33 C41 1_555 1_555
C42 O12 1_555 1_555
H34 C42 1_555 1_555
H35 C42 1_555 1_555
H36 C42 1_555 1_555
S3 O13 1_555 1_555
O14 S3 1_555 1_555
O15 C47 1_555 1_555
O16 C51 1_555 1_555
O17 C58 1_555 1_555
O18 C60 1_555 1_555
N5 S3 1_555 1_555
N6 C50 1_555 1_555
C43 N5 1_555 1_555
C44 C43 1_555 1_555
C45 C44 1_555 1_555
C46 S3 1_555 1_555
C47 N5 1_555 1_555
C48 C47 1_555 1_555
H37 C48 1_555 1_555
H38 C48 1_555 1_555
H39 C48 1_555 1_555
C49 C43 1_555 1_555
H40 C49 1_555 1_555
H41 C49 1_555 1_555
H42 C49 1_555 1_555
C50 C44 1_555 1_555
H43 C50 1_555 1_555
H44 C50 1_555 1_555
C51 N6 1_555 1_555
C52 C51 1_555 1_555
C53 C52 1_555 1_555
H45 C53 1_555 1_555
C54 C53 1_555 1_555
H46 C54 1_555 1_555
C55 C54 1_555 1_555
H47 C55 1_555 1_555
C56 C55 1_555 1_555
H48 C56 1_555 1_555
C57 C52 1_555 1_555
C58 N6 1_555 1_555
C59 C45 1_555 1_555
H49 C59 1_555 1_555
C60 C59 1_555 1_555
C61 C60 1_555 1_555
H50 C61 1_555 1_555
C62 C46 1_555 1_555
H51 C62 1_555 1_555
C63 O18 1_555 1_555
H52 C63 1_555 1_555
H53 C63 1_555 1_555
H54 C63 1_555 1_555
S4 O19 1_555 1_555
O20 S4 1_555 1_555
O21 C68 1_555 1_555
O22 C72 1_555 1_555
O23 C79 1_555 1_555
O24 C81 1_555 1_555
N7 S4 1_555 1_555
N8 C71 1_555 1_555
C64 N7 1_555 1_555
C65 C64 1_555 1_555
C66 C65 1_555 1_555
C67 S4 1_555 1_555
C68 N7 1_555 1_555
C69 C68 1_555 1_555
H55 C69 1_555 1_555
H56 C69 1_555 1_555
H57 C69 1_555 1_555
C70 C64 1_555 1_555
H58 C70 1_555 1_555
H59 C70 1_555 1_555
H60 C70 1_555 1_555
C71 C65 1_555 1_555
H61 C71 1_555 1_555
H62 C71 1_555 1_555
C72 N8 1_555 1_555
C73 C72 1_555 1_555
C74 C73 1_555 1_555
H63 C74 1_555 1_555
C75 C74 1_555 1_555
H64 C75 1_555 1_555
C76 C75 1_555 1_555
H65 C76 1_555 1_555
C77 C76 1_555 1_555
H66 C77 1_555 1_555
C78 C73 1_555 1_555
C79 N8 1_555 1_555
C80 C66 1_555 1_555
H67 C80 1_555 1_555
C81 C80 1_555 1_555
C82 C81 1_555 1_555
H68 C82 1_555 1_555
C83 C67 1_555 1_555
H69 C83 1_555 1_555
C84 O24 1_555 1_555
H70 C84 1_555 1_555
H71 C84 1_555 1_555
H72 C84 1_555 1_555
C3 C4 1_555 1_555
C14 C15 1_555 1_555
C15 C16 1_555 1_555
C19 C20 1_555 1_555
C24 C25 1_555 1_555
C35 C36 1_555 1_555
C36 C37 1_555 1_555
C40 C41 1_555 1_555
C45 C46 1_555 1_555
C56 C57 1_555 1_555
C57 C58 1_555 1_555
C61 C62 1_555 1_555
C66 C67 1_555 1_555
C77 C78 1_555 1_555
C78 C79 1_555 1_555
C82 C83 1_555 1_555

#END
