
#######################################################################
#
#                 Cambridge Crystallographic Data Centre
#                                CCDC 
#
#######################################################################
#
# If this CIF has been generated from an entry in the Cambridge 
# Structural Database, then it will include bibliographic, chemical, 
# crystal, experimental, refinement or atomic coordinate data resulting 
# from the CCDC's data processing and validation procedures.
#
#######################################################################

data_IZIBEA01
_chemical_formula_moiety         'C3 H4 N1 S1 1+,2(C1 H4 N2 S1),Cl1 1-'
_chemical_name_systematic        '1,3-thiazol-3-ium chloride bis(thiourea)'
_symmetry_cell_setting           orthorhombic
_symmetry_space_group_name_H-M   'P m c n'
_symmetry_Int_Tables_number      62
_space_group_name_Hall           '-P 2n 2a'
loop_
_symmetry_equiv_pos_site_id
_symmetry_equiv_pos_as_xyz
1 x,y,z
2 -x,1/2+y,1/2-z
3 1/2-x,1/2-y,1/2+z
4 1/2+x,-y,-z
5 -x,-y,-z
6 x,1/2-y,1/2+z
7 1/2+x,1/2+y,1/2-z
8 1/2-x,y,z
_cell_length_a                   14.311(10)
_cell_length_b                   10.228(7)
_cell_length_c                   8.393(6)
_cell_angle_alpha                90
_cell_angle_beta                 90
_cell_angle_gamma                90
_cell_volume                     1228.51
_exptl_crystal_colour            colorless
_exptl_crystal_description       needle-like
_cell_formula_units_Z            4
loop_
_atom_site_label
_atom_site_type_symbol
_atom_site_fract_x
_atom_site_fract_y
_atom_site_fract_z
C2 C 0.7238(5) 0.1313(8) 0.5680(11)
H5 H 0.7007 0.0531 0.5975
C3 C 0.8248(8) 0.2891(9) 0.5341(12)
H6 H 0.8850 0.3305 0.5396
C4 C 0.7500 0.3499(4) 0.4825(5)
H7 H 0.7500 0.4320 0.4439
N3 N 0.8100(5) 0.1623(7) 0.5805(8)
H8 H 0.8555 0.1076 0.6126
S2 S 0.65582(19) 0.2532(2) 0.4974(4)
C2G C 0.7762(5) 0.1313(8) 0.5680(11)
H5G H 0.7993 0.0531 0.5975
C3G C 0.6752(8) 0.2891(9) 0.5341(12)
H6G H 0.6150 0.3305 0.5396
N3G N 0.6900(5) 0.1623(7) 0.5805(8)
H8G H 0.6445 0.1076 0.6126
S2G S 0.84418(19) 0.2532(2) 0.4974(4)
Cl1 Cl 0.7500 -0.16378(7) 0.75645(10)
C1 C 1.06431(16) 0.0777(2) 0.7498(3)
N1 N 1.09872(14) 0.12304(19) 0.6140(2)
H1 H 1.1462 0.1745 0.6150
H2 H 1.0735 0.1010 0.5250
N2 N 1.10520(14) 0.11419(18) 0.8840(2)
H3 H 1.1526 0.1658 0.8814
H4 H 1.0844 0.0863 0.9739
S1 S 0.97033(5) -0.02583(7) 0.75140(7)
loop_
_geom_bond_atom_site_label_1
_geom_bond_atom_site_label_2
_geom_bond_site_symmetry_1
_geom_bond_site_symmetry_2
C1 N1 1_555 1_555
N1 H1 1_555 1_555
H2 N1 1_555 1_555
N2 C1 1_555 1_555
H3 N2 1_555 1_555
H4 N2 1_555 1_555
S1 C1 1_555 1_555
C2 H5 1_555 1_555
H5 N3G 1_555 1_555
C3 H6 1_555 1_555
H6 S2G 1_555 1_555
C4 C3 1_555 1_555
H7 C4 1_555 1_555
N3 C2 1_555 1_555
H8 N3 1_555 1_555
S2 C2 1_555 1_555
C2G C2 1_555 1_555
H5G N3 1_555 1_555
C3G C2 1_555 1_555
H6G S2 1_555 1_555
N3G C2 1_555 1_555
H8G C2 1_555 1_555
S2G C3 1_555 1_555
C3 N3 1_555 1_555
C3 C2G 1_555 1_555
C4 S2 1_555 1_555
C4 C3G 1_555 1_555
C4 S2G 1_555 1_555
N3 C2G 1_555 1_555
N3 N3G 1_555 1_555
N3 S2G 1_555 1_555
H8 C2G 1_555 1_555
S2 C3G 1_555 1_555
S2 N3G 1_555 1_555
C2G H5G 1_555 1_555
C2G N3G 1_555 1_555
C2G S2G 1_555 1_555
C3G H6G 1_555 1_555
C3G N3G 1_555 1_555
N3G H8G 1_555 1_555

#END
