
#######################################################################
#
#                 Cambridge Crystallographic Data Centre
#                                CCDC 
#
#######################################################################
#
# If this CIF has been generated from an entry in the Cambridge 
# Structural Database, then it will include bibliographic, chemical, 
# crystal, experimental, refinement or atomic coordinate data resulting 
# from the CCDC's data processing and validation procedures.
#
#######################################################################

data_IZIBOK
_chemical_formula_moiety         'C22 H16 Cl1 N1 O2'
_chemical_name_systematic        
2-(7-chloro-4-(4-methoxyphenyl)quinolin-3-yl)phenol
_symmetry_cell_setting           monoclinic
_symmetry_space_group_name_H-M   'P 21/n'
_symmetry_Int_Tables_number      14
_space_group_name_Hall           '-P 2yn'
loop_
_symmetry_equiv_pos_site_id
_symmetry_equiv_pos_as_xyz
1 x,y,z
2 1/2-x,1/2+y,1/2-z
3 -x,-y,-z
4 1/2+x,1/2-y,1/2+z
_cell_length_a                   11.366(4)
_cell_length_b                   11.305(4)
_cell_length_c                   14.788(6)
_cell_angle_alpha                90
_cell_angle_beta                 110.536(6)
_cell_angle_gamma                90
_cell_volume                     1779.4
_exptl_crystal_colour            colorless
_exptl_crystal_description       block
_cell_formula_units_Z            4
loop_
_atom_site_label
_atom_site_type_symbol
_atom_site_fract_x
_atom_site_fract_y
_atom_site_fract_z
Cl1 Cl 0.35125(5) 0.52820(5) -0.00275(5)
N1 N -0.11578(12) 0.60727(12) -0.14405(10)
C1 C 0.21577(16) 0.59508(16) 0.00091(14)
C2 C 0.22541(16) 0.67506(18) 0.07486(14)
H1 H 0.3029 0.6899 0.1225
C3 C 0.10406(16) 0.57018(14) -0.06893(13)
H2 H 0.0996 0.5145 -0.1163
C4 C 0.12013(15) 0.73136(16) 0.07674(12)
H3 H 0.1265 0.7839 0.1266
C5 C -0.00567(14) 0.62933(13) -0.06925(11)
C6 C 0.00145(14) 0.71145(13) 0.00433(11)
C7 C -0.21481(15) 0.66804(14) -0.14583(11)
H4 H -0.2895 0.6534 -0.1966
C8 C -0.21787(14) 0.75359(13) -0.07748(10)
C9 C -0.33811(13) 0.81733(13) -0.09198(10)
C10 C -0.37442(15) 0.90960(14) -0.15807(11)
C11 C -0.41574(16) 0.78657(15) -0.04186(12)
H5 H -0.3923 0.7249 0.0025
C12 C -0.48564(16) 0.97049(16) -0.17047(13)
H6 H -0.5088 1.0339 -0.2131
C13 C -0.52697(18) 0.84510(17) -0.05596(15)
H7 H -0.5786 0.8222 -0.0222
C14 C -0.10933(14) 0.77454(13) 0.00000(10)
C15 C -0.10508(13) 0.86292(13) 0.07548(10)
C16 C -0.08611(17) 0.82979(15) 0.16979(12)
H8 H -0.0751 0.7502 0.1866
C17 C -0.12083(15) 0.98217(14) 0.05316(11)
H9 H -0.1346 1.0064 -0.0098
C18 C -0.08323(18) 0.91202(16) 0.23913(12)
H10 H -0.0709 0.8877 0.3019
C19 C -0.09871(16) 1.03078(15) 0.21549(11)
C20 C -0.11662(16) 1.06611(14) 0.12225(12)
H11 H -0.1258 1.1459 0.1060
C21 C -0.1163(3) 1.2265(2) 0.26709(17)
H12 H -0.1120 1.2688 0.3245
H13 H -0.1977 1.2376 0.2185
H14 H -0.0529 1.2558 0.2438
C22 C -0.56104(17) 0.93730(17) -0.12004(14)
H15 H -0.6357 0.9776 -0.1294
O1 O -0.09629(15) 1.10578(12) 0.28831(9)
O2 O -0.29716(13) 0.93864(13) -0.20661(10)
H16 H -0.3296(11) 0.997(2) -0.2457(13)
loop_
_geom_bond_atom_site_label_1
_geom_bond_atom_site_label_2
_geom_bond_site_symmetry_1
_geom_bond_site_symmetry_2
Cl1 C1 1_555 1_555
N1 C5 1_555 1_555
C1 C2 1_555 1_555
C2 H1 1_555 1_555
C3 C1 1_555 1_555
H2 C3 1_555 1_555
C4 C2 1_555 1_555
H3 C4 1_555 1_555
C5 C3 1_555 1_555
C6 C4 1_555 1_555
C7 N1 1_555 1_555
H4 C7 1_555 1_555
C8 C7 1_555 1_555
C9 C8 1_555 1_555
C10 C9 1_555 1_555
C11 C9 1_555 1_555
H5 C11 1_555 1_555
C12 C10 1_555 1_555
H6 C12 1_555 1_555
C13 C11 1_555 1_555
H7 C13 1_555 1_555
C14 C6 1_555 1_555
C15 C14 1_555 1_555
C16 C15 1_555 1_555
H8 C16 1_555 1_555
C17 C15 1_555 1_555
H9 C17 1_555 1_555
C18 C16 1_555 1_555
H10 C18 1_555 1_555
C19 C18 1_555 1_555
C20 C17 1_555 1_555
H11 C20 1_555 1_555
C21 H12 1_555 1_555
H13 C21 1_555 1_555
H14 C21 1_555 1_555
C22 C12 1_555 1_555
H15 C22 1_555 1_555
O1 C19 1_555 1_555
O2 C10 1_555 1_555
H16 O2 1_555 1_555
C5 C6 1_555 1_555
C8 C14 1_555 1_555
C13 C22 1_555 1_555
C19 C20 1_555 1_555
C21 O1 1_555 1_555

#END
