
#######################################################################
#
#                 Cambridge Crystallographic Data Centre
#                                CCDC 
#
#######################################################################
#
# If this CIF has been generated from an entry in the Cambridge 
# Structural Database, then it will include bibliographic, chemical, 
# crystal, experimental, refinement or atomic coordinate data resulting 
# from the CCDC's data processing and validation procedures.
#
#######################################################################

data_IZICEA
_chemical_formula_moiety         'C8 H11 F5 O3'
_chemical_name_systematic        
4,4,6,6,6-Pentafluoro-5,5-dihydroxy-2,2-dimethylhexan-3-one
_symmetry_cell_setting           monoclinic
_symmetry_space_group_name_H-M   'P 21/c'
_symmetry_Int_Tables_number      14
_space_group_name_Hall           '-P 2ybc'
loop_
_symmetry_equiv_pos_site_id
_symmetry_equiv_pos_as_xyz
1 x,y,z
2 -x,1/2+y,1/2-z
3 -x,-y,-z
4 x,1/2-y,1/2+z
_cell_length_a                   6.6766(4)
_cell_length_b                   12.9963(5)
_cell_length_c                   12.3595(9)
_cell_angle_alpha                90
_cell_angle_beta                 90.087(6)
_cell_angle_gamma                90
_cell_volume                     1072.45
_exptl_crystal_colour            colorless
_exptl_crystal_description       needle
_cell_formula_units_Z            4
loop_
_atom_site_label
_atom_site_type_symbol
_atom_site_fract_x
_atom_site_fract_y
_atom_site_fract_z
F1 F 0.8078(2) 0.22943(12) 0.22905(12)
F2 F 0.6102(2) 0.09769(13) 0.24894(12)
F3 F 1.1756(2) -0.01586(13) 0.16706(15)
F4 F 0.9736(3) 0.00972(15) 0.30009(15)
F5 F 1.1575(2) 0.13281(14) 0.24059(15)
O1 O 0.4987(3) 0.11507(14) 0.03523(16)
O2 O 0.9672(3) 0.13815(15) 0.04507(17)
O3 O 0.8073(3) -0.01428(13) 0.09465(16)
C1 C 0.3745(5) 0.3032(2) -0.0295(3)
C2 C 0.5299(4) 0.2978(2) 0.0620(2)
C3 C 0.5754(4) 0.1855(2) 0.0843(2)
C4 C 0.7206(4) 0.1501(2) 0.1753(2)
C5 C 0.8856(4) 0.0805(2) 0.1279(2)
C6 C 1.0489(4) 0.0518(2) 0.2109(3)
C7 C 0.4431(5) 0.3480(2) 0.1649(3)
C8 C 0.7225(4) 0.3527(2) 0.0266(3)
H1 H 0.4251 0.2663 -0.0929
H2 H 0.3499 0.3753 -0.0486
H3 H 0.2491 0.2714 -0.0053
H4 H 1.040(5) 0.106(3) 0.010(3)
H5 H 0.692(7) -0.003(3) 0.065(4)
H6 H 0.3253 0.3092 0.1888
H7 H 0.4041 0.4191 0.1490
H8 H 0.5446 0.3476 0.2222
H9 H 0.8209 0.3500 0.0855
H10 H 0.6923 0.4246 0.0094
H11 H 0.7773 0.3185 -0.0375
loop_
_geom_bond_atom_site_label_1
_geom_bond_atom_site_label_2
_geom_bond_site_symmetry_1
_geom_bond_site_symmetry_2
F1 C4 1_555 1_555
F2 C4 1_555 1_555
F3 C6 1_555 1_555
F4 C6 1_555 1_555
F5 C6 1_555 1_555
O1 C3 1_555 1_555
O2 C5 1_555 1_555
O3 C5 1_555 1_555
C1 C2 1_555 1_555
C2 C3 1_555 1_555
C3 C4 1_555 1_555
C4 C5 1_555 1_555
C5 C6 1_555 1_555
C7 C2 1_555 1_555
C8 C2 1_555 1_555
H1 C1 1_555 1_555
H2 C1 1_555 1_555
H3 C1 1_555 1_555
H4 O2 1_555 1_555
H5 O3 1_555 1_555
H6 C7 1_555 1_555
H7 C7 1_555 1_555
H8 C7 1_555 1_555
H9 C8 1_555 1_555
H10 C8 1_555 1_555
H11 C8 1_555 1_555

#END
