
#######################################################################
#
#                 Cambridge Crystallographic Data Centre
#                                CCDC 
#
#######################################################################
#
# If this CIF has been generated from an entry in the Cambridge 
# Structural Database, then it will include bibliographic, chemical, 
# crystal, experimental, refinement or atomic coordinate data resulting 
# from the CCDC's data processing and validation procedures.
#
#######################################################################

data_IZICUR
_chemical_formula_moiety         'C20 H15 Br1 Cl2 O1 S1'
_chemical_name_systematic        
2-bromo-5-(4-chlorophenoxy)-4-((4-chlorophenyl)sulfanyl)-1,3-dimethylbenzene
_symmetry_cell_setting           monoclinic
_symmetry_space_group_name_H-M   'P 21/c'
_symmetry_Int_Tables_number      14
_space_group_name_Hall           '-P 2ybc'
loop_
_symmetry_equiv_pos_site_id
_symmetry_equiv_pos_as_xyz
1 x,y,z
2 -x,1/2+y,1/2-z
3 -x,-y,-z
4 x,1/2-y,1/2+z
_cell_length_a                   5.0603(8)
_cell_length_b                   21.361(4)
_cell_length_c                   17.169(3)
_cell_angle_alpha                90
_cell_angle_beta                 96.419(4)
_cell_angle_gamma                90
_cell_volume                     1844.22
_exptl_crystal_colour            colorless
_exptl_crystal_description       needle
_cell_formula_units_Z            4
loop_
_atom_site_label
_atom_site_type_symbol
_atom_site_fract_x
_atom_site_fract_y
_atom_site_fract_z
Br1 Br 0.44272(4) 0.270516(9) 0.527971(10)
C1 C 0.4109(4) 0.45218(10) 0.14067(11)
C2 C 0.6187(5) 0.42554(11) 0.10641(12)
C3 C 0.3030(4) 0.42288(10) 0.20168(11)
C4 C 0.7182(4) 0.36855(10) 0.13353(11)
C5 C 0.4042(4) 0.36540(9) 0.22867(11)
C6 C 0.6128(4) 0.33771(9) 0.19489(10)
C7 C -0.0525(4) 0.01162(9) 0.11680(10)
C8 C -0.1457(4) 0.07070(10) 0.09548(11)
C9 C 0.1779(4) 0.00331(10) 0.16785(11)
C10 C -0.0062(4) 0.12313(9) 0.12524(11)
C11 C 0.3176(4) 0.05564(10) 0.19720(11)
C12 C 0.2252(4) 0.11496(9) 0.17577(10)
C13 C 0.0816(5) 0.15938(11) 0.46247(12)
C14 C 0.7728(4) 0.31591(10) 0.39646(11)
C15 C 0.4253(4) 0.23678(9) 0.42453(10)
C16 C 0.2509(4) 0.18728(9) 0.40526(10)
C17 C 0.5872(3) 0.26271(9) 0.37236(10)
C18 C 0.2361(4) 0.16313(9) 0.32917(10)
C19 C 0.5667(3) 0.23759(8) 0.29595(10)
C20 C 0.3904(4) 0.18805(9) 0.27532(10)
Cl1 Cl 0.27993(15) 0.52398(3) 0.10652(3)
Cl2 Cl -0.22713(10) -0.05421(2) 0.07879(3)
O1 O 0.3756(3) 0.16785(7) 0.19853(7)
S1 S 0.76583(9) 0.26590(2) 0.22492(3)
H1 H 0.122(4) 0.1307(11) 0.3146(12)
H2 H 0.236(4) -0.0386(12) 0.1825(13)
H3 H -0.293(5) 0.0767(12) 0.0639(14)
H4 H 0.328(4) 0.3467(11) 0.2690(13)
H5 H 0.886(5) 0.3081(12) 0.4450(14)
H6 H 0.156(5) 0.4410(13) 0.2254(14)
H7 H 0.677(5) 0.3516(13) 0.4074(14)
H8 H 0.885(5) 0.3233(12) 0.3562(14)
H9 H 0.863(5) 0.3495(13) 0.1119(14)
H10 H 0.488(5) 0.0488(14) 0.2321(15)
H11 H 0.700(5) 0.4448(14) 0.0671(17)
H12 H -0.061(4) 0.1643(12) 0.1098(13)
H13 H -0.017(6) 0.1945(17) 0.4855(18)
H14 H 0.181(6) 0.1376(15) 0.5021(18)
H15 H -0.034(6) 0.1348(17) 0.4390(19)
loop_
_geom_bond_atom_site_label_1
_geom_bond_atom_site_label_2
_geom_bond_site_symmetry_1
_geom_bond_site_symmetry_2
Br1 C15 1_555 1_555
C1 C2 1_555 1_555
C2 C4 1_555 1_555
C3 C1 1_555 1_555
C4 C6 1_555 1_555
C5 C3 1_555 1_555
C6 C5 1_555 1_555
C7 C8 1_555 1_555
C8 C10 1_555 1_555
C9 C7 1_555 1_555
C10 C12 1_555 1_555
C11 C9 1_555 1_555
C12 C11 1_555 1_555
C13 C16 1_555 1_555
C14 C17 1_555 1_555
C15 C16 1_555 1_555
C16 C18 1_555 1_555
C17 C15 1_555 1_555
C18 C20 1_555 1_555
C19 C17 1_555 1_555
C20 C19 1_555 1_555
Cl1 C1 1_555 1_555
Cl2 C7 1_555 1_555
O1 C12 1_555 1_555
S1 C6 1_555 1_555
H1 C18 1_555 1_555
H2 C9 1_555 1_555
H3 C8 1_555 1_555
H4 C5 1_555 1_555
H5 C14 1_555 1_555
H6 C3 1_555 1_555
H7 C14 1_555 1_555
H8 C14 1_555 1_555
H9 C4 1_555 1_555
H10 C11 1_555 1_555
H11 C2 1_555 1_555
H12 C10 1_555 1_555
H13 C13 1_555 1_555
H14 C13 1_555 1_555
H15 C13 1_555 1_555
C19 S1 1_555 1_555
C20 O1 1_555 1_555

#END
