
#######################################################################
#
#                 Cambridge Crystallographic Data Centre
#                                CCDC 
#
#######################################################################
#
# If this CIF has been generated from an entry in the Cambridge 
# Structural Database, then it will include bibliographic, chemical, 
# crystal, experimental, refinement or atomic coordinate data resulting 
# from the CCDC's data processing and validation procedures.
#
#######################################################################

data_IZIDEC
_chemical_formula_moiety         'C21 H17 O1 S1 1+,C1 F3 O3 S1 1-'
_chemical_name_systematic        
'(2-hydroxynaphthalen-1-yl)(methyl)(naphthalen-2-yl)sulfanium trifluoromethanesulfonate'
_symmetry_cell_setting           monoclinic
_symmetry_space_group_name_H-M   'P 21/c'
_symmetry_Int_Tables_number      14
_space_group_name_Hall           '-P 2ybc'
loop_
_symmetry_equiv_pos_site_id
_symmetry_equiv_pos_as_xyz
1 x,y,z
2 -x,1/2+y,1/2-z
3 -x,-y,-z
4 x,1/2-y,1/2+z
_cell_length_a                   6.0792(9)
_cell_length_b                   14.673(2)
_cell_length_c                   23.976(4)
_cell_angle_alpha                90
_cell_angle_beta                 91.386(4)
_cell_angle_gamma                90
_cell_volume                     2138.04
_exptl_crystal_colour            colorless
_exptl_crystal_description       block
_cell_formula_units_Z            4
loop_
_atom_site_label
_atom_site_type_symbol
_atom_site_fract_x
_atom_site_fract_y
_atom_site_fract_z
S1 S 0.00134(15) 0.17499(6) 0.36391(4)
O1 O 0.3854(5) 0.21147(18) 0.43714(11)
H1 H 0.4846 0.2225 0.4599
C1 C 0.2335(6) 0.1473(2) 0.32381(13)
C2 C 0.3580(5) 0.0719(2) 0.33276(13)
H2 H 0.3265 0.0326 0.3619
C3 C 0.5356(6) 0.0534(2) 0.29771(13)
C4 C 0.6715(6) -0.0230(3) 0.30634(16)
H3 H 0.6400 -0.0645 0.3343
C5 C 0.8491(7) -0.0365(3) 0.27392(19)
H4 H 0.9399 -0.0866 0.2804
C6 C 0.8964(7) 0.0239(4) 0.23111(19)
H5 H 1.0179 0.0134 0.2091
C7 C 0.7683(7) 0.0973(3) 0.22112(16)
H6 H 0.8022 0.1369 0.1923
C8 C 0.5821(6) 0.1149(3) 0.25414(14)
C9 C 0.4458(7) 0.1913(3) 0.24576(15)
H7 H 0.4737 0.2312 0.2166
C10 C 0.2744(7) 0.2077(3) 0.27944(15)
H8 H 0.1846 0.2582 0.2734
C11 C -0.0123(7) 0.0924(3) 0.41842(17)
H9 H 0.1270 0.0894 0.4380
H10 H -0.0466 0.0338 0.4027
H11 H -0.1247 0.1095 0.4438
C12 C 0.0714(5) 0.2789(2) 0.39654(13)
C13 C -0.0703(6) 0.3545(2) 0.38680(13)
C14 C -0.2619(6) 0.3522(3) 0.35210(15)
H12 H -0.2999 0.2987 0.3334
C15 C -0.3914(7) 0.4275(3) 0.34573(18)
H13 H -0.5162 0.4247 0.3226
C16 C -0.3397(8) 0.5081(3) 0.37324(19)
H14 H -0.4310 0.5586 0.3691
C17 C -0.1570(8) 0.5130(3) 0.40597(16)
H15 H -0.1230 0.5676 0.4239
C18 C -0.0157(6) 0.4374(2) 0.41376(13)
C19 C 0.1751(7) 0.4413(3) 0.44806(15)
H16 H 0.2114 0.4960 0.4656
C20 C 0.3067(6) 0.3688(3) 0.45641(15)
H17 H 0.4312 0.3740 0.4795
C21 C 0.2575(6) 0.2853(2) 0.43058(14)
S2 S 0.70691(18) 0.21442(11) 0.57255(5)
O2 O 0.6620(15) 0.1848(5) 0.5222(4)
O3 O 0.6843(14) 0.3214(5) 0.5794(4)
C22 C 0.9979(7) 0.2051(3) 0.58461(19)
F1 F 1.0695(9) 0.2420(6) 0.6325(3)
F2 F 1.1087(10) 0.2541(5) 0.5461(3)
F3 F 1.0608(15) 0.1241(4) 0.5806(5)
O4 O 0.6253(16) 0.1754(10) 0.6213(4)
F4? F 1.0309(16) 0.1719(10) 0.6350(4)
F5? F 1.0833(19) 0.2732(7) 0.5837(7)
F6? F 1.0945(18) 0.1465(9) 0.5537(4)
O5? O 0.6135(19) 0.2596(13) 0.6077(5)
O6? O 0.6421(16) 0.1113(8) 0.5734(6)
O7? O 0.7031(17) 0.2368(6) 0.5133(4)
loop_
_geom_bond_atom_site_label_1
_geom_bond_atom_site_label_2
_geom_bond_site_symmetry_1
_geom_bond_site_symmetry_2
S1 C1 1_555 1_555
O1 H1 1_555 1_555
C1 C2 1_555 1_555
C2 H2 1_555 1_555
C3 C2 1_555 1_555
C4 C3 1_555 1_555
H3 C4 1_555 1_555
C5 C4 1_555 1_555
H4 C5 1_555 1_555
C6 C5 1_555 1_555
H5 C6 1_555 1_555
C7 C6 1_555 1_555
H6 C7 1_555 1_555
C8 C3 1_555 1_555
C9 C8 1_555 1_555
H7 C9 1_555 1_555
C10 C1 1_555 1_555
H8 C10 1_555 1_555
C11 S1 1_555 1_555
H9 C11 1_555 1_555
H10 C11 1_555 1_555
H11 C11 1_555 1_555
C12 S1 1_555 1_555
C13 C12 1_555 1_555
C14 C13 1_555 1_555
H12 C14 1_555 1_555
C15 C14 1_555 1_555
H13 C15 1_555 1_555
C16 C15 1_555 1_555
H14 C16 1_555 1_555
C17 C16 1_555 1_555
H15 C17 1_555 1_555
C18 C13 1_555 1_555
C19 C18 1_555 1_555
H16 C19 1_555 1_555
C20 C19 1_555 1_555
H17 C20 1_555 1_555
C21 O1 1_555 1_555
S2 O2 1_555 1_555
O3 S2 1_555 1_555
C22 S2 1_555 1_555
F1 C22 1_555 1_555
F2 C22 1_555 1_555
F3 C22 1_555 1_555
O4 S2 1_555 1_555
C7 C8 1_555 1_555
C9 C10 1_555 1_555
C12 C21 1_555 1_555
C17 C18 1_555 1_555
C20 C21 1_555 1_555

#END
