
#######################################################################
#
#                 Cambridge Crystallographic Data Centre
#                                CCDC 
#
#######################################################################
#
# If this CIF has been generated from an entry in the Cambridge 
# Structural Database, then it will include bibliographic, chemical, 
# crystal, experimental, refinement or atomic coordinate data resulting 
# from the CCDC's data processing and validation procedures.
#
#######################################################################

data_IZIKIL
_chemical_formula_moiety         'C18 H25 N1 O10'
_chemical_name_systematic        
(1S,2R,6S,7R,8R,8aR)-Octahydroindolizine-1,2,6,7,8-pentylpenta-acetate
_symmetry_cell_setting           orthorhombic
_symmetry_space_group_name_H-M   'P 21 21 21'
_symmetry_Int_Tables_number      19
_space_group_name_Hall           'P 2ac 2ab'
loop_
_symmetry_equiv_pos_site_id
_symmetry_equiv_pos_as_xyz
1 x,y,z
2 1/2-x,-y,1/2+z
3 1/2+x,1/2-y,-z
4 -x,1/2+y,1/2-z
_cell_length_a                   7.6670(10)
_cell_length_b                   11.555(2)
_cell_length_c                   22.671(4)
_cell_angle_alpha                90
_cell_angle_beta                 90
_cell_angle_gamma                90
_cell_volume                     2008.47
_exptl_crystal_colour            colorless
_exptl_crystal_description       prism
_chemical_melting_point          142deg.C
_cell_formula_units_Z            4
_exptl_crystal_recrystallization_method 'petroleum ether/ethyl acetate'
loop_
_atom_site_label
_atom_site_type_symbol
_atom_site_fract_x
_atom_site_fract_y
_atom_site_fract_z
C1 C 0.2857(4) 0.4523(2) 0.33472(12)
O1 O 0.1395(3) 0.52474(17) 0.32065(9)
C2 C 0.0633(4) 0.5041(3) 0.26802(14)
O2 O 0.1044(4) 0.4243(2) 0.23681(11)
C3 C -0.0749(5) 0.5918(3) 0.25534(15)
C4 C 0.2390(4) 0.3290(2) 0.35725(13)
O3 O 0.0522(3) 0.31975(17) 0.36367(9)
C5 C -0.0029(4) 0.2145(3) 0.38256(13)
O4 O 0.0956(3) 0.13657(18) 0.39382(10)
C6 C -0.1971(4) 0.2081(3) 0.38629(15)
C7 C 0.3343(4) 0.3199(2) 0.41629(13)
N1 N 0.4716(3) 0.40663(18) 0.41079(10)
C8 C 0.5610(4) 0.4337(3) 0.46577(12)
C9 C 0.7074(4) 0.5173(2) 0.45112(12)
O5 O 0.7886(3) 0.55553(16) 0.50492(9)
C10 C 0.9150(4) 0.4870(3) 0.52723(13)
O6 O 0.9718(3) 0.40410(18) 0.50233(10)
C11 C 0.9662(4) 0.5278(3) 0.58729(15)
C12 C 0.6391(4) 0.6254(2) 0.42076(12)
O7 O 0.7846(3) 0.68929(17) 0.39829(9)
C13 C 0.8458(5) 0.7811(3) 0.42978(13)
O8 O 0.7778(4) 0.81646(19) 0.47385(10)
C14 C 1.0052(5) 0.8282(3) 0.40139(16)
C15 C 0.5280(4) 0.5928(2) 0.36761(12)
O9 O 0.4519(3) 0.69871(16) 0.34556(8)
C16 C 0.4382(4) 0.7100(3) 0.28611(13)
O10 O 0.4822(4) 0.6375(2) 0.25161(10)
C17 C 0.3590(5) 0.8254(3) 0.27092(15)
C18 C 0.3864(3) 0.5078(2) 0.38523(12)
H1 H 0.34929 0.44429 0.29777
H2 H -0.15413 0.59618 0.28764
H3 H -0.13531 0.57172 0.22065
H4 H -0.02149 0.66628 0.25029
H5 H 0.27483 0.26713 0.33163
H6 H -0.24784 0.28120 0.37541
H7 H -0.23366 0.18849 0.42467
H8 H -0.23912 0.15160 0.35895
H9 H 0.38300 0.24434 0.42218
H10 H 0.25809 0.33658 0.44841
H11 H 0.60769 0.36440 0.48254
H12 H 0.48255 0.46787 0.49304
H13 H 0.78674 0.47704 0.42631
H14 H 0.89919 0.48587 0.61558
H15 H 0.94438 0.60826 0.59147
H16 H 1.08714 0.51323 0.59388
H17 H 0.57219 0.66862 0.44852
H18 H 0.98551 0.83729 0.35990
H19 H 1.09955 0.77503 0.40668
H20 H 1.03504 0.90066 0.41789
H21 H 0.59571 0.55392 0.33775
H22 H 0.24339 0.82983 0.28725
H23 H 0.34975 0.83208 0.22905
H24 H 0.42674 0.88685 0.28628
H25 H 0.31159 0.55212 0.41011
loop_
_geom_bond_atom_site_label_1
_geom_bond_atom_site_label_2
_geom_bond_site_symmetry_1
_geom_bond_site_symmetry_2
C1 O1 1_555 1_555
O1 C2 1_555 1_555
C2 O2 1_555 1_555
C3 C2 1_555 1_555
C4 C1 1_555 1_555
O3 C4 1_555 1_555
C5 O3 1_555 1_555
O4 C5 1_555 1_555
C6 C5 1_555 1_555
C7 C4 1_555 1_555
N1 C7 1_555 1_555
C8 N1 1_555 1_555
C9 C8 1_555 1_555
O5 C9 1_555 1_555
C10 O5 1_555 1_555
O6 C10 1_555 1_555
C11 C10 1_555 1_555
C12 C9 1_555 1_555
O7 C12 1_555 1_555
C13 O7 1_555 1_555
O8 C13 1_555 1_555
C14 C13 1_555 1_555
C15 C12 1_555 1_555
O9 C15 1_555 1_555
C16 O9 1_555 1_555
O10 C16 1_555 1_555
C17 C16 1_555 1_555
C18 C1 1_555 1_555
H1 C1 1_555 1_555
H2 C3 1_555 1_555
H3 C3 1_555 1_555
H4 C3 1_555 1_555
H5 C4 1_555 1_555
H6 C6 1_555 1_555
H7 C6 1_555 1_555
H8 C6 1_555 1_555
H9 C7 1_555 1_555
H10 C7 1_555 1_555
H11 C8 1_555 1_555
H12 C8 1_555 1_555
H13 C9 1_555 1_555
H14 C11 1_555 1_555
H15 C11 1_555 1_555
H16 C11 1_555 1_555
H17 C12 1_555 1_555
H18 C14 1_555 1_555
H19 C14 1_555 1_555
H20 C14 1_555 1_555
H21 C15 1_555 1_555
H22 C17 1_555 1_555
H23 C17 1_555 1_555
H24 C17 1_555 1_555
H25 C18 1_555 1_555
N1 C18 1_555 1_555
C15 C18 1_555 1_555

#END
