
#######################################################################
#
#                 Cambridge Crystallographic Data Centre
#                                CCDC 
#
#######################################################################
#
# If this CIF has been generated from an entry in the Cambridge 
# Structural Database, then it will include bibliographic, chemical, 
# crystal, experimental, refinement or atomic coordinate data resulting 
# from the CCDC's data processing and validation procedures.
#
#######################################################################

data_IZILEI
_chemical_compound_source        
'silvestrol isolated from fruits and twigs of Aglaia silvestris'
_chemical_name_common            "Silvestrol 5''',6'''-di-p-bromobenzoate"
_chemical_formula_moiety         'C48 H44 Br2 O15'
_chemical_name_systematic        
6-O-Demethyl-6-(6-(1,2-bis(4-bromobenzoato)ethyl)-3-methoxy-1,4-dioxan-2-yl)aglafolin
_chemical_properties_biological  
'silvestrol exhibits cytotoxic activity against human lung cancer, hormone-dependent human prostate cancer, human breast cancer and human umbilical vein endothelial cells'
_symmetry_cell_setting           monoclinic
_symmetry_space_group_name_H-M   'P 21'
_symmetry_Int_Tables_number      4
_space_group_name_Hall           'P 2yb'
loop_
_symmetry_equiv_pos_site_id
_symmetry_equiv_pos_as_xyz
1 x,y,z
2 -x,1/2+y,-z
_cell_length_a                   17.7406(5)
_cell_length_b                   14.9259(5)
_cell_length_c                   17.8418(7)
_cell_angle_alpha                90
_cell_angle_beta                 111.3770(10)
_cell_angle_gamma                90
_cell_volume                     4399.38
_exptl_crystal_colour            colorless
_exptl_crystal_description       prism
_cell_formula_units_Z            4
_exptl_crystal_recrystallization_method chloroform/methanol(1:1)
loop_
_atom_site_label
_atom_site_type_symbol
_atom_site_fract_x
_atom_site_fract_y
_atom_site_fract_z
C1 C 0.7747(5) 0.4706(5) 0.5312(5)
H1 H 0.7980 0.4200 0.5672
H2 H 0.8037 0.4783 0.4942
H3 H 0.7174 0.4588 0.5003
C2 C 0.7367(4) 0.5555(5) 0.6238(4)
C3 C 0.7538(4) 0.6416(5) 0.6712(4)
H4 H 0.8109 0.6594 0.6810
C4 C 0.7449(4) 0.6326(5) 0.7531(4)
H5 H 0.6886 0.6116 0.7432
C5 C 0.7503(4) 0.7339(4) 0.7790(4)
C6 C 0.6321(3) 0.7739(4) 0.7935(4)
C7 C 0.5764(4) 0.7887(5) 0.8301(4)
H6 H 0.5873 0.7743 0.8849
C8 C 0.5045(3) 0.8259(4) 0.7814(4)
C9 C 0.4848(4) 0.8416(5) 0.6998(4)
H7 H 0.4329 0.8640 0.6677
C10 C 0.5422(4) 0.8241(5) 0.6660(4)
C11 C 0.6188(4) 0.7904(5) 0.7142(4)
C12 C 0.6972(4) 0.7819(5) 0.6999(4)
C13 C 0.6986(4) 0.7202(5) 0.6295(4)
H8 H 0.7222 0.7533 0.5946
C14 C 0.4510(4) 0.8665(5) 0.5343(4)
H9 H 0.4103 0.8248 0.5392
H10 H 0.4480 0.8677 0.4784
H11 H 0.4406 0.9267 0.5503
C15 C 0.8013(4) 0.5736(4) 0.8155(4)
C16 C 0.7791(4) 0.5417(5) 0.8774(5)
H12 H 0.7247 0.5484 0.8739
C17 C 0.8353(5) 0.4998(5) 0.9452(5)
H13 H 0.8197 0.4812 0.9885
C18 C 0.9136(5) 0.4858(5) 0.9484(5)
H14 H 0.9520 0.4573 0.9940
C19 C 0.9349(5) 0.5116(5) 0.8887(5)
H15 H 0.9886 0.5007 0.8915
C20 C 0.8787(4) 0.5561(5) 0.8190(5)
H16 H 0.8949 0.5732 0.7758
C21 C 0.8373(4) 0.7626(4) 0.8189(4)
C22 C 0.8769(4) 0.7487(4) 0.9022(4)
H17 H 0.8463 0.7290 0.9331
C23 C 0.9585(4) 0.7630(5) 0.9400(4)
H18 H 0.9839 0.7529 0.9962
C24 C 1.0036(4) 0.7927(5) 0.8951(4)
C25 C 0.9676(4) 0.8080(5) 0.8144(4)
H19 H 0.9987 0.8284 0.7842
C26 C 0.8841(4) 0.7933(4) 0.7765(4)
H20 H 0.8589 0.8047 0.7205
C27 C 1.1346(4) 0.8262(5) 0.8951(4)
H21 H 1.1301 0.7801 0.8545
H22 H 1.1910 0.8304 0.9322
H23 H 1.1172 0.8840 0.8685
C28 C 0.4606(4) 0.8468(5) 0.8935(4)
H24 H 0.5116 0.8806 0.9226
C29 C 0.3892(4) 0.8948(5) 0.9049(4)
H25 H 0.3783 0.9516 0.8731
C30 C 0.3306(4) 0.7528(4) 0.9125(4)
H26 H 0.2794 0.7184 0.8921
H27 H 0.3492 0.7554 0.9720
C31 C 0.3941(4) 0.7085(4) 0.8870(4)
H28 H 0.3757 0.7118 0.8270
C32 C 0.3546(4) 0.9710(5) 1.0041(4)
H29 H 0.3489 1.0287 0.9763
H30 H 0.3723 0.9812 1.0622
H31 H 0.3023 0.9399 0.9854
C33 C 0.4136(4) 0.6112(5) 0.9123(4)
H32 H 0.3630 0.5743 0.8946
C34 C 0.4742(4) 0.5721(5) 0.8804(4)
H33 H 0.5260 0.6055 0.9016
H34 H 0.4847 0.5084 0.8961
C35 C 0.4894(4) 0.5719(5) 0.7519(4)
C36 C 0.4484(4) 0.5866(4) 0.6651(4)
C37 C 0.4893(4) 0.5678(5) 0.6151(4)
H35 H 0.5430 0.5454 0.6370
C38 C 0.4531(4) 0.5813(5) 0.5328(4)
H36 H 0.4821 0.5697 0.4983
C39 C 0.3740(4) 0.6119(5) 0.5016(4)
C40 C 0.3326(4) 0.6330(5) 0.5509(4)
H37 H 0.2791 0.6562 0.5286
C41 C 0.3691(4) 0.6204(5) 0.6330(4)
H38 H 0.3408 0.6345 0.6676
C42 C 0.4125(5) 0.5885(5) 1.0448(4)
C43 C 0.4613(4) 0.5903(4) 1.1333(4)
C44 C 0.5437(4) 0.6104(5) 1.1622(4)
H39 H 0.5711 0.6197 1.1259
C45 C 0.5856(5) 0.6167(6) 1.2454(4)
H40 H 0.6416 0.6314 1.2663
C46 C 0.5447(5) 0.6013(5) 1.2965(4)
C47 C 0.4647(5) 0.5785(5) 1.2679(4)
H41 H 0.4382 0.5660 1.3044
C48 C 0.4225(5) 0.5736(5) 1.1862(4)
H42 H 0.3665 0.5587 1.1663
O1 O 0.7823(3) 0.5515(3) 0.5784(3)
O2 O 0.6922(4) 0.4974(4) 0.6268(4)
O3 O 0.7098(2) 0.7448(3) 0.8360(2)
O4 O 0.4441(2) 0.8504(3) 0.8090(2)
O5 O 0.5295(2) 0.8378(3) 0.5854(3)
O6 O 0.7246(3) 0.8688(3) 0.6863(3)
H43 H 0.7260 0.9034 0.7240
O7 O 0.6223(3) 0.6844(3) 0.5822(3)
H44 H 0.5903 0.7264 0.5603
O8 O 1.0847(3) 0.8028(3) 0.9387(3)
O9 O 0.4691(2) 0.7596(3) 0.9212(3)
O10 O 0.4138(3) 0.9167(3) 0.9870(3)
O11 O 0.3181(2) 0.8429(3) 0.8790(2)
O12 O 0.4556(2) 0.6051(3) 0.9999(2)
O13 O 0.4377(3) 0.5808(3) 0.7930(2)
O14 O 0.5601(3) 0.5528(3) 0.7862(3)
O15 O 0.3397(3) 0.5813(4) 1.0178(3)
Br1 Br 0.32196(5) 0.62984(6) 0.38872(4)
Br2 Br 0.60026(5) 0.61476(7) 1.40860(5)
C49 C 1.1940(5) 0.4210(5) 0.4628(5)
H45 H 1.1587 0.4552 0.4164
H46 H 1.2469 0.4123 0.4580
H47 H 1.2010 0.4538 0.5124
C50 C 1.0917(4) 0.3356(5) 0.4845(4)
C51 C 1.0568(4) 0.2438(4) 0.4792(4)
H48 H 1.0487 0.2190 0.4247
C52 C 0.9755(4) 0.2393(4) 0.4911(4)
H49 H 0.9837 0.2637 0.5457
C53 C 0.9635(4) 0.1351(5) 0.4931(4)
C54 C 0.9555(4) 0.1022(4) 0.6152(3)
C55 C 0.9216(4) 0.0915(4) 0.6732(4)
H50 H 0.8652 0.0985 0.6612
C56 C 0.9742(4) 0.0700(4) 0.7494(4)
C57 C 1.0567(4) 0.0656(4) 0.7673(4)
H51 H 1.0920 0.0531 0.8208
C58 C 1.0882(4) 0.0790(4) 0.7082(4)
C59 C 1.0367(4) 0.0971(4) 0.6292(4)
C60 C 1.0498(4) 0.1030(4) 0.5502(4)
C61 C 1.1100(4) 0.1765(4) 0.5433(4)
H52 H 1.1516 0.1491 0.5248
C62 C 1.2242(4) 0.0613(5) 0.8013(4)
H53 H 1.2170 0.1073 0.8373
H54 H 1.2802 0.0624 0.8037
H55 H 1.2122 0.0023 0.8183
C63 C 0.9033(4) 0.2854(4) 0.4312(4)
C64 C 0.8353(4) 0.2971(5) 0.4509(4)
H56 H 0.8378 0.2838 0.5039
C65 C 0.7634(4) 0.3279(5) 0.3939(4)
H57 H 0.7166 0.3331 0.4075
C66 C 0.7595(4) 0.3507(5) 0.3186(4)
H58 H 0.7106 0.3740 0.2807
C67 C 0.8259(4) 0.3400(5) 0.2978(4)
H59 H 0.8225 0.3539 0.2447
C68 C 0.8991(4) 0.3087(5) 0.3546(4)
H60 H 0.9456 0.3034 0.3405
C69 C 0.9259(4) 0.0973(4) 0.4096(4)
C70 C 0.8416(4) 0.0909(5) 0.3736(4)
H61 H 0.8097 0.0976 0.4060
C71 C 0.8041(4) 0.0754(5) 0.2931(4)
H62 H 0.7468 0.0710 0.2704
C72 C 0.8486(4) 0.0662(5) 0.2446(4)
C73 C 0.9329(4) 0.0656(5) 0.2786(4)
H63 H 0.9643 0.0552 0.2462
C74 C 0.9704(4) 0.0807(4) 0.3612(4)
H64 H 1.0278 0.0795 0.3849
C75 C 0.8481(5) 0.0552(6) 0.1107(4)
H65 H 0.8865 0.1052 0.1226
H66 H 0.8103 0.0596 0.0548
H67 H 0.8777 -0.0016 0.1184
C76 C 0.8655(4) 0.0468(5) 0.7956(4)
H68 H 0.8404 0.0071 0.7478
C77 C 0.8551(4) 0.0042(5) 0.8674(4)
H69 H 0.8912 -0.0494 0.8835
C78 C 0.8324(4) 0.1466(5) 0.9140(4)
H70 H 0.8485 0.1863 0.9618
H71 H 0.7732 0.1369 0.8954
C79 C 0.8538(4) 0.1895(4) 0.8484(4)
H72 H 0.9143 0.1928 0.8680
C80 C 0.7536(5) -0.0643(5) 0.9073(4)
H73 H 0.7874 -0.1174 0.9278
H74 H 0.6964 -0.0816 0.8873
H75 H 0.7639 -0.0204 0.9508
C81 C 0.8221(4) 0.2828(5) 0.8216(4)
H76 H 0.8406 0.3246 0.8686
C82 C 0.8496(4) 0.3169(5) 0.7564(4)
H77 H 0.8295 0.2779 0.7083
H78 H 0.8300 0.3787 0.7407
C83 C 0.9781(5) 0.3273(5) 0.7415(5)
C84 C 1.0669(4) 0.3186(5) 0.7868(4)
C85 C 1.1179(4) 0.3401(5) 0.7477(5)
H79 H 1.0966 0.3589 0.6930
C86 C 1.2016(5) 0.3341(6) 0.7885(5)
H80 H 1.2375 0.3497 0.7619
C87 C 1.2319(4) 0.3057(6) 0.8673(5)
C88 C 1.1803(5) 0.2834(6) 0.9069(4)
H81 H 1.2012 0.2642 0.9614
C89 C 1.0987(5) 0.2897(6) 0.8657(5)
H82 H 1.0628 0.2737 0.8921
C90 C 0.6942(4) 0.3048(5) 0.8339(4)
C91 C 0.6058(4) 0.3187(5) 0.7869(4)
C92 C 0.5530(4) 0.3243(5) 0.8279(4)
H83 H 0.5741 0.3200 0.8849
C93 C 0.4719(4) 0.3359(5) 0.7891(5)
H84 H 0.4365 0.3404 0.8182
C94 C 0.4420(4) 0.3409(6) 0.7043(4)
C95 C 0.4923(4) 0.3379(6) 0.6628(5)
H85 H 0.4713 0.3442 0.6059
C96 C 0.5749(4) 0.3255(5) 0.7037(4)
H86 H 0.6102 0.3217 0.6746
O16 O 1.1578(3) 0.3346(3) 0.4649(3)
O17 O 1.0648(3) 0.4031(3) 0.5019(3)
O18 O 0.9088(2) 0.1183(3) 0.5359(2)
O19 O 0.9492(2) 0.0519(3) 0.8124(2)
O20 O 1.1707(2) 0.0787(3) 0.7211(3)
O21 O 1.0760(3) 0.0215(3) 0.5283(3)
H87 H 1.0421 -0.0189 0.5257
O22 O 1.1477(3) 0.2264(3) 0.6139(3)
H88 H 1.1706 0.1915 0.6523
O23 O 0.8042(3) 0.0587(4) 0.1634(3)
O24 O 0.8281(2) 0.1310(3) 0.7790(2)
O25 O 0.7732(3) -0.0250(3) 0.8424(3)
O26 O 0.8740(3) 0.0624(3) 0.9348(2)
O27 O 0.7345(2) 0.2843(3) 0.7852(3)
O28 O 0.9366(3) 0.3148(3) 0.7914(3)
O29 O 0.9455(3) 0.3407(4) 0.6709(3)
O30 O 0.7242(3) 0.3088(3) 0.9059(3)
Br3 Br 1.34522(5) 0.29480(8) 0.92439(5)
Br4 Br 0.32934(5) 0.35155(8) 0.65079(6)
loop_
_geom_bond_atom_site_label_1
_geom_bond_atom_site_label_2
_geom_bond_site_symmetry_1
_geom_bond_site_symmetry_2
C1 H1 1_555 1_555
H2 C1 1_555 1_555
H3 C1 1_555 1_555
C2 C3 1_555 1_555
C3 H4 1_555 1_555
C4 C3 1_555 1_555
H5 C4 1_555 1_555
C5 C4 1_555 1_555
C6 C7 1_555 1_555
C7 H6 1_555 1_555
C8 C7 1_555 1_555
C9 C8 1_555 1_555
H7 C9 1_555 1_555
C10 C9 1_555 1_555
C11 C6 1_555 1_555
C12 C5 1_555 1_555
C13 C3 1_555 1_555
H8 C13 1_555 1_555
C14 H9 1_555 1_555
H10 C14 1_555 1_555
H11 C14 1_555 1_555
C15 C4 1_555 1_555
C16 C15 1_555 1_555
H12 C16 1_555 1_555
C17 C16 1_555 1_555
H13 C17 1_555 1_555
C18 C17 1_555 1_555
H14 C18 1_555 1_555
C19 C18 1_555 1_555
H15 C19 1_555 1_555
C20 C15 1_555 1_555
H16 C20 1_555 1_555
C21 C5 1_555 1_555
C22 C21 1_555 1_555
H17 C22 1_555 1_555
C23 C22 1_555 1_555
H18 C23 1_555 1_555
C24 C23 1_555 1_555
C25 C24 1_555 1_555
H19 C25 1_555 1_555
C26 C21 1_555 1_555
H20 C26 1_555 1_555
C27 H21 1_555 1_555
H22 C27 1_555 1_555
H23 C27 1_555 1_555
C28 H24 1_555 1_555
C29 C28 1_555 1_555
H25 C29 1_555 1_555
C30 H26 1_555 1_555
H27 C30 1_555 1_555
C31 C30 1_555 1_555
H28 C31 1_555 1_555
C32 H29 1_555 1_555
H30 C32 1_555 1_555
H31 C32 1_555 1_555
C33 C31 1_555 1_555
H32 C33 1_555 1_555
C34 C33 1_555 1_555
H33 C34 1_555 1_555
H34 C34 1_555 1_555
C35 C36 1_555 1_555
C36 C37 1_555 1_555
C37 H35 1_555 1_555
C38 C37 1_555 1_555
H36 C38 1_555 1_555
C39 C38 1_555 1_555
C40 C39 1_555 1_555
H37 C40 1_555 1_555
C41 C36 1_555 1_555
H38 C41 1_555 1_555
C42 C43 1_555 1_555
C43 C44 1_555 1_555
C44 H39 1_555 1_555
C45 C44 1_555 1_555
H40 C45 1_555 1_555
C46 C45 1_555 1_555
C47 C46 1_555 1_555
H41 C47 1_555 1_555
C48 C43 1_555 1_555
H42 C48 1_555 1_555
O1 C1 1_555 1_555
O2 C2 1_555 1_555
O3 C5 1_555 1_555
O4 C8 1_555 1_555
O5 C10 1_555 1_555
O6 C12 1_555 1_555
H43 O6 1_555 1_555
O7 C13 1_555 1_555
H44 O7 1_555 1_555
O8 C24 1_555 1_555
O9 C28 1_555 1_555
O10 C29 1_555 1_555
O11 C29 1_555 1_555
O12 C33 1_555 1_555
O13 C34 1_555 1_555
O14 C35 1_555 1_555
O15 C42 1_555 1_555
Br1 C39 1_555 1_555
Br2 C46 1_555 1_555
C49 H45 1_555 1_555
H46 C49 1_555 1_555
H47 C49 1_555 1_555
C50 C51 1_555 1_555
C51 H48 1_555 1_555
C52 C51 1_555 1_555
H49 C52 1_555 1_555
C53 C52 1_555 1_555
C54 C55 1_555 1_555
C55 H50 1_555 1_555
C56 C55 1_555 1_555
C57 C56 1_555 1_555
H51 C57 1_555 1_555
C58 C57 1_555 1_555
C59 C54 1_555 1_555
C60 C53 1_555 1_555
C61 C51 1_555 1_555
H52 C61 1_555 1_555
C62 H53 1_555 1_555
H54 C62 1_555 1_555
H55 C62 1_555 1_555
C63 C52 1_555 1_555
C64 C63 1_555 1_555
H56 C64 1_555 1_555
C65 C64 1_555 1_555
H57 C65 1_555 1_555
C66 C65 1_555 1_555
H58 C66 1_555 1_555
C67 C66 1_555 1_555
H59 C67 1_555 1_555
C68 C63 1_555 1_555
H60 C68 1_555 1_555
C69 C53 1_555 1_555
C70 C69 1_555 1_555
H61 C70 1_555 1_555
C71 C70 1_555 1_555
H62 C71 1_555 1_555
C72 C71 1_555 1_555
C73 C72 1_555 1_555
H63 C73 1_555 1_555
C74 C69 1_555 1_555
H64 C74 1_555 1_555
C75 H65 1_555 1_555
H66 C75 1_555 1_555
H67 C75 1_555 1_555
C76 H68 1_555 1_555
C77 C76 1_555 1_555
H69 C77 1_555 1_555
C78 H70 1_555 1_555
H71 C78 1_555 1_555
C79 C78 1_555 1_555
H72 C79 1_555 1_555
C80 H73 1_555 1_555
H74 C80 1_555 1_555
H75 C80 1_555 1_555
C81 C79 1_555 1_555
H76 C81 1_555 1_555
C82 C81 1_555 1_555
H77 C82 1_555 1_555
H78 C82 1_555 1_555
C83 C84 1_555 1_555
C84 C85 1_555 1_555
C85 H79 1_555 1_555
C86 C85 1_555 1_555
H80 C86 1_555 1_555
C87 C86 1_555 1_555
C88 C87 1_555 1_555
H81 C88 1_555 1_555
C89 C84 1_555 1_555
H82 C89 1_555 1_555
C90 C91 1_555 1_555
C91 C92 1_555 1_555
C92 H83 1_555 1_555
C93 C92 1_555 1_555
H84 C93 1_555 1_555
C94 C93 1_555 1_555
C95 C94 1_555 1_555
H85 C95 1_555 1_555
C96 C91 1_555 1_555
H86 C96 1_555 1_555
O16 C49 1_555 1_555
O17 C50 1_555 1_555
O18 C53 1_555 1_555
O19 C56 1_555 1_555
O20 C58 1_555 1_555
O21 C60 1_555 1_555
H87 O21 1_555 1_555
O22 C61 1_555 1_555
H88 O22 1_555 1_555
O23 C72 1_555 1_555
O24 C76 1_555 1_555
O25 C77 1_555 1_555
O26 C77 1_555 1_555
O27 C81 1_555 1_555
O28 C82 1_555 1_555
O29 C83 1_555 1_555
O30 C90 1_555 1_555
Br3 C87 1_555 1_555
Br4 C94 1_555 1_555
C2 O1 1_555 1_555
C6 O3 1_555 1_555
C10 C11 1_555 1_555
C11 C12 1_555 1_555
C12 C13 1_555 1_555
C14 O5 1_555 1_555
C19 C20 1_555 1_555
C25 C26 1_555 1_555
C27 O8 1_555 1_555
C28 O4 1_555 1_555
C30 O11 1_555 1_555
C31 O9 1_555 1_555
C32 O10 1_555 1_555
C35 O13 1_555 1_555
C40 C41 1_555 1_555
C42 O12 1_555 1_555
C47 C48 1_555 1_555
C50 O16 1_555 1_555
C54 O18 1_555 1_555
C58 C59 1_555 1_555
C59 C60 1_555 1_555
C60 C61 1_555 1_555
C62 O20 1_555 1_555
C67 C68 1_555 1_555
C73 C74 1_555 1_555
C75 O23 1_555 1_555
C76 O19 1_555 1_555
C78 O26 1_555 1_555
C79 O24 1_555 1_555
C80 O25 1_555 1_555
C83 O28 1_555 1_555
C88 C89 1_555 1_555
C90 O27 1_555 1_555
C95 C96 1_555 1_555

#END
