
#######################################################################
#
#                 Cambridge Crystallographic Data Centre
#                                CCDC 
#
#######################################################################
#
# If this CIF has been generated from an entry in the Cambridge 
# Structural Database, then it will include bibliographic, chemical, 
# crystal, experimental, refinement or atomic coordinate data resulting 
# from the CCDC's data processing and validation procedures.
#
#######################################################################

data_IZILIM
_chemical_formula_moiety         'C30 H50 O3'
_chemical_name_systematic        17,24-Epoxy-25-hydroxybaccharan-3-one
_chemical_properties_biological  
'cytotoxic inactivity against human lung cancer, hormone-dependent human prostate cancer, human breast cancer and human umbilical vein endothelial cells'
_symmetry_cell_setting           monoclinic
_symmetry_space_group_name_H-M   'P 21'
_symmetry_Int_Tables_number      4
_space_group_name_Hall           'P 2yb'
loop_
_symmetry_equiv_pos_site_id
_symmetry_equiv_pos_as_xyz
1 x,y,z
2 -x,1/2+y,-z
_cell_length_a                   8.1676(4)
_cell_length_b                   10.8642(5)
_cell_length_c                   15.1032(8)
_cell_angle_alpha                90.00
_cell_angle_beta                 98.682(2)
_cell_angle_gamma                90.00
_cell_volume                     1324.82
_exptl_crystal_colour            colorless
_exptl_crystal_description       needle
_chemical_melting_point          180-182deg.C
_cell_formula_units_Z            2
loop_
_atom_site_label
_atom_site_type_symbol
_atom_site_fract_x
_atom_site_fract_y
_atom_site_fract_z
C1 C 1.5388(2) 0.7926(2) 0.97107(13)
H1 H 1.5674 0.7305 0.9279
H2 H 1.5609 0.8750 0.9475
C2 C 1.6503(3) 0.7736(2) 1.06124(14)
H3 H 1.6391 0.6877 1.0814
H4 H 1.7673 0.7867 1.0535
C3 C 1.6068(3) 0.8602(2) 1.13155(13)
O1 O 1.7127(2) 0.92385(19) 1.17418(12)
C4 C 1.4253(3) 0.8666(2) 1.14531(13)
C5 C 1.3914(3) 0.7536(2) 1.20166(14)
H5 H 1.4214 0.6784 1.1720
H6 H 1.2735 0.7510 1.2075
H7 H 1.4577 0.7596 1.2613
C6 C 1.3992(3) 0.9822(2) 1.19972(14)
H8 H 1.4812 0.9839 1.2542
H9 H 1.2875 0.9810 1.2160
H10 H 1.4122 1.0556 1.1637
C7 C 1.3142(2) 0.87420(19) 1.05094(12)
H11 H 1.3389 0.9570 1.0273
C8 C 1.1287(2) 0.8774(2) 1.05557(12)
H12 H 1.0907 0.7940 1.0695
H13 H 1.1075 0.9335 1.1042
C9 C 1.0319(2) 0.9212(2) 0.96687(13)
H14 H 1.0628 1.0076 0.9568
H15 H 0.9123 0.9198 0.9714
C10 C 1.0610(2) 0.84389(19) 0.88509(12)
C11 C 0.9755(2) 0.7179(2) 0.89104(14)
H16 H 0.8573 0.7255 0.8677
H17 H 0.9890 0.6911 0.9537
H18 H 1.0261 0.6571 0.8555
C12 C 1.2517(2) 0.82856(18) 0.88655(12)
H19 H 1.2936 0.9138 0.8786
C13 C 1.3527(2) 0.78215(19) 0.97768(12)
C14 C 1.3161(3) 0.64686(19) 0.99758(13)
H20 H 1.4114 0.6113 1.0364
H21 H 1.2955 0.6006 0.9413
H22 H 1.2182 0.6425 1.0278
C15 C 1.2895(2) 0.7569(2) 0.80387(12)
H23 H 1.4107 0.7572 0.8035
H24 H 1.2544 0.6702 0.8087
C16 C 1.2027(2) 0.8105(2) 0.71509(12)
H25 H 1.2536 0.8908 0.7043
H26 H 1.2196 0.7545 0.6656
C17 C 1.0168(2) 0.82847(19) 0.71495(12)
H27 H 0.9682 0.7457 0.7239
C18 C 0.9848(2) 0.91162(19) 0.79491(13)
C19 C 1.0618(3) 1.0410(2) 0.78745(14)
H28 H 1.1828 1.0340 0.7956
H29 H 1.0293 1.0949 0.8338
H30 H 1.0220 1.0757 0.7282
C20 C 0.7956(3) 0.9327(2) 0.79016(14)
H31 H 0.7435 0.8547 0.8053
H32 H 0.7772 0.9945 0.8358
C21 C 0.7099(3) 0.9766(3) 0.69858(15)
H33 H 0.7507 1.0600 0.6869
H34 H 0.5892 0.9827 0.6997
C22 C 0.7401(3) 0.8904(2) 0.62203(14)
C23 C 0.6555(3) 0.7662(3) 0.63017(17)
H35 H 0.5350 0.7772 0.6193
H36 H 0.6890 0.7330 0.6905
H37 H 0.6882 0.7088 0.5859
C24 C 0.9290(2) 0.8791(2) 0.62588(12)
H38 H 0.9750 0.9625 0.6163
O2 O 0.96569(18) 0.79857(14) 0.55535(9)
C25 C 0.9119(3) 0.8440(2) 0.46609(13)
H39 H 0.9210 0.7726 0.4254
C26 C 0.7273(3) 0.8770(3) 0.45343(15)
H40 H 0.6617 0.8001 0.4455
H41 H 0.7001 0.9261 0.3979
C27 C 0.6752(3) 0.9500(3) 0.53162(16)
H42 H 0.7185 1.0350 0.5307
H43 H 0.5528 0.9545 0.5241
C28 C 1.0293(3) 0.9440(2) 0.43786(15)
O3 O 0.9973(4) 1.0553(2) 0.48324(13)
H44 H 1.0052 1.1158 0.4495
C29 C 0.9956(3) 0.9640(3) 0.33732(15)
H45 H 0.8822 0.9944 0.3203
H46 H 1.0087 0.8860 0.3066
H47 H 1.0739 1.0246 0.3202
C30 C 1.2072(3) 0.9040(5) 0.4648(2)
H48 H 1.2337 0.9023 0.5302
H49 H 1.2808 0.9622 0.4406
H50 H 1.2224 0.8216 0.4409
loop_
_geom_bond_atom_site_label_1
_geom_bond_atom_site_label_2
_geom_bond_site_symmetry_1
_geom_bond_site_symmetry_2
C1 H1 1_555 1_555
H2 C1 1_555 1_555
C2 C1 1_555 1_555
H3 C2 1_555 1_555
H4 C2 1_555 1_555
C3 C2 1_555 1_555
O1 C3 1_555 1_555
C4 C3 1_555 1_555
C5 C4 1_555 1_555
H5 C5 1_555 1_555
H6 C5 1_555 1_555
H7 C5 1_555 1_555
C6 C4 1_555 1_555
H8 C6 1_555 1_555
H9 C6 1_555 1_555
H10 C6 1_555 1_555
C7 C4 1_555 1_555
H11 C7 1_555 1_555
C8 C7 1_555 1_555
H12 C8 1_555 1_555
H13 C8 1_555 1_555
C9 C8 1_555 1_555
H14 C9 1_555 1_555
H15 C9 1_555 1_555
C10 C9 1_555 1_555
C11 C10 1_555 1_555
H16 C11 1_555 1_555
H17 C11 1_555 1_555
H18 C11 1_555 1_555
C12 C10 1_555 1_555
H19 C12 1_555 1_555
C13 C1 1_555 1_555
C14 C13 1_555 1_555
H20 C14 1_555 1_555
H21 C14 1_555 1_555
H22 C14 1_555 1_555
C15 C12 1_555 1_555
H23 C15 1_555 1_555
H24 C15 1_555 1_555
C16 C15 1_555 1_555
H25 C16 1_555 1_555
H26 C16 1_555 1_555
C17 C16 1_555 1_555
H27 C17 1_555 1_555
C18 C10 1_555 1_555
C19 C18 1_555 1_555
H28 C19 1_555 1_555
H29 C19 1_555 1_555
H30 C19 1_555 1_555
C20 C18 1_555 1_555
H31 C20 1_555 1_555
H32 C20 1_555 1_555
C21 C20 1_555 1_555
H33 C21 1_555 1_555
H34 C21 1_555 1_555
C22 C21 1_555 1_555
C23 C22 1_555 1_555
H35 C23 1_555 1_555
H36 C23 1_555 1_555
H37 C23 1_555 1_555
C24 C17 1_555 1_555
H38 C24 1_555 1_555
O2 C24 1_555 1_555
C25 O2 1_555 1_555
H39 C25 1_555 1_555
C26 C25 1_555 1_555
H40 C26 1_555 1_555
H41 C26 1_555 1_555
C27 C22 1_555 1_555
H42 C27 1_555 1_555
H43 C27 1_555 1_555
C28 C25 1_555 1_555
O3 C28 1_555 1_555
H44 O3 1_555 1_555
C29 C28 1_555 1_555
H45 C29 1_555 1_555
H46 C29 1_555 1_555
H47 C29 1_555 1_555
C30 C28 1_555 1_555
H48 C30 1_555 1_555
H49 C30 1_555 1_555
H50 C30 1_555 1_555
C7 C13 1_555 1_555
C12 C13 1_555 1_555
C17 C18 1_555 1_555
C22 C24 1_555 1_555
C26 C27 1_555 1_555

#END
