
#######################################################################
#
#                 Cambridge Crystallographic Data Centre
#                                CCDC 
#
#######################################################################
#
# If this CIF has been generated from an entry in the Cambridge 
# Structural Database, then it will include bibliographic, chemical, 
# crystal, experimental, refinement or atomic coordinate data resulting 
# from the CCDC's data processing and validation procedures.
#
#######################################################################

data_IZIMAG
_chemical_formula_moiety         'C13 H13 N3 O1 S1'
_chemical_name_systematic        
'S-(4,6-Dimethylpyrimidin-2-yl) phenylcarbamothioate'
_symmetry_cell_setting           triclinic
_symmetry_space_group_name_H-M   'P -1'
_symmetry_Int_Tables_number      2
_space_group_name_Hall           '-P 1'
loop_
_symmetry_equiv_pos_site_id
_symmetry_equiv_pos_as_xyz
1 x,y,z
2 -x,-y,-z
_cell_length_a                   10.070(2)
_cell_length_b                   10.085(2)
_cell_length_c                   14.158(3)
_cell_angle_alpha                103.00(3)
_cell_angle_beta                 93.27(3)
_cell_angle_gamma                113.14(3)
_cell_volume                     1271.18
_exptl_crystal_colour            colorless
_exptl_crystal_description       block
_cell_formula_units_Z            4
loop_
_atom_site_label
_atom_site_type_symbol
_atom_site_fract_x
_atom_site_fract_y
_atom_site_fract_z
S1 S 0.25661(9) 0.24919(11) 0.48237(6)
O1 O 0.3754(3) 0.3279(3) 0.66159(15)
N1 N 0.4578(3) 0.2979(3) 0.35981(18)
N2 N 0.2038(3) 0.1819(3) 0.29303(18)
N3 N 0.5431(3) 0.3492(3) 0.55645(19)
H1 H 0.5480 0.3293 0.4948
C1 C 0.3163(4) 0.2431(4) 0.3659(2)
C2 C 0.2390(4) 0.1729(4) 0.2024(2)
C3 C 0.3835(4) 0.2236(4) 0.1876(2)
H3 H 0.4067 0.2151 0.1244
C4 C 0.4917(4) 0.2870(4) 0.2685(2)
C5 C 0.1141(4) 0.1052(4) 0.1178(2)
H4 H 0.0347 0.0240 0.1314
H5 H 0.1462 0.0686 0.0589
H6 H 0.0817 0.1801 0.1091
C6 C 0.6505(4) 0.3450(4) 0.2603(3)
H7 H 0.6965 0.4511 0.2897
H8 H 0.6611 0.3245 0.1922
H9 H 0.6959 0.2968 0.2935
C7 C 0.6778(3) 0.4122(4) 0.6223(2)
C8 C 0.8039(4) 0.4582(4) 0.5800(2)
H10 H 0.7967 0.4439 0.5124
C9 C 0.9397(4) 0.5252(4) 0.6386(3)
H11 H 1.0239 0.5567 0.6103
C10 C 0.9512(4) 0.5456(4) 0.7389(3)
H12 H 1.0427 0.5913 0.7784
C11 C 0.8261(4) 0.4977(4) 0.7798(2)
H13 H 0.8338 0.5098 0.8473
C12 C 0.6882(4) 0.4314(4) 0.7224(2)
H14 H 0.6043 0.4006 0.7511
C13 C 0.4090(3) 0.3175(3) 0.5806(2)
S2 S 0.78364(10) 0.24690(12) 0.99479(6)
O2 O 0.5067(3) 0.1676(3) 0.97680(17)
N4 N 1.0505(3) 0.3213(3) 0.9640(2)
N5 N 0.8738(3) 0.2046(3) 0.81748(18)
N6 N 0.5835(3) 0.1200(3) 0.82891(18)
H2 H 0.6627 0.1325 0.8048
C14 C 0.9141(3) 0.2578(4) 0.9137(2)
C15 C 0.9827(3) 0.2195(4) 0.7629(2)
C16 C 1.1258(4) 0.2819(4) 0.8080(2)
H15 H 1.2005 0.2899 0.7709
C17 C 1.1575(4) 0.3328(4) 0.9091(2)
C18 C 0.9389(4) 0.1651(4) 0.6538(2)
H16 H 0.8883 0.0578 0.6347
H17 H 1.0246 0.1949 0.6232
H18 H 0.8755 0.2074 0.6335
C19 C 1.3116(4) 0.4043(5) 0.9625(3)
H19 H 1.3120 0.4372 1.0316
H20 H 1.3679 0.4886 0.9392
H21 H 1.3537 0.3328 0.9507
C20 C 0.4525(3) 0.0507(4) 0.7598(2)
C21 C 0.4676(4) 0.0163(4) 0.6622(2)
H22 H 0.5605 0.0401 0.6454
C22 C 0.3464(4) -0.0531(4) 0.5890(3)
H23 H 0.3581 -0.0752 0.5234
C23 C 0.2073(4) -0.0895(4) 0.6134(3)
H24 H 0.1251 -0.1377 0.5647
C24 C 0.1930(4) -0.0532(4) 0.7110(3)
H25 H 0.1001 -0.0760 0.7277
C25 C 0.3139(4) 0.0164(4) 0.7850(3)
H26 H 0.3023 0.0397 0.8505
C26 C 0.6000(4) 0.1683(4) 0.9260(2)
loop_
_geom_bond_atom_site_label_1
_geom_bond_atom_site_label_2
_geom_bond_site_symmetry_1
_geom_bond_site_symmetry_2
S1 C1 1_555 1_555
S2 C14 1_555 1_555
O1 C13 1_555 1_555
O2 C26 1_555 1_555
N1 C1 1_555 1_555
N2 C1 1_555 1_555
N3 H1 1_555 1_555
N4 C14 1_555 1_555
N5 C14 1_555 1_555
N6 H2 1_555 1_555
C2 N2 1_555 1_555
C3 C2 1_555 1_555
H3 C3 1_555 1_555
C4 N1 1_555 1_555
C5 C2 1_555 1_555
H4 C5 1_555 1_555
H5 C5 1_555 1_555
H6 C5 1_555 1_555
C6 C4 1_555 1_555
H7 C6 1_555 1_555
H8 C6 1_555 1_555
H9 C6 1_555 1_555
C7 N3 1_555 1_555
C8 C7 1_555 1_555
H10 C8 1_555 1_555
C9 C8 1_555 1_555
H11 C9 1_555 1_555
C10 C9 1_555 1_555
H12 C10 1_555 1_555
C11 C10 1_555 1_555
H13 C11 1_555 1_555
C12 C7 1_555 1_555
H14 C12 1_555 1_555
C13 S1 1_555 1_555
C15 N5 1_555 1_555
C16 C15 1_555 1_555
H15 C16 1_555 1_555
C17 N4 1_555 1_555
C18 C15 1_555 1_555
H16 C18 1_555 1_555
H17 C18 1_555 1_555
H18 C18 1_555 1_555
C19 C17 1_555 1_555
H19 C19 1_555 1_555
H20 C19 1_555 1_555
H21 C19 1_555 1_555
C20 N6 1_555 1_555
C21 C20 1_555 1_555
H22 C21 1_555 1_555
C22 C21 1_555 1_555
H23 C22 1_555 1_555
C23 C22 1_555 1_555
H24 C23 1_555 1_555
C24 C23 1_555 1_555
H25 C24 1_555 1_555
C25 C20 1_555 1_555
H26 C25 1_555 1_555
C26 S2 1_555 1_555
N3 C13 1_555 1_555
N6 C26 1_555 1_555
C3 C4 1_555 1_555
C11 C12 1_555 1_555
C16 C17 1_555 1_555
C24 C25 1_555 1_555

#END
