
#######################################################################
#
#                 Cambridge Crystallographic Data Centre
#                                CCDC 
#
#######################################################################
#
# If this CIF has been generated from an entry in the Cambridge 
# Structural Database, then it will include bibliographic, chemical, 
# crystal, experimental, refinement or atomic coordinate data resulting 
# from the CCDC's data processing and validation procedures.
#
#######################################################################

data_IZINOW
_chemical_formula_moiety         'C17 H11 Br1 N2'
_chemical_name_systematic        3-bromo-1-phenylimidazo[1,5-a]quinoline
_symmetry_cell_setting           orthorhombic
_symmetry_space_group_name_H-M   'P n a 21'
_symmetry_Int_Tables_number      33
_space_group_name_Hall           'P 2c -2n'
loop_
_symmetry_equiv_pos_site_id
_symmetry_equiv_pos_as_xyz
1 x,y,z
2 -x,-y,1/2+z
3 1/2+x,1/2-y,z
4 1/2-x,1/2+y,1/2+z
_cell_length_a                   18.523(5)
_cell_length_b                   14.642(4)
_cell_length_c                   5.1195(15)
_cell_angle_alpha                90
_cell_angle_beta                 90
_cell_angle_gamma                90
_cell_volume                     1388.48
_exptl_crystal_colour            yellow
_exptl_crystal_description       block
_cell_formula_units_Z            4
loop_
_atom_site_label
_atom_site_type_symbol
_atom_site_fract_x
_atom_site_fract_y
_atom_site_fract_z
Br1 Br 0.68461(6) 0.77665(8) 0.6229(3)
N1 N 0.8272(4) 0.8518(5) 0.0729(18)
N2 N 0.8091(4) 0.7335(6) 0.332(2)
C1 C 0.7645(5) 0.8691(6) 0.220(2)
C2 C 0.7265(6) 0.9527(7) 0.180(2)
H1 H 0.6859 0.9657 0.2803
C3 C 0.7484(6) 1.0123(7) 0.000(2)
H2 H 0.7225 1.0660 -0.0251
C4 C 0.8354(6) 1.0560(7) -0.348(3)
H3 H 0.8088 1.1088 -0.3790
C5 C 0.8948(7) 1.0415(7) -0.490(3)
H4 H 0.9101 1.0850 -0.6098
C6 C 0.9339(6) 0.9608(7) -0.458(2)
H5 H 0.9745 0.9496 -0.5592
C7 C 0.9117(6) 0.8974(7) -0.273(2)
H6 H 0.9374 0.8434 -0.2518
C8 C 0.8520(5) 0.9141(6) -0.121(2)
C9 C 0.8110(5) 0.9950(7) -0.154(2)
C10 C 0.7568(6) 0.7966(6) 0.377(2)
C11 C 0.8511(5) 0.7663(5) 0.150(3)
C12 C 0.9141(5) 0.7160(6) 0.048(2)
C13 C 0.9054(7) 0.6524(8) -0.133(3)
H7 H 0.8593 0.6411 -0.1982
C14 C 0.9628(9) 0.6022(9) -0.229(4)
H8 H 0.9558 0.5608 -0.3641
C15 C 1.0292(8) 0.6137(9) -0.125(3)
H9 H 1.0677 0.5780 -0.1816
C16 C 1.0391(7) 0.6764(12) 0.059(3)
H10 H 1.0854 0.6864 0.1228
C17 C 0.9822(6) 0.7278(10) 0.158(3)
H11 H 0.9894 0.7688 0.2938
loop_
_geom_bond_atom_site_label_1
_geom_bond_atom_site_label_2
_geom_bond_site_symmetry_1
_geom_bond_site_symmetry_2
Br1 C10 1_555 1_555
N1 C1 1_555 1_555
N2 C10 1_555 1_555
C1 C2 1_555 1_555
C2 H1 1_555 1_555
C3 C2 1_555 1_555
H2 C3 1_555 1_555
C4 H3 1_555 1_555
C5 C4 1_555 1_555
H4 C5 1_555 1_555
C6 C5 1_555 1_555
H5 C6 1_555 1_555
C7 C6 1_555 1_555
H6 C7 1_555 1_555
C8 N1 1_555 1_555
C9 C3 1_555 1_555
C10 C1 1_555 1_555
C11 N1 1_555 1_555
C12 C11 1_555 1_555
C13 C12 1_555 1_555
H7 C13 1_555 1_555
C14 C13 1_555 1_555
H8 C14 1_555 1_555
C15 C14 1_555 1_555
H9 C15 1_555 1_555
C16 C15 1_555 1_555
H10 C16 1_555 1_555
C17 C12 1_555 1_555
H11 C17 1_555 1_555
N2 C11 1_555 1_555
C4 C9 1_555 1_555
C7 C8 1_555 1_555
C8 C9 1_555 1_555
C16 C17 1_555 1_555

#END
