
#######################################################################
#
#                 Cambridge Crystallographic Data Centre
#                                CCDC 
#
#######################################################################
#
# If this CIF has been generated from an entry in the Cambridge 
# Structural Database, then it will include bibliographic, chemical, 
# crystal, experimental, refinement or atomic coordinate data resulting 
# from the CCDC's data processing and validation procedures.
#
#######################################################################

data_IZINUC
_chemical_formula_moiety         'C15 H24 O4'
_chemical_name_systematic        
6,8-dihydroxy-7-(2-hydroxypropan-2-yl)-3,10-dimethylspiro[4.5]dec-3-en-2-one
_symmetry_cell_setting           orthorhombic
_symmetry_space_group_name_H-M   'P 21 21 21'
_symmetry_Int_Tables_number      19
_space_group_name_Hall           'P 2ac 2ab'
loop_
_symmetry_equiv_pos_site_id
_symmetry_equiv_pos_as_xyz
1 x,y,z
2 1/2-x,-y,1/2+z
3 1/2+x,1/2-y,-z
4 -x,1/2+y,1/2-z
_cell_length_a                   7.0162(4)
_cell_length_b                   9.8847(6)
_cell_length_c                   20.6163(13)
_cell_angle_alpha                90
_cell_angle_beta                 90
_cell_angle_gamma                90
_cell_volume                     1429.8
_cell_formula_units_Z            4
loop_
_atom_site_label
_atom_site_type_symbol
_atom_site_fract_x
_atom_site_fract_y
_atom_site_fract_z
O1 O 0.8498(3) 1.1583(2) 0.55055(8)
O2 O 0.7744(2) 1.24884(14) 0.29625(7)
H1 H 0.8418 1.3111 0.3091
O3 O 0.9514(2) 0.92133(15) 0.16267(7)
H2 H 0.8464 0.8864 0.1577
O4 O 0.6035(2) 0.87232(16) 0.20899(8)
H3 H 0.4937 0.8440 0.2078
C1 C 0.7662(3) 1.0795(2) 0.38263(10)
C2 C 0.8758(3) 0.9625(2) 0.41243(10)
H4 H 0.9046 0.8839 0.3897
C3 C 0.9272(3) 0.9825(2) 0.47414(11)
C4 C 0.8550(3) 1.1171(3) 0.49475(11)
C5 C 0.7917(3) 1.1911(2) 0.43447(11)
H5 H 0.8873 1.2562 0.4210
H6 H 0.6725 1.2383 0.4420
C6 C 1.0327(4) 0.8892(3) 0.51870(12)
H7 H 0.9451 0.8499 0.5491
H8 H 1.1286 0.9391 0.5417
H9 H 1.0921 0.8187 0.4938
C7 C 0.8546(3) 1.1220(2) 0.31692(10)
H10 H 0.9916 1.1354 0.3235
C8 C 0.8288(3) 1.01446(19) 0.26383(10)
H11 H 0.8898 0.9323 0.2805
C9 C 0.6171(3) 0.9793(2) 0.25597(10)
H12 H 0.5487 1.0588 0.2398
C10 C 0.5310(3) 0.9360(2) 0.32042(11)
H13 H 0.5932 0.8538 0.3350
H14 H 0.3969 0.9161 0.3143
C11 C 0.5519(3) 1.0448(2) 0.37270(10)
H15 H 0.4883 1.1266 0.3568
C12 C 0.4511(3) 1.0014(2) 0.43509(11)
H16 H 0.3183 0.9867 0.4264
H17 H 0.4646 1.0711 0.4672
H18 H 0.5072 0.9191 0.4509
C13 C 0.9308(3) 1.0465(2) 0.19845(10)
C14 C 1.1350(3) 1.0938(2) 0.20949(11)
H19 H 1.1972 1.0337 0.2393
H20 H 1.1340 1.1837 0.2271
H21 H 1.2024 1.0938 0.1690
C15 C 0.8243(3) 1.1460(2) 0.15515(11)
H22 H 0.8871 1.1520 0.1139
H23 H 0.8229 1.2336 0.1753
H24 H 0.6958 1.1153 0.1490
loop_
_geom_bond_atom_site_label_1
_geom_bond_atom_site_label_2
_geom_bond_site_symmetry_1
_geom_bond_site_symmetry_2
O1 C4 1_555 1_555
O2 H1 1_555 1_555
O3 H2 1_555 1_555
O4 H3 1_555 1_555
C1 C2 1_555 1_555
C2 H4 1_555 1_555
C3 C2 1_555 1_555
C4 C3 1_555 1_555
C5 C1 1_555 1_555
H5 C5 1_555 1_555
H6 C5 1_555 1_555
C6 C3 1_555 1_555
H7 C6 1_555 1_555
H8 C6 1_555 1_555
H9 C6 1_555 1_555
C7 O2 1_555 1_555
H10 C7 1_555 1_555
C8 C7 1_555 1_555
H11 C8 1_555 1_555
C9 O4 1_555 1_555
H12 C9 1_555 1_555
C10 C9 1_555 1_555
H13 C10 1_555 1_555
H14 C10 1_555 1_555
C11 C1 1_555 1_555
H15 C11 1_555 1_555
C12 C11 1_555 1_555
H16 C12 1_555 1_555
H17 C12 1_555 1_555
H18 C12 1_555 1_555
C13 O3 1_555 1_555
C14 C13 1_555 1_555
H19 C14 1_555 1_555
H20 C14 1_555 1_555
H21 C14 1_555 1_555
C15 C13 1_555 1_555
H22 C15 1_555 1_555
H23 C15 1_555 1_555
H24 C15 1_555 1_555
C1 C7 1_555 1_555
C4 C5 1_555 1_555
C8 C9 1_555 1_555
C8 C13 1_555 1_555
C10 C11 1_555 1_555

#END
