
#######################################################################
#
#                 Cambridge Crystallographic Data Centre
#                                CCDC 
#
#######################################################################
#
# If this CIF has been generated from an entry in the Cambridge 
# Structural Database, then it will include bibliographic, chemical, 
# crystal, experimental, refinement or atomic coordinate data resulting 
# from the CCDC's data processing and validation procedures.
#
#######################################################################

data_IZIPOX
_chemical_formula_moiety         'C13 H13 I1 O3'
_chemical_name_systematic        
5'-Iodo-6'H-spiro[1,3-dioxolane-2,3'-tricyclo[6.2.1.0^2,7^]undeca[4,9]dien]-6'-one
_symmetry_cell_setting           orthorhombic
_symmetry_space_group_name_H-M   'P 21 21 21'
_symmetry_Int_Tables_number      19
_space_group_name_Hall           'P 2ac 2ab'
loop_
_symmetry_equiv_pos_site_id
_symmetry_equiv_pos_as_xyz
1 x,y,z
2 1/2-x,-y,1/2+z
3 -x,1/2+y,1/2-z
4 1/2+x,1/2-y,-z
_cell_length_a                   5.8347(11)
_cell_length_b                   14.046(3)
_cell_length_c                   15.419(3)
_cell_angle_alpha                90
_cell_angle_beta                 90
_cell_angle_gamma                90
_cell_volume                     1263.65
_exptl_crystal_colour            colorless
_exptl_crystal_description       block
_cell_formula_units_Z            4
_exptl_crystal_recrystallization_method dichloromethane/hexanes
loop_
_atom_site_label
_atom_site_type_symbol
_atom_site_fract_x
_atom_site_fract_y
_atom_site_fract_z
I1 I 0.20391(5) 0.48248(2) 0.593903(15)
O1 O -0.2256(6) 0.3543(2) 0.63238(19)
O2 O -0.3230(6) 0.61565(18) 0.81677(17)
O3 O -0.0558(6) 0.5688(2) 0.91674(17)
C1 C -0.1945(7) 0.4019(2) 0.69692(19)
C2 C -0.0200(6) 0.4768(3) 0.69944(18)
C3 C -0.0004(7) 0.5366(2) 0.7657(2)
C4 C -0.1691(7) 0.5400(2) 0.8397(2)
C5 C -0.2977(7) 0.4486(2) 0.8567(2)
C6 C -0.3259(6) 0.3808(3) 0.7782(2)
C7 C -0.2451(6) 0.2818(3) 0.8157(3)
C8 C -0.3296(7) 0.2897(3) 0.9085(4)
C9 C -0.1939(8) 0.3808(3) 0.9268(2)
C10 C 0.0374(6) 0.3514(3) 0.8952(2)
C11 C 0.0088(7) 0.2914(3) 0.8300(3)
C12 C -0.3372(12) 0.6757(3) 0.8880(3)
C13 C -0.1130(13) 0.6659(3) 0.9312(3)
H1 H 0.109(8) 0.579(3) 0.766(3)
H2 H -0.435(6) 0.467(3) 0.876(2)
H3 H -0.471(7) 0.378(3) 0.764(2)
H4 H -0.298(7) 0.230(3) 0.783(2)
H5 H -0.280(9) 0.232(3) 0.944(3)
H6 H -0.491(9) 0.291(3) 0.910(3)
H7 H -0.206(8) 0.406(3) 0.975(3)
H8 H 0.162(8) 0.377(3) 0.912(3)
H9 H 0.103(8) 0.268(3) 0.795(3)
H10 H -0.342(8) 0.736(3) 0.875(3)
H11 H -0.445(10) 0.658(4) 0.931(4)
H12 H 0.006(9) 0.699(4) 0.900(3)
H13 H -0.124(8) 0.676(3) 0.994(3)
loop_
_geom_bond_atom_site_label_1
_geom_bond_atom_site_label_2
_geom_bond_site_symmetry_1
_geom_bond_site_symmetry_2
I1 C2 1_555 1_555
O1 C1 1_555 1_555
O2 C4 1_555 1_555
O3 C4 1_555 1_555
C1 C2 1_555 1_555
C2 C3 1_555 1_555
C3 C4 1_555 1_555
C4 C5 1_555 1_555
C5 C6 1_555 1_555
C6 C1 1_555 1_555
C7 C6 1_555 1_555
C8 C7 1_555 1_555
C9 C5 1_555 1_555
C10 C9 1_555 1_555
C11 C7 1_555 1_555
C12 O2 1_555 1_555
C13 O3 1_555 1_555
H1 C3 1_555 1_555
H2 C5 1_555 1_555
H3 C6 1_555 1_555
H4 C7 1_555 1_555
H5 C8 1_555 1_555
H6 C8 1_555 1_555
H7 C9 1_555 1_555
H8 C10 1_555 1_555
H9 C11 1_555 1_555
H10 C12 1_555 1_555
H11 C12 1_555 1_555
H12 C13 1_555 1_555
H13 C13 1_555 1_555
C8 C9 1_555 1_555
C10 C11 1_555 1_555
C12 C13 1_555 1_555

#END
