
#######################################################################
#
#                 Cambridge Crystallographic Data Centre
#                                CCDC 
#
#######################################################################
#
# If this CIF has been generated from an entry in the Cambridge 
# Structural Database, then it will include bibliographic, chemical, 
# crystal, experimental, refinement or atomic coordinate data resulting 
# from the CCDC's data processing and validation procedures.
#
#######################################################################

data_IZIQIS
_chemical_formula_moiety         'C14 H9 F12 N1 O1'
_chemical_name_systematic        
5-Fluoro-2-methyl-5-(pentafluoroethyl)-3-phenyl-4,4-bis(trifluoromethyl)-1,2-oxazolidine
_symmetry_cell_setting           triclinic
_symmetry_space_group_name_H-M   'P -1'
_symmetry_Int_Tables_number      2
_space_group_name_Hall           '-P 1'
loop_
_symmetry_equiv_pos_site_id
_symmetry_equiv_pos_as_xyz
1 x,y,z
2 -x,-y,-z
_cell_length_a                   9.808(2)
_cell_length_b                   11.467(2)
_cell_length_c                   22.525(5)
_cell_angle_alpha                87.09(3)
_cell_angle_beta                 86.93(3)
_cell_angle_gamma                77.46(3)
_cell_volume                     2467.37
_exptl_crystal_colour            colorless
_exptl_crystal_description       plate
_cell_formula_units_Z            6
loop_
_atom_site_label
_atom_site_type_symbol
_atom_site_fract_x
_atom_site_fract_y
_atom_site_fract_z
F1 F 0.3313(4) 0.9732(3) 0.34056(18)
F2 F 0.4178(4) 1.0004(3) 0.42182(18)
F3 F 0.1985(4) 1.0015(3) 0.4211(2)
F4 F 0.3896(4) 0.8608(4) 0.51209(15)
F5 F 0.3847(3) 0.6783(4) 0.49772(13)
F6 F 0.1971(3) 0.8095(4) 0.49419(13)
F7 F 0.2552(3) 0.6443(3) 0.40837(12)
F8 F 0.1372(4) 0.8786(4) 0.30621(17)
F9 F 0.0455(3) 0.8501(3) 0.39290(16)
F10 F 0.1316(4) 0.6461(4) 0.28278(17)
F11 F 0.0201(5) 0.6332(5) 0.3656(2)
F12 F -0.0622(4) 0.7625(4) 0.3016(2)
O1 O 0.3628(3) 0.7061(3) 0.32625(13)
N1 N 0.5006(4) 0.6619(4) 0.35258(17)
C1 C 0.7038(5) 0.8056(5) 0.4492(2)
H1 H 0.6810 0.8867 0.4352
C2 C 0.8116(6) 0.7668(7) 0.4879(3)
H2 H 0.8587 0.8232 0.5022
C3 C 0.8513(6) 0.6491(7) 0.5061(3)
H3 H 0.9271 0.6240 0.5316
C4 C 0.7819(5) 0.5683(6) 0.4874(2)
H4 H 0.8101 0.4865 0.4997
C5 C 0.6698(6) 0.6041(5) 0.4506(2)
H5 H 0.6205 0.5472 0.4387
C6 C 0.6297(5) 0.7232(5) 0.4311(2)
C7 C 0.5138(5) 0.7634(4) 0.3888(2)
H6 H 0.5409 0.8261 0.3610
C8 C 0.3591(5) 0.8131(4) 0.4126(2)
C9 C 0.2773(5) 0.7418(5) 0.3734(2)
C10 C 0.3245(7) 0.9474(6) 0.3989(3)
C11 C 0.3340(7) 0.7888(6) 0.4803(2)
C12 C 0.1315(6) 0.7954(6) 0.3497(3)
C13 C 0.0571(7) 0.7044(8) 0.3244(3)
C14 C 0.5988(5) 0.6450(5) 0.3008(2)
H7 H 0.5856 0.5769 0.2789
H8 H 0.6948 0.6295 0.3141
H9 H 0.5816 0.7173 0.2747
F13 F 0.3315(4) -0.0272(3) 0.00712(19)
F14 F 0.1997(4) 0.0020(3) 0.08726(19)
F15 F 0.4181(4) -0.0001(3) 0.08873(18)
F16 F 0.1963(4) -0.1892(4) 0.16122(13)
F17 F 0.3895(4) -0.1403(4) 0.17890(14)
F18 F 0.3856(4) -0.3221(4) 0.16454(13)
F19 F 0.2550(3) -0.3557(3) 0.07483(13)
F20 F 0.0440(3) -0.1506(3) 0.06036(15)
F21 F 0.1366(4) -0.1209(4) -0.02666(17)
F22 F 0.1329(4) -0.3562(4) -0.05055(18)
F23 F -0.0628(4) -0.2385(4) -0.0314(2)
F24 F 0.0206(5) -0.3676(5) 0.0316(2)
O2 O 0.3627(3) -0.2942(3) -0.00710(13)
N2 N 0.5006(4) -0.3386(3) 0.01874(16)
C15 C 0.6698(5) -0.3959(5) 0.1169(2)
H10 H 0.6214 -0.4526 0.1040
C16 C 0.7789(6) -0.4334(5) 0.1538(2)
H11 H 0.8056 -0.5154 0.1660
C17 C 0.8493(6) -0.3530(7) 0.1730(2)
H12 H 0.9234 -0.3790 0.1993
C18 C 0.8134(6) -0.2345(7) 0.1546(3)
H13 H 0.8630 -0.1789 0.1679
C19 C 0.7042(6) -0.1962(5) 0.1163(2)
H14 H 0.6815 -0.1148 0.1027
C20 C 0.6282(5) -0.2759(5) 0.0978(2)
C21 C 0.5133(5) -0.2382(4) 0.05485(19)
H15 H 0.5400 -0.1753 0.0270
C22 C 0.3592(5) -0.1877(5) 0.0793(2)
C23 C 0.2762(5) -0.2571(5) 0.0401(2)
C24 C 0.3245(7) -0.0511(6) 0.0656(3)
C25 C 0.3323(6) -0.2115(7) 0.1459(3)
C26 C 0.1301(6) -0.2033(6) 0.0158(3)
C27 C 0.0583(7) -0.2939(8) -0.0098(4)
C28 C 0.5998(5) -0.3549(5) -0.0326(2)
H16 H 0.5872 -0.4228 -0.0548
H17 H 0.6954 -0.3705 -0.0189
H18 H 0.5831 -0.2824 -0.0585
F25 F 0.6140(3) 0.3222(4) 0.16885(13)
F26 F 0.6096(4) 0.1416(4) 0.15435(14)
F27 F 0.8035(3) 0.1898(4) 0.17239(14)
F28 F 0.5820(4) -0.0001(3) 0.24425(19)
F29 F 0.8004(4) -0.0012(3) 0.24633(19)
F30 F 0.6692(4) 0.0272(3) 0.32575(18)
F31 F 0.7451(3) 0.3551(3) 0.25827(12)
F32 F 0.8609(4) 0.1212(4) 0.36056(17)
F33 F 0.9554(3) 0.1511(3) 0.27300(16)
F34 F 0.8677(4) 0.3552(4) 0.38377(18)
F35 F 0.9761(5) 0.3700(5) 0.3018(2)
F36 F 1.0633(4) 0.2366(4) 0.3651(2)
O3 O 0.6370(3) 0.2944(3) 0.34030(14)
N3 N 0.4989(4) 0.3377(4) 0.31437(17)
C29 C 0.2966(6) 0.1953(5) 0.2178(2)
H19 H 0.3211 0.1143 0.2318
C30 C 0.1873(7) 0.2327(7) 0.1795(3)
H20 H 0.1375 0.1766 0.1668
C31 C 0.1511(6) 0.3501(7) 0.1600(3)
H21 H 0.0779 0.3746 0.1332
C32 C 0.2193(6) 0.4318(6) 0.1789(2)
H22 H 0.1907 0.5135 0.1665
C33 C 0.3300(5) 0.3966(5) 0.2160(2)
H23 H 0.3787 0.4538 0.2281
C34 C 0.3697(5) 0.2788(5) 0.2353(2)
C35 C 0.4863(5) 0.2357(5) 0.2784(2)
H24 H 0.4595 0.1724 0.3059
C36 C 0.6405(5) 0.1886(4) 0.2538(2)
C37 C 0.7240(5) 0.2575(5) 0.2937(2)
C38 C 0.6680(6) 0.2114(7) 0.1870(3)
C39 C 0.6732(7) 0.0512(6) 0.2670(3)
C40 C 0.8716(6) 0.2046(6) 0.3173(3)
C41 C 0.9493(7) 0.2917(6) 0.3428(3)
C42 C 0.4011(5) 0.3560(5) 0.3656(2)
H25 H 0.4150 0.4242 0.3872
H26 H 0.4173 0.2841 0.3919
H27 H 0.3052 0.3721 0.3521
loop_
_geom_bond_atom_site_label_1
_geom_bond_atom_site_label_2
_geom_bond_site_symmetry_1
_geom_bond_site_symmetry_2
F1 C10 1_555 1_555
F2 C10 1_555 1_555
F3 C10 1_555 1_555
F4 C11 1_555 1_555
F5 C11 1_555 1_555
F6 C11 1_555 1_555
F7 C9 1_555 1_555
F8 C12 1_555 1_555
F9 C12 1_555 1_555
F10 C13 1_555 1_555
F11 C13 1_555 1_555
F12 C13 1_555 1_555
O1 N1 1_555 1_555
N1 C7 1_555 1_555
C1 H1 1_555 1_555
C2 C1 1_555 1_555
H2 C2 1_555 1_555
C3 C2 1_555 1_555
H3 C3 1_555 1_555
C4 C3 1_555 1_555
H4 C4 1_555 1_555
C5 C4 1_555 1_555
H5 C5 1_555 1_555
C6 C1 1_555 1_555
C7 C6 1_555 1_555
H6 C7 1_555 1_555
C8 C7 1_555 1_555
C9 O1 1_555 1_555
C10 C8 1_555 1_555
C11 C8 1_555 1_555
C12 C9 1_555 1_555
C13 C12 1_555 1_555
C14 N1 1_555 1_555
H7 C14 1_555 1_555
H8 C14 1_555 1_555
H9 C14 1_555 1_555
F13 C24 1_555 1_555
F14 C24 1_555 1_555
F15 C24 1_555 1_555
F16 C25 1_555 1_555
F17 C25 1_555 1_555
F18 C25 1_555 1_555
F19 C23 1_555 1_555
F20 C26 1_555 1_555
F21 C26 1_555 1_555
F22 C27 1_555 1_555
F23 C27 1_555 1_555
F24 C27 1_555 1_555
O2 N2 1_555 1_555
N2 C21 1_555 1_555
C15 H10 1_555 1_555
C16 C15 1_555 1_555
H11 C16 1_555 1_555
C17 C16 1_555 1_555
H12 C17 1_555 1_555
C18 C17 1_555 1_555
H13 C18 1_555 1_555
C19 C18 1_555 1_555
H14 C19 1_555 1_555
C20 C15 1_555 1_555
C21 C20 1_555 1_555
H15 C21 1_555 1_555
C22 C21 1_555 1_555
C23 O2 1_555 1_555
C24 C22 1_555 1_555
C25 C22 1_555 1_555
C26 C23 1_555 1_555
C27 C26 1_555 1_555
C28 N2 1_555 1_555
H16 C28 1_555 1_555
H17 C28 1_555 1_555
H18 C28 1_555 1_555
F25 C38 1_555 1_555
F26 C38 1_555 1_555
F27 C38 1_555 1_555
F28 C39 1_555 1_555
F29 C39 1_555 1_555
F30 C39 1_555 1_555
F31 C37 1_555 1_555
F32 C40 1_555 1_555
F33 C40 1_555 1_555
F34 C41 1_555 1_555
F35 C41 1_555 1_555
F36 C41 1_555 1_555
O3 N3 1_555 1_555
N3 C35 1_555 1_555
C29 H19 1_555 1_555
C30 C29 1_555 1_555
H20 C30 1_555 1_555
C31 C30 1_555 1_555
H21 C31 1_555 1_555
C32 C31 1_555 1_555
H22 C32 1_555 1_555
C33 C32 1_555 1_555
H23 C33 1_555 1_555
C34 C29 1_555 1_555
C35 C34 1_555 1_555
H24 C35 1_555 1_555
C36 C35 1_555 1_555
C37 O3 1_555 1_555
C38 C36 1_555 1_555
C39 C36 1_555 1_555
C40 C37 1_555 1_555
C41 C40 1_555 1_555
C42 N3 1_555 1_555
H25 C42 1_555 1_555
H26 C42 1_555 1_555
H27 C42 1_555 1_555
C5 C6 1_555 1_555
C8 C9 1_555 1_555
C19 C20 1_555 1_555
C22 C23 1_555 1_555
C33 C34 1_555 1_555
C36 C37 1_555 1_555

#END
