
#######################################################################
#
#                 Cambridge Crystallographic Data Centre
#                                CCDC 
#
#######################################################################
#
# If this CIF has been generated from an entry in the Cambridge 
# Structural Database, then it will include bibliographic, chemical, 
# crystal, experimental, refinement or atomic coordinate data resulting 
# from the CCDC's data processing and validation procedures.
#
#######################################################################

data_IZIREQ
_chemical_formula_moiety         'C27 H21 Br2 N1 O6'
_chemical_name_systematic        
'methyl 3-(2-(benzoyloxy)-5-bromophenyl)-8-bromo-1-methyl-4-oxo-1,2,3,3a,4,9b-hexahydrochromeno[3,4-c]pyrrole-1-carboxylate'
_symmetry_cell_setting           monoclinic
_symmetry_space_group_name_H-M   'C 2/c'
_symmetry_Int_Tables_number      15
_space_group_name_Hall           '-C 2yn'
loop_
_symmetry_equiv_pos_site_id
_symmetry_equiv_pos_as_xyz
1 x,y,z
2 -x,y,1/2-z
3 1/2+x,1/2+y,z
4 1/2-x,1/2+y,1/2-z
5 -x,-y,-z
6 x,-y,1/2+z
7 1/2-x,1/2-y,-z
8 1/2+x,1/2-y,1/2+z
_cell_length_a                   18.5650(10)
_cell_length_b                   14.7048(7)
_cell_length_c                   18.3354(9)
_cell_angle_alpha                90
_cell_angle_beta                 97.703(2)
_cell_angle_gamma                90
_cell_volume                     4960.3
_exptl_crystal_colour            colorless
_exptl_crystal_description       prism
_cell_formula_units_Z            8
loop_
_atom_site_label
_atom_site_type_symbol
_atom_site_fract_x
_atom_site_fract_y
_atom_site_fract_z
C1 C 0.3390(2) 0.5247(3) 1.0840(2)
C2 C 0.3504(2) 0.4320(3) 1.0858(2)
H1 H 0.3877 0.4066 1.1183
C3 C 0.3052(2) 0.3781(3) 1.0385(2)
H2 H 0.3113 0.3153 1.0389
C4 C 0.25072(19) 0.4178(2) 0.9902(2)
C5 C 0.24008(18) 0.5107(2) 0.98597(17)
C6 C 0.28511(19) 0.5646(3) 1.03469(19)
H3 H 0.2791 0.6274 1.0342
C7 C 0.1435(2) 0.3828(2) 0.9049(2)
C8 C 0.11728(18) 0.4788(2) 0.91446(18)
H4 H 0.0862 0.4793 0.9536
C9 C 0.17841(18) 0.5483(2) 0.93296(18)
H5 H 0.1584 0.6009 0.9562
C10 C 0.19483(18) 0.5776(2) 0.85598(18)
C11 C 0.2281(2) 0.6727(2) 0.8567(2)
C12 C 0.2429(2) 0.5104(3) 0.8206(2)
H6 H 0.2219 0.4507 0.8203
H7 H 0.2906 0.5093 0.8484
H8 H 0.2464 0.5290 0.7710
C13 C 0.07297(18) 0.5148(2) 0.84230(18)
H9 H 0.0662 0.4657 0.8059
C14 C -0.00066(18) 0.5541(2) 0.85308(17)
C15 C -0.0593(2) 0.4980(2) 0.86032(18)
C16 C -0.1263(2) 0.5311(3) 0.8714(2)
H10 H -0.1642 0.4912 0.8766
C17 C -0.1370(2) 0.6241(3) 0.8748(2)
H11 H -0.1818 0.6477 0.8827
C18 C -0.0800(2) 0.6803(2) 0.8663(2)
C19 C -0.0124(2) 0.6470(2) 0.85568(19)
H12 H 0.0252 0.6872 0.8503
C20 C -0.0464(2) 0.3513(3) 0.9123(2)
C21 C -0.0496(2) 0.2524(2) 0.8956(2)
C22 C -0.0564(2) 0.2186(3) 0.8253(3)
H13 H -0.0577 0.2580 0.7855
C23 C -0.0613(3) 0.1262(4) 0.8138(3)
H14 H -0.0664 0.1032 0.7661
C24 C -0.0587(3) 0.0682(3) 0.8723(5)
H15 H -0.0617 0.0058 0.8643
C25 C -0.0519(3) 0.1010(4) 0.9421(4)
H16 H -0.0503 0.0611 0.9816
C26 C 0.2635(3) 0.7884(3) 0.7784(3)
H17 H 0.2661 0.7986 0.7270
H18 H 0.3112 0.7938 0.8056
H19 H 0.2319 0.8327 0.7958
C27 C -0.0475(3) 0.1939(3) 0.9544(3)
H20 H -0.0431 0.2166 1.0021
O1 O 0.20745(14) 0.35690(16) 0.94489(15)
O2 O 0.11188(15) 0.32635(18) 0.86575(17)
O3 O -0.05177(14) 0.40294(16) 0.85059(13)
O4 O -0.0408(2) 0.3845(2) 0.97238(16)
O5 O 0.2455(2) 0.71825(19) 0.90926(17)
O6 O 0.23531(16) 0.69783(18) 0.78840(15)
Br1 Br 0.40033(3) 0.59878(4) 1.15109(3)
Br2 Br -0.09559(3) 0.80811(3) 0.86808(3)
N1 N 0.12053(15) 0.58539(19) 0.81714(15)
H21 H 0.1211 0.5853 0.7608
loop_
_geom_bond_atom_site_label_1
_geom_bond_atom_site_label_2
_geom_bond_site_symmetry_1
_geom_bond_site_symmetry_2
C1 C2 1_555 1_555
C2 H1 1_555 1_555
C3 C2 1_555 1_555
H2 C3 1_555 1_555
C4 C3 1_555 1_555
C5 C4 1_555 1_555
C6 C1 1_555 1_555
H3 C6 1_555 1_555
C7 C8 1_555 1_555
C8 H4 1_555 1_555
C9 C5 1_555 1_555
H5 C9 1_555 1_555
C10 C9 1_555 1_555
C11 C10 1_555 1_555
C12 C10 1_555 1_555
H6 C12 1_555 1_555
H7 C12 1_555 1_555
H8 C12 1_555 1_555
C13 C8 1_555 1_555
H9 C13 1_555 1_555
C14 C13 1_555 1_555
C15 C14 1_555 1_555
C16 C15 1_555 1_555
H10 C16 1_555 1_555
C17 C16 1_555 1_555
H11 C17 1_555 1_555
C18 C17 1_555 1_555
C19 C14 1_555 1_555
H12 C19 1_555 1_555
C20 C21 1_555 1_555
C21 C22 1_555 1_555
C22 H13 1_555 1_555
C23 C22 1_555 1_555
H14 C23 1_555 1_555
C24 C23 1_555 1_555
H15 C24 1_555 1_555
C25 C24 1_555 1_555
H16 C25 1_555 1_555
C26 H17 1_555 1_555
H18 C26 1_555 1_555
H19 C26 1_555 1_555
C27 C21 1_555 1_555
H20 C27 1_555 1_555
O1 C4 1_555 1_555
O2 C7 1_555 1_555
O3 C15 1_555 1_555
O4 C20 1_555 1_555
O5 C11 1_555 1_555
O6 C11 1_555 1_555
Br1 C1 1_555 1_555
Br2 C18 1_555 1_555
N1 C10 1_555 1_555
H21 N1 1_555 1_555
C5 C6 1_555 1_555
C7 O1 1_555 1_555
C8 C9 1_555 1_555
C13 N1 1_555 1_555
C18 C19 1_555 1_555
C20 O3 1_555 1_555
C25 C27 1_555 1_555
C26 O6 1_555 1_555

#END
