
#######################################################################
#
#                 Cambridge Crystallographic Data Centre
#                                CCDC 
#
#######################################################################
#
# If this CIF has been generated from an entry in the Cambridge 
# Structural Database, then it will include bibliographic, chemical, 
# crystal, experimental, refinement or atomic coordinate data resulting 
# from the CCDC's data processing and validation procedures.
#
#######################################################################

data_IZIVET
_chemical_formula_moiety         'C10 H7 Cl2 N1'
_chemical_name_systematic        2,4-Dichloro-5-methylquinoline
_symmetry_cell_setting           monoclinic
_symmetry_space_group_name_H-M   'P 21/c'
_symmetry_Int_Tables_number      14
_space_group_name_Hall           '-P 2ybc'
loop_
_symmetry_equiv_pos_site_id
_symmetry_equiv_pos_as_xyz
1 x,y,z
2 -x,1/2+y,1/2-z
3 -x,-y,-z
4 x,1/2-y,1/2+z
_cell_length_a                   6.8668(2)
_cell_length_b                   12.9736(3)
_cell_length_c                   10.4447(2)
_cell_angle_alpha                90
_cell_angle_beta                 98.476(2)
_cell_angle_gamma                90
_cell_volume                     920.325
_exptl_crystal_colour            colorless
_exptl_crystal_description       plate
_cell_formula_units_Z            4
loop_
_atom_site_label
_atom_site_type_symbol
_atom_site_fract_x
_atom_site_fract_y
_atom_site_fract_z
Cl1 Cl 0.77154(8) 1.22459(3) 0.06543(5)
Cl2 Cl 0.67984(8) 0.99792(4) -0.35966(4)
N1 N 0.7214(2) 0.91416(11) -0.13118(14)
C1 C 0.7509(3) 0.82043(14) 0.06449(18)
H1 H 0.7388 0.7601 0.0159
C2 C 0.7644(2) 1.01025(12) 0.07631(16)
C3 C 0.7885(2) 1.00225(12) 0.21423(17)
C4 C 0.7296(3) 1.09825(14) -0.13155(17)
H2 H 0.7232 1.1584 -0.1804
C5 C 0.7542(2) 1.10157(12) -0.00029(17)
C6 C 0.7458(2) 0.91693(12) 0.00143(17)
C7 C 0.7141(3) 1.00139(13) -0.19079(17)
C8 C 0.7931(3) 0.90575(14) 0.26807(18)
H3 H 0.8104 0.9003 0.3578
C9 C 0.8076(3) 1.09298(15) 0.30606(18)
H4 H 0.8246 1.0684 0.3937
H5 H 0.6908 1.1345 0.2900
H6 H 0.9197 1.1337 0.2928
C10 C 0.7732(3) 0.81525(14) 0.19520(19)
H7 H 0.7753 0.7516 0.2363
loop_
_geom_bond_atom_site_label_1
_geom_bond_atom_site_label_2
_geom_bond_site_symmetry_1
_geom_bond_site_symmetry_2
Cl1 C5 1_555 1_555
Cl2 C7 1_555 1_555
N1 C6 1_555 1_555
C1 H1 1_555 1_555
C2 C3 1_555 1_555
C3 C8 1_555 1_555
C4 H2 1_555 1_555
C5 C2 1_555 1_555
C6 C1 1_555 1_555
C7 N1 1_555 1_555
C8 H3 1_555 1_555
C9 C3 1_555 1_555
H4 C9 1_555 1_555
H5 C9 1_555 1_555
H6 C9 1_555 1_555
C10 C1 1_555 1_555
H7 C10 1_555 1_555
C2 C6 1_555 1_555
C4 C5 1_555 1_555
C4 C7 1_555 1_555
C8 C10 1_555 1_555

#END
