
#######################################################################
#
#                 Cambridge Crystallographic Data Centre
#                                CCDC 
#
#######################################################################
#
# If this CIF has been generated from an entry in the Cambridge 
# Structural Database, then it will include bibliographic, chemical, 
# crystal, experimental, refinement or atomic coordinate data resulting 
# from the CCDC's data processing and validation procedures.
#
#######################################################################

data_IZOCOR
_chemical_formula_moiety         'C32 H28 N8 O3 S1'
_chemical_name_systematic        
'2-(2,8,14,20-tetramethyl-2,8,14,20,25,26,27-hepta-azapentacyclo[19.3.1.1^3,7^.1^9,13^.1^15,19^]octacosa-1(25),3(28),4,6,9(27),10,12,15(26),16,18,21,23-dodecaen-28-yl)-1,2-benzothiazol-3(2H)-one 1,1-dioxide'
_symmetry_cell_setting           monoclinic
_symmetry_space_group_name_H-M   'P 21/c'
_symmetry_Int_Tables_number      14
_space_group_name_Hall           '-P 2ybc'
loop_
_symmetry_equiv_pos_site_id
_symmetry_equiv_pos_as_xyz
1 x,y,z
2 -x,1/2+y,1/2-z
3 -x,-y,-z
4 x,1/2-y,1/2+z
_cell_length_a                   8.485(2)
_cell_length_b                   17.555(5)
_cell_length_c                   18.846(5)
_cell_angle_alpha                90
_cell_angle_beta                 91.734(4)
_cell_angle_gamma                90
_cell_volume                     2805.9
_exptl_crystal_colour            colorless
_exptl_crystal_description       rod
_cell_formula_units_Z            4
loop_
_atom_site_label
_atom_site_type_symbol
_atom_site_fract_x
_atom_site_fract_y
_atom_site_fract_z
S1 S 0.05215(5) 0.03720(3) 0.31484(2)
O1 O 0.01235(16) 0.11418(8) 0.33056(8)
O2 O 0.02770(16) 0.00998(9) 0.24415(7)
O3 O 0.37387(16) -0.05303(9) 0.42824(7)
N1 N 0.3995(2) 0.15956(9) 0.35747(8)
N2 N 0.34445(18) -0.09079(8) 0.24297(8)
N3 N 0.27562(17) -0.04694(8) 0.13012(8)
N4 N 0.2125(2) 0.00433(9) 0.02008(8)
N5 N 0.17462(17) 0.11609(8) 0.08542(8)
N6 N 0.12360(18) 0.22609(9) 0.15175(8)
N7 N 0.26905(18) 0.20035(9) 0.25623(8)
N8 N 0.23990(17) 0.01739(9) 0.34310(8)
C1 C 0.4591(2) 0.10141(11) 0.31217(9)
C2 C 0.5970(2) 0.11330(11) 0.27579(10)
H1 H 0.6543 0.1579 0.2834
C3 C 0.6498(2) 0.05967(12) 0.22847(10)
H2 H 0.7424 0.0681 0.2045
C4 C 0.5650(2) -0.00658(11) 0.21677(10)
H3 H 0.6001 -0.0422 0.1843
C5 C 0.4279(2) -0.02057(10) 0.25313(9)
C6 C 0.37568(19) 0.03342(10) 0.30160(9)
C7 C 0.4080(3) -0.15476(11) 0.28468(11)
H4 H 0.4795 -0.1834 0.2565
H5 H 0.3231 -0.1871 0.2986
H6 H 0.4630 -0.1357 0.3263
C8 C 0.2797(2) -0.10587(10) 0.17532(10)
C9 C 0.2208(2) -0.17795(11) 0.15764(11)
H7 H 0.2287 -0.2184 0.1894
C10 C 0.1502(2) -0.18666(11) 0.09118(11)
H8 H 0.1077 -0.2336 0.0782
C11 C 0.1416(2) -0.12683(11) 0.04369(10)
H9 H 0.0931 -0.1323 -0.0009
C12 C 0.2090(2) -0.05738(10) 0.06546(9)
C13 C 0.1918(2) -0.00644(12) -0.05621(10)
H10 H 0.2646 -0.0443 -0.0718
H11 H 0.2112 0.0408 -0.0801
H12 H 0.0859 -0.0229 -0.0670
C14 C 0.2723(2) 0.07540(10) 0.04558(9)
C15 C 0.4212(2) 0.09973(11) 0.02863(10)
H13 H 0.4834 0.0711 -0.0011
C16 C 0.4755(2) 0.16820(12) 0.05722(11)
H14 H 0.5757 0.1860 0.0473
C17 C 0.3793(2) 0.20939(11) 0.10046(10)
H15 H 0.4139 0.2548 0.1210
C18 C 0.2278(2) 0.18134(10) 0.11281(9)
C19 C -0.0432(3) 0.20606(17) 0.14619(14)
H16 H -0.0799 0.2108 0.0977
H17 H -0.1024 0.2397 0.1754
H18 H -0.0571 0.1545 0.1618
C20 C 0.1752(2) 0.24893(10) 0.22105(10)
C21 C 0.1236(2) 0.31700(11) 0.24945(11)
H19 H 0.0595 0.3502 0.2231
C22 C 0.1712(2) 0.33356(12) 0.31849(12)
H20 H 0.1380 0.3786 0.3393
C23 C 0.2675(2) 0.28420(12) 0.35700(11)
H21 H 0.3008 0.2953 0.4033
C24 C 0.3130(2) 0.21662(11) 0.32347(10)
C25 C 0.4879(3) 0.17465(13) 0.42360(10)
H22 H 0.5313 0.1279 0.4419
H23 H 0.4188 0.1963 0.4576
H24 H 0.5718 0.2098 0.4148
C26 C 0.2508(2) -0.03214(11) 0.40081(9)
C27 C 0.0900(2) -0.05501(10) 0.42153(9)
C28 C -0.0283(2) -0.02348(10) 0.37885(9)
C29 C -0.1865(2) -0.03637(12) 0.38952(10)
H25 H -0.2644 -0.0140 0.3607
C30 C -0.2240(2) -0.08431(12) 0.44521(10)
H26 H -0.3292 -0.0945 0.4539
C31 C -0.1066(2) -0.11743(12) 0.48828(11)
H27 H -0.1344 -0.1499 0.5248
C32 C 0.0513(2) -0.10254(12) 0.47725(10)
H28 H 0.1296 -0.1239 0.5065
loop_
_geom_bond_atom_site_label_1
_geom_bond_atom_site_label_2
_geom_bond_site_symmetry_1
_geom_bond_site_symmetry_2
S1 O1 1_555 1_555
O2 S1 1_555 1_555
O3 C26 1_555 1_555
N1 C1 1_555 1_555
N2 C5 1_555 1_555
N3 C8 1_555 1_555
N4 C12 1_555 1_555
N5 C14 1_555 1_555
N6 C18 1_555 1_555
N7 C20 1_555 1_555
N8 S1 1_555 1_555
C1 C2 1_555 1_555
C2 H1 1_555 1_555
C3 C2 1_555 1_555
H2 C3 1_555 1_555
C4 C3 1_555 1_555
H3 C4 1_555 1_555
C5 C4 1_555 1_555
C6 N8 1_555 1_555
C7 N2 1_555 1_555
H4 C7 1_555 1_555
H5 C7 1_555 1_555
H6 C7 1_555 1_555
C8 N2 1_555 1_555
C9 C8 1_555 1_555
H7 C9 1_555 1_555
C10 C9 1_555 1_555
H8 C10 1_555 1_555
C11 C10 1_555 1_555
H9 C11 1_555 1_555
C12 N3 1_555 1_555
C13 N4 1_555 1_555
H10 C13 1_555 1_555
H11 C13 1_555 1_555
H12 C13 1_555 1_555
C14 N4 1_555 1_555
C15 C14 1_555 1_555
H13 C15 1_555 1_555
C16 C15 1_555 1_555
H14 C16 1_555 1_555
C17 C16 1_555 1_555
H15 C17 1_555 1_555
C18 N5 1_555 1_555
C19 N6 1_555 1_555
H16 C19 1_555 1_555
H17 C19 1_555 1_555
H18 C19 1_555 1_555
C20 N6 1_555 1_555
C21 C20 1_555 1_555
H19 C21 1_555 1_555
C22 C21 1_555 1_555
H20 C22 1_555 1_555
C23 C22 1_555 1_555
H21 C23 1_555 1_555
C24 N1 1_555 1_555
C25 N1 1_555 1_555
H22 C25 1_555 1_555
H23 C25 1_555 1_555
H24 C25 1_555 1_555
C26 N8 1_555 1_555
C27 C26 1_555 1_555
C28 S1 1_555 1_555
C29 C28 1_555 1_555
H25 C29 1_555 1_555
C30 C29 1_555 1_555
H26 C30 1_555 1_555
C31 C30 1_555 1_555
H27 C31 1_555 1_555
C32 C27 1_555 1_555
H28 C32 1_555 1_555
N7 C24 1_555 1_555
C1 C6 1_555 1_555
C5 C6 1_555 1_555
C11 C12 1_555 1_555
C17 C18 1_555 1_555
C23 C24 1_555 1_555
C27 C28 1_555 1_555
C31 C32 1_555 1_555

#END
