
#######################################################################
#
#                 Cambridge Crystallographic Data Centre
#                                CCDC 
#
#######################################################################
#
# If this CIF has been generated from an entry in the Cambridge 
# Structural Database, then it will include bibliographic, chemical, 
# crystal, experimental, refinement or atomic coordinate data resulting 
# from the CCDC's data processing and validation procedures.
#
#######################################################################

data_IZODIM
_chemical_formula_moiety         'C29 H26 N8 O2,C1 H2 Cl2'
_chemical_name_systematic        
'1-(2,8,14,20-tetramethyl-2,8,14,20,25,26,27-hepta-azapentacyclo[19.3.1.1^3,7^.1^9,13^.1^15,19^]octacosa-1(25),3(28),4,6,9(27),10,12,15(26),16,18,21,23-dodecaen-28-yl)-1H-pyrrole-2,5-dione dichloromethane solvate'
_symmetry_cell_setting           triclinic
_symmetry_space_group_name_H-M   'P -1'
_symmetry_Int_Tables_number      2
_space_group_name_Hall           '-P 1'
loop_
_symmetry_equiv_pos_site_id
_symmetry_equiv_pos_as_xyz
1 x,y,z
2 -x,-y,-z
_cell_length_a                   9.765(2)
_cell_length_b                   11.411(3)
_cell_length_c                   13.153(4)
_cell_angle_alpha                86.795(7)
_cell_angle_beta                 79.982(7)
_cell_angle_gamma                81.078(8)
_cell_volume                     1425.18
_exptl_crystal_colour            yellow
_exptl_crystal_description       block
_cell_formula_units_Z            2
loop_
_atom_site_label
_atom_site_type_symbol
_atom_site_fract_x
_atom_site_fract_y
_atom_site_fract_z
Cl1 Cl 0.06831(5) 0.80150(4) 0.78232(4)
Cl2 Cl -0.09787(7) 0.73735(4) 0.63477(4)
C1 C -0.0907(2) 0.83317(17) 0.73323(17)
H1 H -0.097(3) 0.911(3) 0.702(2)
H2 H -0.169(3) 0.819(2) 0.7883(19)
O1 O 0.03798(11) 0.88806(10) 0.37136(10)
N1 N 0.54874(13) 0.75531(10) 0.39601(9)
N2 N 0.75732(12) 0.66166(10) 0.14805(9)
N3 N 0.51420(12) 0.76676(10) 0.02508(9)
N4 N 0.24786(12) 0.77693(10) 0.30032(9)
O2 O 0.41220(13) 0.61385(9) 0.24348(9)
C2 C 0.37663(15) 0.77348(12) 0.02423(10)
N5 N 0.74635(13) 0.68918(11) -0.02918(9)
N6 N 0.35240(13) 0.88947(11) 0.44840(9)
C3 C 0.32351(13) 0.87402(11) 0.26871(11)
C4 C 0.45367(15) 1.07179(13) 0.21210(12)
N7 N 0.74773(13) 0.62827(11) 0.32636(10)
C5 C 0.76003(14) 0.70635(12) 0.23884(11)
N8 N 0.28953(12) 0.85433(11) 0.09023(9)
C6 C 0.64162(15) 0.66010(12) 0.41087(11)
C7 C 0.34404(13) 0.91192(12) 0.16529(11)
C8 C 0.36968(14) 0.93326(12) 0.34374(11)
C9 C 0.41084(14) 1.01127(12) 0.13749(11)
C10 C 0.43319(15) 1.03344(12) 0.31482(12)
C11 C 0.79211(15) 0.89736(13) 0.16318(13)
C12 C 0.76739(14) 0.73566(13) 0.06539(11)
C13 C 0.44430(15) 0.79128(12) 0.47299(11)
C14 C 0.77749(15) 0.82426(13) 0.25007(12)
C15 C 0.32284(16) 0.70283(14) -0.03877(12)
C16 C 0.06632(18) 0.67236(14) 0.36588(13)
C17 C 0.60404(15) 0.68823(12) -0.03445(10)
C18 C 0.13780(15) 0.86458(16) 0.09796(13)
C19 C 0.84834(18) 0.58675(15) -0.06721(14)
C20 C 0.10842(15) 0.79329(13) 0.34960(11)
C21 C 0.78766(15) 0.85264(13) 0.06785(12)
C22 C 0.8021(2) 0.50291(14) 0.31097(15)
C23 C 0.52804(19) 0.63495(15) 0.58399(13)
C24 C 0.41856(18) 0.62171(14) -0.09932(12)
C25 C 0.42933(17) 0.73332(14) 0.57010(11)
C26 C 0.29634(16) 0.65601(12) 0.28391(11)
C27 C 0.56093(17) 0.61272(13) -0.09884(12)
C28 C 0.63564(18) 0.59599(14) 0.50482(12)
C29 C 0.17401(18) 0.59355(14) 0.32725(12)
C30 C 0.2482(2) 0.95278(19) 0.52565(14)
H3 H 0.224(2) 0.7080(16) -0.0381(14)
H4 H 0.520(2) 0.5922(18) 0.6491(16)
H5 H 0.4954(19) 1.1408(17) 0.1933(14)
H6 H -0.028(2) 0.6616(18) 0.3979(15)
H7 H 0.7949(19) 0.9001(16) 0.0074(15)
H8 H 0.356(2) 0.7588(18) 0.6265(16)
H9 H 0.180(2) 0.5076(19) 0.3260(16)
H10 H 0.4660(18) 1.0726(15) 0.3676(14)
H11 H 0.705(2) 0.5254(19) 0.5133(15)
H12 H 0.4262(19) 1.0393(16) 0.0654(15)
H13 H 0.103(2) 0.7884(17) 0.1229(15)
H14 H 0.628(2) 0.5537(18) -0.1378(15)
H15 H 0.383(2) 0.5692(18) -0.1432(15)
H16 H 0.8052(19) 0.9794(17) 0.1687(14)
H17 H 0.851(2) 0.5812(18) -0.1419(17)
H18 H 0.942(2) 0.5991(18) -0.0542(15)
H19 H 0.110(2) 0.8849(17) 0.0287(16)
H20 H 0.824(2) 0.511(2) -0.0289(17)
H21 H 0.091(2) 0.9257(19) 0.1465(16)
H22 H 0.780(2) 0.8512(17) 0.3179(15)
H23 H 0.878(3) 0.493(2) 0.254(2)
H24 H 0.839(3) 0.471(2) 0.368(2)
H25 H 0.729(3) 0.461(2) 0.301(2)
H26 H 0.199(2) 1.022(2) 0.4980(17)
H27 H 0.282(3) 0.961(2) 0.585(2)
H28 H 0.173(4) 0.904(3) 0.551(3)
loop_
_geom_bond_atom_site_label_1
_geom_bond_atom_site_label_2
_geom_bond_site_symmetry_1
_geom_bond_site_symmetry_2
Cl1 C1 1_555 1_555
Cl2 C1 1_555 1_555
C1 H1 1_555 1_555
H2 C1 1_555 1_555
O1 C20 1_555 1_555
N1 C6 1_555 1_555
N2 C5 1_555 1_555
N3 C2 1_555 1_555
N4 C3 1_555 1_555
O2 C26 1_555 1_555
C2 N8 1_555 1_555
N5 C12 1_555 1_555
N6 C8 1_555 1_555
C3 C7 1_555 1_555
C4 C9 1_555 1_555
N7 C5 1_555 1_555
C5 C14 1_555 1_555
N8 C7 1_555 1_555
C6 N7 1_555 1_555
C7 C9 1_555 1_555
C8 C3 1_555 1_555
C9 H12 1_555 1_555
C10 C4 1_555 1_555
C11 C14 1_555 1_555
C12 N2 1_555 1_555
C13 N1 1_555 1_555
C14 H22 1_555 1_555
C15 C2 1_555 1_555
C16 C20 1_555 1_555
C17 N3 1_555 1_555
C18 N8 1_555 1_555
C19 N5 1_555 1_555
C20 N4 1_555 1_555
C21 C11 1_555 1_555
C22 N7 1_555 1_555
C23 C25 1_555 1_555
C24 C15 1_555 1_555
C25 C13 1_555 1_555
C26 N4 1_555 1_555
C27 C17 1_555 1_555
C28 C6 1_555 1_555
C29 C16 1_555 1_555
C30 N6 1_555 1_555
H3 C15 1_555 1_555
H4 C23 1_555 1_555
H5 C4 1_555 1_555
H6 C16 1_555 1_555
H7 C21 1_555 1_555
H8 C25 1_555 1_555
H9 C29 1_555 1_555
H10 C10 1_555 1_555
H11 C28 1_555 1_555
H13 C18 1_555 1_555
H14 C27 1_555 1_555
H15 C24 1_555 1_555
H16 C11 1_555 1_555
H17 C19 1_555 1_555
H18 C19 1_555 1_555
H19 C18 1_555 1_555
H20 C19 1_555 1_555
H21 C18 1_555 1_555
H23 C22 1_555 1_555
H24 C22 1_555 1_555
H25 C22 1_555 1_555
H26 C30 1_555 1_555
H27 C30 1_555 1_555
H28 C30 1_555 1_555
N5 C17 1_555 1_555
N6 C13 1_555 1_555
C8 C10 1_555 1_555
C12 C21 1_555 1_555
C23 C28 1_555 1_555
C24 C27 1_555 1_555
C26 C29 1_555 1_555

#END
