
#######################################################################
#
#                 Cambridge Crystallographic Data Centre
#                                CCDC 
#
#######################################################################
#
# If this CIF has been generated from an entry in the Cambridge 
# Structural Database, then it will include bibliographic, chemical, 
# crystal, experimental, refinement or atomic coordinate data resulting 
# from the CCDC's data processing and validation procedures.
#
#######################################################################

data_IZOFIN
_chemical_formula_moiety         'C32 H26 Cl1 N1 O2 S1'
_chemical_name_systematic        
4-(Chloro(phenyl)methylene)-2-((4-methylphenyl)sulfonyl)-9-phenyl-2,3,4,9-tetrahydro-1H-indeno[2,1-c]pyridine
_symmetry_cell_setting           monoclinic
_symmetry_space_group_name_H-M   'P 21/c'
_symmetry_Int_Tables_number      14
_space_group_name_Hall           '-P 2ybc'
loop_
_symmetry_equiv_pos_site_id
_symmetry_equiv_pos_as_xyz
1 x,y,z
2 -x,1/2+y,1/2-z
3 -x,-y,-z
4 x,1/2-y,1/2+z
_cell_length_a                   11.8078(8)
_cell_length_b                   17.4869(12)
_cell_length_c                   13.3834(9)
_cell_angle_alpha                90
_cell_angle_beta                 108.4440(10)
_cell_angle_gamma                90
_cell_volume                     2621.48
_exptl_crystal_colour            colorless
_exptl_crystal_description       prismatic
_cell_formula_units_Z            4
loop_
_atom_site_label
_atom_site_type_symbol
_atom_site_fract_x
_atom_site_fract_y
_atom_site_fract_z
Cl1 Cl 1.09347(5) 0.90965(4) 0.70840(5)
S1 S 0.74510(6) 1.02833(3) 0.53627(5)
N1 N 0.74790(17) 0.94099(10) 0.49524(13)
O1 O 0.85023(17) 1.06471(9) 0.53072(15)
O2 O 0.62958(16) 1.05797(9) 0.47794(13)
C1 C 0.8602(2) 0.89848(13) 0.52902(16)
H1 H 0.9265 0.9338 0.5412
H2 H 0.8631 0.8635 0.4737
C2 C 0.6409(2) 0.89365(13) 0.47568(17)
H3 H 0.6156 0.8766 0.4030
H4 H 0.5771 0.9243 0.4860
C3 C 0.66121(19) 0.82593(12) 0.54598(16)
C4 C 0.76603(19) 0.80654(12) 0.61699(15)
C5 C 0.87262(19) 0.85374(11) 0.62928(16)
C6 C 0.56507(19) 0.76781(13) 0.53960(17)
H5 H 0.5070 0.7909 0.5691
C7 C 0.6334(2) 0.70762(13) 0.61550(17)
C8 C 0.5943(2) 0.63803(15) 0.63977(19)
H6 H 0.5146 0.6240 0.6110
C9 C 0.6749(3) 0.58931(15) 0.7074(2)
H7 H 0.6495 0.5420 0.7239
C10 C 0.7923(2) 0.61029(13) 0.75030(18)
H8 H 0.8459 0.5766 0.7949
C11 C 0.8324(2) 0.68091(12) 0.72835(16)
H9 H 0.9120 0.6948 0.7582
C12 C 0.7520(2) 0.73036(11) 0.66133(16)
C13 C 0.96793(19) 0.85972(12) 0.71548(17)
C14 C 0.98273(19) 0.83084(12) 0.82239(16)
C15 C 0.8930(2) 0.84133(12) 0.86668(17)
H10 H 0.8226 0.8655 0.8282
C16 C 0.9069(2) 0.81626(15) 0.96754(19)
H11 H 0.8465 0.8242 0.9972
C17 C 1.0092(3) 0.77975(16) 1.0238(2)
H12 H 1.0185 0.7629 1.0919
C18 C 1.0982(3) 0.76778(16) 0.9806(2)
H13 H 1.1669 0.7416 1.0185
C19 C 1.0861(2) 0.79443(15) 0.8810(2)
H14 H 1.1482 0.7878 0.8529
C20 C 0.49886(19) 0.74161(13) 0.42840(17)
C21 C 0.3939(2) 0.77597(15) 0.3717(2)
H15 H 0.3616 0.8136 0.4035
C22 C 0.3349(2) 0.75615(16) 0.2684(2)
H16 H 0.2649 0.7814 0.2311
C23 C 0.3791(2) 0.69954(16) 0.2207(2)
H17 H 0.3385 0.6849 0.1519
C24 C 0.4827(3) 0.66526(17) 0.2752(2)
H18 H 0.5140 0.6272 0.2431
C25 C 0.5427(2) 0.68596(16) 0.3777(2)
H19 H 0.6143 0.6618 0.4134
C26 C 0.7528(2) 1.02747(12) 0.67011(18)
C27 C 0.6530(2) 1.01040(13) 0.69790(18)
H20 H 0.5815 0.9988 0.6462
C28 C 0.6593(2) 1.01056(13) 0.8029(2)
H21 H 0.5912 0.9991 0.8207
C29 C 0.7636(3) 1.02716(14) 0.8814(2)
C30 C 0.8619(3) 1.04413(15) 0.8521(2)
H22 H 0.9334 1.0559 0.9040
C31 C 0.8583(2) 1.04430(13) 0.7479(2)
H23 H 0.9266 1.0557 0.7303
C32 C 0.7696(3) 1.02593(18) 0.9958(2)
H24 H 0.7149 0.9884 1.0058
H25 H 0.7486 1.0754 1.0156
H26 H 0.8493 1.0132 1.0388
loop_
_geom_bond_atom_site_label_1
_geom_bond_atom_site_label_2
_geom_bond_site_symmetry_1
_geom_bond_site_symmetry_2
Cl1 C13 1_555 1_555
S1 N1 1_555 1_555
N1 C1 1_555 1_555
O1 S1 1_555 1_555
O2 S1 1_555 1_555
C1 H1 1_555 1_555
H2 C1 1_555 1_555
C2 N1 1_555 1_555
H3 C2 1_555 1_555
H4 C2 1_555 1_555
C3 C2 1_555 1_555
C4 C3 1_555 1_555
C5 C1 1_555 1_555
C6 C3 1_555 1_555
H5 C6 1_555 1_555
C7 C6 1_555 1_555
C8 C7 1_555 1_555
H6 C8 1_555 1_555
C9 C8 1_555 1_555
H7 C9 1_555 1_555
C10 C9 1_555 1_555
H8 C10 1_555 1_555
C11 C10 1_555 1_555
H9 C11 1_555 1_555
C12 C4 1_555 1_555
C13 C5 1_555 1_555
C14 C13 1_555 1_555
C15 C14 1_555 1_555
H10 C15 1_555 1_555
C16 C15 1_555 1_555
H11 C16 1_555 1_555
C17 C16 1_555 1_555
H12 C17 1_555 1_555
C18 C17 1_555 1_555
H13 C18 1_555 1_555
C19 C14 1_555 1_555
H14 C19 1_555 1_555
C20 C6 1_555 1_555
C21 C20 1_555 1_555
H15 C21 1_555 1_555
C22 C21 1_555 1_555
H16 C22 1_555 1_555
C23 C22 1_555 1_555
H17 C23 1_555 1_555
C24 C23 1_555 1_555
H18 C24 1_555 1_555
C25 C20 1_555 1_555
H19 C25 1_555 1_555
C26 S1 1_555 1_555
C27 C26 1_555 1_555
H20 C27 1_555 1_555
C28 C27 1_555 1_555
H21 C28 1_555 1_555
C29 C28 1_555 1_555
C30 C29 1_555 1_555
H22 C30 1_555 1_555
C31 C26 1_555 1_555
H23 C31 1_555 1_555
C32 C29 1_555 1_555
H24 C32 1_555 1_555
H25 C32 1_555 1_555
H26 C32 1_555 1_555
C4 C5 1_555 1_555
C7 C12 1_555 1_555
C11 C12 1_555 1_555
C18 C19 1_555 1_555
C24 C25 1_555 1_555
C30 C31 1_555 1_555

#END
