
#######################################################################
#
#                 Cambridge Crystallographic Data Centre
#                                CCDC 
#
#######################################################################
#
# If this CIF has been generated from an entry in the Cambridge 
# Structural Database, then it will include bibliographic, chemical, 
# crystal, experimental, refinement or atomic coordinate data resulting 
# from the CCDC's data processing and validation procedures.
#
#######################################################################

data_IZOFEJ
_chemical_formula_moiety         'C31 H31 Br1 O2'
_chemical_name_systematic        
4-((3-Bromophenyl)(ethoxy)methyl)-9-(3,5-dimethylphenyl)-6,8-dimethyl-1,3-dihydroindeno[2,1-c]pyran
_symmetry_cell_setting           triclinic
_symmetry_space_group_name_H-M   'P -1'
_symmetry_Int_Tables_number      2
_space_group_name_Hall           '-P 1'
loop_
_symmetry_equiv_pos_site_id
_symmetry_equiv_pos_as_xyz
1 x,y,z
2 -x,-y,-z
_cell_length_a                   10.127(3)
_cell_length_b                   11.828(3)
_cell_length_c                   12.346(4)
_cell_angle_alpha                72.779(4)
_cell_angle_beta                 76.285(4)
_cell_angle_gamma                68.694(4)
_cell_volume                     1301.98
_cell_formula_units_Z            2
loop_
_atom_site_label
_atom_site_type_symbol
_atom_site_fract_x
_atom_site_fract_y
_atom_site_fract_z
Br1 Br -0.15989(8) 0.11512(8) 1.13751(6)
O1 O 0.0306(5) 0.4702(5) 0.6617(4)
O2 O 0.3055(5) 0.1224(4) 0.8383(4)
C1 C 0.1155(6) 0.5324(6) 0.5729(5)
H1 H 0.0570 0.6167 0.5424
H2 H 0.1519 0.4890 0.5112
C2 C 0.2393(6) 0.5368(5) 0.6181(5)
C3 C 0.3090(6) 0.6217(5) 0.5846(5)
C4 C 0.4212(6) 0.5820(5) 0.6581(5)
C5 C 0.5308(6) 0.6270(6) 0.6527(5)
C6 C 0.6152(7) 0.5732(6) 0.7389(6)
H3 H 0.6877 0.6049 0.7366
C7 C 0.5977(6) 0.4745(6) 0.8287(5)
C8 C 0.4927(6) 0.4243(6) 0.8286(5)
H4 H 0.4807 0.3562 0.8865
C9 C 0.4061(5) 0.4742(5) 0.7438(4)
C10 C 0.2927(6) 0.4399(5) 0.7174(4)
C11 C 0.2374(6) 0.3452(6) 0.7635(5)
C12 C 0.1141(7) 0.3473(6) 0.7127(6)
H5 H 0.1518 0.2984 0.6551
H6 H 0.0523 0.3081 0.7726
C13 C 0.5632(7) 0.7311(7) 0.5547(6)
H7 H 0.5624 0.7151 0.4831
H8 H 0.6558 0.7348 0.5563
H9 H 0.4918 0.8092 0.5629
C14 C 0.6895(8) 0.4244(7) 0.9216(6)
H10 H 0.7833 0.4313 0.8900
H11 H 0.6970 0.3384 0.9549
H12 H 0.6473 0.4714 0.9795
C15 C 0.2824(7) 0.2385(6) 0.8647(5)
H13 H 0.3719 0.2383 0.8822
C16 C 0.2679(6) 0.7407(5) 0.4972(5)
C17 C 0.2543(6) 0.7427(6) 0.3877(5)
H14 H 0.2759 0.6682 0.3663
C18 C 0.2082(6) 0.8566(6) 0.3092(5)
C19 C 0.1782(6) 0.9654(6) 0.3424(6)
H15 H 0.1488 1.0413 0.2901
C20 C 0.1908(6) 0.9653(6) 0.4525(6)
C21 C 0.2359(6) 0.8530(6) 0.5277(5)
H16 H 0.2455 0.8515 0.6012
C22 C 0.1684(6) 0.2530(5) 0.9689(5)
C23 C 0.0727(7) 0.1849(6) 1.0015(5)
H17 H 0.0828 0.1276 0.9599
C24 C -0.0381(8) 0.1988(8) 1.0944(5)
C25 C -0.0417(8) 0.2893(8) 1.1549(6)
H18 H -0.1112 0.3028 1.2182
C26 C 0.0529(9) 0.3542(7) 1.1216(6)
H19 H 0.0466 0.4117 1.1617
C27 C 0.1581(8) 0.3355(7) 1.0292(7)
H20 H 0.2230 0.3800 1.0078
C28 C 0.1944(8) 0.8580(7) 0.1887(6)
H21 H 0.1217 0.8222 0.1926
H22 H 0.2843 0.8102 0.1534
H23 H 0.1686 0.9424 0.1442
C29 C 0.1554(7) 1.0876(6) 0.4872(7)
H24 H 0.1631 1.0705 0.5669
H25 H 0.0595 1.1385 0.4746
H26 H 0.2213 1.1309 0.4420
C30 C 0.4418(10) 0.0724(10) 0.7808(9)
H27 H 0.4394 0.1052 0.6991
H28 H 0.5079 0.1022 0.8012
C31 C 0.4939(15) -0.0503(13) 0.800(2)
H29 H 0.5462 -0.0818 0.8641
H30 H 0.5567 -0.0740 0.7334
H31 H 0.4165 -0.0845 0.8173
loop_
_geom_bond_atom_site_label_1
_geom_bond_atom_site_label_2
_geom_bond_site_symmetry_1
_geom_bond_site_symmetry_2
Br1 C24 1_555 1_555
O1 C1 1_555 1_555
O2 C15 1_555 1_555
C1 H1 1_555 1_555
H2 C1 1_555 1_555
C2 C1 1_555 1_555
C3 C2 1_555 1_555
C4 C3 1_555 1_555
C5 C4 1_555 1_555
C6 C5 1_555 1_555
H3 C6 1_555 1_555
C7 C6 1_555 1_555
C8 C7 1_555 1_555
H4 C8 1_555 1_555
C9 C4 1_555 1_555
C10 C2 1_555 1_555
C11 C10 1_555 1_555
C12 O1 1_555 1_555
H5 C12 1_555 1_555
H6 C12 1_555 1_555
C13 C5 1_555 1_555
H7 C13 1_555 1_555
H8 C13 1_555 1_555
H9 C13 1_555 1_555
C14 C7 1_555 1_555
H10 C14 1_555 1_555
H11 C14 1_555 1_555
H12 C14 1_555 1_555
C15 C11 1_555 1_555
H13 C15 1_555 1_555
C16 C3 1_555 1_555
C17 C16 1_555 1_555
H14 C17 1_555 1_555
C18 C17 1_555 1_555
C19 C18 1_555 1_555
H15 C19 1_555 1_555
C20 C19 1_555 1_555
C21 C16 1_555 1_555
H16 C21 1_555 1_555
C22 C15 1_555 1_555
C23 C22 1_555 1_555
H17 C23 1_555 1_555
C24 C23 1_555 1_555
C25 C24 1_555 1_555
H18 C25 1_555 1_555
C26 C25 1_555 1_555
H19 C26 1_555 1_555
C27 C22 1_555 1_555
H20 C27 1_555 1_555
C28 C18 1_555 1_555
H21 C28 1_555 1_555
H22 C28 1_555 1_555
H23 C28 1_555 1_555
C29 C20 1_555 1_555
H24 C29 1_555 1_555
H25 C29 1_555 1_555
H26 C29 1_555 1_555
C30 O2 1_555 1_555
H27 C30 1_555 1_555
H28 C30 1_555 1_555
C31 C30 1_555 1_555
H29 C31 1_555 1_555
H30 C31 1_555 1_555
H31 C31 1_555 1_555
C8 C9 1_555 1_555
C9 C10 1_555 1_555
C11 C12 1_555 1_555
C20 C21 1_555 1_555
C26 C27 1_555 1_555

#END
