
#######################################################################
#
#                 Cambridge Crystallographic Data Centre
#                                CCDC 
#
#######################################################################
#
# If this CIF has been generated from an entry in the Cambridge 
# Structural Database, then it will include bibliographic, chemical, 
# crystal, experimental, refinement or atomic coordinate data resulting 
# from the CCDC's data processing and validation procedures.
#
#######################################################################

data_IZOKOZ
_chemical_name_common            
'5,11,17,23-tetrakis((benzylazaniumyl)methyl)-C-methylcalix(4)resorcinarene tetrabromide 1,4-dioxane solvate monohydrate'
_chemical_formula_moiety         'C64 H72 N4 O8 4+,3(C4 H8 O2),H2 O1,4(Br1 1-)'
_chemical_name_systematic        
'2,8,14,20-tetramethyl-5,11,17,23-tetrakis((benzylazaniumyl)methyl)-4,6,10,12,16,18,22,24-octahydroxycalix(4)arene tetrabromide 1,4-dioxane solvate monohydrate'
_symmetry_cell_setting           monoclinic
_symmetry_space_group_name_H-M   'I 2/a'
_symmetry_Int_Tables_number      15
_space_group_name_Hall           '-I 2ya'
loop_
_symmetry_equiv_pos_site_id
_symmetry_equiv_pos_as_xyz
1 x,y,z
2 1/2-x,y,-z
3 1/2+x,1/2+y,1/2+z
4 -x,1/2+y,1/2-z
5 -x,-y,-z
6 1/2+x,-y,z
7 1/2-x,1/2-y,1/2-z
8 x,1/2-y,1/2+z
_cell_length_a                   23.4341(9)
_cell_length_b                   14.5944(6)
_cell_length_c                   22.8243(10)
_cell_angle_alpha                90
_cell_angle_beta                 103.271(4)
_cell_angle_gamma                90
_cell_volume                     7597.6
_exptl_crystal_colour            colorless
_exptl_crystal_description       plate
_cell_formula_units_Z            4
loop_
_atom_site_label
_atom_site_type_symbol
_atom_site_fract_x
_atom_site_fract_y
_atom_site_fract_z
O1 O 0.44655(16) 0.5517(3) 0.59080(18)
H1 H 0.4502 0.5668 0.5572
O2 O 0.30740(17) 0.5687(3) 0.71188(17)
H2 H 0.3042 0.5130 0.7076
O3 O 0.19113(17) 0.5843(3) 0.70163(16)
H3 H 0.2267 0.5917 0.7123
O4 O 0.04270(16) 0.5749(3) 0.52269(18)
H4 H 0.0139 0.6057 0.5245
N1 N 0.3902(2) 0.3963(4) 0.6311(2)
H5 H 0.3487 0.3981 0.6124
H6 H 0.4113 0.4075 0.5998
N2 N 0.1211(3) 0.4238(4) 0.6484(3)
H7 H 0.1621 0.4362 0.6662
H8 H 0.1187 0.3977 0.6088
C1 C 0.3817(2) 0.6843(4) 0.5790(2)
C2 C 0.4016(2) 0.6001(4) 0.6050(2)
C3 C 0.3782(2) 0.5618(4) 0.6502(2)
C4 C 0.3312(2) 0.6048(4) 0.6668(2)
C5 C 0.3087(2) 0.6872(3) 0.6409(2)
C6 C 0.3345(2) 0.7249(3) 0.5970(2)
H9 H 0.3193 0.7808 0.5785
C7 C 0.4042(2) 0.4722(4) 0.6768(3)
H10 H 0.4472 0.4785 0.6907
H11 H 0.3882 0.4567 0.7122
C8 C 0.4056(3) 0.3021(4) 0.6566(4)
H12 H 0.3847 0.2909 0.6890
H13 H 0.3917 0.2561 0.6246
C9 C 0.4698(3) 0.2891(4) 0.6814(3)
C10 C 0.5043(3) 0.2551(4) 0.6443(3)
H14 H 0.4872 0.2427 0.6031
C11 C 0.5643(3) 0.2390(5) 0.6674(3)
H15 H 0.5874 0.2138 0.6421
C12 C 0.5898(3) 0.2594(5) 0.7261(4)
H16 H 0.6306 0.2496 0.7413
C13 C 0.5557(3) 0.2945(5) 0.7635(3)
H17 H 0.5731 0.3081 0.8043
C14 C 0.4965(3) 0.3094(5) 0.7409(3)
H18 H 0.4736 0.3341 0.7666
C15 C 0.2561(2) 0.7320(3) 0.6578(2)
H19 H 0.2585 0.7159 0.7009
C16 C 0.2570(3) 0.8374(4) 0.6546(3)
H20 H 0.2936 0.8604 0.6802
H21 H 0.2236 0.8622 0.6687
H22 H 0.2542 0.8566 0.6129
C17 C 0.1988(2) 0.6910(3) 0.6217(2)
C18 C 0.1710(2) 0.6205(4) 0.6448(2)
C19 C 0.1176(2) 0.5834(4) 0.6120(2)
C20 C 0.0930(2) 0.6174(4) 0.5563(2)
C21 C 0.1189(2) 0.6897(4) 0.5308(2)
C22 C 0.1725(2) 0.7236(3) 0.5649(2)
H23 H 0.1915 0.7712 0.5483
C23 C 0.0886(3) 0.5111(5) 0.6413(3)
H24 H 0.0852 0.5330 0.6815
H25 H 0.0484 0.5005 0.6168
C24 C 0.0990(4) 0.3541(5) 0.6865(4)
H26 H 0.0576 0.3392 0.6676
H27 H 0.1222 0.2971 0.6882
C25 C 0.1030(8) 0.388(2) 0.7488(8)
C26 C 0.1582(10) 0.393(2) 0.7883(9)
H28 H 0.1917 0.3722 0.7755
C27 C 0.1653(10) 0.4298(16) 0.8468(9)
H29 H 0.2034 0.4325 0.8725
C28 C 0.1180(8) 0.4616(13) 0.8677(9)
H30 H 0.1233 0.4858 0.9072
C29 C 0.0618(10) 0.4575(15) 0.8292(8)
H31 H 0.0283 0.4783 0.8423
C30 C 0.0564(8) 0.4220(13) 0.7714(8)
H32 H 0.0184 0.4208 0.7455
C31 C 0.0911(2) 0.7267(4) 0.4688(2)
H33 H 0.0490 0.7075 0.4595
C32 C 0.0917(3) 0.8322(4) 0.4672(3)
H34 H 0.1323 0.8541 0.4766
H35 H 0.0715 0.8562 0.4971
H36 H 0.0717 0.8535 0.4271
O1A O 0.05345(16) 0.5517(3) 0.40920(18)
H1A H 0.0498 0.5668 0.4428
O2A O 0.19260(17) 0.5687(3) 0.28812(17)
H2A H 0.1958 0.5130 0.2924
O3A O 0.30887(17) 0.5843(3) 0.29837(16)
H3A H 0.2733 0.5917 0.2877
O4A O 0.45730(16) 0.5749(3) 0.47731(18)
H4A H 0.4861 0.6057 0.4755
N1A N 0.1098(2) 0.3963(4) 0.3689(2)
H5A H 0.1513 0.3981 0.3876
H6A H 0.0887 0.4075 0.4002
N2A N 0.3789(3) 0.4238(4) 0.3516(3)
H7A H 0.3379 0.4362 0.3338
H8A H 0.3813 0.3977 0.3912
C1A C 0.1183(2) 0.6843(4) 0.4210(2)
C2A C 0.0984(2) 0.6001(4) 0.3950(2)
C3A C 0.1218(2) 0.5618(4) 0.3498(2)
C4A C 0.1688(2) 0.6048(4) 0.3332(2)
C5A C 0.1913(2) 0.6872(3) 0.3591(2)
C6A C 0.1655(2) 0.7249(3) 0.4030(2)
H9A H 0.1807 0.7808 0.4215
C7A C 0.0958(2) 0.4722(4) 0.3232(3)
H10A H 0.0528 0.4785 0.3093
H11A H 0.1118 0.4567 0.2878
C8A C 0.0944(3) 0.3021(4) 0.3434(4)
H12A H 0.1153 0.2909 0.3110
H13A H 0.1083 0.2561 0.3754
C9A C 0.0302(3) 0.2891(4) 0.3186(3)
C10A C -0.0043(3) 0.2551(4) 0.3557(3)
H14A H 0.0128 0.2427 0.3969
C11A C -0.0643(3) 0.2390(5) 0.3326(3)
H15A H -0.0874 0.2138 0.3579
C12A C -0.0898(3) 0.2594(5) 0.2739(4)
H16A H -0.1306 0.2496 0.2587
C13A C -0.0557(3) 0.2945(5) 0.2365(3)
H17A H -0.0731 0.3081 0.1957
C14A C 0.0035(3) 0.3094(5) 0.2591(3)
H18A H 0.0264 0.3341 0.2334
C15A C 0.2439(2) 0.7320(3) 0.3422(2)
H19A H 0.2415 0.7159 0.2991
C16A C 0.2430(3) 0.8374(4) 0.3454(3)
H20A H 0.2064 0.8604 0.3198
H21A H 0.2764 0.8622 0.3313
H22A H 0.2458 0.8566 0.3871
C17A C 0.3012(2) 0.6910(3) 0.3783(2)
C18A C 0.3290(2) 0.6205(4) 0.3552(2)
C19A C 0.3824(2) 0.5834(4) 0.3880(2)
C20A C 0.4070(2) 0.6174(4) 0.4437(2)
C21A C 0.3811(2) 0.6897(4) 0.4692(2)
C22A C 0.3275(2) 0.7236(3) 0.4351(2)
H23A H 0.3085 0.7712 0.4517
C23A C 0.4114(3) 0.5111(5) 0.3587(3)
H24A H 0.4148 0.5330 0.3185
H25A H 0.4516 0.5005 0.3832
C24A C 0.4010(4) 0.3541(5) 0.3135(4)
H26A H 0.4424 0.3392 0.3324
H27A H 0.3778 0.2971 0.3118
C25A C 0.3970(8) 0.388(2) 0.2512(8)
C26A C 0.3418(10) 0.393(2) 0.2117(9)
H28A H 0.3083 0.3722 0.2245
C27A C 0.3347(10) 0.4298(16) 0.1532(9)
H29A H 0.2966 0.4325 0.1275
C28A C 0.3820(8) 0.4616(13) 0.1323(9)
H30A H 0.3767 0.4858 0.0928
C29A C 0.4382(10) 0.4575(15) 0.1708(8)
H31A H 0.4717 0.4783 0.1577
C30A C 0.4436(8) 0.4220(13) 0.2286(8)
H32A H 0.4816 0.4208 0.2545
C31A C 0.4089(2) 0.7267(4) 0.5312(2)
H33A H 0.4510 0.7075 0.5405
C32A C 0.4083(3) 0.8322(4) 0.5328(3)
H34A H 0.3677 0.8541 0.5234
H35A H 0.4285 0.8562 0.5029
H36A H 0.4283 0.8535 0.5729
O5 O 0.2849(3) 0.4203(5) 0.5561(4)
C33 C 0.2541(8) 0.3412(10) 0.5313(4)
H37 H 0.2765 0.2859 0.5482
H38 H 0.2156 0.3392 0.5421
C34 C 0.2533(5) 0.4998(7) 0.5314(3)
H39 H 0.2143 0.5002 0.5412
H40 H 0.2747 0.5554 0.5490
O5A O 0.2151(3) 0.4203(5) 0.4439(4)
C33A C 0.2459(8) 0.3412(10) 0.4687(4)
H37A H 0.2235 0.2859 0.4518
H38A H 0.2844 0.3392 0.4579
C34A C 0.2467(5) 0.4998(7) 0.4686(3)
H39A H 0.2857 0.5002 0.4588
H40A H 0.2253 0.5554 0.4510
O6 O 0.4050(8) 0.4814(13) 0.9527(8)
O7 O 0.4339(10) 0.4275(13) 0.8467(9)
C35 C 0.4480(11) 0.4152(17) 0.9539(13)
H41 H 0.4460 0.3688 0.9850
H42 H 0.4872 0.4442 0.9645
C36 C 0.4394(9) 0.3686(14) 0.8925(9)
H43 H 0.4732 0.3280 0.8927
H44 H 0.4038 0.3298 0.8859
C37 C 0.3873(11) 0.4945(17) 0.8501(10)
H45 H 0.3808 0.5371 0.8155
H46 H 0.3500 0.4626 0.8501
C38 C 0.4077(11) 0.5428(18) 0.9052(10)
H47 H 0.4485 0.5638 0.9086
H48 H 0.3827 0.5971 0.9068
Br1 Br 0.08190(3) 0.33563(6) 0.50931(4)
Br2 Br 0.26749(10) 0.36517(15) 0.69801(10)
O8 O 0.2500 0.9499(7) 0.5000
H49? H 0.0604 0.3307 0.6643
H50? H 0.1265 0.3017 0.6946
C39? C 0.0933(9) 0.395(3) 0.7435(10)
C40? C 0.1429(11) 0.406(2) 0.7892(10)
H51? H 0.1797 0.3873 0.7828
C41? C 0.1406(9) 0.4457(16) 0.8448(9)
H52? H 0.1747 0.4587 0.8753
C42? C 0.0850(9) 0.4636(12) 0.8512(8)
H53? H 0.0803 0.4876 0.8885
C43? C 0.0345(9) 0.4484(12) 0.8055(7)
H54? H -0.0028 0.4642 0.8123
C44? C 0.0376(8) 0.4107(12) 0.7506(8)
H55? H 0.0037 0.3969 0.7201
O9? O 0.3256(7) 0.4593(11) 0.9297(6)
O10? O 0.4062(6) 0.3862(12) 0.8776(6)
C45? C 0.3647(9) 0.3980(15) 0.9633(9)
H56? H 0.3481 0.3353 0.9591
H57? H 0.3736 0.4152 1.0064
C46? C 0.4177(10) 0.4017(18) 0.9402(7)
H58? H 0.4362 0.4626 0.9492
H59? H 0.4458 0.3550 0.9610
C47? C 0.3489(6) 0.3943(11) 0.8381(6)
H60? H 0.3514 0.4299 0.8019
H61? H 0.3333 0.3327 0.8251
C48? C 0.3125(9) 0.4375(16) 0.8680(7)
H62? H 0.2763 0.4002 0.8607
H63? H 0.3016 0.4961 0.8465
Br3? Br 0.0720(5) 0.2984(8) 0.5181(5)
Br4? Br 0.2606(5) 0.3715(8) 0.6733(5)
H64? H 0.2545 0.9738 0.4665
H65? H 0.2139 0.9573 0.5028
loop_
_geom_bond_atom_site_label_1
_geom_bond_atom_site_label_2
_geom_bond_site_symmetry_1
_geom_bond_site_symmetry_2
O1 H1 1_555 1_555
O2 H2 1_555 1_555
O3 H3 1_555 1_555
O4 H4 1_555 1_555
N1 H5 1_555 1_555
H6 N1 1_555 1_555
N2 H7 1_555 1_555
H8 N2 1_555 1_555
C1 C2 1_555 1_555
C2 O1 1_555 1_555
C3 C2 1_555 1_555
C4 O2 1_555 1_555
C5 C4 1_555 1_555
C6 C1 1_555 1_555
H9 C6 1_555 1_555
C7 N1 1_555 1_555
H10 C7 1_555 1_555
H11 C7 1_555 1_555
C8 N1 1_555 1_555
H12 C8 1_555 1_555
H13 C8 1_555 1_555
C9 C8 1_555 1_555
C10 C9 1_555 1_555
H14 C10 1_555 1_555
C11 C10 1_555 1_555
H15 C11 1_555 1_555
C12 C11 1_555 1_555
H16 C12 1_555 1_555
C13 C12 1_555 1_555
H17 C13 1_555 1_555
C14 C9 1_555 1_555
H18 C14 1_555 1_555
C15 C5 1_555 1_555
H19 C15 1_555 1_555
C16 C15 1_555 1_555
H20 C16 1_555 1_555
H21 C16 1_555 1_555
H22 C16 1_555 1_555
C17 C15 1_555 1_555
C18 O3 1_555 1_555
C19 C18 1_555 1_555
C20 O4 1_555 1_555
C21 C20 1_555 1_555
C22 C17 1_555 1_555
H23 C22 1_555 1_555
C23 N2 1_555 1_555
H24 C23 1_555 1_555
H25 C23 1_555 1_555
C24 N2 1_555 1_555
H26 C24 1_555 1_555
H27 C24 1_555 1_555
C25 C24 1_555 1_555
C26 C25 1_555 1_555
H28 C26 1_555 1_555
C27 C26 1_555 1_555
H29 C27 1_555 1_555
C28 C27 1_555 1_555
H30 C28 1_555 1_555
C29 C28 1_555 1_555
H31 C29 1_555 1_555
C30 C25 1_555 1_555
H32 C30 1_555 1_555
C31 C21 1_555 1_555
H33 C31 1_555 1_555
C32 C31 1_555 1_555
H34 C32 1_555 1_555
H35 C32 1_555 1_555
H36 C32 1_555 1_555
O5 C33 1_555 1_555
C33 H37 1_555 1_555
H38 C33 1_555 1_555
C34 O5 1_555 1_555
H39 C34 1_555 1_555
H40 C34 1_555 1_555
O6 C35 1_555 1_555
O7 C36 1_555 1_555
C35 H41 1_555 1_555
H42 C35 1_555 1_555
C36 C35 1_555 1_555
H43 C36 1_555 1_555
H44 C36 1_555 1_555
C37 O7 1_555 1_555
H45 C37 1_555 1_555
H46 C37 1_555 1_555
C38 O6 1_555 1_555
H47 C38 1_555 1_555
H48 C38 1_555 1_555
O1A H1A 1_555 1_555
O2A H2A 1_555 1_555
O3A H3A 1_555 1_555
O4A H4A 1_555 1_555
N1A H5A 1_555 1_555
H6A N1A 1_555 1_555
N2A H7A 1_555 1_555
H8A N2A 1_555 1_555
C1A C31 1_555 1_555
C2A O1A 1_555 1_555
C3A C2A 1_555 1_555
C4A O2A 1_555 1_555
C5A C4A 1_555 1_555
C6A C1A 1_555 1_555
H9A C6A 1_555 1_555
C7A N1A 1_555 1_555
H10A C7A 1_555 1_555
H11A C7A 1_555 1_555
C8A N1A 1_555 1_555
H12A C8A 1_555 1_555
H13A C8A 1_555 1_555
C9A C8A 1_555 1_555
C10A C9A 1_555 1_555
H14A C10A 1_555 1_555
C11A C10A 1_555 1_555
H15A C11A 1_555 1_555
C12A C11A 1_555 1_555
H16A C12A 1_555 1_555
C13A C12A 1_555 1_555
H17A C13A 1_555 1_555
C14A C9A 1_555 1_555
H18A C14A 1_555 1_555
C15A C5A 1_555 1_555
H19A C15A 1_555 1_555
C16A C15A 1_555 1_555
H20A C16A 1_555 1_555
H21A C16A 1_555 1_555
H22A C16A 1_555 1_555
C17A C15A 1_555 1_555
C18A O3A 1_555 1_555
C19A C18A 1_555 1_555
C20A O4A 1_555 1_555
C21A C20A 1_555 1_555
C22A C17A 1_555 1_555
H23A C22A 1_555 1_555
C23A N2A 1_555 1_555
H24A C23A 1_555 1_555
H25A C23A 1_555 1_555
C24A N2A 1_555 1_555
H26A C24A 1_555 1_555
H27A C24A 1_555 1_555
C25A C24A 1_555 1_555
C26A C25A 1_555 1_555
H28A C26A 1_555 1_555
C27A C26A 1_555 1_555
H29A C27A 1_555 1_555
C28A C27A 1_555 1_555
H30A C28A 1_555 1_555
C29A C28A 1_555 1_555
H31A C29A 1_555 1_555
C30A C25A 1_555 1_555
H32A C30A 1_555 1_555
C31A C1 1_555 1_555
H33A C31A 1_555 1_555
C32A C31A 1_555 1_555
H34A C32A 1_555 1_555
H35A C32A 1_555 1_555
H36A C32A 1_555 1_555
O5A C33A 1_555 1_555
C33A C33 1_555 1_555
H37A C33A 1_555 1_555
H38A C33A 1_555 1_555
C34A C34 1_555 1_555
H39A C34A 1_555 1_555
H40A C34A 1_555 1_555
C3 C4 1_555 1_555
C3 C7 1_555 1_555
C5 C6 1_555 1_555
C13 C14 1_555 1_555
C17 C18 1_555 1_555
C19 C20 1_555 1_555
C19 C23 1_555 1_555
C21 C22 1_555 1_555
C29 C30 1_555 1_555
C37 C38 1_555 1_555
C1A C2A 1_555 1_555
C3A C4A 1_555 1_555
C3A C7A 1_555 1_555
C5A C6A 1_555 1_555
C13A C14A 1_555 1_555
C17A C18A 1_555 1_555
C19A C20A 1_555 1_555
C19A C23A 1_555 1_555
C21A C22A 1_555 1_555
C21A C31A 1_555 1_555
C29A C30A 1_555 1_555
O5A C34A 1_555 1_555

#END
