
#######################################################################
#
#                 Cambridge Crystallographic Data Centre
#                                CCDC 
#
#######################################################################
#
# If this CIF has been generated from an entry in the Cambridge 
# Structural Database, then it will include bibliographic, chemical, 
# crystal, experimental, refinement or atomic coordinate data resulting 
# from the CCDC's data processing and validation procedures.
#
#######################################################################

data_IZOLAM
_chemical_name_common            
'5,11,17,23-tetrakis((benzylazaniumyl)methyl)-C-propylcalix(4)resorcinarene tetrachloride 1,1,2,2,3,3,4,4-octafluoro-1,4-diiodobutane 1,4-dioxane solvate'
_chemical_formula_moiety         'C72 H88 N4 O8 4+,C4 F8 I2,C4 H8 O2,4(Cl1 1-)'
_chemical_name_systematic        
'2,8,14,20-tetrapropyl-5,11,17,23-tetrakis((benzylazaniumyl)methyl)-4,6,10,12,16,18,22,24-octahydroxycalix(4)arene tetrachloride 1,1,2,2,3,3,4,4-octafluoro-1,4-diiodobutane 1,4-dioxane solvate'
_symmetry_cell_setting           triclinic
_symmetry_space_group_name_H-M   'P -1'
_symmetry_Int_Tables_number      2
_space_group_name_Hall           '-P 1'
loop_
_symmetry_equiv_pos_site_id
_symmetry_equiv_pos_as_xyz
1 x,y,z
2 -x,-y,-z
_cell_length_a                   12.4090(3)
_cell_length_b                   15.9324(4)
_cell_length_c                   22.9992(5)
_cell_angle_alpha                102.232(2)
_cell_angle_beta                 104.810(2)
_cell_angle_gamma                104.468(2)
_cell_volume                     4067.75
_exptl_crystal_colour            colorless
_exptl_crystal_description       plate
_cell_formula_units_Z            2
loop_
_atom_site_label
_atom_site_type_symbol
_atom_site_fract_x
_atom_site_fract_y
_atom_site_fract_z
O1 O -0.1359(2) 1.12637(17) 0.07914(11)
H1 H -0.1470 1.0719 0.0655
O2 O 0.1910(2) 1.13766(18) 0.24809(12)
H2 H 0.1709 1.0822 0.2393
O3 O 0.1610(2) 1.09861(17) 0.35364(12)
H3 H 0.1323 1.0447 0.3337
O4 O -0.1287(2) 1.04387(16) 0.45328(12)
H4 H -0.1702 1.0675 0.4690
O5 O -0.3212(2) 1.07622(16) 0.48094(11)
H5 H -0.2913 1.1136 0.5159
O6 O -0.62699(19) 1.08444(17) 0.31396(11)
H6 H -0.6367 1.0914 0.2789
O7 O -0.6220(2) 1.07621(17) 0.19564(12)
H7 H -0.6293 1.0224 0.1913
O8 O -0.3632(2) 1.07877(17) 0.07610(11)
H8 H -0.2949 1.1027 0.0785
N1 N 0.0162(2) 0.96582(19) 0.12191(14)
H9 H 0.0204 0.9625 0.1605
H10 H -0.0593 0.9443 0.0981
N2 N -0.0691(3) 0.90329(19) 0.35980(14)
H11 H -0.1333 0.9193 0.3482
H12 H -0.0468 0.8894 0.3262
N3 N -0.6092(2) 0.92183(19) 0.35044(13)
H13 H -0.6726 0.8853 0.3542
H14 H -0.6324 0.9366 0.3152
N4 N -0.5275(3) 0.9150(2) 0.09530(13)
H15 H -0.4501 0.9317 0.1028
H16 H -0.5410 0.9020 0.1291
C1 C -0.0974(3) 1.2209(2) 0.18157(15)
C2 C -0.0675(3) 1.1571(2) 0.14212(15)
C3 C 0.0272(3) 1.1277(2) 0.16495(15)
C4 C 0.0943(3) 1.1639(2) 0.22916(15)
C5 C 0.0659(3) 1.2259(2) 0.27066(15)
C6 C -0.0307(3) 1.2520(2) 0.24540(15)
H17 H -0.0519 1.2922 0.2724
C7 C 0.0670(3) 1.0635(2) 0.12421(16)
H18 H 0.1522 1.0812 0.1399
H19 H 0.0443 1.0685 0.0818
C8 C 0.0824(3) 0.9096(3) 0.0954(2)
H20 H 0.1582 0.9233 0.1269
H21 H 0.0969 0.9274 0.0595
C9 C 0.0212(4) 0.8085(3) 0.07470(17)
C10 C 0.0537(5) 0.7570(3) 0.0287(2)
H22 H 0.1042 0.7859 0.0101
C11 C 0.0101(5) 0.6625(4) 0.0109(3)
H23 H 0.0337 0.6281 -0.0184
C12 C -0.0684(6) 0.6205(3) 0.0371(2)
H24 H -0.1024 0.5577 0.0232
C13 C -0.0956(8) 0.6699(4) 0.0825(3)
H25 H -0.1447 0.6410 0.1018
C14 C -0.0512(7) 0.7641(4) 0.1012(3)
H26 H -0.0719 0.7973 0.1325
C15 C 0.1367(3) 1.2638(2) 0.34070(15)
H27 H 0.2111 1.2506 0.3460
C16 C 0.1680(3) 1.3671(2) 0.36405(16)
H28 H 0.0965 1.3819 0.3630
H29 H 0.2006 1.3934 0.3355
C17 C 0.2563(3) 1.4099(3) 0.43082(18)
H30 H 0.2222 1.3870 0.4601
H31 H 0.3266 1.3928 0.4328
C18 C 0.2895(5) 1.5127(3) 0.4499(2)
H32 H 0.3159 1.5350 0.4186
H33 H 0.3515 1.5381 0.4897
H34 H 0.2221 1.5299 0.4534
C19 C 0.0716(3) 1.2120(2) 0.37673(15)
C20 C 0.0808(3) 1.1264(2) 0.37770(15)
C21 C 0.0146(3) 1.0721(2) 0.40467(15)
C22 C -0.0632(3) 1.1038(2) 0.43079(15)
C23 C -0.0695(3) 1.1910(2) 0.43459(14)
C24 C -0.0023(3) 1.2425(2) 0.40610(15)
H35 H -0.0074 1.2999 0.4069
C25 C 0.0272(3) 0.9823(2) 0.40950(16)
H36 H 0.0265 0.9770 0.4507
H37 H 0.1026 0.9800 0.4058
C26 C -0.0988(3) 0.8211(2) 0.38201(19)
H38 H -0.1354 0.8327 0.4141
H39 H -0.0270 0.8090 0.4007
C27 C -0.1809(3) 0.7396(3) 0.32848(19)
C28 C -0.2902(4) 0.6939(3) 0.3299(2)
H40 H -0.3130 0.7125 0.3647
C29 C -0.3660(4) 0.6201(3) 0.2791(3)
H41 H -0.4387 0.5886 0.2807
C30 C -0.3352(5) 0.5933(4) 0.2272(3)
H42 H -0.3874 0.5449 0.1930
C31 C -0.2249(5) 0.6387(4) 0.2256(3)
H43 H -0.2031 0.6206 0.1904
C32 C -0.1470(4) 0.7117(3) 0.2771(2)
H44 H -0.0726 0.7412 0.2765
C33 C -0.1463(3) 1.2257(2) 0.46934(14)
H45 H -0.1424 1.1987 0.5040
C34 C -0.1014(3) 1.3288(2) 0.50015(15)
H46 H -0.0933 1.3589 0.4683
H47 H -0.1592 1.3462 0.5172
C35 C 0.0167(3) 1.3607(2) 0.55280(18)
H48 H 0.0089 1.3291 0.5840
H49 H 0.0747 1.3444 0.5354
C36 C 0.0612(5) 1.4622(3) 0.5850(3)
H50 H 0.0717 1.4940 0.5547
H51 H 0.1351 1.4779 0.6177
H52 H 0.0049 1.4788 0.6029
C37 C -0.2751(3) 1.1898(2) 0.42794(14)
C38 C -0.3556(3) 1.1190(2) 0.43627(14)
C39 C -0.4730(3) 1.0825(2) 0.39636(15)
C40 C -0.5104(3) 1.1216(2) 0.34884(15)
C41 C -0.4328(3) 1.1946(2) 0.34003(15)
C42 C -0.3161(3) 1.2260(2) 0.37946(15)
H53 H -0.2630 1.2732 0.3733
C43 C -0.5619(3) 1.0075(2) 0.40533(15)
H54 H -0.6268 1.0279 0.4110
H55 H -0.5258 0.9938 0.4433
C44 C -0.5254(3) 0.8696(3) 0.34360(18)
H56 H -0.4586 0.9075 0.3364
H57 H -0.5646 0.8169 0.3069
C45 C -0.4809(3) 0.8386(2) 0.40038(16)
C46 C -0.5546(3) 0.7800(3) 0.4211(2)
H58 H -0.6351 0.7577 0.3995
C47 C -0.5097(4) 0.7540(3) 0.4740(2)
H59 H -0.5602 0.7161 0.4883
C48 C -0.3897(4) 0.7849(3) 0.5052(2)
H60 H -0.3591 0.7671 0.5402
C49 C -0.3158(4) 0.8420(3) 0.4845(2)
H61 H -0.2351 0.8625 0.5054
C50 C -0.3605(3) 0.8691(3) 0.4327(2)
H62 H -0.3096 0.9081 0.4193
C51 C -0.4745(3) 1.2384(2) 0.28883(15)
H63 H -0.5607 1.2192 0.2762
C52 C -0.4310(3) 1.3423(2) 0.31351(16)
H64 H -0.3458 1.3637 0.3313
H65 H -0.4526 1.3668 0.2787
C53 C -0.4829(3) 1.3772(3) 0.36364(18)
H66 H -0.5680 1.3512 0.3469
H67 H -0.4559 1.3564 0.3998
C54 C -0.4500(5) 1.4789(3) 0.3850(2)
H68 H -0.4801 1.4998 0.3499
H69 H -0.3658 1.5052 0.4014
H70 H -0.4831 1.4966 0.4172
C55 C -0.4435(3) 1.2008(2) 0.23073(15)
C56 C -0.5188(3) 1.1182(2) 0.18691(15)
C57 C -0.4913(3) 1.0800(2) 0.13438(15)
C58 C -0.3854(3) 1.1241(2) 0.12692(15)
C59 C -0.3099(3) 1.2079(2) 0.16818(15)
C60 C -0.3417(3) 1.2440(2) 0.21988(15)
H71 H -0.2923 1.2996 0.2483
C61 C -0.5704(3) 0.9929(2) 0.08555(15)
H72 H -0.5729 0.9985 0.0441
H73 H -0.6496 0.9811 0.0877
C62 C -0.5856(4) 0.8318(3) 0.04005(19)
H74 H -0.5731 0.8464 0.0029
H75 H -0.6697 0.8123 0.0328
C63 C -0.5393(4) 0.7557(3) 0.04942(18)
C64 C -0.4566(5) 0.7371(3) 0.0225(2)
H76 H -0.4283 0.7732 -0.0007
C65 C -0.4158(6) 0.6652(4) 0.0299(3)
H77 H -0.3607 0.6527 0.0115
C66 C -0.4576(6) 0.6126(4) 0.0646(3)
H78 H -0.4305 0.5643 0.0696
C67 C -0.5388(5) 0.6302(3) 0.0921(3)
H79 H -0.5658 0.5945 0.1159
C68 C -0.5806(4) 0.7017(3) 0.0842(2)
H80 H -0.6364 0.7134 0.1023
C69 C -0.1982(3) 1.2563(2) 0.15637(16)
H81 H -0.2162 1.2407 0.1106
C70 C -0.1609(4) 1.3602(2) 0.1807(2)
H82 H -0.1495 1.3777 0.2255
H83 H -0.0858 1.3856 0.1753
C71 C -0.2484(5) 1.4006(4) 0.1482(3)
H84 H -0.3273 1.3634 0.1427
H85 H -0.2349 1.4606 0.1751
C72 C -0.2412(6) 1.4078(4) 0.0850(3)
H86 H -0.2497 1.3494 0.0588
H87 H -0.1663 1.4499 0.0904
H88 H -0.3030 1.4290 0.0653
I1 I -0.27153(2) 0.74936(2) -0.10056(2)
I2 I -0.15287(3) 0.33105(2) -0.26217(2)
F1 F -0.4175(2) 0.57282(19) -0.18725(15)
F2 F -0.2983(3) 0.6481(2) -0.22717(14)
F3 F -0.2385(3) 0.54735(18) -0.10751(13)
F4 F -0.1090(2) 0.63490(18) -0.13590(14)
F5 F -0.3382(3) 0.4470(2) -0.24142(17)
F6 F -0.1736(3) 0.5280(2) -0.24732(15)
F7 F -0.2266(4) 0.3848(2) -0.15486(18)
F8 F -0.0578(3) 0.4771(2) -0.14438(14)
C73 C -0.3055(4) 0.6282(3) -0.1742(2)
C74 C -0.2184(4) 0.5767(3) -0.1556(2)
C75 C -0.2256(4) 0.4945(3) -0.2085(2)
C76 C -0.1658(4) 0.4279(3) -0.1861(2)
O9 O -0.2875(3) 0.9484(2) 0.17419(13)
O10 O -0.2837(2) 0.92725(18) 0.29379(12)
C77 C -0.2837(4) 0.8657(3) 0.18861(19)
H89 H -0.2024 0.8677 0.2041
H90 H -0.3236 0.8150 0.1506
C78 C -0.3413(3) 0.8520(3) 0.23698(19)
H91 H -0.4236 0.8468 0.2207
H92 H -0.3370 0.7961 0.2464
C79 C -0.2883(4) 1.0099(3) 0.27954(18)
H93 H -0.2484 1.0606 0.3175
H94 H -0.3697 1.0076 0.2641
C80 C -0.2300(4) 1.0233(3) 0.2303(2)
H95 H -0.2342 1.0791 0.2207
H96 H -0.1477 1.0284 0.2465
Cl1 Cl -0.20341(8) 0.93349(6) 0.00704(4)
Cl2 Cl 0.04697(8) 0.92189(6) 0.25547(4)
Cl3 Cl -0.64265(8) 0.88699(6) 0.19656(4)
Cl4 Cl -0.82307(7) 0.82091(6) 0.38467(4)
loop_
_geom_bond_atom_site_label_1
_geom_bond_atom_site_label_2
_geom_bond_site_symmetry_1
_geom_bond_site_symmetry_2
O1 H1 1_555 1_555
O2 H2 1_555 1_555
O3 H3 1_555 1_555
O4 H4 1_555 1_555
O5 H5 1_555 1_555
O6 H6 1_555 1_555
O7 H7 1_555 1_555
O8 H8 1_555 1_555
N1 H9 1_555 1_555
H10 N1 1_555 1_555
N2 H11 1_555 1_555
H12 N2 1_555 1_555
N3 H13 1_555 1_555
H14 N3 1_555 1_555
N4 H15 1_555 1_555
H16 N4 1_555 1_555
C1 C2 1_555 1_555
C2 O1 1_555 1_555
C3 C2 1_555 1_555
C4 O2 1_555 1_555
C5 C4 1_555 1_555
C6 C1 1_555 1_555
H17 C6 1_555 1_555
C7 N1 1_555 1_555
H18 C7 1_555 1_555
H19 C7 1_555 1_555
C8 N1 1_555 1_555
H20 C8 1_555 1_555
H21 C8 1_555 1_555
C9 C8 1_555 1_555
C10 C9 1_555 1_555
H22 C10 1_555 1_555
C11 C10 1_555 1_555
H23 C11 1_555 1_555
C12 C11 1_555 1_555
H24 C12 1_555 1_555
C13 C12 1_555 1_555
H25 C13 1_555 1_555
C14 C9 1_555 1_555
H26 C14 1_555 1_555
C15 C5 1_555 1_555
H27 C15 1_555 1_555
C16 C15 1_555 1_555
H28 C16 1_555 1_555
H29 C16 1_555 1_555
C17 C16 1_555 1_555
H30 C17 1_555 1_555
H31 C17 1_555 1_555
C18 C17 1_555 1_555
H32 C18 1_555 1_555
H33 C18 1_555 1_555
H34 C18 1_555 1_555
C19 C15 1_555 1_555
C20 O3 1_555 1_555
C21 C20 1_555 1_555
C22 O4 1_555 1_555
C23 C22 1_555 1_555
C24 C19 1_555 1_555
H35 C24 1_555 1_555
C25 N2 1_555 1_555
H36 C25 1_555 1_555
H37 C25 1_555 1_555
C26 N2 1_555 1_555
H38 C26 1_555 1_555
H39 C26 1_555 1_555
C27 C26 1_555 1_555
C28 C27 1_555 1_555
H40 C28 1_555 1_555
C29 C28 1_555 1_555
H41 C29 1_555 1_555
C30 C29 1_555 1_555
H42 C30 1_555 1_555
C31 C30 1_555 1_555
H43 C31 1_555 1_555
C32 C27 1_555 1_555
H44 C32 1_555 1_555
C33 C23 1_555 1_555
H45 C33 1_555 1_555
C34 C33 1_555 1_555
H46 C34 1_555 1_555
H47 C34 1_555 1_555
C35 C34 1_555 1_555
H48 C35 1_555 1_555
H49 C35 1_555 1_555
C36 C35 1_555 1_555
H50 C36 1_555 1_555
H51 C36 1_555 1_555
H52 C36 1_555 1_555
C37 C33 1_555 1_555
C38 O5 1_555 1_555
C39 C38 1_555 1_555
C40 O6 1_555 1_555
C41 C40 1_555 1_555
C42 C37 1_555 1_555
H53 C42 1_555 1_555
C43 N3 1_555 1_555
H54 C43 1_555 1_555
H55 C43 1_555 1_555
C44 N3 1_555 1_555
H56 C44 1_555 1_555
H57 C44 1_555 1_555
C45 C44 1_555 1_555
C46 C45 1_555 1_555
H58 C46 1_555 1_555
C47 C46 1_555 1_555
H59 C47 1_555 1_555
C48 C47 1_555 1_555
H60 C48 1_555 1_555
C49 C48 1_555 1_555
H61 C49 1_555 1_555
C50 C45 1_555 1_555
H62 C50 1_555 1_555
C51 C41 1_555 1_555
H63 C51 1_555 1_555
C52 C51 1_555 1_555
H64 C52 1_555 1_555
H65 C52 1_555 1_555
C53 C52 1_555 1_555
H66 C53 1_555 1_555
H67 C53 1_555 1_555
C54 C53 1_555 1_555
H68 C54 1_555 1_555
H69 C54 1_555 1_555
H70 C54 1_555 1_555
C55 C51 1_555 1_555
C56 O7 1_555 1_555
C57 C56 1_555 1_555
C58 O8 1_555 1_555
C59 C58 1_555 1_555
C60 C55 1_555 1_555
H71 C60 1_555 1_555
C61 N4 1_555 1_555
H72 C61 1_555 1_555
H73 C61 1_555 1_555
C62 N4 1_555 1_555
H74 C62 1_555 1_555
H75 C62 1_555 1_555
C63 C62 1_555 1_555
C64 C63 1_555 1_555
H76 C64 1_555 1_555
C65 C64 1_555 1_555
H77 C65 1_555 1_555
C66 C65 1_555 1_555
H78 C66 1_555 1_555
C67 C66 1_555 1_555
H79 C67 1_555 1_555
C68 C63 1_555 1_555
H80 C68 1_555 1_555
C69 C1 1_555 1_555
H81 C69 1_555 1_555
C70 C69 1_555 1_555
H82 C70 1_555 1_555
H83 C70 1_555 1_555
C71 C70 1_555 1_555
H84 C71 1_555 1_555
H85 C71 1_555 1_555
C72 C71 1_555 1_555
H86 C72 1_555 1_555
H87 C72 1_555 1_555
H88 C72 1_555 1_555
I1 C73 1_555 1_555
I2 C76 1_555 1_555
F1 C73 1_555 1_555
F2 C73 1_555 1_555
F3 C74 1_555 1_555
F4 C74 1_555 1_555
F5 C75 1_555 1_555
F6 C75 1_555 1_555
F7 C76 1_555 1_555
F8 C76 1_555 1_555
C73 C74 1_555 1_555
C74 C75 1_555 1_555
C75 C76 1_555 1_555
O9 C77 1_555 1_555
O10 C78 1_555 1_555
C77 H89 1_555 1_555
H90 C77 1_555 1_555
C78 C77 1_555 1_555
H91 C78 1_555 1_555
H92 C78 1_555 1_555
C79 O10 1_555 1_555
H93 C79 1_555 1_555
H94 C79 1_555 1_555
C80 O9 1_555 1_555
H95 C80 1_555 1_555
H96 C80 1_555 1_555
C3 C4 1_555 1_555
C3 C7 1_555 1_555
C5 C6 1_555 1_555
C13 C14 1_555 1_555
C19 C20 1_555 1_555
C21 C22 1_555 1_555
C21 C25 1_555 1_555
C23 C24 1_555 1_555
C31 C32 1_555 1_555
C37 C38 1_555 1_555
C39 C40 1_555 1_555
C39 C43 1_555 1_555
C41 C42 1_555 1_555
C49 C50 1_555 1_555
C55 C56 1_555 1_555
C57 C58 1_555 1_555
C57 C61 1_555 1_555
C59 C60 1_555 1_555
C59 C69 1_555 1_555
C67 C68 1_555 1_555
C79 C80 1_555 1_555

#END
