
#######################################################################
#
#                 Cambridge Crystallographic Data Centre
#                                CCDC 
#
#######################################################################
#
# If this CIF has been generated from an entry in the Cambridge 
# Structural Database, then it will include bibliographic, chemical, 
# crystal, experimental, refinement or atomic coordinate data resulting 
# from the CCDC's data processing and validation procedures.
#
#######################################################################

data_IZOTOI
_chemical_formula_moiety         'C15 H20 F2 N3 O4 P1'
_chemical_name_systematic        
N-(bis(morpholin-4-yl)phosphoryl)-2,6-difluorobenzamide
_symmetry_cell_setting           triclinic
_symmetry_space_group_name_H-M   'P -1'
_symmetry_Int_Tables_number      2
_space_group_name_Hall           '-P 1'
loop_
_symmetry_equiv_pos_site_id
_symmetry_equiv_pos_as_xyz
1 x,y,z
2 -x,-y,-z
_cell_length_a                   9.2192(8)
_cell_length_b                   10.2626(9)
_cell_length_c                   10.4349(7)
_cell_angle_alpha                96.124(4)
_cell_angle_beta                 111.977(4)
_cell_angle_gamma                107.801(4)
_cell_volume                     843.933
_exptl_crystal_colour            colorless
_exptl_crystal_description       block
_cell_formula_units_Z            2
loop_
_atom_site_label
_atom_site_type_symbol
_atom_site_fract_x
_atom_site_fract_y
_atom_site_fract_z
P1 P 0.33266(8) 0.39645(6) 0.27274(7)
F1 F 0.77264(19) 0.79031(18) 0.40783(17)
F2 F 0.2591(2) 0.85713(19) 0.20993(19)
O1 O 0.3231(2) 0.6234(2) 0.10389(19)
O2 O 0.4281(3) 0.34060(19) 0.38779(19)
O3 O 0.2505(3) 0.1332(2) -0.1318(2)
O4 O -0.1577(3) 0.3330(2) 0.2881(2)
N1 N 0.4413(3) 0.5719(2) 0.3171(2)
H1 H 0.498(3) 0.612(3) 0.406(2)
N2 N 0.3081(3) 0.3181(2) 0.1180(2)
N3 N 0.1429(3) 0.3810(2) 0.2531(3)
C1 C 0.6840(3) 0.8757(3) 0.3900(3)
C2 C 0.7703(4) 1.0192(3) 0.4539(3)
H2 H 0.8888 1.0567 0.5106
C3 C 0.6800(5) 1.1061(3) 0.4330(3)
H3 H 0.7375 1.2047 0.4760
C4 C 0.5078(5) 1.0532(3) 0.3510(3)
H4 H 0.4460 1.1135 0.3379
C5 C 0.4286(4) 0.9104(3) 0.2889(3)
C6 C 0.5119(3) 0.8166(3) 0.3055(3)
C7 C 0.4163(3) 0.6624(3) 0.2308(3)
C8 C 0.1784(4) 0.3096(3) -0.0214(3)
H5 H 0.2267 0.3818 -0.0652
H6 H 0.0838 0.3271 -0.0095
C9 C 0.1159(4) 0.1632(3) -0.1159(3)
H7 H 0.0621 0.0922 -0.0737
H8 H 0.0296 0.1558 -0.2110
C10 C 0.3780(4) 0.1438(3) 0.0036(3)
H9 H 0.4707 0.1246 -0.0102
H10 H 0.3299 0.0712 0.0473
C11 C 0.4484(3) 0.2887(3) 0.1040(3)
H11 H 0.5314 0.2909 0.1986
H12 H 0.5061 0.3613 0.0657
C12 C 0.0288(4) 0.2367(3) 0.2394(4)
H13 H 0.0664 0.2122 0.3325
H14 H 0.0332 0.1670 0.1691
C13 C -0.1469(4) 0.2308(4) 0.1924(4)
H15 H -0.1870 0.2479 0.0959
H16 H -0.2213 0.1353 0.1866
C14 C -0.0526(4) 0.4708(3) 0.2959(4)
H17 H -0.0641 0.5415 0.3599
H18 H -0.0907 0.4890 0.1998
C15 C 0.1268(4) 0.4885(3) 0.3494(4)
H19 H 0.1682 0.4758 0.4477
H20 H 0.1955 0.5847 0.3515
loop_
_geom_bond_atom_site_label_1
_geom_bond_atom_site_label_2
_geom_bond_site_symmetry_1
_geom_bond_site_symmetry_2
P1 O2 1_555 1_555
F1 C1 1_555 1_555
F2 C5 1_555 1_555
O1 C7 1_555 1_555
O3 C9 1_555 1_555
O4 C13 1_555 1_555
N1 P1 1_555 1_555
H1 N1 1_555 1_555
N2 P1 1_555 1_555
N3 P1 1_555 1_555
C1 C2 1_555 1_555
C2 H2 1_555 1_555
C3 C2 1_555 1_555
H3 C3 1_555 1_555
C4 C3 1_555 1_555
H4 C4 1_555 1_555
C5 C4 1_555 1_555
C6 C1 1_555 1_555
C7 N1 1_555 1_555
C8 N2 1_555 1_555
H5 C8 1_555 1_555
H6 C8 1_555 1_555
C9 C8 1_555 1_555
H7 C9 1_555 1_555
H8 C9 1_555 1_555
C10 O3 1_555 1_555
H9 C10 1_555 1_555
H10 C10 1_555 1_555
C11 N2 1_555 1_555
H11 C11 1_555 1_555
H12 C11 1_555 1_555
C12 N3 1_555 1_555
H13 C12 1_555 1_555
H14 C12 1_555 1_555
C13 C12 1_555 1_555
H15 C13 1_555 1_555
H16 C13 1_555 1_555
C14 O4 1_555 1_555
H17 C14 1_555 1_555
H18 C14 1_555 1_555
C15 N3 1_555 1_555
H19 C15 1_555 1_555
H20 C15 1_555 1_555
C5 C6 1_555 1_555
C6 C7 1_555 1_555
C10 C11 1_555 1_555
C14 C15 1_555 1_555

#END
