
#######################################################################
#
#                 Cambridge Crystallographic Data Centre
#                                CCDC 
#
#######################################################################
#
# If this CIF has been generated from an entry in the Cambridge 
# Structural Database, then it will include bibliographic, chemical, 
# crystal, experimental, refinement or atomic coordinate data resulting 
# from the CCDC's data processing and validation procedures.
#
#######################################################################

data_IZOVOK
_chemical_formula_moiety         'C10 H21 F3 N3 O2 P1'
_chemical_name_systematic        
N-(bis(diethylamino)phosphoryl)-2,2,2-trifluoroacetamide
_symmetry_cell_setting           monoclinic
_symmetry_space_group_name_H-M   'P 21/c'
_symmetry_Int_Tables_number      14
_space_group_name_Hall           '-P 2ybc'
loop_
_symmetry_equiv_pos_site_id
_symmetry_equiv_pos_as_xyz
1 x,y,z
2 -x,1/2+y,1/2-z
3 -x,-y,-z
4 x,1/2-y,1/2+z
_cell_length_a                   8.4035(13)
_cell_length_b                   12.693(2)
_cell_length_c                   14.002(2)
_cell_angle_alpha                90
_cell_angle_beta                 106.623(5)
_cell_angle_gamma                90
_cell_volume                     1431.11
_exptl_crystal_colour            colorless
_exptl_crystal_description       BLOCK
_cell_formula_units_Z            4
loop_
_atom_site_label
_atom_site_type_symbol
_atom_site_fract_x
_atom_site_fract_y
_atom_site_fract_z
P1 P 0.24198(7) 0.42896(4) 0.59058(4)
F1 F -0.2071(5) 0.2478(3) 0.4532(3)
F2 F -0.0368(5) 0.1283(3) 0.4330(3)
F3 F -0.1449(5) 0.1174(4) 0.5549(3)
O1 O 0.1809(2) 0.19121(13) 0.62200(13)
O2 O 0.19628(18) 0.52439(12) 0.52756(11)
N1 N 0.0717(2) 0.34936(15) 0.55519(14)
H1 H -0.017(3) 0.379(2) 0.5204(18)
N2 N 0.2816(2) 0.44266(15) 0.71175(13)
N3 N 0.4041(2) 0.37135(15) 0.57157(13)
C1 C -0.0829(3) 0.18518(18) 0.50177(17)
C2 C 0.0720(3) 0.24356(18) 0.56794(16)
C3 C 0.1429(3) 0.44228(19) 0.75791(17)
H2 H 0.1902 0.4440 0.8313
H3 H 0.0809 0.3754 0.7405
C4 C 0.0211(3) 0.5337(2) 0.72648(18)
H4 H -0.0559 0.5339 0.7674
H5 H -0.0415 0.5257 0.6562
H6 H 0.0826 0.6004 0.7357
C5 C 0.4158(3) 0.51900(18) 0.75710(17)
H7 H 0.3655 0.5882 0.7636
H8 H 0.4867 0.5281 0.7121
C6 C 0.5236(3) 0.4843(2) 0.85899(18)
H9 H 0.6171 0.5331 0.8821
H10 H 0.5657 0.4131 0.8542
H11 H 0.4573 0.4844 0.9063
C7 C 0.4201(3) 0.37296(18) 0.46873(17)
H12 H 0.5394 0.3705 0.4722
H13 H 0.3744 0.4401 0.4364
C8 C 0.3311(3) 0.2818(2) 0.40465(19)
H14 H 0.3536 0.2839 0.3397
H15 H 0.2113 0.2879 0.3950
H16 H 0.3713 0.2150 0.4379
C9 C 0.5147(3) 0.29676(18) 0.64039(17)
H17 H 0.5130 0.2283 0.6063
H18 H 0.4726 0.2850 0.6987
C10 C 0.6933(3) 0.3368(2) 0.67623(19)
H19 H 0.7644 0.2822 0.7162
H20 H 0.6976 0.4002 0.7169
H21 H 0.7325 0.3538 0.6185
F4? F -0.1829(6) 0.2462(4) 0.4322(4)
F5? F -0.0378(5) 0.1039(4) 0.4564(4)
F6? F -0.1744(6) 0.1480(4) 0.5588(3)
loop_
_geom_bond_atom_site_label_1
_geom_bond_atom_site_label_2
_geom_bond_site_symmetry_1
_geom_bond_site_symmetry_2
P1 O2 1_555 1_555
F1 C1 1_555 1_555
F2 C1 1_555 1_555
F3 C1 1_555 1_555
O1 C2 1_555 1_555
N1 P1 1_555 1_555
H1 N1 1_555 1_555
N2 P1 1_555 1_555
N3 P1 1_555 1_555
C1 C2 1_555 1_555
C2 N1 1_555 1_555
C3 N2 1_555 1_555
H2 C3 1_555 1_555
H3 C3 1_555 1_555
C4 C3 1_555 1_555
H4 C4 1_555 1_555
H5 C4 1_555 1_555
H6 C4 1_555 1_555
C5 N2 1_555 1_555
H7 C5 1_555 1_555
H8 C5 1_555 1_555
C6 C5 1_555 1_555
H9 C6 1_555 1_555
H10 C6 1_555 1_555
H11 C6 1_555 1_555
C7 N3 1_555 1_555
H12 C7 1_555 1_555
H13 C7 1_555 1_555
C8 C7 1_555 1_555
H14 C8 1_555 1_555
H15 C8 1_555 1_555
H16 C8 1_555 1_555
C9 N3 1_555 1_555
H17 C9 1_555 1_555
H18 C9 1_555 1_555
C10 C9 1_555 1_555
H19 C10 1_555 1_555
H20 C10 1_555 1_555
H21 C10 1_555 1_555

#END
