
#######################################################################
#
#                 Cambridge Crystallographic Data Centre
#                                CCDC 
#
#######################################################################
#
# If this CIF has been generated from an entry in the Cambridge 
# Structural Database, then it will include bibliographic, chemical, 
# crystal, experimental, refinement or atomic coordinate data resulting 
# from the CCDC's data processing and validation procedures.
#
#######################################################################

data_IZOWIF
_chemical_formula_moiety         'C14 H25 Cl3 N3 O2 P1'
_chemical_name_systematic        
N-(bis(4-methylpiperidin-1-yl)phosphoryl)-2,2,2-trichloroacetamide
_symmetry_cell_setting           triclinic
_symmetry_space_group_name_H-M   'P -1'
_symmetry_Int_Tables_number      2
_space_group_name_Hall           '-P 1'
loop_
_symmetry_equiv_pos_site_id
_symmetry_equiv_pos_as_xyz
1 x,y,z
2 -x,-y,-z
_cell_length_a                   10.2050(4)
_cell_length_b                   10.7805(4)
_cell_length_c                   18.0794(7)
_cell_angle_alpha                88.6000(10)
_cell_angle_beta                 78.5840(10)
_cell_angle_gamma                86.6580(10)
_cell_volume                     1946.17
_exptl_crystal_colour            colorless
_exptl_crystal_description       BLOCK
_cell_formula_units_Z            4
loop_
_atom_site_label
_atom_site_type_symbol
_atom_site_fract_x
_atom_site_fract_y
_atom_site_fract_z
P1 P 0.47097(4) 0.20667(4) 0.18932(2)
Cl1 Cl 0.26532(4) 0.19976(4) 0.44890(2)
Cl2 Cl 0.54585(4) 0.11648(4) 0.42742(2)
Cl3 Cl 0.46153(5) 0.36643(4) 0.47394(2)
O1 O 0.48684(12) 0.39187(10) 0.31703(6)
O2 O 0.41661(11) 0.09565(10) 0.16245(6)
N1 N 0.43231(14) 0.19986(12) 0.28536(7)
H1 H 0.4099(18) 0.1309(14) 0.3016(10)
N2 N 0.41224(13) 0.34496(12) 0.16869(7)
N3 N 0.63249(13) 0.20667(12) 0.15871(7)
C1 C 0.43231(17) 0.24369(14) 0.41783(9)
C2 C 0.45371(15) 0.28720(14) 0.33330(8)
C3 C 0.27592(16) 0.38948(15) 0.20592(9)
H2 H 0.2724 0.4811 0.2100
H3 H 0.2550 0.3537 0.2576
C4 C 0.17138(16) 0.35294(15) 0.16193(9)
H4 H 0.0820 0.3873 0.1870
H5 H 0.1688 0.2613 0.1620
C5 C 0.20298(17) 0.40133(15) 0.08046(9)
H6 H 0.1984 0.4942 0.0815
C6 C 0.34514(16) 0.35728(15) 0.04359(9)
H7 H 0.3683 0.3950 -0.0075
H8 H 0.3498 0.2659 0.0381
C7 C 0.44652(17) 0.39250(15) 0.09033(9)
H9 H 0.5367 0.3582 0.0665
H10 H 0.4493 0.4841 0.0908
C8 C 0.10094(18) 0.36121(18) 0.03543(10)
H11 H 0.1216 0.3966 -0.0157
H12 H 0.0108 0.3910 0.0603
H13 H 0.1051 0.2703 0.0328
C9 C 0.71485(16) 0.30600(14) 0.17583(9)
H14 H 0.6563 0.3808 0.1921
H15 H 0.7792 0.3281 0.1295
C10 C 0.79180(16) 0.26677(15) 0.23777(9)
H16 H 0.8522 0.3327 0.2440
H17 H 0.7277 0.2573 0.2861
C11 C 0.87412(17) 0.14466(16) 0.21945(9)
H18 H 0.9426 0.1586 0.1726
C12 C 0.78379(17) 0.04526(15) 0.20243(9)
H19 H 0.8387 -0.0320 0.1871
H20 H 0.7176 0.0266 0.2487
C13 C 0.71051(17) 0.08796(15) 0.13980(9)
H21 H 0.7764 0.0984 0.0922
H22 H 0.6495 0.0236 0.1319
C14 C 0.9484(2) 0.10261(19) 0.28191(11)
H23 H 1.0102 0.1657 0.2887
H24 H 0.9990 0.0238 0.2680
H25 H 0.8837 0.0913 0.3291
P2 P 0.34036(4) 0.84706(4) 0.29672(2)
Cl4 Cl 0.14155(5) 0.75259(4) 0.04683(2)
Cl5 Cl 0.39520(4) 0.86369(5) 0.03523(2)
Cl6 Cl 0.14863(5) 1.00228(4) 0.09585(2)
O3 O 0.20908(12) 0.69943(10) 0.18960(6)
O4 O 0.35985(12) 0.96755(10) 0.32922(6)
N4 N 0.30256(14) 0.87937(12) 0.21065(7)
H26 H 0.3267(18) 0.9485(14) 0.1912(10)
N5 N 0.22103(13) 0.77687(12) 0.35238(7)
N6 N 0.47220(13) 0.75170(12) 0.27951(7)
C15 C 0.23220(16) 0.85350(14) 0.09023(9)
C16 C 0.24495(15) 0.80220(14) 0.17026(8)
C17 C 0.10938(17) 0.84785(15) 0.40011(9)
H27 H 0.0245 0.8326 0.3840
H28 H 0.1241 0.9378 0.3943
C18 C 0.09959(18) 0.80857(16) 0.48256(9)
H29 H 0.0216 0.8537 0.5139
H30 H 0.1811 0.8315 0.4998
C19 C 0.08452(18) 0.66861(16) 0.49351(9)
H31 H -0.0022 0.6486 0.4800
C20 C 0.19760(17) 0.59850(15) 0.43991(9)
H32 H 0.2834 0.6103 0.4559
H33 H 0.1819 0.5086 0.4435
C21 C 0.20884(16) 0.64183(14) 0.35799(9)
H34 H 0.2883 0.5995 0.3262
H35 H 0.1285 0.6197 0.3393
C22 C 0.0811(2) 0.62772(18) 0.57534(10)
H36 H 0.0730 0.5376 0.5800
H37 H 0.0041 0.6698 0.6081
H38 H 0.1638 0.6495 0.5904
C23 C 0.52159(16) 0.67528(15) 0.21227(9)
H39 H 0.4805 0.7078 0.1700
H40 H 0.4954 0.5887 0.2231
C24 C 0.67254(17) 0.67714(16) 0.18992(9)
H41 H 0.6974 0.7622 0.1733
H42 H 0.7044 0.6210 0.1468
C25 C 0.74199(17) 0.63654(16) 0.25503(10)
H43 H 0.7201 0.5488 0.2691
C26 C 0.68537(17) 0.71802(16) 0.32333(9)
H44 H 0.7254 0.6887 0.3667
H45 H 0.7099 0.8048 0.3115
C27 C 0.53414(16) 0.71418(15) 0.34469(9)
H46 H 0.5097 0.6290 0.3614
H47 H 0.4997 0.7710 0.3872
C28 C 0.89305(18) 0.6406(2) 0.23205(12)
H48 H 0.9345 0.6111 0.2742
H49 H 0.9169 0.7262 0.2187
H50 H 0.9253 0.5872 0.1884
loop_
_geom_bond_atom_site_label_1
_geom_bond_atom_site_label_2
_geom_bond_site_symmetry_1
_geom_bond_site_symmetry_2
P1 O2 1_555 1_555
Cl1 C1 1_555 1_555
Cl2 C1 1_555 1_555
Cl3 C1 1_555 1_555
O1 C2 1_555 1_555
N1 P1 1_555 1_555
H1 N1 1_555 1_555
N2 P1 1_555 1_555
N3 P1 1_555 1_555
C1 C2 1_555 1_555
C2 N1 1_555 1_555
C3 N2 1_555 1_555
H2 C3 1_555 1_555
H3 C3 1_555 1_555
C4 C3 1_555 1_555
H4 C4 1_555 1_555
H5 C4 1_555 1_555
C5 C4 1_555 1_555
H6 C5 1_555 1_555
C6 C5 1_555 1_555
H7 C6 1_555 1_555
H8 C6 1_555 1_555
C7 N2 1_555 1_555
H9 C7 1_555 1_555
H10 C7 1_555 1_555
C8 C5 1_555 1_555
H11 C8 1_555 1_555
H12 C8 1_555 1_555
H13 C8 1_555 1_555
C9 N3 1_555 1_555
H14 C9 1_555 1_555
H15 C9 1_555 1_555
C10 C9 1_555 1_555
H16 C10 1_555 1_555
H17 C10 1_555 1_555
C11 C10 1_555 1_555
H18 C11 1_555 1_555
C12 C11 1_555 1_555
H19 C12 1_555 1_555
H20 C12 1_555 1_555
C13 N3 1_555 1_555
H21 C13 1_555 1_555
H22 C13 1_555 1_555
C14 C11 1_555 1_555
H23 C14 1_555 1_555
H24 C14 1_555 1_555
H25 C14 1_555 1_555
P2 O4 1_555 1_555
Cl4 C15 1_555 1_555
Cl5 C15 1_555 1_555
Cl6 C15 1_555 1_555
O3 C16 1_555 1_555
N4 P2 1_555 1_555
H26 N4 1_555 1_555
N5 P2 1_555 1_555
N6 P2 1_555 1_555
C15 C16 1_555 1_555
C16 N4 1_555 1_555
C17 N5 1_555 1_555
H27 C17 1_555 1_555
H28 C17 1_555 1_555
C18 C17 1_555 1_555
H29 C18 1_555 1_555
H30 C18 1_555 1_555
C19 C18 1_555 1_555
H31 C19 1_555 1_555
C20 C19 1_555 1_555
H32 C20 1_555 1_555
H33 C20 1_555 1_555
C21 N5 1_555 1_555
H34 C21 1_555 1_555
H35 C21 1_555 1_555
C22 C19 1_555 1_555
H36 C22 1_555 1_555
H37 C22 1_555 1_555
H38 C22 1_555 1_555
C23 N6 1_555 1_555
H39 C23 1_555 1_555
H40 C23 1_555 1_555
C24 C23 1_555 1_555
H41 C24 1_555 1_555
H42 C24 1_555 1_555
C25 C24 1_555 1_555
H43 C25 1_555 1_555
C26 C25 1_555 1_555
H44 C26 1_555 1_555
H45 C26 1_555 1_555
C27 N6 1_555 1_555
H46 C27 1_555 1_555
H47 C27 1_555 1_555
C28 C25 1_555 1_555
H48 C28 1_555 1_555
H49 C28 1_555 1_555
H50 C28 1_555 1_555
C6 C7 1_555 1_555
C12 C13 1_555 1_555
C20 C21 1_555 1_555
C26 C27 1_555 1_555

#END
