
#######################################################################
#
#                 Cambridge Crystallographic Data Centre
#                                CCDC 
#
#######################################################################
#
# If this CIF has been generated from an entry in the Cambridge 
# Structural Database, then it will include bibliographic, chemical, 
# crystal, experimental, refinement or atomic coordinate data resulting 
# from the CCDC's data processing and validation procedures.
#
#######################################################################

data_IZOWOK
_chemical_formula_moiety         'C12 H12 O5'
_chemical_name_systematic        
4,7,8-Trihydroxy-3,6,7,8-tetrahydronaphtho[2,3-c]furan-5(1H)-one
_symmetry_cell_setting           orthorhombic
_symmetry_space_group_name_H-M   'P 21 21 21'
_symmetry_Int_Tables_number      19
_space_group_name_Hall           'P 2ac 2ab'
loop_
_symmetry_equiv_pos_site_id
_symmetry_equiv_pos_as_xyz
1 x,y,z
2 1/2-x,-y,1/2+z
3 -x,1/2+y,1/2-z
4 1/2+x,1/2-y,-z
_cell_length_a                   4.9131(11)
_cell_length_b                   8.5738(19)
_cell_length_c                   24.007(5)
_cell_angle_alpha                90
_cell_angle_beta                 90
_cell_angle_gamma                90
_cell_volume                     1011.27
_cell_formula_units_Z            4
loop_
_atom_site_label
_atom_site_type_symbol
_atom_site_fract_x
_atom_site_fract_y
_atom_site_fract_z
C1 C 0.8007(4) 0.7865(2) 0.10853(7)
O1 O 0.7904(3) 0.50410(15) 0.10817(6)
H1 H 0.6739 0.5225 0.0846
O2 O 0.4844(3) 0.67442(17) 0.04666(7)
C2 C 0.9120(4) 0.9245(2) 0.13113(7)
C3 C 1.1078(4) 0.9167(2) 0.17249(8)
H2 H 1.1811 1.0072 0.1877
C4 C 1.1929(4) 0.7707(2) 0.19083(7)
C5 C 0.8910(4) 0.6402(2) 0.12815(8)
O3 O 0.6654(3) 1.21423(17) 0.02567(6)
H3 H 0.7924 1.2555 0.0091
C6 C 1.0888(4) 0.6350(2) 0.16878(8)
C7 C 0.5274(4) 0.9486(2) 0.03946(8)
H4 H 0.3618 0.9872 0.0566
H5 H 0.4928 0.9362 -0.0001
C8 C 0.8158(4) 1.0809(2) 0.10956(8)
H6 H 0.6501 1.1112 0.1296
C9 C 1.2195(5) 0.4969(2) 0.19560(9)
H7 H 1.0854 0.4339 0.2149
H8 H 1.3109 0.4327 0.1681
C10 C 0.5966(4) 0.7918(2) 0.06418(7)
O4 O 1.0204(4) 1.19355(16) 0.11958(7)
H9 H 0.9681 1.2791 0.1087
C11 C 0.7514(4) 1.0674(2) 0.04750(7)
H10 H 0.9147 1.0328 0.0276
O5 O 1.4107(4) 0.56182(19) 0.23397(9)
C12 C 1.3982(5) 0.7283(3) 0.23426(8)
H11 H 1.5744 0.7727 0.2253
H12 H 1.3419 0.7663 0.2705
loop_
_geom_bond_atom_site_label_1
_geom_bond_atom_site_label_2
_geom_bond_site_symmetry_1
_geom_bond_site_symmetry_2
C1 C2 1_555 1_555
O1 H1 1_555 1_555
O2 C10 1_555 1_555
C2 C3 1_555 1_555
C3 H2 1_555 1_555
C4 C3 1_555 1_555
C5 C1 1_555 1_555
O3 H3 1_555 1_555
C6 C4 1_555 1_555
C7 H4 1_555 1_555
H5 C7 1_555 1_555
C8 C2 1_555 1_555
H6 C8 1_555 1_555
C9 C6 1_555 1_555
H7 C9 1_555 1_555
H8 C9 1_555 1_555
C10 C1 1_555 1_555
O4 C8 1_555 1_555
H9 O4 1_555 1_555
C11 O3 1_555 1_555
H10 C11 1_555 1_555
O5 C9 1_555 1_555
C12 C4 1_555 1_555
H11 C12 1_555 1_555
H12 C12 1_555 1_555
O1 C5 1_555 1_555
C5 C6 1_555 1_555
C7 C10 1_555 1_555
C7 C11 1_555 1_555
C8 C11 1_555 1_555
O5 C12 1_555 1_555

#END
