
#######################################################################
#
#                 Cambridge Crystallographic Data Centre
#                                CCDC 
#
#######################################################################
#
# If this CIF has been generated from an entry in the Cambridge 
# Structural Database, then it will include bibliographic, chemical, 
# crystal, experimental, refinement or atomic coordinate data resulting 
# from the CCDC's data processing and validation procedures.
#
#######################################################################

data_IZUBUC
_chemical_formula_moiety         'C16 H12 N6 O2'
_chemical_name_systematic        
1,1'-dioxo-2,2'-diphenyl-2H,2'H-5,5'-bi-1\l^5^,2,3-triazole
_symmetry_cell_setting           monoclinic
_symmetry_space_group_name_H-M   'P 21/c'
_symmetry_Int_Tables_number      14
_space_group_name_Hall           '-P 2ybc'
loop_
_symmetry_equiv_pos_site_id
_symmetry_equiv_pos_as_xyz
1 x,y,z
2 -x,1/2+y,1/2-z
3 -x,-y,-z
4 x,1/2-y,1/2+z
_cell_length_a                   6.293(3)
_cell_length_b                   3.8428(18)
_cell_length_c                   30.472(14)
_cell_angle_alpha                90
_cell_angle_beta                 94.720(6)
_cell_angle_gamma                90
_cell_volume                     734.397
_exptl_crystal_colour            colorless
_exptl_crystal_description       needle
_cell_formula_units_Z            2
loop_
_atom_site_label
_atom_site_type_symbol
_atom_site_fract_x
_atom_site_fract_y
_atom_site_fract_z
N1 N -0.2219(2) 0.1214(4) 0.07657(5)
N2 N -0.0530(2) -0.0246(4) 0.05778(5)
N3 N -0.3519(2) 0.2917(5) 0.04673(5)
C1 C -0.2540(3) 0.0900(5) 0.12222(6)
C2 C -0.2638(3) 0.2531(5) 0.00899(6)
H1 H -0.3199 0.3437 -0.0178
C3 C -0.0758(3) 0.0589(5) 0.01458(6)
C4 C -0.4507(3) -0.0211(6) 0.13341(7)
H2 H -0.5587 -0.0756 0.1118
C5 C -0.0919(3) 0.1743(6) 0.15330(6)
H3 H 0.0389 0.2521 0.1450
C6 C -0.1284(4) 0.1405(6) 0.19727(7)
H4 H -0.0201 0.1931 0.2189
C7 C -0.4830(4) -0.0494(7) 0.17766(7)
H5 H -0.6147 -0.1229 0.1860
C8 C -0.3229(4) 0.0299(7) 0.20933(7)
H6 H -0.3460 0.0088 0.2390
O1 O 0.0874(2) -0.2119(4) 0.07920(4)
N1B N 0.2219(2) -0.1214(4) -0.07657(5)
N2B N 0.0530(2) 0.0246(4) -0.05778(5)
N3B N 0.3519(2) -0.2917(5) -0.04673(5)
C1B C 0.2540(3) -0.0900(5) -0.12222(6)
C2B C 0.2638(3) -0.2531(5) -0.00899(6)
H1B H 0.3199 -0.3437 0.0178
C3B C 0.0758(3) -0.0589(5) -0.01458(6)
C4B C 0.4507(3) 0.0211(6) -0.13341(7)
H2B H 0.5587 0.0756 -0.1118
C5B C 0.0919(3) -0.1743(6) -0.15330(6)
H3B H -0.0389 -0.2521 -0.1450
C6B C 0.1284(4) -0.1405(6) -0.19727(7)
H4B H 0.0201 -0.1931 -0.2189
C7B C 0.4830(4) 0.0494(7) -0.17766(7)
H5B H 0.6147 0.1229 -0.1860
C8B C 0.3229(4) -0.0299(7) -0.20933(7)
H6B H 0.3460 -0.0088 -0.2390
O1B O -0.0874(2) 0.2119(4) -0.07920(4)
loop_
_geom_bond_atom_site_label_1
_geom_bond_atom_site_label_2
_geom_bond_site_symmetry_1
_geom_bond_site_symmetry_2
N1 N2 1_555 1_555
N2 C3 1_555 1_555
N3 N1 1_555 1_555
C1 N1 1_555 1_555
C2 N3 1_555 1_555
H1 C2 1_555 1_555
C3 C2 1_555 1_555
C4 C1 1_555 1_555
H2 C4 1_555 1_555
C5 C1 1_555 1_555
H3 C5 1_555 1_555
C6 C5 1_555 1_555
H4 C6 1_555 1_555
C7 C4 1_555 1_555
H5 C7 1_555 1_555
C8 C6 1_555 1_555
H6 C8 1_555 1_555
O1 N2 1_555 1_555
N1B N2B 1_555 1_555
N2B C3B 1_555 1_555
N3B N1B 1_555 1_555
C1B N1B 1_555 1_555
C2B N3B 1_555 1_555
H1B C2B 1_555 1_555
C3B C3 1_555 1_555
C4B C1B 1_555 1_555
H2B C4B 1_555 1_555
C5B C1B 1_555 1_555
H3B C5B 1_555 1_555
C6B C5B 1_555 1_555
H4B C6B 1_555 1_555
C7B C4B 1_555 1_555
H5B C7B 1_555 1_555
C8B C6B 1_555 1_555
H6B C8B 1_555 1_555
O1B N2B 1_555 1_555
C7 C8 1_555 1_555
C2B C3B 1_555 1_555
C7B C8B 1_555 1_555

#END
