
#######################################################################
#
#                 Cambridge Crystallographic Data Centre
#                                CCDC 
#
#######################################################################
#
# If this CIF has been generated from an entry in the Cambridge 
# Structural Database, then it will include bibliographic, chemical, 
# crystal, experimental, refinement or atomic coordinate data resulting 
# from the CCDC's data processing and validation procedures.
#
#######################################################################

data_IZUBEK
_chemical_formula_moiety         'C40 H32 N2'
_chemical_name_systematic        
3,7-Diphenyl-2,4,6-tris(p-tolyl)-1H-pyrrolo(3,2-c)pyridine
_symmetry_cell_setting           orthorhombic
_symmetry_space_group_name_H-M   'F d d 2'
_symmetry_Int_Tables_number      43
_space_group_name_Hall           'F 2 -2d'
loop_
_symmetry_equiv_pos_site_id
_symmetry_equiv_pos_as_xyz
1 x,y,z
2 -x,-y,z
3 1/4+x,1/4-y,1/4+z
4 1/4-x,1/4+y,1/4+z
5 x,1/2+y,1/2+z
6 -x,1/2-y,1/2+z
7 1/4+x,3/4-y,3/4+z
8 1/4-x,3/4+y,3/4+z
9 1/2+x,y,1/2+z
10 1/2-x,-y,1/2+z
11 3/4+x,1/4-y,3/4+z
12 3/4-x,1/4+y,3/4+z
13 1/2+x,1/2+y,z
14 1/2-x,1/2-y,z
15 3/4+x,3/4-y,1/4+z
16 3/4-x,3/4+y,1/4+z
_cell_length_a                   24.991(5)
_cell_length_b                   51.872(10)
_cell_length_c                   9.933(2)
_cell_angle_alpha                90
_cell_angle_beta                 90
_cell_angle_gamma                90
_cell_volume                     12876.5
_exptl_crystal_colour            colorless
_exptl_crystal_description       block
_chemical_melting_point          '264-265 deg.C'
_cell_formula_units_Z            16
loop_
_atom_site_label
_atom_site_type_symbol
_atom_site_fract_x
_atom_site_fract_y
_atom_site_fract_z
N1 N 0.28214(13) 0.12114(6) 0.9366(4)
H1 H 0.2986 0.1345 0.9672
N2 N 0.12326(13) 0.10135(6) 0.9009(4)
C1 C 0.30638(16) 0.09936(7) 0.8798(5)
C2 C 0.26807(16) 0.08248(7) 0.8396(4)
C3 C 0.21676(15) 0.09367(6) 0.8741(5)
C4 C 0.22708(16) 0.11769(7) 0.9351(4)
C5 C 0.18681(15) 0.13348(7) 0.9815(4)
C6 C 0.13432(16) 0.12463(7) 0.9585(4)
C7 C 0.16356(16) 0.08607(7) 0.8610(5)
C8 C 0.14776(16) 0.06088(7) 0.8010(5)
C9 C 0.12831(17) 0.04110(8) 0.8830(6)
H2 H 0.1226 0.0442 0.9741
C10 C 0.11745(19) 0.01707(8) 0.8303(6)
H3 H 0.1041 0.0042 0.8863
C11 C 0.12611(19) 0.01167(8) 0.6948(6)
C12 C 0.1447(2) 0.03061(8) 0.6163(7)
H4 H 0.1511 0.0272 0.5258
C13 C 0.15486(19) 0.05568(8) 0.6666(5)
H5 H 0.1664 0.0686 0.6086
C14 C 0.1147(2) -0.01472(9) 0.6405(8)
H6 H 0.1226 -0.0151 0.5459
H7 H 0.0776 -0.0188 0.6543
H8 H 0.1365 -0.0271 0.6864
C15 C 0.08542(16) 0.14052(8) 0.9867(5)
C16 C 0.03882(17) 0.12800(8) 1.0283(5)
H9 H 0.0390 0.1104 1.0473
C17 C -0.00871(17) 0.14261(9) 1.0411(5)
H10 H -0.0394 0.1344 1.0722
C18 C -0.01161(18) 0.16746(9) 1.0109(5)
C19 C 0.03492(18) 0.17994(8) 0.9677(6)
H11 H 0.0337 0.1974 0.9462
C20 C 0.08336(17) 0.16656(8) 0.9565(5)
H12 H 0.1141 0.1751 0.9287
C21 C -0.06505(19) 0.18167(11) 1.0141(7)
H13 H -0.0596 0.1994 0.9893
H14 H -0.0798 0.1809 1.1033
H15 H -0.0894 0.1737 0.9518
C22 C 0.19956(17) 0.15864(8) 1.0515(5)
C23 C 0.23382(16) 0.17638(8) 0.9924(6)
H16 H 0.2482 0.1729 0.9080
C24 C 0.2465(2) 0.19827(10) 1.0539(8)
H17 H 0.2697 0.2098 1.0125
C25 C 0.2258(3) 0.20392(12) 1.1766(11)
H18 H 0.2343 0.2195 1.2175
C26 C 0.1929(3) 0.18707(12) 1.2404(7)
H19 H 0.1800 0.1909 1.3258
C27 C 0.17868(19) 0.16439(9) 1.1794(5)
H20 H 0.1555 0.1530 1.2221
C28 C 0.36546(16) 0.09809(7) 0.8710(5)
C29 C 0.39654(19) 0.11977(8) 0.8563(5)
H21 H 0.3802 0.1358 0.8491
C30 C 0.45160(19) 0.11803(10) 0.8522(5)
H22 H 0.4714 0.1331 0.8421
C31 C 0.47778(18) 0.09544(11) 0.8621(6)
C32 C 0.44615(19) 0.07311(9) 0.8817(6)
H23 H 0.4629 0.0572 0.8929
C33 C 0.39158(18) 0.07441(8) 0.8847(5)
H24 H 0.3716 0.0594 0.8959
C34 C 0.53864(18) 0.09426(12) 0.8629(8)
H25 H 0.5500 0.0767 0.8716
H26 H 0.5521 0.1041 0.9374
H27 H 0.5522 0.1013 0.7802
C35 C 0.27779(16) 0.05755(7) 0.7662(5)
C36 C 0.26689(17) 0.03456(7) 0.8284(5)
H28 H 0.2542 0.0345 0.9164
C37 C 0.2746(2) 0.01120(10) 0.7613(8)
H29 H 0.2667 -0.0043 0.8040
C38 C 0.2942(3) 0.01132(11) 0.6283(8)
H30 H 0.3003 -0.0041 0.5826
C39 C 0.3044(2) 0.03484(11) 0.5671(7)
H31 H 0.3172 0.0354 0.4792
C40 C 0.29549(19) 0.05721(9) 0.6370(6)
H32 H 0.3019 0.0728 0.5940
loop_
_geom_bond_atom_site_label_1
_geom_bond_atom_site_label_2
_geom_bond_site_symmetry_1
_geom_bond_site_symmetry_2
N1 H1 1_555 1_555
N2 C6 1_555 1_555
C1 N1 1_555 1_555
C2 C1 1_555 1_555
C3 C2 1_555 1_555
C4 N1 1_555 1_555
C5 C4 1_555 1_555
C6 C5 1_555 1_555
C7 N2 1_555 1_555
C8 C7 1_555 1_555
C9 C8 1_555 1_555
H2 C9 1_555 1_555
C10 C9 1_555 1_555
H3 C10 1_555 1_555
C11 C10 1_555 1_555
C12 C11 1_555 1_555
H4 C12 1_555 1_555
C13 C8 1_555 1_555
H5 C13 1_555 1_555
C14 C11 1_555 1_555
H6 C14 1_555 1_555
H7 C14 1_555 1_555
H8 C14 1_555 1_555
C15 C6 1_555 1_555
C16 C15 1_555 1_555
H9 C16 1_555 1_555
C17 C16 1_555 1_555
H10 C17 1_555 1_555
C18 C17 1_555 1_555
C19 C18 1_555 1_555
H11 C19 1_555 1_555
C20 C15 1_555 1_555
H12 C20 1_555 1_555
C21 C18 1_555 1_555
H13 C21 1_555 1_555
H14 C21 1_555 1_555
H15 C21 1_555 1_555
C22 C5 1_555 1_555
C23 C22 1_555 1_555
H16 C23 1_555 1_555
C24 C23 1_555 1_555
H17 C24 1_555 1_555
C25 C24 1_555 1_555
H18 C25 1_555 1_555
C26 C25 1_555 1_555
H19 C26 1_555 1_555
C27 C22 1_555 1_555
H20 C27 1_555 1_555
C28 C1 1_555 1_555
C29 C28 1_555 1_555
H21 C29 1_555 1_555
C30 C29 1_555 1_555
H22 C30 1_555 1_555
C31 C30 1_555 1_555
C32 C31 1_555 1_555
H23 C32 1_555 1_555
C33 C28 1_555 1_555
H24 C33 1_555 1_555
C34 C31 1_555 1_555
H25 C34 1_555 1_555
H26 C34 1_555 1_555
H27 C34 1_555 1_555
C35 C2 1_555 1_555
C36 C35 1_555 1_555
H28 C36 1_555 1_555
C37 C36 1_555 1_555
H29 C37 1_555 1_555
C38 C37 1_555 1_555
H30 C38 1_555 1_555
C39 C38 1_555 1_555
H31 C39 1_555 1_555
C40 C35 1_555 1_555
H32 C40 1_555 1_555
C3 C4 1_555 1_555
C3 C7 1_555 1_555
C12 C13 1_555 1_555
C19 C20 1_555 1_555
C26 C27 1_555 1_555
C32 C33 1_555 1_555
C39 C40 1_555 1_555

#END
