
#######################################################################
#
#                 Cambridge Crystallographic Data Centre
#                                CCDC 
#
#######################################################################
#
# If this CIF has been generated from an entry in the Cambridge 
# Structural Database, then it will include bibliographic, chemical, 
# crystal, experimental, refinement or atomic coordinate data resulting 
# from the CCDC's data processing and validation procedures.
#
#######################################################################

data_IZUGAN
_chemical_formula_moiety         'C48 H40 N4 O1 Si1'
_chemical_name_systematic        
3-((4-Methoxyphenyl)ethynyl)-14-((tri-isopropylsilyl)ethynyl)hexacyclo[14.6.2.0^2,15^.0^4,13^.0^6,11^.0^17,22^]tetracosa-2,4,6,8,10,12,14,17,19,21-decaene-23,23,24,24-tetracarbonitrile
_symmetry_cell_setting           monoclinic
_symmetry_space_group_name_H-M   'P 21/c'
_symmetry_Int_Tables_number      14
_space_group_name_Hall           '-P 2ybc'
loop_
_symmetry_equiv_pos_site_id
_symmetry_equiv_pos_as_xyz
1 x,y,z
2 -x,1/2+y,1/2-z
3 -x,-y,-z
4 x,1/2-y,1/2+z
_cell_length_a                   15.9034(13)
_cell_length_b                   12.3331(10)
_cell_length_c                   20.8200(18)
_cell_angle_alpha                90
_cell_angle_beta                 103.3580(13)
_cell_angle_gamma                90
_cell_volume                     3973.12
_exptl_crystal_colour            yellow
_exptl_crystal_description       rod
_cell_formula_units_Z            4
loop_
_atom_site_label
_atom_site_type_symbol
_atom_site_fract_x
_atom_site_fract_y
_atom_site_fract_z
Si1 Si 0.31566(4) -0.18145(5) 0.19035(3)
O1 O -0.12873(11) 0.79205(13) -0.22552(8)
N1 N 0.35057(14) 0.2818(2) 0.17461(10)
N2 N 0.54349(13) 0.22518(17) 0.07032(10)
N3 N 0.26752(15) 0.50011(18) 0.06161(12)
N4 N 0.44830(13) 0.42735(17) -0.05427(10)
C1 C 0.19008(13) 0.09162(16) 0.06172(10)
C2 C 0.23664(13) 0.15215(16) 0.02690(10)
C3 C 0.33182(13) 0.13857(17) 0.02953(10)
H1 H 0.3570 0.0762 0.0583
C4 C 0.34434(13) 0.12517(16) -0.03972(10)
C5 C 0.38896(13) 0.04168(17) -0.06146(10)
H2 H 0.4158 -0.0135 -0.0319
C6 C 0.39369(14) 0.04016(18) -0.12719(11)
H3 H 0.4242 -0.0163 -0.1430
C7 C 0.35387(14) 0.12115(18) -0.16999(11)
H4 H 0.3570 0.1189 -0.2150
C8 C 0.30972(14) 0.20516(17) -0.14814(10)
H5 H 0.2836 0.2609 -0.1775
C9 C 0.30454(13) 0.20615(16) -0.08271(10)
C10 C 0.26119(13) 0.29238(17) -0.04977(10)
H6 H 0.2318 0.3481 -0.0822
C11 C 0.19854(13) 0.23876(16) -0.01475(10)
C12 C 0.11395(13) 0.26835(17) -0.02000(10)
C13 C 0.06108(13) 0.20468(17) 0.01378(10)
C14 C -0.02548(13) 0.22857(18) 0.00931(10)
H7 H -0.0510 0.2880 -0.0171
C15 C -0.07595(14) 0.16778(18) 0.04254(10)
C16 C -0.16397(14) 0.19428(19) 0.04039(11)
H8 H -0.1903 0.2534 0.0141
C17 C -0.21045(15) 0.1363(2) 0.07535(12)
H9 H -0.2685 0.1564 0.0741
C18 C -0.17346(15) 0.0461(2) 0.11377(12)
H10 H -0.2069 0.0059 0.1378
C19 C -0.09034(15) 0.01653(19) 0.11642(11)
H11 H -0.0665 -0.0449 0.1418
C20 C -0.03855(14) 0.07679(17) 0.08157(10)
C21 C 0.04828(14) 0.05293(17) 0.08615(10)
H12 H 0.0734 -0.0072 0.1121
C22 C 0.09929(13) 0.11448(16) 0.05387(10)
C23 C 0.23031(14) 0.00666(17) 0.10518(10)
C24 C 0.26400(14) -0.06472(18) 0.14176(11)
C25 C 0.41086(15) -0.2152(2) 0.15513(12)
H13 H 0.4504 -0.1512 0.1644
C26 C 0.38867(18) -0.2299(2) 0.08070(13)
H14 H 0.3531 -0.1688 0.0599
H15 H 0.3565 -0.2976 0.0693
H16 H 0.4420 -0.2326 0.0648
C27 C 0.46331(18) -0.3126(2) 0.18879(14)
H17 H 0.4759 -0.3032 0.2368
H18 H 0.5176 -0.3176 0.1743
H19 H 0.4298 -0.3793 0.1767
C28 C 0.35464(15) -0.1381(2) 0.27834(11)
H20 H 0.3787 -0.2041 0.3040
C29 C 0.42806(19) -0.0561(2) 0.28679(15)
H21 H 0.4735 -0.0847 0.2667
H22 H 0.4519 -0.0431 0.3339
H23 H 0.4060 0.0121 0.2652
C30 C 0.28374(19) -0.0944(3) 0.30940(14)
H24 H 0.2364 -0.1469 0.3033
H25 H 0.2621 -0.0257 0.2882
H26 H 0.3072 -0.0823 0.3567
C31 C 0.23349(15) -0.29332(18) 0.18017(12)
H27 H 0.2330 -0.3291 0.1370
C32 C 0.14167(16) -0.2531(2) 0.17618(15)
H28 H 0.1258 -0.2000 0.1404
H29 H 0.1387 -0.2190 0.2181
H30 H 0.1015 -0.3145 0.1675
C33 C 0.2584(2) -0.3807(2) 0.23337(15)
H31 H 0.3170 -0.4065 0.2346
H32 H 0.2178 -0.4414 0.2232
H33 H 0.2565 -0.3501 0.2764
C34 C 0.07752(13) 0.36205(17) -0.05667(10)
C35 C 0.04535(14) 0.44202(18) -0.08478(11)
C36 C 0.00336(13) 0.53375(17) -0.12046(10)
C37 C 0.04679(15) 0.60399(18) -0.15357(11)
H34 H 0.1063 0.5920 -0.1517
C38 C 0.00536(15) 0.69120(18) -0.18927(11)
H35 H 0.0361 0.7384 -0.2117
C39 C -0.08127(15) 0.70882(17) -0.19185(11)
C40 C -0.12541(15) 0.64027(18) -0.15838(11)
H36 H -0.1847 0.6531 -0.1598
C41 C -0.08385(14) 0.55351(18) -0.12298(11)
H37 H -0.1146 0.5069 -0.1002
C42 C -0.08634(19) 0.8621(2) -0.26267(14)
H38 H -0.1266 0.9186 -0.2839
H39 H -0.0670 0.8200 -0.2965
H40 H -0.0363 0.8959 -0.2331
C43 C 0.37659(13) 0.24918(18) 0.05662(10)
C44 C 0.33596(14) 0.34425(17) 0.00541(10)
C45 C 0.36209(15) 0.26955(19) 0.12310(12)
C46 C 0.47123(15) 0.23912(18) 0.06372(11)
C47 C 0.29928(15) 0.43218(19) 0.03868(12)
C48 C 0.40077(15) 0.39136(18) -0.02689(11)
loop_
_geom_bond_atom_site_label_1
_geom_bond_atom_site_label_2
_geom_bond_site_symmetry_1
_geom_bond_site_symmetry_2
Si1 C24 1_555 1_555
O1 C39 1_555 1_555
N1 C45 1_555 1_555
N2 C46 1_555 1_555
N3 C47 1_555 1_555
N4 C48 1_555 1_555
C1 C2 1_555 1_555
C2 C3 1_555 1_555
C3 H1 1_555 1_555
C4 C3 1_555 1_555
C5 C4 1_555 1_555
H2 C5 1_555 1_555
C6 C5 1_555 1_555
H3 C6 1_555 1_555
C7 C6 1_555 1_555
H4 C7 1_555 1_555
C8 C7 1_555 1_555
H5 C8 1_555 1_555
C9 C4 1_555 1_555
C10 C9 1_555 1_555
H6 C10 1_555 1_555
C11 C2 1_555 1_555
C12 C11 1_555 1_555
C13 C12 1_555 1_555
C14 C13 1_555 1_555
H7 C14 1_555 1_555
C15 C14 1_555 1_555
C16 C15 1_555 1_555
H8 C16 1_555 1_555
C17 C16 1_555 1_555
H9 C17 1_555 1_555
C18 C17 1_555 1_555
H10 C18 1_555 1_555
C19 C18 1_555 1_555
H11 C19 1_555 1_555
C20 C15 1_555 1_555
C21 C20 1_555 1_555
H12 C21 1_555 1_555
C22 C1 1_555 1_555
C23 C1 1_555 1_555
C24 C23 1_555 1_555
C25 Si1 1_555 1_555
H13 C25 1_555 1_555
C26 C25 1_555 1_555
H14 C26 1_555 1_555
H15 C26 1_555 1_555
H16 C26 1_555 1_555
C27 C25 1_555 1_555
H17 C27 1_555 1_555
H18 C27 1_555 1_555
H19 C27 1_555 1_555
C28 Si1 1_555 1_555
H20 C28 1_555 1_555
C29 C28 1_555 1_555
H21 C29 1_555 1_555
H22 C29 1_555 1_555
H23 C29 1_555 1_555
C30 C28 1_555 1_555
H24 C30 1_555 1_555
H25 C30 1_555 1_555
H26 C30 1_555 1_555
C31 Si1 1_555 1_555
H27 C31 1_555 1_555
C32 C31 1_555 1_555
H28 C32 1_555 1_555
H29 C32 1_555 1_555
H30 C32 1_555 1_555
C33 C31 1_555 1_555
H31 C33 1_555 1_555
H32 C33 1_555 1_555
H33 C33 1_555 1_555
C34 C12 1_555 1_555
C35 C34 1_555 1_555
C36 C35 1_555 1_555
C37 C36 1_555 1_555
H34 C37 1_555 1_555
C38 C37 1_555 1_555
H35 C38 1_555 1_555
C39 C38 1_555 1_555
C40 C39 1_555 1_555
H36 C40 1_555 1_555
C41 C36 1_555 1_555
H37 C41 1_555 1_555
C42 O1 1_555 1_555
H38 C42 1_555 1_555
H39 C42 1_555 1_555
H40 C42 1_555 1_555
C43 C3 1_555 1_555
C44 C10 1_555 1_555
C45 C43 1_555 1_555
C46 C43 1_555 1_555
C47 C44 1_555 1_555
C48 C44 1_555 1_555
C8 C9 1_555 1_555
C10 C11 1_555 1_555
C13 C22 1_555 1_555
C19 C20 1_555 1_555
C21 C22 1_555 1_555
C40 C41 1_555 1_555
C43 C44 1_555 1_555

#END
