
#######################################################################
#
#                 Cambridge Crystallographic Data Centre
#                                CCDC 
#
#######################################################################
#
# If this CIF has been generated from an entry in the Cambridge 
# Structural Database, then it will include bibliographic, chemical, 
# crystal, experimental, refinement or atomic coordinate data resulting 
# from the CCDC's data processing and validation procedures.
#
#######################################################################

data_IZUGOB
_chemical_formula_moiety         'C51 H49 N5 O2 Si1'
_chemical_name_systematic        
'2-(6,13-dimethoxy-13-((tri-isopropylsilyl)ethynyl)-6,13-dihydropentacen-6-yl)-3-(4-(dimethylamino)phenyl)buta-1,3-diene-1,1,4,4-tetracarbonitrile unknown solvate'
_symmetry_cell_setting           triclinic
_symmetry_space_group_name_H-M   'P -1'
_symmetry_Int_Tables_number      2
_space_group_name_Hall           '-P 1'
loop_
_symmetry_equiv_pos_site_id
_symmetry_equiv_pos_as_xyz
1 x,y,z
2 -x,-y,-z
_cell_length_a                   11.8561(6)
_cell_length_b                   15.0323(10)
_cell_length_c                   15.1075(10)
_cell_angle_alpha                115.327(7)
_cell_angle_beta                 91.628(5)
_cell_angle_gamma                103.478(5)
_cell_volume                     2341.42
_exptl_crystal_colour            'dark red'
_exptl_crystal_description       block
_cell_formula_units_Z            2
_exptl_crystal_recrystallization_method dichloromethane/hexane
_exptl_crystal_preparation       MA2-044
loop_
_atom_site_label
_atom_site_type_symbol
_atom_site_fract_x
_atom_site_fract_y
_atom_site_fract_z
C1 C 0.51735(18) 1.10725(16) 0.76273(16)
C2 C 0.58160(19) 1.18837(17) 0.77961(18)
C3 C 0.5619(7) 1.3969(4) 0.8271(6)
H1 H 0.5191 1.3978 0.8819
C4 C 0.6306(9) 1.5132(4) 0.8565(7)
H2 H 0.6825 1.5409 0.9175
H3 H 0.5753 1.5526 0.8644
H4 H 0.6752 1.5156 0.8051
C5 C 0.4743(5) 1.3555(5) 0.7396(8)
H5 H 0.5129 1.3516 0.6835
H6 H 0.4235 1.3993 0.7505
H7 H 0.4290 1.2883 0.7271
C6 C 0.7515(5) 1.3425(4) 0.9401(4)
H8 H 0.7877 1.2862 0.9243
C7 C 0.8521(8) 1.4423(6) 0.9889(8)
H9 H 0.9081 1.4416 0.9441
H10 H 0.8899 1.4475 1.0487
H11 H 0.8209 1.4999 1.0044
C8 C 0.6702(8) 1.3367(6) 1.0131(5)
H12 H 0.6389 1.3949 1.0364
H13 H 0.7126 1.3365 1.0680
H14 H 0.6072 1.2752 0.9816
C9 C 0.7781(5) 1.3200(4) 0.7352(5)
H15 H 0.7321 1.3060 0.6735
C10 C 0.8633(12) 1.4273(8) 0.7693(8)
H16 H 0.9076 1.4482 0.8324
H17 H 0.8194 1.4753 0.7751
H18 H 0.9158 1.4252 0.7216
C11 C 0.8440(7) 1.2382(7) 0.7057(8)
H19 H 0.9191 1.2661 0.7463
H20 H 0.8546 1.2159 0.6375
H21 H 0.7997 1.1812 0.7146
C12 C 0.3541(4) 0.9923(4) 0.5912(3)
H22 H 0.2937 1.0238 0.6195
H23 H 0.3252 0.9422 0.5239
H24 H 0.4209 1.0435 0.5926
C13 C 0.29854(17) 0.90589(14) 0.98693(13)
H25 H 0.3793 0.9400 0.9913
H26 H 0.2925 0.8710 1.0278
H27 H 0.2541 0.9553 1.0092
C14 C 0.43236(16) 1.01088(14) 0.74720(14)
C15 C 0.32869(16) 1.03493(14) 0.80179(14)
C16 C 0.29753(18) 1.12260(15) 0.82016(17)
H28 H 0.3440 1.1700 0.8028
C17 C 0.19809(18) 1.14384(15) 0.86420(17)
C18 C 0.1684(2) 1.23654(18) 0.8860(2)
H29 H 0.2144 1.2848 0.8694
C19 C 0.0726(2) 1.25499(18) 0.9311(2)
H30 H 0.0548 1.3165 0.9464
C20 C 0.00075(19) 1.18248(17) 0.95471(19)
H31 H -0.0644 1.1962 0.9853
C21 C 0.02577(17) 1.09114(15) 0.93301(16)
H32 H -0.0234 1.0429 0.9478
C22 C 0.12577(16) 1.07014(14) 0.88835(14)
C23 C 0.15893(15) 0.97976(13) 0.86913(13)
H33 H 0.1125 0.9312 0.8851
C24 C 0.25766(15) 0.96171(13) 0.82763(13)
C25 C 0.29241(14) 0.86590(12) 0.81348(12)
C26 C 0.42497(14) 0.88240(12) 0.81609(12)
C27 C 0.47917(15) 0.82847(13) 0.84841(13)
H34 H 0.4363 0.7890 0.8759
C28 C 0.59846(15) 0.83107(13) 0.84124(13)
C29 C 0.65372(17) 0.77233(15) 0.87056(15)
H35 H 0.6130 0.7346 0.9006
C30 C 0.76601(17) 0.77031(16) 0.85539(17)
H36 H 0.8013 0.7310 0.8746
C31 C 0.82854(17) 0.82763(16) 0.81067(17)
H37 H 0.9045 0.8245 0.7992
C32 C 0.77945(17) 0.88802(15) 0.78364(16)
H38 H 0.8227 0.9268 0.7556
C33 C 0.66236(15) 0.89139(13) 0.79844(13)
C34 C 0.60719(16) 0.95218(14) 0.77237(13)
H39 H 0.6504 0.9956 0.7490
C35 C 0.49143(15) 0.94884(13) 0.78056(13)
C36 C 0.23002(14) 0.77025(13) 0.71525(13)
C37 C 0.15533(15) 0.76853(14) 0.64559(14)
C38 C 0.11536(18) 0.85208(16) 0.64500(16)
C39 C 0.10252(17) 0.67401(15) 0.55719(15)
C40 C 0.25177(15) 0.66979(12) 0.69899(13)
C41 C 0.16965(16) 0.60873(13) 0.72561(14)
C42 C 0.06903(16) 0.63934(14) 0.76589(15)
C43 C 0.17127(18) 0.50986(15) 0.71498(17)
C44 C 0.35666(15) 0.64831(13) 0.65849(13)
C45 C 0.41483(16) 0.70144(15) 0.60814(14)
H40 H 0.3809 0.7459 0.5962
C46 C 0.51978(18) 0.68973(17) 0.57614(15)
H41 H 0.5540 0.7247 0.5414
C47 C 0.57729(17) 0.62563(16) 0.59486(15)
C48 C 0.51771(18) 0.57000(15) 0.64270(16)
H42 H 0.5512 0.5248 0.6537
C49 C 0.41175(17) 0.58071(14) 0.67342(16)
H43 H 0.3753 0.5427 0.7048
C50 C 0.7470(2) 0.6810(2) 0.5245(2)
H44 H 0.6974 0.6718 0.4683
H45 H 0.8165 0.6605 0.5038
H46 H 0.7683 0.7516 0.5722
C51 C 0.7448(2) 0.5564(2) 0.5936(2)
H47 H 0.7671 0.5868 0.6640
H48 H 0.8137 0.5524 0.5618
H49 H 0.6935 0.4888 0.5713
N1 N 0.05924(19) 0.60165(15) 0.48610(15)
N2 N 0.0725(2) 0.90733(17) 0.63191(17)
N3 N -0.01317(16) 0.66013(15) 0.79681(17)
N4 N 0.1699(2) 0.43124(16) 0.7103(2)
N5 N 0.68454(16) 0.61864(16) 0.56899(15)
O1 O 0.38543(14) 0.94646(11) 0.64375(11)
O2 O 0.25321(10) 0.83297(9) 0.88584(9)
Si1 Si 0.67211(7) 1.32067(5) 0.81960(5)
C52? C 0.6066(17) 1.3898(8) 0.7700(12)
H50? H 0.6441 1.3894 0.7129
H51? H 0.6048 1.5147 0.9166
H52? H 0.5878 1.5474 0.8326
H53? H 0.7128 1.5471 0.8690
H54? H 0.4513 1.2854 0.6903
H55? H 0.4520 1.3975 0.7128
H56? H 0.4361 1.3619 0.7963
C53? C 0.7087(7) 1.3919(5) 0.9597(5)
H57? H 0.7400 1.4649 0.9787
C54? C 0.8037(11) 1.3545(9) 0.9908(12)
H58? H 0.7685 1.2941 0.9980
H59? H 0.8482 1.4068 1.0528
H60? H 0.8547 1.3389 0.9413
C55? C 0.6139(11) 1.3793(9) 1.0188(7)
H61? H 0.5513 1.4033 1.0034
H62? H 0.6442 1.4182 1.0880
H63? H 0.5849 1.3083 1.0033
H64? H 0.8328 1.3881 0.7583
C56? C 0.7058(11) 1.2825(8) 0.6252(7)
H65? H 0.6331 1.3009 0.6326
H66? H 0.6902 1.2097 0.5882
H67? H 0.7520 1.3152 0.5907
C57? C 0.4570(5) 0.9348(5) 0.5727(4)
H68? H 0.5060 1.0005 0.5845
H69? H 0.4102 0.9033 0.5087
H70? H 0.5052 0.8923 0.5748
loop_
_geom_bond_atom_site_label_1
_geom_bond_atom_site_label_2
_geom_bond_site_symmetry_1
_geom_bond_site_symmetry_2
C1 C2 1_555 1_555
C2 Si1 1_555 1_555
C3 H1 1_555 1_555
C4 C3 1_555 1_555
H2 C4 1_555 1_555
H3 C4 1_555 1_555
H4 C4 1_555 1_555
C5 C3 1_555 1_555
H5 C5 1_555 1_555
H6 C5 1_555 1_555
H7 C5 1_555 1_555
C6 H8 1_555 1_555
C7 C6 1_555 1_555
H9 C7 1_555 1_555
H10 C7 1_555 1_555
H11 C7 1_555 1_555
C8 C6 1_555 1_555
H12 C8 1_555 1_555
H13 C8 1_555 1_555
H14 C8 1_555 1_555
C9 H15 1_555 1_555
C10 C9 1_555 1_555
H16 C10 1_555 1_555
H17 C10 1_555 1_555
H18 C10 1_555 1_555
C11 C9 1_555 1_555
H19 C11 1_555 1_555
H20 C11 1_555 1_555
H21 C11 1_555 1_555
C12 H22 1_555 1_555
H23 C12 1_555 1_555
H24 C12 1_555 1_555
C13 H25 1_555 1_555
H26 C13 1_555 1_555
H27 C13 1_555 1_555
C14 C1 1_555 1_555
C15 C14 1_555 1_555
C16 C15 1_555 1_555
H28 C16 1_555 1_555
C17 C16 1_555 1_555
C18 C17 1_555 1_555
H29 C18 1_555 1_555
C19 C18 1_555 1_555
H30 C19 1_555 1_555
C20 C19 1_555 1_555
H31 C20 1_555 1_555
C21 C20 1_555 1_555
H32 C21 1_555 1_555
C22 C17 1_555 1_555
C23 C22 1_555 1_555
H33 C23 1_555 1_555
C24 C15 1_555 1_555
C25 C24 1_555 1_555
C26 C25 1_555 1_555
C27 C26 1_555 1_555
H34 C27 1_555 1_555
C28 C27 1_555 1_555
C29 C28 1_555 1_555
H35 C29 1_555 1_555
C30 C29 1_555 1_555
H36 C30 1_555 1_555
C31 C30 1_555 1_555
H37 C31 1_555 1_555
C32 C31 1_555 1_555
H38 C32 1_555 1_555
C33 C28 1_555 1_555
C34 C33 1_555 1_555
H39 C34 1_555 1_555
C35 C14 1_555 1_555
C36 C25 1_555 1_555
C37 C36 1_555 1_555
C38 C37 1_555 1_555
C39 C37 1_555 1_555
C40 C36 1_555 1_555
C41 C40 1_555 1_555
C42 C41 1_555 1_555
C43 C41 1_555 1_555
C44 C40 1_555 1_555
C45 C44 1_555 1_555
H40 C45 1_555 1_555
C46 C45 1_555 1_555
H41 C46 1_555 1_555
C47 C46 1_555 1_555
C48 C47 1_555 1_555
H42 C48 1_555 1_555
C49 C44 1_555 1_555
H43 C49 1_555 1_555
C50 H44 1_555 1_555
H45 C50 1_555 1_555
H46 C50 1_555 1_555
C51 H47 1_555 1_555
H48 C51 1_555 1_555
H49 C51 1_555 1_555
N1 C39 1_555 1_555
N2 C38 1_555 1_555
N3 C42 1_555 1_555
N4 C43 1_555 1_555
N5 C47 1_555 1_555
O1 C12 1_555 1_555
O2 C13 1_555 1_555
Si1 C3 1_555 1_555
C6 Si1 1_555 1_555
C9 Si1 1_555 1_555
C14 O1 1_555 1_555
C21 C22 1_555 1_555
C23 C24 1_555 1_555
C25 O2 1_555 1_555
C26 C35 1_555 1_555
C32 C33 1_555 1_555
C34 C35 1_555 1_555
C48 C49 1_555 1_555
C50 N5 1_555 1_555
C51 N5 1_555 1_555

#END
