
#######################################################################
#
#                 Cambridge Crystallographic Data Centre
#                                CCDC 
#
#######################################################################
#
# If this CIF has been generated from an entry in the Cambridge 
# Structural Database, then it will include bibliographic, chemical, 
# crystal, experimental, refinement or atomic coordinate data resulting 
# from the CCDC's data processing and validation procedures.
#
#######################################################################

data_IZUGER
_chemical_formula_moiety         'C50 H46 N2 O2'
_chemical_name_systematic        
N,N-dihexyl-4-((13-((4-nitrophenyl)ethynyl)pentacen-6-yl)ethynyl)aniline
_symmetry_cell_setting           triclinic
_symmetry_space_group_name_H-M   'P -1'
_symmetry_Int_Tables_number      2
_space_group_name_Hall           '-P 1'
loop_
_symmetry_equiv_pos_site_id
_symmetry_equiv_pos_as_xyz
1 x,y,z
2 -x,-y,-z
_cell_length_a                   11.3590(8)
_cell_length_b                   12.7835(8)
_cell_length_c                   14.8035(10)
_cell_angle_alpha                74.2113(8)
_cell_angle_beta                 72.9134(8)
_cell_angle_gamma                76.7681(8)
_cell_volume                     1951.09
_exptl_crystal_colour            violet
_exptl_crystal_description       prism
_cell_formula_units_Z            2
loop_
_atom_site_label
_atom_site_type_symbol
_atom_site_fract_x
_atom_site_fract_y
_atom_site_fract_z
O1 O 0.5047(2) -0.34772(15) -0.53674(11)
O2 O 0.47780(16) -0.17678(14) -0.60894(11)
N1 N 0.47840(15) -0.24996(16) -0.53576(12)
N2 N 0.10580(12) 0.18454(10) 0.68697(9)
C1 C 0.36038(13) -0.06259(12) -0.01934(10)
C2 C 0.33998(13) -0.14227(12) 0.06994(11)
C3 C 0.34347(14) -0.25379(12) 0.07273(12)
H1 H 0.3609 -0.2768 0.0136
C4 C 0.32208(15) -0.33108(13) 0.15962(12)
C5 C 0.32325(16) -0.44443(13) 0.16287(14)
H2 H 0.3417 -0.4684 0.1041
C6 C 0.29827(18) -0.51794(14) 0.24875(15)
H3 H 0.2966 -0.5921 0.2495
C7 C 0.27464(18) -0.48545(15) 0.33732(15)
H4 H 0.2583 -0.5382 0.3968
C8 C 0.27501(17) -0.37962(14) 0.33820(13)
H5 H 0.2605 -0.3594 0.3982
C9 C 0.29711(14) -0.29795(13) 0.24945(11)
C10 C 0.29453(14) -0.18832(13) 0.24753(11)
H6 H 0.2791 -0.1665 0.3069
C11 C 0.31412(13) -0.10848(12) 0.15992(10)
C12 C 0.30673(13) 0.00437(12) 0.15931(10)
C13 C 0.32591(13) 0.08390(12) 0.06997(10)
C14 C 0.31495(14) 0.19636(12) 0.06835(11)
H7 H 0.2965 0.2188 0.1278
C15 C 0.33047(14) 0.27512(12) -0.01790(11)
C16 C 0.31212(16) 0.39025(13) -0.01985(13)
H8 H 0.2889 0.4140 0.0393
C17 C 0.32742(17) 0.46583(14) -0.10515(14)
H9 H 0.3137 0.5420 -0.1050
C18 C 0.36361(16) 0.43222(14) -0.19423(13)
H10 H 0.3758 0.4860 -0.2533
C19 C 0.38109(15) 0.32411(13) -0.19638(12)
H11 H 0.4055 0.3031 -0.2569
C20 C 0.36305(13) 0.24150(12) -0.10822(11)
C21 C 0.37378(13) 0.13077(12) -0.10754(11)
H12 H 0.3950 0.1087 -0.1674
C22 C 0.35393(13) 0.05056(12) -0.02033(10)
C23 C 0.38548(13) -0.09633(12) -0.10794(11)
C24 C 0.40292(14) -0.12545(12) -0.18227(11)
C25 C 0.41807(13) -0.15746(12) -0.27065(11)
C26 C 0.44634(15) -0.26868(13) -0.27525(11)
H13 H 0.4534 -0.3238 -0.2184
C27 C 0.46399(16) -0.29897(14) -0.36147(12)
H14 H 0.4838 -0.3745 -0.3646
C28 C 0.45242(15) -0.21806(15) -0.44297(12)
C29 C 0.42098(15) -0.10788(14) -0.44041(12)
H15 H 0.4108 -0.0537 -0.4971
C30 C 0.40465(15) -0.07754(13) -0.35477(11)
H16 H 0.3841 -0.0018 -0.3526
C31 C 0.27617(14) 0.03749(12) 0.24877(11)
C32 C 0.24815(15) 0.06290(12) 0.32585(11)
C33 C 0.21333(14) 0.09248(12) 0.41728(10)
C34 C 0.14167(14) 0.03111(12) 0.50009(11)
H17 H 0.1173 -0.0331 0.4953
C35 C 0.10555(14) 0.06060(12) 0.58783(11)
H18 H 0.0560 0.0171 0.6419
C36 C 0.14060(14) 0.15464(12) 0.59956(10)
C37 C 0.21482(14) 0.21532(12) 0.51620(11)
H19 H 0.2420 0.2781 0.5210
C38 C 0.24839(14) 0.18556(12) 0.42864(11)
H20 H 0.2968 0.2293 0.3740
C39 C 0.02387(14) 0.12386(12) 0.77050(11)
H21 H -0.0408 0.1042 0.7485
H22 H -0.0190 0.1725 0.8163
C40 C 0.09196(14) 0.01906(13) 0.82382(11)
H23 H 0.1546 -0.0189 0.7757
H24 H 0.1371 0.0391 0.8630
C41 C 0.00428(15) -0.05965(13) 0.88990(11)
H25 H -0.0433 -0.0768 0.8508
H26 H -0.0564 -0.0220 0.9390
C42 C 0.06882(15) -0.16740(13) 0.94185(11)
H27 H 0.1353 -0.2019 0.8934
H28 H 0.1089 -0.1513 0.9865
C43 C -0.02009(16) -0.24838(13) 0.99911(12)
H29 H -0.0609 -0.2633 0.9543
H30 H -0.0861 -0.2136 1.0476
C44 C 0.04151(18) -0.35738(14) 1.05111(14)
H31 H -0.0215 -0.4050 1.0860
H32 H 0.0800 -0.3439 1.0972
H33 H 0.1057 -0.3935 1.0036
C45 C 0.14541(15) 0.28074(12) 0.69796(11)
H34 H 0.2337 0.2822 0.6617
H35 H 0.1407 0.2731 0.7673
C46 C 0.06686(16) 0.38968(13) 0.66198(12)
H36 H -0.0184 0.3935 0.7052
H37 H 0.0602 0.3921 0.5962
C47 C 0.12162(17) 0.48988(13) 0.65867(13)
H38 H 0.1244 0.4893 0.7250
H39 H 0.2084 0.4839 0.6182
C48 C 0.04757(18) 0.59885(14) 0.61823(15)
H40 H -0.0385 0.6052 0.6600
H41 H 0.0423 0.5978 0.5529
C49 C 0.1015(2) 0.70101(15) 0.61069(16)
H42 H 0.1904 0.6912 0.5748
H43 H 0.0571 0.7656 0.5724
C50 C 0.0929(3) 0.72514(18) 0.70609(18)
H44 H 0.1299 0.7910 0.6951
H45 H 0.1380 0.6624 0.7442
H46 H 0.0050 0.7378 0.7414
loop_
_geom_bond_atom_site_label_1
_geom_bond_atom_site_label_2
_geom_bond_site_symmetry_1
_geom_bond_site_symmetry_2
O1 N1 1_555 1_555
O2 N1 1_555 1_555
N1 C28 1_555 1_555
N2 C36 1_555 1_555
C1 C2 1_555 1_555
C2 C3 1_555 1_555
C3 H1 1_555 1_555
C4 C3 1_555 1_555
C5 C4 1_555 1_555
H2 C5 1_555 1_555
C6 C5 1_555 1_555
H3 C6 1_555 1_555
C7 C6 1_555 1_555
H4 C7 1_555 1_555
C8 C7 1_555 1_555
H5 C8 1_555 1_555
C9 C4 1_555 1_555
C10 C9 1_555 1_555
H6 C10 1_555 1_555
C11 C2 1_555 1_555
C12 C11 1_555 1_555
C13 C12 1_555 1_555
C14 C13 1_555 1_555
H7 C14 1_555 1_555
C15 C14 1_555 1_555
C16 C15 1_555 1_555
H8 C16 1_555 1_555
C17 C16 1_555 1_555
H9 C17 1_555 1_555
C18 C17 1_555 1_555
H10 C18 1_555 1_555
C19 C18 1_555 1_555
H11 C19 1_555 1_555
C20 C15 1_555 1_555
C21 C20 1_555 1_555
H12 C21 1_555 1_555
C22 C1 1_555 1_555
C23 C1 1_555 1_555
C24 C23 1_555 1_555
C25 C24 1_555 1_555
C26 C25 1_555 1_555
H13 C26 1_555 1_555
C27 C26 1_555 1_555
H14 C27 1_555 1_555
C28 C27 1_555 1_555
C29 C28 1_555 1_555
H15 C29 1_555 1_555
C30 C25 1_555 1_555
H16 C30 1_555 1_555
C31 C12 1_555 1_555
C32 C31 1_555 1_555
C33 C32 1_555 1_555
C34 C33 1_555 1_555
H17 C34 1_555 1_555
C35 C34 1_555 1_555
H18 C35 1_555 1_555
C36 C35 1_555 1_555
C37 C36 1_555 1_555
H19 C37 1_555 1_555
C38 C33 1_555 1_555
H20 C38 1_555 1_555
C39 N2 1_555 1_555
H21 C39 1_555 1_555
H22 C39 1_555 1_555
C40 C39 1_555 1_555
H23 C40 1_555 1_555
H24 C40 1_555 1_555
C41 C40 1_555 1_555
H25 C41 1_555 1_555
H26 C41 1_555 1_555
C42 C41 1_555 1_555
H27 C42 1_555 1_555
H28 C42 1_555 1_555
C43 C42 1_555 1_555
H29 C43 1_555 1_555
H30 C43 1_555 1_555
C44 C43 1_555 1_555
H31 C44 1_555 1_555
H32 C44 1_555 1_555
H33 C44 1_555 1_555
C45 N2 1_555 1_555
H34 C45 1_555 1_555
H35 C45 1_555 1_555
C46 C45 1_555 1_555
H36 C46 1_555 1_555
H37 C46 1_555 1_555
C47 C46 1_555 1_555
H38 C47 1_555 1_555
H39 C47 1_555 1_555
C48 C47 1_555 1_555
H40 C48 1_555 1_555
H41 C48 1_555 1_555
C49 C48 1_555 1_555
H42 C49 1_555 1_555
H43 C49 1_555 1_555
C50 C49 1_555 1_555
H44 C50 1_555 1_555
H45 C50 1_555 1_555
H46 C50 1_555 1_555
C8 C9 1_555 1_555
C10 C11 1_555 1_555
C13 C22 1_555 1_555
C19 C20 1_555 1_555
C21 C22 1_555 1_555
C29 C30 1_555 1_555
C37 C38 1_555 1_555

#END
