
#######################################################################
#
#                 Cambridge Crystallographic Data Centre
#                                CCDC 
#
#######################################################################
#
# If this CIF has been generated from an entry in the Cambridge 
# Structural Database, then it will include bibliographic, chemical, 
# crystal, experimental, refinement or atomic coordinate data resulting 
# from the CCDC's data processing and validation procedures.
#
#######################################################################

data_IZUHOC
_chemical_formula_moiety         'C43 H40 Si1'
_chemical_name_systematic        
tri-isopropyl((13-(1-naphthyl)pentacen-6-yl)ethynyl)silane
_symmetry_cell_setting           triclinic
_symmetry_space_group_name_H-M   'P -1'
_symmetry_Int_Tables_number      2
_space_group_name_Hall           '-P 1'
loop_
_symmetry_equiv_pos_site_id
_symmetry_equiv_pos_as_xyz
1 x,y,z
2 -x,-y,-z
_cell_length_a                   11.1091(5)
_cell_length_b                   11.6246(6)
_cell_length_c                   13.6377(6)
_cell_angle_alpha                93.926(4)
_cell_angle_beta                 100.072(4)
_cell_angle_gamma                103.336(4)
_cell_volume                     1676.34
_exptl_crystal_colour            'dark red'
_exptl_crystal_description       block
_cell_formula_units_Z            2
_exptl_crystal_recrystallization_method dichloromethane/acetone
loop_
_atom_site_label
_atom_site_type_symbol
_atom_site_fract_x
_atom_site_fract_y
_atom_site_fract_z
C1 C 0.7878(2) 0.1644(2) 0.35473(16)
C2 C 0.8057(2) 0.1196(2) 0.27858(17)
C3 C 1.0014(3) 0.0969(2) 0.15790(17)
H1 H 1.0129 0.0671 0.0920
C4 C 1.0769(3) 0.0403(3) 0.2367(2)
H2 H 1.1651 0.0669 0.2358
H3 H 1.0507 -0.0447 0.2222
H4 H 1.0623 0.0632 0.3018
C5 C 1.0545(4) 0.2328(3) 0.1721(2)
H5 H 1.0424 0.2649 0.2354
H6 H 1.0113 0.2672 0.1190
H7 H 1.1430 0.2511 0.1709
C6 C 0.7350(5) 0.1162(5) 0.0573(2)
C7 C 0.7719(5) 0.1002(5) -0.0440(2)
H8 H 0.7124 0.1224 -0.0946
H9 H 0.7718 0.0184 -0.0599
H10 H 0.8547 0.1497 -0.0417
C8 C 0.6762(7) 0.2031(7) 0.0790(5)
H11 H 0.7364 0.2790 0.0915
H12 H 0.6405 0.1876 0.1374
H13 H 0.6104 0.2039 0.0232
C9 C 0.7766(4) -0.1140(3) 0.1591(3)
H14 H 0.8328 -0.1332 0.2159
C10 C 0.7968(6) -0.1816(4) 0.0662(4)
H15 H 0.7825 -0.2647 0.0743
H16 H 0.8817 -0.1518 0.0571
H17 H 0.7388 -0.1708 0.0085
C11 C 0.6463(4) -0.1557(3) 0.1780(4)
H18 H 0.5863 -0.1504 0.1197
H19 H 0.6361 -0.1067 0.2340
H20 H 0.6326 -0.2368 0.1925
C12 C 0.7637(2) 0.2188(2) 0.44486(16)
C13 C 0.7129(2) 0.14710(19) 0.51399(16)
C14 C 0.6879(2) 0.02215(19) 0.49907(16)
H21 H 0.7057 -0.0137 0.4420
C15 C 0.6379(2) -0.04873(19) 0.56625(17)
C16 C 0.6138(2) -0.1758(2) 0.55179(19)
H22 H 0.6316 -0.2124 0.4951
C17 C 0.5659(3) -0.2432(2) 0.6191(2)
H23 H 0.5526 -0.3254 0.6090
C18 C 0.5355(2) -0.1901(2) 0.7050(2)
H24 H 0.5018 -0.2380 0.7504
C19 C 0.5548(2) -0.0705(2) 0.7219(2)
H25 H 0.5332 -0.0374 0.7783
C20 C 0.6080(2) 0.0058(2) 0.65420(17)
C21 C 0.6321(3) 0.1280(2) 0.66970(19)
H26 H 0.6120 0.1627 0.7262
C22 C 0.6861(3) 0.2028(2) 0.60319(18)
C23 C 0.7123(4) 0.3278(2) 0.6198(2)
C24 C 0.7654(3) 0.3995(2) 0.5514(2)
C25 C 0.7961(3) 0.5253(2) 0.5670(2)
H27 H 0.7796 0.5619 0.6243
C26 C 0.8495(3) 0.5957(2) 0.5009(2)
C27 C 0.8808(3) 0.7234(2) 0.5165(2)
H28 H 0.8644 0.7614 0.5732
C28 C 0.9340(3) 0.7894(2) 0.4498(2)
H29 H 0.9539 0.8720 0.4613
C29 C 0.9596(3) 0.7340(3) 0.3629(2)
H30 H 0.9966 0.7806 0.3182
C30 C 0.9312(3) 0.6141(3) 0.3438(2)
H31 H 0.9481 0.5794 0.2859
C31 C 0.8751(2) 0.5400(2) 0.4117(2)
C32 C 0.8460(2) 0.4172(2) 0.39472(18)
H32 H 0.8631 0.3816 0.3372
C33 C 0.7913(2) 0.3441(2) 0.46186(17)
C34 C 0.5263(2) 0.4223(2) 0.66719(19)
H33 H 0.4759 0.4046 0.6007
C35 C 0.5269(5) 0.5162(3) 0.8482(4)
H34 H 0.4931 0.5535 0.8984
C36 C 0.6337(4) 0.4772(2) 0.8513(2)
C37 C 0.7221(4) 0.4877(3) 0.9374(4)
H35 H 0.6918 0.5261 0.9892
C38 C 0.8215(3) 0.3824(3) 0.81579(18)
H36 H 0.8533 0.3421 0.7660
C39 C 0.7261(5) 0.3810(4) 0.7336(4)
C40 C 0.8170(7) 0.4349(6) 0.9113(4)
H37 H 0.8863 0.4342 0.9642
C41 C 0.4180(5) 0.5153(5) 0.7781(5)
H38 H 0.3484 0.5450 0.7924
C42 C 0.4254(7) 0.4657(6) 0.6871(6)
H39 H 0.3562 0.4610 0.6326
C43 C 0.6238(5) 0.4263(3) 0.7469(4)
Si1 Si 0.82861(7) 0.05465(6) 0.15868(4)
C44? C 0.6397(5) 0.3887(4) 0.6861(4)
C45? C 0.4835(10) 0.4816(6) 0.7425(7)
H40? H 0.4071 0.5040 0.7171
C46? C 0.8414(10) 0.4671(8) 0.9867(5)
H41? H 0.8808 0.4893 1.0560
C47? C 0.8887(11) 0.4074(9) 0.9136(6)
H42? H 0.9672 0.3856 0.9322
C48? C 0.7097(6) 0.4133(4) 0.7878(4)
loop_
_geom_bond_atom_site_label_1
_geom_bond_atom_site_label_2
_geom_bond_site_symmetry_1
_geom_bond_site_symmetry_2
C1 C2 1_555 1_555
C2 Si1 1_555 1_555
C3 H1 1_555 1_555
C4 C3 1_555 1_555
H2 C4 1_555 1_555
H3 C4 1_555 1_555
H4 C4 1_555 1_555
C5 C3 1_555 1_555
H5 C5 1_555 1_555
H6 C5 1_555 1_555
H7 C5 1_555 1_555
C6 C7 1_555 1_555
C7 H8 1_555 1_555
H9 C7 1_555 1_555
H10 C7 1_555 1_555
C8 C6 1_555 1_555
H11 C8 1_555 1_555
H12 C8 1_555 1_555
H13 C8 1_555 1_555
C9 H14 1_555 1_555
C10 C9 1_555 1_555
H15 C10 1_555 1_555
H16 C10 1_555 1_555
H17 C10 1_555 1_555
C11 C9 1_555 1_555
H18 C11 1_555 1_555
H19 C11 1_555 1_555
H20 C11 1_555 1_555
C12 C1 1_555 1_555
C13 C12 1_555 1_555
C14 C13 1_555 1_555
H21 C14 1_555 1_555
C15 C14 1_555 1_555
C16 C15 1_555 1_555
H22 C16 1_555 1_555
C17 C16 1_555 1_555
H23 C17 1_555 1_555
C18 C17 1_555 1_555
H24 C18 1_555 1_555
C19 C18 1_555 1_555
H25 C19 1_555 1_555
C20 C15 1_555 1_555
C21 C20 1_555 1_555
H26 C21 1_555 1_555
C22 C13 1_555 1_555
C23 C22 1_555 1_555
C24 C23 1_555 1_555
C25 C24 1_555 1_555
H27 C25 1_555 1_555
C26 C25 1_555 1_555
C27 C26 1_555 1_555
H28 C27 1_555 1_555
C28 C27 1_555 1_555
H29 C28 1_555 1_555
C29 C28 1_555 1_555
H30 C29 1_555 1_555
C30 C29 1_555 1_555
H31 C30 1_555 1_555
C31 C26 1_555 1_555
C32 C31 1_555 1_555
H32 C32 1_555 1_555
C33 C12 1_555 1_555
C34 H33 1_555 1_555
C35 H34 1_555 1_555
C36 C35 1_555 1_555
C37 C36 1_555 1_555
H35 C37 1_555 1_555
C38 H36 1_555 1_555
C39 C23 1_555 1_555
C40 C37 1_555 1_555
H37 C40 1_555 1_555
C41 C35 1_555 1_555
H38 C41 1_555 1_555
C42 C34 1_555 1_555
H39 C42 1_555 1_555
C43 C34 1_555 1_555
Si1 C3 1_555 1_555
C6 Si1 1_555 1_555
C9 Si1 1_555 1_555
C19 C20 1_555 1_555
C21 C22 1_555 1_555
C24 C33 1_555 1_555
C30 C31 1_555 1_555
C32 C33 1_555 1_555
C36 C43 1_555 1_555
C38 C39 1_555 1_555
C38 C40 1_555 1_555
C39 C43 1_555 1_555
C41 C42 1_555 1_555

#END
