
#######################################################################
#
#                 Cambridge Crystallographic Data Centre
#                                CCDC 
#
#######################################################################
#
# If this CIF has been generated from an entry in the Cambridge 
# Structural Database, then it will include bibliographic, chemical, 
# crystal, experimental, refinement or atomic coordinate data resulting 
# from the CCDC's data processing and validation procedures.
#
#######################################################################

data_IZUHUI
_chemical_formula_moiety         'C39 H37 I1 Si1'
_chemical_name_systematic        
((13-(4-iodophenyl)pentacen-6-yl)ethynyl)(tri-isopropyl)silane
_symmetry_cell_setting           monoclinic
_symmetry_space_group_name_H-M   'P 21/n'
_symmetry_Int_Tables_number      14
_space_group_name_Hall           '-P 2yn'
loop_
_symmetry_equiv_pos_site_id
_symmetry_equiv_pos_as_xyz
1 x,y,z
2 1/2-x,1/2+y,1/2-z
3 -x,-y,-z
4 1/2+x,1/2-y,1/2+z
_cell_length_a                   17.0739(3)
_cell_length_b                   9.5155(2)
_cell_length_c                   19.8065(4)
_cell_angle_alpha                90
_cell_angle_beta                 90.845(2)
_cell_angle_gamma                90
_cell_volume                     3217.55
_exptl_crystal_colour            'metallic dark red'
_exptl_crystal_description       block
_cell_formula_units_Z            4
_exptl_crystal_recrystallization_method dichloromethane/acetone
loop_
_atom_site_label
_atom_site_type_symbol
_atom_site_fract_x
_atom_site_fract_y
_atom_site_fract_z
I1 I 0.653157(12) -0.06153(2) 0.697306(10)
Si1 Si 0.93015(3) 0.93065(6) 0.26221(3)
C1 C 0.75262(11) 0.3032(2) 0.54839(10)
C2 C 0.84440(12) 0.6120(2) 0.40942(10)
C3 C 0.70743(13) 0.0650(2) 0.56581(12)
H1 H 0.6966 -0.0243 0.5489
C4 C 0.73746(12) 0.5278(2) 0.48191(10)
C5 C 0.64534(13) 0.7606(2) 0.43738(10)
C6 C 0.89110(11) 0.4973(2) 0.42976(10)
C7 C 0.91243(12) 0.2898(2) 0.50105(10)
H2 H 0.8952 0.2280 0.5340
C8 C 0.91938(13) 1.1068(2) 0.30490(11)
H3 H 0.9666 1.1208 0.3329
C9 C 0.72117(12) 0.7443(2) 0.41533(11)
H4 H 0.7417 0.8109 0.3861
C10 C 1.03834(12) 0.1633(2) 0.49785(11)
H5 H 1.0228 0.1038 0.5324
C11 C 0.65985(12) 0.5459(2) 0.50407(11)
H6 H 0.6389 0.4802 0.5335
C12 C 0.69465(12) 0.0962(2) 0.63300(11)
C13 C 0.76838(12) 0.6303(2) 0.43559(10)
C14 C 0.89795(12) 0.7950(2) 0.32195(10)
C15 C 1.08944(12) 0.3432(3) 0.39542(12)
H7 H 1.1074 0.4024 0.3617
C16 C 0.73855(13) 0.3312(2) 0.61592(11)
H8 H 0.7488 0.4205 0.6330
C17 C 0.78463(12) 0.4129(2) 0.50245(10)
C18 C 0.98677(12) 0.2725(2) 0.47544(10)
C19 C 0.61390(12) 0.6587(2) 0.48332(11)
C20 C 0.70950(13) 0.2286(3) 0.65838(11)
H9 H 0.7001 0.2488 0.7035
C21 C 0.86180(11) 0.3985(2) 0.47880(10)
C22 C 0.96624(12) 0.4765(2) 0.40321(10)
H10 H 0.9845 0.5390 0.3710
C23 C 0.73666(12) 0.1687(2) 0.52409(11)
H11 H 0.7458 0.1481 0.4790
C24 C 0.87346(12) 0.7105(2) 0.36145(10)
C25 C 0.52162(15) 0.8851(3) 0.43614(13)
H12 H 0.4903 0.9587 0.4207
C26 C 0.53475(13) 0.6769(3) 0.50470(12)
H13 H 0.5135 0.6133 0.5350
C27 C 0.59621(14) 0.8743(2) 0.41522(12)
H14 H 0.6160 0.9415 0.3860
C28 C 1.01374(12) 0.3663(2) 0.42344(10)
C29 C 0.49053(14) 0.7845(3) 0.48165(13)
H15 H 0.4390 0.7932 0.4957
C30 C 0.86534(14) 0.9101(2) 0.18518(11)
H16 H 0.8787 0.9844 0.1531
C31 C 0.84959(15) 1.1132(3) 0.35227(13)
H17 H 0.8020 1.0985 0.3268
H18 H 0.8480 1.2037 0.3736
H19 H 0.8549 1.0415 0.3861
C32 C 1.13513(13) 0.2361(3) 0.41743(12)
H20 H 1.1839 0.2218 0.3983
C33 C 1.10925(13) 0.1448(3) 0.46968(12)
H21 H 1.1414 0.0719 0.4845
C34 C 1.03515(13) 0.8915(3) 0.24286(13)
H22 H 1.0357 0.7990 0.2210
C35 C 0.91610(18) 1.2281(3) 0.25426(14)
H23 H 0.9618 1.2257 0.2266
H24 H 0.9144 1.3158 0.2782
H25 H 0.8700 1.2191 0.2262
C36 C 0.87902(18) 0.7680(3) 0.15103(14)
H26 H 0.9329 0.7606 0.1383
H27 H 0.8460 0.7605 0.1115
H28 H 0.8667 0.6936 0.1819
C37 C 1.08517(16) 0.8781(4) 0.30656(19)
H29 H 1.0867 0.9668 0.3296
H30 H 1.1374 0.8510 0.2948
H31 H 1.0631 0.8082 0.3355
C38 C 1.0702(2) 0.9941(5) 0.1929(2)
H32 H 1.0348 1.0063 0.1552
H33 H 1.1192 0.9579 0.1772
H34 H 1.0789 1.0831 0.2146
C39 C 0.77910(15) 0.9255(3) 0.20253(14)
H35 H 0.7662 0.8603 0.2376
H36 H 0.7474 0.9064 0.1632
H37 H 0.7693 1.0196 0.2177
loop_
_geom_bond_atom_site_label_1
_geom_bond_atom_site_label_2
_geom_bond_site_symmetry_1
_geom_bond_site_symmetry_2
I1 C12 1_555 1_555
Si1 C8 1_555 1_555
C1 C16 1_555 1_555
C2 C6 1_555 1_555
C3 H1 1_555 1_555
C4 C11 1_555 1_555
C5 C9 1_555 1_555
C6 C21 1_555 1_555
C7 H2 1_555 1_555
C8 H3 1_555 1_555
C9 H4 1_555 1_555
C10 H5 1_555 1_555
C11 H6 1_555 1_555
C12 C3 1_555 1_555
C13 C2 1_555 1_555
C14 Si1 1_555 1_555
C15 H7 1_555 1_555
C16 H8 1_555 1_555
C17 C1 1_555 1_555
C18 C7 1_555 1_555
C19 C5 1_555 1_555
C20 C12 1_555 1_555
H9 C20 1_555 1_555
C21 C7 1_555 1_555
C22 C6 1_555 1_555
H10 C22 1_555 1_555
C23 C1 1_555 1_555
H11 C23 1_555 1_555
C24 C2 1_555 1_555
C25 H12 1_555 1_555
C26 C19 1_555 1_555
H13 C26 1_555 1_555
C27 C5 1_555 1_555
H14 C27 1_555 1_555
C28 C15 1_555 1_555
C29 C25 1_555 1_555
H15 C29 1_555 1_555
C30 Si1 1_555 1_555
H16 C30 1_555 1_555
C31 C8 1_555 1_555
H17 C31 1_555 1_555
H18 C31 1_555 1_555
H19 C31 1_555 1_555
C32 C15 1_555 1_555
H20 C32 1_555 1_555
C33 C10 1_555 1_555
H21 C33 1_555 1_555
C34 Si1 1_555 1_555
H22 C34 1_555 1_555
C35 C8 1_555 1_555
H23 C35 1_555 1_555
H24 C35 1_555 1_555
H25 C35 1_555 1_555
C36 C30 1_555 1_555
H26 C36 1_555 1_555
H27 C36 1_555 1_555
H28 C36 1_555 1_555
C37 C34 1_555 1_555
H29 C37 1_555 1_555
H30 C37 1_555 1_555
H31 C37 1_555 1_555
C38 C34 1_555 1_555
H32 C38 1_555 1_555
H33 C38 1_555 1_555
H34 C38 1_555 1_555
C39 C30 1_555 1_555
H35 C39 1_555 1_555
H36 C39 1_555 1_555
H37 C39 1_555 1_555
C3 C23 1_555 1_555
C4 C13 1_555 1_555
C4 C17 1_555 1_555
C9 C13 1_555 1_555
C10 C18 1_555 1_555
C11 C19 1_555 1_555
C14 C24 1_555 1_555
C16 C20 1_555 1_555
C17 C21 1_555 1_555
C18 C28 1_555 1_555
C22 C28 1_555 1_555
C25 C27 1_555 1_555
C26 C29 1_555 1_555
C32 C33 1_555 1_555

#END
