
#######################################################################
#
#                 Cambridge Crystallographic Data Centre
#                                CCDC 
#
#######################################################################
#
# If this CIF has been generated from an entry in the Cambridge 
# Structural Database, then it will include bibliographic, chemical, 
# crystal, experimental, refinement or atomic coordinate data resulting 
# from the CCDC's data processing and validation procedures.
#
#######################################################################

data_IZUJEU
_chemical_formula_moiety         'C45 H42 Si1'
_chemical_name_systematic        
((13-(biphenyl-4-yl)pentacen-6-yl)ethynyl)(tri-isopropyl)silane
_symmetry_cell_setting           triclinic
_symmetry_space_group_name_H-M   'P -1'
_symmetry_Int_Tables_number      2
_space_group_name_Hall           '-P 1'
loop_
_symmetry_equiv_pos_site_id
_symmetry_equiv_pos_as_xyz
1 x,y,z
2 -x,-y,-z
_cell_length_a                   8.8430(7)
_cell_length_b                   13.1980(9)
_cell_length_c                   15.6961(10)
_cell_angle_alpha                75.899(6)
_cell_angle_beta                 80.962(6)
_cell_angle_gamma                78.579(6)
_cell_volume                     1730.06
_exptl_crystal_colour            'dark red'
_exptl_crystal_description       plate
_cell_formula_units_Z            2
_exptl_crystal_recrystallization_method tetrahydrofuran/methanol
loop_
_atom_site_label
_atom_site_type_symbol
_atom_site_fract_x
_atom_site_fract_y
_atom_site_fract_z
C1 C 0.10518(16) 0.15826(11) 0.67740(10)
C2 C 0.18948(17) 0.22382(12) 0.65968(10)
C3 C 0.52061(18) 0.23825(13) 0.67078(11)
H1 H 0.5646 0.1963 0.6248
C4 C 0.5017(2) 0.15902(17) 0.75863(14)
H2 H 0.6031 0.1168 0.7717
H3 H 0.4308 0.1121 0.7551
H4 H 0.4590 0.1971 0.8057
C5 C 0.6369(2) 0.30908(18) 0.67094(18)
H5 H 0.5971 0.3528 0.7145
H6 H 0.6526 0.3550 0.6121
H7 H 0.7360 0.2651 0.6863
C6 C 0.25152(19) 0.42001(13) 0.70642(11)
H8 H 0.2914 0.3894 0.7651
C7 C 0.3155(3) 0.52351(14) 0.66908(14)
H9 H 0.2791 0.5570 0.6113
H10 H 0.4293 0.5084 0.6623
H11 H 0.2792 0.5714 0.7097
C8 C 0.0745(2) 0.44234(18) 0.72523(15)
H12 H 0.0444 0.4928 0.7640
H13 H 0.0362 0.3761 0.7543
H14 H 0.0293 0.4724 0.6695
C9 C 0.34770(17) 0.37554(12) 0.51470(10)
H15 H 0.4246 0.4251 0.5020
C10 C 0.4109(2) 0.28882(14) 0.46304(11)
H16 H 0.3394 0.2376 0.4760
H17 H 0.5129 0.2526 0.4805
H18 H 0.4209 0.3206 0.3996
C11 C 0.1960(2) 0.43843(16) 0.48179(12)
H19 H 0.2121 0.4639 0.4175
H20 H 0.1619 0.4990 0.5099
H21 H 0.1164 0.3928 0.4968
C12 C 0.01181(16) 0.07633(11) 0.69984(10)
C13 C 0.01862(16) 0.00455(11) 0.78280(9)
C14 C 0.11610(17) 0.01141(13) 0.84327(10)
H22 H 0.1749 0.0675 0.8288
C15 C 0.12896(17) -0.06071(13) 0.92286(10)
C16 C 0.23097(19) -0.05467(15) 0.98346(11)
H23 H 0.2913 0.0005 0.9692
C17 C 0.2416(2) -0.12722(16) 1.06089(12)
H24 H 0.3103 -0.1225 1.1001
C18 C 0.1525(2) -0.20983(16) 1.08432(12)
H25 H 0.1615 -0.2595 1.1392
C19 C 0.0544(2) -0.21898(15) 1.02945(11)
H26 H -0.0044 -0.2751 1.0461
C20 C 0.03849(18) -0.14453(13) 0.94638(10)
C21 C -0.06036(18) -0.15155(12) 0.88851(10)
H27 H -0.1212 -0.2065 0.9048
C22 C -0.07348(16) -0.07929(11) 0.80585(9)
C23 C -0.16917(16) -0.08913(11) 0.74512(9)
C24 C -0.16935(15) -0.02092(11) 0.66052(9)
C25 C -0.25375(15) -0.03337(11) 0.59538(9)
H28 H -0.3150 -0.0880 0.6096
C26 C -0.24987(15) 0.03167(11) 0.51142(9)
C27 C -0.32889(16) 0.01669(12) 0.44359(10)
H29 H -0.3846 -0.0408 0.4554
C28 C -0.32537(17) 0.08322(13) 0.36279(10)
H30 H -0.3792 0.0720 0.3190
C29 C -0.24229(18) 0.16969(13) 0.34252(10)
H31 H -0.2424 0.2162 0.2858
C30 C -0.16310(17) 0.18585(12) 0.40383(10)
H32 H -0.1070 0.2433 0.3893
C31 C -0.16251(15) 0.11792(11) 0.49006(9)
C32 C -0.08020(16) 0.13154(11) 0.55312(10)
H33 H -0.0229 0.1883 0.5390
C33 C -0.07847(15) 0.06407(11) 0.63758(9)
C34 C -0.26870(16) -0.17330(11) 0.77238(9)
C35 C -0.22357(18) -0.27091(12) 0.74947(10)
H34 H -0.1293 -0.2836 0.7123
C36 C -0.31355(19) -0.35020(12) 0.77974(10)
H35 H -0.2801 -0.4161 0.7627
C37 C -0.45211(17) -0.33485(11) 0.83465(9)
C38 C -0.49859(17) -0.23600(12) 0.85595(10)
H36 H -0.5941 -0.2226 0.8919
C39 C -0.40847(17) -0.15675(11) 0.82579(10)
H37 H -0.4426 -0.0903 0.8418
C40 C -0.54513(18) -0.42102(12) 0.87124(9)
C41 C -0.4728(2) -0.52688(13) 0.89110(10)
H38 H -0.3633 -0.5440 0.8788
C42 C -0.5588(3) -0.60698(15) 0.92852(12)
H39 H -0.5080 -0.6786 0.9416
C43 C -0.7176(3) -0.58335(17) 0.94686(13)
H40 H -0.7763 -0.6384 0.9729
C44 C -0.7909(2) -0.47946(18) 0.92730(13)
H41 H -0.9006 -0.4631 0.9397
C45 C -0.7056(2) -0.39842(15) 0.88962(11)
H42 H -0.7574 -0.3271 0.8764
Si1 Si 0.32713(4) 0.31801(3) 0.63724(2)
loop_
_geom_bond_atom_site_label_1
_geom_bond_atom_site_label_2
_geom_bond_site_symmetry_1
_geom_bond_site_symmetry_2
C1 C2 1_555 1_555
C2 Si1 1_555 1_555
C3 H1 1_555 1_555
C4 C3 1_555 1_555
H2 C4 1_555 1_555
H3 C4 1_555 1_555
H4 C4 1_555 1_555
C5 C3 1_555 1_555
H5 C5 1_555 1_555
H6 C5 1_555 1_555
H7 C5 1_555 1_555
C6 H8 1_555 1_555
C7 C6 1_555 1_555
H9 C7 1_555 1_555
H10 C7 1_555 1_555
H11 C7 1_555 1_555
C8 C6 1_555 1_555
H12 C8 1_555 1_555
H13 C8 1_555 1_555
H14 C8 1_555 1_555
C9 H15 1_555 1_555
C10 C9 1_555 1_555
H16 C10 1_555 1_555
H17 C10 1_555 1_555
H18 C10 1_555 1_555
C11 C9 1_555 1_555
H19 C11 1_555 1_555
H20 C11 1_555 1_555
H21 C11 1_555 1_555
C12 C1 1_555 1_555
C13 C12 1_555 1_555
C14 C13 1_555 1_555
H22 C14 1_555 1_555
C15 C14 1_555 1_555
C16 C15 1_555 1_555
H23 C16 1_555 1_555
C17 C16 1_555 1_555
H24 C17 1_555 1_555
C18 C17 1_555 1_555
H25 C18 1_555 1_555
C19 C18 1_555 1_555
H26 C19 1_555 1_555
C20 C15 1_555 1_555
C21 C20 1_555 1_555
H27 C21 1_555 1_555
C22 C13 1_555 1_555
C23 C22 1_555 1_555
C24 C23 1_555 1_555
C25 C24 1_555 1_555
H28 C25 1_555 1_555
C26 C25 1_555 1_555
C27 C26 1_555 1_555
H29 C27 1_555 1_555
C28 C27 1_555 1_555
H30 C28 1_555 1_555
C29 C28 1_555 1_555
H31 C29 1_555 1_555
C30 C29 1_555 1_555
H32 C30 1_555 1_555
C31 C26 1_555 1_555
C32 C31 1_555 1_555
H33 C32 1_555 1_555
C33 C12 1_555 1_555
C34 C23 1_555 1_555
C35 C34 1_555 1_555
H34 C35 1_555 1_555
C36 C35 1_555 1_555
H35 C36 1_555 1_555
C37 C36 1_555 1_555
C38 C37 1_555 1_555
H36 C38 1_555 1_555
C39 C34 1_555 1_555
H37 C39 1_555 1_555
C40 C37 1_555 1_555
C41 C40 1_555 1_555
H38 C41 1_555 1_555
C42 C41 1_555 1_555
H39 C42 1_555 1_555
C43 C42 1_555 1_555
H40 C43 1_555 1_555
C44 C43 1_555 1_555
H41 C44 1_555 1_555
C45 C40 1_555 1_555
H42 C45 1_555 1_555
Si1 C3 1_555 1_555
C6 Si1 1_555 1_555
C9 Si1 1_555 1_555
C19 C20 1_555 1_555
C21 C22 1_555 1_555
C24 C33 1_555 1_555
C30 C31 1_555 1_555
C32 C33 1_555 1_555
C38 C39 1_555 1_555
C44 C45 1_555 1_555

#END
