
#######################################################################
#
#                 Cambridge Crystallographic Data Centre
#                                CCDC 
#
#######################################################################
#
# If this CIF has been generated from an entry in the Cambridge 
# Structural Database, then it will include bibliographic, chemical, 
# crystal, experimental, refinement or atomic coordinate data resulting 
# from the CCDC's data processing and validation procedures.
#
#######################################################################

data_IZUJIY
_chemical_formula_moiety         'C37 H36 S1 Si1'
_chemical_name_systematic        
tri-isopropyl((13-(2-thienyl)pentacen-6-yl)ethynyl)silane
_symmetry_cell_setting           monoclinic
_symmetry_space_group_name_H-M   'P 21/n'
_symmetry_Int_Tables_number      14
_space_group_name_Hall           '-P 2yn'
loop_
_symmetry_equiv_pos_site_id
_symmetry_equiv_pos_as_xyz
1 x,y,z
2 1/2-x,1/2+y,1/2-z
3 -x,-y,-z
4 1/2+x,1/2-y,1/2+z
_cell_length_a                   13.4483(3)
_cell_length_b                   13.6265(4)
_cell_length_c                   16.7260(4)
_cell_angle_alpha                90
_cell_angle_beta                 91.359(2)
_cell_angle_gamma                90
_cell_volume                     3064.23
_exptl_crystal_colour            'dark blue'
_exptl_crystal_description       needle
_cell_formula_units_Z            4
_exptl_crystal_recrystallization_method dichloromethane/methanol
_exptl_crystal_preparation       Thiopent
loop_
_atom_site_label
_atom_site_type_symbol
_atom_site_fract_x
_atom_site_fract_y
_atom_site_fract_z
C1 C 0.83847(17) 0.53922(17) 0.17349(14)
C2 C 0.76177(17) 0.50520(19) 0.19667(15)
C3 C 0.5914(4) 0.5262(5) 0.3076(3)
H1 H 0.5948 0.5929 0.2857
C4 C 0.6480(8) 0.5365(15) 0.3847(6)
H2 H 0.6219 0.5907 0.4143
H3 H 0.7169 0.5481 0.3743
H4 H 0.6417 0.4773 0.4153
C5 C 0.4772(7) 0.5133(10) 0.3205(7)
H5 H 0.4622 0.4449 0.3269
H6 H 0.4408 0.5387 0.2750
H7 H 0.4585 0.5484 0.3677
C6 C 0.5615(2) 0.4570(3) 0.1311(3)
H8 H 0.6005 0.4275 0.0886
C7 C 0.5419(4) 0.5630(4) 0.1062(4)
H9 H 0.4956 0.5642 0.0617
H10 H 0.6032 0.5931 0.0911
H11 H 0.5147 0.5984 0.1502
C8 C 0.4658(3) 0.3946(5) 0.1372(4)
H12 H 0.4256 0.4201 0.1791
H13 H 0.4834 0.3278 0.1491
H14 H 0.4291 0.3972 0.0873
C9 C 0.6690(3) 0.3177(3) 0.2505(2)
H15 H 0.6076 0.2880 0.2697
C10 C 0.7004(3) 0.2620(3) 0.1785(2)
H16 H 0.7602 0.2903 0.1584
H17 H 0.6487 0.2651 0.1380
H18 H 0.7125 0.1947 0.1928
C11 C 0.7497(5) 0.3077(4) 0.3172(3)
H19 H 0.7648 0.2395 0.3255
H20 H 0.7259 0.3356 0.3658
H21 H 0.8087 0.3417 0.3016
C12 C 0.92879(15) 0.58394(16) 0.14842(14)
C13 C 0.94177(16) 0.60567(16) 0.06613(14)
C14 C 0.86999(17) 0.58010(18) 0.00701(15)
H22 H 0.8124 0.5480 0.0222
C15 C 0.88273(17) 0.60131(17) -0.07302(15)
C16 C 0.8112(2) 0.5732(2) -0.13391(17)
H23 H 0.7542 0.5395 -0.1196
C17 C 0.8255(2) 0.5950(2) -0.21201(17)
H24 H 0.7783 0.5760 -0.2505
C18 C 0.9116(2) 0.6465(2) -0.23523(16)
H25 H 0.9202 0.6615 -0.2889
C19 C 0.9818(2) 0.6741(2) -0.18018(16)
H26 H 1.0380 0.7078 -0.1965
C20 C 0.97049(18) 0.65204(18) -0.09699(15)
C21 C 1.04180(17) 0.67796(18) -0.03973(14)
H27 H 1.0984 0.7113 -0.0556
C22 C 1.03120(16) 0.65525(17) 0.04206(14)
C23 C 1.10532(16) 0.67921(17) 0.09991(14)
C24 C 1.09370(16) 0.65514(16) 0.18124(13)
C25 C 1.16835(17) 0.67663(18) 0.23973(14)
H28 H 1.2273 0.7058 0.2240
C26 C 1.15579(17) 0.65528(17) 0.31985(14)
C27 C 1.2303(2) 0.6789(2) 0.37958(16)
H29 H 1.2907 0.7052 0.3642
C28 C 1.2137(2) 0.6632(2) 0.45829(16)
H30 H 1.2622 0.6802 0.4964
C29 C 1.1228(2) 0.6210(2) 0.48286(15)
H31 H 1.1122 0.6112 0.5370
C30 C 1.05129(19) 0.59478(19) 0.42844(15)
H32 H 0.9928 0.5661 0.4457
C31 C 1.06463(17) 0.61059(17) 0.34484(14)
C32 C 0.99220(16) 0.58664(17) 0.28804(14)
H33 H 0.9343 0.5560 0.3043
C33 C 1.00365(15) 0.60741(16) 0.20584(13)
C34 C 1.19747(16) 0.72990(18) 0.07594(13)
C35 C 1.3661(2) 0.7655(2) 0.03791(17)
H34 H 1.4316 0.7630 0.0213
C36 C 1.3196(2) 0.8500(2) 0.04852(17)
H35 H 1.3465 0.9118 0.0392
C37 C 1.2239(4) 0.8320(6) 0.0758(5)
H36 H 1.1814 0.8814 0.0924
S1 S 1.30113(10) 0.66373(10) 0.05585(11)
Si1 Si 0.64209(5) 0.45166(6) 0.22516(5)
H37? H 0.5527 0.5848 0.2931
H38? H 1.4324 0.7548 0.0259
H39? H 1.3534 0.9087 0.0410
C38? C 1.2891(8) 0.6949(10) 0.0495(9)
H40? H 1.2995 0.6285 0.0400
S2? S 1.2015(2) 0.8519(3) 0.0751(3)
C39? C 0.5353(14) 0.4390(12) 0.3687(9)
H41? H 0.5709 0.3781 0.3656
H42? H 0.4676 0.4293 0.3510
H43? H 0.5367 0.4619 0.4230
C40? C 0.6754(11) 0.537(2) 0.3752(8)
H44? H 0.6464 0.5614 0.4233
H45? H 0.7250 0.5829 0.3579
H46? H 0.7058 0.4747 0.3854
loop_
_geom_bond_atom_site_label_1
_geom_bond_atom_site_label_2
_geom_bond_site_symmetry_1
_geom_bond_site_symmetry_2
C1 C2 1_555 1_555
C2 Si1 1_555 1_555
C3 H1 1_555 1_555
C4 C3 1_555 1_555
H2 C4 1_555 1_555
H3 C4 1_555 1_555
H4 C4 1_555 1_555
C5 C3 1_555 1_555
H5 C5 1_555 1_555
H6 C5 1_555 1_555
H7 C5 1_555 1_555
C6 H8 1_555 1_555
C7 C6 1_555 1_555
H9 C7 1_555 1_555
H10 C7 1_555 1_555
H11 C7 1_555 1_555
C8 C6 1_555 1_555
H12 C8 1_555 1_555
H13 C8 1_555 1_555
H14 C8 1_555 1_555
C9 H15 1_555 1_555
C10 C9 1_555 1_555
H16 C10 1_555 1_555
H17 C10 1_555 1_555
H18 C10 1_555 1_555
C11 C9 1_555 1_555
H19 C11 1_555 1_555
H20 C11 1_555 1_555
H21 C11 1_555 1_555
C12 C1 1_555 1_555
C13 C12 1_555 1_555
C14 C13 1_555 1_555
H22 C14 1_555 1_555
C15 C14 1_555 1_555
C16 C15 1_555 1_555
H23 C16 1_555 1_555
C17 C16 1_555 1_555
H24 C17 1_555 1_555
C18 C17 1_555 1_555
H25 C18 1_555 1_555
C19 C18 1_555 1_555
H26 C19 1_555 1_555
C20 C15 1_555 1_555
C21 C20 1_555 1_555
H27 C21 1_555 1_555
C22 C13 1_555 1_555
C23 C22 1_555 1_555
C24 C23 1_555 1_555
C25 C24 1_555 1_555
H28 C25 1_555 1_555
C26 C25 1_555 1_555
C27 C26 1_555 1_555
H29 C27 1_555 1_555
C28 C27 1_555 1_555
H30 C28 1_555 1_555
C29 C28 1_555 1_555
H31 C29 1_555 1_555
C30 C29 1_555 1_555
H32 C30 1_555 1_555
C31 C26 1_555 1_555
C32 C31 1_555 1_555
H33 C32 1_555 1_555
C33 C12 1_555 1_555
C34 C23 1_555 1_555
C35 H34 1_555 1_555
C36 C35 1_555 1_555
H35 C36 1_555 1_555
C37 C34 1_555 1_555
H36 C37 1_555 1_555
S1 C34 1_555 1_555
Si1 C3 1_555 1_555
C6 Si1 1_555 1_555
C9 Si1 1_555 1_555
C19 C20 1_555 1_555
C21 C22 1_555 1_555
C24 C33 1_555 1_555
C30 C31 1_555 1_555
C32 C33 1_555 1_555
C35 S1 1_555 1_555
C36 C37 1_555 1_555

#END
