
#######################################################################
#
#                 Cambridge Crystallographic Data Centre
#                                CCDC 
#
#######################################################################
#
# If this CIF has been generated from an entry in the Cambridge 
# Structural Database, then it will include bibliographic, chemical, 
# crystal, experimental, refinement or atomic coordinate data resulting 
# from the CCDC's data processing and validation procedures.
#
#######################################################################

data_IZUJUK
_chemical_formula_moiety         'C30 H28 O2 Si1'
_chemical_name_systematic        
13-hydroxy-13-((triethylsilyl)ethynyl)pentacen-6(13H)-one
_symmetry_cell_setting           triclinic
_symmetry_space_group_name_H-M   'P -1'
_symmetry_Int_Tables_number      2
_space_group_name_Hall           '-P 1'
loop_
_symmetry_equiv_pos_site_id
_symmetry_equiv_pos_as_xyz
1 x,y,z
2 -x,-y,-z
_cell_length_a                   8.2573(14)
_cell_length_b                   9.4816(15)
_cell_length_c                   16.088(3)
_cell_angle_alpha                94.039(2)
_cell_angle_beta                 98.657(2)
_cell_angle_gamma                104.169(2)
_cell_volume                     1199.75
_exptl_crystal_colour            yellow
_exptl_crystal_description       block
_cell_formula_units_Z            2
loop_
_atom_site_label
_atom_site_type_symbol
_atom_site_fract_x
_atom_site_fract_y
_atom_site_fract_z
Si1 Si 0.14264(8) 0.76017(6) 0.85700(3)
O1 O 0.23378(18) 0.30209(14) 0.44636(9)
O2 O 0.53998(17) 0.78929(14) 0.64270(9)
H1 H 0.6070 0.7646 0.6137
C1 C 0.2748(2) 0.4084(2) 0.50156(12)
C2 C 0.2215(2) 0.5437(2) 0.48559(12)
C3 C 0.1205(2) 0.5453(2) 0.40964(12)
H2 H 0.0831 0.4589 0.3708
C4 C 0.0711(3) 0.6721(2) 0.38790(12)
C5 C -0.0348(3) 0.6758(2) 0.31107(13)
H3 H -0.0765 0.5899 0.2720
C6 C -0.0780(3) 0.8014(3) 0.29206(15)
H4 H -0.1506 0.8019 0.2404
C7 C -0.0152(3) 0.9303(3) 0.34895(14)
H5 H -0.0449 1.0175 0.3349
C8 C 0.0876(3) 0.9311(2) 0.42387(14)
H6 H 0.1300 1.0193 0.4611
C9 C 0.1323(3) 0.8020(2) 0.44710(12)
C10 C 0.2323(3) 0.7960(2) 0.52529(12)
H7 H 0.2703 0.8813 0.5650
C11 C 0.2765(2) 0.6705(2) 0.54591(12)
C12 C 0.3859(2) 0.6731(2) 0.63206(12)
C13 C 0.4294(2) 0.5267(2) 0.64703(12)
C14 C 0.5215(3) 0.5160(2) 0.72340(13)
H8 H 0.5537 0.5978 0.7656
C15 C 0.5704(3) 0.3867(2) 0.74151(13)
C16 C 0.6654(3) 0.3734(2) 0.82031(14)
H9 H 0.6975 0.4531 0.8638
C17 C 0.7112(3) 0.2464(3) 0.83428(16)
H10 H 0.7754 0.2392 0.8873
C18 C 0.6641(3) 0.1261(2) 0.77078(16)
H11 H 0.6967 0.0388 0.7815
C19 C 0.5722(3) 0.1343(2) 0.69436(15)
H12 H 0.5411 0.0526 0.6522
C20 C 0.5226(2) 0.2647(2) 0.67734(13)
C21 C 0.4274(3) 0.2776(2) 0.59949(13)
H13 H 0.3953 0.1971 0.5565
C22 C 0.3789(2) 0.4044(2) 0.58363(12)
C23 C 0.2974(2) 0.7109(2) 0.70124(12)
C24 C 0.2316(3) 0.7369(2) 0.76007(12)
C25 C 0.1278(3) 0.5868(2) 0.90856(15)
H14 H 0.0872 0.5993 0.9628
H15 H 0.0417 0.5066 0.8717
C26 C 0.2933(4) 0.5408(3) 0.92612(18)
H16 H 0.2739 0.4497 0.9528
H17 H 0.3789 0.6178 0.9641
H18 H 0.3335 0.5252 0.8728
C27 C 0.2908(3) 0.9178(2) 0.92861(13)
H19 H 0.2554 0.9186 0.9847
H20 H 0.4059 0.9018 0.9362
C28 C 0.3001(3) 1.0676(3) 0.89788(15)
H21 H 0.3805 1.1432 0.9390
H22 H 0.1876 1.0864 0.8919
H23 H 0.3381 1.0694 0.8430
C29 C -0.0709(3) 0.7934(3) 0.82631(14)
H24 H -0.0579 0.8820 0.7963
H25 H -0.1425 0.7098 0.7861
C30 C -0.1641(3) 0.8136(3) 0.90041(17)
H26 H -0.2737 0.8318 0.8788
H27 H -0.0954 0.8970 0.9404
H28 H -0.1825 0.7248 0.9292
loop_
_geom_bond_atom_site_label_1
_geom_bond_atom_site_label_2
_geom_bond_site_symmetry_1
_geom_bond_site_symmetry_2
Si1 C24 1_555 1_555
O1 C1 1_555 1_555
O2 H1 1_555 1_555
C1 C2 1_555 1_555
C2 C3 1_555 1_555
C3 H2 1_555 1_555
C4 C3 1_555 1_555
C5 C4 1_555 1_555
H3 C5 1_555 1_555
C6 C5 1_555 1_555
H4 C6 1_555 1_555
C7 C6 1_555 1_555
H5 C7 1_555 1_555
C8 C7 1_555 1_555
H6 C8 1_555 1_555
C9 C4 1_555 1_555
C10 C9 1_555 1_555
H7 C10 1_555 1_555
C11 C2 1_555 1_555
C12 O2 1_555 1_555
C13 C12 1_555 1_555
C14 C13 1_555 1_555
H8 C14 1_555 1_555
C15 C14 1_555 1_555
C16 C15 1_555 1_555
H9 C16 1_555 1_555
C17 C16 1_555 1_555
H10 C17 1_555 1_555
C18 C17 1_555 1_555
H11 C18 1_555 1_555
C19 C18 1_555 1_555
H12 C19 1_555 1_555
C20 C15 1_555 1_555
C21 C20 1_555 1_555
H13 C21 1_555 1_555
C22 C1 1_555 1_555
C23 C12 1_555 1_555
C24 C23 1_555 1_555
C25 Si1 1_555 1_555
H14 C25 1_555 1_555
H15 C25 1_555 1_555
C26 C25 1_555 1_555
H16 C26 1_555 1_555
H17 C26 1_555 1_555
H18 C26 1_555 1_555
C27 Si1 1_555 1_555
H19 C27 1_555 1_555
H20 C27 1_555 1_555
C28 C27 1_555 1_555
H21 C28 1_555 1_555
H22 C28 1_555 1_555
H23 C28 1_555 1_555
C29 Si1 1_555 1_555
H24 C29 1_555 1_555
H25 C29 1_555 1_555
C30 C29 1_555 1_555
H26 C30 1_555 1_555
H27 C30 1_555 1_555
H28 C30 1_555 1_555
C8 C9 1_555 1_555
C10 C11 1_555 1_555
C11 C12 1_555 1_555
C13 C22 1_555 1_555
C19 C20 1_555 1_555
C21 C22 1_555 1_555

#END
