
#######################################################################
#
#                 Cambridge Crystallographic Data Centre
#                                CCDC 
#
#######################################################################
#
# If this CIF has been generated from an entry in the Cambridge 
# Structural Database, then it will include bibliographic, chemical, 
# crystal, experimental, refinement or atomic coordinate data resulting 
# from the CCDC's data processing and validation procedures.
#
#######################################################################

data_IZUNUN
_chemical_formula_moiety         'C27 H19 B1 N2 S3'
_chemical_name_systematic        
3,4,4-tris(2-thienyl)-8-phenyl-4-bora-3a,4a-diaza-s-indacene
_symmetry_cell_setting           monoclinic
_symmetry_space_group_name_H-M   'P 21/n'
_symmetry_Int_Tables_number      14
_space_group_name_Hall           '-P 2yn'
loop_
_symmetry_equiv_pos_site_id
_symmetry_equiv_pos_as_xyz
1 x,y,z
2 1/2-x,1/2+y,1/2-z
3 -x,-y,-z
4 1/2+x,1/2-y,1/2+z
_cell_length_a                   8.5287(6)
_cell_length_b                   9.1106(7)
_cell_length_c                   30.020(2)
_cell_angle_alpha                90
_cell_angle_beta                 95.135(5)
_cell_angle_gamma                90
_cell_volume                     2323.24
_cell_formula_units_Z            4
loop_
_atom_site_label
_atom_site_type_symbol
_atom_site_fract_x
_atom_site_fract_y
_atom_site_fract_z
B1 B 0.6050(11) 0.2936(9) 0.1160(3)
N1 N 0.4329(7) 0.2391(7) 0.12395(19)
N2 N 0.5916(7) 0.4663(6) 0.11729(19)
S1 S 0.9085(3) 0.6912(3) 0.05349(8)
S2 S 0.7504(3) 0.0641(2) 0.17456(8)
C1 C 0.3704(10) 0.1055(9) 0.1139(3)
H1 H 0.4165 0.0337 0.0973
C2 C 0.2262(11) 0.0913(10) 0.1322(3)
H2 H 0.1606 0.0096 0.1303
C3 C 0.1997(10) 0.2219(9) 0.1537(3)
H3 H 0.1122 0.2444 0.1688
C4 C 0.3290(9) 0.3148(8) 0.1485(2)
C5 C 0.3521(9) 0.4627(8) 0.1575(2)
C6 C 0.4753(9) 0.5388(8) 0.1408(2)
C7 C 0.5132(10) 0.6896(9) 0.1421(3)
H4 H 0.4582 0.7627 0.1557
C8 C 0.6453(10) 0.7101(8) 0.1198(3)
H5 H 0.6944 0.7993 0.1153
C9 C 0.6933(9) 0.5711(8) 0.1050(2)
C10 C 0.6420(9) 0.2313(9) 0.0681(2)
C11 C 0.7217(9) 0.2461(8) 0.1596(2)
C12 C 0.7966(8) 0.3339(8) 0.1925(2)
H6 H 0.7957 0.4360 0.1916
C13 C 0.8744(10) 0.2515(10) 0.2275(3)
H7 H 0.9316 0.2944 0.2519
C14 C 0.8587(11) 0.1063(11) 0.2226(3)
H8 H 0.9020 0.0375 0.2430
C15 C 1.0717(11) 0.5959(12) 0.0436(3)
H9 H 1.1510 0.6321 0.0273
C16 C 1.0734(11) 0.4596(11) 0.0623(3)
H10 H 1.1542 0.3923 0.0600
C17 C 0.9413(9) 0.4313(9) 0.0852(2)
H11 H 0.9256 0.3437 0.1001
C18 C 0.8362(10) 0.5469(9) 0.0834(2)
C19 C 0.2365(9) 0.5445(9) 0.1833(2)
C20 C 0.2106(10) 0.4994(10) 0.2260(3)
H12 H 0.2655 0.4194 0.2388
C21 C 0.1053(12) 0.5713(11) 0.2493(3)
H13 H 0.0914 0.5424 0.2784
C22 C 0.0195(11) 0.6855(11) 0.2306(4)
H14 H -0.0554 0.7319 0.2464
C23 C 0.0443(11) 0.7311(10) 0.1886(3)
H15 H -0.0129 0.8101 0.1761
C24 C 0.1528(10) 0.6622(9) 0.1645(3)
H16 H 0.1694 0.6945 0.1359
S3 S 0.5375(5) 0.2929(4) 0.02189(11)
C25 C 0.7541(6) 0.0934(5) 0.05922(16)
H17 H 0.8202 0.0374 0.0788
C26 C 0.6165(13) 0.1786(12) -0.0117(3)
H18 H 0.5918 0.1808 -0.0425
C27 C 0.7171(14) 0.0833(11) 0.0075(4)
H19 H 0.7643 0.0125 -0.0091
loop_
_geom_bond_atom_site_label_1
_geom_bond_atom_site_label_2
_geom_bond_site_symmetry_1
_geom_bond_site_symmetry_2
B1 N1 1_555 1_555
N1 C1 1_555 1_555
N2 B1 1_555 1_555
S1 C15 1_555 1_555
S2 C11 1_555 1_555
C1 H1 1_555 1_555
C2 C1 1_555 1_555
H2 C2 1_555 1_555
C3 C2 1_555 1_555
H3 C3 1_555 1_555
C4 N1 1_555 1_555
C5 C4 1_555 1_555
C6 N2 1_555 1_555
C7 C6 1_555 1_555
H4 C7 1_555 1_555
C8 C7 1_555 1_555
H5 C8 1_555 1_555
C9 N2 1_555 1_555
C10 B1 1_555 1_555
C11 B1 1_555 1_555
C12 C11 1_555 1_555
H6 C12 1_555 1_555
C13 C12 1_555 1_555
H7 C13 1_555 1_555
C14 S2 1_555 1_555
H8 C14 1_555 1_555
C15 H9 1_555 1_555
C16 C15 1_555 1_555
H10 C16 1_555 1_555
C17 C16 1_555 1_555
H11 C17 1_555 1_555
C18 S1 1_555 1_555
C19 C5 1_555 1_555
C20 C19 1_555 1_555
H12 C20 1_555 1_555
C21 C20 1_555 1_555
H13 C21 1_555 1_555
C22 C21 1_555 1_555
H14 C22 1_555 1_555
C23 C22 1_555 1_555
H15 C23 1_555 1_555
C24 C19 1_555 1_555
H16 C24 1_555 1_555
S3 C10 1_555 1_555
C25 C10 1_555 1_555
H17 C25 1_555 1_555
C26 S3 1_555 1_555
H18 C26 1_555 1_555
C27 C25 1_555 1_555
H19 C27 1_555 1_555
C3 C4 1_555 1_555
C5 C6 1_555 1_555
C8 C9 1_555 1_555
C9 C18 1_555 1_555
C13 C14 1_555 1_555
C17 C18 1_555 1_555
C23 C24 1_555 1_555
C26 C27 1_555 1_555

#END
