
#######################################################################
#
#                 Cambridge Crystallographic Data Centre
#                                CCDC 
#
#######################################################################
#
# If this CIF has been generated from an entry in the Cambridge 
# Structural Database, then it will include bibliographic, chemical, 
# crystal, experimental, refinement or atomic coordinate data resulting 
# from the CCDC's data processing and validation procedures.
#
#######################################################################

data_IZUYAD
_chemical_formula_moiety         'C22 H28 N2 Si2'
_chemical_name_systematic        
3-(1,1,1,3,3,3-Hexamethyldisilazan-2-yl)-1-phenyl-1H-indene-2-carbonitrile
_symmetry_cell_setting           orthorhombic
_symmetry_space_group_name_H-M   'P 21 21 21'
_symmetry_Int_Tables_number      19
_space_group_name_Hall           'P 2ac 2ab'
loop_
_symmetry_equiv_pos_site_id
_symmetry_equiv_pos_as_xyz
1 x,y,z
2 1/2+x,1/2-y,-z
3 -x,1/2+y,1/2-z
4 1/2-x,-y,1/2+z
_cell_length_a                   8.6317(2)
_cell_length_b                   14.8822(3)
_cell_length_c                   17.5719(3)
_cell_angle_alpha                90
_cell_angle_beta                 90
_cell_angle_gamma                90
_cell_volume                     2257.26
_exptl_crystal_colour            colorless
_exptl_crystal_description       sphere
_chemical_melting_point          129-130deg.C
_cell_formula_units_Z            4
loop_
_atom_site_label
_atom_site_type_symbol
_atom_site_fract_x
_atom_site_fract_y
_atom_site_fract_z
Si1 Si 0.6094(1) 0.23433(6) 0.13852(4)
Si2 Si 0.3232(1) 0.13918(6) 0.21189(5)
N1 N 0.3892(3) 0.3845(2) 0.3531(1)
N2 N 0.5083(3) 0.1893(1) 0.2154(1)
C1 C 0.6649(3) 0.2223(2) 0.4137(1)
C2 C 0.7449(3) 0.1380(2) 0.3852(1)
C3 C 0.8477(3) 0.0825(2) 0.4222(2)
C4 C 0.9043(4) 0.0080(2) 0.3837(2)
C5 C 0.8570(4) -0.0109(2) 0.3097(2)
C6 C 0.7529(4) 0.0439(2) 0.2734(2)
C7 C 0.6976(3) 0.1188(2) 0.3111(1)
C8 C 0.5834(3) 0.1872(2) 0.2875(1)
C9 C 0.5646(3) 0.2462(2) 0.3456(1)
C10 C 0.4667(3) 0.3222(2) 0.3474(1)
C11 C 0.7966(4) 0.2798(3) 0.1735(2)
C12 C 0.5022(6) 0.3289(3) 0.0961(3)
C13 C 0.6469(9) 0.1471(3) 0.0648(2)
C14 C 0.1847(4) 0.1986(3) 0.2754(3)
C15 C 0.3317(5) 0.0231(2) 0.2488(3)
C16 C 0.2447(8) 0.1380(5) 0.1161(2)
C17 C 0.7714(3) 0.2983(2) 0.4363(1)
C18 C 0.8989(3) 0.3214(2) 0.3928(1)
C19 C 0.9921(4) 0.3937(2) 0.4126(2)
C20 C 0.9586(4) 0.4441(2) 0.4756(2)
C21 C 0.8338(4) 0.4213(2) 0.5196(2)
C22 C 0.7406(3) 0.3492(2) 0.5012(1)
H1 H 0.5955(3) 0.2063(2) 0.4587(1)
H2 H 0.8805(3) 0.0961(2) 0.4767(2)
H3 H 0.9800(4) -0.0338(2) 0.4108(2)
H4 H 0.9034(4) -0.0645(2) 0.2817(2)
H5 H 0.7149(4) 0.0301(2) 0.2197(2)
H6 H 0.8596(4) 0.2299(3) 0.1985(2)
H7 H 0.8579(4) 0.3063(3) 0.1292(2)
H8 H 0.7743(4) 0.3289(3) 0.2124(2)
H9 H 0.4878(6) 0.3773(3) 0.1366(3)
H10 H 0.5618(6) 0.3550(3) 0.0511(3)
H11 H 0.3964(6) 0.3069(3) 0.0781(3)
H12 H 0.5433(9) 0.1220(3) 0.0466(2)
H13 H 0.7050(9) 0.1741(3) 0.0197(2)
H14 H 0.7113(9) 0.0966(3) 0.0880(2)
H15 H 0.2269(4) 0.1973(3) 0.3296(3)
H16 H 0.1717(4) 0.2636(3) 0.2582(3)
H17 H 0.0800(4) 0.1669(3) 0.2738(3)
H18 H 0.2241(5) -0.0051(2) 0.2481(3)
H19 H 0.4053(5) -0.0147(2) 0.2166(3)
H20 H 0.3715(5) 0.0256(2) 0.3034(3)
H21 H 0.2367(8) 0.2009(5) 0.0934(2)
H22 H 0.3197(8) 0.1004(5) 0.0845(2)
H23 H 0.1380(8) 0.1085(5) 0.1158(2)
H24 H 0.9238(3) 0.2843(2) 0.3455(1)
H25 H 1.0856(4) 0.4094(2) 0.3796(2)
H26 H 1.0264(4) 0.4975(2) 0.4900(2)
H27 H 0.8089(4) 0.4589(2) 0.5665(2)
H28 H 0.6494(3) 0.3321(2) 0.5351(1)
loop_
_geom_bond_atom_site_label_1
_geom_bond_atom_site_label_2
_geom_bond_site_symmetry_1
_geom_bond_site_symmetry_2
Si1 N2 1_555 1_555
Si2 N2 1_555 1_555
N1 C10 1_555 1_555
N2 C8 1_555 1_555
C1 C2 1_555 1_555
C2 C3 1_555 1_555
C3 C4 1_555 1_555
C4 C5 1_555 1_555
C5 C6 1_555 1_555
C6 C7 1_555 1_555
C7 C2 1_555 1_555
C8 C7 1_555 1_555
C9 C1 1_555 1_555
C10 C9 1_555 1_555
C11 Si1 1_555 1_555
C12 Si1 1_555 1_555
C13 Si1 1_555 1_555
C14 Si2 1_555 1_555
C15 Si2 1_555 1_555
C16 Si2 1_555 1_555
C17 C1 1_555 1_555
C18 C17 1_555 1_555
C19 C18 1_555 1_555
C20 C19 1_555 1_555
C21 C20 1_555 1_555
C22 C17 1_555 1_555
H1 C1 1_555 1_555
H2 C3 1_555 1_555
H3 C4 1_555 1_555
H4 C5 1_555 1_555
H5 C6 1_555 1_555
H6 C11 1_555 1_555
H7 C11 1_555 1_555
H8 C11 1_555 1_555
H9 C12 1_555 1_555
H10 C12 1_555 1_555
H11 C12 1_555 1_555
H12 C13 1_555 1_555
H13 C13 1_555 1_555
H14 C13 1_555 1_555
H15 C14 1_555 1_555
H16 C14 1_555 1_555
H17 C14 1_555 1_555
H18 C15 1_555 1_555
H19 C15 1_555 1_555
H20 C15 1_555 1_555
H21 C16 1_555 1_555
H22 C16 1_555 1_555
H23 C16 1_555 1_555
H24 C18 1_555 1_555
H25 C19 1_555 1_555
H26 C20 1_555 1_555
H27 C21 1_555 1_555
H28 C22 1_555 1_555
C8 C9 1_555 1_555
C21 C22 1_555 1_555

#END
