
#######################################################################
#
#                 Cambridge Crystallographic Data Centre
#                                CCDC 
#
#######################################################################
#
# If this CIF has been generated from an entry in the Cambridge 
# Structural Database, then it will include bibliographic, chemical, 
# crystal, experimental, refinement or atomic coordinate data resulting 
# from the CCDC's data processing and validation procedures.
#
#######################################################################

data_IZUYOR
_chemical_formula_moiety         'C33 H42 N2 O6'
_chemical_name_systematic        
7,19,30-Trimethyl-4,10,16,22,27,33-hexaoxa-1,13-diazapentacyclo(11.11.11.1^5,9^.1^17,21^.1^28,32^)octatriaconta-5,7,9(36),17,19,21(37),28,30,32(38)-nonaene
_symmetry_cell_setting           monoclinic
_symmetry_space_group_name_H-M   'P 21/c'
_symmetry_Int_Tables_number      14
_space_group_name_Hall           '-P 2ybc'
loop_
_symmetry_equiv_pos_site_id
_symmetry_equiv_pos_as_xyz
1 x,y,z
2 x,1/2-y,1/2+z
3 -x,-y,-z
4 -x,1/2+y,1/2-z
_cell_length_a                   23.8036(9)
_cell_length_b                   24.5239(9)
_cell_length_c                   23.6930(9)
_cell_angle_alpha                90
_cell_angle_beta                 118.8860(10)
_cell_angle_gamma                90
_cell_volume                     12110.1
_exptl_crystal_colour            colorless
_exptl_crystal_description       block
_cell_formula_units_Z            16
loop_
_atom_site_label
_atom_site_type_symbol
_atom_site_fract_x
_atom_site_fract_y
_atom_site_fract_z
O1 O 0.46764(15) 0.65988(14) 0.73842(16)
O2 O 0.57378(14) 0.60023(14) 0.62851(15)
O3 O 0.45075(15) 0.81033(14) 0.67815(16)
O4 O 0.54554(15) 0.75576(13) 0.55569(16)
O5 O 0.63743(14) 0.77052(14) 0.87350(15)
O6 O 0.74245(14) 0.73090(13) 0.74636(15)
N1 N 0.46168(18) 0.76424(16) 0.7917(2)
N2 N 0.64080(18) 0.67311(16) 0.58595(18)
C1 C 0.3426(2) 0.5583(2) 0.5351(2)
H1 H 0.3082 0.5653 0.5456
H2 H 0.3485 0.5189 0.5338
H3 H 0.3311 0.5741 0.4929
C2 C 0.4041(2) 0.5838(2) 0.5858(2)
C3 C 0.4045(2) 0.6111(2) 0.6375(2)
H4 H 0.3663 0.6143 0.6405
C4 C 0.4617(2) 0.63373(19) 0.6847(2)
C5 C 0.5178(2) 0.62937(19) 0.6806(2)
H5 H 0.5569 0.6442 0.7133
C6 C 0.5157(2) 0.60302(19) 0.6279(2)
C7 C 0.4601(2) 0.57959(19) 0.5811(2)
H6 H 0.4599 0.5608 0.5460
C8 C 0.5677(2) 0.94929(19) 0.6221(3)
H7 H 0.5916 0.9503 0.5980
H8 H 0.5959 0.9606 0.6667
H9 H 0.5310 0.9742 0.6020
C9 C 0.5442(2) 0.8923(2) 0.6212(2)
C10 C 0.5089(2) 0.8798(2) 0.6522(2)
H10 H 0.5003 0.9072 0.6753
C11 C 0.4862(2) 0.8271(2) 0.6492(2)
C12 C 0.4997(2) 0.7861(2) 0.6173(2)
H11 H 0.4850 0.7499 0.6165
C13 C 0.5350(2) 0.7990(2) 0.5864(2)
C14 C 0.5574(2) 0.8515(2) 0.5885(2)
H12 H 0.5819 0.8597 0.5676
C15 C 0.8697(2) 0.7814(2) 0.9715(2)
H13 H 0.9035 0.7753 0.9599
H14 H 0.8759 0.7565 1.0064
H15 H 0.8717 0.8191 0.9859
C16 C 0.8048(2) 0.77094(19) 0.9133(2)
C17 C 0.7484(2) 0.77646(19) 0.9173(2)
H16 H 0.7504 0.7878 0.9566
C18 C 0.6895(2) 0.76532(18) 0.8640(2)
C19 C 0.6850(2) 0.75025(18) 0.8053(2)
H17 H 0.6445 0.7435 0.7687
C20 C 0.7413(2) 0.74528(19) 0.8017(2)
C21 C 0.7999(2) 0.7554(2) 0.8552(2)
H18 H 0.8379 0.7515 0.8519
C22 C 0.4100(2) 0.6791(2) 0.7374(3)
H19 H 0.3846 0.6479 0.7394
H20 H 0.3834 0.6996 0.6972
C23 C 0.4299(2) 0.7152(2) 0.7948(3)
H21 H 0.3914 0.7254 0.7982
H22 H 0.4591 0.6947 0.8342
C24 C 0.4471(2) 0.8454(2) 0.7250(2)
H23 H 0.4180 0.8765 0.7033
H24 H 0.4901 0.8600 0.7552
C25 C 0.4219(2) 0.8114(2) 0.7605(2)
H25 H 0.4191 0.8342 0.7935
H26 H 0.3780 0.7989 0.7298
C26 C 0.5744(2) 0.7631(2) 0.8191(2)
H27 H 0.5694 0.7254 0.8025
H28 H 0.5676 0.7887 0.7841
C27 C 0.5266(2) 0.7742(2) 0.8431(2)
H29 H 0.5360 0.7502 0.8803
H30 H 0.5306 0.8126 0.8577
C28 C 0.5722(2) 0.5930(2) 0.5679(2)
H31 H 0.5359 0.6135 0.5336
H32 H 0.5674 0.5539 0.5559
C29 C 0.6357(2) 0.61481(19) 0.5768(2)
H33 H 0.6712 0.5970 0.6148
H34 H 0.6400 0.6054 0.5385
C30 C 0.5937(2) 0.7619(2) 0.5372(3)
H35 H 0.6310 0.7817 0.5711
H36 H 0.5768 0.7830 0.4967
C31 C 0.6138(2) 0.7061(2) 0.5278(2)
H37 H 0.5760 0.6871 0.4936
H38 H 0.6460 0.7099 0.5130
C32 C 0.6842(2) 0.7126(2) 0.6925(2)
H39 H 0.6525 0.7427 0.6763
H40 H 0.6658 0.6821 0.7057
C33 C 0.6985(2) 0.6940(2) 0.6402(2)
H41 H 0.7154 0.7249 0.6261
H42 H 0.7316 0.6651 0.6572
O7 O 0.24866(16) 0.43662(14) 0.28264(16)
O8 O 0.32152(15) 0.38190(14) 0.14124(16)
O9 O 0.22693(16) 0.57994(13) 0.18573(17)
O10 O 0.31029(15) 0.50705(13) 0.06031(15)
O11 O 0.43653(14) 0.56109(14) 0.37087(15)
O12 O 0.51221(14) 0.48672(13) 0.22933(14)
N3 N 0.26489(18) 0.55152(16) 0.31482(19)
N4 N 0.39750(18) 0.42202(17) 0.07892(18)
C34 C 0.0874(2) 0.3791(3) 0.0626(3)
H43 H 0.0577 0.3877 0.0790
H44 H 0.0831 0.3406 0.0501
H45 H 0.0773 0.4020 0.0249
C35 C 0.1558(2) 0.3903(2) 0.1147(3)
C36 C 0.1682(2) 0.40921(19) 0.1744(2)
H46 H 0.1340 0.4156 0.1835
C37 C 0.2313(2) 0.41883(19) 0.2213(2)
C38 C 0.2814(2) 0.40900(19) 0.2087(2)
H47 H 0.3244 0.4150 0.2412
C39 C 0.2688(2) 0.3905(2) 0.1488(2)
C40 C 0.2060(2) 0.3803(2) 0.1015(2)
H48 H 0.1973 0.3668 0.0605
C41 C 0.2988(2) 0.7086(2) 0.0723(3)
H49 H 0.3180 0.7065 0.0439
H50 H 0.3274 0.7290 0.1113
H51 H 0.2573 0.7271 0.0498
C42 C 0.2893(2) 0.6516(2) 0.0907(2)
C43 C 0.2621(2) 0.6440(2) 0.1304(2)
H52 H 0.2499 0.6746 0.1466
C44 C 0.2530(2) 0.5914(2) 0.1465(2)
C45 C 0.2691(2) 0.54617(19) 0.1226(2)
H53 H 0.2619 0.5105 0.1334
C46 C 0.2963(2) 0.5537(2) 0.0826(2)
C47 C 0.3069(2) 0.6066(2) 0.0672(2)
H54 H 0.3262 0.6116 0.0406
C48 C 0.6541(2) 0.5953(2) 0.4149(2)
H55 H 0.6823 0.5876 0.3964
H56 H 0.6732 0.5803 0.4587
H57 H 0.6489 0.6348 0.4165
C49 C 0.5894(2) 0.56933(19) 0.3737(2)
C50 C 0.5407(2) 0.57475(19) 0.3899(2)
H58 H 0.5484 0.5946 0.4274
C51 C 0.4810(2) 0.55135(19) 0.3518(2)
C52 C 0.4681(2) 0.52153(18) 0.2971(2)
H59 H 0.4271 0.5058 0.2709
C53 C 0.5180(2) 0.51547(18) 0.2820(2)
C54 C 0.5772(2) 0.53996(19) 0.3191(2)
H60 H 0.6096 0.5365 0.3069
C55 C 0.2034(2) 0.4677(2) 0.2938(3)
H61 H 0.1811 0.4438 0.3104
H62 H 0.1709 0.4850 0.2534
C56 C 0.2423(2) 0.5102(2) 0.3429(2)
H63 H 0.2157 0.5276 0.3596
H64 H 0.2795 0.4927 0.3795
C57 C 0.2290(2) 0.6214(2) 0.2290(2)
H65 H 0.1955 0.6492 0.2055
H66 H 0.2714 0.6397 0.2494
C58 C 0.2175(2) 0.5939(2) 0.2799(3)
H67 H 0.2190 0.6217 0.3109
H68 H 0.1741 0.5775 0.2590
C59 C 0.3719(2) 0.5441(2) 0.3293(2)
H69 H 0.3687 0.5039 0.3294
H70 H 0.3577 0.5563 0.2846
C60 C 0.3311(2) 0.5698(2) 0.3548(2)
H71 H 0.3468 0.5587 0.4002
H72 H 0.3334 0.6100 0.3532
C61 C 0.3097(2) 0.3678(2) 0.0784(2)
H73 H 0.2796 0.3943 0.0466
H74 H 0.2901 0.3311 0.0668
C62 C 0.3729(2) 0.36834(19) 0.0774(2)
H75 H 0.4050 0.3476 0.1151
H76 H 0.3671 0.3494 0.0380
C63 C 0.3497(2) 0.5114(2) 0.0300(2)
H77 H 0.3888 0.5328 0.0574
H78 H 0.3259 0.5299 -0.0122
C64 C 0.3676(2) 0.4543(2) 0.0211(2)
H79 H 0.3283 0.4353 -0.0108
H80 H 0.3971 0.4565 0.0028
C65 C 0.4505(2) 0.4655(2) 0.1847(2)
H81 H 0.4183 0.4951 0.1674
H82 H 0.4363 0.4383 0.2061
C66 C 0.4581(2) 0.4389(2) 0.1311(2)
H83 H 0.4786 0.4651 0.1149
H84 H 0.4866 0.4068 0.1485
O13 O 0.25158(14) 0.76423(13) 0.25643(15)
O14 O 0.15795(15) 0.70146(14) 0.38758(15)
O15 O 0.05517(16) 0.87534(15) 0.14953(16)
O16 O -0.03750(17) 0.81634(14) 0.27194(19)
O17 O 0.04421(16) 0.73877(13) 0.05240(17)
O18 O -0.03130(17) 0.67083(14) 0.18715(17)
N5 N 0.13654(18) 0.82483(16) 0.10205(18)
N6 N -0.01700(18) 0.70412(17) 0.30853(19)
C67 C 0.3894(2) 0.6963(2) 0.4726(3)
H85 H 0.4210 0.7057 0.4590
H86 H 0.3921 0.6573 0.4825
H87 H 0.3980 0.7174 0.5111
C68 C 0.3227(2) 0.70961(19) 0.4188(2)
C69 C 0.3148(2) 0.73055(19) 0.3609(2)
H88 H 0.3512 0.7360 0.3551
C70 C 0.2544(2) 0.74345(18) 0.3117(2)
C71 C 0.1999(2) 0.73465(18) 0.3183(2)
H89 H 0.1583 0.7430 0.2842
C72 C 0.2083(2) 0.71337(19) 0.3761(2)
C73 C 0.2688(2) 0.70051(19) 0.4262(2)
H90 H 0.2734 0.6856 0.4652
C74 C -0.1799(2) 0.8939(3) 0.0557(3)
H91 H -0.2132 0.8850 0.0673
H92 H -0.1894 0.8752 0.0155
H93 H -0.1792 0.9334 0.0498
C75 C -0.1154(2) 0.8754(2) 0.1088(3)
C76 C -0.0613(2) 0.8843(2) 0.1013(3)
H94 H -0.0654 0.9008 0.0633
C77 C -0.0015(2) 0.8686(2) 0.1505(3)
C78 C 0.0049(2) 0.8454(2) 0.2068(3)
H95 H 0.0461 0.8351 0.2403
C79 C -0.0488(2) 0.8374(2) 0.2137(3)
C80 C -0.1085(2) 0.8524(2) 0.1643(3)
H96 H -0.1455 0.8466 0.1691
C81 C 0.0732(2) 0.5424(2) 0.1049(3)
H97 H 0.0937 0.5443 0.0777
H98 H 0.0361 0.5179 0.0850
H99 H 0.1040 0.5284 0.1476
C82 C 0.0513(2) 0.5986(2) 0.1118(2)
C83 C 0.0608(2) 0.64201(19) 0.0795(2)
H100 H 0.0824 0.6366 0.0551
C84 C 0.0381(2) 0.6939(2) 0.0834(2)
C85 C 0.0073(2) 0.7023(2) 0.1196(2)
H101 H -0.0078 0.7376 0.1222
C86 C -0.0014(2) 0.6588(2) 0.1519(2)
C87 C 0.0207(2) 0.6069(2) 0.1487(2)
H102 H 0.0151 0.5774 0.1715
C88 C 0.1898(2) 0.7809(2) 0.2059(2)
H103 H 0.1700 0.8071 0.2229
H104 H 0.1612 0.7489 0.1885
C89 C 0.1990(2) 0.8076(2) 0.1532(2)
H105 H 0.2279 0.8394 0.1707
H106 H 0.2186 0.7813 0.1360
C90 C 0.0531(2) 0.8901(2) 0.0900(2)
H107 H 0.0397 0.9285 0.0791
H108 H 0.0224 0.8666 0.0545
C91 C 0.1201(2) 0.88196(19) 0.1005(2)
H109 H 0.1241 0.9003 0.0654
H110 H 0.1509 0.8993 0.1417
C92 C 0.0970(2) 0.7400(2) 0.0393(3)
H111 H 0.0844 0.7234 -0.0033
H112 H 0.1338 0.7194 0.0726
C93 C 0.1151(2) 0.79975(19) 0.0397(2)
H113 H 0.1497 0.8023 0.0280
H114 H 0.0775 0.8199 0.0068
C94 C 0.0946(2) 0.7112(2) 0.3358(2)
H115 H 0.0880 0.6918 0.2965
H116 H 0.0878 0.7507 0.3262
C95 C 0.0485(2) 0.6905(2) 0.3573(2)
H117 H 0.0529 0.6505 0.3633
H118 H 0.0582 0.7073 0.3990
C96 C -0.0860(3) 0.7841(2) 0.2747(3)
H119 H -0.1131 0.7661 0.2328
H120 H -0.1137 0.8071 0.2854
C97 C -0.0513(3) 0.7422(2) 0.3267(3)
H121 H -0.0207 0.7608 0.3671
H122 H -0.0827 0.7222 0.3350
C98 C -0.0318(2) 0.6310(2) 0.2307(2)
H123 H 0.0120 0.6168 0.2583
H124 H -0.0601 0.6002 0.2065
C99 C -0.0562(2) 0.6582(2) 0.2709(3)
H125 H -0.1004 0.6712 0.2424
H126 H -0.0582 0.6309 0.3008
O19 O 0.01787(14) 0.48496(14) 0.25070(15)
O20 O -0.06072(15) 0.54842(15) 0.39436(16)
O21 O -0.18427(15) 0.50617(13) 0.07656(15)
O22 O -0.26766(16) 0.58259(13) 0.20059(16)
O23 O -0.16554(15) 0.36109(14) 0.15019(15)
O24 O -0.24435(15) 0.44697(14) 0.27128(17)
N7 N -0.09630(18) 0.42190(16) 0.09839(18)
N8 N -0.23352(17) 0.55433(16) 0.32944(19)
C100 C 0.1657(2) 0.5585(3) 0.4607(3)
H127 H 0.1954 0.5502 0.4442
H128 H 0.1787 0.5384 0.5009
H129 H 0.1666 0.5978 0.4689
C101 C 0.0983(2) 0.5417(2) 0.4112(2)
C102 C 0.0852(2) 0.5203(2) 0.3525(2)
H130 H 0.1193 0.5158 0.3428
C103 C 0.0238(2) 0.50503(19) 0.3073(2)
C104 C -0.0272(2) 0.51324(19) 0.3193(2)
H131 H -0.0697 0.5035 0.2882
C105 C -0.0143(2) 0.5359(2) 0.3776(2)
C106 C 0.0474(2) 0.5492(2) 0.4243(2)
H132 H 0.0551 0.5632 0.4648
C107 C -0.1882(3) 0.7075(2) 0.0892(3)
H133 H -0.1685 0.7041 0.0614
H134 H -0.1591 0.7272 0.1286
H135 H -0.2287 0.7276 0.0663
C108 C -0.2013(2) 0.65094(19) 0.1067(2)
C109 C -0.1846(2) 0.60535(19) 0.0832(2)
H136 H -0.1647 0.6094 0.0571
C110 C -0.1975(2) 0.5535(2) 0.0984(2)
C111 C -0.2253(2) 0.54714(19) 0.1378(2)
H137 H -0.2333 0.5117 0.1486
C112 C -0.2411(2) 0.59268(19) 0.1613(2)
C113 C -0.2294(2) 0.64483(19) 0.1459(2)
H138 H -0.2406 0.6760 0.1622
C114 C -0.4009(2) 0.3684(2) 0.0609(3)
H139 H -0.3995 0.3481 0.0260
H140 H -0.4247 0.4024 0.0438
H141 H -0.4223 0.3463 0.0794
C115 C -0.3336(2) 0.3813(2) 0.1124(3)
C116 C -0.2819(2) 0.3643(2) 0.1048(2)
H142 H -0.2890 0.3446 0.0673
C117 C -0.2194(2) 0.37621(19) 0.1526(2)
C118 C -0.2087(2) 0.40400(19) 0.2077(2)
H143 H -0.1662 0.4118 0.2404
C119 C -0.2611(2) 0.4204(2) 0.2146(2)
C120 C -0.3233(2) 0.4098(2) 0.1677(2)
H144 H -0.3585 0.4216 0.1729
C121 C -0.0438(2) 0.46626(19) 0.2028(2)
H145 H -0.0746 0.4970 0.1866
H146 H -0.0605 0.4385 0.2213
C122 C -0.0354(2) 0.4419(2) 0.1489(2)
H147 H -0.0183 0.4699 0.1312
H148 H -0.0042 0.4115 0.1659
C123 C -0.1442(2) 0.5092(2) 0.0466(2)
H149 H -0.1049 0.5304 0.0740
H150 H -0.1675 0.5274 0.0042
C124 C -0.1270(2) 0.4519(2) 0.0385(2)
H151 H -0.1665 0.4323 0.0079
H152 H -0.0979 0.4530 0.0197
C125 C -0.1704(2) 0.3489(2) 0.0884(2)
H153 H -0.2054 0.3705 0.0541
H154 H -0.1799 0.3098 0.0782
C126 C -0.1075(2) 0.36327(19) 0.0925(2)
H155 H -0.0725 0.3448 0.1302
H156 H -0.1069 0.3500 0.0533
C127 C -0.1263(2) 0.5403(2) 0.3470(2)
H157 H -0.1359 0.5009 0.3397
H158 H -0.1350 0.5573 0.3056
C128 C -0.1674(2) 0.5669(2) 0.3726(3)
H159 H -0.1549 0.5528 0.4163
H160 H -0.1609 0.6068 0.3755
C129 C -0.2638(3) 0.6244(2) 0.2442(2)
H161 H -0.2958 0.6533 0.2207
H162 H -0.2206 0.6411 0.2649
C130 C -0.2771(2) 0.5988(2) 0.2944(2)
H163 H -0.2737 0.6272 0.3256
H164 H -0.3217 0.5848 0.2731
C131 C -0.2939(2) 0.4704(2) 0.2819(3)
H165 H -0.3187 0.4414 0.2891
H166 H -0.3236 0.4924 0.2442
C132 C -0.2601(2) 0.5061(2) 0.3412(2)
H167 H -0.2909 0.5166 0.3560
H168 H -0.2252 0.4849 0.3762
loop_
_geom_bond_atom_site_label_1
_geom_bond_atom_site_label_2
_geom_bond_site_symmetry_1
_geom_bond_site_symmetry_2
O1 C4 1_555 1_555
O2 C6 1_555 1_555
O3 C11 1_555 1_555
O4 C13 1_555 1_555
O5 C18 1_555 1_555
O6 C20 1_555 1_555
N1 C23 1_555 1_555
N2 C29 1_555 1_555
C1 H1 1_555 1_555
H2 C1 1_555 1_555
H3 C1 1_555 1_555
C2 C1 1_555 1_555
C3 C2 1_555 1_555
H4 C3 1_555 1_555
C4 C3 1_555 1_555
C5 C4 1_555 1_555
H5 C5 1_555 1_555
C6 C5 1_555 1_555
C7 C2 1_555 1_555
H6 C7 1_555 1_555
C8 H7 1_555 1_555
H8 C8 1_555 1_555
H9 C8 1_555 1_555
C9 C8 1_555 1_555
C10 C9 1_555 1_555
H10 C10 1_555 1_555
C11 C10 1_555 1_555
C12 C11 1_555 1_555
H11 C12 1_555 1_555
C13 C12 1_555 1_555
C14 C9 1_555 1_555
H12 C14 1_555 1_555
C15 H13 1_555 1_555
H14 C15 1_555 1_555
H15 C15 1_555 1_555
C16 C15 1_555 1_555
C17 C16 1_555 1_555
H16 C17 1_555 1_555
C18 C17 1_555 1_555
C19 C18 1_555 1_555
H17 C19 1_555 1_555
C20 C19 1_555 1_555
C21 C16 1_555 1_555
H18 C21 1_555 1_555
C22 O1 1_555 1_555
H19 C22 1_555 1_555
H20 C22 1_555 1_555
C23 C22 1_555 1_555
H21 C23 1_555 1_555
H22 C23 1_555 1_555
C24 O3 1_555 1_555
H23 C24 1_555 1_555
H24 C24 1_555 1_555
C25 N1 1_555 1_555
H25 C25 1_555 1_555
H26 C25 1_555 1_555
C26 O5 1_555 1_555
H27 C26 1_555 1_555
H28 C26 1_555 1_555
C27 N1 1_555 1_555
H29 C27 1_555 1_555
H30 C27 1_555 1_555
C28 O2 1_555 1_555
H31 C28 1_555 1_555
H32 C28 1_555 1_555
C29 C28 1_555 1_555
H33 C29 1_555 1_555
H34 C29 1_555 1_555
C30 O4 1_555 1_555
H35 C30 1_555 1_555
H36 C30 1_555 1_555
C31 N2 1_555 1_555
H37 C31 1_555 1_555
H38 C31 1_555 1_555
C32 O6 1_555 1_555
H39 C32 1_555 1_555
H40 C32 1_555 1_555
C33 N2 1_555 1_555
H41 C33 1_555 1_555
H42 C33 1_555 1_555
O7 C37 1_555 1_555
O8 C39 1_555 1_555
O9 C44 1_555 1_555
O10 C46 1_555 1_555
O11 C51 1_555 1_555
O12 C53 1_555 1_555
N3 C56 1_555 1_555
N4 C62 1_555 1_555
C34 H43 1_555 1_555
H44 C34 1_555 1_555
H45 C34 1_555 1_555
C35 C34 1_555 1_555
C36 C35 1_555 1_555
H46 C36 1_555 1_555
C37 C36 1_555 1_555
C38 C37 1_555 1_555
H47 C38 1_555 1_555
C39 C38 1_555 1_555
C40 C35 1_555 1_555
H48 C40 1_555 1_555
C41 H49 1_555 1_555
H50 C41 1_555 1_555
H51 C41 1_555 1_555
C42 C41 1_555 1_555
C43 C42 1_555 1_555
H52 C43 1_555 1_555
C44 C43 1_555 1_555
C45 C44 1_555 1_555
H53 C45 1_555 1_555
C46 C45 1_555 1_555
C47 C42 1_555 1_555
H54 C47 1_555 1_555
C48 H55 1_555 1_555
H56 C48 1_555 1_555
H57 C48 1_555 1_555
C49 C48 1_555 1_555
C50 C49 1_555 1_555
H58 C50 1_555 1_555
C51 C50 1_555 1_555
C52 C51 1_555 1_555
H59 C52 1_555 1_555
C53 C52 1_555 1_555
C54 C49 1_555 1_555
H60 C54 1_555 1_555
C55 O7 1_555 1_555
H61 C55 1_555 1_555
H62 C55 1_555 1_555
C56 C55 1_555 1_555
H63 C56 1_555 1_555
H64 C56 1_555 1_555
C57 O9 1_555 1_555
H65 C57 1_555 1_555
H66 C57 1_555 1_555
C58 N3 1_555 1_555
H67 C58 1_555 1_555
H68 C58 1_555 1_555
C59 O11 1_555 1_555
H69 C59 1_555 1_555
H70 C59 1_555 1_555
C60 N3 1_555 1_555
H71 C60 1_555 1_555
H72 C60 1_555 1_555
C61 O8 1_555 1_555
H73 C61 1_555 1_555
H74 C61 1_555 1_555
C62 C61 1_555 1_555
H75 C62 1_555 1_555
H76 C62 1_555 1_555
C63 O10 1_555 1_555
H77 C63 1_555 1_555
H78 C63 1_555 1_555
C64 N4 1_555 1_555
H79 C64 1_555 1_555
H80 C64 1_555 1_555
C65 O12 1_555 1_555
H81 C65 1_555 1_555
H82 C65 1_555 1_555
C66 N4 1_555 1_555
H83 C66 1_555 1_555
H84 C66 1_555 1_555
O13 C70 1_555 1_555
O14 C72 1_555 1_555
O15 C77 1_555 1_555
O16 C79 1_555 1_555
O17 C84 1_555 1_555
O18 C86 1_555 1_555
N5 C89 1_555 1_555
N6 C95 1_555 1_555
C67 H85 1_555 1_555
H86 C67 1_555 1_555
H87 C67 1_555 1_555
C68 C67 1_555 1_555
C69 C68 1_555 1_555
H88 C69 1_555 1_555
C70 C69 1_555 1_555
C71 C70 1_555 1_555
H89 C71 1_555 1_555
C72 C71 1_555 1_555
C73 C68 1_555 1_555
H90 C73 1_555 1_555
C74 H91 1_555 1_555
H92 C74 1_555 1_555
H93 C74 1_555 1_555
C75 C74 1_555 1_555
C76 C75 1_555 1_555
H94 C76 1_555 1_555
C77 C76 1_555 1_555
C78 C77 1_555 1_555
H95 C78 1_555 1_555
C79 C78 1_555 1_555
C80 C75 1_555 1_555
H96 C80 1_555 1_555
C81 H97 1_555 1_555
H98 C81 1_555 1_555
H99 C81 1_555 1_555
C82 C81 1_555 1_555
C83 C82 1_555 1_555
H100 C83 1_555 1_555
C84 C83 1_555 1_555
C85 C84 1_555 1_555
H101 C85 1_555 1_555
C86 C85 1_555 1_555
C87 C82 1_555 1_555
H102 C87 1_555 1_555
C88 O13 1_555 1_555
H103 C88 1_555 1_555
H104 C88 1_555 1_555
C89 C88 1_555 1_555
H105 C89 1_555 1_555
H106 C89 1_555 1_555
C90 O15 1_555 1_555
H107 C90 1_555 1_555
H108 C90 1_555 1_555
C91 N5 1_555 1_555
H109 C91 1_555 1_555
H110 C91 1_555 1_555
C92 O17 1_555 1_555
H111 C92 1_555 1_555
H112 C92 1_555 1_555
C93 N5 1_555 1_555
H113 C93 1_555 1_555
H114 C93 1_555 1_555
C94 O14 1_555 1_555
H115 C94 1_555 1_555
H116 C94 1_555 1_555
C95 C94 1_555 1_555
H117 C95 1_555 1_555
H118 C95 1_555 1_555
C96 O16 1_555 1_555
H119 C96 1_555 1_555
H120 C96 1_555 1_555
C97 N6 1_555 1_555
H121 C97 1_555 1_555
H122 C97 1_555 1_555
C98 O18 1_555 1_555
H123 C98 1_555 1_555
H124 C98 1_555 1_555
C99 N6 1_555 1_555
H125 C99 1_555 1_555
H126 C99 1_555 1_555
O19 C103 1_555 1_555
O20 C105 1_555 1_555
O21 C110 1_555 1_555
O22 C112 1_555 1_555
O23 C117 1_555 1_555
O24 C119 1_555 1_555
N7 C122 1_555 1_555
N8 C128 1_555 1_555
C100 H127 1_555 1_555
H128 C100 1_555 1_555
H129 C100 1_555 1_555
C101 C100 1_555 1_555
C102 C101 1_555 1_555
H130 C102 1_555 1_555
C103 C102 1_555 1_555
C104 C103 1_555 1_555
H131 C104 1_555 1_555
C105 C104 1_555 1_555
C106 C101 1_555 1_555
H132 C106 1_555 1_555
C107 H133 1_555 1_555
H134 C107 1_555 1_555
H135 C107 1_555 1_555
C108 C107 1_555 1_555
C109 C108 1_555 1_555
H136 C109 1_555 1_555
C110 C109 1_555 1_555
C111 C110 1_555 1_555
H137 C111 1_555 1_555
C112 C111 1_555 1_555
C113 C108 1_555 1_555
H138 C113 1_555 1_555
C114 H139 1_555 1_555
H140 C114 1_555 1_555
H141 C114 1_555 1_555
C115 C114 1_555 1_555
C116 C115 1_555 1_555
H142 C116 1_555 1_555
C117 C116 1_555 1_555
C118 C117 1_555 1_555
H143 C118 1_555 1_555
C119 C118 1_555 1_555
C120 C115 1_555 1_555
H144 C120 1_555 1_555
C121 O19 1_555 1_555
H145 C121 1_555 1_555
H146 C121 1_555 1_555
C122 C121 1_555 1_555
H147 C122 1_555 1_555
H148 C122 1_555 1_555
C123 O21 1_555 1_555
H149 C123 1_555 1_555
H150 C123 1_555 1_555
C124 N7 1_555 1_555
H151 C124 1_555 1_555
H152 C124 1_555 1_555
C125 O23 1_555 1_555
H153 C125 1_555 1_555
H154 C125 1_555 1_555
C126 N7 1_555 1_555
H155 C126 1_555 1_555
H156 C126 1_555 1_555
C127 O20 1_555 1_555
H157 C127 1_555 1_555
H158 C127 1_555 1_555
C128 C127 1_555 1_555
H159 C128 1_555 1_555
H160 C128 1_555 1_555
C129 O22 1_555 1_555
H161 C129 1_555 1_555
H162 C129 1_555 1_555
C130 N8 1_555 1_555
H163 C130 1_555 1_555
H164 C130 1_555 1_555
C131 O24 1_555 1_555
H165 C131 1_555 1_555
H166 C131 1_555 1_555
C132 N8 1_555 1_555
H167 C132 1_555 1_555
H168 C132 1_555 1_555
C6 C7 1_555 1_555
C13 C14 1_555 1_555
C20 C21 1_555 1_555
C24 C25 1_555 1_555
C26 C27 1_555 1_555
C30 C31 1_555 1_555
C32 C33 1_555 1_555
C39 C40 1_555 1_555
C46 C47 1_555 1_555
C53 C54 1_555 1_555
C57 C58 1_555 1_555
C59 C60 1_555 1_555
C63 C64 1_555 1_555
C65 C66 1_555 1_555
C72 C73 1_555 1_555
C79 C80 1_555 1_555
C86 C87 1_555 1_555
C90 C91 1_555 1_555
C92 C93 1_555 1_555
C96 C97 1_555 1_555
C98 C99 1_555 1_555
C105 C106 1_555 1_555
C112 C113 1_555 1_555
C119 C120 1_555 1_555
C123 C124 1_555 1_555
C125 C126 1_555 1_555
C129 C130 1_555 1_555
C131 C132 1_555 1_555

#END
