
#######################################################################
#
#                 Cambridge Crystallographic Data Centre
#                                CCDC 
#
#######################################################################
#
# If this CIF has been generated from an entry in the Cambridge 
# Structural Database, then it will include bibliographic, chemical, 
# crystal, experimental, refinement or atomic coordinate data resulting 
# from the CCDC's data processing and validation procedures.
#
#######################################################################

data_JABDAU
_chemical_formula_moiety         'C29 H25 N1 O6'
_chemical_name_systematic        
'methyl 1-(4-methoxyphenyl)-4-(4-methylphenyl)-2,3-dioxo-6-phenyl-2,3,6,7-tetrahydropyrano[4,3-b]pyrrole-7a(1H)-carboxylate'
_symmetry_cell_setting           triclinic
_symmetry_space_group_name_H-M   'P -1'
_symmetry_Int_Tables_number      2
_space_group_name_Hall           '-P 1'
loop_
_symmetry_equiv_pos_site_id
_symmetry_equiv_pos_as_xyz
1 x,y,z
2 -x,-y,-z
_cell_length_a                   9.9399(13)
_cell_length_b                   11.1232(17)
_cell_length_c                   11.8869(17)
_cell_angle_alpha                84.903(12)
_cell_angle_beta                 68.400(13)
_cell_angle_gamma                80.753(12)
_cell_volume                     1205.45
_exptl_crystal_colour            yellow
_exptl_crystal_description       plate
_cell_formula_units_Z            2
loop_
_atom_site_label
_atom_site_type_symbol
_atom_site_fract_x
_atom_site_fract_y
_atom_site_fract_z
O1 O 0.44877(14) 0.36076(11) 0.00495(11)
O2 O 0.76634(16) -0.12201(11) -0.00348(13)
O3 O 0.50235(15) -0.00454(12) 0.17096(12)
N1 N 0.78595(15) 0.07014(13) -0.08920(13)
O4 O 0.82651(15) 0.24243(14) 0.05944(13)
C1 C 0.57612(18) 0.17616(15) 0.04774(15)
C2 C 0.65049(19) 0.24879(16) -0.16438(15)
H1 H 0.7320 0.2643 -0.2375
H2 H 0.5974 0.1920 -0.1827
C3 C 0.80586(19) 0.27519(16) -0.04253(18)
C4 C 0.70692(18) 0.19390(15) -0.06521(15)
O5 O 0.85764(18) 0.35480(15) -0.11025(17)
C5 C 0.45889(18) 0.26525(15) 0.07897(15)
C6 C 0.2030(2) 0.34031(18) 0.20567(18)
H3 H 0.1875 0.3761 0.1369
C7 C 0.3567(2) 0.22164(17) 0.30055(16)
H4 H 0.4461 0.1768 0.2954
C8 C 0.5502(2) 0.36736(16) -0.12198(15)
H5 H 0.6112 0.4308 -0.1293
C9 C 0.92475(19) 0.04109(16) -0.18508(16)
C10 C 0.33696(18) 0.27259(16) 0.19567(15)
C11 C 0.58422(19) 0.05096(16) 0.08740(16)
C12 C 0.72210(19) -0.01389(16) -0.00549(16)
C13 C 0.4583(2) 0.40686(16) -0.19895(16)
C14 C 0.9336(2) -0.01927(18) -0.28330(18)
H6 H 0.8493 -0.0371 -0.2912
C15 C 1.0516(2) 0.0673(2) -0.17445(19)
H7 H 1.0456 0.1077 -0.1073
C16 C 0.2463(2) 0.23645(18) 0.41183(18)
H8 H 0.2621 0.2014 0.4807
C17 C 0.0931(2) 0.3544(2) 0.3176(2)
H9 H 0.0040 0.3998 0.3227
C18 C 1.1852(2) 0.0340(2) -0.2620(2)
H10 H 1.2691 0.0535 -0.2548
C19 C 0.1108(2) 0.3033(2) 0.42282(18)
O6 O 1.33584(19) -0.0588(2) -0.43991(16)
C20 C 0.3468(2) 0.3455(2) -0.1942(2)
H11 H 0.3236 0.2799 -0.1397
C21 C 1.1955(2) -0.0278(2) -0.3600(2)
C22 C 0.4903(3) 0.5044(2) -0.27934(19)
H12 H 0.5649 0.5475 -0.2833
C23 C 0.9212(3) 0.3093(3) 0.0910(3)
H13 H 1.0140 0.3064 0.0258
H14 H 0.9351 0.2731 0.1630
H15 H 0.8770 0.3926 0.1050
C24 C 1.0713(3) -0.0543(2) -0.37253(19)
H16 H 1.0783 -0.0952 -0.4398
C25 C 0.2690(3) 0.3801(3) -0.2693(2)
H17 H 0.1933 0.3381 -0.2647
C26 C 0.3018(3) 0.4754(3) -0.3503(2)
H18 H 0.2503 0.4972 -0.4021
C27 C -0.0091(3) 0.3192(3) 0.5456(2)
H19 H 0.0117 0.3780 0.5892
H20 H -0.0145 0.2426 0.5900
H21 H -0.1007 0.3471 0.5357
C28 C 0.4106(3) 0.5384(2) -0.3548(2)
H22 H 0.4318 0.6047 -0.4087
C29 C 1.3584(4) -0.1227(3) -0.5421(3)
H23 H 1.3179 -0.1977 -0.5178
H24 H 1.4613 -0.1401 -0.5870
H25 H 1.3116 -0.0745 -0.5919
loop_
_geom_bond_atom_site_label_1
_geom_bond_atom_site_label_2
_geom_bond_site_symmetry_1
_geom_bond_site_symmetry_2
O1 C5 1_555 1_555
O2 C12 1_555 1_555
O3 C11 1_555 1_555
N1 C4 1_555 1_555
O4 C3 1_555 1_555
C1 C4 1_555 1_555
C2 H1 1_555 1_555
H2 C2 1_555 1_555
C3 C4 1_555 1_555
C4 C2 1_555 1_555
O5 C3 1_555 1_555
C5 C1 1_555 1_555
C6 H3 1_555 1_555
C7 H4 1_555 1_555
C8 O1 1_555 1_555
H5 C8 1_555 1_555
C9 N1 1_555 1_555
C10 C5 1_555 1_555
C11 C1 1_555 1_555
C12 N1 1_555 1_555
C13 C8 1_555 1_555
C14 C9 1_555 1_555
H6 C14 1_555 1_555
C15 C9 1_555 1_555
H7 C15 1_555 1_555
C16 C7 1_555 1_555
H8 C16 1_555 1_555
C17 C6 1_555 1_555
H9 C17 1_555 1_555
C18 C15 1_555 1_555
H10 C18 1_555 1_555
C19 C16 1_555 1_555
O6 C21 1_555 1_555
C20 C13 1_555 1_555
H11 C20 1_555 1_555
C21 C18 1_555 1_555
C22 C13 1_555 1_555
H12 C22 1_555 1_555
C23 O4 1_555 1_555
H13 C23 1_555 1_555
H14 C23 1_555 1_555
H15 C23 1_555 1_555
C24 C14 1_555 1_555
H16 C24 1_555 1_555
C25 C20 1_555 1_555
H17 C25 1_555 1_555
C26 C25 1_555 1_555
H18 C26 1_555 1_555
C27 C19 1_555 1_555
H19 C27 1_555 1_555
H20 C27 1_555 1_555
H21 C27 1_555 1_555
C28 C22 1_555 1_555
H22 C28 1_555 1_555
C29 O6 1_555 1_555
H23 C29 1_555 1_555
H24 C29 1_555 1_555
H25 C29 1_555 1_555
C2 C8 1_555 1_555
C6 C10 1_555 1_555
C7 C10 1_555 1_555
C11 C12 1_555 1_555
C17 C19 1_555 1_555
C21 C24 1_555 1_555
C26 C28 1_555 1_555

#END
