
#######################################################################
#
#                 Cambridge Crystallographic Data Centre
#                                CCDC 
#
#######################################################################
#
# If this CIF has been generated from an entry in the Cambridge 
# Structural Database, then it will include bibliographic, chemical, 
# crystal, experimental, refinement or atomic coordinate data resulting 
# from the CCDC's data processing and validation procedures.
#
#######################################################################

data_JABRAG
_chemical_formula_moiety         'C9 H2 F8 N2 O1 S1'
_chemical_name_systematic        
7-Pentafluoroethyl-6-trifluoromethylthiazolo(3,2-a)pyrimidine-5-one
_symmetry_cell_setting           triclinic
_symmetry_space_group_name_H-M   'P -1'
_symmetry_Int_Tables_number      2
_space_group_name_Hall           '-P 1'
loop_
_symmetry_equiv_pos_site_id
_symmetry_equiv_pos_as_xyz
1 x,y,z
2 -x,-y,-z
_cell_length_a                   10.0659(7)
_cell_length_b                   14.2570(10)
_cell_length_c                   9.7480(10)
_cell_angle_alpha                106.889(6)
_cell_angle_beta                 115.510(6)
_cell_angle_gamma                73.671(6)
_cell_volume                     1188.21
_exptl_crystal_colour            brown
_exptl_crystal_description       prism
_chemical_melting_point          76-77deg.C
_cell_formula_units_Z            4
loop_
_atom_site_label
_atom_site_type_symbol
_atom_site_fract_x
_atom_site_fract_y
_atom_site_fract_z
S1 S 0.35433(13) 0.40749(7) 0.51104(10)
F1 F 0.3297(2) 0.60088(16) 1.1127(2)
F2 F 0.1317(3) 0.53545(18) 1.0313(3)
F3 F 0.0692(4) 0.7128(2) 0.9863(4)
F4 F 0.0225(3) 0.6104(3) 0.7666(4)
F5 F 0.2120(4) 0.68314(18) 0.8617(4)
F6 F 0.2676(4) 0.3164(3) 1.0884(4)
F7 F 0.5006(4) 0.2985(2) 1.1634(3)
F8 F 0.3773(4) 0.4379(2) 1.2085(3)
O1 O 0.4463(3) 0.20290(17) 0.8667(3)
N1 N 0.4000(3) 0.31140(17) 0.7144(3)
N2 N 0.2890(3) 0.48129(18) 0.7663(3)
C1 C 0.2953(3) 0.4654(2) 0.8983(3)
C2 C 0.3560(3) 0.3758(2) 0.9489(3)
C3 C 0.4051(4) 0.2889(2) 0.8491(4)
C4 C 0.4522(4) 0.2433(3) 0.6048(4)
H1 H 0.494(4) 0.183(3) 0.626(5)
C5 C 0.4365(5) 0.2834(3) 0.4913(4)
H2 H 0.461(5) 0.249(3) 0.401(5)
C6 C 0.3441(3) 0.4041(2) 0.6807(3)
C7 C 0.2240(4) 0.5590(2) 0.9853(4)
C8 C 0.1310(5) 0.6431(3) 0.8953(6)
C9 C 0.3729(5) 0.3578(3) 1.1000(4)
S2 S 0.18088(13) 0.09266(7) 0.01714(11)
F9 F -0.1090(3) 0.17644(18) -0.6118(2)
F10 F 0.0765(3) 0.2550(2) -0.5278(3)
F11 F -0.1674(4) 0.3658(2) -0.5002(3)
F12 F 0.0087(4) 0.35314(18) -0.2763(3)
F13 F -0.1771(3) 0.2778(2) -0.3614(3)
F14 F 0.1037(5) 0.0776(3) -0.7000(3)
F15 F 0.3339(4) 0.0349(3) -0.5931(3)
F16 F 0.1952(4) -0.0663(2) -0.6652(3)
O2 O 0.3901(3) -0.08322(19) -0.3647(3)
N3 N 0.0954(3) 0.15421(19) -0.2498(3)
N4 N 0.2733(3) 0.00649(17) -0.2007(3)
C10 C 0.1025(3) 0.1357(2) -0.3894(3)
C11 C 0.1943(4) 0.0548(2) -0.4427(3)
C12 C 0.2946(4) -0.0139(2) -0.3425(4)
C13 C 0.3460(4) -0.0535(3) -0.0901(4)
H3 H 0.404(4) -0.108(3) -0.112(4)
C14 C 0.3085(5) -0.0174(3) 0.0318(4)
H4 H 0.341(5) -0.047(3) 0.120(5)
C15 C 0.1791(4) 0.0885(2) -0.1621(3)
C16 C -0.0018(4) 0.2158(3) -0.4829(4)
C17 C -0.0861(5) 0.3044(3) -0.4007(5)
C18 C 0.2044(5) 0.0278(3) -0.5989(4)
loop_
_geom_bond_atom_site_label_1
_geom_bond_atom_site_label_2
_geom_bond_site_symmetry_1
_geom_bond_site_symmetry_2
S1 C5 1_555 1_555
F1 C7 1_555 1_555
F2 C7 1_555 1_555
F3 C8 1_555 1_555
F4 C8 1_555 1_555
F5 C8 1_555 1_555
F6 C9 1_555 1_555
F7 C9 1_555 1_555
F8 C9 1_555 1_555
O1 C3 1_555 1_555
N1 C3 1_555 1_555
N2 C1 1_555 1_555
C1 C2 1_555 1_555
C2 C3 1_555 1_555
C4 N1 1_555 1_555
H1 C4 1_555 1_555
C5 C4 1_555 1_555
H2 C5 1_555 1_555
C6 S1 1_555 1_555
C7 C1 1_555 1_555
C8 C7 1_555 1_555
C9 C2 1_555 1_555
S2 C14 1_555 1_555
F9 C16 1_555 1_555
F10 C16 1_555 1_555
F11 C17 1_555 1_555
F12 C17 1_555 1_555
F13 C17 1_555 1_555
F14 C18 1_555 1_555
F15 C18 1_555 1_555
F16 C18 1_555 1_555
O2 C12 1_555 1_555
N3 C10 1_555 1_555
N4 C12 1_555 1_555
C10 C11 1_555 1_555
C11 C12 1_555 1_555
C13 N4 1_555 1_555
H3 C13 1_555 1_555
C14 C13 1_555 1_555
H4 C14 1_555 1_555
C15 S2 1_555 1_555
C16 C10 1_555 1_555
C17 C16 1_555 1_555
C18 C11 1_555 1_555
N1 C6 1_555 1_555
N2 C6 1_555 1_555
N3 C15 1_555 1_555
N4 C15 1_555 1_555

#END
