
#######################################################################
#
#                 Cambridge Crystallographic Data Centre
#                                CCDC 
#
#######################################################################
#
# If this CIF has been generated from an entry in the Cambridge 
# Structural Database, then it will include bibliographic, chemical, 
# crystal, experimental, refinement or atomic coordinate data resulting 
# from the CCDC's data processing and validation procedures.
#
#######################################################################

data_JABVUG
_chemical_formula_moiety         'C21 H16 N1 1+,C1 F3 O3 S1 1-'
_chemical_name_systematic        
'3,4-diphenylquinolizinium trifluoromethanesulfonate'
_symmetry_cell_setting           monoclinic
_symmetry_space_group_name_H-M   'C 2/c'
_symmetry_Int_Tables_number      15
_space_group_name_Hall           '-C 2yn'
loop_
_symmetry_equiv_pos_site_id
_symmetry_equiv_pos_as_xyz
1 x,y,z
2 -x,y,1/2-z
3 1/2+x,1/2+y,z
4 1/2-x,1/2+y,1/2-z
5 -x,-y,-z
6 x,-y,1/2+z
7 1/2-x,1/2-y,-z
8 1/2+x,1/2-y,1/2+z
_cell_length_a                   40.887(2)
_cell_length_b                   9.2404(5)
_cell_length_c                   27.6197(13)
_cell_angle_alpha                90
_cell_angle_beta                 131.709(2)
_cell_angle_gamma                90
_cell_volume                     7790.12
_exptl_crystal_colour            'pale yellow'
_cell_formula_units_Z            16
loop_
_atom_site_label
_atom_site_type_symbol
_atom_site_fract_x
_atom_site_fract_y
_atom_site_fract_z
C1 C 0.13768(7) 0.0465(2) 0.30105(11)
C2 C 0.12296(8) 0.0594(2) 0.23993(12)
C3 C 0.15314(8) 0.0899(3) 0.23214(12)
H1 H 0.1434 0.0918 0.1899
C4 C 0.19592(8) 0.1164(3) 0.28466(13)
H2 H 0.2156 0.1408 0.2787
C5 C 0.21138(8) 0.1080(2) 0.34769(12)
C6 C 0.25538(8) 0.1368(3) 0.40348(13)
H3 H 0.2752 0.1681 0.3987
C7 C 0.26981(8) 0.1205(3) 0.46406(13)
H4 H 0.2993 0.1429 0.5013
C8 C 0.24050(8) 0.0701(3) 0.47069(12)
H5 H 0.2504 0.0547 0.5127
C9 C 0.19820(8) 0.0437(3) 0.41740(12)
H6 H 0.1788 0.0096 0.4226
C10 C 0.10805(7) 0.0130(2) 0.31333(11)
C11 C 0.09691(8) 0.1210(3) 0.33544(12)
H7 H 0.1091 0.2152 0.3446
C12 C 0.06786(8) 0.0894(3) 0.34386(12)
H8 H 0.0602 0.1624 0.3591
C13 C 0.04977(8) -0.0478(3) 0.33036(12)
H9 H 0.0296 -0.0680 0.3357
C14 C 0.06128(8) -0.1550(3) 0.30909(12)
H10 H 0.0493 -0.2494 0.3005
C15 C 0.09021(8) -0.1252(2) 0.30027(11)
H11 H 0.0979 -0.1988 0.2854
C16 C 0.07560(8) 0.0462(2) 0.18107(11)
C17 C 0.04448(8) 0.1385(3) 0.17111(11)
H12 H 0.0531 0.2045 0.2042
C18 C 0.00106(8) 0.1344(3) 0.11312(12)
H13 H -0.0198 0.1987 0.1064
C19 C -0.01188(8) 0.0362(3) 0.06495(12)
H14 H -0.0415 0.0327 0.0254
C20 C 0.01886(8) -0.0566(3) 0.07512(12)
H15 H 0.0100 -0.1246 0.0425
C21 C 0.06230(8) -0.0514(3) 0.13204(12)
H16 H 0.0831 -0.1140 0.1379
N1 N 0.18250(6) 0.0652(2) 0.35534(9)
C22 C 0.14604(9) 0.5112(3) 0.27235(13)
F1 F 0.18148(6) 0.48706(19) 0.27984(9)
F2 F 0.11690(5) 0.40908(17) 0.23266(8)
F3 F 0.12954(6) 0.63845(17) 0.24245(8)
O1 O 0.18790(6) 0.63209(19) 0.38421(9)
O2 O 0.17946(6) 0.37035(19) 0.37634(9)
O3 O 0.11699(6) 0.5245(2) 0.33049(9)
S1 S 0.15924(2) 0.50938(6) 0.34981(3)
C23 C 0.35124(9) 0.4150(3) 0.47023(13)
F4 F 0.37800(5) 0.52694(17) 0.50508(8)
F5 F 0.37069(6) 0.29543(17) 0.50555(8)
F6 F 0.31535(6) 0.43546(18) 0.46174(9)
O4 O 0.31319(5) 0.26735(18) 0.36622(8)
O5 O 0.31435(6) 0.53042(19) 0.35889(9)
O6 O 0.38106(6) 0.39199(18) 0.41332(9)
S2 S 0.33835(2) 0.39993(6) 0.39315(3)
C24 C 0.36378(7) 0.8727(2) 0.45594(11)
C25 C 0.37801(8) 0.8665(2) 0.51702(12)
C26 C 0.34823(8) 0.8263(2) 0.52507(12)
H17 H 0.3576 0.8257 0.5671
C27 C 0.30650(8) 0.7890(3) 0.47254(12)
H18 H 0.2873 0.7570 0.4785
C28 C 0.29097(8) 0.7967(2) 0.40922(12)
C29 C 0.24729(8) 0.7637(3) 0.35319(13)
H19 H 0.2277 0.7277 0.3578
C30 C 0.23289(8) 0.7826(3) 0.29282(13)
H20 H 0.2036 0.7583 0.2555
C31 C 0.26179(8) 0.8388(3) 0.28624(13)
H21 H 0.2517 0.8569 0.2443
C32 C 0.30401(8) 0.8668(3) 0.33969(12)
H22 H 0.3234 0.9024 0.3347
C33 C 0.39334(7) 0.9044(2) 0.44369(11)
C34 C 0.40983(8) 0.7908(3) 0.43205(11)
H23 H 0.4011 0.6940 0.4300
C35 C 0.43894(8) 0.8199(3) 0.42350(12)
H24 H 0.4505 0.7427 0.4162
C36 C 0.45128(8) 0.9612(3) 0.42554(13)
H25 H 0.4711 0.9808 0.4194
C37 C 0.43452(9) 1.0736(3) 0.43662(14)
H26 H 0.4428 1.1705 0.4377
C38 C 0.40587(8) 1.0460(3) 0.44609(12)
H27 H 0.3948 1.1234 0.4542
C39 C 0.42425(8) 0.9006(2) 0.57459(11)
C40 C 0.43320(8) 1.0147(3) 0.61530(12)
H28 H 0.4098 1.0698 0.6056
C41 C 0.47615(9) 1.0471(3) 0.66969(12)
H29 H 0.4821 1.1255 0.6968
C42 C 0.51056(9) 0.9665(3) 0.68506(13)
H30 H 0.5399 0.9894 0.7225
C43 C 0.50191(8) 0.8528(3) 0.64560(12)
H31 H 0.5254 0.7966 0.6561
C44 C 0.45918(8) 0.8202(3) 0.59073(12)
H32 H 0.4536 0.7420 0.5637
N2 N 0.31944(6) 0.8445(2) 0.40160(10)
loop_
_geom_bond_atom_site_label_1
_geom_bond_atom_site_label_2
_geom_bond_site_symmetry_1
_geom_bond_site_symmetry_2
C1 C2 1_555 1_555
C2 C3 1_555 1_555
C3 H1 1_555 1_555
C4 C3 1_555 1_555
H2 C4 1_555 1_555
C5 C4 1_555 1_555
C6 C5 1_555 1_555
H3 C6 1_555 1_555
C7 C6 1_555 1_555
H4 C7 1_555 1_555
C8 C7 1_555 1_555
H5 C8 1_555 1_555
C9 C8 1_555 1_555
H6 C9 1_555 1_555
C10 C1 1_555 1_555
C11 C10 1_555 1_555
H7 C11 1_555 1_555
C12 C11 1_555 1_555
H8 C12 1_555 1_555
C13 C12 1_555 1_555
H9 C13 1_555 1_555
C14 C13 1_555 1_555
H10 C14 1_555 1_555
C15 C10 1_555 1_555
H11 C15 1_555 1_555
C16 C2 1_555 1_555
C17 C16 1_555 1_555
H12 C17 1_555 1_555
C18 C17 1_555 1_555
H13 C18 1_555 1_555
C19 C18 1_555 1_555
H14 C19 1_555 1_555
C20 C19 1_555 1_555
H15 C20 1_555 1_555
C21 C16 1_555 1_555
H16 C21 1_555 1_555
N1 C1 1_555 1_555
C22 F1 1_555 1_555
F2 C22 1_555 1_555
F3 C22 1_555 1_555
O1 S1 1_555 1_555
O2 S1 1_555 1_555
O3 S1 1_555 1_555
S1 C22 1_555 1_555
C23 F4 1_555 1_555
F5 C23 1_555 1_555
F6 C23 1_555 1_555
O4 S2 1_555 1_555
O5 S2 1_555 1_555
O6 S2 1_555 1_555
S2 C23 1_555 1_555
C24 C25 1_555 1_555
C25 C26 1_555 1_555
C26 H17 1_555 1_555
C27 C26 1_555 1_555
H18 C27 1_555 1_555
C28 C27 1_555 1_555
C29 C28 1_555 1_555
H19 C29 1_555 1_555
C30 C29 1_555 1_555
H20 C30 1_555 1_555
C31 C30 1_555 1_555
H21 C31 1_555 1_555
C32 C31 1_555 1_555
H22 C32 1_555 1_555
C33 C24 1_555 1_555
C34 C33 1_555 1_555
H23 C34 1_555 1_555
C35 C34 1_555 1_555
H24 C35 1_555 1_555
C36 C35 1_555 1_555
H25 C36 1_555 1_555
C37 C36 1_555 1_555
H26 C37 1_555 1_555
C38 C33 1_555 1_555
H27 C38 1_555 1_555
C39 C25 1_555 1_555
C40 C39 1_555 1_555
H28 C40 1_555 1_555
C41 C40 1_555 1_555
H29 C41 1_555 1_555
C42 C41 1_555 1_555
H30 C42 1_555 1_555
C43 C42 1_555 1_555
H31 C43 1_555 1_555
C44 C39 1_555 1_555
H32 C44 1_555 1_555
N2 C24 1_555 1_555
C5 N1 1_555 1_555
C9 N1 1_555 1_555
C14 C15 1_555 1_555
C20 C21 1_555 1_555
C28 N2 1_555 1_555
C32 N2 1_555 1_555
C37 C38 1_555 1_555
C43 C44 1_555 1_555

#END
