
#######################################################################
#
#                 Cambridge Crystallographic Data Centre
#                                CCDC 
#
#######################################################################
#
# If this CIF has been generated from an entry in the Cambridge 
# Structural Database, then it will include bibliographic, chemical, 
# crystal, experimental, refinement or atomic coordinate data resulting 
# from the CCDC's data processing and validation procedures.
#
#######################################################################

data_JABVOA
_chemical_formula_moiety         'C21 H16 N1 1+,B1 F4 1-'
_chemical_name_systematic        '3,4-diphenylquinolizinium tetrafluoroborate'
_symmetry_cell_setting           orthorhombic
_symmetry_space_group_name_H-M   'P 21 21 21'
_symmetry_Int_Tables_number      19
_space_group_name_Hall           'P 2ac 2ab'
loop_
_symmetry_equiv_pos_site_id
_symmetry_equiv_pos_as_xyz
1 x,y,z
2 1/2+x,1/2-y,-z
3 -x,1/2+y,1/2-z
4 1/2-x,-y,1/2+z
_cell_length_a                   6.1068(3)
_cell_length_b                   15.2343(8)
_cell_length_c                   18.4646(10)
_cell_angle_alpha                90
_cell_angle_beta                 90
_cell_angle_gamma                90
_cell_volume                     1717.81
_exptl_crystal_colour            'yellow brown'
_cell_formula_units_Z            4
loop_
_atom_site_label
_atom_site_type_symbol
_atom_site_fract_x
_atom_site_fract_y
_atom_site_fract_z
B1 B 0.7674(6) 0.7895(2) 0.25584(18)
F1 F 0.7743(3) 0.88131(12) 0.25615(10)
F2 F 0.7088(3) 0.75960(13) 0.18740(10)
F3 F 0.9735(3) 0.75627(13) 0.27289(10)
F4 F 0.6159(4) 0.75978(13) 0.30667(11)
C1 C 0.2544(6) 0.3198(2) -0.09014(16)
H1 H 0.2450 0.2797 -0.1294
C2 C 0.4401(5) 0.3717(2) -0.08208(15)
H2 H 0.5585 0.3660 -0.1151
C3 C 0.4522(5) 0.4317(2) -0.02584(15)
H3 H 0.5785 0.4675 -0.0205
C4 C 0.2783(5) 0.43941(18) 0.02308(15)
C5 C 0.2790(5) 0.50791(19) 0.08111(15)
C6 C 0.1345(5) 0.57730(18) 0.08334(15)
C7 C -0.0265(5) 0.59746(19) 0.02475(15)
C8 C 0.0271(5) 0.5895(2) -0.04869(16)
H4 H 0.1661 0.5670 -0.0625
C9 C -0.1225(6) 0.6144(2) -0.10139(16)
H5 H -0.0847 0.6088 -0.1511
C10 C -0.3260(5) 0.6475(2) -0.08261(17)
H6 H -0.4293 0.6624 -0.1191
C11 C 0.7779(5) 0.4897(2) 0.23769(16)
H7 H 0.8987 0.4876 0.2701
C12 C 0.6287(5) 0.5563(2) 0.24135(15)
H8 H 0.6421 0.5995 0.2782
C13 C 0.4546(5) 0.56187(19) 0.19118(15)
C14 C 0.0836(5) 0.3262(2) -0.04137(16)
H9 H -0.0417 0.2898 -0.0466
C15 C 0.0951(5) 0.3859(2) 0.01522(16)
H10 H -0.0225 0.3903 0.0487
C16 C 0.1420(5) 0.63623(19) 0.14263(15)
H11 H 0.0354 0.6815 0.1462
C17 C 0.2987(5) 0.62923(19) 0.19443(16)
H12 H 0.3027 0.6703 0.2331
C18 C -0.3774(5) 0.65856(19) -0.01000(17)
H13 H -0.5145 0.6832 0.0034
C19 C -0.2294(5) 0.63384(19) 0.04307(16)
H14 H -0.2661 0.6417 0.0926
C20 C 0.5815(5) 0.42937(19) 0.13640(15)
H15 H 0.5627 0.3837 0.1019
C21 C 0.7481(5) 0.4241(2) 0.18460(15)
H16 H 0.8460 0.3758 0.1827
N1 N 0.4375(4) 0.49990(15) 0.13629(12)
loop_
_geom_bond_atom_site_label_1
_geom_bond_atom_site_label_2
_geom_bond_site_symmetry_1
_geom_bond_site_symmetry_2
B1 F1 1_555 1_555
F2 B1 1_555 1_555
F3 B1 1_555 1_555
F4 B1 1_555 1_555
C1 H1 1_555 1_555
C2 C1 1_555 1_555
H2 C2 1_555 1_555
C3 C2 1_555 1_555
H3 C3 1_555 1_555
C4 C3 1_555 1_555
C5 C4 1_555 1_555
C6 C5 1_555 1_555
C7 C6 1_555 1_555
C8 C7 1_555 1_555
H4 C8 1_555 1_555
C9 C8 1_555 1_555
H5 C9 1_555 1_555
C10 C9 1_555 1_555
H6 C10 1_555 1_555
C11 H7 1_555 1_555
C12 C11 1_555 1_555
H8 C12 1_555 1_555
C13 C12 1_555 1_555
C14 C1 1_555 1_555
H9 C14 1_555 1_555
C15 C4 1_555 1_555
H10 C15 1_555 1_555
C16 C6 1_555 1_555
H11 C16 1_555 1_555
C17 C13 1_555 1_555
H12 C17 1_555 1_555
C18 C10 1_555 1_555
H13 C18 1_555 1_555
C19 C7 1_555 1_555
H14 C19 1_555 1_555
C20 H15 1_555 1_555
C21 C11 1_555 1_555
H16 C21 1_555 1_555
N1 C5 1_555 1_555
C13 N1 1_555 1_555
C14 C15 1_555 1_555
C16 C17 1_555 1_555
C18 C19 1_555 1_555
C20 C21 1_555 1_555
C20 N1 1_555 1_555

#END
