
#######################################################################
#
#                 Cambridge Crystallographic Data Centre
#                                CCDC 
#
#######################################################################
#
# If this CIF has been generated from an entry in the Cambridge 
# Structural Database, then it will include bibliographic, chemical, 
# crystal, experimental, refinement or atomic coordinate data resulting 
# from the CCDC's data processing and validation procedures.
#
#######################################################################

data_JABWER
_chemical_formula_moiety         'C21 H13 Br1 N2'
_chemical_name_systematic        6-(4-bromophenyl)indolizino[3,2-c]quinoline
_symmetry_cell_setting           orthorhombic
_symmetry_space_group_name_H-M   'P 21 21 21'
_symmetry_Int_Tables_number      19
_space_group_name_Hall           'P 2ac 2ab'
loop_
_symmetry_equiv_pos_site_id
_symmetry_equiv_pos_as_xyz
1 x,y,z
2 1/2-x,-y,1/2+z
3 -x,1/2+y,1/2-z
4 1/2+x,1/2-y,-z
_cell_length_a                   4.1385(4)
_cell_length_b                   17.8868(19)
_cell_length_c                   20.726(3)
_cell_angle_alpha                90
_cell_angle_beta                 90
_cell_angle_gamma                90
_cell_volume                     1534.23
_exptl_crystal_colour            yellow
_exptl_crystal_description       needle
_cell_formula_units_Z            4
loop_
_atom_site_label
_atom_site_type_symbol
_atom_site_fract_x
_atom_site_fract_y
_atom_site_fract_z
Br1 Br 1.1335(6) 0.10189(12) 0.47341(11)
N1 N 0.725(4) 0.4499(9) 0.3149(8)
N2 N 0.588(5) 0.2841(9) 0.2081(8)
C1 C 0.427(5) 0.5131(12) 0.2409(11)
H1 H 0.3104 0.5516 0.2196
C2 C 0.451(5) 0.4387(11) 0.2214(11)
C3 C 0.631(5) 0.3982(11) 0.2685(10)
C4 C 0.931(5) 0.4420(11) 0.3670(10)
H2 H 1.0278 0.3951 0.3762
C5 C 0.992(5) 0.5028(12) 0.4049(13)
H3 H 1.1205 0.4969 0.4426
C6 C 0.870(6) 0.5747(12) 0.3894(10)
H4 H 0.9221 0.6167 0.4154
C7 C 0.677(6) 0.5825(11) 0.3373(12)
H5 H 0.5890 0.6301 0.3273
C8 C 0.606(6) 0.5205(11) 0.2973(11)
C9 C 0.346(5) 0.3991(12) 0.1644(9)
C10 C 0.181(6) 0.4351(13) 0.1137(12)
H6 H 0.1158 0.4858 0.1178
C11 C 0.115(6) 0.3957(13) 0.0583(10)
H7 H 0.0058 0.4196 0.0236
C12 C 0.207(6) 0.3213(15) 0.0524(13)
H8 H 0.1598 0.2944 0.0141
C13 C 0.367(6) 0.2867(11) 0.1023(11)
H9 H 0.4307 0.2360 0.0974
C14 C 0.439(6) 0.3239(12) 0.1603(10)
C15 C 0.669(5) 0.3201(11) 0.2601(9)
C16 C 0.800(5) 0.2693(11) 0.3117(11)
C17 C 0.995(5) 0.2091(12) 0.2981(11)
H10 H 1.0703 0.2026 0.2552
C18 C 1.088(5) 0.1568(11) 0.3452(10)
H11 H 1.2148 0.1144 0.3341
C19 C 0.990(5) 0.1692(11) 0.4089(10)
C20 C 0.789(4) 0.2277(11) 0.4253(10)
H12 H 0.7151 0.2338 0.4683
C21 C 0.698(5) 0.2770(10) 0.3776(11)
H13 H 0.5624 0.3179 0.3888
loop_
_geom_bond_atom_site_label_1
_geom_bond_atom_site_label_2
_geom_bond_site_symmetry_1
_geom_bond_site_symmetry_2
Br1 C19 1_555 1_555
N1 C3 1_555 1_555
N2 C14 1_555 1_555
C1 H1 1_555 1_555
C2 C1 1_555 1_555
C3 C2 1_555 1_555
C4 N1 1_555 1_555
H2 C4 1_555 1_555
C5 C4 1_555 1_555
H3 C5 1_555 1_555
C6 C5 1_555 1_555
H4 C6 1_555 1_555
C7 C6 1_555 1_555
H5 C7 1_555 1_555
C8 N1 1_555 1_555
C9 C2 1_555 1_555
C10 C9 1_555 1_555
H6 C10 1_555 1_555
C11 C10 1_555 1_555
H7 C11 1_555 1_555
C12 C11 1_555 1_555
H8 C12 1_555 1_555
C13 C12 1_555 1_555
H9 C13 1_555 1_555
C14 C9 1_555 1_555
C15 N2 1_555 1_555
C16 C15 1_555 1_555
C17 C16 1_555 1_555
H10 C17 1_555 1_555
C18 C17 1_555 1_555
H11 C18 1_555 1_555
C19 C18 1_555 1_555
C20 C19 1_555 1_555
H12 C20 1_555 1_555
C21 C16 1_555 1_555
H13 C21 1_555 1_555
C1 C8 1_555 1_555
C3 C15 1_555 1_555
C7 C8 1_555 1_555
C13 C14 1_555 1_555
C20 C21 1_555 1_555

#END
