
#######################################################################
#
#                 Cambridge Crystallographic Data Centre
#                                CCDC 
#
#######################################################################
#
# If this CIF has been generated from an entry in the Cambridge 
# Structural Database, then it will include bibliographic, chemical, 
# crystal, experimental, refinement or atomic coordinate data resulting 
# from the CCDC's data processing and validation procedures.
#
#######################################################################

data_JABYOA01
_chemical_name_common            
'Dihydrazinylmethaniminium 3-nitro-1H-1,2,4-triazol-5-olate'
_chemical_formula_moiety         'C1 H8 N5 1+,C2 H1 N4 O3 1-'
_chemical_name_systematic        
'1,3-Diaminoguanidinium 3-nitro-5-oxo-1,2,4-triazolide'
_symmetry_cell_setting           triclinic
_symmetry_space_group_name_H-M   'P -1'
_symmetry_Int_Tables_number      2
_space_group_name_Hall           '-P 1'
loop_
_symmetry_equiv_pos_site_id
_symmetry_equiv_pos_as_xyz
1 x,y,z
2 -x,-y,-z
_cell_length_a                   6.732(3)
_cell_length_b                   6.745(3)
_cell_length_c                   9.840(4)
_cell_angle_alpha                88.309(7)
_cell_angle_beta                 77.255(6)
_cell_angle_gamma                86.520(7)
_cell_volume                     434.936
_exptl_crystal_colour            'bright yellow'
_cell_formula_units_Z            2
_exptl_crystal_recrystallization_method water
loop_
_atom_site_label
_atom_site_type_symbol
_atom_site_fract_x
_atom_site_fract_y
_atom_site_fract_z
N1 N 0.1884(7) 0.3816(8) 0.2091(4)
H1 H 0.161(7) 0.481(7) 0.262(5)
N3 N 0.3832(5) 0.2963(5) 0.2143(3)
H2 H 0.423(6) 0.296(6) 0.303(4)
N7 N 0.7016(5) 0.1933(6) 0.0922(4)
H4 H 0.738(7) 0.187(6) 0.166(5)
N8 N 0.4434(5) 0.2709(5) -0.0237(3)
H5 H 0.306(6) 0.336(6) -0.007(4)
H6 H 0.520(6) 0.230(6) -0.106(4)
C3 C 0.5079(6) 0.2561(6) 0.0936(4)
N9 N 0.8390(7) 0.1568(6) -0.0352(4)
H7 H 0.889(8) 0.271(7) -0.070(5)
H8 H 0.860(8) 0.040(7) -0.028(5)
H9 H 0.116(7) 0.320(7) 0.261(5)
C1 C 0.2480(6) 0.8595(6) 0.5513(4)
O1 O 0.1159(4) 0.9188(4) 0.6580(2)
N2 N 0.4351(4) 0.7716(4) 0.5508(3)
O2 O 0.8182(4) 0.6194(5) 0.4503(3)
N4 N 0.2247(5) 0.8687(5) 0.4178(3)
H3 H 0.131(6) 0.925(6) 0.383(4)
O3 O 0.7735(4) 0.6285(5) 0.2396(3)
N5 N 0.3947(5) 0.7960(5) 0.3272(3)
N6 N 0.7149(5) 0.6575(5) 0.3648(3)
C2 C 0.5082(5) 0.7430(5) 0.4155(4)
loop_
_geom_bond_atom_site_label_1
_geom_bond_atom_site_label_2
_geom_bond_site_symmetry_1
_geom_bond_site_symmetry_2
N1 H1 1_555 1_555
C1 O1 1_555 1_555
N2 C1 1_555 1_555
N3 N1 1_555 1_555
H2 N3 1_555 1_555
O2 N6 1_555 1_555
N4 C1 1_555 1_555
H3 N4 1_555 1_555
O3 N6 1_555 1_555
N5 N4 1_555 1_555
N6 C2 1_555 1_555
N7 H4 1_555 1_555
N8 H5 1_555 1_555
H6 N8 1_555 1_555
C2 N2 1_555 1_555
C3 N3 1_555 1_555
N9 N7 1_555 1_555
H7 N9 1_555 1_555
H8 N9 1_555 1_555
H9 N1 1_555 1_555
N5 C2 1_555 1_555
N7 C3 1_555 1_555
N8 C3 1_555 1_555

#END
