
#######################################################################
#
#                 Cambridge Crystallographic Data Centre
#                                CCDC 
#
#######################################################################
#
# If this CIF has been generated from an entry in the Cambridge 
# Structural Database, then it will include bibliographic, chemical, 
# crystal, experimental, refinement or atomic coordinate data resulting 
# from the CCDC's data processing and validation procedures.
#
#######################################################################

data_JACGOK
_chemical_formula_moiety         'C31 H21 N5'
_chemical_name_systematic        
4-(N-7-Azaindolyl)-4'-(2,2'-dipyridylamino)diphenylacetylene
_symmetry_cell_setting           monoclinic
_symmetry_space_group_name_H-M   'P 21/n'
_symmetry_Int_Tables_number      14
_space_group_name_Hall           '-P 2yn'
loop_
_symmetry_equiv_pos_site_id
_symmetry_equiv_pos_as_xyz
1 x,y,z
2 1/2-x,1/2+y,1/2-z
3 -x,-y,-z
4 1/2+x,1/2-y,1/2+z
_cell_length_a                   9.6666(17)
_cell_length_b                   9.9118(17)
_cell_length_c                   25.086(4)
_cell_angle_alpha                90
_cell_angle_beta                 95.814(3)
_cell_angle_gamma                90
_cell_volume                     2391.21
_chemical_melting_point          165-168deg.C
_cell_formula_units_Z            4
_exptl_crystal_recrystallization_method 'ethyl acetate/hexanes'
loop_
_atom_site_label
_atom_site_type_symbol
_atom_site_fract_x
_atom_site_fract_y
_atom_site_fract_z
N1 N 1.0531(2) -0.3469(2) -0.1600(1)
N2 N 1.1980(2) -0.5039(2) -0.1077(1)
N3 N -0.0726(2) -0.0586(2) 0.1632(1)
N4 N 0.2450(2) -0.3316(2) 0.1956(1)
N5 N 0.1084(2) -0.1935(2) 0.1382(1)
C1 C 1.0603(3) -0.2864(2) -0.2093(1)
C2 C 1.1773(3) -0.3222(3) -0.2306(1)
C3 C 1.3711(3) -0.4857(3) -0.1921(1)
C4 C 1.4045(3) -0.5670(4) -0.1494(1)
C5 C 1.3154(3) -0.5748(4) -0.1087(1)
C6 C 1.2502(2) -0.4101(3) -0.1937(1)
C7 C 1.1706(2) -0.4256(3) -0.1499(1)
C8 C 0.9414(2) -0.3306(2) -0.1275(1)
C9 C 0.8102(2) -0.3078(2) -0.1517(1)
C10 C 0.7013(2) -0.2883(2) -0.1214(1)
C11 C 0.7214(2) -0.2915(2) -0.0660(1)
C12 C 0.8537(2) -0.3158(2) -0.0420(1)
C13 C 0.9643(2) -0.3346(2) -0.0723(1)
C14 C 0.6071(2) -0.2708(2) -0.0345(1)
C15 C 0.5146(2) -0.2543(2) -0.0072(1)
C16 C 0.4075(2) -0.2369(2) 0.0282(1)
C17 C 0.3958(2) -0.1173(2) 0.0559(1)
C18 C 0.2971(2) -0.1030(2) 0.0915(1)
C19 C 0.2102(2) -0.2082(2) 0.1006(1)
C20 C 0.2189(2) -0.3264(2) 0.0725(1)
C21 C 0.3166(2) -0.3407(2) 0.0365(1)
C22 C -0.0068(2) -0.1082(2) 0.1237(1)
C23 C -0.0445(2) -0.0781(2) 0.0708(1)
C24 C -0.1568(3) 0.0033(3) 0.0582(1)
C25 C -0.2296(3) 0.0526(3) 0.0973(1)
C26 C -0.1842(3) 0.0198(3) 0.1489(1)
C27 C 0.1189(2) -0.2796(2) 0.1831(1)
C28 C 0.0072(2) -0.3116(2) 0.2112(1)
C29 C 0.0282(3) -0.4002(3) 0.2529(1)
C30 C 0.1548(3) -0.4584(2) 0.2652(1)
C31 C 0.2583(2) -0.4208(2) 0.2358(1)
H1 H 0.9931 -0.2285 -0.2257
H2 H 1.2047 -0.2943 -0.2633
H3 H 1.4280 -0.4807 -0.2198
H4 H 1.4860 -0.6174 -0.1471
H5 H 1.3397 -0.6335 -0.0804
H6 H 0.7947 -0.3055 -0.1889
H7 H 0.6127 -0.2726 -0.1383
H8 H 0.8689 -0.3196 -0.0048
H9 H 1.0533 -0.3497 -0.0556
H10 H 0.4552 -0.0459 0.0505
H11 H 0.2892 -0.0216 0.1094
H12 H 0.1585 -0.3971 0.0777
H13 H 0.3214 -0.4210 0.0176
H14 H 0.0055 -0.1126 0.0441
H15 H -0.1836 0.0251 0.0226
H16 H -0.3076 0.1067 0.0893
H17 H -0.2334 0.0536 0.1759
H18 H -0.0799 -0.2736 0.2019
H19 H -0.0447 -0.4210 0.2730
H20 H 0.1697 -0.5213 0.2927
H21 H 0.3451 -0.4602 0.2441
loop_
_geom_bond_atom_site_label_1
_geom_bond_atom_site_label_2
_geom_bond_site_symmetry_1
_geom_bond_site_symmetry_2
N1 C1 1_555 1_555
N2 C5 1_555 1_555
N3 C22 1_555 1_555
N4 C27 1_555 1_555
N5 C19 1_555 1_555
C1 C2 1_555 1_555
C2 C6 1_555 1_555
C3 C4 1_555 1_555
C4 C5 1_555 1_555
C5 H5 1_555 1_555
C6 C3 1_555 1_555
C7 N1 1_555 1_555
C8 N1 1_555 1_555
C9 C8 1_555 1_555
C10 C9 1_555 1_555
C11 C10 1_555 1_555
C12 C11 1_555 1_555
C13 C8 1_555 1_555
C14 C11 1_555 1_555
C15 C14 1_555 1_555
C16 C15 1_555 1_555
C17 C16 1_555 1_555
C18 C17 1_555 1_555
C19 C18 1_555 1_555
C20 C19 1_555 1_555
C21 C16 1_555 1_555
C22 N5 1_555 1_555
C23 C22 1_555 1_555
C24 C23 1_555 1_555
C25 C24 1_555 1_555
C26 N3 1_555 1_555
C27 N5 1_555 1_555
C28 C27 1_555 1_555
C29 C28 1_555 1_555
C30 C29 1_555 1_555
C31 N4 1_555 1_555
H1 C1 1_555 1_555
H2 C2 1_555 1_555
H3 C3 1_555 1_555
H4 C4 1_555 1_555
H6 C9 1_555 1_555
H7 C10 1_555 1_555
H8 C12 1_555 1_555
H9 C13 1_555 1_555
H10 C17 1_555 1_555
H11 C18 1_555 1_555
H12 C20 1_555 1_555
H13 C21 1_555 1_555
H14 C23 1_555 1_555
H15 C24 1_555 1_555
H16 C25 1_555 1_555
H17 C26 1_555 1_555
H18 C28 1_555 1_555
H19 C29 1_555 1_555
H20 C30 1_555 1_555
H21 C31 1_555 1_555
N2 C7 1_555 1_555
C6 C7 1_555 1_555
C12 C13 1_555 1_555
C20 C21 1_555 1_555
C25 C26 1_555 1_555
C30 C31 1_555 1_555

#END
