
#######################################################################
#
#                 Cambridge Crystallographic Data Centre
#                                CCDC 
#
#######################################################################
#
# If this CIF has been generated from an entry in the Cambridge 
# Structural Database, then it will include bibliographic, chemical, 
# crystal, experimental, refinement or atomic coordinate data resulting 
# from the CCDC's data processing and validation procedures.
#
#######################################################################

data_JACPAE
_chemical_formula_moiety         'C16 H26 N1 1+,Cl1 1-'
_chemical_name_systematic        
'Cyclohexyl-(3-phenyl)-but-2-ylammonium chloride'
_symmetry_cell_setting           monoclinic
_symmetry_space_group_name_H-M   'P 21/a'
_symmetry_Int_Tables_number      14
_space_group_name_Hall           '-P 2yab'
loop_
_symmetry_equiv_pos_site_id
_symmetry_equiv_pos_as_xyz
1 x,y,z
2 1/2-x,1/2+y,-z
3 -x,-y,-z
4 1/2+x,1/2-y,z
_cell_length_a                   12.054(4)
_cell_length_b                   5.576(3)
_cell_length_c                   23.119(7)
_cell_angle_alpha                90
_cell_angle_beta                 93.18(3)
_cell_angle_gamma                90
_cell_volume                     1551.51
_cell_formula_units_Z            4
loop_
_atom_site_label
_atom_site_type_symbol
_atom_site_fract_x
_atom_site_fract_y
_atom_site_fract_z
Cl1 Cl 0.5038(1) 0.8706(3) 0.2329(1)
N1 N 0.3756(4) 0.3574(11) 0.2285(2)
C1 C 0.2821(5) 0.3335(11) 0.2707(2)
C2 C 0.3354(5) 0.3159(11) 0.3324(2)
C3 C 0.3392(5) 0.3603(12) 0.1648(2)
C4 C 0.4439(5) 0.3627(14) 0.1305(3)
C5 C 0.4114(6) 0.3582(14) 0.0650(3)
C6 C 0.3345(7) 0.5646(15) 0.0491(3)
C7 C 0.2321(6) 0.5641(15) 0.0838(3)
C8 C 0.2642(5) 0.5663(12) 0.1493(3)
C9 C 0.2462(5) 0.2950(10) 0.3762(2)
C10 C 0.2491(5) 0.1116(12) 0.4170(2)
C11 C 0.1724(6) 0.0985(12) 0.4590(3)
C12 C 0.0897(5) 0.2708(13) 0.4601(3)
C13 C 0.0848(5) 0.4512(12) 0.4208(3)
C14 C 0.1627(5) 0.4631(12) 0.3789(3)
C15 C 0.2108(5) 0.1200(12) 0.2557(3)
C16 C 0.4108(5) 0.5264(12) 0.3484(3)
H1 H 0.4198(50) 0.523(11) 0.2358(25)
H2 H 0.4250(49) 0.212(11) 0.2357(24)
H3 H 0.2326 0.4684 0.2674
H4 H 0.3824 0.1768 0.3337
H5 H 0.2961 0.2197 0.1551
H6 H 0.4855 0.5060 0.1395
H7 H 0.4887 0.2249 0.1406
H8 H 0.3730 0.2110 0.0560
H9 H 0.4769 0.3675 0.0434
H10 H 0.3741 0.7115 0.0569
H11 H 0.3131 0.5552 0.0086
H12 H 0.1876 0.7026 0.0739
H13 H 0.1901 0.4215 0.0746
H14 H 0.1986 0.5549 0.1709
H15 H 0.3022 0.7136 0.1589
H16 H 0.3056 -0.0093 0.4155
H17 H 0.1768 -0.0270 0.4875
H18 H 0.0348 0.2609 0.4885
H19 H 0.0273 0.5699 0.4220
H20 H 0.1591 0.5925 0.3514
H21 H 0.1609 0.0929 0.2859
H22 H 0.2576 -0.0179 0.2520
H23 H 0.1688 0.1467 0.2197
H24 H 0.4409 0.5090 0.3875
H25 H 0.3681 0.6717 0.3451
H26 H 0.4703 0.5330 0.3226
loop_
_geom_bond_atom_site_label_1
_geom_bond_atom_site_label_2
_geom_bond_site_symmetry_1
_geom_bond_site_symmetry_2
N1 C1 1_555 1_555
C1 C2 1_555 1_555
C2 C9 1_555 1_555
C3 N1 1_555 1_555
C4 C3 1_555 1_555
C5 C4 1_555 1_555
C6 C5 1_555 1_555
C7 C6 1_555 1_555
C8 C3 1_555 1_555
C9 C10 1_555 1_555
C10 C11 1_555 1_555
C11 C12 1_555 1_555
C12 C13 1_555 1_555
C13 C14 1_555 1_555
C14 C9 1_555 1_555
C15 C1 1_555 1_555
C16 C2 1_555 1_555
H1 N1 1_555 1_555
H2 N1 1_555 1_555
H3 C1 1_555 1_555
H4 C2 1_555 1_555
H5 C3 1_555 1_555
H6 C4 1_555 1_555
H7 C4 1_555 1_555
H8 C5 1_555 1_555
H9 C5 1_555 1_555
H10 C6 1_555 1_555
H11 C6 1_555 1_555
H12 C7 1_555 1_555
H13 C7 1_555 1_555
H14 C8 1_555 1_555
H15 C8 1_555 1_555
H16 C10 1_555 1_555
H17 C11 1_555 1_555
H18 C12 1_555 1_555
H19 C13 1_555 1_555
H20 C14 1_555 1_555
H21 C15 1_555 1_555
H22 C15 1_555 1_555
H23 C15 1_555 1_555
H24 C16 1_555 1_555
H25 C16 1_555 1_555
H26 C16 1_555 1_555
C7 C8 1_555 1_555

#END
