
#######################################################################
#
#                 Cambridge Crystallographic Data Centre
#                                CCDC 
#
#######################################################################
#
# If this CIF has been generated from an entry in the Cambridge 
# Structural Database, then it will include bibliographic, chemical, 
# crystal, experimental, refinement or atomic coordinate data resulting 
# from the CCDC's data processing and validation procedures.
#
#######################################################################

data_JACTOZ
_chemical_name_common            
'5,15-Dimethyl-10,10,20,20-tetraethyl-5alpha,15beta-bis(4-methoxycarbonylmethoxyphenyl)calix[4]pyrrole unknown solvate'
_chemical_formula_moiety         'C48 H56 N4 O6'
_chemical_name_systematic        
"Dimethyl 2,2'-((10,10,20,20-tetraethyl-5,15-dimethyl-5,10,15,20,22,24-hexahydroporphyrin-5,15-diyl)bis(4,1-phenyleneoxy))diacetate unknown solvate"
_symmetry_cell_setting           triclinic
_symmetry_space_group_name_H-M   'P -1'
_symmetry_Int_Tables_number      2
_space_group_name_Hall           '-P 1'
loop_
_symmetry_equiv_pos_site_id
_symmetry_equiv_pos_as_xyz
1 x,y,z
2 -x,-y,-z
_cell_length_a                   9.809(2)
_cell_length_b                   10.700(2)
_cell_length_c                   12.566(4)
_cell_angle_alpha                97.105(3)
_cell_angle_beta                 99.614(4)
_cell_angle_gamma                113.494(2)
_cell_volume                     1165.86
_chemical_melting_point          '162-163 deg.C'
_cell_formula_units_Z            1
loop_
_atom_site_label
_atom_site_type_symbol
_atom_site_fract_x
_atom_site_fract_y
_atom_site_fract_z
C1 C 1.0823(2) 0.7625(2) 0.17717(18)
C2 C 0.9787(3) 0.8147(3) 0.1885(2)
H1 H 0.9964 0.9076 0.1944
C3 C 0.8386(3) 0.7028(2) 0.18973(19)
H2 H 0.7488 0.7096 0.1970
C4 C 0.8595(2) 0.5831(2) 0.17835(17)
C5 C 0.7478(2) 0.4331(2) 0.17126(18)
C6 C 0.6106(3) 0.4354(3) 0.2154(2)
H3 H 0.5626 0.4808 0.1717
H4 H 0.6461 0.4851 0.2909
H5 H 0.5380 0.3415 0.2110
C7 C 0.8184(3) 0.3560(2) 0.24094(18)
C8 C 0.9390(3) 0.4251(2) 0.33290(19)
H6 H 0.9814 0.5219 0.3521
C9 C 0.9988(3) 0.3527(3) 0.3978(2)
H7 H 1.0805 0.4013 0.4589
C10 C 0.9359(3) 0.2097(3) 0.3707(2)
C11 C 0.8123(3) 0.1384(3) 0.2812(2)
H8 H 0.7682 0.0415 0.2637
C12 C 0.7544(3) 0.2102(2) 0.2181(2)
H9 H 0.6706 0.1606 0.1587
C13 C 1.1233(4) 0.1915(3) 0.5096(2)
H10 H 1.1309 0.1251 0.5535
H11 H 1.1222 0.2689 0.5581
C14 C 1.2625(4) 0.2447(3) 0.4598(3)
C15 C 1.5307(6) 0.3475(6) 0.5026(5)
H12 H 1.5461 0.2689 0.4714
H13 H 1.6156 0.4051 0.5636
H14 H 1.5233 0.4006 0.4476
C16 C 0.6879(2) 0.3563(2) 0.05075(18)
C17 C 0.5528(3) 0.3232(3) -0.0227(2)
H15 H 0.4729 0.3431 -0.0079
C18 C 0.5555(3) 0.2537(3) -0.1245(2)
H16 H 0.4780 0.2205 -0.1888
C19 C 0.6906(2) 0.2432(2) -0.11289(19)
C20 C 0.7455(3) 0.1660(2) -0.1917(2)
C21 C 0.6966(3) 0.0137(3) -0.1744(3)
H17 H 0.5859 -0.0351 -0.1977
H18 H 0.7379 -0.0324 -0.2225
C22 C 0.7454(6) -0.0017(3) -0.0588(4)
H19 H 0.8542 0.0508 -0.0325
H20 H 0.7183 -0.0983 -0.0583
H21 H 0.6949 0.0326 -0.0116
C23 C 0.6690(3) 0.1646(4) -0.3130(2)
H22 H 0.5589 0.1145 -0.3245
H23 H 0.6913 0.2599 -0.3188
C24 C 0.7170(4) 0.1009(4) -0.4041(3)
H24 H 0.8248 0.1525 -0.3966
H25 H 0.6621 0.1034 -0.4740
H26 H 0.6947 0.0059 -0.4001
N1 N 1.00740(19) 0.62053(18) 0.17089(15)
H27 H 1.0485 0.5634 0.1633
N2 N 0.77156(19) 0.30776(18) -0.00542(15)
H28 H 0.8619 0.3164 0.0225
O1 O 1.3893(3) 0.2983(3) 0.5412(2)
O2 O 1.2601(4) 0.2396(3) 0.3646(2)
O3 O 0.9864(3) 0.12746(18) 0.42751(16)
C1A C 0.9177(2) 0.2375(2) -0.17717(18)
C2A C 1.0213(3) 0.1853(3) -0.1885(2)
H1A H 1.0036 0.0924 -0.1944
C3A C 1.1614(3) 0.2972(2) -0.18973(19)
H2A H 1.2512 0.2904 -0.1970
C4A C 1.1405(2) 0.4169(2) -0.17835(17)
C5A C 1.2522(2) 0.5669(2) -0.17126(18)
C6A C 1.3894(3) 0.5646(3) -0.2154(2)
H3A H 1.4374 0.5192 -0.1717
H4A H 1.3539 0.5149 -0.2909
H5A H 1.4620 0.6585 -0.2110
C7A C 1.1816(3) 0.6440(2) -0.24094(18)
C8A C 1.0610(3) 0.5749(2) -0.33290(19)
H6A H 1.0186 0.4781 -0.3521
C9A C 1.0012(3) 0.6473(3) -0.3978(2)
H7A H 0.9195 0.5987 -0.4589
C10A C 1.0641(3) 0.7903(3) -0.3707(2)
C11A C 1.1877(3) 0.8616(3) -0.2812(2)
H8A H 1.2318 0.9585 -0.2637
C12A C 1.2456(3) 0.7898(2) -0.2181(2)
H9A H 1.3294 0.8394 -0.1587
C13A C 0.8767(4) 0.8085(3) -0.5096(2)
H10A H 0.8691 0.8749 -0.5535
H11A H 0.8778 0.7311 -0.5581
C14A C 0.7375(4) 0.7553(3) -0.4598(3)
C15A C 0.4693(6) 0.6525(6) -0.5026(5)
H12A H 0.4539 0.7311 -0.4714
H13A H 0.3844 0.5949 -0.5636
H14A H 0.4767 0.5994 -0.4476
C16A C 1.3121(2) 0.6437(2) -0.05075(18)
C17A C 1.4472(3) 0.6768(3) 0.0227(2)
H15A H 1.5271 0.6569 0.0079
C18A C 1.4445(3) 0.7463(3) 0.1245(2)
H16A H 1.5220 0.7795 0.1888
C19A C 1.3094(2) 0.7568(2) 0.11289(19)
C20A C 1.2545(3) 0.8340(2) 0.1917(2)
C21A C 1.3034(3) 0.9863(3) 0.1744(3)
H17A H 1.4141 1.0351 0.1977
H18A H 1.2621 1.0324 0.2225
C22A C 1.2546(6) 1.0017(3) 0.0588(4)
H19A H 1.1458 0.9492 0.0325
H20A H 1.2817 1.0983 0.0583
H21A H 1.3051 0.9674 0.0116
C23A C 1.3310(3) 0.8354(4) 0.3130(2)
H22A H 1.4411 0.8855 0.3245
H23A H 1.3087 0.7401 0.3188
C24A C 1.2830(4) 0.8991(4) 0.4041(3)
H24A H 1.1752 0.8475 0.3966
H25A H 1.3379 0.8966 0.4740
H26A H 1.3053 0.9941 0.4001
N1A N 0.99260(19) 0.37947(18) -0.17089(15)
H27A H 0.9515 0.4366 -0.1633
N2A N 1.22844(19) 0.69224(18) 0.00542(15)
H28A H 1.1381 0.6836 -0.0225
O1A O 0.6107(3) 0.7017(3) -0.5412(2)
O2A O 0.7399(4) 0.7604(3) -0.3646(2)
O3A O 1.0136(3) 0.87254(18) -0.42751(16)
loop_
_geom_bond_atom_site_label_1
_geom_bond_atom_site_label_2
_geom_bond_site_symmetry_1
_geom_bond_site_symmetry_2
C1 C2 1_555 1_555
C2 H1 1_555 1_555
C3 C2 1_555 1_555
H2 C3 1_555 1_555
C4 C3 1_555 1_555
C5 C4 1_555 1_555
C6 C5 1_555 1_555
H3 C6 1_555 1_555
H4 C6 1_555 1_555
H5 C6 1_555 1_555
C7 C5 1_555 1_555
C8 C7 1_555 1_555
H6 C8 1_555 1_555
C9 C8 1_555 1_555
H7 C9 1_555 1_555
C10 C9 1_555 1_555
C11 C10 1_555 1_555
H8 C11 1_555 1_555
C12 C7 1_555 1_555
H9 C12 1_555 1_555
C13 H10 1_555 1_555
H11 C13 1_555 1_555
C14 C13 1_555 1_555
C15 H12 1_555 1_555
H13 C15 1_555 1_555
H14 C15 1_555 1_555
C16 C5 1_555 1_555
C17 C16 1_555 1_555
H15 C17 1_555 1_555
C18 C17 1_555 1_555
H16 C18 1_555 1_555
C19 C18 1_555 1_555
C20 C19 1_555 1_555
C21 C20 1_555 1_555
H17 C21 1_555 1_555
H18 C21 1_555 1_555
C22 C21 1_555 1_555
H19 C22 1_555 1_555
H20 C22 1_555 1_555
H21 C22 1_555 1_555
C23 C20 1_555 1_555
H22 C23 1_555 1_555
H23 C23 1_555 1_555
C24 C23 1_555 1_555
H24 C24 1_555 1_555
H25 C24 1_555 1_555
H26 C24 1_555 1_555
N1 C1 1_555 1_555
H27 N1 1_555 1_555
N2 C16 1_555 1_555
H28 N2 1_555 1_555
O1 C14 1_555 1_555
O2 C14 1_555 1_555
O3 C10 1_555 1_555
C1A C20 1_555 1_555
C2A C1A 1_555 1_555
H1A C2A 1_555 1_555
C3A C2A 1_555 1_555
H2A C3A 1_555 1_555
C4A C3A 1_555 1_555
C5A C4A 1_555 1_555
C6A C5A 1_555 1_555
H3A C6A 1_555 1_555
H4A C6A 1_555 1_555
H5A C6A 1_555 1_555
C7A C5A 1_555 1_555
C8A C7A 1_555 1_555
H6A C8A 1_555 1_555
C9A C8A 1_555 1_555
H7A C9A 1_555 1_555
C10A C9A 1_555 1_555
C11A C10A 1_555 1_555
H8A C11A 1_555 1_555
C12A C7A 1_555 1_555
H9A C12A 1_555 1_555
C13A H10A 1_555 1_555
H11A C13A 1_555 1_555
C14A C13A 1_555 1_555
C15A H12A 1_555 1_555
H13A C15A 1_555 1_555
H14A C15A 1_555 1_555
C16A C5A 1_555 1_555
C17A C16A 1_555 1_555
H15A C17A 1_555 1_555
C18A C17A 1_555 1_555
H16A C18A 1_555 1_555
C19A C18A 1_555 1_555
C20A C1 1_555 1_555
C21A C20A 1_555 1_555
H17A C21A 1_555 1_555
H18A C21A 1_555 1_555
C22A C21A 1_555 1_555
H19A C22A 1_555 1_555
H20A C22A 1_555 1_555
H21A C22A 1_555 1_555
C23A C20A 1_555 1_555
H22A C23A 1_555 1_555
H23A C23A 1_555 1_555
C24A C23A 1_555 1_555
H24A C24A 1_555 1_555
H25A C24A 1_555 1_555
H26A C24A 1_555 1_555
N1A C1A 1_555 1_555
H27A N1A 1_555 1_555
N2A C16A 1_555 1_555
H28A N2A 1_555 1_555
O1A C14A 1_555 1_555
O2A C14A 1_555 1_555
O3A C10A 1_555 1_555
C4 N1 1_555 1_555
C11 C12 1_555 1_555
C13 O3 1_555 1_555
C15 O1 1_555 1_555
C19 N2 1_555 1_555
C4A N1A 1_555 1_555
C11A C12A 1_555 1_555
C13A O3A 1_555 1_555
C15A O1A 1_555 1_555
C19A C20A 1_555 1_555
C19A N2A 1_555 1_555

#END
