
#######################################################################
#
#                 Cambridge Crystallographic Data Centre
#                                CCDC 
#
#######################################################################
#
# If this CIF has been generated from an entry in the Cambridge 
# Structural Database, then it will include bibliographic, chemical, 
# crystal, experimental, refinement or atomic coordinate data resulting 
# from the CCDC's data processing and validation procedures.
#
#######################################################################

data_JACTUF
_chemical_name_common            
'5,15-Dimethyl-10,10,20,20-tetraethyl-5,15-bis(4-(2-((2-(((2-hydroxynaphthalen-1-yl)methylidene)amino)ethyl)amino)-2-oxoethoxy)phenyl)calix[4]pyrrole unknown solvate'
_chemical_formula_moiety         'C72 H76 N8 O6'
_chemical_name_systematic        
"2,2'-((10,10,20,20-Tetraethyl-5,15-dimethyl-5,10,15,20,22,24-hexahydroporphyrin-5,15-diyl)bis(4,1-phenyleneoxy))bis(N-(2-(((2-hydroxy-1-naphthyl)methylene)amino)ethyl)acetamide) unknown solvate"
_symmetry_cell_setting           monoclinic
_symmetry_space_group_name_H-M   'P 21/c'
_symmetry_Int_Tables_number      14
_space_group_name_Hall           '-P 2ybc'
loop_
_symmetry_equiv_pos_site_id
_symmetry_equiv_pos_as_xyz
1 x,y,z
2 -x,1/2+y,1/2-z
3 -x,-y,-z
4 x,1/2-y,1/2+z
_cell_length_a                   11.4020(19)
_cell_length_b                   29.677(5)
_cell_length_c                   11.730(2)
_cell_angle_alpha                90
_cell_angle_beta                 106.250(2)
_cell_angle_gamma                90
_cell_volume                     3810.6
_chemical_melting_point          '169.4-169.6 deg.C'
_cell_formula_units_Z            2
loop_
_atom_site_label
_atom_site_type_symbol
_atom_site_fract_x
_atom_site_fract_y
_atom_site_fract_z
C1 C 0.8191(3) 1.00941(14) 0.9604(3)
H1 H 0.8848 1.0308 0.9759
H2 H 0.8330 0.9884 1.0249
H3 H 0.7434 1.0250 0.9526
C2 C 0.8130(3) 0.98456(11) 0.8473(2)
H4 H 0.7486 0.9622 0.8348
H5 H 0.8894 0.9686 0.8573
C3 C 0.7889(2) 1.01477(10) 0.7320(2)
C4 C 0.9013(3) 1.07226(12) 0.6328(3)
H6 H 0.9179 1.0519 0.5756
H7 H 0.9637 1.0949 0.6528
H8 H 0.8233 1.0863 0.5999
C5 C 0.8996(2) 1.04634(11) 0.7437(3)
H9 H 0.9018 1.0679 0.8065
H10 H 0.9735 1.0284 0.7683
C6 C 0.6735(2) 1.04098(9) 0.7203(2)
C7 C 0.6554(2) 1.08503(9) 0.7432(2)
H11 H 0.7142 1.1076 0.7583
C8 C 0.5306(2) 1.09038(9) 0.7402(2)
H12 H 0.4937 1.1171 0.7533
C9 C 0.4748(2) 1.04987(9) 0.7150(2)
C10 C 0.2828(3) 1.07165(10) 0.7618(3)
H13 H 0.1985 1.0642 0.7511
H14 H 0.2885 1.1012 0.7307
H15 H 0.3255 1.0711 0.8449
C11 C 0.3411(2) 1.03675(9) 0.6950(2)
C12 C 0.2752(2) 1.03956(9) 0.5642(2)
C13 C 0.1939(2) 1.06952(9) 0.5000(2)
H16 H 0.1645 1.0948 0.5299
C14 C 0.1611(2) 1.05599(10) 0.3802(2)
H17 H 0.1069 1.0709 0.3175
C15 C 0.2220(2) 1.01755(9) 0.3719(2)
C16 C 0.3239(2) 0.99036(9) 0.7443(2)
C17 C 0.2144(2) 0.96675(10) 0.6977(2)
H18 H 0.1561 0.9789 0.6330
C18 C 0.1898(3) 0.92677(10) 0.7433(2)
H19 H 0.1154 0.9125 0.7105
C19 C 0.2743(3) 0.90765(9) 0.8370(2)
C20 C 0.3855(3) 0.92995(10) 0.8870(2)
H20 H 0.4438 0.9173 0.9509
C21 C 0.4071(2) 0.97032(10) 0.8409(2)
H21 H 0.4805 0.9850 0.8755
C22 C 0.3039(3) 0.84972(11) 0.9890(2)
H22 H 0.2448 0.8393 1.0286
H23 H 0.3499 0.8741 1.0361
C23 C 0.3895(3) 0.81205(11) 0.9854(3)
C24 C 0.4615(3) 0.75752(12) 0.8669(3)
H24 H 0.5232 0.7517 0.9412
H25 H 0.5029 0.7629 0.8064
C25 C 0.3803(3) 0.71666(12) 0.8332(3)
H26 H 0.3296 0.7200 0.7521
H27 H 0.4307 0.6901 0.8367
C26 C 0.1833(3) 0.71003(10) 0.8717(3)
H28 H 0.1491 0.7141 0.7905
C27 C 0.1029(3) 0.70383(9) 0.9416(2)
C28 C 0.1507(3) 0.69720(9) 1.0667(3)
C29 C 0.0644(3) 0.68962(11) 1.1346(3)
H29 H 0.0932 0.6847 1.2160
C30 C -0.0549(3) 0.68955(11) 1.0831(3)
H30 H -0.1071 0.6849 1.1304
C31 C -0.1076(3) 0.69627(10) 0.9585(3)
C32 C -0.2341(3) 0.69654(11) 0.9081(4)
H31 H -0.2848 0.6927 0.9572
C33 C -0.2855(4) 0.70225(12) 0.7892(4)
H32 H -0.3698 0.7016 0.7568
C34 C -0.2094(4) 0.70901(14) 0.7187(4)
H33 H -0.2429 0.7137 0.6377
C35 C -0.0847(3) 0.70898(12) 0.7653(3)
H34 H -0.0357 0.7128 0.7146
C36 C -0.0293(3) 0.70337(10) 0.8868(3)
N1 N 0.56196(17) 1.01960(7) 0.70124(17)
H35 H 0.5487 0.9916 0.6834
N2 N 0.29304(17) 1.00768(7) 0.48485(17)
H36 H 0.3415 0.9850 0.5033
N3 N 0.3935(2) 0.79723(8) 0.8799(2)
H37 H 0.3543 0.8117 0.8173
N4 N 0.3027(2) 0.71049(8) 0.9114(2)
O1 O 0.2401(2) 0.86684(7) 0.87564(17)
O2 O 0.4488(2) 0.79518(9) 1.0801(2)
O3 O 0.2652(2) 0.69788(9) 1.11901(18)
H38 H 0.3028 0.7041 1.0709
C1B C 0.1809(3) 0.99059(14) 0.0396(3)
H1B H 0.1152 0.9692 0.0241
H2B H 0.1670 1.0116 -0.0249
H3B H 0.2566 0.9750 0.0474
C2B C 0.1870(3) 1.01544(11) 0.1527(2)
H4B H 0.2514 1.0378 0.1652
H5B H 0.1106 1.0314 0.1427
C3B C 0.2111(2) 0.98523(10) 0.2680(2)
C4B C 0.0987(3) 0.92774(12) 0.3672(3)
H6B H 0.0821 0.9481 0.4244
H7B H 0.0363 0.9051 0.3472
H8B H 0.1767 0.9137 0.4001
C5B C 0.1004(2) 0.95366(11) 0.2563(3)
H9B H 0.0982 0.9321 0.1935
H10B H 0.0265 0.9716 0.2317
C6B C 0.3265(2) 0.95902(9) 0.2797(2)
C7B C 0.3446(2) 0.91497(9) 0.2568(2)
H11B H 0.2858 0.8924 0.2417
C8B C 0.4694(2) 0.90962(9) 0.2598(2)
H12B H 0.5063 0.8829 0.2467
C9B C 0.5252(2) 0.95013(9) 0.2850(2)
C10B C 0.7172(3) 0.92835(10) 0.2382(3)
H13B H 0.8015 0.9358 0.2489
H14B H 0.7115 0.8988 0.2693
H15B H 0.6745 0.9289 0.1551
C11B C 0.6589(2) 0.96325(9) 0.3050(2)
C12B C 0.7248(2) 0.96044(9) 0.4358(2)
C13B C 0.8061(2) 0.93048(9) 0.5000(2)
H16B H 0.8355 0.9052 0.4701
C14B C 0.8389(2) 0.94401(10) 0.6198(2)
H17B H 0.8931 0.9291 0.6825
C15B C 0.7780(2) 0.98245(9) 0.6281(2)
C16B C 0.6761(2) 1.00964(9) 0.2557(2)
C17B C 0.7856(2) 1.03325(10) 0.3023(2)
H18B H 0.8439 1.0211 0.3670
C18B C 0.8102(3) 1.07323(10) 0.2567(2)
H19B H 0.8846 1.0875 0.2895
C19B C 0.7257(3) 1.09235(9) 0.1630(2)
C20B C 0.6145(3) 1.07005(10) 0.1130(2)
H20B H 0.5562 1.0827 0.0491
C21B C 0.5929(2) 1.02968(10) 0.1591(2)
H21B H 0.5195 1.0150 0.1245
C22B C 0.6961(3) 1.15028(11) 0.0110(2)
H22B H 0.7552 1.1607 -0.0286
H23B H 0.6501 1.1259 -0.0361
C23B C 0.6105(3) 1.18795(11) 0.0146(3)
C24B C 0.5385(3) 1.24248(12) 0.1331(3)
H24B H 0.4768 1.2483 0.0588
H25B H 0.4971 1.2371 0.1936
C25B C 0.6197(3) 1.28334(12) 0.1668(3)
H26B H 0.6704 1.2800 0.2479
H27B H 0.5693 1.3099 0.1633
C26B C 0.8167(3) 1.28997(10) 0.1283(3)
H28B H 0.8509 1.2859 0.2095
C27B C 0.8971(3) 1.29617(9) 0.0584(2)
C28B C 0.8493(3) 1.30280(9) -0.0667(3)
C29B C 0.9356(3) 1.31038(11) -0.1346(3)
H29B H 0.9068 1.3153 -0.2160
C30B C 1.0549(3) 1.31045(11) -0.0831(3)
H30B H 1.1071 1.3151 -0.1304
C31B C 1.1076(3) 1.30373(10) 0.0415(3)
C32B C 1.2341(3) 1.30346(11) 0.0919(4)
H31B H 1.2848 1.3073 0.0428
C33B C 1.2855(4) 1.29775(12) 0.2108(4)
H32B H 1.3698 1.2984 0.2432
C34B C 1.2094(4) 1.29099(14) 0.2813(4)
H33B H 1.2429 1.2863 0.3623
C35B C 1.0847(3) 1.29102(12) 0.2347(3)
H34B H 1.0357 1.2872 0.2854
C36B C 1.0293(3) 1.29663(10) 0.1132(3)
N1B N 0.43804(17) 0.98040(7) 0.29876(17)
H35B H 0.4513 1.0084 0.3166
N2B N 0.70696(17) 0.99232(7) 0.51515(17)
H36B H 0.6585 1.0150 0.4967
N3B N 0.6065(2) 1.20277(8) 0.1201(2)
H37B H 0.6457 1.1883 0.1827
N4B N 0.6973(2) 1.28951(8) 0.0886(2)
O1B O 0.7599(2) 1.13316(7) 0.12436(17)
O2B O 0.5512(2) 1.20482(9) -0.0801(2)
O3B O 0.7348(2) 1.30212(9) -0.11901(18)
H38B H 0.6972 1.2959 -0.0709
loop_
_geom_bond_atom_site_label_1
_geom_bond_atom_site_label_2
_geom_bond_site_symmetry_1
_geom_bond_site_symmetry_2
C1 H1 1_555 1_555
H2 C1 1_555 1_555
H3 C1 1_555 1_555
C2 C1 1_555 1_555
H4 C2 1_555 1_555
H5 C2 1_555 1_555
C3 C2 1_555 1_555
C4 H6 1_555 1_555
H7 C4 1_555 1_555
H8 C4 1_555 1_555
C5 C3 1_555 1_555
H9 C5 1_555 1_555
H10 C5 1_555 1_555
C6 C3 1_555 1_555
C7 C6 1_555 1_555
H11 C7 1_555 1_555
C8 C7 1_555 1_555
H12 C8 1_555 1_555
C9 C8 1_555 1_555
C10 H13 1_555 1_555
H14 C10 1_555 1_555
H15 C10 1_555 1_555
C11 C9 1_555 1_555
C12 C11 1_555 1_555
C13 C12 1_555 1_555
H16 C13 1_555 1_555
C14 C13 1_555 1_555
H17 C14 1_555 1_555
C15 C14 1_555 1_555
C16 C11 1_555 1_555
C17 C16 1_555 1_555
H18 C17 1_555 1_555
C18 C17 1_555 1_555
H19 C18 1_555 1_555
C19 C18 1_555 1_555
C20 C19 1_555 1_555
H20 C20 1_555 1_555
C21 C16 1_555 1_555
H21 C21 1_555 1_555
C22 H22 1_555 1_555
H23 C22 1_555 1_555
C23 C22 1_555 1_555
C24 H24 1_555 1_555
H25 C24 1_555 1_555
C25 C24 1_555 1_555
H26 C25 1_555 1_555
H27 C25 1_555 1_555
C26 H28 1_555 1_555
C27 C26 1_555 1_555
C28 C27 1_555 1_555
C29 C28 1_555 1_555
H29 C29 1_555 1_555
C30 C29 1_555 1_555
H30 C30 1_555 1_555
C31 C30 1_555 1_555
C32 C31 1_555 1_555
H31 C32 1_555 1_555
C33 C32 1_555 1_555
H32 C33 1_555 1_555
C34 C33 1_555 1_555
H33 C34 1_555 1_555
C35 C34 1_555 1_555
H34 C35 1_555 1_555
C36 C27 1_555 1_555
N1 C6 1_555 1_555
H35 N1 1_555 1_555
N2 C12 1_555 1_555
H36 N2 1_555 1_555
N3 C23 1_555 1_555
H37 N3 1_555 1_555
N4 C25 1_555 1_555
O1 C19 1_555 1_555
O2 C23 1_555 1_555
O3 C28 1_555 1_555
H38 O3 1_555 1_555
C1B H1B 1_555 1_555
H2B C1B 1_555 1_555
H3B C1B 1_555 1_555
C2B C1B 1_555 1_555
H4B C2B 1_555 1_555
H5B C2B 1_555 1_555
C3B C15 1_555 1_555
C4B H6B 1_555 1_555
H7B C4B 1_555 1_555
H8B C4B 1_555 1_555
C5B C3B 1_555 1_555
H9B C5B 1_555 1_555
H10B C5B 1_555 1_555
C6B C3B 1_555 1_555
C7B C6B 1_555 1_555
H11B C7B 1_555 1_555
C8B C7B 1_555 1_555
H12B C8B 1_555 1_555
C9B C8B 1_555 1_555
C10B H13B 1_555 1_555
H14B C10B 1_555 1_555
H15B C10B 1_555 1_555
C11B C9B 1_555 1_555
C12B C11B 1_555 1_555
C13B C12B 1_555 1_555
H16B C13B 1_555 1_555
C14B C13B 1_555 1_555
H17B C14B 1_555 1_555
C15B C3 1_555 1_555
C16B C11B 1_555 1_555
C17B C16B 1_555 1_555
H18B C17B 1_555 1_555
C18B C17B 1_555 1_555
H19B C18B 1_555 1_555
C19B C18B 1_555 1_555
C20B C19B 1_555 1_555
H20B C20B 1_555 1_555
C21B C16B 1_555 1_555
H21B C21B 1_555 1_555
C22B H22B 1_555 1_555
H23B C22B 1_555 1_555
C23B C22B 1_555 1_555
C24B H24B 1_555 1_555
H25B C24B 1_555 1_555
C25B C24B 1_555 1_555
H26B C25B 1_555 1_555
H27B C25B 1_555 1_555
C26B H28B 1_555 1_555
C27B C26B 1_555 1_555
C28B C27B 1_555 1_555
C29B C28B 1_555 1_555
H29B C29B 1_555 1_555
C30B C29B 1_555 1_555
H30B C30B 1_555 1_555
C31B C30B 1_555 1_555
C32B C31B 1_555 1_555
H31B C32B 1_555 1_555
C33B C32B 1_555 1_555
H32B C33B 1_555 1_555
C34B C33B 1_555 1_555
H33B C34B 1_555 1_555
C35B C34B 1_555 1_555
H34B C35B 1_555 1_555
C36B C27B 1_555 1_555
N1B C6B 1_555 1_555
H35B N1B 1_555 1_555
N2B C12B 1_555 1_555
H36B N2B 1_555 1_555
N3B C23B 1_555 1_555
H37B N3B 1_555 1_555
N4B C25B 1_555 1_555
O1B C19B 1_555 1_555
O2B C23B 1_555 1_555
O3B C28B 1_555 1_555
H38B O3B 1_555 1_555
C4 C5 1_555 1_555
C9 N1 1_555 1_555
C10 C11 1_555 1_555
C15 N2 1_555 1_555
C20 C21 1_555 1_555
C22 O1 1_555 1_555
C24 N3 1_555 1_555
C26 N4 1_555 1_555
C31 C36 1_555 1_555
C35 C36 1_555 1_555
C2B C3B 1_555 1_555
C4B C5B 1_555 1_555
C9B N1B 1_555 1_555
C10B C11B 1_555 1_555
C14B C15B 1_555 1_555
C15B N2B 1_555 1_555
C20B C21B 1_555 1_555
C22B O1B 1_555 1_555
C24B N3B 1_555 1_555
C26B N4B 1_555 1_555
C31B C36B 1_555 1_555
C35B C36B 1_555 1_555

#END
