
#######################################################################
#
#                 Cambridge Crystallographic Data Centre
#                                CCDC 
#
#######################################################################
#
# If this CIF has been generated from an entry in the Cambridge 
# Structural Database, then it will include bibliographic, chemical, 
# crystal, experimental, refinement or atomic coordinate data resulting 
# from the CCDC's data processing and validation procedures.
#
#######################################################################

data_JADMUX
_chemical_formula_moiety         'C20 H31 N5 O4 Si1'
_chemical_name_systematic        
'Ethyl (E)-3-((2R,3S,5R)-5-(6-amino-9H-purin-9-yl)-3-(t-butyl(dimethyl)siloxy)-2,3,4,5-tetrahydrofuran-2-yl)prop-2-enoate'
_symmetry_cell_setting           orthorhombic
_symmetry_space_group_name_H-M   'P 21 21 21'
_symmetry_Int_Tables_number      19
_space_group_name_Hall           'P 2ac 2ab'
loop_
_symmetry_equiv_pos_site_id
_symmetry_equiv_pos_as_xyz
1 x,y,z
2 1/2-x,-y,1/2+z
3 -x,1/2+y,1/2-z
4 1/2+x,1/2-y,-z
_cell_length_a                   8.473(5)
_cell_length_b                   16.350(12)
_cell_length_c                   17.753(12)
_cell_angle_alpha                90
_cell_angle_beta                 90
_cell_angle_gamma                90
_cell_volume                     2459.39
_exptl_crystal_colour            colorless
_exptl_crystal_description       prism
_chemical_melting_point          125-126deg.C
_cell_formula_units_Z            4
_exptl_crystal_recrystallization_method methanol
loop_
_atom_site_label
_atom_site_type_symbol
_atom_site_fract_x
_atom_site_fract_y
_atom_site_fract_z
N1 N 0.4803(4) 0.7499(2) -0.4104(2)
C1 C 0.5156(5) 0.7693(3) -0.3396(2)
H1 H 0.6233(5) 0.7596(3) -0.3253(2)
N2 N 0.4262(4) 0.8009(2) -0.2859(2)
C2 C 0.2788(5) 0.8137(2) -0.3118(2)
C3 C 0.2244(4) 0.7974(2) -0.3828(2)
C4 C 0.3312(5) 0.7636(2) -0.4348(2)
N3 N 0.0658(4) 0.8185(2) -0.3897(2)
C5 C 0.0307(5) 0.8474(2) -0.3228(2)
H2 H -0.0729(5) 0.8669(2) -0.3103(2)
N4 N 0.1537(4) 0.8459(2) -0.2725(2)
N5 N 0.2955(4) 0.7449(2) -0.5056(2)
H3 H 0.1972(4) 0.7540(2) -0.5227(2)
H4 H 0.3692(4) 0.7236(2) -0.5364(2)
O1 O 0.2300(3) 0.9516(2) -0.19287(15)
O2 O 0.1377(4) 0.9024(2) -0.0335(2)
Si1 Si 0.1316(2) 0.90286(8) 0.05864(7)
C6 C 0.1646(11) 0.7967(3) 0.0942(4)
H5 H 0.0820(11) 0.7619(3) 0.0759(4)
H6 H 0.2646(11) 0.7771(3) 0.0763(4)
H7 H 0.1641(11) 0.7965(3) 0.1483(4)
C7 C 0.2893(9) 0.9699(4) 0.0956(4)
H8 H 0.2732(9) 1.0248(4) 0.0780(4)
H9 H 0.2887(9) 0.9694(4) 0.1496(4)
H10 H 0.3891(9) 0.9501(4) 0.0777(4)
C8 C -0.0688(7) 0.9420(3) 0.0818(3)
C9 C -0.1929(9) 0.8920(5) 0.0397(4)
H11 H -0.2953(9) 0.9130(5) 0.0522(4)
H12 H -0.1756(9) 0.8972(5) -0.0136(4)
H13 H -0.1869(9) 0.8354(5) 0.0537(4)
C10 C -0.0948(12) 0.9349(7) 0.1675(4)
H14 H -0.1979(12) 0.9546(7) 0.1808(4)
H15 H -0.0861(12) 0.8782(7) 0.1810(4)
H16 H -0.0163(12) 0.9658(7) 0.1942(4)
C11 C -0.0839(11) 1.0308(4) 0.0569(5)
H17 H -0.1878(11) 1.0502(4) 0.0689(5)
H18 H -0.0069(11) 1.0634(4) 0.0828(5)
H19 H -0.0669(11) 1.0347(4) 0.0036(5)
O3 O 0.8149(4) 0.9684(2) -0.1851(2)
O4 O 0.8144(4) 1.0951(2) -0.1366(2)
C12 C 0.9819(7) 1.1048(4) -0.1521(5)
H20 H 1.0327(7) 1.0531(4) -0.1438(5)
H21 H 1.0269(7) 1.1437(4) -0.1179(5)
C13 C 1.0100(11) 1.1299(5) -0.2292(5)
H22 H 1.1217(11) 1.1346(5) -0.2372(5)
H23 H 0.9669(11) 1.0906(5) -0.2636(5)
H24 H 0.9611(11) 1.1821(5) -0.2375(5)
C14 C 0.1475(5) 0.8765(2) -0.1961(2)
H25 H 0.0393(5) 0.8858(2) -0.1825(2)
C15 C 0.2222(6) 0.8223(3) -0.1381(2)
H26 H 0.3122(6) 0.7947(3) -0.1590(2)
H27 H 0.1494(6) 0.7824(3) -0.1189(2)
C16 C 0.2706(6) 0.8818(3) -0.0780(2)
H28 H 0.3564(6) 0.8619(3) -0.0478(2)
C17 C 0.3202(5) 0.9563(3) -0.1246(2)
H29 H 0.2920(5) 1.0052(3) -0.0979(2)
C18 C 0.4920(5) 0.9591(3) -0.1449(3)
H30 H 0.5368(5) 0.9116(3) -0.1684(3)
C19 C 0.5819(5) 1.0218(3) -0.1305(3)
H31 H 0.5401(5) 1.0670(3) -0.1022(3)
C20 C 0.7483(6) 1.0234(3) -0.1548(3)
loop_
_geom_bond_atom_site_label_1
_geom_bond_atom_site_label_2
_geom_bond_site_symmetry_1
_geom_bond_site_symmetry_2
N1 C1 1_555 1_555
C1 H1 1_555 1_555
N2 C1 1_555 1_555
C2 N2 1_555 1_555
C3 C2 1_555 1_555
C4 N1 1_555 1_555
N3 C3 1_555 1_555
C5 N3 1_555 1_555
H2 C5 1_555 1_555
N4 C2 1_555 1_555
N5 C4 1_555 1_555
H3 N5 1_555 1_555
H4 N5 1_555 1_555
O1 C14 1_555 1_555
O2 Si1 1_555 1_555
Si1 C6 1_555 1_555
C6 H5 1_555 1_555
H6 C6 1_555 1_555
H7 C6 1_555 1_555
C7 Si1 1_555 1_555
H8 C7 1_555 1_555
H9 C7 1_555 1_555
H10 C7 1_555 1_555
C8 Si1 1_555 1_555
C9 C8 1_555 1_555
H11 C9 1_555 1_555
H12 C9 1_555 1_555
H13 C9 1_555 1_555
C10 C8 1_555 1_555
H14 C10 1_555 1_555
H15 C10 1_555 1_555
H16 C10 1_555 1_555
C11 C8 1_555 1_555
H17 C11 1_555 1_555
H18 C11 1_555 1_555
H19 C11 1_555 1_555
O3 C20 1_555 1_555
O4 C12 1_555 1_555
C12 H20 1_555 1_555
H21 C12 1_555 1_555
C13 C12 1_555 1_555
H22 C13 1_555 1_555
H23 C13 1_555 1_555
H24 C13 1_555 1_555
C14 N4 1_555 1_555
H25 C14 1_555 1_555
C15 C14 1_555 1_555
H26 C15 1_555 1_555
H27 C15 1_555 1_555
C16 O2 1_555 1_555
H28 C16 1_555 1_555
C17 O1 1_555 1_555
H29 C17 1_555 1_555
C18 C17 1_555 1_555
H30 C18 1_555 1_555
C19 C18 1_555 1_555
H31 C19 1_555 1_555
C20 O4 1_555 1_555
C3 C4 1_555 1_555
C5 N4 1_555 1_555
C15 C16 1_555 1_555
C16 C17 1_555 1_555
C19 C20 1_555 1_555

#END
