
#######################################################################
#
#                 Cambridge Crystallographic Data Centre
#                                CCDC 
#
#######################################################################
#
# If this CIF has been generated from an entry in the Cambridge 
# Structural Database, then it will include bibliographic, chemical, 
# crystal, experimental, refinement or atomic coordinate data resulting 
# from the CCDC's data processing and validation procedures.
#
#######################################################################

data_JADRAK
_chemical_name_common            
2-(4-(2,4-dichlorobenzoyl)-1,3-dimethylpyrazol-5-yloxy)acetophenone
_chemical_formula_moiety         'C20 H16 Cl2 N2 O3'
_chemical_name_systematic        
2-((4-(2,4-dichlorobenzoyl)-1,3-dimethyl-1H-pyrazol-5-yl)oxy)-1-phenylethanone
_symmetry_cell_setting           triclinic
_symmetry_space_group_name_H-M   'P -1'
_symmetry_Int_Tables_number      2
_space_group_name_Hall           '-P 1'
loop_
_symmetry_equiv_pos_site_id
_symmetry_equiv_pos_as_xyz
1 x,y,z
2 -x,-y,-z
_cell_length_a                   7.827(3)
_cell_length_b                   15.534(5)
_cell_length_c                   15.886(6)
_cell_angle_alpha                88.82(2)
_cell_angle_beta                 89.093(18)
_cell_angle_gamma                77.266(18)
_cell_volume                     1883.46
_exptl_crystal_colour            colorless
_exptl_crystal_description       plate
_cell_formula_units_Z            4
loop_
_atom_site_label
_atom_site_type_symbol
_atom_site_fract_x
_atom_site_fract_y
_atom_site_fract_z
Cl1 Cl 0.24743(13) 1.11847(6) 0.20923(6)
Cl2 Cl 0.24441(12) 0.77988(5) 0.27588(5)
O1 O 0.0216(3) 0.81955(12) 0.45887(12)
O2 O 0.1419(2) 0.74996(11) 0.64187(10)
O3 O 0.2716(3) 0.57587(12) 0.63891(12)
N1 N 0.4384(3) 0.74396(13) 0.63553(13)
N2 N 0.5663(3) 0.76683(14) 0.58592(14)
C1 C 0.2381(4) 1.03478(19) 0.2818(2)
C2 C 0.2477(4) 0.9515(2) 0.25301(19)
H1 H 0.2663 0.9389 0.1949
C3 C 0.2296(4) 0.88565(17) 0.31104(18)
C4 C 0.2039(3) 0.90297(17) 0.39544(17)
C5 C 0.2022(4) 0.98763(17) 0.42230(18)
H2 H 0.1901 0.9999 0.4807
C6 C 0.2175(4) 1.05413(19) 0.3659(2)
H3 H 0.2140 1.1121 0.3847
C7 C 0.1674(4) 0.83569(16) 0.45857(16)
C8 C 0.3040(3) 0.79810(15) 0.51804(16)
C9 C 0.2832(4) 0.76044(16) 0.59716(17)
C10 C 0.4856(4) 0.79928(17) 0.51579(17)
C11 C 0.4789(4) 0.71264(19) 0.72142(17)
H4 H 0.3756 0.7322 0.7576
H5 H 0.5760 0.7366 0.7420
H6 H 0.5125 0.6480 0.7225
C12 C 0.5910(4) 0.8278(2) 0.44605(18)
H7 H 0.7152 0.8132 0.4610
H8 H 0.5528 0.8917 0.4368
H9 H 0.5744 0.7972 0.3945
C13 C 0.0333(3) 0.69531(16) 0.60951(16)
H10 H 0.0133 0.7088 0.5488
H11 H -0.0818 0.7087 0.6388
C14 C 0.1167(4) 0.59876(17) 0.62135(16)
C15 C 0.0051(4) 0.53405(17) 0.60969(15)
C16 C -0.1689(4) 0.56036(18) 0.58556(16)
H12 H -0.2190 0.6213 0.5764
C17 C -0.2700(4) 0.49842(19) 0.57471(16)
H13 H -0.3888 0.5168 0.5581
C18 C -0.1972(4) 0.4100(2) 0.58811(17)
H14 H -0.2654 0.3674 0.5801
C19 C -0.0247(4) 0.38339(18) 0.61323(17)
H15 H 0.0242 0.3225 0.6234
C20 C 0.0767(4) 0.44465(17) 0.62359(16)
H16 H 0.1954 0.4258 0.6402
Cl3 Cl 0.75954(12) 1.04970(5) 0.32607(6)
Cl4 Cl 0.79186(13) 0.73468(5) 0.19305(5)
O4 O 0.5267(3) 0.83966(12) 0.00376(13)
O5 O 0.7107(2) 0.67719(12) -0.10634(11)
O6 O 0.7996(3) 0.58373(11) 0.03822(11)
N3 N 0.9906(3) 0.69469(14) -0.10444(13)
N4 N 1.1021(3) 0.74130(15) -0.06989(14)
C21 C 0.7426(4) 0.98693(19) 0.23920(19)
C22 C 0.7747(4) 0.89714(18) 0.24907(18)
H17 H 0.8092 0.8695 0.3019
C23 C 0.7556(4) 0.84838(17) 0.18030(18)
C24 C 0.7060(3) 0.88679(17) 0.10255(18)
C25 C 0.6756(4) 0.97795(18) 0.0948(2)
H18 H 0.6406 1.0059 0.0422
C26 C 0.6957(4) 1.02854(19) 0.1629(2)
H19 H 0.6775 1.0909 0.1573
C27 C 0.6781(4) 0.83393(17) 0.02736(17)
C28 C 0.8278(3) 0.78297(16) -0.01511(16)
C29 C 0.8295(4) 0.71799(17) -0.07395(16)
C30 C 1.0045(4) 0.79338(18) -0.01446(17)
C31 C 1.0567(4) 0.6240(2) -0.16135(18)
H20 H 1.0866 0.5680 -0.1296
H21 H 1.1616 0.6348 -0.1904
H22 H 0.9669 0.6209 -0.2028
C32 C 1.0887(4) 0.85251(19) 0.03547(19)
H23 H 1.2127 0.8436 0.0193
H24 H 1.0789 0.8387 0.0956
H25 H 1.0300 0.9141 0.0244
C33 C 0.5743(4) 0.65695(17) -0.05442(16)
H26 H 0.5078 0.6219 -0.0870
H27 H 0.4926 0.7126 -0.0385
C34 C 0.6429(4) 0.60573(16) 0.02483(16)
C35 C 0.5102(3) 0.58522(16) 0.08449(16)
C36 C 0.3373(4) 0.59303(17) 0.06168(17)
H28 H 0.3012 0.6133 0.0066
C37 C 0.2171(4) 0.57168(18) 0.11825(18)
H29 H 0.0988 0.5766 0.1023
C38 C 0.2706(4) 0.54309(18) 0.19819(18)
H30 H 0.1886 0.5283 0.2375
C39 C 0.4426(4) 0.53573(18) 0.22183(17)
H31 H 0.4778 0.5162 0.2772
C40 C 0.5622(4) 0.55651(16) 0.16571(16)
H32 H 0.6803 0.5514 0.1820
loop_
_geom_bond_atom_site_label_1
_geom_bond_atom_site_label_2
_geom_bond_site_symmetry_1
_geom_bond_site_symmetry_2
Cl1 C1 1_555 1_555
Cl2 C3 1_555 1_555
O1 C7 1_555 1_555
O2 C9 1_555 1_555
O3 C14 1_555 1_555
N1 N2 1_555 1_555
N2 C10 1_555 1_555
C1 C2 1_555 1_555
C2 H1 1_555 1_555
C3 C2 1_555 1_555
C4 C3 1_555 1_555
C5 C4 1_555 1_555
H2 C5 1_555 1_555
C6 C1 1_555 1_555
H3 C6 1_555 1_555
C7 C4 1_555 1_555
C8 C7 1_555 1_555
C9 N1 1_555 1_555
C10 C8 1_555 1_555
C11 N1 1_555 1_555
H4 C11 1_555 1_555
H5 C11 1_555 1_555
H6 C11 1_555 1_555
C12 C10 1_555 1_555
H7 C12 1_555 1_555
H8 C12 1_555 1_555
H9 C12 1_555 1_555
C13 O2 1_555 1_555
H10 C13 1_555 1_555
H11 C13 1_555 1_555
C14 C13 1_555 1_555
C15 C14 1_555 1_555
C16 C15 1_555 1_555
H12 C16 1_555 1_555
C17 C16 1_555 1_555
H13 C17 1_555 1_555
C18 C17 1_555 1_555
H14 C18 1_555 1_555
C19 C18 1_555 1_555
H15 C19 1_555 1_555
C20 C15 1_555 1_555
H16 C20 1_555 1_555
Cl3 C21 1_555 1_555
Cl4 C23 1_555 1_555
O4 C27 1_555 1_555
O5 C29 1_555 1_555
O6 C34 1_555 1_555
N3 N4 1_555 1_555
N4 C30 1_555 1_555
C21 C22 1_555 1_555
C22 H17 1_555 1_555
C23 C22 1_555 1_555
C24 C23 1_555 1_555
C25 C24 1_555 1_555
H18 C25 1_555 1_555
C26 C21 1_555 1_555
H19 C26 1_555 1_555
C27 C24 1_555 1_555
C28 C27 1_555 1_555
C29 N3 1_555 1_555
C30 C28 1_555 1_555
C31 N3 1_555 1_555
H20 C31 1_555 1_555
H21 C31 1_555 1_555
H22 C31 1_555 1_555
C32 C30 1_555 1_555
H23 C32 1_555 1_555
H24 C32 1_555 1_555
H25 C32 1_555 1_555
C33 O5 1_555 1_555
H26 C33 1_555 1_555
H27 C33 1_555 1_555
C34 C33 1_555 1_555
C35 C34 1_555 1_555
C36 C35 1_555 1_555
H28 C36 1_555 1_555
C37 C36 1_555 1_555
H29 C37 1_555 1_555
C38 C37 1_555 1_555
H30 C38 1_555 1_555
C39 C38 1_555 1_555
H31 C39 1_555 1_555
C40 C35 1_555 1_555
H32 C40 1_555 1_555
C5 C6 1_555 1_555
C8 C9 1_555 1_555
C19 C20 1_555 1_555
C25 C26 1_555 1_555
C28 C29 1_555 1_555
C39 C40 1_555 1_555

#END
