
#######################################################################
#
#                 Cambridge Crystallographic Data Centre
#                                CCDC 
#
#######################################################################
#
# If this CIF has been generated from an entry in the Cambridge 
# Structural Database, then it will include bibliographic, chemical, 
# crystal, experimental, refinement or atomic coordinate data resulting 
# from the CCDC's data processing and validation procedures.
#
#######################################################################

data_JADSAJ
_chemical_formula_moiety         'C16 H12 O4'
_chemical_name_systematic        
1-Methyl-1,3a,4,11c-tetrahydro-3H-benzo(f)furo(3,4-c)chromen-3,4-dione
_symmetry_cell_setting           monoclinic
_symmetry_space_group_name_H-M   'P 21/c'
_symmetry_Int_Tables_number      14
_space_group_name_Hall           '-P 2ybc'
loop_
_symmetry_equiv_pos_site_id
_symmetry_equiv_pos_as_xyz
1 x,y,z
2 -x,1/2+y,1/2-z
3 -x,-y,-z
4 x,1/2-y,1/2+z
_cell_length_a                   9.9053(10)
_cell_length_b                   18.0747(17)
_cell_length_c                   7.1622(7)
_cell_angle_alpha                90
_cell_angle_beta                 99.262(2)
_cell_angle_gamma                90
_cell_volume                     1265.57
_exptl_crystal_colour            colorless
_exptl_crystal_description       plate
_chemical_melting_point          234-236deg.C
_cell_formula_units_Z            4
loop_
_atom_site_label
_atom_site_type_symbol
_atom_site_fract_x
_atom_site_fract_y
_atom_site_fract_z
O1 O 0.52247(9) 0.41697(5) 0.04757(14)
O2 O 0.64196(10) 0.46817(5) 0.30557(15)
O3 O 0.48424(10) 0.37725(6) 0.56075(14)
O4 O 0.26760(10) 0.35987(5) 0.44840(14)
C1 C 0.38287(13) 0.39117(7) -0.01894(19)
H1 H 0.3558 0.4046 -0.1538
C2 C 0.53467(14) 0.44654(7) 0.22186(19)
C3 C 0.39500(13) 0.44837(7) 0.28502(18)
H2 H 0.3794 0.4984 0.3336
C4 C 0.38981(13) 0.39243(7) 0.44098(19)
C5 C 0.15774(13) 0.36395(7) 0.2987(2)
C6 C 0.03985(15) 0.32612(8) 0.3349(2)
H3 H 0.0387 0.3026 0.4517
C7 C -0.07192(15) 0.32451(9) 0.1971(3)
H4 H -0.1510 0.2996 0.2199
C8 C -0.07211(14) 0.35934(8) 0.0203(2)
C9 C -0.18705(15) 0.35700(9) -0.1256(3)
H5 H -0.2667 0.3324 -0.1039
C10 C -0.18489(16) 0.38937(9) -0.2958(3)
H6 H -0.2615 0.3861 -0.3917
C11 C -0.06754(16) 0.42789(8) -0.3283(2)
H7 H -0.0668 0.4511 -0.4455
C12 C 0.04582(15) 0.43187(8) -0.1908(2)
H8 H 0.1232 0.4581 -0.2147
C13 C 0.04795(13) 0.39714(7) -0.0139(2)
C14 C 0.16528(13) 0.39853(7) 0.13214(19)
C15 C 0.29564(13) 0.43559(7) 0.10236(18)
H9 H 0.2728 0.4840 0.0409
C16 C 0.37910(16) 0.30829(8) 0.0019(2)
H10 H 0.4370 0.2857 -0.0791
H11 H 0.2859 0.2909 -0.0342
H12 H 0.4119 0.2949 0.1325
loop_
_geom_bond_atom_site_label_1
_geom_bond_atom_site_label_2
_geom_bond_site_symmetry_1
_geom_bond_site_symmetry_2
O1 C1 1_555 1_555
O2 C2 1_555 1_555
O3 C4 1_555 1_555
O4 C4 1_555 1_555
C1 H1 1_555 1_555
C2 O1 1_555 1_555
C3 C2 1_555 1_555
H2 C3 1_555 1_555
C4 C3 1_555 1_555
C5 O4 1_555 1_555
C6 C5 1_555 1_555
H3 C6 1_555 1_555
C7 C6 1_555 1_555
H4 C7 1_555 1_555
C8 C7 1_555 1_555
C9 C8 1_555 1_555
H5 C9 1_555 1_555
C10 C9 1_555 1_555
H6 C10 1_555 1_555
C11 C10 1_555 1_555
H7 C11 1_555 1_555
C12 C11 1_555 1_555
H8 C12 1_555 1_555
C13 C8 1_555 1_555
C14 C5 1_555 1_555
C15 C1 1_555 1_555
H9 C15 1_555 1_555
C16 C1 1_555 1_555
H10 C16 1_555 1_555
H11 C16 1_555 1_555
H12 C16 1_555 1_555
C3 C15 1_555 1_555
C12 C13 1_555 1_555
C13 C14 1_555 1_555
C14 C15 1_555 1_555

#END
