
#######################################################################
#
#                 Cambridge Crystallographic Data Centre
#                                CCDC 
#
#######################################################################
#
# If this CIF has been generated from an entry in the Cambridge 
# Structural Database, then it will include bibliographic, chemical, 
# crystal, experimental, refinement or atomic coordinate data resulting 
# from the CCDC's data processing and validation procedures.
#
#######################################################################

data_JADZUJ
_chemical_formula_moiety         'C13 H23 N1 O3 Si1'
_chemical_name_systematic        
1,1,3'-Trimethyl-3'-(trimethylsilyl)perhydroazetidino(1,2-c)(1,3)-oxazine-5-spiro-2'-oxiran-6-one
_symmetry_cell_setting           triclinic
_symmetry_space_group_name_H-M   'P -1'
_symmetry_Int_Tables_number      2
_space_group_name_Hall           '-P 1'
loop_
_symmetry_equiv_pos_site_id
_symmetry_equiv_pos_as_xyz
1 x,y,z
2 -x,-y,-z
_cell_length_a                   10.056(6)
_cell_length_b                   10.597(5)
_cell_length_c                   7.585(5)
_cell_angle_alpha                102.73(5)
_cell_angle_beta                 89.18(5)
_cell_angle_gamma                102.01(4)
_cell_volume                     770.737
_exptl_crystal_colour            colorless
_cell_formula_units_Z            2
loop_
_atom_site_label
_atom_site_type_symbol
_atom_site_fract_x
_atom_site_fract_y
_atom_site_fract_z
Si1 Si 0.2790(1) 0.2254(1) 0.3681(1)
C1 C 0.2570(3) 0.1319(3) 0.1233(3)
C2 C 0.2969(2) 0.0040(2) 0.0580(3)
C3 C 0.3201(2) -0.1042(2) 0.1517(3)
C4 C 0.2290(3) -0.1383(3) 0.3023(3)
C5 C 0.2056(3) -0.2851(3) 0.2902(4)
O1 O 0.1461(2) -0.3595(2) 0.1178(3)
C6 C 0.2246(3) -0.3392(3) -0.0370(4)
N1 N 0.2693(2) -0.1978(2) -0.0196(3)
C7 C 0.2437(3) -0.1065(3) -0.1066(3)
C8 C 0.1215(3) 0.1819(3) 0.4900(4)
C9 C 0.3093(4) 0.4041(3) 0.3615(5)
C10 C 0.4282(3) 0.1953(3) 0.4790(5)
C11 C 0.1607(4) 0.1691(3) 0.0005(4)
O2 O 0.3916(2) 0.1192(2) 0.0420(3)
C12 C 0.3490(3) -0.4022(3) -0.0453(5)
C13 C 0.1291(3) -0.4020(3) -0.1984(4)
O3 O 0.1987(3) -0.1126(2) -0.2578(3)
H1 H 0.417 -0.090 0.220
H2 H 0.133 -0.110 0.289
H3 H 0.277 -0.086 0.431
H4 H 0.138 -0.310 0.395
H5 H 0.302 -0.311 0.310
H6 H 0.104 0.079 0.494
H7 H 0.037 0.200 0.421
H8 H 0.132 0.242 0.626
H9 H 0.323 0.464 0.498
H10 H 0.223 0.423 0.296
H11 H 0.400 0.429 0.287
H12 H 0.412 0.092 0.484
H13 H 0.442 0.255 0.615
H14 H 0.518 0.221 0.403
H15 H 0.066 0.177 0.068
H16 H 0.141 0.094 -0.123
H17 H 0.206 0.263 -0.030
H18 H 0.316 -0.508 -0.058
H19 H 0.411 -0.360 0.077
H20 H 0.408 -0.383 -0.160
H21 H 0.182 -0.390 -0.321
H22 H 0.043 -0.355 -0.188
H23 H 0.094 -0.506 -0.202
loop_
_geom_bond_atom_site_label_1
_geom_bond_atom_site_label_2
_geom_bond_site_symmetry_1
_geom_bond_site_symmetry_2
Si1 C1 1_555 1_555
C1 C2 1_555 1_555
C2 C3 1_555 1_555
C3 C4 1_555 1_555
C4 C5 1_555 1_555
C5 O1 1_555 1_555
O1 C6 1_555 1_555
C6 N1 1_555 1_555
N1 C3 1_555 1_555
C7 C2 1_555 1_555
C8 Si1 1_555 1_555
C9 Si1 1_555 1_555
C10 Si1 1_555 1_555
C11 C1 1_555 1_555
O2 C1 1_555 1_555
C12 C6 1_555 1_555
C13 C6 1_555 1_555
O3 C7 1_555 1_555
H1 C3 1_555 1_555
H2 C4 1_555 1_555
H3 C4 1_555 1_555
H4 C5 1_555 1_555
H5 C5 1_555 1_555
H6 C8 1_555 1_555
H7 C8 1_555 1_555
H8 C8 1_555 1_555
H9 C9 1_555 1_555
H10 C9 1_555 1_555
H11 C9 1_555 1_555
H12 C10 1_555 1_555
H13 C10 1_555 1_555
H14 C10 1_555 1_555
H15 C11 1_555 1_555
H16 C11 1_555 1_555
H17 C11 1_555 1_555
H18 C12 1_555 1_555
H19 C12 1_555 1_555
H20 C12 1_555 1_555
H21 C13 1_555 1_555
H22 C13 1_555 1_555
H23 C13 1_555 1_555
C2 O2 1_555 1_555
N1 C7 1_555 1_555

#END
