
#######################################################################
#
#                 Cambridge Crystallographic Data Centre
#                                CCDC 
#
#######################################################################
#
# If this CIF has been generated from an entry in the Cambridge 
# Structural Database, then it will include bibliographic, chemical, 
# crystal, experimental, refinement or atomic coordinate data resulting 
# from the CCDC's data processing and validation procedures.
#
#######################################################################

data_JAFGED
_chemical_compound_source        'Penicillium thiersii'
_chemical_formula_moiety         'C30 H35 N1 O6'
_chemical_name_systematic        'Decaturin B'
_chemical_properties_biological  
'potent antiinsectant activity against the fall armyworm (Spodoptera frugiperda)'
_symmetry_cell_setting           monoclinic
_symmetry_space_group_name_H-M   'P 21'
_symmetry_Int_Tables_number      4
_space_group_name_Hall           'P 2yb'
loop_
_symmetry_equiv_pos_site_id
_symmetry_equiv_pos_as_xyz
1 x,y,z
2 -x,1/2+y,-z
_cell_length_a                   9.2366(5)
_cell_length_b                   10.0333(7)
_cell_length_c                   13.8710(10)
_cell_angle_alpha                90
_cell_angle_beta                 97.236(2)
_cell_angle_gamma                90
_cell_volume                     1275.24
_exptl_crystal_colour            colorless
_exptl_crystal_description       blade
_chemical_melting_point          235-237deg.C
_cell_formula_units_Z            2
loop_
_atom_site_label
_atom_site_type_symbol
_atom_site_fract_x
_atom_site_fract_y
_atom_site_fract_z
N1 N 0.4640(3) 0.3574(3) 0.6170(2)
C1 C 0.4011(4) 0.4568(4) 0.5620(2)
H1 H 0.4327 0.5454 0.5767
C2 C 0.2926(4) 0.4366(4) 0.4849(2)
C3 C 0.2466(5) 0.3090(4) 0.4650(3)
H2 H 0.1734 0.2915 0.4121
C4 C 0.3071(5) 0.2056(4) 0.5222(3)
H3 H 0.2754 0.1165 0.5100
C5 C 0.4136(4) 0.2347(4) 0.5969(3)
H4 H 0.4539 0.1635 0.6367
C6 C 0.2355(4) 0.5509(3) 0.4253(2)
O1 O 0.2275(3) 0.6634(2) 0.48011(15)
C7 C 0.1876(4) 0.7880(4) 0.4408(2)
C8 C 0.1591(3) 0.7908(3) 0.3378(2)
C9 C 0.1653(3) 0.6788(3) 0.2848(2)
C10 C 0.2012(3) 0.5530(3) 0.3280(2)
H5 H 0.2011 0.4741 0.2902
O2 O 0.1400(2) 0.6976(2) 0.18824(14)
C11 C 0.0991(3) 0.8423(3) 0.1711(2)
C12 C 0.1445(4) 0.9104(3) 0.2742(2)
H6 H 0.0614 0.9659 0.2911
C13 C -0.0660(3) 0.8416(3) 0.1471(2)
C14 C -0.1282(3) 0.8559(3) 0.0564(2)
H7 H -0.2318 0.8559 0.0460
C15 C -0.0509(3) 0.8719(4) -0.0310(2)
H8 H -0.0569 0.9662 -0.0521
H9 H -0.1001 0.8169 -0.0846
C16 C 0.1096(3) 0.8307(3) -0.0109(2)
H10 H 0.1084 0.7326 0.0018
C17 C 0.1804(3) 0.8947(3) 0.0864(2)
C18 C 0.3415(3) 0.8560(4) 0.1021(2)
H11 H 0.3887 0.8990 0.1622
H12 H 0.3497 0.7583 0.1111
C19 C 0.4211(3) 0.8967(4) 0.0176(2)
H13 H 0.5257 0.8737 0.0327
H14 H 0.4137 0.9945 0.0089
C20 C 0.3589(3) 0.8283(3) -0.0763(2)
H15 H 0.3747 0.7306 -0.0653
C21 C 0.1926(3) 0.8476(3) -0.1013(2)
C22 C 0.1391(4) 0.7386(3) -0.1760(2)
H16 H 0.0343 0.7523 -0.1990
H17 H 0.1505 0.6499 -0.1447
C23 C 0.2280(4) 0.7439(4) -0.2635(2)
H18 H 0.2903 0.6636 -0.2639
H19 H 0.1610 0.7461 -0.3251
C24 C 0.3220(4) 0.8680(3) -0.2546(2)
C25 C 0.4389(3) 0.8655(4) -0.1660(2)
C26 C 0.1660(4) 0.9808(3) -0.1547(2)
H20 H 0.0598 0.9984 -0.1668
H21 H 0.2120 1.0536 -0.1135
C27 C -0.1598(4) 0.8186(4) 0.2279(2)
H22 H -0.1426 0.8901 0.2761
H23 H -0.1343 0.7326 0.2592
H24 H -0.2629 0.8180 0.2007
C28 C 0.1606(4) 1.0473(3) 0.0842(2)
H25 H 0.0563 1.0688 0.0756
H26 H 0.2061 1.0846 0.0300
H27 H 0.2068 1.0855 0.1454
C29 C 0.5563(4) 0.7616(4) -0.1774(3)
H28 H 0.5115 0.6730 -0.1845
H29 H 0.6297 0.7629 -0.1199
H30 H 0.6031 0.7822 -0.2353
C30 C 0.5145(4) 1.0020(4) -0.1566(2)
H31 H 0.5923 1.0006 -0.1016
H32 H 0.4431 1.0709 -0.1458
H33 H 0.5565 1.0218 -0.2165
O3 O 0.1860(3) 0.8796(3) 0.49731(16)
O4 O 0.2744(3) 0.9878(2) 0.28778(16)
H34 H 0.3447 0.9393 0.3105
O5 O 0.2256(2) 0.9790(2) -0.24582(15)
O6 O 0.3892(3) 0.8930(3) -0.33799(15)
H35 H 0.3270 0.8872 -0.3875
loop_
_geom_bond_atom_site_label_1
_geom_bond_atom_site_label_2
_geom_bond_site_symmetry_1
_geom_bond_site_symmetry_2
N1 C1 1_555 1_555
C1 H1 1_555 1_555
C2 C1 1_555 1_555
C3 C2 1_555 1_555
H2 C3 1_555 1_555
C4 C3 1_555 1_555
H3 C4 1_555 1_555
C5 N1 1_555 1_555
H4 C5 1_555 1_555
C6 C2 1_555 1_555
O1 C6 1_555 1_555
C7 O1 1_555 1_555
C8 C7 1_555 1_555
C9 C8 1_555 1_555
C10 C6 1_555 1_555
H5 C10 1_555 1_555
O2 C9 1_555 1_555
C11 O2 1_555 1_555
C12 C8 1_555 1_555
H6 C12 1_555 1_555
C13 C11 1_555 1_555
C14 C13 1_555 1_555
H7 C14 1_555 1_555
C15 C14 1_555 1_555
H8 C15 1_555 1_555
H9 C15 1_555 1_555
C16 C15 1_555 1_555
H10 C16 1_555 1_555
C17 C11 1_555 1_555
C18 C17 1_555 1_555
H11 C18 1_555 1_555
H12 C18 1_555 1_555
C19 C18 1_555 1_555
H13 C19 1_555 1_555
H14 C19 1_555 1_555
C20 C19 1_555 1_555
H15 C20 1_555 1_555
C21 C16 1_555 1_555
C22 C21 1_555 1_555
H16 C22 1_555 1_555
H17 C22 1_555 1_555
C23 C22 1_555 1_555
H18 C23 1_555 1_555
H19 C23 1_555 1_555
C24 C23 1_555 1_555
C25 C20 1_555 1_555
C26 C21 1_555 1_555
H20 C26 1_555 1_555
H21 C26 1_555 1_555
C27 C13 1_555 1_555
H22 C27 1_555 1_555
H23 C27 1_555 1_555
H24 C27 1_555 1_555
C28 C17 1_555 1_555
H25 C28 1_555 1_555
H26 C28 1_555 1_555
H27 C28 1_555 1_555
C29 C25 1_555 1_555
H28 C29 1_555 1_555
H29 C29 1_555 1_555
H30 C29 1_555 1_555
C30 C25 1_555 1_555
H31 C30 1_555 1_555
H32 C30 1_555 1_555
H33 C30 1_555 1_555
O3 C7 1_555 1_555
O4 C12 1_555 1_555
H34 O4 1_555 1_555
O5 C24 1_555 1_555
O6 C24 1_555 1_555
H35 O6 1_555 1_555
C4 C5 1_555 1_555
C9 C10 1_555 1_555
C11 C12 1_555 1_555
C16 C17 1_555 1_555
C20 C21 1_555 1_555
C24 C25 1_555 1_555
C26 O5 1_555 1_555

#END
