
#######################################################################
#
#                 Cambridge Crystallographic Data Centre
#                                CCDC 
#
#######################################################################
#
# If this CIF has been generated from an entry in the Cambridge 
# Structural Database, then it will include bibliographic, chemical, 
# crystal, experimental, refinement or atomic coordinate data resulting 
# from the CCDC's data processing and validation procedures.
#
#######################################################################

data_JAFJIK
_chemical_formula_moiety         'C18 H16 N2 O3'
_chemical_name_systematic        
(4S)-3-((3S,4S)-2-Oxo-4-phenylazetidine-3-yl)-4-phenyloxazolidin-2-one
_symmetry_cell_setting           monoclinic
_symmetry_space_group_name_H-M   'P 21'
_symmetry_Int_Tables_number      4
_space_group_name_Hall           'P 2yb'
loop_
_symmetry_equiv_pos_site_id
_symmetry_equiv_pos_as_xyz
1 x,y,z
2 -x,1/2+y,-z
_cell_length_a                   9.8554(3)
_cell_length_b                   7.2829(2)
_cell_length_c                   11.5922(4)
_cell_angle_alpha                90
_cell_angle_beta                 110.3438(8)
_cell_angle_gamma                90
_cell_volume                     780.141
_exptl_crystal_colour            colorless
_exptl_crystal_description       prism
_chemical_melting_point          169-172deg.C
_cell_formula_units_Z            2
loop_
_atom_site_label
_atom_site_type_symbol
_atom_site_fract_x
_atom_site_fract_y
_atom_site_fract_z
C1 C 0.17662(14) 0.5746(2) 0.56980(12)
O1 O 0.10319(14) 0.6930(2) 0.50293(11)
N1 N 0.15489(13) 0.3977(2) 0.58555(14)
H1 H 0.080(2) 0.335(3) 0.5612(18)
C2 C 0.29286(13) 0.36667(18) 0.68666(12)
H2 H 0.2821(17) 0.350(2) 0.7670(12)
C3 C 0.32796(12) 0.57307(16) 0.66850(10)
H3 H 0.4033(13) 0.587(2) 0.6338(11)
N2 N 0.34816(10) 0.70174(14) 0.76660(9)
C4 C 0.48025(14) 0.73071(19) 0.85243(12)
O2 O 0.59298(10) 0.66031(18) 0.85753(10)
O3 O 0.46913(12) 0.85266(17) 0.93685(10)
C5 C 0.32351(18) 0.9237(2) 0.89892(15)
H4 H 0.3204 1.0491 0.8700
H5 H 0.2875 0.9212 0.9669
C6 C 0.23206(13) 0.79693(17) 0.79393(12)
H6 H 0.1738(14) 0.870(2) 0.7246(12)
C7 C 0.13280(12) 0.66866(19) 0.82936(11)
C8 C -0.01582(15) 0.6769(3) 0.76842(15)
H7 H -0.0544 0.7623 0.7059
C9 C -0.10632(19) 0.5586(4) 0.8004(2)
H8 H -0.2059 0.5646 0.7597
C10 C -0.0492(3) 0.4317(4) 0.8925(2)
H9 H -0.1105 0.3518 0.9134
C11 C 0.0976(2) 0.4218(3) 0.95402(18)
H10 H 0.1354 0.3352 1.0158
C12 C 0.18881(16) 0.5418(2) 0.92332(13)
H11 H 0.2880 0.5372 0.9659
C13 C 0.39017(14) 0.22372(16) 0.66317(11)
C14 C 0.33972(18) 0.0970(2) 0.56851(13)
H12 H 0.2428 0.0975 0.5183
C15 C 0.4348(3) -0.0319(2) 0.54843(16)
H13 H 0.4007 -0.1163 0.4846
C16 C 0.5776(2) -0.0343(2) 0.62225(17)
H14 H 0.6404 -0.1194 0.6080
C17 C 0.6281(2) 0.0888(3) 0.71720(17)
H15 H 0.7247 0.0857 0.7681
C18 C 0.53512(17) 0.2180(2) 0.73753(14)
H16 H 0.5704 0.3017 0.8017
loop_
_geom_bond_atom_site_label_1
_geom_bond_atom_site_label_2
_geom_bond_site_symmetry_1
_geom_bond_site_symmetry_2
C1 O1 1_555 1_555
N1 C1 1_555 1_555
H1 N1 1_555 1_555
C2 N1 1_555 1_555
H2 C2 1_555 1_555
C3 C1 1_555 1_555
H3 C3 1_555 1_555
N2 C3 1_555 1_555
C4 N2 1_555 1_555
O2 C4 1_555 1_555
O3 C4 1_555 1_555
C5 O3 1_555 1_555
H4 C5 1_555 1_555
H5 C5 1_555 1_555
C6 N2 1_555 1_555
H6 C6 1_555 1_555
C7 C6 1_555 1_555
C8 C7 1_555 1_555
H7 C8 1_555 1_555
C9 C8 1_555 1_555
H8 C9 1_555 1_555
C10 C9 1_555 1_555
H9 C10 1_555 1_555
C11 C10 1_555 1_555
H10 C11 1_555 1_555
C12 C7 1_555 1_555
H11 C12 1_555 1_555
C13 C2 1_555 1_555
C14 C13 1_555 1_555
H12 C14 1_555 1_555
C15 C14 1_555 1_555
H13 C15 1_555 1_555
C16 C15 1_555 1_555
H14 C16 1_555 1_555
C17 C16 1_555 1_555
H15 C17 1_555 1_555
C18 C13 1_555 1_555
H16 C18 1_555 1_555
C2 C3 1_555 1_555
C5 C6 1_555 1_555
C11 C12 1_555 1_555
C17 C18 1_555 1_555

#END
