
#######################################################################
#
#                 Cambridge Crystallographic Data Centre
#                                CCDC 
#
#######################################################################
#
# If this CIF has been generated from an entry in the Cambridge 
# Structural Database, then it will include bibliographic, chemical, 
# crystal, experimental, refinement or atomic coordinate data resulting 
# from the CCDC's data processing and validation procedures.
#
#######################################################################

data_JAFLIO
_chemical_formula_moiety         'C16 H12 F4 N3 1+,Br1 1-'
_chemical_name_systematic        
'3-Benzyl-2-methyl-1-(2,3,5,6-tetrafluoropyridin-4-yl)-1H-imidazol-3-ium bromide'
_symmetry_cell_setting           triclinic
_symmetry_space_group_name_H-M   'P -1'
_symmetry_Int_Tables_number      2
_space_group_name_Hall           '-P 1'
loop_
_symmetry_equiv_pos_site_id
_symmetry_equiv_pos_as_xyz
1 x,y,z
2 -x,-y,-z
_cell_length_a                   7.1399(3)
_cell_length_b                   9.6073(4)
_cell_length_c                   11.6962(4)
_cell_angle_alpha                95.074(3)
_cell_angle_beta                 99.929(3)
_cell_angle_gamma                98.871(3)
_cell_volume                     775.359
_exptl_crystal_colour            colorless
_exptl_crystal_description       block
_cell_formula_units_Z            2
_exptl_crystal_recrystallization_method methanol
loop_
_atom_site_label
_atom_site_type_symbol
_atom_site_fract_x
_atom_site_fract_y
_atom_site_fract_z
Br1 Br 0.37004(3) 0.72890(2) 0.13594(2)
F1 F 0.00013(18) 0.34997(14) 0.14929(12)
F2 F 0.6347(2) 0.25390(16) 0.18852(13)
F3 F 0.1248(2) 0.54234(15) 0.34209(13)
F4 F 0.7307(2) 0.44839(17) 0.38066(13)
N1 N 0.2591(3) 0.20517(19) 0.05535(16)
N2 N 0.4271(3) 0.4948(2) 0.35926(17)
N3 N 0.1590(3) 0.1327(2) -0.12790(17)
C1 C 0.1963(3) 0.2473(2) -0.0494(2)
C2 C 0.2686(3) 0.0606(2) 0.0411(2)
H1 H 0.3099(3) 0.0058(2) 0.0990(2)
C3 C 0.2058(3) 0.0170(2) -0.0736(2)
H2 H 0.1956(3) -0.0747(2) -0.1100(2)
C4 C 0.5492(3) 0.4223(3) 0.3205(2)
C5 C 0.1841(3) 0.3722(2) 0.2033(2)
C6 C 0.5030(3) 0.3236(2) 0.2230(2)
C7 C -0.3304(4) -0.1088(3) -0.4216(2)
H3 H -0.4635(4) -0.1130(3) -0.4377(2)
C8 C -0.2140(4) 0.0046(3) -0.3478(2)
H4 H -0.2690(4) 0.0757(3) -0.3140(2)
C9 C 0.1749(4) 0.3927(2) -0.0738(2)
H5 H 0.0403(4) 0.3988(6) -0.0916(16)
H6 H 0.237(2) 0.4585(3) -0.0064(6)
H7 H 0.234(2) 0.4153(7) -0.1392(10)
C10 C 0.2496(4) 0.4699(2) 0.3014(2)
C11 C -0.0148(4) 0.0112(2) -0.32450(19)
C12 C -0.0540(5) -0.2100(3) -0.4470(2)
H8 H -0.0002(5) -0.2826(3) -0.4796(2)
C13 C 0.0643(4) -0.0971(3) -0.3741(2)
H9 H 0.1972(4) -0.0939(3) -0.3583(2)
C14 C -0.2499(5) -0.2150(3) -0.4713(2)
H10 H -0.3285(5) -0.2901(3) -0.5213(2)
C15 C 0.3147(3) 0.2987(2) 0.16092(19)
C16 C 0.1116(5) 0.1413(3) -0.2552(2)
H11 H 0.0473(5) 0.2221(3) -0.2676(2)
H12 H 0.2309(5) 0.1583(3) -0.2847(2)
loop_
_geom_bond_atom_site_label_1
_geom_bond_atom_site_label_2
_geom_bond_site_symmetry_1
_geom_bond_site_symmetry_2
F1 C5 1_555 1_555
F2 C6 1_555 1_555
F3 C10 1_555 1_555
F4 C4 1_555 1_555
N1 C1 1_555 1_555
N2 C4 1_555 1_555
N3 C1 1_555 1_555
C1 C9 1_555 1_555
C2 N1 1_555 1_555
H1 C2 1_555 1_555
C3 N3 1_555 1_555
H2 C3 1_555 1_555
C4 C6 1_555 1_555
C5 C10 1_555 1_555
C6 C15 1_555 1_555
C7 H3 1_555 1_555
C8 C7 1_555 1_555
H4 C8 1_555 1_555
C9 H5 1_555 1_555
H6 C9 1_555 1_555
H7 C9 1_555 1_555
C10 N2 1_555 1_555
C11 C8 1_555 1_555
C12 H8 1_555 1_555
C13 C11 1_555 1_555
H9 C13 1_555 1_555
C14 C7 1_555 1_555
H10 C14 1_555 1_555
C15 N1 1_555 1_555
C16 N3 1_555 1_555
H11 C16 1_555 1_555
H12 C16 1_555 1_555
C2 C3 1_555 1_555
C5 C15 1_555 1_555
C11 C16 1_555 1_555
C12 C13 1_555 1_555
C12 C14 1_555 1_555

#END
