
#######################################################################
#
#                 Cambridge Crystallographic Data Centre
#                                CCDC 
#
#######################################################################
#
# If this CIF has been generated from an entry in the Cambridge 
# Structural Database, then it will include bibliographic, chemical, 
# crystal, experimental, refinement or atomic coordinate data resulting 
# from the CCDC's data processing and validation procedures.
#
#######################################################################

data_JAFPAK
_chemical_formula_moiety         'C20 H12 Br1 N1 O5'
_chemical_name_systematic        
(R)-2-(2-Bromophenyl)-4-(nitromethyl)-4H-benzo[g]chromene-5,10-dione
_symmetry_cell_setting           orthorhombic
_symmetry_space_group_name_H-M   'P 21 21 21'
_symmetry_Int_Tables_number      19
_space_group_name_Hall           'P 2ac 2ab'
loop_
_symmetry_equiv_pos_site_id
_symmetry_equiv_pos_as_xyz
1 x,y,z
2 1/2-x,-y,1/2+z
3 -x,1/2+y,1/2-z
4 1/2+x,1/2-y,-z
_cell_length_a                   5.25660(5)
_cell_length_b                   12.33003(13)
_cell_length_c                   25.5995(3)
_cell_angle_alpha                90
_cell_angle_beta                 90
_cell_angle_gamma                90
_cell_volume                     1659.21
_exptl_crystal_colour            colorless
_exptl_crystal_description       plate
_cell_formula_units_Z            4
loop_
_atom_site_label
_atom_site_type_symbol
_atom_site_fract_x
_atom_site_fract_y
_atom_site_fract_z
Br1 Br 0.51796(5) 0.50260(3) 0.71326(2)
O1 O 0.3805(4) 0.39469(15) 0.58936(7)
O2 O 0.7406(4) 0.31253(16) 0.52882(8)
O3 O 0.1398(4) 0.62262(17) 0.44972(8)
O4 O 0.5499(4) 0.65697(17) 0.59064(9)
O5 O 0.3179(4) 0.74531(18) 0.64552(8)
N1 N 0.3501(5) 0.69963(19) 0.60382(9)
C1 C 0.1719(5) 0.4303(2) 0.61886(10)
C2 C 0.1424(5) 0.3655(2) 0.66737(11)
C3 C -0.0413(6) 0.2840(2) 0.66911(12)
H1 H -0.1426 0.2711 0.6400
C4 C -0.0749(6) 0.2219(2) 0.71395(13)
H2 H -0.1998 0.1685 0.7150
C5 C 0.0793(7) 0.2402(3) 0.75706(12)
H3 H 0.0598 0.1976 0.7868
C6 C 0.2617(6) 0.3210(3) 0.75625(12)
H4 H 0.3648 0.3332 0.7852
C7 C 0.2882(5) 0.3834(2) 0.71166(11)
C8 C 0.0201(5) 0.5097(2) 0.60400(9)
H5 H -0.1186 0.5269 0.6250
C9 C 0.0608(5) 0.5738(2) 0.55463(10)
H6 H -0.1002 0.5742 0.5353
C10 C 0.1318(5) 0.6931(2) 0.56666(11)
H7 H 0.1764 0.7298 0.5344
H8 H -0.0142 0.7299 0.5816
C11 C 0.2550(5) 0.5159(2) 0.52144(10)
C12 C 0.3993(5) 0.4353(2) 0.54018(10)
C13 C 0.6062(5) 0.3818(2) 0.50920(11)
C14 C 0.6397(6) 0.4206(2) 0.45452(11)
C15 C 0.4794(5) 0.5004(2) 0.43387(9)
C16 C 0.2787(5) 0.5516(2) 0.46661(10)
C17 C 0.5113(6) 0.5350(2) 0.38253(11)
H9 H 0.4031 0.5871 0.3685
C18 C 0.7049(6) 0.4916(3) 0.35247(11)
H10 H 0.7275 0.5151 0.3183
C19 C 0.8645(7) 0.4136(3) 0.37285(12)
H11 H 0.9942 0.3851 0.3523
C20 C 0.8334(6) 0.3770(2) 0.42410(12)
H12 H 0.9409 0.3242 0.4377
loop_
_geom_bond_atom_site_label_1
_geom_bond_atom_site_label_2
_geom_bond_site_symmetry_1
_geom_bond_site_symmetry_2
Br1 C7 1_555 1_555
O1 C1 1_555 1_555
O2 C13 1_555 1_555
O3 C16 1_555 1_555
O4 N1 1_555 1_555
O5 N1 1_555 1_555
N1 C10 1_555 1_555
C1 C2 1_555 1_555
C2 C3 1_555 1_555
C3 H1 1_555 1_555
C4 C3 1_555 1_555
H2 C4 1_555 1_555
C5 C4 1_555 1_555
H3 C5 1_555 1_555
C6 C5 1_555 1_555
H4 C6 1_555 1_555
C7 C2 1_555 1_555
C8 C1 1_555 1_555
H5 C8 1_555 1_555
C9 C8 1_555 1_555
H6 C9 1_555 1_555
C10 C9 1_555 1_555
H7 C10 1_555 1_555
H8 C10 1_555 1_555
C11 C9 1_555 1_555
C12 O1 1_555 1_555
C13 C12 1_555 1_555
C14 C13 1_555 1_555
C15 C14 1_555 1_555
C16 C11 1_555 1_555
C17 C15 1_555 1_555
H9 C17 1_555 1_555
C18 C17 1_555 1_555
H10 C18 1_555 1_555
C19 C18 1_555 1_555
H11 C19 1_555 1_555
C20 C14 1_555 1_555
H12 C20 1_555 1_555
C6 C7 1_555 1_555
C11 C12 1_555 1_555
C15 C16 1_555 1_555
C19 C20 1_555 1_555

#END
