
#######################################################################
#
#                 Cambridge Crystallographic Data Centre
#                                CCDC 
#
#######################################################################
#
# If this CIF has been generated from an entry in the Cambridge 
# Structural Database, then it will include bibliographic, chemical, 
# crystal, experimental, refinement or atomic coordinate data resulting 
# from the CCDC's data processing and validation procedures.
#
#######################################################################

data_JAFSAN
_chemical_formula_moiety         'C25 H27 N1 O5'
_chemical_name_systematic        
'Methyl (4S,5S)-5-benzoyl-4-(2-((t-butoxycarbonyl)amino)phenyl)cyclopent-1-ene-1-carboxylate'
_symmetry_cell_setting           monoclinic
_symmetry_space_group_name_H-M   'P 21'
_symmetry_Int_Tables_number      4
_space_group_name_Hall           'P 2yb'
loop_
_symmetry_equiv_pos_site_id
_symmetry_equiv_pos_as_xyz
1 x,y,z
2 -x,1/2+y,-z
_cell_length_a                   10.7274(4)
_cell_length_b                   10.1113(7)
_cell_length_c                   20.9352(11)
_cell_angle_alpha                90
_cell_angle_beta                 99.118(4)
_cell_angle_gamma                90
_cell_volume                     2242.1
_cell_formula_units_Z            4
loop_
_atom_site_label
_atom_site_type_symbol
_atom_site_fract_x
_atom_site_fract_y
_atom_site_fract_z
O1 O -0.23968(13) -0.35495(17) -0.19812(7)
O2 O -0.37498(14) -0.05373(16) -0.18013(6)
O3 O -0.56893(13) -0.13562(17) -0.17591(7)
O4 O -0.24884(13) -0.54064(16) -0.53841(6)
O5 O -0.12579(13) -0.62272(16) -0.44841(6)
N1 N -0.23005(15) -0.43861(18) -0.43889(7)
H1 H -0.1944 -0.4472 -0.3982
C1 C -0.45708(18) -0.2236(2) -0.25362(9)
C2 C -0.34172(17) -0.2275(2) -0.28694(9)
H2 H -0.3258 -0.1388 -0.3052
C3 C -0.37838(18) -0.3323(2) -0.34280(9)
H3 H -0.3171 -0.4074 -0.3362
C4 C -0.51243(19) -0.3840(2) -0.33403(9)
H4 H -0.5743 -0.3687 -0.3737
H5 H -0.5097 -0.4798 -0.3241
C5 C -0.54679(18) -0.3059(2) -0.27846(9)
H6 H -0.6249 -0.3148 -0.2629
C6 C -0.45966(17) -0.1287(2) -0.19973(9)
C7 C -0.22665(18) -0.2742(2) -0.23954(9)
C8 C -0.09796(18) -0.2221(2) -0.24606(9)
C9 C 0.00411(19) -0.2631(2) -0.20089(9)
H7 H -0.0094 -0.3218 -0.1672
C10 C 0.12551(19) -0.2192(2) -0.20452(10)
H8 H 0.1947 -0.2480 -0.1736
C11 C 0.14532(18) -0.1324(2) -0.25390(10)
H9 H 0.2279 -0.1011 -0.2563
C12 C 0.04436(19) -0.0922(2) -0.29928(9)
H10 H 0.0582 -0.0339 -0.3330
C13 C -0.07713(19) -0.1365(2) -0.29592(9)
H11 H -0.1459 -0.1087 -0.3274
C14 C -0.37722(17) -0.2729(2) -0.40959(9)
C15 C -0.30713(17) -0.3262(2) -0.45489(9)
C16 C -0.31327(18) -0.2670(2) -0.51575(9)
H12 H -0.2654 -0.3029 -0.5461
C17 C -0.3881(2) -0.1570(2) -0.53221(10)
H13 H -0.3912 -0.1179 -0.5737
C18 C -0.45898(19) -0.1034(2) -0.48813(10)
H14 H -0.5107 -0.0279 -0.4992
C19 C -0.45258(18) -0.1623(2) -0.42766(10)
H15 H -0.5011 -0.1261 -0.3977
C20 C -0.5859(2) -0.0356(3) -0.12850(10)
H16 H -0.5143 -0.0380 -0.0930
H17 H -0.6642 -0.0529 -0.1114
H18 H -0.5905 0.0518 -0.1490
C21 C -0.20592(17) -0.5355(2) -0.48119(9)
C22 C -0.10086(19) -0.7514(2) -0.47764(9)
C23 C -0.0125(2) -0.8179(3) -0.42297(10)
H19 H 0.0634 -0.7636 -0.4114
H20 H 0.0114 -0.9054 -0.4371
H21 H -0.0554 -0.8274 -0.3852
C24 C -0.0348(2) -0.7297(3) -0.53645(10)
H22 H -0.0946 -0.6911 -0.5718
H23 H -0.0043 -0.8146 -0.5504
H24 H 0.0367 -0.6695 -0.5248
C25 C -0.2229(2) -0.8286(3) -0.49327(13)
H25 H -0.2653 -0.8309 -0.4551
H26 H -0.2043 -0.9191 -0.5056
H27 H -0.2779 -0.7858 -0.5292
O6 O -0.24247(14) -0.8244(2) -0.31906(7)
O7 O -0.11258(13) -0.51134(16) -0.30811(6)
O8 O 0.08463(13) -0.59062(17) -0.28470(7)
O9 O -0.26011(17) -0.95874(19) 0.06188(7)
O10 O -0.32176(14) -1.10123(17) -0.02132(7)
N2 N -0.24677(17) -0.90844(19) -0.04438(8)
H28 H -0.2634 -0.9417 -0.0837
C26 C -0.07296(18) -0.6889(2) -0.23403(9)
C27 C -0.20795(18) -0.6961(2) -0.22129(9)
H29 H -0.2424 -0.6070 -0.2131
C28 C -0.19635(18) -0.7874(2) -0.16052(9)
H30 H -0.2726 -0.8453 -0.1631
C29 C -0.0774(2) -0.8728(2) -0.16644(10)
H31 H -0.0287 -0.8929 -0.1233
H32 H -0.1013 -0.9567 -0.1895
C30 C -0.00332(19) -0.7856(2) -0.20480(9)
H33 H 0.0833 -0.7985 -0.2077
C31 C -0.03847(18) -0.5876(2) -0.27934(8)
C32 C -0.28972(19) -0.7680(2) -0.27758(9)
C33 C -0.42972(18) -0.7750(2) -0.27822(9)
C34 C -0.4982(2) -0.8621(2) -0.32196(9)
H34 H -0.4560 -0.9119 -0.3506
C35 C -0.6271(2) -0.8770(2) -0.32417(10)
H35 H -0.6726 -0.9387 -0.3532
C36 C -0.68996(19) -0.8012(3) -0.28362(10)
H36 H -0.7787 -0.8098 -0.2856
C37 C -0.6230(2) -0.7132(3) -0.24035(10)
H37 H -0.6662 -0.6613 -0.2130
C38 C -0.4925(2) -0.7003(2) -0.23678(9)
H38 H -0.4466 -0.6413 -0.2065
C39 C -0.17433(18) -0.7139(2) -0.09621(9)
C40 C -0.19465(18) -0.7799(2) -0.03917(9)
C41 C -0.1612(2) -0.7183(3) 0.02071(10)
H39 H -0.1752 -0.7622 0.0591
C42 C -0.1077(2) -0.5932(3) 0.02439(10)
H40 H -0.0842 -0.5529 0.0655
C43 C -0.0878(2) -0.5258(3) -0.03072(11)
H41 H -0.0515 -0.4399 -0.0279
C44 C -0.12242(19) -0.5876(2) -0.09061(10)
H42 H -0.1101 -0.5418 -0.1287
C45 C 0.1226(2) -0.4959(3) -0.33020(10)
H43 H 0.0733 -0.5108 -0.3732
H44 H 0.2126 -0.5070 -0.3323
H45 H 0.1074 -0.4059 -0.3158
C46 C -0.27454(19) -0.9875(2) 0.00498(9)
C47 C -0.3488(2) -1.2128(3) 0.02031(11)
C48 C -0.2289(2) -1.2495(3) 0.06542(12)
H46 H -0.1599 -1.2608 0.0403
H47 H -0.2421 -1.3324 0.0877
H48 H -0.2073 -1.1791 0.0974
C49 C -0.3877(3) -1.3223(3) -0.02858(13)
H49 H -0.4653 -1.2964 -0.0572
H50 H -0.4028 -1.4039 -0.0057
H51 H -0.3203 -1.3370 -0.0544
C50 C -0.4570(2) -1.1749(3) 0.05631(12)
H52 H -0.4305 -1.1012 0.0858
H53 H -0.4793 -1.2510 0.0812
H54 H -0.5305 -1.1482 0.0250
loop_
_geom_bond_atom_site_label_1
_geom_bond_atom_site_label_2
_geom_bond_site_symmetry_1
_geom_bond_site_symmetry_2
O1 C7 1_555 1_555
O2 C6 1_555 1_555
O3 C6 1_555 1_555
O4 C21 1_555 1_555
O5 C21 1_555 1_555
N1 H1 1_555 1_555
C1 C2 1_555 1_555
C2 H2 1_555 1_555
C3 C2 1_555 1_555
H3 C3 1_555 1_555
C4 C3 1_555 1_555
H4 C4 1_555 1_555
H5 C4 1_555 1_555
C5 C1 1_555 1_555
H6 C5 1_555 1_555
C6 C1 1_555 1_555
C7 C2 1_555 1_555
C8 C7 1_555 1_555
C9 C8 1_555 1_555
H7 C9 1_555 1_555
C10 C9 1_555 1_555
H8 C10 1_555 1_555
C11 C10 1_555 1_555
H9 C11 1_555 1_555
C12 C11 1_555 1_555
H10 C12 1_555 1_555
C13 C8 1_555 1_555
H11 C13 1_555 1_555
C14 C3 1_555 1_555
C15 N1 1_555 1_555
C16 C15 1_555 1_555
H12 C16 1_555 1_555
C17 C16 1_555 1_555
H13 C17 1_555 1_555
C18 C17 1_555 1_555
H14 C18 1_555 1_555
C19 C14 1_555 1_555
H15 C19 1_555 1_555
C20 O3 1_555 1_555
H16 C20 1_555 1_555
H17 C20 1_555 1_555
H18 C20 1_555 1_555
C21 N1 1_555 1_555
C22 O5 1_555 1_555
C23 C22 1_555 1_555
H19 C23 1_555 1_555
H20 C23 1_555 1_555
H21 C23 1_555 1_555
C24 C22 1_555 1_555
H22 C24 1_555 1_555
H23 C24 1_555 1_555
H24 C24 1_555 1_555
C25 C22 1_555 1_555
H25 C25 1_555 1_555
H26 C25 1_555 1_555
H27 C25 1_555 1_555
O6 C32 1_555 1_555
O7 C31 1_555 1_555
O8 C31 1_555 1_555
O9 C46 1_555 1_555
O10 C46 1_555 1_555
N2 H28 1_555 1_555
C26 C27 1_555 1_555
C27 H29 1_555 1_555
C28 C27 1_555 1_555
H30 C28 1_555 1_555
C29 C28 1_555 1_555
H31 C29 1_555 1_555
H32 C29 1_555 1_555
C30 C26 1_555 1_555
H33 C30 1_555 1_555
C31 C26 1_555 1_555
C32 C27 1_555 1_555
C33 C32 1_555 1_555
C34 C33 1_555 1_555
H34 C34 1_555 1_555
C35 C34 1_555 1_555
H35 C35 1_555 1_555
C36 C35 1_555 1_555
H36 C36 1_555 1_555
C37 C36 1_555 1_555
H37 C37 1_555 1_555
C38 C33 1_555 1_555
H38 C38 1_555 1_555
C39 C28 1_555 1_555
C40 N2 1_555 1_555
C41 C40 1_555 1_555
H39 C41 1_555 1_555
C42 C41 1_555 1_555
H40 C42 1_555 1_555
C43 C42 1_555 1_555
H41 C43 1_555 1_555
C44 C39 1_555 1_555
H42 C44 1_555 1_555
C45 O8 1_555 1_555
H43 C45 1_555 1_555
H44 C45 1_555 1_555
H45 C45 1_555 1_555
C46 N2 1_555 1_555
C47 O10 1_555 1_555
C48 C47 1_555 1_555
H46 C48 1_555 1_555
H47 C48 1_555 1_555
H48 C48 1_555 1_555
C49 C47 1_555 1_555
H49 C49 1_555 1_555
H50 C49 1_555 1_555
H51 C49 1_555 1_555
C50 C47 1_555 1_555
H52 C50 1_555 1_555
H53 C50 1_555 1_555
H54 C50 1_555 1_555
C4 C5 1_555 1_555
C12 C13 1_555 1_555
C14 C15 1_555 1_555
C18 C19 1_555 1_555
C29 C30 1_555 1_555
C37 C38 1_555 1_555
C39 C40 1_555 1_555
C43 C44 1_555 1_555

#END
