
#######################################################################
#
#                 Cambridge Crystallographic Data Centre
#                                CCDC 
#
#######################################################################
#
# If this CIF has been generated from an entry in the Cambridge 
# Structural Database, then it will include bibliographic, chemical, 
# crystal, experimental, refinement or atomic coordinate data resulting 
# from the CCDC's data processing and validation procedures.
#
#######################################################################

data_JAFVAQ
_chemical_formula_moiety         'C21 H15 N1,0.5(H2 O1)'
_chemical_name_systematic        '3,4-Diphenylquinoline hemihydrate'
_symmetry_cell_setting           monoclinic
_symmetry_space_group_name_H-M   'C 2/c'
_symmetry_Int_Tables_number      15
_space_group_name_Hall           '-C 2yn'
loop_
_symmetry_equiv_pos_site_id
_symmetry_equiv_pos_as_xyz
1 x,y,z
2 -x,y,1/2-z
3 1/2+x,1/2+y,z
4 1/2-x,1/2+y,1/2-z
5 -x,-y,-z
6 x,-y,1/2+z
7 1/2-x,1/2-y,-z
8 1/2+x,1/2-y,1/2+z
_cell_length_a                   15.8693(8)
_cell_length_b                   9.9218(5)
_cell_length_c                   20.1836(10)
_cell_angle_alpha                90
_cell_angle_beta                 102.4240(10)
_cell_angle_gamma                90
_cell_volume                     3103.53
_exptl_crystal_colour            colorless
_exptl_crystal_description       Columnar
_cell_formula_units_Z            8
loop_
_atom_site_label
_atom_site_type_symbol
_atom_site_fract_x
_atom_site_fract_y
_atom_site_fract_z
O1 O 0.0000 0.18207(15) 0.2500
H1 H 0.0232 0.2428 0.2874
H1A H -0.0232 0.2428 0.2126
N1 N 0.07567(8) 0.32841(13) 0.36966(6)
C1 C 0.13108(10) 0.67260(16) 0.33316(7)
H2 H 0.1312 0.7276 0.2946
C2 C 0.10246(9) 0.54303(16) 0.32474(7)
H3 H 0.0822 0.5085 0.2803
C3 C 0.10257(9) 0.45937(15) 0.38137(7)
C4 C 0.07752(9) 0.25104(15) 0.42281(7)
H4 H 0.0592 0.1603 0.4145
C5 C 0.10460(9) 0.29166(14) 0.49144(7)
C6 C 0.10070(9) 0.19030(14) 0.54518(7)
C7 C 0.05838(9) 0.21816(16) 0.59744(7)
H5 H 0.0331 0.3043 0.6001
C8 C 0.05299(10) 0.12102(16) 0.64545(8)
H6 H 0.0235 0.1407 0.6806
C9 C 0.09026(10) -0.00491(16) 0.64291(8)
H7 H 0.0867 -0.0710 0.6763
C10 C 0.13227(8) 0.42335(14) 0.50438(7)
C11 C 0.13135(8) 0.51145(15) 0.44795(7)
C12 C 0.16061(9) 0.64716(15) 0.45476(7)
H8 H 0.1805 0.6842 0.4987
C13 C 0.16046(10) 0.72523(16) 0.39890(7)
H9 H 0.1803 0.8157 0.4045
C14 C 0.16685(9) 0.47065(14) 0.57525(7)
C15 C 0.12757(9) 0.57477(14) 0.60382(7)
H10 H 0.0783 0.6186 0.5776
C16 C 0.15989(10) 0.61489(15) 0.67027(7)
H11 H 0.1321 0.6848 0.6896
C17 C 0.23260(10) 0.55332(16) 0.70858(7)
H12 H 0.2550 0.5815 0.7539
C18 C 0.27264(9) 0.45033(16) 0.68040(7)
H13 H 0.3229 0.4085 0.7064
C19 C 0.23941(9) 0.40836(15) 0.61442(7)
H14 H 0.2664 0.3365 0.5958
C20 C 0.13734(10) 0.06309(15) 0.54240(8)
H15 H 0.1657 0.0424 0.5068
C21 C 0.13264(10) -0.03338(16) 0.59126(8)
H16 H 0.1585 -0.1192 0.5893
loop_
_geom_bond_atom_site_label_1
_geom_bond_atom_site_label_2
_geom_bond_site_symmetry_1
_geom_bond_site_symmetry_2
O1 H1 1_555 1_555
N1 C3 1_555 1_555
C1 H2 1_555 1_555
C2 C1 1_555 1_555
H3 C2 1_555 1_555
C3 C2 1_555 1_555
C4 N1 1_555 1_555
H4 C4 1_555 1_555
C5 C4 1_555 1_555
C6 C5 1_555 1_555
C7 C6 1_555 1_555
H5 C7 1_555 1_555
C8 C7 1_555 1_555
H6 C8 1_555 1_555
C9 C8 1_555 1_555
H7 C9 1_555 1_555
C10 C5 1_555 1_555
C11 C3 1_555 1_555
C12 C11 1_555 1_555
H8 C12 1_555 1_555
C13 C1 1_555 1_555
H9 C13 1_555 1_555
C14 C10 1_555 1_555
C15 C14 1_555 1_555
H10 C15 1_555 1_555
C16 C15 1_555 1_555
H11 C16 1_555 1_555
C17 C16 1_555 1_555
H12 C17 1_555 1_555
C18 C17 1_555 1_555
H13 C18 1_555 1_555
C19 C14 1_555 1_555
H14 C19 1_555 1_555
C20 C6 1_555 1_555
H15 C20 1_555 1_555
C21 C9 1_555 1_555
H16 C21 1_555 1_555
H1A O1 1_555 1_555
C10 C11 1_555 1_555
C12 C13 1_555 1_555
C18 C19 1_555 1_555
C20 C21 1_555 1_555

#END
