
#######################################################################
#
#                 Cambridge Crystallographic Data Centre
#                                CCDC 
#
#######################################################################
#
# If this CIF has been generated from an entry in the Cambridge 
# Structural Database, then it will include bibliographic, chemical, 
# crystal, experimental, refinement or atomic coordinate data resulting 
# from the CCDC's data processing and validation procedures.
#
#######################################################################

data_JAFXEW
_chemical_formula_moiety         'C21 H14 F4 N3 1+,H2 O1,Br1 1-'
_chemical_name_systematic        
'3-(Biphenyl-3-ylmethyl)-1-(2,3,5,6-tetrafluoropyridin-4-yl)-1H-imidazol-3-ium bromide monohydrate'
_symmetry_cell_setting           monoclinic
_symmetry_space_group_name_H-M   'P 21/c'
_symmetry_Int_Tables_number      14
_space_group_name_Hall           '-P 2ybc'
loop_
_symmetry_equiv_pos_site_id
_symmetry_equiv_pos_as_xyz
1 x,y,z
2 -x,1/2+y,1/2-z
3 -x,-y,-z
4 x,1/2-y,1/2+z
_cell_length_a                   14.4532(4)
_cell_length_b                   8.9340(2)
_cell_length_c                   15.9537(4)
_cell_angle_alpha                90
_cell_angle_beta                 100.6630(10)
_cell_angle_gamma                90
_cell_volume                     2024.45
_exptl_crystal_colour            'pale yellow'
_exptl_crystal_description       block
_cell_formula_units_Z            4
loop_
_atom_site_label
_atom_site_type_symbol
_atom_site_fract_x
_atom_site_fract_y
_atom_site_fract_z
Br1 Br 0.634827(10) 0.925649(16) 0.133579(9)
F1 F 0.82554(6) 0.29280(11) 0.07155(6)
F2 F 0.83402(7) 0.16643(12) 0.22669(7)
F3 F 0.56335(7) 0.38561(12) 0.26302(6)
F4 F 0.54149(6) 0.52289(11) 0.10955(6)
N1 N 0.67513(8) 0.48184(13) 0.00432(8)
N2 N 0.64769(8) 0.64927(14) -0.09421(8)
N3 N 0.69896(10) 0.27680(15) 0.24433(9)
C1 C 0.65094(10) 0.62585(17) -0.01198(10)
C2 C 0.68747(11) 0.41312(17) -0.07147(10)
C3 C 0.67081(11) 0.51810(18) -0.13230(11)
C4 C 0.68368(10) 0.41355(15) 0.08570(9)
C5 C 0.75834(10) 0.32013(16) 0.11712(10)
C6 C 0.76197(11) 0.25536(17) 0.19624(11)
C7 C 0.62825(11) 0.36515(18) 0.21441(10)
C8 C 0.61645(10) 0.43602(16) 0.13632(10)
C9 C 0.62950(11) 0.79662(18) -0.13729(11)
C10 C 0.72137(10) 0.87701(16) -0.13800(10)
C11 C 0.76680(10) 0.85800(16) -0.20672(10)
C12 C 0.85436(10) 0.92552(16) -0.20792(10)
C13 C 0.89440(12) 1.01071(19) -0.13692(11)
C14 C 0.84850(13) 1.0314(2) -0.06896(12)
C15 C 0.76144(13) 0.96556(19) -0.06899(11)
C16 C 0.90180(10) 0.90908(17) -0.28271(11)
C17 C 0.87449(12) 0.79886(19) -0.34448(12)
C18 C 0.91974(14) 0.7849(2) -0.41352(13)
C19 C 0.99385(13) 0.8781(2) -0.42202(13)
C20 C 1.02088(13) 0.9891(2) -0.36230(13)
C21 C 0.97520(11) 1.0059(2) -0.29377(12)
H1 H 0.6400(11) 0.695(2) 0.0308(12)
H2 H 0.7010(11) 0.310(2) -0.0741(11)
H3 H 0.6727(13) 0.515(2) -0.1894(14)
H4 H 0.5949(12) 0.778(2) -0.1949(12)
H5 H 0.5896(12) 0.850(2) -0.1051(12)
H6 H 0.7377(12) 0.800(2) -0.2525(12)
H7 H 0.9524(14) 1.054(2) -0.1359(13)
H8 H 0.8732(15) 1.090(2) -0.0222(15)
H9 H 0.7314(13) 0.978(2) -0.0245(13)
H10 H 0.8276(13) 0.731(2) -0.3392(13)
H11 H 0.9009(14) 0.711(2) -0.4522(14)
H12 H 1.0248(13) 0.866(2) -0.4690(13)
H13 H 1.0717(17) 1.053(2) -0.3702(16)
H14 H 0.9924(15) 1.087(2) -0.2565(15)
O1 O 0.55235(10) 0.20080(15) 0.00038(10)
H15 H 0.5702(17) 0.124(3) 0.0318(17)
H16 H 0.5167(17) 0.165(3) -0.0383(17)
loop_
_geom_bond_atom_site_label_1
_geom_bond_atom_site_label_2
_geom_bond_site_symmetry_1
_geom_bond_site_symmetry_2
F1 C5 1_555 1_555
F2 C6 1_555 1_555
F3 C7 1_555 1_555
F4 C8 1_555 1_555
N1 C1 1_555 1_555
N2 C1 1_555 1_555
N3 C6 1_555 1_555
C1 H1 1_555 1_555
C2 N1 1_555 1_555
C3 N2 1_555 1_555
C4 N1 1_555 1_555
C5 C4 1_555 1_555
C6 C5 1_555 1_555
C7 N3 1_555 1_555
C8 C4 1_555 1_555
C9 N2 1_555 1_555
C10 C9 1_555 1_555
C11 C10 1_555 1_555
C12 C11 1_555 1_555
C13 C12 1_555 1_555
C14 C13 1_555 1_555
C15 C10 1_555 1_555
C16 C12 1_555 1_555
C17 C16 1_555 1_555
C18 C17 1_555 1_555
C19 C18 1_555 1_555
C20 C19 1_555 1_555
C21 C16 1_555 1_555
H2 C2 1_555 1_555
H3 C3 1_555 1_555
H4 C9 1_555 1_555
H5 C9 1_555 1_555
H6 C11 1_555 1_555
H7 C13 1_555 1_555
H8 C14 1_555 1_555
H9 C15 1_555 1_555
H10 C17 1_555 1_555
H11 C18 1_555 1_555
H12 C19 1_555 1_555
H13 C20 1_555 1_555
H14 C21 1_555 1_555
O1 H15 1_555 1_555
H16 O1 1_555 1_555
C2 C3 1_555 1_555
C7 C8 1_555 1_555
C14 C15 1_555 1_555
C20 C21 1_555 1_555

#END
