
#######################################################################
#
#                 Cambridge Crystallographic Data Centre
#                                CCDC 
#
#######################################################################
#
# If this CIF has been generated from an entry in the Cambridge 
# Structural Database, then it will include bibliographic, chemical, 
# crystal, experimental, refinement or atomic coordinate data resulting 
# from the CCDC's data processing and validation procedures.
#
#######################################################################

data_JAFXUM
_chemical_formula_moiety         'C16 H12 F4 N3 1+,Br1 1-'
_chemical_name_systematic        
'3-Benzyl-4-methyl-1-(2,3,5,6-tetrafluoropyridin-4-yl)-1H-imidazol-3-ium bromide'
_symmetry_cell_setting           monoclinic
_symmetry_space_group_name_H-M   'P 21/c'
_symmetry_Int_Tables_number      14
_space_group_name_Hall           '-P 2ybc'
loop_
_symmetry_equiv_pos_site_id
_symmetry_equiv_pos_as_xyz
1 x,y,z
2 -x,1/2+y,1/2-z
3 -x,-y,-z
4 x,1/2-y,1/2+z
_cell_length_a                   7.9987(4)
_cell_length_b                   16.4596(9)
_cell_length_c                   12.9003(7)
_cell_angle_alpha                90
_cell_angle_beta                 106.104(2)
_cell_angle_gamma                90
_cell_volume                     1631.75
_exptl_crystal_colour            colorless
_exptl_crystal_description       brick
_cell_formula_units_Z            4
_exptl_crystal_recrystallization_method Methanol
loop_
_atom_site_label
_atom_site_type_symbol
_atom_site_fract_x
_atom_site_fract_y
_atom_site_fract_z
Br1 Br 0.27869(3) 0.372851(17) 0.46378(2)
F1 F -0.2907(2) 0.39388(11) 0.35060(13)
F2 F -0.2524(3) 0.27836(13) 0.20923(14)
F3 F 0.0886(3) 0.12501(11) 0.47471(18)
F4 F 0.0670(2) 0.23355(11) 0.62862(14)
N1 N -0.1319(3) 0.37482(13) 0.57183(18)
N2 N -0.2489(3) 0.44868(14) 0.66981(18)
N3 N -0.0833(3) 0.20261(16) 0.3432(2)
C1 C -0.2828(4) 0.39558(16) 0.5900(2)
H1 H -0.3945 0.3757 0.5523
C2 C 0.0021(4) 0.41713(17) 0.6424(2)
H2 H 0.1224 0.4139 0.6466
C3 C -0.0710(4) 0.46371(17) 0.7039(2)
C4 C 0.0096(4) 0.5232(2) 0.7896(2)
H3 H -0.0803 0.5464 0.8191
H4 H 0.0650 0.5666 0.7591
H5 H 0.0973 0.4957 0.8473
C5 C -0.1155(3) 0.31628(17) 0.4943(2)
C6 C -0.1960(4) 0.32692(17) 0.3863(2)
C7 C -0.1743(4) 0.26857(19) 0.3147(2)
C8 C -0.0060(4) 0.19258(18) 0.4457(3)
C9 C -0.0169(4) 0.24710(18) 0.5250(2)
C10 C -0.3864(4) 0.48487(18) 0.7122(2)
H6 H -0.4939 0.4917 0.6524
H7 H -0.3485 0.5393 0.7423
C11 C -0.4250(4) 0.43218(17) 0.7993(2)
C12 C -0.5253(4) 0.36228(18) 0.7697(2)
H8 H -0.5695 0.3487 0.6955
C13 C -0.5611(4) 0.31223(19) 0.8479(2)
H9 H -0.6298 0.2648 0.8269
C14 C -0.4971(4) 0.3314(2) 0.9557(2)
H10 H -0.5202 0.2970 1.0093
C15 C -0.3990(4) 0.4011(2) 0.9853(2)
H11 H -0.3556 0.4147 1.0596
C16 C -0.3630(4) 0.4517(2) 0.9077(2)
H12 H -0.2960 0.4996 0.9290
loop_
_geom_bond_atom_site_label_1
_geom_bond_atom_site_label_2
_geom_bond_site_symmetry_1
_geom_bond_site_symmetry_2
F1 C6 1_555 1_555
F2 C7 1_555 1_555
F3 C8 1_555 1_555
F4 C9 1_555 1_555
N1 C1 1_555 1_555
N2 C1 1_555 1_555
N3 C7 1_555 1_555
C1 H1 1_555 1_555
C2 N1 1_555 1_555
H2 C2 1_555 1_555
C3 N2 1_555 1_555
C4 C3 1_555 1_555
H3 C4 1_555 1_555
H4 C4 1_555 1_555
H5 C4 1_555 1_555
C5 N1 1_555 1_555
C6 C5 1_555 1_555
C7 C6 1_555 1_555
C8 N3 1_555 1_555
C9 C5 1_555 1_555
C10 N2 1_555 1_555
H6 C10 1_555 1_555
H7 C10 1_555 1_555
C11 C10 1_555 1_555
C12 C11 1_555 1_555
H8 C12 1_555 1_555
C13 C12 1_555 1_555
H9 C13 1_555 1_555
C14 C13 1_555 1_555
H10 C14 1_555 1_555
C15 C14 1_555 1_555
H11 C15 1_555 1_555
C16 C11 1_555 1_555
H12 C16 1_555 1_555
C2 C3 1_555 1_555
C8 C9 1_555 1_555
C15 C16 1_555 1_555

#END
