
#######################################################################
#
#                 Cambridge Crystallographic Data Centre
#                                CCDC 
#
#######################################################################
#
# If this CIF has been generated from an entry in the Cambridge 
# Structural Database, then it will include bibliographic, chemical, 
# crystal, experimental, refinement or atomic coordinate data resulting 
# from the CCDC's data processing and validation procedures.
#
#######################################################################

data_JAFZIC
_chemical_formula_moiety         'C16 H11 N3 O2'
_chemical_name_systematic        
'N-(2-cyanophenyl)-1-methyl-2-oxo-1,2-dihydro-3H-indol-3-imine N-oxide'
_symmetry_cell_setting           triclinic
_symmetry_space_group_name_H-M   'P -1'
_symmetry_Int_Tables_number      2
_space_group_name_Hall           '-P 1'
loop_
_symmetry_equiv_pos_site_id
_symmetry_equiv_pos_as_xyz
1 x,y,z
2 -x,-y,-z
_cell_length_a                   7.012(4)
_cell_length_b                   7.844(4)
_cell_length_c                   12.691(8)
_cell_angle_alpha                81.83(4)
_cell_angle_beta                 85.86(4)
_cell_angle_gamma                82.76(3)
_cell_volume                     684.39
_exptl_crystal_colour            colorless
_exptl_crystal_description       prism
_cell_formula_units_Z            2
loop_
_atom_site_label
_atom_site_type_symbol
_atom_site_fract_x
_atom_site_fract_y
_atom_site_fract_z
O1 O 1.1466(5) 0.7072(4) 0.8173(3)
O2 O 0.5968(5) 0.9651(5) 0.7134(3)
N1 N 0.7522(6) 0.8817(4) 0.7523(3)
N2 N 1.1810(5) 0.6756(4) 0.6371(3)
N3 N 0.7321(10) 0.4366(6) 0.8308(5)
C1 C 1.0840(7) 0.7289(5) 0.7279(4)
C2 C 0.8935(7) 0.8127(5) 0.5777(4)
C3 C 0.7561(7) 0.8638(5) 0.8678(4)
C4 C 0.7459(7) 0.7034(5) 0.9276(4)
C5 C 0.7618(7) 0.8780(6) 0.5014(4)
C6 C 0.8942(7) 0.8157(5) 0.6911(4)
C7 C 0.7376(9) 0.5540(6) 0.8741(5)
C8 C 0.7562(8) 1.0097(6) 0.9167(5)
C9 C 1.1169(8) 0.6948(6) 0.4448(5)
C10 C 0.9817(9) 0.7595(7) 0.3690(5)
C11 C 0.7360(8) 0.6893(8) 1.0377(5)
C12 C 1.0704(7) 0.7238(5) 0.5478(4)
C13 C 0.7486(9) 0.9933(10) 1.0261(6)
C14 C 0.8093(9) 0.8484(7) 0.3969(5)
C15 C 1.3756(8) 0.5858(7) 0.6385(5)
C16 C 0.7382(9) 0.8332(10) 1.0862(6)
H1 H 0.6450 0.9398 0.5197
H2 H 0.7614 1.1178 0.8763
H3 H 1.2343 0.6343 0.4259
H4 H 1.0095 0.7417 0.2983
H5 H 0.7280 0.5819 1.0785
H6 H 0.7505 1.0907 1.0599
H7 H 0.7220 0.8899 0.3448
H8 H 1.4172 0.5599 0.5682
H9 H 1.3774 0.4799 0.6869
H10 H 1.4608 0.6584 0.6613
H11 H 0.7326 0.8236 1.1602
loop_
_geom_bond_atom_site_label_1
_geom_bond_atom_site_label_2
_geom_bond_site_symmetry_1
_geom_bond_site_symmetry_2
O1 C1 1_555 1_555
O2 N1 1_555 1_555
N1 C3 1_555 1_555
N2 C1 1_555 1_555
N3 C7 1_555 1_555
C1 C6 1_555 1_555
C2 C5 1_555 1_555
C3 C4 1_555 1_555
C4 C7 1_555 1_555
C5 C14 1_555 1_555
C6 N1 1_555 1_555
C8 C3 1_555 1_555
C9 C10 1_555 1_555
C10 C14 1_555 1_555
C11 C4 1_555 1_555
C12 N2 1_555 1_555
C13 C8 1_555 1_555
C14 H7 1_555 1_555
C15 N2 1_555 1_555
C16 C11 1_555 1_555
H1 C5 1_555 1_555
H2 C8 1_555 1_555
H3 C9 1_555 1_555
H4 C10 1_555 1_555
H5 C11 1_555 1_555
H6 C13 1_555 1_555
H8 C15 1_555 1_555
H9 C15 1_555 1_555
H10 C15 1_555 1_555
H11 C16 1_555 1_555
C2 C6 1_555 1_555
C2 C12 1_555 1_555
C9 C12 1_555 1_555
C13 C16 1_555 1_555

#END
