
#######################################################################
#
#                 Cambridge Crystallographic Data Centre
#                                CCDC 
#
#######################################################################
#
# If this CIF has been generated from an entry in the Cambridge 
# Structural Database, then it will include bibliographic, chemical, 
# crystal, experimental, refinement or atomic coordinate data resulting 
# from the CCDC's data processing and validation procedures.
#
#######################################################################

data_JAGCAY
_chemical_formula_moiety         'C23 H18 N2 O2'
_chemical_name_systematic        
3-(4-(1H-benzimidazol-1-yl)phenyl)-1-(4-methoxyphenyl)prop-2-en-1-one
_symmetry_cell_setting           triclinic
_symmetry_space_group_name_H-M   'P 1'
_symmetry_Int_Tables_number      1
_space_group_name_Hall           'P 1'
loop_
_symmetry_equiv_pos_site_id
_symmetry_equiv_pos_as_xyz
1 x,y,z
_cell_length_a                   7.4284(5)
_cell_length_b                   9.0351(6)
_cell_length_c                   14.4993(11)
_cell_angle_alpha                73.826(6)
_cell_angle_beta                 75.779(6)
_cell_angle_gamma                86.524(5)
_cell_volume                     905.95
_exptl_crystal_colour            colorless
_exptl_crystal_description       block
_cell_formula_units_Z            2
loop_
_atom_site_label
_atom_site_type_symbol
_atom_site_fract_x
_atom_site_fract_y
_atom_site_fract_z
C1 C 0.2448(5) 0.1772(4) 0.6410(3)
H1 H 0.1801 0.1379 0.7064
C2 C 0.3907(5) 0.1948(4) 0.4915(3)
C3 C 0.4854(5) 0.1671(5) 0.4026(3)
H2 H 0.4898 0.0686 0.3940
C4 C 0.5714(6) 0.2877(6) 0.3287(3)
H3 H 0.6342 0.2712 0.2685
C5 C 0.5680(6) 0.4362(6) 0.3407(3)
H4 H 0.6290 0.5158 0.2884
C6 C 0.4764(5) 0.4677(5) 0.4281(3)
H5 H 0.4752 0.5662 0.4365
C7 C 0.3869(5) 0.3450(4) 0.5024(3)
C8 C 0.2573(5) 0.4473(4) 0.6515(2)
C9 C 0.1831(5) 0.5871(4) 0.6112(3)
H6 H 0.1536 0.6065 0.5502
C10 C 0.1532(5) 0.6970(4) 0.6619(3)
H7 H 0.1010 0.7905 0.6351
C11 C 0.1993(4) 0.6723(4) 0.7526(2)
C12 C 0.2713(5) 0.5298(4) 0.7924(3)
H8 H 0.3005 0.5098 0.8535
C13 C 0.3001(5) 0.4176(4) 0.7425(3)
H9 H 0.3481 0.3226 0.7698
C14 C 0.1725(5) 0.7960(4) 0.8019(3)
H10 H 0.0842 0.8696 0.7855
C15 C 0.2605(5) 0.8147(4) 0.8678(3)
H11 H 0.3506 0.7443 0.8862
C16 C 0.2177(5) 0.9443(5) 0.9116(3)
C17 C 0.3269(5) 0.9651(5) 0.9815(3)
C18 C 0.3306(6) 1.1102(5) 0.9969(3)
H12 H 0.2659 1.1907 0.9639
C19 C 0.4284(6) 1.1361(5) 1.0601(3)
H13 H 0.4308 1.2341 1.0688
C20 C 0.5228(5) 1.0177(5) 1.1106(3)
C21 C 0.5199(6) 0.8733(5) 1.0962(3)
H14 H 0.5829 0.7926 1.1302
C22 C 0.4238(6) 0.8482(5) 1.0315(3)
H15 H 0.4245 0.7508 1.0215
C23 C 0.7232(8) 0.9416(7) 1.2222(4)
H16 H 0.8235 0.9144 1.1741
H17 H 0.6491 0.8518 1.2601
H18 H 0.7725 0.9824 1.2655
N1 N 0.2988(5) 0.0917(4) 0.5804(3)
N2 N 0.2914(4) 0.3303(3) 0.6002(2)
O1 O 0.0967(4) 1.0370(4) 0.8917(2)
O2 O 0.6114(4) 1.0547(4) 1.1733(2)
C24 C 0.6411(6) -0.2024(5) 0.5900(3)
H19 H 0.5401 -0.2138 0.6442
C25 C 0.8356(5) -0.2390(4) 0.4636(3)
C26 C 0.9363(6) -0.2969(5) 0.3866(3)
H20 H 0.8960 -0.3839 0.3748
C27 C 1.0952(6) -0.2215(6) 0.3294(3)
H21 H 1.1641 -0.2567 0.2769
C28 C 1.1571(6) -0.0918(6) 0.3480(3)
H22 H 1.2669 -0.0432 0.3078
C29 C 1.0602(5) -0.0342(5) 0.4242(3)
H23 H 1.1025 0.0510 0.4371
C30 C 0.8986(5) -0.1086(4) 0.4798(3)
C31 C 0.7704(4) 0.0294(4) 0.6128(3)
C32 C 0.7900(5) 0.1836(4) 0.5605(3)
H24 H 0.8075 0.2124 0.4921
C33 C 0.7834(5) 0.2944(4) 0.6104(3)
H25 H 0.7947 0.3978 0.5749
C34 C 0.7604(5) 0.2549(4) 0.7126(3)
C35 C 0.7397(5) 0.0997(4) 0.7629(3)
H26 H 0.7227 0.0705 0.8313
C36 C 0.7433(5) -0.0127(4) 0.7147(3)
H27 H 0.7278 -0.1159 0.7503
C37 C 0.7516(5) 0.3761(5) 0.7624(3)
H28 H 0.7236 0.4745 0.7279
C38 C 0.7795(5) 0.3604(4) 0.8517(3)
H29 H 0.8095 0.2641 0.8882
C39 C 0.7638(5) 0.4920(5) 0.8941(3)
C40 C 0.8443(5) 0.4827(4) 0.9796(3)
C41 C 0.8574(5) 0.6180(5) 1.0069(3)
H30 H 0.8123 0.7097 0.9726
C42 C 0.9355(6) 0.6174(5) 1.0830(3)
H31 H 0.9451 0.7088 1.0991
C43 C 1.0005(5) 0.4813(5) 1.1364(3)
C44 C 0.9907(6) 0.3472(5) 1.1110(3)
H32 H 1.0353 0.2558 1.1460
C45 C 0.9135(6) 0.3491(5) 1.0327(3)
H33 H 0.9082 0.2581 1.0154
C46 C 1.1288(9) 0.3579(7) 1.2743(4)
H34 H 1.2308 0.3125 1.2368
H35 H 1.0264 0.2864 1.3012
H36 H 1.1666 0.3822 1.3271
N3 N 0.6712(5) -0.2951(4) 0.5337(3)
N4 N 0.7697(4) -0.0870(3) 0.5635(2)
O3 O 0.6869(4) 0.6113(3) 0.8580(2)
O4 O 1.0735(5) 0.4955(4) 1.2114(2)
loop_
_geom_bond_atom_site_label_1
_geom_bond_atom_site_label_2
_geom_bond_site_symmetry_1
_geom_bond_site_symmetry_2
C1 H1 1_555 1_555
C2 C3 1_555 1_555
C3 H2 1_555 1_555
C4 C3 1_555 1_555
H3 C4 1_555 1_555
C5 C4 1_555 1_555
H4 C5 1_555 1_555
C6 C5 1_555 1_555
H5 C6 1_555 1_555
C7 C2 1_555 1_555
C8 C9 1_555 1_555
C9 H6 1_555 1_555
C10 C9 1_555 1_555
H7 C10 1_555 1_555
C11 C10 1_555 1_555
C12 C11 1_555 1_555
H8 C12 1_555 1_555
C13 C8 1_555 1_555
H9 C13 1_555 1_555
C14 C11 1_555 1_555
H10 C14 1_555 1_555
C15 C14 1_555 1_555
H11 C15 1_555 1_555
C16 C15 1_555 1_555
C17 C16 1_555 1_555
C18 C17 1_555 1_555
H12 C18 1_555 1_555
C19 C18 1_555 1_555
H13 C19 1_555 1_555
C20 C19 1_555 1_555
C21 C20 1_555 1_555
H14 C21 1_555 1_555
C22 C17 1_555 1_555
H15 C22 1_555 1_555
C23 H16 1_555 1_555
H17 C23 1_555 1_555
H18 C23 1_555 1_555
N1 C1 1_555 1_555
N2 C1 1_555 1_555
O1 C16 1_555 1_555
O2 C20 1_555 1_555
C24 H19 1_555 1_555
C25 C26 1_555 1_555
C26 H20 1_555 1_555
C27 C26 1_555 1_555
H21 C27 1_555 1_555
C28 C27 1_555 1_555
H22 C28 1_555 1_555
C29 C28 1_555 1_555
H23 C29 1_555 1_555
C30 C25 1_555 1_555
C31 C32 1_555 1_555
C32 H24 1_555 1_555
C33 C32 1_555 1_555
H25 C33 1_555 1_555
C34 C33 1_555 1_555
C35 C34 1_555 1_555
H26 C35 1_555 1_555
C36 C31 1_555 1_555
H27 C36 1_555 1_555
C37 C34 1_555 1_555
H28 C37 1_555 1_555
C38 C37 1_555 1_555
H29 C38 1_555 1_555
C39 C38 1_555 1_555
C40 C39 1_555 1_555
C41 C40 1_555 1_555
H30 C41 1_555 1_555
C42 C41 1_555 1_555
H31 C42 1_555 1_555
C43 C42 1_555 1_555
C44 C43 1_555 1_555
H32 C44 1_555 1_555
C45 C40 1_555 1_555
H33 C45 1_555 1_555
C46 H34 1_555 1_555
H35 C46 1_555 1_555
H36 C46 1_555 1_555
N3 C24 1_555 1_555
N4 C24 1_555 1_555
O3 C39 1_555 1_555
O4 C43 1_555 1_555
C2 N1 1_555 1_555
C6 C7 1_555 1_555
C7 N2 1_555 1_555
C8 N2 1_555 1_555
C12 C13 1_555 1_555
C21 C22 1_555 1_555
C23 O2 1_555 1_555
C25 N3 1_555 1_555
C29 C30 1_555 1_555
C30 N4 1_555 1_555
C31 N4 1_555 1_555
C35 C36 1_555 1_555
C44 C45 1_555 1_555
C46 O4 1_555 1_555

#END
