
#######################################################################
#
#                 Cambridge Crystallographic Data Centre
#                                CCDC 
#
#######################################################################
#
# If this CIF has been generated from an entry in the Cambridge 
# Structural Database, then it will include bibliographic, chemical, 
# crystal, experimental, refinement or atomic coordinate data resulting 
# from the CCDC's data processing and validation procedures.
#
#######################################################################

data_JAGPUF
_chemical_formula_moiety         'C34 H36 O8'
_chemical_name_systematic        
1,1',1'',1'''-Ethene-1,1,2,2-tetrayltetrakis(3,4-dimethoxybenzene)
_symmetry_cell_setting           triclinic
_symmetry_space_group_name_H-M   'P -1'
_symmetry_Int_Tables_number      2
_space_group_name_Hall           '-P 1'
loop_
_symmetry_equiv_pos_site_id
_symmetry_equiv_pos_as_xyz
1 x,y,z
2 -x,-y,-z
_cell_length_a                   10.349(7)
_cell_length_b                   11.808(9)
_cell_length_c                   13.376(11)
_cell_angle_alpha                101.84(3)
_cell_angle_beta                 105.34(3)
_cell_angle_gamma                90.30(2)
_cell_volume                     1539.72
_exptl_crystal_colour            colorless
_exptl_crystal_description       block
_cell_formula_units_Z            2
loop_
_atom_site_label
_atom_site_type_symbol
_atom_site_fract_x
_atom_site_fract_y
_atom_site_fract_z
C1 C 0.2376(3) 0.8618(2) -0.0325(2)
C2 C 0.2393(3) 0.9755(2) -0.0361(2)
C3 C 0.2830(3) 1.0713(2) 0.0617(2)
C4 C 0.3583(3) 1.1687(3) 0.0618(3)
H1 H 0.3795 1.1762 0.0000
C5 C 0.4026(3) 1.2554(3) 0.1532(2)
H2 H 0.4531 1.3201 0.1517
C6 C 0.3728(3) 1.2467(2) 0.2451(2)
C7 C 0.2957(3) 1.1490(2) 0.2460(2)
C8 C 0.2497(3) 1.0646(2) 0.1551(2)
H3 H 0.1953 1.0019 0.1558
C9 C 0.2988(3) 0.8197(2) 0.0665(2)
C10 C 0.4252(3) 0.8589(2) 0.1316(2)
H4 H 0.4763 0.9114 0.1123
C11 C 0.4769(3) 0.8215(3) 0.2247(2)
H5 H 0.5615 0.8506 0.2678
C12 C 0.4057(3) 0.7422(3) 0.2547(2)
C13 C 0.2798(3) 0.6973(3) 0.1873(2)
C14 C 0.2285(3) 0.7360(3) 0.0957(2)
H6 H 0.1448 0.7057 0.0517
C15 C 0.1713(3) 0.7678(2) -0.1269(2)
C16 C 0.2309(3) 0.6628(3) -0.1461(2)
H7 H 0.3142 0.6532 -0.1019
C17 C 0.1692(3) 0.5728(3) -0.2291(3)
C18 C 0.0436(3) 0.5870(3) -0.2960(2)
C19 C -0.0160(3) 0.6889(3) -0.2771(2)
H8 H -0.0992 0.6987 -0.3214
C20 C 0.0462(3) 0.7783(3) -0.1922(2)
H9 H 0.0028 0.8463 -0.1793
C21 C 0.2006(3) 1.0166(2) -0.1376(2)
C22 C 0.2519(3) 0.9657(2) -0.2227(2)
H10 H 0.3097 0.9061 -0.2152
C23 C 0.2181(3) 1.0026(3) -0.3164(2)
C24 C 0.1327(3) 1.0931(3) -0.3289(2)
C25 C 0.0841(3) 1.1447(3) -0.2456(2)
H11 H 0.0283 1.2057 -0.2526
C26 C 0.1176(3) 1.1067(3) -0.1509(3)
H12 H 0.0835 1.1425 -0.0954
C27 C 0.4959(4) 1.4246(3) 0.3414(3)
H13 H 0.5723 1.3991 0.3171
H14 H 0.5256 1.4699 0.4126
H15 H 0.4448 1.4710 0.2958
C28 C 0.2135(4) 1.0416(3) 0.3514(3)
H16 H 0.1251 1.0270 0.3034
H17 H 0.2076 1.0487 0.4229
H18 H 0.2676 0.9785 0.3346
C29 C 0.5738(4) 0.7447(4) 0.4157(3)
H19 H 0.6434 0.7252 0.3809
H20 H 0.5899 0.7117 0.4774
H21 H 0.5737 0.8275 0.4365
C30 C 0.1121(5) 0.5436(5) 0.1413(4)
H22 H 0.0355 0.5883 0.1228
H23 H 0.0880 0.4803 0.1690
H24 H 0.1417 0.5140 0.0793
C31 C 0.3154(4) 0.4327(3) -0.1662(4)
H25 H 0.3976 0.4792 -0.1500
H26 H 0.3316 0.3525 -0.1872
H27 H 0.2821 0.4436 -0.1046
C32 C -0.1470(3) 0.4973(3) -0.4372(3)
H28 H -0.2060 0.5070 -0.3918
H29 H -0.1737 0.4267 -0.4899
H30 H -0.1519 0.5617 -0.4715
C33 C 0.3483(4) 0.8658(4) -0.3963(3)
H31 H 0.4297 0.8906 -0.3410
H32 H 0.3692 0.8400 -0.4627
H33 H 0.3031 0.8032 -0.3805
C34 C 0.0157(4) 1.2111(3) -0.4431(3)
H34 H -0.0686 1.1886 -0.4333
H35 H 0.0024 1.2215 -0.5144
H36 H 0.0518 1.2826 -0.3940
O1 O 0.4139(2) 1.32624(18) 0.33954(16)
O2 O 0.2729(2) 1.14615(18) 0.34182(16)
O3 O 0.4475(2) 0.7001(2) 0.34484(18)
O4 O 0.2161(3) 0.6144(3) 0.2183(2)
O5 O 0.2199(2) 0.4662(2) -0.2496(2)
O6 O -0.0113(2) 0.49200(19) -0.37485(18)
O7 O 0.2641(2) 0.9593(2) -0.40290(17)
O8 O 0.1069(2) 1.1233(2) -0.42470(17)
loop_
_geom_bond_atom_site_label_1
_geom_bond_atom_site_label_2
_geom_bond_site_symmetry_1
_geom_bond_site_symmetry_2
C1 C2 1_555 1_555
C2 C3 1_555 1_555
C3 C4 1_555 1_555
C4 H1 1_555 1_555
C5 C4 1_555 1_555
H2 C5 1_555 1_555
C6 C5 1_555 1_555
C7 C6 1_555 1_555
C8 C3 1_555 1_555
H3 C8 1_555 1_555
C9 C1 1_555 1_555
C10 C9 1_555 1_555
H4 C10 1_555 1_555
C11 C10 1_555 1_555
H5 C11 1_555 1_555
C12 C11 1_555 1_555
C13 C12 1_555 1_555
C14 C9 1_555 1_555
H6 C14 1_555 1_555
C15 C1 1_555 1_555
C16 C15 1_555 1_555
H7 C16 1_555 1_555
C17 C16 1_555 1_555
C18 C17 1_555 1_555
C19 C18 1_555 1_555
H8 C19 1_555 1_555
C20 C15 1_555 1_555
H9 C20 1_555 1_555
C21 C2 1_555 1_555
C22 C21 1_555 1_555
H10 C22 1_555 1_555
C23 C22 1_555 1_555
C24 C23 1_555 1_555
C25 C24 1_555 1_555
H11 C25 1_555 1_555
C26 C21 1_555 1_555
H12 C26 1_555 1_555
C27 H13 1_555 1_555
H14 C27 1_555 1_555
H15 C27 1_555 1_555
C28 H16 1_555 1_555
H17 C28 1_555 1_555
H18 C28 1_555 1_555
C29 H19 1_555 1_555
H20 C29 1_555 1_555
H21 C29 1_555 1_555
C30 H22 1_555 1_555
H23 C30 1_555 1_555
H24 C30 1_555 1_555
C31 H25 1_555 1_555
H26 C31 1_555 1_555
H27 C31 1_555 1_555
C32 H28 1_555 1_555
H29 C32 1_555 1_555
H30 C32 1_555 1_555
C33 H31 1_555 1_555
H32 C33 1_555 1_555
H33 C33 1_555 1_555
C34 H34 1_555 1_555
H35 C34 1_555 1_555
H36 C34 1_555 1_555
O1 C6 1_555 1_555
O2 C7 1_555 1_555
O3 C12 1_555 1_555
O4 C13 1_555 1_555
O5 C17 1_555 1_555
O6 C18 1_555 1_555
O7 C23 1_555 1_555
O8 C24 1_555 1_555
C7 C8 1_555 1_555
C13 C14 1_555 1_555
C19 C20 1_555 1_555
C25 C26 1_555 1_555
C27 O1 1_555 1_555
C28 O2 1_555 1_555
C29 O3 1_555 1_555
C30 O4 1_555 1_555
C31 O5 1_555 1_555
C32 O6 1_555 1_555
C33 O7 1_555 1_555
C34 O8 1_555 1_555

#END
