
#######################################################################
#
#                 Cambridge Crystallographic Data Centre
#                                CCDC 
#
#######################################################################
#
# If this CIF has been generated from an entry in the Cambridge 
# Structural Database, then it will include bibliographic, chemical, 
# crystal, experimental, refinement or atomic coordinate data resulting 
# from the CCDC's data processing and validation procedures.
#
#######################################################################

data_JAGQOA
_chemical_formula_moiety         'C25 H36 N2 O3 S1'
_chemical_name_systematic        
'4-methylphenyl (2-(4-t-butylphenyl)-1-(diisopropylamino)ethylidene)sulfamate'
_symmetry_cell_setting           orthorhombic
_symmetry_space_group_name_H-M   'P 21 21 21'
_symmetry_Int_Tables_number      19
_space_group_name_Hall           'P 2ac 2ab'
loop_
_symmetry_equiv_pos_site_id
_symmetry_equiv_pos_as_xyz
1 x,y,z
2 1/2-x,-y,1/2+z
3 -x,1/2+y,1/2-z
4 1/2+x,1/2-y,-z
_cell_length_a                   8.3296(2)
_cell_length_b                   11.4178(2)
_cell_length_c                   26.2833(5)
_cell_angle_alpha                90
_cell_angle_beta                 90
_cell_angle_gamma                90
_cell_volume                     2499.69
_exptl_crystal_colour            colorless
_exptl_crystal_description       block
_cell_formula_units_Z            4
loop_
_atom_site_label
_atom_site_type_symbol
_atom_site_fract_x
_atom_site_fract_y
_atom_site_fract_z
S1 S 0.64342(5) 0.88803(3) 0.155425(16)
O1 O 0.68977(16) 0.81041(12) 0.19545(5)
O2 O 0.74677(14) 0.98531(11) 0.14508(5)
O3 O 0.64344(16) 0.80418(10) 0.10674(5)
N1 N 0.45946(16) 0.92519(12) 0.15725(5)
N2 N 0.24567(16) 1.01983(12) 0.19163(5)
C1 C 0.5441(3) 0.9548(2) -0.09744(8)
H1 H 0.6269 0.9184 -0.1187
H2 H 0.5522 1.0402 -0.1001
H3 H 0.4378 0.9295 -0.1091
C2 C 0.5677(3) 0.91828(16) -0.04288(7)
C3 C 0.7029(2) 0.95230(18) -0.01608(7)
H4 H 0.7804 1.0004 -0.0324
C4 C 0.7284(2) 0.91856(17) 0.03354(7)
H5 H 0.8227 0.9422 0.0511
C5 C 0.6150(2) 0.84994(15) 0.05731(7)
C6 C 0.4784(2) 0.81502(17) 0.03227(8)
H6 H 0.4002 0.7683 0.0490
C7 C 0.4565(3) 0.84911(19) -0.01778(8)
H7 H 0.3628 0.8244 -0.0354
C8 C 0.40148(19) 0.99277(13) 0.19327(6)
C9 C 0.5006(2) 1.03639(15) 0.23800(6)
H8 H 0.4844 1.1218 0.2418
H9 H 0.6158 1.0228 0.2308
C10 C 0.4562(2) 0.97578(15) 0.28773(6)
C11 C 0.4606(2) 1.03630(15) 0.33333(7)
H10 H 0.4893 1.1168 0.3335
C12 C 0.4237(2) 0.98072(16) 0.37888(7)
H11 H 0.4278 1.0241 0.4097
C13 C 0.3807(2) 0.86296(14) 0.38040(6)
C14 C 0.3748(2) 0.80345(14) 0.33415(6)
H12 H 0.3444 0.7233 0.3338
C15 C 0.4122(2) 0.85837(15) 0.28880(6)
H13 H 0.4076 0.8153 0.2579
C16 C 0.3470(2) 0.79681(15) 0.43003(6)
C17 C 0.4802(2) 0.70537(18) 0.43729(7)
H14 H 0.4647 0.6650 0.4698
H15 H 0.5850 0.7445 0.4372
H16 H 0.4760 0.6483 0.4095
C18 C 0.3444(3) 0.87822(17) 0.47634(6)
H17 H 0.2592 0.9366 0.4721
H18 H 0.4482 0.9179 0.4794
H19 H 0.3240 0.8322 0.5071
C19 C 0.1838(2) 0.73444(17) 0.42714(7)
H20 H 0.0990 0.7923 0.4211
H21 H 0.1631 0.6936 0.4593
H22 H 0.1852 0.6776 0.3992
C20 C 0.1682(2) 1.10087(15) 0.22855(6)
H23 H 0.2523 1.1257 0.2535
C21 C 0.0362(3) 1.0391(2) 0.25847(8)
H24 H -0.0494 1.0148 0.2352
H25 H -0.0078 1.0928 0.2840
H26 H 0.0809 0.9700 0.2755
C22 C 0.1086(3) 1.21066(18) 0.20168(8)
H27 H 0.1969 1.2458 0.1824
H28 H 0.0694 1.2669 0.2270
H29 H 0.0212 1.1900 0.1784
C23 C 0.1374(2) 0.97117(15) 0.15173(6)
H30 H 0.0278 1.0018 0.1598
C24 C 0.1243(2) 0.83812(16) 0.15430(8)
H31 H 0.0352 0.8119 0.1328
H32 H 0.1047 0.8140 0.1895
H33 H 0.2246 0.8029 0.1422
C25 C 0.1771(2) 1.01623(18) 0.09869(6)
H34 H 0.2812 0.9849 0.0879
H35 H 0.1817 1.1020 0.0992
H36 H 0.0938 0.9908 0.0748
H37? H 0.3944 0.8996 0.1333
loop_
_geom_bond_atom_site_label_1
_geom_bond_atom_site_label_2
_geom_bond_site_symmetry_1
_geom_bond_site_symmetry_2
S1 O1 1_555 1_555
O2 S1 1_555 1_555
O3 S1 1_555 1_555
N1 S1 1_555 1_555
N2 C8 1_555 1_555
C1 H1 1_555 1_555
H2 C1 1_555 1_555
H3 C1 1_555 1_555
C2 C1 1_555 1_555
C3 C2 1_555 1_555
H4 C3 1_555 1_555
C4 C3 1_555 1_555
H5 C4 1_555 1_555
C5 O3 1_555 1_555
C6 C5 1_555 1_555
H6 C6 1_555 1_555
C7 C2 1_555 1_555
H7 C7 1_555 1_555
C8 N1 1_555 1_555
C9 C8 1_555 1_555
H8 C9 1_555 1_555
H9 C9 1_555 1_555
C10 C9 1_555 1_555
C11 C10 1_555 1_555
H10 C11 1_555 1_555
C12 C11 1_555 1_555
H11 C12 1_555 1_555
C13 C12 1_555 1_555
C14 C13 1_555 1_555
H12 C14 1_555 1_555
C15 C10 1_555 1_555
H13 C15 1_555 1_555
C16 C13 1_555 1_555
C17 C16 1_555 1_555
H14 C17 1_555 1_555
H15 C17 1_555 1_555
H16 C17 1_555 1_555
C18 C16 1_555 1_555
H17 C18 1_555 1_555
H18 C18 1_555 1_555
H19 C18 1_555 1_555
C19 C16 1_555 1_555
H20 C19 1_555 1_555
H21 C19 1_555 1_555
H22 C19 1_555 1_555
C20 N2 1_555 1_555
H23 C20 1_555 1_555
C21 C20 1_555 1_555
H24 C21 1_555 1_555
H25 C21 1_555 1_555
H26 C21 1_555 1_555
C22 C20 1_555 1_555
H27 C22 1_555 1_555
H28 C22 1_555 1_555
H29 C22 1_555 1_555
C23 N2 1_555 1_555
H30 C23 1_555 1_555
C24 C23 1_555 1_555
H31 C24 1_555 1_555
H32 C24 1_555 1_555
H33 C24 1_555 1_555
C25 C23 1_555 1_555
H34 C25 1_555 1_555
H35 C25 1_555 1_555
H36 C25 1_555 1_555
C4 C5 1_555 1_555
C6 C7 1_555 1_555
C14 C15 1_555 1_555

#END
