
#######################################################################
#
#                 Cambridge Crystallographic Data Centre
#                                CCDC 
#
#######################################################################
#
# If this CIF has been generated from an entry in the Cambridge 
# Structural Database, then it will include bibliographic, chemical, 
# crystal, experimental, refinement or atomic coordinate data resulting 
# from the CCDC's data processing and validation procedures.
#
#######################################################################

data_JAGQAM
_chemical_formula_moiety         'C25 H30 N2 O3 S1'
_chemical_name_systematic        
'4-methylphenyl (1-(diisopropylamino)-2-(1-naphthyl)ethylidene)sulfamate'
_symmetry_cell_setting           orthorhombic
_symmetry_space_group_name_H-M   'P 21 21 21'
_symmetry_Int_Tables_number      19
_space_group_name_Hall           'P 2ac 2ab'
loop_
_symmetry_equiv_pos_site_id
_symmetry_equiv_pos_as_xyz
1 x,y,z
2 1/2-x,-y,1/2+z
3 -x,1/2+y,1/2-z
4 1/2+x,1/2-y,-z
_cell_length_a                   8.4475(2)
_cell_length_b                   12.6062(3)
_cell_length_c                   21.9019(5)
_cell_angle_alpha                90
_cell_angle_beta                 90
_cell_angle_gamma                90
_cell_volume                     2332.35
_exptl_crystal_colour            colorless
_exptl_crystal_description       block
_cell_formula_units_Z            4
loop_
_atom_site_label
_atom_site_type_symbol
_atom_site_fract_x
_atom_site_fract_y
_atom_site_fract_z
S1 S 0.61665(5) 0.52443(4) 0.21667(2)
O1 O 0.74736(15) 0.52249(13) 0.25812(7)
O2 O 0.61599(17) 0.60599(12) 0.17120(6)
O3 O 0.63323(16) 0.41119(12) 0.18175(6)
N1 N 0.24955(17) 0.45821(13) 0.30645(7)
N2 N 0.44681(17) 0.52408(14) 0.24696(7)
C1 C 0.6610(2) 0.33756(17) 0.41786(8)
C2 C 0.7158(2) 0.36890(17) 0.47687(8)
C3 C 0.8017(2) 0.29534(19) 0.51289(9)
H1 H 0.8389 0.3159 0.5521
C4 C 0.8318(2) 0.19522(19) 0.49194(9)
H2 H 0.8887 0.1464 0.5167
C5 C 0.7783(2) 0.16454(18) 0.43366(9)
H3 H 0.8006 0.0951 0.4192
C6 C 0.6952(2) 0.23289(17) 0.39766(8)
H4 H 0.6596 0.2103 0.3586
C7 C 0.6819(3) 0.4722(2) 0.49832(9)
H5 H 0.7178 0.4936 0.5375
C8 C 0.5979(3) 0.54123(18) 0.46314(10)
H6 H 0.5768 0.6107 0.4778
C9 C 0.5419(2) 0.51029(17) 0.40481(9)
H7 H 0.4832 0.5594 0.3809
C10 C 0.5708(2) 0.41104(16) 0.38232(8)
C11 C 0.5109(2) 0.37614(16) 0.31995(8)
H8 H 0.4540 0.3079 0.3245
H9 H 0.6029 0.3637 0.2929
C12 C 0.4016(2) 0.45545(15) 0.28978(8)
C13 C 0.1837(2) 0.38945(18) 0.35533(9)
H10 H 0.2752 0.3544 0.3762
C14 C 0.0950(3) 0.4535(2) 0.40352(10)
H11 H 0.1647 0.5087 0.4199
H12 H 0.0615 0.4063 0.4367
H13 H 0.0017 0.4865 0.3849
C15 C 0.0818(3) 0.3021(2) 0.32770(12)
H14 H 0.1432 0.2634 0.2970
H15 H -0.0118 0.3336 0.3085
H16 H 0.0484 0.2530 0.3599
C16 C 0.1313(2) 0.52848(18) 0.27512(9)
H17 H 0.0264 0.5121 0.2940
C17 C 0.1621(3) 0.64604(18) 0.28746(11)
H18 H 0.1715 0.6577 0.3315
H19 H 0.0740 0.6882 0.2714
H20 H 0.2606 0.6676 0.2673
C18 C 0.1152(2) 0.5025(2) 0.20740(9)
H21 H 0.0954 0.4264 0.2024
H22 H 0.2131 0.5218 0.1861
H23 H 0.0265 0.5427 0.1901
C19 C 0.5000(2) 0.37175(17) 0.15002(9)
C20 C 0.4261(2) 0.28260(17) 0.17351(10)
H24 H 0.4635 0.2509 0.2101
C21 C 0.2972(3) 0.24001(18) 0.14322(10)
H25 H 0.2458 0.1792 0.1595
C22 C 0.2415(3) 0.28470(18) 0.08928(10)
C23 C 0.3191(3) 0.37351(19) 0.06645(10)
H26 H 0.2828 0.4047 0.0295
C24 C 0.4485(3) 0.41782(19) 0.09624(10)
H27 H 0.5005 0.4784 0.0800
C25 C 0.1002(3) 0.2377(2) 0.05723(12)
H28 H 0.0768 0.2790 0.0204
H29 H 0.0084 0.2393 0.0846
H30 H 0.1233 0.1641 0.0458
loop_
_geom_bond_atom_site_label_1
_geom_bond_atom_site_label_2
_geom_bond_site_symmetry_1
_geom_bond_site_symmetry_2
S1 O1 1_555 1_555
O2 S1 1_555 1_555
O3 S1 1_555 1_555
N1 C12 1_555 1_555
N2 S1 1_555 1_555
C1 C2 1_555 1_555
C2 C3 1_555 1_555
C3 H1 1_555 1_555
C4 C3 1_555 1_555
H2 C4 1_555 1_555
C5 C4 1_555 1_555
H3 C5 1_555 1_555
C6 C1 1_555 1_555
H4 C6 1_555 1_555
C7 C2 1_555 1_555
H5 C7 1_555 1_555
C8 C7 1_555 1_555
H6 C8 1_555 1_555
C9 C8 1_555 1_555
H7 C9 1_555 1_555
C10 C1 1_555 1_555
C11 C10 1_555 1_555
H8 C11 1_555 1_555
H9 C11 1_555 1_555
C12 N2 1_555 1_555
C13 N1 1_555 1_555
H10 C13 1_555 1_555
C14 C13 1_555 1_555
H11 C14 1_555 1_555
H12 C14 1_555 1_555
H13 C14 1_555 1_555
C15 C13 1_555 1_555
H14 C15 1_555 1_555
H15 C15 1_555 1_555
H16 C15 1_555 1_555
C16 N1 1_555 1_555
H17 C16 1_555 1_555
C17 C16 1_555 1_555
H18 C17 1_555 1_555
H19 C17 1_555 1_555
H20 C17 1_555 1_555
C18 C16 1_555 1_555
H21 C18 1_555 1_555
H22 C18 1_555 1_555
H23 C18 1_555 1_555
C19 O3 1_555 1_555
C20 C19 1_555 1_555
H24 C20 1_555 1_555
C21 C20 1_555 1_555
H25 C21 1_555 1_555
C22 C21 1_555 1_555
C23 C22 1_555 1_555
H26 C23 1_555 1_555
C24 C19 1_555 1_555
H27 C24 1_555 1_555
C25 C22 1_555 1_555
H28 C25 1_555 1_555
H29 C25 1_555 1_555
H30 C25 1_555 1_555
C5 C6 1_555 1_555
C9 C10 1_555 1_555
C11 C12 1_555 1_555
C23 C24 1_555 1_555

#END
