
#######################################################################
#
#                 Cambridge Crystallographic Data Centre
#                                CCDC 
#
#######################################################################
#
# If this CIF has been generated from an entry in the Cambridge 
# Structural Database, then it will include bibliographic, chemical, 
# crystal, experimental, refinement or atomic coordinate data resulting 
# from the CCDC's data processing and validation procedures.
#
#######################################################################

data_JAGREO
_chemical_compound_source        'Tripterygium regelii (Celastraceae) roots'
_chemical_formula_moiety         'C35 H37 N1 O8'
_chemical_name_systematic        Regelidine
_symmetry_cell_setting           orthorhombic
_symmetry_space_group_name_H-M   'P 21 21 21'
_symmetry_Int_Tables_number      19
_space_group_name_Hall           'P 2ac 2ab'
loop_
_symmetry_equiv_pos_site_id
_symmetry_equiv_pos_as_xyz
1 x,y,z
2 1/2+x,1/2-y,-z
3 -x,1/2+y,1/2-z
4 1/2-x,-y,1/2+z
_cell_length_a                   12.059(7)
_cell_length_b                   28.489(15)
_cell_length_c                   8.986(5)
_cell_angle_alpha                90
_cell_angle_beta                 90
_cell_angle_gamma                90
_cell_volume                     3087.13
_exptl_crystal_colour            colorless
_chemical_melting_point          292-294deg.C
_cell_formula_units_Z            4
loop_
_atom_site_label
_atom_site_type_symbol
_atom_site_fract_x
_atom_site_fract_y
_atom_site_fract_z
C1 C -0.0325(3) 0.0914(1) 0.4326(4)
C2 C -0.1232(3) 0.1006(1) 0.5467(5)
C3 C -0.1444(3) 0.1535(1) 0.5476(5)
C4 C -0.0429(3) 0.1829(1) 0.5875(4)
C5 C 0.0576(3) 0.1689(1) 0.4869(4)
C6 C 0.1721(3) 0.1909(1) 0.5214(4)
C7 C 0.2218(3) 0.1931(1) 0.3647(4)
C8 C 0.2578(3) 0.1426(1) 0.3301(5)
C9 C 0.1681(3) 0.1045(1) 0.3502(4)
C10 C 0.0792(3) 0.1143(1) 0.4727(4)
C11 C 0.1239(3) 0.2106(1) 0.2700(4)
C12 C 0.1048(4) 0.2640(1) 0.2801(5)
C13 C 0.1281(4) 0.1978(1) 0.1043(4)
C14 C -0.0195(4) 0.1802(2) 0.7567(5)
C15 C 0.1276(4) 0.0922(1) 0.6173(4)
C16 C -0.0803(3) 0.0159(1) 0.3355(5)
C17 C -0.0360(3) -0.0322(1) 0.3082(5)
C18 C -0.0908(4) -0.0592(1) 0.2019(6)
C19 C -0.0507(5) -0.1038(2) 0.1691(7)
C20 C 0.0423(5) -0.1207(2) 0.2400(7)
C21 C 0.0962(4) -0.0942(2) 0.3461(7)
C22 C 0.0578(4) -0.0493(1) 0.3789(5)
C23 C 0.2298(3) 0.2474(1) 0.7007(4)
C24 C 0.1995(3) 0.2924(1) 0.7740(4)
C25 C 0.2741(4) 0.3125(2) 0.8724(5)
C26 C 0.1602(6) 0.3730(2) 0.9181(8)
C27 C 0.0796(5) 0.3559(2) 0.8210(9)
C28 C 0.0985(4) 0.3151(2) 0.7495(6)
C29 C 0.1543(3) 0.0602(1) 0.1254(4)
C30 C 0.0750(3) 0.0423(1) 0.0129(4)
C31 C -0.0333(3) 0.0599(1) -0.0009(4)
C32 C -0.1067(3) 0.0382(2) -0.0977(5)
C33 C -0.0740(4) -0.0001(2) -0.1824(5)
C34 C 0.0347(4) -0.0166(1) -0.1712(5)
C35 C 0.1086(3) 0.0046(1) -0.0743(5)
O1 O -0.0086(2) 0.0414(1) 0.4188(3)
O2 O -0.0686(2) 0.2313(1) 0.5595(3)
O3 O 0.0291(2) 0.1860(1) 0.3385(3)
O4 O 0.1594(2) 0.2368(1) 0.5902(3)
O5 O 0.1100(2) 0.0948(1) 0.2100(3)
O6 O -0.1659(2) 0.0308(1) 0.2870(4)
O7 O 0.3088(3) 0.2240(1) 0.7336(4)
O8 O 0.2460(2) 0.0449(1) 0.1444(4)
N1 N 0.2565(4) 0.3521(1) 0.9446(5)
H1 H -0.060(3) 0.101(1) 0.324(4)
H2 H -0.097(3) 0.090(1) 0.651(5)
H3 H -0.199(3) 0.081(1) 0.521(5)
H4 H -0.174(3) 0.163(1) 0.435(5)
H5 H -0.210(4) 0.161(2) 0.630(5)
H6 H 0.222(3) 0.169(1) 0.596(4)
H7 H 0.296(3) 0.216(1) 0.361(4)
H8 H 0.291(3) 0.141(1) 0.222(4)
H9 H 0.327(3) 0.132(1) 0.403(4)
H10 H 0.210(3) 0.071(1) 0.383(4)
H11 H 0.026(4) 0.274(2) 0.221(6)
H12 H 0.097(3) 0.276(1) 0.393(5)
H13 H 0.172(4) 0.283(1) 0.223(5)
H14 H 0.207(4) 0.206(2) 0.060(6)
H15 H 0.115(4) 0.162(1) 0.087(5)
H16 H 0.062(4) 0.218(2) 0.041(6)
H17 H -0.074(4) 0.203(2) 0.819(6)
H18 H -0.030(4) 0.148(1) 0.800(5)
H19 H 0.060(4) 0.191(2) 0.783(5)
H20 H 0.087(3) 0.105(1) 0.716(5)
H21 H 0.121(3) 0.055(1) 0.613(5)
H22 H 0.216(3) 0.099(1) 0.627(5)
H23 H -0.160(3) -0.046(1) 0.153(5)
H24 H -0.087(4) -0.123(2) 0.090(6)
H25 H 0.068(4) -0.153(1) 0.222(5)
H26 H 0.163(4) -0.107(1) 0.397(5)
H27 H 0.099(4) -0.032(1) 0.456(5)
H28 H 0.346(4) 0.297(1) 0.891(5)
H29 H 0.147(4) 0.402(1) 0.969(5)
H30 H 0.015(4) 0.372(2) 0.809(6)
H31 H 0.040(4) 0.303(1) 0.682(5)
H32 H -0.057(3) 0.088(1) 0.055(4)
H33 H -0.184(3) 0.051(1) -0.106(5)
H34 H -0.127(4) -0.015(1) -0.255(5)
H35 H 0.059(4) -0.043(1) -0.232(5)
H36 H 0.187(3) -0.008(1) -0.065(5)
H37 H -0.080(4) 0.233(1) 0.460(5)
loop_
_geom_bond_atom_site_label_1
_geom_bond_atom_site_label_2
_geom_bond_site_symmetry_1
_geom_bond_site_symmetry_2
C1 C2 1_555 1_555
C2 C3 1_555 1_555
C3 C4 1_555 1_555
C4 C5 1_555 1_555
C5 C6 1_555 1_555
C6 C7 1_555 1_555
C7 C8 1_555 1_555
C8 C9 1_555 1_555
C9 C10 1_555 1_555
C10 C1 1_555 1_555
C11 C7 1_555 1_555
C12 C11 1_555 1_555
C13 C11 1_555 1_555
C14 C4 1_555 1_555
C15 C10 1_555 1_555
C16 C17 1_555 1_555
C17 C18 1_555 1_555
C18 C19 1_555 1_555
C19 C20 1_555 1_555
C20 C21 1_555 1_555
C21 C22 1_555 1_555
C22 C17 1_555 1_555
C23 C24 1_555 1_555
C24 C25 1_555 1_555
C25 N1 1_555 1_555
C26 C27 1_555 1_555
C27 C28 1_555 1_555
C28 C24 1_555 1_555
C29 C30 1_555 1_555
C30 C31 1_555 1_555
C31 C32 1_555 1_555
C32 C33 1_555 1_555
C33 C34 1_555 1_555
C34 C35 1_555 1_555
C35 C30 1_555 1_555
O1 C1 1_555 1_555
O2 C4 1_555 1_555
O3 C5 1_555 1_555
O4 C6 1_555 1_555
O5 C9 1_555 1_555
O6 C16 1_555 1_555
O7 C23 1_555 1_555
O8 C29 1_555 1_555
N1 C26 1_555 1_555
H1 C1 1_555 1_555
H2 C2 1_555 1_555
H3 C2 1_555 1_555
H4 C3 1_555 1_555
H5 C3 1_555 1_555
H6 C6 1_555 1_555
H7 C7 1_555 1_555
H8 C8 1_555 1_555
H9 C8 1_555 1_555
H10 C9 1_555 1_555
H11 C12 1_555 1_555
H12 C12 1_555 1_555
H13 C12 1_555 1_555
H14 C13 1_555 1_555
H15 C13 1_555 1_555
H16 C13 1_555 1_555
H17 C14 1_555 1_555
H18 C14 1_555 1_555
H19 C14 1_555 1_555
H20 C15 1_555 1_555
H21 C15 1_555 1_555
H22 C15 1_555 1_555
H23 C18 1_555 1_555
H24 C19 1_555 1_555
H25 C20 1_555 1_555
H26 C21 1_555 1_555
H27 C22 1_555 1_555
H28 C25 1_555 1_555
H29 C26 1_555 1_555
H30 C27 1_555 1_555
H31 C28 1_555 1_555
H32 C31 1_555 1_555
H33 C32 1_555 1_555
H34 C33 1_555 1_555
H35 C34 1_555 1_555
H36 C35 1_555 1_555
H37 O2 1_555 1_555
C5 C10 1_555 1_555
C11 O3 1_555 1_555
C16 O1 1_555 1_555
C23 O4 1_555 1_555
C29 O5 1_555 1_555

#END
