
#######################################################################
#
#                 Cambridge Crystallographic Data Centre
#                                CCDC 
#
#######################################################################
#
# If this CIF has been generated from an entry in the Cambridge 
# Structural Database, then it will include bibliographic, chemical, 
# crystal, experimental, refinement or atomic coordinate data resulting 
# from the CCDC's data processing and validation procedures.
#
#######################################################################

data_JAGRIV
_chemical_formula_moiety         'C17 H14 N4 O3'
_chemical_name_systematic        
'2-(2-(3-methyl-5-oxo-1-phenyl-1,5-dihydro-4H-pyrazol-4-ylidene)hydrazino)benzoic acid'
_symmetry_cell_setting           monoclinic
_symmetry_space_group_name_H-M   'P 21/c'
_symmetry_Int_Tables_number      14
_space_group_name_Hall           '-P 2ybc'
loop_
_symmetry_equiv_pos_site_id
_symmetry_equiv_pos_as_xyz
1 x,y,z
2 -x,1/2+y,1/2-z
3 -x,-y,-z
4 x,1/2-y,1/2+z
_cell_length_a                   7.0560(9)
_cell_length_b                   18.562(2)
_cell_length_c                   11.5301(14)
_cell_angle_alpha                90
_cell_angle_beta                 94.839(2)
_cell_angle_gamma                90
_cell_volume                     1504.75
_exptl_crystal_colour            orange
_exptl_crystal_description       block
_cell_formula_units_Z            4
loop_
_atom_site_label
_atom_site_type_symbol
_atom_site_fract_x
_atom_site_fract_y
_atom_site_fract_z
O1 O 0.29228(16) 0.41539(5) 0.65309(8)
C1 C 0.1660(2) 0.30279(8) 0.47336(12)
N1 N 0.19337(18) 0.37835(6) 0.46371(9)
O2 O 0.45154(18) 0.59357(6) 1.00508(8)
H1 H 0.4852 0.5576 1.0425
C2 C 0.2066(2) 0.25836(8) 0.38294(13)
H2 H 0.2546 0.2775 0.3168
N2 N 0.16056(19) 0.41144(7) 0.35286(10)
O3 O 0.43755(18) 0.51570(5) 0.85958(8)
N3 N 0.27440(17) 0.56071(6) 0.53172(9)
C3 C 0.1754(2) 0.18537(9) 0.39156(14)
H3 H 0.2022 0.1552 0.3307
N4 N 0.32171(18) 0.56537(7) 0.64518(10)
H4 H 0.336(2) 0.5261(9) 0.6872(13)
C4 C 0.1049(3) 0.15656(9) 0.48958(15)
H5 H 0.0839 0.1072 0.4946
C5 C 0.0661(2) 0.20104(9) 0.57939(14)
H6 H 0.0198 0.1816 0.6458
C6 C 0.0952(2) 0.27464(9) 0.57217(13)
H7 H 0.0676 0.3048 0.6329
C7 C 0.2490(2) 0.42704(8) 0.54876(12)
C8 C 0.2448(2) 0.49620(8) 0.48797(11)
C9 C 0.1896(2) 0.48010(8) 0.36751(12)
C10 C 0.1651(3) 0.53218(9) 0.26864(12)
H8 H 0.1271 0.5066 0.1981
H9 H 0.2833 0.5565 0.2606
H10 H 0.0692 0.5668 0.2837
C11 C 0.3424(2) 0.63340(7) 0.69713(11)
C12 C 0.3980(2) 0.64052(7) 0.81676(11)
C13 C 0.4219(2) 0.70936(7) 0.86391(12)
H11 H 0.4619 0.7144 0.9424
C14 C 0.3880(2) 0.76977(8) 0.79729(13)
H12 H 0.4060 0.8153 0.8300
C15 C 0.3270(2) 0.76232(8) 0.68122(13)
H13 H 0.2996 0.8032 0.6362
C16 C 0.3060(2) 0.69544(8) 0.63112(12)
H14 H 0.2670 0.6915 0.5523
C17 C 0.4315(2) 0.57773(8) 0.89441(12)
loop_
_geom_bond_atom_site_label_1
_geom_bond_atom_site_label_2
_geom_bond_site_symmetry_1
_geom_bond_site_symmetry_2
O1 C7 1_555 1_555
C1 N1 1_555 1_555
N1 N2 1_555 1_555
O2 H1 1_555 1_555
C2 C1 1_555 1_555
H2 C2 1_555 1_555
N2 C9 1_555 1_555
O3 C17 1_555 1_555
N3 N4 1_555 1_555
C3 C2 1_555 1_555
H3 C3 1_555 1_555
N4 H4 1_555 1_555
C4 C3 1_555 1_555
H5 C4 1_555 1_555
C5 C4 1_555 1_555
H6 C5 1_555 1_555
C6 C1 1_555 1_555
H7 C6 1_555 1_555
C7 N1 1_555 1_555
C8 N3 1_555 1_555
C9 C8 1_555 1_555
C10 C9 1_555 1_555
H8 C10 1_555 1_555
H9 C10 1_555 1_555
H10 C10 1_555 1_555
C11 N4 1_555 1_555
C12 C11 1_555 1_555
C13 C12 1_555 1_555
H11 C13 1_555 1_555
C14 C13 1_555 1_555
H12 C14 1_555 1_555
C15 C14 1_555 1_555
H13 C15 1_555 1_555
C16 C11 1_555 1_555
H14 C16 1_555 1_555
C17 O2 1_555 1_555
C5 C6 1_555 1_555
C7 C8 1_555 1_555
C12 C17 1_555 1_555
C15 C16 1_555 1_555

#END
