
#######################################################################
#
#                 Cambridge Crystallographic Data Centre
#                                CCDC 
#
#######################################################################
#
# If this CIF has been generated from an entry in the Cambridge 
# Structural Database, then it will include bibliographic, chemical, 
# crystal, experimental, refinement or atomic coordinate data resulting 
# from the CCDC's data processing and validation procedures.
#
#######################################################################

data_JAGTET01
_chemical_formula_moiety         'C70 H92 N4 Si4'
_chemical_name_systematic        
1,4,9,12-tetrakis((triisopropylsilyl)ethynyl)quinoxalino[2'',3'':4',5']cyclopenta[1',2',3':5,6]acenaphtho[1,2-b]quinoxaline
_symmetry_cell_setting           triclinic
_symmetry_space_group_name_H-M   'P -1'
_symmetry_Int_Tables_number      2
_space_group_name_Hall           '-P 1'
loop_
_symmetry_equiv_pos_site_id
_symmetry_equiv_pos_as_xyz
1 x,y,z
2 -x,-y,-z
_cell_length_a                   13.810(4)
_cell_length_b                   14.307(4)
_cell_length_c                   18.434(6)
_cell_angle_alpha                108.659(3)
_cell_angle_beta                 106.439(3)
_cell_angle_gamma                92.843(3)
_cell_volume                     3270.09
_exptl_crystal_colour            yellow
_cell_formula_units_Z            2
loop_
_atom_site_label
_atom_site_type_symbol
_atom_site_fract_x
_atom_site_fract_y
_atom_site_fract_z
Si1 Si 0.09444(8) 1.10759(8) 0.72211(7)
C1 C 0.1469(3) 1.1341(3) 0.6483(2)
Si2 Si 0.28075(8) 1.05766(8) 0.13840(6)
C2 C 0.1812(3) 1.1351(3) 0.5954(2)
Si3 Si 0.83847(10) 0.40214(8) 0.28445(8)
C3 C 0.2156(3) 1.1283(3) 0.5282(2)
Si4 Si 0.68958(13) 0.48154(13) 0.89086(9)
C4 C 0.1848(3) 1.1870(3) 0.4808(2)
H1 H 0.1464 1.2369 0.4962
N1 N 0.6075(2) 0.5658(2) 0.62399(18)
C5 C 0.2108(3) 1.1720(3) 0.4106(2)
H2 H 0.1893 1.2123 0.3801
N2 N 0.3620(2) 0.9694(2) 0.40785(18)
C6 C 0.2674(3) 1.0991(3) 0.3850(2)
N3 N 0.6597(2) 0.5403(2) 0.47881(18)
C7 C 0.2834(3) 1.0793(3) 0.3080(2)
N4 N 0.3095(2) 0.9996(2) 0.55354(18)
C8 C 0.2883(3) 1.0654(3) 0.2414(2)
C9 C 0.3042(3) 1.0410(3) 0.4338(2)
C10 C 0.2784(3) 1.0555(3) 0.5053(2)
C11 C 0.3913(3) 0.9176(3) 0.4544(2)
C12 C 0.3645(3) 0.9318(3) 0.5283(2)
C13 C 0.4529(3) 0.8356(3) 0.4442(2)
C14 C 0.4999(3) 0.7846(3) 0.3899(2)
H3 H 0.4962 0.8016 0.3447
C15 C 0.5541(3) 0.7059(3) 0.4026(2)
H4 H 0.5864 0.6727 0.3660
C16 C 0.5591(3) 0.6787(3) 0.4689(2)
C17 C 0.5100(3) 0.7315(3) 0.5230(2)
C18 C 0.4589(3) 0.8069(3) 0.5113(2)
C19 C 0.4092(3) 0.8594(3) 0.5647(2)
C20 C 0.4121(3) 0.8300(3) 0.6301(2)
H5 H 0.3789 0.8623 0.6662
C21 C 0.4656(3) 0.7504(3) 0.6423(2)
H6 H 0.4673 0.7318 0.6866
C22 C 0.5147(3) 0.7008(3) 0.5891(2)
C23 C 0.5774(3) 0.6196(3) 0.5784(2)
C24 C 0.6042(3) 0.6064(3) 0.5048(2)
C25 C 0.6910(3) 0.4826(3) 0.5256(2)
C26 C 0.6661(3) 0.4956(3) 0.5971(2)
C27 C 0.7030(3) 0.4346(3) 0.6437(2)
C28 C 0.6876(3) 0.4505(3) 0.7202(2)
C29 C 0.6841(3) 0.4615(3) 0.7869(3)
C30 C 0.7585(3) 0.3613(3) 0.6162(2)
H7 H 0.7805 0.3201 0.6457
C31 C 0.7825(3) 0.3476(3) 0.5455(2)
H8 H 0.8199 0.2974 0.5285
C32 C 0.7514(3) 0.4077(3) 0.4999(2)
C33 C 0.7805(3) 0.3988(3) 0.4301(2)
C34 C 0.8084(3) 0.3933(3) 0.3727(2)
C35 C 0.8421(4) 0.5382(3) 0.2961(3)
H9 H 0.8607 0.5477 0.2511
C36 C 0.9244(4) 0.6040(3) 0.3760(3)
H10 H 0.9268 0.6728 0.3803
H11 H 0.9899 0.5842 0.3764
H12 H 0.9075 0.5958 0.4209
C37 C 0.7366(4) 0.5713(4) 0.2932(4)
H13 H 0.7407 0.6404 0.2985
H14 H 0.7168 0.5622 0.3367
H15 H 0.6869 0.5317 0.2427
C38 C 0.7253(4) 0.3217(3) 0.1955(3)
H16 H 0.6640 0.3472 0.2054
C39 C 0.7146(4) 0.2128(3) 0.1917(3)
H17 H 0.6563 0.1745 0.1469
H18 H 0.7059 0.2101 0.2408
H19 H 0.7750 0.1857 0.1849
C40 C 0.7238(5) 0.3254(5) 0.1136(3)
H20 H 0.6690 0.2768 0.0720
H21 H 0.7876 0.3108 0.1049
H22 H 0.7139 0.3908 0.1121
C41 C 0.9615(3) 0.3584(3) 0.2798(3)
H23 H 0.9456 0.2864 0.2499
C42 C 1.0353(4) 0.3725(4) 0.3612(4)
H24 H 1.0972 0.3485 0.3549
H25 H 1.0055 0.3358 0.3870
H26 H 1.0503 0.4421 0.3936
C43 C 1.0102(4) 0.4060(4) 0.2305(4)
H27 H 1.0759 0.3859 0.2324
H28 H 1.0180 0.4774 0.2534
H29 H 0.9666 0.3839 0.1755
C44 C 0.6320(5) 0.5973(4) 0.9247(4)
H30 H 0.6836 0.6535 0.9349
C45 C 0.6024(6) 0.6190(6) 1.0004(5)
H31 H 0.6034 0.6895 1.0239
H32 H 0.6499 0.5967 1.0382
H33 H 0.5348 0.5845 0.9874
C46 C 0.5365(5) 0.6046(6) 0.8603(4)
H34 H 0.5192 0.6706 0.8771
H35 H 0.4805 0.5567 0.8536
H36 H 0.5502 0.5910 0.8100
C47 C 0.6185(6) 0.3723(5) 0.8933(5)
H37 H 0.6202 0.3831 0.9489
C48 C 0.5077(6) 0.3463(6) 0.8389(4)
H38 H 0.4781 0.2836 0.8380
H39 H 0.5051 0.3413 0.7852
H40 H 0.4700 0.3975 0.8593
C49 C 0.6705(6) 0.2813(5) 0.8639(4)
H41 H 0.6256 0.2212 0.8521
H42 H 0.7327 0.2851 0.9053
H43 H 0.6856 0.2808 0.8161
C50 C 0.8277(5) 0.5034(5) 0.9516(4)
H44 H 0.8564 0.4435 0.9294
C51 C 0.8440(6) 0.5190(5) 1.0418(4)
H45 H 0.9151 0.5411 1.0720
H46 H 0.8222 0.4571 1.0466
H47 H 0.8047 0.5684 1.0625
C52 C 0.8904(5) 0.5914(5) 0.9485(4)
H48 H 0.9614 0.5933 0.9754
H49 H 0.8687 0.6523 0.9749
H50 H 0.8808 0.5844 0.8933
C53 C -0.0271(3) 1.1620(3) 0.7189(3)
H51 H -0.0665 1.1268 0.7415
C54 C -0.0121(4) 1.2735(3) 0.7676(3)
H52 H -0.0775 1.2947 0.7646
H53 H 0.0247 1.3104 0.7459
H54 H 0.0260 1.2854 0.8229
C55 C -0.0914(3) 1.1423(3) 0.6306(3)
H55 H -0.1585 1.1583 0.6287
H56 H -0.0964 1.0732 0.5992
H57 H -0.0592 1.1832 0.6090
C56 C 0.1942(3) 1.1644(4) 0.8233(3)
H58 H 0.2113 1.2352 0.8319
C57 C 0.1595(4) 1.1597(4) 0.8944(3)
H59 H 0.2103 1.1995 0.9443
H60 H 0.1508 1.0917 0.8922
H61 H 0.0959 1.1849 0.8913
C58 C 0.2929(4) 1.1191(5) 0.8262(4)
H62 H 0.3472 1.1607 0.8731
H63 H 0.3104 1.1146 0.7786
H64 H 0.2829 1.0535 0.8290
C59 C 0.0590(4) 0.9671(3) 0.6837(3)
H65 H -0.0026 0.9518 0.6369
C60 C 0.0258(3) 0.9305(3) 0.7438(3)
H66 H 0.0014 0.8601 0.7198
H67 H -0.0279 0.9651 0.7577
H68 H 0.0830 0.9435 0.7916
C61 C 0.1343(5) 0.9075(3) 0.6521(4)
H69 H 0.1058 0.8379 0.6290
H70 H 0.1963 0.9173 0.6956
H71 H 0.1490 0.9291 0.6116
C62 C 0.2148(3) 1.1658(3) 0.1242(2)
H72 H 0.2186 1.1718 0.0735
C63 C 0.1033(3) 1.1537(3) 0.1188(3)
H73 H 0.0750 1.2114 0.1118
H74 H 0.0972 1.1469 0.1675
H75 H 0.0669 1.0953 0.0736
C64 C 0.2714(4) 1.2631(3) 0.1926(3)
H76 H 0.2391 1.3181 0.1835
H77 H 0.3412 1.2729 0.1939
H78 H 0.2692 1.2592 0.2431
C65 C 0.2085(3) 0.9319(3) 0.0655(3)
H79 H 0.2579 0.8850 0.0657
C66 C 0.1221(4) 0.8907(4) 0.0887(3)
H80 H 0.0906 0.8259 0.0497
H81 H 0.0720 0.9350 0.0900
H82 H 0.1492 0.8854 0.1411
C67 C 0.1682(4) 0.9308(4) -0.0218(3)
H83 H 0.1411 0.8636 -0.0579
H84 H 0.2232 0.9564 -0.0359
H85 H 0.1154 0.9718 -0.0259
C68 C 0.4137(3) 1.0776(3) 0.1328(3)
H86 H 0.4488 1.1405 0.1762
C69 C 0.4162(4) 1.0897(4) 0.0537(3)
H87 H 0.4854 1.1098 0.0577
H88 H 0.3757 1.1397 0.0438
H89 H 0.3889 1.0273 0.0101
C70 C 0.4751(4) 0.9959(4) 0.1490(3)
H90 H 0.5450 1.0140 0.1536
H91 H 0.4469 0.9338 0.1051
H92 H 0.4718 0.9886 0.1982
loop_
_geom_bond_atom_site_label_1
_geom_bond_atom_site_label_2
_geom_bond_site_symmetry_1
_geom_bond_site_symmetry_2
Si1 C1 1_555 1_555
C1 C2 1_555 1_555
Si2 C8 1_555 1_555
C2 C3 1_555 1_555
Si3 C34 1_555 1_555
C3 C4 1_555 1_555
Si4 C29 1_555 1_555
C4 H1 1_555 1_555
N1 C23 1_555 1_555
C5 C4 1_555 1_555
H2 C5 1_555 1_555
N2 C9 1_555 1_555
C6 C5 1_555 1_555
N3 C24 1_555 1_555
C7 C6 1_555 1_555
N4 C10 1_555 1_555
C8 C7 1_555 1_555
C9 C6 1_555 1_555
C10 C3 1_555 1_555
C11 N2 1_555 1_555
C12 N4 1_555 1_555
C13 C11 1_555 1_555
C14 C13 1_555 1_555
H3 C14 1_555 1_555
C15 C14 1_555 1_555
H4 C15 1_555 1_555
C16 C15 1_555 1_555
C17 C16 1_555 1_555
C18 C13 1_555 1_555
C19 C12 1_555 1_555
C20 C19 1_555 1_555
H5 C20 1_555 1_555
C21 C20 1_555 1_555
H6 C21 1_555 1_555
C22 C17 1_555 1_555
C23 C22 1_555 1_555
C24 C16 1_555 1_555
C25 N3 1_555 1_555
C26 N1 1_555 1_555
C27 C26 1_555 1_555
C28 C27 1_555 1_555
C29 C28 1_555 1_555
C30 C27 1_555 1_555
H7 C30 1_555 1_555
C31 C30 1_555 1_555
H8 C31 1_555 1_555
C32 C25 1_555 1_555
C33 C32 1_555 1_555
C34 C33 1_555 1_555
C35 Si3 1_555 1_555
H9 C35 1_555 1_555
C36 C35 1_555 1_555
H10 C36 1_555 1_555
H11 C36 1_555 1_555
H12 C36 1_555 1_555
C37 C35 1_555 1_555
H13 C37 1_555 1_555
H14 C37 1_555 1_555
H15 C37 1_555 1_555
C38 Si3 1_555 1_555
H16 C38 1_555 1_555
C39 C38 1_555 1_555
H17 C39 1_555 1_555
H18 C39 1_555 1_555
H19 C39 1_555 1_555
C40 C38 1_555 1_555
H20 C40 1_555 1_555
H21 C40 1_555 1_555
H22 C40 1_555 1_555
C41 Si3 1_555 1_555
H23 C41 1_555 1_555
C42 C41 1_555 1_555
H24 C42 1_555 1_555
H25 C42 1_555 1_555
H26 C42 1_555 1_555
C43 C41 1_555 1_555
H27 C43 1_555 1_555
H28 C43 1_555 1_555
H29 C43 1_555 1_555
C44 Si4 1_555 1_555
H30 C44 1_555 1_555
C45 C44 1_555 1_555
H31 C45 1_555 1_555
H32 C45 1_555 1_555
H33 C45 1_555 1_555
C46 C44 1_555 1_555
H34 C46 1_555 1_555
H35 C46 1_555 1_555
H36 C46 1_555 1_555
C47 Si4 1_555 1_555
H37 C47 1_555 1_555
C48 C47 1_555 1_555
H38 C48 1_555 1_555
H39 C48 1_555 1_555
H40 C48 1_555 1_555
C49 C47 1_555 1_555
H41 C49 1_555 1_555
H42 C49 1_555 1_555
H43 C49 1_555 1_555
C50 Si4 1_555 1_555
H44 C50 1_555 1_555
C51 C50 1_555 1_555
H45 C51 1_555 1_555
H46 C51 1_555 1_555
H47 C51 1_555 1_555
C52 C50 1_555 1_555
H48 C52 1_555 1_555
H49 C52 1_555 1_555
H50 C52 1_555 1_555
C53 Si1 1_555 1_555
H51 C53 1_555 1_555
C54 C53 1_555 1_555
H52 C54 1_555 1_555
H53 C54 1_555 1_555
H54 C54 1_555 1_555
C55 C53 1_555 1_555
H55 C55 1_555 1_555
H56 C55 1_555 1_555
H57 C55 1_555 1_555
C56 Si1 1_555 1_555
H58 C56 1_555 1_555
C57 C56 1_555 1_555
H59 C57 1_555 1_555
H60 C57 1_555 1_555
H61 C57 1_555 1_555
C58 C56 1_555 1_555
H62 C58 1_555 1_555
H63 C58 1_555 1_555
H64 C58 1_555 1_555
C59 Si1 1_555 1_555
H65 C59 1_555 1_555
C60 C59 1_555 1_555
H66 C60 1_555 1_555
H67 C60 1_555 1_555
H68 C60 1_555 1_555
C61 C59 1_555 1_555
H69 C61 1_555 1_555
H70 C61 1_555 1_555
H71 C61 1_555 1_555
C62 Si2 1_555 1_555
H72 C62 1_555 1_555
C63 C62 1_555 1_555
H73 C63 1_555 1_555
H74 C63 1_555 1_555
H75 C63 1_555 1_555
C64 C62 1_555 1_555
H76 C64 1_555 1_555
H77 C64 1_555 1_555
H78 C64 1_555 1_555
C65 Si2 1_555 1_555
H79 C65 1_555 1_555
C66 C65 1_555 1_555
H80 C66 1_555 1_555
H81 C66 1_555 1_555
H82 C66 1_555 1_555
C67 C65 1_555 1_555
H83 C67 1_555 1_555
H84 C67 1_555 1_555
H85 C67 1_555 1_555
C68 Si2 1_555 1_555
H86 C68 1_555 1_555
C69 C68 1_555 1_555
H87 C69 1_555 1_555
H88 C69 1_555 1_555
H89 C69 1_555 1_555
C70 C68 1_555 1_555
H90 C70 1_555 1_555
H91 C70 1_555 1_555
H92 C70 1_555 1_555
C9 C10 1_555 1_555
C11 C12 1_555 1_555
C17 C18 1_555 1_555
C18 C19 1_555 1_555
C21 C22 1_555 1_555
C23 C24 1_555 1_555
C25 C26 1_555 1_555
C31 C32 1_555 1_555

#END
