
#######################################################################
#
#                 Cambridge Crystallographic Data Centre
#                                CCDC 
#
#######################################################################
#
# If this CIF has been generated from an entry in the Cambridge 
# Structural Database, then it will include bibliographic, chemical, 
# crystal, experimental, refinement or atomic coordinate data resulting 
# from the CCDC's data processing and validation procedures.
#
#######################################################################

data_JAGZOH
_chemical_formula_moiety         'C25 H18 N2 O4'
_chemical_name_systematic        
rac-1-acetyl-4',5a'-diphenyl-2',2a',5',5a'-tetrahydro-spiro(1H-indole-3,2'-oxeto(5,4-b)oxazol)-2(3H)-one
_symmetry_cell_setting           monoclinic
_symmetry_space_group_name_H-M   'P 21/n'
_symmetry_Int_Tables_number      14
_space_group_name_Hall           '-P 2yn'
loop_
_symmetry_equiv_pos_site_id
_symmetry_equiv_pos_as_xyz
1 x,y,z
2 1/2+x,1/2-y,1/2+z
3 -x,-y,-z
4 1/2-x,1/2+y,1/2-z
_cell_length_a                   12.7908(10)
_cell_length_b                   8.7717(7)
_cell_length_c                   17.8346(13)
_cell_angle_alpha                90
_cell_angle_beta                 94.515(2)
_cell_angle_gamma                90
_cell_volume                     1994.78
_exptl_crystal_colour            colorless
_exptl_crystal_description       needle
_chemical_melting_point          426.0K
_cell_formula_units_Z            4
_exptl_crystal_recrystallization_method 'petroleum ether/acetone'
loop_
_atom_site_label
_atom_site_type_symbol
_atom_site_fract_x
_atom_site_fract_y
_atom_site_fract_z
O1 O 0.12370(13) 0.4653(2) 0.22582(10)
O2 O 0.16984(13) 0.6713(2) 0.30749(9)
O3 O -0.23260(19) 0.0523(3) 0.23692(13)
O4 O -0.07084(17) 0.3987(3) 0.13512(11)
N1 N -0.10004(17) 0.2197(3) 0.22777(12)
N2 N 0.02444(16) 0.5968(2) 0.36336(12)
C1 C 0.0423(2) 0.2785(3) 0.31117(15)
C2 C 0.1148(2) 0.2561(4) 0.37144(17)
H1 H 0.171(2) 0.325(3) 0.3827(15)
C3 C 0.1053(3) 0.1290(4) 0.41632(19)
H2 H 0.155(2) 0.115(3) 0.4593(17)
C4 C 0.0249(3) 0.0272(4) 0.40014(19)
H3 H 0.017(3) -0.059(4) 0.4307(18)
C5 C -0.0481(3) 0.0468(4) 0.33960(18)
H4 H -0.101(2) -0.025(4) 0.3275(15)
C6 C -0.0380(2) 0.1741(3) 0.29502(15)
C7 C -0.0516(2) 0.3460(3) 0.19673(15)
C8 C 0.03037(19) 0.4066(3) 0.25677(14)
C9 C 0.10082(19) 0.6201(3) 0.24561(14)
C10 C 0.1173(2) 0.6494(3) 0.37100(14)
C11 C 0.0025(2) 0.5702(3) 0.28350(14)
H5 H -0.0671(19) 0.603(3) 0.2622(13)
C12 C 0.10247(19) 0.7299(3) 0.18164(14)
C13 C 0.0917(2) 0.6806(4) 0.10793(16)
H6 H 0.086(2) 0.575(3) 0.0991(14)
C14 C 0.0914(3) 0.7843(5) 0.04992(18)
H7 H 0.084(2) 0.752(4) 0.0003(17)
C15 C 0.1009(3) 0.9379(4) 0.06495(19)
H8 H 0.102(2) 1.008(4) 0.0240(18)
C16 C 0.1104(3) 0.9886(4) 0.13825(19)
H9 H 0.118(3) 1.102(4) 0.1515(19)
C17 C 0.1120(2) 0.8846(4) 0.19644(17)
H10 H 0.116(2) 0.917(4) 0.2473(17)
C18 C -0.1962(2) 0.1537(4) 0.20135(16)
C19 C -0.2502(2) 0.2163(4) 0.13127(18)
H11 H -0.3206 0.1776 0.1253
H12 H -0.2131 0.1862 0.0890
H13 H -0.2520 0.3255 0.1343
C20 C 0.1759(2) 0.6936(3) 0.44198(14)
C21 C 0.1467(2) 0.6347(4) 0.50954(16)
H14 H 0.090(2) 0.567(3) 0.5099(15)
C22 C 0.2020(3) 0.6752(4) 0.57602(18)
H15 H 0.183(2) 0.634(3) 0.6196(18)
C23 C 0.2848(3) 0.7740(4) 0.57593(19)
H16 H 0.322(2) 0.804(4) 0.6191(18)
C24 C 0.3135(3) 0.8347(4) 0.50964(18)
H17 H 0.369(2) 0.908(4) 0.5076(16)
C25 C 0.2597(2) 0.7939(3) 0.44229(17)
H18 H 0.281(2) 0.832(3) 0.3960(16)
loop_
_geom_bond_atom_site_label_1
_geom_bond_atom_site_label_2
_geom_bond_site_symmetry_1
_geom_bond_site_symmetry_2
O1 C8 1_555 1_555
O2 C9 1_555 1_555
O3 C18 1_555 1_555
O4 C7 1_555 1_555
N1 C6 1_555 1_555
N2 C10 1_555 1_555
C1 C2 1_555 1_555
C2 H1 1_555 1_555
C3 C2 1_555 1_555
H2 C3 1_555 1_555
C4 C3 1_555 1_555
H3 C4 1_555 1_555
C5 C4 1_555 1_555
H4 C5 1_555 1_555
C6 C1 1_555 1_555
C7 N1 1_555 1_555
C8 C1 1_555 1_555
C9 O1 1_555 1_555
C10 O2 1_555 1_555
C11 N2 1_555 1_555
H5 C11 1_555 1_555
C12 C9 1_555 1_555
C13 C12 1_555 1_555
H6 C13 1_555 1_555
C14 C13 1_555 1_555
H7 C14 1_555 1_555
C15 C14 1_555 1_555
H8 C15 1_555 1_555
C16 C15 1_555 1_555
H9 C16 1_555 1_555
C17 C12 1_555 1_555
H10 C17 1_555 1_555
C18 N1 1_555 1_555
C19 C18 1_555 1_555
H11 C19 1_555 1_555
H12 C19 1_555 1_555
H13 C19 1_555 1_555
C20 C10 1_555 1_555
C21 C20 1_555 1_555
H14 C21 1_555 1_555
C22 C21 1_555 1_555
H15 C22 1_555 1_555
C23 C22 1_555 1_555
H16 C23 1_555 1_555
C24 C23 1_555 1_555
H17 C24 1_555 1_555
C25 C20 1_555 1_555
H18 C25 1_555 1_555
C5 C6 1_555 1_555
C7 C8 1_555 1_555
C8 C11 1_555 1_555
C9 C11 1_555 1_555
C16 C17 1_555 1_555
C24 C25 1_555 1_555

#END
