
#######################################################################
#
#                 Cambridge Crystallographic Data Centre
#                                CCDC 
#
#######################################################################
#
# If this CIF has been generated from an entry in the Cambridge 
# Structural Database, then it will include bibliographic, chemical, 
# crystal, experimental, refinement or atomic coordinate data resulting 
# from the CCDC's data processing and validation procedures.
#
#######################################################################

data_JAHDEE
_chemical_formula_moiety         'C34 H44 O12'
_chemical_name_systematic        
'4,21-diacetoxy-6-(3-furyl)-12,19-dihydroxy-5,11,15-trimethyl-3-oxo-9,17-dioxahexacyclo[13.3.3.0^1,14^.0^2,11^.0^5,10^.0^8,10^]henicos-16-yl 2-methylpropanoate'
_symmetry_cell_setting           monoclinic
_symmetry_space_group_name_H-M   'P 21'
_symmetry_Int_Tables_number      4
_space_group_name_Hall           'P 2yb'
loop_
_symmetry_equiv_pos_site_id
_symmetry_equiv_pos_as_xyz
1 x,y,z
2 -x,1/2+y,-z
_cell_length_a                   9.692(5)
_cell_length_b                   13.687(7)
_cell_length_c                   12.383(7)
_cell_angle_alpha                90
_cell_angle_beta                 91.159(6)
_cell_angle_gamma                90
_cell_volume                     1642.32
_exptl_crystal_colour            yellow
_exptl_crystal_description       block
_cell_formula_units_Z            2
loop_
_atom_site_label
_atom_site_type_symbol
_atom_site_fract_x
_atom_site_fract_y
_atom_site_fract_z
C1 C 0.9822(4) 0.7838(3) 0.8474(3)
C2 C 0.9782(5) 0.6721(3) 0.8639(3)
H1 H 0.8821 0.6524 0.8738
C3 C 1.0632(4) 0.6380(4) 0.9618(4)
H2 H 1.0123 0.6528 1.0264
H3 H 1.0727 0.5675 0.9579
C4 C 1.2059(5) 0.6824(3) 0.9735(4)
H4 H 1.2383 0.6740 1.0484
C5 C 1.2138(4) 0.7922(3) 0.9442(3)
C6 C 1.1363(4) 0.8113(3) 0.8359(3)
H5 H 1.1742 0.7651 0.7838
C7 C 1.1591(4) 0.9136(3) 0.7884(3)
H6 H 1.1246 0.9623 0.8381
H7 H 1.2572 0.9247 0.7805
C8 C 1.0868(4) 0.9259(3) 0.6794(4)
H8 H 1.1026 0.9926 0.6537
C9 C 0.9314(4) 0.9085(3) 0.6844(3)
C10 C 0.9061(4) 0.8080(3) 0.7388(3)
H9 H 0.9497 0.7627 0.6886
C11 C 0.8672(4) 0.9024(4) 0.5684(4)
C12 C 0.7935(4) 0.8081(4) 0.5275(3)
C13 C 0.6892(4) 0.7960(3) 0.6168(4)
H10 H 0.6350 0.8563 0.6201
C14 C 0.7563(4) 0.7796(3) 0.7287(4)
C15 C 0.8998(5) 0.9621(4) 0.4737(4)
H11 H 0.9831 1.0026 0.4731
C16 C 0.8498(5) 0.9094(4) 0.3726(4)
H12 H 0.9240 0.8725 0.3407
H13 H 0.8132 0.9553 0.3196
C17 C 0.7360(5) 0.8411(4) 0.4129(4)
H14 H 0.6531 0.8806 0.4241
C18 C 0.7003(6) 0.7642(5) 0.3317(5)
C19 C 0.6066(7) 0.6863(5) 0.3373(5)
H15 H 0.5556 0.6699 0.3974
C20 C 0.6022(7) 0.6402(6) 0.2440(6)
H16 H 0.5480 0.5857 0.2285
C21 C 0.7461(7) 0.7592(6) 0.2316(6)
H17 H 0.8104 0.8017 0.2027
C22 C 1.3798(6) 0.5636(4) 0.9461(5)
O1 O 1.3732(5) 0.5398(3) 1.0402(3)
C23 C 1.4775(6) 0.5230(5) 0.8686(4)
H18 H 1.5207 0.4659 0.8989
H19 H 1.5467 0.5709 0.8531
H20 H 1.4288 0.5057 0.8030
C24 C 0.9205(5) 0.8359(4) 0.9455(3)
H21 H 0.9115 0.9050 0.9296
H22 H 0.8287 0.8102 0.9575
C25 C 1.1426(5) 0.8505(4) 1.0300(4)
H23 H 1.1496 0.9205 1.0145
C26 C 1.2042(5) 0.8953(4) 1.2101(4)
C27 C 1.2908(7) 0.8652(4) 1.3071(4)
H24 H 1.3815 0.8506 1.2774
C28 C 1.2421(7) 0.7704(5) 1.3478(5)
H25 H 1.3066 0.7460 1.4011
H26 H 1.2345 0.7248 1.2891
H27 H 1.1535 0.7787 1.3798
C29 C 1.3175(6) 0.9464(5) 1.3829(4)
H28 H 1.2351 0.9606 1.4216
H29 H 1.3450 1.0033 1.3433
H30 H 1.3899 0.9283 1.4330
C30 C 1.3652(4) 0.8250(4) 0.9417(4)
H31 H 1.3695 0.8951 0.9431
H32 H 1.4065 0.8014 0.8769
H33 H 1.4142 0.7991 1.0035
C31 C 0.8645(5) 0.9937(4) 0.7434(4)
H34 H 0.9085 1.0019 0.8130
H35 H 0.7682 0.9803 0.7524
H36 H 0.8748 1.0524 0.7019
C32 C 0.8872(4) 0.7199(4) 0.5127(3)
H37 H 0.9817 0.7409 0.5127
H38 H 0.8647 0.6885 0.4453
H39 H 0.8741 0.6747 0.5709
C33 C 0.4590(5) 0.7342(4) 0.6165(4)
C34 C 0.3725(5) 0.6457(4) 0.6077(4)
H40 H 0.2888 0.6555 0.6464
H41 H 0.4218 0.5910 0.6379
H42 H 0.3506 0.6330 0.5330
O2 O 1.1427(4) 0.9701(3) 1.2009(3)
O3 O 1.2084(4) 0.8287(2) 1.1317(3)
O4 O 1.0033(3) 0.8239(2) 1.0433(2)
O5 O 1.3008(3) 0.6322(2) 0.9029(2)
O6 O 1.0266(3) 0.6273(2) 0.7675(2)
H43 H 0.9866 0.5752 0.7578
O7 O 1.1395(3) 0.8595(3) 0.6029(2)
H44 H 1.2229 0.8533 0.6129
O8 O 0.6889(3) 0.7445(3) 0.7991(3)
O9 O 0.5934(3) 0.7155(2) 0.5973(2)
O10 O 0.4181(3) 0.8128(3) 0.6370(3)
O11 O 0.7842(3) 0.9881(2) 0.5404(3)
O12 O 0.6855(6) 0.6823(4) 0.1762(4)
loop_
_geom_bond_atom_site_label_1
_geom_bond_atom_site_label_2
_geom_bond_site_symmetry_1
_geom_bond_site_symmetry_2
C1 C2 1_555 1_555
C2 H1 1_555 1_555
C3 C2 1_555 1_555
H2 C3 1_555 1_555
H3 C3 1_555 1_555
C4 C3 1_555 1_555
H4 C4 1_555 1_555
C5 C4 1_555 1_555
C6 C1 1_555 1_555
H5 C6 1_555 1_555
C7 C6 1_555 1_555
H6 C7 1_555 1_555
H7 C7 1_555 1_555
C8 C7 1_555 1_555
H8 C8 1_555 1_555
C9 C8 1_555 1_555
C10 C1 1_555 1_555
H9 C10 1_555 1_555
C11 C9 1_555 1_555
C12 C11 1_555 1_555
C13 C12 1_555 1_555
H10 C13 1_555 1_555
C14 C10 1_555 1_555
C15 C11 1_555 1_555
H11 C15 1_555 1_555
C16 C15 1_555 1_555
H12 C16 1_555 1_555
H13 C16 1_555 1_555
C17 C12 1_555 1_555
H14 C17 1_555 1_555
C18 C17 1_555 1_555
C19 C18 1_555 1_555
H15 C19 1_555 1_555
C20 C19 1_555 1_555
H16 C20 1_555 1_555
C21 C18 1_555 1_555
H17 C21 1_555 1_555
C22 O1 1_555 1_555
C23 C22 1_555 1_555
H18 C23 1_555 1_555
H19 C23 1_555 1_555
H20 C23 1_555 1_555
C24 C1 1_555 1_555
H21 C24 1_555 1_555
H22 C24 1_555 1_555
C25 C5 1_555 1_555
H23 C25 1_555 1_555
C26 C27 1_555 1_555
C27 H24 1_555 1_555
C28 C27 1_555 1_555
H25 C28 1_555 1_555
H26 C28 1_555 1_555
H27 C28 1_555 1_555
C29 C27 1_555 1_555
H28 C29 1_555 1_555
H29 C29 1_555 1_555
H30 C29 1_555 1_555
C30 C5 1_555 1_555
H31 C30 1_555 1_555
H32 C30 1_555 1_555
H33 C30 1_555 1_555
C31 C9 1_555 1_555
H34 C31 1_555 1_555
H35 C31 1_555 1_555
H36 C31 1_555 1_555
C32 C12 1_555 1_555
H37 C32 1_555 1_555
H38 C32 1_555 1_555
H39 C32 1_555 1_555
C33 C34 1_555 1_555
C34 H40 1_555 1_555
H41 C34 1_555 1_555
H42 C34 1_555 1_555
O2 C26 1_555 1_555
O3 C25 1_555 1_555
O4 C24 1_555 1_555
O5 C4 1_555 1_555
O6 C2 1_555 1_555
H43 O6 1_555 1_555
O7 C8 1_555 1_555
H44 O7 1_555 1_555
O8 C14 1_555 1_555
O9 C13 1_555 1_555
O10 C33 1_555 1_555
O11 C11 1_555 1_555
O12 C20 1_555 1_555
C5 C6 1_555 1_555
C9 C10 1_555 1_555
C13 C14 1_555 1_555
C15 O11 1_555 1_555
C16 C17 1_555 1_555
C21 O12 1_555 1_555
C22 O5 1_555 1_555
C25 O4 1_555 1_555
C26 O3 1_555 1_555
C33 O9 1_555 1_555

#END
