
#######################################################################
#
#                 Cambridge Crystallographic Data Centre
#                                CCDC 
#
#######################################################################
#
# If this CIF has been generated from an entry in the Cambridge 
# Structural Database, then it will include bibliographic, chemical, 
# crystal, experimental, refinement or atomic coordinate data resulting 
# from the CCDC's data processing and validation procedures.
#
#######################################################################

data_JAHGOR
_chemical_formula_moiety         'C26 H19 N3 O7'
_chemical_name_systematic        
5-(4-methoxy-8-nitrophenazin-2-yl)-5,8,8a,9-tetrahydrofuro[3',4':6,7]naphtho[2,3-d][1,3]dioxol-6(5aH)-one
_chemical_properties_biological  'insecticidal activity'
_symmetry_cell_setting           orthorhombic
_symmetry_space_group_name_H-M   'P 21 21 21'
_symmetry_Int_Tables_number      19
_space_group_name_Hall           'P 2ac 2ab'
loop_
_symmetry_equiv_pos_site_id
_symmetry_equiv_pos_as_xyz
1 x,y,z
2 1/2-x,-y,1/2+z
3 1/2+x,1/2-y,-z
4 -x,1/2+y,1/2-z
_cell_length_a                   5.349(6)
_cell_length_b                   22.44(2)
_cell_length_c                   22.68(2)
_cell_angle_alpha                90
_cell_angle_beta                 90
_cell_angle_gamma                90
_cell_volume                     2722.32
_exptl_crystal_colour            yellow
_exptl_crystal_description       block
_chemical_melting_point          '272-274 deg.C'
_cell_formula_units_Z            4
loop_
_atom_site_label
_atom_site_type_symbol
_atom_site_fract_x
_atom_site_fract_y
_atom_site_fract_z
C1 C 1.051(4) 0.4184(7) 0.3949(6)
C2 C 0.719(3) 0.3625(5) 0.3617(6)
H1 H 0.5476 0.3585 0.3748
H2 H 0.7711 0.3253 0.3437
C3 C 0.742(2) 0.4138(5) 0.3173(5)
H3 H 0.6319 0.4463 0.3299
C4 C 0.698(2) 0.4022(5) 0.2538(5)
H4 H 0.5204 0.4040 0.2454
H5 H 0.7579 0.3627 0.2436
C5 C 0.837(2) 0.4493(6) 0.2172(5)
C6 C 0.773(3) 0.4499(6) 0.1550(6)
H6 H 0.6661 0.4213 0.1392
C7 C 0.870(3) 0.4920(7) 0.1213(6)
C8 C 0.971(4) 0.5539(10) 0.0476(8)
H7 H 0.8496 0.5856 0.0426
H8 H 1.0637 0.5496 0.0111
C9 C 1.055(3) 0.5308(6) 0.1418(7)
C10 C 1.130(2) 0.5326(5) 0.2019(6)
H9 H 1.2491 0.5592 0.2162
C11 C 1.012(2) 0.4915(5) 0.2373(5)
C12 C 1.0735(19) 0.4921(4) 0.3041(4)
H10 H 1.2533 0.4993 0.3085
C13 C 1.016(2) 0.4319(5) 0.3301(5)
H11 H 1.1213 0.4034 0.3087
C14 C 0.933(2) 0.5443(5) 0.3347(4)
C15 C 1.024(2) 0.5600(4) 0.3947(4)
H12 H 1.1646 0.5409 0.4099
C16 C 0.9062(19) 0.6013(4) 0.4268(4)
C17 C 0.7016(18) 0.6366(5) 0.4010(4)
C18 C 0.6290(16) 0.6214(4) 0.3425(4)
C19 C 0.7427(17) 0.5747(4) 0.3103(4)
H13 H 0.6865 0.5652 0.2727
C20 C 0.332(2) 0.6936(3) 0.3458(4)
C21 C 0.123(2) 0.7261(5) 0.3199(5)
H14 H 0.0612 0.7151 0.2832
C22 C 0.015(2) 0.7745(4) 0.3511(5)
C23 C 0.102(3) 0.7890(5) 0.4090(5)
H15 H 0.0284 0.8202 0.4297
C24 C 0.295(2) 0.7566(5) 0.4344(5)
H16 H 0.3478 0.7667 0.4721
C25 C 0.413(2) 0.7086(4) 0.4051(4)
C26 C 1.160(2) 0.5840(5) 0.5114(5)
H17 H 1.3086 0.5835 0.4878
H18 H 1.1016 0.5440 0.5172
H19 H 1.1958 0.6019 0.5489
N1 N 0.5914(17) 0.6802(4) 0.4304(3)
N2 N 0.4414(16) 0.6512(4) 0.3153(3)
N3 N -0.1874(18) 0.8053(4) 0.3210(6)
O1 O 1.216(2) 0.4337(4) 0.4268(4)
O2 O 0.879(2) 0.3766(5) 0.4106(4)
O3 O 0.851(3) 0.5013(6) 0.0609(4)
O4 O 1.139(2) 0.5684(6) 0.0950(6)
O5 O 0.9681(14) 0.6184(3) 0.4816(3)
O6 O -0.235(2) 0.7968(4) 0.2697(5)
O7 O -0.2922(18) 0.8409(4) 0.3536(4)
loop_
_geom_bond_atom_site_label_1
_geom_bond_atom_site_label_2
_geom_bond_site_symmetry_1
_geom_bond_site_symmetry_2
C1 C13 1_555 1_555
C2 H1 1_555 1_555
H2 C2 1_555 1_555
C3 C2 1_555 1_555
H3 C3 1_555 1_555
C4 C3 1_555 1_555
H4 C4 1_555 1_555
H5 C4 1_555 1_555
C5 C4 1_555 1_555
C6 C5 1_555 1_555
H6 C6 1_555 1_555
C7 C6 1_555 1_555
C8 H7 1_555 1_555
H8 C8 1_555 1_555
C9 C7 1_555 1_555
C10 C9 1_555 1_555
H9 C10 1_555 1_555
C11 C5 1_555 1_555
C12 C11 1_555 1_555
H10 C12 1_555 1_555
C13 C3 1_555 1_555
H11 C13 1_555 1_555
C14 C12 1_555 1_555
C15 C14 1_555 1_555
H12 C15 1_555 1_555
C16 C15 1_555 1_555
C17 C16 1_555 1_555
C18 C17 1_555 1_555
C19 C14 1_555 1_555
H13 C19 1_555 1_555
C20 C21 1_555 1_555
C21 H14 1_555 1_555
C22 C21 1_555 1_555
C23 C22 1_555 1_555
H15 C23 1_555 1_555
C24 C23 1_555 1_555
H16 C24 1_555 1_555
C25 C20 1_555 1_555
C26 H17 1_555 1_555
H18 C26 1_555 1_555
H19 C26 1_555 1_555
N1 C17 1_555 1_555
N2 C18 1_555 1_555
N3 C22 1_555 1_555
O1 C1 1_555 1_555
O2 C1 1_555 1_555
O3 C7 1_555 1_555
O4 C8 1_555 1_555
O5 C16 1_555 1_555
O6 N3 1_555 1_555
O7 N3 1_555 1_555
C2 O2 1_555 1_555
C8 O3 1_555 1_555
C9 O4 1_555 1_555
C10 C11 1_555 1_555
C12 C13 1_555 1_555
C18 C19 1_555 1_555
C20 N2 1_555 1_555
C24 C25 1_555 1_555
C25 N1 1_555 1_555
C26 O5 1_555 1_555

#END
