
#######################################################################
#
#                 Cambridge Crystallographic Data Centre
#                                CCDC 
#
#######################################################################
#
# If this CIF has been generated from an entry in the Cambridge 
# Structural Database, then it will include bibliographic, chemical, 
# crystal, experimental, refinement or atomic coordinate data resulting 
# from the CCDC's data processing and validation procedures.
#
#######################################################################

data_JAHGIL
_chemical_formula_moiety         'C27 H27 N3 O3 S1'
_chemical_name_systematic        
N'-(1-(1-((4-ethylphenyl)sulfonyl)-6-methyl-1H-indol-3-yl)ethylidene)-3-methylbenzohydrazide
_chemical_properties_biological  'nematicidal activity'
_symmetry_cell_setting           monoclinic
_symmetry_space_group_name_H-M   'P 21/c'
_symmetry_Int_Tables_number      14
_space_group_name_Hall           '-P 2ybc'
loop_
_symmetry_equiv_pos_site_id
_symmetry_equiv_pos_as_xyz
1 x,y,z
2 -x,1/2+y,1/2-z
3 -x,-y,-z
4 x,1/2-y,1/2+z
_cell_length_a                   20.852(8)
_cell_length_b                   6.809(3)
_cell_length_c                   18.910(7)
_cell_angle_alpha                90
_cell_angle_beta                 113.442(4)
_cell_angle_gamma                90
_cell_volume                     2463.27
_exptl_crystal_colour            colorless
_exptl_crystal_description       block
_chemical_melting_point          '184-186 deg.C'
_cell_formula_units_Z            4
loop_
_atom_site_label
_atom_site_type_symbol
_atom_site_fract_x
_atom_site_fract_y
_atom_site_fract_z
C1 C 0.22951(17) -0.1808(5) 0.2408(2)
C2 C 0.19506(19) -0.3528(6) 0.2433(2)
H1 H 0.1639 -0.4108 0.1983
C3 C 0.2081(2) -0.4366(6) 0.3146(3)
C4 C 0.2558(2) -0.3466(6) 0.3803(2)
H2 H 0.2643 -0.4030 0.4280
C5 C 0.2910(2) -0.1781(6) 0.3780(2)
H3 H 0.3234 -0.1233 0.4231
C6 C 0.27742(17) -0.0905(5) 0.3068(2)
C7 C 0.30309(17) 0.0843(5) 0.2828(2)
C8 C 0.27120(17) 0.0942(5) 0.2051(2)
H4 H 0.2776 0.1937 0.1748
C9 C 0.1722(2) -0.6238(6) 0.3203(3)
H5 H 0.2005 -0.7340 0.3190
H6 H 0.1276 -0.6320 0.2777
H7 H 0.1658 -0.6249 0.3678
C10 C 0.35358(17) 0.2289(5) 0.3324(2)
C11 C 0.3731(2) 0.4004(6) 0.2953(2)
H8 H 0.3356 0.4942 0.2788
H9 H 0.3815 0.3559 0.2516
H10 H 0.4147 0.4609 0.3319
C12 C 0.4437(2) 0.2895(7) 0.5323(2)
C13 C 0.4035(2) 0.1478(6) 0.5587(2)
C14 C 0.4383(2) 0.0030(6) 0.6107(2)
H11 H 0.4866 -0.0060 0.6281
C15 C 0.4031(2) -0.1292(6) 0.6377(2)
C16 C 0.3311(3) -0.1096(7) 0.6105(3)
H12 H 0.3059 -0.1988 0.6266
C17 C 0.2965(2) 0.0356(7) 0.5611(3)
H13 H 0.2483 0.0475 0.5454
C18 C 0.3316(2) 0.1643(7) 0.5344(2)
H14 H 0.3075 0.2627 0.5000
C19 C 0.4408(3) -0.2870(8) 0.6952(3)
H15 H 0.4102 -0.3398 0.7172
H16 H 0.4814 -0.2319 0.7353
H17 H 0.4548 -0.3899 0.6697
C20 C 0.09412(18) 0.0540(6) 0.0939(2)
C21 C 0.0442(2) -0.0453(7) 0.1098(2)
H18 H 0.0475 -0.1804 0.1176
C22 C -0.0110(2) 0.0585(9) 0.1139(3)
H19 H -0.0454 -0.0099 0.1232
C23 C -0.0171(2) 0.2561(9) 0.1050(3)
C24 C 0.0334(3) 0.3506(8) 0.0881(3)
H20 H 0.0301 0.4857 0.0802
C25 C 0.0887(2) 0.2517(7) 0.0824(2)
H21 H 0.1221 0.3193 0.0708
C26 C -0.0783(3) 0.3691(11) 0.1108(3)
H22 H -0.0880 0.4842 0.0780
H23 H -0.1196 0.2865 0.0920
C27 C -0.0652(4) 0.4282(11) 0.1860(4)
H24 H -0.0532 0.3157 0.2193
H25 H -0.1063 0.4893 0.1871
H26 H -0.0272 0.5202 0.2032
N1 N 0.22698(14) -0.0682(4) 0.17696(16)
N2 N 0.37482(16) 0.1930(5) 0.40469(18)
N3 N 0.42253(18) 0.3193(5) 0.45561(18)
H27 H 0.4388 0.4165 0.4388
O1 O 0.49411(18) 0.3780(5) 0.57791(16)
O2 O 0.19065(13) 0.0344(4) 0.04146(14)
O3 O 0.14543(13) -0.2759(4) 0.07256(15)
S1 S 0.16457(5) -0.07444(16) 0.08831(5)
loop_
_geom_bond_atom_site_label_1
_geom_bond_atom_site_label_2
_geom_bond_site_symmetry_1
_geom_bond_site_symmetry_2
C1 C2 1_555 1_555
C2 H1 1_555 1_555
C3 C2 1_555 1_555
C4 C3 1_555 1_555
H2 C4 1_555 1_555
C5 C4 1_555 1_555
H3 C5 1_555 1_555
C6 C1 1_555 1_555
C7 C6 1_555 1_555
C8 C7 1_555 1_555
H4 C8 1_555 1_555
C9 C3 1_555 1_555
H5 C9 1_555 1_555
H6 C9 1_555 1_555
H7 C9 1_555 1_555
C10 C7 1_555 1_555
C11 C10 1_555 1_555
H8 C11 1_555 1_555
H9 C11 1_555 1_555
H10 C11 1_555 1_555
C12 C13 1_555 1_555
C13 C14 1_555 1_555
C14 H11 1_555 1_555
C15 C14 1_555 1_555
C16 C15 1_555 1_555
H12 C16 1_555 1_555
C17 C16 1_555 1_555
H13 C17 1_555 1_555
C18 C13 1_555 1_555
H14 C18 1_555 1_555
C19 C15 1_555 1_555
H15 C19 1_555 1_555
H16 C19 1_555 1_555
H17 C19 1_555 1_555
C20 C21 1_555 1_555
C21 H18 1_555 1_555
C22 C21 1_555 1_555
H19 C22 1_555 1_555
C23 C22 1_555 1_555
C24 C23 1_555 1_555
H20 C24 1_555 1_555
C25 C20 1_555 1_555
H21 C25 1_555 1_555
C26 C23 1_555 1_555
H22 C26 1_555 1_555
H23 C26 1_555 1_555
C27 C26 1_555 1_555
H24 C27 1_555 1_555
H25 C27 1_555 1_555
H26 C27 1_555 1_555
N1 C1 1_555 1_555
N2 C10 1_555 1_555
N3 C12 1_555 1_555
H27 N3 1_555 1_555
O1 C12 1_555 1_555
O2 S1 1_555 1_555
O3 S1 1_555 1_555
S1 C20 1_555 1_555
C5 C6 1_555 1_555
C8 N1 1_555 1_555
C17 C18 1_555 1_555
C24 C25 1_555 1_555
N1 S1 1_555 1_555
N2 N3 1_555 1_555

#END
