
#######################################################################
#
#                 Cambridge Crystallographic Data Centre
#                                CCDC 
#
#######################################################################
#
# If this CIF has been generated from an entry in the Cambridge 
# Structural Database, then it will include bibliographic, chemical, 
# crystal, experimental, refinement or atomic coordinate data resulting 
# from the CCDC's data processing and validation procedures.
#
#######################################################################

data_JAHJIO
_chemical_formula_moiety         'C23 H29 N2 1+,C1 F3 O3 S1 1-'
_chemical_name_systematic        
'1,3-dimesityl-6-methyl-3,4-dihydropyrimidin-1-ium trifluoromethanesulfonate'
_symmetry_cell_setting           monoclinic
_symmetry_space_group_name_H-M   'P 21/c'
_symmetry_Int_Tables_number      14
_space_group_name_Hall           '-P 2ybc'
loop_
_symmetry_equiv_pos_site_id
_symmetry_equiv_pos_as_xyz
1 x,y,z
2 -x,1/2+y,1/2-z
3 -x,-y,-z
4 x,1/2-y,1/2+z
_cell_length_a                   15.879(3)
_cell_length_b                   9.6304(17)
_cell_length_c                   17.698(3)
_cell_angle_alpha                90
_cell_angle_beta                 111.401(3)
_cell_angle_gamma                90
_cell_volume                     2519.79
_exptl_crystal_colour            colorless
_exptl_crystal_description       sheet
_cell_formula_units_Z            4
loop_
_atom_site_label
_atom_site_type_symbol
_atom_site_fract_x
_atom_site_fract_y
_atom_site_fract_z
S1 S 0.25146(6) 0.45120(8) 0.06075(5)
O1 O 0.21072(19) 0.4559(3) -0.02594(15)
O2 O 0.1917(2) 0.4117(3) 0.10124(16)
O3 O 0.3103(2) 0.5629(3) 0.09901(19)
F1 F 0.39015(18) 0.3210(3) 0.04633(16)
F2 F 0.3671(2) 0.2766(3) 0.15592(15)
F3 F 0.2816(3) 0.1891(2) 0.04323(18)
C1 C 0.3265(3) 0.3021(4) 0.0779(2)
N1 N 0.2826(2) 0.5715(3) 0.32245(17)
N2 N 0.1850(2) 0.7237(3) 0.22985(17)
C2 C 0.2336(2) 0.6094(4) 0.2481(2)
C3 C 0.2872(4) 0.6605(6) 0.3899(3)
C4 C 0.2333(4) 0.7735(6) 0.3729(3)
H1 H 0.2357 0.8307 0.4167
C5 C 0.1716(4) 0.8146(6) 0.2922(3)
H2 H 0.1829 0.9115 0.2818
H3 H 0.1089 0.8072 0.2893
C6 C 0.3254(3) 0.4359(4) 0.33508(19)
C7 C 0.2763(2) 0.3221(4) 0.3430(2)
C8 C 0.3183(3) 0.1926(5) 0.3559(2)
H4 H 0.2863 0.1140 0.3620
C9 C 0.4062(3) 0.1780(5) 0.3598(2)
C10 C 0.4522(3) 0.2925(6) 0.3496(2)
H5 H 0.5117 0.2817 0.3514
C11 C 0.4134(3) 0.4249(6) 0.3366(2)
C12 C 0.1800(3) 0.3343(5) 0.3380(3)
H6 H 0.1647 0.2544 0.3637
H7 H 0.1400 0.3383 0.2815
H8 H 0.1732 0.4183 0.3654
C13 C 0.4519(4) 0.0364(7) 0.3751(3)
H9 H 0.5167 0.0482 0.4024
H10 H 0.4398 -0.0107 0.3238
H11 H 0.4284 -0.0186 0.4089
C14 C 0.4624(4) 0.5513(6) 0.3218(4)
H12 H 0.4528 0.6296 0.3522
H13 H 0.4391 0.5734 0.2644
H14 H 0.5266 0.5316 0.3394
C15 C 0.3424(5) 0.6295(7) 0.4687(3)
H15 H 0.3347 0.6994 0.5051
H16 H 0.4050 0.6283 0.4727
H17 H 0.3262 0.5391 0.4835
C16 C 0.1376(2) 0.7591(4) 0.1454(2)
C17 C 0.0551(3) 0.6952(4) 0.1035(2)
C18 C 0.0119(3) 0.7322(4) 0.0228(3)
H18 H -0.0442 0.6913 -0.0070
C19 C 0.0483(3) 0.8267(5) -0.0156(3)
C20 C 0.1313(3) 0.8861(5) 0.0294(3)
H19 H 0.1566 0.9509 0.0041
C21 C 0.1778(3) 0.8538(4) 0.1096(2)
C22 C 0.0161(3) 0.5869(5) 0.1423(3)
H20 H 0.0481 0.5000 0.1456
H21 H -0.0474 0.5739 0.1099
H22 H 0.0225 0.6168 0.1965
C23 C -0.0015(4) 0.8637(6) -0.1035(3)
H23 H -0.0120 0.9631 -0.1084
H24 H -0.0590 0.8153 -0.1236
H25 H 0.0346 0.8365 -0.1350
C24 C 0.2706(3) 0.9125(5) 0.1559(3)
H26 H 0.3137 0.8371 0.1750
H27 H 0.2690 0.9656 0.2019
H28 H 0.2887 0.9725 0.1205
H29 H 0.233(2) 0.548(3) 0.200(2)
loop_
_geom_bond_atom_site_label_1
_geom_bond_atom_site_label_2
_geom_bond_site_symmetry_1
_geom_bond_site_symmetry_2
S1 O1 1_555 1_555
O2 S1 1_555 1_555
O3 S1 1_555 1_555
F1 C1 1_555 1_555
F2 C1 1_555 1_555
F3 C1 1_555 1_555
C1 S1 1_555 1_555
N1 C2 1_555 1_555
N2 C2 1_555 1_555
C2 H29 1_555 1_555
C3 N1 1_555 1_555
C4 C3 1_555 1_555
H1 C4 1_555 1_555
C5 N2 1_555 1_555
H2 C5 1_555 1_555
H3 C5 1_555 1_555
C6 N1 1_555 1_555
C7 C6 1_555 1_555
C8 C7 1_555 1_555
H4 C8 1_555 1_555
C9 C8 1_555 1_555
C10 C9 1_555 1_555
H5 C10 1_555 1_555
C11 C6 1_555 1_555
C12 C7 1_555 1_555
H6 C12 1_555 1_555
H7 C12 1_555 1_555
H8 C12 1_555 1_555
C13 C9 1_555 1_555
H9 C13 1_555 1_555
H10 C13 1_555 1_555
H11 C13 1_555 1_555
C14 C11 1_555 1_555
H12 C14 1_555 1_555
H13 C14 1_555 1_555
H14 C14 1_555 1_555
C15 C3 1_555 1_555
H15 C15 1_555 1_555
H16 C15 1_555 1_555
H17 C15 1_555 1_555
C16 N2 1_555 1_555
C17 C16 1_555 1_555
C18 C17 1_555 1_555
H18 C18 1_555 1_555
C19 C18 1_555 1_555
C20 C19 1_555 1_555
H19 C20 1_555 1_555
C21 C16 1_555 1_555
C22 C17 1_555 1_555
H20 C22 1_555 1_555
H21 C22 1_555 1_555
H22 C22 1_555 1_555
C23 C19 1_555 1_555
H23 C23 1_555 1_555
H24 C23 1_555 1_555
H25 C23 1_555 1_555
C24 C21 1_555 1_555
H26 C24 1_555 1_555
H27 C24 1_555 1_555
H28 C24 1_555 1_555
C4 C5 1_555 1_555
C10 C11 1_555 1_555
C20 C21 1_555 1_555

#END
