
#######################################################################
#
#                 Cambridge Crystallographic Data Centre
#                                CCDC 
#
#######################################################################
#
# If this CIF has been generated from an entry in the Cambridge 
# Structural Database, then it will include bibliographic, chemical, 
# crystal, experimental, refinement or atomic coordinate data resulting 
# from the CCDC's data processing and validation procedures.
#
#######################################################################

data_JAHJOU
_chemical_formula_moiety         'C28 H39 N2 1+,C1 F3 O3 S1 1-,C1 H2 Cl2'
_chemical_name_systematic        
'1,3-bis(2,6-diisopropylphenyl)-5-methylene-4,5-dihydro-1H-imidazol-3-ium trifluoromethanesulfonate dichloromethane solvate'
_symmetry_cell_setting           orthorhombic
_symmetry_space_group_name_H-M   'P b c a'
_symmetry_Int_Tables_number      61
_space_group_name_Hall           '-P 2ac 2ab'
loop_
_symmetry_equiv_pos_site_id
_symmetry_equiv_pos_as_xyz
1 x,y,z
2 1/2-x,-y,1/2+z
3 -x,1/2+y,1/2-z
4 1/2+x,1/2-y,-z
5 -x,-y,-z
6 1/2+x,y,1/2-z
7 x,1/2-y,1/2+z
8 1/2-x,1/2+y,z
_cell_length_a                   20.338(7)
_cell_length_b                   16.179(5)
_cell_length_c                   21.087(7)
_cell_angle_alpha                90
_cell_angle_beta                 90
_cell_angle_gamma                90
_cell_volume                     6938.65
_exptl_crystal_colour            colorless
_exptl_crystal_description       block
_cell_formula_units_Z            8
loop_
_atom_site_label
_atom_site_type_symbol
_atom_site_fract_x
_atom_site_fract_y
_atom_site_fract_z
S1 S 0.15970(6) 0.14021(8) 0.14860(6)
O1 O 0.16738(14) 0.22113(18) 0.17470(14)
O2 O 0.1881(2) 0.0740(2) 0.1833(2)
O3 O 0.1735(2) 0.1340(2) 0.08291(16)
F1 F 0.05449(19) 0.0495(3) 0.1319(2)
F2 F 0.05170(19) 0.1280(3) 0.2119(2)
F3 F 0.04013(19) 0.1776(3) 0.1210(2)
C1 C 0.0732(3) 0.1226(4) 0.1542(3)
N1 N 0.32639(15) 0.94122(18) 0.07689(13)
N2 N 0.22915(14) 0.88321(19) 0.07085(12)
C2 C 0.26248(19) 0.9475(3) 0.08867(16)
H1 H 0.2409(14) 0.994(2) 0.1120(13)
C3 C 0.33938(19) 0.8628(2) 0.04752(16)
C4 C 0.27440(18) 0.8212(2) 0.04275(17)
H2 H 0.2631 0.8098 -0.0011
H3 H 0.2738 0.7700 0.0666
C5 C 0.37651(18) 1.0004(2) 0.09374(18)
C6 C 0.4063(2) 0.9935(3) 0.15251(19)
C7 C 0.4550(2) 1.0505(3) 0.1674(2)
H4 H 0.4758 1.0476 0.2066
C8 C 0.4733(3) 1.1118(3) 0.1248(3)
H5 H 0.5058 1.1497 0.1356
C9 C 0.4438(2) 1.1161(3) 0.0673(3)
H6 H 0.4564 1.1576 0.0393
C10 C 0.3949(2) 1.0603(3) 0.0485(2)
C11 C 0.3860(2) 0.9286(3) 0.2005(2)
H7 H 0.3586 0.8881 0.1783
C12 C 0.4450(3) 0.8822(4) 0.2282(3)
H8 H 0.4688 0.8556 0.1946
H9 H 0.4298 0.8414 0.2578
H10 H 0.4734 0.9206 0.2496
C13 C 0.3441(3) 0.9673(4) 0.2520(2)
H11 H 0.3702 1.0053 0.2762
H12 H 0.3275 0.9248 0.2795
H13 H 0.3079 0.9963 0.2330
C14 C 0.3630(2) 1.0655(3) -0.01570(19)
H14 H 0.3404 1.0129 -0.0234
C15 C 0.3117(3) 1.1334(4) -0.0173(3)
H15 H 0.2764 1.1197 0.0111
H16 H 0.2948 1.1388 -0.0596
H17 H 0.3313 1.1847 -0.0044
C16 C 0.4132(3) 1.0784(4) -0.0700(2)
H18 H 0.4359 1.1298 -0.0639
H19 H 0.3905 1.0795 -0.1099
H20 H 0.4444 1.0339 -0.0700
C17 C 0.3979(2) 0.8381(3) 0.03023(19)
H21 H 0.4342 0.8720 0.0368
H22 H 0.4033 0.7865 0.0114
C18 C 0.15870(18) 0.8711(2) 0.07610(17)
C19 C 0.1197(2) 0.8908(2) 0.02316(18)
C20 C 0.0528(2) 0.8782(3) 0.0287(2)
H23 H 0.0253 0.8897 -0.0055
C21 C 0.0261(2) 0.8486(3) 0.0849(3)
H24 H -0.0191 0.8416 0.0883
C22 C 0.0655(2) 0.8298(3) 0.1351(2)
H25 H 0.0464 0.8098 0.1721
C23 C 0.13338(19) 0.8396(2) 0.13242(18)
C24 C 0.1481(2) 0.9241(3) -0.03753(19)
H26 H 0.1960 0.9266 -0.0327
C25 C 0.1327(3) 0.8674(4) -0.0944(2)
H27 H 0.1440 0.8114 -0.0840
H28 H 0.1577 0.8850 -0.1306
H29 H 0.0866 0.8705 -0.1041
C26 C 0.1235(3) 1.0109(3) -0.0514(3)
H30 H 0.0765 1.0100 -0.0561
H31 H 0.1431 1.0306 -0.0900
H32 H 0.1352 1.0469 -0.0171
C27 C 0.1754(2) 0.8160(3) 0.18903(19)
H33 H 0.2215 0.8233 0.1768
C28 C 0.1658(2) 0.7245(3) 0.2066(2)
H34 H 0.1210 0.7156 0.2195
H35 H 0.1947 0.7103 0.2409
H36 H 0.1755 0.6905 0.1705
C29 C 0.1625(3) 0.8714(4) 0.2466(2)
H37 H 0.1730 0.9276 0.2361
H38 H 0.1894 0.8536 0.2814
H39 H 0.1170 0.8676 0.2584
C30 C 0.1753(4) 0.1793(6) 0.3279(3)
H40 H 0.1342 0.1767 0.3047
H41 H 0.2100 0.1879 0.2970
Cl1 Cl 0.17271(14) 0.26289(17) 0.37537(10)
Cl2 Cl 0.18758(18) 0.08831(18) 0.36196(10)
loop_
_geom_bond_atom_site_label_1
_geom_bond_atom_site_label_2
_geom_bond_site_symmetry_1
_geom_bond_site_symmetry_2
S1 O1 1_555 1_555
O2 S1 1_555 1_555
O3 S1 1_555 1_555
F1 C1 1_555 1_555
F2 C1 1_555 1_555
F3 C1 1_555 1_555
C1 S1 1_555 1_555
N1 C2 1_555 1_555
N2 C2 1_555 1_555
C2 H1 1_555 1_555
C3 N1 1_555 1_555
C4 N2 1_555 1_555
H2 C4 1_555 1_555
H3 C4 1_555 1_555
C5 N1 1_555 1_555
C6 C5 1_555 1_555
C7 C6 1_555 1_555
H4 C7 1_555 1_555
C8 C7 1_555 1_555
H5 C8 1_555 1_555
C9 C8 1_555 1_555
H6 C9 1_555 1_555
C10 C5 1_555 1_555
C11 C6 1_555 1_555
H7 C11 1_555 1_555
C12 C11 1_555 1_555
H8 C12 1_555 1_555
H9 C12 1_555 1_555
H10 C12 1_555 1_555
C13 C11 1_555 1_555
H11 C13 1_555 1_555
H12 C13 1_555 1_555
H13 C13 1_555 1_555
C14 C10 1_555 1_555
H14 C14 1_555 1_555
C15 C14 1_555 1_555
H15 C15 1_555 1_555
H16 C15 1_555 1_555
H17 C15 1_555 1_555
C16 C14 1_555 1_555
H18 C16 1_555 1_555
H19 C16 1_555 1_555
H20 C16 1_555 1_555
C17 C3 1_555 1_555
H21 C17 1_555 1_555
H22 C17 1_555 1_555
C18 N2 1_555 1_555
C19 C18 1_555 1_555
C20 C19 1_555 1_555
H23 C20 1_555 1_555
C21 C20 1_555 1_555
H24 C21 1_555 1_555
C22 C21 1_555 1_555
H25 C22 1_555 1_555
C23 C18 1_555 1_555
C24 C19 1_555 1_555
H26 C24 1_555 1_555
C25 C24 1_555 1_555
H27 C25 1_555 1_555
H28 C25 1_555 1_555
H29 C25 1_555 1_555
C26 C24 1_555 1_555
H30 C26 1_555 1_555
H31 C26 1_555 1_555
H32 C26 1_555 1_555
C27 C23 1_555 1_555
H33 C27 1_555 1_555
C28 C27 1_555 1_555
H34 C28 1_555 1_555
H35 C28 1_555 1_555
H36 C28 1_555 1_555
C29 C27 1_555 1_555
H37 C29 1_555 1_555
H38 C29 1_555 1_555
H39 C29 1_555 1_555
C30 H40 1_555 1_555
H41 C30 1_555 1_555
Cl1 C30 1_555 1_555
Cl2 C30 1_555 1_555
C3 C4 1_555 1_555
C9 C10 1_555 1_555
C22 C23 1_555 1_555

#END
