
#######################################################################
#
#                 Cambridge Crystallographic Data Centre
#                                CCDC 
#
#######################################################################
#
# If this CIF has been generated from an entry in the Cambridge 
# Structural Database, then it will include bibliographic, chemical, 
# crystal, experimental, refinement or atomic coordinate data resulting 
# from the CCDC's data processing and validation procedures.
#
#######################################################################

data_JAHMUD
_chemical_compound_source        'rhizomes of Acorus tatarinowii'
_chemical_name_common            'asarolignan B methanol solvate hydrate'
_chemical_formula_moiety         'C24 H34 O9,0.5(C1 H4 O1),2.45(H2 O1)'
_chemical_name_systematic        
"1,1'-oxybis(1-(2,4,5-trimethoxyphenyl)propan-2-ol) methanol solvate hydrate"
_symmetry_cell_setting           orthorhombic
_symmetry_space_group_name_H-M   'P n 21 a'
_symmetry_Int_Tables_number      33
_space_group_name_Hall           'P -2ac -2n'
loop_
_symmetry_equiv_pos_site_id
_symmetry_equiv_pos_as_xyz
1 x,y,z
2 -x,1/2+y,-z
3 1/2+x,y,1/2-z
4 1/2-x,1/2+y,1/2+z
_cell_length_a                   14.3231(5)
_cell_length_b                   23.3774(6)
_cell_length_c                   16.4367(5)
_cell_angle_alpha                90
_cell_angle_beta                 90
_cell_angle_gamma                90
_cell_volume                     5503.61
_exptl_crystal_colour            colorless
_exptl_crystal_description       needle
_cell_formula_units_Z            8
loop_
_atom_site_label
_atom_site_type_symbol
_atom_site_fract_x
_atom_site_fract_y
_atom_site_fract_z
O1 O 0.9127(2) 0.54203(12) 0.40680(19)
O2 O 1.0503(2) 0.38969(15) 0.1109(2)
O3 O 1.0636(3) 0.40061(13) 0.4062(2)
O4 O 0.8210(2) 0.38664(13) 0.4539(2)
O5 O 0.7396(2) 0.58444(13) 0.4624(2)
H1 H 0.6947 0.6043 0.4499
O6 O 1.0573(3) 0.59222(13) 0.4877(2)
H2 H 1.1035 0.5906 0.5171
O7 O 0.8772(3) 0.41400(14) 0.7429(2)
O8 O 0.9929(3) 0.49367(14) 0.1033(2)
C1 C 0.8365(3) 0.50363(18) 0.4236(3)
H3 H 0.8400 0.4719 0.3847
C2 C 1.0012(3) 0.51392(18) 0.4050(3)
H4 H 1.0055 0.4883 0.4521
C3 C 0.8483(3) 0.39647(19) 0.5993(3)
H5 H 0.8444 0.3571 0.6071
C4 C 0.8437(3) 0.47886(18) 0.5083(3)
C5 C 1.0614(4) 0.33999(19) 0.4152(3)
H6 H 1.0628 0.3304 0.4720
H7 H 1.1146 0.3235 0.3886
H8 H 1.0052 0.3253 0.3912
C6 C 0.8602(4) 0.51375(19) 0.5749(3)
H9 H 0.8659 0.5530 0.5673
C7 C 0.7455(3) 0.5362(2) 0.4077(3)
H10 H 0.6930 0.5106 0.4189
C8 C 1.0554(3) 0.3907(2) 0.2590(3)
H11 H 1.0743 0.3527 0.2615
C9 C 1.0433(3) 0.42251(19) 0.3305(3)
C10 C 0.8379(3) 0.41938(18) 0.5215(3)
C11 C 0.8683(4) 0.4913(2) 0.6528(3)
C12 C 1.0747(4) 0.56128(19) 0.4142(3)
H12 H 1.0699 0.5875 0.3678
C13 C 0.8645(3) 0.4323(2) 0.6652(3)
C14 C 1.1724(4) 0.5378(2) 0.4183(4)
H13 H 1.1782 0.5134 0.4650
H14 H 1.2161 0.5688 0.4226
H15 H 1.1853 0.5162 0.3699
C15 C 0.9953(3) 0.50331(19) 0.2519(3)
H16 H 0.9737 0.5408 0.2493
C16 C 1.0388(3) 0.41647(19) 0.1845(3)
C17 C 0.8120(4) 0.32611(18) 0.4647(3)
H17 H 0.7611 0.3183 0.5010
H18 H 0.8688 0.3111 0.4872
H19 H 0.8002 0.3084 0.4130
C18 C 1.0084(3) 0.4727(2) 0.1803(3)
C19 C 1.0139(3) 0.47890(18) 0.3280(3)
O9 O 0.8773(3) 0.52811(15) 0.7187(2)
C20 C 0.7380(4) 0.5567(2) 0.3197(3)
H20 H 0.7869 0.5836 0.3086
H21 H 0.6785 0.5748 0.3115
H22 H 0.7437 0.5246 0.2837
C21 C 1.0699(4) 0.3295(2) 0.1116(3)
H23 H 1.1294 0.3230 0.1369
H24 H 1.0713 0.3154 0.0568
H25 H 1.0222 0.3099 0.1417
C22 C 0.9500(5) 0.5483(2) 0.0970(3)
H26 H 0.8964 0.5497 0.1321
H27 H 0.9307 0.5547 0.0418
H28 H 0.9937 0.5773 0.1129
C23 C 0.8837(4) 0.3535(2) 0.7553(3)
H29 H 0.9001 0.3459 0.8109
H30 H 0.9307 0.3379 0.7200
H31 H 0.8246 0.3360 0.7432
C24 C 0.9671(5) 0.5328(3) 0.7507(5)
H32 H 0.9649 0.5542 0.8006
H33 H 1.0066 0.5522 0.7124
H34 H 0.9916 0.4953 0.7612
O10 O 0.2471(2) 0.20919(13) 0.60085(19)
O11 O 0.3692(2) 0.35849(13) 0.5402(2)
O12 O 0.1229(3) 0.35776(13) 0.6118(2)
O13 O 0.2742(3) 0.32900(14) 0.2589(2)
O14 O 0.0990(2) 0.16022(13) 0.5259(2)
H35 H 0.0503 0.1442 0.5128
O15 O 0.1267(2) 0.35603(15) 0.9076(2)
O16 O 0.4134(2) 0.15972(14) 0.5540(2)
H36 H 0.4533 0.1614 0.5182
C25 C 0.1598(3) 0.23942(18) 0.6046(3)
H37 H 0.1560 0.2659 0.5585
O17 O 0.1657(3) 0.24765(15) 0.9067(2)
C26 C 0.3230(3) 0.24629(19) 0.5814(3)
H38 H 0.3209 0.2791 0.6185
C27 C 0.3264(3) 0.3465(2) 0.3978(3)
H39 H 0.3414 0.3843 0.3861
C28 C 0.1360(3) 0.3315(2) 0.8319(3)
C29 C 0.3169(3) 0.26843(19) 0.4950(3)
C30 C 0.1337(3) 0.33149(19) 0.6850(3)
C31 C 0.1265(3) 0.3609(2) 0.7596(3)
H40 H 0.1153 0.4001 0.7601
C32 C 0.0829(3) 0.19457(18) 0.5963(3)
H41 H 0.0826 0.1701 0.6447
C33 C 0.1562(4) 0.27242(19) 0.8318(3)
C34 C 0.4123(3) 0.2125(2) 0.5987(3)
H42 H 0.4659 0.2356 0.5816
C35 C 0.1518(3) 0.27338(19) 0.6835(3)
O18 O 0.2306(3) 0.22256(14) 0.2913(2)
C36 C 0.1645(3) 0.2448(2) 0.7587(3)
H43 H 0.1790 0.2060 0.7584
C37 C 0.3614(4) 0.4187(2) 0.5308(3)
H44 H 0.4068 0.4317 0.4920
H45 H 0.3722 0.4370 0.5822
H46 H 0.2999 0.4280 0.5118
C38 C 0.2829(3) 0.2336(2) 0.4324(3)
H47 H 0.2690 0.1956 0.4437
C39 C 0.1062(4) 0.4155(2) 0.9106(3)
H48 H 0.0507 0.4231 0.8796
H49 H 0.1575 0.4367 0.8880
H50 H 0.0966 0.4269 0.9660
C40 C 0.1144(4) 0.41864(19) 0.6095(3)
H51 H 0.1152 0.4314 0.5540
H52 H 0.1656 0.4356 0.6385
H53 H 0.0566 0.4298 0.6345
C41 C 0.4222(4) 0.1992(2) 0.6887(3)
H54 H 0.4795 0.1789 0.6978
H55 H 0.3706 0.1761 0.7061
H56 H 0.4229 0.2343 0.7191
C42 C 0.3382(3) 0.3250(2) 0.4773(3)
C43 C 0.2920(3) 0.3109(2) 0.3367(3)
C44 C 0.2887(4) 0.3881(2) 0.2422(3)
H57 H 0.2671 0.3967 0.1883
H58 H 0.3540 0.3968 0.2463
H59 H 0.2546 0.4107 0.2809
C45 C 0.2693(3) 0.2540(2) 0.3540(3)
C46 C 0.1910(6) 0.1885(2) 0.9079(4)
H60 H 0.1454 0.1667 0.8785
H61 H 0.1937 0.1753 0.9632
H62 H 0.2511 0.1838 0.8828
C47 C -0.0118(3) 0.2226(2) 0.5869(3)
H63 H -0.0591 0.1936 0.5833
H64 H -0.0125 0.2454 0.5383
H65 H -0.0240 0.2466 0.6331
C48 C 0.2024(5) 0.1652(2) 0.3107(3)
H66 H 0.1754 0.1477 0.2634
H67 H 0.1571 0.1661 0.3538
H68 H 0.2558 0.1436 0.3278
O19 O 0.1562(4) 0.6128(3) 0.6284(4)
H69 H 0.2145 0.6060 0.6291
H70 H 0.1472 0.6487 0.6297
O20 O 0.6292(4) 0.5572(2) 0.6010(4)
H71 H 0.5848 0.5806 0.6092
H72 H 0.6744 0.5744 0.5780
O21 O 0.5524(5) 0.6729(2) 0.7590(4)
H73 H 0.5397 0.6752 0.7105
C49 C 0.5339(7) 0.7257(4) 0.7974(6)
H74 H 0.5411 0.7216 0.8552
H75 H 0.4711 0.7374 0.7853
H76 H 0.5768 0.7541 0.7778
O22 O 0.6868(5) 0.5283(3) 0.7606(4)
H77 H 0.6747 0.5290 0.7100
H78 H 0.7456 0.5287 0.7676
O23 O 0.4973(4) 0.6530(3) 0.5969(4)
O24 O 0.3019(7) 0.7007(4) 0.6158(6)
O25? O 0.3192(18) 0.6451(9) 0.5902(13)
loop_
_geom_bond_atom_site_label_1
_geom_bond_atom_site_label_2
_geom_bond_site_symmetry_1
_geom_bond_site_symmetry_2
O1 C1 1_555 1_555
O2 C16 1_555 1_555
O3 C5 1_555 1_555
O4 C10 1_555 1_555
O5 H1 1_555 1_555
O6 H2 1_555 1_555
O7 C13 1_555 1_555
O8 C18 1_555 1_555
C1 H3 1_555 1_555
C2 O1 1_555 1_555
H4 C2 1_555 1_555
C3 H5 1_555 1_555
C4 C1 1_555 1_555
C5 H6 1_555 1_555
H7 C5 1_555 1_555
H8 C5 1_555 1_555
C6 C4 1_555 1_555
H9 C6 1_555 1_555
C7 O5 1_555 1_555
H10 C7 1_555 1_555
C8 H11 1_555 1_555
C9 O3 1_555 1_555
C10 C3 1_555 1_555
C11 C6 1_555 1_555
C12 O6 1_555 1_555
H12 C12 1_555 1_555
C13 C3 1_555 1_555
C14 C12 1_555 1_555
H13 C14 1_555 1_555
H14 C14 1_555 1_555
H15 C14 1_555 1_555
C15 H16 1_555 1_555
C16 C8 1_555 1_555
C17 O4 1_555 1_555
H17 C17 1_555 1_555
H18 C17 1_555 1_555
H19 C17 1_555 1_555
C18 C15 1_555 1_555
C19 C2 1_555 1_555
O9 C11 1_555 1_555
C20 C7 1_555 1_555
H20 C20 1_555 1_555
H21 C20 1_555 1_555
H22 C20 1_555 1_555
C21 O2 1_555 1_555
H23 C21 1_555 1_555
H24 C21 1_555 1_555
H25 C21 1_555 1_555
C22 O8 1_555 1_555
H26 C22 1_555 1_555
H27 C22 1_555 1_555
H28 C22 1_555 1_555
C23 O7 1_555 1_555
H29 C23 1_555 1_555
H30 C23 1_555 1_555
H31 C23 1_555 1_555
C24 O9 1_555 1_555
H32 C24 1_555 1_555
H33 C24 1_555 1_555
H34 C24 1_555 1_555
O10 C25 1_555 1_555
O11 C37 1_555 1_555
O12 C30 1_555 1_555
O13 C43 1_555 1_555
O14 H35 1_555 1_555
O15 C28 1_555 1_555
O16 H36 1_555 1_555
C25 H37 1_555 1_555
O17 C33 1_555 1_555
C26 O10 1_555 1_555
H38 C26 1_555 1_555
C27 H39 1_555 1_555
C28 C31 1_555 1_555
C29 C26 1_555 1_555
C30 C31 1_555 1_555
C31 H40 1_555 1_555
C32 O14 1_555 1_555
H41 C32 1_555 1_555
C33 C28 1_555 1_555
C34 O16 1_555 1_555
H42 C34 1_555 1_555
C35 C25 1_555 1_555
O18 C45 1_555 1_555
C36 C33 1_555 1_555
H43 C36 1_555 1_555
C37 H44 1_555 1_555
H45 C37 1_555 1_555
H46 C37 1_555 1_555
C38 C29 1_555 1_555
H47 C38 1_555 1_555
C39 O15 1_555 1_555
H48 C39 1_555 1_555
H49 C39 1_555 1_555
H50 C39 1_555 1_555
C40 O12 1_555 1_555
H51 C40 1_555 1_555
H52 C40 1_555 1_555
H53 C40 1_555 1_555
C41 C34 1_555 1_555
H54 C41 1_555 1_555
H55 C41 1_555 1_555
H56 C41 1_555 1_555
C42 O11 1_555 1_555
C43 C27 1_555 1_555
C44 O13 1_555 1_555
H57 C44 1_555 1_555
H58 C44 1_555 1_555
H59 C44 1_555 1_555
C45 C38 1_555 1_555
C46 O17 1_555 1_555
H60 C46 1_555 1_555
H61 C46 1_555 1_555
H62 C46 1_555 1_555
C47 C32 1_555 1_555
H63 C47 1_555 1_555
H64 C47 1_555 1_555
H65 C47 1_555 1_555
C48 O18 1_555 1_555
H66 C48 1_555 1_555
H67 C48 1_555 1_555
H68 C48 1_555 1_555
O19 H69 1_555 1_555
H70 O19 1_555 1_555
O20 H71 1_555 1_555
H72 O20 1_555 1_555
O21 H73 1_555 1_555
C49 O21 1_555 1_555
H74 C49 1_555 1_555
H75 C49 1_555 1_555
H76 C49 1_555 1_555
O22 H77 1_555 1_555
H78 O22 1_555 1_555
C1 C7 1_555 1_555
C2 C12 1_555 1_555
C4 C10 1_555 1_555
C8 C9 1_555 1_555
C9 C19 1_555 1_555
C11 C13 1_555 1_555
C15 C19 1_555 1_555
C16 C18 1_555 1_555
C25 C32 1_555 1_555
C26 C34 1_555 1_555
C27 C42 1_555 1_555
C29 C42 1_555 1_555
C30 C35 1_555 1_555
C35 C36 1_555 1_555
C43 C45 1_555 1_555

#END
