
#######################################################################
#
#                 Cambridge Crystallographic Data Centre
#                                CCDC 
#
#######################################################################
#
# If this CIF has been generated from an entry in the Cambridge 
# Structural Database, then it will include bibliographic, chemical, 
# crystal, experimental, refinement or atomic coordinate data resulting 
# from the CCDC's data processing and validation procedures.
#
#######################################################################

data_JAHQAN
_chemical_formula_moiety         'C25 H15 Cl1 O1'
_chemical_name_systematic        
1-(4-chlorophenyl)-3-(pyren-1-yl)prop-2-en-1-one
_symmetry_cell_setting           monoclinic
_symmetry_space_group_name_H-M   'C 2/c'
_symmetry_Int_Tables_number      15
_space_group_name_Hall           '-C 2yn'
loop_
_symmetry_equiv_pos_site_id
_symmetry_equiv_pos_as_xyz
1 x,y,z
2 -x,y,1/2-z
3 1/2+x,1/2+y,z
4 1/2-x,1/2+y,1/2-z
5 -x,-y,-z
6 x,-y,1/2+z
7 1/2-x,1/2-y,-z
8 1/2+x,1/2-y,1/2+z
_cell_length_a                   30.665(6)
_cell_length_b                   5.5070(11)
_cell_length_c                   21.295(4)
_cell_angle_alpha                90
_cell_angle_beta                 92.38(3)
_cell_angle_gamma                90
_cell_volume                     3593.03
_exptl_crystal_colour            'orange red'
_exptl_crystal_description       plate
_cell_formula_units_Z            8
_exptl_crystal_recrystallization_method 'ethyl acetate/acetic acid'
_exptl_crystal_preparation       ', Luminescent'
loop_
_atom_site_label
_atom_site_type_symbol
_atom_site_fract_x
_atom_site_fract_y
_atom_site_fract_z
Cl1 Cl 0.25600(6) 0.0797(4) 0.13824(9)
O1 O 0.40993(16) 0.4565(8) 0.3443(2)
C1 C 0.54479(18) -0.0145(10) 0.4265(2)
C2 C 0.54237(19) 0.1712(11) 0.4720(3)
H1 H 0.5181 0.2730 0.4705
C3 C 0.5738(2) 0.2073(12) 0.5175(3)
H2 H 0.5707 0.3324 0.5463
C4 C 0.6108(2) 0.0588(13) 0.5218(3)
C5 C 0.61397(18) -0.1359(12) 0.4776(3)
C6 C 0.58119(17) -0.1769(11) 0.4303(3)
C7 C 0.6445(2) 0.0873(13) 0.5685(3)
H3 H 0.6425 0.2087 0.5986
C8 C 0.6808(2) -0.0670(16) 0.5695(4)
H4 H 0.7032 -0.0419 0.5995
C9 C 0.6842(2) -0.2513(15) 0.5281(3)
H5 H 0.7082 -0.3543 0.5308
C10 C 0.6514(2) -0.2873(13) 0.4811(3)
C11 C 0.6536(2) -0.4872(13) 0.4372(3)
H6 H 0.6776 -0.5907 0.4401
C12 C 0.6230(2) -0.5275(13) 0.3937(3)
H7 H 0.6257 -0.6576 0.3663
C13 C 0.5850(2) -0.3718(11) 0.3878(3)
C14 C 0.5531(2) -0.4102(12) 0.3431(3)
H8 H 0.5553 -0.5405 0.3157
C15 C 0.51758(18) -0.2587(12) 0.3379(3)
H9 H 0.4958 -0.2900 0.3072
C16 C 0.51337(19) -0.0592(11) 0.3775(3)
C17 C 0.4758(2) 0.1118(12) 0.3659(3)
H10 H 0.4772 0.2575 0.3879
C18 C 0.4419(2) 0.0808(13) 0.3290(3)
H11 H 0.4394 -0.0646 0.3069
C19 C 0.4066(2) 0.2608(12) 0.3195(3)
C20 C 0.36899(18) 0.1980(10) 0.2749(3)
C21 C 0.3668(2) -0.0060(12) 0.2384(3)
H12 H 0.3887 -0.1225 0.2426
C22 C 0.3327(2) -0.0409(12) 0.1957(3)
H13 H 0.3322 -0.1741 0.1688
C23 C 0.29948(19) 0.1249(13) 0.1935(3)
C24 C 0.2996(2) 0.3282(14) 0.2290(3)
H14 H 0.2768 0.4397 0.2253
C25 C 0.3347(2) 0.3655(12) 0.2714(3)
H15 H 0.3354 0.5014 0.2974
loop_
_geom_bond_atom_site_label_1
_geom_bond_atom_site_label_2
_geom_bond_site_symmetry_1
_geom_bond_site_symmetry_2
Cl1 C23 1_555 1_555
O1 C19 1_555 1_555
C1 C2 1_555 1_555
C2 H1 1_555 1_555
C3 C2 1_555 1_555
H2 C3 1_555 1_555
C4 C3 1_555 1_555
C5 C4 1_555 1_555
C6 C1 1_555 1_555
C7 C4 1_555 1_555
H3 C7 1_555 1_555
C8 C7 1_555 1_555
H4 C8 1_555 1_555
C9 C8 1_555 1_555
H5 C9 1_555 1_555
C10 C5 1_555 1_555
C11 C10 1_555 1_555
H6 C11 1_555 1_555
C12 C11 1_555 1_555
H7 C12 1_555 1_555
C13 C6 1_555 1_555
C14 C13 1_555 1_555
H8 C14 1_555 1_555
C15 C14 1_555 1_555
H9 C15 1_555 1_555
C16 C1 1_555 1_555
C17 C16 1_555 1_555
H10 C17 1_555 1_555
C18 C17 1_555 1_555
H11 C18 1_555 1_555
C19 C18 1_555 1_555
C20 C19 1_555 1_555
C21 C20 1_555 1_555
H12 C21 1_555 1_555
C22 C21 1_555 1_555
H13 C22 1_555 1_555
C23 C22 1_555 1_555
C24 C23 1_555 1_555
H14 C24 1_555 1_555
C25 C20 1_555 1_555
H15 C25 1_555 1_555
C5 C6 1_555 1_555
C9 C10 1_555 1_555
C12 C13 1_555 1_555
C15 C16 1_555 1_555
C24 C25 1_555 1_555

#END
