
#######################################################################
#
#                 Cambridge Crystallographic Data Centre
#                                CCDC 
#
#######################################################################
#
# If this CIF has been generated from an entry in the Cambridge 
# Structural Database, then it will include bibliographic, chemical, 
# crystal, experimental, refinement or atomic coordinate data resulting 
# from the CCDC's data processing and validation procedures.
#
#######################################################################

data_JAHQOB
_chemical_formula_moiety         'C25 H16 O1'
_chemical_name_systematic        1-phenyl-3-(pyren-1-yl)prop-2-en-1-one
_symmetry_cell_setting           triclinic
_symmetry_space_group_name_H-M   'P -1'
_symmetry_Int_Tables_number      2
_space_group_name_Hall           '-P 1'
loop_
_symmetry_equiv_pos_site_id
_symmetry_equiv_pos_as_xyz
1 x,y,z
2 -x,-y,-z
_cell_length_a                   5.5050(11)
_cell_length_b                   9.6100(19)
_cell_length_c                   16.517(3)
_cell_angle_alpha                99.15(3)
_cell_angle_beta                 98.70(3)
_cell_angle_gamma                100.80(3)
_cell_volume                     832.501
_exptl_crystal_colour            yellow
_exptl_crystal_description       plate
_cell_formula_units_Z            2
_exptl_crystal_recrystallization_method 'ethyl acetate/ethanol'
_exptl_crystal_preparation       ', Luminescent'
loop_
_atom_site_label
_atom_site_type_symbol
_atom_site_fract_x
_atom_site_fract_y
_atom_site_fract_z
O1 O 0.0526(7) 0.1643(4) 0.5068(2)
C1 C 0.5503(10) 0.2413(6) 0.6835(3)
H1 H 0.6797 0.2870 0.6604
C2 C 0.5804(11) 0.2441(6) 0.7682(3)
H2 H 0.7318 0.2938 0.8024
C3 C 0.3922(11) 0.1754(6) 0.8035(3)
H3 H 0.4183 0.1760 0.8605
C4 C 0.1655(12) 0.1062(6) 0.7533(3)
H4 H 0.0342 0.0619 0.7762
C5 C 0.1356(10) 0.1033(5) 0.6685(3)
H5 H -0.0167 0.0551 0.6342
C6 C 0.3224(9) 0.1687(5) 0.6341(3)
C7 C 0.2639(8) 0.1725(5) 0.5411(3)
C8 C 0.4823(11) 0.1899(5) 0.5003(3)
H6 H 0.6247 0.1656 0.5275
C9 C 0.5045(9) 0.2368(5) 0.4283(3)
H7 H 0.6516 0.2293 0.4083
C10 C 0.3241(9) 0.2979(5) 0.3779(3)
C11 C 0.2028(10) 0.3997(5) 0.4152(3)
H8 H 0.2358 0.4272 0.4730
C12 C 0.0374(11) 0.4602(5) 0.3693(3)
H9 H -0.0498 0.5221 0.3958
C13 C -0.0006(9) 0.4269(5) 0.2795(3)
C14 C 0.1233(8) 0.3267(5) 0.2416(3)
C15 C 0.2900(9) 0.2610(5) 0.2880(3)
C16 C -0.1778(11) 0.4885(6) 0.2323(4)
H10 H -0.2679 0.5485 0.2590
C17 C -0.2121(11) 0.4575(5) 0.1470(4)
H11 H -0.3211 0.5010 0.1161
C18 C -0.0886(9) 0.3625(5) 0.1050(3)
C19 C 0.0779(10) 0.2974(5) 0.1519(3)
C20 C -0.1234(12) 0.3256(6) 0.0178(3)
H12 H -0.2398 0.3622 -0.0148
C21 C 0.0099(12) 0.2374(7) -0.0200(4)
H13 H -0.0129 0.2193 -0.0779
C22 C 0.1756(11) 0.1742(6) 0.0234(3)
H14 H 0.2661 0.1148 -0.0035
C23 C 0.2028(10) 0.2036(5) 0.1112(3)
C24 C 0.3755(10) 0.1397(5) 0.1597(3)
H15 H 0.4640 0.0792 0.1326
C25 C 0.4117(10) 0.1660(5) 0.2442(3)
H16 H 0.5196 0.1201 0.2738
loop_
_geom_bond_atom_site_label_1
_geom_bond_atom_site_label_2
_geom_bond_site_symmetry_1
_geom_bond_site_symmetry_2
O1 C7 1_555 1_555
C1 H1 1_555 1_555
C2 C1 1_555 1_555
H2 C2 1_555 1_555
C3 C2 1_555 1_555
H3 C3 1_555 1_555
C4 C3 1_555 1_555
H4 C4 1_555 1_555
C5 C4 1_555 1_555
H5 C5 1_555 1_555
C6 C1 1_555 1_555
C7 C6 1_555 1_555
C8 C7 1_555 1_555
H6 C8 1_555 1_555
C9 C8 1_555 1_555
H7 C9 1_555 1_555
C10 C9 1_555 1_555
C11 C10 1_555 1_555
H8 C11 1_555 1_555
C12 C11 1_555 1_555
H9 C12 1_555 1_555
C13 C12 1_555 1_555
C14 C13 1_555 1_555
C15 C10 1_555 1_555
C16 C13 1_555 1_555
H10 C16 1_555 1_555
C17 C16 1_555 1_555
H11 C17 1_555 1_555
C18 C17 1_555 1_555
C19 C14 1_555 1_555
C20 C18 1_555 1_555
H12 C20 1_555 1_555
C21 C20 1_555 1_555
H13 C21 1_555 1_555
C22 C21 1_555 1_555
H14 C22 1_555 1_555
C23 C19 1_555 1_555
C24 C23 1_555 1_555
H15 C24 1_555 1_555
C25 C15 1_555 1_555
H16 C25 1_555 1_555
C5 C6 1_555 1_555
C14 C15 1_555 1_555
C18 C19 1_555 1_555
C22 C23 1_555 1_555
C24 C25 1_555 1_555

#END
