
#######################################################################
#
#                 Cambridge Crystallographic Data Centre
#                                CCDC 
#
#######################################################################
#
# If this CIF has been generated from an entry in the Cambridge 
# Structural Database, then it will include bibliographic, chemical, 
# crystal, experimental, refinement or atomic coordinate data resulting 
# from the CCDC's data processing and validation procedures.
#
#######################################################################

data_JAHQER
_chemical_formula_moiety         'C23 H15 Cl1 O1'
_chemical_name_systematic        
3-(anthracen-9-yl)-1-(4-chlorophenyl)prop-2-en-1-one
_symmetry_cell_setting           orthorhombic
_symmetry_space_group_name_H-M   'P c a 21'
_symmetry_Int_Tables_number      29
_space_group_name_Hall           'P 2c -2ac'
loop_
_symmetry_equiv_pos_site_id
_symmetry_equiv_pos_as_xyz
1 x,y,z
2 -x,-y,1/2+z
3 1/2+x,-y,z
4 1/2-x,y,1/2+z
_cell_length_a                   10.831(2)
_cell_length_b                   10.431(2)
_cell_length_c                   30.703(6)
_cell_angle_alpha                90
_cell_angle_beta                 90
_cell_angle_gamma                90
_cell_volume                     3468.77
_exptl_crystal_colour            yellow
_exptl_crystal_description       rodlike
_cell_formula_units_Z            8
_exptl_crystal_recrystallization_method ethanol
_exptl_crystal_preparation       ', Luminescent'
loop_
_atom_site_label
_atom_site_type_symbol
_atom_site_fract_x
_atom_site_fract_y
_atom_site_fract_z
Cl1 Cl 1.1180(3) -0.0635(3) 0.28942(10)
O1 O 0.8826(6) 0.5124(5) 0.2454(3)
C1 C 0.9449(6) 0.6534(7) 0.1618(3)
C2 C 0.8953(6) 0.7813(7) 0.1590(3)
C3 C 0.9479(7) 0.8878(8) 0.1798(3)
H1 H 1.0199 0.8764 0.1958
C4 C 0.8983(12) 1.0055(9) 0.1773(4)
H2 H 0.9360 1.0748 0.1910
C5 C 0.7890(9) 1.0222(9) 0.1539(4)
H3 H 0.7530 1.1031 0.1530
C6 C 0.7334(7) 0.9243(8) 0.1323(3)
H4 H 0.6616 0.9390 0.1164
C7 C 0.7851(6) 0.8001(7) 0.1340(3)
C8 C 0.7310(7) 0.6971(8) 0.1121(3)
H5 H 0.6600 0.7124 0.0959
C9 C 0.7775(7) 0.5733(8) 0.1132(3)
C10 C 0.7216(10) 0.4728(9) 0.0904(4)
H6 H 0.6509 0.4880 0.0741
C11 C 0.7698(9) 0.3549(9) 0.0922(3)
H7 H 0.7324 0.2883 0.0769
C12 C 0.8797(8) 0.3300(8) 0.1177(3)
H8 H 0.9114 0.2474 0.1195
C13 C 0.9363(7) 0.4283(8) 0.1390(3)
H9 H 1.0090 0.4127 0.1542
C14 C 0.8875(7) 0.5515(8) 0.1384(3)
C15 C 1.0601(7) 0.6368(7) 0.1867(3)
H10 H 1.1258 0.6892 0.1788
C16 C 1.0809(7) 0.5567(8) 0.2188(3)
H11 H 1.1606 0.5521 0.2300
C17 C 0.9877(8) 0.4752(8) 0.2378(3)
C18 C 1.0225(6) 0.3421(7) 0.2518(3)
C19 C 0.9417(7) 0.2678(8) 0.2760(3)
H12 H 0.8663 0.3024 0.2845
C20 C 0.9703(7) 0.1437(9) 0.2879(3)
H13 H 0.9153 0.0959 0.3045
C21 C 1.0806(8) 0.0914(8) 0.2748(3)
C22 C 1.1620(7) 0.1664(8) 0.2506(3)
H14 H 1.2374 0.1324 0.2419
C23 C 1.1327(7) 0.2870(8) 0.2397(3)
H15 H 1.1885 0.3348 0.2234
Cl2 Cl 0.1361(3) 1.5577(3) 0.34201(10)
O2 O 0.3786(6) 0.9821(5) 0.3847(3)
C24 C 0.3079(6) 0.8340(7) 0.4693(3)
C25 C 0.3604(6) 0.7129(7) 0.4728(3)
C26 C 0.3124(7) 0.6022(8) 0.4501(3)
H16 H 0.2423 0.6109 0.4329
C27 C 0.3664(10) 0.4882(7) 0.4534(5)
H17 H 0.3318 0.4187 0.4389
C28 C 0.4750(10) 0.4696(8) 0.4783(4)
H18 H 0.5132 0.3898 0.4788
C29 C 0.5230(7) 0.5685(7) 0.5013(3)
H19 H 0.5920 0.5545 0.5187
C30 C 0.4707(6) 0.6926(7) 0.4995(3)
C31 C 0.5194(7) 0.7964(8) 0.5209(3)
H20 H 0.5880 0.7851 0.5387
C32 C 0.4690(7) 0.9172(8) 0.5166(3)
C33 C 0.5231(9) 1.0264(10) 0.5368(4)
H21 H 0.5931 1.0140 0.5538
C34 C 0.4790(8) 1.1472(10) 0.5327(3)
H22 H 0.5209 1.2164 0.5448
C35 C 0.3669(8) 1.1654(8) 0.5095(3)
H23 H 0.3323 1.2469 0.5077
C36 C 0.3114(7) 1.0676(7) 0.4902(3)
H24 H 0.2380 1.0835 0.4754
C37 C 0.3587(6) 0.9347(8) 0.4908(3)
C38 C 0.1956(6) 0.8504(7) 0.4422(3)
H25 H 0.1295 0.7969 0.4489
C39 C 0.1778(6) 0.9334(7) 0.4092(3)
H26 H 0.0989 0.9378 0.3973
C40 C 0.2751(9) 1.0197(8) 0.3900(4)
C41 C 0.2359(6) 1.1529(7) 0.3788(3)
C42 C 0.3155(6) 1.2296(7) 0.3547(3)
H27 H 0.3914 1.1967 0.3460
C43 C 0.2849(8) 1.3525(8) 0.3436(3)
H28 H 0.3380 1.4024 0.3269
C44 C 0.1730(9) 1.4005(8) 0.3577(3)
C45 C 0.0942(7) 1.3322(8) 0.3805(3)
H29 H 0.0189 1.3670 0.3890
C46 C 0.1250(6) 1.2076(8) 0.3917(3)
H30 H 0.0700 1.1594 0.4082
loop_
_geom_bond_atom_site_label_1
_geom_bond_atom_site_label_2
_geom_bond_site_symmetry_1
_geom_bond_site_symmetry_2
Cl1 C21 1_555 1_555
O1 C17 1_555 1_555
C1 C2 1_555 1_555
C2 C3 1_555 1_555
C3 H1 1_555 1_555
C4 C3 1_555 1_555
H2 C4 1_555 1_555
C5 C4 1_555 1_555
H3 C5 1_555 1_555
C6 C5 1_555 1_555
H4 C6 1_555 1_555
C7 C2 1_555 1_555
C8 C7 1_555 1_555
H5 C8 1_555 1_555
C9 C8 1_555 1_555
C10 C9 1_555 1_555
H6 C10 1_555 1_555
C11 C10 1_555 1_555
H7 C11 1_555 1_555
C12 C11 1_555 1_555
H8 C12 1_555 1_555
C13 C12 1_555 1_555
H9 C13 1_555 1_555
C14 C1 1_555 1_555
C15 C1 1_555 1_555
H10 C15 1_555 1_555
C16 C15 1_555 1_555
H11 C16 1_555 1_555
C17 C16 1_555 1_555
C18 C17 1_555 1_555
C19 C18 1_555 1_555
H12 C19 1_555 1_555
C20 C19 1_555 1_555
H13 C20 1_555 1_555
C21 C20 1_555 1_555
C22 C21 1_555 1_555
H14 C22 1_555 1_555
C23 C18 1_555 1_555
H15 C23 1_555 1_555
Cl2 C44 1_555 1_555
O2 C40 1_555 1_555
C24 C25 1_555 1_555
C25 C26 1_555 1_555
C26 H16 1_555 1_555
C27 C26 1_555 1_555
H17 C27 1_555 1_555
C28 C27 1_555 1_555
H18 C28 1_555 1_555
C29 C28 1_555 1_555
H19 C29 1_555 1_555
C30 C25 1_555 1_555
C31 C30 1_555 1_555
H20 C31 1_555 1_555
C32 C31 1_555 1_555
C33 C32 1_555 1_555
H21 C33 1_555 1_555
C34 C33 1_555 1_555
H22 C34 1_555 1_555
C35 C34 1_555 1_555
H23 C35 1_555 1_555
C36 C35 1_555 1_555
H24 C36 1_555 1_555
C37 C24 1_555 1_555
C38 C24 1_555 1_555
H25 C38 1_555 1_555
C39 C38 1_555 1_555
H26 C39 1_555 1_555
C40 C39 1_555 1_555
C41 C40 1_555 1_555
C42 C41 1_555 1_555
H27 C42 1_555 1_555
C43 C42 1_555 1_555
H28 C43 1_555 1_555
C44 C43 1_555 1_555
C45 C44 1_555 1_555
H29 C45 1_555 1_555
C46 C41 1_555 1_555
H30 C46 1_555 1_555
C6 C7 1_555 1_555
C9 C14 1_555 1_555
C13 C14 1_555 1_555
C22 C23 1_555 1_555
C29 C30 1_555 1_555
C32 C37 1_555 1_555
C36 C37 1_555 1_555
C45 C46 1_555 1_555

#END
