
#######################################################################
#
#                 Cambridge Crystallographic Data Centre
#                                CCDC 
#
#######################################################################
#
# If this CIF has been generated from an entry in the Cambridge 
# Structural Database, then it will include bibliographic, chemical, 
# crystal, experimental, refinement or atomic coordinate data resulting 
# from the CCDC's data processing and validation procedures.
#
#######################################################################

data_JAHREP
_chemical_compound_source        
'Pisolithus arhizus (Pers.) Rausch (Basidiomycetes)'
_chemical_name_common            Mutumol
_chemical_formula_moiety         'C33 H54 O4,H2 O1'
_chemical_name_systematic        
'22-Acetoxy-3\b,23-dihydroxy-24-methylenelanost-8-ene monohydrate'
_chemical_properties_biological  
'agent for treatment of wounds and haemorrhagic disorders'
_symmetry_cell_setting           orthorhombic
_symmetry_space_group_name_H-M   'P 21 21 21'
_symmetry_Int_Tables_number      19
_space_group_name_Hall           'P 2ac 2ab'
loop_
_symmetry_equiv_pos_site_id
_symmetry_equiv_pos_as_xyz
1 x,y,z
2 1/2+x,1/2-y,-z
3 -x,1/2+y,1/2-z
4 1/2-x,-y,1/2+z
_cell_length_a                   7.381(3)
_cell_length_b                   11.759(2)
_cell_length_c                   38.025(12)
_cell_angle_alpha                90
_cell_angle_beta                 90
_cell_angle_gamma                90
_cell_volume                     3300.31
_exptl_crystal_colour            white
_chemical_melting_point          211deg.C
_cell_formula_units_Z            4
loop_
_atom_site_label
_atom_site_type_symbol
_atom_site_fract_x
_atom_site_fract_y
_atom_site_fract_z
C1 C -0.1895(10) -0.0338(7) 0.0718(3)
C2 C -0.2119(11) -0.0507(8) 0.1114(2)
C3 C -0.0956(14) -0.1448(8) 0.1238(3)
C4 C 0.1088(12) -0.1227(8) 0.1172(3)
C5 C 0.1317(11) -0.0956(8) 0.0776(2)
C6 C 0.3254(11) -0.0715(11) 0.0663(3)
C7 C 0.3429(13) -0.0727(15) 0.0266(3)
C8 C 0.1839(12) -0.0353(7) 0.0059(3)
C9 C 0.0317(11) -0.0053(6) 0.0209(2)
C10 C 0.0057(10) -0.0043(6) 0.0611(2)
C11 C -0.1322(11) 0.0321(8) -0.0010(2)
C12 C -0.1088(11) 0.0397(8) -0.0412(2)
C13 C 0.0917(11) 0.0575(7) -0.0510(2)
C14 C 0.2015(10) -0.0390(7) -0.0330(3)
C15 C 0.3897(13) -0.0191(11) -0.0492(3)
C16 C 0.3542(10) 0.0210(9) -0.0877(2)
C17 C 0.1463(10) 0.0439(7) -0.0904(2)
C18 C 0.1593(16) 0.1765(7) -0.0369(3)
C19 C 0.0529(14) 0.1186(7) 0.0741(3)
C20 C 0.1061(16) 0.1437(8) -0.1171(2)
C21 C -0.0923(18) 0.1753(12) -0.1195(3)
C22 C 0.1972(15) 0.1141(7) -0.1533(2)
C23 C 0.1413(7) -0.0748(10) -0.1770(3)
C24 C 0.0203(15) -0.1444(9) -0.1996(3)
C25 C 0.1947(16) 0.2118(7) -0.1794(3)
C26 C 0.3135(18) 0.1860(8) -0.2115(3)
C27 C 0.5186(18) 0.1860(11) -0.2054(3)
C28 C 0.6037(20) 0.2875(15) -0.2246(4)
C29 C 0.5984(18) 0.0769(15) -0.2186(5)
C30 C 0.1516(17) -0.1579(8) -0.0451(3)
C31 C 0.2103(16) -0.2336(10) 0.1251(3)
C32 C 0.1817(12) -0.0330(9) 0.1419(3)
C33 C 0.2268(25) 0.1614(12) -0.2423(3)
O1 O -0.1248(9) -0.1643(5) 0.1604(2)
O2 O 0.0795(9) 0.0289(5) -0.1708(2)
O3 O 0.2992(12) -0.1038(5) -0.1692(2)
O4 O 0.2655(13) 0.3085(5) -0.1604(2)
O5 O 0.3236(24) 0.4971(6) 0.2991(2)
loop_
_geom_bond_atom_site_label_1
_geom_bond_atom_site_label_2
_geom_bond_site_symmetry_1
_geom_bond_site_symmetry_2
C1 C2 1_555 1_555
C2 C3 1_555 1_555
C3 C4 1_555 1_555
C4 C5 1_555 1_555
C5 C6 1_555 1_555
C6 C7 1_555 1_555
C7 C8 1_555 1_555
C8 C9 1_555 1_555
C9 C10 1_555 1_555
C10 C1 1_555 1_555
C11 C9 1_555 1_555
C12 C11 1_555 1_555
C13 C12 1_555 1_555
C14 C8 1_555 1_555
C15 C14 1_555 1_555
C16 C15 1_555 1_555
C17 C13 1_555 1_555
C18 C13 1_555 1_555
C19 C10 1_555 1_555
C20 C17 1_555 1_555
C21 C20 1_555 1_555
C22 C20 1_555 1_555
C23 C24 1_555 1_555
C25 C22 1_555 1_555
C26 C25 1_555 1_555
C27 C26 1_555 1_555
C28 C27 1_555 1_555
C29 C27 1_555 1_555
C30 C14 1_555 1_555
C31 C4 1_555 1_555
C32 C4 1_555 1_555
C33 C26 1_555 1_555
O1 C3 1_555 1_555
O2 C22 1_555 1_555
O3 C23 1_555 1_555
O4 C25 1_555 1_555
C5 C10 1_555 1_555
C13 C14 1_555 1_555
C16 C17 1_555 1_555
C23 O2 1_555 1_555

#END
