
#######################################################################
#
#                 Cambridge Crystallographic Data Centre
#                                CCDC 
#
#######################################################################
#
# If this CIF has been generated from an entry in the Cambridge 
# Structural Database, then it will include bibliographic, chemical, 
# crystal, experimental, refinement or atomic coordinate data resulting 
# from the CCDC's data processing and validation procedures.
#
#######################################################################

data_JAHRES
_chemical_formula_moiety         'C25 H15 N1 O3'
_chemical_name_systematic        
1-(4-nitrophenyl)-3-(pyren-1-yl)prop-2-en-1-one
_symmetry_cell_setting           monoclinic
_symmetry_space_group_name_H-M   'P 21/n'
_symmetry_Int_Tables_number      14
_space_group_name_Hall           '-P 2yn'
loop_
_symmetry_equiv_pos_site_id
_symmetry_equiv_pos_as_xyz
1 x,y,z
2 1/2-x,1/2+y,1/2-z
3 -x,-y,-z
4 1/2+x,1/2-y,1/2+z
_cell_length_a                   7.3870(15)
_cell_length_b                   7.8470(16)
_cell_length_c                   32.089(6)
_cell_angle_alpha                90
_cell_angle_beta                 94.00(3)
_cell_angle_gamma                90
_cell_volume                     1855.53
_exptl_crystal_colour            red
_exptl_crystal_description       needlelike
_cell_formula_units_Z            4
_exptl_crystal_recrystallization_method acetonitrile/dichloromethane
_exptl_crystal_preparation       ', Luminescent'
loop_
_atom_site_label
_atom_site_type_symbol
_atom_site_fract_x
_atom_site_fract_y
_atom_site_fract_z
N1 N 0.4235(6) 0.0447(7) -0.19953(15)
C1 C 0.1692(5) 0.6976(5) 0.07048(11)
O1 O 0.2388(5) 0.6766(5) -0.08530(9)
C2 C 0.1085(5) 0.8613(5) 0.05582(12)
H1 H 0.1048 0.8832 0.0273
O2 O 0.4011(5) 0.0900(5) -0.23550(11)
C3 C 0.0562(5) 0.9862(5) 0.08161(11)
H2 H 0.0177 1.0907 0.0706
O3 O 0.4794(6) -0.0957(5) -0.18875(12)
C4 C 0.0599(5) 0.9579(5) 0.12605(11)
C5 C 0.1180(5) 0.7995(5) 0.14167(10)
C6 C 0.1721(5) 0.6687(5) 0.11407(11)
C7 C 0.0068(6) 1.0831(5) 0.15329(13)
H3 H -0.0318 1.1887 0.1430
C8 C 0.0111(6) 1.0508(6) 0.19572(13)
H4 H -0.0239 1.1357 0.2137
C9 C 0.0668(6) 0.8945(6) 0.21181(13)
H5 H 0.0678 0.8744 0.2404
C10 C 0.1206(5) 0.7686(6) 0.18550(12)
C11 C 0.1798(6) 0.6060(6) 0.20041(13)
H6 H 0.1838 0.5847 0.2290
C12 C 0.2304(5) 0.4814(6) 0.17473(12)
H7 H 0.2664 0.3764 0.1859
C13 C 0.2297(5) 0.5073(5) 0.13087(12)
C14 C 0.2827(6) 0.3846(6) 0.10317(13)
H8 H 0.3218 0.2791 0.1135
C15 C 0.2792(6) 0.4142(6) 0.06102(14)
H9 H 0.3148 0.3276 0.0436
C16 C 0.2247(5) 0.5683(5) 0.04364(12)
C17 C 0.2302(5) 0.5945(6) -0.00099(12)
H10 H 0.2056 0.7049 -0.0103
C18 C 0.2657(5) 0.4825(6) -0.03044(12)
H11 H 0.2888 0.3698 -0.0228
C19 C 0.2694(6) 0.5311(6) -0.07456(13)
C20 C 0.3097(5) 0.3994(6) -0.10608(12)
C21 C 0.3635(6) 0.2373(6) -0.09560(12)
H12 H 0.3749 0.2056 -0.0676
C22 C 0.4015(6) 0.1186(6) -0.12622(15)
H13 H 0.4362 0.0079 -0.1190
C23 C 0.3864(6) 0.1692(7) -0.16661(14)
C24 C 0.3354(5) 0.3290(6) -0.17842(13)
H14 H 0.3272 0.3598 -0.2065
C25 C 0.2956(6) 0.4456(6) -0.14794(12)
H15 H 0.2594 0.5554 -0.1556
loop_
_geom_bond_atom_site_label_1
_geom_bond_atom_site_label_2
_geom_bond_site_symmetry_1
_geom_bond_site_symmetry_2
N1 O2 1_555 1_555
C1 C2 1_555 1_555
O1 C19 1_555 1_555
C2 H1 1_555 1_555
C3 C2 1_555 1_555
H2 C3 1_555 1_555
O3 N1 1_555 1_555
C4 C3 1_555 1_555
C5 C4 1_555 1_555
C6 C1 1_555 1_555
C7 C4 1_555 1_555
H3 C7 1_555 1_555
C8 C7 1_555 1_555
H4 C8 1_555 1_555
C9 C8 1_555 1_555
H5 C9 1_555 1_555
C10 C5 1_555 1_555
C11 C10 1_555 1_555
H6 C11 1_555 1_555
C12 C11 1_555 1_555
H7 C12 1_555 1_555
C13 C6 1_555 1_555
C14 C13 1_555 1_555
H8 C14 1_555 1_555
C15 C14 1_555 1_555
H9 C15 1_555 1_555
C16 C1 1_555 1_555
C17 C16 1_555 1_555
H10 C17 1_555 1_555
C18 C17 1_555 1_555
H11 C18 1_555 1_555
C19 C18 1_555 1_555
C20 C19 1_555 1_555
C21 C20 1_555 1_555
H12 C21 1_555 1_555
C22 C21 1_555 1_555
H13 C22 1_555 1_555
C23 N1 1_555 1_555
C24 C23 1_555 1_555
H14 C24 1_555 1_555
C25 C20 1_555 1_555
H15 C25 1_555 1_555
C5 C6 1_555 1_555
C9 C10 1_555 1_555
C12 C13 1_555 1_555
C15 C16 1_555 1_555
C22 C23 1_555 1_555
C24 C25 1_555 1_555

#END
