
#######################################################################
#
#                 Cambridge Crystallographic Data Centre
#                                CCDC 
#
#######################################################################
#
# If this CIF has been generated from an entry in the Cambridge 
# Structural Database, then it will include bibliographic, chemical, 
# crystal, experimental, refinement or atomic coordinate data resulting 
# from the CCDC's data processing and validation procedures.
#
#######################################################################

data_JAJFIM
_chemical_formula_moiety         'C47 H33 N1'
_chemical_name_systematic        
3,3-diphenyl-2-(4'-(triphenylvinyl)biphenyl-4-yl)acrylonitrile
_symmetry_cell_setting           triclinic
_symmetry_space_group_name_H-M   'P -1'
_symmetry_Int_Tables_number      2
_space_group_name_Hall           '-P 1'
loop_
_symmetry_equiv_pos_site_id
_symmetry_equiv_pos_as_xyz
1 x,y,z
2 -x,-y,-z
_cell_length_a                   9.7663(5)
_cell_length_b                   10.4555(6)
_cell_length_c                   18.9416(9)
_cell_angle_alpha                91.441(4)
_cell_angle_beta                 101.951(4)
_cell_angle_gamma                117.417(5)
_cell_volume                     1663.45
_exptl_crystal_colour            colorless
_exptl_crystal_description       bar
_cell_formula_units_Z            2
loop_
_atom_site_label
_atom_site_type_symbol
_atom_site_fract_x
_atom_site_fract_y
_atom_site_fract_z
N1 N 0.8600(2) 0.3235(2) 0.55497(10)
C1 C 0.7700(2) 0.4994(2) 0.49356(10)
C2 C 0.7939(2) 0.6212(2) 0.53246(10)
C3 C 0.2783(2) 0.2146(2) -0.04682(10)
C4 C 0.1473(2) 0.2297(2) -0.07327(10)
C5 C 0.8224(3) 0.4046(2) 0.53007(10)
C6 C 0.6948(2) 0.4482(2) 0.41417(10)
C7 C 0.7477(2) 0.5408(2) 0.36316(10)
H1 H 0.8312 0.6376 0.3789
C8 C 0.6795(2) 0.4928(2) 0.28971(10)
H2 H 0.7170 0.5577 0.2556
C9 C 0.5566(2) 0.3511(2) 0.26414(10)
C10 C 0.5049(2) 0.2590(2) 0.31559(10)
H3 H 0.4212 0.1623 0.2999
C11 C 0.5739(2) 0.3063(2) 0.38973(10)
H4 H 0.5382 0.2411 0.4239
C12 C 0.7344(3) 0.7215(2) 0.50284(10)
C13 C 0.8224(3) 0.8701(2) 0.52639(12)
H5 H 0.9207 0.9077 0.5620
C14 C 0.7681(4) 0.9641(3) 0.49830(14)
H6 H 0.8305 1.0657 0.5144
C15 C 0.6258(4) 0.9128(3) 0.44779(15)
H7 H 0.5900 0.9782 0.4287
C16 C 0.5347(3) 0.7649(3) 0.42474(13)
H8 H 0.4354 0.7284 0.3900
C17 C 0.5878(3) 0.6703(2) 0.45221(11)
H9 H 0.5238 0.5688 0.4365
C18 C 0.8853(2) 0.6597(2) 0.61086(10)
C19 C 1.0495(3) 0.7203(3) 0.62862(12)
H10 H 1.1044 0.7361 0.5911
C20 C 1.1343(3) 0.7581(3) 0.70127(13)
H11 H 1.2472 0.8022 0.7132
C21 C 1.0560(3) 0.7322(3) 0.75564(12)
H12 H 1.1144 0.7565 0.8052
C22 C 0.8923(3) 0.6708(3) 0.73878(11)
H13 H 0.8378 0.6515 0.7766
C23 C 0.8075(3) 0.6374(2) 0.66645(11)
H14 H 0.6952 0.5989 0.6549
C24 C 0.3494(2) 0.2339(2) 0.03319(10)
C25 C 0.2593(2) 0.1675(2) 0.08252(10)
H15 H 0.1502 0.0979 0.0649
C26 C 0.3264(2) 0.2012(2) 0.15685(10)
H16 H 0.2627 0.1544 0.1895
C27 C 0.4860(2) 0.3027(2) 0.18454(9)
C28 C 0.5784(2) 0.3616(2) 0.13487(10)
H17 H 0.6889 0.4271 0.1524
C29 C 0.5120(2) 0.3264(2) 0.06067(10)
H18 H 0.5779 0.3657 0.0279
C30 C 0.3670(2) 0.1844(2) -0.09509(10)
C31 C 0.4258(3) 0.2743(2) -0.14603(11)
H19 H 0.4104 0.3574 -0.1506
C32 C 0.5068(3) 0.2443(3) -0.19041(12)
H20 H 0.5463 0.3065 -0.2252
C33 C 0.5303(3) 0.1232(3) -0.18406(13)
H21 H 0.5845 0.1017 -0.2149
C34 C 0.4748(3) 0.0350(3) -0.13311(13)
H22 H 0.4909 -0.0477 -0.1285
C35 C 0.3946(3) 0.0660(2) -0.08794(12)
H23 H 0.3587 0.0055 -0.0520
C36 C 0.0655(2) 0.1969(2) -0.15279(10)
C37 C 0.0392(2) 0.0746(2) -0.19639(11)
H24 H 0.0738 0.0095 -0.1757
C38 C -0.0372(3) 0.0469(2) -0.26987(11)
H25 H -0.0535 -0.0366 -0.2989
C39 C -0.0893(3) 0.1387(3) -0.30107(11)
H26 H -0.1413 0.1191 -0.3514
C40 C -0.0653(3) 0.2610(2) -0.25822(12)
H27 H -0.1005 0.3255 -0.2792
C41 C 0.0098(2) 0.2879(2) -0.18506(11)
H28 H 0.0238 0.3705 -0.1560
C42 C 0.0732(2) 0.2808(2) -0.02496(10)
C43 C -0.0926(2) 0.2149(2) -0.03725(11)
H29 H -0.1575 0.1385 -0.0766
C44 C -0.1631(3) 0.2597(2) 0.00720(12)
H30 H -0.2758 0.2139 -0.0018
C45 C -0.0704(3) 0.3702(2) 0.06425(12)
H31 H -0.1189 0.3986 0.0956
C46 C 0.0934(3) 0.4398(2) 0.07602(10)
H32 H 0.1574 0.5178 0.1146
C47 C 0.1643(2) 0.3956(2) 0.03135(10)
H33 H 0.2769 0.4446 0.0394
loop_
_geom_bond_atom_site_label_1
_geom_bond_atom_site_label_2
_geom_bond_site_symmetry_1
_geom_bond_site_symmetry_2
N1 C5 1_555 1_555
C1 C2 1_555 1_555
C2 C12 1_555 1_555
C3 C4 1_555 1_555
C4 C36 1_555 1_555
C5 C1 1_555 1_555
C6 C1 1_555 1_555
C7 C6 1_555 1_555
H1 C7 1_555 1_555
C8 C7 1_555 1_555
H2 C8 1_555 1_555
C9 C8 1_555 1_555
C10 C9 1_555 1_555
H3 C10 1_555 1_555
C11 C6 1_555 1_555
H4 C11 1_555 1_555
C12 C13 1_555 1_555
C13 H5 1_555 1_555
C14 C13 1_555 1_555
H6 C14 1_555 1_555
C15 C14 1_555 1_555
H7 C15 1_555 1_555
C16 C15 1_555 1_555
H8 C16 1_555 1_555
C17 C12 1_555 1_555
H9 C17 1_555 1_555
C18 C2 1_555 1_555
C19 C18 1_555 1_555
H10 C19 1_555 1_555
C20 C19 1_555 1_555
H11 C20 1_555 1_555
C21 C20 1_555 1_555
H12 C21 1_555 1_555
C22 C21 1_555 1_555
H13 C22 1_555 1_555
C23 C18 1_555 1_555
H14 C23 1_555 1_555
C24 C3 1_555 1_555
C25 C24 1_555 1_555
H15 C25 1_555 1_555
C26 C25 1_555 1_555
H16 C26 1_555 1_555
C27 C9 1_555 1_555
C28 C27 1_555 1_555
H17 C28 1_555 1_555
C29 C24 1_555 1_555
H18 C29 1_555 1_555
C30 C3 1_555 1_555
C31 C30 1_555 1_555
H19 C31 1_555 1_555
C32 C31 1_555 1_555
H20 C32 1_555 1_555
C33 C32 1_555 1_555
H21 C33 1_555 1_555
C34 C33 1_555 1_555
H22 C34 1_555 1_555
C35 C30 1_555 1_555
H23 C35 1_555 1_555
C36 C37 1_555 1_555
C37 H24 1_555 1_555
C38 C37 1_555 1_555
H25 C38 1_555 1_555
C39 C38 1_555 1_555
H26 C39 1_555 1_555
C40 C39 1_555 1_555
H27 C40 1_555 1_555
C41 C36 1_555 1_555
H28 C41 1_555 1_555
C42 C4 1_555 1_555
C43 C42 1_555 1_555
H29 C43 1_555 1_555
C44 C43 1_555 1_555
H30 C44 1_555 1_555
C45 C44 1_555 1_555
H31 C45 1_555 1_555
C46 C45 1_555 1_555
H32 C46 1_555 1_555
C47 C42 1_555 1_555
H33 C47 1_555 1_555
C10 C11 1_555 1_555
C16 C17 1_555 1_555
C22 C23 1_555 1_555
C26 C27 1_555 1_555
C28 C29 1_555 1_555
C34 C35 1_555 1_555
C40 C41 1_555 1_555
C46 C47 1_555 1_555

#END
