
#######################################################################
#
#                 Cambridge Crystallographic Data Centre
#                                CCDC 
#
#######################################################################
#
# If this CIF has been generated from an entry in the Cambridge 
# Structural Database, then it will include bibliographic, chemical, 
# crystal, experimental, refinement or atomic coordinate data resulting 
# from the CCDC's data processing and validation procedures.
#
#######################################################################

data_JAJHOU
_chemical_formula_moiety         'C38 H29 N1'
_chemical_name_systematic        
4'-(2,2-diphenylvinyl)-N,N-diphenylbiphenyl-4-amine
_symmetry_cell_setting           triclinic
_symmetry_space_group_name_H-M   'P -1'
_symmetry_Int_Tables_number      2
_space_group_name_Hall           '-P 1'
loop_
_symmetry_equiv_pos_site_id
_symmetry_equiv_pos_as_xyz
1 x,y,z
2 -x,-y,-z
_cell_length_a                   9.432(5)
_cell_length_b                   12.787(6)
_cell_length_c                   12.788(6)
_cell_angle_alpha                66.289(7)
_cell_angle_beta                 88.185(7)
_cell_angle_gamma                71.379(6)
_cell_volume                     1329.86
_exptl_crystal_colour            colorless
_exptl_crystal_description       plate
_cell_formula_units_Z            2
loop_
_atom_site_label
_atom_site_type_symbol
_atom_site_fract_x
_atom_site_fract_y
_atom_site_fract_z
N1 N -0.0970(2) 0.25353(18) 0.19512(19)
C1 C 0.8397(3) 0.2736(2) 0.6615(2)
C2 C 0.7737(3) 0.3317(2) 0.5525(2)
H1 H 0.8089 0.3941 0.5025
C3 C 0.9679(3) 0.3029(2) 0.6943(2)
C4 C 1.0722(3) 0.3310(2) 0.6176(2)
H2 H 1.0592 0.3337 0.5431
C5 C 1.1952(3) 0.3553(2) 0.6475(2)
H3 H 1.2648 0.3744 0.5937
C6 C 1.2156(3) 0.3515(2) 0.7559(3)
H4 H 1.2991 0.3680 0.7770
C7 C 1.1129(3) 0.3234(2) 0.8335(2)
H5 H 1.1260 0.3208 0.9080
C8 C 0.9911(3) 0.2990(2) 0.8029(2)
H6 H 0.9221 0.2794 0.8571
C9 C 0.7889(3) 0.1822(2) 0.7548(2)
C10 C 0.6370(3) 0.2028(3) 0.7706(2)
H7 H 0.5637 0.2773 0.7220
C11 C 0.5921(3) 0.1154(3) 0.8565(3)
H8 H 0.4881 0.1298 0.8652
C12 C 0.6970(3) 0.0078(3) 0.9295(2)
H9 H 0.6658 -0.0518 0.9884
C13 C 0.8482(3) -0.0125(2) 0.9163(2)
H10 H 0.9210 -0.0863 0.9667
C14 C 0.8939(3) 0.0737(2) 0.8303(2)
H11 H 0.9982 0.0588 0.8225
C15 C 0.6537(3) 0.3109(2) 0.5005(2)
C16 C 0.5376(3) 0.4111(2) 0.4244(2)
H12 H 0.5404 0.4903 0.4050
C17 C 0.4194(3) 0.3973(2) 0.3771(2)
H13 H 0.3404 0.4672 0.3280
C18 C 0.4132(3) 0.2823(2) 0.3998(2)
C19 C 0.5331(3) 0.1820(2) 0.4709(2)
H14 H 0.5343 0.1027 0.4855
C20 C 0.6504(3) 0.1959(2) 0.5204(2)
H15 H 0.7302 0.1261 0.5689
C21 C 0.0304(3) 0.2537(2) 0.2526(2)
C22 C 0.0173(3) 0.3474(2) 0.2854(2)
H16 H -0.0786 0.4070 0.2752
C23 C 0.1399(3) 0.3556(2) 0.3322(2)
H17 H 0.1274 0.4217 0.3523
C24 C 0.2830(3) 0.2688(2) 0.3513(2)
C25 C 0.2950(3) 0.1724(2) 0.3211(2)
H18 H 0.3901 0.1110 0.3342
C26 C 0.1717(3) 0.1649(2) 0.2728(2)
H19 H 0.1830 0.0987 0.2531
C27 C -0.1503(3) 0.1540(2) 0.2371(2)
C28 C -0.2522(3) 0.1471(2) 0.1658(3)
H20 H -0.2804 0.2067 0.0889
C29 C -0.3130(3) 0.0541(2) 0.2056(3)
H21 H -0.3852 0.0523 0.1567
C30 C -0.2692(3) -0.0358(2) 0.3161(3)
H22 H -0.3103 -0.0996 0.3435
C31 C -0.1644(3) -0.0312(2) 0.3858(3)
H23 H -0.1322 -0.0936 0.4611
C32 C -0.1051(3) 0.0627(2) 0.3481(2)
H24 H -0.0342 0.0647 0.3978
C33 C -0.2016(3) 0.3711(2) 0.1259(2)
C34 C -0.1574(3) 0.4457(2) 0.0278(2)
H25 H -0.0632 0.4155 0.0028
C35 C -0.2500(3) 0.5639(2) -0.0338(2)
H26 H -0.2192 0.6149 -0.1011
C36 C -0.3867(3) 0.6082(2) 0.0020(3)
H27 H -0.4493 0.6899 -0.0395
C37 C -0.4328(3) 0.5330(2) 0.0988(2)
H28 H -0.5280 0.5631 0.1225
C38 C -0.3415(3) 0.4150(2) 0.1609(2)
H29 H -0.3736 0.3638 0.2272
loop_
_geom_bond_atom_site_label_1
_geom_bond_atom_site_label_2
_geom_bond_site_symmetry_1
_geom_bond_site_symmetry_2
N1 C21 1_555 1_555
C1 C2 1_555 1_555
C2 H1 1_555 1_555
C3 C1 1_555 1_555
C4 C3 1_555 1_555
H2 C4 1_555 1_555
C5 C4 1_555 1_555
H3 C5 1_555 1_555
C6 C5 1_555 1_555
H4 C6 1_555 1_555
C7 C6 1_555 1_555
H5 C7 1_555 1_555
C8 C3 1_555 1_555
H6 C8 1_555 1_555
C9 C1 1_555 1_555
C10 C9 1_555 1_555
H7 C10 1_555 1_555
C11 C10 1_555 1_555
H8 C11 1_555 1_555
C12 C11 1_555 1_555
H9 C12 1_555 1_555
C13 C12 1_555 1_555
H10 C13 1_555 1_555
C14 C9 1_555 1_555
H11 C14 1_555 1_555
C15 C2 1_555 1_555
C16 C15 1_555 1_555
H12 C16 1_555 1_555
C17 C16 1_555 1_555
H13 C17 1_555 1_555
C18 C17 1_555 1_555
C19 C18 1_555 1_555
H14 C19 1_555 1_555
C20 C15 1_555 1_555
H15 C20 1_555 1_555
C21 C22 1_555 1_555
C22 H16 1_555 1_555
C23 C22 1_555 1_555
H17 C23 1_555 1_555
C24 C18 1_555 1_555
C25 C24 1_555 1_555
H18 C25 1_555 1_555
C26 C21 1_555 1_555
H19 C26 1_555 1_555
C27 N1 1_555 1_555
C28 C27 1_555 1_555
H20 C28 1_555 1_555
C29 C28 1_555 1_555
H21 C29 1_555 1_555
C30 C29 1_555 1_555
H22 C30 1_555 1_555
C31 C30 1_555 1_555
H23 C31 1_555 1_555
C32 C27 1_555 1_555
H24 C32 1_555 1_555
C33 N1 1_555 1_555
C34 C33 1_555 1_555
H25 C34 1_555 1_555
C35 C34 1_555 1_555
H26 C35 1_555 1_555
C36 C35 1_555 1_555
H27 C36 1_555 1_555
C37 C36 1_555 1_555
H28 C37 1_555 1_555
C38 C33 1_555 1_555
H29 C38 1_555 1_555
C7 C8 1_555 1_555
C13 C14 1_555 1_555
C19 C20 1_555 1_555
C23 C24 1_555 1_555
C25 C26 1_555 1_555
C31 C32 1_555 1_555
C37 C38 1_555 1_555

#END
