
#######################################################################
#
#                 Cambridge Crystallographic Data Centre
#                                CCDC 
#
#######################################################################
#
# If this CIF has been generated from an entry in the Cambridge 
# Structural Database, then it will include bibliographic, chemical, 
# crystal, experimental, refinement or atomic coordinate data resulting 
# from the CCDC's data processing and validation procedures.
#
#######################################################################

data_JAJPOC
_chemical_formula_moiety         'C52 H35 F3 N4'
_chemical_name_systematic        
'2-(4-(trifluoromethyl)benzyl)-5,10,15,20-tetraphenyl-2-aza-21-carbaporphyrin unknown solvate'
_symmetry_cell_setting           triclinic
_symmetry_space_group_name_H-M   'P -1'
_symmetry_Int_Tables_number      2
_space_group_name_Hall           '-P 1'
loop_
_symmetry_equiv_pos_site_id
_symmetry_equiv_pos_as_xyz
1 x,y,z
2 -x,-y,-z
_cell_length_a                   9.8920(10)
_cell_length_b                   13.7453(14)
_cell_length_c                   16.7978(13)
_cell_angle_alpha                83.466(7)
_cell_angle_beta                 79.147(7)
_cell_angle_gamma                73.611(9)
_cell_volume                     2147.51
_exptl_crystal_colour            blue
_exptl_crystal_description       parallelepiped
_cell_formula_units_Z            2
loop_
_atom_site_label
_atom_site_type_symbol
_atom_site_fract_x
_atom_site_fract_y
_atom_site_fract_z
N1 N 0.35025(18) 1.05599(13) 1.10104(10)
N2 N 0.39432(18) 0.84736(13) 1.17491(11)
H1 H 0.376(3) 0.869(2) 1.1276(17)
N3 N 0.28301(18) 0.78503(13) 1.04239(10)
N4 N 0.08035(18) 1.02866(13) 0.89451(10)
C1 C 0.3380(2) 1.14654(15) 1.05236(12)
C2 C 0.3987(2) 1.21483(16) 1.08637(13)
H2 H 0.4066 1.2800 1.0640
C3 C 0.4411(2) 1.16726(16) 1.15539(12)
H3 H 0.4832 1.1929 1.1919
C4 C 0.4101(2) 1.06878(15) 1.16349(12)
C5 C 0.4398(2) 0.99417(15) 1.22935(12)
C6 C 0.4280(2) 0.89516(15) 1.23353(12)
C7 C 0.4404(2) 0.82334(16) 1.30299(13)
H4 H 0.4634 0.8343 1.3531
C8 C 0.4140(2) 0.73815(16) 1.28532(13)
H5 H 0.4145 0.6793 1.3211
C9 C 0.3848(2) 0.75061(15) 1.20326(12)
C10 C 0.3558(2) 0.67881(15) 1.16212(13)
C11 C 0.3239(2) 0.69382(15) 1.08125(12)
C12 C 0.3300(2) 0.61201(16) 1.03107(13)
H6 H 0.3576 0.5411 1.0451
C13 C 0.2884(2) 0.65750(16) 0.96095(13)
H7 H 0.2821 0.6246 0.9155
C14 C 0.2551(2) 0.76611(15) 0.96812(12)
C15 C 0.1967(2) 0.84089(15) 0.91182(12)
C16 C 0.1869(2) 0.94566(15) 0.91986(11)
C17 C 0.2716(2) 0.98485(15) 0.95735(11)
H8 H 0.3516 0.9461 0.9811
C18 C 0.2198(2) 1.09113(15) 0.95452(11)
C19 C 0.0989(2) 1.11432(15) 0.91648(12)
H9 H 0.0392 1.1807 0.9076
C20 C 0.2701(2) 1.16662(15) 0.98496(12)
C21 C 0.4828(2) 1.02652(16) 1.30110(12)
C22 C 0.3903(3) 1.10486(17) 1.34661(13)
H10 H 0.2994 1.1377 1.3319
C23 C 0.4290(3) 1.1352(2) 1.41252(14)
H11 H 0.3643 1.1884 1.4430
C24 C 0.5611(3) 1.0889(2) 1.43460(15)
H12 H 0.5875 1.1104 1.4798
C25 C 0.6544(3) 1.0112(2) 1.39048(15)
H13 H 0.7454 0.9792 1.4054
C26 C 0.6155(2) 0.97979(18) 1.32433(14)
H14 H 0.6799 0.9259 1.2946
C27 C 0.3488(3) 0.57859(16) 1.20611(13)
C28 C 0.4663(3) 0.50944(19) 1.23179(16)
H15 H 0.5558 0.5251 1.2227
C29 C 0.4534(4) 0.4163(2) 1.27123(19)
H16 H 0.5344 0.3687 1.2885
C30 C 0.3239(5) 0.3933(2) 1.28509(19)
H17 H 0.3154 0.3302 1.3122
C31 C 0.2077(4) 0.4612(2) 1.25992(18)
H18 H 0.1182 0.4455 1.2699
C32 C 0.2196(3) 0.5528(2) 1.22001(16)
H19 H 0.1383 0.5989 1.2018
C33 C 0.1478(2) 0.80753(15) 0.84301(12)
C34 C 0.0385(2) 0.75892(16) 0.85846(13)
H20 H -0.0056 0.7480 0.9128
C35 C -0.0066(3) 0.72626(18) 0.79508(14)
H21 H -0.0835 0.6955 0.8061
C36 C 0.0610(3) 0.73872(18) 0.71568(14)
H22 H 0.0324 0.7147 0.6724
C37 C 0.1698(3) 0.78620(19) 0.70000(13)
H23 H 0.2166 0.7941 0.6458
C38 C 0.2116(2) 0.82256(17) 0.76272(13)
H24 H 0.2837 0.8578 0.7509
C39 C 0.2394(2) 1.26814(15) 0.94004(12)
C40 C 0.2540(2) 1.27397(17) 0.85522(13)
H25 H 0.2889 1.2132 0.8272
C41 C 0.2186(3) 1.3667(2) 0.81126(16)
H26 H 0.2287 1.3690 0.7538
C42 C 0.1683(3) 1.45615(18) 0.85124(17)
H27 H 0.1434 1.5197 0.8213
C43 C 0.1546(2) 1.45217(17) 0.93489(17)
H28 H 0.1213 1.5134 0.9622
C44 C 0.1888(2) 1.35984(16) 0.97923(14)
H29 H 0.1781 1.3584 1.0367
C45 C -0.0461(2) 1.02996(16) 0.85931(12)
H30 H -0.1313 1.0753 0.8901
H31 H -0.0596 0.9606 0.8664
C46 C -0.0374(2) 1.06482(16) 0.77030(12)
C47 C -0.0844(2) 1.0133(2) 0.71921(14)
H32 H -0.1106 0.9525 0.7392
C48 C -0.0937(3) 1.0494(2) 0.63934(15)
H33 H -0.1279 1.0143 0.6053
C49 C -0.0532(3) 1.1362(2) 0.60949(15)
C50 C -0.0030(3) 1.1885(2) 0.65962(15)
H34 H 0.0258 1.2482 0.6391
C51 C 0.0039(3) 1.1519(2) 0.73912(14)
H35 H 0.0376 1.1871 0.7733
C52 C -0.0652(4) 1.1780(3) 0.52450(18)
F1 F -0.1235(4) 1.1210(3) 0.48486(15)
F2 F 0.0587(3) 1.1712(3) 0.47791(13)
F3 F -0.1447(6) 1.2700(3) 0.51867(17)
F4? F -0.189(3) 1.217(2) 0.5119(11)
F5? F -0.0042(19) 1.1305(17) 0.4678(8)
F6? F -0.002(3) 1.2637(15) 0.5025(9)
loop_
_geom_bond_atom_site_label_1
_geom_bond_atom_site_label_2
_geom_bond_site_symmetry_1
_geom_bond_site_symmetry_2
N1 C1 1_555 1_555
N2 H1 1_555 1_555
N3 C11 1_555 1_555
N4 C16 1_555 1_555
C1 C2 1_555 1_555
C2 H2 1_555 1_555
C3 C2 1_555 1_555
H3 C3 1_555 1_555
C4 N1 1_555 1_555
C5 C4 1_555 1_555
C6 N2 1_555 1_555
C7 C6 1_555 1_555
H4 C7 1_555 1_555
C8 C7 1_555 1_555
H5 C8 1_555 1_555
C9 N2 1_555 1_555
C10 C9 1_555 1_555
C11 C10 1_555 1_555
C12 C11 1_555 1_555
H6 C12 1_555 1_555
C13 C12 1_555 1_555
H7 C13 1_555 1_555
C14 N3 1_555 1_555
C15 C14 1_555 1_555
C16 C15 1_555 1_555
C17 C16 1_555 1_555
H8 C17 1_555 1_555
C18 C17 1_555 1_555
C19 N4 1_555 1_555
H9 C19 1_555 1_555
C20 C1 1_555 1_555
C21 C5 1_555 1_555
C22 C21 1_555 1_555
H10 C22 1_555 1_555
C23 C22 1_555 1_555
H11 C23 1_555 1_555
C24 C23 1_555 1_555
H12 C24 1_555 1_555
C25 C24 1_555 1_555
H13 C25 1_555 1_555
C26 C21 1_555 1_555
H14 C26 1_555 1_555
C27 C10 1_555 1_555
C28 C27 1_555 1_555
H15 C28 1_555 1_555
C29 C28 1_555 1_555
H16 C29 1_555 1_555
C30 C29 1_555 1_555
H17 C30 1_555 1_555
C31 C30 1_555 1_555
H18 C31 1_555 1_555
C32 C27 1_555 1_555
H19 C32 1_555 1_555
C33 C15 1_555 1_555
C34 C33 1_555 1_555
H20 C34 1_555 1_555
C35 C34 1_555 1_555
H21 C35 1_555 1_555
C36 C35 1_555 1_555
H22 C36 1_555 1_555
C37 C36 1_555 1_555
H23 C37 1_555 1_555
C38 C33 1_555 1_555
H24 C38 1_555 1_555
C39 C20 1_555 1_555
C40 C39 1_555 1_555
H25 C40 1_555 1_555
C41 C40 1_555 1_555
H26 C41 1_555 1_555
C42 C41 1_555 1_555
H27 C42 1_555 1_555
C43 C42 1_555 1_555
H28 C43 1_555 1_555
C44 C39 1_555 1_555
H29 C44 1_555 1_555
C45 N4 1_555 1_555
H30 C45 1_555 1_555
H31 C45 1_555 1_555
C46 C45 1_555 1_555
C47 C46 1_555 1_555
H32 C47 1_555 1_555
C48 C47 1_555 1_555
H33 C48 1_555 1_555
C49 C48 1_555 1_555
C50 C49 1_555 1_555
H34 C50 1_555 1_555
C51 C46 1_555 1_555
H35 C51 1_555 1_555
C52 C49 1_555 1_555
F1 C52 1_555 1_555
F2 C52 1_555 1_555
F3 C52 1_555 1_555
C3 C4 1_555 1_555
C5 C6 1_555 1_555
C8 C9 1_555 1_555
C13 C14 1_555 1_555
C18 C19 1_555 1_555
C18 C20 1_555 1_555
C25 C26 1_555 1_555
C31 C32 1_555 1_555
C37 C38 1_555 1_555
C43 C44 1_555 1_555
C50 C51 1_555 1_555

#END
