
#######################################################################
#
#                 Cambridge Crystallographic Data Centre
#                                CCDC 
#
#######################################################################
#
# If this CIF has been generated from an entry in the Cambridge 
# Structural Database, then it will include bibliographic, chemical, 
# crystal, experimental, refinement or atomic coordinate data resulting 
# from the CCDC's data processing and validation procedures.
#
#######################################################################

data_JAJWAT
_chemical_formula_moiety         'C36 H28 Br2 N2 O4,0.5(C1 H2 Cl2)'
_chemical_name_systematic        
"N,N'-Dicyclohexyl-1,7-dibromoperylene-3,4:9,10-tetracarboxylic acid bisimide dichloromethane solvate"
_symmetry_cell_setting           triclinic
_symmetry_space_group_name_H-M   'P -1'
_symmetry_Int_Tables_number      2
_space_group_name_Hall           '-P 1'
loop_
_symmetry_equiv_pos_site_id
_symmetry_equiv_pos_as_xyz
1 x,y,z
2 -x,-y,-z
_cell_length_a                   10.9311(8)
_cell_length_b                   14.0064(10)
_cell_length_c                   21.9075(16)
_cell_angle_alpha                72.6050(10)
_cell_angle_beta                 81.3230(10)
_cell_angle_gamma                70.8890(10)
_cell_volume                     3019.13
_exptl_crystal_colour            colorless
_exptl_crystal_description       block
_chemical_melting_point          'above 400 deg.C'
_cell_formula_units_Z            4
loop_
_atom_site_label
_atom_site_type_symbol
_atom_site_fract_x
_atom_site_fract_y
_atom_site_fract_z
C1 C 0.519(3) 0.6191(12) 0.5122(7)
H1 H 0.4343 0.6603 0.4935
H2 H 0.5707 0.6665 0.5098
Cl1 Cl 0.6049(15) 0.5149(11) 0.4759(6)
Cl2 Cl 0.5007(13) 0.5403(9) 0.5923(6)
Br1 Br 0.36488(5) 0.75857(4) 0.09873(3)
Br2 Br 0.63841(6) 1.18612(4) 0.16775(3)
N3 N 0.4319(5) 0.8675(4) 0.4103(2)
N4 N 0.7868(4) 0.9282(3) -0.11204(18)
O5 O 0.3775(4) 0.7235(4) 0.41115(19)
O6 O 0.4729(5) 1.0197(4) 0.40288(19)
O7 O 0.6476(3) 0.8413(3) -0.11932(16)
O8 O 0.9226(3) 1.0143(3) -0.10072(15)
C45 C 0.4758(6) 0.9536(6) 0.3777(3)
C46 C 0.4265(5) 0.7914(5) 0.3818(2)
C47 C 0.5238(5) 0.9606(4) 0.3093(2)
C48 C 0.4778(5) 0.8003(4) 0.3143(2)
C49 C 0.5225(4) 0.8846(4) 0.2795(2)
C50 C 0.5627(5) 1.0458(5) 0.2742(2)
H41 H 0.5589 1.0990 0.2936
C51 C 0.6078(5) 1.0550(4) 0.2101(2)
C52 C 0.6169(4) 0.9788(4) 0.1793(2)
C53 C 0.5624(4) 0.8972(4) 0.2135(2)
C54 C 0.5417(4) 0.8269(4) 0.1821(2)
C55 C 0.5058(5) 0.7396(4) 0.2202(2)
H42 H 0.5016 0.6886 0.2008
C56 C 0.4761(5) 0.7252(4) 0.2859(2)
H43 H 0.4548 0.6639 0.3110
C57 C 0.6789(4) 0.9748(3) 0.1149(2)
C58 C 0.5596(4) 0.8515(3) 0.1121(2)
C59 C 0.6420(4) 0.9150(3) 0.0819(2)
C60 C 0.7737(4) 1.0216(4) 0.0863(2)
H44 H 0.8041 1.0562 0.1094
C61 C 0.8263(4) 1.0199(3) 0.0246(2)
H45 H 0.8927 1.0518 0.0066
C62 C 0.5051(4) 0.8178(3) 0.0714(2)
C63 C 0.5444(4) 0.8296(3) 0.0069(2)
H46 H 0.5044 0.8062 -0.0191
C64 C 0.6411(4) 0.8753(3) -0.0195(2)
C65 C 0.6894(4) 0.9200(3) 0.0173(2)
C66 C 0.7829(4) 0.9725(3) -0.0106(2)
C67 C 0.8376(4) 0.9732(4) -0.0774(2)
C68 C 0.6904(4) 0.8792(3) -0.0873(2)
C69 C 0.3656(12) 0.8571(15) 0.4753(6)
C70 C 0.4544(10) 0.8162(12) 0.5258(5)
H47 H 0.5093 0.8627 0.5193
H48 H 0.5121 0.7461 0.5233
C71 C 0.3860(11) 0.8069(11) 0.5920(5)
H49 H 0.4477 0.7985 0.6234
H50 H 0.3561 0.7437 0.6049
C72 C 0.2683(10) 0.9051(11) 0.5930(5)
H51 H 0.2282 0.9007 0.6370
H52 H 0.2958 0.9694 0.5777
C73 C 0.1712(13) 0.9072(18) 0.5479(7)
H53 H 0.1405 0.8447 0.5658
H54 H 0.0951 0.9700 0.5466
C74 C 0.2274(13) 0.909(2) 0.4799(7)
H55 H 0.1823 0.8743 0.4611
H56 H 0.2097 0.9826 0.4540
C81 C 0.8252(10) 0.9373(8) -0.1826(6)
C82 C 0.9637(10) 0.8688(9) -0.1904(5)
H67 H 1.0242 0.8969 -0.1768
H68 H 0.9734 0.7968 -0.1628
C83 C 0.9975(10) 0.8659(9) -0.2595(5)
H69 H 0.9438 0.8302 -0.2715
H70 H 1.0897 0.8250 -0.2644
C84 C 0.9748(14) 0.9760(10) -0.3044(7)
H71 H 0.9891 0.9717 -0.3493
H72 H 1.0385 1.0073 -0.2969
C85 C 0.8377(11) 1.0469(7) -0.2944(5)
H73 H 0.8297 1.1190 -0.3216
H74 H 0.7744 1.0214 -0.3079
C86 C 0.8060(13) 1.0492(7) -0.2247(5)
H75 H 0.7150 1.0921 -0.2192
H76 H 0.8634 1.0811 -0.2121
N1 N 0.8870(5) 0.6786(4) 0.3506(2)
N2 N 0.7697(6) 0.5963(4) -0.1357(3)
O1 O 0.9660(6) 0.8134(4) 0.2986(2)
O2 O 0.7927(9) 0.5491(5) 0.3987(3)
O3 O 0.5755(5) 0.5701(4) -0.0970(3)
O4 O 0.9703(5) 0.6157(4) -0.1697(2)
C3 C 0.8314(8) 0.6020(5) 0.3491(3)
C4 C 0.9262(6) 0.7441(5) 0.2957(3)
C5 C 0.8196(5) 0.5886(4) 0.2862(3)
C6 C 0.9203(5) 0.7267(4) 0.2326(3)
C7 C 0.8645(5) 0.6504(4) 0.2294(3)
C8 C 0.7657(6) 0.5141(4) 0.2833(3)
H5 H 0.7410 0.4689 0.3215
C9 C 0.7476(5) 0.5057(4) 0.2239(3)
C10 C 0.7826(5) 0.5682(4) 0.1662(3)
C11 C 0.8563(5) 0.6347(4) 0.1696(3)
C12 C 0.9690(5) 0.7832(4) 0.1777(3)
H6 H 1.0010 0.8378 0.1793
C13 C 0.9720(5) 0.7611(4) 0.1198(3)
H7 H 1.0098 0.7993 0.0826
C14 C 0.9212(4) 0.6846(3) 0.1142(2)
C15 C 0.9288(5) 0.6555(3) 0.0547(2)
C16 C 0.7509(5) 0.5758(4) 0.1022(3)
C17 C 0.8299(5) 0.6128(4) 0.0484(3)
C18 C 0.6434(5) 0.5518(4) 0.0906(3)
H8 H 0.5871 0.5301 0.1257
C19 C 0.6168(6) 0.5590(4) 0.0284(3)
H9 H 0.5391 0.5481 0.0216
C20 C 0.8114(5) 0.6055(4) -0.0126(3)
C21 C 1.0199(5) 0.6654(4) 0.0031(3)
C22 C 1.0096(5) 0.6458(4) -0.0548(3)
H10 H 1.0767 0.6489 -0.0877
C23 C 0.9026(5) 0.6222(4) -0.0639(3)
C24 C 0.7005(6) 0.5814(4) -0.0220(3)
C25 C 0.6766(7) 0.5829(5) -0.0873(4)
C26 C 0.8862(6) 0.6109(4) -0.1270(3)
C27 C 0.8983(7) 0.6884(6) 0.4156(3)
C28 C 1.0373(7) 0.6686(7) 0.4294(4)
H11 H 1.0903 0.5985 0.4248
H12 H 1.0733 0.7216 0.3981
C29 C 1.0444(9) 0.6743(8) 0.4966(4)
H13 H 1.1332 0.6730 0.5022
H14 H 1.0271 0.6118 0.5278
C30 C 0.9460(8) 0.7745(8) 0.5114(4)
H15 H 0.9472 0.7699 0.5573
H16 H 0.9733 0.8364 0.4859
C31 C 0.8116(7) 0.7896(7) 0.4965(3)
H17 H 0.7550 0.8579 0.5025
H18 H 0.7789 0.7339 0.5270
C32 C 0.8038(7) 0.7865(6) 0.4285(3)
H19 H 0.7148 0.7893 0.4223
H20 H 0.8233 0.8485 0.3978
C33 C 0.7269(10) 0.6014(7) -0.1966(4)
C34 C 0.8018(14) 0.5016(9) -0.2155(5)
H21 H 0.7871 0.4404 -0.1819
H22 H 0.8957 0.4940 -0.2196
C35 C 0.7577(18) 0.5046(8) -0.2795(6)
H23 H 0.8136 0.4420 -0.2931
H24 H 0.6677 0.5004 -0.2729
C36 C 0.7622(13) 0.6005(8) -0.3320(5)
H25 H 0.8537 0.5980 -0.3450
H26 H 0.7209 0.6020 -0.3697
C37 C 0.6938(15) 0.6979(8) -0.3111(5)
H27 H 0.5995 0.7072 -0.3068
H28 H 0.7088 0.7587 -0.3450
C38 C 0.7365(12) 0.6985(8) -0.2475(5)
H29 H 0.8270 0.7012 -0.2531
H30 H 0.6803 0.7615 -0.2344
Br3 Br 1.17408(5) 0.69921(4) 0.00565(3)
Br4 Br 0.67844(7) 0.39417(5) 0.22935(4)
C2? C 0.605(6) 0.425(2) 0.5421(13)
H3? H 0.5262 0.4084 0.5659
H4? H 0.6776 0.3590 0.5470
Cl3? Cl 0.576(2) 0.4903(17) 0.4593(10)
Cl4? Cl 0.644(2) 0.5201(15) 0.5686(8)
C39? C 0.790(2) 0.5824(14) -0.2088(9)
C40? C 0.771(3) 0.4814(15) -0.2105(10)
H31? H 0.6867 0.4763 -0.1881
H32? H 0.8403 0.4214 -0.1874
C41? C 0.774(4) 0.4753(16) -0.2795(11)
H33? H 0.8636 0.4650 -0.2985
H34? H 0.7480 0.4133 -0.2785
C42? C 0.686(2) 0.5708(15) -0.3214(10)
H35? H 0.6994 0.5652 -0.3660
H36? H 0.5946 0.5751 -0.3069
C43? C 0.712(3) 0.6680(16) -0.3193(9)
H37? H 0.6489 0.7297 -0.3450
H38? H 0.7999 0.6674 -0.3392
C44? C 0.704(3) 0.6794(15) -0.2509(10)
H39? H 0.7305 0.7411 -0.2522
H40? H 0.6131 0.6909 -0.2329
C75? C 0.3878(19) 0.8667(18) 0.4818(8)
C76? C 0.4400(13) 0.7635(13) 0.5251(6)
H57? H 0.5359 0.7439 0.5227
H58? H 0.4149 0.7107 0.5124
C77? C 0.3874(12) 0.7654(16) 0.5932(6)
H59? H 0.4162 0.8157 0.6067
H60? H 0.4211 0.6950 0.6228
C78? C 0.2375(11) 0.7983(12) 0.5960(5)
H61? H 0.2089 0.7448 0.5858
H62? H 0.2025 0.8028 0.6398
C79? C 0.185(2) 0.906(2) 0.5475(9)
H63? H 0.0904 0.9199 0.5452
H64? H 0.1963 0.9607 0.5639
C80? C 0.2482(19) 0.915(3) 0.4800(9)
H65? H 0.2115 0.8804 0.4571
H66? H 0.2293 0.9900 0.4561
C87? C 0.8535(14) 0.9170(16) -0.1767(9)
C88? C 1.0012(14) 0.8850(15) -0.1845(8)
H77? H 1.0328 0.9415 -0.1807
H78? H 1.0384 0.8207 -0.1505
C89? C 1.0430(16) 0.8648(15) -0.2498(8)
H79? H 1.0165 0.8048 -0.2520
H80? H 1.1387 0.8461 -0.2560
C90? C 0.983(2) 0.9608(19) -0.3031(11)
H81? H 1.0002 0.9413 -0.3441
H82? H 1.0251 1.0152 -0.3071
C91? C 0.837(2) 1.0072(14) -0.2919(8)
H83? H 0.8068 1.0759 -0.3238
H84? H 0.7922 0.9602 -0.2988
C92? C 0.799(2) 1.0219(13) -0.2250(9)
H85? H 0.7030 1.0462 -0.2185
H86? H 0.8338 1.0752 -0.2192
loop_
_geom_bond_atom_site_label_1
_geom_bond_atom_site_label_2
_geom_bond_site_symmetry_1
_geom_bond_site_symmetry_2
C1 H1 1_555 1_555
H2 C1 1_555 1_555
Cl1 C1 1_555 1_555
Cl2 C1 1_555 1_555
Br1 C62 1_555 1_555
Br2 C51 1_555 1_555
N1 C3 1_555 1_555
N2 C25 1_555 1_555
O1 C4 1_555 1_555
O2 C3 1_555 1_555
O3 C25 1_555 1_555
O4 C26 1_555 1_555
C3 C5 1_555 1_555
C4 N1 1_555 1_555
C5 C7 1_555 1_555
C6 C4 1_555 1_555
C7 C6 1_555 1_555
C8 C5 1_555 1_555
H5 C8 1_555 1_555
C9 C8 1_555 1_555
C10 C9 1_555 1_555
C11 C7 1_555 1_555
C12 C6 1_555 1_555
H6 C12 1_555 1_555
C13 C12 1_555 1_555
H7 C13 1_555 1_555
C14 C11 1_555 1_555
C15 C14 1_555 1_555
C16 C10 1_555 1_555
C17 C15 1_555 1_555
C18 C16 1_555 1_555
H8 C18 1_555 1_555
C19 C18 1_555 1_555
H9 C19 1_555 1_555
C20 C17 1_555 1_555
C21 C15 1_555 1_555
C22 C21 1_555 1_555
H10 C22 1_555 1_555
C23 C20 1_555 1_555
C24 C19 1_555 1_555
C25 C24 1_555 1_555
C26 N2 1_555 1_555
C27 N1 1_555 1_555
C28 C27 1_555 1_555
H11 C28 1_555 1_555
H12 C28 1_555 1_555
C29 C28 1_555 1_555
H13 C29 1_555 1_555
H14 C29 1_555 1_555
C30 C29 1_555 1_555
H15 C30 1_555 1_555
H16 C30 1_555 1_555
C31 C30 1_555 1_555
H17 C31 1_555 1_555
H18 C31 1_555 1_555
C32 C27 1_555 1_555
H19 C32 1_555 1_555
H20 C32 1_555 1_555
C33 N2 1_555 1_555
C34 C33 1_555 1_555
H21 C34 1_555 1_555
H22 C34 1_555 1_555
C35 C34 1_555 1_555
H23 C35 1_555 1_555
H24 C35 1_555 1_555
C36 C35 1_555 1_555
H25 C36 1_555 1_555
H26 C36 1_555 1_555
C37 C36 1_555 1_555
H27 C37 1_555 1_555
H28 C37 1_555 1_555
C38 C33 1_555 1_555
H29 C38 1_555 1_555
H30 C38 1_555 1_555
Br3 C21 1_555 1_555
N3 C45 1_555 1_555
N4 C67 1_555 1_555
O5 C46 1_555 1_555
O6 C45 1_555 1_555
O7 C68 1_555 1_555
O8 C67 1_555 1_555
Br4 C9 1_555 1_555
C45 C47 1_555 1_555
C46 N3 1_555 1_555
C47 C49 1_555 1_555
C48 C46 1_555 1_555
C49 C48 1_555 1_555
C50 C47 1_555 1_555
H41 C50 1_555 1_555
C51 C50 1_555 1_555
C52 C51 1_555 1_555
C53 C49 1_555 1_555
C54 C53 1_555 1_555
C55 C54 1_555 1_555
H42 C55 1_555 1_555
C56 C48 1_555 1_555
H43 C56 1_555 1_555
C57 C52 1_555 1_555
C58 C54 1_555 1_555
C59 C57 1_555 1_555
C60 C57 1_555 1_555
H44 C60 1_555 1_555
C61 C60 1_555 1_555
H45 C61 1_555 1_555
C62 C58 1_555 1_555
C63 C62 1_555 1_555
H46 C63 1_555 1_555
C64 C63 1_555 1_555
C65 C59 1_555 1_555
C66 C61 1_555 1_555
C67 C66 1_555 1_555
C68 N4 1_555 1_555
C69 N3 1_555 1_555
C70 C69 1_555 1_555
H47 C70 1_555 1_555
H48 C70 1_555 1_555
C71 C70 1_555 1_555
H49 C71 1_555 1_555
H50 C71 1_555 1_555
C72 C71 1_555 1_555
H51 C72 1_555 1_555
H52 C72 1_555 1_555
C73 C72 1_555 1_555
H53 C73 1_555 1_555
H54 C73 1_555 1_555
C74 C69 1_555 1_555
H55 C74 1_555 1_555
H56 C74 1_555 1_555
C81 N4 1_555 1_555
C82 C81 1_555 1_555
H67 C82 1_555 1_555
H68 C82 1_555 1_555
C83 C82 1_555 1_555
H69 C83 1_555 1_555
H70 C83 1_555 1_555
C84 C83 1_555 1_555
H71 C84 1_555 1_555
H72 C84 1_555 1_555
C85 C84 1_555 1_555
H73 C85 1_555 1_555
H74 C85 1_555 1_555
C86 C81 1_555 1_555
H75 C86 1_555 1_555
H76 C86 1_555 1_555
C10 C11 1_555 1_555
C13 C14 1_555 1_555
C16 C17 1_555 1_555
C20 C24 1_555 1_555
C22 C23 1_555 1_555
C23 C26 1_555 1_555
C31 C32 1_555 1_555
C37 C38 1_555 1_555
C52 C53 1_555 1_555
C55 C56 1_555 1_555
C58 C59 1_555 1_555
C64 C65 1_555 1_555
C64 C68 1_555 1_555
C65 C66 1_555 1_555
C73 C74 1_555 1_555
C85 C86 1_555 1_555

#END
