
#######################################################################
#
#                 Cambridge Crystallographic Data Centre
#                                CCDC 
#
#######################################################################
#
# If this CIF has been generated from an entry in the Cambridge 
# Structural Database, then it will include bibliographic, chemical, 
# crystal, experimental, refinement or atomic coordinate data resulting 
# from the CCDC's data processing and validation procedures.
#
#######################################################################

data_JAJWUP
_chemical_formula_moiety         'C34 H36 N4 O2 S2'
_chemical_name_systematic        
1-hexyl-3-(1-hexyl-2-oxo-6-(2-thienyl)-1,2-dihydro-3H-pyrrolo[2,3-b]pyridin-3-ylidene)-6-(2-thienyl)-1,3-dihydro-2H-pyrrolo[2,3-b]pyridin-2-one
_symmetry_cell_setting           triclinic
_symmetry_space_group_name_H-M   'P -1'
_symmetry_Int_Tables_number      2
_space_group_name_Hall           '-P 1'
loop_
_symmetry_equiv_pos_site_id
_symmetry_equiv_pos_as_xyz
1 x,y,z
2 -x,-y,-z
_cell_length_a                   5.02134(9)
_cell_length_b                   9.79352(18)
_cell_length_c                   16.0988(3)
_cell_angle_alpha                99.8742(10)
_cell_angle_beta                 98.6417(11)
_cell_angle_gamma                101.4850(10)
_cell_volume                     750.269
_exptl_crystal_colour            brown
_exptl_crystal_description       needle
_cell_formula_units_Z            1
loop_
_atom_site_label
_atom_site_type_symbol
_atom_site_fract_x
_atom_site_fract_y
_atom_site_fract_z
S1 S 0.2588(6) 0.8695(3) 0.27340(15)
O1 O 0.9617(2) 0.32330(11) 0.11116(6)
N1 N 0.7273(2) 0.49245(12) 0.15162(7)
N2 N 0.5365(2) 0.69518(12) 0.16717(7)
C1 C 0.116(3) 1.0163(9) 0.2872(8)
H1 H 0.0225 1.0389 0.3315
C2 C 0.155(4) 1.0952(17) 0.2267(9)
H2 H 0.0925 1.1781 0.2246
C3 C 0.3654(3) 0.90698(15) 0.18408(9)
C4 C 0.5102(3) 0.81392(14) 0.13705(9)
C5 C 0.6196(3) 0.84573(16) 0.06639(10)
H3 H 0.5977 0.9281 0.0474
C6 C 0.7607(3) 0.75664(16) 0.02376(9)
H4 H 0.8319 0.7781 -0.0238
C7 C 0.7941(3) 0.63462(14) 0.05340(8)
C8 C 0.6746(3) 0.61415(14) 0.12594(8)
C9 C 0.9286(3) 0.51750(14) 0.03207(8)
C10 C 0.8820(3) 0.42948(14) 0.10024(9)
C11 C 0.6315(3) 0.43774(15) 0.22363(8)
H5 H 0.6488 0.3399 0.2187
H6 H 0.4368 0.4376 0.2200
C12 C 0.7900(3) 0.52347(15) 0.31070(9)
H7 H 0.7690 0.6208 0.3167
H8 H 0.9853 0.5253 0.3144
C13 C 0.6876(3) 0.46068(17) 0.38393(10)
H9 H 0.7537 0.5318 0.4368
H10 H 0.4869 0.4403 0.3728
C14 C 0.7785(3) 0.32549(16) 0.39684(9)
H11 H 0.9790 0.3447 0.4065
H12 H 0.7073 0.2529 0.3448
C15 C 0.6799(3) 0.26832(18) 0.47207(10)
H13 H 0.7327 0.3445 0.5228
H14 H 0.4794 0.2389 0.4593
C16 C 0.7960(4) 0.1442(2) 0.49153(12)
H15 H 0.7396 0.0671 0.4423
H16 H 0.7279 0.1138 0.5396
H17 H 0.9944 0.1728 0.5051
C17 C 0.3021(18) 1.0351(8) 0.1669(5)
H18 H 0.3516 1.0753 0.1215
S1A S 1.7412(6) 0.1305(3) -0.27340(15)
O1A O 1.0383(2) 0.67670(11) -0.11116(6)
N1A N 1.2727(2) 0.50755(12) -0.15162(7)
N2A N 1.4635(2) 0.30482(12) -0.16717(7)
C1A C 1.884(3) -0.0163(9) -0.2872(8)
H1A H 1.9775 -0.0389 -0.3315
C2A C 1.845(4) -0.0952(17) -0.2267(9)
H2A H 1.9075 -0.1781 -0.2246
C3A C 1.6346(3) 0.09302(15) -0.18408(9)
C4A C 1.4898(3) 0.18608(14) -0.13705(9)
C5A C 1.3804(3) 0.15427(16) -0.06639(10)
H3A H 1.4023 0.0719 -0.0474
C6A C 1.2393(3) 0.24336(16) -0.02376(9)
H4A H 1.1681 0.2219 0.0238
C7A C 1.2059(3) 0.36538(14) -0.05340(8)
C8A C 1.3254(3) 0.38585(14) -0.12594(8)
C9A C 1.0714(3) 0.48250(14) -0.03207(8)
C10A C 1.1180(3) 0.57052(14) -0.10024(9)
C11A C 1.3685(3) 0.56226(15) -0.22363(8)
H5A H 1.3512 0.6601 -0.2187
H6A H 1.5632 0.5624 -0.2200
C12A C 1.2100(3) 0.47653(15) -0.31070(9)
H7A H 1.2310 0.3792 -0.3167
H8A H 1.0147 0.4747 -0.3144
C13A C 1.3124(3) 0.53932(17) -0.38393(10)
H9A H 1.2463 0.4682 -0.4368
H10A H 1.5131 0.5597 -0.3728
C14A C 1.2215(3) 0.67451(16) -0.39684(9)
H11A H 1.0210 0.6553 -0.4065
H12A H 1.2927 0.7471 -0.3448
C15A C 1.3201(3) 0.73168(18) -0.47207(10)
H13A H 1.2673 0.6555 -0.5228
H14A H 1.5206 0.7611 -0.4593
C16A C 1.2040(4) 0.8558(2) -0.49153(12)
H15A H 1.2604 0.9329 -0.4423
H16A H 1.2721 0.8862 -0.5396
H17A H 1.0056 0.8272 -0.5051
C17A C 1.6979(18) -0.0351(8) -0.1669(5)
H18A H 1.6484 -0.0753 -0.1215
S2? S 0.3040(3) 1.05366(15) 0.15657(11)
C18? C 0.242(3) 0.8774(15) 0.2535(6)
H19? H 0.2440 0.7969 0.2767
C19? C 0.134(5) 1.089(2) 0.2362(11)
H20? H 0.0625 1.1697 0.2468
C20? C 0.113(4) 0.9877(12) 0.2833(11)
H21? H 0.0247 0.9898 0.3301
loop_
_geom_bond_atom_site_label_1
_geom_bond_atom_site_label_2
_geom_bond_site_symmetry_1
_geom_bond_site_symmetry_2
S1 C1 1_555 1_555
O1 C10 1_555 1_555
N1 C8 1_555 1_555
N2 C4 1_555 1_555
C1 H1 1_555 1_555
C2 C1 1_555 1_555
H2 C2 1_555 1_555
C3 S1 1_555 1_555
C4 C3 1_555 1_555
C5 C4 1_555 1_555
H3 C5 1_555 1_555
C6 C5 1_555 1_555
H4 C6 1_555 1_555
C7 C6 1_555 1_555
C8 N2 1_555 1_555
C9 C7 1_555 1_555
C10 N1 1_555 1_555
C11 N1 1_555 1_555
H5 C11 1_555 1_555
H6 C11 1_555 1_555
C12 C11 1_555 1_555
H7 C12 1_555 1_555
H8 C12 1_555 1_555
C13 C12 1_555 1_555
H9 C13 1_555 1_555
H10 C13 1_555 1_555
C14 C13 1_555 1_555
H11 C14 1_555 1_555
H12 C14 1_555 1_555
C15 C14 1_555 1_555
H13 C15 1_555 1_555
H14 C15 1_555 1_555
C16 C15 1_555 1_555
H15 C16 1_555 1_555
H16 C16 1_555 1_555
H17 C16 1_555 1_555
C17 C2 1_555 1_555
H18 C17 1_555 1_555
S1A C1A 1_555 1_555
O1A C10A 1_555 1_555
N1A C8A 1_555 1_555
N2A C4A 1_555 1_555
C1A H1A 1_555 1_555
C2A C1A 1_555 1_555
H2A C2A 1_555 1_555
C3A S1A 1_555 1_555
C4A C3A 1_555 1_555
C5A C4A 1_555 1_555
H3A C5A 1_555 1_555
C6A C5A 1_555 1_555
H4A C6A 1_555 1_555
C7A C6A 1_555 1_555
C8A N2A 1_555 1_555
C9A C9 1_555 1_555
C10A N1A 1_555 1_555
C11A N1A 1_555 1_555
H5A C11A 1_555 1_555
H6A C11A 1_555 1_555
C12A C11A 1_555 1_555
H7A C12A 1_555 1_555
H8A C12A 1_555 1_555
C13A C12A 1_555 1_555
H9A C13A 1_555 1_555
H10A C13A 1_555 1_555
C14A C13A 1_555 1_555
H11A C14A 1_555 1_555
H12A C14A 1_555 1_555
C15A C14A 1_555 1_555
H13A C15A 1_555 1_555
H14A C15A 1_555 1_555
C16A C15A 1_555 1_555
H15A C16A 1_555 1_555
H16A C16A 1_555 1_555
H17A C16A 1_555 1_555
C17A C2A 1_555 1_555
H18A C17A 1_555 1_555
C3 C17 1_555 1_555
C7 C8 1_555 1_555
C9 C10 1_555 1_555
C3A C17A 1_555 1_555
C7A C8A 1_555 1_555
C7A C9A 1_555 1_555
C9A C10A 1_555 1_555

#END
