
#######################################################################
#
#                 Cambridge Crystallographic Data Centre
#                                CCDC 
#
#######################################################################
#
# If this CIF has been generated from an entry in the Cambridge 
# Structural Database, then it will include bibliographic, chemical, 
# crystal, experimental, refinement or atomic coordinate data resulting 
# from the CCDC's data processing and validation procedures.
#
#######################################################################

data_JAJXAW
_chemical_formula_moiety         'C34 H36 N4 O2 S2'
_chemical_name_systematic        
1-hexyl-3-(1-hexyl-2-oxo-5-(2-thienyl)-1,2-dihydro-3H-pyrrolo[2,3-b]pyridin-3-ylidene)-5-(2-thienyl)-1,3-dihydro-2H-pyrrolo[2,3-b]pyridin-2-one
_symmetry_cell_setting           monoclinic
_symmetry_space_group_name_H-M   'P 21/c'
_symmetry_Int_Tables_number      14
_space_group_name_Hall           '-P 2ybc'
loop_
_symmetry_equiv_pos_site_id
_symmetry_equiv_pos_as_xyz
1 x,y,z
2 -x,1/2+y,1/2-z
3 -x,-y,-z
4 x,1/2-y,1/2+z
_cell_length_a                   14.00800(15)
_cell_length_b                   5.00611(6)
_cell_length_c                   21.3879(3)
_cell_angle_alpha                90
_cell_angle_beta                 104.3730(12)
_cell_angle_gamma                90
_cell_volume                     1452.89
_exptl_crystal_colour            brown
_exptl_crystal_description       plate
_cell_formula_units_Z            2
loop_
_atom_site_label
_atom_site_type_symbol
_atom_site_fract_x
_atom_site_fract_y
_atom_site_fract_z
S1 S 0.25175(4) 0.87754(11) 0.53680(2)
O1 O 0.65167(10) -0.2939(3) 0.56836(7)
N1 N 0.61928(12) 0.0268(3) 0.63626(8)
N2 N 0.54886(13) 0.3764(3) 0.68419(8)
C1 C 0.60343(14) -0.1032(4) 0.57776(9)
C2 C 0.51717(14) 0.0359(4) 0.53172(9)
C3 C 0.48604(14) 0.2446(4) 0.57108(9)
C4 C 0.55083(14) 0.2282(4) 0.63349(9)
C5 C 0.47596(15) 0.5613(4) 0.67417(9)
H1 H 0.4718 0.6729 0.7093
C6 C 0.40680(14) 0.5980(4) 0.61566(10)
C7 C 0.41259(14) 0.4352(4) 0.56299(9)
H2 H 0.3666 0.4562 0.5224
C8 C 0.33019(15) 0.8029(4) 0.60999(10)
C9 C 0.30990(13) 0.9717(4) 0.65941(8)
H3 H 0.3444 0.9654 0.7036
C10 C 0.23204(16) 1.1473(5) 0.63331(11)
H4 H 0.2079 1.2737 0.6588
C11 C 0.19400(16) 1.1216(4) 0.56871(12)
H5 H 0.1415 1.2273 0.5443
C12 C 0.69702(15) -0.0464(4) 0.69289(9)
H6 H 0.7213 -0.2275 0.6865
H7 H 0.6691 -0.0525 0.7311
C13 C 0.78374(15) 0.1490(4) 0.70603(10)
H8 H 0.7632 0.3179 0.7229
H9 H 0.8385 0.0729 0.7398
C14 C 0.82103(15) 0.2103(4) 0.64664(10)
H10 H 0.7668 0.2915 0.6134
H11 H 0.8395 0.0407 0.6290
C15 C 0.90974(16) 0.3988(5) 0.65988(11)
H12 H 0.8951 0.5580 0.6834
H13 H 0.9674 0.3071 0.6878
C16 C 0.93492(17) 0.4875(5) 0.59765(12)
H14 H 0.9519 0.3279 0.5753
H15 H 0.8758 0.5701 0.5690
C17 C 1.01998(17) 0.6857(5) 0.60787(13)
H16 H 1.0796 0.6037 0.6349
H17 H 1.0034 0.8461 0.6292
H18 H 1.0316 0.7347 0.5660
S1B S 0.74825(4) -0.87754(11) 0.46320(2)
O1B O 0.34833(10) 0.2939(3) 0.43164(7)
N1B N 0.38072(12) -0.0268(3) 0.36374(8)
N2B N 0.45114(13) -0.3764(3) 0.31581(8)
C1B C 0.39657(14) 0.1032(4) 0.42224(9)
C2B C 0.48283(14) -0.0359(4) 0.46828(9)
C3B C 0.51396(14) -0.2446(4) 0.42892(9)
C4B C 0.44917(14) -0.2282(4) 0.36651(9)
C5B C 0.52404(15) -0.5613(4) 0.32583(9)
H1B H 0.5282 -0.6729 0.2907
C6B C 0.59320(14) -0.5980(4) 0.38434(10)
C7B C 0.58741(14) -0.4352(4) 0.43701(9)
H2B H 0.6334 -0.4562 0.4776
C8B C 0.66981(15) -0.8029(4) 0.39001(10)
C9B C 0.69010(13) -0.9717(4) 0.34059(8)
H3B H 0.6556 -0.9654 0.2964
C10B C 0.76796(16) -1.1473(5) 0.36669(11)
H4B H 0.7921 -1.2737 0.3412
C11B C 0.80600(16) -1.1216(4) 0.43129(12)
H5B H 0.8585 -1.2273 0.4557
C12B C 0.30298(15) 0.0464(4) 0.30711(9)
H6B H 0.2787 0.2275 0.3135
H7B H 0.3309 0.0525 0.2689
C13B C 0.21626(15) -0.1490(4) 0.29397(10)
H8B H 0.2368 -0.3179 0.2771
H9B H 0.1615 -0.0729 0.2602
C14B C 0.17897(15) -0.2103(4) 0.35336(10)
H10B H 0.2332 -0.2915 0.3866
H11B H 0.1605 -0.0407 0.3710
C15B C 0.09026(16) -0.3988(5) 0.34012(11)
H12B H 0.1049 -0.5580 0.3166
H13B H 0.0326 -0.3071 0.3122
C16B C 0.06508(17) -0.4875(5) 0.40235(12)
H14B H 0.0481 -0.3279 0.4247
H15B H 0.1242 -0.5701 0.4310
C17B C -0.01998(17) -0.6857(5) 0.39213(13)
H16B H -0.0796 -0.6037 0.3651
H17B H -0.0034 -0.8461 0.3708
H18B H -0.0316 -0.7347 0.4340
loop_
_geom_bond_atom_site_label_1
_geom_bond_atom_site_label_2
_geom_bond_site_symmetry_1
_geom_bond_site_symmetry_2
S1 C8 1_555 1_555
O1 C1 1_555 1_555
N1 C1 1_555 1_555
N2 C4 1_555 1_555
C1 C2 1_555 1_555
C2 C3 1_555 1_555
C3 C4 1_555 1_555
C4 N1 1_555 1_555
C5 N2 1_555 1_555
H1 C5 1_555 1_555
C6 C5 1_555 1_555
C7 C3 1_555 1_555
H2 C7 1_555 1_555
C8 C6 1_555 1_555
C9 C8 1_555 1_555
H3 C9 1_555 1_555
C10 C9 1_555 1_555
H4 C10 1_555 1_555
C11 S1 1_555 1_555
H5 C11 1_555 1_555
C12 N1 1_555 1_555
H6 C12 1_555 1_555
H7 C12 1_555 1_555
C13 C12 1_555 1_555
H8 C13 1_555 1_555
H9 C13 1_555 1_555
C14 C13 1_555 1_555
H10 C14 1_555 1_555
H11 C14 1_555 1_555
C15 C14 1_555 1_555
H12 C15 1_555 1_555
H13 C15 1_555 1_555
C16 C15 1_555 1_555
H14 C16 1_555 1_555
H15 C16 1_555 1_555
C17 C16 1_555 1_555
H16 C17 1_555 1_555
H17 C17 1_555 1_555
H18 C17 1_555 1_555
S1B C8B 1_555 1_555
O1B C1B 1_555 1_555
N1B C1B 1_555 1_555
N2B C4B 1_555 1_555
C1B C2B 1_555 1_555
C2B C2 1_555 1_555
C3B C2B 1_555 1_555
C4B N1B 1_555 1_555
C5B N2B 1_555 1_555
H1B C5B 1_555 1_555
C6B C5B 1_555 1_555
C7B C3B 1_555 1_555
H2B C7B 1_555 1_555
C8B C6B 1_555 1_555
C9B C8B 1_555 1_555
H3B C9B 1_555 1_555
C10B C9B 1_555 1_555
H4B C10B 1_555 1_555
C11B S1B 1_555 1_555
H5B C11B 1_555 1_555
C12B N1B 1_555 1_555
H6B C12B 1_555 1_555
H7B C12B 1_555 1_555
C13B C12B 1_555 1_555
H8B C13B 1_555 1_555
H9B C13B 1_555 1_555
C14B C13B 1_555 1_555
H10B C14B 1_555 1_555
H11B C14B 1_555 1_555
C15B C14B 1_555 1_555
H12B C15B 1_555 1_555
H13B C15B 1_555 1_555
C16B C15B 1_555 1_555
H14B C16B 1_555 1_555
H15B C16B 1_555 1_555
C17B C16B 1_555 1_555
H16B C17B 1_555 1_555
H17B C17B 1_555 1_555
H18B C17B 1_555 1_555
C6 C7 1_555 1_555
C10 C11 1_555 1_555
C3B C4B 1_555 1_555
C6B C7B 1_555 1_555
C10B C11B 1_555 1_555

#END
