
#######################################################################
#
#                 Cambridge Crystallographic Data Centre
#                                CCDC 
#
#######################################################################
#
# If this CIF has been generated from an entry in the Cambridge 
# Structural Database, then it will include bibliographic, chemical, 
# crystal, experimental, refinement or atomic coordinate data resulting 
# from the CCDC's data processing and validation procedures.
#
#######################################################################

data_JAKCOQ
_chemical_formula_moiety         'C21 H17 F1 O2 S1 Se1'
_chemical_name_systematic        
1-fluoro-2-(2-((4-methylphenyl)sulfonyl)-1-(phenylselanyl)vinyl)benzene
_symmetry_cell_setting           monoclinic
_symmetry_space_group_name_H-M   'P 21/n'
_symmetry_Int_Tables_number      14
_space_group_name_Hall           '-P 2yn'
loop_
_symmetry_equiv_pos_site_id
_symmetry_equiv_pos_as_xyz
1 x,y,z
2 1/2-x,1/2+y,1/2-z
3 -x,-y,-z
4 1/2+x,1/2-y,1/2+z
_cell_length_a                   7.1841(14)
_cell_length_b                   18.013(4)
_cell_length_c                   14.832(3)
_cell_angle_alpha                90
_cell_angle_beta                 95.33(3)
_cell_angle_gamma                90
_cell_volume                     1911.07
_exptl_crystal_colour            colorless
_exptl_crystal_description       block
_cell_formula_units_Z            4
loop_
_atom_site_label
_atom_site_type_symbol
_atom_site_fract_x
_atom_site_fract_y
_atom_site_fract_z
Se1 Se 0.22666(7) 1.03088(3) 0.58920(3)
S1 S 0.41233(15) 0.86193(6) 0.80615(8)
C1 C 0.2484(6) 0.9449(2) 0.6644(3)
C2 C 0.4242(6) 1.0910(2) 0.6457(3)
O1 O 0.3426(5) 0.79658(18) 0.7601(2)
C3 C 0.1069(6) 0.8889(2) 0.6289(3)
O2 O 0.6062(5) 0.8648(2) 0.8390(3)
C4 C 0.3737(6) 0.9392(2) 0.7360(3)
H1 H 0.4482 0.9806 0.7500
C5 C -0.2119(7) 0.8476(3) 0.6061(4)
H2 H -0.3354 0.8514 0.6197
C6 C 0.1487(6) 0.8346(3) 0.5682(3)
C7 C 0.3816(7) 1.1463(3) 0.7051(4)
H3 H 0.2591 1.1536 0.7187
C8 C 0.6057(7) 1.0812(3) 0.6260(3)
H4 H 0.6351 1.0440 0.5863
C9 C 0.0171(8) 0.7891(3) 0.5260(4)
H5 H 0.0497 0.7539 0.4843
C10 C -0.0756(6) 0.8956(3) 0.6483(3)
H6 H -0.1088 0.9315 0.6889
C11 C 0.0713(9) 0.9070(4) 1.0439(4)
C12 C 0.0933(7) 0.8588(3) 0.8927(3)
H7 H 0.0376 0.8358 0.8410
C13 C -0.1650(8) 0.7961(3) 0.5461(4)
H8 H -0.2566 0.7651 0.5181
C14 C 0.7025(8) 1.1817(3) 0.7243(4)
H9 H 0.7966 1.2124 0.7506
C15 C 0.2782(6) 0.8783(3) 0.8979(3)
C16 C 0.3630(8) 0.9112(3) 0.9767(3)
H10 H 0.4891 0.9238 0.9812
C17 C 0.5240(8) 1.1904(3) 0.7437(4)
H11 H 0.4964 1.2273 0.7842
C18 C 0.7427(8) 1.1265(4) 0.6651(4)
H12 H 0.8654 1.1199 0.6515
C19 C 0.2570(9) 0.9246(4) 1.0475(4)
H13 H 0.3137 0.9464 1.0998
C20 C -0.0095(8) 0.8735(4) 0.9643(4)
H14 H -0.1356 0.8609 0.9599
F1 F 0.3291(6) 0.8260(3) 0.5530(3)
C21 C -0.0446(12) 0.9231(5) 1.1207(5)
H15 H 0.0324 0.9456 1.1696
H16 H -0.0961 0.8776 1.1413
H17 H -0.1443 0.9563 1.1004
loop_
_geom_bond_atom_site_label_1
_geom_bond_atom_site_label_2
_geom_bond_site_symmetry_1
_geom_bond_site_symmetry_2
Se1 C1 1_555 1_555
S1 O1 1_555 1_555
C1 C3 1_555 1_555
C2 Se1 1_555 1_555
C3 C6 1_555 1_555
O2 S1 1_555 1_555
C4 S1 1_555 1_555
H1 C4 1_555 1_555
C5 H2 1_555 1_555
C6 C9 1_555 1_555
C7 C2 1_555 1_555
H3 C7 1_555 1_555
C8 C2 1_555 1_555
H4 C8 1_555 1_555
C9 H5 1_555 1_555
C10 C3 1_555 1_555
H6 C10 1_555 1_555
C11 C19 1_555 1_555
C12 H7 1_555 1_555
C13 C5 1_555 1_555
H8 C13 1_555 1_555
C14 H9 1_555 1_555
C15 S1 1_555 1_555
C16 C15 1_555 1_555
H10 C16 1_555 1_555
C17 C7 1_555 1_555
H11 C17 1_555 1_555
C18 C8 1_555 1_555
H12 C18 1_555 1_555
C19 C16 1_555 1_555
H13 C19 1_555 1_555
C20 C11 1_555 1_555
H14 C20 1_555 1_555
F1 C6 1_555 1_555
C21 C11 1_555 1_555
H15 C21 1_555 1_555
H16 C21 1_555 1_555
H17 C21 1_555 1_555
C1 C4 1_555 1_555
C5 C10 1_555 1_555
C9 C13 1_555 1_555
C12 C15 1_555 1_555
C12 C20 1_555 1_555
C14 C17 1_555 1_555
C14 C18 1_555 1_555

#END
