
#######################################################################
#
#                 Cambridge Crystallographic Data Centre
#                                CCDC 
#
#######################################################################
#
# If this CIF has been generated from an entry in the Cambridge 
# Structural Database, then it will include bibliographic, chemical, 
# crystal, experimental, refinement or atomic coordinate data resulting 
# from the CCDC's data processing and validation procedures.
#
#######################################################################

data_JAKDUU
_chemical_formula_moiety         'C30 H22'
_chemical_name_systematic        
5,14-Dimethyldibenzo(3,4:7,8)cyclo-octa(1,2-l)phenanthrene
_symmetry_cell_setting           triclinic
_symmetry_space_group_name_H-M   'P -1'
_symmetry_Int_Tables_number      2
_space_group_name_Hall           '-P 1'
loop_
_symmetry_equiv_pos_site_id
_symmetry_equiv_pos_as_xyz
1 x,y,z
2 -x,-y,-z
_cell_length_a                   7.836(1)
_cell_length_b                   9.316(1)
_cell_length_c                   15.070(1)
_cell_angle_alpha                83.640(8)
_cell_angle_beta                 75.059(7)
_cell_angle_gamma                70.898(8)
_cell_volume                     1003.97
_exptl_crystal_colour            colorless
_cell_formula_units_Z            2
loop_
_atom_site_label
_atom_site_type_symbol
_atom_site_fract_x
_atom_site_fract_y
_atom_site_fract_z
C1 C -0.2542(2) 0.7142(2) 0.71503(11)
C2 C -0.4364(2) 0.8078(2) 0.77150(11)
C3 C -0.4361(3) 0.8976(2) 0.84015(12)
C4 C -0.2656(3) 0.8850(2) 0.86897(13)
H1 H -0.2274(3) 0.9711(2) 0.86172(13)
C5 C -0.1622(3) 0.7599(2) 0.90456(13)
H2 H -0.0579(3) 0.7653(2) 0.92092(13)
C6 C -0.2005(3) 0.6135(2) 0.91999(12)
C7 C -0.2082(3) 0.5340(2) 0.84833(12)
C8 C -0.1471(2) 0.5865(2) 0.75114(11)
C9 C -0.6052(3) 0.8140(2) 0.75277(13)
C10 C -0.7685(3) 0.9149(2) 0.80059(15)
H3 H -0.8808(3) 0.9199(2) 0.78851(15)
C11 C -0.7679(3) 1.0083(3) 0.86585(15)
H4 H -0.8786(3) 1.0763(3) 0.89638(15)
C12 C -0.6029(3) 0.9997(2) 0.88517(13)
H5 H -0.6024(3) 1.0627(2) 0.92877(13)
C13 C -0.6121(3) 0.7113(3) 0.6844(2)
H6 H -0.7340(6) 0.7435(10) 0.6727(7)
H7 H -0.5845(19) 0.6087(4) 0.7087(4)
H8 H -0.5222(13) 0.7160(12) 0.6281(4)
C14 C -0.2573(3) 0.3993(2) 0.86741(14)
C15 C -0.2903(3) 0.3445(3) 0.9576(2)
H9 H -0.3222(3) 0.2554(3) 0.9708(2)
C16 C -0.2767(3) 0.4194(3) 1.0278(2)
H10 H -0.2975(3) 0.3801(3) 1.0876(2)
C17 C -0.2325(3) 0.5527(3) 1.00959(14)
H11 H -0.2237(3) 0.6029(3) 1.05745(14)
C18 C -0.2774(4) 0.3166(3) 0.7924(2)
H12 H -0.3678(15) 0.2648(14) 0.8174(3)
H13 H -0.1599(6) 0.2440(12) 0.7667(7)
H14 H -0.3174(20) 0.3882(3) 0.7452(5)
C19 C -0.1901(3) 0.7666(2) 0.62156(12)
C20 C -0.2966(3) 0.9011(2) 0.58408(13)
H15 H -0.4091(3) 0.9583(2) 0.62000(13)
C21 C -0.2372(3) 0.9490(2) 0.49594(14)
H16 H -0.3098(3) 1.0376(2) 0.47223(14)
C22 C -0.0687(3) 0.8656(3) 0.44165(14)
H17 H -0.0290(3) 0.8983(3) 0.38157(14)
C23 C 0.0386(3) 0.7360(2) 0.47618(13)
H18 H 0.1513(3) 0.6814(2) 0.43909(13)
C24 C -0.0173(3) 0.6826(2) 0.56689(12)
C25 C 0.0973(3) 0.5466(2) 0.60554(12)
C26 C 0.2731(3) 0.4603(2) 0.55609(14)
H19 H 0.3158(3) 0.4878(2) 0.49522(14)
C27 C 0.3829(3) 0.3371(2) 0.59508(15)
H20 H 0.4989(3) 0.2825(2) 0.56081(15)
C28 C 0.3217(3) 0.2929(2) 0.68591(15)
H21 H 0.3965(3) 0.2091(2) 0.71241(15)
C29 C 0.1511(3) 0.3736(2) 0.73588(14)
H22 H 0.1112(3) 0.3439(2) 0.79662(14)
C30 C 0.0341(2) 0.5008(2) 0.69749(12)
loop_
_geom_bond_atom_site_label_1
_geom_bond_atom_site_label_2
_geom_bond_site_symmetry_1
_geom_bond_site_symmetry_2
C1 C2 1_555 1_555
C2 C3 1_555 1_555
C3 C4 1_555 1_555
C4 H1 1_555 1_555
C5 C4 1_555 1_555
H2 C5 1_555 1_555
C6 C5 1_555 1_555
C7 C6 1_555 1_555
C8 C1 1_555 1_555
C9 C2 1_555 1_555
C10 C9 1_555 1_555
H3 C10 1_555 1_555
C11 C10 1_555 1_555
H4 C11 1_555 1_555
C12 C3 1_555 1_555
H5 C12 1_555 1_555
C13 C9 1_555 1_555
H6 C13 1_555 1_555
H7 C13 1_555 1_555
H8 C13 1_555 1_555
C14 C7 1_555 1_555
C15 C14 1_555 1_555
H9 C15 1_555 1_555
C16 C15 1_555 1_555
H10 C16 1_555 1_555
C17 C6 1_555 1_555
H11 C17 1_555 1_555
C18 C14 1_555 1_555
H12 C18 1_555 1_555
H13 C18 1_555 1_555
H14 C18 1_555 1_555
C19 C1 1_555 1_555
C20 C19 1_555 1_555
H15 C20 1_555 1_555
C21 C20 1_555 1_555
H16 C21 1_555 1_555
C22 C21 1_555 1_555
H17 C22 1_555 1_555
C23 C22 1_555 1_555
H18 C23 1_555 1_555
C24 C19 1_555 1_555
C25 C24 1_555 1_555
C26 C25 1_555 1_555
H19 C26 1_555 1_555
C27 C26 1_555 1_555
H20 C27 1_555 1_555
C28 C27 1_555 1_555
H21 C28 1_555 1_555
C29 C28 1_555 1_555
H22 C29 1_555 1_555
C30 C8 1_555 1_555
C7 C8 1_555 1_555
C11 C12 1_555 1_555
C16 C17 1_555 1_555
C23 C24 1_555 1_555
C25 C30 1_555 1_555
C29 C30 1_555 1_555

#END
