
#######################################################################
#
#                 Cambridge Crystallographic Data Centre
#                                CCDC 
#
#######################################################################
#
# If this CIF has been generated from an entry in the Cambridge 
# Structural Database, then it will include bibliographic, chemical, 
# crystal, experimental, refinement or atomic coordinate data resulting 
# from the CCDC's data processing and validation procedures.
#
#######################################################################

data_JAKHOV
_chemical_compound_source        'roots of Dianella ensifolia'
_chemical_name_common            22-hydroxy-cyclolaudenol
_chemical_formula_moiety         'C31 H52 O2'
_chemical_name_systematic        
'24-methyl-9,19-cyclolanost-25-ene-3,22-diol unknown solvate'
_chemical_properties_biological  'cytotoxic activity'
_symmetry_cell_setting           monoclinic
_symmetry_space_group_name_H-M   'P 21'
_symmetry_Int_Tables_number      4
_space_group_name_Hall           'P 2yb'
loop_
_symmetry_equiv_pos_site_id
_symmetry_equiv_pos_as_xyz
1 x,y,z
2 -x,1/2+y,-z
_cell_length_a                   14.5916(3)
_cell_length_b                   7.48069(15)
_cell_length_c                   15.8692(4)
_cell_angle_alpha                90
_cell_angle_beta                 112.612(3)
_cell_angle_gamma                90
_cell_volume                     1599.05
_exptl_crystal_colour            colorless
_exptl_crystal_description       block
_cell_formula_units_Z            2
loop_
_atom_site_label
_atom_site_type_symbol
_atom_site_fract_x
_atom_site_fract_y
_atom_site_fract_z
O1 O 0.16018(17) 0.6192(3) -0.32991(13)
H1 H 0.1998 0.5937 -0.3533
O2 O 0.17811(14) 0.4069(4) 0.53458(12)
H2 H 0.1213 0.3706 0.5073
C1 C 0.2406(3) 0.6816(5) -0.0768(2)
H3 H 0.3107 0.6542 -0.0567
H4 H 0.2336 0.7853 -0.0431
C2 C 0.1983(3) 0.7248(4) -0.1799(2)
H5 H 0.1308 0.7681 -0.1979
H6 H 0.2376 0.8191 -0.1915
C3 C 0.1990(2) 0.5632(4) -0.23659(17)
H7 H 0.2682 0.5275 -0.2206
C4 C 0.1429(2) 0.4017(4) -0.21878(17)
C5 C 0.19138(19) 0.3650(4) -0.11413(16)
H8 H 0.2621 0.3476 -0.1011
C6 C 0.1581(3) 0.1924(4) -0.08387(19)
H9 H 0.1697 0.0921 -0.1172
H10 H 0.0876 0.1979 -0.0966
C7 C 0.2167(3) 0.1666(4) 0.0189(2)
H11 H 0.2047 0.0475 0.0366
H12 H 0.2872 0.1780 0.0324
C8 C 0.1863(2) 0.3038(4) 0.07308(17)
H13 H 0.1160 0.2806 0.0599
C9 C 0.1909(2) 0.4975(4) 0.04021(17)
C10 C 0.1872(2) 0.5256(4) -0.05702(17)
C11 C 0.2509(3) 0.6312(4) 0.11282(19)
H14 H 0.2284 0.7503 0.0900
H15 H 0.3197 0.6219 0.1197
C12 C 0.2473(3) 0.6141(4) 0.20929(18)
H16 H 0.3141 0.6278 0.2549
H17 H 0.2073 0.7107 0.2176
C13 C 0.20511(18) 0.4368(3) 0.22526(16)
C14 C 0.23979(19) 0.2852(4) 0.17721(16)
C15 C 0.2111(3) 0.1156(4) 0.2158(2)
H18 H 0.2537 0.0166 0.2150
H19 H 0.1427 0.0831 0.1801
C16 C 0.2249(2) 0.1623(4) 0.31521(18)
H20 H 0.2810 0.0978 0.3583
H21 H 0.1659 0.1306 0.3261
C17 C 0.24338(18) 0.3672(4) 0.32606(16)
H22 H 0.3154 0.3856 0.3529
C18 C 0.0908(2) 0.4501(6) 0.18728(19)
H23 H 0.0710 0.5250 0.2265
H24 H 0.0630 0.3329 0.1847
H25 H 0.0673 0.5006 0.1271
C19 C 0.0965(2) 0.5630(5) -0.03504(18)
H26 H 0.0778 0.6868 -0.0330
H27 H 0.0413 0.4801 -0.0584
C20 C 0.1999(2) 0.4534(4) 0.39128(17)
H28 H 0.1279 0.4353 0.3640
C21 C 0.2176(3) 0.6536(5) 0.4030(2)
H29 H 0.2013 0.6949 0.4528
H30 H 0.1766 0.7137 0.3479
H31 H 0.2862 0.6786 0.4156
C22 C 0.2385(2) 0.3582(5) 0.48462(17)
H32 H 0.2329 0.2288 0.4741
C23 C 0.3440(2) 0.4010(4) 0.54527(18)
H33 H 0.3473 0.5252 0.5638
H34 H 0.3851 0.3879 0.5100
C24 C 0.3879(2) 0.2843(5) 0.63164(18)
H35 H 0.3425 0.2924 0.6637
C25 C 0.3965(2) 0.0896(5) 0.6121(2)
C26 C 0.3498(5) -0.0328(7) 0.6437(4)
H36 H 0.3530 -0.1533 0.6307
H37 H 0.3143 0.0034 0.6784
C27 C 0.4528(3) 0.0369(7) 0.5573(3)
H38 H 0.5224 0.0539 0.5922
H39 H 0.4327 0.1090 0.5032
H40 H 0.4403 -0.0867 0.5406
C28 C 0.1561(3) 0.2422(5) -0.2706(2)
H41 H 0.1151 0.1459 -0.2654
H42 H 0.2244 0.2056 -0.2458
H43 H 0.1372 0.2733 -0.3337
C29 C 0.0322(2) 0.4432(6) -0.2514(2)
H44 H 0.0058 0.4640 -0.3160
H45 H 0.0228 0.5478 -0.2206
H46 H -0.0015 0.3437 -0.2380
C30 C 0.3532(2) 0.2839(6) 0.2065(2)
H47 H 0.3720 0.1862 0.1773
H48 H 0.3842 0.2702 0.2715
H49 H 0.3742 0.3945 0.1889
C31 C 0.4873(3) 0.3617(7) 0.6953(3)
H50 H 0.5128 0.2922 0.7503
H51 H 0.4782 0.4831 0.7099
H52 H 0.5335 0.3584 0.6655
loop_
_geom_bond_atom_site_label_1
_geom_bond_atom_site_label_2
_geom_bond_site_symmetry_1
_geom_bond_site_symmetry_2
O1 H1 1_555 1_555
O2 H2 1_555 1_555
C1 H3 1_555 1_555
H4 C1 1_555 1_555
C2 C1 1_555 1_555
H5 C2 1_555 1_555
H6 C2 1_555 1_555
C3 O1 1_555 1_555
H7 C3 1_555 1_555
C4 C3 1_555 1_555
C5 C4 1_555 1_555
H8 C5 1_555 1_555
C6 C5 1_555 1_555
H9 C6 1_555 1_555
H10 C6 1_555 1_555
C7 C6 1_555 1_555
H11 C7 1_555 1_555
H12 C7 1_555 1_555
C8 C7 1_555 1_555
H13 C8 1_555 1_555
C9 C8 1_555 1_555
C10 C1 1_555 1_555
C11 C9 1_555 1_555
H14 C11 1_555 1_555
H15 C11 1_555 1_555
C12 C11 1_555 1_555
H16 C12 1_555 1_555
H17 C12 1_555 1_555
C13 C12 1_555 1_555
C14 C8 1_555 1_555
C15 C14 1_555 1_555
H18 C15 1_555 1_555
H19 C15 1_555 1_555
C16 C15 1_555 1_555
H20 C16 1_555 1_555
H21 C16 1_555 1_555
C17 C13 1_555 1_555
H22 C17 1_555 1_555
C18 C13 1_555 1_555
H23 C18 1_555 1_555
H24 C18 1_555 1_555
H25 C18 1_555 1_555
C19 C9 1_555 1_555
H26 C19 1_555 1_555
H27 C19 1_555 1_555
C20 C17 1_555 1_555
H28 C20 1_555 1_555
C21 C20 1_555 1_555
H29 C21 1_555 1_555
H30 C21 1_555 1_555
H31 C21 1_555 1_555
C22 O2 1_555 1_555
H32 C22 1_555 1_555
C23 C22 1_555 1_555
H33 C23 1_555 1_555
H34 C23 1_555 1_555
C24 C23 1_555 1_555
H35 C24 1_555 1_555
C25 C24 1_555 1_555
C26 C25 1_555 1_555
H36 C26 1_555 1_555
H37 C26 1_555 1_555
C27 C25 1_555 1_555
H38 C27 1_555 1_555
H39 C27 1_555 1_555
H40 C27 1_555 1_555
C28 C4 1_555 1_555
H41 C28 1_555 1_555
H42 C28 1_555 1_555
H43 C28 1_555 1_555
C29 C4 1_555 1_555
H44 C29 1_555 1_555
H45 C29 1_555 1_555
H46 C29 1_555 1_555
C30 C14 1_555 1_555
H47 C30 1_555 1_555
H48 C30 1_555 1_555
H49 C30 1_555 1_555
C31 C24 1_555 1_555
H50 C31 1_555 1_555
H51 C31 1_555 1_555
H52 C31 1_555 1_555
C2 C3 1_555 1_555
C5 C10 1_555 1_555
C9 C10 1_555 1_555
C10 C19 1_555 1_555
C13 C14 1_555 1_555
C16 C17 1_555 1_555
C20 C22 1_555 1_555

#END
