
#######################################################################
#
#                 Cambridge Crystallographic Data Centre
#                                CCDC 
#
#######################################################################
#
# If this CIF has been generated from an entry in the Cambridge 
# Structural Database, then it will include bibliographic, chemical, 
# crystal, experimental, refinement or atomic coordinate data resulting 
# from the CCDC's data processing and validation procedures.
#
#######################################################################

data_JAKHOS
_chemical_compound_source        'Rabdosia nervosa (Hemsl.)'
_chemical_name_common            'Ganervosin B'
_chemical_formula_moiety         'C22 H30 O6'
_chemical_name_systematic        
20,1-Epoxymethano-21-ethoxy-11\a-hydroxy-2,2-dimethyl-6-oxa-18,19-dinor-16-karene-7,15-dione
_chemical_properties_biological  'possible antitumour activity'
_symmetry_cell_setting           orthorhombic
_symmetry_space_group_name_H-M   'P 21 21 21'
_symmetry_Int_Tables_number      19
_space_group_name_Hall           'P 2ac 2ab'
loop_
_symmetry_equiv_pos_site_id
_symmetry_equiv_pos_as_xyz
1 x,y,z
2 1/2+x,1/2-y,-z
3 -x,1/2+y,1/2-z
4 1/2-x,-y,1/2+z
_cell_length_a                   7.714(2)
_cell_length_b                   9.555(3)
_cell_length_c                   26.78(1)
_cell_angle_alpha                90
_cell_angle_beta                 90
_cell_angle_gamma                90
_cell_volume                     1973.88
_exptl_crystal_colour            colorless
_cell_formula_units_Z            4
loop_
_atom_site_label
_atom_site_type_symbol
_atom_site_fract_x
_atom_site_fract_y
_atom_site_fract_z
O1 O 0.0679(4) 0.0214(4) 0.7987(1)
O2 O -0.1694(4) 0.1405(3) 0.8127(1)
O3 O 0.0729(4) -0.2044(4) 0.8703(1)
O4 O -0.5858(4) -0.1143(3) 0.8052(1)
O5 O -0.4931(4) -0.1175(3) 0.9624(1)
O6 O -0.3037(4) 0.0730(4) 0.9632(1)
C1 C -0.3521(5) 0.1350(5) 0.8278(2)
C2 C -0.4153(6) 0.2850(5) 0.8314(2)
C3 C -0.6013(6) 0.2802(5) 0.8513(2)
C4 C -0.6088(5) 0.2259(5) 0.9048(2)
C5 C -0.5354(5) 0.0736(4) 0.9062(1)
C6 C -0.3649(5) 0.0489(4) 0.8761(1)
C7 C -0.3342(5) -0.1067(4) 0.8613(2)
C8 C -0.1774(5) -0.1152(4) 0.8229(2)
C9 C -0.0830(5) 0.0193(5) 0.8112(2)
C10 C -0.2349(6) -0.1898(5) 0.7741(2)
C11 C -0.2729(6) -0.3384(5) 0.7937(2)
C12 C -0.4426(6) -0.3357(5) 0.8246(2)
C13 C -0.4936(6) -0.1884(4) 0.8432(2)
C14 C -0.1159(6) -0.3639(5) 0.8258(2)
C15 C -0.0525(6) -0.2256(5) 0.8439(2)
C16 C -0.0324(7) -0.4806(6) 0.8347(3)
C17 C -0.2267(5) 0.0912(5) 0.9144(2)
C18 C -0.4790(6) 0.0287(5) 0.9583(2)
C19 C -0.5213(7) 0.3315(5) 0.9401(2)
C20 C -0.8016(6) 0.2157(5) 0.9199(2)
C21 C -0.4461(7) -0.1719(6) 1.0111(2)
C22 C -0.4334(8) -0.3276(6) 1.0073(2)
H1 H -0.3750 0.0821 0.7988
H2 H -0.3339 0.3320 0.8554
H3 H -0.4179 0.3046 0.7968
H4 H -0.6679 0.2207 0.8320
H5 H -0.6469 0.3750 0.8489
H6 H -0.6315 0.0219 0.8926
H7 H -0.2929 -0.1386 0.8945
H8 H -0.3379 -0.1443 0.7600
H9 H -0.1474 -0.1847 0.7483
H10 H -0.2929 -0.3906 0.7614
H11 H -0.5429 -0.3613 0.7968
H12 H -0.4372 -0.4010 0.8520
H13 H -0.5820 -0.1953 0.8691
H14 H -0.7090 -0.1094 0.8223
H15 H -0.0773 -0.5673 0.8223
H16 H 0.0681 -0.4806 0.8549
H17 H -0.2070 0.1660 0.9179
H18 H -0.1250 0.0292 0.9179
H19 H -0.5410 0.0820 0.9882
H20 H -0.5250 0.2924 0.9738
H21 H -0.4044 0.3451 0.9315
H22 H -0.5830 0.4157 0.9401
H23 H -0.8125 0.1811 0.9529
H24 H -0.8540 0.3065 0.9182
H25 H -0.8625 0.1548 0.8977
H26 H -0.3320 -0.1406 1.0253
H27 H -0.5363 -0.1324 1.0331
H28 H -0.4046 -0.3693 1.0384
H29 H -0.5403 -0.3681 0.9956
H30 H -0.3446 -0.3524 0.9834
loop_
_geom_bond_atom_site_label_1
_geom_bond_atom_site_label_2
_geom_bond_site_symmetry_1
_geom_bond_site_symmetry_2
O1 C9 1_555 1_555
O2 C1 1_555 1_555
O3 C15 1_555 1_555
O4 C13 1_555 1_555
O5 C18 1_555 1_555
O6 C17 1_555 1_555
C1 C2 1_555 1_555
C2 C3 1_555 1_555
C3 C4 1_555 1_555
C4 C5 1_555 1_555
C5 C6 1_555 1_555
C6 C1 1_555 1_555
C7 C6 1_555 1_555
C8 C7 1_555 1_555
C9 O2 1_555 1_555
C10 C8 1_555 1_555
C11 C10 1_555 1_555
C12 C11 1_555 1_555
C13 C7 1_555 1_555
C14 C11 1_555 1_555
C15 C8 1_555 1_555
C16 C14 1_555 1_555
C17 C6 1_555 1_555
C18 O6 1_555 1_555
C19 C4 1_555 1_555
C20 C4 1_555 1_555
C21 O5 1_555 1_555
C22 C21 1_555 1_555
H1 C1 1_555 1_555
H2 C2 1_555 1_555
H3 C2 1_555 1_555
H4 C3 1_555 1_555
H5 C3 1_555 1_555
H6 C5 1_555 1_555
H7 C7 1_555 1_555
H8 C10 1_555 1_555
H9 C10 1_555 1_555
H10 C11 1_555 1_555
H11 C12 1_555 1_555
H12 C12 1_555 1_555
H13 C13 1_555 1_555
H14 O4 1_555 1_555
H15 C16 1_555 1_555
H16 C16 1_555 1_555
H17 C17 1_555 1_555
H18 C17 1_555 1_555
H19 C18 1_555 1_555
H20 C19 1_555 1_555
H21 C19 1_555 1_555
H22 C19 1_555 1_555
H23 C20 1_555 1_555
H24 C20 1_555 1_555
H25 C20 1_555 1_555
H26 C21 1_555 1_555
H27 C21 1_555 1_555
H28 C22 1_555 1_555
H29 C22 1_555 1_555
H30 C22 1_555 1_555
C5 C18 1_555 1_555
C8 C9 1_555 1_555
C12 C13 1_555 1_555
C14 C15 1_555 1_555

#END
