
#######################################################################
#
#                 Cambridge Crystallographic Data Centre
#                                CCDC 
#
#######################################################################
#
# If this CIF has been generated from an entry in the Cambridge 
# Structural Database, then it will include bibliographic, chemical, 
# crystal, experimental, refinement or atomic coordinate data resulting 
# from the CCDC's data processing and validation procedures.
#
#######################################################################

data_JAKPIV
_chemical_formula_moiety         'C12 H12 N2 O1,C6 H6 O2'
_chemical_name_systematic        
'4-(4-Aminophenoxy)aniline 1,4-dihydroxybenzene'
_symmetry_cell_setting           orthorhombic
_symmetry_space_group_name_H-M   'P b c n'
_symmetry_Int_Tables_number      60
_space_group_name_Hall           '-P 2n 2ab'
loop_
_symmetry_equiv_pos_site_id
_symmetry_equiv_pos_as_xyz
1 x,y,z
2 1/2-x,1/2-y,1/2+z
3 -x,y,1/2-z
4 1/2+x,1/2-y,-z
5 -x,-y,-z
6 1/2+x,1/2+y,1/2-z
7 x,-y,1/2+z
8 1/2-x,1/2+y,z
_cell_length_a                   5.4523(2)
_cell_length_b                   7.9556(2)
_cell_length_c                   35.1453(11)
_cell_angle_alpha                90
_cell_angle_beta                 90
_cell_angle_gamma                90
_cell_volume                     1524.47
_exptl_crystal_colour            colorless
_exptl_crystal_description       Plate
_chemical_melting_point          '191.14 deg.C'
_cell_formula_units_Z            4
_exptl_crystal_recrystallization_method acetonitrile/toluene
loop_
_atom_site_label
_atom_site_type_symbol
_atom_site_fract_x
_atom_site_fract_y
_atom_site_fract_z
O1 O 0.04037(17) 0.08440(11) 0.07622(2)
C1 C 0.2013(2) 0.09407(13) 0.01182(3)
C2 C -0.1757(2) -0.04950(13) 0.02621(3)
C3 C 0.0252(2) 0.04398(13) 0.03822(3)
H1 H -0.297(2) -0.0852(18) 0.0448(4)
H2 H 0.342(2) 0.1615(16) 0.0198(4)
H3 H 0.194(4) 0.128(3) 0.0824(5)
C2D C 0.1757(2) 0.04950(13) -0.02621(3)
C3D C -0.0252(2) -0.04398(13) -0.03822(3)
O1D O -0.04037(17) -0.08440(11) -0.07622(2)
H3D H -0.194(4) -0.128(3) -0.0824(5)
C1D C -0.2013(2) -0.09407(13) -0.01182(3)
H2D H -0.342(2) -0.1615(16) -0.0198(4)
H1D H 0.297(2) 0.0852(18) -0.0448(4)
O2 O 0.0000 0.43921(14) 0.2500
C4 C 0.1871(2) 0.69940(13) 0.16853(3)
N1 N 0.0225(2) 0.71171(13) 0.10380(3)
C5 C -0.1803(2) 0.54706(14) 0.15348(3)
C6 C -0.1865(2) 0.48260(14) 0.19014(3)
C7 C 0.1810(2) 0.63607(14) 0.20535(3)
C8 C 0.0076(2) 0.65425(13) 0.14222(3)
C9 C -0.0048(2) 0.52569(13) 0.21569(3)
H4 H 0.317(3) 0.7751(19) 0.1613(4)
H5 H -0.312(3) 0.5190(19) 0.1357(4)
H6 H -0.315(3) 0.4074(19) 0.1980(4)
H7 H 0.309(3) 0.6658(18) 0.2236(4)
H8 H -0.122(3) 0.693(2) 0.0909(5)
H9 H 0.054(3) 0.821(2) 0.1020(5)
C9B C 0.0048(2) 0.52569(13) 0.28431(3)
C6B C 0.1865(2) 0.48260(14) 0.30986(3)
C5B C 0.1803(2) 0.54706(14) 0.34652(3)
C8B C -0.0076(2) 0.65425(13) 0.35778(3)
C4B C -0.1871(2) 0.69940(13) 0.33147(3)
C7B C -0.1810(2) 0.63607(14) 0.29465(3)
H7B H -0.309(3) 0.6658(18) 0.2764(4)
H4B H -0.317(3) 0.7751(19) 0.3387(4)
N1B N -0.0225(2) 0.71171(13) 0.39620(3)
H8B H 0.122(3) 0.693(2) 0.4091(5)
H9B H -0.054(3) 0.821(2) 0.3980(5)
H5B H 0.312(3) 0.5190(19) 0.3643(4)
H6B H 0.315(3) 0.4074(19) 0.3020(4)
loop_
_geom_bond_atom_site_label_1
_geom_bond_atom_site_label_2
_geom_bond_site_symmetry_1
_geom_bond_site_symmetry_2
O1 C3 1_555 1_555
C1 C3 1_555 1_555
C2 C3 1_555 1_555
H1 C2 1_555 1_555
H2 C1 1_555 1_555
H3 O1 1_555 1_555
O2 C9 1_555 1_555
C4 C7 1_555 1_555
N1 C8 1_555 1_555
C5 C6 1_555 1_555
C6 C9 1_555 1_555
C7 C9 1_555 1_555
C8 C4 1_555 1_555
H4 C4 1_555 1_555
H5 C5 1_555 1_555
H6 C6 1_555 1_555
H7 C7 1_555 1_555
H8 N1 1_555 1_555
H9 N1 1_555 1_555
C2D C1 1_555 1_555
C3D C2D 1_555 1_555
O1D C3D 1_555 1_555
H3D O1D 1_555 1_555
C1D C2 1_555 1_555
H2D C1D 1_555 1_555
H1D C2D 1_555 1_555
C9B O2 1_555 1_555
C6B C9B 1_555 1_555
C5B C6B 1_555 1_555
C8B C5B 1_555 1_555
C4B C8B 1_555 1_555
C7B C9B 1_555 1_555
H7B C7B 1_555 1_555
H4B C4B 1_555 1_555
N1B C8B 1_555 1_555
H8B N1B 1_555 1_555
H9B N1B 1_555 1_555
H5B C5B 1_555 1_555
H6B C6B 1_555 1_555
C5 C8 1_555 1_555
C3D C1D 1_555 1_555
C4B C7B 1_555 1_555

#END
