
#######################################################################
#
#                 Cambridge Crystallographic Data Centre
#                                CCDC 
#
#######################################################################
#
# If this CIF has been generated from an entry in the Cambridge 
# Structural Database, then it will include bibliographic, chemical, 
# crystal, experimental, refinement or atomic coordinate data resulting 
# from the CCDC's data processing and validation procedures.
#
#######################################################################

data_JAKPUH
_chemical_formula_moiety         'C12 H12 N2 O1,C18 H14 O2'
_chemical_name_systematic        
"4-(4-Aminophenoxy)aniline 4,4''-dihydroxy-1,1';4',1''-terphenyl"
_symmetry_cell_setting           orthorhombic
_symmetry_space_group_name_H-M   'P b c n'
_symmetry_Int_Tables_number      60
_space_group_name_Hall           '-P 2n 2ab'
loop_
_symmetry_equiv_pos_site_id
_symmetry_equiv_pos_as_xyz
1 x,y,z
2 1/2+x,1/2+y,1/2-z
3 x,-y,1/2+z
4 1/2-x,1/2+y,z
5 -x,-y,-z
6 1/2-x,1/2-y,1/2+z
7 -x,y,1/2-z
8 1/2+x,1/2-y,-z
_cell_length_a                   5.4581(2)
_cell_length_b                   7.9851(3)
_cell_length_c                   51.7327(16)
_cell_angle_alpha                90
_cell_angle_beta                 90
_cell_angle_gamma                90
_cell_volume                     2254.69
_exptl_crystal_colour            colorless
_exptl_crystal_description       Plate
_chemical_melting_point          '246.00 deg.C'
_cell_formula_units_Z            4
_exptl_crystal_recrystallization_method ethanol/acetone
loop_
_atom_site_label
_atom_site_type_symbol
_atom_site_fract_x
_atom_site_fract_y
_atom_site_fract_z
O1 O 0.4726(3) 0.24983(16) 0.13177(2)
C1 C 0.2950(3) 0.2573(2) 0.08900(3)
C2 C 0.6775(3) 0.0614(2) 0.07132(3)
C3 C 0.4942(3) 0.1080(2) 0.05378(3)
C4 C 0.4980(3) 0.0527(2) 0.02632(3)
C5 C 0.3049(3) 0.2075(2) 0.06331(3)
C6 C 0.4761(3) 0.2066(2) 0.10606(3)
C7 C 0.6686(3) 0.1101(2) 0.09708(3)
C8 C 0.3202(4) 0.0990(4) 0.00906(4)
C9 C 0.6779(4) -0.0473(4) 0.01656(4)
H3 H 0.162(4) 0.329(3) 0.0946(4)
H4 H 0.813(4) -0.016(3) 0.0661(4)
H5 H 0.180(4) 0.250(3) 0.0521(4)
H7 H 0.796(4) 0.072(3) 0.1088(4)
H11 H 0.312(6) 0.295(4) 0.1364(5)
H12 H 0.793(7) -0.099(5) 0.0283(7)
H13 H 0.204(7) 0.175(5) 0.0142(6)
C9D C 0.3221(4) 0.0473(4) -0.01656(4)
C4D C 0.5020(3) -0.0527(2) -0.02632(3)
C3D C 0.5058(3) -0.1080(2) -0.05378(3)
C2D C 0.3225(3) -0.0614(2) -0.07132(3)
C7D C 0.3314(3) -0.1101(2) -0.09708(3)
C6D C 0.5239(3) -0.2066(2) -0.10606(3)
O1D O 0.5274(3) -0.24983(16) -0.13177(2)
H11D H 0.688(6) -0.295(4) -0.1364(5)
C1D C 0.7050(3) -0.2573(2) -0.08900(3)
C5D C 0.6951(3) -0.2075(2) -0.06331(3)
H5D H 0.820(4) -0.250(3) -0.0521(4)
H3D H 0.838(4) -0.329(3) -0.0946(4)
H7D H 0.204(4) -0.072(3) -0.1088(4)
H4D H 0.187(4) 0.016(3) -0.0661(4)
C8D C 0.6798(4) -0.0990(4) -0.00906(4)
H13D H 0.796(7) -0.175(5) -0.0142(6)
H12D H 0.207(7) 0.099(5) -0.0283(7)
O2 O 0.5000 0.6030(2) 0.2500
N1 N 0.4671(3) 0.8753(2) 0.15081(3)
C10 C 0.3182(3) 0.7999(2) 0.21996(3)
C11 C 0.6812(3) 0.6455(2) 0.20903(3)
C12 C 0.3101(3) 0.8633(2) 0.19501(3)
C13 C 0.6726(3) 0.7098(2) 0.18417(3)
C14 C 0.4860(3) 0.8173(2) 0.17688(3)
C15 C 0.5028(3) 0.6895(2) 0.22669(3)
H1 H 0.176(4) 0.938(3) 0.1903(3)
H2 H 0.812(4) 0.571(3) 0.2137(4)
H6 H 0.196(4) 0.831(3) 0.2328(4)
H8 H 0.433(4) 0.984(3) 0.1503(4)
H9 H 0.801(4) 0.680(3) 0.1714(4)
H10 H 0.610(5) 0.854(3) 0.1415(5)
C15F C 0.4972(3) 0.6895(2) 0.27331(3)
C10F C 0.6818(3) 0.7999(2) 0.28004(3)
C12F C 0.6899(3) 0.8633(2) 0.30499(3)
C14F C 0.5140(3) 0.8173(2) 0.32312(3)
N1F N 0.5329(3) 0.8753(2) 0.34919(3)
H8F H 0.567(4) 0.984(3) 0.3497(4)
H10F H 0.390(5) 0.854(3) 0.3585(5)
C13F C 0.3274(3) 0.7098(2) 0.31583(3)
C11F C 0.3188(3) 0.6455(2) 0.29097(3)
H2F H 0.188(4) 0.571(3) 0.2863(4)
H9F H 0.199(4) 0.680(3) 0.3286(4)
H1F H 0.824(4) 0.938(3) 0.3097(3)
H6F H 0.804(4) 0.831(3) 0.2672(4)
loop_
_geom_bond_atom_site_label_1
_geom_bond_atom_site_label_2
_geom_bond_site_symmetry_1
_geom_bond_site_symmetry_2
O1 C6 1_555 1_555
C1 C5 1_555 1_555
C2 C3 1_555 1_555
C3 C4 1_555 1_555
C4 C8 1_555 1_555
C5 C3 1_555 1_555
C6 C1 1_555 1_555
C7 C2 1_555 1_555
C8 H13 1_555 1_555
C9 C4 1_555 1_555
O2 C15 1_555 1_555
N1 C14 1_555 1_555
C10 C12 1_555 1_555
C11 C13 1_555 1_555
C12 C14 1_555 1_555
C13 C14 1_555 1_555
C15 C10 1_555 1_555
H1 C12 1_555 1_555
H2 C11 1_555 1_555
H3 C1 1_555 1_555
H4 C2 1_555 1_555
H5 C5 1_555 1_555
H6 C10 1_555 1_555
H7 C7 1_555 1_555
H8 N1 1_555 1_555
H9 C13 1_555 1_555
H10 N1 1_555 1_555
H11 O1 1_555 1_555
H12 C9 1_555 1_555
C9D C8 1_555 1_555
C4D C9D 1_555 1_555
C3D C4D 1_555 1_555
C2D C3D 1_555 1_555
C7D C2D 1_555 1_555
C6D C7D 1_555 1_555
O1D C6D 1_555 1_555
H11D O1D 1_555 1_555
C1D C6D 1_555 1_555
C5D C3D 1_555 1_555
H5D C5D 1_555 1_555
H3D C1D 1_555 1_555
H7D C7D 1_555 1_555
H4D C2D 1_555 1_555
C8D C9 1_555 1_555
H13D C8D 1_555 1_555
H12D C9D 1_555 1_555
C15F O2 1_555 1_555
C10F C15F 1_555 1_555
C12F C10F 1_555 1_555
C14F C12F 1_555 1_555
N1F C14F 1_555 1_555
H8F N1F 1_555 1_555
H10F N1F 1_555 1_555
C13F C14F 1_555 1_555
C11F C15F 1_555 1_555
H2F C11F 1_555 1_555
H9F C13F 1_555 1_555
H1F C12F 1_555 1_555
H6F C10F 1_555 1_555
C6 C7 1_555 1_555
C11 C15 1_555 1_555
C4D C8D 1_555 1_555
C1D C5D 1_555 1_555
C13F C11F 1_555 1_555

#END
