
#######################################################################
#
#                 Cambridge Crystallographic Data Centre
#                                CCDC 
#
#######################################################################
#
# If this CIF has been generated from an entry in the Cambridge 
# Structural Database, then it will include bibliographic, chemical, 
# crystal, experimental, refinement or atomic coordinate data resulting 
# from the CCDC's data processing and validation procedures.
#
#######################################################################

data_JAKPOB
_chemical_formula_moiety         'C12 H12 N2 O1,C12 H10 O2'
_chemical_name_systematic        
"4-(4-Aminophenoxy)aniline 4,4'-dihydroxybiphenyl"
_symmetry_cell_setting           orthorhombic
_symmetry_space_group_name_H-M   'P b c n'
_symmetry_Int_Tables_number      60
_space_group_name_Hall           '-P 2n 2ab'
loop_
_symmetry_equiv_pos_site_id
_symmetry_equiv_pos_as_xyz
1 x,y,z
2 1/2+x,1/2+y,1/2-z
3 x,-y,1/2+z
4 1/2-x,1/2+y,z
5 -x,-y,-z
6 1/2-x,1/2-y,1/2+z
7 -x,y,1/2-z
8 1/2+x,1/2-y,-z
_cell_length_a                   5.46470(10)
_cell_length_b                   7.9338(2)
_cell_length_c                   43.4412(10)
_cell_angle_alpha                90
_cell_angle_beta                 90
_cell_angle_gamma                90
_cell_volume                     1883.43
_exptl_crystal_colour            colorless
_exptl_crystal_description       Plate
_chemical_melting_point          '228.12 deg.C'
_cell_formula_units_Z            4
_exptl_crystal_recrystallization_method 'ethyl acetate/acetonitrile/ethanol'
loop_
_atom_site_label
_atom_site_type_symbol
_atom_site_fract_x
_atom_site_fract_y
_atom_site_fract_z
O1 O 0.03106(18) 0.82429(12) 0.109120(19)
C1 C 0.2082(2) 0.82134(16) 0.05805(3)
C2 C -0.1681(2) 0.96621(16) 0.06811(3)
C3 C -0.1785(2) 1.01616(16) 0.03754(3)
C4 C 0.0268(2) 0.86948(15) 0.07861(3)
C5 C 0.0047(2) 0.97209(14) 0.01633(2)
C6 C 0.1963(2) 0.87273(16) 0.02752(3)
H1 H -0.316(3) 1.0873(19) 0.0315(3)
H4 H 0.329(3) 0.832(2) 0.0135(4)
H5 H -0.296(3) 1.001(2) 0.0828(3)
H9 H 0.341(3) 0.753(2) 0.0649(3)
H11 H 0.179(4) 0.778(3) 0.1148(4)
C5D C -0.0047(2) 1.02791(14) -0.01633(2)
C3D C 0.1785(2) 0.98384(16) -0.03754(3)
C2D C 0.1681(2) 1.03379(16) -0.06811(3)
C4D C -0.0268(2) 1.13052(15) -0.07861(3)
O1D O -0.03106(18) 1.17571(12) -0.109120(19)
H11D H -0.179(4) 1.222(3) -0.1148(4)
C1D C -0.2082(2) 1.17866(16) -0.05805(3)
C6D C -0.1963(2) 1.12727(16) -0.02752(3)
H4D H -0.329(3) 1.168(2) -0.0135(4)
H9D H -0.341(3) 1.247(2) -0.0649(3)
H5D H 0.296(3) 0.999(2) -0.0828(3)
H1D H 0.316(3) 0.9127(19) -0.0315(3)
N1 N 0.0301(2) 0.19942(15) 0.13176(2)
O2 O 0.0000 0.47330(16) 0.2500
C7 C -0.1833(2) 0.42954(16) 0.20138(3)
C8 C -0.1751(2) 0.36489(16) 0.17174(3)
C9 C 0.1823(2) 0.27598(16) 0.21410(3)
C10 C 0.0126(2) 0.25786(15) 0.16288(3)
C11 C -0.0033(2) 0.38616(15) 0.22225(3)
C12 C 0.1905(2) 0.21214(16) 0.18429(3)
H2 H 0.304(3) 0.244(2) 0.2294(3)
H3 H 0.320(3) 0.137(2) 0.1783(3)
H6 H -0.311(3) 0.505(2) 0.2073(3)
H7 H 0.060(3) 0.091(2) 0.1307(4)
H8 H -0.301(3) 0.397(2) 0.1569(4)
H10 H -0.114(4) 0.221(2) 0.1211(4)
C11F C 0.0033(2) 0.38616(15) 0.27775(3)
C7F C 0.1833(2) 0.42954(16) 0.29862(3)
C8F C 0.1751(2) 0.36489(16) 0.32826(3)
C10F C -0.0126(2) 0.25786(15) 0.33712(3)
N1F N -0.0301(2) 0.19942(15) 0.36824(2)
H7F H -0.060(3) 0.091(2) 0.3693(4)
H10F H 0.114(4) 0.221(2) 0.3789(4)
C12F C -0.1905(2) 0.21214(16) 0.31571(3)
C9F C -0.1823(2) 0.27598(16) 0.28590(3)
H2F H -0.304(3) 0.244(2) 0.2706(3)
H3F H -0.320(3) 0.137(2) 0.3217(3)
H8F H 0.301(3) 0.397(2) 0.3431(4)
H6F H 0.311(3) 0.505(2) 0.2927(3)
loop_
_geom_bond_atom_site_label_1
_geom_bond_atom_site_label_2
_geom_bond_site_symmetry_1
_geom_bond_site_symmetry_2
O1 C4 1_555 1_555
C1 C4 1_555 1_555
C2 C3 1_555 1_555
C3 C5 1_555 1_555
C4 C2 1_555 1_555
C5 C6 1_555 1_555
C6 C1 1_555 1_555
N1 C10 1_555 1_555
O2 C11 1_555 1_555
C7 C8 1_555 1_555
C8 C10 1_555 1_555
C9 C11 1_555 1_555
C10 C12 1_555 1_555
C11 C7 1_555 1_555
C12 C9 1_555 1_555
H1 C3 1_555 1_555
H2 C9 1_555 1_555
H3 C12 1_555 1_555
H4 C6 1_555 1_555
H5 C2 1_555 1_555
H6 C7 1_555 1_555
H7 N1 1_555 1_555
H8 C8 1_555 1_555
H9 C1 1_555 1_555
H10 N1 1_555 1_555
H11 O1 1_555 1_555
C5D C5 1_555 1_555
C3D C5D 1_555 1_555
C2D C3D 1_555 1_555
C4D C2D 1_555 1_555
O1D C4D 1_555 1_555
H11D O1D 1_555 1_555
C1D C4D 1_555 1_555
C6D C5D 1_555 1_555
H4D C6D 1_555 1_555
H9D C1D 1_555 1_555
H5D C2D 1_555 1_555
H1D C3D 1_555 1_555
C11F O2 1_555 1_555
C7F C11F 1_555 1_555
C8F C7F 1_555 1_555
C10F C8F 1_555 1_555
N1F C10F 1_555 1_555
H7F N1F 1_555 1_555
H10F N1F 1_555 1_555
C12F C10F 1_555 1_555
C9F C11F 1_555 1_555
H2F C9F 1_555 1_555
H3F C12F 1_555 1_555
H8F C8F 1_555 1_555
H6F C7F 1_555 1_555
C1D C6D 1_555 1_555
C12F C9F 1_555 1_555

#END
