
#######################################################################
#
#                 Cambridge Crystallographic Data Centre
#                                CCDC 
#
#######################################################################
#
# If this CIF has been generated from an entry in the Cambridge 
# Structural Database, then it will include bibliographic, chemical, 
# crystal, experimental, refinement or atomic coordinate data resulting 
# from the CCDC's data processing and validation procedures.
#
#######################################################################

data_JAKRAR
_chemical_formula_moiety         'C36 H55 Br1 O3'
_chemical_name_systematic        
'methyl 3-((4-bromobenzyl)oxy)cholestane-6-carboxylate'
_symmetry_cell_setting           monoclinic
_symmetry_space_group_name_H-M   'P 21'
_symmetry_Int_Tables_number      4
_space_group_name_Hall           'P 2yb'
loop_
_symmetry_equiv_pos_site_id
_symmetry_equiv_pos_as_xyz
1 x,y,z
2 -x,1/2+y,-z
_cell_length_a                   11.8286(7)
_cell_length_b                   10.6768(6)
_cell_length_c                   13.7048(8)
_cell_angle_alpha                90
_cell_angle_beta                 106.603(2)
_cell_angle_gamma                90
_cell_volume                     1658.64
_exptl_crystal_colour            colorless
_exptl_crystal_description       plate
_cell_formula_units_Z            2
loop_
_atom_site_label
_atom_site_type_symbol
_atom_site_fract_x
_atom_site_fract_y
_atom_site_fract_z
Br1 Br 1.78374(4) 0.74572(6) -0.01613(4)
C1 C 1.2920(3) 0.5934(3) 0.2871(3)
H1 H 1.3236 0.5139 0.3232
C2 C 1.1668(3) 0.5700(4) 0.2184(3)
H2 H 1.1678 0.4976 0.1735
H3 H 1.1399 0.6442 0.1746
C3 C 1.0795(3) 0.5439(3) 0.2801(3)
H4 H 1.1089 0.4677 0.3222
C4 C 0.9560(3) 0.5122(3) 0.2114(3)
H5 H 0.9227 0.5875 0.1696
C5 C 0.8742(3) 0.4753(3) 0.2761(3)
H6 H 0.7937 0.4604 0.2307
H7 H 0.9027 0.3962 0.3125
C6 C 0.8692(3) 0.5763(3) 0.3534(3)
H8 H 0.8320 0.6528 0.3156
C7 C 0.7954(3) 0.5341(3) 0.4218(3)
H9 H 0.8391 0.4630 0.4634
C8 C 0.6698(3) 0.4870(3) 0.3720(3)
H10 H 0.6705 0.4001 0.3470
H11 H 0.6284 0.5414 0.3143
C9 C 0.6104(3) 0.4935(3) 0.4588(3)
H12 H 0.5952 0.4080 0.4800
H13 H 0.5344 0.5386 0.4357
C10 C 0.6969(3) 0.5646(3) 0.5497(3)
H14 H 0.7452 0.5002 0.5964
C11 C 0.7804(3) 0.6348(3) 0.4984(3)
C12 C 0.9052(3) 0.6649(3) 0.5665(3)
H15 H 0.9006 0.7329 0.6143
H16 H 0.9383 0.5899 0.6072
C13 C 0.9876(3) 0.7051(3) 0.5036(3)
H17 H 1.0679 0.7175 0.5503
H18 H 0.9603 0.7867 0.4711
C14 C 0.9945(3) 0.6109(3) 0.4204(3)
H19 H 1.0294 0.5324 0.4565
C15 C 1.0759(3) 0.6517(3) 0.3557(3)
C16 C 1.2038(3) 0.6690(3) 0.4247(3)
H20 H 1.2054 0.7395 0.4720
H21 H 1.2279 0.5924 0.4661
C17 C 1.2928(3) 0.6946(4) 0.3662(3)
H22 H 1.3728 0.6998 0.4147
H23 H 1.2749 0.7766 0.3315
C18 C 0.9581(3) 0.4038(4) 0.1407(3)
C19 C 0.8737(6) 0.3219(7) -0.0233(4)
H24 H 0.9384 0.3286 -0.0545
H25 H 0.7981 0.3277 -0.0762
H26 H 0.8787 0.2412 0.0118
C20 C 0.6313(3) 0.6426(3) 0.6119(3)
H27 H 0.5818 0.7059 0.5648
C21 C 0.5476(4) 0.5599(4) 0.6524(3)
H28 H 0.5025 0.5047 0.5969
H29 H 0.5953 0.5059 0.7077
C22 C 0.4614(4) 0.6355(4) 0.6929(3)
H30 H 0.5068 0.6848 0.7524
H31 H 0.4196 0.6954 0.6396
C23 C 0.3717(4) 0.5580(4) 0.7239(4)
H32 H 0.4130 0.5039 0.7819
H33 H 0.3314 0.5026 0.6666
C24 C 0.2778(4) 0.6367(4) 0.7552(3)
H34 H 0.2431 0.6959 0.6980
C25 C 0.3308(4) 0.7152(5) 0.8487(3)
H35 H 0.2677 0.7590 0.8683
H36 H 0.3852 0.7766 0.8339
H37 H 0.3738 0.6610 0.9047
C26 C 0.1775(5) 0.5535(5) 0.7668(7)
H38 H 0.2027 0.5092 0.8321
H39 H 0.1569 0.4925 0.7111
H40 H 0.1085 0.6055 0.7647
C27 C 0.7168(4) 0.7140(4) 0.6987(4)
H41 H 0.6727 0.7556 0.7401
H42 H 0.7590 0.7769 0.6705
H43 H 0.7736 0.6553 0.7413
C28 C 0.7197(3) 0.7538(4) 0.4447(3)
H44 H 0.7135 0.8155 0.4958
H45 H 0.6406 0.7326 0.4015
H46 H 0.7663 0.7889 0.4026
C29 C 1.0339(4) 0.7757(3) 0.2993(3)
H47 H 1.0442 0.8440 0.3489
H48 H 0.9504 0.7688 0.2611
H49 H 1.0805 0.7933 0.2521
C30 C 1.3975(4) 0.5461(4) 0.1664(3)
H50 H 1.3259 0.5261 0.1105
H51 H 1.4254 0.4681 0.2048
C31 C 1.4912(3) 0.5955(4) 0.1232(3)
C32 C 1.5372(4) 0.7160(4) 0.1450(3)
H52 H 1.5081 0.7696 0.1876
C33 C 1.6255(4) 0.7576(5) 0.1047(3)
H53 H 1.6588 0.8384 0.1218
C34 C 1.6644(4) 0.6836(5) 0.0411(3)
C35 C 1.6215(4) 0.5632(4) 0.0177(3)
H54 H 1.6508 0.5112 -0.0257
C36 C 1.5347(4) 0.5205(4) 0.0593(4)
H55 H 1.5043 0.4381 0.0439
O1 O 1.3701(3) 0.6359(3) 0.2317(2)
O2 O 1.0156(4) 0.3107(3) 0.1630(3)
O3 O 0.8825(3) 0.4221(4) 0.0489(2)
loop_
_geom_bond_atom_site_label_1
_geom_bond_atom_site_label_2
_geom_bond_site_symmetry_1
_geom_bond_site_symmetry_2
Br1 C34 1_555 1_555
C1 H1 1_555 1_555
C2 C1 1_555 1_555
H2 C2 1_555 1_555
H3 C2 1_555 1_555
C3 C2 1_555 1_555
H4 C3 1_555 1_555
C4 C3 1_555 1_555
H5 C4 1_555 1_555
C5 C4 1_555 1_555
H6 C5 1_555 1_555
H7 C5 1_555 1_555
C6 C5 1_555 1_555
H8 C6 1_555 1_555
C7 C6 1_555 1_555
H9 C7 1_555 1_555
C8 C7 1_555 1_555
H10 C8 1_555 1_555
H11 C8 1_555 1_555
C9 C8 1_555 1_555
H12 C9 1_555 1_555
H13 C9 1_555 1_555
C10 C9 1_555 1_555
H14 C10 1_555 1_555
C11 C7 1_555 1_555
C12 C11 1_555 1_555
H15 C12 1_555 1_555
H16 C12 1_555 1_555
C13 C12 1_555 1_555
H17 C13 1_555 1_555
H18 C13 1_555 1_555
C14 C6 1_555 1_555
H19 C14 1_555 1_555
C15 C3 1_555 1_555
C16 C15 1_555 1_555
H20 C16 1_555 1_555
H21 C16 1_555 1_555
C17 C1 1_555 1_555
H22 C17 1_555 1_555
H23 C17 1_555 1_555
C18 C4 1_555 1_555
C19 H24 1_555 1_555
H25 C19 1_555 1_555
H26 C19 1_555 1_555
C20 C10 1_555 1_555
H27 C20 1_555 1_555
C21 C20 1_555 1_555
H28 C21 1_555 1_555
H29 C21 1_555 1_555
C22 C21 1_555 1_555
H30 C22 1_555 1_555
H31 C22 1_555 1_555
C23 C22 1_555 1_555
H32 C23 1_555 1_555
H33 C23 1_555 1_555
C24 C23 1_555 1_555
H34 C24 1_555 1_555
C25 C24 1_555 1_555
H35 C25 1_555 1_555
H36 C25 1_555 1_555
H37 C25 1_555 1_555
C26 C24 1_555 1_555
H38 C26 1_555 1_555
H39 C26 1_555 1_555
H40 C26 1_555 1_555
C27 C20 1_555 1_555
H41 C27 1_555 1_555
H42 C27 1_555 1_555
H43 C27 1_555 1_555
C28 C11 1_555 1_555
H44 C28 1_555 1_555
H45 C28 1_555 1_555
H46 C28 1_555 1_555
C29 C15 1_555 1_555
H47 C29 1_555 1_555
H48 C29 1_555 1_555
H49 C29 1_555 1_555
C30 H50 1_555 1_555
H51 C30 1_555 1_555
C31 C30 1_555 1_555
C32 C31 1_555 1_555
H52 C32 1_555 1_555
C33 C32 1_555 1_555
H53 C33 1_555 1_555
C34 C33 1_555 1_555
C35 C34 1_555 1_555
H54 C35 1_555 1_555
C36 C31 1_555 1_555
H55 C36 1_555 1_555
O1 C1 1_555 1_555
O2 C18 1_555 1_555
O3 C18 1_555 1_555
C10 C11 1_555 1_555
C13 C14 1_555 1_555
C14 C15 1_555 1_555
C16 C17 1_555 1_555
C19 O3 1_555 1_555
C30 O1 1_555 1_555
C35 C36 1_555 1_555

#END
