
#######################################################################
#
#                 Cambridge Crystallographic Data Centre
#                                CCDC 
#
#######################################################################
#
# If this CIF has been generated from an entry in the Cambridge 
# Structural Database, then it will include bibliographic, chemical, 
# crystal, experimental, refinement or atomic coordinate data resulting 
# from the CCDC's data processing and validation procedures.
#
#######################################################################

data_JAKSOG
_chemical_formula_moiety         'C11 H10 Br1 F3 O3'
_chemical_name_systematic        
'methyl 4-(2-bromo-1-(trifluoromethoxy)ethyl)benzoate'
_symmetry_cell_setting           monoclinic
_symmetry_space_group_name_H-M   'P 21'
_symmetry_Int_Tables_number      4
_space_group_name_Hall           'P 2yb'
loop_
_symmetry_equiv_pos_site_id
_symmetry_equiv_pos_as_xyz
1 x,y,z
2 -x,1/2+y,-z
_cell_length_a                   8.0066(16)
_cell_length_b                   13.816(3)
_cell_length_c                   11.661(2)
_cell_angle_alpha                90
_cell_angle_beta                 94.69(3)
_cell_angle_gamma                90
_cell_volume                     1285.61
_exptl_crystal_colour            colorless
_exptl_crystal_description       block
_cell_formula_units_Z            4
loop_
_atom_site_label
_atom_site_type_symbol
_atom_site_fract_x
_atom_site_fract_y
_atom_site_fract_z
Br1 Br 1.15507(10) -0.05294(6) 1.01371(7)
O1 O 0.2988(5) -0.0543(5) 0.4618(4)
C1 C 0.9702(8) -0.0689(5) 0.8973(6)
H1 H 1.0129 -0.0947 0.8281
H2 H 0.8922 -0.1157 0.9243
O2 O 0.1485(6) -0.0618(5) 0.6109(5)
C2 C 0.2777(9) -0.0515(6) 0.5699(7)
C3 C 0.7245(8) 0.0052(5) 0.7867(6)
O3 O 0.9936(5) 0.0880(3) 0.8188(4)
C4 C 0.7370(8) -0.0179(5) 0.6742(6)
H3 H 0.8421 -0.0224 0.6460
C5 C 0.4380(8) -0.0307(5) 0.6446(6)
C6 C 0.8791(8) 0.0225(5) 0.8683(6)
H4 H 0.8442 0.0512 0.9394
C7 C 0.5706(9) 0.0095(5) 0.8313(6)
H5 H 0.5621 0.0251 0.9081
C8 C 0.5945(8) -0.0349(6) 0.6015(6)
H6 H 0.6036 -0.0490 0.5243
C9 C 0.4269(9) -0.0103(5) 0.7579(6)
H7 H 0.3223 -0.0094 0.7872
F1 F 1.0162(7) 0.2016(4) 0.9530(4)
F2 F 0.8347(7) 0.2174(4) 0.8171(5)
C10 C 0.1525(10) -0.0715(7) 0.3852(7)
H8 H 0.0906 -0.1248 0.4133
H9 H 0.1856 -0.0867 0.3099
H10 H 0.0834 -0.0147 0.3811
F3 F 1.0911(8) 0.2304(5) 0.7913(5)
C11 C 0.9828(11) 0.1821(6) 0.8458(7)
Br2 Br 0.45026(10) 0.21960(7) 0.05973(7)
O4 O 1.3323(5) 0.2238(4) 0.5992(4)
O5 O 1.4702(6) 0.2133(6) 0.4431(4)
C12 C 0.8676(7) 0.1638(5) 0.2988(6)
C13 C 1.3416(7) 0.2104(5) 0.4889(6)
O6 O 0.7118(5) 0.0647(3) 0.1540(4)
C14 C 1.1733(7) 0.1961(5) 0.4237(6)
C15 C 0.6608(8) 0.2349(6) 0.1517(6)
H11 H 0.7499 0.2434 0.1010
H12 H 0.6558 0.2929 0.1982
F4 F 0.7421(6) -0.0446(4) 0.2923(4)
C16 C 1.0177(9) 0.1700(6) 0.2450(6)
H13 H 1.0156 0.1634 0.1655
C17 C 0.8771(8) 0.1738(5) 0.4172(5)
H14 H 0.7798 0.1700 0.4554
C18 C 1.4879(9) 0.2378(6) 0.6685(6)
H15 H 1.5644 0.1867 0.6535
H16 H 1.4672 0.2372 0.7484
H17 H 1.5357 0.2990 0.6498
C19 C 0.7026(8) 0.1481(5) 0.2309(5)
H18 H 0.6139 0.1383 0.2829
C20 C 1.0281(8) 0.1891(5) 0.4792(6)
H19 H 1.0324 0.1949 0.5588
C21 C 0.6681(11) -0.0199(6) 0.1944(8)
F5 F 0.5027(7) -0.0216(4) 0.2092(6)
F6 F 0.6895(8) -0.0862(3) 0.1181(5)
C22 C 1.1633(9) 0.1854(6) 0.3063(6)
H20 H 1.2610 0.1889 0.2685
loop_
_geom_bond_atom_site_label_1
_geom_bond_atom_site_label_2
_geom_bond_site_symmetry_1
_geom_bond_site_symmetry_2
Br1 C1 1_555 1_555
O1 C2 1_555 1_555
C1 H1 1_555 1_555
H2 C1 1_555 1_555
O2 C2 1_555 1_555
C2 C5 1_555 1_555
C3 C4 1_555 1_555
O3 C6 1_555 1_555
C4 H3 1_555 1_555
C5 C8 1_555 1_555
C6 C1 1_555 1_555
H4 C6 1_555 1_555
C7 C3 1_555 1_555
H5 C7 1_555 1_555
C8 C4 1_555 1_555
H6 C8 1_555 1_555
C9 C5 1_555 1_555
H7 C9 1_555 1_555
F1 C11 1_555 1_555
F2 C11 1_555 1_555
C10 O1 1_555 1_555
H8 C10 1_555 1_555
H9 C10 1_555 1_555
H10 C10 1_555 1_555
F3 C11 1_555 1_555
C11 O3 1_555 1_555
Br2 C15 1_555 1_555
O4 C13 1_555 1_555
O5 C13 1_555 1_555
C12 C16 1_555 1_555
C13 C14 1_555 1_555
O6 C19 1_555 1_555
C14 C20 1_555 1_555
C15 H11 1_555 1_555
H12 C15 1_555 1_555
F4 C21 1_555 1_555
C16 H13 1_555 1_555
C17 C12 1_555 1_555
H14 C17 1_555 1_555
C18 O4 1_555 1_555
H15 C18 1_555 1_555
H16 C18 1_555 1_555
H17 C18 1_555 1_555
C19 C12 1_555 1_555
H18 C19 1_555 1_555
C20 C17 1_555 1_555
H19 C20 1_555 1_555
C21 O6 1_555 1_555
F5 C21 1_555 1_555
F6 C21 1_555 1_555
C22 C14 1_555 1_555
H20 C22 1_555 1_555
C3 C6 1_555 1_555
C7 C9 1_555 1_555
C15 C19 1_555 1_555
C16 C22 1_555 1_555

#END
