
#######################################################################
#
#                 Cambridge Crystallographic Data Centre
#                                CCDC 
#
#######################################################################
#
# If this CIF has been generated from an entry in the Cambridge 
# Structural Database, then it will include bibliographic, chemical, 
# crystal, experimental, refinement or atomic coordinate data resulting 
# from the CCDC's data processing and validation procedures.
#
#######################################################################

data_JAKSUM
_chemical_formula_moiety         'C12 H12 Br1 F3 O3'
_chemical_name_systematic        
'2-bromo-3-phenyl-3-(trifluoromethoxy)propyl acetate'
_symmetry_cell_setting           orthorhombic
_symmetry_space_group_name_H-M   'P 21 21 21'
_symmetry_Int_Tables_number      19
_space_group_name_Hall           'P 2ac 2ab'
loop_
_symmetry_equiv_pos_site_id
_symmetry_equiv_pos_as_xyz
1 x,y,z
2 1/2-x,-y,1/2+z
3 -x,1/2+y,1/2-z
4 1/2+x,1/2-y,-z
_cell_length_a                   5.5243(11)
_cell_length_b                   9.4426(19)
_cell_length_c                   27.618(6)
_cell_angle_alpha                90
_cell_angle_beta                 90
_cell_angle_gamma                90
_cell_volume                     1440.66
_exptl_crystal_colour            colorless
_exptl_crystal_description       block
_cell_formula_units_Z            4
loop_
_atom_site_label
_atom_site_type_symbol
_atom_site_fract_x
_atom_site_fract_y
_atom_site_fract_z
Br1 Br 0.5778(2) 1.09061(15) 0.80182(4)
C1 C 0.8653(15) 1.1454(6) 0.9027(2)
C2 C 1.0468(12) 1.2441(9) 0.8939(2)
H1 H 1.1728 1.2222 0.8728
C3 C 1.0398(13) 1.3755(8) 0.9165(3)
H2 H 1.1612 1.4415 0.9106
C4 C 0.8515(17) 1.4082(7) 0.9479(2)
H3 H 0.8469 1.4961 0.9631
C5 C 0.6701(13) 1.3095(10) 0.9567(2)
H4 H 0.5440 1.3314 0.9778
C6 C 0.6770(12) 1.1781(9) 0.9341(3)
H5 H 0.5556 1.1121 0.9400
C7 C 0.8771(19) 1.0000(11) 0.8785(4)
H6 H 0.7415 0.9416 0.8896
C8 C 1.108(2) 0.8435(12) 0.9292(5)
C9 C 0.8839(19) 1.0011(12) 0.8238(4)
H7 H 1.0184 1.0619 0.8136
C10 C 0.913(2) 0.8608(11) 0.7994(4)
H8 H 0.8932 0.8706 0.7647
H9 H 1.0726 0.8222 0.8058
C11 C 0.749(2) 0.6317(14) 0.8098(4)
C12 C 0.550(2) 0.5424(11) 0.8316(4)
H10 H 0.3994 0.5639 0.8159
H11 H 0.5373 0.5625 0.8656
H12 H 0.5877 0.4440 0.8271
F1 F 0.9840(16) 0.7297(8) 0.9201(3)
F2 F 1.0199(14) 0.8957(9) 0.9687(2)
F3 F 1.3273(15) 0.8017(8) 0.9389(3)
O1 O 1.1110(14) 0.9310(9) 0.8920(3)
O2 O 0.9040(17) 0.5840(9) 0.7848(3)
O3 O 0.7257(14) 0.7677(9) 0.8193(2)
loop_
_geom_bond_atom_site_label_1
_geom_bond_atom_site_label_2
_geom_bond_site_symmetry_1
_geom_bond_site_symmetry_2
Br1 C9 1_555 1_555
C1 C2 1_555 1_555
C2 H1 1_555 1_555
C3 C2 1_555 1_555
H2 C3 1_555 1_555
C4 C3 1_555 1_555
H3 C4 1_555 1_555
C5 C4 1_555 1_555
H4 C5 1_555 1_555
C6 C1 1_555 1_555
H5 C6 1_555 1_555
C7 C1 1_555 1_555
H6 C7 1_555 1_555
C8 F1 1_555 1_555
C9 C7 1_555 1_555
H7 C9 1_555 1_555
C10 C9 1_555 1_555
H8 C10 1_555 1_555
H9 C10 1_555 1_555
C11 C12 1_555 1_555
C12 H10 1_555 1_555
H11 C12 1_555 1_555
H12 C12 1_555 1_555
F2 C8 1_555 1_555
F3 C8 1_555 1_555
O1 C7 1_555 1_555
O2 C11 1_555 1_555
O3 C10 1_555 1_555
C5 C6 1_555 1_555
C8 O1 1_555 1_555
C11 O3 1_555 1_555

#END
