
#######################################################################
#
#                 Cambridge Crystallographic Data Centre
#                                CCDC 
#
#######################################################################
#
# If this CIF has been generated from an entry in the Cambridge 
# Structural Database, then it will include bibliographic, chemical, 
# crystal, experimental, refinement or atomic coordinate data resulting 
# from the CCDC's data processing and validation procedures.
#
#######################################################################

data_JAKTOH
_chemical_formula_moiety         'C34 H14 Br4 N4'
_chemical_name_systematic        
2,7,13,18-tetrabromodibenzo[a,c]dibenzo[5,6:7,8]quinoxalino[2,3-i]phenazine
_symmetry_cell_setting           monoclinic
_symmetry_space_group_name_H-M   'P 21/n'
_symmetry_Int_Tables_number      14
_space_group_name_Hall           '-P 2yn'
loop_
_symmetry_equiv_pos_site_id
_symmetry_equiv_pos_as_xyz
1 x,y,z
2 1/2-x,1/2+y,1/2-z
3 -x,-y,-z
4 1/2+x,1/2-y,1/2+z
_cell_length_a                   11.2408(10)
_cell_length_b                   4.6467(4)
_cell_length_c                   25.9293(19)
_cell_angle_alpha                90
_cell_angle_beta                 99.857(5)
_cell_angle_gamma                90
_cell_volume                     1334.36
_exptl_crystal_colour            red
_exptl_crystal_description       Needle
_cell_formula_units_Z            2
loop_
_atom_site_label
_atom_site_type_symbol
_atom_site_fract_x
_atom_site_fract_y
_atom_site_fract_z
Br1 Br 0.32163(6) 0.59290(18) 0.42270(3)
Br2 Br 1.14503(6) 1.08897(19) 0.27562(3)
N1 N 0.7866(5) 0.2772(11) 0.45976(19)
N2 N 1.0038(4) 0.4144(11) 0.42315(18)
C1 C 0.6801(5) 0.6264(13) 0.4020(2)
C2 C 0.5711(6) 0.5588(14) 0.4205(2)
H1 H 0.5710 0.4180 0.4470
C3 C 0.4679(6) 0.6958(15) 0.4000(2)
C4 C 0.4650(6) 0.9098(15) 0.3621(2)
H2 H 0.3918 1.0077 0.3490
C5 C 0.5692(6) 0.9765(14) 0.3440(2)
H3 H 0.5672 1.1206 0.3179
C6 C 0.6792(5) 0.8379(14) 0.3630(2)
C7 C 0.7917(6) 0.9033(13) 0.3433(2)
C8 C 0.7951(5) 1.1115(14) 0.3040(2)
H4 H 0.7240 1.2169 0.2908
C9 C 0.8998(6) 1.1660(14) 0.2841(2)
H5 H 0.9004 1.3054 0.2574
C10 C 1.0033(6) 1.0141(15) 0.3039(2)
C11 C 1.0045(5) 0.8138(14) 0.3428(2)
H6 H 1.0769 0.7130 0.3560
C12 C 0.8991(5) 0.7576(13) 0.3630(2)
C13 C 0.9018(5) 0.5419(13) 0.4044(2)
C14 C 0.7906(5) 0.4739(13) 0.4235(2)
C15 C 0.8918(5) 0.1406(13) 0.4793(2)
C16 C 1.0019(6) 0.2114(13) 0.4611(2)
C17 C 0.8914(6) -0.0713(14) 0.5179(2)
H7 H 0.8184 -0.1188 0.5298
Br1B Br 1.67837(6) -0.59290(18) 0.57730(3)
Br2B Br 0.85497(6) -1.08897(19) 0.72438(3)
N1B N 1.2134(5) -0.2772(11) 0.54024(19)
N2B N 0.9962(4) -0.4144(11) 0.57685(18)
C1B C 1.3199(5) -0.6264(13) 0.5980(2)
C2B C 1.4289(6) -0.5588(14) 0.5795(2)
H1B H 1.4290 -0.4180 0.5530
C3B C 1.5321(6) -0.6958(15) 0.6000(2)
C4B C 1.5350(6) -0.9098(15) 0.6379(2)
H2B H 1.6082 -1.0077 0.6510
C5B C 1.4308(6) -0.9765(14) 0.6560(2)
H3B H 1.4328 -1.1206 0.6821
C6B C 1.3208(5) -0.8379(14) 0.6370(2)
C7B C 1.2083(6) -0.9033(13) 0.6567(2)
C8B C 1.2049(5) -1.1115(14) 0.6960(2)
H4B H 1.2760 -1.2169 0.7092
C9B C 1.1002(6) -1.1660(14) 0.7159(2)
H5B H 1.0996 -1.3054 0.7426
C10B C 0.9967(6) -1.0141(15) 0.6961(2)
C11B C 0.9955(5) -0.8138(14) 0.6572(2)
H6B H 0.9231 -0.7130 0.6440
C12B C 1.1009(5) -0.7576(13) 0.6370(2)
C13B C 1.0982(5) -0.5419(13) 0.5956(2)
C14B C 1.2094(5) -0.4739(13) 0.5765(2)
C15B C 1.1082(5) -0.1406(13) 0.5207(2)
C16B C 0.9981(6) -0.2114(13) 0.5389(2)
C17B C 1.1086(6) 0.0713(14) 0.4821(2)
H7B H 1.1816 0.1188 0.4702
loop_
_geom_bond_atom_site_label_1
_geom_bond_atom_site_label_2
_geom_bond_site_symmetry_1
_geom_bond_site_symmetry_2
Br1 C3 1_555 1_555
Br2 C10 1_555 1_555
N1 C14 1_555 1_555
N2 C13 1_555 1_555
C1 C2 1_555 1_555
C2 H1 1_555 1_555
C3 C2 1_555 1_555
C4 C3 1_555 1_555
H2 C4 1_555 1_555
C5 C4 1_555 1_555
H3 C5 1_555 1_555
C6 C1 1_555 1_555
C7 C6 1_555 1_555
C8 C7 1_555 1_555
H4 C8 1_555 1_555
C9 C8 1_555 1_555
H5 C9 1_555 1_555
C10 C9 1_555 1_555
C11 C10 1_555 1_555
H6 C11 1_555 1_555
C12 C7 1_555 1_555
C13 C12 1_555 1_555
C14 C1 1_555 1_555
C15 N1 1_555 1_555
C16 N2 1_555 1_555
C17 C15 1_555 1_555
H7 C17 1_555 1_555
Br1B C3B 1_555 1_555
Br2B C10B 1_555 1_555
N1B C14B 1_555 1_555
N2B C13B 1_555 1_555
C1B C2B 1_555 1_555
C2B H1B 1_555 1_555
C3B C2B 1_555 1_555
C4B C3B 1_555 1_555
H2B C4B 1_555 1_555
C5B C4B 1_555 1_555
H3B C5B 1_555 1_555
C6B C1B 1_555 1_555
C7B C6B 1_555 1_555
C8B C7B 1_555 1_555
H4B C8B 1_555 1_555
C9B C8B 1_555 1_555
H5B C9B 1_555 1_555
C10B C9B 1_555 1_555
C11B C10B 1_555 1_555
H6B C11B 1_555 1_555
C12B C7B 1_555 1_555
C13B C12B 1_555 1_555
C14B C1B 1_555 1_555
C15B N1B 1_555 1_555
C16B C17 1_555 1_555
C17B C16 1_555 1_555
H7B C17B 1_555 1_555
C5 C6 1_555 1_555
C11 C12 1_555 1_555
C13 C14 1_555 1_555
C15 C16 1_555 1_555
N2B C16B 1_555 1_555
C5B C6B 1_555 1_555
C11B C12B 1_555 1_555
C13B C14B 1_555 1_555
C15B C16B 1_555 1_555
C15B C17B 1_555 1_555

#END
