
#######################################################################
#
#                 Cambridge Crystallographic Data Centre
#                                CCDC 
#
#######################################################################
#
# If this CIF has been generated from an entry in the Cambridge 
# Structural Database, then it will include bibliographic, chemical, 
# crystal, experimental, refinement or atomic coordinate data resulting 
# from the CCDC's data processing and validation procedures.
#
#######################################################################

data_JAKTUN
_chemical_formula_moiety         'C34 H18 N4'
_chemical_name_systematic        
dibenzo[a,c]dibenzo[5,6:7,8]quinoxalino[2,3-i]phenazine
_symmetry_cell_setting           monoclinic
_symmetry_space_group_name_H-M   'P 21/c'
_symmetry_Int_Tables_number      14
_space_group_name_Hall           '-P 2ybc'
loop_
_symmetry_equiv_pos_site_id
_symmetry_equiv_pos_as_xyz
1 x,y,z
2 -x,1/2+y,1/2-z
3 -x,-y,-z
4 x,1/2-y,1/2+z
_cell_length_a                   3.7700(6)
_cell_length_b                   16.615(2)
_cell_length_c                   17.088(3)
_cell_angle_alpha                90
_cell_angle_beta                 95.723(6)
_cell_angle_gamma                90
_cell_volume                     1065.03
_exptl_crystal_colour            red
_exptl_crystal_description       Needle
_cell_formula_units_Z            2
loop_
_atom_site_label
_atom_site_type_symbol
_atom_site_fract_x
_atom_site_fract_y
_atom_site_fract_z
N1 N 0.7123(7) 0.56273(14) 0.36104(13)
N2 N 0.4575(7) 0.66495(13) 0.47703(14)
C1 C 0.7959(9) 0.67692(16) 0.27845(16)
C2 C 0.9237(9) 0.62695(17) 0.22110(17)
H1 H 0.9567 0.5711 0.2314
C3 C 1.0016(9) 0.65820(17) 0.14994(17)
H2 H 1.0831 0.6239 0.1110
C4 C 0.9598(9) 0.74047(18) 0.13563(17)
H3 H 1.0122 0.7621 0.0866
C5 C 0.8431(9) 0.79060(18) 0.19198(17)
H4 H 0.8203 0.8466 0.1816
C6 C 0.7570(8) 0.76022(17) 0.26470(16)
C7 C 0.6301(9) 0.81323(17) 0.32534(16)
C8 C 0.5947(9) 0.89698(17) 0.31478(17)
H5 H 0.6525 0.9206 0.2670
C9 C 0.4772(9) 0.94548(18) 0.37280(17)
H6 H 0.4569 1.0019 0.3646
C10 C 0.3885(9) 0.91220(18) 0.44322(17)
H7 H 0.3060 0.9457 0.4827
C11 C 0.4213(9) 0.83060(16) 0.45512(17)
H8 H 0.3632 0.8080 0.5033
C12 C 0.5396(9) 0.78015(17) 0.39692(16)
C13 C 0.5624(8) 0.69353(17) 0.41084(15)
C14 C 0.6922(8) 0.64142(17) 0.35157(16)
C15 C 0.6077(9) 0.53182(17) 0.42943(15)
C16 C 0.4804(9) 0.58363(16) 0.48809(16)
C17 C 0.3751(9) 0.55092(17) 0.55793(16)
H9 H 0.2921 0.5853 0.5966
N1B N 0.2877(7) 0.43727(14) 0.63896(13)
N2B N 0.5425(7) 0.33505(13) 0.52297(14)
C1B C 0.2041(9) 0.32308(16) 0.72155(16)
C2B C 0.0763(9) 0.37305(17) 0.77890(17)
H1B H 0.0433 0.4289 0.7686
C3B C -0.0016(9) 0.34180(17) 0.85006(17)
H2B H -0.0831 0.3761 0.8890
C4B C 0.0402(9) 0.25953(18) 0.86437(17)
H3B H -0.0122 0.2379 0.9134
C5B C 0.1569(9) 0.20940(18) 0.80802(17)
H4B H 0.1797 0.1534 0.8184
C6B C 0.2430(8) 0.23978(17) 0.73530(16)
C7B C 0.3699(9) 0.18677(17) 0.67466(16)
C8B C 0.4053(9) 0.10302(17) 0.68522(17)
H5B H 0.3475 0.0794 0.7330
C9B C 0.5228(9) 0.05452(18) 0.62720(17)
H6B H 0.5431 -0.0019 0.6354
C10B C 0.6115(9) 0.08780(18) 0.55678(17)
H7B H 0.6940 0.0543 0.5173
C11B C 0.5787(9) 0.16940(16) 0.54488(17)
H8B H 0.6368 0.1920 0.4967
C12B C 0.4604(9) 0.21985(17) 0.60308(16)
C13B C 0.4376(8) 0.30647(17) 0.58916(15)
C14B C 0.3078(8) 0.35858(17) 0.64843(16)
C15B C 0.3923(9) 0.46818(17) 0.57057(15)
C16B C 0.5196(9) 0.41637(16) 0.51191(16)
C17B C 0.6249(9) 0.44908(17) 0.44207(16)
H9B H 0.7079 0.4147 0.4034
loop_
_geom_bond_atom_site_label_1
_geom_bond_atom_site_label_2
_geom_bond_site_symmetry_1
_geom_bond_site_symmetry_2
N1 C14 1_555 1_555
N2 C13 1_555 1_555
C1 C2 1_555 1_555
C2 H1 1_555 1_555
C3 C2 1_555 1_555
H2 C3 1_555 1_555
C4 C3 1_555 1_555
H3 C4 1_555 1_555
C5 C4 1_555 1_555
H4 C5 1_555 1_555
C6 C1 1_555 1_555
C7 C6 1_555 1_555
C8 C7 1_555 1_555
H5 C8 1_555 1_555
C9 C8 1_555 1_555
H6 C9 1_555 1_555
C10 C9 1_555 1_555
H7 C10 1_555 1_555
C11 C10 1_555 1_555
H8 C11 1_555 1_555
C12 C7 1_555 1_555
C13 C12 1_555 1_555
C14 C1 1_555 1_555
C15 N1 1_555 1_555
C16 N2 1_555 1_555
C17 C16 1_555 1_555
H9 C17 1_555 1_555
N1B C14B 1_555 1_555
N2B C13B 1_555 1_555
C1B C2B 1_555 1_555
C2B H1B 1_555 1_555
C3B C2B 1_555 1_555
H2B C3B 1_555 1_555
C4B C3B 1_555 1_555
H3B C4B 1_555 1_555
C5B C4B 1_555 1_555
H4B C5B 1_555 1_555
C6B C1B 1_555 1_555
C7B C6B 1_555 1_555
C8B C7B 1_555 1_555
H5B C8B 1_555 1_555
C9B C8B 1_555 1_555
H6B C9B 1_555 1_555
C10B C9B 1_555 1_555
H7B C10B 1_555 1_555
C11B C10B 1_555 1_555
H8B C11B 1_555 1_555
C12B C7B 1_555 1_555
C13B C12B 1_555 1_555
C14B C1B 1_555 1_555
C15B C17 1_555 1_555
C16B N2B 1_555 1_555
C17B C15 1_555 1_555
H9B C17B 1_555 1_555
C5 C6 1_555 1_555
C11 C12 1_555 1_555
C13 C14 1_555 1_555
C15 C16 1_555 1_555
N1B C15B 1_555 1_555
C5B C6B 1_555 1_555
C11B C12B 1_555 1_555
C13B C14B 1_555 1_555
C15B C16B 1_555 1_555
C16B C17B 1_555 1_555

#END
