
#######################################################################
#
#                 Cambridge Crystallographic Data Centre
#                                CCDC 
#
#######################################################################
#
# If this CIF has been generated from an entry in the Cambridge 
# Structural Database, then it will include bibliographic, chemical, 
# crystal, experimental, refinement or atomic coordinate data resulting 
# from the CCDC's data processing and validation procedures.
#
#######################################################################

data_JAKXIC
_chemical_formula_moiety         'C14 H36 N2 Si4'
_chemical_name_systematic        
bis(2,2,5,5-Tetramethyl-1-aza-2,5-disilacyclopentyl)ethylene
_symmetry_cell_setting           orthorhombic
_symmetry_space_group_name_H-M   'P c a b'
_symmetry_Int_Tables_number      61
_space_group_name_Hall           '-P 2bc 2ac'
loop_
_symmetry_equiv_pos_site_id
_symmetry_equiv_pos_as_xyz
1 x,y,z
2 -x,1/2-y,1/2+z
3 1/2+x,-y,1/2-z
4 1/2-x,1/2+y,-z
5 -x,-y,-z
6 x,1/2+y,1/2-z
7 1/2-x,y,1/2+z
8 1/2+x,1/2-y,z
_cell_length_a                   11.043(3)
_cell_length_b                   12.811(2)
_cell_length_c                   16.090(4)
_cell_angle_alpha                90
_cell_angle_beta                 90
_cell_angle_gamma                90
_cell_volume                     2276.28
_chemical_melting_point          71-72deg.C
_cell_formula_units_Z            4
loop_
_atom_site_label
_atom_site_type_symbol
_atom_site_fract_x
_atom_site_fract_y
_atom_site_fract_z
Si1 Si 0.1259(2) 0.0598(2) 0.3283(1)
Si2 Si 0.2201(3) 0.1493(3) 0.4799(2)
N1 N 0.1089(6) 0.0757(6) 0.4337(3)
C1 C 0.2730(10) 0.1270(10) 0.3147(6)
C2 C 0.3100(20) 0.1770(20) 0.3900(20)
C3 C -0.0040(8) 0.0519(9) 0.4763(5)
C4 C -0.0010(10) 0.1230(10) 0.2690(6)
C5 C 0.1330(10) -0.0776(8) 0.2941(7)
C6 C 0.3010(20) 0.0810(20) 0.5637(9)
C7 C 0.1490(20) 0.2550(20) 0.542(20)
C3D C 0.0040(8) -0.0519(9) 0.5237(5)
N1D N -0.1089(6) -0.0757(6) 0.5663(3)
Si1D Si -0.1259(2) -0.0598(2) 0.6717(1)
Si2D Si -0.2201(3) -0.1493(3) 0.5201(2)
C1D C -0.2730(10) -0.1270(10) 0.6853(6)
C4D C 0.0010(10) -0.1230(10) 0.7310(6)
C5D C -0.1330(10) 0.0776(8) 0.7059(7)
C2D C -0.3100(20) -0.1770(20) 0.6100(20)
C6D C -0.3010(20) -0.0810(20) 0.4363(9)
C7D C -0.1490(20) -0.2550(20) 0.458(20)
loop_
_geom_bond_atom_site_label_1
_geom_bond_atom_site_label_2
_geom_bond_site_symmetry_1
_geom_bond_site_symmetry_2
Si1 N1 1_555 1_555
Si2 N1 1_555 1_555
N1 C3 1_555 1_555
C1 Si1 1_555 1_555
C2 Si2 1_555 1_555
C3 C3D 1_555 1_555
C4 Si1 1_555 1_555
C5 Si1 1_555 1_555
C6 Si2 1_555 1_555
C7 Si2 1_555 1_555
C3D N1D 1_555 1_555
N1D Si1D 1_555 1_555
Si1D C1D 1_555 1_555
Si2D N1D 1_555 1_555
C1D C2D 1_555 1_555
C4D Si1D 1_555 1_555
C5D Si1D 1_555 1_555
C2D Si2D 1_555 1_555
C6D Si2D 1_555 1_555
C7D Si2D 1_555 1_555
C1 C2 1_555 1_555

#END
