
#######################################################################
#
#                 Cambridge Crystallographic Data Centre
#                                CCDC 
#
#######################################################################
#
# If this CIF has been generated from an entry in the Cambridge 
# Structural Database, then it will include bibliographic, chemical, 
# crystal, experimental, refinement or atomic coordinate data resulting 
# from the CCDC's data processing and validation procedures.
#
#######################################################################

data_JAKYIG
_chemical_formula_moiety         'C28 H22 N2 O3'
_chemical_name_systematic        
3-benzoyl-6-benzylidene-1'-methyl-5H-spiro[bicyclo[2.2.1]heptane-2,3'-pyrrolo[2,3-b]pyridine]-2',5(1'H)-dione
_symmetry_cell_setting           monoclinic
_symmetry_space_group_name_H-M   'P 21'
_symmetry_Int_Tables_number      4
_space_group_name_Hall           'P 2yb'
loop_
_symmetry_equiv_pos_site_id
_symmetry_equiv_pos_as_xyz
1 x,y,z
2 -x,1/2+y,-z
_cell_length_a                   8.94051(11)
_cell_length_b                   27.7140(4)
_cell_length_c                   9.06199(14)
_cell_angle_alpha                90
_cell_angle_beta                 92.8149(12)
_cell_angle_gamma                90
_cell_volume                     2242.65
_exptl_crystal_colour            colorless
_cell_formula_units_Z            4
loop_
_atom_site_label
_atom_site_type_symbol
_atom_site_fract_x
_atom_site_fract_y
_atom_site_fract_z
O1 O 0.4402(2) 0.65069(10) 0.4043(3)
N1 N 0.6702(3) 0.68518(10) 0.3776(3)
O2 O 0.7919(5) 0.50049(12) 0.5403(5)
C1 C 0.5725(3) 0.64731(11) 0.3847(3)
O3 O 0.2862(4) 0.51883(15) 0.2867(5)
N2 N 0.9330(3) 0.69791(12) 0.3750(4)
C2 C 0.8173(3) 0.66834(12) 0.3718(4)
C3 C 0.7778(4) 0.56726(15) 0.6988(4)
C4 C 0.4485(4) 0.57595(12) 0.1734(4)
C5 C 0.8194(3) 0.61823(12) 0.3666(3)
C6 C 0.6157(4) 0.58135(12) 0.1975(4)
H1 H 0.6645 0.5983 0.1181
C7 C 0.4090(5) 0.53509(15) 0.2707(5)
C8 C 0.3731(4) 0.63753(14) -0.0189(4)
C9 C 0.3501(4) 0.59651(14) 0.0785(4)
H2 H 0.2546 0.5831 0.0735
C10 C 0.6249(4) 0.73531(14) 0.3867(6)
H3 H 0.5350 0.7403 0.3262
H4 H 0.7030 0.7556 0.3526
H5 H 0.6065 0.7432 0.4874
C11 C 0.6588(3) 0.60075(11) 0.3574(3)
C12 C 1.0828(4) 0.62662(18) 0.3690(5)
H6 H 1.1782 0.6133 0.3690
C13 C 0.7311(4) 0.53855(14) 0.5645(5)
C14 C 0.6084(4) 0.55748(12) 0.4562(4)
H7 H 0.5222 0.5676 0.5115
C15 C 1.0661(4) 0.67525(18) 0.3731(5)
H8 H 1.1521 0.6941 0.3746
C16 C 0.4510(5) 0.67813(16) 0.0276(5)
H9 H 0.4920 0.6793 0.1239
C17 C 0.9569(4) 0.59642(15) 0.3649(4)
H10 H 0.9662 0.5630 0.3612
C18 C 0.7319(5) 0.61406(18) 0.7217(5)
H11 H 0.6604 0.6279 0.6569
C19 C 0.4143(7) 0.7148(2) -0.2066(6)
H12 H 0.4299 0.7404 -0.2704
C20 C 0.8927(6) 0.6184(3) 0.9402(5)
H13 H 0.9343 0.6359 1.0196
C21 C 0.6617(5) 0.52809(14) 0.2161(5)
H14 H 0.6365 0.5089 0.1289
H15 H 0.7667 0.5241 0.2457
C22 C 0.8769(4) 0.54566(18) 0.8022(6)
H16 H 0.9060 0.5138 0.7895
C23 C 0.4698(7) 0.7171(2) -0.0640(7)
H17 H 0.5196 0.7446 -0.0291
C24 C 0.3375(7) 0.6758(3) -0.2559(5)
H18 H 0.3002 0.6747 -0.3535
C25 C 0.5576(5) 0.51847(14) 0.3425(5)
H19 H 0.5587 0.4853 0.3801
C26 C 0.7915(6) 0.6408(2) 0.8408(5)
H20 H 0.7642 0.6728 0.8536
C27 C 0.9319(5) 0.5714(2) 0.9233(6)
H21 H 0.9959 0.5566 0.9935
C28 C 0.3133(6) 0.6372(2) -0.1623(5)
H22 H 0.2564 0.6110 -0.1964
O4 O 0.5820(3) 0.32559(11) 0.8966(3)
O5 O 1.1507(3) 0.31614(13) 0.7558(4)
O6 O 0.6509(4) 0.29158(13) 0.4777(4)
N3 N 0.7008(3) 0.37870(13) 1.0568(3)
C29 C 0.6840(4) 0.35288(12) 0.9283(4)
C30 C 0.9155(4) 0.39458(10) 0.9394(3)
C31 C 0.8373(4) 0.40210(12) 1.0682(4)
C32 C 0.8174(3) 0.36451(10) 0.8349(3)
N4 N 0.8826(5) 0.42713(14) 1.1848(4)
C33 C 0.7121(5) 0.32301(15) 0.5508(4)
C34 C 0.8753(4) 0.32547(15) 0.6011(4)
H23 H 0.9427 0.3057 0.5442
C35 C 0.6432(4) 0.36751(13) 0.6094(4)
C36 C 0.7717(4) 0.39325(12) 0.6900(4)
H24 H 0.7564 0.4279 0.7042
C37 C 1.0448(4) 0.30809(13) 0.8311(5)
C38 C 0.8859(4) 0.31693(12) 0.7687(4)
H25 H 0.8228 0.2893 0.7924
C39 C 1.0656(4) 0.29385(14) 0.9886(5)
C40 C 1.0531(4) 0.41630(13) 0.9326(4)
H26 H 1.1099 0.4132 0.8499
C41 C 0.4166(4) 0.42105(15) 0.6326(4)
C42 C 1.1042(5) 0.44316(14) 1.0548(5)
H27 H 1.1970 0.4583 1.0545
C43 C 0.4995(4) 0.37900(15) 0.5848(4)
H28 H 0.4434 0.3568 0.5285
C44 C 1.0189(6) 0.44741(17) 1.1753(5)
H29 H 1.0571 0.4653 1.2554
C45 C 1.2030(5) 0.3032(2) 1.0616(6)
H30 H 1.2808 0.3161 1.0098
C46 C 0.2840(5) 0.43298(19) 0.5564(5)
H31 H 0.2480 0.4131 0.4800
C47 C 0.9005(4) 0.38023(16) 0.5909(4)
H32 H 0.8852 0.3925 0.4910
H33 H 0.9977 0.3902 0.6326
C48 C 0.4643(6) 0.4507(2) 0.7504(6)
H34 H 0.5506 0.4429 0.8068
C49 C 0.9532(5) 0.27434(18) 1.0700(6)
H35 H 0.8602 0.2677 1.0240
C50 C 0.9777(6) 0.2646(3) 1.2184(7)
H36 H 0.9010 0.2516 1.2715
C51 C 1.1137(6) 0.2739(3) 1.2885(7)
H37 H 1.1304 0.2671 1.3885
C52 C 0.2039(6) 0.4735(2) 0.5906(7)
H38 H 0.1153 0.4809 0.5374
C53 C 1.2244(6) 0.2935(3) 1.2084(7)
H39 H 1.3168 0.3004 1.2554
C54 C 0.3846(7) 0.4915(2) 0.7835(8)
H40 H 0.4187 0.5114 0.8608
C55 C 0.5950(7) 0.3765(3) 1.1735(6)
H41 H 0.5006 0.3897 1.1381
H42 H 0.6330 0.3949 1.2570
H43 H 0.5816 0.3435 1.2025
C56 C 0.2560(7) 0.5030(2) 0.7042(9)
H44 H 0.2034 0.5308 0.7267
loop_
_geom_bond_atom_site_label_1
_geom_bond_atom_site_label_2
_geom_bond_site_symmetry_1
_geom_bond_site_symmetry_2
O1 C1 1_555 1_555
N1 C1 1_555 1_555
O2 C13 1_555 1_555
C1 C11 1_555 1_555
O3 C7 1_555 1_555
N2 C2 1_555 1_555
C2 N1 1_555 1_555
C3 C13 1_555 1_555
C4 C6 1_555 1_555
C5 C2 1_555 1_555
C6 H1 1_555 1_555
C7 C4 1_555 1_555
C8 C9 1_555 1_555
C9 C4 1_555 1_555
H2 C9 1_555 1_555
C10 N1 1_555 1_555
H3 C10 1_555 1_555
H4 C10 1_555 1_555
H5 C10 1_555 1_555
C11 C5 1_555 1_555
C12 H6 1_555 1_555
C13 C14 1_555 1_555
C14 C11 1_555 1_555
H7 C14 1_555 1_555
C15 N2 1_555 1_555
H8 C15 1_555 1_555
C16 C8 1_555 1_555
H9 C16 1_555 1_555
C17 C5 1_555 1_555
H10 C17 1_555 1_555
C18 C3 1_555 1_555
H11 C18 1_555 1_555
C19 H12 1_555 1_555
C20 H13 1_555 1_555
C21 C6 1_555 1_555
H14 C21 1_555 1_555
H15 C21 1_555 1_555
C22 C3 1_555 1_555
H16 C22 1_555 1_555
C23 C16 1_555 1_555
H17 C23 1_555 1_555
C24 C19 1_555 1_555
H18 C24 1_555 1_555
C25 C7 1_555 1_555
H19 C25 1_555 1_555
C26 C18 1_555 1_555
H20 C26 1_555 1_555
C27 C20 1_555 1_555
H21 C27 1_555 1_555
C28 C8 1_555 1_555
H22 C28 1_555 1_555
O4 C29 1_555 1_555
O5 C37 1_555 1_555
O6 C33 1_555 1_555
N3 C29 1_555 1_555
C29 C32 1_555 1_555
C30 C31 1_555 1_555
C31 N3 1_555 1_555
C32 C30 1_555 1_555
N4 C31 1_555 1_555
C33 C34 1_555 1_555
C34 H23 1_555 1_555
C35 C33 1_555 1_555
C36 C32 1_555 1_555
H24 C36 1_555 1_555
C37 C38 1_555 1_555
C38 C32 1_555 1_555
H25 C38 1_555 1_555
C39 C37 1_555 1_555
C40 C30 1_555 1_555
H26 C40 1_555 1_555
C41 C43 1_555 1_555
C42 C40 1_555 1_555
H27 C42 1_555 1_555
C43 C35 1_555 1_555
H28 C43 1_555 1_555
C44 N4 1_555 1_555
H29 C44 1_555 1_555
C45 C39 1_555 1_555
H30 C45 1_555 1_555
C46 C41 1_555 1_555
H31 C46 1_555 1_555
C47 C34 1_555 1_555
H32 C47 1_555 1_555
H33 C47 1_555 1_555
C48 C41 1_555 1_555
H34 C48 1_555 1_555
C49 C39 1_555 1_555
H35 C49 1_555 1_555
C50 C49 1_555 1_555
H36 C50 1_555 1_555
C51 C50 1_555 1_555
H37 C51 1_555 1_555
C52 C46 1_555 1_555
H38 C52 1_555 1_555
C53 C45 1_555 1_555
H39 C53 1_555 1_555
C54 C48 1_555 1_555
H40 C54 1_555 1_555
C55 N3 1_555 1_555
H41 C55 1_555 1_555
H42 C55 1_555 1_555
H43 C55 1_555 1_555
C56 C52 1_555 1_555
H44 C56 1_555 1_555
C6 C11 1_555 1_555
C12 C15 1_555 1_555
C12 C17 1_555 1_555
C14 C25 1_555 1_555
C19 C23 1_555 1_555
C20 C26 1_555 1_555
C21 C25 1_555 1_555
C22 C27 1_555 1_555
C24 C28 1_555 1_555
C34 C38 1_555 1_555
C35 C36 1_555 1_555
C36 C47 1_555 1_555
C42 C44 1_555 1_555
C51 C53 1_555 1_555
C54 C56 1_555 1_555

#END
