
#######################################################################
#
#                 Cambridge Crystallographic Data Centre
#                                CCDC 
#
#######################################################################
#
# If this CIF has been generated from an entry in the Cambridge 
# Structural Database, then it will include bibliographic, chemical, 
# crystal, experimental, refinement or atomic coordinate data resulting 
# from the CCDC's data processing and validation procedures.
#
#######################################################################

data_JAKYOM
_chemical_formula_moiety         'C24 H21 N1 O4'
_chemical_name_systematic        
2-benzyl-4-(4-methoxybenzylidene)hexahydrocyclopenta[3,4]cyclobuta[1,2-c]pyrrole-1,3,5(2H)-trione
_symmetry_cell_setting           monoclinic
_symmetry_space_group_name_H-M   'P 21'
_symmetry_Int_Tables_number      4
_space_group_name_Hall           'P 2yb'
loop_
_symmetry_equiv_pos_site_id
_symmetry_equiv_pos_as_xyz
1 x,y,z
2 -x,1/2+y,-z
_cell_length_a                   7.92467(15)
_cell_length_b                   20.0828(3)
_cell_length_c                   12.8318(3)
_cell_angle_alpha                90
_cell_angle_beta                 107.625(2)
_cell_angle_gamma                90
_cell_volume                     1946.31
_exptl_crystal_colour            colorless
_cell_formula_units_Z            4
loop_
_atom_site_label
_atom_site_type_symbol
_atom_site_fract_x
_atom_site_fract_y
_atom_site_fract_z
N1 N 0.8317(3) 0.19303(11) 0.8808(2)
O1 O 1.0268(4) 0.14955(11) 1.0360(2)
O2 O 0.6227(3) 0.25630(12) 0.7588(2)
C1 C 0.9356(4) 0.41988(13) 0.9562(2)
O3 O 0.4719(4) 0.50316(17) 0.4526(2)
C2 C 0.7313(4) 0.25032(14) 0.8471(3)
O4 O 1.0681(5) 0.48116(13) 1.1209(2)
C3 C 0.7874(4) 0.30041(14) 0.9380(2)
H1 H 0.6906 0.3225 0.9571
C4 C 0.8687(4) 0.47302(14) 0.8940(3)
H2 H 0.8934 0.5137 0.9301
C5 C 0.9217(4) 0.26384(14) 1.0323(2)
H3 H 0.8937 0.2645 1.1016
C6 C 0.9369(4) 0.19532(14) 0.9887(2)
C7 C 0.9299(4) 0.13835(13) 0.7339(2)
C8 C 0.7647(4) 0.47767(14) 0.7800(3)
C9 C 0.9392(3) 0.34791(13) 0.9258(2)
H4 H 0.9685 0.3410 0.8577
C10 C 0.5642(4) 0.4921(2) 0.5604(3)
C11 C 1.0713(4) 0.31264(14) 1.0271(3)
H5 H 1.1711 0.2909 1.0107
C12 C 1.0427(5) 0.42917(15) 1.0713(3)
C13 C 1.1066(4) 0.15592(17) 0.7722(3)
H6 H 1.1554 0.1689 0.8447
C14 C 0.6514(5) 0.54647(17) 0.6193(3)
H7 H 0.6431 0.5879 0.5857
C15 C 0.7492(4) 0.53951(15) 0.7263(3)
H8 H 0.8068 0.5764 0.7647
C16 C 0.8175(4) 0.13479(14) 0.8095(3)
H9 H 0.6947 0.1296 0.7658
H10 H 0.8507 0.0954 0.8549
C17 C 1.2107(7) 0.1544(2) 0.7039(5)
H11 H 1.3295 0.1662 0.7310
C18 C 0.6716(4) 0.42436(16) 0.7196(3)
H12 H 0.6766 0.3832 0.7536
C19 C 0.5726(5) 0.43041(18) 0.6114(3)
H13 H 0.5123 0.3939 0.5731
C20 C 1.1268(5) 0.36387(17) 1.1185(3)
C21 C 0.9707(11) 0.1200(3) 0.5582(4)
H14 H 0.9242 0.1079 0.4851
C22 C 0.8602(7) 0.1212(2) 0.6266(3)
H15 H 0.7408 0.1104 0.5985
C23 C 0.3722(7) 0.4499(3) 0.3917(4)
H16 H 0.3068 0.4654 0.3201
H17 H 0.2914 0.4335 0.4283
H18 H 0.4507 0.4148 0.3854
C24 C 1.1436(11) 0.1362(3) 0.5989(5)
H19 H 1.2163 0.1348 0.5540
H20 H 1.077(5) 0.353(2) 1.176(3)
H21 H 1.265(7) 0.371(3) 1.140(4)
O5 O 0.5897(4) 0.71695(12) 1.0097(2)
N2 N 0.4084(4) 0.67913(12) 0.8457(2)
O6 O 0.5866(4) 0.39405(13) 1.1054(3)
C25 C 0.4592(5) 0.56501(15) 1.0408(3)
H22 H 0.3941 0.5971 1.0716
C26 C 0.3395(4) 0.52704(14) 0.9385(3)
H23 H 0.2125 0.5365 0.9206
C27 C 0.2315(4) 0.39907(14) 0.7766(3)
O7 O -0.0450(5) 0.37498(17) 0.4466(3)
O8 O 0.2120(5) 0.61740(14) 0.7137(2)
C28 C 0.4355(4) 0.56378(14) 0.8660(3)
H24 H 0.4956 0.5342 0.8280
C29 C 0.5590(4) 0.59742(14) 0.9675(3)
H25 H 0.6833 0.5840 0.9847
C30 C 0.4516(5) 0.74646(14) 0.6970(3)
C31 C 0.3684(5) 0.74291(15) 0.7883(3)
H26 H 0.4131 0.7790 0.8395
H27 H 0.2411 0.7481 0.7584
C32 C 0.2048(4) 0.33669(17) 0.7239(3)
H28 H 0.2528 0.2988 0.7636
C33 C 0.5274(4) 0.67135(15) 0.9480(3)
C34 C 0.1530(4) 0.45378(16) 0.7126(3)
H29 H 0.1641 0.4956 0.7450
C35 C 0.0594(5) 0.44779(18) 0.6029(3)
H30 H 0.0104 0.4853 0.5624
C36 C 0.3352(5) 0.62001(16) 0.7967(3)
C37 C 0.3396(4) 0.40248(14) 0.8890(3)
H31 H 0.3830 0.3617 0.9199
C38 C 0.5614(7) 0.51309(18) 1.1239(3)
C39 C 0.0391(5) 0.3859(2) 0.5539(3)
C40 C 0.6283(6) 0.7363(2) 0.7154(4)
H32 H 0.7017 0.7271 0.7854
C41 C 0.5189(5) 0.44612(16) 1.0657(3)
C42 C 0.3883(4) 0.45485(14) 0.9569(3)
C43 C 0.5825(10) 0.7528(3) 0.5229(4)
H33 H 0.6271 0.7557 0.4638
C44 C 0.1108(5) 0.33038(19) 0.6166(4)
H34 H 0.0941 0.2884 0.5847
C45 C 0.6983(8) 0.7400(3) 0.6264(5)
H35 H 0.8187 0.7340 0.6369
C46 C 0.3430(7) 0.7583(2) 0.5918(3)
H36 H 0.2222 0.7645 0.5793
C47 C -0.1300(7) 0.4297(3) 0.3795(4)
H37 H -0.1920 0.4139 0.3075
H38 H -0.0425 0.4618 0.3751
H39 H -0.2125 0.4503 0.4111
C48 C 0.4110(9) 0.7609(3) 0.5063(4)
H40 H 0.3363 0.7685 0.4359
H41 H 0.521(5) 0.513(2) 1.193(3)
H42 H 0.701(6) 0.520(3) 1.152(4)
loop_
_geom_bond_atom_site_label_1
_geom_bond_atom_site_label_2
_geom_bond_site_symmetry_1
_geom_bond_site_symmetry_2
N1 C2 1_555 1_555
O1 C6 1_555 1_555
O2 C2 1_555 1_555
C1 C4 1_555 1_555
O3 C10 1_555 1_555
C2 C3 1_555 1_555
O4 C12 1_555 1_555
C3 H1 1_555 1_555
C4 H2 1_555 1_555
C5 C3 1_555 1_555
H3 C5 1_555 1_555
C6 N1 1_555 1_555
C7 C13 1_555 1_555
C8 C4 1_555 1_555
C9 C1 1_555 1_555
H4 C9 1_555 1_555
C10 C14 1_555 1_555
C11 C5 1_555 1_555
H5 C11 1_555 1_555
C12 C1 1_555 1_555
C13 H6 1_555 1_555
C14 H7 1_555 1_555
C15 C8 1_555 1_555
H8 C15 1_555 1_555
C16 N1 1_555 1_555
H9 C16 1_555 1_555
H10 C16 1_555 1_555
C17 C13 1_555 1_555
H11 C17 1_555 1_555
C18 C8 1_555 1_555
H12 C18 1_555 1_555
C19 C10 1_555 1_555
H13 C19 1_555 1_555
C20 C11 1_555 1_555
C21 H14 1_555 1_555
C22 C7 1_555 1_555
H15 C22 1_555 1_555
C23 O3 1_555 1_555
H16 C23 1_555 1_555
H17 C23 1_555 1_555
H18 C23 1_555 1_555
C24 C17 1_555 1_555
H19 C24 1_555 1_555
H20 C20 1_555 1_555
H21 C20 1_555 1_555
O5 C33 1_555 1_555
N2 C31 1_555 1_555
O6 C41 1_555 1_555
C25 H22 1_555 1_555
C26 C25 1_555 1_555
H23 C26 1_555 1_555
C27 C32 1_555 1_555
O7 C39 1_555 1_555
O8 C36 1_555 1_555
C28 C26 1_555 1_555
H24 C28 1_555 1_555
C29 C25 1_555 1_555
H25 C29 1_555 1_555
C30 C31 1_555 1_555
C31 H26 1_555 1_555
H27 C31 1_555 1_555
C32 H28 1_555 1_555
C33 N2 1_555 1_555
C34 C27 1_555 1_555
H29 C34 1_555 1_555
C35 C34 1_555 1_555
H30 C35 1_555 1_555
C36 N2 1_555 1_555
C37 C27 1_555 1_555
H31 C37 1_555 1_555
C38 C25 1_555 1_555
C39 C35 1_555 1_555
C40 C30 1_555 1_555
H32 C40 1_555 1_555
C41 C38 1_555 1_555
C42 C26 1_555 1_555
C43 H33 1_555 1_555
C44 C32 1_555 1_555
H34 C44 1_555 1_555
C45 C40 1_555 1_555
H35 C45 1_555 1_555
C46 C30 1_555 1_555
H36 C46 1_555 1_555
C47 O7 1_555 1_555
H37 C47 1_555 1_555
H38 C47 1_555 1_555
H39 C47 1_555 1_555
C48 C43 1_555 1_555
H40 C48 1_555 1_555
H41 C38 1_555 1_555
H42 C38 1_555 1_555
C3 C9 1_555 1_555
C5 C6 1_555 1_555
C7 C16 1_555 1_555
C9 C11 1_555 1_555
C12 C20 1_555 1_555
C14 C15 1_555 1_555
C18 C19 1_555 1_555
C21 C22 1_555 1_555
C21 C24 1_555 1_555
C28 C29 1_555 1_555
C28 C36 1_555 1_555
C29 C33 1_555 1_555
C37 C42 1_555 1_555
C39 C44 1_555 1_555
C41 C42 1_555 1_555
C43 C45 1_555 1_555
C46 C48 1_555 1_555

#END
