
#######################################################################
#
#                 Cambridge Crystallographic Data Centre
#                                CCDC 
#
#######################################################################
#
# If this CIF has been generated from an entry in the Cambridge 
# Structural Database, then it will include bibliographic, chemical, 
# crystal, experimental, refinement or atomic coordinate data resulting 
# from the CCDC's data processing and validation procedures.
#
#######################################################################

data_JALBIK
_chemical_name_common            
'(E)-(1-fluoro-2-(naphthalen-2-yl)vinyl)diphenylphosphine borane'
_chemical_formula_moiety         'C24 H21 B1 F1 P1'
_chemical_name_systematic        
(E)-((1-fluoro-2-(naphthalen-2-yl)ethenyl)(diphenyl)phosphane)(trihydrido)boron
_symmetry_cell_setting           monoclinic
_symmetry_space_group_name_H-M   'P 21/n'
_symmetry_Int_Tables_number      14
_space_group_name_Hall           '-P 2yn'
loop_
_symmetry_equiv_pos_site_id
_symmetry_equiv_pos_as_xyz
1 x,y,z
2 1/2-x,1/2+y,1/2-z
3 -x,-y,-z
4 1/2+x,1/2-y,1/2+z
_cell_length_a                   9.7951(2)
_cell_length_b                   15.6260(3)
_cell_length_c                   13.7061(3)
_cell_angle_alpha                90
_cell_angle_beta                 110.4951(13)
_cell_angle_gamma                90
_cell_volume                     1965.04
_exptl_crystal_colour            colorless
_exptl_crystal_description       block
_cell_formula_units_Z            4
loop_
_atom_site_label
_atom_site_type_symbol
_atom_site_fract_x
_atom_site_fract_y
_atom_site_fract_z
P1 P 0.32387(4) 0.16964(2) 0.05829(2)
C1 C 0.44003(14) 0.12068(8) 0.45423(10)
H1 H 0.5246 0.0957 0.4473
C2 C 0.42508(14) 0.12181(8) 0.55319(10)
C3 C 0.33451(14) 0.15498(8) 0.36737(10)
C4 C 0.53137(15) 0.08445(9) 0.64314(10)
H2 H 0.6163 0.0589 0.6375
C5 C 0.27718(14) 0.17803(8) 0.17427(10)
C6 C 0.31212(13) 0.27861(8) 0.01137(9)
C7 C 0.36101(14) 0.15160(8) 0.26856(10)
H3 H 0.4514 0.1269 0.2724
C8 C 0.36009(15) 0.34544(9) 0.08264(11)
H4 H 0.3891 0.3342 0.1552
C9 C 0.20867(16) 0.19281(10) 0.37845(11)
H5 H 0.1348 0.2161 0.3193
C10 C 0.17472(14) 0.11107(8) -0.03308(10)
C11 C 0.27052(15) 0.29565(9) -0.09507(10)
H6 H 0.2374 0.2505 -0.1441
C12 C 0.28502(17) 0.16195(10) 0.66337(11)
H7 H 0.2034 0.1894 0.6720
C13 C 0.30012(15) 0.16078(9) 0.56371(10)
C14 C 0.51191(16) 0.08524(10) 0.73653(11)
H8 H 0.5828 0.0596 0.7954
C15 C 0.36555(17) 0.42839(9) 0.04781(12)
H9 H 0.3973 0.4739 0.0965
C16 C 0.20101(18) 0.02929(10) -0.06250(12)
H10 H 0.2966 0.0060 -0.0370
C17 C 0.32476(16) 0.44480(9) -0.05794(13)
H11 H 0.3291 0.5015 -0.0816
C18 C 0.03427(16) 0.14510(10) -0.07114(12)
H12 H 0.0161 0.2009 -0.0511
C19 C 0.19332(17) 0.19584(11) 0.47407(11)
H13 H 0.1092 0.2220 0.4803
C20 C 0.27764(16) 0.37874(10) -0.12929(11)
H14 H 0.2501 0.3902 -0.2017
C21 C 0.38810(18) 0.12359(11) 0.74686(11)
H15 H 0.3756 0.1229 0.8125
C22 C 0.0860(2) -0.01816(11) -0.12958(14)
H16 H 0.1032 -0.0741 -0.1497
C23 C -0.0526(2) 0.01563(12) -0.16688(13)
H17 H -0.1306 -0.0172 -0.2125
C24 C -0.07867(18) 0.09714(12) -0.13822(13)
H18 H -0.1743 0.1203 -0.1646
B1 B 0.51290(17) 0.12185(10) 0.08424(12)
H19 H 0.5317 0.1181 0.0187
H20 H 0.5173 0.0645 0.1141
H21 H 0.5867 0.1584 0.1333
F1 F 0.14414(10) 0.21386(7) 0.15668(7)
loop_
_geom_bond_atom_site_label_1
_geom_bond_atom_site_label_2
_geom_bond_site_symmetry_1
_geom_bond_site_symmetry_2
P1 C5 1_555 1_555
C1 H1 1_555 1_555
C2 C1 1_555 1_555
C3 C1 1_555 1_555
C4 C2 1_555 1_555
H2 C4 1_555 1_555
C5 C7 1_555 1_555
C6 P1 1_555 1_555
C7 C3 1_555 1_555
H3 C7 1_555 1_555
C8 C6 1_555 1_555
H4 C8 1_555 1_555
C9 C3 1_555 1_555
H5 C9 1_555 1_555
C10 P1 1_555 1_555
C11 C6 1_555 1_555
H6 C11 1_555 1_555
C12 H7 1_555 1_555
C13 C2 1_555 1_555
C14 C4 1_555 1_555
H8 C14 1_555 1_555
C15 C8 1_555 1_555
H9 C15 1_555 1_555
C16 C10 1_555 1_555
H10 C16 1_555 1_555
C17 C15 1_555 1_555
H11 C17 1_555 1_555
C18 C10 1_555 1_555
H12 C18 1_555 1_555
C19 C9 1_555 1_555
H13 C19 1_555 1_555
C20 C11 1_555 1_555
H14 C20 1_555 1_555
C21 C12 1_555 1_555
H15 C21 1_555 1_555
C22 C16 1_555 1_555
H16 C22 1_555 1_555
C23 C22 1_555 1_555
H17 C23 1_555 1_555
C24 C18 1_555 1_555
H18 C24 1_555 1_555
B1 P1 1_555 1_555
H19 B1 1_555 1_555
H20 B1 1_555 1_555
H21 B1 1_555 1_555
F1 C5 1_555 1_555
C12 C13 1_555 1_555
C13 C19 1_555 1_555
C14 C21 1_555 1_555
C17 C20 1_555 1_555
C23 C24 1_555 1_555

#END
