
#######################################################################
#
#                 Cambridge Crystallographic Data Centre
#                                CCDC 
#
#######################################################################
#
# If this CIF has been generated from an entry in the Cambridge 
# Structural Database, then it will include bibliographic, chemical, 
# crystal, experimental, refinement or atomic coordinate data resulting 
# from the CCDC's data processing and validation procedures.
#
#######################################################################

data_JALCOO
_chemical_formula_moiety         'C24 H24 N2 O4'
_chemical_name_systematic        
meso-2,3-Di-isobutyryloxy-2,3-diphenylsuccinonitrile
_symmetry_cell_setting           triclinic
_symmetry_space_group_name_H-M   'P -1'
_symmetry_Int_Tables_number      2
_space_group_name_Hall           '-P 1'
loop_
_symmetry_equiv_pos_site_id
_symmetry_equiv_pos_as_xyz
1 x,y,z
2 -x,-y,-z
_cell_length_a                   11.771
_cell_length_b                   12.783
_cell_length_c                   16.440
_cell_angle_alpha                95.36
_cell_angle_beta                 105.21
_cell_angle_gamma                106.60
_cell_volume                     2249.33
_cell_formula_units_Z            4
loop_
_atom_site_label
_atom_site_type_symbol
_atom_site_fract_x
_atom_site_fract_y
_atom_site_fract_z
O1 O 0.1197(2) 0.4394(1) 0.5274(1)
O2 O 0.0600(2) 0.2585(2) 0.5360(2)
N1 N -0.1666(3) 0.2905(2) 0.3885(2)
C1 C -0.0041(2) 0.4421(2) 0.5149(2)
C2 C -0.0948(2) 0.3548(2) 0.4436(2)
C3 C 0.1415(3) 0.3413(3) 0.5415(2)
C4 C 0.2808(3) 0.3622(3) 0.5685(3)
C5 C 0.3118(4) 0.2762(4) 0.6123(4)
C6 C 0.3354(3) 0.4004(4) 0.5036(3)
C7 C -0.0420(3) 0.4348(2) 0.5968(2)
C8 C 0.0489(3) 0.4643(3) 0.6762(2)
C9 C 0.0123(4) 0.4590(3) 0.7498(2)
C10 C -0.1115(4) 0.4265(3) 0.7440(2)
C11 C -0.2006(3) 0.3985(3) 0.6661(2)
C12 C -0.1660(3) 0.4013(2) 0.5922(2)
C1A C 0.0041(2) 0.5579(2) 0.4851(2)
O1A O -0.1197(2) 0.5606(1) 0.4726(1)
C2A C 0.0948(2) 0.6452(2) 0.5564(2)
C7A C 0.0420(3) 0.5652(2) 0.4032(2)
C3A C -0.1415(3) 0.6587(3) 0.4585(2)
N1A N 0.1666(3) 0.7095(2) 0.6115(2)
C8A C -0.0489(3) 0.5357(3) 0.3238(2)
C12A C 0.1660(3) 0.5987(2) 0.4078(2)
O2A O -0.0600(2) 0.7415(2) 0.4640(2)
C4A C -0.2808(3) 0.6378(3) 0.4315(3)
C9A C -0.0123(4) 0.5410(3) 0.2502(2)
C11A C 0.2006(3) 0.6015(3) 0.3339(2)
C5A C -0.3118(4) 0.7238(4) 0.3877(4)
C6A C -0.3354(3) 0.5996(4) 0.4964(3)
C10A C 0.1115(4) 0.5735(3) 0.2560(2)
loop_
_geom_bond_atom_site_label_1
_geom_bond_atom_site_label_2
_geom_bond_site_symmetry_1
_geom_bond_site_symmetry_2
O1 C1 1_555 1_555
O2 C3 1_555 1_555
N1 C2 1_555 1_555
C1 C2 1_555 1_555
C3 O1 1_555 1_555
C4 C3 1_555 1_555
C5 C4 1_555 1_555
C6 C4 1_555 1_555
C7 C1 1_555 1_555
C8 C7 1_555 1_555
C9 C8 1_555 1_555
C10 C9 1_555 1_555
C11 C10 1_555 1_555
C12 C7 1_555 1_555
C1A C1 1_555 1_555
O1A C1A 1_555 1_555
C2A C1A 1_555 1_555
C7A C1A 1_555 1_555
C3A O1A 1_555 1_555
N1A C2A 1_555 1_555
C8A C7A 1_555 1_555
C12A C7A 1_555 1_555
O2A C3A 1_555 1_555
C4A C3A 1_555 1_555
C9A C8A 1_555 1_555
C11A C12A 1_555 1_555
C5A C4A 1_555 1_555
C6A C4A 1_555 1_555
C10A C9A 1_555 1_555
C11 C12 1_555 1_555
C11A C10A 1_555 1_555

#END
