
#######################################################################
#
#                 Cambridge Crystallographic Data Centre
#                                CCDC 
#
#######################################################################
#
# If this CIF has been generated from an entry in the Cambridge 
# Structural Database, then it will include bibliographic, chemical, 
# crystal, experimental, refinement or atomic coordinate data resulting 
# from the CCDC's data processing and validation procedures.
#
#######################################################################

data_JALKUD
_chemical_formula_moiety         'C14 H4 Br1 F5'
_chemical_name_systematic        1-Bromo-4-(pentafluorophenylethynyl)benzene
_symmetry_cell_setting           monoclinic
_symmetry_space_group_name_H-M   'P 21/c'
_symmetry_Int_Tables_number      14
_space_group_name_Hall           '-P 2ybc'
loop_
_symmetry_equiv_pos_site_id
_symmetry_equiv_pos_as_xyz
1 x,y,z
2 x,1/2-y,1/2+z
3 -x,-y,-z
4 -x,1/2+y,1/2-z
_cell_length_a                   20.5178(16)
_cell_length_b                   5.1812(4)
_cell_length_c                   11.2539(9)
_cell_angle_alpha                90
_cell_angle_beta                 96.922(1)
_cell_angle_gamma                90
_cell_volume                     1187.65
_exptl_crystal_colour            colorless
_exptl_crystal_description       plate
_chemical_melting_point          '376-377 K'
_cell_formula_units_Z            4
_exptl_crystal_recrystallization_method hexane
loop_
_atom_site_label
_atom_site_type_symbol
_atom_site_fract_x
_atom_site_fract_y
_atom_site_fract_z
Br1 Br 0.038479(11) -0.44029(5) 0.67549(2)
C1 C 0.09702(11) -0.1791(5) 0.6358(2)
C2 C 0.14738(13) -0.1035(5) 0.7226(2)
H1 H 0.1499(15) -0.174(7) 0.800(3)
C3 C 0.19058(13) 0.0870(5) 0.6951(2)
H2 H 0.2274(15) 0.138(6) 0.756(3)
C4 C 0.18333(11) 0.2039(5) 0.5817(2)
C5 C 0.13244(13) 0.1231(5) 0.4955(2)
H3 H 0.1286(14) 0.190(6) 0.420(3)
C6 C 0.08936(13) -0.0686(5) 0.5221(2)
H4 H 0.0522(15) -0.118(6) 0.463(3)
C7 C 0.22867(13) 0.4030(5) 0.5572(2)
C8 C 0.26837(13) 0.5680(5) 0.5438(2)
C9 C 0.31845(12) 0.7578(5) 0.5362(2)
C10 C 0.37402(13) 0.7680(5) 0.6209(2)
C11 C 0.42238(13) 0.9506(5) 0.6163(2)
C12 C 0.41591(13) 1.1314(5) 0.5253(2)
C13 C 0.36200(13) 1.1287(5) 0.4404(2)
C14 C 0.31399(12) 0.9423(5) 0.4456(2)
F1 F 0.38136(9) 0.5930(3) 0.70916(15)
F2 F 0.47554(9) 0.9536(4) 0.69806(17)
F3 F 0.46274(8) 1.3103(4) 0.52108(16)
F4 F 0.35520(8) 1.3080(3) 0.35362(14)
F5 F 0.26197(8) 0.9417(3) 0.36144(14)
loop_
_geom_bond_atom_site_label_1
_geom_bond_atom_site_label_2
_geom_bond_site_symmetry_1
_geom_bond_site_symmetry_2
Br1 C1 1_555 1_555
C1 C2 1_555 1_555
C2 H1 1_555 1_555
C3 C2 1_555 1_555
H2 C3 1_555 1_555
C4 C3 1_555 1_555
C5 C4 1_555 1_555
H3 C5 1_555 1_555
C6 C1 1_555 1_555
H4 C6 1_555 1_555
C7 C4 1_555 1_555
C8 C7 1_555 1_555
C9 C8 1_555 1_555
C10 C9 1_555 1_555
C11 C10 1_555 1_555
C12 C11 1_555 1_555
C13 C12 1_555 1_555
C14 C9 1_555 1_555
F1 C10 1_555 1_555
F2 C11 1_555 1_555
F3 C12 1_555 1_555
F4 C13 1_555 1_555
F5 C14 1_555 1_555
C5 C6 1_555 1_555
C13 C14 1_555 1_555

#END
