
#######################################################################
#
#                 Cambridge Crystallographic Data Centre
#                                CCDC 
#
#######################################################################
#
# If this CIF has been generated from an entry in the Cambridge 
# Structural Database, then it will include bibliographic, chemical, 
# crystal, experimental, refinement or atomic coordinate data resulting 
# from the CCDC's data processing and validation procedures.
#
#######################################################################

data_JALLEO
_chemical_formula_moiety         'C14 H5 F4 I1'
_chemical_name_systematic        
1-Iodo-4-(phenylethynyl)-2,3,5,6-tetrafluorobenzene
_symmetry_cell_setting           monoclinic
_symmetry_space_group_name_H-M   'P 21/n'
_symmetry_Int_Tables_number      14
_space_group_name_Hall           '-P 2yn'
loop_
_symmetry_equiv_pos_site_id
_symmetry_equiv_pos_as_xyz
1 x,y,z
2 1/2+x,1/2-y,1/2+z
3 -x,-y,-z
4 1/2-x,1/2+y,1/2-z
_cell_length_a                   12.668(2)
_cell_length_b                   5.0744(8)
_cell_length_c                   18.833(3)
_cell_angle_alpha                90
_cell_angle_beta                 93.703(4)
_cell_angle_gamma                90
_cell_volume                     1208.1
_exptl_crystal_colour            colorless
_exptl_crystal_description       block
_chemical_melting_point          '396-397 K'
_cell_formula_units_Z            4
_exptl_crystal_recrystallization_method hexane
loop_
_atom_site_label
_atom_site_type_symbol
_atom_site_fract_x
_atom_site_fract_y
_atom_site_fract_z
I1 I 0.699441(17) -0.35934(4) 0.482462(10)
C1 C 0.6374(2) -0.0905(6) 0.40736(15)
C2 C 0.5302(2) -0.0400(7) 0.39907(16)
C3 C 0.4905(2) 0.1487(7) 0.35237(15)
C4 C 0.5558(2) 0.2991(6) 0.31131(15)
C5 C 0.6638(2) 0.2427(6) 0.31997(15)
C6 C 0.7029(2) 0.0520(6) 0.36615(16)
C7 C 0.5145(2) 0.5027(6) 0.26419(16)
C8 C 0.4809(2) 0.6689(6) 0.22561(16)
C9 C 0.4406(2) 0.8750(6) 0.17820(16)
C10 C 0.3366(3) 0.9659(7) 0.18208(18)
H1 H 0.2923 0.8905 0.2155
C11 C 0.2986(3) 1.1649(7) 0.13745(19)
H2 H 0.2281 1.2262 0.1401
C12 C 0.3634(3) 1.2752(7) 0.08873(19)
H3 H 0.3372 1.4135 0.0585
C13 C 0.4657(3) 1.1857(7) 0.08387(18)
H4 H 0.5090 1.2601 0.0497
C14 C 0.5051(3) 0.9878(7) 0.12863(17)
H5 H 0.5758 0.9284 0.1258
F1 F 0.46181(15) -0.1783(4) 0.43674(10)
F2 F 0.38569(14) 0.1898(4) 0.34555(10)
F3 F 0.73205(14) 0.3861(4) 0.28376(10)
F4 F 0.80821(14) 0.0130(4) 0.37321(10)
loop_
_geom_bond_atom_site_label_1
_geom_bond_atom_site_label_2
_geom_bond_site_symmetry_1
_geom_bond_site_symmetry_2
I1 C1 1_555 1_555
C1 C2 1_555 1_555
C2 C3 1_555 1_555
C3 C4 1_555 1_555
C4 C5 1_555 1_555
C5 C6 1_555 1_555
C6 C1 1_555 1_555
C7 C4 1_555 1_555
C8 C7 1_555 1_555
C9 C8 1_555 1_555
C10 C9 1_555 1_555
H1 C10 1_555 1_555
C11 C10 1_555 1_555
H2 C11 1_555 1_555
C12 C11 1_555 1_555
H3 C12 1_555 1_555
C13 C12 1_555 1_555
H4 C13 1_555 1_555
C14 C9 1_555 1_555
H5 C14 1_555 1_555
F1 C2 1_555 1_555
F2 C3 1_555 1_555
F3 C5 1_555 1_555
F4 C6 1_555 1_555
C13 C14 1_555 1_555

#END
