
#######################################################################
#
#                 Cambridge Crystallographic Data Centre
#                                CCDC 
#
#######################################################################
#
# If this CIF has been generated from an entry in the Cambridge 
# Structural Database, then it will include bibliographic, chemical, 
# crystal, experimental, refinement or atomic coordinate data resulting 
# from the CCDC's data processing and validation procedures.
#
#######################################################################

data_JALMIV
_chemical_formula_moiety         'C16 H13 F3 N2 O1'
_chemical_name_systematic        
2-(4-(4-methylphenyl)-4-(trifluoromethyl)-4,5-dihydro-1,3-oxazol-5-yl)pyridine
_symmetry_cell_setting           monoclinic
_symmetry_space_group_name_H-M   'P 21/c'
_symmetry_Int_Tables_number      14
_space_group_name_Hall           '-P 2ybc'
loop_
_symmetry_equiv_pos_site_id
_symmetry_equiv_pos_as_xyz
1 x,y,z
2 -x,1/2+y,1/2-z
3 -x,-y,-z
4 x,1/2-y,1/2+z
_cell_length_a                   11.299(6)
_cell_length_b                   10.333(5)
_cell_length_c                   13.186(8)
_cell_angle_alpha                90
_cell_angle_beta                 103.62(3)
_cell_angle_gamma                90
_cell_volume                     1496.21
_exptl_crystal_colour            colorless
_exptl_crystal_description       block
_cell_formula_units_Z            4
loop_
_atom_site_label
_atom_site_type_symbol
_atom_site_fract_x
_atom_site_fract_y
_atom_site_fract_z
F1 F 0.64322(13) 0.40270(12) 0.28264(13)
F2 F 0.57087(14) 0.41480(14) 0.11700(14)
F3 F 0.76310(15) 0.39321(16) 0.17902(16)
O1 O 0.51489(15) 0.72910(16) 0.10873(13)
N1 N 0.46676(17) 0.60367(18) 0.34637(16)
N2 N 0.69181(18) 0.6379(2) 0.09481(15)
C1 C 0.2763(2) 0.4924(3) 0.3148(3)
H1 H 0.2150 0.4552 0.3414
C2 C 0.3765(2) 0.5479(3) 0.3810(2)
H2 H 0.3816 0.5465 0.4524
C3 C 0.45796(17) 0.60376(18) 0.24397(17)
C4 C 0.56032(17) 0.67348(18) 0.21089(16)
H3 H 0.5865 0.7449 0.2599
C5 C 0.67840(18) 0.59889(19) 0.19899(16)
C6 C 0.79085(17) 0.63339(19) 0.28355(16)
C7 C 0.9007(2) 0.6599(3) 0.2582(2)
H4 H 0.9059 0.6566 0.1889
C8 C 1.0028(2) 0.6912(3) 0.3353(2)
H5 H 1.0756 0.7086 0.3167
C9 C 0.9992(2) 0.6973(3) 0.4386(2)
C10 C 1.1106(3) 0.7319(4) 0.5229(3)
H6 H 1.1826 0.7061 0.5014
H7 H 1.1074 0.6880 0.5864
H8 H 1.1124 0.8237 0.5345
C11 C 0.2682(2) 0.4929(3) 0.2103(3)
H9 H 0.2018 0.4551 0.1647
C12 C 0.36013(19) 0.5504(2) 0.1724(2)
H10 H 0.3563 0.5531 0.1012
C13 C 0.6636(2) 0.4518(2) 0.1950(2)
C14 C 0.8890(2) 0.6700(3) 0.4634(2)
H11 H 0.8840 0.6730 0.5327
C15 C 0.7867(2) 0.6386(3) 0.38722(18)
H12 H 0.7141 0.6206 0.4060
C16 C 0.5993(2) 0.7054(2) 0.05483(19)
H13 H 0.5899 0.7386 -0.0121
loop_
_geom_bond_atom_site_label_1
_geom_bond_atom_site_label_2
_geom_bond_site_symmetry_1
_geom_bond_site_symmetry_2
F1 C13 1_555 1_555
F2 C13 1_555 1_555
F3 C13 1_555 1_555
O1 C4 1_555 1_555
N1 C2 1_555 1_555
N2 C5 1_555 1_555
C1 H1 1_555 1_555
C2 C1 1_555 1_555
H2 C2 1_555 1_555
C3 N1 1_555 1_555
C4 C3 1_555 1_555
H3 C4 1_555 1_555
C5 C4 1_555 1_555
C6 C5 1_555 1_555
C7 C6 1_555 1_555
H4 C7 1_555 1_555
C8 C7 1_555 1_555
H5 C8 1_555 1_555
C9 C8 1_555 1_555
C10 C9 1_555 1_555
H6 C10 1_555 1_555
H7 C10 1_555 1_555
H8 C10 1_555 1_555
C11 C1 1_555 1_555
H9 C11 1_555 1_555
C12 C3 1_555 1_555
H10 C12 1_555 1_555
C13 C5 1_555 1_555
C14 C9 1_555 1_555
H11 C14 1_555 1_555
C15 C6 1_555 1_555
H12 C15 1_555 1_555
C16 O1 1_555 1_555
H13 C16 1_555 1_555
N2 C16 1_555 1_555
C11 C12 1_555 1_555
C14 C15 1_555 1_555

#END
