
#######################################################################
#
#                 Cambridge Crystallographic Data Centre
#                                CCDC 
#
#######################################################################
#
# If this CIF has been generated from an entry in the Cambridge 
# Structural Database, then it will include bibliographic, chemical, 
# crystal, experimental, refinement or atomic coordinate data resulting 
# from the CCDC's data processing and validation procedures.
#
#######################################################################

data_JALMOB
_chemical_formula_moiety         'C25 H23 F3 N2 O3 S1'
_chemical_name_systematic        
5-(4-methoxyphenyl)-4-(4-methylphenyl)-1-((4-methylphenyl)sulfonyl)-4-(trifluoromethyl)-4,5-dihydro-1H-imidazole
_symmetry_cell_setting           triclinic
_symmetry_space_group_name_H-M   'P -1'
_symmetry_Int_Tables_number      2
_space_group_name_Hall           '-P 1'
loop_
_symmetry_equiv_pos_site_id
_symmetry_equiv_pos_as_xyz
1 x,y,z
2 -x,-y,-z
_cell_length_a                   9.856(4)
_cell_length_b                   10.755(5)
_cell_length_c                   12.812(6)
_cell_angle_alpha                101.231(17)
_cell_angle_beta                 95.114(15)
_cell_angle_gamma                109.650(15)
_cell_volume                     1236.8
_exptl_crystal_colour            colorless
_exptl_crystal_description       block
_cell_formula_units_Z            2
loop_
_atom_site_label
_atom_site_type_symbol
_atom_site_fract_x
_atom_site_fract_y
_atom_site_fract_z
S1 S 0.41065(6) 0.71050(5) 0.99579(4)
F1 F 0.80888(19) 1.05061(17) 0.83002(15)
F2 F 0.83028(19) 0.9440(2) 0.94992(14)
F3 F 0.93029(16) 0.9169(2) 0.80932(18)
O1 O 0.4094(2) 0.84152(17) 1.04221(14)
O2 O 0.4619(2) 0.63583(17) 1.06066(12)
N1 N 0.51954(18) 0.73047(16) 0.90521(13)
O3 O 0.0419(2) 0.7160(2) 0.52449(19)
N2 N 0.6905(2) 0.6904(2) 0.81360(16)
C1 C -0.1846(4) 0.3583(5) 0.7415(4)
H1 H -0.2175 0.2728 0.7615
H2 H -0.1780 0.3426 0.6660
H3 H -0.2528 0.4031 0.7553
C2 C -0.0366(3) 0.4464(3) 0.8066(3)
C3 C -0.0020(3) 0.5842(3) 0.8471(3)
H4 H -0.0715 0.6226 0.8341
C4 C 0.1330(3) 0.6657(3) 0.9062(2)
H5 H 0.1548 0.7583 0.9327
C5 C 0.2360(2) 0.6081(2) 0.92586(16)
C6 C 0.5371(2) 0.82983(17) 0.83716(14)
H6 H 0.5658 0.9217 0.8832
C7 C 0.40048(19) 0.79893(18) 0.75846(14)
C8 C 0.3283(2) 0.6703(2) 0.68993(16)
H7 H 0.3619 0.6004 0.6955
C9 C 0.2083(2) 0.6452(2) 0.61440(19)
H8 H 0.1609 0.5587 0.5697
C10 C 0.1582(2) 0.7489(3) 0.6050(2)
C11 C 0.0032(3) 0.8255(4) 0.5009(3)
H9 H -0.0307 0.8660 0.5617
H10 H -0.0729 0.7914 0.4390
H11 H 0.0872 0.8926 0.4861
C12 C 0.3450(2) 0.8996(2) 0.75097(18)
H12 H 0.3894 0.9851 0.7978
C13 C 0.2241(3) 0.8751(3) 0.6746(2)
H13 H 0.1878 0.9437 0.6705
C14 C 0.6728(2) 0.8127(2) 0.78561(16)
C15 C 0.6063(3) 0.6562(2) 0.87995(17)
H14 H 0.6032 0.5837 0.9104
C16 C 0.8114(3) 0.9316(3) 0.8437(2)
C17 C 0.6572(2) 0.79745(19) 0.66409(15)
C18 C 0.6582(3) 0.6808(2) 0.59740(18)
H15 H 0.6736 0.6134 0.6273
C19 C 0.6365(3) 0.6627(2) 0.4865(2)
H16 H 0.6364 0.5826 0.4431
C20 C 0.6151(2) 0.7602(3) 0.43861(18)
C21 C 0.6155(3) 0.8772(3) 0.5056(2)
H17 H 0.6014 0.9448 0.4753
C22 C 0.6362(2) 0.8969(2) 0.61649(18)
H18 H 0.6362 0.9771 0.6597
C23 C 0.5932(4) 0.7395(4) 0.3172(2)
H19 H 0.6866 0.7693 0.2944
H20 H 0.5374 0.7914 0.2964
H21 H 0.5417 0.6449 0.2838
C24 C 0.2044(3) 0.4695(2) 0.8867(2)
H22 H 0.2739 0.4312 0.9001
C25 C 0.0687(3) 0.3905(3) 0.8281(3)
H23 H 0.0465 0.2978 0.8020
loop_
_geom_bond_atom_site_label_1
_geom_bond_atom_site_label_2
_geom_bond_site_symmetry_1
_geom_bond_site_symmetry_2
S1 O1 1_555 1_555
F1 C16 1_555 1_555
F2 C16 1_555 1_555
F3 C16 1_555 1_555
O2 S1 1_555 1_555
N1 S1 1_555 1_555
O3 C10 1_555 1_555
N2 C14 1_555 1_555
C1 H1 1_555 1_555
H2 C1 1_555 1_555
H3 C1 1_555 1_555
C2 C1 1_555 1_555
C3 C2 1_555 1_555
H4 C3 1_555 1_555
C4 C3 1_555 1_555
H5 C4 1_555 1_555
C5 S1 1_555 1_555
C6 N1 1_555 1_555
H6 C6 1_555 1_555
C7 C6 1_555 1_555
C8 C7 1_555 1_555
H7 C8 1_555 1_555
C9 C8 1_555 1_555
H8 C9 1_555 1_555
C10 C9 1_555 1_555
C11 O3 1_555 1_555
H9 C11 1_555 1_555
H10 C11 1_555 1_555
H11 C11 1_555 1_555
C12 C7 1_555 1_555
H12 C12 1_555 1_555
C13 C10 1_555 1_555
H13 C13 1_555 1_555
C14 C6 1_555 1_555
C15 N1 1_555 1_555
H14 C15 1_555 1_555
C16 C14 1_555 1_555
C17 C14 1_555 1_555
C18 C17 1_555 1_555
H15 C18 1_555 1_555
C19 C18 1_555 1_555
H16 C19 1_555 1_555
C20 C19 1_555 1_555
C21 C20 1_555 1_555
H17 C21 1_555 1_555
C22 C17 1_555 1_555
H18 C22 1_555 1_555
C23 C20 1_555 1_555
H19 C23 1_555 1_555
H20 C23 1_555 1_555
H21 C23 1_555 1_555
C24 C5 1_555 1_555
H22 C24 1_555 1_555
C25 C2 1_555 1_555
H23 C25 1_555 1_555
N2 C15 1_555 1_555
C4 C5 1_555 1_555
C12 C13 1_555 1_555
C21 C22 1_555 1_555
C24 C25 1_555 1_555

#END
