
#######################################################################
#
#                 Cambridge Crystallographic Data Centre
#                                CCDC 
#
#######################################################################
#
# If this CIF has been generated from an entry in the Cambridge 
# Structural Database, then it will include bibliographic, chemical, 
# crystal, experimental, refinement or atomic coordinate data resulting 
# from the CCDC's data processing and validation procedures.
#
#######################################################################

data_JALTUO
_chemical_formula_moiety         'C22 H22 Cl1 N5 O1'
_chemical_name_systematic        
6-((4-chlorophenyl)amino)-8-(3,5-dimethyl-1H-pyrazol-1-yl)-3,3-dimethyl-3,4-dihydro-1H-pyrano[3,4-c]pyridine-5-carbonitrile
_symmetry_cell_setting           monoclinic
_symmetry_space_group_name_H-M   'P 21/c'
_symmetry_Int_Tables_number      14
_space_group_name_Hall           '-P 2ybc'
loop_
_symmetry_equiv_pos_site_id
_symmetry_equiv_pos_as_xyz
1 x,y,z
2 -x,1/2+y,1/2-z
3 -x,-y,-z
4 x,1/2-y,1/2+z
_cell_length_a                   9.1118(18)
_cell_length_b                   9.5447(19)
_cell_length_c                   24.157(5)
_cell_angle_alpha                90
_cell_angle_beta                 96.01(3)
_cell_angle_gamma                90
_cell_volume                     2089.37
_exptl_crystal_colour            colorless
_exptl_crystal_description       prism
_cell_formula_units_Z            4
loop_
_atom_site_label
_atom_site_type_symbol
_atom_site_fract_x
_atom_site_fract_y
_atom_site_fract_z
Cl1 Cl 0.39977(9) 0.15883(8) 0.19343(3)
C1 C -0.1910(3) 0.2345(3) 0.54161(10)
H1 H -0.196(3) 0.135(3) 0.5546(10)
H2 H -0.275(3) 0.255(3) 0.5177(11)
O1 O -0.19323(16) 0.32788(18) 0.58740(7)
C2 C -0.0580(2) 0.3294(2) 0.62395(9)
C3 C 0.0593(2) 0.3948(3) 0.59159(9)
H3 H 0.155(2) 0.382(2) 0.6123(9)
H4 H 0.035(3) 0.498(3) 0.5897(10)
C4 C 0.0630(2) 0.3313(2) 0.53524(8)
C5 C 0.1850(2) 0.3528(2) 0.50569(8)
C6 C 0.1873(2) 0.2934(2) 0.45280(8)
N1 N 0.07322(18) 0.21927(19) 0.42926(7)
C7 C -0.0436(2) 0.2028(2) 0.45748(8)
C8 C -0.0565(2) 0.2539(2) 0.51073(8)
C9 C -0.0889(3) 0.4219(3) 0.67247(10)
H5 H -0.1137 0.5145 0.6592
H6 H -0.0028 0.4259 0.6990
H7 H -0.1699 0.3837 0.6900
C10 C -0.0129(3) 0.1836(3) 0.64487(11)
H8 H -0.0935 0.1409 0.6612
H9 H 0.0709 0.1906 0.6723
H10 H 0.0123 0.1274 0.6143
C11 C 0.3040(2) 0.4384(3) 0.52928(9)
N2 N 0.3992(2) 0.5068(3) 0.54766(9)
N3 N -0.16093(18) 0.12848(19) 0.42784(7)
N4 N -0.24375(19) 0.0388(2) 0.45642(8)
C12 C -0.3462(2) -0.0086(2) 0.41839(10)
C13 C -0.3309(2) 0.0482(3) 0.36626(11)
H11 H -0.392(3) 0.034(3) 0.3327(11)
C14 C -0.2123(2) 0.1361(2) 0.37252(9)
C15 C -0.1526(3) 0.2291(3) 0.33109(10)
H12 H -0.2173 0.2276 0.2971
H13 H -0.0565 0.1969 0.3241
H14 H -0.1455 0.3230 0.3453
C16 C -0.4627(3) -0.1068(3) 0.43460(12)
H15 H -0.4386 -0.1359 0.4725
H16 H -0.4676 -0.1874 0.4107
H17 H -0.5564 -0.0600 0.4310
H18 H 0.372(3) 0.365(3) 0.4380(10)
N5 N 0.3089(2) 0.3097(2) 0.42421(8)
C17 C 0.3255(2) 0.2681(2) 0.36965(8)
C18 C 0.2662(2) 0.1458(2) 0.34543(10)
H19 H 0.2112 0.0863 0.3657
C19 C 0.2890(3) 0.1127(3) 0.29144(10)
H20 H 0.2485 0.0311 0.2752
C20 C 0.3711(3) 0.1995(3) 0.26162(9)
C21 C 0.4324(3) 0.3194(3) 0.28526(9)
H21 H 0.4887 0.3777 0.2650
C22 C 0.4101(3) 0.3525(3) 0.33876(9)
H22 H 0.4525 0.4335 0.3548
loop_
_geom_bond_atom_site_label_1
_geom_bond_atom_site_label_2
_geom_bond_site_symmetry_1
_geom_bond_site_symmetry_2
Cl1 C20 1_555 1_555
C1 H1 1_555 1_555
H2 C1 1_555 1_555
O1 C1 1_555 1_555
C2 O1 1_555 1_555
C3 C2 1_555 1_555
H3 C3 1_555 1_555
H4 C3 1_555 1_555
C4 C3 1_555 1_555
C5 C4 1_555 1_555
C6 C5 1_555 1_555
N1 C6 1_555 1_555
C7 N1 1_555 1_555
C8 C1 1_555 1_555
C9 C2 1_555 1_555
H5 C9 1_555 1_555
H6 C9 1_555 1_555
H7 C9 1_555 1_555
C10 C2 1_555 1_555
H8 C10 1_555 1_555
H9 C10 1_555 1_555
H10 C10 1_555 1_555
C11 C5 1_555 1_555
N2 C11 1_555 1_555
N3 C7 1_555 1_555
N4 N3 1_555 1_555
C12 N4 1_555 1_555
C13 C12 1_555 1_555
H11 C13 1_555 1_555
C14 N3 1_555 1_555
C15 C14 1_555 1_555
H12 C15 1_555 1_555
H13 C15 1_555 1_555
H14 C15 1_555 1_555
C16 C12 1_555 1_555
H15 C16 1_555 1_555
H16 C16 1_555 1_555
H17 C16 1_555 1_555
H18 N5 1_555 1_555
N5 C6 1_555 1_555
C17 N5 1_555 1_555
C18 C17 1_555 1_555
H19 C18 1_555 1_555
C19 C18 1_555 1_555
H20 C19 1_555 1_555
C20 C19 1_555 1_555
C21 C20 1_555 1_555
H21 C21 1_555 1_555
C22 C17 1_555 1_555
H22 C22 1_555 1_555
C4 C8 1_555 1_555
C7 C8 1_555 1_555
C13 C14 1_555 1_555
C21 C22 1_555 1_555

#END
