
#######################################################################
#
#                 Cambridge Crystallographic Data Centre
#                                CCDC 
#
#######################################################################
#
# If this CIF has been generated from an entry in the Cambridge 
# Structural Database, then it will include bibliographic, chemical, 
# crystal, experimental, refinement or atomic coordinate data resulting 
# from the CCDC's data processing and validation procedures.
#
#######################################################################

data_JALZAA
_chemical_formula_moiety         'C45 H57 N9'
_chemical_name_systematic        
3,3',3''-(1,3,5-triazine-2,4,6-triyl)tris(7-benzyl-3,7-diazabicyclo[3.3.1]nonane)
_symmetry_cell_setting           monoclinic
_symmetry_space_group_name_H-M   'P 21/c'
_symmetry_Int_Tables_number      14
_space_group_name_Hall           '-P 2ybc'
loop_
_symmetry_equiv_pos_site_id
_symmetry_equiv_pos_as_xyz
1 x,y,z
2 -x,1/2+y,1/2-z
3 -x,-y,-z
4 x,1/2-y,1/2+z
_cell_length_a                   17.377(8)
_cell_length_b                   19.954(9)
_cell_length_c                   11.591(5)
_cell_angle_alpha                90
_cell_angle_beta                 103.012(8)
_cell_angle_gamma                90
_cell_volume                     3915.87
_exptl_crystal_colour            colorless
_exptl_crystal_description       Needle
_cell_formula_units_Z            4
loop_
_atom_site_label
_atom_site_type_symbol
_atom_site_fract_x
_atom_site_fract_y
_atom_site_fract_z
N1 N 0.2494(8) 0.4974(5) 0.3666(7)
N2 N 0.1149(5) 0.4994(5) 0.4771(9)
N3 N 0.0994(6) 0.6095(6) 0.8183(8)
N4 N 0.1089(5) 0.5571(5) 0.6462(10)
N5 N 0.1236(5) 0.4961(7) 0.8274(7)
N6 N 0.1277(5) 0.4377(5) 0.6487(9)
N7 N 0.2302(9) 0.6989(5) 0.9089(9)
N8 N 0.2948(8) 0.3283(5) 0.9554(9)
N9 N 0.1444(5) 0.3816(6) 0.8253(9)
C1 C 0.1318(6) 0.4408(8) 0.7650(14)
C2 C 0.1183(6) 0.4980(9) 0.5948(13)
C3 C 0.1126(7) 0.5522(9) 0.7627(15)
C4 C 0.2178(8) 0.5592(6) 0.3099(9)
H1 H 0.2308 0.5626 0.2330
H2 H 0.2418 0.5969 0.3575
C5 C 0.1287(8) 0.5620(6) 0.2949(9)
H3 H 0.1098 0.6031 0.2515
C6 C 0.1667(8) 0.3191(6) 1.0170(10)
H4 H 0.1453 0.3160 1.0882
C7 C 0.3383(13) 0.6901(11) 0.8051(14)
C8 C 0.1300(7) 0.3795(5) 0.9460(9)
H5 H 0.0734 0.3791 0.9406
H6 H 0.1511 0.4199 0.9879
C9 C 0.1023(6) 0.5636(5) 0.4121(10)
H7 H 0.1311 0.5986 0.4618
H8 H 0.0466 0.5748 0.3963
C10 C 0.1229(8) 0.4406(6) 0.2887(10)
H9 H 0.1006 0.4015 0.2419
C11 C 0.1838(10) 0.2607(6) 0.8393(11)
H10 H 0.1732 0.2194 0.7927
C12 C 0.3968(16) 0.4137(9) 1.0397(18)
C13 C 0.3127(10) 0.7091(6) 0.9174(12)
H11 H 0.3423 0.6826 0.9827
H12 H 0.3252 0.7559 0.9350
C14 C 0.3674(11) 0.4405(8) 0.4816(13)
C15 C 0.2118(9) 0.4405(6) 0.3008(9)
H13 H 0.2337 0.3997 0.3403
H14 H 0.2230 0.4408 0.2225
C16 C 0.0891(7) 0.5033(6) 0.2223(9)
H15 H 0.1002 0.5039 0.1439
H16 H 0.0324 0.5052 0.2141
C17 C 0.1023(6) 0.4363(5) 0.4095(9)
H17 H 0.0473 0.4233 0.3985
H18 H 0.1341 0.4014 0.4555
C18 C 0.1798(10) 0.7485(6) 0.8375(10)
H19 H 0.1936 0.7513 0.7611
H20 H 0.1907 0.7919 0.8756
C19 C 0.2061(10) 0.6914(6) 1.0228(11)
H21 H 0.2175 0.7326 1.0677
H22 H 0.2369 0.6559 1.0684
C20 C 0.1470(7) 0.3192(6) 0.7608(9)
H23 H 0.1771 0.3266 0.7008
H24 H 0.0937 0.3071 0.7206
C21 C 0.0929(9) 0.7350(6) 0.8175(10)
H25 H 0.0638 0.7717 0.7711
C22 C 0.3786(9) 0.3422(9) 0.9920(11)
H26 H 0.4025 0.3355 0.9249
H27 H 0.4024 0.3104 1.0530
C23 C 0.3353(9) 0.4937(6) 0.3878(11)
H28 H 0.3579 0.5370 0.4144
H29 H 0.3505 0.4825 0.3146
C24 C 0.3290(8) 0.4313(6) 0.5740(16)
H30 H 0.2845 0.4567 0.5761
C25 C 0.1192(11) 0.6752(6) 1.0062(10)
H31 H 0.1073 0.6724 1.0848
C26 C 0.0713(7) 0.6693(7) 0.7509(9)
H32 H 0.0142 0.6668 0.7255
H33 H 0.0925 0.6700 0.6804
C27 C 0.2561(9) 0.3241(5) 1.0556(10)
H34 H 0.2697 0.3636 1.1048
H35 H 0.2760 0.2853 1.1032
C28 C 0.0977(7) 0.6080(5) 0.9442(10)
H36 H 0.1343 0.5741 0.9836
H37 H 0.0452 0.5952 0.9517
C29 C 0.2734(11) 0.2684(7) 0.8816(11)
H38 H 0.2947 0.2290 0.9268
H39 H 0.2969 0.2712 0.8134
C30 C 0.1462(8) 0.2543(5) 0.9460(10)
H40 H 0.1674 0.2157 0.9936
H41 H 0.0894 0.2492 0.9203
C31 C 0.3025(8) 0.6350(10) 0.743(2)
H42 H 0.2623 0.6126 0.7680
C32 C 0.3566(10) 0.3841(8) 0.6638(12)
H43 H 0.3295 0.3772 0.7233
C33 C 0.3854(15) 0.6442(12) 0.6072(14)
H44 H 0.4014 0.6288 0.5405
C34 C 0.3418(10) 0.4607(15) 0.9870(11)
H45 H 0.2980 0.4478 0.9292
C35 C 0.3977(13) 0.7219(7) 0.767(2)
H46 H 0.4217 0.7594 0.8074
C36 C 0.4207(16) 0.5458(8) 1.105(2)
H47 H 0.4296 0.5906 1.1250
C37 C 0.0696(8) 0.7312(6) 0.9386(10)
H48 H 0.0808 0.7734 0.9809
H49 H 0.0138 0.7214 0.9279
C38 C 0.4637(11) 0.4345(14) 1.1236(18)
H50 H 0.5018 0.4032 1.1573
C39 C 0.3260(13) 0.6132(7) 0.644(2)
H51 H 0.3007 0.5768 0.6011
C40 C 0.4341(11) 0.4040(10) 0.4822(15)
H52 H 0.4628 0.4114 0.4247
C41 C 0.3526(12) 0.5289(12) 1.0218(18)
H53 H 0.3153 0.5613 0.9899
C42 C 0.4739(12) 0.5009(14) 1.1570(14)
H54 H 0.5173 0.5141 1.2152
C43 C 0.4232(11) 0.3487(7) 0.6631(14)
H55 H 0.4447 0.3200 0.7252
C44 C 0.4223(9) 0.6985(13) 0.669(2)
H56 H 0.4638 0.7195 0.6445
C45 C 0.4585(10) 0.3561(9) 0.5688(19)
H57 H 0.5000 0.3279 0.5631
loop_
_geom_bond_atom_site_label_1
_geom_bond_atom_site_label_2
_geom_bond_site_symmetry_1
_geom_bond_site_symmetry_2
N1 C4 1_555 1_555
N2 C2 1_555 1_555
N3 C3 1_555 1_555
N4 C2 1_555 1_555
N5 C1 1_555 1_555
N6 C1 1_555 1_555
N7 C13 1_555 1_555
N8 C22 1_555 1_555
N9 C1 1_555 1_555
C2 N6 1_555 1_555
C3 N4 1_555 1_555
C4 H1 1_555 1_555
H2 C4 1_555 1_555
C5 C4 1_555 1_555
H3 C5 1_555 1_555
C6 H4 1_555 1_555
C7 C13 1_555 1_555
C8 N9 1_555 1_555
H5 C8 1_555 1_555
H6 C8 1_555 1_555
C9 N2 1_555 1_555
H7 C9 1_555 1_555
H8 C9 1_555 1_555
C10 H9 1_555 1_555
C11 H10 1_555 1_555
C12 C22 1_555 1_555
C13 H11 1_555 1_555
H12 C13 1_555 1_555
C14 C23 1_555 1_555
C15 N1 1_555 1_555
H13 C15 1_555 1_555
H14 C15 1_555 1_555
C16 C5 1_555 1_555
H15 C16 1_555 1_555
H16 C16 1_555 1_555
C17 N2 1_555 1_555
H17 C17 1_555 1_555
H18 C17 1_555 1_555
C18 N7 1_555 1_555
H19 C18 1_555 1_555
H20 C18 1_555 1_555
C19 N7 1_555 1_555
H21 C19 1_555 1_555
H22 C19 1_555 1_555
C20 N9 1_555 1_555
H23 C20 1_555 1_555
H24 C20 1_555 1_555
C21 C18 1_555 1_555
H25 C21 1_555 1_555
C22 H26 1_555 1_555
H27 C22 1_555 1_555
C23 N1 1_555 1_555
H28 C23 1_555 1_555
H29 C23 1_555 1_555
C24 C14 1_555 1_555
H30 C24 1_555 1_555
C25 C19 1_555 1_555
H31 C25 1_555 1_555
C26 N3 1_555 1_555
H32 C26 1_555 1_555
H33 C26 1_555 1_555
C27 N8 1_555 1_555
H34 C27 1_555 1_555
H35 C27 1_555 1_555
C28 N3 1_555 1_555
H36 C28 1_555 1_555
H37 C28 1_555 1_555
C29 N8 1_555 1_555
H38 C29 1_555 1_555
H39 C29 1_555 1_555
C30 C6 1_555 1_555
H40 C30 1_555 1_555
H41 C30 1_555 1_555
C31 C7 1_555 1_555
H42 C31 1_555 1_555
C32 C24 1_555 1_555
H43 C32 1_555 1_555
C33 H44 1_555 1_555
C34 C12 1_555 1_555
H45 C34 1_555 1_555
C35 C7 1_555 1_555
H46 C35 1_555 1_555
C36 H47 1_555 1_555
C37 C21 1_555 1_555
H48 C37 1_555 1_555
H49 C37 1_555 1_555
C38 C12 1_555 1_555
H50 C38 1_555 1_555
C39 C31 1_555 1_555
H51 C39 1_555 1_555
C40 C14 1_555 1_555
H52 C40 1_555 1_555
C41 C34 1_555 1_555
H53 C41 1_555 1_555
C42 C36 1_555 1_555
H54 C42 1_555 1_555
C43 C32 1_555 1_555
H55 C43 1_555 1_555
C44 C33 1_555 1_555
H56 C44 1_555 1_555
C45 C40 1_555 1_555
H57 C45 1_555 1_555
N5 C3 1_555 1_555
C5 C9 1_555 1_555
C6 C8 1_555 1_555
C6 C27 1_555 1_555
C10 C15 1_555 1_555
C10 C16 1_555 1_555
C10 C17 1_555 1_555
C11 C20 1_555 1_555
C11 C29 1_555 1_555
C11 C30 1_555 1_555
C21 C26 1_555 1_555
C25 C28 1_555 1_555
C25 C37 1_555 1_555
C33 C39 1_555 1_555
C35 C44 1_555 1_555
C36 C41 1_555 1_555
C38 C42 1_555 1_555
C43 C45 1_555 1_555

#END
