
#######################################################################
#
#                 Cambridge Crystallographic Data Centre
#                                CCDC 
#
#######################################################################
#
# If this CIF has been generated from an entry in the Cambridge 
# Structural Database, then it will include bibliographic, chemical, 
# crystal, experimental, refinement or atomic coordinate data resulting 
# from the CCDC's data processing and validation procedures.
#
#######################################################################

data_JALZEE
_chemical_formula_moiety         'C45 H42 F15 N9'
_chemical_name_systematic        
3,3',3''-(1,3,5-triazine-2,4,6-triyl)tris(7-((pentafluorophenyl)methyl)-3,7-diazabicyclo[3.3.1]nonane)
_symmetry_cell_setting           triclinic
_symmetry_space_group_name_H-M   'P -1'
_symmetry_Int_Tables_number      2
_space_group_name_Hall           '-P 1'
loop_
_symmetry_equiv_pos_site_id
_symmetry_equiv_pos_as_xyz
1 x,y,z
2 -x,-y,-z
_cell_length_a                   11.8407(4)
_cell_length_b                   18.9459(7)
_cell_length_c                   19.6510(7)
_cell_angle_alpha                89.323(2)
_cell_angle_beta                 81.428(2)
_cell_angle_gamma                76.734(2)
_cell_volume                     4241.65
_exptl_crystal_colour            white
_exptl_crystal_description       Rod
_cell_formula_units_Z            4
loop_
_atom_site_label
_atom_site_type_symbol
_atom_site_fract_x
_atom_site_fract_y
_atom_site_fract_z
F1 F -0.1441(3) 0.18190(17) 0.71312(18)
F2 F 0.5574(3) 0.00764(17) 0.77388(17)
F3 F 0.6062(3) 0.24753(18) 0.76386(17)
F4 F -0.1977(3) 0.22581(19) 0.84545(18)
F5 F 0.0906(3) 0.35200(18) 0.66965(19)
F6 F 0.6062(3) -0.00423(18) 0.63606(18)
F7 F 0.6574(3) 0.1098(2) 0.56110(17)
F8 F 0.6569(3) 0.23452(19) 0.62492(19)
F9 F -0.1116(3) 0.3335(2) 0.89077(19)
F10 F 0.0319(3) 0.39686(19) 0.8030(2)
F11 F 0.8132(3) 0.4172(2) 0.4897(2)
N1 N 0.3464(4) 0.1165(2) 0.6338(2)
N2 N 0.2750(4) 0.1724(2) 0.7398(2)
F12 F 0.7826(4) 0.4954(2) 0.7202(2)
N3 N 0.3055(4) 0.2907(2) 0.7588(2)
N4 N 0.3621(4) 0.2340(2) 0.6467(2)
F13 F 0.8842(3) 0.5364(2) 0.4458(2)
N5 N 0.2079(4) 0.2340(2) 0.8448(2)
N6 N 0.4305(4) 0.1646(2) 0.8776(2)
F14 F 0.8631(4) 0.6123(2) 0.6758(2)
N7 N 0.3857(4) 0.3490(2) 0.6676(2)
N8 N 0.1184(4) 0.1795(2) 0.6029(2)
F15 F 0.9072(4) 0.6353(2) 0.5379(3)
N9 N 0.6067(4) 0.4055(3) 0.6327(2)
C1 C 0.3264(4) 0.1767(3) 0.6747(3)
C2 C 0.3488(5) 0.2891(3) 0.6919(3)
C3 C 0.2661(4) 0.2319(3) 0.7788(3)
C4 C 0.2969(4) 0.0540(3) 0.6545(3)
H1 H 0.2656 0.0588 0.7042
H2 H 0.3602 0.0092 0.6472
C5 C -0.0218(4) 0.2636(3) 0.6871(3)
C6 C 0.1730(5) 0.1696(3) 0.8749(3)
H3 H 0.1831 0.1326 0.8379
H4 H 0.0887 0.1829 0.8945
C7 C 0.5802(4) 0.1273(3) 0.7734(3)
C8 C 0.2845(5) 0.2556(3) 0.9523(3)
H5 H 0.2771 0.2942 0.9880
C9 C -0.0966(5) 0.2345(3) 0.7333(3)
C10 C 0.3804(5) 0.1194(3) 0.5588(3)
H6 H 0.4508 0.0801 0.5442
H7 H 0.4018 0.1662 0.5477
C11 C 0.2424(5) 0.1371(3) 0.9302(3)
H8 H 0.2093 0.0964 0.9511
C12 C 0.2003(4) 0.0467(3) 0.6149(3)
H9 H 0.1744 0.0013 0.6290
C13 C -0.1261(5) 0.2566(3) 0.8017(3)
C14 C 0.2841(5) 0.1116(3) 0.5184(3)
H10 H 0.3160 0.1090 0.4682
C15 C 0.5808(5) 0.0655(3) 0.7390(3)
C16 C 0.1764(5) 0.1751(3) 0.5317(3)
H11 H 0.2009 0.2209 0.5203
H12 H 0.1198 0.1696 0.5009
C17 C 0.6326(5) 0.1157(3) 0.6293(3)
C18 C 0.6063(5) 0.0586(3) 0.6678(3)
C19 C 0.3737(5) 0.1077(3) 0.9029(3)
H13 H 0.4133 0.0825 0.9403
H14 H 0.3819 0.0717 0.8653
C20 C 0.4418(5) 0.4240(3) 0.5671(3)
H15 H 0.4232 0.4339 0.5194
C21 C 0.4141(5) 0.2252(3) 0.9263(3)
H16 H 0.4485 0.2639 0.9035
H17 H 0.4556 0.2085 0.9658
C22 C 0.6313(5) 0.1783(3) 0.6623(3)
C23 C 0.0930(5) 0.1114(3) 0.6268(3)
H18 H 0.0306 0.1010 0.6028
H19 H 0.0623 0.1164 0.6767
C24 C 0.0200(5) 0.3188(3) 0.7127(3)
C25 C 0.2477(5) 0.0411(3) 0.5379(3)
H20 H 0.3159 -0.0007 0.5281
H21 H 0.1863 0.0342 0.5112
C26 C 0.4091(5) 0.4753(3) 0.6841(3)
H22 H 0.3709 0.5187 0.7146
C27 C 0.6048(5) 0.1844(3) 0.7329(3)
C28 C -0.0095(5) 0.3430(3) 0.7800(3)
C29 C 0.2142(5) 0.2881(3) 0.8952(3)
H23 H 0.1336 0.3124 0.9164
H24 H 0.2510 0.3254 0.8714
C30 C 0.2303(5) 0.1948(3) 0.9857(3)
H25 H 0.2718 0.1738 1.0240
H26 H 0.1465 0.2142 1.0042
C31 C 0.0130(5) 0.2375(3) 0.6134(3)
H27 H -0.0523 0.2200 0.5984
H28 H 0.0260 0.2787 0.5842
C32 C 0.5560(5) 0.1358(3) 0.8510(3)
H29 H 0.5829 0.0880 0.8715
H30 H 0.6019 0.1690 0.8657
C33 C -0.0820(5) 0.3105(3) 0.8252(3)
C34 C 0.5684(5) 0.4159(3) 0.5644(3)
H31 H 0.5906 0.4597 0.5438
H32 H 0.6104 0.3738 0.5341
C35 C 0.7902(5) 0.4535(3) 0.6063(4)
C36 C 0.3627(6) 0.4118(3) 0.7145(3)
H33 H 0.3987 0.3965 0.7562
H34 H 0.2769 0.4281 0.7288
C37 C 0.8574(6) 0.5264(4) 0.5143(4)
C38 C 0.8475(5) 0.5656(4) 0.6300(4)
C39 C 0.8695(6) 0.5766(4) 0.5598(4)
C40 C 0.5420(5) 0.4647(3) 0.6805(3)
H35 H 0.5648 0.5102 0.6656
H36 H 0.5634 0.4540 0.7270
C41 C 0.3959(6) 0.3576(3) 0.5922(3)
H37 H 0.3178 0.3616 0.5782
H38 H 0.4494 0.3136 0.5693
C42 C 0.8068(6) 0.5047(4) 0.6511(4)
C43 C 0.8190(5) 0.4667(4) 0.5372(3)
C44 C 0.3733(6) 0.4913(3) 0.6142(3)
H39 H 0.3949 0.5362 0.5962
H40 H 0.2875 0.4973 0.6165
C45 C 0.7364(5) 0.3918(3) 0.6325(4)
H41 H 0.7751 0.3480 0.6036
H42 H 0.7527 0.3814 0.6800
F16 F -0.0579(3) 0.98124(18) 0.60490(17)
F17 F -0.0700(3) 0.76383(17) 0.72209(17)
F18 F 0.0824(3) 0.68929(18) 0.61745(17)
F19 F 0.1706(3) 0.7601(2) 0.50961(17)
F20 F 0.0998(3) 0.9066(2) 0.50338(16)
F21 F 0.6562(3) 0.8443(2) 0.83085(19)
F22 F 0.5509(4) 0.9450(2) 0.9274(2)
F23 F 0.4076(4) 0.4038(2) 0.8966(2)
N10 N 0.2074(4) 0.7255(2) 0.7416(2)
N11 N 0.3142(4) 0.7806(2) 0.6589(2)
N12 N 0.2145(4) 0.8495(2) 0.7548(2)
N13 N 0.1131(4) 0.9131(2) 0.8546(2)
N14 N -0.0811(4) 0.9392(2) 0.7805(2)
F24 F 0.6358(4) 0.3949(3) 0.8450(2)
F25 F 0.3454(4) 0.7280(3) 0.8740(2)
N15 N 0.0943(4) 0.7959(2) 0.8399(2)
F26 F 0.3391(4) 0.9398(3) 0.9979(2)
N16 N 0.0873(4) 0.6772(2) 0.8240(2)
F27 F 0.2369(4) 0.8297(4) 0.9754(2)
N17 N 0.5124(4) 0.7444(3) 0.7292(2)
N18 N 0.1798(4) 0.5641(3) 0.9223(2)
C46 C 0.2440(5) 0.7854(3) 0.7215(3)
C47 C 0.1303(5) 0.7350(3) 0.8019(3)
C48 C 0.1396(5) 0.8510(3) 0.8149(3)
F28 F 0.3830(6) 0.6387(3) 0.9840(3)
C49 C -0.0649(5) 0.8761(3) 0.6688(3)
C50 C -0.0270(5) 0.8006(3) 0.6693(3)
C51 C 0.0920(5) 0.5471(3) 0.8176(3)
H43 H 0.0938 0.5081 0.7833
C52 C 0.0231(5) 0.9223(3) 0.9155(3)
H44 H 0.0531 0.9406 0.9546
H45 H 0.0060 0.8747 0.9280
C53 C 0.5005(5) 0.7837(3) 0.8484(3)
C54 C -0.0279(5) 0.6200(3) 0.9144(3)
H46 H -0.1062 0.6305 0.9443
C55 C 0.0601(5) 0.8712(3) 0.5590(3)
C56 C -0.0207(5) 0.9097(3) 0.6111(3)
C57 C 0.0193(5) 1.0330(3) 0.8135(3)
H47 H 0.0380 1.0798 0.7970
C58 C 0.0511(5) 0.7616(3) 0.6166(3)
C59 C -0.0394(5) 1.0039(3) 0.7595(3)
H48 H -0.1066 1.0423 0.7493
H49 H 0.0174 0.9925 0.7165
C60 C 0.1338(5) 0.9806(3) 0.8257(3)
H50 H 0.1876 0.9701 0.7815
H51 H 0.1724 1.0040 0.8575
C61 C 0.3647(5) 0.8401(3) 0.6340(3)
H52 H 0.3342 0.8820 0.6665
H53 H 0.3402 0.8548 0.5889
C62 C 0.0965(5) 0.7978(3) 0.5610(3)
C63 C 0.5489(5) 0.8404(3) 0.8641(3)
C64 C 0.4988(5) 0.8204(3) 0.6259(3)
H54 H 0.5284 0.8616 0.6032
C65 C -0.0903(5) 0.9754(3) 0.9030(3)
H55 H -0.1450 0.9836 0.9476
C66 C 0.4981(5) 0.6916(3) 0.6152(3)
H56 H 0.5281 0.6464 0.5860
C67 C 0.3644(5) 0.7111(3) 0.6233(3)
H57 H 0.3398 0.7128 0.5772
H58 H 0.3336 0.6728 0.6494
C68 C -0.0631(5) 1.0478(3) 0.8809(3)
H59 H -0.1360 1.0837 0.8749
H60 H -0.0254 1.0671 0.9160
C69 C 0.1079(5) 0.6131(3) 0.7790(3)
H61 H 0.1887 0.6039 0.7536
H62 H 0.0529 0.6228 0.7448
C70 C -0.1449(5) 0.9169(3) 0.7287(3)
H63 H -0.1956 0.9606 0.7119
H64 H -0.1964 0.8860 0.7507
C71 C -0.1538(5) 0.9481(3) 0.8490(3)
H65 H -0.1714 0.9010 0.8634
H66 H -0.2291 0.9831 0.8465
C72 C 0.5462(5) 0.8069(3) 0.6947(3)
H67 H 0.6328 0.7983 0.6862
H68 H 0.5153 0.8505 0.7249
F29 F 0.5999(7) 0.6338(4) 0.9335(3)
C73 C 0.4566(6) 0.4639(4) 0.9028(3)
C74 C 0.5448(6) 0.6788(3) 0.6847(3)
H69 H 0.5132 0.6398 0.7090
H70 H 0.6314 0.6623 0.6760
F30 F 0.7359(5) 0.5038(5) 0.8601(3)
C75 C 0.4957(7) 0.8918(4) 0.9129(3)
C76 C 0.5458(5) 0.7532(3) 0.5789(3)
H71 H 0.6327 0.7407 0.5715
H72 H 0.5186 0.7621 0.5336
C77 C -0.0280(6) 0.5632(4) 0.8623(3)
H73 H -0.0905 0.5808 0.8338
H74 H -0.0423 0.5187 0.8856
C78 C -0.0133(6) 0.6898(3) 0.8788(3)
H75 H -0.0853 0.7116 0.8591
H76 H -0.0030 0.7247 0.9131
C79 C 0.3936(6) 0.7817(4) 0.8863(4)
C80 C 0.3845(6) 0.5190(4) 0.9395(3)
C81 C 0.1810(6) 0.5181(4) 0.8629(3)
H77 H 0.1691 0.4705 0.8798
H78 H 0.2598 0.5096 0.8349
C82 C 0.3896(7) 0.8891(5) 0.9477(3)
C83 C 0.5605(6) 0.7285(3) 0.7926(4)
H79 H 0.6454 0.7277 0.7842
H80 H 0.5517 0.6799 0.8080
C84 C 0.3374(6) 0.8336(5) 0.9383(4)
C85 C 0.5668(7) 0.4504(6) 0.8784(4)
C86 C 0.0625(6) 0.5912(4) 0.9589(3)
H81 H 0.0644 0.6303 0.9915
H82 H 0.0386 0.5515 0.9864
C87 C 0.2599(6) 0.5325(4) 0.9666(3)
H83 H 0.2421 0.4858 0.9818
H84 H 0.2453 0.5645 1.0080
C88 C 0.4432(10) 0.5769(5) 0.9451(4)
C89 C 0.6193(10) 0.5119(7) 0.8848(5)
C90 C 0.5582(11) 0.5746(7) 0.9205(5)
loop_
_geom_bond_atom_site_label_1
_geom_bond_atom_site_label_2
_geom_bond_site_symmetry_1
_geom_bond_site_symmetry_2
F1 C9 1_555 1_555
F2 C15 1_555 1_555
F3 C27 1_555 1_555
F4 C13 1_555 1_555
F5 C24 1_555 1_555
F6 C18 1_555 1_555
F7 C17 1_555 1_555
F8 C22 1_555 1_555
F9 C33 1_555 1_555
F10 C28 1_555 1_555
F11 C43 1_555 1_555
N1 C1 1_555 1_555
N2 C1 1_555 1_555
F12 C42 1_555 1_555
N3 C2 1_555 1_555
N4 C1 1_555 1_555
F13 C37 1_555 1_555
N5 C3 1_555 1_555
N6 C19 1_555 1_555
F14 C38 1_555 1_555
N7 C2 1_555 1_555
N8 C16 1_555 1_555
F15 C39 1_555 1_555
N9 C34 1_555 1_555
C2 N4 1_555 1_555
C3 N2 1_555 1_555
C4 N1 1_555 1_555
H1 C4 1_555 1_555
H2 C4 1_555 1_555
C5 C9 1_555 1_555
C6 N5 1_555 1_555
H3 C6 1_555 1_555
H4 C6 1_555 1_555
C7 C15 1_555 1_555
C8 H5 1_555 1_555
C9 C13 1_555 1_555
C10 N1 1_555 1_555
H6 C10 1_555 1_555
H7 C10 1_555 1_555
C11 C6 1_555 1_555
H8 C11 1_555 1_555
C12 C4 1_555 1_555
H9 C12 1_555 1_555
C13 C33 1_555 1_555
C14 C10 1_555 1_555
H10 C14 1_555 1_555
C15 C18 1_555 1_555
C16 C14 1_555 1_555
H11 C16 1_555 1_555
H12 C16 1_555 1_555
C17 C18 1_555 1_555
C19 C11 1_555 1_555
H13 C19 1_555 1_555
H14 C19 1_555 1_555
C20 H15 1_555 1_555
C21 N6 1_555 1_555
H16 C21 1_555 1_555
H17 C21 1_555 1_555
C22 C17 1_555 1_555
C23 N8 1_555 1_555
H18 C23 1_555 1_555
H19 C23 1_555 1_555
C24 C5 1_555 1_555
C25 C12 1_555 1_555
H20 C25 1_555 1_555
H21 C25 1_555 1_555
C26 H22 1_555 1_555
C27 C7 1_555 1_555
C28 C24 1_555 1_555
C29 N5 1_555 1_555
H23 C29 1_555 1_555
H24 C29 1_555 1_555
C30 C8 1_555 1_555
H25 C30 1_555 1_555
H26 C30 1_555 1_555
C31 N8 1_555 1_555
H27 C31 1_555 1_555
H28 C31 1_555 1_555
C32 N6 1_555 1_555
H29 C32 1_555 1_555
H30 C32 1_555 1_555
C33 C28 1_555 1_555
C34 C20 1_555 1_555
H31 C34 1_555 1_555
H32 C34 1_555 1_555
C35 C42 1_555 1_555
C36 N7 1_555 1_555
H33 C36 1_555 1_555
H34 C36 1_555 1_555
C37 C39 1_555 1_555
C38 C39 1_555 1_555
C40 N9 1_555 1_555
H35 C40 1_555 1_555
H36 C40 1_555 1_555
C41 N7 1_555 1_555
H37 C41 1_555 1_555
H38 C41 1_555 1_555
C42 C38 1_555 1_555
C43 C35 1_555 1_555
C44 C20 1_555 1_555
H39 C44 1_555 1_555
H40 C44 1_555 1_555
C45 N9 1_555 1_555
H41 C45 1_555 1_555
H42 C45 1_555 1_555
F16 C56 1_555 1_555
F17 C50 1_555 1_555
F18 C58 1_555 1_555
F19 C62 1_555 1_555
F20 C55 1_555 1_555
F21 C63 1_555 1_555
F22 C75 1_555 1_555
F23 C73 1_555 1_555
N10 C46 1_555 1_555
N11 C46 1_555 1_555
N12 C46 1_555 1_555
N13 C48 1_555 1_555
N14 C59 1_555 1_555
F24 C85 1_555 1_555
F25 C79 1_555 1_555
N15 C47 1_555 1_555
F26 C82 1_555 1_555
N16 C47 1_555 1_555
F27 C84 1_555 1_555
N17 C72 1_555 1_555
N18 C81 1_555 1_555
C47 N10 1_555 1_555
C48 N12 1_555 1_555
F28 C88 1_555 1_555
C49 C50 1_555 1_555
C50 C58 1_555 1_555
C51 H43 1_555 1_555
C52 N13 1_555 1_555
H44 C52 1_555 1_555
H45 C52 1_555 1_555
C53 C63 1_555 1_555
C54 H46 1_555 1_555
C55 C56 1_555 1_555
C56 C49 1_555 1_555
C57 H47 1_555 1_555
C58 C62 1_555 1_555
C59 C57 1_555 1_555
H48 C59 1_555 1_555
H49 C59 1_555 1_555
C60 N13 1_555 1_555
H50 C60 1_555 1_555
H51 C60 1_555 1_555
C61 N11 1_555 1_555
H52 C61 1_555 1_555
H53 C61 1_555 1_555
C62 C55 1_555 1_555
C63 C75 1_555 1_555
C64 C61 1_555 1_555
H54 C64 1_555 1_555
C65 C52 1_555 1_555
H55 C65 1_555 1_555
C66 H56 1_555 1_555
C67 N11 1_555 1_555
H57 C67 1_555 1_555
H58 C67 1_555 1_555
C68 C57 1_555 1_555
H59 C68 1_555 1_555
H60 C68 1_555 1_555
C69 N16 1_555 1_555
H61 C69 1_555 1_555
H62 C69 1_555 1_555
C70 N14 1_555 1_555
H63 C70 1_555 1_555
H64 C70 1_555 1_555
C71 N14 1_555 1_555
H65 C71 1_555 1_555
H66 C71 1_555 1_555
C72 C64 1_555 1_555
H67 C72 1_555 1_555
H68 C72 1_555 1_555
F29 C90 1_555 1_555
C73 C80 1_555 1_555
C74 N17 1_555 1_555
H69 C74 1_555 1_555
H70 C74 1_555 1_555
F30 C89 1_555 1_555
C75 C82 1_555 1_555
C76 C64 1_555 1_555
H71 C76 1_555 1_555
H72 C76 1_555 1_555
C77 C51 1_555 1_555
H73 C77 1_555 1_555
H74 C77 1_555 1_555
C78 N16 1_555 1_555
H75 C78 1_555 1_555
H76 C78 1_555 1_555
C79 C53 1_555 1_555
C80 C87 1_555 1_555
C81 C51 1_555 1_555
H77 C81 1_555 1_555
H78 C81 1_555 1_555
C82 C84 1_555 1_555
C83 N17 1_555 1_555
H79 C83 1_555 1_555
H80 C83 1_555 1_555
C84 C79 1_555 1_555
C85 C73 1_555 1_555
C86 N18 1_555 1_555
H81 C86 1_555 1_555
H82 C86 1_555 1_555
C87 N18 1_555 1_555
H83 C87 1_555 1_555
H84 C87 1_555 1_555
C88 C80 1_555 1_555
C89 C85 1_555 1_555
C90 C88 1_555 1_555
N3 C3 1_555 1_555
C5 C31 1_555 1_555
C7 C32 1_555 1_555
C8 C21 1_555 1_555
C8 C29 1_555 1_555
C11 C30 1_555 1_555
C12 C23 1_555 1_555
C14 C25 1_555 1_555
C20 C41 1_555 1_555
C22 C27 1_555 1_555
C26 C36 1_555 1_555
C26 C40 1_555 1_555
C26 C44 1_555 1_555
C35 C45 1_555 1_555
C37 C43 1_555 1_555
N15 C48 1_555 1_555
C49 C70 1_555 1_555
C51 C69 1_555 1_555
C53 C83 1_555 1_555
C54 C77 1_555 1_555
C54 C78 1_555 1_555
C54 C86 1_555 1_555
C57 C60 1_555 1_555
C65 C68 1_555 1_555
C65 C71 1_555 1_555
C66 C67 1_555 1_555
C66 C74 1_555 1_555
C66 C76 1_555 1_555
C89 C90 1_555 1_555

#END
