
#######################################################################
#
#                 Cambridge Crystallographic Data Centre
#                                CCDC 
#
#######################################################################
#
# If this CIF has been generated from an entry in the Cambridge 
# Structural Database, then it will include bibliographic, chemical, 
# crystal, experimental, refinement or atomic coordinate data resulting 
# from the CCDC's data processing and validation procedures.
#
#######################################################################

data_JAMKUD
_chemical_formula_moiety         'C11 H18 N1 1+,I1 1-'
_chemical_name_systematic        'Trimethyl(phenethyl)ammonium iodide'
_symmetry_cell_setting           orthorhombic
_symmetry_space_group_name_H-M   'P 21 21 21'
_symmetry_Int_Tables_number      19
_space_group_name_Hall           'P 2ac 2ab'
loop_
_symmetry_equiv_pos_site_id
_symmetry_equiv_pos_as_xyz
1 x,y,z
2 1/2+x,1/2-y,-z
3 -x,1/2+y,1/2-z
4 1/2-x,-y,1/2+z
_cell_length_a                   6.040(2)
_cell_length_b                   7.689(2)
_cell_length_c                   26.528(9)
_cell_angle_alpha                90
_cell_angle_beta                 90
_cell_angle_gamma                90
_cell_volume                     1232
_cell_formula_units_Z            4
loop_
_atom_site_label
_atom_site_type_symbol
_atom_site_fract_x
_atom_site_fract_y
_atom_site_fract_z
N1 N 0.5159(6) 0.5095(5) 0.1707(1)
C1 C 0.0256(9) 0.4565(8) 0.0319(2)
C2 C -0.0288(11) 0.4173(10) -0.0174(3)
C3 C 0.1107(12) 0.4631(8) -0.0560(2)
C4 C 0.3056(12) 0.5469(8) -0.0452(2)
C5 C 0.3571(9) 0.5912(7) 0.0036(2)
C6 C 0.2152(8) 0.5498(7) 0.0428(2)
C7 C 0.2717(9) 0.6019(8) 0.0970(2)
C8 C 0.4248(7) 0.4690(7) 0.1185(2)
C9 C 0.6686(8) 0.3616(7) 0.1836(2)
C10 C 0.3359(8) 0.5199(7) 0.2096(2)
C11 C 0.6463(9) 0.6760(7) 0.1716(2)
H1 H -0.0690 0.4185 0.0588
H2 H -0.1650 0.3580 -0.0247
H3 H 0.0724 0.4366 -0.0903
H4 H 0.4067 0.5748 -0.0720
H5 H 0.4929 0.6514 0.0105
H6 H 0.1387 0.6071 0.1167
H7 H 0.3425 0.7136 0.0971
H8 H 0.3460 0.3608 0.1205
H9 H 0.5480 0.4567 0.0959
H10 H 0.7137 0.3756 0.2181
H11 H 0.7970 0.3459 0.1628
H12 H 0.5742 0.2616 0.1807
H13 H 0.2374 0.4221 0.2079
H14 H 0.2571 0.6239 0.2007
H15 H 0.3926 0.5306 0.2433
H16 H 0.7419 0.6802 0.1427
H17 H 0.7341 0.6713 0.2017
H18 H 0.5548 0.7781 0.1722
I1 I 0.1220(1) 0.0277(1) 0.1802(1)
loop_
_geom_bond_atom_site_label_1
_geom_bond_atom_site_label_2
_geom_bond_site_symmetry_1
_geom_bond_site_symmetry_2
N1 C8 1_555 1_555
C1 C2 1_555 1_555
C2 C3 1_555 1_555
C3 C4 1_555 1_555
C4 C5 1_555 1_555
C5 C6 1_555 1_555
C6 C1 1_555 1_555
C7 C6 1_555 1_555
C8 C7 1_555 1_555
C9 N1 1_555 1_555
C10 N1 1_555 1_555
C11 N1 1_555 1_555
H1 C1 1_555 1_555
H2 C2 1_555 1_555
H3 C3 1_555 1_555
H4 C4 1_555 1_555
H5 C5 1_555 1_555
H6 C7 1_555 1_555
H7 C7 1_555 1_555
H8 C8 1_555 1_555
H9 C8 1_555 1_555
H10 C9 1_555 1_555
H11 C9 1_555 1_555
H12 C9 1_555 1_555
H13 C10 1_555 1_555
H14 C10 1_555 1_555
H15 C10 1_555 1_555
H16 C11 1_555 1_555
H17 C11 1_555 1_555
H18 C11 1_555 1_555

#END
