
#######################################################################
#
#                 Cambridge Crystallographic Data Centre
#                                CCDC 
#
#######################################################################
#
# If this CIF has been generated from an entry in the Cambridge 
# Structural Database, then it will include bibliographic, chemical, 
# crystal, experimental, refinement or atomic coordinate data resulting 
# from the CCDC's data processing and validation procedures.
#
#######################################################################

data_JAMLUE
_chemical_formula_moiety         'C11 H18 N1 O1 1+,I1 1-'
_chemical_name_systematic        
'(2-Hydroxy-2-phenylethyl)trimethylammonium iodide'
_symmetry_cell_setting           orthorhombic
_symmetry_space_group_name_H-M   'P 21 21 21'
_symmetry_Int_Tables_number      19
_space_group_name_Hall           'P 2ac 2ab'
loop_
_symmetry_equiv_pos_site_id
_symmetry_equiv_pos_as_xyz
1 x,y,z
2 1/2+x,1/2-y,-z
3 -x,1/2+y,1/2-z
4 1/2-x,-y,1/2+z
_cell_length_a                   5.919(2)
_cell_length_b                   13.775(9)
_cell_length_c                   15.866(8)
_cell_angle_alpha                90
_cell_angle_beta                 90
_cell_angle_gamma                90
_cell_volume                     1293.62
_cell_formula_units_Z            4
loop_
_atom_site_label
_atom_site_type_symbol
_atom_site_fract_x
_atom_site_fract_y
_atom_site_fract_z
I1 I 1.4437(1) -0.0933(1) 0.6335(1)
C1 C 1.1742(7) -0.1961(3) 0.8984(3)
C2 C 1.1858(7) -0.2923(3) 0.9254(3)
C3 C 1.0103(7) -0.3564(3) 0.9069(3)
C4 C 0.8232(7) -0.3243(3) 0.8612(3)
C5 C 0.8117(7) -0.2281(3) 0.8341(3)
C6 C 0.9872(7) -0.1640(3) 0.8527(3)
C7 C 0.9683(14) -0.0582(4) 0.8253(4)
O1 O 1.1815(10) -0.0123(4) 0.8160(3)
C8 C 0.8381(13) -0.0053(4) 0.8935(4)
N1 N 0.7753(9) 0.1013(4) 0.8786(3)
C9 C 0.6017(15) 0.1285(6) 0.9442(5)
C10 C 0.9750(14) 0.1666(5) 0.8880(4)
C11 C 0.6724(16) 0.1164(5) 0.7926(4)
H1 H 1.2950 -0.1520 0.9112
H2 H 1.3145 -0.3144 0.9569
H3 H 1.0182 -0.4226 0.9255
H4 H 0.7025 -0.3685 0.8484
H5 H 0.6830 -0.2060 0.8027
H6 H 0.8949 -0.0560 0.7714
H7 H 1.2546 -0.0271 0.7709
H8 H 0.6998 -0.0403 0.9023
H9 H 0.9278 -0.0078 0.9439
H10 H 0.4706 0.0883 0.9372
H11 H 0.5616 0.1951 0.9347
H12 H 0.6591 0.1212 1.0004
H13 H 1.0434 0.1556 0.9420
H14 H 0.9237 0.2326 0.8845
H15 H 1.0839 0.1547 0.8444
H16 H 0.5407 0.0773 0.7833
H17 H 0.7805 0.1046 0.7487
H18 H 0.6306 0.1838 0.7924
loop_
_geom_bond_atom_site_label_1
_geom_bond_atom_site_label_2
_geom_bond_site_symmetry_1
_geom_bond_site_symmetry_2
C1 C2 1_555 1_555
C2 C3 1_555 1_555
C3 C4 1_555 1_555
C4 C5 1_555 1_555
C5 C6 1_555 1_555
C6 C1 1_555 1_555
C7 C6 1_555 1_555
O1 C7 1_555 1_555
C8 C7 1_555 1_555
N1 C8 1_555 1_555
C9 N1 1_555 1_555
C10 N1 1_555 1_555
C11 N1 1_555 1_555
H1 C1 1_555 1_555
H2 C2 1_555 1_555
H3 C3 1_555 1_555
H4 C4 1_555 1_555
H5 C5 1_555 1_555
H6 C7 1_555 1_555
H7 O1 1_555 1_555
H8 C8 1_555 1_555
H9 C8 1_555 1_555
H10 C9 1_555 1_555
H11 C9 1_555 1_555
H12 C9 1_555 1_555
H13 C10 1_555 1_555
H14 C10 1_555 1_555
H15 C10 1_555 1_555
H16 C11 1_555 1_555
H17 C11 1_555 1_555
H18 C11 1_555 1_555

#END
