
#######################################################################
#
#                 Cambridge Crystallographic Data Centre
#                                CCDC 
#
#######################################################################
#
# If this CIF has been generated from an entry in the Cambridge 
# Structural Database, then it will include bibliographic, chemical, 
# crystal, experimental, refinement or atomic coordinate data resulting 
# from the CCDC's data processing and validation procedures.
#
#######################################################################

data_JAMLUF
_chemical_formula_moiety         'C11 H18 N1 O1 1+,I1 1-'
_chemical_name_systematic        
'(2-Hydroxy-2-phenylethyl)trimethylammonium iodide'
_symmetry_cell_setting           monoclinic
_symmetry_space_group_name_H-M   'P 21/n'
_symmetry_Int_Tables_number      14
_space_group_name_Hall           '-P 2yn'
loop_
_symmetry_equiv_pos_site_id
_symmetry_equiv_pos_as_xyz
1 x,y,z
2 1/2-x,1/2+y,1/2-z
3 -x,-y,-z
4 1/2+x,1/2-y,1/2+z
_cell_length_a                   5.945(3)
_cell_length_b                   13.540(6)
_cell_length_c                   16.182(6)
_cell_angle_alpha                90
_cell_angle_beta                 99.42(3)
_cell_angle_gamma                90
_cell_volume                     1285.01
_cell_formula_units_Z            4
loop_
_atom_site_label
_atom_site_type_symbol
_atom_site_fract_x
_atom_site_fract_y
_atom_site_fract_z
I1 I 0.7989(1) -0.1470(1) 0.8718(1)
C1 C 0.2893(5) 0.4268(2) 0.8493(2)
C2 C 0.1241(6) 0.4689(3) 0.8895(2)
C3 C 0.1396(7) 0.5684(3) 0.9124(2)
C4 C 0.3208(8) 0.6248(3) 0.8959(2)
C5 C 0.4865(7) 0.5838(2) 0.8570(2)
C6 C 0.4704(6) 0.4845(2) 0.8333(2)
C7 C 0.2819(5) 0.3176(2) 0.8251(2)
O1 O 0.0578(4) 0.2779(2) 0.8127(2)
C8 C 0.4252(5) 0.2621(2) 0.8972(2)
N1 N 0.4823(4) 0.1548(2) 0.8830(1)
C9 C 0.6610(6) 0.1242(2) 0.9565(2)
C10 C 0.5796(7) 0.1403(2) 0.8042(2)
C11 C 0.2781(5) 0.0887(2) 0.8807(2)
H1 H -0.0010 0.4297 0.9016
H2 H 0.0240 0.5976 0.9396
H3 H 0.3308 0.6932 0.9119
H4 H 0.6127 0.6231 0.8460
H5 H 0.5858 0.4558 0.8057
H6 H 0.3385 0.3107 0.7732
H7 H -0.0210 0.3081 0.7590
H8 H 0.3440 0.2640 0.9438
H9 H 0.5668 0.2970 0.9113
H10 H 0.7030 0.0565 0.9503
H11 H 0.5976 0.1316 1.0070
H12 H 0.7936 0.1654 0.9593
H13 H 0.7045 0.1858 0.8069
H14 H 0.4659 0.1559 0.7567
H15 H 0.6338 0.0743 0.7986
H16 H 0.2152 0.0950 0.9314
H17 H 0.3245 0.0215 0.8744
H18 H 0.1649 0.1067 0.8337
loop_
_geom_bond_atom_site_label_1
_geom_bond_atom_site_label_2
_geom_bond_site_symmetry_1
_geom_bond_site_symmetry_2
C1 C2 1_555 1_555
C2 C3 1_555 1_555
C3 C4 1_555 1_555
C4 C5 1_555 1_555
C5 C6 1_555 1_555
C6 C1 1_555 1_555
C7 C1 1_555 1_555
O1 C7 1_555 1_555
C8 C7 1_555 1_555
N1 C8 1_555 1_555
C9 N1 1_555 1_555
C10 N1 1_555 1_555
C11 N1 1_555 1_555
H1 C2 1_555 1_555
H2 C3 1_555 1_555
H3 C4 1_555 1_555
H4 C5 1_555 1_555
H5 C6 1_555 1_555
H6 C7 1_555 1_555
H7 O1 1_555 1_555
H8 C8 1_555 1_555
H9 C8 1_555 1_555
H10 C9 1_555 1_555
H11 C9 1_555 1_555
H12 C9 1_555 1_555
H13 C10 1_555 1_555
H14 C10 1_555 1_555
H15 C10 1_555 1_555
H16 C11 1_555 1_555
H17 C11 1_555 1_555
H18 C11 1_555 1_555

#END
