
#######################################################################
#
#                 Cambridge Crystallographic Data Centre
#                                CCDC 
#
#######################################################################
#
# If this CIF has been generated from an entry in the Cambridge 
# Structural Database, then it will include bibliographic, chemical, 
# crystal, experimental, refinement or atomic coordinate data resulting 
# from the CCDC's data processing and validation procedures.
#
#######################################################################

data_JAMLIS
_chemical_name_common            'Coryneine iodide'
_chemical_formula_moiety         'C11 H18 N1 O2 1+,I1 1-'
_chemical_name_systematic        
'(3,4-Dihydroxyphenethyl)trimethylammonium iodide'
_chemical_properties_biological  'nicotine-like activity'
_symmetry_cell_setting           monoclinic
_symmetry_space_group_name_H-M   'P 21/a'
_symmetry_Int_Tables_number      14
_space_group_name_Hall           '-P 2yab'
loop_
_symmetry_equiv_pos_site_id
_symmetry_equiv_pos_as_xyz
1 x,y,z
2 1/2-x,1/2+y,-z
3 -x,-y,-z
4 1/2+x,1/2-y,z
_cell_length_a                   13.144(5)
_cell_length_b                   15.676(7)
_cell_length_c                   6.832(2)
_cell_angle_alpha                90
_cell_angle_beta                 103.50(3)
_cell_angle_gamma                90
_cell_volume                     1368.81
_cell_formula_units_Z            4
loop_
_atom_site_label
_atom_site_type_symbol
_atom_site_fract_x
_atom_site_fract_y
_atom_site_fract_z
I1 I 0.3776(1) 1.1512(1) 1.1027(1)
C1 C 0.0437(3) 0.8962(3) 0.3584(7)
C2 C 0.0937(3) 0.9137(3) 0.5558(7)
C3 C 0.1714(3) 0.9748(3) 0.6016(6)
O1 O 0.2178(3) 0.9908(2) 0.7984(4)
C4 C 0.1998(3) 1.0192(2) 0.4467(6)
O2 O 0.2756(2) 1.0808(2) 0.5042(4)
C5 C 0.1523(3) 1.0007(3) 0.2497(6)
C6 C 0.0748(3) 0.9384(3) 0.2065(7)
C7 C -0.0471(4) 0.8336(3) 0.3088(9)
C8 C -0.0106(3) 0.7427(3) 0.3348(7)
N1 N -0.0988(3) 0.6775(2) 0.2908(6)
C9 C -0.1736(4) 0.6928(4) 0.4208(10)
C10 C -0.0491(4) 0.5919(3) 0.3347(9)
C11 C -0.1540(4) 0.6789(4) 0.0758(8)
H1 H 0.0741 0.8831 0.6631
H2 H 0.2591 1.0164 0.8086
H3 H 0.2900 1.0888 0.4308
H4 H 0.1727 1.0309 0.1426
H5 H 0.0434 0.9247 0.0687
H6 H -0.0833 0.8421 0.1710
H7 H -0.0939 0.8444 0.3948
H8 H 0.0346 0.7320 0.2455
H9 H 0.0280 0.7354 0.4715
H10 H -0.2137 0.7439 0.3835
H11 H -0.1334 0.6978 0.5571
H12 H -0.2200 0.6448 0.4100
H13 H 0.0015 0.5847 0.2548
H14 H -0.1004 0.5473 0.3038
H15 H -0.0145 0.5893 0.4748
H16 H -0.1858 0.7338 0.0440
H17 H -0.2068 0.6354 0.0453
H18 H -0.1031 0.6696 -0.0025
loop_
_geom_bond_atom_site_label_1
_geom_bond_atom_site_label_2
_geom_bond_site_symmetry_1
_geom_bond_site_symmetry_2
C1 C2 1_555 1_555
C2 C3 1_555 1_555
C3 O1 1_555 1_555
O1 H2 1_555 1_555
C4 C3 1_555 1_555
O2 C4 1_555 1_555
C5 C4 1_555 1_555
C6 C1 1_555 1_555
C7 C1 1_555 1_555
C8 C7 1_555 1_555
N1 C8 1_555 1_555
C9 N1 1_555 1_555
C10 N1 1_555 1_555
C11 N1 1_555 1_555
H1 C2 1_555 1_555
H3 O2 1_555 1_555
H4 C5 1_555 1_555
H5 C6 1_555 1_555
H6 C7 1_555 1_555
H7 C7 1_555 1_555
H8 C8 1_555 1_555
H9 C8 1_555 1_555
H10 C9 1_555 1_555
H11 C9 1_555 1_555
H12 C9 1_555 1_555
H13 C10 1_555 1_555
H14 C10 1_555 1_555
H15 C10 1_555 1_555
H16 C11 1_555 1_555
H17 C11 1_555 1_555
H18 C11 1_555 1_555
C5 C6 1_555 1_555

#END
