
#######################################################################
#
#                 Cambridge Crystallographic Data Centre
#                                CCDC 
#
#######################################################################
#
# If this CIF has been generated from an entry in the Cambridge 
# Structural Database, then it will include bibliographic, chemical, 
# crystal, experimental, refinement or atomic coordinate data resulting 
# from the CCDC's data processing and validation procedures.
#
#######################################################################

data_JAMLEO
_chemical_formula_moiety         'C11 H18 N1 O1 1+,I1 1-,0.5(H2 O1)'
_chemical_name_systematic        
'(m-Hydroxyphenethyl)trimethylammonium iodide hemihydrate'
_chemical_properties_biological  'nicotine-like activity'
_symmetry_cell_setting           monoclinic
_symmetry_space_group_name_H-M   'P 21/n'
_symmetry_Int_Tables_number      14
_space_group_name_Hall           '-P 2yn'
loop_
_symmetry_equiv_pos_site_id
_symmetry_equiv_pos_as_xyz
1 x,y,z
2 1/2-x,1/2+y,1/2-z
3 -x,-y,-z
4 1/2+x,1/2-y,1/2+z
_cell_length_a                   8.048(2)
_cell_length_b                   9.782(3)
_cell_length_c                   17.447(7)
_cell_angle_alpha                90
_cell_angle_beta                 90.15(1)
_cell_angle_gamma                90
_cell_volume                     1373.52
_cell_formula_units_Z            4
loop_
_atom_site_label
_atom_site_type_symbol
_atom_site_fract_x
_atom_site_fract_y
_atom_site_fract_z
I1 I 0.5200(1) 0.4925(3) 0.6724(1)
C1 C 0.7641(9) 0.2520(7) 0.5145(4)
C2 C 0.8896(9) 0.3290(7) 0.4803(4)
C3 C 1.0557(9) 0.2939(7) 0.4919(4)
C4 C 1.0964(9) 0.1817(7) 0.5376(4)
C5 C 0.9709(9) 0.1047(7) 0.5718(4)
C6 C 0.8047(9) 0.1399(7) 0.5602(4)
O1 O 1.2594(12) 0.1451(10) 0.5509(6)
C7 C 0.6687(17) 0.0609(15) 0.5995(8)
C8 C 0.6347(14) 0.1190(12) 0.6772(6)
N1 N 0.4804(14) 0.0731(13) 0.7174(7)
C9 C 0.4715(16) 0.1393(14) 0.7939(7)
C10 C 0.3299(14) 0.1153(13) 0.6740(7)
C11 C 0.4840(18) -0.0776(13) 0.7269(9)
H1 H 0.6497 0.2762 0.5065
H2 H 0.8615 0.4062 0.4488
H3 H 1.1421 0.3469 0.4683
H4 H 0.9989 0.0276 0.6032
H5 H 0.7011 -0.0332 0.6042
H6 H 0.5693 0.0670 0.5692
H7 H 0.7274 0.0951 0.7092
H8 H 0.6288 0.2167 0.6722
H9 H 0.5672 0.1139 0.8236
H10 H 0.3726 0.1098 0.8197
H11 H 0.4691 0.2368 0.7878
H12 H 0.3314 0.0741 0.6240
H13 H 0.3286 0.2130 0.6688
H14 H 0.2325 0.0861 0.7010
H15 H 0.4898 -0.1205 0.6775
H16 H 0.3851 -0.1069 0.7528
H17 H 0.5797 -0.1028 0.7567
O2 O 1.4829(25) 0.3141(13) 0.4956(15)
loop_
_geom_bond_atom_site_label_1
_geom_bond_atom_site_label_2
_geom_bond_site_symmetry_1
_geom_bond_site_symmetry_2
C1 C2 1_555 1_555
C2 C3 1_555 1_555
C3 C4 1_555 1_555
C4 C5 1_555 1_555
C5 C6 1_555 1_555
C6 C1 1_555 1_555
O1 C4 1_555 1_555
C7 C6 1_555 1_555
C8 C7 1_555 1_555
N1 C8 1_555 1_555
C9 N1 1_555 1_555
C10 N1 1_555 1_555
C11 N1 1_555 1_555
H1 C1 1_555 1_555
H2 C2 1_555 1_555
H3 C3 1_555 1_555
H4 C5 1_555 1_555
H5 C7 1_555 1_555
H6 C7 1_555 1_555
H7 C8 1_555 1_555
H8 C8 1_555 1_555
H9 C9 1_555 1_555
H10 C9 1_555 1_555
H11 C9 1_555 1_555
H12 C10 1_555 1_555
H13 C10 1_555 1_555
H14 C10 1_555 1_555
H15 C11 1_555 1_555
H16 C11 1_555 1_555
H17 C11 1_555 1_555

#END
