
#######################################################################
#
#                 Cambridge Crystallographic Data Centre
#                                CCDC 
#
#######################################################################
#
# If this CIF has been generated from an entry in the Cambridge 
# Structural Database, then it will include bibliographic, chemical, 
# crystal, experimental, refinement or atomic coordinate data resulting 
# from the CCDC's data processing and validation procedures.
#
#######################################################################

data_JAMMIT
_chemical_formula_moiety         'C11 H16 N1 O3 1+,Cl1 1-,C1 H4 O1'
_chemical_name_systematic        
'(3,4-Dihydroxyphenylacyl)trimethylammonium chloride methanol solvate'
_chemical_properties_biological  'nicotine-like activity'
_symmetry_cell_setting           monoclinic
_symmetry_space_group_name_H-M   'P 21/n'
_symmetry_Int_Tables_number      14
_space_group_name_Hall           '-P 2yn'
loop_
_symmetry_equiv_pos_site_id
_symmetry_equiv_pos_as_xyz
1 x,y,z
2 1/2-x,1/2+y,1/2-z
3 -x,-y,-z
4 1/2+x,1/2-y,1/2+z
_cell_length_a                   7.735(1)
_cell_length_b                   13.836(3)
_cell_length_c                   13.599(2)
_cell_angle_alpha                90
_cell_angle_beta                 101.77(1)
_cell_angle_gamma                90
_cell_volume                     1424.78
_cell_formula_units_Z            4
loop_
_atom_site_label
_atom_site_type_symbol
_atom_site_fract_x
_atom_site_fract_y
_atom_site_fract_z
Cl1 Cl 0.2685(2) 0.3040(1) 0.0672(1)
C1 C 0.2859(4) -0.1381(1) 0.0595(2)
C2 C 0.2594(4) -0.1280(1) 0.1574(2)
C3 C 0.2123(4) -0.0384(1) 0.1910(2)
C4 C 0.1918(4) 0.0411(1) 0.1267(2)
C5 C 0.2184(4) 0.0311(1) 0.0288(2)
C6 C 0.2654(4) -0.0585(1) -0.0048(2)
O1 O 0.1863(4) -0.0235(2) 0.2851(2)
O2 O 0.1412(4) 0.1258(2) 0.1631(2)
C7 C 0.2821(5) -0.0649(3) -0.1110(3)
O3 O 0.2750(4) 0.0063(2) -0.1642(2)
C8 C 0.3070(6) -0.1649(3) -0.1503(2)
N1 N 0.2933(5) -0.1741(2) -0.2626(2)
C9 C 0.1195(6) -0.1385(3) -0.3193(3)
C10 C 0.4395(6) -0.1216(3) -0.2974(3)
C11 C 0.3062(7) -0.2793(3) -0.2847(3)
H1 H 0.3183 -0.1997 0.0363
H2 H 0.2734 -0.1828 0.2016
H3 H 0.2043 0.0859 -0.0155
H4 H 0.1893 -0.0726 0.3249
H5 H 0.1721 0.1712 0.1298
H6 H 0.4221 -0.1871 -0.1179
H7 H 0.2188 -0.2061 -0.1321
H8 H 0.1067 -0.0701 -0.3111
H9 H 0.0268 -0.1719 -0.2960
H10 H 0.1127 -0.1528 -0.3891
H11 H 0.4404 -0.0531 -0.2862
H12 H 0.4268 -0.1342 -0.3680
H13 H 0.5484 -0.1490 -0.2618
H14 H 0.4179 -0.3033 -0.2488
H15 H 0.3001 -0.2858 -0.3556
H16 H 0.2125 -0.3158 -0.2659
C12 C -0.2235(8) 0.4152(4) 0.0195(4)
O4 O -0.1167(5) 0.3646(3) 0.0946(3)
H17 H -0.3433 0.4299 0.0233
H18 H -0.2226 0.3765 -0.0390
H19 H -0.1601 0.4742 0.0152
H20 H 0.0116 0.3382 0.0709
loop_
_geom_bond_atom_site_label_1
_geom_bond_atom_site_label_2
_geom_bond_site_symmetry_1
_geom_bond_site_symmetry_2
C1 C2 1_555 1_555
C2 C3 1_555 1_555
C3 C4 1_555 1_555
C4 C5 1_555 1_555
C5 C6 1_555 1_555
C6 C1 1_555 1_555
O1 C3 1_555 1_555
O2 C4 1_555 1_555
C7 C6 1_555 1_555
O3 C7 1_555 1_555
C8 C7 1_555 1_555
N1 C8 1_555 1_555
C9 N1 1_555 1_555
C10 N1 1_555 1_555
C11 N1 1_555 1_555
C12 O4 1_555 1_555
O4 H20 1_555 1_555
H1 C1 1_555 1_555
H2 C2 1_555 1_555
H3 C5 1_555 1_555
H4 O1 1_555 1_555
H5 O2 1_555 1_555
H6 C8 1_555 1_555
H7 C8 1_555 1_555
H8 C9 1_555 1_555
H9 C9 1_555 1_555
H10 C9 1_555 1_555
H11 C10 1_555 1_555
H12 C10 1_555 1_555
H13 C10 1_555 1_555
H14 C11 1_555 1_555
H15 C11 1_555 1_555
H16 C11 1_555 1_555
H17 C12 1_555 1_555
H18 C12 1_555 1_555
H19 C12 1_555 1_555

#END
