
#######################################################################
#
#                 Cambridge Crystallographic Data Centre
#                                CCDC 
#
#######################################################################
#
# If this CIF has been generated from an entry in the Cambridge 
# Structural Database, then it will include bibliographic, chemical, 
# crystal, experimental, refinement or atomic coordinate data resulting 
# from the CCDC's data processing and validation procedures.
#
#######################################################################

data_JAMMAL
_chemical_formula_moiety         'C8 H12 N1 O1 1+,I1 1-'
_chemical_name_systematic        '2-Hydroxy-2-phenylethylammonium iodide'
_symmetry_cell_setting           monoclinic
_symmetry_space_group_name_H-M   'P 21/a'
_symmetry_Int_Tables_number      14
_space_group_name_Hall           '-P 2yab'
loop_
_symmetry_equiv_pos_site_id
_symmetry_equiv_pos_as_xyz
1 x,y,z
2 1/2-x,1/2+y,-z
3 -x,-y,-z
4 1/2+x,1/2-y,z
_cell_length_a                   10.377(5)
_cell_length_b                   7.934(4)
_cell_length_c                   11.957(6)
_cell_angle_alpha                90
_cell_angle_beta                 90.76(4)
_cell_angle_gamma                90
_cell_volume                     984.347
_cell_formula_units_Z            4
loop_
_atom_site_label
_atom_site_type_symbol
_atom_site_fract_x
_atom_site_fract_y
_atom_site_fract_z
I1 I 0.0044(1) 0.2559(1) 0.1130(1)
C1 C 0.4580(7) 0.2048(9) -0.3834(5)
C2 C 0.4734(7) 0.2282(9) -0.4981(5)
C3 C 0.3993(7) 0.3482(9) -0.5549(5)
C4 C 0.3098(7) 0.4449(9) -0.4971(5)
C5 C 0.2944(7) 0.4214(9) -0.3824(5)
C6 C 0.3684(7) 0.3014(9) -0.3256(5)
C7 C 0.3450(12) 0.2624(12) -0.2037(11)
O1 O 0.2893(11) 0.3970(12) -0.1460(8)
C8 C 0.2562(12) 0.1114(14) -0.1941(9)
N1 N 0.2383(10) 0.0647(13) -0.0709(7)
H1 H 0.5089 0.1221 -0.3443
H2 H 0.5350 0.1617 -0.5379
H3 H 0.4100 0.3643 -0.6338
H4 H 0.2588 0.5275 -0.5362
H5 H 0.2328 0.4880 -0.3426
H6 H 0.4281 0.2403 -0.1707
H7 H 0.1936 0.4054 -0.1482
H8 H 0.1739 0.1383 -0.2271
H9 H 0.2931 0.0175 -0.2328
H10 H 0.1713 -0.0187 -0.0727
H11 H 0.2118 0.1584 -0.0258
H12 H 0.3155 0.0164 -0.0394
loop_
_geom_bond_atom_site_label_1
_geom_bond_atom_site_label_2
_geom_bond_site_symmetry_1
_geom_bond_site_symmetry_2
C1 C2 1_555 1_555
C2 C3 1_555 1_555
C3 C4 1_555 1_555
C4 C5 1_555 1_555
C5 C6 1_555 1_555
C6 C1 1_555 1_555
C7 C6 1_555 1_555
O1 C7 1_555 1_555
C8 C7 1_555 1_555
N1 C8 1_555 1_555
H1 C1 1_555 1_555
H2 C2 1_555 1_555
H3 C3 1_555 1_555
H4 C4 1_555 1_555
H5 C5 1_555 1_555
H6 C7 1_555 1_555
H7 O1 1_555 1_555
H8 C8 1_555 1_555
H9 C8 1_555 1_555
H10 N1 1_555 1_555
H11 N1 1_555 1_555
H12 N1 1_555 1_555

#END
