
#######################################################################
#
#                 Cambridge Crystallographic Data Centre
#                                CCDC 
#
#######################################################################
#
# If this CIF has been generated from an entry in the Cambridge 
# Structural Database, then it will include bibliographic, chemical, 
# crystal, experimental, refinement or atomic coordinate data resulting 
# from the CCDC's data processing and validation procedures.
#
#######################################################################

data_JAMMEP
_chemical_formula_moiety         'C11 H18 N1 O3 1+,Cl1 1-'
_chemical_name_systematic        
'2-(3,4-Dihydroxyphenyl)-2-hydroxyethyl-trimethylammonium chloride'
_chemical_properties_biological  'weak nicotine-like activity'
_symmetry_cell_setting           monoclinic
_symmetry_space_group_name_H-M   'P 21'
_symmetry_Int_Tables_number      4
_space_group_name_Hall           'P 2yb'
loop_
_symmetry_equiv_pos_site_id
_symmetry_equiv_pos_as_xyz
1 x,y,z
2 -x,1/2+y,-z
_cell_length_a                   6.660(1)
_cell_length_b                   15.617(2)
_cell_length_c                   6.079(1)
_cell_angle_alpha                90
_cell_angle_beta                 102.83(1)
_cell_angle_gamma                90
_cell_volume                     616.486
_cell_formula_units_Z            2
loop_
_atom_site_label
_atom_site_type_symbol
_atom_site_fract_x
_atom_site_fract_y
_atom_site_fract_z
Cl1 Cl 0.7717(1) 0.0480 0.5827(1)
C1 C 0.2075(2) 0.2372(1) -0.2064(2)
C2 C 0.3871(2) 0.1909(1) -0.2040(2)
C3 C 0.5405(2) 0.1861(1) -0.0065(2)
C4 C 0.5144(2) 0.2275(1) 0.1885(2)
C5 C 0.3347(2) 0.2738(1) 0.1860(2)
C6 C 0.1813(2) 0.2786(1) -0.0115(2)
O1 O 0.7204(3) 0.1429(2) 0.0086(4)
O2 O 0.6666(3) 0.2244(1) 0.3820(3)
C7 C -0.0193(4) 0.3267(2) -0.0159(5)
O3 O -0.0664(3) 0.3311(2) 0.1970(4)
C8 C -0.0021(3) 0.4185(2) -0.0949(4)
N1 N -0.2059(3) 0.4607(1) -0.2025(3)
C9 C -0.3630(5) 0.4547(3) -0.0655(8)
C10 C -0.1639(5) 0.5539(2) -0.2290(7)
C11 C -0.2850(7) 0.4252(4) -0.4296(7)
H1 H 0.1019 0.2405 -0.3423
H2 H 0.4051 0.1624 -0.3382
H3 H 0.3167 0.3023 0.3202
H4 H 0.7212 0.1059 -0.0578
H5 H 0.6085 0.2279 0.4810
H6 H -0.1258 0.2955 -0.1165
H7 H -0.0289 0.3743 0.2669
H8 H 0.0827 0.4182 -0.2037
H9 H 0.0629 0.4522 0.0333
H10 H -0.3944 0.3956 -0.0451
H11 H -0.4857 0.4840 -0.1409
H12 H -0.3106 0.4807 0.0790
H13 H -0.1137 0.5790 -0.0831
H14 H -0.2888 0.5820 -0.3031
H15 H -0.0623 0.5603 -0.3179
H16 H -0.3138 0.3653 -0.4180
H17 H -0.1836 0.4325 -0.5183
H18 H -0.4091 0.4546 -0.5005
loop_
_geom_bond_atom_site_label_1
_geom_bond_atom_site_label_2
_geom_bond_site_symmetry_1
_geom_bond_site_symmetry_2
C1 C2 1_555 1_555
C2 C3 1_555 1_555
C3 C4 1_555 1_555
C4 C5 1_555 1_555
C5 C6 1_555 1_555
C6 C1 1_555 1_555
O1 C3 1_555 1_555
O2 C4 1_555 1_555
C7 C6 1_555 1_555
O3 C7 1_555 1_555
C8 C7 1_555 1_555
N1 C8 1_555 1_555
C9 N1 1_555 1_555
C10 N1 1_555 1_555
C11 N1 1_555 1_555
H1 C1 1_555 1_555
H2 C2 1_555 1_555
H3 C5 1_555 1_555
H4 O1 1_555 1_555
H5 O2 1_555 1_555
H6 C7 1_555 1_555
H7 O3 1_555 1_555
H8 C8 1_555 1_555
H9 C8 1_555 1_555
H10 C9 1_555 1_555
H11 C9 1_555 1_555
H12 C9 1_555 1_555
H13 C10 1_555 1_555
H14 C10 1_555 1_555
H15 C10 1_555 1_555
H16 C11 1_555 1_555
H17 C11 1_555 1_555
H18 C11 1_555 1_555

#END
