
#######################################################################
#
#                 Cambridge Crystallographic Data Centre
#                                CCDC 
#
#######################################################################
#
# If this CIF has been generated from an entry in the Cambridge 
# Structural Database, then it will include bibliographic, chemical, 
# crystal, experimental, refinement or atomic coordinate data resulting 
# from the CCDC's data processing and validation procedures.
#
#######################################################################

data_JAMNER
_chemical_formula_moiety         'C22 H20 N2 O6,8(H2 O1)'
_chemical_name_systematic        
"1,4-bis(2'-Picolyloxy)benzene-N,N'-diacetate octahydrate"
_symmetry_cell_setting           triclinic
_symmetry_space_group_name_H-M   'P -1'
_symmetry_Int_Tables_number      2
_space_group_name_Hall           '-P 1'
loop_
_symmetry_equiv_pos_site_id
_symmetry_equiv_pos_as_xyz
1 x,y,z
2 -x,-y,-z
_cell_length_a                   9.862(4)
_cell_length_b                   11.981(4)
_cell_length_c                   12.063(4)
_cell_angle_alpha                75.592(8)
_cell_angle_beta                 80.940(8)
_cell_angle_gamma                89.251(8)
_cell_volume                     1362.76
_exptl_crystal_colour            colorless
_exptl_crystal_description       block
_cell_formula_units_Z            2
loop_
_atom_site_label
_atom_site_type_symbol
_atom_site_fract_x
_atom_site_fract_y
_atom_site_fract_z
O1 O 0.0520(2) 0.0869(2) 0.2200(2)
O2 O -0.0267(3) -0.0592(2) 0.3699(2)
O3 O 0.1851(2) 0.37803(17) 0.3830(2)
N1 N 0.2859(2) 0.1155(2) 0.30455(19)
C1 C 0.0583(3) 0.0188(3) 0.3148(3)
C2 C 0.1813(3) 0.0264(2) 0.3735(3)
H1 H 0.1499 0.0435 0.4477
H2 H 0.2241 -0.0481 0.3885
C3 C 0.2796(3) 0.2262(2) 0.3120(2)
C4 C 0.3761(3) 0.3047(3) 0.2415(3)
H3 H 0.3734 0.3813 0.2453
C5 C 0.4771(4) 0.2704(3) 0.1650(3)
H4 H 0.5429 0.3236 0.1177
C6 C 0.4802(4) 0.1597(3) 0.1591(3)
H5 H 0.5476 0.1363 0.1071
C7 C 0.3849(3) 0.0822(3) 0.2291(3)
H6 H 0.3877 0.0056 0.2252
C8 C 0.1685(3) 0.2588(2) 0.3978(3)
H7 H 0.0786 0.2405 0.3829
H8 H 0.1777 0.2177 0.4763
C9 C 0.0884(3) 0.4348(2) 0.4440(2)
C10 C -0.0189(3) 0.3808(2) 0.5270(2)
H9 H -0.0314 0.3012 0.5451
C11 C 0.1074(3) 0.5530(2) 0.4172(2)
H10 H 0.1804 0.5883 0.3613
C11A C -0.1074(3) 0.4470(2) 0.5828(2)
C9A C -0.0884(3) 0.5652(2) 0.5560(2)
O3A O -0.1851(2) 0.62197(17) 0.6170(2)
C8A C -0.1685(3) 0.7412(2) 0.6022(3)
C3A C -0.2796(3) 0.7738(2) 0.6880(2)
N1A N -0.2859(2) 0.8845(2) 0.69545(19)
C2A C -0.1813(3) 0.9736(2) 0.6265(3)
C1A C -0.0583(3) 0.9812(3) 0.6852(3)
O1A O -0.0520(2) 0.9131(2) 0.7800(2)
O2A O 0.0267(3) 1.0592(2) 0.6301(2)
H1A H -0.1499 0.9565 0.5523
H2A H -0.2241 1.0481 0.6115
C7A C -0.3849(3) 0.9178(3) 0.7709(3)
C6A C -0.4802(4) 0.8403(3) 0.8409(3)
C5A C -0.4771(4) 0.7296(3) 0.8350(3)
C4A C -0.3761(3) 0.6953(3) 0.7585(3)
H3A H -0.3734 0.6187 0.7547
H4A H -0.5429 0.6764 0.8823
H5A H -0.5476 0.8637 0.8929
H6A H -0.3877 0.9944 0.7748
H7A H -0.0786 0.7595 0.6171
H8A H -0.1777 0.7823 0.5237
C10A C 0.0189(3) 0.6192(2) 0.4730(2)
H9A H 0.0314 0.6988 0.4549
H10A H -0.1804 0.4117 0.6387
O4 O 0.4549(2) 0.4503(2) 0.77500(18)
O5 O 0.5294(2) 0.3705(2) 0.63003(19)
O6 O 0.3205(2) 0.82099(17) 0.6205(2)
N2 N 0.2181(2) 0.5212(2) 0.69367(19)
C12 C 0.4471(3) 0.4256(2) 0.6835(2)
C13 C 0.3229(3) 0.4656(3) 0.6240(2)
H11 H 0.3542 0.5199 0.5501
H12 H 0.2806 0.3997 0.6083
C14 C 0.2263(3) 0.6350(2) 0.6892(2)
C15 C 0.1315(3) 0.6789(3) 0.7621(3)
H13 H 0.1361 0.7568 0.7608
C16 C 0.0295(3) 0.6084(3) 0.8375(3)
H14 H -0.0341 0.6385 0.8872
C17 C 0.0221(3) 0.4940(3) 0.8386(3)
H15 H -0.0475 0.4461 0.8877
C18 C 0.1181(3) 0.4516(3) 0.7671(3)
H16 H 0.1150 0.3737 0.7686
C19 C 0.3365(3) 0.7094(2) 0.6035(3)
H17 H 0.4267 0.6813 0.6171
H18 H 0.3261 0.7092 0.5249
C20 C 0.4138(3) 0.9072(2) 0.5570(2)
C21 C 0.5184(3) 0.8950(2) 0.4708(2)
H19 H 0.5311 0.8248 0.4513
C22 C 0.3959(3) 1.0110(2) 0.5863(2)
H20 H 0.3254 1.0180 0.6450
C22A C 0.6041(3) 0.9890(2) 0.4137(2)
C20A C 0.5862(3) 1.0928(2) 0.4430(2)
O6A O 0.6795(2) 1.17901(17) 0.3795(2)
C19A C 0.6635(3) 1.2906(2) 0.3965(3)
C14A C 0.7737(3) 1.3650(2) 0.3108(2)
N2A N 0.7819(2) 1.4788(2) 0.30633(19)
C13A C 0.6771(3) 1.5344(3) 0.3760(2)
C12A C 0.5529(3) 1.5744(2) 0.3165(2)
O4A O 0.5451(2) 1.5497(2) 0.22500(18)
O5A O 0.4706(2) 1.6295(2) 0.36997(19)
H11A H 0.6458 1.4801 0.4499
H12A H 0.7194 1.6003 0.3917
C18A C 0.8819(3) 1.5484(3) 0.2329(3)
C17A C 0.9779(3) 1.5060(3) 0.1614(3)
C16A C 0.9705(3) 1.3916(3) 0.1625(3)
C15A C 0.8685(3) 1.3211(3) 0.2379(3)
H13A H 0.8639 1.2432 0.2392
H14A H 1.0341 1.3615 0.1128
H15A H 1.0475 1.5539 0.1123
H16A H 0.8850 1.6263 0.2314
H17A H 0.5733 1.3187 0.3829
H18A H 0.6739 1.2908 0.4751
C21A C 0.4816(3) 1.1050(2) 0.5292(2)
H19A H 0.4689 1.1752 0.5487
H20A H 0.6746 0.9820 0.3550
O7 O 0.2811(3) 0.4388(2) 0.9844(2)
H21 H 0.3420 0.4448 0.9172
H22 H 0.3019 0.4918 1.0230
O8 O 0.6694(3) 0.3971(2) 0.9018(2)
H23 H 0.7308 0.3430 0.8845
H24 H 0.6069 0.4092 0.8513
O9 O -0.1366(3) 0.2185(3) 0.8685(3)
H25 H -0.0532 0.2013 0.8315
H26 H -0.1537 0.1723 0.9426
O10 O 0.2000(3) 0.2117(3) 0.0075(2)
H27 H 0.1621 0.1705 0.0804
H28 H 0.2160 0.2849 0.0144
O11 O -0.1408(4) -0.1987(2) 0.2697(3)
H29 H -0.1027 -0.1407 0.2933
H30 H -0.2142 -0.1711 0.2335
O12 O 0.3539(4) 0.1063(3) -0.1372(3)
H31 H 0.3084 0.1351 -0.0782
H32 H 0.4341 0.0993 -0.1065
O13 O -0.1647(3) 0.0903(3) 0.0936(3)
H33 H -0.2202 0.0263 0.1284
H34 H -0.0859 0.0697 0.1245
O14 O 0.6415(4) 0.1830(2) 0.7552(3)
H35 H 0.6172 0.2507 0.7079
H36 H 0.7213 0.1941 0.7816
loop_
_geom_bond_atom_site_label_1
_geom_bond_atom_site_label_2
_geom_bond_site_symmetry_1
_geom_bond_site_symmetry_2
O1 C1 1_555 1_555
O2 C1 1_555 1_555
O3 C8 1_555 1_555
N1 C2 1_555 1_555
C1 C2 1_555 1_555
C2 H1 1_555 1_555
H2 C2 1_555 1_555
C3 N1 1_555 1_555
C4 C3 1_555 1_555
H3 C4 1_555 1_555
C5 C4 1_555 1_555
H4 C5 1_555 1_555
C6 C5 1_555 1_555
H5 C6 1_555 1_555
C7 N1 1_555 1_555
H6 C7 1_555 1_555
C8 C3 1_555 1_555
H7 C8 1_555 1_555
H8 C8 1_555 1_555
C9 O3 1_555 1_555
C10 C9 1_555 1_555
H9 C10 1_555 1_555
C11 C9 1_555 1_555
H10 C11 1_555 1_555
O4 C12 1_555 1_555
O5 C12 1_555 1_555
O6 C19 1_555 1_555
N2 C13 1_555 1_555
C12 C13 1_555 1_555
C13 H11 1_555 1_555
H12 C13 1_555 1_555
C14 N2 1_555 1_555
C15 C14 1_555 1_555
H13 C15 1_555 1_555
C16 C15 1_555 1_555
H14 C16 1_555 1_555
C17 C16 1_555 1_555
H15 C17 1_555 1_555
C18 N2 1_555 1_555
H16 C18 1_555 1_555
C19 C14 1_555 1_555
H17 C19 1_555 1_555
H18 C19 1_555 1_555
C20 O6 1_555 1_555
C21 C20 1_555 1_555
H19 C21 1_555 1_555
C22 C20 1_555 1_555
H20 C22 1_555 1_555
O7 H21 1_555 1_555
H22 O7 1_555 1_555
O8 H23 1_555 1_555
H24 O8 1_555 1_555
O9 H25 1_555 1_555
H26 O9 1_555 1_555
O10 H27 1_555 1_555
H28 O10 1_555 1_555
O11 H29 1_555 1_555
H30 O11 1_555 1_555
O12 H31 1_555 1_555
H32 O12 1_555 1_555
O13 H33 1_555 1_555
H34 O13 1_555 1_555
O14 H35 1_555 1_555
H36 O14 1_555 1_555
C11A C10 1_555 1_555
C9A C11A 1_555 1_555
O3A C9A 1_555 1_555
C8A O3A 1_555 1_555
C3A C8A 1_555 1_555
N1A C3A 1_555 1_555
C2A N1A 1_555 1_555
C1A C2A 1_555 1_555
O1A C1A 1_555 1_555
O2A C1A 1_555 1_555
H1A C2A 1_555 1_555
H2A C2A 1_555 1_555
C7A N1A 1_555 1_555
C6A C7A 1_555 1_555
C5A C6A 1_555 1_555
C4A C3A 1_555 1_555
H3A C4A 1_555 1_555
H4A C5A 1_555 1_555
H5A C6A 1_555 1_555
H6A C7A 1_555 1_555
H7A C8A 1_555 1_555
H8A C8A 1_555 1_555
C10A C11 1_555 1_555
H9A C10A 1_555 1_555
H10A C11A 1_555 1_555
C22A C21 1_555 1_555
C20A C22A 1_555 1_555
O6A C20A 1_555 1_555
C19A O6A 1_555 1_555
C14A C19A 1_555 1_555
N2A C14A 1_555 1_555
C13A N2A 1_555 1_555
C12A C13A 1_555 1_555
O4A C12A 1_555 1_555
O5A C12A 1_555 1_555
H11A C13A 1_555 1_555
H12A C13A 1_555 1_555
C18A N2A 1_555 1_555
C17A C18A 1_555 1_555
C16A C17A 1_555 1_555
C15A C14A 1_555 1_555
H13A C15A 1_555 1_555
H14A C16A 1_555 1_555
H15A C17A 1_555 1_555
H16A C18A 1_555 1_555
H17A C19A 1_555 1_555
H18A C19A 1_555 1_555
C21A C22 1_555 1_555
H19A C21A 1_555 1_555
H20A C22A 1_555 1_555
C6 C7 1_555 1_555
C17 C18 1_555 1_555
C9A C10A 1_555 1_555
C5A C4A 1_555 1_555
C20A C21A 1_555 1_555
C16A C15A 1_555 1_555

#END
