
#######################################################################
#
#                 Cambridge Crystallographic Data Centre
#                                CCDC 
#
#######################################################################
#
# If this CIF has been generated from an entry in the Cambridge 
# Structural Database, then it will include bibliographic, chemical, 
# crystal, experimental, refinement or atomic coordinate data resulting 
# from the CCDC's data processing and validation procedures.
#
#######################################################################

data_JAMQOE
_chemical_formula_moiety         'C16 H22 N4 O4'
_chemical_name_systematic        1,2,3,4-tetrakis(2-Cyanoethoxy)butane
_symmetry_cell_setting           monoclinic
_symmetry_space_group_name_H-M   'P 21/c'
_symmetry_Int_Tables_number      14
_space_group_name_Hall           '-P 2ybc'
loop_
_symmetry_equiv_pos_site_id
_symmetry_equiv_pos_as_xyz
1 x,y,z
2 x,1/2-y,1/2+z
3 -x,-y,-z
4 -x,1/2+y,1/2-z
_cell_length_a                   9.2279(11)
_cell_length_b                   12.2444(14)
_cell_length_c                   8.2086(10)
_cell_angle_alpha                90
_cell_angle_beta                 98.398(2)
_cell_angle_gamma                90
_cell_volume                     917.545
_exptl_crystal_colour            colorless
_exptl_crystal_description       block
_cell_formula_units_Z            2
loop_
_atom_site_label
_atom_site_type_symbol
_atom_site_fract_x
_atom_site_fract_y
_atom_site_fract_z
O1 O 0.7477(3) 0.4616(2) -0.0860(3)
O2 O 0.5922(3) 0.6244(2) 0.0716(3)
C1 C 0.5594(4) 0.5102(3) 0.0730(4)
H1 H 0.5202 0.4929 0.1747
C2 C 0.6600(4) 0.7903(3) 0.2101(5)
H2 H 0.5830 0.8270 0.1371
H3 H 0.6691 0.8262 0.3164
C3 C 0.7972(5) 0.8014(3) 0.1442(5)
C4 C 0.6953(4) 0.4423(3) 0.0664(5)
H4 H 0.7702 0.4617 0.1573
H5 H 0.6725 0.3654 0.0762
C5 C 0.8996(5) 0.4107(4) -0.2825(5)
H6 H 0.9421 0.4832 -0.2802
H7 H 0.9738 0.3589 -0.3051
C6 C 0.6168(5) 0.6728(4) 0.2296(5)
H8 H 0.6942 0.6343 0.2993
H9 H 0.5284 0.6691 0.2805
C7 C 0.7748(6) 0.4051(4) -0.4141(6)
C8 C 0.8555(5) 0.3857(4) -0.1168(6)
H10 H 0.8167 0.3120 -0.1162
H11 H 0.9400 0.3908 -0.0317
N1 N 0.9032(5) 0.8104(4) 0.0903(6)
N2 N 0.6787(6) 0.4016(5) -0.5168(6)
C1B C 0.4406(4) 0.4898(3) -0.0730(4)
O2B O 0.4078(3) 0.3756(2) -0.0716(3)
C6B C 0.3832(5) 0.3272(4) -0.2296(5)
C2B C 0.3400(4) 0.2097(3) -0.2101(5)
H2B H 0.4170 0.1730 -0.1371
H3B H 0.3309 0.1738 -0.3164
C3B C 0.2028(5) 0.1986(3) -0.1442(5)
N1B N 0.0968(5) 0.1896(4) -0.0903(6)
H8B H 0.3058 0.3657 -0.2993
H9B H 0.4716 0.3309 -0.2805
H1B H 0.4798 0.5071 -0.1747
C4B C 0.3047(4) 0.5577(3) -0.0664(5)
O1B O 0.2523(3) 0.5384(2) 0.0860(3)
C8B C 0.1445(5) 0.6143(4) 0.1168(6)
C5B C 0.1004(5) 0.5893(4) 0.2825(5)
H6B H 0.0579 0.5168 0.2802
H7B H 0.0262 0.6411 0.3051
C7B C 0.2252(6) 0.5949(4) 0.4141(6)
N2B N 0.3213(6) 0.5984(5) 0.5168(6)
H10B H 0.1833 0.6880 0.1162
H11B H 0.0600 0.6092 0.0317
H4B H 0.2298 0.5383 -0.1573
H5B H 0.3275 0.6346 -0.0762
loop_
_geom_bond_atom_site_label_1
_geom_bond_atom_site_label_2
_geom_bond_site_symmetry_1
_geom_bond_site_symmetry_2
O1 C4 1_555 1_555
O2 C1 1_555 1_555
C1 H1 1_555 1_555
C2 H2 1_555 1_555
H3 C2 1_555 1_555
C3 C2 1_555 1_555
C4 C1 1_555 1_555
H4 C4 1_555 1_555
H5 C4 1_555 1_555
C5 H6 1_555 1_555
H7 C5 1_555 1_555
C6 O2 1_555 1_555
H8 C6 1_555 1_555
H9 C6 1_555 1_555
C7 C5 1_555 1_555
C8 O1 1_555 1_555
H10 C8 1_555 1_555
H11 C8 1_555 1_555
N1 C3 1_555 1_555
N2 C7 1_555 1_555
C1B C1 1_555 1_555
O2B C1B 1_555 1_555
C6B O2B 1_555 1_555
C2B C6B 1_555 1_555
H2B C2B 1_555 1_555
H3B C2B 1_555 1_555
C3B C2B 1_555 1_555
N1B C3B 1_555 1_555
H8B C6B 1_555 1_555
H9B C6B 1_555 1_555
H1B C1B 1_555 1_555
C4B C1B 1_555 1_555
O1B C4B 1_555 1_555
C8B O1B 1_555 1_555
C5B C8B 1_555 1_555
H6B C5B 1_555 1_555
H7B C5B 1_555 1_555
C7B C5B 1_555 1_555
N2B C7B 1_555 1_555
H10B C8B 1_555 1_555
H11B C8B 1_555 1_555
H4B C4B 1_555 1_555
H5B C4B 1_555 1_555
C2 C6 1_555 1_555
C5 C8 1_555 1_555

#END
