
#######################################################################
#
#                 Cambridge Crystallographic Data Centre
#                                CCDC 
#
#######################################################################
#
# If this CIF has been generated from an entry in the Cambridge 
# Structural Database, then it will include bibliographic, chemical, 
# crystal, experimental, refinement or atomic coordinate data resulting 
# from the CCDC's data processing and validation procedures.
#
#######################################################################

data_JAMTAT
_chemical_formula_moiety         
'C9 H8 S2 Se4 1+,2(C9 H8 S2 Se4),F6 P1 1-,C6 H5 Cl1'
_chemical_name_systematic        
"tris(4',5'-Dimethyl-4,5-methylenedithiotetraselenafulvalene) hexafluorophosphate chlorobenzene solvate"
_symmetry_cell_setting           monoclinic
_symmetry_space_group_name_H-M   'P 21/c'
_symmetry_Int_Tables_number      14
_space_group_name_Hall           '-P 2ybc'
loop_
_symmetry_equiv_pos_site_id
_symmetry_equiv_pos_as_xyz
1 x,y,z
2 x,1/2-y,1/2+z
3 -x,-y,-z
4 -x,1/2+y,1/2-z
_cell_length_a                   8.366(3)
_cell_length_b                   34.071(3)
_cell_length_c                   17.213(3)
_cell_angle_alpha                90
_cell_angle_beta                 100.70(2)
_cell_angle_gamma                90
_cell_volume                     4821.05
_exptl_crystal_colour            black
_exptl_crystal_description       plate
_cell_formula_units_Z            4
loop_
_atom_site_label
_atom_site_type_symbol
_atom_site_fract_x
_atom_site_fract_y
_atom_site_fract_z
Se1 Se 0.2139(2) 0.04528(3) 0.96774(7)
Se2 Se 0.4166(2) 0.03936(3) 0.82759(7)
Se3 Se 0.4259(2) -0.06001(3) 0.84876(7)
Se4 Se 0.2261(2) -0.05328(3) 0.98639(6)
S1 S 0.2330(5) 0.13758(9) 0.9535(2)
S2 S 0.4184(4) 0.13204(9) 0.8224(2)
C1 C 0.318(1) 0.0127(3) 0.9032(6)
C2 C 0.365(1) 0.0880(3) 0.8641(7)
C3 C 0.281(1) 0.0912(3) 0.9233(6)
C4 C 0.319(2) 0.1633(4) 0.881(1)
C5 C 0.321(1) -0.0269(3) 0.9116(6)
C6 C 0.282(1) -0.1043(3) 0.9531(6)
C7 C 0.368(1) -0.1066(3) 0.8957(6)
C8 C 0.420(1) -0.1445(3) 0.8635(7)
C9 C 0.221(2) -0.1367(3) 0.9977(7)
H1 H 0.3963 0.1822 0.9076
H2 H 0.2346 0.1775 0.8476
H3 H 0.4850 -0.1393 0.8228
H4 H 0.3277 -0.1592 0.8390
H5 H 0.4848 -0.1599 0.9031
H6 H 0.3106 -0.1509 1.0257
H7 H 0.1606 -0.1257 1.0348
H8 H 0.1525 -0.1533 0.9624
Se5 Se 0.0535(2) -0.01813(3) 0.69686(7)
Se6 Se -0.1589(2) -0.00893(3) 0.83363(7)
Se7 Se -0.1656(2) 0.08933(3) 0.80729(6)
Se8 Se 0.0407(2) 0.08084(3) 0.67125(7)
S3 S 0.0210(5) -0.10994(9) 0.7141(2)
S4 S -0.1720(4) -0.10131(9) 0.8423(2)
C10 C -0.057(1) 0.0164(3) 0.7568(5)
C11 C -0.109(1) -0.0587(3) 0.8001(6)
C12 C -0.021(1) -0.0630(3) 0.7432(6)
C13 C -0.062(2) -0.1337(4) 0.7889(10)
C14 C -0.060(1) 0.0553(3) 0.7468(6)
C15 C -0.012(1) 0.1318(3) 0.7029(6)
C16 C -0.104(1) 0.1358(3) 0.7592(6)
C17 C -0.154(2) 0.1731(3) 0.7924(7)
C18 C 0.047(2) 0.1646(3) 0.6583(7)
H9 H -0.1334 -0.1554 0.7662
H10 H 0.0251 -0.1470 0.8264
H11 H -0.2199 0.1678 0.8306
H12 H -0.2177 0.1885 0.7505
H13 H -0.0624 0.1881 0.8157
H14 H -0.0432 0.1790 0.6300
H15 H 0.1126 0.1825 0.6944
H16 H 0.1109 0.1551 0.6223
Se9 Se 0.5094(2) -0.02031(3) 0.64157(6)
Se10 Se 0.2116(1) -0.02548(3) 0.49440(6)
Se11 Se 0.2159(2) 0.07416(3) 0.48018(6)
Se12 Se 0.5066(2) 0.07758(3) 0.62674(7)
S5 S 0.4868(5) -0.11187(9) 0.6586(2)
S6 S 0.2103(4) -0.11712(8) 0.5215(2)
C19 C 0.356(1) 0.0069(3) 0.5636(5)
C20 C 0.286(1) -0.0715(3) 0.5488(6)
C21 C 0.413(1) -0.0685(3) 0.6110(6)
C22 C 0.346(2) -0.1433(4) 0.5961(9)
C23 C 0.359(1) 0.0459(3) 0.5573(6)
C24 C 0.427(1) 0.1253(3) 0.5786(6)
C25 C 0.300(1) 0.1241(3) 0.5162(6)
C26 C 0.226(1) 0.1585(3) 0.4699(6)
C27 C 0.513(2) 0.1625(3) 0.6126(6)
H17 H 0.2829 -0.1577 0.6284
H18 H 0.4051 -0.1623 0.5714
H19 H 0.1898 0.1777 0.5014
H20 H 0.3078 0.1704 0.4433
H21 H 0.1389 0.1501 0.4294
H22 H 0.4335 0.1791 0.6307
H23 H 0.5961 0.1564 0.6544
H24 H 0.5526 0.1760 0.5718
Cl1 Cl -0.897(1) 0.2425(2) 0.9426(6)
C28 C -1.048(4) 0.2412(6) 1.012(2)
C29 C -1.190(3) 0.2503(5) 0.971(1)
C30 C -1.299(4) 0.2481(7) 1.033(2)
C31 C -1.249(2) 0.2436(5) 1.111(1)
C32 C -1.118(5) 0.2358(6) 1.130(2)
C33 C -0.971(3) 0.2348(5) 1.081(2)
H25 H -1.2205 0.2583 0.9158
H26 H -1.4148 0.2474 1.0133
H27 H -1.3301 0.2507 1.1413
H28 H -1.1094 0.2268 1.1881
H29 H -0.8614 0.2322 1.1038
P1 P -0.5791(5) 0.26451(9) 0.7729(2)
F1 F -0.647(2) 0.3051(3) 0.760(1)
F2 F -0.589(2) 0.2597(5) 0.6843(6)
F3 F -0.505(2) 0.2237(3) 0.790(1)
F4 F -0.568(1) 0.2685(5) 0.8639(6)
F5 F -0.404(1) 0.2820(4) 0.7793(6)
F6 F -0.754(1) 0.2482(4) 0.7688(6)
loop_
_geom_bond_atom_site_label_1
_geom_bond_atom_site_label_2
_geom_bond_site_symmetry_1
_geom_bond_site_symmetry_2
Se1 C1 1_555 1_555
Se2 C1 1_555 1_555
Se3 C5 1_555 1_555
Se4 C5 1_555 1_555
Se5 C10 1_555 1_555
Se6 C10 1_555 1_555
Se7 C14 1_555 1_555
Se8 C14 1_555 1_555
Se9 C19 1_555 1_555
Se10 C19 1_555 1_555
Se11 C23 1_555 1_555
Se12 C23 1_555 1_555
Cl1 C28 1_555 1_555
S1 C3 1_555 1_555
S2 C2 1_555 1_555
S3 C12 1_555 1_555
S4 C11 1_555 1_555
S5 C21 1_555 1_555
S6 C20 1_555 1_555
P1 F1 1_555 1_555
F2 P1 1_555 1_555
F3 P1 1_555 1_555
F4 P1 1_555 1_555
F5 P1 1_555 1_555
F6 P1 1_555 1_555
C1 C5 1_555 1_555
C2 Se2 1_555 1_555
C3 Se1 1_555 1_555
C4 S1 1_555 1_555
C6 Se4 1_555 1_555
C7 Se3 1_555 1_555
C8 C7 1_555 1_555
C9 C6 1_555 1_555
C10 C14 1_555 1_555
C11 Se6 1_555 1_555
C12 Se5 1_555 1_555
C13 S3 1_555 1_555
C15 Se8 1_555 1_555
C16 Se7 1_555 1_555
C17 C16 1_555 1_555
C18 C15 1_555 1_555
C19 C23 1_555 1_555
C20 Se10 1_555 1_555
C21 Se9 1_555 1_555
C22 S5 1_555 1_555
C24 Se12 1_555 1_555
C25 Se11 1_555 1_555
C26 C25 1_555 1_555
C27 C24 1_555 1_555
C28 C29 1_555 1_555
C29 C30 1_555 1_555
C30 C31 1_555 1_555
C31 C32 1_555 1_555
C32 C33 1_555 1_555
C33 C28 1_555 1_555
H1 C4 1_555 1_555
H2 C4 1_555 1_555
H3 C8 1_555 1_555
H4 C8 1_555 1_555
H5 C8 1_555 1_555
H6 C9 1_555 1_555
H7 C9 1_555 1_555
H8 C9 1_555 1_555
H9 C13 1_555 1_555
H10 C13 1_555 1_555
H11 C17 1_555 1_555
H12 C17 1_555 1_555
H13 C17 1_555 1_555
H14 C18 1_555 1_555
H15 C18 1_555 1_555
H16 C18 1_555 1_555
H17 C22 1_555 1_555
H18 C22 1_555 1_555
H19 C26 1_555 1_555
H20 C26 1_555 1_555
H21 C26 1_555 1_555
H22 C27 1_555 1_555
H23 C27 1_555 1_555
H24 C27 1_555 1_555
H25 C29 1_555 1_555
H26 C30 1_555 1_555
H27 C31 1_555 1_555
H28 C32 1_555 1_555
H29 C33 1_555 1_555
S2 C4 1_555 1_555
S4 C13 1_555 1_555
S6 C22 1_555 1_555
C2 C3 1_555 1_555
C6 C7 1_555 1_555
C11 C12 1_555 1_555
C15 C16 1_555 1_555
C20 C21 1_555 1_555
C24 C25 1_555 1_555

#END
