
#######################################################################
#
#                 Cambridge Crystallographic Data Centre
#                                CCDC 
#
#######################################################################
#
# If this CIF has been generated from an entry in the Cambridge 
# Structural Database, then it will include bibliographic, chemical, 
# crystal, experimental, refinement or atomic coordinate data resulting 
# from the CCDC's data processing and validation procedures.
#
#######################################################################

data_JAMVOI20
_chemical_formula_moiety         'C16 H26 O4'
_chemical_name_systematic        
(4aS,5aR,7aS,11aR,12aS,14aR)-Perhydropyrano(3,2-b)pyrano(2',3':6,7)oxepano(2,3-f)oxepane
_symmetry_cell_setting           monoclinic
_symmetry_space_group_name_H-M   'P 21/n'
_symmetry_Int_Tables_number      14
_space_group_name_Hall           '-P 2yn'
loop_
_symmetry_equiv_pos_site_id
_symmetry_equiv_pos_as_xyz
1 x,y,z
2 1/2-x,1/2+y,1/2-z
3 -x,-y,-z
4 1/2+x,1/2-y,1/2+z
_cell_length_a                   4.726(1)
_cell_length_b                   9.125(2)
_cell_length_c                   16.805(2)
_cell_angle_alpha                90
_cell_angle_beta                 92.42(2)
_cell_angle_gamma                90
_cell_volume                     724.065
_exptl_crystal_colour            colorless
_chemical_melting_point          90-91deg.C
_cell_formula_units_Z            2
loop_
_atom_site_label
_atom_site_type_symbol
_atom_site_fract_x
_atom_site_fract_y
_atom_site_fract_z
C1 C 0.4067(8) 0.4879(3) 0.8256(2)
C2 C 0.4588(7) 0.3752(3) 0.7622(2)
C3 C 0.6210(7) 0.2451(3) 0.7995(2)
C4 C 0.4632(6) 0.1890(3) 0.8706(2)
C5 C 0.4213(6) 0.3137(3) 0.9299(2)
C6 C 0.2648(7) 0.2679(3) 1.0026(2)
C7 C 0.4505(8) 0.1826(3) 1.0629(2)
C8 C 0.5299(7) 0.0227(3) 1.0432(2)
O1 O 0.2577(5) 0.4271(2) 0.8903(1)
O2 O 0.6285(4) 0.0730(2) 0.9063(1)
H1 H 0.2804 0.1526 0.8550
H2 H 0.6091 0.3469 0.9468
H3 H 0.7295 0.0134 1.0536
H4 H 0.3018 0.5659 0.8015
H5 H 0.5865 0.5249 0.8452
H6 H 0.5701 0.4172 0.7220
H7 H 0.2861 0.3415 0.7401
H8 H 0.8086 0.2765 0.8168
H9 H 0.6390 0.1701 0.7608
H10 H 0.1065 0.2060 0.9862
H11 H 0.1889 0.3520 1.0284
H12 H 0.3657 0.1835 1.1120
H13 H 0.6276 0.2363 1.0673
C8B C 0.4701(7) -0.0227(3) 0.9568(2)
O2B O 0.3715(4) -0.0730(2) 1.0937(1)
C7B C 0.5495(8) -0.1826(3) 0.9371(2)
H3B H 0.2705 -0.0134 0.9464
C4B C 0.5368(6) -0.1890(3) 1.1294(2)
C6B C 0.7352(7) -0.2679(3) 0.9974(2)
H12B H 0.6343 -0.1835 0.8880
H13B H 0.3724 -0.2363 0.9327
C3B C 0.3790(7) -0.2451(3) 1.2005(2)
C5B C 0.5787(6) -0.3137(3) 1.0701(2)
H1B H 0.7196 -0.1526 1.1450
H10B H 0.8935 -0.2060 1.0138
H11B H 0.8111 -0.3520 0.9716
C2B C 0.5412(7) -0.3752(3) 1.2378(2)
H8B H 0.1914 -0.2765 1.1832
H9B H 0.3610 -0.1701 1.2392
O1B O 0.7423(5) -0.4271(2) 1.1097(1)
H2B H 0.3909 -0.3469 1.0532
C1B C 0.5933(8) -0.4879(3) 1.1744(2)
H6B H 0.4299 -0.4172 1.2780
H7B H 0.7139 -0.3415 1.2599
H4B H 0.6982 -0.5659 1.1985
H5B H 0.4135 -0.5249 1.1548
loop_
_geom_bond_atom_site_label_1
_geom_bond_atom_site_label_2
_geom_bond_site_symmetry_1
_geom_bond_site_symmetry_2
C1 C2 1_555 1_555
C2 C3 1_555 1_555
C3 C4 1_555 1_555
C4 C5 1_555 1_555
C5 C6 1_555 1_555
C6 C7 1_555 1_555
C7 C8 1_555 1_555
C8 H3 1_555 1_555
O1 C1 1_555 1_555
O2 C4 1_555 1_555
H1 C4 1_555 1_555
H2 C5 1_555 1_555
H4 C1 1_555 1_555
H5 C1 1_555 1_555
H6 C2 1_555 1_555
H7 C2 1_555 1_555
H8 C3 1_555 1_555
H9 C3 1_555 1_555
H10 C6 1_555 1_555
H11 C6 1_555 1_555
H12 C7 1_555 1_555
H13 C7 1_555 1_555
C8B C8 1_555 1_555
O2B C8 1_555 1_555
C7B C8B 1_555 1_555
H3B C8B 1_555 1_555
C4B O2B 1_555 1_555
C6B C7B 1_555 1_555
H12B C7B 1_555 1_555
H13B C7B 1_555 1_555
C3B C4B 1_555 1_555
C5B C4B 1_555 1_555
H1B C4B 1_555 1_555
H10B C6B 1_555 1_555
H11B C6B 1_555 1_555
C2B C3B 1_555 1_555
H8B C3B 1_555 1_555
H9B C3B 1_555 1_555
O1B C5B 1_555 1_555
H2B C5B 1_555 1_555
C1B C2B 1_555 1_555
H6B C2B 1_555 1_555
H7B C2B 1_555 1_555
H4B C1B 1_555 1_555
H5B C1B 1_555 1_555
C5 O1 1_555 1_555
O2 C8B 1_555 1_555
C6B C5B 1_555 1_555
O1B C1B 1_555 1_555

#END
