
#######################################################################
#
#                 Cambridge Crystallographic Data Centre
#                                CCDC 
#
#######################################################################
#
# If this CIF has been generated from an entry in the Cambridge 
# Structural Database, then it will include bibliographic, chemical, 
# crystal, experimental, refinement or atomic coordinate data resulting 
# from the CCDC's data processing and validation procedures.
#
#######################################################################

data_JANCAC10
_chemical_formula_moiety         'C17 H38 N5 1+,Cl1 1-,3(H2 O1)'
_chemical_name_systematic        
'5,12,17-Trimethyl-1,9,12,17-tetra-aza-5-azoniabicyclo(7.5.5)nonadecane chloride trihydrate'
_symmetry_cell_setting           triclinic
_symmetry_space_group_name_H-M   'P -1'
_symmetry_Int_Tables_number      2
_space_group_name_Hall           '-P 1'
loop_
_symmetry_equiv_pos_site_id
_symmetry_equiv_pos_as_xyz
1 x,y,z
2 -x,-y,-z
_cell_length_a                   9.192(5)
_cell_length_b                   9.384(8)
_cell_length_c                   15.648(6)
_cell_angle_alpha                78.89(5)
_cell_angle_beta                 76.18(4)
_cell_angle_gamma                63.67(5)
_cell_volume                     1168.86
_exptl_crystal_colour            colorless
_cell_formula_units_Z            2
loop_
_atom_site_label
_atom_site_type_symbol
_atom_site_fract_x
_atom_site_fract_y
_atom_site_fract_z
Cl1 Cl 0.9585(2) 0.2553(2) 0.5404(1)
O1 O 0.5592(4) 0.2607(4) 0.3501(3)
H28 H 0.508 0.298 0.399
H29 H 0.659 0.187 0.354
O2 O 0.2330(6) 0.3837(5) 0.4382(3)
H30 H 0.122 0.489 0.433
H31 H 0.218 0.378 0.383
O3 O 0.8659(5) 0.1117(5) 0.4064(3)
H32 H 0.907 0.148 0.380
H33 H 0.762 0.176 0.436
N1 N 0.2310(5) 0.3770(5) 0.8446(3)
N2 N 0.5792(5) 0.3309(5) 0.8151(3)
N3 N 0.6219(5) -0.0057(5) 0.7914(3)
N4 N 0.2712(5) 0.0291(5) 0.8446(3)
N5 N 0.4116(6) 0.2572(5) 0.6630(3)
C1 C 0.2988(7) 0.4136(7) 0.9086(4)
C2 C 0.4483(7) 0.4491(7) 0.8698(4)
C3 C 0.6999(7) 0.3939(7) 0.7701(4)
C4 C 0.6580(7) 0.1797(6) 0.8672(4)
C5 C 0.7414(6) 0.0374(6) 0.8136(4)
C6 C 0.5665(7) -0.1013(6) 0.8667(4)
C7 C 0.4132(7) -0.1218(6) 0.8596(4)
C8 C 0.1454(7) -0.0069(7) 0.8235(4)
C9 C 0.2042(7) 0.1264(7) 0.9193(4)
C10 C 0.1159(7) 0.3045(7) 0.8914(4)
C11 C 0.1541(7) 0.5156(7) 0.7856(4)
C12 C 0.1227(7) 0.4808(7) 0.7028(4)
C13 C 0.2277(10) 0.3188(10) 0.6724(5)
C14 C 0.4683(10) 0.3845(9) 0.6110(5)
C15 C 0.4977(11) 0.1084(9) 0.6193(5)
C16 C 0.6806(8) 0.0150(7) 0.6267(4)
C17 C 0.6934(7) -0.0942(7) 0.7121(4)
H1 H 0.4383(62) 0.2447(59) 0.7384(34)
H2 H 0.204(1) 0.517(1) 0.940(1)
H3 H 0.334(1) 0.312(1) 0.958(1)
H4 H 0.498(1) 0.458(1) 0.924(1)
H5 H 0.408(1) 0.562(1) 0.830(1)
H6 H 0.798(1) 0.307(1) 0.729(1)
H7 H 0.750(1) 0.419(1) 0.819(1)
H8 H 0.641(1) 0.503(1) 0.729(1)
H9 H 0.750(1) 0.187(1) 0.896(1)
H10 H 0.565(1) 0.161(1) 0.919(1)
H11 H 0.822(1) -0.063(1) 0.851(1)
H12 H 0.813(1) 0.067(1) 0.753(1)
H13 H 0.666(1) -0.219(1) 0.873(1)
H14 H 0.539(1) -0.044(1) 0.926(1)
H15 H 0.379(1) -0.186(1) 0.920(1)
H16 H 0.445(1) -0.191(1) 0.805(1)
H17 H 0.039(1) 0.103(1) 0.812(1)
H18 H 0.109(1) -0.081(1) 0.878(1)
H19 H 0.194(1) -0.069(1) 0.765(1)
H20 H 0.119(1) 0.088(1) 0.966(1)
H21 H 0.304(1) 0.108(1) 0.951(1)
H22 H 0.046(1) 0.365(1) 0.950(1)
H23 H 0.033(1) 0.320(1) 0.848(1)
H24 H 0.037(1) 0.592(1) 0.821(1)
H25 H 0.233(1) 0.578(1) 0.765(1)
H26 H 0.822(1) -0.170(1) 0.714(1)
H27 H 0.629(1) -0.167(1) 0.713(1)
H34 H 0.137 0.568 0.652
H35 H -0.003 0.492 0.717
H36 H 0.187 0.236 0.714
H37 H 0.202 0.330 0.605
H38 H 0.441 0.410 0.544
H39 H 0.596 0.349 0.609
H40 H 0.397 0.497 0.643
H41 H 0.430 0.034 0.648
H42 H 0.482 0.141 0.549
H43 H 0.734 0.097 0.627
H44 H 0.743 -0.056 0.571
loop_
_geom_bond_atom_site_label_1
_geom_bond_atom_site_label_2
_geom_bond_site_symmetry_1
_geom_bond_site_symmetry_2
O1 H28 1_555 1_555
O2 H30 1_555 1_555
O3 H32 1_555 1_555
N1 C1 1_555 1_555
N2 C2 1_555 1_555
N3 C5 1_555 1_555
N4 C7 1_555 1_555
N5 C13 1_555 1_555
C1 C2 1_555 1_555
C2 H4 1_555 1_555
C3 N2 1_555 1_555
C4 N2 1_555 1_555
C5 C4 1_555 1_555
C6 N3 1_555 1_555
C7 C6 1_555 1_555
C8 N4 1_555 1_555
C9 N4 1_555 1_555
C10 N1 1_555 1_555
C11 N1 1_555 1_555
C12 C11 1_555 1_555
C13 C12 1_555 1_555
C14 N5 1_555 1_555
C15 N5 1_555 1_555
C16 C15 1_555 1_555
C17 N3 1_555 1_555
H1 N5 1_555 1_555
H2 C1 1_555 1_555
H3 C1 1_555 1_555
H5 C2 1_555 1_555
H6 C3 1_555 1_555
H7 C3 1_555 1_555
H8 C3 1_555 1_555
H9 C4 1_555 1_555
H10 C4 1_555 1_555
H11 C5 1_555 1_555
H12 C5 1_555 1_555
H13 C6 1_555 1_555
H14 C6 1_555 1_555
H15 C7 1_555 1_555
H16 C7 1_555 1_555
H17 C8 1_555 1_555
H18 C8 1_555 1_555
H19 C8 1_555 1_555
H20 C9 1_555 1_555
H21 C9 1_555 1_555
H22 C10 1_555 1_555
H23 C10 1_555 1_555
H24 C11 1_555 1_555
H25 C11 1_555 1_555
H26 C17 1_555 1_555
H27 C17 1_555 1_555
H29 O1 1_555 1_555
H31 O2 1_555 1_555
H33 O3 1_555 1_555
H34 C12 1_555 1_555
H35 C12 1_555 1_555
H36 C13 1_555 1_555
H37 C13 1_555 1_555
H38 C14 1_555 1_555
H39 C14 1_555 1_555
H40 C14 1_555 1_555
H41 C15 1_555 1_555
H42 C15 1_555 1_555
H43 C16 1_555 1_555
H44 C16 1_555 1_555
C9 C10 1_555 1_555
C16 C17 1_555 1_555

#END
