
#######################################################################
#
#                 Cambridge Crystallographic Data Centre
#                                CCDC 
#
#######################################################################
#
# If this CIF has been generated from an entry in the Cambridge 
# Structural Database, then it will include bibliographic, chemical, 
# crystal, experimental, refinement or atomic coordinate data resulting 
# from the CCDC's data processing and validation procedures.
#
#######################################################################

data_JANWUT
_chemical_formula_moiety         'C74 H96 Si4'
_chemical_name_systematic        
(tetraceno[2,1,12,11-opqra]tetracene-7,8,15,16-tetrayltetraethyne-2,1-diyl)tetrakis(triisopropylsilane)
_symmetry_cell_setting           triclinic
_symmetry_space_group_name_H-M   'P -1'
_symmetry_Int_Tables_number      2
_space_group_name_Hall           '-P 1'
loop_
_symmetry_equiv_pos_site_id
_symmetry_equiv_pos_as_xyz
1 x,y,z
2 -x,-y,-z
_cell_length_a                   7.4917(7)
_cell_length_b                   12.6697(14)
_cell_length_c                   17.4733(16)
_cell_angle_alpha                81.367(8)
_cell_angle_beta                 85.995(8)
_cell_angle_gamma                80.270(9)
_cell_volume                     1614.46
_cell_formula_units_Z            1
loop_
_atom_site_label
_atom_site_type_symbol
_atom_site_fract_x
_atom_site_fract_y
_atom_site_fract_z
Si1 Si 0.68862(18) 0.33585(11) 0.37330(7)
Si2 Si 0.06376(17) 1.01685(10) -0.23145(8)
C1 C 0.4269(5) 0.4988(3) 0.0279(2)
C2 C 0.2545(6) 0.5651(3) 0.0118(2)
C3 C 0.1104(6) 0.5635(3) 0.0680(2)
C4 C 0.4539(6) 0.4365(3) 0.1019(2)
C5 C -0.0627(6) 0.6288(3) 0.0518(2)
C6 C 0.2315(6) 0.6329(3) -0.0615(2)
C7 C -0.0808(6) 0.7015(3) -0.0188(2)
C8 C 0.0677(6) 0.7073(3) -0.0726(2)
C9 C 0.3047(6) 0.4370(4) 0.1576(2)
H1 H 0.3205 0.3949 0.2071
C10 C 0.6259(6) 0.3753(3) 0.1202(2)
C11 C -0.2172(6) 0.6260(4) 0.1038(2)
H2 H -0.2082 0.5770 0.1507
C12 C 0.1404(6) 0.4969(4) 0.1405(2)
H3 H 0.0427 0.4942 0.1781
C13 C 0.6681(6) 0.3257(4) 0.2703(3)
C14 C 0.6560(6) 0.3386(3) 0.2002(2)
C15 C -0.2521(6) 0.7711(4) -0.0316(3)
H4 H -0.2652 0.8227 -0.0771
C16 C 0.0578(6) 0.7981(4) -0.1326(2)
C17 C 0.0458(6) 0.8838(4) -0.1744(3)
C18 C -0.3776(6) 0.6916(4) 0.0880(3)
H5 H -0.4786 0.6878 0.1238
C19 C -0.3948(6) 0.7646(4) 0.0198(3)
H6 H -0.5074 0.8100 0.0092
C20 C 0.9341(6) 0.2901(4) 0.3987(3)
H7 H 0.9468 0.2107 0.4173
C21 C 0.6068(8) 0.4837(4) 0.3841(3)
H8 H 0.6224 0.4924 0.4391
C22 C -0.1065(7) 1.1200(4) -0.1858(3)
H9 H -0.2266 1.0956 -0.1859
C23 C 0.3100(7) 1.0329(4) -0.2292(3)
H10 H 0.3769 0.9920 -0.2699
C24 C 0.5329(7) 0.2516(5) 0.4347(3)
H11 H 0.4075 0.2825 0.4182
C25 C 0.0032(8) 1.0063(4) -0.3333(3)
H12 H 0.0721 0.9354 -0.3451
C26 C 0.3999(10) 0.5140(6) 0.3687(4)
H13 H 0.3787 0.4982 0.3172
H14 H 0.3604 0.5913 0.3712
H15 H 0.3311 0.4716 0.4080
C27 C 0.7175(14) 0.5570(5) 0.3330(4)
H16 H 0.8455 0.5360 0.3452
H17 H 0.6758 0.6319 0.3420
H18 H 0.7034 0.5508 0.2786
C28 C 1.0672(7) 0.3030(5) 0.3303(3)
H19 H 1.0326 0.2680 0.2885
H20 H 1.1892 0.2692 0.3460
H21 H 1.0663 0.3801 0.3121
C29 C -0.0711(9) 1.1206(5) -0.1004(3)
H22 H -0.0828 1.0498 -0.0708
H23 H -0.1596 1.1766 -0.0796
H24 H 0.0516 1.1357 -0.0964
C30 C 0.9855(7) 0.3432(5) 0.4674(3)
H25 H 0.9865 0.4204 0.4505
H26 H 1.1060 0.3082 0.4842
H27 H 0.8962 0.3342 0.5107
C31 C -0.1292(9) 1.2345(5) -0.2299(4)
H28 H -0.0187 1.2652 -0.2271
H29 H -0.2322 1.2794 -0.2068
H30 H -0.1513 1.2324 -0.2843
C32 C 0.5627(9) 0.1343(6) 0.4224(4)
H31 H 0.5456 0.1297 0.3680
H32 H 0.4756 0.0964 0.4555
H33 H 0.6863 0.1006 0.4357
C33 C 0.5315(8) 0.2579(5) 0.5205(3)
H34 H 0.6525 0.2292 0.5397
H35 H 0.4434 0.2152 0.5482
H36 H 0.4978 0.3335 0.5292
C34 C -0.1970(8) 0.9971(5) -0.3379(4)
H37 H -0.2286 0.9394 -0.2979
H38 H -0.2179 0.9802 -0.3891
H39 H -0.2725 1.0658 -0.3294
C35 C 0.3416(8) 1.1492(5) -0.2507(4)
H40 H 0.2810 1.1810 -0.2987
H41 H 0.4720 1.1507 -0.2585
H42 H 0.2921 1.1908 -0.2089
C36 C 0.0618(10) 1.0904(5) -0.3978(4)
H43 H -0.0046 1.1621 -0.3908
H44 H 0.0355 1.0727 -0.4481
H45 H 0.1923 1.0905 -0.3960
C37 C 0.3981(8) 0.9834(6) -0.1526(4)
H46 H 0.3461 1.0260 -0.1116
H47 H 0.5290 0.9838 -0.1585
H48 H 0.3754 0.9089 -0.1387
Si1A Si 0.31138(18) 0.66415(11) -0.37330(7)
Si2A Si 0.93624(17) -0.01685(10) 0.23145(8)
C1A C 0.5731(5) 0.5012(3) -0.0279(2)
C2A C 0.7455(6) 0.4349(3) -0.0118(2)
C3A C 0.8896(6) 0.4365(3) -0.0680(2)
C4A C 0.5461(6) 0.5635(3) -0.1019(2)
C5A C 1.0627(6) 0.3712(3) -0.0518(2)
C6A C 0.7685(6) 0.3671(3) 0.0615(2)
C7A C 1.0808(6) 0.2985(3) 0.0188(2)
C8A C 0.9323(6) 0.2927(3) 0.0726(2)
C9A C 0.6953(6) 0.5630(4) -0.1576(2)
H1A H 0.6795 0.6051 -0.2071
C10A C 0.3741(6) 0.6247(3) -0.1202(2)
C11A C 1.2172(6) 0.3740(4) -0.1038(2)
H2A H 1.2082 0.4230 -0.1507
C12A C 0.8596(6) 0.5031(4) -0.1405(2)
H3A H 0.9573 0.5058 -0.1781
C13A C 0.3319(6) 0.6743(4) -0.2703(3)
C14A C 0.3440(6) 0.6614(3) -0.2002(2)
C15A C 1.2521(6) 0.2289(4) 0.0316(3)
H4A H 1.2652 0.1773 0.0771
C16A C 0.9422(6) 0.2019(4) 0.1326(2)
C17A C 0.9542(6) 0.1162(4) 0.1744(3)
C18A C 1.3776(6) 0.3084(4) -0.0880(3)
H5A H 1.4786 0.3122 -0.1238
C19A C 1.3948(6) 0.2354(4) -0.0198(3)
H6A H 1.5074 0.1900 -0.0092
C20A C 0.0659(6) 0.7099(4) -0.3987(3)
H7A H 0.0532 0.7893 -0.4173
C21A C 0.3932(8) 0.5163(4) -0.3841(3)
H8A H 0.3776 0.5076 -0.4391
C22A C 1.1065(7) -0.1200(4) 0.1858(3)
H9A H 1.2266 -0.0956 0.1859
C23A C 0.6900(7) -0.0329(4) 0.2292(3)
H10A H 0.6231 0.0080 0.2699
C24A C 0.4671(7) 0.7484(5) -0.4347(3)
H11A H 0.5925 0.7175 -0.4182
C25A C 0.9968(8) -0.0063(4) 0.3333(3)
H12A H 0.9279 0.0646 0.3451
C26A C 0.6001(10) 0.4860(6) -0.3687(4)
H13A H 0.6213 0.5018 -0.3172
H14A H 0.6396 0.4087 -0.3712
H15A H 0.6689 0.5284 -0.4080
C27A C 0.2825(14) 0.4430(5) -0.3330(4)
H16A H 0.1545 0.4640 -0.3452
H17A H 0.3242 0.3681 -0.3420
H18A H 0.2966 0.4492 -0.2786
C28A C -0.0672(7) 0.6970(5) -0.3303(3)
H19A H -0.0326 0.7320 -0.2885
H20A H -0.1892 0.7308 -0.3460
H21A H -0.0663 0.6199 -0.3121
C29A C 1.0711(9) -0.1206(5) 0.1004(3)
H22A H 1.0828 -0.0498 0.0708
H23A H 1.1596 -0.1766 0.0796
H24A H 0.9484 -0.1357 0.0964
C30A C 0.0145(7) 0.6568(5) -0.4674(3)
H25A H 0.0135 0.5796 -0.4505
H26A H -0.1060 0.6918 -0.4842
H27A H 0.1038 0.6658 -0.5107
C31A C 1.1292(9) -0.2345(5) 0.2299(4)
H28A H 1.0187 -0.2652 0.2271
H29A H 1.2322 -0.2794 0.2068
H30A H 1.1513 -0.2324 0.2843
C32A C 0.4373(9) 0.8657(6) -0.4224(4)
H31A H 0.4544 0.8703 -0.3680
H32A H 0.5244 0.9036 -0.4555
H33A H 0.3137 0.8994 -0.4357
C33A C 0.4685(8) 0.7421(5) -0.5205(3)
H34A H 0.3475 0.7708 -0.5397
H35A H 0.5566 0.7848 -0.5482
H36A H 0.5022 0.6665 -0.5292
C34A C 1.1970(8) 0.0029(5) 0.3379(4)
H37A H 1.2286 0.0606 0.2979
H38A H 1.2179 0.0198 0.3891
H39A H 1.2725 -0.0658 0.3294
C35A C 0.6584(8) -0.1492(5) 0.2507(4)
H40A H 0.7190 -0.1810 0.2987
H41A H 0.5280 -0.1507 0.2585
H42A H 0.7079 -0.1908 0.2089
C36A C 0.9382(10) -0.0904(5) 0.3978(4)
H43A H 1.0046 -0.1621 0.3908
H44A H 0.9645 -0.0727 0.4481
H45A H 0.8077 -0.0905 0.3960
C37A C 0.6019(8) 0.0166(6) 0.1526(4)
H46A H 0.6539 -0.0260 0.1116
H47A H 0.4710 0.0162 0.1585
H48A H 0.6246 0.0911 0.1387
loop_
_geom_bond_atom_site_label_1
_geom_bond_atom_site_label_2
_geom_bond_site_symmetry_1
_geom_bond_site_symmetry_2
Si1 C13 1_555 1_555
Si2 C17 1_555 1_555
C1 C2 1_555 1_555
C2 C3 1_555 1_555
C3 C5 1_555 1_555
C4 C1 1_555 1_555
C5 C7 1_555 1_555
C6 C2 1_555 1_555
C7 C8 1_555 1_555
C8 C6 1_555 1_555
C9 C4 1_555 1_555
H1 C9 1_555 1_555
C10 C4 1_555 1_555
C11 C5 1_555 1_555
H2 C11 1_555 1_555
C12 C3 1_555 1_555
H3 C12 1_555 1_555
C13 C14 1_555 1_555
C14 C10 1_555 1_555
C15 C7 1_555 1_555
H4 C15 1_555 1_555
C16 C8 1_555 1_555
C17 C16 1_555 1_555
C18 C11 1_555 1_555
H5 C18 1_555 1_555
C19 C15 1_555 1_555
H6 C19 1_555 1_555
C20 Si1 1_555 1_555
H7 C20 1_555 1_555
C21 Si1 1_555 1_555
H8 C21 1_555 1_555
C22 Si2 1_555 1_555
H9 C22 1_555 1_555
C23 Si2 1_555 1_555
H10 C23 1_555 1_555
C24 Si1 1_555 1_555
H11 C24 1_555 1_555
C25 Si2 1_555 1_555
H12 C25 1_555 1_555
C26 C21 1_555 1_555
H13 C26 1_555 1_555
H14 C26 1_555 1_555
H15 C26 1_555 1_555
C27 C21 1_555 1_555
H16 C27 1_555 1_555
H17 C27 1_555 1_555
H18 C27 1_555 1_555
C28 C20 1_555 1_555
H19 C28 1_555 1_555
H20 C28 1_555 1_555
H21 C28 1_555 1_555
C29 C22 1_555 1_555
H22 C29 1_555 1_555
H23 C29 1_555 1_555
H24 C29 1_555 1_555
C30 C20 1_555 1_555
H25 C30 1_555 1_555
H26 C30 1_555 1_555
H27 C30 1_555 1_555
C31 C22 1_555 1_555
H28 C31 1_555 1_555
H29 C31 1_555 1_555
H30 C31 1_555 1_555
C32 C24 1_555 1_555
H31 C32 1_555 1_555
H32 C32 1_555 1_555
H33 C32 1_555 1_555
C33 C24 1_555 1_555
H34 C33 1_555 1_555
H35 C33 1_555 1_555
H36 C33 1_555 1_555
C34 C25 1_555 1_555
H37 C34 1_555 1_555
H38 C34 1_555 1_555
H39 C34 1_555 1_555
C35 C23 1_555 1_555
H40 C35 1_555 1_555
H41 C35 1_555 1_555
H42 C35 1_555 1_555
C36 C25 1_555 1_555
H43 C36 1_555 1_555
H44 C36 1_555 1_555
H45 C36 1_555 1_555
C37 C23 1_555 1_555
H46 C37 1_555 1_555
H47 C37 1_555 1_555
H48 C37 1_555 1_555
Si1A C13A 1_555 1_555
Si2A C17A 1_555 1_555
C1A C1 1_555 1_555
C2A C1A 1_555 1_555
C3A C2A 1_555 1_555
C4A C1A 1_555 1_555
C5A C3A 1_555 1_555
C6A C10 1_555 1_555
C7A C5A 1_555 1_555
C8A C6A 1_555 1_555
C9A C4A 1_555 1_555
H1A C9A 1_555 1_555
C10A C6 1_555 1_555
C11A C5A 1_555 1_555
H2A C11A 1_555 1_555
C12A C3A 1_555 1_555
H3A C12A 1_555 1_555
C13A C14A 1_555 1_555
C14A C10A 1_555 1_555
C15A C7A 1_555 1_555
H4A C15A 1_555 1_555
C16A C8A 1_555 1_555
C17A C16A 1_555 1_555
C18A C11A 1_555 1_555
H5A C18A 1_555 1_555
C19A C15A 1_555 1_555
H6A C19A 1_555 1_555
C20A Si1A 1_555 1_555
H7A C20A 1_555 1_555
C21A Si1A 1_555 1_555
H8A C21A 1_555 1_555
C22A Si2A 1_555 1_555
H9A C22A 1_555 1_555
C23A Si2A 1_555 1_555
H10A C23A 1_555 1_555
C24A Si1A 1_555 1_555
H11A C24A 1_555 1_555
C25A Si2A 1_555 1_555
H12A C25A 1_555 1_555
C26A C21A 1_555 1_555
H13A C26A 1_555 1_555
H14A C26A 1_555 1_555
H15A C26A 1_555 1_555
C27A C21A 1_555 1_555
H16A C27A 1_555 1_555
H17A C27A 1_555 1_555
H18A C27A 1_555 1_555
C28A C20A 1_555 1_555
H19A C28A 1_555 1_555
H20A C28A 1_555 1_555
H21A C28A 1_555 1_555
C29A C22A 1_555 1_555
H22A C29A 1_555 1_555
H23A C29A 1_555 1_555
H24A C29A 1_555 1_555
C30A C20A 1_555 1_555
H25A C30A 1_555 1_555
H26A C30A 1_555 1_555
H27A C30A 1_555 1_555
C31A C22A 1_555 1_555
H28A C31A 1_555 1_555
H29A C31A 1_555 1_555
H30A C31A 1_555 1_555
C32A C24A 1_555 1_555
H31A C32A 1_555 1_555
H32A C32A 1_555 1_555
H33A C32A 1_555 1_555
C33A C24A 1_555 1_555
H34A C33A 1_555 1_555
H35A C33A 1_555 1_555
H36A C33A 1_555 1_555
C34A C25A 1_555 1_555
H37A C34A 1_555 1_555
H38A C34A 1_555 1_555
H39A C34A 1_555 1_555
C35A C23A 1_555 1_555
H40A C35A 1_555 1_555
H41A C35A 1_555 1_555
H42A C35A 1_555 1_555
C36A C25A 1_555 1_555
H43A C36A 1_555 1_555
H44A C36A 1_555 1_555
H45A C36A 1_555 1_555
C37A C23A 1_555 1_555
H46A C37A 1_555 1_555
H47A C37A 1_555 1_555
H48A C37A 1_555 1_555
C9 C12 1_555 1_555
C18 C19 1_555 1_555
C2A C6A 1_555 1_555
C4A C10A 1_555 1_555
C7A C8A 1_555 1_555
C9A C12A 1_555 1_555
C18A C19A 1_555 1_555

#END
