
#######################################################################
#
#                 Cambridge Crystallographic Data Centre
#                                CCDC 
#
#######################################################################
#
# If this CIF has been generated from an entry in the Cambridge 
# Structural Database, then it will include bibliographic, chemical, 
# crystal, experimental, refinement or atomic coordinate data resulting 
# from the CCDC's data processing and validation procedures.
#
#######################################################################

data_JAPBIL
_chemical_formula_moiety         'C22 H24 O1'
_chemical_name_systematic        
3-(Pentacyclo(5.4.0.0^2,6^.0^3,10^.0^5,9^)undec-8-yl)pentacyclo(6.3.0.0^2,6^.0^3,10^.0^5,9^)undecan-4-one
_symmetry_cell_setting           triclinic
_symmetry_space_group_name_H-M   'P -1'
_symmetry_Int_Tables_number      2
_space_group_name_Hall           '-P 1'
loop_
_symmetry_equiv_pos_site_id
_symmetry_equiv_pos_as_xyz
1 x,y,z
2 -x,-y,-z
_cell_length_a                   6.3469(6)
_cell_length_b                   11.425(1)
_cell_length_c                   11.5724(9)
_cell_angle_alpha                63.751(7)
_cell_angle_beta                 82.039(7)
_cell_angle_gamma                88.534(8)
_cell_volume                     744.766
_exptl_crystal_colour            colorless
_chemical_melting_point          378.2-378.7K
_cell_formula_units_Z            2
loop_
_atom_site_label
_atom_site_type_symbol
_atom_site_fract_x
_atom_site_fract_y
_atom_site_fract_z
C1 C 0.6146(2) 0.3420(1) -0.0576(1)
C2 C 0.8198(2) 0.3053(1) 0.0112(1)
C3 C 0.7303(2) 0.2345(1) 0.1612(1)
C4 C 0.8365(2) 0.1040(1) 0.2011(1)
O1 O 0.9364(2) 0.0431(1) 0.2882(1)
C5 C 0.7976(2) 0.0759(1) 0.0901(1)
C6 C 0.9166(2) 0.1943(1) -0.0237(1)
C7 C 0.8117(2) 0.2057(1) -0.1383(1)
C8 C 0.5898(2) 0.2199(1) -0.0785(1)
C9 C 0.5656(2) 0.1154(1) 0.0676(1)
C10 C 0.5059(2) 0.1965(1) 0.1470(1)
C11 C 0.4324(2) 0.3247(1) 0.0489(1)
C12 C 0.9548(2) 0.4170(1) 0.3435(1)
C13 C 0.9126(2) 0.3069(2) 0.4845(1)
C14 C 0.6778(3) 0.3120(2) 0.5371(1)
C15 C 0.5926(3) 0.1728(2) 0.5873(2)
C16 C 0.6684(3) 0.1633(1) 0.4604(1)
C17 C 0.9055(2) 0.2037(1) 0.4316(1)
C18 C 0.9466(2) 0.3132(1) 0.2897(1)
C19 C 0.7405(2) 0.3193(1) 0.2325(1)
C20 C 0.5789(2) 0.2838(1) 0.3553(1)
C21 C 0.5873(2) 0.3889(2) 0.4087(1)
C22 C 0.7572(3) 0.4962(1) 0.3284(1)
H1 H 0.6289(20) 0.4259(13) -0.1388(12)
H2 H 0.9153(23) 0.3788(15) -0.0102(14)
H3 H 0.8384(24) -0.0117(15) 0.1004(15)
H4 H 1.0704(23) 0.1951(14) -0.0328(14)
H5 H 0.8241(25) 0.1218(15) -0.1481(15)
H6 H 0.8638(23) 0.2846(14) -0.2212(14)
H7 H 0.4672(23) 0.2188(14) -0.1219(14)
H8 H 0.4629(22) 0.0415(14) 0.0912(14)
H9 H 0.4121(21) 0.1492(13) 0.2298(13)
H10 H 0.2895(22) 0.3182(14) 0.0214(14)
H11 H 0.4246(22) 0.3924(14) 0.0779(13)
H12 H 1.0876(22) 0.4705(14) 0.3174(14)
H13 H 1.0168(27) 0.2914(16) 0.5437(16)
H14 H 0.6504(25) 0.3510(15) 0.5986(15)
H15 H 0.4329(26) 0.1602(16) 0.6133(16)
H16 H 0.6582(27) 0.1072(17) 0.6631(17)
H17 H 0.6363(26) 0.0758(17) 0.4620(17)
H18 H 1.0022(22) 0.1312(14) 0.4583(14)
H19 H 1.0788(25) 0.3095(15) 0.2328(15)
H20 H 0.7246(20) 0.4130(13) 0.1654(12)
H21 H 0.4356(22) 0.2717(14) 0.3418(14)
H22 H 0.4463(23) 0.4203(15) 0.4214(15)
H23 H 0.7360(24) 0.5474(15) 0.2369(15)
H24 H 0.7648(24) 0.5575(15) 0.3705(15)
loop_
_geom_bond_atom_site_label_1
_geom_bond_atom_site_label_2
_geom_bond_site_symmetry_1
_geom_bond_site_symmetry_2
C1 C2 1_555 1_555
C2 C3 1_555 1_555
C3 C4 1_555 1_555
C4 O1 1_555 1_555
C5 C4 1_555 1_555
C6 C2 1_555 1_555
C7 C6 1_555 1_555
C8 C1 1_555 1_555
C9 C5 1_555 1_555
C10 C3 1_555 1_555
C11 C1 1_555 1_555
C12 C13 1_555 1_555
C13 C14 1_555 1_555
C14 C15 1_555 1_555
C15 C16 1_555 1_555
C16 C17 1_555 1_555
C17 C13 1_555 1_555
C18 C12 1_555 1_555
C19 C3 1_555 1_555
C20 C16 1_555 1_555
C21 C14 1_555 1_555
C22 C12 1_555 1_555
H1 C1 1_555 1_555
H2 C2 1_555 1_555
H3 C5 1_555 1_555
H4 C6 1_555 1_555
H5 C7 1_555 1_555
H6 C7 1_555 1_555
H7 C8 1_555 1_555
H8 C9 1_555 1_555
H9 C10 1_555 1_555
H10 C11 1_555 1_555
H11 C11 1_555 1_555
H12 C12 1_555 1_555
H13 C13 1_555 1_555
H14 C14 1_555 1_555
H15 C15 1_555 1_555
H16 C15 1_555 1_555
H17 C16 1_555 1_555
H18 C17 1_555 1_555
H19 C18 1_555 1_555
H20 C19 1_555 1_555
H21 C20 1_555 1_555
H22 C21 1_555 1_555
H23 C22 1_555 1_555
H24 C22 1_555 1_555
C5 C6 1_555 1_555
C7 C8 1_555 1_555
C8 C9 1_555 1_555
C9 C10 1_555 1_555
C10 C11 1_555 1_555
C17 C18 1_555 1_555
C18 C19 1_555 1_555
C19 C20 1_555 1_555
C20 C21 1_555 1_555
C21 C22 1_555 1_555

#END
