
#######################################################################
#
#                 Cambridge Crystallographic Data Centre
#                                CCDC 
#
#######################################################################
#
# If this CIF has been generated from an entry in the Cambridge 
# Structural Database, then it will include bibliographic, chemical, 
# crystal, experimental, refinement or atomic coordinate data resulting 
# from the CCDC's data processing and validation procedures.
#
#######################################################################

data_JAPFOY
_chemical_formula_moiety         'C8 H12 N2 O3'
_chemical_name_systematic        '2-(1H-imidazol-2-yl)ethyl 2-hydroxypropanoate'
_symmetry_cell_setting           trigonal
_symmetry_space_group_name_H-M   'P 32'
_symmetry_Int_Tables_number      145
_space_group_name_Hall           'P 32'
loop_
_symmetry_equiv_pos_site_id
_symmetry_equiv_pos_as_xyz
1 x,y,z
2 -y,x-y,2/3+z
3 -x+y,-x,1/3+z
_cell_length_a                   8.02360(10)
_cell_length_b                   8.02360(10)
_cell_length_c                   12.3713(3)
_cell_angle_alpha                90
_cell_angle_beta                 90
_cell_angle_gamma                120
_cell_volume                     689.739
_exptl_crystal_colour            colorless
_exptl_crystal_description       block
_cell_formula_units_Z            3
loop_
_atom_site_label
_atom_site_type_symbol
_atom_site_fract_x
_atom_site_fract_y
_atom_site_fract_z
O1 O 0.53496(10) -0.05698(11) 0.12294(7)
H1 H 0.571(3) -0.121(2) 0.0960(13)
O2 O 0.35592(13) 0.06183(15) 0.25897(8)
O3 O 0.08107(10) -0.09227(11) 0.16346(5)
N1 N -0.23325(12) 0.21442(13) 0.29611(7)
H2 H -0.324(2) 0.142(2) 0.2482(12)
N2 N 0.04304(12) 0.35408(13) 0.38367(8)
C1 C 0.22433(16) -0.35524(15) 0.12922(11)
H3 H 0.2615 -0.4211 0.0759
H4 H 0.0858 -0.4031 0.1237
H5 H 0.2547 -0.3803 0.2020
C2 C 0.33466(14) -0.13923(14) 0.10744(7)
H6 H 0.3095 -0.1146 0.0316
C3 C 0.26430(13) -0.04167(13) 0.18535(7)
C4 C -0.01307(14) -0.02996(14) 0.24064(8)
H7 H 0.0316 -0.0348 0.3146
H8 H -0.1539 -0.1186 0.2378
C5 C 0.03079(17) 0.17305(16) 0.21613(9)
H9 H 0.1720 0.2592 0.2127
H10 H -0.0231 0.1751 0.1445
C6 C -0.05097(13) 0.24723(13) 0.29945(8)
C7 C -0.25795(15) 0.30595(16) 0.38340(9)
H11 H -0.3711 0.3090 0.4025
C8 C -0.08663(16) 0.39137(16) 0.43681(10)
H12 H -0.0601 0.4655 0.5010
loop_
_geom_bond_atom_site_label_1
_geom_bond_atom_site_label_2
_geom_bond_site_symmetry_1
_geom_bond_site_symmetry_2
O1 H1 1_555 1_555
O2 C3 1_555 1_555
O3 C3 1_555 1_555
N1 H2 1_555 1_555
N2 C6 1_555 1_555
C1 H3 1_555 1_555
H4 C1 1_555 1_555
H5 C1 1_555 1_555
C2 O1 1_555 1_555
H6 C2 1_555 1_555
C3 C2 1_555 1_555
C4 O3 1_555 1_555
H7 C4 1_555 1_555
H8 C4 1_555 1_555
C5 C4 1_555 1_555
H9 C5 1_555 1_555
H10 C5 1_555 1_555
C6 N1 1_555 1_555
C7 N1 1_555 1_555
H11 C7 1_555 1_555
C8 N2 1_555 1_555
H12 C8 1_555 1_555
C1 C2 1_555 1_555
C5 C6 1_555 1_555
C7 C8 1_555 1_555

#END
