
#######################################################################
#
#                 Cambridge Crystallographic Data Centre
#                                CCDC 
#
#######################################################################
#
# If this CIF has been generated from an entry in the Cambridge 
# Structural Database, then it will include bibliographic, chemical, 
# crystal, experimental, refinement or atomic coordinate data resulting 
# from the CCDC's data processing and validation procedures.
#
#######################################################################

data_JAPHEQ
_chemical_formula_moiety         'C32 H20 F2 N2 O8,C6 F6'
_chemical_name_systematic        
"2,2'-(1,3,6,8-tetraoxo-1,3,6,8-tetrahydrobenzo[lmn][3,8]phenanthroline-2,7-diyl)bis(3-(4-fluorophenyl)propanoic acid) hexafluorobenzene solvate"
_symmetry_cell_setting           triclinic
_symmetry_space_group_name_H-M   'P 1'
_symmetry_Int_Tables_number      1
_space_group_name_Hall           'P 1'
loop_
_symmetry_equiv_pos_site_id
_symmetry_equiv_pos_as_xyz
1 x,y,z
_cell_length_a                   7.6897(6)
_cell_length_b                   10.3258(8)
_cell_length_c                   11.4856(14)
_cell_angle_alpha                110.7280(10)
_cell_angle_beta                 95.8680(10)
_cell_angle_gamma                106.0120(10)
_cell_volume                     799.342
_exptl_crystal_colour            yellow
_exptl_crystal_description       needle
_cell_formula_units_Z            1
_exptl_crystal_recrystallization_method Hexafluorobenzene
loop_
_atom_site_label
_atom_site_type_symbol
_atom_site_fract_x
_atom_site_fract_y
_atom_site_fract_z
F1 F 0.6843(3) -0.0119(2) 0.7870(2)
O1 O 0.1001(3) 0.4827(2) 1.20243(18)
N1 N 0.3855(3) 0.5286(2) 0.98012(19)
C1 C 0.6161(5) 0.0837(3) 0.8668(3)
F2 F 0.4018(3) 1.2818(2) 0.6798(2)
O2 O 0.2502(3) 0.6845(2) 1.17249(18)
N2 N 0.7458(3) 0.7627(2) 0.52213(19)
C2 C 0.4270(5) 0.0525(3) 0.8485(3)
H1 H 0.3449 -0.0346 0.7810
H2 H 0.174(9) 0.726(8) 1.213(7)
O3 O 0.6698(3) 0.6428(2) 1.11726(17)
C3 C 0.3588(4) 0.1515(3) 0.9313(3)
H3 H 0.2285 0.1307 0.9213
O4 O 0.0934(3) 0.4796(2) 0.87409(19)
C4 C 0.4798(4) 0.2814(3) 1.0290(3)
O5 O 1.0389(3) 0.8334(2) 0.63500(19)
C5 C 0.6692(4) 0.3088(3) 1.0427(3)
H4 H 0.7525 0.3971 1.1083
O6 O 0.4557(3) 0.6582(2) 0.39331(18)
C6 C 0.7397(4) 0.2100(3) 0.9626(3)
H5 H 0.8697 0.2289 0.9735
O7 O 0.9228(3) 0.6160(2) 0.35611(19)
C7 C 0.4081(4) 0.3878(3) 1.1221(2)
H6 H 0.5146 0.4674 1.1880
H7 H 0.3288 0.3358 1.1656
H8 H 1.009(8) 0.582(7) 0.319(6)
O8 O 1.0717(3) 0.8191(2) 0.3281(2)
C8 C 0.2956(4) 0.4561(3) 1.0578(2)
H9 H 0.1877 0.3709 0.9960
C9 C 0.2102(4) 0.5498(3) 1.1522(2)
C10 C 0.5752(4) 0.6096(3) 1.0131(2)
C11 C 0.6532(3) 0.6504(3) 0.9121(2)
C12 C 0.8416(4) 0.7092(3) 0.9271(2)
H10 H 0.9229 0.7231 1.0019
C13 C 0.9155(3) 0.7494(3) 0.8320(2)
H11 H 1.0459 0.7902 0.8432
C14 C 0.7979(3) 0.7293(3) 0.7230(2)
C15 C 0.8744(3) 0.7794(3) 0.6260(2)
C16 C 0.5544(3) 0.6869(3) 0.4945(2)
C17 C 0.4810(3) 0.6476(3) 0.5961(2)
C18 C 0.2918(3) 0.5924(3) 0.5819(2)
H12 H 0.2108 0.5796 0.5074
C19 C 0.2185(3) 0.5551(3) 0.6771(2)
H13 H 0.0880 0.5176 0.6677
C20 C 0.3372(3) 0.5732(3) 0.7845(2)
C21 C 0.2597(3) 0.5242(3) 0.8802(2)
C22 C 0.5309(3) 0.6297(3) 0.8014(2)
C23 C 0.6043(3) 0.6690(3) 0.7059(2)
C24 C 0.8167(4) 0.8201(3) 0.4288(2)
H14 H 0.7070 0.7891 0.3581
C25 C 0.9503(4) 0.7480(3) 0.3687(2)
C26 C 0.8930(4) 0.9883(3) 0.4822(3)
H15 H 1.0034 1.0236 0.5521
H16 H 0.9343 1.0184 0.4140
C27 C 0.7565(4) 1.0632(3) 0.5327(2)
C28 C 0.8235(4) 1.1998(3) 0.6359(3)
H17 H 0.9526 1.2420 0.6733
C29 C 0.7057(4) 1.2755(3) 0.6852(3)
H18 H 0.7532 1.3691 0.7545
C30 C 0.5197(4) 1.2118(3) 0.6312(3)
C31 C 0.4463(4) 1.0772(3) 0.5291(3)
H19 H 0.3167 1.0356 0.4933
C32 C 0.5667(4) 1.0036(3) 0.4795(3)
H20 H 0.5184 0.9115 0.4084
F3 F 0.8478(4) 0.0407(3) 0.1640(3)
F4 F 0.9514(4) 0.3002(3) 0.3712(2)
F5 F 0.6894(5) 0.4095(3) 0.4664(2)
F6 F 0.3248(4) 0.2573(3) 0.3581(3)
F7 F 0.2219(3) -0.0012(3) 0.1501(3)
F8 F 0.4829(4) -0.1086(2) 0.0536(2)
C33 C 0.7182(5) 0.0929(4) 0.2110(3)
C34 C 0.7724(5) 0.2274(4) 0.3168(3)
C35 C 0.6382(6) 0.2819(4) 0.3640(3)
C36 C 0.4532(5) 0.2040(4) 0.3090(3)
C37 C 0.4011(5) 0.0731(4) 0.2056(3)
C38 C 0.5354(5) 0.0180(4) 0.1565(3)
loop_
_geom_bond_atom_site_label_1
_geom_bond_atom_site_label_2
_geom_bond_site_symmetry_1
_geom_bond_site_symmetry_2
F1 C1 1_555 1_555
O1 C9 1_555 1_555
N1 C8 1_555 1_555
C1 C2 1_555 1_555
F2 C30 1_555 1_555
O2 H2 1_555 1_555
N2 C15 1_555 1_555
C2 H1 1_555 1_555
O3 C10 1_555 1_555
C3 C2 1_555 1_555
H3 C3 1_555 1_555
O4 C21 1_555 1_555
C4 C3 1_555 1_555
O5 C15 1_555 1_555
C5 C4 1_555 1_555
H4 C5 1_555 1_555
O6 C16 1_555 1_555
C6 C1 1_555 1_555
H5 C6 1_555 1_555
O7 H8 1_555 1_555
C7 C4 1_555 1_555
H6 C7 1_555 1_555
H7 C7 1_555 1_555
O8 C25 1_555 1_555
C8 C7 1_555 1_555
H9 C8 1_555 1_555
C9 O2 1_555 1_555
C10 N1 1_555 1_555
C11 C10 1_555 1_555
C12 C11 1_555 1_555
H10 C12 1_555 1_555
C13 C12 1_555 1_555
H11 C13 1_555 1_555
C14 C13 1_555 1_555
C15 C14 1_555 1_555
C16 N2 1_555 1_555
C17 C16 1_555 1_555
C18 C17 1_555 1_555
H12 C18 1_555 1_555
C19 C18 1_555 1_555
H13 C19 1_555 1_555
C20 C19 1_555 1_555
C21 N1 1_555 1_555
C22 C11 1_555 1_555
C23 C14 1_555 1_555
C24 N2 1_555 1_555
H14 C24 1_555 1_555
C25 O7 1_555 1_555
C26 C24 1_555 1_555
H15 C26 1_555 1_555
H16 C26 1_555 1_555
C27 C26 1_555 1_555
C28 C27 1_555 1_555
H17 C28 1_555 1_555
C29 C28 1_555 1_555
H18 C29 1_555 1_555
C30 C29 1_555 1_555
C31 C30 1_555 1_555
H19 C31 1_555 1_555
C32 C27 1_555 1_555
H20 C32 1_555 1_555
F3 C33 1_555 1_555
F4 C34 1_555 1_555
F5 C35 1_555 1_555
F6 C36 1_555 1_555
F7 C37 1_555 1_555
F8 C38 1_555 1_555
C33 C34 1_555 1_555
C34 C35 1_555 1_555
C35 C36 1_555 1_555
C36 C37 1_555 1_555
C37 C38 1_555 1_555
C38 C33 1_555 1_555
C5 C6 1_555 1_555
C8 C9 1_555 1_555
C17 C23 1_555 1_555
C20 C21 1_555 1_555
C20 C22 1_555 1_555
C22 C23 1_555 1_555
C24 C25 1_555 1_555
C31 C32 1_555 1_555

#END
