
#######################################################################
#
#                 Cambridge Crystallographic Data Centre
#                                CCDC 
#
#######################################################################
#
# If this CIF has been generated from an entry in the Cambridge 
# Structural Database, then it will include bibliographic, chemical, 
# crystal, experimental, refinement or atomic coordinate data resulting 
# from the CCDC's data processing and validation procedures.
#
#######################################################################

data_JAPHIR
_chemical_formula_moiety         'C23 H29 N3 O2'
_chemical_name_systematic        
'Ethyl 2(S)-cyano-2-(6-methylergolin-8\b-yl)methylbutyrate'
_chemical_properties_biological  
'pharmacological activity on dopamine and serotonin receptors'
_symmetry_cell_setting           monoclinic
_symmetry_space_group_name_H-M   'P 21'
_symmetry_Int_Tables_number      4
_space_group_name_Hall           'P 2yb'
loop_
_symmetry_equiv_pos_site_id
_symmetry_equiv_pos_as_xyz
1 x,y,z
2 -x,1/2+y,-z
_cell_length_a                   6.189(2)
_cell_length_b                   13.211(2)
_cell_length_c                   12.855(2)
_cell_angle_alpha                90
_cell_angle_beta                 102.76(2)
_cell_angle_gamma                90
_cell_volume                     1025.1
_chemical_melting_point          510-512K
_cell_formula_units_Z            2
loop_
_atom_site_label
_atom_site_type_symbol
_atom_site_fract_x
_atom_site_fract_y
_atom_site_fract_z
N1 N 0.6972(5) 0.4320(3) 0.0064(3)
C1 C 0.5657(6) 0.3720(4) -0.0714(3)
C2 C 0.4411(5) 0.3077(3) -0.0255(3)
C3 C 0.2716(6) 0.2260(4) -0.0655(3)
C4 C 0.1305(5) 0.2041(4) 0.0171(3)
N2 N -0.0008(5) 0.1105(3) -0.0118(2)
C5 C -0.1446(5) 0.0899(4) 0.0633(3)
C6 C -0.0135(5) 0.0740 0.1768(3)
C7 C 0.1310(6) 0.1659(4) 0.2113(3)
C8 C 0.2725(5) 0.1903(3) 0.1315(3)
C9 C 0.4238(5) 0.2793(4) 0.1660(3)
C10 C 0.5054(6) 0.3139(4) 0.2690(3)
C11 C 0.6596(7) 0.3934(4) 0.2882(4)
C12 C 0.7380(6) 0.4391(4) 0.2074(3)
C13 C 0.6551(6) 0.4054(4) 0.1035(3)
C14 C 0.4980(6) 0.3285(4) 0.0847(3)
C15 C -0.1448(6) 0.1155(4) -0.1195(3)
C16 C -0.1769(5) 0.0534(4) 0.2490(3)
C17 C -0.0766(5) 0.0213(4) 0.3653(3)
C18 C 0.0302(6) 0.1105(4) 0.4310(3)
O1 O -0.0702(5) 0.1870(3) 0.4378(2)
O2 O 0.2421(4) 0.0953(3) 0.4797(2)
C19 C 0.3641(8) 0.1808(5) 0.5375(4)
C20 C 0.3408(11) 0.1824(7) 0.6507(5)
C22 C 0.0809(6) -0.0614(4) 0.3657(3)
N3 N 0.1977(6) -0.1271(4) 0.3613(4)
C23 C -0.2696(6) -0.0173(4) 0.4140(3)
C24 C -0.2064(8) -0.0428(5) 0.5321(4)
H1 H 0.8125 0.4893 -0.0069
H2 H 0.5622 0.3756 -0.1557
H3 H 0.1641 0.2507 -0.1391
H4 H 0.3564 0.1576 -0.0796
H5 H 0.0245 0.2691 0.0166
H6 H -0.2555 0.1532 0.0622
H7 H -0.2399 0.0223 0.0377
H8 H 0.0952 0.0093 0.1826
H9 H 0.0266 0.2301 0.2176
H10 H 0.2387 0.1510 0.2880
H11 H 0.3774 0.1254 0.1292
H12 H 0.4497 0.2797 0.3348
H13 H 0.7184 0.4194 0.3691
H14 H 0.8598 0.4989 0.2245
H15 H -0.0456 0.1306 -0.1771
H16 H -0.2646 0.1754 -0.1222
H17 H -0.2301 0.0442 -0.1380
H18 H -0.2705 0.1220 0.2519
H19 H -0.2874 -0.0061 0.2124
H20 H -0.3361 -0.0849 0.3715
H21 H -0.3958 0.0406 0.4025
H22 H -0.3509 -0.0688 0.5585
H23 H -0.1413 0.0241 0.5764
H24 H -0.0818 -0.1014 0.5455
C21? C 0.5073(15) 0.1560(13) 0.6447(9)
loop_
_geom_bond_atom_site_label_1
_geom_bond_atom_site_label_2
_geom_bond_site_symmetry_1
_geom_bond_site_symmetry_2
N1 C1 1_555 1_555
C1 C2 1_555 1_555
C2 C3 1_555 1_555
C3 C4 1_555 1_555
C4 N2 1_555 1_555
N2 C5 1_555 1_555
C5 C6 1_555 1_555
C6 C7 1_555 1_555
C7 C8 1_555 1_555
C8 C4 1_555 1_555
C9 C8 1_555 1_555
C10 C9 1_555 1_555
C11 C10 1_555 1_555
C12 C11 1_555 1_555
C13 N1 1_555 1_555
C14 C2 1_555 1_555
C15 N2 1_555 1_555
C16 C6 1_555 1_555
C17 C16 1_555 1_555
C18 C17 1_555 1_555
O1 C18 1_555 1_555
O2 C18 1_555 1_555
C19 O2 1_555 1_555
C20 C19 1_555 1_555
C22 C17 1_555 1_555
N3 C22 1_555 1_555
C23 C17 1_555 1_555
C24 C23 1_555 1_555
H1 N1 1_555 1_555
H2 C1 1_555 1_555
H3 C3 1_555 1_555
H4 C3 1_555 1_555
H5 C4 1_555 1_555
H6 C5 1_555 1_555
H7 C5 1_555 1_555
H8 C6 1_555 1_555
H9 C7 1_555 1_555
H10 C7 1_555 1_555
H11 C8 1_555 1_555
H12 C10 1_555 1_555
H13 C11 1_555 1_555
H14 C12 1_555 1_555
H15 C15 1_555 1_555
H16 C15 1_555 1_555
H17 C15 1_555 1_555
H18 C16 1_555 1_555
H19 C16 1_555 1_555
H20 C23 1_555 1_555
H21 C23 1_555 1_555
H22 C24 1_555 1_555
H23 C24 1_555 1_555
H24 C24 1_555 1_555
C9 C14 1_555 1_555
C12 C13 1_555 1_555
C13 C14 1_555 1_555

#END
