
#######################################################################
#
#                 Cambridge Crystallographic Data Centre
#                                CCDC 
#
#######################################################################
#
# If this CIF has been generated from an entry in the Cambridge 
# Structural Database, then it will include bibliographic, chemical, 
# crystal, experimental, refinement or atomic coordinate data resulting 
# from the CCDC's data processing and validation procedures.
#
#######################################################################

data_JAPHUG
_chemical_formula_moiety         'C12 H12 F3 N1 O3 S1'
_chemical_name_systematic        
(R)-1-(5-methyl-1,1-dioxido-3-(trifluoromethyl)-2,3-dihydrobenzo[d]isothiazol-3-yl)propan-2-one
_symmetry_cell_setting           monoclinic
_symmetry_space_group_name_H-M   'P 21'
_symmetry_Int_Tables_number      4
_space_group_name_Hall           'P 2yb'
loop_
_symmetry_equiv_pos_site_id
_symmetry_equiv_pos_as_xyz
1 x,y,z
2 -x,1/2+y,-z
_cell_length_a                   7.5098(2)
_cell_length_b                   8.0241(3)
_cell_length_c                   11.6738(3)
_cell_angle_alpha                90
_cell_angle_beta                 89.889(2)
_cell_angle_gamma                90
_cell_volume                     703.455
_exptl_crystal_colour            white
_exptl_crystal_description       block
_cell_formula_units_Z            2
loop_
_atom_site_label
_atom_site_type_symbol
_atom_site_fract_x
_atom_site_fract_y
_atom_site_fract_z
S1 S 0.19513(12) 0.75719(17) 0.30569(8)
C1 C 0.0364(5) 0.6597(6) 0.2206(3)
F1 F -0.0259(5) 1.0593(5) 0.1669(3)
C2 C -0.1284(5) 0.8798(6) 0.3154(3)
F2 F -0.1307(5) 1.1754(4) 0.3175(3)
C3 C -0.1288(5) 0.7336(6) 0.2328(3)
N1 N 0.0484(5) 0.8764(6) 0.3661(3)
O1 O 0.2765(5) 0.6484(6) 0.3878(3)
F3 F -0.3089(4) 1.0555(5) 0.2009(3)
C4 C -0.2723(5) 0.8719(6) 0.4072(3)
H1 H -0.2644 0.9722 0.4534
H2 H -0.3874 0.8731 0.3696
C5 C -0.2510(7) 0.5364(8) 0.1010(3)
C6 C -0.2734(6) 0.6723(7) 0.1724(3)
H3 H -0.3846 0.7223 0.1798
C7 C -0.0835(8) 0.4646(7) 0.0896(4)
H4 H -0.0694 0.3741 0.0406
C8 C -0.3785(8) 0.7383(10) 0.5904(5)
H5 H -0.3660 0.6393 0.6358
H6 H -0.5008 0.7516 0.5686
H7 H -0.3413 0.8333 0.6343
C9 C -0.1485(7) 1.0433(7) 0.2497(4)
C10 C -0.2659(6) 0.7241(6) 0.4858(3)
O2 O 0.3216(4) 0.8488(5) 0.2376(3)
C11 C 0.0625(7) 0.5236(7) 0.1489(4)
H8 H 0.1739 0.4741 0.1411
C12 C -0.4091(10) 0.4640(12) 0.0371(6)
H9 H -0.5140 0.5274 0.0548
H10 H -0.4264 0.3502 0.0598
H11 H -0.3867 0.4688 -0.0439
O3 O -0.1771(5) 0.6023(5) 0.4657(3)
H12 H 0.091(8) 0.916(10) 0.411(5)
loop_
_geom_bond_atom_site_label_1
_geom_bond_atom_site_label_2
_geom_bond_site_symmetry_1
_geom_bond_site_symmetry_2
S1 C1 1_555 1_555
C1 C3 1_555 1_555
F1 C9 1_555 1_555
C2 C3 1_555 1_555
F2 C9 1_555 1_555
C3 C6 1_555 1_555
N1 S1 1_555 1_555
O1 S1 1_555 1_555
F3 C9 1_555 1_555
C4 C2 1_555 1_555
H1 C4 1_555 1_555
H2 C4 1_555 1_555
C5 C6 1_555 1_555
C6 H3 1_555 1_555
C7 C5 1_555 1_555
H4 C7 1_555 1_555
C8 H5 1_555 1_555
H6 C8 1_555 1_555
H7 C8 1_555 1_555
C9 C2 1_555 1_555
C10 C4 1_555 1_555
O2 S1 1_555 1_555
C11 C1 1_555 1_555
H8 C11 1_555 1_555
C12 C5 1_555 1_555
H9 C12 1_555 1_555
H10 C12 1_555 1_555
H11 C12 1_555 1_555
O3 C10 1_555 1_555
H12 N1 1_555 1_555
C2 N1 1_555 1_555
C7 C11 1_555 1_555
C8 C10 1_555 1_555

#END
