
#######################################################################
#
#                 Cambridge Crystallographic Data Centre
#                                CCDC 
#
#######################################################################
#
# If this CIF has been generated from an entry in the Cambridge 
# Structural Database, then it will include bibliographic, chemical, 
# crystal, experimental, refinement or atomic coordinate data resulting 
# from the CCDC's data processing and validation procedures.
#
#######################################################################

data_JAPJUI
_chemical_formula_moiety         'C15 H10 O2'
_chemical_name_systematic        (E)-3-Benzylidene-2-benzofuran-1(3H)-one
_symmetry_cell_setting           monoclinic
_symmetry_space_group_name_H-M   'P 21/c'
_symmetry_Int_Tables_number      14
_space_group_name_Hall           '-P 2ybc'
loop_
_symmetry_equiv_pos_site_id
_symmetry_equiv_pos_as_xyz
1 x,y,z
2 -x,1/2+y,1/2-z
3 -x,-y,-z
4 x,1/2-y,1/2+z
_cell_length_a                   11.1028(10)
_cell_length_b                   13.2952(13)
_cell_length_c                   7.9128(8)
_cell_angle_alpha                90
_cell_angle_beta                 106.787(2)
_cell_angle_gamma                90
_cell_volume                     1118.26
_exptl_crystal_colour            colorless
_exptl_crystal_description       Lamellar
_cell_formula_units_Z            4
loop_
_atom_site_label
_atom_site_type_symbol
_atom_site_fract_x
_atom_site_fract_y
_atom_site_fract_z
O1 O 0.94119(14) 0.63911(11) 1.19613(19)
O2 O 1.15164(16) 0.64031(12) 1.2560(2)
C1 C 0.3782(3) 0.6059(4) 0.6663(5)
H1 H 0.3036 0.6009 0.5753
C2 C 0.6030(2) 0.62459(19) 0.9281(3)
C3 C 0.7229(2) 0.63608(17) 1.0672(3)
H2 H 0.7183 0.6486 1.1807
C4 C 0.8365(2) 0.63036(15) 1.0465(3)
C5 C 0.8845(2) 0.62182(14) 0.8945(3)
C6 C 0.8268(2) 0.61319(16) 0.7137(3)
H3 H 0.7396 0.6102 0.6690
C7 C 0.9021(2) 0.60927(18) 0.6034(3)
H4 H 0.8646 0.6028 0.4825
C8 C 1.0317(2) 0.61465(18) 0.6660(3)
H5 H 1.0795 0.6127 0.5871
C9 C 0.5753(2) 0.5372(2) 0.8275(4)
H6 H 0.6334 0.4850 0.8482
C10 C 0.4626(3) 0.5274(3) 0.6975(4)
H7 H 0.4437 0.4685 0.6318
C11 C 1.0508(2) 0.63605(16) 1.1472(3)
C12 C 1.0147(2) 0.62633(14) 0.9556(3)
C13 C 1.0905(2) 0.62285(16) 0.8434(3)
H8 H 1.1777 0.6260 0.8870
C14 C 0.4025(3) 0.6910(3) 0.7666(6)
H9 H 0.3439 0.7429 0.7467
C15 C 0.5144(3) 0.6993(2) 0.8974(4)
H10 H 0.5304 0.7569 0.9668
loop_
_geom_bond_atom_site_label_1
_geom_bond_atom_site_label_2
_geom_bond_site_symmetry_1
_geom_bond_site_symmetry_2
O1 C4 1_555 1_555
O2 C11 1_555 1_555
C1 H1 1_555 1_555
C2 C3 1_555 1_555
C3 H2 1_555 1_555
C4 C3 1_555 1_555
C5 C4 1_555 1_555
C6 C5 1_555 1_555
H3 C6 1_555 1_555
C7 C6 1_555 1_555
H4 C7 1_555 1_555
C8 C7 1_555 1_555
H5 C8 1_555 1_555
C9 C2 1_555 1_555
H6 C9 1_555 1_555
C10 C1 1_555 1_555
H7 C10 1_555 1_555
C11 O1 1_555 1_555
C12 C5 1_555 1_555
C13 C8 1_555 1_555
H8 C13 1_555 1_555
C14 C1 1_555 1_555
H9 C14 1_555 1_555
C15 C2 1_555 1_555
H10 C15 1_555 1_555
C9 C10 1_555 1_555
C11 C12 1_555 1_555
C12 C13 1_555 1_555
C14 C15 1_555 1_555

#END
