
#######################################################################
#
#                 Cambridge Crystallographic Data Centre
#                                CCDC 
#
#######################################################################
#
# If this CIF has been generated from an entry in the Cambridge 
# Structural Database, then it will include bibliographic, chemical, 
# crystal, experimental, refinement or atomic coordinate data resulting 
# from the CCDC's data processing and validation procedures.
#
#######################################################################

data_JAPNEU
_chemical_formula_moiety         'C13 H13 N1 O6'
_chemical_name_systematic        '(E)-Dimethyl 2-(4-nitrobenzylidene)succinate'
_symmetry_cell_setting           triclinic
_symmetry_space_group_name_H-M   'P -1'
_symmetry_Int_Tables_number      2
_space_group_name_Hall           '-P 1'
loop_
_symmetry_equiv_pos_site_id
_symmetry_equiv_pos_as_xyz
1 x,y,z
2 -x,-y,-z
_cell_length_a                   8.136(1)
_cell_length_b                   8.542(2)
_cell_length_c                   10.627(3)
_cell_angle_alpha                84.959(6)
_cell_angle_beta                 73.671(7)
_cell_angle_gamma                69.347(5)
_cell_volume                     663.159
_exptl_crystal_colour            colorless
_exptl_crystal_description       block
_cell_formula_units_Z            2
loop_
_atom_site_label
_atom_site_type_symbol
_atom_site_fract_x
_atom_site_fract_y
_atom_site_fract_z
O1 O 1.2308(3) 0.4270(3) 0.2633(2)
O2 O 1.0988(3) 0.5080(3) 0.1083(2)
O3 O 0.7372(3) -0.0387(3) 0.8507(2)
O4 O 0.5624(2) 0.2212(2) 0.8196(2)
O5 O 0.1702(2) 0.2145(3) 0.6310(2)
O6 O 0.3059(2) 0.0438(2) 0.7717(2)
N1 N 1.1046(3) 0.4465(3) 0.2154(2)
C1 C 0.4922(3) 0.1458(3) 0.6025(2)
C2 C 0.5022(3) 0.2591(3) 0.5088(2)
C3 C 0.6614(3) 0.3040(3) 0.4353(2)
C4 C 0.6687(3) 0.3618(3) 0.3073(2)
C5 C 0.8133(3) 0.4079(3) 0.2340(2)
C6 C 0.9501(3) 0.3972(3) 0.2909(2)
C7 C 0.9451(3) 0.3464(3) 0.4181(2)
C8 C 0.8001(3) 0.3003(3) 0.4904(2)
C9 C 0.6472(3) 0.0243(3) 0.6511(2)
C10 C 0.6553(3) 0.0621(3) 0.7848(2)
C11 C 0.5567(5) 0.2682(4) 0.9485(3)
C12 C 0.3052(3) 0.1401(3) 0.6668(2)
C13 C 0.1288(4) 0.0431(4) 0.8504(3)
H1 H 0.6781 0.2509 0.9529
H2 H 0.3880 0.3208 0.4857
H3 H 0.0671 0.0145 0.7959
H4 H 0.5697 0.3696 0.2691
H5 H 0.8189 0.4472 0.1439
H6 H 1.0426 0.3430 0.4565
H7 H 0.7940 0.2647 0.5813
H8 H 0.6367 -0.0856 0.6539
H9 H 0.7606 0.0229 0.5886
H10 H 0.4836 0.3841 0.9656
H11 H 0.5037 0.2015 1.0133
H12 H 0.1436 -0.0376 0.9189
H13 H 0.0577 0.1523 0.8883
loop_
_geom_bond_atom_site_label_1
_geom_bond_atom_site_label_2
_geom_bond_site_symmetry_1
_geom_bond_site_symmetry_2
O1 N1 1_555 1_555
O2 N1 1_555 1_555
O3 C10 1_555 1_555
O4 C10 1_555 1_555
O5 C12 1_555 1_555
O6 C12 1_555 1_555
N1 C6 1_555 1_555
C1 C2 1_555 1_555
C2 C3 1_555 1_555
C3 C4 1_555 1_555
C4 C5 1_555 1_555
C5 C6 1_555 1_555
C6 C7 1_555 1_555
C7 C8 1_555 1_555
C8 C3 1_555 1_555
C9 C1 1_555 1_555
C10 C9 1_555 1_555
C11 O4 1_555 1_555
C12 C1 1_555 1_555
C13 O6 1_555 1_555
H1 C11 1_555 1_555
H2 C2 1_555 1_555
H3 C13 1_555 1_555
H4 C4 1_555 1_555
H5 C5 1_555 1_555
H6 C7 1_555 1_555
H7 C8 1_555 1_555
H8 C9 1_555 1_555
H9 C9 1_555 1_555
H10 C11 1_555 1_555
H11 C11 1_555 1_555
H12 C13 1_555 1_555
H13 C13 1_555 1_555

#END
