
#######################################################################
#
#                 Cambridge Crystallographic Data Centre
#                                CCDC 
#
#######################################################################
#
# If this CIF has been generated from an entry in the Cambridge 
# Structural Database, then it will include bibliographic, chemical, 
# crystal, experimental, refinement or atomic coordinate data resulting 
# from the CCDC's data processing and validation procedures.
#
#######################################################################

data_JAPNAQ
_chemical_formula_moiety         'C6 H11 F2 N1 O2'
_chemical_name_systematic        L-1,4,6-Trideoxy-4,4-difluoronojirimycin
_symmetry_cell_setting           orthorhombic
_symmetry_space_group_name_H-M   'P 21 21 21'
_symmetry_Int_Tables_number      19
_space_group_name_Hall           'P 2ac 2ab'
loop_
_symmetry_equiv_pos_site_id
_symmetry_equiv_pos_as_xyz
1 x,y,z
2 1/2-x,-y,1/2+z
3 -x,1/2+y,1/2-z
4 1/2+x,1/2-y,-z
_cell_length_a                   9.6285(9)
_cell_length_b                   10.2351(9)
_cell_length_c                   15.0732(13)
_cell_angle_alpha                90
_cell_angle_beta                 90
_cell_angle_gamma                90
_cell_volume                     1485.44
_exptl_crystal_colour            colorless
_chemical_melting_point          '179-182 deg.C'
_cell_formula_units_Z            8
_exptl_crystal_recrystallization_method 'methanol/ethyl acetate'
loop_
_atom_site_label
_atom_site_type_symbol
_atom_site_fract_x
_atom_site_fract_y
_atom_site_fract_z
F1 F 1.07743(13) 0.19193(13) 0.21590(7)
F2 F 1.12445(15) 0.00835(12) 0.28341(10)
N1 N 1.03172(17) 0.31942(15) 0.38635(10)
O1 O 0.67488(15) 0.20412(15) 0.32415(10)
O2 O 0.84917(17) 0.02485(13) 0.22614(9)
C1 C 0.8829(2) 0.29580(19) 0.39377(12)
C2 C 0.8199(2) 0.22372(16) 0.31440(11)
C3 C 0.8980(2) 0.09586(16) 0.29989(11)
C4 C 1.0526(2) 0.12329(17) 0.29338(12)
C5 C 1.1121(2) 0.19996(18) 0.37134(12)
C6 C 1.2652(3) 0.2311(3) 0.35895(16)
H1 H 0.836(3) 0.377(3) 0.4020(15)
H2 H 0.863(2) 0.249(2) 0.4496(16)
H3 H 0.832(2) 0.283(2) 0.2621(12)
H4 H 0.8863(19) 0.042(2) 0.3505(13)
H5 H 1.0983(18) 0.144(2) 0.4228(13)
H6 H 1.279(3) 0.295(3) 0.3089(17)
H7 H 1.325(3) 0.157(4) 0.348(2)
H8 H 1.306(3) 0.273(3) 0.412(2)
H9 H 1.051(2) 0.373(2) 0.3413(14)
H10 H 0.667(3) 0.154(3) 0.3689(16)
H11 H 0.844(4) 0.084(3) 0.1836(19)
F3 F 0.98389(11) 0.35584(12) 1.03253(7)
F4 F 0.77601(12) 0.41949(12) 0.99593(9)
N2 N 1.02820(16) 0.25109(15) 0.85959(9)
O3 O 0.87126(15) -0.03631(13) 0.96842(9)
O4 O 0.78682(14) 0.17688(15) 1.08272(9)
C7 C 0.9749(2) 0.11739(18) 0.86974(11)
C8 C 0.92922(19) 0.09165(16) 0.96494(11)
C9 C 0.82171(17) 0.19321(17) 0.99293(11)
C10 C 0.87695(17) 0.32959(17) 0.97546(11)
C11 C 0.92411(19) 0.35126(19) 0.88009(12)
C12 C 0.9847(3) 0.4869(2) 0.86615(19)
H12 H 1.052(2) 0.057(3) 0.8578(14)
H13 H 0.893(2) 0.100(2) 0.8311(15)
H14 H 1.010(2) 0.101(2) 1.0017(14)
H15 H 0.736(2) 0.184(2) 0.9566(13)
H16 H 0.840(2) 0.338(2) 0.8454(13)
H17 H 0.914(3) 0.553(3) 0.875(2)
H18 H 1.067(4) 0.500(3) 0.902(2)
H19 H 1.022(3) 0.494(3) 0.809(2)
H20 H 1.056(2) 0.268(2) 0.8074(11)
H21 H 0.901(3) -0.071(3) 1.0170(13)
H22 H 0.7041(18) 0.203(2) 1.0858(14)
loop_
_geom_bond_atom_site_label_1
_geom_bond_atom_site_label_2
_geom_bond_site_symmetry_1
_geom_bond_site_symmetry_2
F1 C4 1_555 1_555
F2 C4 1_555 1_555
F3 C10 1_555 1_555
F4 C10 1_555 1_555
N1 C1 1_555 1_555
N2 C7 1_555 1_555
O1 C2 1_555 1_555
O2 C3 1_555 1_555
O3 C8 1_555 1_555
O4 C9 1_555 1_555
C1 C2 1_555 1_555
C2 C3 1_555 1_555
C3 C4 1_555 1_555
C4 C5 1_555 1_555
C5 N1 1_555 1_555
C6 C5 1_555 1_555
C7 C8 1_555 1_555
C8 C9 1_555 1_555
C9 C10 1_555 1_555
C10 C11 1_555 1_555
C11 N2 1_555 1_555
C12 C11 1_555 1_555
H1 C1 1_555 1_555
H2 C1 1_555 1_555
H3 C2 1_555 1_555
H4 C3 1_555 1_555
H5 C5 1_555 1_555
H6 C6 1_555 1_555
H7 C6 1_555 1_555
H8 C6 1_555 1_555
H9 N1 1_555 1_555
H10 O1 1_555 1_555
H11 O2 1_555 1_555
H12 C7 1_555 1_555
H13 C7 1_555 1_555
H14 C8 1_555 1_555
H15 C9 1_555 1_555
H16 C11 1_555 1_555
H17 C12 1_555 1_555
H18 C12 1_555 1_555
H19 C12 1_555 1_555
H20 N2 1_555 1_555
H21 O3 1_555 1_555
H22 O4 1_555 1_555

#END
