
#######################################################################
#
#                 Cambridge Crystallographic Data Centre
#                                CCDC 
#
#######################################################################
#
# If this CIF has been generated from an entry in the Cambridge 
# Structural Database, then it will include bibliographic, chemical, 
# crystal, experimental, refinement or atomic coordinate data resulting 
# from the CCDC's data processing and validation procedures.
#
#######################################################################

data_JAPVOL
_chemical_formula_moiety         'C12 H24 O6 Rb1 1+,Rb1 1-'
_chemical_name_systematic        '(18-Crown-6)-rubidium rubidide'
_symmetry_cell_setting           monoclinic
_symmetry_space_group_name_H-M   'P 21/n'
_symmetry_Int_Tables_number      14
_space_group_name_Hall           '-P 2yn'
loop_
_symmetry_equiv_pos_site_id
_symmetry_equiv_pos_as_xyz
1 x,y,z
2 1/2-x,1/2+y,1/2-z
3 -x,-y,-z
4 1/2+x,1/2-y,1/2+z
_cell_length_a                   14.852(4)
_cell_length_b                   8.614(2)
_cell_length_c                   18.075(4)
_cell_angle_alpha                90
_cell_angle_beta                 95.26(2)
_cell_angle_gamma                90
_cell_volume                     2302.69
_cell_formula_units_Z            4
loop_
_atom_site_label
_atom_site_type_symbol
_atom_site_fract_x
_atom_site_fract_y
_atom_site_fract_z
Rb1 Rb 0.75030(9) 0.3521(2) -0.17282(7)
Rb2 Rb 0.74750(6) 0.1661(1) 0.07977(5)
O1 O 0.8926(4) 0.3229(7) 0.1801(3)
O2 O 0.7093(4) 0.4211(7) 0.1791(3)
O3 O 0.5774(4) 0.1885(7) 0.1568(3)
O4 O 0.6140(5) -0.0803(7) 0.0751(3)
O5 O 0.7987(5) -0.1734(7) 0.0765(3)
O6 O 0.9323(4) 0.0609(8) 0.0963(3)
C1 C 0.8670(6) 0.482(1) 0.1829(5)
C2 C 0.7842(7) 0.494(1) 0.2227(5)
C3 C 0.6285(6) 0.424(1) 0.2124(5)
C4 C 0.5551(6) 0.348(1) 0.1634(5)
C5 C 0.5085(7) 0.106(1) 0.1137(6)
C6 C 0.5326(7) -0.063(1) 0.1121(6)
C7 C 0.6432(7) -0.238(1) 0.0726(6)
C8 C 0.7232(8) -0.245(1) 0.0337(6)
C9 C 0.8793(7) -0.172(1) 0.0387(6)
C10 C 0.9544(7) -0.100(1) 0.0876(6)
C11 C 0.9987(6) 0.139(1) 0.1437(5)
C12 C 0.9739(6) 0.307(1) 0.1455(6)
H1 H 0.855 0.522 0.134
H2 H 0.914 0.540 0.209
H3 H 0.794 0.443 0.269
H4 H 0.771 0.600 0.230
H5 H 0.612 0.529 0.220
H6 H 0.637 0.372 0.259
H7 H 0.500 0.357 0.186
H8 H 0.549 0.396 0.116
H9 H 0.500 0.147 0.065
H10 H 0.454 0.115 0.137
H11 H 0.541 -0.106 0.161
H12 H 0.485 -0.116 0.084
H13 H 0.597 -0.301 0.048
H14 H 0.657 -0.274 0.122
H15 H 0.737 -0.351 0.025
H16 H 0.712 -0.192 -0.012
H17 H 0.869 -0.114 -0.006
H18 H 0.895 -0.276 0.027
H19 H 0.960 -0.151 0.135
H20 H 1.010 -0.110 0.065
H21 H 1.056 0.128 0.125
H22 H 1.001 0.097 0.192
H23 H 1.021 0.364 0.173
H24 H 0.965 0.346 0.096
loop_
_geom_bond_atom_site_label_1
_geom_bond_atom_site_label_2
_geom_bond_site_symmetry_1
_geom_bond_site_symmetry_2
Rb2 O1 1_555 1_555
O1 C1 1_555 1_555
O2 Rb2 1_555 1_555
O3 Rb2 1_555 1_555
O4 Rb2 1_555 1_555
O5 Rb2 1_555 1_555
O6 Rb2 1_555 1_555
C1 C2 1_555 1_555
C2 O2 1_555 1_555
C3 O2 1_555 1_555
C4 O3 1_555 1_555
C5 O3 1_555 1_555
C6 O4 1_555 1_555
C7 O4 1_555 1_555
C8 O5 1_555 1_555
C9 O5 1_555 1_555
C10 O6 1_555 1_555
C11 O6 1_555 1_555
C12 O1 1_555 1_555
H1 C1 1_555 1_555
H2 C1 1_555 1_555
H3 C2 1_555 1_555
H4 C2 1_555 1_555
H5 C3 1_555 1_555
H6 C3 1_555 1_555
H7 C4 1_555 1_555
H8 C4 1_555 1_555
H9 C5 1_555 1_555
H10 C5 1_555 1_555
H11 C6 1_555 1_555
H12 C6 1_555 1_555
H13 C7 1_555 1_555
H14 C7 1_555 1_555
H15 C8 1_555 1_555
H16 C8 1_555 1_555
H17 C9 1_555 1_555
H18 C9 1_555 1_555
H19 C10 1_555 1_555
H20 C10 1_555 1_555
H21 C11 1_555 1_555
H22 C11 1_555 1_555
H23 C12 1_555 1_555
H24 C12 1_555 1_555
C3 C4 1_555 1_555
C5 C6 1_555 1_555
C7 C8 1_555 1_555
C9 C10 1_555 1_555
C11 C12 1_555 1_555

#END
