
#######################################################################
#
#                 Cambridge Crystallographic Data Centre
#                                CCDC 
#
#######################################################################
#
# If this CIF has been generated from an entry in the Cambridge 
# Structural Database, then it will include bibliographic, chemical, 
# crystal, experimental, refinement or atomic coordinate data resulting 
# from the CCDC's data processing and validation procedures.
#
#######################################################################

data_JAQBUZ
_chemical_formula_moiety         
'7(Na1 1+),C104 H104 O48 S8 8-,C32 H53 N2 O4 1+,17(H2 O1)'
_chemical_name_systematic        
'Hepta-sodium rocuronium 6-perdeoxy-6-per(4-carboxylatophenyl)thio-\g-cyclodextrin heptadecahydrate'
_chemical_properties_biological  
'rocuronium bromide is a neuromuscular blocking agent'
_symmetry_cell_setting           monoclinic
_symmetry_space_group_name_H-M   'P 21'
_symmetry_Int_Tables_number      4
_space_group_name_Hall           'P 2yb'
loop_
_symmetry_equiv_pos_site_id
_symmetry_equiv_pos_as_xyz
1 x,y,z
2 -x,1/2+y,-z
_cell_length_a                   25.9377(17)
_cell_length_b                   31.857(2)
_cell_length_c                   26.5255(18)
_cell_angle_alpha                90
_cell_angle_beta                 106.746(2)
_cell_angle_gamma                90
_cell_volume                     20988.4
_exptl_crystal_colour            colorless
_exptl_crystal_description       needle
_cell_formula_units_Z            4
loop_
_atom_site_label
_atom_site_type_symbol
_atom_site_fract_x
_atom_site_fract_y
_atom_site_fract_z
O1 O 1.1650(5) 0.1705(4) 1.0548(5)
C1 C 1.1632(7) 0.2097(4) 1.0803(6)
H1 H 1.1932 0.2108 1.1138
C2 C 1.1695(8) 0.2453(5) 1.0454(6)
H2 H 1.2063 0.2426 1.0410
C3 C 1.1304(7) 0.2418(4) 0.9913(5)
H3 H 1.0930 0.2465 0.9937
C4 C 1.1339(7) 0.1986(4) 0.9692(4)
H4 H 1.1698 0.1945 0.9629
C5 C 1.1247(7) 0.1651(4) 1.0058(5)
H5 H 1.0878 0.1673 1.0103
O2 O 1.1132(5) 0.2142(4) 1.0919(5)
O3 O 1.1680(6) 0.2848(4) 1.0710(5)
O4 O 1.1425(6) 0.2732(5) 0.9571(6)
C6 C 1.1347(8) 0.1218(3) 0.9872(7)
H6 H 1.1731 0.1190 0.9886
H7 H 1.1127 0.1178 0.9503
S1 S 1.1175(2) 0.08230(17) 1.0285(2)
C7 C 1.1493(2) 0.0365(2) 1.0149(5)
C8 C 1.1667(5) 0.0324(3) 0.9703(5)
H8 H 1.1617 0.0549 0.9457
C9 C 1.1915(5) -0.0044(4) 0.9616(5)
H9 H 1.2034 -0.0072 0.9311
C10 C 1.1988(3) -0.0372(3) 0.9975(5)
C11 C 1.1814(5) -0.0332(3) 1.0421(5)
H10 H 1.1864 -0.0556 1.0667
C12 C 1.1566(5) 0.0037(3) 1.0508(4)
H11 H 1.1447 0.0065 1.0814
C13 C 1.2269(4) -0.0784(4) 0.9883(4)
O5 O 1.2432(6) -0.0798(4) 0.9506(5)
O6 O 1.2305(6) -0.1060(3) 1.0196(5)
O7 O 1.1018(5) 0.1899(4) 1.2231(5)
C14 C 1.0709(5) 0.2243(4) 1.2332(7)
H12 H 1.0816 0.2297 1.2720
C15 C 1.0812(8) 0.2634(4) 1.2056(7)
H13 H 1.1189 0.2726 1.2236
C16 C 1.0772(8) 0.2572(4) 1.1483(7)
H14 H 1.0392 0.2501 1.1284
C17 C 1.1134(7) 0.2209(4) 1.1449(6)
H15 H 1.1509 0.2286 1.1656
C18 C 1.0977(8) 0.1821(4) 1.1693(6)
H16 H 1.0593 0.1753 1.1504
O8 O 1.0149(5) 0.2141(4) 1.2162(5)
O9 O 1.0461(6) 0.2965(4) 1.2120(6)
O10 O 1.0936(7) 0.2945(4) 1.1266(6)
C19 C 1.1320(7) 0.1444(3) 1.1662(10)
H17 H 1.1677 0.1471 1.1925
H18 H 1.1375 0.1429 1.1308
S2 S 1.0987(3) 0.09727(19) 1.1788(3)
C20 C 1.1459(4) 0.0574(3) 1.1806(2)
C21 C 1.1304(4) 0.0174(3) 1.1913(4)
H19 H 1.0962 0.0132 1.1970
C22 C 1.1648(5) -0.0164(3) 1.1936(5)
H20 H 1.1542 -0.0438 1.2009
C23 C 1.2147(4) -0.0103(3) 1.1852(3)
C24 C 1.2303(4) 0.0297(4) 1.1745(5)
H21 H 1.2644 0.0339 1.1687
C25 C 1.1959(5) 0.0636(3) 1.1722(5)
H22 H 1.2065 0.0909 1.1648
C26 C 1.2537(5) -0.0480(4) 1.1876(3)
O11 O 1.2417(5) -0.0804(3) 1.2037(6)
O12 O 1.2924(4) -0.0418(4) 1.1732(5)
O13 O 0.9220(5) 0.1619(4) 1.2768(5)
C27 C 0.8899(5) 0.1968(4) 1.2818(6)
H23 H 0.8702 0.1902 1.3081
C28 C 0.9243(6) 0.2351(4) 1.2994(8)
H24 H 0.9498 0.2298 1.3350
C29 C 0.9559(6) 0.2442(5) 1.2613(8)
H25 H 0.9311 0.2524 1.2264
C30 C 0.9881(6) 0.2062(5) 1.2555(7)
H26 H 1.0159 0.2008 1.2898
C31 C 0.9529(6) 0.1679(4) 1.2408(7)
H27 H 0.9278 0.1718 1.2046
O14 O 0.8521(5) 0.2053(4) 1.2321(5)
O15 O 0.8916(6) 0.2709(4) 1.3022(6)
O16 O 0.9920(6) 0.2781(4) 1.2828(6)
C32 C 0.9849(6) 0.1276(4) 1.2419(9)
H28 H 1.0070 0.1217 1.2784
H29 H 1.0095 0.1310 1.2197
S3 S 0.9395(2) 0.08449(19) 1.2178(2)
C33 C 0.9776(6) 0.0392(3) 1.2393(3)
C34 C 1.0327(5) 0.0377(4) 1.2641(6)
H30 H 1.0531 0.0629 1.2708
C35 C 1.0579(5) -0.0007(5) 1.2792(6)
H31 H 1.0955 -0.0017 1.2962
C36 C 1.0280(7) -0.0375(3) 1.2695(4)
C37 C 0.9730(7) -0.0360(3) 1.2447(6)
H32 H 0.9526 -0.0613 1.2381
C38 C 0.9478(5) 0.0023(4) 1.2296(5)
H33 H 0.9102 0.0034 1.2127
C39 C 1.0546(7) -0.0812(5) 1.2856(5)
O17 O 1.0264(9) -0.1087(4) 1.2925(10)
O18 O 1.1013(7) -0.0841(6) 1.2897(9)
O19 O 0.7154(5) 0.1609(4) 1.1804(5)
C40 C 0.6907(7) 0.1987(4) 1.1569(4)
H34 H 0.6508 0.1955 1.1487
C41 C 0.7082(6) 0.2345(4) 1.1950(7)
H35 H 0.7006 0.2272 1.2289
C42 C 0.7679(6) 0.2408(5) 1.2051(7)
H36 H 0.7758 0.2484 1.1716
C43 C 0.7960(5) 0.2005(5) 1.2264(7)
H37 H 0.7914 0.1955 1.2621
C44 C 0.7726(5) 0.1635(4) 1.1919(7)
H38 H 0.7822 0.1658 1.1581
O20 O 0.7032(5) 0.2090(4) 1.1093(5)
O21 O 0.6799(6) 0.2724(4) 1.1743(6)
O22 O 0.7837(6) 0.2746(5) 1.2425(6)
C45 C 0.7932(8) 0.1220(4) 1.2180(6)
H39 H 0.7805 0.1178 1.2495
H40 H 0.8331 0.1218 1.2293
S4 S 0.7681(3) 0.08069(19) 1.1710(2)
C46 C 0.7924(3) 0.0342(3) 1.2044(5)
C47 C 0.8239(5) 0.0306(3) 1.2564(5)
H41 H 0.8341 0.0550 1.2774
C48 C 0.8403(5) -0.0087(4) 1.2777(4)
H42 H 0.8617 -0.0112 1.3132
C49 C 0.8252(4) -0.0445(3) 1.2469(6)
C50 C 0.7938(5) -0.0409(3) 1.1949(5)
H43 H 0.7835 -0.0654 1.1739
C51 C 0.7774(5) -0.0016(4) 1.1737(4)
H44 H 0.7559 0.0009 1.1381
C52 C 0.8434(5) -0.0887(4) 1.2704(5)
O23 O 0.8300(7) -0.1182(4) 1.2424(6)
O24 O 0.8699(7) -0.0900(5) 1.3152(5)
O25 O 0.6258(5) 0.1809(4) 0.9738(5)
C53 C 0.6283(7) 0.2195(4) 0.9478(6)
H45 H 0.5971 0.2208 0.9153
C54 C 0.6226(8) 0.2545(5) 0.9838(6)
H46 H 0.5864 0.2523 0.9896
C55 C 0.6646(8) 0.2529(5) 1.0365(6)
H47 H 0.7013 0.2566 1.0321
C56 C 0.6605(7) 0.2109(5) 1.0614(4)
H48 H 0.6251 0.2087 1.0691
C57 C 0.6651(7) 0.1767(4) 1.0236(5)
H49 H 0.7018 0.1780 1.0184
O26 O 0.6769(5) 0.2226(4) 0.9327(4)
O27 O 0.6253(6) 0.2938(5) 0.9581(6)
O28 O 0.6535(7) 0.2858(5) 1.0690(6)
C58 C 0.6572(9) 0.1337(4) 1.0449(7)
H50 H 0.6198 0.1307 1.0468
H51 H 0.6822 0.1299 1.0806
S5 S 0.6707(4) 0.0953(2) 1.0006(3)
C59 C 0.6661(5) 0.0469(3) 1.0295(5)
C60 C 0.6379(6) 0.0401(5) 1.0661(6)
H52 H 0.6196 0.0627 1.0769
C61 C 0.6365(7) 0.0003(6) 1.0871(6)
H53 H 0.6172 -0.0043 1.1121
C62 C 0.6632(6) -0.0328(4) 1.0714(6)
C63 C 0.6914(7) -0.0260(4) 1.0347(7)
H54 H 0.7097 -0.0487 1.0240
C64 C 0.6928(6) 0.0138(5) 1.0138(6)
H55 H 0.7120 0.0184 0.9888
C65 C 0.6621(7) -0.0776(5) 1.0945(6)
O29 O 0.6952(9) -0.1018(5) 1.0900(10)
O30 O 0.6281(9) -0.0846(7) 1.1153(10)
O31 O 0.6865(5) 0.1784(4) 0.8079(5)
C66 C 0.7186(5) 0.2088(4) 0.7921(7)
H56 H 0.7105 0.2078 0.7529
C67 C 0.7056(7) 0.2519(4) 0.8080(6)
H57 H 0.6678 0.2589 0.7875
C68 C 0.7099(7) 0.2540(4) 0.8657(6)
H58 H 0.7477 0.2472 0.8863
C69 C 0.6728(7) 0.2216(5) 0.8779(5)
H59 H 0.6350 0.2291 0.8578
C70 C 0.6845(8) 0.1782(5) 0.8613(6)
H60 H 0.7209 0.1698 0.8841
O32 O 0.7745(5) 0.1999(4) 0.8152(4)
O33 O 0.7411(6) 0.2820(4) 0.7949(5)
O34 O 0.6973(5) 0.2955(4) 0.8792(5)
C71 C 0.6444(7) 0.1449(4) 0.8672(9)
H61 H 0.6082 0.1515 0.8434
H62 H 0.6420 0.1449 0.9038
S6 S 0.6648(4) 0.0943(3) 0.8517(4)
C72 C 0.6185(7) 0.0579(4) 0.8605(4)
C73 C 0.6309(12) 0.0154(4) 0.8615(13)
H63 H 0.6645 0.0066 0.8573
C74 C 0.5943(15) -0.0142(6) 0.8685(14)
H64 H 0.6028 -0.0433 0.8691
C75 C 0.5452(13) -0.0014(10) 0.8746(8)
C76 C 0.5328(11) 0.0411(11) 0.8736(16)
H65 H 0.4993 0.0499 0.8778
C77 C 0.5695(8) 0.0708(8) 0.8666(15)
H66 H 0.5610 0.0998 0.8660
C78 C 0.5106(11) -0.0396(9) 0.8818(11)
O35 O 0.523(2) -0.0732(8) 0.869(2)
O36 O 0.4742(16) -0.0326(14) 0.899(2)
O37 O 0.8732(5) 0.1347(4) 0.7743(5)
C79 C 0.9030(5) 0.1659(4) 0.7565(6)
H67 H 0.9216 0.1528 0.7322
C80 C 0.8664(6) 0.2003(4) 0.7280(7)
H68 H 0.8410 0.1873 0.6961
C81 C 0.8328(6) 0.2177(5) 0.7606(6)
H69 H 0.8576 0.2321 0.7917
C82 C 0.8038(5) 0.1837(4) 0.7812(6)
H70 H 0.7771 0.1706 0.7502
C83 C 0.8430(6) 0.1501(4) 0.8077(6)
H71 H 0.8692 0.1632 0.8391
O38 O 0.9417(5) 0.1849(4) 0.7995(4)
O39 O 0.8963(5) 0.2319(4) 0.7099(5)
O40 O 0.7963(5) 0.2486(4) 0.7309(5)
C84 C 0.8181(5) 0.1127(4) 0.8271(7)
H72 H 0.7929 0.0981 0.7970
H73 H 0.7976 0.1221 0.8514
S7 S 0.8715(2) 0.0774(2) 0.8610(3)
C85 C 0.8379(5) 0.0338(3) 0.8766(3)
C86 C 0.8581(5) -0.0055(4) 0.8692(5)
H74 H 0.8886 -0.0075 0.8564
C87 C 0.8336(6) -0.0416(3) 0.8807(6)
H75 H 0.8474 -0.0684 0.8756
C88 C 0.7890(6) -0.0385(4) 0.8995(4)
C89 C 0.7688(5) 0.0007(5) 0.9068(6)
H76 H 0.7383 0.0028 0.9197
C90 C 0.7932(6) 0.0368(4) 0.8954(5)
H77 H 0.7794 0.0636 0.9004
C91 C 0.7634(5) -0.0803(5) 0.9114(6)
O41 O 0.7662(9) -0.1099(4) 0.8849(8)
O42 O 0.7429(9) -0.0800(7) 0.9459(8)
O43 O 1.0797(5) 0.1464(4) 0.8565(5)
C92 C 1.1060(7) 0.1854(4) 0.8740(4)
H78 H 1.1459 0.1826 0.8812
C93 C 1.0838(6) 0.2184(4) 0.8328(7)
H79 H 1.0936 0.2104 0.8003
C94 C 1.0235(6) 0.2219(4) 0.8185(6)
H80 H 1.0140 0.2323 0.8503
C95 C 0.9974(5) 0.1797(4) 0.8045(6)
H81 H 1.0015 0.1709 0.7696
C96 C 1.0226(5) 0.1469(4) 0.8448(7)
H82 H 1.0131 0.1534 0.8779
O44 O 1.0923(5) 0.1969(4) 0.9207(5)
O45 O 1.1095(6) 0.2577(4) 0.8513(6)
O46 O 1.0009(6) 0.2506(4) 0.7763(5)
C97 C 1.0035(9) 0.1028(4) 0.8276(6)
H83 H 1.0176 0.0941 0.7983
H84 H 0.9637 0.1025 0.8146
S8 S 1.0256(2) 0.06601(17) 0.8813(2)
C98 C 1.0005(3) 0.0175(2) 0.8542(5)
C99 C 1.0076(4) -0.0164(4) 0.8885(4)
H85 H 1.0255 -0.0126 0.9249
C100 C 0.9887(5) -0.0559(3) 0.8696(5)
H86 H 0.9936 -0.0790 0.8931
C101 C 0.9625(4) -0.0614(3) 0.8164(6)
C102 C 0.9554(5) -0.0275(4) 0.7821(4)
H87 H 0.9375 -0.0314 0.7457
C103 C 0.9743(5) 0.0119(3) 0.8010(5)
H88 H 0.9694 0.0351 0.7775
C104 C 0.9403(4) -0.1049(4) 0.7930(6)
O47 O 0.9374(7) -0.1315(4) 0.8235(7)
O48 O 0.9276(7) -0.1085(5) 0.7465(5)
O49 O 0.4242(12) 0.7939(5) 0.7279(10)
C105 C 0.9707(9) 0.2580(6) 0.9966(10)
H89 H 0.9692 0.2639 1.0328
H90 H 0.9951 0.2338 0.9978
C106 C 0.9901(10) 0.2959(6) 0.9736(10)
H91 H 0.9691 0.3205 0.9793
H92 H 1.0282 0.3010 0.9935
O50 O 0.9865(7) 0.2940(4) 0.9190(7)
C107 C 0.9322(10) 0.2824(7) 0.8859(10)
H93 H 0.9066 0.3052 0.8872
H94 H 0.9328 0.2793 0.8490
C108 C 0.9145(10) 0.2446(6) 0.9030(9)
H95 H 0.9389 0.2215 0.8999
H96 H 0.8780 0.2378 0.8803
N1 N 0.9136(7) 0.2484(5) 0.9598(7)
C109 C 0.8836(8) 0.2126(5) 0.9782(9)
H97 H 0.8511 0.2057 0.9485
C110 C 0.9166(8) 0.1724(5) 0.9934(8)
H98 H 0.9548 0.1800 1.0095
H99 H 0.9143 0.1560 0.9612
C111 C 0.8977(8) 0.1446(6) 1.0324(8)
C112 C 0.8405(9) 0.1519(6) 1.0260(9)
H100 H 0.8210 0.1453 0.9885
C113 C 0.8265(9) 0.1988(6) 1.0359(10)
H101 H 0.7892 0.2049 1.0145
H102 H 0.8281 0.2022 1.0734
C114 C 0.8646(8) 0.2302(5) 1.0220(8)
H103 H 0.8958 0.2365 1.0534
C115 C 0.9414(8) 0.1547(5) 1.0867(8)
H104 H 0.9774 0.1484 1.0837
H105 H 0.9344 0.1375 1.1146
H106 H 0.9393 0.1845 1.0952
O51 O 0.8332(6) 0.2686(4) 1.0028(6)
C116 C 0.9067(8) 0.0987(5) 1.0199(8)
H107 H 0.8838 0.0945 0.9829
C117 C 0.8818(8) 0.0682(6) 1.0541(9)
H108 H 0.9049 0.0723 1.0911
C118 C 0.8299(7) 0.0772(5) 1.0557(9)
H109 H 0.8236 0.0625 1.0862
H110 H 0.8042 0.0658 1.0235
C119 C 0.8181(9) 0.1232(6) 1.0597(9)
H111 H 0.8328 0.1319 1.0969
H112 H 0.7785 0.1270 1.0499
C120 C 0.9633(8) 0.0844(6) 1.0198(8)
H113 H 0.9922 0.1038 1.0265
C121 C 0.9720(8) 0.0389(5) 1.0087(8)
H114 H 1.0109 0.0336 1.0141
H115 H 0.9526 0.0322 0.9716
C122 C 0.9512(8) 0.0106(6) 1.0458(8)
C123 C 0.8937(8) 0.0212(6) 1.0398(9)
H116 H 0.8758 0.0190 1.0011
C124 C 0.9894(10) 0.0156(6) 1.1036(9)
H117 H 0.9765 -0.0024 1.1274
H118 H 0.9894 0.0449 1.1147
H119 H 1.0261 0.0073 1.1047
C125 C 0.9504(7) -0.0358(6) 1.0361(9)
H120 H 0.9503 -0.0403 0.9988
C126 C 0.8924(8) -0.0512(5) 1.0417(9)
H121 H 0.8688 -0.0542 1.0047
C127 C 0.8687(9) -0.0155(5) 1.0640(9)
H122 H 0.8809 -0.0152 1.1030
H123 H 0.8289 -0.0155 1.0515
O52 O 0.9913(6) -0.0599(4) 1.0678(6)
C128 C 1.0335(10) -0.0710(7) 1.0522(12)
N2 N 0.8922(7) -0.0931(5) 1.0657(7)
C129 C 0.9122(10) -0.1280(6) 1.0358(8)
H124 H 0.9520 -0.1266 1.0454
H125 H 0.9026 -0.1555 1.0480
C130 C 0.8902(11) -0.1263(7) 0.9764(9)
H126 H 0.8524 -0.1275 0.9604
C131 C 0.9218(11) -0.1231(6) 0.9476(10)
H127 H 0.9596 -0.1219 0.9633
H128 H 0.9075 -0.1221 0.9103
C132 C 0.8371(10) -0.1039(7) 1.0676(10)
H129 H 0.8167 -0.1175 1.0342
H130 H 0.8177 -0.0782 1.0723
C133 C 0.8416(10) -0.1348(7) 1.1149(9)
H131 H 0.8102 -0.1322 1.1288
H132 H 0.8451 -0.1643 1.1047
C134 C 0.8886(10) -0.1207(8) 1.1513(10)
H133 H 0.9094 -0.1452 1.1693
H134 H 0.8790 -0.1034 1.1783
C135 C 0.9216(10) -0.0964(7) 1.1272(9)
H135 H 0.9572 -0.1100 1.1332
H136 H 0.9273 -0.0680 1.1429
O53 O 1.0372(6) -0.0609(6) 1.0079(8)
C136 C 1.0737(10) -0.0922(8) 1.0950(12)
Na1 Na 0.6302(3) 0.3446(3) 0.8297(3)
Na2 Na 0.8415(3) 0.2912(3) 0.6792(3)
Na3 Na 0.3223(6) 0.3385(5) 0.7581(5)
Na4 Na 0.9395(6) 0.3370(6) 1.3088(6)
Na5 Na 0.5482(6) 0.3429(5) 0.9423(6)
Na6 Na 0.7316(7) 0.3398(6) 1.2084(7)
Na7 Na 0.7348(7) 0.3155(6) 0.9823(7)
Na8 Na 0.7880(9) 0.4144(7) 0.7013(8)
Na9 Na 0.7521(9) -0.1818(8) 0.8753(9)
Na10 Na 1.1328(13) 0.2978(11) 0.7653(13)
Na11 Na 0.8629(16) -0.1565(14) 0.7029(16)
Na12 Na 1.1831(13) 0.3430(11) 1.2003(13)
Na13 Na 0.722(2) 0.4177(19) 0.357(2)
Na14 Na 1.0641(14) 0.3580(12) 1.4002(14)
O54 O 0.6887(5) 0.3549(4) 0.7716(5)
O55 O 0.5833(6) 0.2990(5) 0.7602(6)
O56 O 0.6776(6) 0.3980(5) 0.8874(6)
O57 O 0.5482(7) 0.3359(6) 0.8553(7)
O58 O 0.7733(7) 0.3382(6) 0.6530(7)
O59 O 0.8746(8) 0.3344(7) 0.7597(8)
O60 O 0.9072(9) 0.3276(8) 0.6501(9)
O61 O 0.2482(12) 0.2922(10) 0.7160(12)
O62 O 0.655(2) -0.1463(17) 0.810(2)
O63 O 0.2720(9) 0.3485(7) 0.8173(9)
O64 O 0.699(2) -0.2021(19) 0.930(2)
O65 O 0.9857(14) 0.3133(12) 1.3907(14)
O66 O 1.0097(16) 0.3879(13) 1.3247(15)
O67 O 0.878(3) 0.389(2) 1.333(3)
O68 O 0.3965(15) 0.3165(13) 0.8300(15)
O69 O 0.7354(16) -0.1198(11) 0.8089(15)
O70 O 0.8159(9) 0.2549(8) 0.5954(9)
O71 O 0.6020(10) 0.4048(9) 0.9446(10)
O72 O 0.4896(10) 0.2779(9) 0.9274(10)
O73 O 0.5632(15) 0.3402(13) 1.0283(15)
O74 O 1.1133(19) 0.3157(16) 1.4689(19)
O75 O 0.7020(12) 0.3296(11) 1.2813(12)
O76 O 0.798(2) 0.3768(17) 1.239(2)
O77 O 0.664(3) 0.389(2) 1.166(3)
O78 O 0.796(3) -0.229(2) 0.681(3)
O79 O 0.8994(14) 0.3453(12) 1.2156(14)
O80 O 1.162(2) -0.0475(18) 1.3540(19)
O81 O 0.5065(14) 0.3817(12) 0.8892(14)
O82 O 1.0404(15) 0.2547(12) 0.6881(15)
O83 O 1.213(2) 0.2428(17) 0.775(2)
O84 O 0.8389(15) 0.3484(13) 0.9421(15)
O85 O 0.9068(19) -0.1944(16) 0.6614(19)
O86 O 0.9889(8) 0.3321(7) 0.7986(8)
O87 O 0.8203(10) 0.3468(9) 0.8372(10)
O88? O 0.3409(6) 0.5161(5) 0.7397(6)
C137? C 0.3728(6) 0.4819(6) 0.7667(9)
H137? H 0.3895 0.4889 0.8047
C138? C 0.3360(8) 0.4457(6) 0.7610(9)
H138? H 0.3066 0.4524 0.7771
C139? C 0.3125(9) 0.4353(6) 0.7046(9)
H139? H 0.3409 0.4284 0.6873
C140? C 0.2799(8) 0.4719(6) 0.6797(8)
H140? H 0.2497 0.4767 0.6954
C141? C 0.3137(8) 0.5100(5) 0.6850(7)
H141? H 0.3415 0.5049 0.6663
O89? O 0.4134(6) 0.4743(5) 0.7408(5)
O90? O 0.3680(7) 0.4105(5) 0.7890(7)
O91? O 0.2775(7) 0.3994(6) 0.7049(8)
C142? C 0.2829(7) 0.5506(4) 0.6622(11)
H142? H 0.2563 0.5574 0.6813
H143? H 0.2633 0.5465 0.6246
S9? S 0.3306(3) 0.5928(3) 0.6694(5)
C143? C 0.2925(4) 0.6385(3) 0.6573(3)
C144? C 0.2366(4) 0.6366(3) 0.6395(6)
H144? H 0.2190 0.6102 0.6338
C145? C 0.2066(4) 0.6735(4) 0.6299(6)
H145? H 0.1684 0.6722 0.6177
C146? C 0.2325(5) 0.7121(3) 0.6382(3)
C147? C 0.2883(5) 0.7140(3) 0.6561(6)
H146? H 0.3060 0.7405 0.6618
C148? C 0.3184(4) 0.6772(3) 0.6656(6)
H147? H 0.3565 0.6785 0.6778
C149? C 0.1997(6) 0.7532(5) 0.6280(4)
O92? O 0.1519(5) 0.7511(5) 0.6197(7)
O93? O 0.2241(6) 0.7854(4) 0.6290(7)
O94? O 0.5514(6) 0.5146(4) 0.7735(6)
C150? C 0.5784(8) 0.4766(5) 0.7671(6)
H148? H 0.6176 0.4786 0.7863
C151? C 0.5539(7) 0.4409(5) 0.7876(9)
H149? H 0.5616 0.4457 0.8263
C152? C 0.4945(7) 0.4373(5) 0.7665(9)
H150? H 0.4855 0.4291 0.7286
C153? C 0.4692(6) 0.4786(5) 0.7699(9)
H151? H 0.4718 0.4844 0.8076
C154? C 0.4941(6) 0.5139(5) 0.7489(9)
H152? H 0.4883 0.5085 0.7106
O95? O 0.5711(5) 0.4680(4) 0.7121(5)
O96? O 0.5804(6) 0.4015(4) 0.7818(6)
O97? O 0.4744(6) 0.4047(5) 0.7949(7)
C155? C 0.4723(10) 0.5584(4) 0.7543(9)
H153? H 0.4822 0.5668 0.7918
H154? H 0.4326 0.5588 0.7402
S10? S 0.5019(4) 0.5939(2) 0.7176(4)
C156? C 0.4799(4) 0.6436(3) 0.7295(4)
C157? C 0.4470(7) 0.6480(4) 0.7623(6)
H155? H 0.4366 0.6239 0.7781
C158? C 0.4294(7) 0.6876(4) 0.7719(7)
H156? H 0.4069 0.6906 0.7943
C159? C 0.4447(5) 0.7228(3) 0.7487(6)
C160? C 0.4776(7) 0.7184(3) 0.7160(7)
H157? H 0.4881 0.7424 0.7001
C161? C 0.4952(7) 0.6788(3) 0.7063(7)
H158? H 0.5177 0.6758 0.6839
C162? C 0.4250(6) 0.7667(5) 0.7594(7)
O98? O 0.4114(11) 0.7716(6) 0.7985(9)
O99? O 0.6782(6) 0.4943(4) 0.6527(5)
C163? C 0.6736(8) 0.4600(5) 0.6166(5)
H159? H 0.7098 0.4550 0.6112
C164? C 0.6567(8) 0.4207(5) 0.6378(7)
H160? H 0.6876 0.4100 0.6668
C165? C 0.6096(8) 0.4261(4) 0.6582(7)
H161? H 0.5773 0.4323 0.6278
C166? C 0.6186(7) 0.4622(5) 0.6950(6)
H162? H 0.6503 0.4565 0.7261
C167? C 0.6291(7) 0.4999(5) 0.6669(7)
H163? H 0.5984 0.5051 0.6347
O100? O 0.6373(6) 0.4736(5) 0.5675(5)
O101? O 0.6447(6) 0.3905(4) 0.5945(5)
O102? O 0.5983(6) 0.3885(4) 0.6850(5)
C168? C 0.6402(10) 0.5393(4) 0.7022(7)
H164? H 0.6750 0.5359 0.7298
H165? H 0.6116 0.5422 0.7200
S11? S 0.6423(5) 0.5861(3) 0.6645(4)
C169? C 0.6613(4) 0.6258(3) 0.7114(5)
C170? C 0.6715(13) 0.6661(4) 0.6966(7)
H166? H 0.6681 0.6721 0.6608
C171? C 0.6867(13) 0.6975(4) 0.7344(8)
H167? H 0.6937 0.7250 0.7243
C172? C 0.6917(7) 0.6886(5) 0.7869(7)
C173? C 0.6815(13) 0.6483(6) 0.8016(6)
H168? H 0.6849 0.6422 0.8375
C174? C 0.6663(13) 0.6169(5) 0.7639(6)
H169? H 0.6594 0.5893 0.7740
C175? C 0.7085(9) 0.7234(7) 0.8288(9)
O103? O 0.6925(14) 0.7216(9) 0.8668(10)
O104? O 0.7370(16) 0.7510(9) 0.8217(13)
O105? O 0.6536(9) 0.5280(6) 0.4526(7)
C176? C 0.6383(9) 0.4937(7) 0.4163(8)
H170? H 0.6508 0.5007 0.3850
C177? C 0.6670(11) 0.4551(6) 0.4401(8)
H171? H 0.7071 0.4581 0.4506
C178? C 0.6459(11) 0.4446(6) 0.4850(8)
H172? H 0.6065 0.4385 0.4726
C179? C 0.6575(10) 0.4800(6) 0.5230(6)
H173? H 0.6976 0.4827 0.5368
C180? C 0.6363(11) 0.5208(6) 0.4986(8)
H174? H 0.5961 0.5198 0.4880
O106? O 0.5805(8) 0.4918(7) 0.3985(7)
O107? O 0.6469(9) 0.4232(7) 0.3992(8)
O108? O 0.6765(9) 0.4075(6) 0.5093(8)
C181? C 0.6555(12) 0.5592(6) 0.5347(10)
H175? H 0.6946 0.5631 0.5397
H176? H 0.6507 0.5529 0.5696
S12? S 0.6220(5) 0.6080(3) 0.5116(5)
O109? O 0.4845(10) 0.5491(7) 0.2944(8)
C182? C 0.4509(9) 0.5148(9) 0.2690(13)
H177? H 0.4309 0.5256 0.2334
C183? C 0.4860(14) 0.4811(10) 0.2591(13)
H178? H 0.5082 0.4904 0.2359
C184? C 0.5192(12) 0.4711(9) 0.3133(13)
H179? H 0.4938 0.4616 0.3331
C185? C 0.5532(9) 0.5044(7) 0.3453(8)
H180? H 0.5784 0.5170 0.3272
C186? C 0.5092(8) 0.5336(7) 0.3468(9)
H181? H 0.4846 0.5247 0.3678
O110? O 0.4102(10) 0.4999(7) 0.2916(8)
O111? O 0.4573(15) 0.4416(12) 0.2414(15)
O112? O 0.5606(13) 0.4387(10) 0.3202(12)
C187? C 0.5430(9) 0.5735(5) 0.3651(10)
H182? H 0.5619 0.5802 0.3386
H183? H 0.5708 0.5670 0.3984
S13? S 0.5079(5) 0.6196(4) 0.3753(5)
C188? C 0.5080(4) 0.6538(4) 0.3241(5)
C189? C 0.4973(10) 0.6388(5) 0.2729(6)
H184? H 0.4899 0.6098 0.2658
C190? C 0.4975(10) 0.6661(6) 0.2321(6)
H185? H 0.4902 0.6559 0.1971
C191? C 0.5083(6) 0.7085(5) 0.2426(6)
C192? C 0.5190(11) 0.7235(4) 0.2937(7)
H186? H 0.5264 0.7525 0.3009
C193? C 0.5189(10) 0.6961(4) 0.3345(6)
H187? H 0.5262 0.7064 0.3695
C194? C 0.5085(7) 0.7391(6) 0.1975(8)
O113? O 0.5152(12) 0.7758(6) 0.2080(9)
O114? O 0.5020(13) 0.7253(8) 0.1541(7)
C195? C 0.5430(9) 0.5735(5) 0.3651(10)
H188? H 0.5529 0.5679 0.4034
H189? H 0.5126 0.5935 0.3593
S14? S 0.5945(9) 0.6113(6) 0.3666(8)
C196? C 0.5718(7) 0.6470(5) 0.3155(7)
C197? C 0.6048(8) 0.6579(9) 0.2845(10)
H190? H 0.6396 0.6458 0.2912
C198? C 0.5867(10) 0.6865(9) 0.2436(11)
H191? H 0.6092 0.6939 0.2224
C199? C 0.5357(9) 0.7041(7) 0.2337(9)
C200? C 0.5028(9) 0.6932(9) 0.2647(11)
H192? H 0.4680 0.7053 0.2580
C201? C 0.5209(8) 0.6646(8) 0.3056(10)
H193? H 0.4984 0.6572 0.3268
C202? C 0.5158(13) 0.7359(10) 0.1883(12)
O115? O 0.4743(13) 0.7548(12) 0.1807(15)
O116? O 0.5503(14) 0.7440(13) 0.1679(15)
O117? O 0.2726(9) 0.5397(7) 0.2676(9)
C203? C 0.2438(11) 0.5007(7) 0.2603(8)
H194? H 0.2052 0.5047 0.2398
C204? C 0.2704(10) 0.4696(8) 0.2350(13)
H195? H 0.2651 0.4781 0.1976
C205? C 0.3289(10) 0.4675(8) 0.2620(11)
H196? H 0.3350 0.4556 0.2981
C206? C 0.3546(8) 0.5094(8) 0.2655(12)
H197? H 0.3509 0.5205 0.2294
C207? C 0.3293(9) 0.5389(6) 0.2947(12)
H198? H 0.3336 0.5266 0.3303
O118? O 0.2486(8) 0.4829(7) 0.3113(8)
O119? O 0.2369(10) 0.4327(8) 0.2360(10)
O120? O 0.3445(12) 0.4369(8) 0.2281(10)
C208? C 0.3535(11) 0.5838(5) 0.3029(11)
H199? H 0.3498 0.5980 0.2688
H200? H 0.3919 0.5833 0.3236
S15? S 0.3131(3) 0.6085(2) 0.3385(3)
C209? C 0.3295(3) 0.6617(3) 0.3427(3)
C210? C 0.3724(4) 0.6767(3) 0.3266(4)
H201? H 0.3935 0.6579 0.3130
C211? C 0.3845(4) 0.7193(3) 0.3304(5)
H202? H 0.4139 0.7296 0.3193
C212? C 0.3537(4) 0.7468(3) 0.3503(3)
C213? C 0.3107(4) 0.7318(3) 0.3664(5)
H203? H 0.2896 0.7506 0.3800
C214? C 0.2986(4) 0.6892(3) 0.3626(4)
H204? H 0.2692 0.6788 0.3736
C215? C 0.3663(4) 0.7943(5) 0.3549(3)
O121? O 0.3373(5) 0.8161(4) 0.3723(6)
O122? O 0.4035(5) 0.8074(4) 0.3417(5)
O123? O 0.1355(8) 0.5043(6) 0.3768(8)
C216? C 0.1443(12) 0.4631(7) 0.3993(7)
H205? H 0.1105 0.4571 0.4089
C217? C 0.1463(13) 0.4291(8) 0.3619(11)
H206? H 0.1164 0.4320 0.3285
C218? C 0.1990(13) 0.4385(7) 0.3531(12)
H207? H 0.2293 0.4352 0.3862
C219? C 0.2009(11) 0.4799(8) 0.3284(11)
H208? H 0.1711 0.4783 0.2947
C220? C 0.1819(11) 0.5120(8) 0.3591(13)
H209? H 0.2121 0.5146 0.3924
O124? O 0.1851(7) 0.4637(7) 0.4492(8)
O125? O 0.1390(10) 0.3915(8) 0.3910(9)
O126? O 0.1996(11) 0.4052(9) 0.3154(11)
C221? C 0.1779(8) 0.5562(6) 0.3340(10)
H210? H 0.1469 0.5564 0.3019
H211? H 0.2108 0.5610 0.3229
S16? S 0.1705(4) 0.5992(4) 0.3754(5)
C222? C 0.1021(5) 0.6102(4) 0.3579(4)
C223? C 0.0844(6) 0.6496(4) 0.3681(7)
H212? H 0.1097 0.6705 0.3846
C224? C 0.0296(6) 0.6585(5) 0.3540(7)
H213? H 0.0175 0.6854 0.3610
C225? C -0.0075(5) 0.6279(6) 0.3298(5)
C226? C 0.0102(5) 0.5885(6) 0.3196(7)
H214? H -0.0151 0.5675 0.3030
C227? C 0.0650(5) 0.5796(4) 0.3336(7)
H215? H 0.0771 0.5527 0.3266
C228? C -0.0683(7) 0.6374(8) 0.3139(7)
O127? O -0.0825(8) 0.6733(8) 0.3137(14)
O128? O -0.0990(6) 0.6084(9) 0.3022(14)
O129? O 0.1699(9) 0.4747(7) 0.5852(9)
C229? C 0.2086(8) 0.4422(7) 0.6052(10)
H216? H 0.2004 0.4318 0.6376
C230? C 0.2076(12) 0.4042(8) 0.5726(8)
H217? H 0.1725 0.3897 0.5690
C231? C 0.2073(12) 0.4186(8) 0.5193(9)
H218? H 0.2444 0.4300 0.5243
C232? C 0.1714(12) 0.4543(8) 0.4967(8)
H219? H 0.1338 0.4432 0.4859
C233? C 0.1732(14) 0.4888(9) 0.5348(10)
H220? H 0.2090 0.5029 0.5410
O130? O 0.2592(7) 0.4638(6) 0.6241(7)
O131? O 0.2504(10) 0.3761(8) 0.6024(10)
O132? O 0.2052(10) 0.3813(7) 0.4863(10)
C234? C 0.1301(14) 0.5241(10) 0.5212(10)
H221? H 0.0941 0.5116 0.5050
H222? H 0.1381 0.5437 0.4955
S17? S 0.1298(7) 0.5521(6) 0.5802(7)
C235? C 0.0889(7) 0.5962(6) 0.5650(7)
C236? C 0.0603(15) 0.6094(10) 0.5991(11)
H223? H 0.0631 0.5944 0.6307
C237? C 0.0276(15) 0.6448(10) 0.5869(13)
H224? H 0.0080 0.6538 0.6102
C238? C 0.0235(9) 0.6668(6) 0.5407(12)
C239? C 0.0521(15) 0.6536(10) 0.5067(13)
H225? H 0.0493 0.6687 0.4751
C240? C 0.0849(15) 0.6183(10) 0.5188(11)
H226? H 0.1044 0.6092 0.4956
C241? C -0.0128(11) 0.7060(8) 0.5273(16)
O133? O -0.026(2) 0.7231(13) 0.5621(19)
O134? O -0.027(2) 0.7179(13) 0.4825(17)
C242? C 0.3976(18) 0.4077(15) 0.4706(15)
H227? H 0.4006 0.3870 0.4991
H228? H 0.3592 0.4160 0.4570
C243? C 0.415(2) 0.3877(16) 0.4275(19)
H229? H 0.4194 0.3574 0.4359
H230? H 0.3842 0.3902 0.3952
O135? O 0.4614(12) 0.4004(12) 0.4133(12)
C244? C 0.4858(17) 0.4403(10) 0.4385(18)
H231? H 0.5222 0.4434 0.4340
H232? H 0.4636 0.4643 0.4207
C245? C 0.4897(14) 0.4413(14) 0.4929(17)
H233? H 0.5122 0.4651 0.5106
H234? H 0.5051 0.4148 0.5104
N3? N 0.4315(13) 0.4467(9) 0.4933(13)
C246? C 0.4229(13) 0.4675(10) 0.5423(13)
H235? H 0.4441 0.4507 0.5732
C247? C 0.4438(12) 0.5120(9) 0.5516(12)
H236? H 0.4801 0.5131 0.5463
H237? H 0.4476 0.5198 0.5886
C248? C 0.4072(12) 0.5443(9) 0.5149(13)
C249? C 0.3519(12) 0.5388(10) 0.5177(15)
H238? H 0.3531 0.5420 0.5556
C250? C 0.3304(14) 0.4929(10) 0.5005(13)
H239? H 0.2921 0.4904 0.4998
H240? H 0.3333 0.4866 0.4648
C251? C 0.3650(14) 0.4626(10) 0.5407(12)
H241? H 0.3530 0.4331 0.5311
C252? C 0.4228(15) 0.5372(9) 0.4623(12)
H242? H 0.4614 0.5423 0.4687
H243? H 0.4022 0.5566 0.4353
H244? H 0.4143 0.5082 0.4503
O136? O 0.3578(13) 0.4734(12) 0.5920(11)
C253? C 0.4261(12) 0.5875(8) 0.5364(14)
H245? H 0.4248 0.5872 0.5738
C254? C 0.3847(11) 0.6235(9) 0.5079(15)
H246? H 0.3882 0.6255 0.4714
C255? C 0.3302(12) 0.6168(10) 0.5016(18)
H247? H 0.3089 0.6355 0.4735
H248? H 0.3221 0.6243 0.5347
C256? C 0.3131(13) 0.5712(10) 0.4875(17)
H249? H 0.2777 0.5665 0.4938
H250? H 0.3084 0.5670 0.4495
C257? C 0.4844(12) 0.6007(10) 0.5392(15)
H251? H 0.5071 0.5841 0.5248
C258? C 0.5020(13) 0.6418(9) 0.5665(14)
H252? H 0.5395 0.6479 0.5670
H253? H 0.5005 0.6403 0.6033
C259? C 0.4642(12) 0.6769(9) 0.5367(14)
C260? C 0.4078(12) 0.6666(9) 0.5360(16)
H254? H 0.4128 0.6595 0.5738
C261? C 0.4757(19) 0.6868(15) 0.4828(15)
H255? H 0.4516 0.7092 0.4646
H256? H 0.4694 0.6615 0.4609
H257? H 0.5132 0.6958 0.4895
C262? C 0.4739(11) 0.7183(9) 0.5648(15)
H258? H 0.4830 0.7096 0.6026
C263? C 0.4135(11) 0.7372(9) 0.5542(15)
H259? H 0.4100 0.7389 0.5907
C264? C 0.3713(12) 0.7057(9) 0.5294(19)
H260? H 0.3535 0.7121 0.4919
H261? H 0.3440 0.7029 0.5486
O137? O 0.5166(12) 0.7423(10) 0.5642(13)
C265? C 0.5590(16) 0.7414(17) 0.6079(18)
N4? N 0.4065(11) 0.7806(7) 0.5377(9)
C266? C 0.3516(10) 0.8011(11) 0.5222(13)
H262? H 0.3307 0.7892 0.4880
H263? H 0.3566 0.8314 0.5166
C267? C 0.318(3) 0.797(3) 0.561(3)
H264? H 0.2981 0.7720 0.5625
C268? C 0.316(2) 0.829(4) 0.590(3)
H265? H 0.3362 0.8533 0.5874
H266? H 0.2959 0.8275 0.6144
C269? C 0.3516(10) 0.8011(11) 0.5222(13)
H267? H 0.3586 0.8310 0.5164
H268? H 0.3398 0.8004 0.5545
C270? C 0.3019(16) 0.7899(10) 0.478(3)
H269? H 0.2956 0.7630 0.4620
C271? C 0.2692(17) 0.8211(19) 0.465(4)
H270? H 0.2777 0.8473 0.4820
H271? H 0.2365 0.8178 0.4371
C272? C 0.4378(11) 0.8121(10) 0.5777(12)
H272? H 0.4731 0.8001 0.5972
H273? H 0.4178 0.8186 0.6033
C273? C 0.4464(15) 0.8528(10) 0.5491(18)
H274? H 0.4823 0.8651 0.5661
H275? H 0.4184 0.8738 0.5493
C274? C 0.442(2) 0.8383(13) 0.4923(17)
H276? H 0.4143 0.8547 0.4663
H277? H 0.4769 0.8416 0.4846
C275? C 0.4260(16) 0.7917(12) 0.4910(12)
H278? H 0.3972 0.7858 0.4580
H279? H 0.4575 0.7740 0.4912
loop_
_geom_bond_atom_site_label_1
_geom_bond_atom_site_label_2
_geom_bond_site_symmetry_1
_geom_bond_site_symmetry_2
O1 C1 1_555 1_555
C1 H1 1_555 1_555
C2 C1 1_555 1_555
H2 C2 1_555 1_555
C3 C2 1_555 1_555
H3 C3 1_555 1_555
C4 C3 1_555 1_555
H4 C4 1_555 1_555
C5 O1 1_555 1_555
H5 C5 1_555 1_555
O2 C1 1_555 1_555
O3 C2 1_555 1_555
O4 C3 1_555 1_555
C6 C5 1_555 1_555
H6 C6 1_555 1_555
H7 C6 1_555 1_555
S1 C6 1_555 1_555
C7 S1 1_555 1_555
C8 C7 1_555 1_555
H8 C8 1_555 1_555
C9 C8 1_555 1_555
H9 C9 1_555 1_555
C10 C9 1_555 1_555
C11 C10 1_555 1_555
H10 C11 1_555 1_555
C12 C7 1_555 1_555
H11 C12 1_555 1_555
C13 C10 1_555 1_555
O5 C13 1_555 1_555
O6 C13 1_555 1_555
O7 C14 1_555 1_555
C14 H12 1_555 1_555
C15 C14 1_555 1_555
H13 C15 1_555 1_555
C16 C15 1_555 1_555
H14 C16 1_555 1_555
C17 O2 1_555 1_555
H15 C17 1_555 1_555
C18 O7 1_555 1_555
H16 C18 1_555 1_555
O8 C14 1_555 1_555
O9 C15 1_555 1_555
O10 C16 1_555 1_555
C19 C18 1_555 1_555
H17 C19 1_555 1_555
H18 C19 1_555 1_555
S2 C19 1_555 1_555
C20 S2 1_555 1_555
C21 C20 1_555 1_555
H19 C21 1_555 1_555
C22 C21 1_555 1_555
H20 C22 1_555 1_555
C23 C22 1_555 1_555
C24 C23 1_555 1_555
H21 C24 1_555 1_555
C25 C20 1_555 1_555
H22 C25 1_555 1_555
C26 C23 1_555 1_555
O11 C26 1_555 1_555
O12 C26 1_555 1_555
O13 C27 1_555 1_555
C27 H23 1_555 1_555
C28 C27 1_555 1_555
H24 C28 1_555 1_555
C29 C28 1_555 1_555
H25 C29 1_555 1_555
C30 O8 1_555 1_555
H26 C30 1_555 1_555
C31 O13 1_555 1_555
H27 C31 1_555 1_555
O14 C27 1_555 1_555
O15 C28 1_555 1_555
O16 C29 1_555 1_555
C32 C31 1_555 1_555
H28 C32 1_555 1_555
H29 C32 1_555 1_555
S3 C32 1_555 1_555
C33 S3 1_555 1_555
C34 C33 1_555 1_555
H30 C34 1_555 1_555
C35 C34 1_555 1_555
H31 C35 1_555 1_555
C36 C35 1_555 1_555
C37 C36 1_555 1_555
H32 C37 1_555 1_555
C38 C33 1_555 1_555
H33 C38 1_555 1_555
C39 C36 1_555 1_555
O17 C39 1_555 1_555
O18 C39 1_555 1_555
O19 C40 1_555 1_555
C40 H34 1_555 1_555
C41 C40 1_555 1_555
H35 C41 1_555 1_555
C42 C41 1_555 1_555
H36 C42 1_555 1_555
C43 O14 1_555 1_555
H37 C43 1_555 1_555
C44 O19 1_555 1_555
H38 C44 1_555 1_555
O20 C40 1_555 1_555
O21 C41 1_555 1_555
O22 C42 1_555 1_555
C45 C44 1_555 1_555
H39 C45 1_555 1_555
H40 C45 1_555 1_555
S4 C45 1_555 1_555
C46 S4 1_555 1_555
C47 C46 1_555 1_555
H41 C47 1_555 1_555
C48 C47 1_555 1_555
H42 C48 1_555 1_555
C49 C48 1_555 1_555
C50 C49 1_555 1_555
H43 C50 1_555 1_555
C51 C46 1_555 1_555
H44 C51 1_555 1_555
C52 C49 1_555 1_555
O23 C52 1_555 1_555
O24 C52 1_555 1_555
O25 C53 1_555 1_555
C53 H45 1_555 1_555
C54 C53 1_555 1_555
H46 C54 1_555 1_555
C55 C54 1_555 1_555
H47 C55 1_555 1_555
C56 O20 1_555 1_555
H48 C56 1_555 1_555
C57 O25 1_555 1_555
H49 C57 1_555 1_555
O26 C53 1_555 1_555
O27 C54 1_555 1_555
O28 C55 1_555 1_555
C58 C57 1_555 1_555
H50 C58 1_555 1_555
H51 C58 1_555 1_555
S5 C58 1_555 1_555
C59 S5 1_555 1_555
C60 C59 1_555 1_555
H52 C60 1_555 1_555
C61 C60 1_555 1_555
H53 C61 1_555 1_555
C62 C61 1_555 1_555
C63 C62 1_555 1_555
H54 C63 1_555 1_555
C64 C59 1_555 1_555
H55 C64 1_555 1_555
C65 C62 1_555 1_555
O29 C65 1_555 1_555
O30 C65 1_555 1_555
O31 C66 1_555 1_555
C66 H56 1_555 1_555
C67 C66 1_555 1_555
H57 C67 1_555 1_555
C68 C67 1_555 1_555
H58 C68 1_555 1_555
C69 O26 1_555 1_555
H59 C69 1_555 1_555
C70 O31 1_555 1_555
H60 C70 1_555 1_555
O32 C66 1_555 1_555
O33 C67 1_555 1_555
O34 C68 1_555 1_555
C71 C70 1_555 1_555
H61 C71 1_555 1_555
H62 C71 1_555 1_555
S6 C71 1_555 1_555
C72 S6 1_555 1_555
C73 C72 1_555 1_555
H63 C73 1_555 1_555
C74 C73 1_555 1_555
H64 C74 1_555 1_555
C75 C74 1_555 1_555
C76 C75 1_555 1_555
H65 C76 1_555 1_555
C77 C72 1_555 1_555
H66 C77 1_555 1_555
C78 C75 1_555 1_555
O35 C78 1_555 1_555
O36 C78 1_555 1_555
O37 C79 1_555 1_555
C79 H67 1_555 1_555
C80 C79 1_555 1_555
H68 C80 1_555 1_555
C81 C80 1_555 1_555
H69 C81 1_555 1_555
C82 O32 1_555 1_555
H70 C82 1_555 1_555
C83 O37 1_555 1_555
H71 C83 1_555 1_555
O38 C79 1_555 1_555
O39 C80 1_555 1_555
O40 C81 1_555 1_555
C84 C83 1_555 1_555
H72 C84 1_555 1_555
H73 C84 1_555 1_555
S7 C84 1_555 1_555
C85 S7 1_555 1_555
C86 C85 1_555 1_555
H74 C86 1_555 1_555
C87 C86 1_555 1_555
H75 C87 1_555 1_555
C88 C87 1_555 1_555
C89 C88 1_555 1_555
H76 C89 1_555 1_555
C90 C85 1_555 1_555
H77 C90 1_555 1_555
C91 C88 1_555 1_555
O41 C91 1_555 1_555
O42 C91 1_555 1_555
O43 C92 1_555 1_555
C92 H78 1_555 1_555
C93 C92 1_555 1_555
H79 C93 1_555 1_555
C94 C93 1_555 1_555
H80 C94 1_555 1_555
C95 O38 1_555 1_555
H81 C95 1_555 1_555
C96 O43 1_555 1_555
H82 C96 1_555 1_555
O44 C4 1_555 1_555
O45 C93 1_555 1_555
O46 C94 1_555 1_555
C97 C96 1_555 1_555
H83 C97 1_555 1_555
H84 C97 1_555 1_555
S8 C97 1_555 1_555
C98 S8 1_555 1_555
C99 C98 1_555 1_555
H85 C99 1_555 1_555
C100 C99 1_555 1_555
H86 C100 1_555 1_555
C101 C100 1_555 1_555
C102 C101 1_555 1_555
H87 C102 1_555 1_555
C103 C98 1_555 1_555
H88 C103 1_555 1_555
C104 C101 1_555 1_555
O47 C104 1_555 1_555
O48 C104 1_555 1_555
C105 H89 1_555 1_555
H90 C105 1_555 1_555
C106 C105 1_555 1_555
H91 C106 1_555 1_555
H92 C106 1_555 1_555
O50 C106 1_555 1_555
C107 O50 1_555 1_555
H93 C107 1_555 1_555
H94 C107 1_555 1_555
C108 C107 1_555 1_555
H95 C108 1_555 1_555
H96 C108 1_555 1_555
N1 C105 1_555 1_555
C109 N1 1_555 1_555
H97 C109 1_555 1_555
C110 C109 1_555 1_555
H98 C110 1_555 1_555
H99 C110 1_555 1_555
C111 C110 1_555 1_555
C112 C111 1_555 1_555
H100 C112 1_555 1_555
C113 C112 1_555 1_555
H101 C113 1_555 1_555
H102 C113 1_555 1_555
C114 C109 1_555 1_555
H103 C114 1_555 1_555
C115 C111 1_555 1_555
H104 C115 1_555 1_555
H105 C115 1_555 1_555
H106 C115 1_555 1_555
O51 C114 1_555 1_555
C116 C111 1_555 1_555
H107 C116 1_555 1_555
C117 C116 1_555 1_555
H108 C117 1_555 1_555
C118 C117 1_555 1_555
H109 C118 1_555 1_555
H110 C118 1_555 1_555
C119 C112 1_555 1_555
H111 C119 1_555 1_555
H112 C119 1_555 1_555
C120 C116 1_555 1_555
H113 C120 1_555 1_555
C121 C120 1_555 1_555
H114 C121 1_555 1_555
H115 C121 1_555 1_555
C122 C121 1_555 1_555
C123 C117 1_555 1_555
H116 C123 1_555 1_555
C124 C122 1_555 1_555
H117 C124 1_555 1_555
H118 C124 1_555 1_555
H119 C124 1_555 1_555
C125 C122 1_555 1_555
H120 C125 1_555 1_555
C126 C125 1_555 1_555
H121 C126 1_555 1_555
C127 C123 1_555 1_555
H122 C127 1_555 1_555
H123 C127 1_555 1_555
O52 C125 1_555 1_555
C128 O52 1_555 1_555
N2 C126 1_555 1_555
C129 N2 1_555 1_555
H124 C129 1_555 1_555
H125 C129 1_555 1_555
C130 C129 1_555 1_555
H126 C130 1_555 1_555
C131 C130 1_555 1_555
H127 C131 1_555 1_555
H128 C131 1_555 1_555
C132 N2 1_555 1_555
H129 C132 1_555 1_555
H130 C132 1_555 1_555
C133 C132 1_555 1_555
H131 C133 1_555 1_555
H132 C133 1_555 1_555
C134 C133 1_555 1_555
H133 C134 1_555 1_555
H134 C134 1_555 1_555
C135 N2 1_555 1_555
H135 C135 1_555 1_555
H136 C135 1_555 1_555
O53 C128 1_555 1_555
C136 C128 1_555 1_555
C4 C5 1_555 1_555
C11 C12 1_555 1_555
C16 C17 1_555 1_555
C17 C18 1_555 1_555
C24 C25 1_555 1_555
C29 C30 1_555 1_555
C30 C31 1_555 1_555
C37 C38 1_555 1_555
C42 C43 1_555 1_555
C43 C44 1_555 1_555
C50 C51 1_555 1_555
C55 C56 1_555 1_555
C56 C57 1_555 1_555
C63 C64 1_555 1_555
C68 C69 1_555 1_555
C69 C70 1_555 1_555
C76 C77 1_555 1_555
C81 C82 1_555 1_555
C82 C83 1_555 1_555
C89 C90 1_555 1_555
C92 O44 1_555 1_555
C94 C95 1_555 1_555
C95 C96 1_555 1_555
C102 C103 1_555 1_555
C108 N1 1_555 1_555
C113 C114 1_555 1_555
C118 C119 1_555 1_555
C122 C123 1_555 1_555
C126 C127 1_555 1_555
C134 C135 1_555 1_555

#END
