
#######################################################################
#
#                 Cambridge Crystallographic Data Centre
#                                CCDC 
#
#######################################################################
#
# If this CIF has been generated from an entry in the Cambridge 
# Structural Database, then it will include bibliographic, chemical, 
# crystal, experimental, refinement or atomic coordinate data resulting 
# from the CCDC's data processing and validation procedures.
#
#######################################################################

data_JAQBOT
_chemical_formula_moiety         '8(Na1 1+),C104 H104 O48 S8 8-,9.5(H2 O1)'
_chemical_name_systematic        
'Octa-sodium 6-perdeoxy-6-per(4-carboxylatophenyl)thio-\g-cyclodextrin hydrate'
_symmetry_cell_setting           tetragonal
_symmetry_space_group_name_H-M   'I 4 2 2'
_symmetry_Int_Tables_number      97
_space_group_name_Hall           'I 4 2'
loop_
_symmetry_equiv_pos_site_id
_symmetry_equiv_pos_as_xyz
1 x,y,z
2 -y,x,z
3 -x,-y,z
4 y,-x,z
5 x,-y,-z
6 y,x,-z
7 -x,y,-z
8 -y,-x,-z
9 1/2+x,1/2+y,1/2+z
10 1/2-y,1/2+x,1/2+z
11 1/2-x,1/2-y,1/2+z
12 1/2+y,1/2-x,1/2+z
13 1/2+x,1/2-y,1/2-z
14 1/2+y,1/2+x,1/2-z
15 1/2-x,1/2+y,1/2-z
16 1/2-y,1/2-x,1/2-z
_cell_length_a                   23.135(2)
_cell_length_b                   23.135(2)
_cell_length_c                   31.904(3)
_cell_angle_alpha                90
_cell_angle_beta                 90
_cell_angle_gamma                90
_cell_volume                     17075.9
_exptl_crystal_colour            colorless
_exptl_crystal_description       block
_cell_formula_units_Z            4
loop_
_atom_site_label
_atom_site_type_symbol
_atom_site_fract_x
_atom_site_fract_y
_atom_site_fract_z
Na1 Na 0.4379(14) -0.0897(13) -0.0324(7)
Na2 Na 0.2921(8) -0.1430(8) -0.0063(7)
O1 O 0.3624(7) -0.0940(7) 0.0350(5)
O3 O 0.5600(4) -0.2187(4) -0.1564(2)
C1 C 0.5952(5) -0.2165(6) -0.1191(4)
H1 H 0.6295 -0.1912 -0.1245
C2 C 0.5616(5) -0.1930(6) -0.0824(4)
H2 H 0.5523 -0.1515 -0.0880
C3 C 0.5062(5) -0.2253(5) -0.0757(3)
H3 H 0.5157 -0.2665 -0.0693
C4 C 0.4717(5) -0.2236(6) -0.1146(3)
H4 H 0.4600 -0.1829 -0.1207
C5 C 0.5067(5) -0.2477(6) -0.1517(3)
H5 H 0.5129 -0.2903 -0.1484
O4 O 0.5973(4) -0.1961(4) -0.0453(3)
O5 O 0.4741(4) -0.2019(4) -0.0411(3)
O6 O 0.4199(3) -0.2599(3) -0.1102(2)
C6 C 0.4723(7) -0.2338(9) -0.1944(4)
H6 H 0.4754 -0.1924 -0.2020
H7 H 0.4310 -0.2446 -0.1922
S1 S 0.5101(2) -0.2794(3) -0.23211(11)
C7 C 0.4826(8) -0.2536(12) -0.2813(4)
C8 C 0.5020(9) -0.2791(13) -0.3144(4)
H8 H 0.5319 -0.3070 -0.3113
C9 C 0.4799(9) -0.2671(12) -0.3566(5)
H9 H 0.4897 -0.2902 -0.3802
C10 C 0.4444(11) -0.2207(11) -0.3595(4)
C11 C 0.4314(9) -0.1916(12) -0.3262(5)
H10 H 0.4137 -0.1547 -0.3289
C12 C 0.4431(9) -0.2141(12) -0.2858(5)
H11 H 0.4223 -0.2005 -0.2621
C13 C 0.4303(13) -0.2042(12) -0.4049(5)
O7 O 0.4186(9) -0.1497(10) -0.4063(4)
O8 O 0.4355(8) -0.2406(9) -0.4309(4)
O9 O 0.3365(3) -0.2522(3) -0.1521(2)
C14 C 0.3665(5) -0.2297(5) -0.1167(3)
H12 H 0.3735 -0.1873 -0.1199
C15 C 0.3282(5) -0.2421(5) -0.0780(3)
H13 H 0.2917 -0.2192 -0.0807
C16 C 0.3128(5) -0.3045(5) -0.0737(3)
H14 H 0.3491 -0.3272 -0.0693
C17 C 0.2848(4) -0.3240(5) -0.1143(2)
H15 H 0.2471 -0.3034 -0.1178
C18 C 0.3232(4) -0.3101(5) -0.1513(3)
H16 H 0.3596 -0.3332 -0.1493
O10 O 0.3578(3) -0.2236(4) -0.0415(2)
O11 O 0.2752(4) -0.3140(4) -0.0392(2)
O12 O 0.6147(3) -0.2741(3) -0.11054(19)
C19 C 0.2917(5) -0.3242(6) -0.1938(3)
H17 H 0.2558 -0.3011 -0.1963
H18 H 0.2813 -0.3657 -0.1949
S2 S 0.3404(2) -0.3067(3) -0.23590(10)
C20 C 0.3028(8) -0.3287(8) -0.2823(3)
C21 C 0.3292(9) -0.3175(9) -0.3174(4)
H19 H 0.3655 -0.2982 -0.3164
C22 C 0.3058(9) -0.3331(8) -0.3578(4)
H20 H 0.3266 -0.3253 -0.3828
C23 C 0.2547(8) -0.3584(8) -0.3588(4)
C24 C 0.2310(8) -0.3689(7) -0.3221(4)
H21 H 0.1955 -0.3895 -0.3222
C25 C 0.2527(7) -0.3527(7) -0.2832(4)
H22 H 0.2313 -0.3592 -0.2582
C26 C 0.2247(10) -0.3752(10) -0.4005(5)
O13 O 0.2582(7) -0.3686(8) -0.4318(4)
O14 O 0.1784(7) -0.3984(8) -0.3982(4)
O3A O 0.2187(4) -0.4400(4) -0.1564(2)
O3B O 0.4400(4) -0.7813(4) -0.1564(2)
O3C O 0.7813(4) -0.5600(4) -0.1564(2)
C1A C 0.2165(6) -0.4048(5) -0.1191(4)
C1B C 0.4048(5) -0.7835(6) -0.1191(4)
C1C C 0.7835(6) -0.5952(5) -0.1191(4)
H1A H 0.1912 -0.3705 -0.1245
H1B H 0.3705 -0.8088 -0.1245
H1C H 0.8088 -0.6295 -0.1245
C2A C 0.1930(6) -0.4384(5) -0.0824(4)
C2B C 0.4384(5) -0.8070(6) -0.0824(4)
C2C C 0.8070(6) -0.5616(5) -0.0824(4)
H2A H 0.1515 -0.4477 -0.0880
H2B H 0.4477 -0.8485 -0.0880
H2C H 0.8485 -0.5523 -0.0880
C3A C 0.2253(5) -0.4938(5) -0.0757(3)
C3B C 0.4938(5) -0.7747(5) -0.0757(3)
C3C C 0.7747(5) -0.5062(5) -0.0757(3)
H3A H 0.2665 -0.4843 -0.0693
H3B H 0.4843 -0.7335 -0.0693
H3C H 0.7335 -0.5157 -0.0693
C4A C 0.2236(6) -0.5283(5) -0.1146(3)
C4B C 0.5283(5) -0.7764(6) -0.1146(3)
C4C C 0.7764(6) -0.4717(5) -0.1146(3)
H4A H 0.1829 -0.5400 -0.1207
H4B H 0.5400 -0.8171 -0.1207
H4C H 0.8171 -0.4600 -0.1207
C5A C 0.2477(6) -0.4933(5) -0.1517(3)
C5B C 0.4933(5) -0.7523(6) -0.1517(3)
C5C C 0.7523(6) -0.5067(5) -0.1517(3)
H5C H 0.7097 -0.5129 -0.1484
H5B H 0.4871 -0.7097 -0.1484
H5A H 0.2903 -0.4871 -0.1484
O4A O 0.1961(4) -0.4027(4) -0.0453(3)
O4B O 0.4027(4) -0.8039(4) -0.0453(3)
O4C O 0.8039(4) -0.5973(4) -0.0453(3)
O5A O 0.2019(4) -0.5259(4) -0.0411(3)
O5B O 0.5259(4) -0.7981(4) -0.0411(3)
O5C O 0.7981(4) -0.4741(4) -0.0411(3)
O6A O 0.2599(3) -0.5801(3) -0.1102(2)
O6B O 0.5801(3) -0.7401(3) -0.1102(2)
O6C O 0.7401(3) -0.4199(3) -0.1102(2)
C6C C 0.7662(9) -0.4723(7) -0.1944(4)
C6B C 0.5277(7) -0.7662(9) -0.1944(4)
C6A C 0.2338(9) -0.5277(7) -0.1944(4)
H6C H 0.8076 -0.4754 -0.2020
H6B H 0.5246 -0.8076 -0.2020
H6A H 0.1924 -0.5246 -0.2020
H7C H 0.7554 -0.4310 -0.1922
H7B H 0.5690 -0.7554 -0.1922
H7A H 0.2446 -0.5690 -0.1922
S1C S 0.7206(3) -0.5101(2) -0.23211(11)
S1B S 0.4899(2) -0.7206(3) -0.23211(11)
S1A S 0.2794(3) -0.4899(2) -0.23211(11)
C7C C 0.7464(12) -0.4826(8) -0.2813(4)
C7B C 0.5174(8) -0.7464(12) -0.2813(4)
C7A C 0.2536(12) -0.5174(8) -0.2813(4)
C8C C 0.7209(13) -0.5020(9) -0.3144(4)
C8B C 0.4980(9) -0.7209(13) -0.3144(4)
C8A C 0.2791(13) -0.4980(9) -0.3144(4)
H8C H 0.6930 -0.5319 -0.3113
H8B H 0.4681 -0.6930 -0.3113
H8A H 0.3070 -0.4681 -0.3113
C9C C 0.7329(12) -0.4799(9) -0.3566(5)
C9B C 0.5201(9) -0.7329(12) -0.3566(5)
C9A C 0.2671(12) -0.5201(9) -0.3566(5)
H9C H 0.7098 -0.4897 -0.3802
H9B H 0.5103 -0.7098 -0.3802
H9A H 0.2902 -0.5103 -0.3802
C10C C 0.7793(11) -0.4444(11) -0.3595(4)
C10B C 0.5556(11) -0.7793(11) -0.3595(4)
C10A C 0.2207(11) -0.5556(11) -0.3595(4)
C11C C 0.8084(12) -0.4314(9) -0.3262(5)
C11B C 0.5686(9) -0.8084(12) -0.3262(5)
C11A C 0.1916(12) -0.5686(9) -0.3262(5)
H10C H 0.8453 -0.4137 -0.3289
H10B H 0.5863 -0.8453 -0.3289
H10A H 0.1547 -0.5863 -0.3289
C12C C 0.7859(12) -0.4431(9) -0.2858(5)
C12B C 0.5569(9) -0.7859(12) -0.2858(5)
C12A C 0.2141(12) -0.5569(9) -0.2858(5)
H11C H 0.7995 -0.4223 -0.2621
H11B H 0.5777 -0.7995 -0.2621
H11A H 0.2005 -0.5777 -0.2621
C13C C 0.7958(12) -0.4303(13) -0.4049(5)
C13B C 0.5697(13) -0.7958(12) -0.4049(5)
C13A C 0.2042(12) -0.5697(13) -0.4049(5)
O7C O 0.8503(10) -0.4186(9) -0.4063(4)
O7B O 0.5814(9) -0.8503(10) -0.4063(4)
O7A O 0.1497(10) -0.5814(9) -0.4063(4)
O8C O 0.7594(9) -0.4355(8) -0.4309(4)
O8B O 0.5645(8) -0.7594(9) -0.4309(4)
O8A O 0.2406(9) -0.5645(8) -0.4309(4)
O9A O 0.2522(3) -0.6635(3) -0.1521(2)
O9B O 0.6635(3) -0.7478(3) -0.1521(2)
O9C O 0.7478(3) -0.3365(3) -0.1521(2)
C14A C 0.2297(5) -0.6335(5) -0.1167(3)
C14B C 0.6335(5) -0.7703(5) -0.1167(3)
C14C C 0.7703(5) -0.3665(5) -0.1167(3)
H12A H 0.1873 -0.6265 -0.1199
H12B H 0.6265 -0.8127 -0.1199
H12C H 0.8127 -0.3735 -0.1199
C15A C 0.2421(5) -0.6718(5) -0.0780(3)
C15B C 0.6718(5) -0.7579(5) -0.0780(3)
C15C C 0.7579(5) -0.3282(5) -0.0780(3)
H13A H 0.2192 -0.7083 -0.0807
H13B H 0.7083 -0.7808 -0.0807
H13C H 0.7808 -0.2917 -0.0807
C16A C 0.3045(5) -0.6872(5) -0.0737(3)
C16B C 0.6872(5) -0.6955(5) -0.0737(3)
C16C C 0.6955(5) -0.3128(5) -0.0737(3)
H14A H 0.3272 -0.6509 -0.0693
H14B H 0.6509 -0.6728 -0.0693
H14C H 0.6728 -0.3491 -0.0693
C17A C 0.3240(5) -0.7152(4) -0.1143(2)
C17B C 0.7152(4) -0.6760(5) -0.1143(2)
C17C C 0.6760(5) -0.2848(4) -0.1143(2)
H15A H 0.3034 -0.7529 -0.1178
H15B H 0.7529 -0.6966 -0.1178
H15C H 0.6966 -0.2471 -0.1178
C18A C 0.3101(5) -0.6768(4) -0.1513(3)
C18B C 0.6768(4) -0.6899(5) -0.1513(3)
C18C C 0.6899(5) -0.3232(4) -0.1513(3)
H16C H 0.6668 -0.3596 -0.1493
H16B H 0.6404 -0.6668 -0.1493
H16A H 0.3332 -0.6404 -0.1493
O10A O 0.2236(4) -0.6422(3) -0.0415(2)
O10B O 0.6422(3) -0.7764(4) -0.0415(2)
O10C O 0.7764(4) -0.3578(3) -0.0415(2)
O11A O 0.3140(4) -0.7248(4) -0.0392(2)
O11B O 0.7248(4) -0.6860(4) -0.0392(2)
O11C O 0.6860(4) -0.2752(4) -0.0392(2)
O12A O 0.2741(3) -0.3853(3) -0.11054(19)
O12B O 0.3853(3) -0.7259(3) -0.11054(19)
O12C O 0.7259(3) -0.6147(3) -0.11054(19)
C19C C 0.6758(6) -0.2917(5) -0.1938(3)
C19B C 0.7083(5) -0.6758(6) -0.1938(3)
C19A C 0.3242(6) -0.7083(5) -0.1938(3)
H17C H 0.6989 -0.2558 -0.1963
H17B H 0.7442 -0.6989 -0.1963
H17A H 0.3011 -0.7442 -0.1963
H18C H 0.6343 -0.2813 -0.1949
H18B H 0.7187 -0.6343 -0.1949
H18A H 0.3657 -0.7187 -0.1949
S2C S 0.6933(3) -0.3404(2) -0.23590(10)
S2B S 0.6596(2) -0.6933(3) -0.23590(10)
S2A S 0.3067(3) -0.6596(2) -0.23590(10)
C20C C 0.6713(8) -0.3028(8) -0.2823(3)
C20B C 0.6972(8) -0.6713(8) -0.2823(3)
C20A C 0.3287(8) -0.6972(8) -0.2823(3)
C21C C 0.6825(9) -0.3292(9) -0.3174(4)
C21B C 0.6708(9) -0.6825(9) -0.3174(4)
C21A C 0.3175(9) -0.6708(9) -0.3174(4)
H19C H 0.7018 -0.3655 -0.3164
H19B H 0.6345 -0.7018 -0.3164
H19A H 0.2982 -0.6345 -0.3164
C22C C 0.6669(8) -0.3058(9) -0.3578(4)
C22B C 0.6942(9) -0.6669(8) -0.3578(4)
C22A C 0.3331(8) -0.6942(9) -0.3578(4)
H20C H 0.6747 -0.3266 -0.3828
H20B H 0.6734 -0.6747 -0.3828
H20A H 0.3253 -0.6734 -0.3828
C23C C 0.6416(8) -0.2547(8) -0.3588(4)
C23B C 0.7453(8) -0.6416(8) -0.3588(4)
C23A C 0.3584(8) -0.7453(8) -0.3588(4)
C24C C 0.6311(7) -0.2310(8) -0.3221(4)
C24B C 0.7690(8) -0.6311(7) -0.3221(4)
C24A C 0.3689(7) -0.7690(8) -0.3221(4)
H21C H 0.6105 -0.1955 -0.3222
H21B H 0.8045 -0.6105 -0.3222
H21A H 0.3895 -0.8045 -0.3222
C25C C 0.6473(7) -0.2527(7) -0.2832(4)
C25B C 0.7473(7) -0.6473(7) -0.2832(4)
C25A C 0.3527(7) -0.7473(7) -0.2832(4)
H22C H 0.6408 -0.2313 -0.2582
H22B H 0.7687 -0.6408 -0.2582
H22A H 0.3592 -0.7687 -0.2582
C26C C 0.6248(10) -0.2247(10) -0.4005(5)
C26B C 0.7753(10) -0.6248(10) -0.4005(5)
C26A C 0.3752(10) -0.7753(10) -0.4005(5)
O13C O 0.6314(8) -0.2582(7) -0.4318(4)
O13B O 0.7418(7) -0.6314(8) -0.4318(4)
O13A O 0.3686(8) -0.7418(7) -0.4318(4)
O14C O 0.6016(8) -0.1784(7) -0.3982(4)
O14B O 0.8216(7) -0.6016(8) -0.3982(4)
O14A O 0.3984(8) -0.8216(7) -0.3982(4)
O15 O 0.4602(15) 0.0642(16) 0.1289(11)
O16 O 0.5552(14) -0.3383(13) -0.0019(12)
O2? O 0.5168(12) -0.1348(13) -0.0172(8)
O17? O 0.457(4) 0.052(4) 0.264(2)
loop_
_geom_bond_atom_site_label_1
_geom_bond_atom_site_label_2
_geom_bond_site_symmetry_1
_geom_bond_site_symmetry_2
O3 C1 1_555 1_555
C1 H1 1_555 1_555
C2 C1 1_555 1_555
H2 C2 1_555 1_555
C3 C2 1_555 1_555
H3 C3 1_555 1_555
C4 C3 1_555 1_555
H4 C4 1_555 1_555
C5 O3 1_555 1_555
H5 C5 1_555 1_555
O4 C2 1_555 1_555
O5 C3 1_555 1_555
O6 C4 1_555 1_555
C6 C5 1_555 1_555
H6 C6 1_555 1_555
H7 C6 1_555 1_555
S1 C6 1_555 1_555
C7 S1 1_555 1_555
C8 C7 1_555 1_555
H8 C8 1_555 1_555
C9 C8 1_555 1_555
H9 C9 1_555 1_555
C10 C9 1_555 1_555
C11 C10 1_555 1_555
H10 C11 1_555 1_555
C12 C7 1_555 1_555
H11 C12 1_555 1_555
C13 C10 1_555 1_555
O7 C13 1_555 1_555
O8 C13 1_555 1_555
O9 C14 1_555 1_555
C14 O6 1_555 1_555
H12 C14 1_555 1_555
C15 C14 1_555 1_555
H13 C15 1_555 1_555
C16 C15 1_555 1_555
H14 C16 1_555 1_555
C17 C16 1_555 1_555
H15 C17 1_555 1_555
C18 O9 1_555 1_555
H16 C18 1_555 1_555
O10 C15 1_555 1_555
O11 C16 1_555 1_555
O12 C1 1_555 1_555
C19 C18 1_555 1_555
H17 C19 1_555 1_555
H18 C19 1_555 1_555
S2 C19 1_555 1_555
C20 S2 1_555 1_555
C21 C20 1_555 1_555
H19 C21 1_555 1_555
C22 C21 1_555 1_555
H20 C22 1_555 1_555
C23 C22 1_555 1_555
C24 C23 1_555 1_555
H21 C24 1_555 1_555
C25 C20 1_555 1_555
H22 C25 1_555 1_555
C26 C23 1_555 1_555
O13 C26 1_555 1_555
O14 C26 1_555 1_555
O3A C1A 1_555 1_555
O3B C1B 1_555 1_555
O3C C1C 1_555 1_555
C1A H1A 1_555 1_555
C1B H1B 1_555 1_555
C1C H1C 1_555 1_555
C2A C1A 1_555 1_555
C2B C1B 1_555 1_555
C2C C1C 1_555 1_555
H2A C2A 1_555 1_555
H2B C2B 1_555 1_555
H2C C2C 1_555 1_555
C3A C2A 1_555 1_555
C3B C2B 1_555 1_555
C3C C2C 1_555 1_555
H3A C3A 1_555 1_555
H3B C3B 1_555 1_555
H3C C3C 1_555 1_555
C4A C3A 1_555 1_555
C4B C3B 1_555 1_555
C4C C3C 1_555 1_555
H4A C4A 1_555 1_555
H4B C4B 1_555 1_555
H4C C4C 1_555 1_555
C5A O3A 1_555 1_555
C5B O3B 1_555 1_555
C5C O3C 1_555 1_555
H5C C5C 1_555 1_555
H5B C5B 1_555 1_555
H5A C5A 1_555 1_555
O4A C2A 1_555 1_555
O4B C2B 1_555 1_555
O4C C2C 1_555 1_555
O5A C3A 1_555 1_555
O5B C3B 1_555 1_555
O5C C3C 1_555 1_555
O6A C4A 1_555 1_555
O6B C4B 1_555 1_555
O6C C4C 1_555 1_555
C6C C5C 1_555 1_555
C6B C5B 1_555 1_555
C6A C5A 1_555 1_555
H6C C6C 1_555 1_555
H6B C6B 1_555 1_555
H6A C6A 1_555 1_555
H7C C6C 1_555 1_555
H7B C6B 1_555 1_555
H7A C6A 1_555 1_555
S1C C6C 1_555 1_555
S1B C6B 1_555 1_555
S1A C6A 1_555 1_555
C7C S1C 1_555 1_555
C7B S1B 1_555 1_555
C7A S1A 1_555 1_555
C8C C7C 1_555 1_555
C8B C7B 1_555 1_555
C8A C7A 1_555 1_555
H8C C8C 1_555 1_555
H8B C8B 1_555 1_555
H8A C8A 1_555 1_555
C9C C8C 1_555 1_555
C9B C8B 1_555 1_555
C9A C8A 1_555 1_555
H9C C9C 1_555 1_555
H9B C9B 1_555 1_555
H9A C9A 1_555 1_555
C10C C9C 1_555 1_555
C10B C9B 1_555 1_555
C10A C9A 1_555 1_555
C11C C10C 1_555 1_555
C11B C10B 1_555 1_555
C11A C10A 1_555 1_555
H10C C11C 1_555 1_555
H10B C11B 1_555 1_555
H10A C11A 1_555 1_555
C12C C7C 1_555 1_555
C12B C7B 1_555 1_555
C12A C7A 1_555 1_555
H11C C12C 1_555 1_555
H11B C12B 1_555 1_555
H11A C12A 1_555 1_555
C13C C10C 1_555 1_555
C13B C10B 1_555 1_555
C13A C10A 1_555 1_555
O7C C13C 1_555 1_555
O7B C13B 1_555 1_555
O7A C13A 1_555 1_555
O8C C13C 1_555 1_555
O8B C13B 1_555 1_555
O8A C13A 1_555 1_555
O9A C14A 1_555 1_555
O9B C14B 1_555 1_555
O9C C14C 1_555 1_555
C14A O6A 1_555 1_555
C14B O6B 1_555 1_555
C14C O6C 1_555 1_555
H12A C14A 1_555 1_555
H12B C14B 1_555 1_555
H12C C14C 1_555 1_555
C15A C14A 1_555 1_555
C15B C14B 1_555 1_555
C15C C14C 1_555 1_555
H13A C15A 1_555 1_555
H13B C15B 1_555 1_555
H13C C15C 1_555 1_555
C16A C15A 1_555 1_555
C16B C15B 1_555 1_555
C16C C15C 1_555 1_555
H14A C16A 1_555 1_555
H14B C16B 1_555 1_555
H14C C16C 1_555 1_555
C17A C16A 1_555 1_555
C17B C16B 1_555 1_555
C17C O12 1_555 1_555
H15A C17A 1_555 1_555
H15B C17B 1_555 1_555
H15C C17C 1_555 1_555
C18A O9A 1_555 1_555
C18B O9B 1_555 1_555
C18C O9C 1_555 1_555
H16C C18C 1_555 1_555
H16B C18B 1_555 1_555
H16A C18A 1_555 1_555
O10A C15A 1_555 1_555
O10B C15B 1_555 1_555
O10C C15C 1_555 1_555
O11A C16A 1_555 1_555
O11B C16B 1_555 1_555
O11C C16C 1_555 1_555
O12A C17 1_555 1_555
O12B C1B 1_555 1_555
O12C C1C 1_555 1_555
C19C C18C 1_555 1_555
C19B C18B 1_555 1_555
C19A C18A 1_555 1_555
H17C C19C 1_555 1_555
H17B C19B 1_555 1_555
H17A C19A 1_555 1_555
H18C C19C 1_555 1_555
H18B C19B 1_555 1_555
H18A C19A 1_555 1_555
S2C C19C 1_555 1_555
S2B C19B 1_555 1_555
S2A C19A 1_555 1_555
C20C S2C 1_555 1_555
C20B S2B 1_555 1_555
C20A S2A 1_555 1_555
C21C C20C 1_555 1_555
C21B C20B 1_555 1_555
C21A C20A 1_555 1_555
H19C C21C 1_555 1_555
H19B C21B 1_555 1_555
H19A C21A 1_555 1_555
C22C C21C 1_555 1_555
C22B C21B 1_555 1_555
C22A C21A 1_555 1_555
H20C C22C 1_555 1_555
H20B C22B 1_555 1_555
H20A C22A 1_555 1_555
C23C C22C 1_555 1_555
C23B C22B 1_555 1_555
C23A C22A 1_555 1_555
C24C C23C 1_555 1_555
C24B C23B 1_555 1_555
C24A C23A 1_555 1_555
H21C C24C 1_555 1_555
H21B C24B 1_555 1_555
H21A C24A 1_555 1_555
C25C C20C 1_555 1_555
C25B C20B 1_555 1_555
C25A C20A 1_555 1_555
H22C C25C 1_555 1_555
H22B C25B 1_555 1_555
H22A C25A 1_555 1_555
C26C C23C 1_555 1_555
C26B C23B 1_555 1_555
C26A C23A 1_555 1_555
O13C C26C 1_555 1_555
O13B C26B 1_555 1_555
O13A C26A 1_555 1_555
O14C C26C 1_555 1_555
O14B C26B 1_555 1_555
O14A C26A 1_555 1_555
C4 C5 1_555 1_555
C11 C12 1_555 1_555
C17 C18 1_555 1_555
C24 C25 1_555 1_555
C1A O12A 1_555 1_555
C4A C5A 1_555 1_555
C4B C5B 1_555 1_555
C4C C5C 1_555 1_555
C11C C12C 1_555 1_555
C11B C12B 1_555 1_555
C11A C12A 1_555 1_555
C16C C17C 1_555 1_555
C17A C18A 1_555 1_555
C17A O12B 1_555 1_555
C17B C18B 1_555 1_555
C17B O12C 1_555 1_555
C17C C18C 1_555 1_555
C24C C25C 1_555 1_555
C24B C25B 1_555 1_555
C24A C25A 1_555 1_555

#END
