
#######################################################################
#
#                 Cambridge Crystallographic Data Centre
#                                CCDC 
#
#######################################################################
#
# If this CIF has been generated from an entry in the Cambridge 
# Structural Database, then it will include bibliographic, chemical, 
# crystal, experimental, refinement or atomic coordinate data resulting 
# from the CCDC's data processing and validation procedures.
#
#######################################################################

data_JAQQUQ
_chemical_formula_moiety         
'C42 H42 N28 O14,C42 H66 N6 6+,2(C36 H36 N24 O12),3.5(Br1 1-),2.5(Cl1 1-),61.15(H2 O1)'
_chemical_name_systematic        
"[4]-(1,1'-[1,4-phenylenebis(methylene)]bis{4-[6-(pyridin-1-ium-1-yl)hexyl]-1,4-diazabicyclo[2.2.2]octane-1,4-diium})-(cucurbit[7]uril)-bis(cucurbit[6]uril)-pseudorotaxane bromide chloride hydrate"
_symmetry_cell_setting           monoclinic
_symmetry_space_group_name_H-M   'P 2/n'
_symmetry_Int_Tables_number      13
_space_group_name_Hall           '-P 2yac'
loop_
_symmetry_equiv_pos_site_id
_symmetry_equiv_pos_as_xyz
1 x,y,z
2 1/2-x,y,1/2-z
3 -x,-y,-z
4 1/2+x,-y,1/2+z
_cell_length_a                   28.683(2)
_cell_length_b                   26.7150(18)
_cell_length_c                   34.206(2)
_cell_angle_alpha                90
_cell_angle_beta                 110.5020(10)
_cell_angle_gamma                90
_cell_volume                     24550.7
_cell_formula_units_Z            4
loop_
_atom_site_label
_atom_site_type_symbol
_atom_site_fract_x
_atom_site_fract_y
_atom_site_fract_z
Br1 Br 0.74161(5) 0.00911(6) 0.32962(5)
Br2 Br 0.7500 0.48099(8) 0.2500
Br3 Br 0.39980(8) 0.46193(6) 0.11973(5)
Br4 Br 0.2500 0.74061(6) 0.2500
Br5 Br 0.2604(6) 0.9299(4) 0.2711(11)
O1 O 0.2659(6) 0.9065(6) 0.3350(5)
C1 C 0.7512(3) 0.3644(3) 0.6143(3)
C2 C 0.7897(3) 0.3047(3) 0.6645(3)
H1 H 0.7866 0.3039 0.6927
C3 C 0.8286(3) 0.3441(3) 0.6624(3)
H2 H 0.8430 0.3629 0.6892
C4 C 0.8530(3) 0.2635(3) 0.6495(2)
C5 C 0.8199(3) 0.4222(3) 0.6185(3)
H3 H 0.8405 0.4390 0.6446
H4 H 0.7916 0.4445 0.6039
C6 C 0.9152(3) 0.3312(3) 0.6580(3)
H5 H 0.9261 0.3558 0.6811
H6 H 0.9389 0.3029 0.6654
C7 C 0.8367(3) 0.4371(3) 0.5537(3)
C8 C 0.9026(3) 0.4059(3) 0.6087(3)
H7 H 0.9194 0.4295 0.6321
C9 C 0.9192(3) 0.4149(3) 0.5713(3)
H8 H 0.9482 0.4383 0.5784
C10 C 0.9328(3) 0.3309(4) 0.5915(3)
C11 C 0.8762(4) 0.4571(3) 0.5012(3)
H9 H 0.8497 0.4828 0.4916
H10 H 0.9085 0.4740 0.5061
C12 C 0.9592(4) 0.3545(4) 0.5341(3)
H11 H 0.9777 0.3227 0.5423
H12 H 0.9837 0.3816 0.5369
C13 C 0.8241(4) 0.4148(4) 0.4373(3)
C14 C 0.9092(4) 0.3929(4) 0.4627(3)
H13 H 0.9372 0.4151 0.4626
C15 C 0.8830(4) 0.3684(4) 0.4198(3)
H14 H 0.8973 0.3802 0.3985
C16 C 0.9196(3) 0.3067(4) 0.4699(3)
C17 C 0.7947(4) 0.3764(4) 0.3681(3)
H15 H 0.8097 0.3845 0.3468
H16 H 0.7672 0.4004 0.3647
C18 C 0.8865(4) 0.2768(4) 0.3966(3)
H17 H 0.8969 0.2913 0.3743
H18 H 0.9088 0.2483 0.4090
C19 C 0.7248(4) 0.3171(4) 0.3525(3)
C20 C 0.7982(4) 0.2852(4) 0.3457(3)
H19 H 0.8106 0.2968 0.3233
C21 C 0.7577(4) 0.2466(4) 0.3296(3)
H20 H 0.7504 0.2391 0.2994
C22 C 0.8238(4) 0.2097(4) 0.3823(3)
C23 C 0.6642(4) 0.2532(4) 0.3142(3)
H21 H 0.6621 0.2414 0.2862
H22 H 0.6415 0.2822 0.3103
C24 C 0.7545(4) 0.1547(4) 0.3487(3)
H23 H 0.7798 0.1300 0.3644
H24 H 0.7450 0.1465 0.3186
C25 C 0.6171(4) 0.2210(4) 0.3564(3)
C26 C 0.6608(4) 0.1612(4) 0.3343(3)
H25 H 0.6536 0.1490 0.3051
C27 C 0.6283(4) 0.1356(4) 0.3544(3)
H26 H 0.6029 0.1138 0.3340
C28 C 0.7116(4) 0.1148(4) 0.3910(3)
C29 C 0.5651(4) 0.1683(4) 0.3851(3)
H27 H 0.5444 0.1396 0.3708
H28 H 0.5437 0.1985 0.3789
C30 C 0.6498(4) 0.0687(4) 0.4126(3)
H29 H 0.6194 0.0510 0.3948
H30 H 0.6769 0.0438 0.4222
C31 C 0.5805(3) 0.1940(4) 0.4584(4)
C32 C 0.5926(4) 0.1105(4) 0.4473(3)
H31 H 0.5641 0.0874 0.4335
C33 C 0.6010(3) 0.1177(4) 0.4937(3)
H32 H 0.5778 0.0968 0.5029
C34 C 0.6734(4) 0.0854(3) 0.4877(3)
C35 C 0.5815(3) 0.1938(4) 0.5305(3)
H33 H 0.5593 0.2230 0.5201
H34 H 0.5635 0.1692 0.5415
C36 C 0.6750(3) 0.0995(4) 0.5586(3)
H35 H 0.7051 0.0782 0.5651
H36 H 0.6517 0.0824 0.5697
C37 C 0.6348(3) 0.2592(4) 0.5735(3)
C38 C 0.6569(3) 0.1767(3) 0.5941(3)
H37 H 0.6381 0.1557 0.6078
C39 C 0.6936(3) 0.2125(3) 0.6256(3)
H38 H 0.6924 0.2081 0.6543
C40 C 0.7386(4) 0.1590(3) 0.5989(3)
C41 C 0.6949(3) 0.3081(3) 0.6311(3)
H39 H 0.6712 0.3350 0.6171
H40 H 0.6953 0.3053 0.6601
C42 C 0.7875(3) 0.2104(3) 0.6585(3)
H41 H 0.7810 0.2090 0.6851
H42 H 0.8124 0.1843 0.6596
N1 N 0.8010(2) 0.3764(2) 0.6287(2)
N2 N 0.7437(2) 0.3225(3) 0.6324(2)
N3 N 0.8658(2) 0.3127(2) 0.6541(2)
N4 N 0.8082(2) 0.2587(3) 0.6551(2)
N5 N 0.8760(3) 0.4356(3) 0.5409(2)
N6 N 0.8499(2) 0.4147(3) 0.5918(2)
N7 N 0.9323(3) 0.3644(3) 0.5618(2)
N8 N 0.9170(3) 0.3546(3) 0.6203(2)
N9 N 0.8318(3) 0.3828(3) 0.4090(2)
N10 N 0.8687(3) 0.4215(3) 0.4695(2)
N11 N 0.8922(3) 0.3147(3) 0.4287(2)
N12 N 0.9263(3) 0.3511(3) 0.4905(2)
N13 N 0.7147(3) 0.2696(3) 0.3369(2)
N14 N 0.7745(3) 0.3262(3) 0.3609(2)
N15 N 0.7765(3) 0.2031(3) 0.3556(2)
N16 N 0.8366(3) 0.2588(3) 0.3787(2)
N17 N 0.6053(3) 0.1753(3) 0.3690(2)
N18 N 0.6472(3) 0.2133(3) 0.3350(3)
N19 N 0.6629(3) 0.1060(3) 0.3876(3)
N20 N 0.7106(3) 0.1492(3) 0.3606(2)
N21 N 0.5915(3) 0.1715(3) 0.4958(3)
N22 N 0.5837(3) 0.1593(3) 0.4301(3)
N23 N 0.6522(3) 0.1036(3) 0.5144(2)
N24 N 0.6410(3) 0.0890(3) 0.4484(3)
N25 N 0.6769(3) 0.2612(3) 0.6096(2)
N26 N 0.6244(3) 0.2098(3) 0.5637(2)
N27 N 0.7417(2) 0.1990(3) 0.6245(2)
N28 N 0.6893(3) 0.1472(3) 0.5800(2)
O2 O 0.7188(2) 0.3888(2) 0.58665(18)
O3 O 0.8786(2) 0.2291(2) 0.64417(18)
O4 O 0.7953(2) 0.4546(2) 0.53437(18)
O5 O 0.9451(2) 0.2859(2) 0.5930(2)
O6 O 0.7848(3) 0.4344(3) 0.4340(2)
O7 O 0.9344(2) 0.2654(3) 0.4845(2)
O8 O 0.6951(3) 0.3460(3) 0.3572(2)
O9 O 0.8516(2) 0.1788(2) 0.4050(2)
O10 O 0.6010(2) 0.2613(3) 0.3628(2)
O11 O 0.7485(3) 0.0953(2) 0.4163(2)
O12 O 0.5692(2) 0.2381(3) 0.4511(2)
O13 O 0.7157(2) 0.0671(2) 0.4985(2)
O14 O 0.6114(2) 0.2957(2) 0.55467(18)
O15 O 0.7738(2) 0.1378(2) 0.5937(2)
C43 C 0.4451(3) 0.2784(3) 0.6007(3)
C44 C 0.3710(3) 0.2974(3) 0.5444(3)
H43 H 0.3498 0.2710 0.5258
C45 C 0.4170(3) 0.3103(3) 0.5322(3)
H44 H 0.4176 0.2900 0.5078
C46 C 0.3663(3) 0.3802(4) 0.5249(3)
C47 C 0.5091(3) 0.2997(3) 0.5721(3)
H45 H 0.5110 0.2860 0.5458
H46 H 0.5288 0.2774 0.5951
C48 C 0.4370(3) 0.3890(4) 0.5004(3)
H47 H 0.4158 0.4166 0.4843
H48 H 0.4434 0.3659 0.4802
C49 C 0.5728(3) 0.3578(3) 0.6142(3)
C50 C 0.5305(3) 0.3824(3) 0.5457(3)
H49 H 0.5397 0.3648 0.5236
C51 C 0.5690(3) 0.4227(3) 0.5676(2)
H50 H 0.5926 0.4290 0.5524
C52 C 0.4910(3) 0.4600(3) 0.5395(2)
C53 C 0.6373(3) 0.4236(3) 0.6390(3)
H51 H 0.6597 0.4366 0.6249
H52 H 0.6555 0.3968 0.6584
C54 C 0.5597(3) 0.5170(3) 0.5760(3)
H53 H 0.5890 0.5192 0.5672
H54 H 0.5350 0.5419 0.5596
C55 C 0.6328(3) 0.4595(3) 0.7044(3)
C56 C 0.6225(3) 0.5159(3) 0.6498(3)
H55 H 0.6504 0.5257 0.6402
C57 C 0.6240(3) 0.5444(3) 0.6889(3)
H56 H 0.6535 0.5672 0.6987
C58 C 0.5522(3) 0.5654(3) 0.6345(3)
C59 C 0.6315(3) 0.5137(3) 0.7624(3)
H57 H 0.6507 0.4862 0.7802
H58 H 0.6501 0.5452 0.7722
C60 C 0.5652(3) 0.6074(3) 0.7019(3)
H59 H 0.5461 0.6351 0.6842
H60 H 0.5961 0.6218 0.7219
C61 C 0.5634(3) 0.4793(4) 0.7817(3)
C62 C 0.5582(3) 0.5638(3) 0.7659(3)
H61 H 0.5795 0.5883 0.7867
C63 C 0.5120(3) 0.5483(3) 0.7768(3)
H62 H 0.5114 0.5660 0.8023
C64 C 0.4853(3) 0.5884(3) 0.7117(3)
C65 C 0.4891(3) 0.4653(4) 0.8020(3)
H63 H 0.5087 0.4355 0.8154
H64 H 0.4828 0.4852 0.8241
C66 C 0.4183(3) 0.5653(3) 0.7395(3)
H65 H 0.4183 0.5768 0.7671
H66 H 0.3992 0.5899 0.7183
C67 C 0.4309(3) 0.3999(4) 0.7640(3)
C68 C 0.3978(3) 0.4797(3) 0.7621(3)
H67 H 0.3932 0.4945 0.7874
C69 C 0.3551(3) 0.4419(3) 0.7389(3)
H68 H 0.3286 0.4407 0.7517
C70 C 0.3559(3) 0.5082(4) 0.6939(3)
C71 C 0.3556(3) 0.3481(3) 0.7310(3)
H69 H 0.3764 0.3211 0.7484
H70 H 0.3242 0.3493 0.7369
C72 C 0.2898(3) 0.4444(3) 0.6657(3)
H71 H 0.2740 0.4723 0.6466
H72 H 0.2667 0.4342 0.6800
C73 C 0.3699(3) 0.2992(3) 0.6752(3)
C74 C 0.2998(3) 0.3508(3) 0.6551(3)
H73 H 0.2695 0.3417 0.6617
C75 C 0.3017(3) 0.3211(3) 0.6166(3)
H74 H 0.2724 0.2982 0.6055
C76 C 0.2934(3) 0.4064(4) 0.6008(3)
C77 C 0.3653(4) 0.2578(3) 0.6097(3)
H75 H 0.3863 0.2327 0.6294
H76 H 0.3364 0.2398 0.5900
C78 C 0.2970(3) 0.3499(4) 0.5448(3)
H77 H 0.2794 0.3783 0.5272
H78 H 0.2768 0.3194 0.5345
N29 N 0.4587(2) 0.2985(3) 0.5697(2)
N30 N 0.3935(3) 0.2796(3) 0.5867(3)
N31 N 0.4108(2) 0.3630(3) 0.5223(2)
N32 N 0.3453(3) 0.3434(3) 0.5401(2)
N33 N 0.5942(2) 0.4024(3) 0.6083(2)
N34 N 0.5321(2) 0.3491(3) 0.5790(2)
N35 N 0.5380(2) 0.4668(2) 0.5664(2)
N36 N 0.4847(2) 0.4100(3) 0.5279(2)
N37 N 0.6279(2) 0.5045(3) 0.7191(2)
N38 N 0.6262(2) 0.4639(3) 0.6630(2)
N39 N 0.5786(2) 0.5719(3) 0.6756(2)
N40 N 0.5746(2) 0.5296(3) 0.6198(2)
N41 N 0.5184(3) 0.4952(3) 0.7839(2)
N42 N 0.5836(3) 0.5174(3) 0.7674(2)
N43 N 0.4705(3) 0.5636(3) 0.7403(2)
N44 N 0.5359(2) 0.5865(3) 0.7250(2)
N45 N 0.3811(3) 0.3950(3) 0.7432(2)
N46 N 0.4423(3) 0.4488(3) 0.7728(2)
N47 N 0.3365(3) 0.4621(3) 0.6969(2)
N48 N 0.3936(3) 0.5171(3) 0.7301(2)
N49 N 0.3475(3) 0.2932(3) 0.6329(2)
N50 N 0.3443(3) 0.3357(3) 0.6881(2)
N51 N 0.3007(3) 0.3589(3) 0.5873(2)
N52 N 0.2973(3) 0.4019(3) 0.6412(2)
O16 O 0.4722(2) 0.2629(2) 0.6342(2)
O17 O 0.3495(2) 0.4225(2) 0.51378(18)
O18 O 0.5881(2) 0.3315(2) 0.64512(18)
O19 O 0.4587(2) 0.4921(2) 0.52651(18)
O20 O 0.6422(2) 0.4204(2) 0.72389(19)
O21 O 0.5126(2) 0.5872(2) 0.61419(18)
O22 O 0.5810(2) 0.4369(2) 0.79115(18)
O23 O 0.4579(2) 0.6086(2) 0.67994(19)
O24 O 0.4617(2) 0.3646(2) 0.77413(19)
O25 O 0.3411(2) 0.5360(2) 0.6638(2)
O26 O 0.4068(2) 0.2766(2) 0.6986(2)
O27 O 0.2844(2) 0.4444(2) 0.5803(2)
C79 C 0.5266(4) 0.0233(4) 0.2992(3)
C80 C 0.4877(4) -0.0542(4) 0.2944(3)
H79 H 0.4875 -0.0724 0.3199
C81 C 0.5387(4) -0.0615(3) 0.2873(3)
H80 H 0.5625 -0.0829 0.3093
C82 C 0.4734(3) -0.0949(3) 0.2303(3)
C83 C 0.6069(4) 0.0018(4) 0.2907(3)
H81 H 0.6177 0.0335 0.3063
H82 H 0.6294 -0.0251 0.3065
C84 C 0.5588(4) -0.1029(4) 0.2277(4)
H83 H 0.5878 -0.1172 0.2501
H84 H 0.5431 -0.1303 0.2079
C85 C 0.6214(3) 0.0512(4) 0.2360(3)
C86 C 0.6203(3) -0.0343(4) 0.2267(4)
H85 H 0.6493 -0.0550 0.2438
C87 C 0.6302(4) -0.0095(4) 0.1900(4)
H86 H 0.6632 -0.0197 0.1889
C88 C 0.5617(3) -0.0626(4) 0.1639(4)
C89 C 0.6408(4) 0.0823(4) 0.1747(4)
H87 H 0.6520 0.1123 0.1925
H88 H 0.6689 0.0710 0.1663
C90 C 0.5902(4) -0.0212(4) 0.1121(5)
H89 H 0.6250 -0.0212 0.1130
H90 H 0.5731 -0.0503 0.0952
C91 C 0.5749(4) 0.1406(5) 0.1344(4)
C92 C 0.5885(5) 0.0734(5) 0.0964(4)
H91 H 0.6186 0.0728 0.0881
C93 C 0.5487(5) 0.1076(5) 0.0675(4)
H92 H 0.5597 0.1225 0.0454
C94 C 0.5185(5) 0.0240(5) 0.0618(4)
C95 C 0.5130(5) 0.1889(5) 0.0808(4)
H93 H 0.5156 0.1995 0.0539
H94 H 0.5267 0.2162 0.1012
C96 C 0.4624(5) 0.0856(5) 0.0152(4)
H95 H 0.4478 0.0550 -0.0007
H96 H 0.4712 0.1086 -0.0039
C97 C 0.4399(4) 0.2009(4) 0.1005(4)
C98 C 0.4243(5) 0.1640(5) 0.0380(4)
H97 H 0.4247 0.1840 0.0134
C99 C 0.3737(4) 0.1723(4) 0.0459(5)
H98 H 0.3508 0.1948 0.0243
C100 C 0.3824(4) 0.0869(5) 0.0314(3)
C101 C 0.3559(4) 0.2149(4) 0.1065(5)
H99 H 0.3740 0.2404 0.1272
H100 H 0.3269 0.2314 0.0856
C102 C 0.3046(4) 0.1097(5) 0.0416(5)
H101 H 0.2941 0.0776 0.0266
H102 H 0.2814 0.1360 0.0256
C103 C 0.3531(4) 0.1751(4) 0.1681(6)
C104 C 0.2942(4) 0.1475(4) 0.1074(5)
H103 H 0.2655 0.1690 0.0910
C105 C 0.2847(4) 0.1223(4) 0.1449(4)
H104 H 0.2520 0.1327 0.1465
C106 C 0.2881(3) 0.0619(5) 0.0969(5)
C107 C 0.3273(5) 0.1315(4) 0.2239(5)
H105 H 0.3463 0.1592 0.2416
H106 H 0.2933 0.1316 0.2251
C108 C 0.2722(4) 0.0305(4) 0.1577(4)
H107 H 0.2604 0.0013 0.1390
H108 H 0.2443 0.0421 0.1661
C109 C 0.3942(4) 0.0847(4) 0.2710(4)
C110 C 0.3249(4) 0.0381(4) 0.2345(4)
H109 H 0.2950 0.0414 0.2429
C111 C 0.3630(4) 0.0036(4) 0.2639(4)
H110 H 0.3496 -0.0131 0.2839
C112 C 0.3389(4) -0.0283(4) 0.1966(4)
C113 C 0.4498(5) 0.0212(4) 0.3157(4)
H111 H 0.4425 -0.0029 0.3347
H112 H 0.4659 0.0507 0.3325
C114 C 0.4004(4) -0.0791(4) 0.2499(4)
H113 H 0.3961 -0.0895 0.2762
H114 H 0.3859 -0.1057 0.2290
N53 N 0.5563(3) -0.0095(3) 0.2882(3)
N54 N 0.4849(3) -0.0017(3) 0.2993(3)
N55 N 0.5235(3) -0.0846(3) 0.2458(3)
N56 N 0.4521(3) -0.0757(3) 0.2569(3)
N57 N 0.6293(3) 0.0428(3) 0.1994(3)
N58 N 0.6118(3) 0.0066(3) 0.2499(3)
N59 N 0.5901(3) -0.0269(3) 0.1540(3)
N60 N 0.5761(3) -0.0655(3) 0.2061(3)
N61 N 0.5416(4) 0.1455(4) 0.0948(3)
N62 N 0.6006(3) 0.0960(3) 0.1383(3)
N63 N 0.5070(4) 0.0724(4) 0.0496(3)
N64 N 0.5661(3) 0.0239(4) 0.0922(3)
N65 N 0.3900(3) 0.1948(3) 0.0849(3)
N66 N 0.4613(3) 0.1818(3) 0.0753(3)
N67 N 0.3539(4) 0.1216(3) 0.0424(3)
N68 N 0.4254(4) 0.1097(4) 0.0296(3)
N69 N 0.3246(3) 0.1391(3) 0.1795(4)
N70 N 0.3390(3) 0.1772(3) 0.1267(4)
N71 N 0.2852(3) 0.0690(4) 0.1355(4)
N72 N 0.3002(3) 0.1056(4) 0.0827(4)
N73 N 0.4040(4) 0.0367(3) 0.2853(3)
N74 N 0.3508(4) 0.0854(3) 0.2389(3)
N75 N 0.3723(3) -0.0327(3) 0.2352(3)
N76 N 0.3119(3) 0.0150(3) 0.1939(3)
O28 O 0.5354(3) 0.0678(3) 0.3072(2)
O29 O 0.4521(2) -0.1195(2) 0.1990(2)
O30 O 0.6234(2) 0.0932(2) 0.2522(2)
O31 O 0.5289(2) -0.0880(3) 0.1389(3)
O32 O 0.5809(3) 0.1707(3) 0.1629(2)
O33 O 0.4932(3) -0.0121(3) 0.0480(2)
O34 O 0.4622(3) 0.2230(3) 0.1339(3)
O35 O 0.3724(3) 0.0428(3) 0.0220(2)
O36 O 0.3856(3) 0.1996(3) 0.1944(3)
O37 O 0.2809(2) 0.0210(3) 0.0767(3)
O38 O 0.4207(3) 0.1207(3) 0.2848(3)
O39 O 0.3323(3) -0.0576(3) 0.1679(3)
C115 C 0.7267(3) 0.2801(3) 0.4972(2)
C116 C 0.7732(3) 0.2890(3) 0.5268(3)
H115 H 0.7768 0.3146 0.5469
C117 C 0.8140(3) 0.2624(3) 0.5278(3)
H116 H 0.8454 0.2693 0.5486
C118 C 0.8097(3) 0.2249(3) 0.4982(3)
C119 C 0.7633(4) 0.2171(3) 0.4678(3)
H117 H 0.7599 0.1930 0.4465
C120 C 0.7223(3) 0.2436(3) 0.4679(3)
H118 H 0.6906 0.2366 0.4475
C121 C 0.6809(3) 0.3071(3) 0.4994(3)
H119 H 0.6521 0.2842 0.4889
H120 H 0.6862 0.3141 0.5291
C122 C 0.6481(4) 0.3468(3) 0.4292(2)
H121 H 0.6157 0.3293 0.4208
H122 H 0.6717 0.3256 0.4213
C123 C 0.6419(3) 0.3984(3) 0.4066(3)
H123 H 0.6700 0.4041 0.3967
H124 H 0.6107 0.3987 0.3821
C124 C 0.6272(3) 0.3796(4) 0.4875(3)
H125 H 0.6409 0.3916 0.5167
H126 H 0.6006 0.3551 0.4853
C125 C 0.6057(3) 0.4235(3) 0.4584(3)
H127 H 0.5732 0.4140 0.4375
H128 H 0.6004 0.4522 0.4747
C126 C 0.7112(3) 0.3904(3) 0.4863(3)
H129 H 0.7353 0.3783 0.4735
H130 H 0.7284 0.3918 0.5169
C127 C 0.6924(3) 0.4429(3) 0.4695(3)
H131 H 0.6912 0.4645 0.4926
H132 H 0.7155 0.4584 0.4572
C128 C 0.6285(3) 0.4889(3) 0.4161(3)
H133 H 0.6518 0.4955 0.4011
H134 H 0.6350 0.5144 0.4384
C129 C 0.5761(3) 0.4961(3) 0.3858(3)
H135 H 0.5518 0.4873 0.3994
H136 H 0.5700 0.4740 0.3613
C130 C 0.5697(3) 0.5518(3) 0.3719(3)
H137 H 0.5718 0.5730 0.3962
H138 H 0.5976 0.5614 0.3627
C131 C 0.5223(3) 0.5621(3) 0.3379(3)
H139 H 0.4946 0.5497 0.3462
H140 H 0.5216 0.5433 0.3128
C132 C 0.5136(3) 0.6186(3) 0.3265(3)
H141 H 0.5081 0.6369 0.3497
H142 H 0.5434 0.6328 0.3224
C133 C 0.4695(3) 0.6245(3) 0.2877(3)
H143 H 0.4417 0.6049 0.2907
H144 H 0.4776 0.6097 0.2643
C134 C 0.4059(3) 0.6881(4) 0.2707(3)
H145 H 0.3846 0.6636 0.2756
C135 C 0.3873(4) 0.7361(4) 0.2576(3)
H146 H 0.3539 0.7445 0.2540
C136 C 0.4185(4) 0.7708(4) 0.2502(3)
H147 H 0.4068 0.8034 0.2405
C137 C 0.4669(4) 0.7575(3) 0.2570(3)
H148 H 0.4894 0.7812 0.2528
C138 C 0.4825(3) 0.7110(4) 0.2696(3)
H149 H 0.5161 0.7021 0.2740
C139 C 0.8540(4) 0.1934(3) 0.4997(3)
H150 H 0.8844 0.2143 0.5095
H151 H 0.8496 0.1818 0.4711
C140 C 0.8993(3) 0.1140(3) 0.5205(3)
H152 H 0.9293 0.1336 0.5224
H153 H 0.8854 0.0995 0.4921
C141 C 0.9132(3) 0.0723(4) 0.5528(3)
H154 H 0.9128 0.0398 0.5388
H155 H 0.9472 0.0780 0.5729
C142 C 0.8137(3) 0.1187(3) 0.5197(3)
H156 H 0.7986 0.1116 0.4895
H157 H 0.7897 0.1386 0.5282
C143 C 0.8252(3) 0.0696(3) 0.5442(3)
H158 H 0.8010 0.0644 0.5586
H159 H 0.8221 0.0413 0.5248
C144 C 0.8800(3) 0.1625(3) 0.5732(3)
H160 H 0.8574 0.1877 0.5782
H161 H 0.9133 0.1780 0.5802
C145 C 0.8835(3) 0.1172(3) 0.6013(3)
H162 H 0.9164 0.1167 0.6240
H163 H 0.8575 0.1193 0.6141
C146 C 0.8829(4) 0.0238(3) 0.6016(3)
H164 H 0.8704 -0.0048 0.5823
H165 H 0.8614 0.0266 0.6186
C147 C 0.9359(3) 0.0113(3) 0.6309(3)
H166 H 0.9488 0.0375 0.6524
H167 H 0.9588 0.0079 0.6151
C148 C 0.9302(4) -0.0395(4) 0.6511(4)
H168 H 0.9084 -0.0345 0.6677
H169 H 0.9136 -0.0638 0.6287
C149 C 0.9793(4) -0.0617(4) 0.6792(3)
H170 H 1.0020 -0.0654 0.6633
H171 H 0.9951 -0.0387 0.7029
C150 C 0.9711(3) -0.1124(3) 0.6958(3)
H172 H 0.9491 -0.1086 0.7124
H173 H 0.9547 -0.1352 0.6722
C151 C 1.0195(4) -0.1339(4) 0.7224(3)
H174 H 1.0416 -0.1365 0.7058
H175 H 1.0355 -0.1109 0.7460
C152 C 0.9963(4) -0.1873(4) 0.7698(3)
H176 H 0.9854 -0.1582 0.7800
C153 C 0.9934(4) -0.2327(4) 0.7867(3)
H177 H 0.9798 -0.2356 0.8083
C154 C 1.0099(4) -0.2734(4) 0.7725(3)
H178 H 1.0081 -0.3052 0.7843
C155 C 1.0292(5) -0.2699(4) 0.7412(4)
H179 H 1.0412 -0.2987 0.7315
C156 C 1.0306(4) -0.2243(4) 0.7246(3)
H180 H 1.0432 -0.2211 0.7025
N77 N 0.6675(2) 0.3552(2) 0.47573(19)
N78 N 0.6407(2) 0.4386(2) 0.4364(2)
N79 N 0.4519(2) 0.6767(3) 0.2761(2)
N80 N 0.8612(2) 0.1477(3) 0.5284(2)
N81 N 0.8767(3) 0.0709(2) 0.5757(2)
N82 N 1.0146(3) -0.1837(3) 0.7390(2)
Cl1 Cl 0.53805(17) 0.98142(17) 0.40393(15)
Cl2 Cl 0.3303(4) 0.1048(4) 0.3322(3)
O40 O 0.3652(8) 0.0591(8) 0.3736(7)
O41 O 0.3041(5) 0.1084(5) 0.3033(5)
Cl3 Cl 0.2514(4) 0.2271(4) 0.5098(5)
Cl4 Cl 0.9700(3) 0.5153(3) 0.4464(2)
O42 O 0.9762(2) 0.2027(2) 0.6611(2)
O43 O 0.5241(2) 0.3146(3) 0.3730(2)
O44 O 0.7319(3) 0.3964(3) 0.7865(2)
O45 O 0.6648(3) 0.6152(3) 0.6008(3)
O46 O 0.6913(3) 0.3881(3) 0.2774(2)
O47 O 0.7500 0.1675(4) 0.2500
O48 O 0.4575(3) 0.6402(3) 0.8413(2)
O49 O 0.6616(3) 0.2198(3) 0.2177(2)
O50 O 0.6659(3) 0.4857(3) 0.5513(3)
O51 O 0.0522(3) 0.2697(3) 0.6925(3)
O52 O 0.5135(3) 0.3285(3) 0.4547(3)
O53 O 0.7583(4) 0.4921(4) 0.8217(3)
O54 O 0.3281(3) 0.8335(3) 0.2764(3)
O55 O 0.8378(4) 0.0337(4) 0.4492(3)
O56 O 0.3738(3) 0.6784(3) 0.7851(3)
O57 O 0.6516(4) 0.8690(4) 0.1709(3)
O58 O 0.7500 0.5478(5) 0.7500
O59 O 0.7500 0.3201(6) 0.2500
O60 O 0.7737(4) 0.5491(4) 0.5036(3)
O61 O 0.7486(4) 0.9008(4) 0.2092(3)
O62 O 0.1385(4) 0.2126(4) 0.7163(3)
O63 O 0.7500 0.0684(5) 0.2500
O64 O 0.4315(4) 0.5485(4) 0.8590(4)
O65 O 0.5059(4) 0.6590(4) 0.9399(4)
O66 O 0.5961(4) 0.2190(4) 0.6500(3)
O67 O 0.6868(5) 0.6382(5) 0.8000(4)
O68 O 0.8250(5) 0.5360(5) 0.4149(4)
O69 O 0.4337(5) 0.2722(5) 0.3622(4)
O70 O 0.6392(6) 0.8661(6) 0.0766(4)
O71 O -0.0086(5) 0.1860(5) 0.5219(4)
O72 O 0.7021(6) 0.5501(6) 0.8612(5)
O73 O 0.0261(5) 0.1824(5) 0.6060(4)
O74 O 0.4434(6) 0.1668(6) 0.3610(5)
O75 O 0.3516(5) 0.9562(5) 0.3578(4)
O76 O 0.2852(5) 0.2152(5) 0.2886(4)
O77 O 0.8125(5) 0.6400(5) 0.4112(4)
O78 O 0.8158(6) 0.8316(6) 0.2030(5)
O79 O 0.8359(7) 0.4860(6) 0.3451(5)
O80 O 0.4718(8) 0.1045(8) 0.4379(7)
O81 O 0.2101(7) 0.2706(7) 0.7037(6)
O82 O 0.5666(6) 0.7250(6) 0.9947(5)
O83 O 0.2523(6) 0.2342(6) 0.6530(5)
O84 O 0.4556(10) 0.2012(10) 0.4951(8)
O85 O 0.4379(8) 0.9189(8) 0.4032(6)
O86 O 0.5843(7) 0.9957(7) 0.5039(6)
O87 O 0.3516(8) 0.2864(8) 0.2917(7)
O88 O 0.2441(7) 0.2433(7) 0.3483(6)
O89 O 0.1780(8) 0.3782(8) 0.6781(7)
O90 O 0.2197(7) 0.3688(7) 0.7106(6)
O91 O 0.1305(10) 0.4138(10) 0.6687(8)
O92 O 0.5561(8) 0.5707(8) 0.9597(7)
O93 O 0.8565(7) 0.8759(8) 0.1493(6)
O94 O 0.7751(8) 0.5718(8) 0.9325(6)
O95 O 0.9448(8) 0.5857(8) 0.3715(6)
O96 O 0.9325(11) 0.6860(12) 0.3746(9)
O97 O 0.3184(8) 0.1061(8) 0.4291(7)
O98 O 0.3948(8) 0.2818(8) 0.4253(7)
O99 O 0.7883(8) 0.6448(9) 0.8029(7)
O100 O 0.7313(9) 0.9725(9) 0.4698(8)
O101 O 0.6138(8) 0.7007(8) 0.7812(7)
O102 O -0.0672(9) 0.8249(9) 0.1918(8)
O103 O 0.0072(11) 0.8330(11) 0.1569(10)
O104 O 0.7158(10) 0.9419(10) 0.0838(8)
O105 O 0.6733(14) 0.9647(14) 0.5432(18)
O106 O 0.6790(11) 0.9610(11) 0.5147(15)
O107 O 0.9250(11) 0.8675(12) 0.1102(9)
O108 O 0.6596(11) 0.6932(11) 0.9934(9)
O109 O 0.5499(11) 0.6720(11) 0.8366(9)
O110 O 0.8439(12) 0.6035(12) 0.4833(10)
O111 O 0.9074(16) 0.7093(18) 0.4333(14)
Br6? Br 0.2500 0.9336(9) 0.2500
Cl5? Cl 0.5740(10) 0.9677(10) 0.3904(8)
Cl6? Cl 0.2443(6) 0.2217(6) 0.5303(7)
O112? O 0.6368(9) 0.6361(9) 0.6177(8)
O113? O 0.6657(10) 0.8473(10) 0.0715(7)
O114? O 0.4403(7) 0.1813(7) 0.5338(6)
O115? O 0.9483(13) 0.6501(14) 0.3689(11)
O116? O -0.0407(10) 0.8304(10) 0.1730(9)
O117? O 0.0120(18) 0.8481(18) 0.1230(16)
O118? O 0.9233(18) 0.7355(19) 0.4147(15)
loop_
_geom_bond_atom_site_label_1
_geom_bond_atom_site_label_2
_geom_bond_site_symmetry_1
_geom_bond_site_symmetry_2
C1 N1 1_555 1_555
C2 H1 1_555 1_555
C3 C2 1_555 1_555
H2 C3 1_555 1_555
C4 N3 1_555 1_555
C5 H3 1_555 1_555
H4 C5 1_555 1_555
C6 H5 1_555 1_555
H6 C6 1_555 1_555
C7 N5 1_555 1_555
C8 H7 1_555 1_555
C9 C8 1_555 1_555
H8 C9 1_555 1_555
C10 N7 1_555 1_555
C11 H9 1_555 1_555
H10 C11 1_555 1_555
C12 H11 1_555 1_555
H12 C12 1_555 1_555
C13 N9 1_555 1_555
C14 H13 1_555 1_555
C15 C14 1_555 1_555
H14 C15 1_555 1_555
C16 N11 1_555 1_555
C17 H15 1_555 1_555
H16 C17 1_555 1_555
C18 H17 1_555 1_555
H18 C18 1_555 1_555
C19 N13 1_555 1_555
C20 H19 1_555 1_555
C21 C20 1_555 1_555
H20 C21 1_555 1_555
C22 N15 1_555 1_555
C23 H21 1_555 1_555
H22 C23 1_555 1_555
C24 H23 1_555 1_555
H24 C24 1_555 1_555
C25 N17 1_555 1_555
C26 H25 1_555 1_555
C27 C26 1_555 1_555
H26 C27 1_555 1_555
C28 N19 1_555 1_555
C29 H27 1_555 1_555
H28 C29 1_555 1_555
C30 H29 1_555 1_555
H30 C30 1_555 1_555
C31 N21 1_555 1_555
C32 H31 1_555 1_555
C33 C32 1_555 1_555
H32 C33 1_555 1_555
C34 N23 1_555 1_555
C35 H33 1_555 1_555
H34 C35 1_555 1_555
C36 H35 1_555 1_555
H36 C36 1_555 1_555
C37 N25 1_555 1_555
C38 H37 1_555 1_555
C39 C38 1_555 1_555
H38 C39 1_555 1_555
C40 N27 1_555 1_555
C41 H39 1_555 1_555
H40 C41 1_555 1_555
C42 H41 1_555 1_555
H42 C42 1_555 1_555
N1 C3 1_555 1_555
N2 C1 1_555 1_555
N3 C3 1_555 1_555
N4 C2 1_555 1_555
N5 C9 1_555 1_555
N6 C5 1_555 1_555
N7 C9 1_555 1_555
N8 C6 1_555 1_555
N9 C15 1_555 1_555
N10 C11 1_555 1_555
N11 C15 1_555 1_555
N12 C12 1_555 1_555
N13 C21 1_555 1_555
N14 C17 1_555 1_555
N15 C21 1_555 1_555
N16 C18 1_555 1_555
N17 C27 1_555 1_555
N18 C23 1_555 1_555
N19 C27 1_555 1_555
N20 C24 1_555 1_555
N21 C33 1_555 1_555
N22 C29 1_555 1_555
N23 C33 1_555 1_555
N24 C30 1_555 1_555
N25 C39 1_555 1_555
N26 C35 1_555 1_555
N27 C39 1_555 1_555
N28 C36 1_555 1_555
O2 C1 1_555 1_555
O3 C4 1_555 1_555
O4 C7 1_555 1_555
O5 C10 1_555 1_555
O6 C13 1_555 1_555
O7 C16 1_555 1_555
O8 C19 1_555 1_555
O9 C22 1_555 1_555
O10 C25 1_555 1_555
O11 C28 1_555 1_555
O12 C31 1_555 1_555
O13 C34 1_555 1_555
O14 C37 1_555 1_555
O15 C40 1_555 1_555
C43 N29 1_555 1_555
C44 H43 1_555 1_555
C45 C44 1_555 1_555
H44 C45 1_555 1_555
C46 N31 1_555 1_555
C47 H45 1_555 1_555
H46 C47 1_555 1_555
C48 H47 1_555 1_555
H48 C48 1_555 1_555
C49 N33 1_555 1_555
C50 H49 1_555 1_555
C51 C50 1_555 1_555
H50 C51 1_555 1_555
C52 N35 1_555 1_555
C53 H51 1_555 1_555
H52 C53 1_555 1_555
C54 H53 1_555 1_555
H54 C54 1_555 1_555
C55 N37 1_555 1_555
C56 H55 1_555 1_555
C57 C56 1_555 1_555
H56 C57 1_555 1_555
C58 N39 1_555 1_555
C59 H57 1_555 1_555
H58 C59 1_555 1_555
C60 H59 1_555 1_555
H60 C60 1_555 1_555
C61 N41 1_555 1_555
C62 H61 1_555 1_555
C63 C62 1_555 1_555
H62 C63 1_555 1_555
C64 N43 1_555 1_555
C65 H63 1_555 1_555
H64 C65 1_555 1_555
C66 H65 1_555 1_555
H66 C66 1_555 1_555
C67 N45 1_555 1_555
C68 H67 1_555 1_555
C69 C68 1_555 1_555
H68 C69 1_555 1_555
C70 N47 1_555 1_555
C71 H69 1_555 1_555
H70 C71 1_555 1_555
C72 H71 1_555 1_555
H72 C72 1_555 1_555
C73 N49 1_555 1_555
C74 H73 1_555 1_555
C75 C74 1_555 1_555
H74 C75 1_555 1_555
C76 N51 1_555 1_555
C77 H75 1_555 1_555
H76 C77 1_555 1_555
C78 H77 1_555 1_555
H78 C78 1_555 1_555
N29 C45 1_555 1_555
N30 C43 1_555 1_555
N31 C45 1_555 1_555
N32 C44 1_555 1_555
N33 C51 1_555 1_555
N34 C47 1_555 1_555
N35 C51 1_555 1_555
N36 C48 1_555 1_555
N37 C57 1_555 1_555
N38 C53 1_555 1_555
N39 C57 1_555 1_555
N40 C54 1_555 1_555
N41 C63 1_555 1_555
N42 C59 1_555 1_555
N43 C63 1_555 1_555
N44 C60 1_555 1_555
N45 C69 1_555 1_555
N46 C65 1_555 1_555
N47 C69 1_555 1_555
N48 C66 1_555 1_555
N49 C75 1_555 1_555
N50 C71 1_555 1_555
N51 C75 1_555 1_555
N52 C72 1_555 1_555
O16 C43 1_555 1_555
O17 C46 1_555 1_555
O18 C49 1_555 1_555
O19 C52 1_555 1_555
O20 C55 1_555 1_555
O21 C58 1_555 1_555
O22 C61 1_555 1_555
O23 C64 1_555 1_555
O24 C67 1_555 1_555
O25 C70 1_555 1_555
O26 C73 1_555 1_555
O27 C76 1_555 1_555
C79 N53 1_555 1_555
C80 H79 1_555 1_555
C81 C80 1_555 1_555
H80 C81 1_555 1_555
C82 N55 1_555 1_555
C83 H81 1_555 1_555
H82 C83 1_555 1_555
C84 H83 1_555 1_555
H84 C84 1_555 1_555
C85 N57 1_555 1_555
C86 H85 1_555 1_555
C87 C86 1_555 1_555
H86 C87 1_555 1_555
C88 N59 1_555 1_555
C89 H87 1_555 1_555
H88 C89 1_555 1_555
C90 H89 1_555 1_555
H90 C90 1_555 1_555
C91 N61 1_555 1_555
C92 H91 1_555 1_555
C93 C92 1_555 1_555
H92 C93 1_555 1_555
C94 N63 1_555 1_555
C95 H93 1_555 1_555
H94 C95 1_555 1_555
C96 H95 1_555 1_555
H96 C96 1_555 1_555
C97 N65 1_555 1_555
C98 H97 1_555 1_555
C99 C98 1_555 1_555
H98 C99 1_555 1_555
C100 N67 1_555 1_555
C101 H99 1_555 1_555
H100 C101 1_555 1_555
C102 H101 1_555 1_555
H102 C102 1_555 1_555
C103 N69 1_555 1_555
C104 H103 1_555 1_555
C105 C104 1_555 1_555
H104 C105 1_555 1_555
C106 N71 1_555 1_555
C107 H105 1_555 1_555
H106 C107 1_555 1_555
C108 H107 1_555 1_555
H108 C108 1_555 1_555
C109 N73 1_555 1_555
C110 H109 1_555 1_555
C111 C110 1_555 1_555
H110 C111 1_555 1_555
C112 N75 1_555 1_555
C113 H111 1_555 1_555
H112 C113 1_555 1_555
C114 H113 1_555 1_555
H114 C114 1_555 1_555
N53 C81 1_555 1_555
N54 C79 1_555 1_555
N55 C81 1_555 1_555
N56 C80 1_555 1_555
N57 C87 1_555 1_555
N58 C83 1_555 1_555
N59 C87 1_555 1_555
N60 C84 1_555 1_555
N61 C93 1_555 1_555
N62 C89 1_555 1_555
N63 C93 1_555 1_555
N64 C90 1_555 1_555
N65 C99 1_555 1_555
N66 C95 1_555 1_555
N67 C99 1_555 1_555
N68 C96 1_555 1_555
N69 C105 1_555 1_555
N70 C101 1_555 1_555
N71 C105 1_555 1_555
N72 C102 1_555 1_555
N73 C111 1_555 1_555
N74 C107 1_555 1_555
N75 C111 1_555 1_555
N76 C108 1_555 1_555
O28 C79 1_555 1_555
O29 C82 1_555 1_555
O30 C85 1_555 1_555
O31 C88 1_555 1_555
O32 C91 1_555 1_555
O33 C94 1_555 1_555
O34 C97 1_555 1_555
O35 C100 1_555 1_555
O36 C103 1_555 1_555
O37 C106 1_555 1_555
O38 C109 1_555 1_555
O39 C112 1_555 1_555
C115 C116 1_555 1_555
C116 H115 1_555 1_555
C117 C116 1_555 1_555
H116 C117 1_555 1_555
C118 C117 1_555 1_555
C119 C118 1_555 1_555
H117 C119 1_555 1_555
C120 C115 1_555 1_555
H118 C120 1_555 1_555
C121 C115 1_555 1_555
H119 C121 1_555 1_555
H120 C121 1_555 1_555
C122 H121 1_555 1_555
H122 C122 1_555 1_555
C123 C122 1_555 1_555
H123 C123 1_555 1_555
H124 C123 1_555 1_555
C124 H125 1_555 1_555
H126 C124 1_555 1_555
C125 C124 1_555 1_555
H127 C125 1_555 1_555
H128 C125 1_555 1_555
C126 H129 1_555 1_555
H130 C126 1_555 1_555
C127 C126 1_555 1_555
H131 C127 1_555 1_555
H132 C127 1_555 1_555
C128 H133 1_555 1_555
H134 C128 1_555 1_555
C129 C128 1_555 1_555
H135 C129 1_555 1_555
H136 C129 1_555 1_555
C130 C129 1_555 1_555
H137 C130 1_555 1_555
H138 C130 1_555 1_555
C131 C130 1_555 1_555
H139 C131 1_555 1_555
H140 C131 1_555 1_555
C132 C131 1_555 1_555
H141 C132 1_555 1_555
H142 C132 1_555 1_555
C133 C132 1_555 1_555
H143 C133 1_555 1_555
H144 C133 1_555 1_555
C134 H145 1_555 1_555
C135 C134 1_555 1_555
H146 C135 1_555 1_555
C136 C135 1_555 1_555
H147 C136 1_555 1_555
C137 C136 1_555 1_555
H148 C137 1_555 1_555
C138 C137 1_555 1_555
H149 C138 1_555 1_555
C139 C118 1_555 1_555
H150 C139 1_555 1_555
H151 C139 1_555 1_555
C140 H152 1_555 1_555
H153 C140 1_555 1_555
C141 C140 1_555 1_555
H154 C141 1_555 1_555
H155 C141 1_555 1_555
C142 H156 1_555 1_555
H157 C142 1_555 1_555
C143 C142 1_555 1_555
H158 C143 1_555 1_555
H159 C143 1_555 1_555
C144 H160 1_555 1_555
H161 C144 1_555 1_555
C145 C144 1_555 1_555
H162 C145 1_555 1_555
H163 C145 1_555 1_555
C146 H164 1_555 1_555
H165 C146 1_555 1_555
C147 C146 1_555 1_555
H166 C147 1_555 1_555
H167 C147 1_555 1_555
C148 C147 1_555 1_555
H168 C148 1_555 1_555
H169 C148 1_555 1_555
C149 C148 1_555 1_555
H170 C149 1_555 1_555
H171 C149 1_555 1_555
C150 C149 1_555 1_555
H172 C150 1_555 1_555
H173 C150 1_555 1_555
C151 C150 1_555 1_555
H174 C151 1_555 1_555
H175 C151 1_555 1_555
C152 H176 1_555 1_555
C153 C152 1_555 1_555
H177 C153 1_555 1_555
C154 C153 1_555 1_555
H178 C154 1_555 1_555
C155 C154 1_555 1_555
H179 C155 1_555 1_555
C156 C155 1_555 1_555
H180 C156 1_555 1_555
N77 C121 1_555 1_555
N78 C123 1_555 1_555
N79 C133 1_555 1_555
N80 C139 1_555 1_555
N81 C141 1_555 1_555
N82 C151 1_555 1_555
C2 N2 1_555 1_555
C4 N4 1_555 1_555
C5 N1 1_555 1_555
C6 N3 1_555 1_555
C7 N6 1_555 1_555
C8 N6 1_555 1_555
C8 N8 1_555 1_555
C10 N8 1_555 1_555
C11 N5 1_555 1_555
C12 N7 1_555 1_555
C13 N10 1_555 1_555
C14 N10 1_555 1_555
C14 N12 1_555 1_555
C16 N12 1_555 1_555
C17 N9 1_555 1_555
C18 N11 1_555 1_555
C19 N14 1_555 1_555
C20 N14 1_555 1_555
C20 N16 1_555 1_555
C22 N16 1_555 1_555
C23 N13 1_555 1_555
C24 N15 1_555 1_555
C25 N18 1_555 1_555
C26 N18 1_555 1_555
C26 N20 1_555 1_555
C28 N20 1_555 1_555
C29 N17 1_555 1_555
C30 N19 1_555 1_555
C31 N22 1_555 1_555
C32 N22 1_555 1_555
C32 N24 1_555 1_555
C34 N24 1_555 1_555
C35 N21 1_555 1_555
C36 N23 1_555 1_555
C37 N26 1_555 1_555
C38 N26 1_555 1_555
C38 N28 1_555 1_555
C40 N28 1_555 1_555
C41 N2 1_555 1_555
C41 N25 1_555 1_555
C42 N4 1_555 1_555
C42 N27 1_555 1_555
C44 N30 1_555 1_555
C46 N32 1_555 1_555
C47 N29 1_555 1_555
C48 N31 1_555 1_555
C49 N34 1_555 1_555
C50 N34 1_555 1_555
C50 N36 1_555 1_555
C52 N36 1_555 1_555
C53 N33 1_555 1_555
C54 N35 1_555 1_555
C55 N38 1_555 1_555
C56 N38 1_555 1_555
C56 N40 1_555 1_555
C58 N40 1_555 1_555
C59 N37 1_555 1_555
C60 N39 1_555 1_555
C61 N42 1_555 1_555
C62 N42 1_555 1_555
C62 N44 1_555 1_555
C64 N44 1_555 1_555
C65 N41 1_555 1_555
C66 N43 1_555 1_555
C67 N46 1_555 1_555
C68 N46 1_555 1_555
C68 N48 1_555 1_555
C70 N48 1_555 1_555
C71 N45 1_555 1_555
C72 N47 1_555 1_555
C73 N50 1_555 1_555
C74 N50 1_555 1_555
C74 N52 1_555 1_555
C76 N52 1_555 1_555
C77 N30 1_555 1_555
C77 N49 1_555 1_555
C78 N32 1_555 1_555
C78 N51 1_555 1_555
C80 N54 1_555 1_555
C82 N56 1_555 1_555
C83 N53 1_555 1_555
C84 N55 1_555 1_555
C85 N58 1_555 1_555
C86 N58 1_555 1_555
C86 N60 1_555 1_555
C88 N60 1_555 1_555
C89 N57 1_555 1_555
C90 N59 1_555 1_555
C91 N62 1_555 1_555
C92 N62 1_555 1_555
C92 N64 1_555 1_555
C94 N64 1_555 1_555
C95 N61 1_555 1_555
C96 N63 1_555 1_555
C97 N66 1_555 1_555
C98 N66 1_555 1_555
C98 N68 1_555 1_555
C100 N68 1_555 1_555
C101 N65 1_555 1_555
C102 N67 1_555 1_555
C103 N70 1_555 1_555
C104 N70 1_555 1_555
C104 N72 1_555 1_555
C106 N72 1_555 1_555
C107 N69 1_555 1_555
C108 N71 1_555 1_555
C109 N74 1_555 1_555
C110 N74 1_555 1_555
C110 N76 1_555 1_555
C112 N76 1_555 1_555
C113 N54 1_555 1_555
C113 N73 1_555 1_555
C114 N56 1_555 1_555
C114 N75 1_555 1_555
C119 C120 1_555 1_555
C122 N77 1_555 1_555
C124 N77 1_555 1_555
C125 N78 1_555 1_555
C126 N77 1_555 1_555
C127 N78 1_555 1_555
C128 N78 1_555 1_555
C134 N79 1_555 1_555
C138 N79 1_555 1_555
C140 N80 1_555 1_555
C142 N80 1_555 1_555
C143 N81 1_555 1_555
C144 N80 1_555 1_555
C145 N81 1_555 1_555
C146 N81 1_555 1_555
C152 N82 1_555 1_555
C156 N82 1_555 1_555

#END
