
#######################################################################
#
#                 Cambridge Crystallographic Data Centre
#                                CCDC 
#
#######################################################################
#
# If this CIF has been generated from an entry in the Cambridge 
# Structural Database, then it will include bibliographic, chemical, 
# crystal, experimental, refinement or atomic coordinate data resulting 
# from the CCDC's data processing and validation procedures.
#
#######################################################################

data_JAQSEC
_chemical_formula_moiety         'C14 H22 Na1 O6 1+,Br1 1-'
_chemical_name_systematic        
'aqua-(2,3,5,6,8,9,11,12-octahydro-1,4,7,10,13-benzopentaoxacyclopentadecine)-sodium bromide'
_symmetry_cell_setting           orthorhombic
_symmetry_space_group_name_H-M   'P 21 21 21'
_symmetry_Int_Tables_number      19
_space_group_name_Hall           'P 2ac 2ab'
loop_
_symmetry_equiv_pos_site_id
_symmetry_equiv_pos_as_xyz
1 x,y,z
2 1/2-x,-y,1/2+z
3 1/2+x,1/2-y,-z
4 -x,1/2+y,1/2-z
_cell_length_a                   9.4014(7)
_cell_length_b                   11.7964(8)
_cell_length_c                   15.4865(14)
_cell_angle_alpha                90
_cell_angle_beta                 90
_cell_angle_gamma                90
_cell_volume                     1717.49
_exptl_crystal_colour            colorless
_exptl_crystal_description       block
_cell_formula_units_Z            4
loop_
_atom_site_label
_atom_site_type_symbol
_atom_site_fract_x
_atom_site_fract_y
_atom_site_fract_z
C1 C 0.5947(3) 0.8611(2) 0.30207(19)
C2 C 0.5987(3) 0.8013(3) 0.2261(2)
H1 H 0.6837 0.7696 0.2071
C3 C 0.4764(4) 0.7884(3) 0.1781(2)
H2 H 0.4793 0.7473 0.1269
C4 C 0.3510(3) 0.8351(3) 0.2047(2)
H3 H 0.2691 0.8254 0.1719
C5 C 0.3459(3) 0.8974(3) 0.2812(2)
H4 H 0.2613 0.9309 0.2990
C6 C 0.4676(3) 0.9087(2) 0.33008(18)
C7 C 0.3440(3) 0.9624(2) 0.4586(2)
H5 H 0.3116 0.8848 0.4652
H6 H 0.2694 1.0057 0.4306
C8 C 0.3776(3) 1.0121(3) 0.5441(2)
H7 H 0.4077 1.0902 0.5372
H8 H 0.2936 1.0110 0.5804
C9 C 0.5273(3) 0.9887(2) 0.6665(2)
H9 H 0.4530 0.9721 0.7081
H10 H 0.5418 1.0700 0.6649
C10 C 0.6624(3) 0.9299(2) 0.6918(2)
H11 H 0.6930 0.9551 0.7484
H12 H 0.6479 0.8486 0.6936
C11 C 0.8959(3) 0.8979(2) 0.63882(19)
H13 H 0.8773 0.8200 0.6553
H14 H 0.9533 0.9329 0.6835
C12 C 0.9727(3) 0.9013(3) 0.5546(2)
H15 H 0.9930 0.9791 0.5385
H16 H 1.0620 0.8605 0.5589
C13 C 0.9414(3) 0.8494(2) 0.40793(19)
H17 H 1.0244 0.8006 0.4060
H18 H 0.9704 0.9254 0.3919
C14 C 0.8308(3) 0.8071(2) 0.34656(19)
H19 H 0.8667 0.8087 0.2879
H20 H 0.8046 0.7297 0.3607
O1 O 0.47122(16) 0.96565(15) 0.40796(12)
O2 O 0.48758(18) 0.94831(14) 0.58321(12)
O3 O 0.76592(18) 0.95749(14) 0.62933(13)
O4 O 0.88349(17) 0.84980(14) 0.49187(13)
O5 O 0.71026(17) 0.88028(14) 0.35474(12)
O6 O 0.7434(2) 1.1619(2) 0.47549(18)
Na1 Na 0.68461(10) 0.97960(8) 0.48718(7)
H21 H 0.715(3) 1.209(2) 0.5147(18)
H22 H 0.831(2) 1.173(3) 0.4571(19)
Br1 Br 0.56141(3) 1.32329(3) 0.61527(2)
loop_
_geom_bond_atom_site_label_1
_geom_bond_atom_site_label_2
_geom_bond_site_symmetry_1
_geom_bond_site_symmetry_2
C1 C2 1_555 1_555
C2 H1 1_555 1_555
C3 C2 1_555 1_555
H2 C3 1_555 1_555
C4 C3 1_555 1_555
H3 C4 1_555 1_555
C5 C4 1_555 1_555
H4 C5 1_555 1_555
C6 C1 1_555 1_555
C7 H5 1_555 1_555
H6 C7 1_555 1_555
C8 C7 1_555 1_555
H7 C8 1_555 1_555
H8 C8 1_555 1_555
C9 H9 1_555 1_555
H10 C9 1_555 1_555
C10 C9 1_555 1_555
H11 C10 1_555 1_555
H12 C10 1_555 1_555
C11 H13 1_555 1_555
H14 C11 1_555 1_555
C12 C11 1_555 1_555
H15 C12 1_555 1_555
H16 C12 1_555 1_555
C13 H17 1_555 1_555
H18 C13 1_555 1_555
C14 C13 1_555 1_555
H19 C14 1_555 1_555
H20 C14 1_555 1_555
O1 C6 1_555 1_555
O2 C8 1_555 1_555
O3 C10 1_555 1_555
O4 C12 1_555 1_555
O5 C1 1_555 1_555
O6 Na1 1_555 1_555
Na1 O1 1_555 1_555
H21 O6 1_555 1_555
H22 O6 1_555 1_555
C5 C6 1_555 1_555
C7 O1 1_555 1_555
C9 O2 1_555 1_555
C11 O3 1_555 1_555
C13 O4 1_555 1_555
C14 O5 1_555 1_555
O2 Na1 1_555 1_555
O3 Na1 1_555 1_555
O4 Na1 1_555 1_555
O5 Na1 1_555 1_555

#END
