
#######################################################################
#
#                 Cambridge Crystallographic Data Centre
#                                CCDC 
#
#######################################################################
#
# If this CIF has been generated from an entry in the Cambridge 
# Structural Database, then it will include bibliographic, chemical, 
# crystal, experimental, refinement or atomic coordinate data resulting 
# from the CCDC's data processing and validation procedures.
#
#######################################################################

data_JAQWUW
_chemical_formula_moiety         'C32 H42 O14'
_chemical_name_systematic        
'2,5,8,8-tetramethyl-12-methylene-4,9-dioxo-1,2,3,4,5,8,9,10,11,12,13,13a-dodecahydro-3aH-cyclopenta[12]annulene-1,2,3a,10,11,13-hexayl hexaacetate'
_symmetry_cell_setting           orthorhombic
_symmetry_space_group_name_H-M   'P 21 21 21'
_symmetry_Int_Tables_number      19
_space_group_name_Hall           'P 2ac 2ab'
loop_
_symmetry_equiv_pos_site_id
_symmetry_equiv_pos_as_xyz
1 x,y,z
2 1/2+x,1/2-y,-z
3 -x,1/2+y,1/2-z
4 1/2-x,-y,1/2+z
_cell_length_a                   9.8145(2)
_cell_length_b                   17.1843(4)
_cell_length_c                   42.135(3)
_cell_angle_alpha                90
_cell_angle_beta                 90
_cell_angle_gamma                90
_cell_volume                     7106.29
_exptl_crystal_colour            colorless
_exptl_crystal_description       needle
_cell_formula_units_Z            8
loop_
_atom_site_label
_atom_site_type_symbol
_atom_site_fract_x
_atom_site_fract_y
_atom_site_fract_z
O1 O 1.3577(11) 1.1503(6) 0.5309(2)
O2 O 1.5735(13) 1.1415(7) 0.5501(3)
O3 O 1.0498(11) 1.1049(6) 0.4359(2)
O4 O 1.2628(14) 1.0782(11) 0.4347(5)
O5 O 0.8166(13) 1.0213(7) 0.4297(2)
O6 O 0.7089(17) 0.9111(12) 0.4248(4)
O7 O 0.9129(11) 1.0075(6) 0.5389(2)
O8 O 0.8355(14) 0.8995(8) 0.5150(4)
O9 O 1.0621(10) 1.1020(6) 0.5773(2)
O10 O 1.4356(12) 0.9758(7) 0.5103(3)
O11 O 1.3445(16) 0.8716(7) 0.5796(3)
O12 O 1.1607(11) 0.9328(6) 0.5624(2)
O13 O 0.9848(14) 0.9588(8) 0.3865(3)
C1 C 0.8901(17) 1.1251(11) 0.4915(4)
H1 H 0.8676 1.1564 0.4737
H2 H 0.8555 1.1380 0.5119
O14 O 0.9594(19) 1.2136(10) 0.5707(4)
C2 C 1.3322(16) 1.0373(8) 0.5680(3)
H3 H 1.3110 1.0249 0.5904
H4 H 1.4306 1.0284 0.5643
C3 C 1.2941(13) 1.1213(9) 0.5604(3)
C4 C 1.1480(14) 1.1151(8) 0.5502(3)
H5 H 1.1190 1.1628 0.5384
C5 C 1.1431(15) 1.0430(9) 0.5285(3)
H6 H 1.1951 1.0605 0.5093
C6 C 1.0136(14) 1.0136(8) 0.5146(3)
H7 H 1.0308 0.9603 0.5060
C7 C 0.9686(16) 1.0642(10) 0.4880(4)
C8 C 1.0264(16) 1.0402(9) 0.4572(4)
H8 H 1.1162 1.0148 0.4614
C9 C 0.9351(18) 0.9810(9) 0.4410(4)
H9 H 0.9066 0.9407 0.4568
C10 C 1.0077(18) 0.9412(10) 0.4134(5)
C11 C 1.106(2) 0.8733(10) 0.4217(4)
C12 C 1.2334(17) 0.8815(10) 0.4010(3)
H10 H 1.2815 0.9295 0.4065
H11 H 1.2066 0.8833 0.3786
H12 H 1.2936 0.8368 0.4045
C13 C 1.024(2) 0.7983(9) 0.4112(4)
H13 H 1.0085 0.7998 0.3883
H14 H 0.9368 0.7968 0.4224
H15 H 1.0772 0.7517 0.4166
C14 C 1.138(2) 0.8651(9) 0.4563(4)
H16 H 1.0664 0.8466 0.4693
C15 C 1.255(2) 0.8806(9) 0.4710(4)
H17 H 1.3247 0.9032 0.4584
C16 C 1.2886(18) 0.8661(9) 0.5056(4)
H18 H 1.2075 0.8448 0.5171
C17 C 1.331(2) 0.9457(10) 0.5201(3)
C18 C 1.2464(16) 0.9869(10) 0.5455(3)
C19 C 1.3160(17) 1.1799(9) 0.5870(4)
H19 H 1.2936 1.2322 0.5794
H20 H 1.4114 1.1784 0.5938
H21 H 1.2570 1.1667 0.6050
C20 C 0.967(2) 1.1554(15) 0.5844(5)
C21 C 0.8854(19) 1.1291(12) 0.6126(4)
H22 H 0.8754 1.0724 0.6121
H23 H 0.7951 1.1534 0.6120
H24 H 0.9323 1.1444 0.6322
C22 C 0.824(2) 0.9477(14) 0.5361(4)
C23 C 0.7216(15) 0.9454(11) 0.5610(4)
H25 H 0.7649 0.9314 0.5811
H26 H 0.6522 0.9065 0.5556
H27 H 0.6787 0.9967 0.5629
C24 C 0.702(3) 0.9808(19) 0.4236(5)
C25 C 0.589(2) 1.0307(15) 0.4129(6)
H28 H 0.5352 1.0031 0.3969
H29 H 0.6259 1.0786 0.4037
H30 H 0.5307 1.0438 0.4311
C26 C 1.409(2) 0.8084(11) 0.5076(4)
H31 H 1.4492 0.8104 0.5289
H32 H 1.4780 0.8225 0.4918
H33 H 1.3761 0.7555 0.5033
C27 C 1.176(2) 1.1196(12) 0.4270(4)
C28 C 1.1862(16) 1.1894(9) 0.4075(4)
H34 H 1.2205 1.1754 0.3864
H35 H 1.2489 1.2264 0.4175
H36 H 1.0960 1.2132 0.4055
C29 C 1.221(3) 0.8734(15) 0.5789(5)
C30 C 1.123(2) 0.8220(11) 0.5956(5)
H37 H 1.1489 0.8176 0.6180
H38 H 1.1238 0.7703 0.5858
H39 H 1.0313 0.8443 0.5940
C31 C 1.496(2) 1.1525(9) 0.5283(5)
C32 C 1.5356(17) 1.1727(10) 0.4946(4)
H40 H 1.5098 1.1299 0.4805
H41 H 1.6343 1.1809 0.4934
H42 H 1.4883 1.2203 0.4881
O15 O 0.6882(12) 1.0631(6) 0.6763(3)
O16 O 0.9485(12) 1.0153(7) 0.6832(2)
C33 C 1.0176(15) 0.8724(9) 0.8224(3)
H43 H 1.0583 0.8197 0.8220
H44 H 0.9872 0.8835 0.8443
C34 C 1.1248(18) 0.9336(11) 0.8118(4)
C35 C 1.0315(16) 0.9962(10) 0.7974(3)
H45 H 1.0833 1.0328 0.7834
C36 C 0.9215(15) 0.9505(8) 0.7786(3)
H46 H 0.9733 0.9295 0.7600
C37 C 0.8037(15) 0.9922(8) 0.7634(3)
H47 H 0.7370 0.9515 0.7565
C38 C 0.8463(14) 1.0350(8) 0.7345(3)
C39 C 0.8506(15) 0.9887(9) 0.7053(3)
H48 H 0.8747 0.9341 0.7112
C40 C 0.7089(15) 0.9874(10) 0.6896(4)
H49 H 0.6382 0.9774 0.7062
C41 C 0.7029(19) 0.9234(11) 0.6649(5)
C42 C 0.661(2) 0.8409(11) 0.6758(4)
C43 C 0.6682(19) 0.8300(10) 0.7114(4)
H50 H 0.5980 0.8555 0.7229
C44 C 0.7540(17) 0.7917(9) 0.7287(4)
H51 H 0.8295 0.7696 0.7178
C45 C 0.7484(15) 0.7780(9) 0.7639(3)
H52 H 0.6727 0.8097 0.7731
C46 C 0.8831(19) 0.8042(8) 0.7786(3)
C47 C 0.8955(14) 0.8759(8) 0.7997(3)
C48 C 1.2218(17) 0.9634(11) 0.8367(4)
H53 H 1.2858 1.0001 0.8269
H54 H 1.2725 0.9197 0.8458
H55 H 1.1704 0.9898 0.8534
C49 C 0.8758(16) 1.1090(10) 0.7352(4)
H56 H 0.9013 1.1351 0.7162
H57 H 0.8717 1.1369 0.7546
C50 C 0.757(2) 0.7835(12) 0.6590(4)
H58 H 0.8514 0.7941 0.6653
H59 H 0.7481 0.7896 0.6360
H60 H 0.7328 0.7302 0.6650
C51 C 0.516(2) 0.8293(11) 0.6647(4)
H61 H 0.5138 0.8266 0.6415
H62 H 0.4597 0.8730 0.6719
H63 H 0.4799 0.7807 0.6736
C52 C 0.7225(18) 0.6922(8) 0.7712(4)
H64 H 0.7955 0.6605 0.7620
H65 H 0.6348 0.6764 0.7622
H66 H 0.7207 0.6846 0.7943
C53 C 0.7324(18) 0.8355(12) 0.8377(3)
C54 C 0.6041(16) 0.8624(9) 0.8541(3)
H67 H 0.5892 0.8311 0.8732
H68 H 0.5264 0.8563 0.8397
H69 H 0.6134 0.9173 0.8600
C55 C 0.973(2) 1.1141(11) 0.8235(5)
C56 C 0.899(3) 1.1471(11) 0.8510(4)
H70 H 0.8895 1.2035 0.8483
H71 H 0.9501 1.1364 0.8705
H72 H 0.8086 1.1233 0.8524
C57 C 0.600(2) 1.0409(12) 0.7840(5)
C58 C 0.5401(18) 1.0990(10) 0.8069(4)
H73 H 0.5465 1.0787 0.8285
H74 H 0.4442 1.1079 0.8015
H75 H 0.5903 1.1481 0.8054
C59 C 1.060(2) 0.9714(17) 0.6760(5)
O17 O 1.0712(19) 0.9119(14) 0.6906(5)
C60 C 0.562(3) 1.0789(13) 0.6693(4)
C61 C 0.5439(18) 1.1583(12) 0.6566(4)
H76 H 0.4467 1.1711 0.6559
H77 H 0.5820 1.1609 0.6351
H78 H 0.5913 1.1955 0.6703
C62 C 1.273(2) 0.8438(17) 0.7827(6)
C63 C 1.3170(19) 0.8223(13) 0.7513(5)
H79 H 1.3872 0.7819 0.7527
H80 H 1.3545 0.8681 0.7405
H81 H 1.2392 0.8024 0.7392
O18 O 0.9862(12) 0.7722(6) 0.7709(3)
C64 C 1.1556(17) 1.0072(13) 0.6543(4)
H82 H 1.2414 0.9780 0.6546
H83 H 1.1726 1.0611 0.6608
H84 H 1.1176 1.0067 0.6328
O19 O 0.7267(19) 0.9378(8) 0.6375(3)
O20 O 0.7350(12) 1.0412(6) 0.7861(2)
O21 O 0.7852(13) 0.7761(7) 0.8405(3)
O22 O 0.9676(10) 1.0367(6) 0.8238(2)
O23 O 1.1926(12) 0.9085(7) 0.7830(3)
O24 O 0.7701(9) 0.8925(5) 0.8170(2)
O25 O 1.3049(12) 0.8113(9) 0.8072(4)
O26 O 1.032(2) 1.1510(8) 0.8052(4)
O27 O 0.4716(15) 1.0338(10) 0.6727(4)
O28 O 0.5371(13) 1.0038(10) 0.7667(4)
loop_
_geom_bond_atom_site_label_1
_geom_bond_atom_site_label_2
_geom_bond_site_symmetry_1
_geom_bond_site_symmetry_2
O1 C3 1_555 1_555
O2 C31 1_555 1_555
O3 C8 1_555 1_555
O4 C27 1_555 1_555
O5 C9 1_555 1_555
O6 C24 1_555 1_555
O7 C6 1_555 1_555
O8 C22 1_555 1_555
O9 C4 1_555 1_555
O10 C17 1_555 1_555
O11 C29 1_555 1_555
O12 C18 1_555 1_555
O13 C10 1_555 1_555
C1 H1 1_555 1_555
H2 C1 1_555 1_555
O14 C20 1_555 1_555
C2 H3 1_555 1_555
H4 C2 1_555 1_555
C3 C2 1_555 1_555
C4 C3 1_555 1_555
H5 C4 1_555 1_555
C5 C4 1_555 1_555
H6 C5 1_555 1_555
C6 C5 1_555 1_555
H7 C6 1_555 1_555
C7 C1 1_555 1_555
C8 C7 1_555 1_555
H8 C8 1_555 1_555
C9 C8 1_555 1_555
H9 C9 1_555 1_555
C10 C9 1_555 1_555
C11 C10 1_555 1_555
C12 C11 1_555 1_555
H10 C12 1_555 1_555
H11 C12 1_555 1_555
H12 C12 1_555 1_555
C13 C11 1_555 1_555
H13 C13 1_555 1_555
H14 C13 1_555 1_555
H15 C13 1_555 1_555
C14 C11 1_555 1_555
H16 C14 1_555 1_555
C15 C14 1_555 1_555
H17 C15 1_555 1_555
C16 C15 1_555 1_555
H18 C16 1_555 1_555
C17 C16 1_555 1_555
C18 C2 1_555 1_555
C19 C3 1_555 1_555
H19 C19 1_555 1_555
H20 C19 1_555 1_555
H21 C19 1_555 1_555
C20 O9 1_555 1_555
C21 C20 1_555 1_555
H22 C21 1_555 1_555
H23 C21 1_555 1_555
H24 C21 1_555 1_555
C22 O7 1_555 1_555
C23 C22 1_555 1_555
H25 C23 1_555 1_555
H26 C23 1_555 1_555
H27 C23 1_555 1_555
C24 O5 1_555 1_555
C25 C24 1_555 1_555
H28 C25 1_555 1_555
H29 C25 1_555 1_555
H30 C25 1_555 1_555
C26 C16 1_555 1_555
H31 C26 1_555 1_555
H32 C26 1_555 1_555
H33 C26 1_555 1_555
C27 O3 1_555 1_555
C28 C27 1_555 1_555
H34 C28 1_555 1_555
H35 C28 1_555 1_555
H36 C28 1_555 1_555
C29 O12 1_555 1_555
C30 C29 1_555 1_555
H37 C30 1_555 1_555
H38 C30 1_555 1_555
H39 C30 1_555 1_555
C31 O1 1_555 1_555
C32 C31 1_555 1_555
H40 C32 1_555 1_555
H41 C32 1_555 1_555
H42 C32 1_555 1_555
O15 C40 1_555 1_555
O16 C39 1_555 1_555
C33 H43 1_555 1_555
H44 C33 1_555 1_555
C34 C33 1_555 1_555
C35 C34 1_555 1_555
H45 C35 1_555 1_555
C36 C35 1_555 1_555
H46 C36 1_555 1_555
C37 C36 1_555 1_555
H47 C37 1_555 1_555
C38 C37 1_555 1_555
C39 C38 1_555 1_555
H48 C39 1_555 1_555
C40 C39 1_555 1_555
H49 C40 1_555 1_555
C41 C40 1_555 1_555
C42 C41 1_555 1_555
C43 C42 1_555 1_555
H50 C43 1_555 1_555
C44 C43 1_555 1_555
H51 C44 1_555 1_555
C45 C44 1_555 1_555
H52 C45 1_555 1_555
C46 C45 1_555 1_555
C47 C33 1_555 1_555
C48 C34 1_555 1_555
H53 C48 1_555 1_555
H54 C48 1_555 1_555
H55 C48 1_555 1_555
C49 C38 1_555 1_555
H56 C49 1_555 1_555
H57 C49 1_555 1_555
C50 C42 1_555 1_555
H58 C50 1_555 1_555
H59 C50 1_555 1_555
H60 C50 1_555 1_555
C51 C42 1_555 1_555
H61 C51 1_555 1_555
H62 C51 1_555 1_555
H63 C51 1_555 1_555
C52 C45 1_555 1_555
H64 C52 1_555 1_555
H65 C52 1_555 1_555
H66 C52 1_555 1_555
C53 C54 1_555 1_555
C54 H67 1_555 1_555
H68 C54 1_555 1_555
H69 C54 1_555 1_555
C55 C56 1_555 1_555
C56 H70 1_555 1_555
H71 C56 1_555 1_555
H72 C56 1_555 1_555
C57 C58 1_555 1_555
C58 H73 1_555 1_555
H74 C58 1_555 1_555
H75 C58 1_555 1_555
C59 O16 1_555 1_555
O17 C59 1_555 1_555
C60 O15 1_555 1_555
C61 C60 1_555 1_555
H76 C61 1_555 1_555
H77 C61 1_555 1_555
H78 C61 1_555 1_555
C62 C63 1_555 1_555
C63 H79 1_555 1_555
H80 C63 1_555 1_555
H81 C63 1_555 1_555
O18 C46 1_555 1_555
C64 C59 1_555 1_555
H82 C64 1_555 1_555
H83 C64 1_555 1_555
H84 C64 1_555 1_555
O19 C41 1_555 1_555
O20 C37 1_555 1_555
O21 C53 1_555 1_555
O22 C35 1_555 1_555
O23 C34 1_555 1_555
O24 C47 1_555 1_555
O25 C62 1_555 1_555
O26 C55 1_555 1_555
O27 C60 1_555 1_555
O28 C57 1_555 1_555
C5 C18 1_555 1_555
C6 C7 1_555 1_555
C17 C18 1_555 1_555
C36 C47 1_555 1_555
C46 C47 1_555 1_555
C53 O24 1_555 1_555
C55 O22 1_555 1_555
C57 O20 1_555 1_555
C62 O23 1_555 1_555

#END
