
#######################################################################
#
#                 Cambridge Crystallographic Data Centre
#                                CCDC 
#
#######################################################################
#
# If this CIF has been generated from an entry in the Cambridge 
# Structural Database, then it will include bibliographic, chemical, 
# crystal, experimental, refinement or atomic coordinate data resulting 
# from the CCDC's data processing and validation procedures.
#
#######################################################################

data_JARBEM
_chemical_compound_source        
'hydrophobic extract of Rabdosia serra (Lamiaceae)'
_chemical_name_common            'Rabdosin I'
_chemical_formula_moiety         'C24 H34 O6'
_chemical_name_systematic        
'ent-6R-butoxy-6R, 20S-epoxy-20S-hydroxy-15-oxo-6,7-secokauran-16-en-1 ,7-olide'
_symmetry_cell_setting           monoclinic
_symmetry_space_group_name_H-M   'C 2'
_symmetry_Int_Tables_number      5
_space_group_name_Hall           'C 2y'
loop_
_symmetry_equiv_pos_site_id
_symmetry_equiv_pos_as_xyz
1 x,y,z
2 -x,y,-z
3 1/2+x,1/2+y,z
4 1/2-x,1/2+y,-z
_cell_length_a                   21.0816(2)
_cell_length_b                   6.60760(10)
_cell_length_c                   17.9221(2)
_cell_angle_alpha                90
_cell_angle_beta                 119.43
_cell_angle_gamma                90
_cell_volume                     2174.37
_exptl_crystal_colour            colorless
_cell_formula_units_Z            4
loop_
_atom_site_label
_atom_site_type_symbol
_atom_site_fract_x
_atom_site_fract_y
_atom_site_fract_z
O1 O 0.29632(9) 0.3627(3) 0.06575(10)
O2 O 0.18281(9) 0.4177(3) -0.03090(11)
O3 O 0.12382(10) 0.6544(3) 0.06410(12)
O4 O 0.28182(11) 0.7452(3) 0.14614(12)
H1 H 0.2839 0.8006 0.1052
O5 O 0.37913(10) 0.7519(3) 0.28158(11)
O6 O 0.35938(9) 0.6000(3) 0.38672(10)
C1 C 0.34496(12) 0.2882(4) 0.15187(14)
H2 H 0.3277 0.1511 0.1576
C2 C 0.41932(13) 0.2654(5) 0.16006(16)
H3 H 0.4358 0.3965 0.1488
H4 H 0.4176 0.1651 0.1181
C3 C 0.47153(13) 0.1945(4) 0.25125(17)
H5 H 0.5196 0.1643 0.2565
H6 H 0.4526 0.0681 0.2628
C4 C 0.48100(12) 0.3550(4) 0.31825(15)
C5 C 0.40444(12) 0.4036(4) 0.30900(15)
H7 H 0.3918 0.2952 0.3384
C6 C 0.40427(12) 0.6078(4) 0.34891(15)
H8 H 0.4551 0.6429 0.3936
C7 C 0.22645(12) 0.3848(4) 0.04366(15)
C8 C 0.20356(12) 0.3535(4) 0.11016(15)
C9 C 0.26322(11) 0.3899(4) 0.20749(14)
H9 H 0.2490 0.5151 0.2270
C10 C 0.33995(12) 0.4296(4) 0.21632(14)
C11 C 0.26214(13) 0.2132(4) 0.26309(16)
H10 H 0.2907 0.2526 0.3241
H11 H 0.2865 0.0949 0.2543
C12 C 0.18485(14) 0.1492(5) 0.24379(17)
H12 H 0.1870 0.0099 0.2653
H13 H 0.1687 0.2400 0.2751
C13 C 0.12825(13) 0.1561(5) 0.14711(17)
H14 H 0.0911 0.0465 0.1311
C14 C 0.16897(13) 0.1391(4) 0.09614(16)
H15 H 0.1352 0.1121 0.0347
H16 H 0.2066 0.0320 0.1195
C15 C 0.13745(13) 0.4855(4) 0.09324(15)
C16 C 0.09290(14) 0.3611(5) 0.12039(17)
C17 C 0.03211(17) 0.4298(6) 0.1159(2)
H17 H 0.0154 0.5623 0.0949
H18 H 0.0052 0.3466 0.1337
C18 C 0.52858(14) 0.2654(5) 0.40825(17)
H19 H 0.5071 0.1381 0.4132
H20 H 0.5312 0.3613 0.4514
H21 H 0.5777 0.2398 0.4174
C19 C 0.52207(13) 0.5387(5) 0.30951(17)
H22 H 0.5293 0.6400 0.3529
H23 H 0.4935 0.5980 0.2523
H24 H 0.5695 0.4948 0.3177
C20 C 0.34695(12) 0.6549(4) 0.19919(14)
H25 H 0.3801 0.6689 0.1744
C21 C 0.36500(15) 0.7798(5) 0.43411(17)
H26 H 0.3424 0.8947 0.3942
H27 H 0.4169 0.8125 0.4728
C22 C 0.32672(14) 0.7483(5) 0.48625(16)
H28 H 0.3479 0.8433 0.5353
H29 H 0.3373 0.6093 0.5099
C23 C 0.24413(15) 0.7776(6) 0.43770(18)
H30 H 0.2254 0.7622 0.4784
H31 H 0.2332 0.9174 0.4149
C24 C 0.20416(15) 0.6303(6) 0.36410(19)
H32 H 0.2190 0.6529 0.3208
H33 H 0.1515 0.6516 0.3384
H34 H 0.2162 0.4913 0.3856
loop_
_geom_bond_atom_site_label_1
_geom_bond_atom_site_label_2
_geom_bond_site_symmetry_1
_geom_bond_site_symmetry_2
O1 C1 1_555 1_555
O2 C7 1_555 1_555
O3 C15 1_555 1_555
O4 H1 1_555 1_555
O5 C6 1_555 1_555
O6 C6 1_555 1_555
C1 H2 1_555 1_555
C2 C1 1_555 1_555
H3 C2 1_555 1_555
H4 C2 1_555 1_555
C3 C2 1_555 1_555
H5 C3 1_555 1_555
H6 C3 1_555 1_555
C4 C3 1_555 1_555
C5 C4 1_555 1_555
H7 C5 1_555 1_555
C6 C5 1_555 1_555
H8 C6 1_555 1_555
C7 O1 1_555 1_555
C8 C7 1_555 1_555
C9 C8 1_555 1_555
H9 C9 1_555 1_555
C10 C1 1_555 1_555
C11 C9 1_555 1_555
H10 C11 1_555 1_555
H11 C11 1_555 1_555
C12 C11 1_555 1_555
H12 C12 1_555 1_555
H13 C12 1_555 1_555
C13 C12 1_555 1_555
H14 C13 1_555 1_555
C14 C8 1_555 1_555
H15 C14 1_555 1_555
H16 C14 1_555 1_555
C15 C8 1_555 1_555
C16 C13 1_555 1_555
C17 C16 1_555 1_555
H17 C17 1_555 1_555
H18 C17 1_555 1_555
C18 C4 1_555 1_555
H19 C18 1_555 1_555
H20 C18 1_555 1_555
H21 C18 1_555 1_555
C19 C4 1_555 1_555
H22 C19 1_555 1_555
H23 C19 1_555 1_555
H24 C19 1_555 1_555
C20 O4 1_555 1_555
H25 C20 1_555 1_555
C21 O6 1_555 1_555
H26 C21 1_555 1_555
H27 C21 1_555 1_555
C22 C21 1_555 1_555
H28 C22 1_555 1_555
H29 C22 1_555 1_555
C23 C22 1_555 1_555
H30 C23 1_555 1_555
H31 C23 1_555 1_555
C24 C23 1_555 1_555
H32 C24 1_555 1_555
H33 C24 1_555 1_555
H34 C24 1_555 1_555
O5 C20 1_555 1_555
C5 C10 1_555 1_555
C9 C10 1_555 1_555
C10 C20 1_555 1_555
C13 C14 1_555 1_555
C15 C16 1_555 1_555

#END
