
#######################################################################
#
#                 Cambridge Crystallographic Data Centre
#                                CCDC 
#
#######################################################################
#
# If this CIF has been generated from an entry in the Cambridge 
# Structural Database, then it will include bibliographic, chemical, 
# crystal, experimental, refinement or atomic coordinate data resulting 
# from the CCDC's data processing and validation procedures.
#
#######################################################################

data_JARQUP01
_chemical_formula_moiety         'C8 H7 N3'
_chemical_name_systematic        3-(3-Pyridyl)pyrazole
_symmetry_cell_setting           monoclinic
_symmetry_space_group_name_H-M   'P 21/n'
_symmetry_Int_Tables_number      14
_space_group_name_Hall           '-P 2yn'
loop_
_symmetry_equiv_pos_site_id
_symmetry_equiv_pos_as_xyz
1 x,y,z
2 1/2-x,1/2+y,1/2-z
3 -x,-y,-z
4 1/2+x,1/2-y,1/2+z
_cell_length_a                   15.009(2)
_cell_length_b                   5.8998(9)
_cell_length_c                   16.526(3)
_cell_angle_alpha                90
_cell_angle_beta                 91.308(3)
_cell_angle_gamma                90
_cell_volume                     1463
_exptl_crystal_colour            colorless
_exptl_crystal_description       plate
_cell_formula_units_Z            8
_exptl_crystal_recrystallization_method dichloromethane/pentane
loop_
_atom_site_label
_atom_site_type_symbol
_atom_site_fract_x
_atom_site_fract_y
_atom_site_fract_z
N1 N 0.70900(11) 0.0176(3) 0.61580(10)
N2 N 0.77591(12) 0.1527(3) 0.64295(10)
H1 H 0.8361(16) 0.120(4) 0.6335(14)
C1 C 0.74673(15) 0.3311(4) 0.68506(13)
H2 H 0.7824 0.4466 0.7094
C2 C 0.65613(14) 0.3154(3) 0.68640(13)
H3 H 0.6159 0.4160 0.7117
C3 C 0.63521(13) 0.1184(3) 0.64237(11)
C4 C 0.54674(13) 0.0231(3) 0.62193(11)
C5 C 0.47029(13) 0.1484(3) 0.63554(11)
H4 H 0.4768 0.2899 0.6625
N3 N 0.38792(11) 0.0829(3) 0.61316(10)
C6 C 0.37952(14) -0.1178(3) 0.57603(12)
H5 H 0.3219 -0.1656 0.5583
C7 C 0.45148(13) -0.2586(3) 0.56241(12)
H6 H 0.4428 -0.4025 0.5377
C8 C 0.53580(14) -0.1875(3) 0.58513(11)
H7 H 0.5860 -0.2813 0.5758
N4 N 0.21391(11) 0.5544(3) 0.63935(10)
N5 N 0.24300(12) 0.3902(3) 0.58955(11)
H8 H 0.2930(15) 0.284(4) 0.6044(12)
C9 C 0.19592(15) 0.3819(4) 0.51898(14)
H9 H 0.2054 0.2810 0.4752
C10 C 0.13230(14) 0.5462(3) 0.52258(13)
H10 H 0.0883 0.5827 0.4824
C11 C 0.14563(12) 0.6504(3) 0.59864(12)
C12 C 0.09823(12) 0.8427(3) 0.63315(11)
C13 C 0.01212(13) 0.8973(3) 0.60716(12)
H11 H -0.0156 0.8030 0.5674
N6 N -0.03432(11) 1.0747(3) 0.63461(10)
C14 C 0.00636(14) 1.2073(4) 0.68986(12)
H12 H -0.0246 1.3364 0.7089
C15 C 0.09104(14) 1.1656(4) 0.72043(12)
H13 H 0.1170 1.2624 0.7604
C16 C 0.13744(14) 0.9820(3) 0.69229(12)
H14 H 0.1957 0.9501 0.7129
loop_
_geom_bond_atom_site_label_1
_geom_bond_atom_site_label_2
_geom_bond_site_symmetry_1
_geom_bond_site_symmetry_2
N1 N2 1_555 1_555
N2 H1 1_555 1_555
C1 N2 1_555 1_555
H2 C1 1_555 1_555
C2 C1 1_555 1_555
H3 C2 1_555 1_555
C3 N1 1_555 1_555
C4 C3 1_555 1_555
C5 C4 1_555 1_555
H4 C5 1_555 1_555
N3 C5 1_555 1_555
C6 N3 1_555 1_555
H5 C6 1_555 1_555
C7 C6 1_555 1_555
H6 C7 1_555 1_555
C8 C4 1_555 1_555
H7 C8 1_555 1_555
N4 N5 1_555 1_555
N5 H8 1_555 1_555
C9 N5 1_555 1_555
H9 C9 1_555 1_555
C10 C9 1_555 1_555
H10 C10 1_555 1_555
C11 N4 1_555 1_555
C12 C11 1_555 1_555
C13 C12 1_555 1_555
H11 C13 1_555 1_555
N6 C13 1_555 1_555
C14 N6 1_555 1_555
H12 C14 1_555 1_555
C15 C14 1_555 1_555
H13 C15 1_555 1_555
C16 C12 1_555 1_555
H14 C16 1_555 1_555
C2 C3 1_555 1_555
C7 C8 1_555 1_555
C10 C11 1_555 1_555
C15 C16 1_555 1_555

#END
