
#######################################################################
#
#                 Cambridge Crystallographic Data Centre
#                                CCDC 
#
#######################################################################
#
# If this CIF has been generated from an entry in the Cambridge 
# Structural Database, then it will include bibliographic, chemical, 
# crystal, experimental, refinement or atomic coordinate data resulting 
# from the CCDC's data processing and validation procedures.
#
#######################################################################

data_JARQUP
_chemical_formula_moiety         'C8 H7 N3'
_chemical_name_systematic        3-(3-Pyridyl)pyrazole
_symmetry_cell_setting           orthorhombic
_symmetry_space_group_name_H-M   'P n a 21'
_symmetry_Int_Tables_number      33
_space_group_name_Hall           'P 2c -2n'
loop_
_symmetry_equiv_pos_site_id
_symmetry_equiv_pos_as_xyz
1 x,y,z
2 -x,-y,1/2+z
3 1/2-x,1/2+y,1/2+z
4 1/2+x,1/2-y,z
_cell_length_a                   21.853(4)
_cell_length_b                   8.4566(17)
_cell_length_c                   3.8270(8)
_cell_angle_alpha                90
_cell_angle_beta                 90
_cell_angle_gamma                90
_cell_volume                     707.238
_exptl_crystal_colour            colorless
_exptl_crystal_description       rod
_cell_formula_units_Z            4
loop_
_atom_site_label
_atom_site_type_symbol
_atom_site_fract_x
_atom_site_fract_y
_atom_site_fract_z
C1 C 0.63287(12) 0.0157(3) 0.9768(9)
N1 N 0.63104(10) 0.3010(3) 0.9878(7)
C2 C 0.60652(12) 0.1598(3) 1.0617(8)
H1 H 0.5684 0.1582 1.1806
C3 C 0.68575(13) 0.3011(4) 0.8273(9)
H2 H 0.7039 0.3998 0.7706
C4 C 0.68988(12) 0.0203(3) 0.8116(9)
H3 H 0.7100 -0.0751 0.7483
C5 C 0.60203(12) -0.1339(3) 1.0582(8)
C6 C 0.71676(13) 0.1645(3) 0.7411(9)
H4 H 0.7560 0.1695 0.6349
N2 N 0.63065(10) -0.2718(3) 1.0017(7)
C7 C 0.54270(12) -0.1588(3) 1.1936(9)
H5 H 0.5133 -0.0809 1.2560
N3 N 0.58955(10) -0.3838(3) 1.0996(9)
C8 C 0.53671(13) -0.3197(4) 1.2155(9)
H6 H 0.5019 -0.3759 1.2970
H7 H 0.6011(12) -0.503(3) 1.075(10)
loop_
_geom_bond_atom_site_label_1
_geom_bond_atom_site_label_2
_geom_bond_site_symmetry_1
_geom_bond_site_symmetry_2
C1 C2 1_555 1_555
N1 C2 1_555 1_555
C2 H1 1_555 1_555
C3 N1 1_555 1_555
H2 C3 1_555 1_555
C4 C1 1_555 1_555
H3 C4 1_555 1_555
C5 C1 1_555 1_555
C6 C3 1_555 1_555
H4 C6 1_555 1_555
N2 C5 1_555 1_555
C7 C5 1_555 1_555
H5 C7 1_555 1_555
N3 N2 1_555 1_555
C8 C7 1_555 1_555
H6 C8 1_555 1_555
H7 N3 1_555 1_555
C4 C6 1_555 1_555
N3 C8 1_555 1_555

#END
