
#######################################################################
#
#                 Cambridge Crystallographic Data Centre
#                                CCDC 
#
#######################################################################
#
# If this CIF has been generated from an entry in the Cambridge 
# Structural Database, then it will include bibliographic, chemical, 
# crystal, experimental, refinement or atomic coordinate data resulting 
# from the CCDC's data processing and validation procedures.
#
#######################################################################

data_JARRAW
_chemical_formula_moiety         'C8 H7 N3'
_chemical_name_systematic        3-(4-Pyridyl)pyrazole
_symmetry_cell_setting           monoclinic
_symmetry_space_group_name_H-M   'P 21/c'
_symmetry_Int_Tables_number      14
_space_group_name_Hall           '-P 2ybc'
loop_
_symmetry_equiv_pos_site_id
_symmetry_equiv_pos_as_xyz
1 x,y,z
2 -x,1/2+y,1/2-z
3 -x,-y,-z
4 x,1/2-y,1/2+z
_cell_length_a                   6.9317(6)
_cell_length_b                   9.0964(8)
_cell_length_c                   11.0059(10)
_cell_angle_alpha                90
_cell_angle_beta                 92.2630(10)
_cell_angle_gamma                90
_cell_volume                     693.419
_exptl_crystal_colour            colorless
_exptl_crystal_description       plate
_cell_formula_units_Z            4
_exptl_crystal_recrystallization_method dichloromethane/pentane
loop_
_atom_site_label
_atom_site_type_symbol
_atom_site_fract_x
_atom_site_fract_y
_atom_site_fract_z
N1 N 0.17631(13) 0.24244(10) 0.74777(8)
N2 N 0.05128(13) 0.17976(11) 0.82332(9)
H1 H -0.037(2) 0.2355(18) 0.8615(15)
C1 C 0.08244(16) 0.03512(13) 0.83818(10)
H2 H 0.0109 -0.0298 0.8868
C2 C 0.23682(16) -0.00141(12) 0.77007(9)
H3 H 0.2949 -0.0953 0.7619
C3 C 0.28991(14) 0.13140(11) 0.71494(9)
C4 C 0.44903(14) 0.15825(11) 0.63363(9)
C5 C 0.61685(15) 0.07307(12) 0.64144(9)
H4 H 0.6286 -0.0055 0.6981
C6 C 0.76571(16) 0.10484(13) 0.56536(10)
H5 H 0.8796 0.0469 0.5726
N3 N 0.75885(14) 0.21244(12) 0.48208(9)
C7 C 0.59613(17) 0.29209(13) 0.47425(10)
H6 H 0.5873 0.3683 0.4152
C8 C 0.44044(16) 0.27007(12) 0.54682(10)
H7 H 0.3289 0.3304 0.5377
loop_
_geom_bond_atom_site_label_1
_geom_bond_atom_site_label_2
_geom_bond_site_symmetry_1
_geom_bond_site_symmetry_2
N1 N2 1_555 1_555
N2 H1 1_555 1_555
C1 N2 1_555 1_555
H2 C1 1_555 1_555
C2 C1 1_555 1_555
H3 C2 1_555 1_555
C3 N1 1_555 1_555
C4 C3 1_555 1_555
C5 C4 1_555 1_555
H4 C5 1_555 1_555
C6 C5 1_555 1_555
H5 C6 1_555 1_555
N3 C6 1_555 1_555
C7 N3 1_555 1_555
H6 C7 1_555 1_555
C8 C4 1_555 1_555
H7 C8 1_555 1_555
C2 C3 1_555 1_555
C7 C8 1_555 1_555

#END
