
#######################################################################
#
#                 Cambridge Crystallographic Data Centre
#                                CCDC 
#
#######################################################################
#
# If this CIF has been generated from an entry in the Cambridge 
# Structural Database, then it will include bibliographic, chemical, 
# crystal, experimental, refinement or atomic coordinate data resulting 
# from the CCDC's data processing and validation procedures.
#
#######################################################################

data_JASLAT
_chemical_name_common            
(R)-4,5-bis(4-fluorophenyl)-2-phenyl-1-tosyl-2,3-dihydro-1H-pyrrole
_chemical_formula_moiety         'C29 H23 F2 N1 O2 S1'
_chemical_name_systematic        
4,5-bis(4-fluorophenyl)-1-[(4-methylphenyl)sulfonyl]-2-phenyl-2,3-dihydro-1H-pyrrole
_symmetry_cell_setting           monoclinic
_symmetry_space_group_name_H-M   'P 21'
_symmetry_Int_Tables_number      4
_space_group_name_Hall           'P 2yb'
loop_
_symmetry_equiv_pos_site_id
_symmetry_equiv_pos_as_xyz
1 x,y,z
2 -x,1/2+y,-z
_cell_length_a                   9.287(2)
_cell_length_b                   10.555(2)
_cell_length_c                   12.485(3)
_cell_angle_alpha                90
_cell_angle_beta                 95.780(4)
_cell_angle_gamma                90
_cell_volume                     1217.61
_exptl_crystal_colour            'light yellow'
_exptl_crystal_description       block
_cell_formula_units_Z            2
_exptl_crystal_recrystallization_method 'hexane/ ethyl acetate'
loop_
_atom_site_label
_atom_site_type_symbol
_atom_site_fract_x
_atom_site_fract_y
_atom_site_fract_z
S1 S 0.04261(6) -0.26888(6) -0.06166(5)
F1 F -0.4530(4) -0.5929(2) -0.64540(19)
F2 F -0.0726(3) 0.1431(2) -0.4480(2)
O1 O 0.0607(2) -0.3006(2) 0.04965(18)
O2 O 0.0791(2) -0.1445(2) -0.0946(2)
N1 N -0.1327(2) -0.29075(19) -0.10098(18)
C1 C -0.3300(3) -0.3687(2) -0.0008(2)
C2 C -0.2878(3) -0.4506(3) -0.3536(2)
C3 C -0.2335(3) -0.4939(3) -0.1510(2)
H1 H -0.1620 -0.5607 -0.1521
H2 H -0.3286 -0.5318 -0.1498
C4 C -0.1489(3) -0.1799(3) -0.2795(2)
C5 C -0.1713(3) -0.2946(2) -0.2163(2)
C6 C -0.1984(3) -0.4056(2) -0.0545(2)
H3 H -0.1273 -0.4460 -0.0020
C7 C -0.1736(4) -0.0601(3) -0.2372(3)
H4 H -0.2074 -0.0538 -0.1698
C8 C -0.4820(4) -0.4047(3) 0.1403(3)
H5 H -0.5008 -0.4485 0.2020
C9 C -0.3826(4) -0.3790(3) -0.4217(3)
H6 H -0.4084 -0.2981 -0.4011
C10 C -0.2291(3) -0.4068(2) -0.2461(2)
C11 C 0.1373(3) -0.3774(3) -0.1351(2)
C12 C 0.1930(4) -0.3371(3) -0.2274(3)
H7 H 0.1851 -0.2527 -0.2485
C13 C -0.4272(3) -0.2783(3) -0.0433(2)
H8 H -0.4098 -0.2352 -0.1057
C14 C -0.0989(3) -0.1877(3) -0.3796(3)
H9 H -0.0815 -0.2669 -0.4084
C15 C -0.3050(4) -0.6189(3) -0.4858(3)
H10 H -0.2784 -0.6988 -0.5083
C16 C -0.0996(4) 0.0353(3) -0.3926(3)
C17 C -0.5503(3) -0.2515(3) 0.0065(3)
H11 H -0.6145 -0.1899 -0.0223
C18 C -0.3579(3) -0.4300(3) 0.0924(2)
H12 H -0.2922 -0.4893 0.1233
C19 C -0.2503(4) -0.5712(3) -0.3867(3)
H13 H -0.1874 -0.6204 -0.3414
C20 C -0.5782(3) -0.3150(3) 0.0974(3)
H14 H -0.6617 -0.2976 0.1300
C21 C -0.4391(4) -0.4268(3) -0.5199(3)
H15 H -0.5034 -0.3792 -0.5655
C22 C -0.1487(4) 0.0487(3) -0.2934(3)
H16 H -0.1647 0.1283 -0.2650
C23 C -0.0744(4) -0.0795(3) -0.4382(3)
H17 H -0.0418 -0.0848 -0.5061
C24 C 0.2606(4) -0.4236(4) -0.2878(3)
H18 H 0.2990 -0.3964 -0.3498
C25 C 0.2168(4) -0.5885(3) -0.1657(3)
H19 H 0.2244 -0.6730 -0.1447
C26 C 0.1496(4) -0.5026(3) -0.1033(3)
H20 H 0.1130 -0.5290 -0.0403
C27 C -0.3989(5) -0.5455(4) -0.5490(3)
C28 C 0.2730(4) -0.5498(3) -0.2591(3)
C29 C 0.3470(5) -0.6430(4) -0.3257(4)
H21 H 0.3610 -0.6056 -0.3940
H22 H 0.2883 -0.7176 -0.3369
H23 H 0.4392 -0.6656 -0.2889
loop_
_geom_bond_atom_site_label_1
_geom_bond_atom_site_label_2
_geom_bond_site_symmetry_1
_geom_bond_site_symmetry_2
S1 O1 1_555 1_555
F1 C27 1_555 1_555
F2 C16 1_555 1_555
O2 S1 1_555 1_555
N1 S1 1_555 1_555
C1 C6 1_555 1_555
C2 C9 1_555 1_555
C3 H1 1_555 1_555
H2 C3 1_555 1_555
C4 C5 1_555 1_555
C5 N1 1_555 1_555
C6 N1 1_555 1_555
H3 C6 1_555 1_555
C7 C4 1_555 1_555
H4 C7 1_555 1_555
C8 H5 1_555 1_555
C9 H6 1_555 1_555
C10 C2 1_555 1_555
C11 S1 1_555 1_555
C12 C11 1_555 1_555
H7 C12 1_555 1_555
C13 C1 1_555 1_555
H8 C13 1_555 1_555
C14 C4 1_555 1_555
H9 C14 1_555 1_555
C15 H10 1_555 1_555
C16 C22 1_555 1_555
C17 C13 1_555 1_555
H11 C17 1_555 1_555
C18 C1 1_555 1_555
H12 C18 1_555 1_555
C19 C2 1_555 1_555
H13 C19 1_555 1_555
C20 C8 1_555 1_555
H14 C20 1_555 1_555
C21 C9 1_555 1_555
H15 C21 1_555 1_555
C22 C7 1_555 1_555
H16 C22 1_555 1_555
C23 C14 1_555 1_555
H17 C23 1_555 1_555
C24 C12 1_555 1_555
H18 C24 1_555 1_555
C25 H19 1_555 1_555
C26 C11 1_555 1_555
H20 C26 1_555 1_555
C27 C15 1_555 1_555
C28 C24 1_555 1_555
C29 C28 1_555 1_555
H21 C29 1_555 1_555
H22 C29 1_555 1_555
H23 C29 1_555 1_555
C3 C6 1_555 1_555
C3 C10 1_555 1_555
C5 C10 1_555 1_555
C8 C18 1_555 1_555
C15 C19 1_555 1_555
C16 C23 1_555 1_555
C17 C20 1_555 1_555
C21 C27 1_555 1_555
C25 C26 1_555 1_555
C25 C28 1_555 1_555

#END
