
#######################################################################
#
#                 Cambridge Crystallographic Data Centre
#                                CCDC 
#
#######################################################################
#
# If this CIF has been generated from an entry in the Cambridge 
# Structural Database, then it will include bibliographic, chemical, 
# crystal, experimental, refinement or atomic coordinate data resulting 
# from the CCDC's data processing and validation procedures.
#
#######################################################################

data_JASMAR
_chemical_formula_moiety         'C8 H11 N1 O2'
_chemical_name_systematic        1-Ethyl-3-hydroxy-2-methyl-pyridin-4-one
_symmetry_cell_setting           orthorhombic
_symmetry_space_group_name_H-M   'P b c a'
_symmetry_Int_Tables_number      61
_space_group_name_Hall           '-P 2ac 2ab'
loop_
_symmetry_equiv_pos_site_id
_symmetry_equiv_pos_as_xyz
1 x,y,z
2 1/2-x,1/2+y,z
3 x,1/2-y,1/2+z
4 1/2-x,-y,1/2+z
5 -x,-y,-z
6 1/2+x,1/2-y,-z
7 -x,1/2+y,1/2-z
8 1/2+x,y,1/2-z
_cell_length_a                   12.5907(8)
_cell_length_b                   11.7477(6)
_cell_length_c                   11.0040(6)
_cell_angle_alpha                90
_cell_angle_beta                 90
_cell_angle_gamma                90
_cell_volume                     1627.62
_exptl_crystal_colour            white
_chemical_melting_point          205deg.C(dec)
_cell_formula_units_Z            8
loop_
_atom_site_label
_atom_site_type_symbol
_atom_site_fract_x
_atom_site_fract_y
_atom_site_fract_z
O1 O 0.6157(1) 0.0325(1) 0.1408(2)
O2 O 0.4477(1) -0.1035(2) 0.0769(1)
N1 N 0.5665(2) -0.1174(2) 0.4200(2)
C1 C 0.7042(3) 0.0277(3) 0.3735(3)
C2 C 0.6124(2) -0.0447(2) 0.3369(2)
C3 C 0.5712(2) -0.0403(2) 0.2218(2)
C4 C 0.4831(2) -0.1088(2) 0.1837(2)
C5 C 0.4437(2) -0.1827(3) 0.2739(2)
C6 C 0.4846(2) -0.1850(2) 0.3873(3)
C7 C 0.6099(3) -0.1320(3) 0.5446(2)
C8 C 0.6920(3) -0.2225(3) 0.5493(3)
H1 H 0.766(3) -0.008(3) 0.403(3)
H2 H 0.728(3) 0.065(4) 0.307(4)
H3 H 0.693(4) 0.078(4) 0.436(4)
H4 H 0.578(3) 0.036(3) 0.070(4)
H5 H 0.392(3) -0.223(3) 0.251(3)
H6 H 0.463(2) -0.235(3) 0.456(3)
H7 H 0.642(3) -0.063(3) 0.582(3)
H8 H 0.565(3) -0.148(3) 0.616(3)
H9 H 0.755(3) -0.198(3) 0.492(3)
H10 H 0.701(3) -0.229(3) 0.653(4)
H11 H 0.659(3) -0.297(3) 0.513(3)
loop_
_geom_bond_atom_site_label_1
_geom_bond_atom_site_label_2
_geom_bond_site_symmetry_1
_geom_bond_site_symmetry_2
O1 C3 1_555 1_555
O2 C4 1_555 1_555
N1 C2 1_555 1_555
C1 C2 1_555 1_555
C2 C3 1_555 1_555
C3 C4 1_555 1_555
C4 C5 1_555 1_555
C5 C6 1_555 1_555
C6 N1 1_555 1_555
C7 N1 1_555 1_555
C8 C7 1_555 1_555
H1 C1 1_555 1_555
H2 C1 1_555 1_555
H3 C1 1_555 1_555
H4 O1 1_555 1_555
H5 C5 1_555 1_555
H6 C6 1_555 1_555
H7 C7 1_555 1_555
H8 C7 1_555 1_555
H9 C8 1_555 1_555
H10 C8 1_555 1_555
H11 C8 1_555 1_555

#END
