
#######################################################################
#
#                 Cambridge Crystallographic Data Centre
#                                CCDC 
#
#######################################################################
#
# If this CIF has been generated from an entry in the Cambridge 
# Structural Database, then it will include bibliographic, chemical, 
# crystal, experimental, refinement or atomic coordinate data resulting 
# from the CCDC's data processing and validation procedures.
#
#######################################################################

data_JASTAY
_chemical_formula_moiety         'C16 H10 Cl8'
_chemical_name_systematic        
endo,endo,exo-1,5,6,7,8,12,13,14-Octachloro-pentacyclo-(10.2.1.1^3,10^.0^2,11^.0^4,9^)hexadeca-5,7,13-triene
_symmetry_cell_setting           monoclinic
_symmetry_space_group_name_H-M   'C 2/c'
_symmetry_Int_Tables_number      15
_space_group_name_Hall           '-C 2yn'
loop_
_symmetry_equiv_pos_site_id
_symmetry_equiv_pos_as_xyz
1 x,y,z
2 1/2+x,1/2+y,z
3 -x,y,1/2-z
4 1/2-x,1/2+y,1/2-z
5 -x,-y,-z
6 1/2-x,1/2-y,-z
7 x,-y,1/2+z
8 1/2+x,1/2-y,1/2+z
_cell_length_a                   30.842(10)
_cell_length_b                   8.588(5)
_cell_length_c                   14.296(6)
_cell_angle_alpha                90
_cell_angle_beta                 97.17
_cell_angle_gamma                90
_cell_volume                     3756.99
_chemical_melting_point          188-190deg.C
_cell_formula_units_Z            8
loop_
_atom_site_label
_atom_site_type_symbol
_atom_site_fract_x
_atom_site_fract_y
_atom_site_fract_z
Cl1 Cl 0.0476(1) 0.1327(2) -0.1135(1)
Cl2 Cl 0.1329(1) -0.0595(1) 0.2053(1)
Cl3 Cl 0.2058(1) 0.0205(1) 0.3713(1)
Cl4 Cl 0.2416(1) 0.3576(1) 0.3965(1)
Cl5 Cl 0.2018(1) 0.6239(1) 0.2640(1)
Cl6 Cl 0.1025(1) 0.7433(1) -0.0604(1)
Cl7 Cl 0.0549(1) 0.6339(1) 0.1230(1)
Cl8 Cl 0.0215(1) 0.2569(1) 0.0912(1)
C1 C 0.0744(1) 0.2971(5) -0.0583(3)
C2 C 0.1244(1) 0.2788(5) -0.0363(3)
C3 C 0.1506(1) 0.1946(6) 0.0458(3)
C4 C 0.1370(2) 0.2362(4) 0.1431(3)
C5 C 0.1558(1) 0.1239(4) 0.2184(3)
C6 C 0.1862(1) 0.1590(5) 0.2885(3)
C7 C 0.2027(1) 0.3175(5) 0.3022(3)
C8 C 0.1863(1) 0.4318(5) 0.2435(3)
C9 C 0.1533(1) 0.4078(5) 0.1588(3)
C10 C 0.1733(1) 0.4434(5) 0.0673(3)
C11 C 0.1400(1) 0.4514(5) -0.0217(3)
C12 C 0.0962(1) 0.5421(5) -0.0368(3)
C13 C 0.0669(1) 0.5068(5) 0.0375(3)
C14 C 0.0538(1) 0.3597(5) 0.0253(3)
C15 C 0.0726(2) 0.4469(5) -0.1178(3)
C16 C 0.1941(1) 0.2832(5) 0.0504(3)
H1 H 0.1310(12) 0.2462(42) -0.0910(28)
H2 H 0.1519(12) 0.0958(51) 0.0403(25)
H3 H 0.1064(12) 0.2263(36) 0.1426(21)
H4 H 0.1291(12) 0.4783(43) 0.1645(22)
H5 H 0.1948(12) 0.5280(43) 0.0705(23)
H6 H 0.1563(11) 0.4835(38) -0.0653(26)
H7 H 0.0876(12) 0.4372(43) -0.1694(30)
H8 H 0.0420(15) 0.4789(49) -0.1345(30)
H9 H 0.2167(12) 0.2452(42) 0.1006(26)
H10 H 0.2088(12) 0.2785(42) -0.0051(27)
loop_
_geom_bond_atom_site_label_1
_geom_bond_atom_site_label_2
_geom_bond_site_symmetry_1
_geom_bond_site_symmetry_2
Cl1 C1 1_555 1_555
Cl2 C5 1_555 1_555
Cl3 C6 1_555 1_555
Cl4 C7 1_555 1_555
Cl5 C8 1_555 1_555
Cl6 C12 1_555 1_555
Cl7 C13 1_555 1_555
Cl8 C14 1_555 1_555
C1 C2 1_555 1_555
C2 C3 1_555 1_555
C3 C4 1_555 1_555
C4 C5 1_555 1_555
C5 C6 1_555 1_555
C6 C7 1_555 1_555
C7 C8 1_555 1_555
C8 C9 1_555 1_555
C9 C4 1_555 1_555
C10 C9 1_555 1_555
C11 C2 1_555 1_555
C12 C11 1_555 1_555
C13 C12 1_555 1_555
C14 C1 1_555 1_555
C15 C1 1_555 1_555
C16 C3 1_555 1_555
H1 C2 1_555 1_555
H2 C3 1_555 1_555
H3 C4 1_555 1_555
H4 C9 1_555 1_555
H5 C10 1_555 1_555
H6 C11 1_555 1_555
H7 C15 1_555 1_555
H8 C15 1_555 1_555
H9 C16 1_555 1_555
H10 C16 1_555 1_555
C10 C11 1_555 1_555
C10 C16 1_555 1_555
C12 C15 1_555 1_555
C13 C14 1_555 1_555

#END
