
#######################################################################
#
#                 Cambridge Crystallographic Data Centre
#                                CCDC 
#
#######################################################################
#
# If this CIF has been generated from an entry in the Cambridge 
# Structural Database, then it will include bibliographic, chemical, 
# crystal, experimental, refinement or atomic coordinate data resulting 
# from the CCDC's data processing and validation procedures.
#
#######################################################################

data_JATDOA
_chemical_formula_moiety         'C30 H27 N4 P1,C1 H2 Cl2'
_chemical_name_systematic        
"N,N'-((phenylphosphinediyl)bis(pyridin-3-ylmethylene))dianiline dichloromethane solvate"
_symmetry_cell_setting           triclinic
_symmetry_space_group_name_H-M   'P -1'
_symmetry_Int_Tables_number      2
_space_group_name_Hall           '-P 1'
loop_
_symmetry_equiv_pos_site_id
_symmetry_equiv_pos_as_xyz
1 x,y,z
2 -x,-y,-z
_cell_length_a                   10.220(2)
_cell_length_b                   11.414(2)
_cell_length_c                   13.567(3)
_cell_angle_alpha                69.13(3)
_cell_angle_beta                 72.42(3)
_cell_angle_gamma                78.75(3)
_cell_volume                     1402.89
_exptl_crystal_colour            colorless
_exptl_crystal_description       prism
_cell_formula_units_Z            2
loop_
_atom_site_label
_atom_site_type_symbol
_atom_site_fract_x
_atom_site_fract_y
_atom_site_fract_z
P1 P 0.35767(7) 0.88652(6) 0.13884(5)
N1 N 0.2533(2) 0.8805(2) 0.35621(16)
H1 H 0.1794 0.8601 0.3479
N2 N 0.2671(2) 0.6968(2) 0.11611(17)
H2 H 0.2960 0.7443 0.0481
C1 C 0.4016(3) 1.0519(2) 0.22990(19)
C2 C 0.3709(3) 0.9162(2) 0.2629(2)
H3 H 0.4536 0.8617 0.2845
N3 N 0.5569(2) 1.2115(2) 0.11886(18)
C3 C 0.3081(3) 1.1420(2) 0.2689(2)
H4 H 0.2224 1.1193 0.3193
C4 C 0.1968(3) 0.9815(2) 0.1138(2)
C5 C 0.2570(3) 0.8784(2) 0.45924(19)
C6 C 0.5243(3) 1.0923(2) 0.1557(2)
H5 H 0.5894 1.0317 0.1293
C7 C 0.3797(3) 0.8801(2) 0.4835(2)
H6 H 0.4639 0.8853 0.4284
C8 C 0.3019(3) 0.7238(2) 0.2011(2)
H7 H 0.2175 0.7228 0.2625
C9 C 0.2002(3) 0.5507(2) 0.0536(2)
H8 H 0.2634 0.5827 -0.0149
C10 C 0.4658(3) 1.2949(3) 0.1584(2)
H9 H 0.4876 1.3795 0.1339
C11 C 0.0956(3) 0.5499(3) 0.2374(2)
H10 H 0.0867 0.5800 0.2963
C12 C 0.1897(3) 0.5984(2) 0.1375(2)
C13 C 0.3800(3) 0.8744(2) 0.5878(2)
H11 H 0.4646 0.8739 0.6036
C14 C 0.1352(3) 0.8701(3) 0.6441(2)
H12 H 0.0510 0.8679 0.6989
C15 C 0.4153(3) 0.6302(2) 0.2447(2)
C16 C 0.2584(3) 0.8692(3) 0.6682(2)
H13 H 0.2588 0.8651 0.7393
C17 C 0.3417(3) 1.2648(3) 0.2331(2)
H14 H 0.2802 1.3272 0.2596
C18 C -0.0494(3) 1.0153(3) 0.1316(2)
H15 H -0.1379 0.9852 0.1635
C19 C 0.0655(3) 0.9398(3) 0.1608(2)
H16 H 0.0547 0.8586 0.2134
C20 C 0.1339(3) 0.8741(2) 0.5412(2)
H17 H 0.0490 0.8740 0.5261
C21 C 0.0148(3) 0.4572(3) 0.2508(2)
H18 H -0.0492 0.4252 0.3189
C22 C 0.2103(3) 1.1013(3) 0.0375(2)
H19 H 0.2988 1.1313 0.0047
C23 C 0.0259(3) 0.4112(3) 0.1674(2)
H20 H -0.0301 0.3486 0.1772
C24 C 0.1211(3) 0.4585(3) 0.0680(2)
H21 H 0.1314 0.4267 0.0099
C25 C -0.0353(4) 1.1348(3) 0.0558(3)
H22 H -0.1140 1.1869 0.0362
C26 C 0.5452(3) 0.6115(3) 0.1768(2)
H23 H 0.5647 0.6609 0.1020
C27 C 0.0940(4) 1.1776(3) 0.0090(3)
H24 H 0.1039 1.2594 -0.0428
N4 N 0.4875(4) 0.4642(3) 0.3928(3)
C28 C 0.3928(4) 0.5554(3) 0.3519(2)
H25 H 0.3062 0.5682 0.4002
C29 C 0.6129(4) 0.4535(3) 0.3222(3)
H26 H 0.6827 0.3931 0.3492
C30 C 0.6437(3) 0.5249(3) 0.2147(3)
H27 H 0.7322 0.5139 0.1679
Cl1 Cl 0.90251(10) 0.70043(10) 0.47676(7)
Cl2 Cl 0.73823(10) 0.74685(11) 0.32244(9)
C31 C 0.7460(3) 0.7686(3) 0.4418(3)
H28 H 0.6684 0.7305 0.5024
H29 H 0.7355 0.8599 0.4316
loop_
_geom_bond_atom_site_label_1
_geom_bond_atom_site_label_2
_geom_bond_site_symmetry_1
_geom_bond_site_symmetry_2
P1 C2 1_555 1_555
N1 H1 1_555 1_555
N2 H2 1_555 1_555
C1 C2 1_555 1_555
C2 N1 1_555 1_555
H3 C2 1_555 1_555
N3 C6 1_555 1_555
C3 C1 1_555 1_555
H4 C3 1_555 1_555
C4 P1 1_555 1_555
C5 N1 1_555 1_555
C6 C1 1_555 1_555
H5 C6 1_555 1_555
C7 C5 1_555 1_555
H6 C7 1_555 1_555
C8 P1 1_555 1_555
H7 C8 1_555 1_555
C9 H8 1_555 1_555
C10 N3 1_555 1_555
H9 C10 1_555 1_555
C11 H10 1_555 1_555
C12 N2 1_555 1_555
C13 C7 1_555 1_555
H11 C13 1_555 1_555
C14 H12 1_555 1_555
C15 C8 1_555 1_555
C16 C13 1_555 1_555
H13 C16 1_555 1_555
C17 C3 1_555 1_555
H14 C17 1_555 1_555
C18 H15 1_555 1_555
C19 C4 1_555 1_555
H16 C19 1_555 1_555
C20 C5 1_555 1_555
H17 C20 1_555 1_555
C21 C11 1_555 1_555
H18 C21 1_555 1_555
C22 C4 1_555 1_555
H19 C22 1_555 1_555
C23 C21 1_555 1_555
H20 C23 1_555 1_555
C24 C9 1_555 1_555
H21 C24 1_555 1_555
C25 C18 1_555 1_555
H22 C25 1_555 1_555
C26 C15 1_555 1_555
H23 C26 1_555 1_555
C27 C22 1_555 1_555
H24 C27 1_555 1_555
N4 C28 1_555 1_555
C28 C15 1_555 1_555
H25 C28 1_555 1_555
C29 N4 1_555 1_555
H26 C29 1_555 1_555
C30 C26 1_555 1_555
H27 C30 1_555 1_555
Cl1 C31 1_555 1_555
Cl2 C31 1_555 1_555
C31 H28 1_555 1_555
H29 C31 1_555 1_555
N2 C8 1_555 1_555
C9 C12 1_555 1_555
C10 C17 1_555 1_555
C11 C12 1_555 1_555
C14 C16 1_555 1_555
C14 C20 1_555 1_555
C18 C19 1_555 1_555
C23 C24 1_555 1_555
C25 C27 1_555 1_555
C29 C30 1_555 1_555

#END
