
#######################################################################
#
#                 Cambridge Crystallographic Data Centre
#                                CCDC 
#
#######################################################################
#
# If this CIF has been generated from an entry in the Cambridge 
# Structural Database, then it will include bibliographic, chemical, 
# crystal, experimental, refinement or atomic coordinate data resulting 
# from the CCDC's data processing and validation procedures.
#
#######################################################################

data_JATFUF06
_chemical_formula_moiety         'C6 H9 N3 O3'
_chemical_name_systematic        2,4,6-trimethoxy-1,3,5-triazine
_symmetry_cell_setting           orthorhombic
_symmetry_space_group_name_H-M   'P n m a'
_symmetry_Int_Tables_number      62
_space_group_name_Hall           '-P 2ac 2n'
loop_
_symmetry_equiv_pos_site_id
_symmetry_equiv_pos_as_xyz
1 x,y,z
2 1/2-x,-y,1/2+z
3 1/2+x,1/2-y,1/2-z
4 -x,1/2+y,-z
5 -x,-y,-z
6 1/2+x,y,1/2-z
7 1/2-x,1/2+y,1/2+z
8 x,1/2-y,z
_cell_length_a                   8.442(4)
_cell_length_b                   6.7270(13)
_cell_length_c                   14.467(3)
_cell_angle_alpha                90
_cell_angle_beta                 90
_cell_angle_gamma                90
_cell_volume                     821.571
_exptl_crystal_colour            white
_exptl_crystal_description       Block
_cell_formula_units_Z            4
loop_
_atom_site_label
_atom_site_type_symbol
_atom_site_fract_x
_atom_site_fract_y
_atom_site_fract_z
O1 O 0.6650(8) 0.2500 -0.1348(5)
O2 O 0.1597(8) 0.2500 -0.0351(6)
O3 O 0.5577(7) 0.2500 0.1717(5)
N1 N 0.4099(10) 0.2500 -0.0883(5)
N2 N 0.3592(10) 0.2500 0.0730(5)
N3 N 0.6244(9) 0.2500 0.0187(5)
C1 C 0.5604(11) 0.2500 -0.0676(7)
C2 C 0.6112(19) 0.2500 -0.2255(7)
H1 H 0.6937 0.1946 -0.2594
C3 C 0.3145(11) 0.2500 -0.0131(6)
C4 C 0.0479(14) 0.2500 0.0387(8)
H2 H 0.0430 0.3802 0.0657
C5 C 0.5141(11) 0.2500 0.0852(6)
C6 C 0.7198(13) 0.2500 0.1945(7)
H3 H 0.7772 0.1726 0.1499
H1G H 0.6937 0.3054 -0.2594
H2G H 0.0430 0.1198 0.0657
H3G H 0.7772 0.3274 0.1499
H4? H -0.0547 0.2142 0.0153
H5? H 0.0800 0.1555 0.0848
H6? H 0.7338 0.1934 0.2548
H7? H 0.7589 0.3840 0.1943
H8? H 0.5102 0.1871 -0.2344
H9? H 0.5783 0.3761 -0.2441
loop_
_geom_bond_atom_site_label_1
_geom_bond_atom_site_label_2
_geom_bond_site_symmetry_1
_geom_bond_site_symmetry_2
O1 C1 1_555 1_555
O2 C3 1_555 1_555
O3 C5 1_555 1_555
N1 C1 1_555 1_555
N2 C3 1_555 1_555
N3 C1 1_555 1_555
C2 O1 1_555 1_555
H1 C2 1_555 1_555
C3 N1 1_555 1_555
C4 O2 1_555 1_555
H2 C4 1_555 1_555
C5 N2 1_555 1_555
C6 O3 1_555 1_555
H3 C6 1_555 1_555
H1G C2 1_555 1_555
H2G C4 1_555 1_555
H3G C6 1_555 1_555
N3 C5 1_555 1_555

#END
