
#######################################################################
#
#                 Cambridge Crystallographic Data Centre
#                                CCDC 
#
#######################################################################
#
# If this CIF has been generated from an entry in the Cambridge 
# Structural Database, then it will include bibliographic, chemical, 
# crystal, experimental, refinement or atomic coordinate data resulting 
# from the CCDC's data processing and validation procedures.
#
#######################################################################

data_JATFES
_chemical_formula_moiety         'C24 H18 O2'
_chemical_name_systematic        
6a-methyl-12-phenyl-6a,7-dihydro-6H-naphtho[2,3-c]chromen-6-one
_symmetry_cell_setting           monoclinic
_symmetry_space_group_name_H-M   'P 21/n'
_symmetry_Int_Tables_number      14
_space_group_name_Hall           '-P 2yn'
loop_
_symmetry_equiv_pos_site_id
_symmetry_equiv_pos_as_xyz
1 x,y,z
2 1/2-x,1/2+y,1/2-z
3 -x,-y,-z
4 1/2+x,1/2-y,1/2+z
_cell_length_a                   10.4434(9)
_cell_length_b                   9.8397(8)
_cell_length_c                   16.9986(14)
_cell_angle_alpha                90
_cell_angle_beta                 101.102(2)
_cell_angle_gamma                90
_cell_volume                     1714.09
_exptl_crystal_colour            white
_exptl_crystal_description       block
_cell_formula_units_Z            4
loop_
_atom_site_label
_atom_site_type_symbol
_atom_site_fract_x
_atom_site_fract_y
_atom_site_fract_z
O1 O 0.48346(13) 0.56659(14) 1.09218(8)
O2 O 0.29441(13) 0.48775(16) 1.10636(9)
C1 C 0.3518(2) 0.5740(2) 1.07736(10)
C2 C 0.28499(17) 0.69296(19) 1.02919(10)
C3 C 0.15362(17) 0.6387(2) 0.98414(11)
H1 H 0.1679 0.5536 0.9582
H2 H 0.0978 0.6201 1.0223
C4 C 0.08609(17) 0.7357(2) 0.92254(10)
C5 C -0.04806(18) 0.7438(2) 0.90480(12)
H3 H -0.0972 0.6926 0.9342
C6 C -0.11063(19) 0.8274(2) 0.84376(13)
H4 H -0.2012 0.8338 0.8329
C7 C -0.03789(19) 0.9006(2) 0.79934(12)
H5 H -0.0795 0.9560 0.7579
C8 C 0.09664(18) 0.8924(2) 0.81596(11)
H6 H 0.1448 0.9417 0.7851
C9 C 0.16125(16) 0.81086(19) 0.87855(10)
C10 C 0.30569(16) 0.80248(18) 0.89946(10)
C11 C 0.36557(16) 0.75133(18) 0.97141(9)
C12 C 0.50680(17) 0.75641(18) 1.00441(10)
C13 C 0.55911(17) 0.66585(19) 1.06470(10)
C14 C 0.68910(19) 0.6637(2) 1.10045(11)
H7 H 0.7201 0.6005 1.1402
C15 C 0.77202(18) 0.7557(2) 1.07672(11)
H8 H 0.8604 0.7543 1.0995
C16 C 0.72389(17) 0.8506(2) 1.01871(11)
H9 H 0.7799 0.9142 1.0031
C17 C 0.59396(16) 0.8517(2) 0.98395(10)
H10 H 0.5631 0.9175 0.9458
C18 C 0.38219(15) 0.8481(2) 0.83824(9)
C19 C 0.38788(17) 0.9828(2) 0.81452(10)
H11 H 0.3408 1.0487 0.8361
C20 C 0.46259(18) 1.0199(2) 0.75942(10)
H12 H 0.4651 1.1103 0.7438
C21 C 0.53351(18) 0.9238(2) 0.72736(11)
H13 H 0.5848 0.9491 0.6907
C22 C 0.52784(18) 0.7903(2) 0.74993(11)
H14 H 0.5755 0.7251 0.7283
C23 C 0.45213(17) 0.7519(2) 0.80432(10)
H15 H 0.4480 0.6609 0.8183
C24 C 0.2648(2) 0.8021(2) 1.09090(11)
H16 H 0.2228 0.7620 1.1307
H17 H 0.2111 0.8739 1.0641
H18 H 0.3479 0.8384 1.1162
loop_
_geom_bond_atom_site_label_1
_geom_bond_atom_site_label_2
_geom_bond_site_symmetry_1
_geom_bond_site_symmetry_2
O1 C1 1_555 1_555
O2 C1 1_555 1_555
C1 C2 1_555 1_555
C2 C3 1_555 1_555
C3 H1 1_555 1_555
H2 C3 1_555 1_555
C4 C3 1_555 1_555
C5 C4 1_555 1_555
H3 C5 1_555 1_555
C6 C5 1_555 1_555
H4 C6 1_555 1_555
C7 C6 1_555 1_555
H5 C7 1_555 1_555
C8 C7 1_555 1_555
H6 C8 1_555 1_555
C9 C4 1_555 1_555
C10 C9 1_555 1_555
C11 C2 1_555 1_555
C12 C11 1_555 1_555
C13 O1 1_555 1_555
C14 C13 1_555 1_555
H7 C14 1_555 1_555
C15 C14 1_555 1_555
H8 C15 1_555 1_555
C16 C15 1_555 1_555
H9 C16 1_555 1_555
C17 C12 1_555 1_555
H10 C17 1_555 1_555
C18 C10 1_555 1_555
C19 C18 1_555 1_555
H11 C19 1_555 1_555
C20 C19 1_555 1_555
H12 C20 1_555 1_555
C21 C20 1_555 1_555
H13 C21 1_555 1_555
C22 C21 1_555 1_555
H14 C22 1_555 1_555
C23 C18 1_555 1_555
H15 C23 1_555 1_555
C24 C2 1_555 1_555
H16 C24 1_555 1_555
H17 C24 1_555 1_555
H18 C24 1_555 1_555
C8 C9 1_555 1_555
C10 C11 1_555 1_555
C12 C13 1_555 1_555
C16 C17 1_555 1_555
C22 C23 1_555 1_555

#END
