
#######################################################################
#
#                 Cambridge Crystallographic Data Centre
#                                CCDC 
#
#######################################################################
#
# If this CIF has been generated from an entry in the Cambridge 
# Structural Database, then it will include bibliographic, chemical, 
# crystal, experimental, refinement or atomic coordinate data resulting 
# from the CCDC's data processing and validation procedures.
#
#######################################################################

data_JATFUI
_chemical_formula_moiety         'C27 H23 Cl1 F3 N1 O3'
_chemical_name_systematic        
'methyl 5-(4-chlorophenyl)-2-((diphenylmethylene)amino)-3-methyl-5-oxo-3-(trifluoromethyl)pentanoate'
_symmetry_cell_setting           orthorhombic
_symmetry_space_group_name_H-M   'P 21 21 21'
_symmetry_Int_Tables_number      19
_space_group_name_Hall           'P 2ac 2ab'
loop_
_symmetry_equiv_pos_site_id
_symmetry_equiv_pos_as_xyz
1 x,y,z
2 1/2-x,-y,1/2+z
3 -x,1/2+y,1/2-z
4 1/2+x,1/2-y,-z
_cell_length_a                   8.5817(2)
_cell_length_b                   10.4128(3)
_cell_length_c                   27.6259(7)
_cell_angle_alpha                90
_cell_angle_beta                 90
_cell_angle_gamma                90
_cell_volume                     2468.64
_exptl_crystal_colour            colorless
_exptl_crystal_description       block
_cell_formula_units_Z            4
loop_
_atom_site_label
_atom_site_type_symbol
_atom_site_fract_x
_atom_site_fract_y
_atom_site_fract_z
Cl1 Cl 0.08519(8) 0.55829(5) 0.81950(3)
F1 F -0.2643(2) -0.19721(18) 0.74799(7)
F2 F -0.5030(3) -0.1350(2) 0.74936(6)
F3 F -0.4422(3) -0.32300(17) 0.77430(7)
O1 O -0.66972(18) 0.02110(13) 0.84236(6)
O2 O -0.76373(19) -0.16606(14) 0.81640(6)
O3 O -0.2862(2) 0.03857(17) 0.90063(6)
N1 N -0.5385(2) -0.29476(15) 0.87034(6)
C1 C -0.6930(3) -0.22176(19) 0.93971(8)
C2 C -0.6107(4) -0.1711(2) 0.97769(9)
H1 H -0.5109 -0.2007 0.9846
C3 C -0.6772(5) -0.0753(3) 1.00582(12)
H2 H -0.6219 -0.0416 1.0318
C4 C -0.8232(5) -0.0300(3) 0.99566(14)
H3 H -0.8667 0.0351 1.0144
C5 C -0.9040(4) -0.0806(3) 0.95807(11)
H4 H -1.0034 -0.0502 0.9511
C6 C -0.8404(3) -0.1766(2) 0.93025(9)
H5 H -0.8975 -0.2112 0.9048
C7 C -0.6381(2) -0.45915(19) 0.92092(8)
C8 C -0.7177(3) -0.4965(2) 0.96208(9)
H6 H -0.7635 -0.4346 0.9817
C9 C -0.7301(4) -0.6250(3) 0.97447(11)
H7 H -0.7836 -0.6489 1.0023
C10 C -0.6635(4) -0.7164(3) 0.94568(14)
H8 H -0.6712 -0.8027 0.9540
C11 C -0.5854(4) -0.6811(2) 0.90454(12)
H9 H -0.5404 -0.7437 0.8850
C12 C -0.5730(3) -0.5537(2) 0.89186(10)
H10 H -0.5207 -0.5309 0.8637
C13 C -0.1762(3) 0.2470(2) 0.80194(8)
H11 H -0.2240 0.2046 0.7763
C14 C -0.0943(3) 0.3582(2) 0.79317(9)
H12 H -0.0874 0.3910 0.7619
C15 C -0.0232(2) 0.42010(19) 0.83073(9)
C16 C -0.0335(3) 0.3743(2) 0.87710(9)
H13 H 0.0145 0.4178 0.9024
C17 C -0.1159(3) 0.2631(2) 0.88585(8)
H14 H -0.1228 0.2316 0.9173
C18 C -0.1889(2) 0.19708(18) 0.84829(8)
C19 C -0.2684(2) 0.0730(2) 0.85891(8)
C20 C -0.3227(3) -0.0045(2) 0.81612(8)
H15 H -0.2407 -0.0030 0.7920
H16 H -0.4123 0.0388 0.8022
C21 C -0.3679(2) -0.1458(2) 0.82485(9)
C22 C -0.5153(2) -0.15930(18) 0.85746(8)
H17 H -0.4949 -0.1122 0.8875
C23 C -0.6635(3) -0.10539(19) 0.83574(8)
C24 C -0.6189(2) -0.32134(18) 0.90774(8)
C25 C -0.8130(3) 0.0824(2) 0.82678(12)
H18 H -0.8067 0.1730 0.8328
H19 H -0.8992 0.0469 0.8444
H20 H -0.8279 0.0678 0.7928
C26 C -0.2335(3) -0.2196(3) 0.84883(15)
H21 H -0.1417 -0.2124 0.8292
H22 H -0.2616 -0.3084 0.8520
H23 H -0.2133 -0.1841 0.8803
C27 C -0.3964(4) -0.2012(3) 0.77450(12)
loop_
_geom_bond_atom_site_label_1
_geom_bond_atom_site_label_2
_geom_bond_site_symmetry_1
_geom_bond_site_symmetry_2
Cl1 C15 1_555 1_555
F1 C27 1_555 1_555
F2 C27 1_555 1_555
F3 C27 1_555 1_555
O1 C23 1_555 1_555
O2 C23 1_555 1_555
O3 C19 1_555 1_555
N1 C22 1_555 1_555
C1 C2 1_555 1_555
C2 H1 1_555 1_555
C3 C2 1_555 1_555
H2 C3 1_555 1_555
C4 C3 1_555 1_555
H3 C4 1_555 1_555
C5 C4 1_555 1_555
H4 C5 1_555 1_555
C6 C1 1_555 1_555
H5 C6 1_555 1_555
C7 C8 1_555 1_555
C8 H6 1_555 1_555
C9 C8 1_555 1_555
H7 C9 1_555 1_555
C10 C9 1_555 1_555
H8 C10 1_555 1_555
C11 C10 1_555 1_555
H9 C11 1_555 1_555
C12 C7 1_555 1_555
H10 C12 1_555 1_555
C13 H11 1_555 1_555
C14 C13 1_555 1_555
H12 C14 1_555 1_555
C15 C14 1_555 1_555
C16 C15 1_555 1_555
H13 C16 1_555 1_555
C17 C16 1_555 1_555
H14 C17 1_555 1_555
C18 C13 1_555 1_555
C19 C18 1_555 1_555
C20 C19 1_555 1_555
H15 C20 1_555 1_555
H16 C20 1_555 1_555
C21 C20 1_555 1_555
C22 C21 1_555 1_555
H17 C22 1_555 1_555
C23 C22 1_555 1_555
C24 N1 1_555 1_555
C25 O1 1_555 1_555
H18 C25 1_555 1_555
H19 C25 1_555 1_555
H20 C25 1_555 1_555
C26 C21 1_555 1_555
H21 C26 1_555 1_555
H22 C26 1_555 1_555
H23 C26 1_555 1_555
C27 C21 1_555 1_555
C1 C24 1_555 1_555
C5 C6 1_555 1_555
C7 C24 1_555 1_555
C11 C12 1_555 1_555
C17 C18 1_555 1_555

#END
