
#######################################################################
#
#                 Cambridge Crystallographic Data Centre
#                                CCDC 
#
#######################################################################
#
# If this CIF has been generated from an entry in the Cambridge 
# Structural Database, then it will include bibliographic, chemical, 
# crystal, experimental, refinement or atomic coordinate data resulting 
# from the CCDC's data processing and validation procedures.
#
#######################################################################

data_JATFAO
_chemical_formula_moiety         'C24 H24 O2'
_chemical_name_systematic        
3a'-methyl-1'-phenyl-3',3a'-dihydro-4'H-spiro[cyclohexane-1,2'-cyclopenta[c]chromen]-4'-one
_symmetry_cell_setting           monoclinic
_symmetry_space_group_name_H-M   'P 21/c'
_symmetry_Int_Tables_number      14
_space_group_name_Hall           '-P 2ybc'
loop_
_symmetry_equiv_pos_site_id
_symmetry_equiv_pos_as_xyz
1 x,y,z
2 -x,1/2+y,1/2-z
3 -x,-y,-z
4 x,1/2-y,1/2+z
_cell_length_a                   10.0318(9)
_cell_length_b                   22.2202(19)
_cell_length_c                   9.3165(8)
_cell_angle_alpha                90
_cell_angle_beta                 114.835(2)
_cell_angle_gamma                90
_cell_volume                     1884.67
_cell_formula_units_Z            4
loop_
_atom_site_label
_atom_site_type_symbol
_atom_site_fract_x
_atom_site_fract_y
_atom_site_fract_z
O1 O 0.3222(2) 0.56105(10) 0.4488(3)
O2 O 0.3429(2) 0.48840(10) 0.2967(3)
C1 C 0.3728(3) 0.53941(16) 0.3400(4)
C2 C 0.4506(3) 0.58435(11) 0.2807(3)
C3 C 0.5507(3) 0.62280(10) 0.4147(3)
C4 C 0.4893(3) 0.64702(12) 0.5211(3)
C5 C 0.3742(3) 0.61551(14) 0.5303(4)
C6 C 0.3062(3) 0.63383(16) 0.6261(5)
H1 H 0.2273 0.6122 0.6273
C7 C 0.3566(4) 0.68391(16) 0.7183(4)
H2 H 0.3134 0.6959 0.7846
C8 C 0.4719(4) 0.71683(13) 0.7132(4)
H3 H 0.5059 0.7512 0.7748
C9 C 0.5356(3) 0.69777(12) 0.6150(4)
H4 H 0.6130 0.7201 0.6122
C10 C 0.5557(3) 0.55368(11) 0.2192(3)
H5 H 0.5127 0.5537 0.1045
H6 H 0.5749 0.5124 0.2561
C11 C 0.7008(3) 0.59129(11) 0.2865(3)
C12 C 0.6865(3) 0.62690(10) 0.4199(3)
C13 C 0.8110(3) 0.65889(12) 0.5463(3)
C14 C 0.8637(3) 0.71348(13) 0.5234(4)
H7 H 0.8240 0.7309 0.4234
C15 C 0.9767(3) 0.74337(13) 0.6486(4)
H8 H 1.0095 0.7808 0.6322
C16 C 1.0386(3) 0.71685(16) 0.7958(4)
H9 H 1.1145 0.7360 0.8791
C17 C 0.9874(3) 0.66194(15) 0.8188(4)
H10 H 1.0284 0.6443 0.9185
C18 C 0.8766(3) 0.63283(12) 0.6966(4)
H11 H 0.8448 0.5953 0.7140
C19 C 0.7136(3) 0.63390(11) 0.1618(3)
H12 H 0.6242 0.6574 0.1138
H13 H 0.7943 0.6616 0.2144
C20 C 0.7393(4) 0.60071(13) 0.0312(4)
H14 H 0.6535 0.5767 -0.0306
H15 H 0.7532 0.6298 -0.0389
C21 C 0.8736(4) 0.56007(14) 0.1013(4)
H16 H 0.9609 0.5846 0.1533
H17 H 0.8840 0.5378 0.0171
C22 C 0.8603(3) 0.51586(13) 0.2208(4)
H18 H 0.9490 0.4918 0.2675
H19 H 0.7782 0.4889 0.1671
C23 C 0.8366(3) 0.55033(11) 0.3520(3)
H20 H 0.8257 0.5216 0.4248
H21 H 0.9228 0.5746 0.4109
C24 C 0.3270(3) 0.62105(11) 0.1500(4)
H22 H 0.2682 0.6408 0.1947
H23 H 0.2663 0.5944 0.0672
H24 H 0.3701 0.6506 0.1072
loop_
_geom_bond_atom_site_label_1
_geom_bond_atom_site_label_2
_geom_bond_site_symmetry_1
_geom_bond_site_symmetry_2
O1 C1 1_555 1_555
O2 C1 1_555 1_555
C1 C2 1_555 1_555
C2 C3 1_555 1_555
C3 C4 1_555 1_555
C4 C5 1_555 1_555
C5 O1 1_555 1_555
C6 C5 1_555 1_555
H1 C6 1_555 1_555
C7 C6 1_555 1_555
H2 C7 1_555 1_555
C8 C7 1_555 1_555
H3 C8 1_555 1_555
C9 C4 1_555 1_555
H4 C9 1_555 1_555
C10 C2 1_555 1_555
H5 C10 1_555 1_555
H6 C10 1_555 1_555
C11 C10 1_555 1_555
C12 C3 1_555 1_555
C13 C12 1_555 1_555
C14 C13 1_555 1_555
H7 C14 1_555 1_555
C15 C14 1_555 1_555
H8 C15 1_555 1_555
C16 C15 1_555 1_555
H9 C16 1_555 1_555
C17 C16 1_555 1_555
H10 C17 1_555 1_555
C18 C13 1_555 1_555
H11 C18 1_555 1_555
C19 C11 1_555 1_555
H12 C19 1_555 1_555
H13 C19 1_555 1_555
C20 C19 1_555 1_555
H14 C20 1_555 1_555
H15 C20 1_555 1_555
C21 C20 1_555 1_555
H16 C21 1_555 1_555
H17 C21 1_555 1_555
C22 C21 1_555 1_555
H18 C22 1_555 1_555
H19 C22 1_555 1_555
C23 C11 1_555 1_555
H20 C23 1_555 1_555
H21 C23 1_555 1_555
C24 C2 1_555 1_555
H22 C24 1_555 1_555
H23 C24 1_555 1_555
H24 C24 1_555 1_555
C8 C9 1_555 1_555
C11 C12 1_555 1_555
C17 C18 1_555 1_555
C22 C23 1_555 1_555

#END
