
#######################################################################
#
#                 Cambridge Crystallographic Data Centre
#                                CCDC 
#
#######################################################################
#
# If this CIF has been generated from an entry in the Cambridge 
# Structural Database, then it will include bibliographic, chemical, 
# crystal, experimental, refinement or atomic coordinate data resulting 
# from the CCDC's data processing and validation procedures.
#
#######################################################################

data_JATFUF04
_chemical_formula_moiety         'C6 H9 N3 O3'
_chemical_name_systematic        2,4,6-Trimethoxy-1,3,5-triazine
_symmetry_cell_setting           orthorhombic
_symmetry_space_group_name_H-M   'P n m a'
_symmetry_Int_Tables_number      62
_space_group_name_Hall           '-P 2ac 2n'
loop_
_symmetry_equiv_pos_site_id
_symmetry_equiv_pos_as_xyz
1 x,y,z
2 1/2-x,-y,1/2+z
3 -x,1/2+y,-z
4 1/2+x,1/2-y,1/2-z
5 -x,-y,-z
6 1/2+x,y,1/2-z
7 x,1/2-y,z
8 1/2-x,1/2+y,1/2+z
_cell_length_a                   8.474(3)
_cell_length_b                   6.710(3)
_cell_length_c                   14.387(5)
_cell_angle_alpha                90
_cell_angle_beta                 90
_cell_angle_gamma                90
_cell_volume                     818.053
_exptl_crystal_colour            colorless
_exptl_crystal_description       block
_cell_formula_units_Z            4
loop_
_atom_site_label
_atom_site_type_symbol
_atom_site_fract_x
_atom_site_fract_y
_atom_site_fract_z
C1 C 0.5592(3) 0.2500 0.56754(17)
C2 C 0.3148(3) 0.2500 0.51557(16)
C3 C 0.5118(2) 0.2500 0.41581(16)
C4 C 0.6110(4) 0.2500 0.72870(18)
C5 C 0.0513(3) 0.2500 0.4614(2)
C6 C 0.7228(3) 0.2500 0.30792(19)
N1 N 0.6206(2) 0.2500 0.48194(13)
N2 N 0.4091(2) 0.2500 0.58984(13)
N3 N 0.35606(19) 0.2500 0.42768(14)
O1 O 0.66843(19) 0.2500 0.63385(12)
O2 O 0.16171(18) 0.2500 0.53763(13)
O3 O 0.55494(18) 0.2500 0.32725(12)
H1? H 0.6982 0.2658 0.7706
H2? H 0.5585 0.1261 0.7413
H3? H 0.5381 0.3581 0.7370
H4? H 0.0668 0.1326 0.4244
H5? H -0.0545 0.2488 0.4853
H6? H 0.7730 0.1466 0.3433
H7? H 0.7669 0.3767 0.3248
H8? H 0.7397 0.2267 0.2428
H9? H 0.0681 0.1338 0.4237
loop_
_geom_bond_atom_site_label_1
_geom_bond_atom_site_label_2
_geom_bond_site_symmetry_1
_geom_bond_site_symmetry_2
C1 N1 1_555 1_555
C2 N2 1_555 1_555
C3 N1 1_555 1_555
C4 O1 1_555 1_555
C5 O2 1_555 1_555
C6 O3 1_555 1_555
N2 C1 1_555 1_555
N3 C2 1_555 1_555
O1 C1 1_555 1_555
O2 C2 1_555 1_555
O3 C3 1_555 1_555
C3 N3 1_555 1_555

#END
