
#######################################################################
#
#                 Cambridge Crystallographic Data Centre
#                                CCDC 
#
#######################################################################
#
# If this CIF has been generated from an entry in the Cambridge 
# Structural Database, then it will include bibliographic, chemical, 
# crystal, experimental, refinement or atomic coordinate data resulting 
# from the CCDC's data processing and validation procedures.
#
#######################################################################

data_JATGOD
_chemical_formula_moiety         'C26 H24 F3 N1 O1 S1'
_chemical_name_systematic        
'((2S,3S)-3-methyl-5-(4-(methylthio)phenyl)-3-(trifluoromethyl)-3,4-dihydro-2H-pyrrol-2-yl)diphenylmethanol unknown solvate'
_symmetry_cell_setting           orthorhombic
_symmetry_space_group_name_H-M   'P 21 21 2'
_symmetry_Int_Tables_number      18
_space_group_name_Hall           'P 2 2ab'
loop_
_symmetry_equiv_pos_site_id
_symmetry_equiv_pos_as_xyz
1 x,y,z
2 -x,-y,z
3 1/2-x,1/2+y,-z
4 1/2+x,1/2-y,-z
_cell_length_a                   23.660(2)
_cell_length_b                   10.2673(10)
_cell_length_c                   10.5398(10)
_cell_angle_alpha                90
_cell_angle_beta                 90
_cell_angle_gamma                90
_cell_volume                     2560.37
_exptl_crystal_colour            colorless
_exptl_crystal_description       block
_cell_formula_units_Z            4
loop_
_atom_site_label
_atom_site_type_symbol
_atom_site_fract_x
_atom_site_fract_y
_atom_site_fract_z
S1 S 0.36410(7) 0.97072(17) 0.21401(14)
O1 O 0.57674(10) 0.4757(3) 0.6423(3)
H1 H 0.556(2) 0.512(5) 0.570(4)
F1 F 0.60501(14) 0.9472(3) 0.7790(4)
F2 F 0.64675(13) 0.8318(4) 0.9152(3)
F3 F 0.56224(16) 0.9003(4) 0.9487(4)
N1 N 0.58234(13) 0.7389(3) 0.5711(3)
C1 C 0.50238(19) 0.8168(4) 0.3731(4)
H2 H 0.5363 0.7824 0.3437
C2 C 0.4627(2) 0.8638(5) 0.2880(5)
H3 H 0.4706 0.8624 0.2017
C3 C 0.41129(18) 0.9129(4) 0.3293(4)
C4 C 0.39979(17) 0.9139(4) 0.4559(4)
H4 H 0.3651 0.9445 0.4848
C5 C 0.43946(17) 0.8698(4) 0.5411(4)
H5 H 0.4309 0.8730 0.6272
C6 C 0.49101(15) 0.8213(4) 0.5051(4)
C7 C 0.53232(15) 0.7750(3) 0.5975(4)
C8 C 0.51790(17) 0.7634(5) 0.7355(4)
H6 H 0.4898 0.6960 0.7488
H7 H 0.5033 0.8452 0.7678
C9 C 0.57241(17) 0.7285(4) 0.8002(4)
C10 C 0.61224(15) 0.6929(4) 0.6828(4)
H8 H 0.6474 0.7428 0.6908
C11 C 0.62797(15) 0.5465(4) 0.6625(4)
C12 C 0.65742(16) 0.4849(4) 0.7769(4)
C13 C 0.70103(18) 0.5499(5) 0.8389(5)
H9 H 0.7127 0.6317 0.8115
C14 C 0.7269(2) 0.4910(6) 0.9423(5)
H10 H 0.7559 0.5340 0.9846
C15 C 0.7102(3) 0.3704(7) 0.9827(7)
H11 H 0.7272 0.3336 1.0537
C16 C 0.6699(3) 0.3050(6) 0.9218(6)
H12 H 0.6593 0.2223 0.9490
C17 C 0.64328(19) 0.3625(5) 0.8154(5)
H13 H 0.6158 0.3161 0.7712
C18 C 0.66743(15) 0.5285(4) 0.5495(4)
C19 C 0.67083(19) 0.4054(4) 0.4930(5)
H14 H 0.6480 0.3381 0.5225
C20 C 0.7075(2) 0.3830(6) 0.3946(6)
H15 H 0.7088 0.3010 0.3572
C21 C 0.7422(2) 0.4796(6) 0.3506(5)
H16 H 0.7668 0.4628 0.2837
C22 C 0.7409(2) 0.5991(5) 0.4039(5)
H17 H 0.7652 0.6636 0.3746
C23 C 0.70321(16) 0.6270(4) 0.5032(5)
H18 H 0.7019 0.7101 0.5381
C24 C 0.5978(2) 0.8518(6) 0.8581(6)
C25 C 0.3236(2) 1.0902(5) 0.2991(6)
H19 H 0.2960 1.1278 0.2434
H20 H 0.3484 1.1573 0.3298
H21 H 0.3049 1.0495 0.3694
C26 C 0.5643(2) 0.6275(6) 0.9018(6)
H22 H 0.5390 0.6605 0.9653
H23 H 0.6001 0.6075 0.9400
H24 H 0.5486 0.5500 0.8649
H25? H 0.5967 0.7415 0.4962
loop_
_geom_bond_atom_site_label_1
_geom_bond_atom_site_label_2
_geom_bond_site_symmetry_1
_geom_bond_site_symmetry_2
S1 C3 1_555 1_555
O1 H1 1_555 1_555
F1 C24 1_555 1_555
F2 C24 1_555 1_555
F3 C24 1_555 1_555
N1 C7 1_555 1_555
C1 H2 1_555 1_555
C2 C1 1_555 1_555
H3 C2 1_555 1_555
C3 C2 1_555 1_555
C4 C3 1_555 1_555
H4 C4 1_555 1_555
C5 C4 1_555 1_555
H5 C5 1_555 1_555
C6 C1 1_555 1_555
C7 C6 1_555 1_555
C8 C7 1_555 1_555
H6 C8 1_555 1_555
H7 C8 1_555 1_555
C9 C8 1_555 1_555
C10 N1 1_555 1_555
H8 C10 1_555 1_555
C11 O1 1_555 1_555
C12 C11 1_555 1_555
C13 C12 1_555 1_555
H9 C13 1_555 1_555
C14 C13 1_555 1_555
H10 C14 1_555 1_555
C15 C14 1_555 1_555
H11 C15 1_555 1_555
C16 C15 1_555 1_555
H12 C16 1_555 1_555
C17 C12 1_555 1_555
H13 C17 1_555 1_555
C18 C11 1_555 1_555
C19 C18 1_555 1_555
H14 C19 1_555 1_555
C20 C19 1_555 1_555
H15 C20 1_555 1_555
C21 C20 1_555 1_555
H16 C21 1_555 1_555
C22 C21 1_555 1_555
H17 C22 1_555 1_555
C23 C18 1_555 1_555
H18 C23 1_555 1_555
C24 C9 1_555 1_555
C25 S1 1_555 1_555
H19 C25 1_555 1_555
H20 C25 1_555 1_555
H21 C25 1_555 1_555
C26 C9 1_555 1_555
H22 C26 1_555 1_555
H23 C26 1_555 1_555
H24 C26 1_555 1_555
C5 C6 1_555 1_555
C9 C10 1_555 1_555
C10 C11 1_555 1_555
C16 C17 1_555 1_555
C22 C23 1_555 1_555

#END
