
#######################################################################
#
#                 Cambridge Crystallographic Data Centre
#                                CCDC 
#
#######################################################################
#
# If this CIF has been generated from an entry in the Cambridge 
# Structural Database, then it will include bibliographic, chemical, 
# crystal, experimental, refinement or atomic coordinate data resulting 
# from the CCDC's data processing and validation procedures.
#
#######################################################################

data_JATGAP
_chemical_formula_moiety         'C15 H16 F3 N1 O2 S1'
_chemical_name_systematic        
'methyl 3-methyl-5-(4-(methylsulfanyl)phenyl)-3-(trifluoromethyl)-3,4-dihydro-2H-pyrrole-2-carboxylate'
_symmetry_cell_setting           orthorhombic
_symmetry_space_group_name_H-M   'P 21 21 21'
_symmetry_Int_Tables_number      19
_space_group_name_Hall           'P 2ac 2ab'
loop_
_symmetry_equiv_pos_site_id
_symmetry_equiv_pos_as_xyz
1 x,y,z
2 1/2-x,-y,1/2+z
3 -x,1/2+y,1/2-z
4 1/2+x,1/2-y,-z
_cell_length_a                   6.2282(2)
_cell_length_b                   7.0351(2)
_cell_length_c                   36.2461(13)
_cell_angle_alpha                90
_cell_angle_beta                 90
_cell_angle_gamma                90
_cell_volume                     1588.16
_exptl_crystal_colour            colorless
_exptl_crystal_description       block
_cell_formula_units_Z            4
loop_
_atom_site_label
_atom_site_type_symbol
_atom_site_fract_x
_atom_site_fract_y
_atom_site_fract_z
S1 S 0.84255(15) 0.46780(10) 0.930253(18)
O1 O 0.9126(4) 0.3447(3) 1.21257(5)
O2 O 0.9243(4) 0.1477(3) 1.16487(6)
F1 F 0.5303(4) 0.6104(6) 1.21497(6)
F2 F 0.2957(3) 0.7009(4) 1.17521(6)
F3 F 0.6055(5) 0.8161(4) 1.17356(11)
N1 N 0.8943(3) 0.4570(3) 1.11702(5)
C1 C 0.9496(4) 0.4299(4) 1.03834(7)
H1 H 1.0623 0.3868 1.0529
C2 C 0.9685(4) 0.4245(4) 1.00065(7)
H2 H 1.0931 0.3763 0.9900
C3 C 0.8039(5) 0.4902(3) 0.97807(6)
C4 C 0.6211(5) 0.5627(4) 0.99432(7)
H3 H 0.5108 0.6094 0.9796
C5 C 0.6003(4) 0.5666(4) 1.03238(7)
H4 H 0.4756 0.6150 1.0429
C6 C 0.7639(4) 0.4990(3) 1.05506(6)
C7 C 0.7396(4) 0.4994(3) 1.09555(7)
C8 C 0.5357(4) 0.5526(5) 1.11391(7)
H5 H 0.4163 0.4806 1.1039
H6 H 0.5066 0.6871 1.1110
C9 C 0.5735(4) 0.5030(4) 1.15444(6)
C10 C 0.8234(4) 0.4747(4) 1.15524(6)
H7 H 0.8898 0.5879 1.1661
C11 C 0.8925(4) 0.3027(5) 1.17694(7)
C12 C 0.9672(8) 0.1855(7) 1.23631(9)
H8 H 0.9773 0.2284 1.2614
H9 H 1.1025 0.1330 1.2288
H10 H 0.8578 0.0898 1.2345
C13 C 0.5041(6) 0.6587(7) 1.17921(10)
C14 C 0.4533(5) 0.3187(6) 1.16309(11)
H11 H 0.3014 0.3416 1.1623
H12 H 0.4925 0.2751 1.1873
H13 H 0.4905 0.2237 1.1452
C15 C 0.5983(7) 0.5517(5) 0.91069(8)
H14 H 0.6067 0.5447 0.8843
H15 H 0.5750 0.6812 0.9180
H16 H 0.4812 0.4745 0.9192
loop_
_geom_bond_atom_site_label_1
_geom_bond_atom_site_label_2
_geom_bond_site_symmetry_1
_geom_bond_site_symmetry_2
S1 C3 1_555 1_555
O1 C11 1_555 1_555
O2 C11 1_555 1_555
F1 C13 1_555 1_555
F2 C13 1_555 1_555
F3 C13 1_555 1_555
N1 C7 1_555 1_555
C1 H1 1_555 1_555
C2 C1 1_555 1_555
H2 C2 1_555 1_555
C3 C2 1_555 1_555
C4 C3 1_555 1_555
H3 C4 1_555 1_555
C5 C4 1_555 1_555
H4 C5 1_555 1_555
C6 C1 1_555 1_555
C7 C6 1_555 1_555
C8 C7 1_555 1_555
H5 C8 1_555 1_555
H6 C8 1_555 1_555
C9 C8 1_555 1_555
C10 N1 1_555 1_555
H7 C10 1_555 1_555
C11 C10 1_555 1_555
C12 O1 1_555 1_555
H8 C12 1_555 1_555
H9 C12 1_555 1_555
H10 C12 1_555 1_555
C13 C9 1_555 1_555
C14 C9 1_555 1_555
H11 C14 1_555 1_555
H12 C14 1_555 1_555
H13 C14 1_555 1_555
C15 S1 1_555 1_555
H14 C15 1_555 1_555
H15 C15 1_555 1_555
H16 C15 1_555 1_555
C5 C6 1_555 1_555
C9 C10 1_555 1_555

#END
