
#######################################################################
#
#                 Cambridge Crystallographic Data Centre
#                                CCDC 
#
#######################################################################
#
# If this CIF has been generated from an entry in the Cambridge 
# Structural Database, then it will include bibliographic, chemical, 
# crystal, experimental, refinement or atomic coordinate data resulting 
# from the CCDC's data processing and validation procedures.
#
#######################################################################

data_JATJIX
_chemical_name_common            'Sudan red G'
_chemical_formula_moiety         'C17 H14 N2 O2'
_chemical_name_systematic        1-(2-Methoxyphenylazo)-2-naphthol
_symmetry_cell_setting           orthorhombic
_symmetry_space_group_name_H-M   'P b c a'
_symmetry_Int_Tables_number      61
_space_group_name_Hall           '-P 2ac 2ab'
loop_
_symmetry_equiv_pos_site_id
_symmetry_equiv_pos_as_xyz
1 x,y,z
2 1/2-x,-y,1/2+z
3 1/2+x,1/2-y,-z
4 -x,1/2+y,1/2-z
5 -x,-y,-z
6 1/2+x,y,1/2-z
7 1/2-x,1/2+y,z
8 x,1/2-y,1/2+z
_cell_length_a                   5.885(2)
_cell_length_b                   14.591(3)
_cell_length_c                   30.902(5)
_cell_angle_alpha                90
_cell_angle_beta                 90
_cell_angle_gamma                90
_cell_volume                     2653.49
_exptl_crystal_colour            red
_cell_formula_units_Z            8
loop_
_atom_site_label
_atom_site_type_symbol
_atom_site_fract_x
_atom_site_fract_y
_atom_site_fract_z
O1 O 0.69208(37) 0.44875(11) 0.63201(6)
O2 O 0.18914(36) 0.41727(11) 0.69476(5)
N1 N 0.57021(41) 0.26025(14) 0.62107(6)
N2 N 0.44041(41) 0.31033(15) 0.64622(7)
C1 C 0.74919(51) 0.29974(17) 0.60250(7)
C2 C 0.81295(56) 0.39603(17) 0.60871(8)
C3 C 1.01814(57) 0.42787(19) 0.58780(9)
C4 C 1.14847(58) 0.37148(19) 0.56438(9)
C5 C 1.09379(49) 0.27648(17) 0.55795(8)
C6 C 1.23843(56) 0.21853(20) 0.53426(8)
C7 C 1.18565(60) 0.12807(19) 0.52790(9)
C8 C 0.98542(57) 0.09303(19) 0.54531(9)
C9 C 0.84075(57) 0.14778(15) 0.56905(8)
C10 C 0.89235(49) 0.24037(17) 0.57601(7)
C11 C 0.25013(50) 0.27050(17) 0.66617(7)
C12 C 0.11350(50) 0.32823(17) 0.69174(8)
C13 C -0.07602(56) 0.29388(19) 0.71188(8)
C14 C -0.13254(56) 0.20139(19) 0.70673(8)
C15 C 0.00011(55) 0.14421(18) 0.68121(9)
C16 C 0.19132(56) 0.17910(18) 0.66119(8)
C17 C 0.04479(62) 0.48858(20) 0.71739(10)
loop_
_geom_bond_atom_site_label_1
_geom_bond_atom_site_label_2
_geom_bond_site_symmetry_1
_geom_bond_site_symmetry_2
O1 C2 1_555 1_555
O2 C12 1_555 1_555
N1 N2 1_555 1_555
N2 C11 1_555 1_555
C1 N1 1_555 1_555
C2 C1 1_555 1_555
C3 C2 1_555 1_555
C4 C3 1_555 1_555
C5 C4 1_555 1_555
C6 C5 1_555 1_555
C7 C6 1_555 1_555
C8 C7 1_555 1_555
C9 C8 1_555 1_555
C10 C1 1_555 1_555
C11 C12 1_555 1_555
C12 C13 1_555 1_555
C13 C14 1_555 1_555
C14 C15 1_555 1_555
C15 C16 1_555 1_555
C16 C11 1_555 1_555
C17 O2 1_555 1_555
C5 C10 1_555 1_555
C9 C10 1_555 1_555

#END
