
#######################################################################
#
#                 Cambridge Crystallographic Data Centre
#                                CCDC 
#
#######################################################################
#
# If this CIF has been generated from an entry in the Cambridge 
# Structural Database, then it will include bibliographic, chemical, 
# crystal, experimental, refinement or atomic coordinate data resulting 
# from the CCDC's data processing and validation procedures.
#
#######################################################################

data_JATPBR10
_chemical_formula_moiety         'C20 H26 Br2 O3'
_chemical_name_systematic        'Jatrophone dihydrobromide'
_symmetry_cell_setting           orthorhombic
_symmetry_space_group_name_H-M   'P 21 21 21'
_symmetry_Int_Tables_number      19
_space_group_name_Hall           'P 2ac 2ab'
loop_
_symmetry_equiv_pos_site_id
_symmetry_equiv_pos_as_xyz
1 x,y,z
2 1/2+x,1/2-y,-z
3 -x,1/2+y,1/2-z
4 1/2-x,-y,1/2+z
_cell_length_a                   21.974(3)
_cell_length_b                   12.486(3)
_cell_length_c                   7.127(2)
_cell_angle_alpha                90
_cell_angle_beta                 90
_cell_angle_gamma                90
_cell_volume                     1955.42
_chemical_melting_point          154-5deg.C(dec.)
_cell_formula_units_Z            4
loop_
_atom_site_label
_atom_site_type_symbol
_atom_site_fract_x
_atom_site_fract_y
_atom_site_fract_z
Br1 Br 0.18290 -0.47650 0.32860
Br2 Br 0.11970 -0.93430 0.18510
C1 C 0.12100 -0.39440 -0.18410
C2 C 0.18710 -0.83830 -0.13300
C3 C 0.17390 -0.75570 -0.28930
C4 C 0.12280 -0.68010 -0.20920
C5 C 0.07300 -0.64760 -0.34430
C6 C 0.04320 -0.56250 -0.21800
C7 C 0.09880 -0.50540 -0.12800
C8 C 0.15780 -0.23140 0.01020
C9 C -0.06330 -0.60830 -0.06050
C10 C 0.21040 -0.94720 -0.21480
C11 C 0.23210 -0.79540 0.01290
C12 C 0.15480 -0.35690 -0.00040
C13 C 0.03160 -0.73380 -0.42570
C14 C 0.12170 -0.40660 0.16290
C15 C 0.08280 -0.49200 0.07450
C16 C 0.03160 -0.54290 0.11770
C17 C 0.00780 -0.60810 -0.04890
C18 C 0.02860 -0.72380 -0.00350
C19 C 0.09870 -0.73880 -0.02690
C20 C 0.12170 -0.85470 -0.05170
O1 O 0.14910 -0.57980 -0.15240
O2 O -0.00520 -0.79500 0.03730
O3 O 0.00310 -0.49300 -0.31680
loop_
_geom_bond_atom_site_label_1
_geom_bond_atom_site_label_2
_geom_bond_site_symmetry_1
_geom_bond_site_symmetry_2
Br1 C14 1_555 1_555
Br2 C20 1_555 1_555
C1 C7 1_555 1_555
C2 C3 1_555 1_555
C3 C4 1_555 1_555
C4 C5 1_555 1_555
C5 C6 1_555 1_555
C6 C7 1_555 1_555
C7 C15 1_555 1_555
C8 C12 1_555 1_555
C9 C17 1_555 1_555
C10 C2 1_555 1_555
C11 C2 1_555 1_555
C12 C1 1_555 1_555
C13 C5 1_555 1_555
C14 C12 1_555 1_555
C15 C14 1_555 1_555
C16 C15 1_555 1_555
C17 C6 1_555 1_555
C18 C17 1_555 1_555
C19 C4 1_555 1_555
C20 C2 1_555 1_555
O1 C4 1_555 1_555
O2 C18 1_555 1_555
O3 C6 1_555 1_555
C7 O1 1_555 1_555
C16 C17 1_555 1_555
C18 C19 1_555 1_555
C19 C20 1_555 1_555

#END
