
#######################################################################
#
#                 Cambridge Crystallographic Data Centre
#                                CCDC 
#
#######################################################################
#
# If this CIF has been generated from an entry in the Cambridge 
# Structural Database, then it will include bibliographic, chemical, 
# crystal, experimental, refinement or atomic coordinate data resulting 
# from the CCDC's data processing and validation procedures.
#
#######################################################################

data_JATWOT
_chemical_formula_moiety         'C36 H22 N2 O2 S3,C2 H6 O1'
_chemical_name_systematic        
'10-(5,5-dioxido-8-(10H-phenothiazin-10-yl)dibenzo[b,d]thiophen-2-yl)-10H-phenothiazine ethanol solvate'
_symmetry_cell_setting           monoclinic
_symmetry_space_group_name_H-M   'C 2/c'
_symmetry_Int_Tables_number      15
_space_group_name_Hall           '-C 2yn'
loop_
_symmetry_equiv_pos_site_id
_symmetry_equiv_pos_as_xyz
1 x,y,z
2 -x,y,1/2-z
3 1/2+x,1/2+y,z
4 1/2-x,1/2+y,1/2-z
5 -x,-y,-z
6 x,-y,1/2+z
7 1/2-x,1/2-y,-z
8 1/2+x,1/2-y,1/2+z
_cell_length_a                   27.068(5)
_cell_length_b                   7.5678(15)
_cell_length_c                   18.257(4)
_cell_angle_alpha                90
_cell_angle_beta                 125.20(3)
_cell_angle_gamma                90
_cell_volume                     3056.01
_exptl_crystal_colour            red
_exptl_crystal_description       block
_cell_formula_units_Z            4
loop_
_atom_site_label
_atom_site_type_symbol
_atom_site_fract_x
_atom_site_fract_y
_atom_site_fract_z
S1 S 0.0000 0.5916(2) 0.2500
S2 S 0.22364(6) -0.29840(18) 0.25159(10)
N1 N 0.14395(16) -0.0046(5) 0.2521(2)
C1 C 0.05910(17) 0.1144(5) 0.2508(3)
H1 H 0.0465 -0.0001 0.2502
C2 C 0.11044(18) 0.1459(6) 0.2518(3)
C3 C 0.02756(18) 0.2593(5) 0.2507(3)
O1 O 0.03091(17) 0.6905(5) 0.3313(3)
C4 C 0.19882(19) -0.0434(6) 0.3350(3)
C5 C 0.1341(2) -0.0415(6) 0.1672(3)
C6 C 0.04769(19) 0.4306(5) 0.2513(3)
C7 C 0.09897(19) 0.4612(6) 0.2527(3)
H2 H 0.1119 0.5756 0.2536
C8 C 0.2401(2) -0.1673(6) 0.3424(3)
C9 C 0.1690(2) -0.1653(6) 0.1600(4)
C10 C 0.2132(2) 0.0387(7) 0.4143(3)
H3 H 0.1865 0.1201 0.4118
C11 C 0.1301(2) 0.3167(6) 0.2528(3)
H4 H 0.1644 0.3334 0.2535
C12 C 0.0881(2) 0.0424(7) 0.0898(3)
H5 H 0.0640 0.1245 0.0934
C13 C 0.2944(2) -0.1963(7) 0.4248(4)
H6 H 0.3226 -0.2723 0.4283
C14 C 0.1590(3) -0.1965(8) 0.0779(4)
H7 H 0.1836 -0.2761 0.0742
C15 C 0.3073(3) -0.1168(8) 0.5003(4)
H8 H 0.3436 -0.1408 0.5551
C16 C 0.2667(2) -0.0006(7) 0.4958(3)
H9 H 0.2751 0.0520 0.5479
C17 C 0.0771(3) 0.0068(9) 0.0074(4)
H10 H 0.0455 0.0629 -0.0438
C18 C 0.1132(3) -0.1122(10) 0.0013(4)
H11 H 0.1068 -0.1351 -0.0536
S2A S -0.22364(6) -0.29840(18) 0.24841(10)
N1A N -0.14395(16) -0.0046(5) 0.2479(2)
C1A C -0.05910(17) 0.1144(5) 0.2492(3)
H1A H -0.0465 -0.0001 0.2498
C2A C -0.11044(18) 0.1459(6) 0.2482(3)
C3A C -0.02756(18) 0.2593(5) 0.2493(3)
O1A O -0.03091(17) 0.6905(5) 0.1687(3)
C4A C -0.19882(19) -0.0434(6) 0.1650(3)
C5A C -0.1341(2) -0.0415(6) 0.3328(3)
C6A C -0.04769(19) 0.4306(5) 0.2487(3)
C7A C -0.09897(19) 0.4612(6) 0.2473(3)
H2A H -0.1119 0.5756 0.2464
C8A C -0.2401(2) -0.1673(6) 0.1576(3)
C9A C -0.1690(2) -0.1653(6) 0.3400(4)
C10A C -0.2132(2) 0.0387(7) 0.0857(3)
H3A H -0.1865 0.1201 0.0882
C11A C -0.1301(2) 0.3167(6) 0.2472(3)
H4A H -0.1644 0.3334 0.2465
C12A C -0.0881(2) 0.0424(7) 0.4102(3)
H5A H -0.0640 0.1245 0.4066
C13A C -0.2944(2) -0.1963(7) 0.0752(4)
H6A H -0.3226 -0.2723 0.0717
C14A C -0.1590(3) -0.1965(8) 0.4221(4)
H7A H -0.1836 -0.2761 0.4258
C15A C -0.3073(3) -0.1168(8) -0.0003(4)
H8A H -0.3436 -0.1408 -0.0551
C16A C -0.2667(2) -0.0006(7) 0.0042(3)
H9A H -0.2751 0.0520 -0.0479
C17A C -0.0771(3) 0.0068(9) 0.4926(4)
H10A H -0.0455 0.0629 0.5438
C18A C -0.1132(3) -0.1122(10) 0.4987(4)
H11A H -0.1068 -0.1351 0.5536
C19? C 0.9228(6) 0.547(3) 0.9667(16)
H12? H 0.9281 0.5967 1.0191
H13? H 0.8891 0.4671 0.9383
H14? H 0.9154 0.6399 0.9257
C20? C 0.9771(4) 0.4509(14) 0.9927(9)
H15? H 0.9907 0.3814 1.0459
H16? H 0.9665 0.3691 0.9448
O2? O 0.9771(4) 0.4509(14) 0.9927(9)
H17? H 0.9690 0.3802 0.9532
loop_
_geom_bond_atom_site_label_1
_geom_bond_atom_site_label_2
_geom_bond_site_symmetry_1
_geom_bond_site_symmetry_2
S1 O1 1_555 1_555
S2 C8 1_555 1_555
N1 C2 1_555 1_555
C1 H1 1_555 1_555
C2 C1 1_555 1_555
C3 C1 1_555 1_555
C4 N1 1_555 1_555
C5 N1 1_555 1_555
C6 S1 1_555 1_555
C7 C6 1_555 1_555
H2 C7 1_555 1_555
C8 C4 1_555 1_555
C9 S2 1_555 1_555
C10 C4 1_555 1_555
H3 C10 1_555 1_555
C11 C2 1_555 1_555
H4 C11 1_555 1_555
C12 C5 1_555 1_555
H5 C12 1_555 1_555
C13 C8 1_555 1_555
H6 C13 1_555 1_555
C14 C9 1_555 1_555
H7 C14 1_555 1_555
C15 C13 1_555 1_555
H8 C15 1_555 1_555
C16 C10 1_555 1_555
H9 C16 1_555 1_555
C17 C12 1_555 1_555
H10 C17 1_555 1_555
C18 C14 1_555 1_555
H11 C18 1_555 1_555
S2A C8A 1_555 1_555
N1A C2A 1_555 1_555
C1A H1A 1_555 1_555
C2A C1A 1_555 1_555
C3A C3 1_555 1_555
O1A S1 1_555 1_555
C4A N1A 1_555 1_555
C5A N1A 1_555 1_555
C6A S1 1_555 1_555
C7A C6A 1_555 1_555
H2A C7A 1_555 1_555
C8A C4A 1_555 1_555
C9A S2A 1_555 1_555
C10A C4A 1_555 1_555
H3A C10A 1_555 1_555
C11A C2A 1_555 1_555
H4A C11A 1_555 1_555
C12A C5A 1_555 1_555
H5A C12A 1_555 1_555
C13A C8A 1_555 1_555
H6A C13A 1_555 1_555
C14A C9A 1_555 1_555
H7A C14A 1_555 1_555
C15A C13A 1_555 1_555
H8A C15A 1_555 1_555
C16A C10A 1_555 1_555
H9A C16A 1_555 1_555
C17A C12A 1_555 1_555
H10A C17A 1_555 1_555
C18A C14A 1_555 1_555
H11A C18A 1_555 1_555
C3 C6 1_555 1_555
C5 C9 1_555 1_555
C7 C11 1_555 1_555
C15 C16 1_555 1_555
C17 C18 1_555 1_555
C1A C3A 1_555 1_555
C3A C6A 1_555 1_555
C5A C9A 1_555 1_555
C7A C11A 1_555 1_555
C15A C16A 1_555 1_555
C17A C18A 1_555 1_555

#END
