
#######################################################################
#
#                 Cambridge Crystallographic Data Centre
#                                CCDC 
#
#######################################################################
#
# If this CIF has been generated from an entry in the Cambridge 
# Structural Database, then it will include bibliographic, chemical, 
# crystal, experimental, refinement or atomic coordinate data resulting 
# from the CCDC's data processing and validation procedures.
#
#######################################################################

data_JATXAG
_chemical_formula_moiety         'C36 H22 N2 O2 S3,C1 H1 Cl3'
_chemical_name_systematic        
'10-(5,5-dioxido-8-(10H-phenothiazin-10-yl)dibenzo[b,d]thiophen-2-yl)-10H-phenothiazine chloroform solvate'
_symmetry_cell_setting           monoclinic
_symmetry_space_group_name_H-M   'P 21/c'
_symmetry_Int_Tables_number      14
_space_group_name_Hall           '-P 2ybc'
loop_
_symmetry_equiv_pos_site_id
_symmetry_equiv_pos_as_xyz
1 x,y,z
2 -x,1/2+y,1/2-z
3 -x,-y,-z
4 x,1/2-y,1/2+z
_cell_length_a                   12.200(2)
_cell_length_b                   14.927(3)
_cell_length_c                   18.253(4)
_cell_angle_alpha                90
_cell_angle_beta                 96.25(3)
_cell_angle_gamma                90
_cell_volume                     3304.29
_exptl_crystal_colour            colorless
_exptl_crystal_description       block
_cell_formula_units_Z            4
_exptl_crystal_preparation       ', Luminescent'
loop_
_atom_site_label
_atom_site_type_symbol
_atom_site_fract_x
_atom_site_fract_y
_atom_site_fract_z
C1 C 0.3321(8) 0.2419(5) 0.2780(4)
Cl1 Cl 0.3914(9) 0.1455(7) 0.2934(6)
Cl2 Cl 0.2274(13) 0.2353(12) 0.3066(10)
Cl3 Cl 0.4248(8) 0.3319(9) 0.3042(5)
C3 C 0.77098(19) 0.58081(16) 0.37001(13)
C4 C 0.7001(3) 0.64465(19) 0.39378(17)
H1 H 0.7224 0.7042 0.3983
C5 C 0.5990(3) 0.6207(2) 0.41043(18)
H2 H 0.5503 0.6646 0.4232
C6 C 0.5675(2) 0.5329(3) 0.40874(17)
H3 H 0.4981 0.5173 0.4213
C7 C 0.63870(19) 0.46629(19) 0.38822(14)
H4 H 0.6186 0.4062 0.3890
C8 C 0.73897(17) 0.49111(15) 0.36679(11)
C9 C 0.92269(16) 0.43136(14) 0.38013(11)
C10 C 0.9750(2) 0.35758(15) 0.41298(13)
H5 H 0.9383 0.3029 0.4129
C11 C 1.0815(2) 0.36478(19) 0.44598(14)
H6 H 1.1177 0.3144 0.4665
C12 C 1.13484(19) 0.4465(2) 0.44879(13)
H7 H 1.2075 0.4507 0.4700
C13 C 1.08114(19) 0.52137(18) 0.42052(13)
H8 H 1.1157 0.5769 0.4249
C14 C 0.97439(17) 0.51414(15) 0.38505(12)
C15 C 0.79252(16) 0.38515(13) 0.27419(11)
C16 C 0.69187(15) 0.39868(13) 0.23072(11)
H9 H 0.6386 0.4357 0.2475
C17 C 0.67191(15) 0.35718(12) 0.16320(11)
C18 C 0.75174(15) 0.30159(13) 0.13793(11)
C19 C 0.85202(16) 0.28911(14) 0.17919(12)
H10 H 0.9055 0.2529 0.1617
C20 C 0.87237(16) 0.33091(14) 0.24676(13)
H11 H 0.9402 0.3229 0.2745
C21 C 0.57295(15) 0.36541(13) 0.10850(11)
C22 C 0.47782(15) 0.41505(13) 0.11412(11)
H12 H 0.4709 0.4489 0.1561
C23 C 0.39280(15) 0.41382(13) 0.05645(11)
C24 C 0.40386(16) 0.36190(15) -0.00596(12)
H13 H 0.3469 0.3604 -0.0442
C25 C 0.49864(17) 0.31277(15) -0.01156(12)
H14 H 0.5060 0.2785 -0.0533
C26 C 0.58174(15) 0.31537(13) 0.04547(11)
C27 C 0.27338(15) 0.50128(14) 0.12981(11)
C28 C 0.32374(19) 0.57893(17) 0.15635(14)
H15 H 0.3714 0.6094 0.1286
C29 C 0.3034(2) 0.61165(19) 0.22447(16)
H16 H 0.3387 0.6633 0.2431
C30 C 0.2313(3) 0.56798(19) 0.26435(16)
H17 H 0.2194 0.5893 0.3107
C31 C 0.1765(2) 0.49312(17) 0.23687(14)
H18 H 0.1254 0.4653 0.2635
C32 C 0.19754(17) 0.45902(14) 0.16920(12)
C33 C 0.11480(16) 0.39549(14) 0.03781(13)
C34 C 0.02038(18) 0.37434(16) -0.00883(17)
H19 H -0.0370 0.3428 0.0089
C35 C 0.0129(2) 0.40049(18) -0.08107(18)
H20 H -0.0487 0.3844 -0.1129
C36 C 0.0948(2) 0.45000(18) -0.10729(15)
H21 H 0.0879 0.4682 -0.1563
C37 C 0.18778(19) 0.47291(15) -0.06053(13)
H22 H 0.2425 0.5080 -0.0777
C38 C 0.19904(15) 0.44347(13) 0.01155(12)
N1 N 0.81321(13) 0.42589(12) 0.34301(10)
N2 N 0.29552(13) 0.46342(12) 0.06087(10)
O1 O 0.77397(13) 0.28410(13) -0.00346(10)
O2 O 0.68762(14) 0.16129(10) 0.05707(10)
S1 S 0.90349(6) 0.60925(4) 0.34785(4)
S2 S 0.70670(4) 0.25580(4) 0.05161(3)
S3 S 0.12673(5) 0.36386(4) 0.13146(4)
Cl4? Cl 0.3630(11) 0.1242(7) 0.3007(7)
Cl5? Cl 0.4390(9) 0.1969(8) 0.2799(6)
Cl6? Cl 0.2525(12) 0.2799(14) 0.3380(11)
Cl7? Cl 0.3894(9) 0.3681(7) 0.3249(7)
Cl8? Cl 0.4501(14) 0.2969(12) 0.2722(9)
Cl9? Cl 0.3641(4) 0.3647(4) 0.3796(5)
Cl10? Cl 0.4644(7) 0.2591(10) 0.2802(6)
Cl11? Cl 0.2157(13) 0.2637(12) 0.3218(14)
Cl12? Cl 0.237(2) 0.2242(19) 0.3122(13)
C2? C 0.3384(10) 0.2907(8) 0.2841(8)
loop_
_geom_bond_atom_site_label_1
_geom_bond_atom_site_label_2
_geom_bond_site_symmetry_1
_geom_bond_site_symmetry_2
C1 Cl1 1_555 1_555
Cl2 C1 1_555 1_555
Cl3 C1 1_555 1_555
C3 C4 1_555 1_555
C4 H1 1_555 1_555
C5 C4 1_555 1_555
H2 C5 1_555 1_555
C6 C5 1_555 1_555
H3 C6 1_555 1_555
C7 C6 1_555 1_555
H4 C7 1_555 1_555
C8 C3 1_555 1_555
C9 C10 1_555 1_555
C10 H5 1_555 1_555
C11 C10 1_555 1_555
H6 C11 1_555 1_555
C12 C11 1_555 1_555
H7 C12 1_555 1_555
C13 C12 1_555 1_555
H8 C13 1_555 1_555
C14 C9 1_555 1_555
C15 C16 1_555 1_555
C16 H9 1_555 1_555
C17 C16 1_555 1_555
C18 C17 1_555 1_555
C19 C18 1_555 1_555
H10 C19 1_555 1_555
C20 C15 1_555 1_555
H11 C20 1_555 1_555
C21 C17 1_555 1_555
C22 C21 1_555 1_555
H12 C22 1_555 1_555
C23 C22 1_555 1_555
C24 C23 1_555 1_555
H13 C24 1_555 1_555
C25 C24 1_555 1_555
H14 C25 1_555 1_555
C26 C21 1_555 1_555
C27 C28 1_555 1_555
C28 H15 1_555 1_555
C29 C28 1_555 1_555
H16 C29 1_555 1_555
C30 C29 1_555 1_555
H17 C30 1_555 1_555
C31 C30 1_555 1_555
H18 C31 1_555 1_555
C32 C27 1_555 1_555
C33 C34 1_555 1_555
C34 H19 1_555 1_555
C35 C34 1_555 1_555
H20 C35 1_555 1_555
C36 C35 1_555 1_555
H21 C36 1_555 1_555
C37 C36 1_555 1_555
H22 C37 1_555 1_555
C38 C33 1_555 1_555
N1 C8 1_555 1_555
N2 C23 1_555 1_555
O1 S2 1_555 1_555
O2 S2 1_555 1_555
S1 C3 1_555 1_555
S2 C18 1_555 1_555
S3 C32 1_555 1_555
C7 C8 1_555 1_555
C9 N1 1_555 1_555
C13 C14 1_555 1_555
C14 S1 1_555 1_555
C15 N1 1_555 1_555
C19 C20 1_555 1_555
C25 C26 1_555 1_555
C26 S2 1_555 1_555
C27 N2 1_555 1_555
C31 C32 1_555 1_555
C33 S3 1_555 1_555
C37 C38 1_555 1_555
C38 N2 1_555 1_555

#END
