
#######################################################################
#
#                 Cambridge Crystallographic Data Centre
#                                CCDC 
#
#######################################################################
#
# If this CIF has been generated from an entry in the Cambridge 
# Structural Database, then it will include bibliographic, chemical, 
# crystal, experimental, refinement or atomic coordinate data resulting 
# from the CCDC's data processing and validation procedures.
#
#######################################################################

data_JAVCIS10
_chemical_formula_moiety         'C22 H23 N2 O8 1+,Cl1 1-'
_chemical_name_systematic        '6-Methylene-5-oxytetracycline hydrochloride'
_symmetry_cell_setting           orthorhombic
_symmetry_space_group_name_H-M   'P 21 21 21'
_symmetry_Int_Tables_number      19
_space_group_name_Hall           'P 2ac 2ab'
loop_
_symmetry_equiv_pos_site_id
_symmetry_equiv_pos_as_xyz
1 x,y,z
2 1/2+x,1/2-y,-z
3 -x,1/2+y,1/2-z
4 1/2-x,-y,1/2+z
_cell_length_a                   9.472(1)
_cell_length_b                   11.921(3)
_cell_length_c                   18.945(4)
_cell_angle_alpha                90
_cell_angle_beta                 90
_cell_angle_gamma                90
_cell_volume                     2139.19
_cell_formula_units_Z            4
loop_
_atom_site_label
_atom_site_type_symbol
_atom_site_fract_x
_atom_site_fract_y
_atom_site_fract_z
Cl1 Cl 0.0918(2) 0.3712(1) 0.0432(1)
C1 C 0.1296(5) 0.3358(4) 0.4413(2)
C2 C 0.1441(5) 0.4351(4) 0.4023(2)
C3 C 0.0823(6) 0.5366(4) 0.4276(3)
C4 C 0.0597(5) 0.5474(4) 0.5079(2)
C5 C 0.0460(5) 0.4368(4) 0.5507(2)
C6 C 0.1767(5) 0.4162(4) 0.5966(2)
C7 C 0.1578(5) 0.3118(4) 0.6440(2)
C8 C 0.2921(5) 0.2735(4) 0.6798(2)
C9 C 0.2767(5) 0.1697(4) 0.7226(2)
C10 C 0.3575(5) 0.1509(4) 0.7823(3)
C11 C 0.3458(6) 0.0496(5) 0.8188(3)
C12 C 0.2527(7) -0.0314(5) 0.7979(3)
C13 C 0.1703(7) -0.0157(4) 0.7387(3)
C14 C 0.1793(6) 0.0868(4) 0.7004(2)
C15 C 0.0976(6) 0.1034(4) 0.6362(2)
C16 C 0.0920(5) 0.2144(4) 0.6038(2)
C17 C 0.0270(5) 0.2266(4) 0.5415(2)
C18 C 0.0208(5) 0.3371(4) 0.5013(2)
C19 C -0.1999(6) 0.5953(4) 0.5035(2)
C20 C -0.0455(6) 0.6841(5) 0.5921(3)
C21 C 0.4173(7) 0.3220(5) 0.6727(3)
C22 C 0.2123(6) 0.4305(4) 0.3350(2)
N1 N -0.0553(5) 0.6324(3) 0.5201(2)
N2 N 0.2126(6) 0.5145(4) 0.2904(2)
O1 O 0.1947(4) 0.2462(3) 0.4271(2)
O2 O 0.0622(6) 0.6211(3) 0.3921(2)
O3 O 0.1993(4) 0.5100(2) 0.6424(2)
O4 O 0.0826(5) -0.0987(3) 0.7179(2)
O5 O 0.0301(4) 0.0226(3) 0.6093(2)
O6 O -0.0362(4) 0.1437(3) 0.5060(2)
O7 O -0.1116(3) 0.3502(3) 0.4671(2)
O8 O 0.2754(4) 0.3371(3) 0.3156(2)
H1? H 0.270(7) 0.540(6) 0.624(3)
H2? H 0.016(7) -0.080(5) 0.681(3)
H3? H -0.188(6) 0.331(5) 0.491(3)
H4? H -0.037(5) 0.690(4) 0.487(3)
H5? H 0.289(8) 0.511(6) 0.245(4)
H6? H 0.212(10) 0.590(8) 0.301(5)
H7? H 0.409(7) 0.383(5) 0.640(3)
H8? H 0.486(5) 0.294(4) 0.697(3)
H9? H 0.417(5) 0.206(4) 0.800(2)
H10? H 0.415(8) 0.047(6) 0.861(4)
H11? H 0.242(6) -0.109(5) 0.825(3)
H12? H -0.088(6) 0.628(4) 0.627(3)
H13? H -0.111(6) 0.735(5) 0.593(3)
H14? H 0.067(6) 0.707(5) 0.600(3)
H15? H 0.269(10) 0.276(8) 0.366(5)
H16? H -0.191(7) 0.566(5) 0.449(3)
H17? H -0.230(6) 0.534(5) 0.535(3)
H18? H -0.254(7) 0.659(6) 0.508(4)
H19? H 0.081(5) 0.337(4) 0.687(3)
H20? H 0.263(5) 0.410(4) 0.561(2)
H21? H 0.149(6) 0.582(5) 0.521(3)
H22? H -0.036(5) 0.436(4) 0.588(2)
H23? H -0.019(7) 0.072(6) 0.540(3)
loop_
_geom_bond_atom_site_label_1
_geom_bond_atom_site_label_2
_geom_bond_site_symmetry_1
_geom_bond_site_symmetry_2
C1 C2 1_555 1_555
C2 C3 1_555 1_555
C3 C4 1_555 1_555
C4 C5 1_555 1_555
C5 C6 1_555 1_555
C6 C7 1_555 1_555
C7 C8 1_555 1_555
C8 C9 1_555 1_555
C9 C10 1_555 1_555
C10 C11 1_555 1_555
C11 C12 1_555 1_555
C12 C13 1_555 1_555
C13 C14 1_555 1_555
C14 C9 1_555 1_555
C15 C14 1_555 1_555
C16 C7 1_555 1_555
C17 C16 1_555 1_555
C18 C1 1_555 1_555
C19 N1 1_555 1_555
C20 N1 1_555 1_555
C21 C8 1_555 1_555
C22 C2 1_555 1_555
N1 C4 1_555 1_555
N2 C22 1_555 1_555
O1 C1 1_555 1_555
O2 C3 1_555 1_555
O3 C6 1_555 1_555
O4 C13 1_555 1_555
O5 C15 1_555 1_555
O6 C17 1_555 1_555
O7 C18 1_555 1_555
O8 C22 1_555 1_555
C5 C18 1_555 1_555
C15 C16 1_555 1_555
C17 C18 1_555 1_555

#END
