
#######################################################################
#
#                 Cambridge Crystallographic Data Centre
#                                CCDC 
#
#######################################################################
#
# If this CIF has been generated from an entry in the Cambridge 
# Structural Database, then it will include bibliographic, chemical, 
# crystal, experimental, refinement or atomic coordinate data resulting 
# from the CCDC's data processing and validation procedures.
#
#######################################################################

data_JAVDOC
_chemical_formula_moiety         'C6 H16 N1 1+,C7 H3 N2 O6 1-'
_chemical_name_systematic        
'N-isopropylpropan-2-aminium 3,5-dinitrobenzoate'
_symmetry_cell_setting           monoclinic
_symmetry_space_group_name_H-M   'C 2/c'
_symmetry_Int_Tables_number      15
_space_group_name_Hall           '-C 2yn'
loop_
_symmetry_equiv_pos_site_id
_symmetry_equiv_pos_as_xyz
1 x,y,z
2 -x,y,1/2-z
3 1/2+x,1/2+y,z
4 1/2-x,1/2+y,1/2-z
5 -x,-y,-z
6 x,-y,1/2+z
7 1/2-x,1/2-y,-z
8 1/2+x,1/2-y,1/2+z
_cell_length_a                   23.996(2)
_cell_length_b                   7.1256(9)
_cell_length_c                   21.604(2)
_cell_angle_alpha                90
_cell_angle_beta                 120.700(2)
_cell_angle_gamma                90
_cell_volume                     3176.28
_exptl_crystal_colour            colorless
_exptl_crystal_description       block
_cell_formula_units_Z            8
loop_
_atom_site_label
_atom_site_type_symbol
_atom_site_fract_x
_atom_site_fract_y
_atom_site_fract_z
N1 N 0.70428(7) 0.7641(2) 0.38153(8)
H1 H 0.7443 0.8138 0.4065
H2 H 0.6972 0.7032 0.4134
C1 C 0.65708(10) 0.9231(3) 0.35136(12)
H3 H 0.6665 0.9964 0.3194
C2 C 0.58798(11) 0.8532(5) 0.30817(14)
H4 H 0.5829 0.7778 0.2688
H5 H 0.5590 0.9583 0.2898
H6 H 0.5782 0.7791 0.3385
C3 C 0.66752(13) 1.0463(4) 0.41261(15)
H7 H 0.6552 0.9799 0.4424
H8 H 0.6416 1.1577 0.3940
H9 H 0.7125 1.0804 0.4407
C4 C 0.70476(11) 0.6208(3) 0.33118(12)
H10 H 0.6626 0.5573 0.3067
C5 C 0.71558(15) 0.7126(5) 0.27507(14)
H11 H 0.6810 0.7993 0.2472
H12 H 0.7165 0.6182 0.2439
H13 H 0.7561 0.7787 0.2984
C6 C 0.75635(15) 0.4784(4) 0.37483(16)
H14 H 0.7983 0.5360 0.3953
H15 H 0.7534 0.3762 0.3443
H16 H 0.7503 0.4319 0.4127
N2 N 0.50103(11) 0.1897(3) 0.56579(13)
N3 N 0.42839(10) 0.2873(3) 0.31221(12)
O1 O 0.65955(8) 0.5414(2) 0.45198(9)
O2 O 0.68057(8) 0.5528(3) 0.56460(9)
O3 O 0.54374(11) 0.2016(3) 0.62773(11)
O4 O 0.44785(9) 0.1220(2) 0.54638(11)
O5 O 0.37618(10) 0.2259(4) 0.29770(11)
O6 O 0.44162(11) 0.3348(3) 0.26765(10)
C7 C 0.64757(10) 0.5089(3) 0.49989(13)
C8 C 0.58508(9) 0.4039(3) 0.47856(10)
C9 C 0.57294(9) 0.3383(3) 0.53048(11)
H17 H 0.6044 0.3484 0.5790
C10 C 0.51380(10) 0.2575(3) 0.51017(11)
C11 C 0.46542(10) 0.2415(3) 0.43946(12)
H18 H 0.4252 0.1912 0.4266
C12 C 0.47927(9) 0.3033(3) 0.38877(11)
C13 C 0.53820(10) 0.3832(3) 0.40689(11)
H19 H 0.5462 0.4226 0.3711
loop_
_geom_bond_atom_site_label_1
_geom_bond_atom_site_label_2
_geom_bond_site_symmetry_1
_geom_bond_site_symmetry_2
N1 H1 1_555 1_555
H2 N1 1_555 1_555
C1 N1 1_555 1_555
H3 C1 1_555 1_555
C2 C1 1_555 1_555
H4 C2 1_555 1_555
H5 C2 1_555 1_555
H6 C2 1_555 1_555
C3 C1 1_555 1_555
H7 C3 1_555 1_555
H8 C3 1_555 1_555
H9 C3 1_555 1_555
C4 N1 1_555 1_555
H10 C4 1_555 1_555
C5 C4 1_555 1_555
H11 C5 1_555 1_555
H12 C5 1_555 1_555
H13 C5 1_555 1_555
C6 C4 1_555 1_555
H14 C6 1_555 1_555
H15 C6 1_555 1_555
H16 C6 1_555 1_555
N2 O3 1_555 1_555
N3 O5 1_555 1_555
O1 C7 1_555 1_555
O2 C7 1_555 1_555
O4 N2 1_555 1_555
O6 N3 1_555 1_555
C7 C8 1_555 1_555
C8 C9 1_555 1_555
C9 H17 1_555 1_555
C10 N2 1_555 1_555
C11 C10 1_555 1_555
H18 C11 1_555 1_555
C12 N3 1_555 1_555
C13 C8 1_555 1_555
H19 C13 1_555 1_555
C9 C10 1_555 1_555
C11 C12 1_555 1_555
C12 C13 1_555 1_555

#END
