
#######################################################################
#
#                 Cambridge Crystallographic Data Centre
#                                CCDC 
#
#######################################################################
#
# If this CIF has been generated from an entry in the Cambridge 
# Structural Database, then it will include bibliographic, chemical, 
# crystal, experimental, refinement or atomic coordinate data resulting 
# from the CCDC's data processing and validation procedures.
#
#######################################################################

data_JAVFEU
_chemical_formula_moiety         'C8 H8 O8 2-,2(C6 H16 N1 1+)'
_chemical_name_systematic        
'bis(N-isopropylpropan-2-aminium) 2,3-bis(carboxymethyl)succinate'
_symmetry_cell_setting           triclinic
_symmetry_space_group_name_H-M   'P -1'
_symmetry_Int_Tables_number      2
_space_group_name_Hall           '-P 1'
loop_
_symmetry_equiv_pos_site_id
_symmetry_equiv_pos_as_xyz
1 x,y,z
2 -x,-y,-z
_cell_length_a                   7.5563(11)
_cell_length_b                   8.5685(10)
_cell_length_c                   9.8077(13)
_cell_angle_alpha                93.8820(10)
_cell_angle_beta                 108.075(2)
_cell_angle_gamma                103.2410(10)
_cell_volume                     580.981
_exptl_crystal_colour            colorless
_exptl_crystal_description       BLOCK
_cell_formula_units_Z            1
loop_
_atom_site_label
_atom_site_type_symbol
_atom_site_fract_x
_atom_site_fract_y
_atom_site_fract_z
N1 N 0.8653(3) 0.8440(3) 0.7160(2)
H1 H 0.8336 0.7812 0.7792
H2 H 0.7845 0.7968 0.6268
C1 C 0.8690(5) 1.1165(4) 0.6416(4)
H3 H 0.7871 1.0685 0.5447
H4 H 1.0017 1.1331 0.6482
H5 H 0.8456 1.2188 0.6650
C2 C 0.8261(4) 1.0048(3) 0.7470(3)
H6 H 0.9087 1.0559 0.8457
C3 C 0.6196(5) 0.9705(4) 0.7393(4)
H7 H 0.5374 0.9203 0.6429
H8 H 0.5906 1.0703 0.7627
H9 H 0.5983 0.8990 0.8072
C4 C 1.2056(4) 0.9038(4) 0.8754(3)
H10 H 1.2056 1.0134 0.9031
H11 H 1.3330 0.9005 0.8788
H12 H 1.1667 0.8367 0.9411
C5 C 1.0657(4) 0.8418(4) 0.7225(3)
H13 H 1.1045 0.9127 0.6568
C6 C 1.0613(6) 0.6693(4) 0.6708(4)
H14 H 1.0270 0.5994 0.7361
H15 H 1.1865 0.6662 0.6682
H16 H 0.9678 0.6334 0.5753
O1 O 0.6541(3) 0.7513(3) 0.4269(2)
O2 O 0.4915(3) 0.4927(2) 0.3680(2)
H17 H 0.4963 0.5043 0.4529
O3 O 0.1774(3) 0.5444(2) 0.0268(2)
O4 O 0.1842(3) 0.2885(2) 0.0412(2)
C7 C 0.5745(4) 0.6270(4) 0.3385(3)
C8 C 0.5822(4) 0.6343(3) 0.1875(3)
H18 H 0.7171 0.6645 0.1952
H19 H 0.5284 0.7220 0.1516
C9 C 0.4818(3) 0.4846(3) 0.0721(3)
H20 H 0.5367 0.3958 0.1068
C10 C 0.2642(4) 0.4319(3) 0.0459(3)
O1A O 0.3459(3) 0.2487(3) -0.4269(2)
O2A O 0.5085(3) 0.5073(2) -0.3680(2)
H17A H 0.5037 0.4957 -0.4529
O3A O 0.8226(3) 0.4556(2) -0.0268(2)
O4A O 0.8158(3) 0.7115(2) -0.0412(2)
C7A C 0.4255(4) 0.3730(4) -0.3385(3)
C8A C 0.4178(4) 0.3657(3) -0.1875(3)
H18A H 0.2829 0.3355 -0.1952
H19A H 0.4716 0.2780 -0.1516
C9A C 0.5182(3) 0.5154(3) -0.0721(3)
H20A H 0.4633 0.6042 -0.1068
C10A C 0.7358(4) 0.5681(3) -0.0459(3)
loop_
_geom_bond_atom_site_label_1
_geom_bond_atom_site_label_2
_geom_bond_site_symmetry_1
_geom_bond_site_symmetry_2
N1 H1 1_555 1_555
H2 N1 1_555 1_555
C1 H3 1_555 1_555
H4 C1 1_555 1_555
H5 C1 1_555 1_555
C2 N1 1_555 1_555
H6 C2 1_555 1_555
C3 C2 1_555 1_555
H7 C3 1_555 1_555
H8 C3 1_555 1_555
H9 C3 1_555 1_555
C4 H10 1_555 1_555
H11 C4 1_555 1_555
H12 C4 1_555 1_555
C5 N1 1_555 1_555
H13 C5 1_555 1_555
C6 C5 1_555 1_555
H14 C6 1_555 1_555
H15 C6 1_555 1_555
H16 C6 1_555 1_555
O1 C7 1_555 1_555
O2 H17 1_555 1_555
O3 C10 1_555 1_555
O4 C10 1_555 1_555
C7 O2 1_555 1_555
C8 C7 1_555 1_555
H18 C8 1_555 1_555
H19 C8 1_555 1_555
C9 C8 1_555 1_555
H20 C9 1_555 1_555
C10 C9 1_555 1_555
O1A C7A 1_555 1_555
O2A H17A 1_555 1_555
O3A C10A 1_555 1_555
O4A C10A 1_555 1_555
C7A O2A 1_555 1_555
C8A C7A 1_555 1_555
H18A C8A 1_555 1_555
H19A C8A 1_555 1_555
C9A C9 1_555 1_555
H20A C9A 1_555 1_555
C10A C9A 1_555 1_555
C1 C2 1_555 1_555
C4 C5 1_555 1_555
C8A C9A 1_555 1_555

#END
