
#######################################################################
#
#                 Cambridge Crystallographic Data Centre
#                                CCDC 
#
#######################################################################
#
# If this CIF has been generated from an entry in the Cambridge 
# Structural Database, then it will include bibliographic, chemical, 
# crystal, experimental, refinement or atomic coordinate data resulting 
# from the CCDC's data processing and validation procedures.
#
#######################################################################

data_JAVFAQ
_chemical_formula_moiety         '2(C6 H16 N1 1+),C8 H4 O4 2-,0.5(H2 O1)'
_chemical_name_systematic        
'bis(N-isopropylpropan-2-aminium) isophthalate hemihydrate'
_symmetry_cell_setting           triclinic
_symmetry_space_group_name_H-M   'P -1'
_symmetry_Int_Tables_number      2
_space_group_name_Hall           '-P 1'
loop_
_symmetry_equiv_pos_site_id
_symmetry_equiv_pos_as_xyz
1 x,y,z
2 -x,-y,-z
_cell_length_a                   7.8593(12)
_cell_length_b                   10.2532(14)
_cell_length_c                   15.036(2)
_cell_angle_alpha                76.437(2)
_cell_angle_beta                 76.525(2)
_cell_angle_gamma                75.0910(10)
_cell_volume                     1118.81
_exptl_crystal_colour            colorless
_exptl_crystal_description       BLOCK
_cell_formula_units_Z            2
loop_
_atom_site_label
_atom_site_type_symbol
_atom_site_fract_x
_atom_site_fract_y
_atom_site_fract_z
N1 N 0.2266(3) 0.3220(3) 0.01002(18)
H1 H 0.1138 0.3089 0.0237
H2 H 0.2234 0.4080 -0.0226
C1 C 0.1695(5) 0.4330(4) 0.1445(3)
H3 H 0.1763 0.5175 0.1011
H4 H 0.2116 0.4344 0.1992
H5 H 0.0475 0.4226 0.1613
C2 C 0.2848(4) 0.3138(4) 0.1000(2)
H6 H 0.4094 0.3241 0.0858
C3 C 0.2760(6) 0.1759(4) 0.1619(3)
H7 H 0.1566 0.1610 0.1726
H8 H 0.3075 0.1739 0.2202
H9 H 0.3583 0.1050 0.1322
C4 C 0.2525(5) 0.2496(4) -0.1361(3)
H10 H 0.1317 0.2367 -0.1169
H11 H 0.3200 0.1862 -0.1760
H12 H 0.2520 0.3419 -0.1693
C5 C 0.3368(5) 0.2247(4) -0.0520(3)
H13 H 0.3343 0.1308 -0.0184
C6 C 0.5305(5) 0.2404(5) -0.0776(3)
H14 H 0.5346 0.3339 -0.1061
H15 H 0.5972 0.1810 -0.1203
H16 H 0.5819 0.2161 -0.0224
N2 N 0.1125(3) 0.6779(2) 0.46149(18)
H17 H 0.1700 0.5979 0.4433
H18 H -0.0048 0.6763 0.4778
C7 C 0.0688(5) 0.7609(4) 0.3006(3)
H19 H 0.1419 0.6773 0.2826
H20 H 0.0761 0.8353 0.2484
H21 H -0.0533 0.7514 0.3210
C8 C 0.1346(5) 0.7906(4) 0.3792(3)
H22 H 0.0608 0.8773 0.3960
C9 C 0.3281(6) 0.8039(5) 0.3507(3)
H23 H 0.3614 0.8343 0.3987
H24 H 0.3421 0.8695 0.2938
H25 H 0.4034 0.7164 0.3416
C10 C 0.0775(5) 0.8125(4) 0.5853(3)
H26 H -0.0490 0.8161 0.5982
H27 H 0.1028 0.8917 0.5401
H28 H 0.1160 0.8115 0.6416
C11 C 0.1769(5) 0.6829(4) 0.5473(3)
H29 H 0.3046 0.6846 0.5301
C12 C 0.1560(5) 0.5531(4) 0.6170(3)
H30 H 0.2056 0.5506 0.6701
H31 H 0.2179 0.4748 0.5888
H32 H 0.0311 0.5512 0.6363
O1 O 0.9021(3) 0.2360(2) 0.06574(17)
O2 O 0.7372(4) 0.4345(3) 0.09956(19)
O3 O 0.3110(3) 0.4622(3) 0.38790(19)
O4 O 0.2571(3) 0.2731(3) 0.48737(17)
C13 C 0.7820(4) 0.3065(4) 0.1159(2)
C14 C 0.3366(4) 0.3347(4) 0.4143(2)
C15 C 0.6885(4) 0.2349(3) 0.2066(2)
C16 C 0.5631(4) 0.3116(3) 0.2667(2)
H33 H 0.5376 0.4069 0.2503
C17 C 0.4748(4) 0.2495(3) 0.3507(2)
C18 C 0.5146(4) 0.1079(3) 0.3738(2)
H34 H 0.4560 0.0643 0.4296
C19 C 0.6401(4) 0.0301(3) 0.3153(2)
H35 H 0.6663 -0.0652 0.3318
C20 C 0.7268(4) 0.0938(3) 0.2321(2)
H36 H 0.8117 0.0411 0.1929
O5 O 0.0864(8) 0.9672(6) 0.0439(5)
H37 H 0.0174 1.0464 0.0394
H38 H 0.0684 0.9247 0.0059
loop_
_geom_bond_atom_site_label_1
_geom_bond_atom_site_label_2
_geom_bond_site_symmetry_1
_geom_bond_site_symmetry_2
N1 H1 1_555 1_555
H2 N1 1_555 1_555
C1 H3 1_555 1_555
H4 C1 1_555 1_555
H5 C1 1_555 1_555
C2 N1 1_555 1_555
H6 C2 1_555 1_555
C3 C2 1_555 1_555
H7 C3 1_555 1_555
H8 C3 1_555 1_555
H9 C3 1_555 1_555
C4 H10 1_555 1_555
H11 C4 1_555 1_555
H12 C4 1_555 1_555
C5 N1 1_555 1_555
H13 C5 1_555 1_555
C6 C5 1_555 1_555
H14 C6 1_555 1_555
H15 C6 1_555 1_555
H16 C6 1_555 1_555
N2 H17 1_555 1_555
H18 N2 1_555 1_555
C7 H19 1_555 1_555
H20 C7 1_555 1_555
H21 C7 1_555 1_555
C8 N2 1_555 1_555
H22 C8 1_555 1_555
C9 C8 1_555 1_555
H23 C9 1_555 1_555
H24 C9 1_555 1_555
H25 C9 1_555 1_555
C10 H26 1_555 1_555
H27 C10 1_555 1_555
H28 C10 1_555 1_555
C11 N2 1_555 1_555
H29 C11 1_555 1_555
C12 C11 1_555 1_555
H30 C12 1_555 1_555
H31 C12 1_555 1_555
H32 C12 1_555 1_555
O1 C13 1_555 1_555
O2 C13 1_555 1_555
O3 C14 1_555 1_555
O4 C14 1_555 1_555
C13 C15 1_555 1_555
C14 C17 1_555 1_555
C15 C16 1_555 1_555
C16 H33 1_555 1_555
C17 C16 1_555 1_555
C18 C17 1_555 1_555
H34 C18 1_555 1_555
C19 C18 1_555 1_555
H35 C19 1_555 1_555
C20 C15 1_555 1_555
H36 C20 1_555 1_555
O5 H37 1_555 1_555
H38 O5 1_555 1_555
C1 C2 1_555 1_555
C4 C5 1_555 1_555
C7 C8 1_555 1_555
C10 C11 1_555 1_555
C19 C20 1_555 1_555

#END
