
#######################################################################
#
#                 Cambridge Crystallographic Data Centre
#                                CCDC 
#
#######################################################################
#
# If this CIF has been generated from an entry in the Cambridge 
# Structural Database, then it will include bibliographic, chemical, 
# crystal, experimental, refinement or atomic coordinate data resulting 
# from the CCDC's data processing and validation procedures.
#
#######################################################################

data_JAVFIY
_chemical_formula_moiety         '2(C6 H16 N1 1+),C6 H8 O8 2-'
_chemical_name_systematic        
'bis(N-isopropylpropan-2-aminium) 2,3,4,5-tetrahydroxyhexanedioate'
_symmetry_cell_setting           monoclinic
_symmetry_space_group_name_H-M   'P 21/n'
_symmetry_Int_Tables_number      14
_space_group_name_Hall           '-P 2yn'
loop_
_symmetry_equiv_pos_site_id
_symmetry_equiv_pos_as_xyz
1 x,y,z
2 1/2-x,1/2+y,1/2-z
3 -x,-y,-z
4 1/2+x,1/2-y,1/2+z
_cell_length_a                   5.2792(6)
_cell_length_b                   14.0763(14)
_cell_length_c                   15.4335(15)
_cell_angle_alpha                90
_cell_angle_beta                 91.3510(10)
_cell_angle_gamma                90
_cell_volume                     1146.57
_exptl_crystal_colour            colorless
_exptl_crystal_description       block
_cell_formula_units_Z            2
loop_
_atom_site_label
_atom_site_type_symbol
_atom_site_fract_x
_atom_site_fract_y
_atom_site_fract_z
N1 N 0.7693(12) 0.1982(4) 0.6831(3)
H1 H 0.6305 0.2329 0.6699
H2 H 0.9038 0.2300 0.6632
C1 C 0.7493(16) 0.1073(5) 0.6361(5)
H3 H 0.6062 0.0713 0.6587
C2 C 0.693(3) 0.1303(7) 0.5405(6)
H4 H 0.8074 0.1789 0.5217
H5 H 0.5220 0.1523 0.5336
H6 H 0.7161 0.0742 0.5061
C3 C 0.988(2) 0.0487(6) 0.6486(6)
H7 H 1.1252 0.0788 0.6194
H8 H 0.9611 -0.0137 0.6249
H9 H 1.0296 0.0437 0.7093
C4 C 0.7965(15) 0.1926(6) 0.7820(4)
H10 H 0.9380 0.1504 0.7977
C5 C 0.853(2) 0.2905(7) 0.8144(5)
H11 H 0.9896 0.3170 0.7824
H12 H 0.9003 0.2877 0.8748
H13 H 0.7050 0.3296 0.8069
C6 C 0.5577(16) 0.1536(8) 0.8179(6)
H14 H 0.4148 0.1853 0.7913
H15 H 0.5574 0.1638 0.8794
H16 H 0.5475 0.0868 0.8060
O1 O 0.7046(11) 0.7257(4) 0.3553(3)
O2 O 1.0117(10) 0.6497(4) 0.4256(4)
O3 O 0.4096(10) 0.5654(3) 0.3442(3)
H17 H 0.2931 0.5917 0.3689
O4 O 0.4449(9) 0.6236(3) 0.5314(3)
H18 H 0.3146 0.6348 0.5033
C7 C 0.7863(14) 0.6538(5) 0.3924(4)
C8 C 0.6304(12) 0.5650(5) 0.3995(4)
H19 H 0.7368 0.5124 0.3803
C9 C 0.5726(12) 0.5460(4) 0.4938(4)
H20 H 0.7355 0.5393 0.5250
O1B O 0.2954(11) 0.2743(4) 0.6447(3)
O2B O -0.0117(10) 0.3503(4) 0.5744(4)
O3B O 0.5904(10) 0.4346(3) 0.6558(3)
H17B H 0.7069 0.4083 0.6311
O4B O 0.5551(9) 0.3764(3) 0.4686(3)
H18B H 0.6854 0.3652 0.4967
C7B C 0.2137(14) 0.3462(5) 0.6076(4)
C8B C 0.3696(12) 0.4350(5) 0.6005(4)
H19B H 0.2632 0.4876 0.6197
C9B C 0.4274(12) 0.4540(4) 0.5062(4)
H20B H 0.2645 0.4607 0.4750
loop_
_geom_bond_atom_site_label_1
_geom_bond_atom_site_label_2
_geom_bond_site_symmetry_1
_geom_bond_site_symmetry_2
N1 H1 1_555 1_555
H2 N1 1_555 1_555
C1 N1 1_555 1_555
H3 C1 1_555 1_555
C2 C1 1_555 1_555
H4 C2 1_555 1_555
H5 C2 1_555 1_555
H6 C2 1_555 1_555
C3 C1 1_555 1_555
H7 C3 1_555 1_555
H8 C3 1_555 1_555
H9 C3 1_555 1_555
C4 N1 1_555 1_555
H10 C4 1_555 1_555
C5 C4 1_555 1_555
H11 C5 1_555 1_555
H12 C5 1_555 1_555
H13 C5 1_555 1_555
C6 C4 1_555 1_555
H14 C6 1_555 1_555
H15 C6 1_555 1_555
H16 C6 1_555 1_555
O1 C7 1_555 1_555
O2 C7 1_555 1_555
O3 H17 1_555 1_555
O4 H18 1_555 1_555
C7 C8 1_555 1_555
C8 O3 1_555 1_555
H19 C8 1_555 1_555
C9 O4 1_555 1_555
H20 C9 1_555 1_555
O1B C7B 1_555 1_555
O2B C7B 1_555 1_555
O3B H17B 1_555 1_555
O4B H18B 1_555 1_555
C7B C8B 1_555 1_555
C8B O3B 1_555 1_555
H19B C8B 1_555 1_555
C9B C9 1_555 1_555
H20B C9B 1_555 1_555
C8 C9 1_555 1_555
O4B C9B 1_555 1_555
C8B C9B 1_555 1_555

#END
