
#######################################################################
#
#                 Cambridge Crystallographic Data Centre
#                                CCDC 
#
#######################################################################
#
# If this CIF has been generated from an entry in the Cambridge 
# Structural Database, then it will include bibliographic, chemical, 
# crystal, experimental, refinement or atomic coordinate data resulting 
# from the CCDC's data processing and validation procedures.
#
#######################################################################

data_JAVGIZ
_chemical_formula_moiety         'C10 H10 N1 1+,C10 H9 N1,3(H2 O1),Cl1 1-'
_chemical_name_systematic        
'2-methylquinolinium chloride 2-methylquinoline trihydrate'
_symmetry_cell_setting           monoclinic
_symmetry_space_group_name_H-M   'P 21'
_symmetry_Int_Tables_number      4
_space_group_name_Hall           'P 2yb'
loop_
_symmetry_equiv_pos_site_id
_symmetry_equiv_pos_as_xyz
1 x,y,z
2 -x,1/2+y,-z
_cell_length_a                   7.2756(6)
_cell_length_b                   12.8605(11)
_cell_length_c                   10.9187(9)
_cell_angle_alpha                90
_cell_angle_beta                 103.284(2)
_cell_angle_gamma                90
_cell_volume                     994.303
_exptl_crystal_colour            colorless
_exptl_crystal_description       block
_cell_formula_units_Z            2
loop_
_atom_site_label
_atom_site_type_symbol
_atom_site_fract_x
_atom_site_fract_y
_atom_site_fract_z
Cl1 Cl 0.1203(3) 0.77157(19) 0.23756(18)
N1 N 0.4566(9) 0.1782(5) 0.1591(6)
C1 C 0.5137(13) -0.0059(6) 0.1452(7)
H1 H 0.4083 -0.0462 0.1573
H2 H 0.6282 -0.0448 0.1740
H3 H 0.4978 0.0098 0.0575
C2 C 0.5245(11) 0.0921(6) 0.2175(6)
C3 C 0.6133(12) 0.0915(6) 0.3492(7)
H4 H 0.6633 0.0300 0.3878
C4 C 0.6243(13) 0.1792(6) 0.4168(8)
H5 H 0.6808 0.1788 0.5024
C5 C 0.5497(10) 0.2719(7) 0.3571(6)
C6 C 0.4650(10) 0.2686(6) 0.2271(6)
C7 C 0.3931(13) 0.3610(6) 0.1653(9)
H6 H 0.3410 0.3598 0.0792
C8 C 0.3985(13) 0.4524(6) 0.2300(9)
H7 H 0.3469 0.5124 0.1883
C9 C 0.4817(15) 0.4557(7) 0.3589(9)
H8 H 0.4893 0.5187 0.4016
C10 C 0.5525(14) 0.3669(7) 0.4236(9)
H9 H 0.6017 0.3692 0.5100
N2 N 1.0214(9) 0.3303(5) 0.3396(5)
H10 H 1.0684 0.3315 0.4194
C11 C 0.9690(15) 0.5159(6) 0.3597(7)
H11 H 1.0046 0.4981 0.4473
H12 H 0.8496 0.5513 0.3424
H13 H 1.0632 0.5605 0.3389
C12 C 0.9526(12) 0.4193(6) 0.2825(7)
C13 C 0.8700(13) 0.4161(6) 0.1530(7)
H14 H 0.8208 0.4764 0.1110
C14 C 0.8620(13) 0.3255(7) 0.0894(8)
H15 H 0.8052 0.3245 0.0039
C15 C 0.9372(12) 0.2324(6) 0.1488(7)
C16 C 1.0205(12) 0.2387(5) 0.2780(7)
C17 C 1.0961(14) 0.1509(6) 0.3448(8)
H16 H 1.1500 0.1550 0.4306
C18 C 1.0899(13) 0.0576(7) 0.2821(9)
H17 H 1.1412 -0.0017 0.3256
C19 C 1.0077(14) 0.0515(6) 0.1543(10)
H18 H 1.0034 -0.0122 0.1135
C20 C 0.9340(14) 0.1362(7) 0.0882(9)
H19 H 0.8810 0.1308 0.0024
O1 O 0.2840(10) 0.1699(5) 0.8952(5)
H20 H 0.3214 0.1774 0.9744
H21 H 0.1774 0.1996 0.8711
O2 O 0.4478(10) 0.2161(5) 0.6979(5)
H22 H 0.4056 0.2028 0.7626
H23 H 0.5647 0.2304 0.7215
O3 O 0.1545(9) 0.3367(5) 0.5895(5)
H24 H 0.2531 0.3010 0.6192
H25 H 0.0733 0.3231 0.6321
loop_
_geom_bond_atom_site_label_1
_geom_bond_atom_site_label_2
_geom_bond_site_symmetry_1
_geom_bond_site_symmetry_2
N1 C2 1_555 1_555
C1 H1 1_555 1_555
H2 C1 1_555 1_555
H3 C1 1_555 1_555
C2 C1 1_555 1_555
C3 C2 1_555 1_555
H4 C3 1_555 1_555
C4 C3 1_555 1_555
H5 C4 1_555 1_555
C5 C4 1_555 1_555
C6 N1 1_555 1_555
C7 C6 1_555 1_555
H6 C7 1_555 1_555
C8 C7 1_555 1_555
H7 C8 1_555 1_555
C9 C8 1_555 1_555
H8 C9 1_555 1_555
C10 C5 1_555 1_555
H9 C10 1_555 1_555
N2 H10 1_555 1_555
C11 H11 1_555 1_555
H12 C11 1_555 1_555
H13 C11 1_555 1_555
C12 N2 1_555 1_555
C13 C12 1_555 1_555
H14 C13 1_555 1_555
C14 C13 1_555 1_555
H15 C14 1_555 1_555
C15 C14 1_555 1_555
C16 N2 1_555 1_555
C17 C16 1_555 1_555
H16 C17 1_555 1_555
C18 C17 1_555 1_555
H17 C18 1_555 1_555
C19 C18 1_555 1_555
H18 C19 1_555 1_555
C20 C15 1_555 1_555
H19 C20 1_555 1_555
O1 H20 1_555 1_555
H21 O1 1_555 1_555
O2 H22 1_555 1_555
H23 O2 1_555 1_555
O3 H24 1_555 1_555
H25 O3 1_555 1_555
C5 C6 1_555 1_555
C9 C10 1_555 1_555
C11 C12 1_555 1_555
C15 C16 1_555 1_555
C19 C20 1_555 1_555

#END
