
#######################################################################
#
#                 Cambridge Crystallographic Data Centre
#                                CCDC 
#
#######################################################################
#
# If this CIF has been generated from an entry in the Cambridge 
# Structural Database, then it will include bibliographic, chemical, 
# crystal, experimental, refinement or atomic coordinate data resulting 
# from the CCDC's data processing and validation procedures.
#
#######################################################################

data_JAVPEE
_chemical_formula_moiety         'C6 H16 N1 1+,C8 H6 Cl1 O3 1-'
_chemical_name_systematic        
'N,N-diisopropylammonium (4-chlorophenoxy)acetate'
_symmetry_cell_setting           triclinic
_symmetry_space_group_name_H-M   'P -1'
_symmetry_Int_Tables_number      2
_space_group_name_Hall           '-P 1'
loop_
_symmetry_equiv_pos_site_id
_symmetry_equiv_pos_as_xyz
1 x,y,z
2 -x,-y,-z
_cell_length_a                   7.3091(4)
_cell_length_b                   8.9292(7)
_cell_length_c                   12.8834(9)
_cell_angle_alpha                75.1020(10)
_cell_angle_beta                 77.8480(10)
_cell_angle_gamma                82.286(2)
_cell_volume                     791.495
_exptl_crystal_colour            colorless
_exptl_crystal_description       block
_cell_formula_units_Z            2
loop_
_atom_site_label
_atom_site_type_symbol
_atom_site_fract_x
_atom_site_fract_y
_atom_site_fract_z
Cl1 Cl 0.92873(13) 0.81258(11) -0.06772(7)
O1 O 0.3534(3) 0.49230(19) 0.38166(14)
O2 O 0.3562(3) 0.23730(19) 0.41800(14)
O3 O 0.2456(3) 0.5253(2) 0.18443(14)
C1 C 0.3284(3) 0.3708(3) 0.36121(18)
C2 C 0.2530(4) 0.3778(3) 0.2587(2)
H1 H 0.3307 0.3045 0.2206
H2 H 0.1272 0.3434 0.2806
C3 C 0.4123(4) 0.5833(3) 0.12837(19)
C4 C 0.3970(4) 0.7284(3) 0.0574(2)
H3 H 0.2789 0.7792 0.0506
C5 C 0.5554(5) 0.7979(3) -0.0032(2)
H4 H 0.5445 0.8952 -0.0507
C6 C 0.7289(4) 0.7228(3) 0.0070(2)
C7 C 0.7452(4) 0.5783(3) 0.0757(2)
H5 H 0.8636 0.5275 0.0815
C8 C 0.5875(4) 0.5078(3) 0.13626(19)
H6 H 0.5995 0.4095 0.1824
N1 N 0.5097(2) 0.24770(19) 0.59339(14)
H7 H 0.5441 0.3416 0.5913
H8 H 0.4585 0.2583 0.5339
C9 C 0.3590(3) 0.2066(3) 0.69156(19)
H9 H 0.4088 0.2056 0.7567
C10 C 0.2985(4) 0.0467(3) 0.7025(3)
H10 H 0.2519 0.0456 0.6384
H11 H 0.2013 0.0224 0.7656
H12 H 0.4041 -0.0291 0.7103
C11 C 0.1988(4) 0.3318(3) 0.6808(2)
H13 H 0.2430 0.4305 0.6754
H14 H 0.1010 0.3090 0.7439
H15 H 0.1504 0.3355 0.6164
C12 C 0.6845(3) 0.1400(3) 0.58266(19)
H16 H 0.6520 0.0423 0.5726
C13 C 0.8178(4) 0.2154(3) 0.4813(2)
H17 H 0.7586 0.2344 0.4188
H18 H 0.9302 0.1474 0.4712
H19 H 0.8491 0.3121 0.4897
C14 C 0.7706(4) 0.1049(3) 0.6840(2)
H20 H 0.7945 0.2005 0.6978
H21 H 0.8866 0.0413 0.6733
H22 H 0.6856 0.0507 0.7453
loop_
_geom_bond_atom_site_label_1
_geom_bond_atom_site_label_2
_geom_bond_site_symmetry_1
_geom_bond_site_symmetry_2
Cl1 C6 1_555 1_555
O1 C1 1_555 1_555
O2 C1 1_555 1_555
O3 C2 1_555 1_555
C1 C2 1_555 1_555
C2 H1 1_555 1_555
H2 C2 1_555 1_555
C3 O3 1_555 1_555
C4 C3 1_555 1_555
H3 C4 1_555 1_555
C5 C4 1_555 1_555
H4 C5 1_555 1_555
C6 C5 1_555 1_555
C7 C6 1_555 1_555
H5 C7 1_555 1_555
C8 C3 1_555 1_555
H6 C8 1_555 1_555
N1 H7 1_555 1_555
H8 N1 1_555 1_555
C9 N1 1_555 1_555
H9 C9 1_555 1_555
C10 C9 1_555 1_555
H10 C10 1_555 1_555
H11 C10 1_555 1_555
H12 C10 1_555 1_555
C11 C9 1_555 1_555
H13 C11 1_555 1_555
H14 C11 1_555 1_555
H15 C11 1_555 1_555
C12 N1 1_555 1_555
H16 C12 1_555 1_555
C13 C12 1_555 1_555
H17 C13 1_555 1_555
H18 C13 1_555 1_555
H19 C13 1_555 1_555
C14 C12 1_555 1_555
H20 C14 1_555 1_555
H21 C14 1_555 1_555
H22 C14 1_555 1_555
C7 C8 1_555 1_555

#END
