
#######################################################################
#
#                 Cambridge Crystallographic Data Centre
#                                CCDC 
#
#######################################################################
#
# If this CIF has been generated from an entry in the Cambridge 
# Structural Database, then it will include bibliographic, chemical, 
# crystal, experimental, refinement or atomic coordinate data resulting 
# from the CCDC's data processing and validation procedures.
#
#######################################################################

data_JAWFIX
_chemical_formula_moiety         'C48 H48 Br8 O4'
_chemical_name_systematic        
5,11,17,23-tetrakis(2,2-Dibromoethenyl)-2,5,26,27,28-tetra-n-propoxycalix(4)arene
_symmetry_cell_setting           monoclinic
_symmetry_space_group_name_H-M   'C c'
_symmetry_Int_Tables_number      9
_space_group_name_Hall           'C -2yc'
loop_
_symmetry_equiv_pos_site_id
_symmetry_equiv_pos_as_xyz
1 x,y,z
2 x,-y,1/2+z
3 1/2+x,1/2+y,z
4 1/2+x,1/2-y,1/2+z
_cell_length_a                   27.182(2)
_cell_length_b                   13.5077(9)
_cell_length_c                   18.2592(16)
_cell_angle_alpha                90
_cell_angle_beta                 131.342(13)
_cell_angle_gamma                90
_cell_volume                     5033.35
_exptl_crystal_colour            colorless
_exptl_crystal_description       needle
_chemical_melting_point          237-239deg.C
_cell_formula_units_Z            4
loop_
_atom_site_label
_atom_site_type_symbol
_atom_site_fract_x
_atom_site_fract_y
_atom_site_fract_z
Br1 Br 0.76973(10) 0.2182(2) 0.20555(17)
Br2 Br 0.72702(15) 0.1746(2) 0.3245(2)
Br3 Br 0.54170(10) 0.19139(19) 0.11330(15)
Br4 Br 0.43545(14) 0.35949(18) 0.0066(2)
Br5 Br 0.17385(11) 0.2208(2) 0.08867(17)
Br6 Br 0.21896(14) 0.1767(2) -0.0264(2)
Br7 Br 0.40200(10) 0.19181(18) 0.18108(15)
Br8 Br 0.50856(15) 0.35832(17) 0.2878(2)
O1 O 0.5480(5) -0.2398(6) 0.1719(8)
O2 O 0.3876(5) -0.2589(8) -0.0584(7)
O3 O 0.3989(5) -0.2360(8) 0.1257(9)
O4 O 0.5595(5) -0.2527(9) 0.3559(7)
C1 C 0.6321(7) -0.1359(11) 0.2534(9)
C2 C 0.6745(7) -0.0631(12) 0.2637(10)
H1 H 0.7111 -0.0397 0.3247
C3 C 0.6581(7) -0.0279(14) 0.1761(13)
C4 C 0.6082(7) -0.0658(11) 0.0928(9)
H2 H 0.5998 -0.0454 0.0368
C5 C 0.5655(7) -0.1374(10) 0.0832(9)
C6 C 0.5823(6) -0.1670(9) 0.1650(10)
C7 C 0.5024(7) -0.1665(11) -0.0080(11)
H3 H 0.4941 -0.2349 -0.0028
H4 H 0.5041 -0.1631 -0.0593
C8 C 0.6994(7) 0.0493(12) 0.1737(11)
H5 H 0.7067 0.0357 0.1316
C9 C 0.7237(8) 0.1264(16) 0.2211(10)
C10 C 0.5439(5) -0.3383(7) 0.1403(8)
H6 H 0.5477 -0.3389 0.0910
H7 H 0.5027 -0.3687 0.1135
C11 C 0.6007(7) -0.3919(11) 0.2309(10)
H8 H 0.6411 -0.3630 0.2523
H9 H 0.5993 -0.3802 0.2820
C12 C 0.6031(11) -0.5019(13) 0.2204(18)
H10 H 0.5671 -0.5211 0.1542
H11 H 0.6000 -0.5359 0.2634
H12 H 0.6437 -0.5189 0.2368
C13 C 0.4435(6) -0.1010(11) -0.0382(8)
C14 C 0.4476(6) 0.0006(10) -0.0188(9)
H13 H 0.4839 0.0343 -0.0010
C15 C 0.4028(8) 0.0543(12) -0.0237(9)
C16 C 0.3534(7) -0.0035(13) -0.0378(10)
H14 H 0.3226 0.0296 -0.0395
C17 C 0.3477(7) -0.1035(9) -0.0492(9)
C18 C 0.3926(7) -0.1560(12) -0.0469(9)
C19 C 0.2949(6) -0.1525(14) -0.0522(12)
H15 H 0.2518 -0.1343 -0.1124
H16 H 0.2989 -0.2239 -0.0515
C20 C 0.4059(7) 0.1599(11) -0.0202(10)
H17 H 0.3654 0.1913 -0.0570
C21 C 0.4526(10) 0.2154(11) 0.0230(14)
C22 C 0.3411(7) -0.2760(8) -0.1619(8)
H18 H 0.3542 -0.2383 -0.1918
H19 H 0.2985 -0.2521 -0.1883
C23 C 0.3353(6) -0.3823(8) -0.1882(11)
H20 H 0.3087 -0.3880 -0.2582
H21 H 0.3134 -0.4180 -0.1708
C24 C 0.4020(5) -0.4290(10) -0.1366(9)
H22 H 0.4217 -0.3988 -0.1594
H23 H 0.3967 -0.4987 -0.1502
H24 H 0.4297 -0.4189 -0.0675
C25 C 0.3012(6) -0.1235(12) 0.0262(10)
C26 C 0.2675(7) -0.0551(9) 0.0358(12)
H25 H 0.2297 -0.0278 -0.0216
C27 C 0.2840(8) -0.0243(12) 0.1200(11)
C28 C 0.3442(7) -0.0626(10) 0.2116(12)
H26 H 0.3599 -0.0381 0.2712
C29 C 0.3776(8) -0.1366(13) 0.2071(13)
C30 C 0.3563(8) -0.1720(12) 0.1156(10)
C31 C 0.4455(7) -0.1639(11) 0.3095(10)
H27 H 0.4472 -0.1416 0.3616
H28 H 0.4523 -0.2350 0.3152
C32 C 0.2518(9) 0.0552(17) 0.1243(15)
H29 H 0.2550 0.0528 0.1783
C33 C 0.2163(8) 0.1361(12) 0.0636(14)
C34 C 0.3655(10) -0.3300(12) 0.0908(17)
H30 H 0.3310 -0.3197 0.0212
H31 H 0.3433 -0.3328 0.1159
C37 C 0.369(2) -0.403(3) 0.155(3)
H37 H 0.3527 -0.3735 0.1843
H38 H 0.4135 -0.4245 0.2067
C38 C 0.325(4) -0.491(5) 0.091(6)
H39 H 0.3051 -0.5185 0.1137
H40 H 0.3520 -0.5411 0.0938
H41 H 0.2922 -0.4696 0.0245
C39 C 0.4968(6) -0.1121(9) 0.3147(7)
C40 C 0.4920(7) -0.0116(11) 0.3135(10)
H42 H 0.4571 0.0181 0.3035
C41 C 0.5409(7) 0.0467(11) 0.3279(11)
C42 C 0.5935(7) 0.0019(10) 0.3462(9)
H43 H 0.6252 0.0405 0.3543
C43 C 0.5995(7) -0.0948(14) 0.3523(10)
C44 C 0.5517(8) -0.1535(11) 0.3434(10)
C45 C 0.6497(7) -0.1518(11) 0.3561(9)
H44 H 0.6481 -0.2217 0.3667
H45 H 0.6935 -0.1275 0.4093
C46 C 0.5422(10) 0.1559(13) 0.3245(14)
H46 H 0.5843 0.1823 0.3661
C47 C 0.4915(8) 0.2296(11) 0.2696(12)
C48 C 0.5860(9) -0.2925(11) 0.4480(10)
H47 H 0.5618 -0.2677 0.4661
H48 H 0.6315 -0.2730 0.4979
C49 C 0.5806(9) -0.4057(10) 0.4387(12)
H49 H 0.5385 -0.4253 0.3773
H50 H 0.6151 -0.4330 0.4422
C50 C 0.5874(13) -0.4406(18) 0.5228(16)
H51 H 0.5824 -0.5112 0.5195
H52 H 0.5543 -0.4101 0.5200
H53 H 0.6300 -0.4230 0.5828
C35? C 0.3860(18) -0.4340(16) 0.098(3)
H32? H 0.4311 -0.4421 0.1584
H33? H 0.3844 -0.4478 0.0445
C36? C 0.342(4) -0.509(5) 0.096(6)
H34? H 0.3592 -0.5194 0.1612
H35? H 0.3426 -0.5712 0.0704
H36? H 0.2985 -0.4845 0.0557
loop_
_geom_bond_atom_site_label_1
_geom_bond_atom_site_label_2
_geom_bond_site_symmetry_1
_geom_bond_site_symmetry_2
Br1 C9 1_555 1_555
Br2 C9 1_555 1_555
Br3 C21 1_555 1_555
Br4 C21 1_555 1_555
Br5 C33 1_555 1_555
Br6 C33 1_555 1_555
Br7 C47 1_555 1_555
Br8 C47 1_555 1_555
O1 C6 1_555 1_555
O2 C18 1_555 1_555
O3 C30 1_555 1_555
O4 C44 1_555 1_555
C1 C2 1_555 1_555
C2 H1 1_555 1_555
C3 C2 1_555 1_555
C4 C3 1_555 1_555
H2 C4 1_555 1_555
C5 C4 1_555 1_555
C6 C1 1_555 1_555
C7 C5 1_555 1_555
H3 C7 1_555 1_555
H4 C7 1_555 1_555
C8 C3 1_555 1_555
H5 C8 1_555 1_555
C9 C8 1_555 1_555
C10 O1 1_555 1_555
H6 C10 1_555 1_555
H7 C10 1_555 1_555
C11 C10 1_555 1_555
H8 C11 1_555 1_555
H9 C11 1_555 1_555
C12 C11 1_555 1_555
H10 C12 1_555 1_555
H11 C12 1_555 1_555
H12 C12 1_555 1_555
C13 C7 1_555 1_555
C14 C13 1_555 1_555
H13 C14 1_555 1_555
C15 C14 1_555 1_555
C16 C15 1_555 1_555
H14 C16 1_555 1_555
C17 C16 1_555 1_555
C18 C13 1_555 1_555
C19 C17 1_555 1_555
H15 C19 1_555 1_555
H16 C19 1_555 1_555
C20 C15 1_555 1_555
H17 C20 1_555 1_555
C21 C20 1_555 1_555
C22 O2 1_555 1_555
H18 C22 1_555 1_555
H19 C22 1_555 1_555
C23 C22 1_555 1_555
H20 C23 1_555 1_555
H21 C23 1_555 1_555
C24 C23 1_555 1_555
H22 C24 1_555 1_555
H23 C24 1_555 1_555
H24 C24 1_555 1_555
C25 C19 1_555 1_555
C26 C25 1_555 1_555
H25 C26 1_555 1_555
C27 C26 1_555 1_555
C28 C27 1_555 1_555
H26 C28 1_555 1_555
C29 C28 1_555 1_555
C30 C25 1_555 1_555
C31 C29 1_555 1_555
H27 C31 1_555 1_555
H28 C31 1_555 1_555
C32 C27 1_555 1_555
H29 C32 1_555 1_555
C33 C32 1_555 1_555
C34 O3 1_555 1_555
H30 C34 1_555 1_555
H31 C34 1_555 1_555
C37 C34 1_555 1_555
H37 C37 1_555 1_555
H38 C37 1_555 1_555
C38 C37 1_555 1_555
H39 C38 1_555 1_555
H40 C38 1_555 1_555
H41 C38 1_555 1_555
C39 C31 1_555 1_555
C40 C39 1_555 1_555
H42 C40 1_555 1_555
C41 C40 1_555 1_555
C42 C41 1_555 1_555
H43 C42 1_555 1_555
C43 C42 1_555 1_555
C44 C39 1_555 1_555
C45 C1 1_555 1_555
H44 C45 1_555 1_555
H45 C45 1_555 1_555
C46 C41 1_555 1_555
H46 C46 1_555 1_555
C47 C46 1_555 1_555
C48 O4 1_555 1_555
H47 C48 1_555 1_555
H48 C48 1_555 1_555
C49 C48 1_555 1_555
H49 C49 1_555 1_555
H50 C49 1_555 1_555
C50 C49 1_555 1_555
H51 C50 1_555 1_555
H52 C50 1_555 1_555
H53 C50 1_555 1_555
C5 C6 1_555 1_555
C17 C18 1_555 1_555
C29 C30 1_555 1_555
C43 C44 1_555 1_555
C43 C45 1_555 1_555

#END
