
#######################################################################
#
#                 Cambridge Crystallographic Data Centre
#                                CCDC 
#
#######################################################################
#
# If this CIF has been generated from an entry in the Cambridge 
# Structural Database, then it will include bibliographic, chemical, 
# crystal, experimental, refinement or atomic coordinate data resulting 
# from the CCDC's data processing and validation procedures.
#
#######################################################################

data_JAWQUT08
_chemical_formula_moiety         'C10 H20 Ca1 N2 O11'
_chemical_name_systematic        (15-Crown-5)-bis(nitrato-O,O')-calcium
_symmetry_cell_setting           orthorhombic
_symmetry_space_group_name_H-M   'P b c a'
_symmetry_Int_Tables_number      61
_space_group_name_Hall           '-P 2ac 2ab'
loop_
_symmetry_equiv_pos_site_id
_symmetry_equiv_pos_as_xyz
1 x,y,z
2 1/2-x,-y,1/2+z
3 -x,1/2+y,1/2-z
4 1/2+x,1/2-y,-z
5 -x,-y,-z
6 1/2+x,y,1/2-z
7 x,1/2-y,1/2+z
8 1/2-x,1/2+y,z
_cell_length_a                   15.310(8)
_cell_length_b                   13.660(7)
_cell_length_c                   16.168(8)
_cell_angle_alpha                90
_cell_angle_beta                 90
_cell_angle_gamma                90
_cell_volume                     3381.29
_exptl_crystal_colour            colorless
_exptl_crystal_description       block
_cell_formula_units_Z            8
loop_
_atom_site_label
_atom_site_type_symbol
_atom_site_fract_x
_atom_site_fract_y
_atom_site_fract_z
Ca1 Ca 0.06858(4) 0.27454(4) 0.32390(4)
N1 N 0.1201(2) 0.4213(2) 0.20053(17)
O1 O -0.02235(19) 0.2699(2) 0.45977(16)
O2 O -0.09125(15) 0.2952(2) 0.30976(15)
O3 O 0.08167(17) 0.12136(17) 0.41020(17)
O4 O 0.00369(14) 0.18705(16) 0.20209(15)
O5 O 0.16325(14) 0.14029(16) 0.26360(18)
O6 O 0.04164(16) 0.41260(18) 0.21900(17)
O7 O 0.17044(16) 0.35859(18) 0.22996(19)
O8 O 0.1468(2) 0.4865(2) 0.15563(16)
O9 O 0.1006(3) 0.4269(2) 0.4031(2)
C1 C -0.1281(2) 0.2664(3) 0.2316(2)
H1 H -0.1178 0.3172 0.1909
H2 H -0.1908 0.2580 0.2374
C2 C -0.0887(2) 0.1742(3) 0.2032(3)
H3 H -0.1044 0.1212 0.2404
H4 H -0.1097 0.1581 0.1483
O10 O 0.1899(2) 0.3080(3) 0.4204(2)
C3 C 0.0502(3) 0.1086(3) 0.1634(3)
H5 H 0.0374 0.1070 0.1047
H6 H 0.0331 0.0465 0.1875
N2 N 0.1652(3) 0.3922(3) 0.4403(2)
C4 C 0.0579(4) 0.1316(3) 0.4954(3)
H7 H 0.1001 0.1724 0.5240
H8 H 0.0565 0.0680 0.5220
C5 C -0.0288(4) 0.1769(4) 0.4979(3)
H9 H -0.0707 0.1365 0.4687
H10 H -0.0481 0.1840 0.5548
C6 C 0.1447(3) 0.1262(3) 0.1771(3)
H11 H 0.1778 0.0707 0.1566
H12 H 0.1627 0.1838 0.1464
O11 O 0.2043(3) 0.4382(3) 0.4939(2)
C7 C 0.1628(3) 0.0725(3) 0.3972(4)
H13 H 0.1649 0.0126 0.4294
H14 H 0.2109 0.1141 0.4142
C8 C -0.1492(3) 0.2916(4) 0.3775(3)
H15 H -0.1719 0.2257 0.3839
H16 H -0.1980 0.3355 0.3680
C9 C 0.1699(3) 0.0498(3) 0.3086(3)
H17 H 0.2254 0.0185 0.2971
H18 H 0.1234 0.0057 0.2922
C10 C -0.1035(3) 0.3200(5) 0.4503(3)
H19 H -0.1399 0.3069 0.4981
H20 H -0.0926 0.3900 0.4484
loop_
_geom_bond_atom_site_label_1
_geom_bond_atom_site_label_2
_geom_bond_site_symmetry_1
_geom_bond_site_symmetry_2
Ca1 O1 1_555 1_555
N1 O6 1_555 1_555
O1 C5 1_555 1_555
O2 Ca1 1_555 1_555
O3 Ca1 1_555 1_555
O4 Ca1 1_555 1_555
O5 Ca1 1_555 1_555
O6 Ca1 1_555 1_555
O7 Ca1 1_555 1_555
O8 N1 1_555 1_555
O9 Ca1 1_555 1_555
C1 O2 1_555 1_555
H1 C1 1_555 1_555
H2 C1 1_555 1_555
C2 O4 1_555 1_555
H3 C2 1_555 1_555
H4 C2 1_555 1_555
O10 Ca1 1_555 1_555
C3 O4 1_555 1_555
H5 C3 1_555 1_555
H6 C3 1_555 1_555
N2 O9 1_555 1_555
C4 O3 1_555 1_555
H7 C4 1_555 1_555
H8 C4 1_555 1_555
C5 C4 1_555 1_555
H9 C5 1_555 1_555
H10 C5 1_555 1_555
C6 O5 1_555 1_555
H11 C6 1_555 1_555
H12 C6 1_555 1_555
O11 N2 1_555 1_555
C7 O3 1_555 1_555
H13 C7 1_555 1_555
H14 C7 1_555 1_555
C8 O2 1_555 1_555
H15 C8 1_555 1_555
H16 C8 1_555 1_555
C9 O5 1_555 1_555
H17 C9 1_555 1_555
H18 C9 1_555 1_555
C10 O1 1_555 1_555
H19 C10 1_555 1_555
H20 C10 1_555 1_555
N1 O7 1_555 1_555
C1 C2 1_555 1_555
O10 N2 1_555 1_555
C3 C6 1_555 1_555
C7 C9 1_555 1_555
C8 C10 1_555 1_555

#END
