
#######################################################################
#
#                 Cambridge Crystallographic Data Centre
#                                CCDC 
#
#######################################################################
#
# If this CIF has been generated from an entry in the Cambridge 
# Structural Database, then it will include bibliographic, chemical, 
# crystal, experimental, refinement or atomic coordinate data resulting 
# from the CCDC's data processing and validation procedures.
#
#######################################################################

data_JAWQUT06
_chemical_formula_moiety         'C10 H20 Ca1 N2 O11'
_chemical_name_systematic        (15-Crown-5)-bis(nitrato-O,O')-calcium
_symmetry_cell_setting           orthorhombic
_symmetry_space_group_name_H-M   'P b c a'
_symmetry_Int_Tables_number      61
_space_group_name_Hall           '-P 2ac 2ab'
loop_
_symmetry_equiv_pos_site_id
_symmetry_equiv_pos_as_xyz
1 x,y,z
2 1/2-x,-y,1/2+z
3 -x,1/2+y,1/2-z
4 1/2+x,1/2-y,-z
5 -x,-y,-z
6 1/2+x,y,1/2-z
7 x,1/2-y,1/2+z
8 1/2-x,1/2+y,z
_cell_length_a                   15.250(6)
_cell_length_b                   13.511(5)
_cell_length_c                   16.078(6)
_cell_angle_alpha                90
_cell_angle_beta                 90
_cell_angle_gamma                90
_cell_volume                     3312.76
_exptl_crystal_colour            colorless
_exptl_crystal_description       block
_cell_formula_units_Z            8
loop_
_atom_site_label
_atom_site_type_symbol
_atom_site_fract_x
_atom_site_fract_y
_atom_site_fract_z
Ca1 Ca 0.06729(4) 0.27479(5) 0.32390(4)
N1 N 0.1207(2) 0.4213(2) 0.19955(18)
O1 O -0.0219(2) 0.2738(2) 0.46091(17)
O2 O -0.09294(16) 0.2959(2) 0.30893(16)
O3 O 0.07862(17) 0.11958(18) 0.41161(17)
O4 O 0.00315(15) 0.18581(18) 0.20101(16)
O5 O 0.16328(16) 0.13874(17) 0.26482(18)
O6 O 0.04083(17) 0.41342(19) 0.21714(17)
O7 O 0.17148(17) 0.35834(19) 0.23125(19)
O8 O 0.1482(2) 0.4876(2) 0.15435(17)
O9 O 0.1008(2) 0.4296(2) 0.4016(2)
C1 C -0.1301(2) 0.2656(3) 0.2305(2)
H1 H -0.1197 0.3164 0.1890
H2 H -0.1930 0.2572 0.2364
C2 C -0.0899(2) 0.1713(3) 0.2033(3)
H3 H -0.1046 0.1187 0.2419
H4 H -0.1113 0.1532 0.1486
O10 O 0.1877(2) 0.3064(2) 0.4226(2)
C3 C 0.0505(3) 0.1060(3) 0.1631(3)
H5 H 0.0382 0.1033 0.1040
H6 H 0.0336 0.0434 0.1879
N2 N 0.1639(3) 0.3934(3) 0.4410(2)
C4 C 0.0558(4) 0.1315(3) 0.4976(3)
H7 H 0.0989 0.1724 0.5257
H8 H 0.0536 0.0676 0.5251
C5 C -0.0312(3) 0.1793(3) 0.4996(3)
H9 H -0.0737 0.1395 0.4697
H10 H -0.0510 0.1870 0.5565
C6 C 0.1459(3) 0.1252(3) 0.1776(3)
H11 H 0.1800 0.0699 0.1568
H12 H 0.1635 0.1841 0.1473
O11 O 0.2024(3) 0.4397(3) 0.4954(2)
C7 C 0.1600(3) 0.0694(3) 0.4001(3)
H13 H 0.1609 0.0086 0.4322
H14 H 0.2083 0.1108 0.4183
C8 C -0.1515(3) 0.2918(4) 0.3773(3)
H15 H -0.1719 0.2246 0.3857
H16 H -0.2019 0.3339 0.3672
C9 C 0.1680(3) 0.0472(3) 0.3100(3)
H17 H 0.2235 0.0146 0.2989
H18 H 0.1210 0.0035 0.2926
C10 C -0.1030(3) 0.3266(4) 0.4512(3)
H19 H -0.0909 0.3967 0.4457
H20 H -0.1388 0.3172 0.5004
loop_
_geom_bond_atom_site_label_1
_geom_bond_atom_site_label_2
_geom_bond_site_symmetry_1
_geom_bond_site_symmetry_2
Ca1 O1 1_555 1_555
N1 O6 1_555 1_555
O1 C5 1_555 1_555
O2 Ca1 1_555 1_555
O3 Ca1 1_555 1_555
O4 Ca1 1_555 1_555
O5 Ca1 1_555 1_555
O6 Ca1 1_555 1_555
O7 Ca1 1_555 1_555
O8 N1 1_555 1_555
O9 Ca1 1_555 1_555
C1 O2 1_555 1_555
H1 C1 1_555 1_555
H2 C1 1_555 1_555
C2 O4 1_555 1_555
H3 C2 1_555 1_555
H4 C2 1_555 1_555
O10 Ca1 1_555 1_555
C3 O4 1_555 1_555
H5 C3 1_555 1_555
H6 C3 1_555 1_555
N2 O9 1_555 1_555
C4 O3 1_555 1_555
H7 C4 1_555 1_555
H8 C4 1_555 1_555
C5 C4 1_555 1_555
H9 C5 1_555 1_555
H10 C5 1_555 1_555
C6 O5 1_555 1_555
H11 C6 1_555 1_555
H12 C6 1_555 1_555
O11 N2 1_555 1_555
C7 O3 1_555 1_555
H13 C7 1_555 1_555
H14 C7 1_555 1_555
C8 O2 1_555 1_555
H15 C8 1_555 1_555
H16 C8 1_555 1_555
C9 O5 1_555 1_555
H17 C9 1_555 1_555
H18 C9 1_555 1_555
C10 O1 1_555 1_555
H19 C10 1_555 1_555
H20 C10 1_555 1_555
N1 O7 1_555 1_555
C1 C2 1_555 1_555
O10 N2 1_555 1_555
C3 C6 1_555 1_555
C7 C9 1_555 1_555
C8 C10 1_555 1_555

#END
