
#######################################################################
#
#                 Cambridge Crystallographic Data Centre
#                                CCDC 
#
#######################################################################
#
# If this CIF has been generated from an entry in the Cambridge 
# Structural Database, then it will include bibliographic, chemical, 
# crystal, experimental, refinement or atomic coordinate data resulting 
# from the CCDC's data processing and validation procedures.
#
#######################################################################

data_JAWWOW
_chemical_formula_moiety         'C20 H17 N1 O2'
_chemical_name_systematic        
'ethyl 6-methyl-11H-benzo[a]carbazole-5-carboxylate'
_symmetry_cell_setting           monoclinic
_symmetry_space_group_name_H-M   'P 21/c'
_symmetry_Int_Tables_number      14
_space_group_name_Hall           '-P 2ybc'
loop_
_symmetry_equiv_pos_site_id
_symmetry_equiv_pos_as_xyz
1 x,y,z
2 -x,1/2+y,1/2-z
3 -x,-y,-z
4 x,1/2-y,1/2+z
_cell_length_a                   10.3910(4)
_cell_length_b                   17.2188(6)
_cell_length_c                   8.7009(3)
_cell_angle_alpha                90
_cell_angle_beta                 98.489(4)
_cell_angle_gamma                90
_cell_volume                     1539.71
_exptl_crystal_colour            yellow
_exptl_crystal_description       block
_cell_formula_units_Z            4
loop_
_atom_site_label
_atom_site_type_symbol
_atom_site_fract_x
_atom_site_fract_y
_atom_site_fract_z
N1 N 0.83904(12) 0.49177(7) 0.75296(13)
H1 H 0.8888 0.4999 0.8395
O1 O 0.90243(11) 0.57155(7) 0.06338(11)
O2 O 0.77211(10) 0.66855(6) 0.11022(11)
C1 C 0.84769(12) 0.52891(7) 0.61584(14)
C2 C 0.75024(12) 0.50157(8) 0.50057(15)
C3 C 0.57223(16) 0.39577(10) 0.5259(2)
H2 H 0.5270(19) 0.3983(10) 0.417(2)
C4 C 0.53270(19) 0.34393(12) 0.6299(3)
H3 H 0.456(2) 0.3114(12) 0.593(2)
C5 C 0.5951(2) 0.33952(11) 0.7823(3)
H4 H 0.5646(19) 0.3041(12) 0.858(2)
C6 C 0.69817(18) 0.38714(10) 0.8354(2)
H5 H 0.7420(16) 0.3858(9) 0.946(2)
C7 C 0.73809(14) 0.43942(8) 0.73036(17)
C8 C 0.67814(13) 0.44439(8) 0.57494(17)
C9 C 0.93997(13) 0.58582(7) 0.58762(15)
C10 C 1.03604(13) 0.61604(9) 0.70365(16)
H6 H 1.0400(15) 0.5974(9) 0.813(2)
C11 C 1.12223(15) 0.66988(9) 0.66690(18)
H7 H 1.1923(16) 0.6891(9) 0.7520(18)
C12 C 1.11742(15) 0.69551(9) 0.51440(18)
H8 H 1.1820(19) 0.7329(11) 0.488(2)
C13 C 1.02484(14) 0.66746(8) 0.39949(18)
H9 H 1.0248(14) 0.6858(9) 0.2933(19)
C14 C 0.93334(12) 0.61182(7) 0.43186(14)
C15 C 0.83566(13) 0.58090(7) 0.31375(15)
C16 C 0.74404(12) 0.52794(8) 0.34505(15)
C17 C 0.64230(17) 0.49644(11) 0.2207(2)
H10 H 0.6443(19) 0.5166(12) 0.118(3)
H11 H 0.556(2) 0.5035(13) 0.244(2)
H12 H 0.650(2) 0.4403(13) 0.212(2)
C18 C 0.84099(13) 0.60499(8) 0.15003(16)
C19 C 0.77015(18) 0.69785(11) -0.0485(2)
H13 H 0.8557(19) 0.6872(10) -0.079(2)
H14 H 0.7534(19) 0.7572(12) -0.031(2)
C20 C 0.6632(2) 0.66143(12) -0.1562(2)
H15 H 0.579(2) 0.6678(14) -0.120(3)
H16 H 0.682(2) 0.6037(14) -0.166(3)
H17 H 0.654(2) 0.6855(13) -0.262(3)
loop_
_geom_bond_atom_site_label_1
_geom_bond_atom_site_label_2
_geom_bond_site_symmetry_1
_geom_bond_site_symmetry_2
N1 H1 1_555 1_555
O1 C18 1_555 1_555
O2 C18 1_555 1_555
C1 N1 1_555 1_555
C2 C1 1_555 1_555
C3 H2 1_555 1_555
C4 C3 1_555 1_555
H3 C4 1_555 1_555
C5 C4 1_555 1_555
H4 C5 1_555 1_555
C6 C5 1_555 1_555
H5 C6 1_555 1_555
C7 N1 1_555 1_555
C8 C2 1_555 1_555
C9 C1 1_555 1_555
C10 C9 1_555 1_555
H6 C10 1_555 1_555
C11 C10 1_555 1_555
H7 C11 1_555 1_555
C12 C11 1_555 1_555
H8 C12 1_555 1_555
C13 C12 1_555 1_555
H9 C13 1_555 1_555
C14 C9 1_555 1_555
C15 C14 1_555 1_555
C16 C2 1_555 1_555
C17 C16 1_555 1_555
H10 C17 1_555 1_555
H11 C17 1_555 1_555
H12 C17 1_555 1_555
C18 C15 1_555 1_555
C19 O2 1_555 1_555
H13 C19 1_555 1_555
H14 C19 1_555 1_555
C20 C19 1_555 1_555
H15 C20 1_555 1_555
H16 C20 1_555 1_555
H17 C20 1_555 1_555
C3 C8 1_555 1_555
C6 C7 1_555 1_555
C7 C8 1_555 1_555
C13 C14 1_555 1_555
C15 C16 1_555 1_555

#END
