
#######################################################################
#
#                 Cambridge Crystallographic Data Centre
#                                CCDC 
#
#######################################################################
#
# If this CIF has been generated from an entry in the Cambridge 
# Structural Database, then it will include bibliographic, chemical, 
# crystal, experimental, refinement or atomic coordinate data resulting 
# from the CCDC's data processing and validation procedures.
#
#######################################################################

data_JAWZEM
_chemical_formula_moiety         'C6 H7 N4 O2 P1,0.5(H2 O1)'
_chemical_name_systematic        'bis(Imidazol-2-yl)phosphinic acid hemihydrate'
_symmetry_cell_setting           triclinic
_symmetry_space_group_name_H-M   'P -1'
_symmetry_Int_Tables_number      2
_space_group_name_Hall           '-P 1'
loop_
_symmetry_equiv_pos_site_id
_symmetry_equiv_pos_as_xyz
1 x,y,z
2 -x,-y,-z
_cell_length_a                   7.677(1)
_cell_length_b                   12.658(2)
_cell_length_c                   10.072(2)
_cell_angle_alpha                91.18(1)
_cell_angle_beta                 114.44(1)
_cell_angle_gamma                99.49(1)
_cell_volume                     874.547
_exptl_crystal_colour            white
_chemical_melting_point          230deg.C
_cell_formula_units_Z            4
loop_
_atom_site_label
_atom_site_type_symbol
_atom_site_fract_x
_atom_site_fract_y
_atom_site_fract_z
P1 P 0.5636(1) 0.5939(1) 0.2702(1)
O1 O 0.5890(3) 0.4979(2) 0.1981(2)
O2 O 0.7261(3) 0.6681(2) 0.3871(2)
N1 N 0.3538(4) 0.6147(2) 0.4355(3)
N2 N 0.2199(4) 0.4770(2) 0.2675(3)
N3 N 0.4154(4) 0.6603(2) -0.0184(3)
N4 N 0.4065(4) 0.7717(2) 0.1395(3)
C1 C 0.3739(4) 0.5565(2) 0.3307(3)
C2 C 0.1826(5) 0.5719(3) 0.4389(4)
C3 C 0.1014(5) 0.4872(3) 0.3356(4)
C4 C 0.4519(4) 0.6767(2) 0.1223(3)
C5 C 0.3416(5) 0.8162(3) 0.0086(3)
C6 C 0.3479(5) 0.7465(3) -0.0906(3)
H1 H -0.022 0.441 0.308
H2 H 0.136 0.600 0.505
H3 H 0.434 0.664 0.494
H4 H 0.292 0.881 -0.007
H5 H 0.316 0.750 -0.198
H6 H 0.427 0.604 -0.063
H7 H 0.418 0.797 0.227
P2 P 0.2683(1) 0.1298(1) 0.2413(1)
O3 O 0.4296(3) 0.2053(2) 0.3608(2)
O4 O 0.2969(3) 0.0258(2) 0.1914(2)
N5 N 0.0547(4) 0.1626(2) 0.4013(3)
N6 N -0.0880(4) 0.0268(2) 0.2284(3)
N7 N 0.1260(4) 0.1619(2) -0.0585(3)
N8 N 0.1679(4) 0.3067(2) 0.0751(3)
C7 C 0.0687(4) 0.1051(2) 0.2916(3)
C8 C -0.1153(5) 0.1190(3) 0.4078(3)
C9 C -0.2015(5) 0.0364(3) 0.3008(4)
C10 C 0.1828(4) 0.2029(2) 0.0798(3)
C11 C 0.1010(5) 0.3309(3) -0.0672(3)
C12 C 0.0746(5) 0.2412(3) -0.1500(3)
H8 H 0.122 0.091 -0.091
H9 H 0.082 0.403 -0.092
H10 H 0.035 0.233 -0.246
H11 H 0.135 0.217 0.457
H12 H -0.149 0.147 0.481
H13 H -0.321 -0.011 0.273
H14 H 0.196 0.362 0.155
O5 O 0.3717(5) 0.8631(2) 0.3693(3)
H15 H 0.500 0.891 0.405
H16 H 0.362 0.924 0.349
loop_
_geom_bond_atom_site_label_1
_geom_bond_atom_site_label_2
_geom_bond_site_symmetry_1
_geom_bond_site_symmetry_2
P1 O1 1_555 1_555
O2 P1 1_555 1_555
N1 C1 1_555 1_555
N2 C1 1_555 1_555
N3 C4 1_555 1_555
N4 C4 1_555 1_555
C1 P1 1_555 1_555
C2 N1 1_555 1_555
C3 N2 1_555 1_555
C4 P1 1_555 1_555
C5 N4 1_555 1_555
C6 N3 1_555 1_555
H1 C3 1_555 1_555
H2 C2 1_555 1_555
H3 N1 1_555 1_555
H4 C5 1_555 1_555
H5 C6 1_555 1_555
H6 N3 1_555 1_555
H7 N4 1_555 1_555
P2 O3 1_555 1_555
O4 P2 1_555 1_555
N5 C7 1_555 1_555
N6 C7 1_555 1_555
N7 C10 1_555 1_555
N8 C10 1_555 1_555
C7 P2 1_555 1_555
C8 N5 1_555 1_555
C9 N6 1_555 1_555
C10 P2 1_555 1_555
C11 N8 1_555 1_555
C12 N7 1_555 1_555
H8 N7 1_555 1_555
H9 C11 1_555 1_555
H10 C12 1_555 1_555
H11 N5 1_555 1_555
H12 C8 1_555 1_555
H13 C9 1_555 1_555
H14 N8 1_555 1_555
O5 H15 1_555 1_555
H16 O5 1_555 1_555
C2 C3 1_555 1_555
C5 C6 1_555 1_555
C8 C9 1_555 1_555
C11 C12 1_555 1_555

#END
