
#######################################################################
#
#                 Cambridge Crystallographic Data Centre
#                                CCDC 
#
#######################################################################
#
# If this CIF has been generated from an entry in the Cambridge 
# Structural Database, then it will include bibliographic, chemical, 
# crystal, experimental, refinement or atomic coordinate data resulting 
# from the CCDC's data processing and validation procedures.
#
#######################################################################

data_JAXBUI
_chemical_formula_moiety         'C10 H10 Cl1 N1 O3'
_chemical_name_systematic        'methyl 2-acetamido-5-chlorobenzoate'
_symmetry_cell_setting           orthorhombic
_symmetry_space_group_name_H-M   'I b a m'
_symmetry_Int_Tables_number      72
_space_group_name_Hall           '-I 2 2c'
loop_
_symmetry_equiv_pos_site_id
_symmetry_equiv_pos_as_xyz
1 x,y,z
2 -x,-y,z
3 1/2-x,1/2+y,-z
4 1/2+x,1/2-y,-z
5 1/2+x,1/2+y,1/2+z
6 1/2-x,1/2-y,1/2+z
7 -x,y,1/2-z
8 x,-y,1/2-z
9 -x,-y,-z
10 x,y,-z
11 1/2+x,1/2-y,z
12 1/2-x,1/2+y,z
13 1/2-x,1/2-y,1/2-z
14 1/2+x,1/2+y,1/2-z
15 x,-y,1/2+z
16 -x,y,1/2+z
_cell_length_a                   16.124(5)
_cell_length_b                   19.588(5)
_cell_length_c                   6.8155(18)
_cell_angle_alpha                90
_cell_angle_beta                 90
_cell_angle_gamma                90
_cell_volume                     2152.59
_exptl_crystal_colour            colorless
_exptl_crystal_description       block
_cell_formula_units_Z            8
loop_
_atom_site_label
_atom_site_type_symbol
_atom_site_fract_x
_atom_site_fract_y
_atom_site_fract_z
C1 C 1.08454(17) 0.12754(15) 0.0000
C2 C 0.99954(17) 0.12583(13) 0.0000
H1 H 0.9720 0.0841 0.0000
C3 C 0.95419(15) 0.18665(13) 0.0000
C4 C 0.99611(18) 0.24971(13) 0.0000
C5 C 1.08301(18) 0.24924(15) 0.0000
H2 H 1.1118 0.2904 0.0000
C6 C 1.12626(17) 0.18874(16) 0.0000
H3 H 1.1839 0.1892 0.0000
C7 C 0.9769(2) 0.37648(14) 0.0000
C8 C 0.9078(2) 0.42768(17) 0.0000
C9 C 0.86205(16) 0.18266(15) 0.0000
C10 C 0.74602(18) 0.1100(2) 0.0000
Cl1 Cl 1.13951(5) 0.05102(5) 0.0000
N1 N 0.95027(14) 0.31016(12) 0.0000
H4 H 0.8973 0.3049 0.0000
O1 O 0.81563(12) 0.23088(11) 0.0000
O2 O 1.04934(14) 0.39303(11) 0.0000
O3 O 0.83563(12) 0.11894(11) 0.0000
H5? H 0.7217 0.1395 -0.0967
H6? H 0.7329 0.0634 -0.0305
H7? H 0.7244 0.1212 0.1272
H8? H 0.9251 0.4679 0.0694
H9? H 0.8941 0.4395 -0.1328
H10? H 0.8601 0.4084 0.0633
loop_
_geom_bond_atom_site_label_1
_geom_bond_atom_site_label_2
_geom_bond_site_symmetry_1
_geom_bond_site_symmetry_2
C1 C2 1_555 1_555
C2 H1 1_555 1_555
C3 C2 1_555 1_555
C4 C3 1_555 1_555
C5 C4 1_555 1_555
H2 C5 1_555 1_555
C6 C1 1_555 1_555
H3 C6 1_555 1_555
C7 C8 1_555 1_555
C9 C3 1_555 1_555
C10 O3 1_555 1_555
Cl1 C1 1_555 1_555
N1 C4 1_555 1_555
H4 N1 1_555 1_555
O1 C9 1_555 1_555
O2 C7 1_555 1_555
O3 C9 1_555 1_555
C5 C6 1_555 1_555
C7 N1 1_555 1_555

#END
