
#######################################################################
#
#                 Cambridge Crystallographic Data Centre
#                                CCDC 
#
#######################################################################
#
# If this CIF has been generated from an entry in the Cambridge 
# Structural Database, then it will include bibliographic, chemical, 
# crystal, experimental, refinement or atomic coordinate data resulting 
# from the CCDC's data processing and validation procedures.
#
#######################################################################

data_JAXFAS
_chemical_formula_moiety         'C25 H21 N1 O4 Se1'
_chemical_name_systematic        
'diethyl 12-methyl-12H-[1]benzoselenopheno[2,3-a]carbazole-5,6-dicarboxylate'
_symmetry_cell_setting           triclinic
_symmetry_space_group_name_H-M   'P -1'
_symmetry_Int_Tables_number      2
_space_group_name_Hall           '-P 1'
loop_
_symmetry_equiv_pos_site_id
_symmetry_equiv_pos_as_xyz
1 x,y,z
2 -x,-y,-z
_cell_length_a                   7.849(2)
_cell_length_b                   10.384(2)
_cell_length_c                   13.504(3)
_cell_angle_alpha                79.53(3)
_cell_angle_beta                 82.82(3)
_cell_angle_gamma                80.13(3)
_cell_volume                     1061.27
_exptl_crystal_colour            yellow
_exptl_crystal_description       prism
_cell_formula_units_Z            2
loop_
_atom_site_label
_atom_site_type_symbol
_atom_site_fract_x
_atom_site_fract_y
_atom_site_fract_z
C1 C 0.3838(5) 0.8246(4) 0.6636(4)
C2 C 0.2809(6) 0.9364(5) 0.6893(5)
H1 H 0.2528 1.0107 0.6396
C3 C 0.2198(7) 0.9382(5) 0.7886(5)
H2 H 0.1488 1.0141 0.8076
C4 C 0.2625(7) 0.8280(5) 0.8612(4)
H3 H 0.2214 0.8306 0.9293
C5 C 0.3630(6) 0.7158(5) 0.8355(4)
H4 H 0.3910 0.6423 0.8858
C6 C 0.4241(5) 0.7103(4) 0.7352(3)
C7 C 0.5310(5) 0.6029(4) 0.6911(3)
C8 C 0.5799(5) 0.6377(4) 0.5885(3)
C9 C 0.5900(5) 0.4726(4) 0.7411(3)
C10 C 0.5300(6) 0.4227(5) 0.8477(4)
C11 C 0.2905(8) 0.3621(7) 0.9601(4)
H5 H 0.2824 0.4273 1.0053
H6 H 0.3650 0.2811 0.9878
C12 C 0.1152(10) 0.3332(10) 0.9501(6)
H7 H 0.0623 0.2984 1.0162
H8 H 0.1254 0.2683 0.9055
H9 H 0.0434 0.4140 0.9221
C13 C 0.7027(5) 0.3861(4) 0.6887(3)
C14 C 0.7681(6) 0.2510(5) 0.7421(4)
C15 C 0.7541(5) 0.4221(4) 0.5866(3)
C16 C 0.6893(5) 0.5494(4) 0.5359(3)
C17 C 0.8594(5) 0.4416(5) 0.4202(4)
C18 C 0.9488(6) 0.4067(6) 0.3317(4)
H10 H 0.9465 0.4663 0.2704
C19 C 1.0407(7) 0.2815(6) 0.3375(5)
H11 H 1.1036 0.2551 0.2787
C20 C 1.0438(6) 0.1923(6) 0.4275(5)
H12 H 1.1077 0.1069 0.4282
C21 C 0.9556(6) 0.2267(5) 0.5152(4)
H13 H 0.9587 0.1660 0.5760
C22 C 0.8613(5) 0.3534(4) 0.5122(4)
O1 O 0.6237(5) 0.3909(4) 0.9149(3)
O2 O 0.3613(4) 0.4147(3) 0.8585(2)
O3 O 0.9145(5) 0.2096(3) 0.7581(3)
Se1 Se 0.48546(7) 0.81300(6) 0.53317(5)
N1 N 0.7548(5) 0.5602(5) 0.4346(4)
C23 C 0.7264(7) 0.6744(6) 0.3578(4)
H14 H 0.6481 0.7443 0.3861
H15 H 0.6754 0.6514 0.3027
H16 H 0.8363 0.7047 0.3325
O4 O 0.6516(9) 0.1674(7) 0.7434(6)
C24 C 0.7038(19) 0.0293(15) 0.7865(11)
H17 H 0.6345 -0.0267 0.7624
H18 H 0.8264 0.0015 0.7647
C25 C 0.679(3) 0.014(3) 0.8910(18)
H19 H 0.7155 -0.0776 0.9195
H20 H 0.5575 0.0402 0.9122
H21 H 0.7482 0.0699 0.9144
Se2? Se 0.7356(7) 0.6007(7) 0.3960(5)
N2? N 0.458(6) 0.763(3) 0.574(4)
C26? C 0.463(6) 0.845(5) 0.461(4)
H22? H 0.5173 0.7870 0.4139
H23? H 0.5292 0.9171 0.4566
H24? H 0.3454 0.8810 0.4452
O5? O 0.6267(8) 0.1914(6) 0.7925(5)
C27? C 0.662(2) 0.0610(16) 0.8580(14)
H25? H 0.7606 0.0597 0.8966
H26? H 0.5607 0.0457 0.9060
C28? C 0.703(2) -0.0422(16) 0.7960(12)
H27? H 0.7251 -0.1277 0.8390
H28? H 0.8051 -0.0277 0.7496
H29? H 0.6054 -0.0405 0.7579
loop_
_geom_bond_atom_site_label_1
_geom_bond_atom_site_label_2
_geom_bond_site_symmetry_1
_geom_bond_site_symmetry_2
C1 C2 1_555 1_555
C2 H1 1_555 1_555
C3 C2 1_555 1_555
H2 C3 1_555 1_555
C4 C3 1_555 1_555
H3 C4 1_555 1_555
C5 C4 1_555 1_555
H4 C5 1_555 1_555
C6 C1 1_555 1_555
C7 C6 1_555 1_555
C8 C7 1_555 1_555
C9 C7 1_555 1_555
C10 C9 1_555 1_555
C11 H5 1_555 1_555
H6 C11 1_555 1_555
C12 C11 1_555 1_555
H7 C12 1_555 1_555
H8 C12 1_555 1_555
H9 C12 1_555 1_555
C13 C9 1_555 1_555
C14 C13 1_555 1_555
C15 C13 1_555 1_555
C16 C8 1_555 1_555
C17 C18 1_555 1_555
C18 H10 1_555 1_555
C19 C18 1_555 1_555
H11 C19 1_555 1_555
C20 C19 1_555 1_555
H12 C20 1_555 1_555
C21 C20 1_555 1_555
H13 C21 1_555 1_555
C22 C15 1_555 1_555
O1 C10 1_555 1_555
O2 C10 1_555 1_555
O3 C14 1_555 1_555
Se1 C1 1_555 1_555
N1 C16 1_555 1_555
C23 N1 1_555 1_555
H14 C23 1_555 1_555
H15 C23 1_555 1_555
H16 C23 1_555 1_555
O4 C14 1_555 1_555
C24 O4 1_555 1_555
H17 C24 1_555 1_555
H18 C24 1_555 1_555
C25 C24 1_555 1_555
H19 C25 1_555 1_555
H20 C25 1_555 1_555
H21 C25 1_555 1_555
C5 C6 1_555 1_555
C8 Se1 1_555 1_555
C11 O2 1_555 1_555
C15 C16 1_555 1_555
C17 C22 1_555 1_555
C17 N1 1_555 1_555
C21 C22 1_555 1_555

#END
