
#######################################################################
#
#                 Cambridge Crystallographic Data Centre
#                                CCDC 
#
#######################################################################
#
# If this CIF has been generated from an entry in the Cambridge 
# Structural Database, then it will include bibliographic, chemical, 
# crystal, experimental, refinement or atomic coordinate data resulting 
# from the CCDC's data processing and validation procedures.
#
#######################################################################

data_JAXGAT
_chemical_formula_moiety         '2(C16 H32 Li1 O4 1+),C86 H122 Mg2 O6 2-'
_chemical_name_systematic        
"bis(tetrakis(tetrahydrofuran)-lithium) bis(\m-2,2',2''-methanetriyltris(4,6-di-t-butylphenolato))-di-magnesium(ii)"
_symmetry_cell_setting           monoclinic
_symmetry_space_group_name_H-M   'P 21/n'
_symmetry_Int_Tables_number      14
_space_group_name_Hall           '-P 2yn'
loop_
_symmetry_equiv_pos_site_id
_symmetry_equiv_pos_as_xyz
1 x,y,z
2 1/2-x,1/2+y,1/2-z
3 -x,-y,-z
4 1/2+x,1/2-y,1/2+z
_cell_length_a                   13.6185(4)
_cell_length_b                   22.6439(18)
_cell_length_c                   18.5341(6)
_cell_angle_alpha                90
_cell_angle_beta                 90.811(3)
_cell_angle_gamma                90
_cell_volume                     5714.9
_exptl_crystal_colour            colorless
_exptl_crystal_description       block
_cell_formula_units_Z            2
loop_
_atom_site_label
_atom_site_type_symbol
_atom_site_fract_x
_atom_site_fract_y
_atom_site_fract_z
C1 C 0.44853(15) 0.87990(10) 0.57566(10)
C2 C 0.39975(16) 0.90539(10) 0.51568(11)
C3 C 0.62990(16) 0.86092(10) 0.58242(11)
C4 C 0.48446(16) 0.97550(10) 0.69623(11)
C5 C 0.55041(16) 0.92857(10) 0.67975(10)
C6 C 0.31307(16) 0.88020(10) 0.48672(11)
C7 C 0.68412(16) 0.87114(10) 0.51879(11)
C8 C 0.54795(15) 0.90425(10) 0.60218(11)
H1 H 0.5595 0.9389 0.5717
C9 C 0.40800(16) 0.82942(10) 0.60705(11)
H2 H 0.4389 0.8130 0.6474
C10 C 0.62079(16) 0.91223(11) 0.73083(11)
H3 H 0.6669 0.8838 0.7185
C11 C 0.26051(17) 0.90666(11) 0.42000(11)
C12 C 0.64954(17) 0.81067(11) 0.62311(11)
H4 H 0.6101 0.8029 0.6625
C13 C 0.83216(16) 0.84588(11) 0.43869(12)
C14 C 0.27818(16) 0.82944(10) 0.52025(11)
H5 H 0.2213 0.8121 0.5016
C15 C 0.32317(17) 0.80296(10) 0.58002(11)
C16 C 0.76638(16) 0.83422(10) 0.50446(11)
C17 C 0.72462(17) 0.77159(11) 0.60822(11)
C18 C 0.41599(17) 1.05073(11) 0.78728(11)
C19 C 0.48607(16) 0.99987(10) 0.76694(11)
C20 C 0.78393(16) 0.78616(11) 0.54998(11)
H6 H 0.8382 0.7625 0.5410
C21 C 0.27898(18) 0.74571(11) 0.61067(12)
C22 C 0.62541(16) 0.93650(11) 0.79964(12)
C23 C 0.55636(17) 0.97928(11) 0.81606(12)
H7 H 0.5571 0.9951 0.8624
C24 C 0.74578(18) 0.71642(11) 0.65421(12)
C25 C 0.8408(2) 0.72517(15) 0.69722(16)
H8 H 0.8543 0.6905 0.7254
H9 H 0.8341 0.7586 0.7287
H10 H 0.8938 0.7320 0.6647
C26 C 0.7192(3) 0.85111(16) 0.85394(17)
H11 H 0.7708 0.8405 0.8873
H12 H 0.7354 0.8375 0.8065
H13 H 0.6588 0.8332 0.8686
C27 C 0.6866(2) 0.93678(18) 0.93004(14)
H14 H 0.7387 0.9232 0.9613
H15 H 0.6256 0.9198 0.9449
H16 H 0.6824 0.9790 0.9327
C28 C 0.8032(2) 0.94579(19) 0.82828(18)
H17 H 0.7976 0.9880 0.8293
H18 H 0.8167 0.9331 0.7800
H19 H 0.8557 0.9336 0.8600
C29 C 0.7558(3) 0.66158(13) 0.60625(16)
H20 H 0.8119 0.6660 0.5759
H21 H 0.6977 0.6572 0.5768
H22 H 0.7640 0.6272 0.6361
C30 C 0.86788(18) 0.90987(11) 0.43636(13)
H23 H 0.9112 0.9149 0.3964
H24 H 0.9023 0.9191 0.4805
H25 H 0.8125 0.9358 0.4307
C31 C 0.17009(18) 0.87032(12) 0.39790(13)
H26 H 0.1250 0.8691 0.4372
H27 H 0.1900 0.8309 0.3860
H28 H 0.1387 0.8882 0.3567
C32 C 0.92361(17) 0.80626(12) 0.43914(13)
H29 H 0.9628 0.8152 0.3979
H30 H 0.9038 0.7656 0.4374
H31 H 0.9614 0.8132 0.4824
C33 C 0.22469(19) 0.96932(12) 0.43508(13)
H32 H 0.1820 0.9689 0.4759
H33 H 0.1895 0.9840 0.3936
H34 H 0.2800 0.9944 0.4452
C34 C 0.32951(18) 0.90733(12) 0.35515(11)
H35 H 0.2946 0.9216 0.3133
H36 H 0.3528 0.8680 0.3462
H37 H 0.3843 0.9328 0.3654
C35 C 0.70742(18) 0.91836(13) 0.85285(12)
C36 C 0.30853(18) 1.03454(12) 0.77105(13)
H38 H 0.2898 1.0017 0.8006
H39 H 0.3013 1.0240 0.7211
H40 H 0.2673 1.0678 0.7813
C37 C 0.44292(19) 1.10648(11) 0.74497(13)
H41 H 0.4003 1.1382 0.7585
H42 H 0.4355 1.0990 0.6942
H43 H 0.5098 1.1171 0.7557
C38 C 0.2683(2) 0.69991(12) 0.54984(14)
H44 H 0.3315 0.6922 0.5296
H45 H 0.2248 0.7150 0.5130
H46 H 0.2419 0.6640 0.5690
C39 C 0.17617(19) 0.75797(12) 0.64056(14)
H47 H 0.1481 0.7218 0.6577
H48 H 0.1350 0.7741 0.6030
H49 H 0.1813 0.7857 0.6797
C40 C 0.3430(2) 0.71873(12) 0.67013(14)
H50 H 0.4069 0.7102 0.6516
H51 H 0.3133 0.6829 0.6868
H52 H 0.3490 0.7461 0.7095
C41 C 0.4233(2) 1.06616(13) 0.86792(13)
H53 H 0.4885 1.0798 0.8793
H54 H 0.4092 1.0317 0.8961
H55 H 0.3768 1.0966 0.8788
C42 C 0.77385(19) 0.83204(13) 0.36928(12)
H56 H 0.7155 0.8558 0.3674
H57 H 0.7560 0.7910 0.3688
H58 H 0.8135 0.8406 0.3282
C43 C 0.6634(2) 0.70310(14) 0.70703(16)
H59 H 0.6778 0.6671 0.7323
H60 H 0.6024 0.6990 0.6809
H61 H 0.6582 0.7349 0.7410
Mg1 Mg 0.56849(5) 0.97310(3) 0.44884(4)
O1 O 0.43576(10) 0.95620(7) 0.48655(7)
O2 O 0.42476(11) 0.99719(7) 0.64574(7)
O3 O 0.65886(11) 0.91317(7) 0.47250(7)
C1B C 0.55147(15) 1.12010(10) 0.42434(10)
C2B C 0.60025(16) 1.09461(10) 0.48432(11)
C3B C 0.37010(16) 1.13908(10) 0.41758(11)
C4B C 0.51554(16) 1.02450(10) 0.30377(11)
C5B C 0.44959(16) 1.07143(10) 0.32025(10)
C6B C 0.68693(16) 1.11980(10) 0.51328(11)
C7B C 0.31588(16) 1.12886(10) 0.48121(11)
C8B C 0.45205(15) 1.09575(10) 0.39782(11)
H1B H 0.4405 1.0611 0.4283
C9B C 0.59200(16) 1.17058(10) 0.39295(11)
H2B H 0.5611 1.1870 0.3526
C10B C 0.37921(16) 1.08777(11) 0.26917(11)
H3B H 0.3331 1.1162 0.2815
C11B C 0.73949(17) 1.09334(11) 0.58000(11)
C12B C 0.35046(17) 1.18933(11) 0.37689(11)
H4B H 0.3899 1.1971 0.3375
C13B C 0.16784(16) 1.15412(11) 0.56131(12)
C14B C 0.72182(16) 1.17056(10) 0.47975(11)
H5B H 0.7787 1.1879 0.4984
C15B C 0.67683(17) 1.19704(10) 0.41998(11)
C16B C 0.23362(16) 1.16578(10) 0.49554(11)
C17B C 0.27538(17) 1.22841(11) 0.39178(11)
C18B C 0.58401(17) 0.94927(11) 0.21272(11)
C19B C 0.51393(16) 1.00013(10) 0.23306(11)
C20B C 0.21607(16) 1.21384(11) 0.45002(11)
H6B H 0.1618 1.2375 0.4590
C21B C 0.72102(18) 1.25429(11) 0.38933(12)
C22B C 0.37459(16) 1.06350(11) 0.20036(12)
C23B C 0.44364(17) 1.02072(11) 0.18394(12)
H7B H 0.4429 1.0049 0.1376
C24B C 0.25422(18) 1.28358(11) 0.34579(12)
C25B C 0.1592(2) 1.27483(15) 0.30278(16)
H8B H 0.1457 1.3095 0.2746
H9B H 0.1659 1.2414 0.2713
H10B H 0.1062 1.2680 0.3353
C26B C 0.2808(3) 1.14889(16) 0.14606(17)
H11B H 0.2292 1.1595 0.1127
H12B H 0.2646 1.1625 0.1935
H13B H 0.3412 1.1668 0.1314
C27B C 0.3134(2) 1.06322(18) 0.06996(14)
H14B H 0.2613 1.0768 0.0387
H15B H 0.3744 1.0802 0.0551
H16B H 0.3176 1.0210 0.0673
C28B C 0.1968(2) 1.05421(19) 0.17172(18)
H17B H 0.2024 1.0120 0.1707
H18B H 0.1833 1.0669 0.2200
H19B H 0.1443 1.0664 0.1400
C29B C 0.2442(3) 1.33842(13) 0.39375(16)
H20B H 0.1881 1.3340 0.4241
H21B H 0.3023 1.3428 0.4232
H22B H 0.2360 1.3728 0.3639
C30B C 0.13212(18) 1.09013(11) 0.56364(13)
H23B H 0.0888 1.0851 0.6036
H24B H 0.0977 1.0809 0.5195
H25B H 0.1875 1.0642 0.5693
C31B C 0.82991(18) 1.12968(12) 0.60210(13)
H26B H 0.8750 1.1309 0.5628
H27B H 0.8100 1.1691 0.6140
H28B H 0.8613 1.1118 0.6433
C32B C 0.07639(17) 1.19374(12) 0.56086(13)
H29B H 0.0372 1.1848 0.6021
H30B H 0.0962 1.2344 0.5626
H31B H 0.0386 1.1868 0.5176
C33B C 0.77531(19) 1.03068(12) 0.56492(13)
H32B H 0.8180 1.0311 0.5241
H33B H 0.8105 1.0160 0.6064
H34B H 0.7200 1.0056 0.5548
C34B C 0.67049(18) 1.09267(12) 0.64485(11)
H35B H 0.7054 1.0784 0.6867
H36B H 0.6472 1.1320 0.6538
H37B H 0.6157 1.0672 0.6346
C35B C 0.29258(18) 1.08164(13) 0.14715(12)
C36B C 0.69147(18) 0.96546(12) 0.22895(13)
H38B H 0.7102 0.9983 0.1994
H39B H 0.6987 0.9760 0.2789
H40B H 0.7327 0.9322 0.2187
C37B C 0.55708(19) 0.89352(11) 0.25503(13)
H41B H 0.5997 0.8618 0.2415
H42B H 0.5645 0.9010 0.3058
H43B H 0.4902 0.8829 0.2443
C38B C 0.7317(2) 1.30009(12) 0.45016(14)
H44B H 0.6685 1.3078 0.4704
H45B H 0.7752 1.2850 0.4870
H46B H 0.7581 1.3360 0.4310
C39B C 0.82383(19) 1.24203(12) 0.35944(14)
H47B H 0.8519 1.2782 0.3423
H48B H 0.8650 1.2259 0.3970
H49B H 0.8187 1.2143 0.3203
C40B C 0.6570(2) 1.28127(12) 0.32987(14)
H50B H 0.5931 1.2898 0.3484
H51B H 0.6867 1.3171 0.3132
H52B H 0.6510 1.2539 0.2905
C41B C 0.5767(2) 0.93384(13) 0.13208(13)
H53B H 0.5115 0.9202 0.1207
H54B H 0.5908 0.9683 0.1039
H55B H 0.6232 0.9034 0.1212
C42B C 0.22615(19) 1.16796(13) 0.63072(12)
H56B H 0.2845 1.1442 0.6326
H57B H 0.2440 1.2090 0.6312
H58B H 0.1865 1.1594 0.6718
C43B C 0.3366(2) 1.29690(14) 0.29297(16)
H59B H 0.3222 1.3329 0.2677
H60B H 0.3976 1.3010 0.3191
H61B H 0.3418 1.2651 0.2590
Mg1B Mg 0.43151(5) 1.02690(3) 0.55116(4)
O1B O 0.56424(10) 1.04380(7) 0.51345(7)
O2B O 0.57524(11) 1.00281(7) 0.35426(7)
O3B O 0.34114(11) 1.08683(7) 0.52750(7)
C44 C 0.5483(2) 0.57398(15) 0.10178(15)
H62 H 0.5606 0.6024 0.0638
H63 H 0.5452 0.5348 0.0808
C45 C 0.5095(3) 0.44057(17) 0.3707(2)
H64 H 0.4457 0.4496 0.3906
H65 H 0.5076 0.4013 0.3498
C46 C 0.5386(2) 0.48648(15) 0.31469(18)
H66 H 0.5856 0.4703 0.2811
H67 H 0.4816 0.5007 0.2879
C47 C 0.5060(2) 0.76988(14) 0.40393(15)
H68 H 0.5357 0.8088 0.4045
H69 H 0.4351 0.7740 0.4022
C48 C 0.5872(3) 0.44511(17) 0.4264(2)
H70 H 0.6401 0.4177 0.4165
H71 H 0.5613 0.4365 0.4737
C49 C 0.6222(3) 0.50667(15) 0.42268(17)
H72 H 0.6005 0.5287 0.4644
H73 H 0.6934 0.5076 0.4218
C50 C 0.82584(19) 0.63296(13) 0.28622(13)
H74 H 0.8015 0.6598 0.2494
H75 H 0.8432 0.5959 0.2635
C51 C 0.5239(2) 0.67180(13) 0.44191(13)
H76 H 0.5682 0.6451 0.4671
H77 H 0.4569 0.6590 0.4498
C52 C 0.5422(2) 0.73363(12) 0.34117(14)
H78 H 0.4982 0.7376 0.2999
H79 H 0.6073 0.7464 0.3273
C53 C 0.48956(19) 0.63168(13) 0.19563(14)
H80 H 0.4942 0.6710 0.1752
H81 H 0.4452 0.6328 0.2361
C54 C 0.6279(2) 0.57714(13) 0.15967(13)
H82 H 0.6464 0.5378 0.1757
H83 H 0.6858 0.5969 0.1416
C55 C 0.91390(19) 0.65918(13) 0.32510(13)
H84 H 0.9117 0.7020 0.3246
H85 H 0.9748 0.6460 0.3039
C56 C 0.9026(2) 0.63515(14) 0.40088(14)
H86 H 0.9274 0.5951 0.4047
H87 H 0.9363 0.6598 0.4361
C57 C 0.7932(2) 0.63710(14) 0.41053(13)
H88 H 0.7729 0.6082 0.4459
H89 H 0.7726 0.6760 0.4262
C58 C 0.5385(2) 0.73428(13) 0.46798(14)
H90 H 0.4984 0.7426 0.5096
H91 H 0.6069 0.7418 0.4802
C59 C 0.4546(2) 0.58831(14) 0.13988(14)
H92 H 0.4065 0.6059 0.1073
H93 H 0.4264 0.5535 0.1620
Li1 Li 0.6174(3) 0.6098(2) 0.3193(2)
O4 O 0.54464(13) 0.67304(8) 0.36606(8)
O5 O 0.58526(12) 0.61056(8) 0.21824(8)
O6 O 0.75222(13) 0.62355(9) 0.34078(9)
O7 O 0.58148(15) 0.53233(9) 0.35698(10)
loop_
_geom_bond_atom_site_label_1
_geom_bond_atom_site_label_2
_geom_bond_site_symmetry_1
_geom_bond_site_symmetry_2
C1 C2 1_555 1_555
C2 C6 1_555 1_555
C3 C7 1_555 1_555
C4 C5 1_555 1_555
C5 C8 1_555 1_555
C6 C11 1_555 1_555
C7 C16 1_555 1_555
C8 C1 1_555 1_555
H1 C8 1_555 1_555
C9 C1 1_555 1_555
H2 C9 1_555 1_555
C10 C5 1_555 1_555
H3 C10 1_555 1_555
C11 C31 1_555 1_555
C12 C3 1_555 1_555
H4 C12 1_555 1_555
C13 C16 1_555 1_555
C14 C6 1_555 1_555
H5 C14 1_555 1_555
C15 C9 1_555 1_555
C16 C20 1_555 1_555
C17 C12 1_555 1_555
C18 C19 1_555 1_555
C19 C4 1_555 1_555
C20 C17 1_555 1_555
H6 C20 1_555 1_555
C21 C15 1_555 1_555
C22 C10 1_555 1_555
C23 C19 1_555 1_555
H7 C23 1_555 1_555
C24 C17 1_555 1_555
C25 C24 1_555 1_555
H8 C25 1_555 1_555
H9 C25 1_555 1_555
H10 C25 1_555 1_555
C26 H11 1_555 1_555
H12 C26 1_555 1_555
H13 C26 1_555 1_555
C27 H14 1_555 1_555
H15 C27 1_555 1_555
H16 C27 1_555 1_555
C28 H17 1_555 1_555
H18 C28 1_555 1_555
H19 C28 1_555 1_555
C29 C24 1_555 1_555
H20 C29 1_555 1_555
H21 C29 1_555 1_555
H22 C29 1_555 1_555
C30 C13 1_555 1_555
H23 C30 1_555 1_555
H24 C30 1_555 1_555
H25 C30 1_555 1_555
C31 H26 1_555 1_555
H27 C31 1_555 1_555
H28 C31 1_555 1_555
C32 C13 1_555 1_555
H29 C32 1_555 1_555
H30 C32 1_555 1_555
H31 C32 1_555 1_555
C33 C11 1_555 1_555
H32 C33 1_555 1_555
H33 C33 1_555 1_555
H34 C33 1_555 1_555
C34 C11 1_555 1_555
H35 C34 1_555 1_555
H36 C34 1_555 1_555
H37 C34 1_555 1_555
C35 C22 1_555 1_555
C36 C18 1_555 1_555
H38 C36 1_555 1_555
H39 C36 1_555 1_555
H40 C36 1_555 1_555
C37 C18 1_555 1_555
H41 C37 1_555 1_555
H42 C37 1_555 1_555
H43 C37 1_555 1_555
C38 C21 1_555 1_555
H44 C38 1_555 1_555
H45 C38 1_555 1_555
H46 C38 1_555 1_555
C39 C21 1_555 1_555
H47 C39 1_555 1_555
H48 C39 1_555 1_555
H49 C39 1_555 1_555
C40 C21 1_555 1_555
H50 C40 1_555 1_555
H51 C40 1_555 1_555
H52 C40 1_555 1_555
C41 C18 1_555 1_555
H53 C41 1_555 1_555
H54 C41 1_555 1_555
H55 C41 1_555 1_555
C42 C13 1_555 1_555
H56 C42 1_555 1_555
H57 C42 1_555 1_555
H58 C42 1_555 1_555
C43 C24 1_555 1_555
H59 C43 1_555 1_555
H60 C43 1_555 1_555
H61 C43 1_555 1_555
Mg1 O1 1_555 1_555
O1 C2 1_555 1_555
O2 C4 1_555 1_555
O3 C7 1_555 1_555
C44 H62 1_555 1_555
H63 C44 1_555 1_555
C45 H64 1_555 1_555
H65 C45 1_555 1_555
C46 C45 1_555 1_555
H66 C46 1_555 1_555
H67 C46 1_555 1_555
C47 H68 1_555 1_555
H69 C47 1_555 1_555
C48 C45 1_555 1_555
H70 C48 1_555 1_555
H71 C48 1_555 1_555
C49 C48 1_555 1_555
H72 C49 1_555 1_555
H73 C49 1_555 1_555
C50 H74 1_555 1_555
H75 C50 1_555 1_555
C51 H76 1_555 1_555
H77 C51 1_555 1_555
C52 C47 1_555 1_555
H78 C52 1_555 1_555
H79 C52 1_555 1_555
C53 H80 1_555 1_555
H81 C53 1_555 1_555
C54 C44 1_555 1_555
H82 C54 1_555 1_555
H83 C54 1_555 1_555
C55 C50 1_555 1_555
H84 C55 1_555 1_555
H85 C55 1_555 1_555
C56 C55 1_555 1_555
H86 C56 1_555 1_555
H87 C56 1_555 1_555
C57 C56 1_555 1_555
H88 C57 1_555 1_555
H89 C57 1_555 1_555
C58 C47 1_555 1_555
H90 C58 1_555 1_555
H91 C58 1_555 1_555
C59 C44 1_555 1_555
H92 C59 1_555 1_555
H93 C59 1_555 1_555
Li1 O4 1_555 1_555
O4 C51 1_555 1_555
O5 C53 1_555 1_555
O6 C50 1_555 1_555
O7 C46 1_555 1_555
C1B C2B 1_555 1_555
C2B C6B 1_555 1_555
C3B C7B 1_555 1_555
C4B C5B 1_555 1_555
C5B C8B 1_555 1_555
C6B C11B 1_555 1_555
C7B C16B 1_555 1_555
C8B C1B 1_555 1_555
H1B C8B 1_555 1_555
C9B C1B 1_555 1_555
H2B C9B 1_555 1_555
C10B C5B 1_555 1_555
H3B C10B 1_555 1_555
C11B C31B 1_555 1_555
C12B C3B 1_555 1_555
H4B C12B 1_555 1_555
C13B C16B 1_555 1_555
C14B C6B 1_555 1_555
H5B C14B 1_555 1_555
C15B C9B 1_555 1_555
C16B C20B 1_555 1_555
C17B C12B 1_555 1_555
C18B C19B 1_555 1_555
C19B C4B 1_555 1_555
C20B C17B 1_555 1_555
H6B C20B 1_555 1_555
C21B C15B 1_555 1_555
C22B C10B 1_555 1_555
C23B C19B 1_555 1_555
H7B C23B 1_555 1_555
C24B C17B 1_555 1_555
C25B C24B 1_555 1_555
H8B C25B 1_555 1_555
H9B C25B 1_555 1_555
H10B C25B 1_555 1_555
C26B H11B 1_555 1_555
H12B C26B 1_555 1_555
H13B C26B 1_555 1_555
C27B H14B 1_555 1_555
H15B C27B 1_555 1_555
H16B C27B 1_555 1_555
C28B H17B 1_555 1_555
H18B C28B 1_555 1_555
H19B C28B 1_555 1_555
C29B C24B 1_555 1_555
H20B C29B 1_555 1_555
H21B C29B 1_555 1_555
H22B C29B 1_555 1_555
C30B C13B 1_555 1_555
H23B C30B 1_555 1_555
H24B C30B 1_555 1_555
H25B C30B 1_555 1_555
C31B H26B 1_555 1_555
H27B C31B 1_555 1_555
H28B C31B 1_555 1_555
C32B C13B 1_555 1_555
H29B C32B 1_555 1_555
H30B C32B 1_555 1_555
H31B C32B 1_555 1_555
C33B C11B 1_555 1_555
H32B C33B 1_555 1_555
H33B C33B 1_555 1_555
H34B C33B 1_555 1_555
C34B C11B 1_555 1_555
H35B C34B 1_555 1_555
H36B C34B 1_555 1_555
H37B C34B 1_555 1_555
C35B C22B 1_555 1_555
C36B C18B 1_555 1_555
H38B C36B 1_555 1_555
H39B C36B 1_555 1_555
H40B C36B 1_555 1_555
C37B C18B 1_555 1_555
H41B C37B 1_555 1_555
H42B C37B 1_555 1_555
H43B C37B 1_555 1_555
C38B C21B 1_555 1_555
H44B C38B 1_555 1_555
H45B C38B 1_555 1_555
H46B C38B 1_555 1_555
C39B C21B 1_555 1_555
H47B C39B 1_555 1_555
H48B C39B 1_555 1_555
H49B C39B 1_555 1_555
C40B C21B 1_555 1_555
H50B C40B 1_555 1_555
H51B C40B 1_555 1_555
H52B C40B 1_555 1_555
C41B C18B 1_555 1_555
H53B C41B 1_555 1_555
H54B C41B 1_555 1_555
H55B C41B 1_555 1_555
C42B C13B 1_555 1_555
H56B C42B 1_555 1_555
H57B C42B 1_555 1_555
H58B C42B 1_555 1_555
C43B C24B 1_555 1_555
H59B C43B 1_555 1_555
H60B C43B 1_555 1_555
H61B C43B 1_555 1_555
Mg1B O1 1_555 1_555
O1B Mg1 1_555 1_555
O2B Mg1 1_555 1_555
O3B C7B 1_555 1_555
C3 C8 1_555 1_555
C14 C15 1_555 1_555
C22 C23 1_555 1_555
C26 C35 1_555 1_555
C27 C35 1_555 1_555
C28 C35 1_555 1_555
Mg1 O3 1_555 1_555
O2 Mg1B 1_555 1_555
C49 O7 1_555 1_555
C51 C58 1_555 1_555
C52 O4 1_555 1_555
C53 C59 1_555 1_555
C54 O5 1_555 1_555
C57 O6 1_555 1_555
Li1 O5 1_555 1_555
Li1 O6 1_555 1_555
Li1 O7 1_555 1_555
C2B O1B 1_555 1_555
C3B C8B 1_555 1_555
C4B O2B 1_555 1_555
C14B C15B 1_555 1_555
C22B C23B 1_555 1_555
C26B C35B 1_555 1_555
C27B C35B 1_555 1_555
C28B C35B 1_555 1_555
Mg1B O1B 1_555 1_555
Mg1B O3B 1_555 1_555

#END
