
#######################################################################
#
#                 Cambridge Crystallographic Data Centre
#                                CCDC 
#
#######################################################################
#
# If this CIF has been generated from an entry in the Cambridge 
# Structural Database, then it will include bibliographic, chemical, 
# crystal, experimental, refinement or atomic coordinate data resulting 
# from the CCDC's data processing and validation procedures.
#
#######################################################################

data_JAXKUR
_chemical_formula_moiety         'C27 H22 N4 O7 S1'
_chemical_name_systematic        
"methyl 1'-methyl-8-[(4-methylphenyl)sulfonyl]-4b-nitro-2'-oxo-1',2',7a,8-tetrahydro-4bH-spiro[cyclopenta[4,5]pyrrolo[2,3-b]pyridine-5,3'-indole]-6-carboxylate"
_symmetry_cell_setting           monoclinic
_symmetry_space_group_name_H-M   'P 21'
_symmetry_Int_Tables_number      4
_space_group_name_Hall           'P 2yb'
loop_
_symmetry_equiv_pos_site_id
_symmetry_equiv_pos_as_xyz
1 x,y,z
2 -x,1/2+y,-z
_cell_length_a                   12.2921(3)
_cell_length_b                   12.1871(3)
_cell_length_c                   17.7773(4)
_cell_angle_alpha                90
_cell_angle_beta                 98.736(2)
_cell_angle_gamma                90
_cell_volume                     2632.23
_exptl_crystal_colour            colorless
_exptl_crystal_description       needle
_cell_formula_units_Z            4
loop_
_atom_site_label
_atom_site_type_symbol
_atom_site_fract_x
_atom_site_fract_y
_atom_site_fract_z
S1 S 0.14867(6) 0.69256(9) 0.42794(6)
O1 O 0.5999(3) 0.4584(3) 0.4666(2)
O2 O 0.1623(3) 0.7653(3) 0.4916(2)
O3 O 0.5342(3) 0.6305(4) 0.67214(19)
N1 N 0.7347(2) 0.5796(3) 0.44373(19)
O4 O 0.5541(3) 0.7247(4) 0.3077(2)
C1 C 0.6561(3) 0.7447(3) 0.4656(2)
O5 O 0.6868(3) 0.6089(4) 0.6192(2)
N2 N 0.4859(3) 0.7533(4) 0.3467(2)
O6 O 0.0782(2) 0.6008(3) 0.4274(2)
N3 N 0.2737(2) 0.6457(3) 0.4253(2)
N4 N 0.2307(3) 0.4915(4) 0.3418(3)
O7 O 0.4363(4) 0.8390(5) 0.3397(3)
C2 C 0.7512(3) 0.6929(4) 0.45060(19)
C3 C 0.6335(3) 0.5505(3) 0.4597(2)
C4 C 0.6536(3) 0.8566(4) 0.4756(2)
H1 H 0.5907 0.8914 0.4867
C5 C 0.7486(4) 0.9161(4) 0.4684(3)
H2 H 0.7483 0.9920 0.4736
C6 C 0.5914(4) 0.6293(4) 0.6143(2)
C7 C 0.4629(3) 0.6718(3) 0.4079(2)
C8 C 0.3014(3) 0.5652(3) 0.3745(2)
C9 C 0.0599(4) 0.7144(5) 0.2805(4)
H3 H 0.0475 0.6392 0.2810
C10 C 0.3713(3) 0.7140(3) 0.4527(2)
H4 H 0.3563 0.7924 0.4440
C11 C 0.8213(4) 0.5005(4) 0.4387(3)
H5 H 0.8619 0.5220 0.3991
H6 H 0.7894 0.4294 0.4274
H7 H 0.8698 0.4978 0.4864
C12 C 0.8425(4) 0.8639(4) 0.4539(3)
H8 H 0.9048 0.9054 0.4497
C13 C 0.5694(3) 0.6581(3) 0.4690(2)
C14 C 0.4116(3) 0.5728(4) 0.3665(2)
C15 C 0.1111(3) 0.7684(4) 0.3449(3)
C16 C 0.8461(3) 0.7515(4) 0.4454(3)
H9 H 0.9101 0.7164 0.4366
C17 C 0.5199(3) 0.6585(3) 0.5424(2)
C18 C 0.4163(3) 0.6906(4) 0.5330(2)
H10 H 0.3757 0.6978 0.5728
C19 C 0.3806(5) 0.4196(6) 0.2854(4)
H11 H 0.4049 0.3670 0.2540
C20 C 0.1336(5) 0.8788(5) 0.3445(4)
H12 H 0.1704 0.9132 0.3876
C21 C 0.2719(4) 0.4203(5) 0.2974(3)
H13 H 0.2249 0.3675 0.2726
C22 C 0.4525(4) 0.4970(5) 0.3203(3)
H14 H 0.5258 0.4983 0.3131
C23 C 0.0278(6) 0.7761(6) 0.2150(4)
H15 H -0.0065 0.7413 0.1712
C24 C 0.1003(7) 0.9376(5) 0.2784(4)
H16 H 0.1150 1.0124 0.2776
C25 C 0.0458(7) 0.8879(7) 0.2137(4)
C26 C 0.5944(8) 0.5993(9) 0.7453(3)
H17 H 0.6039 0.5211 0.7470
H18 H 0.5542 0.6218 0.7849
H19 H 0.6652 0.6342 0.7525
C27 C 0.0066(13) 0.9545(11) 0.1427(6)
H20 H 0.0687 0.9754 0.1191
H21 H -0.0306 1.0191 0.1563
H22 H -0.0430 0.9111 0.1078
S2 S 0.58266(13) 0.54796(14) -0.03631(6)
O8 O 0.6603(3) 0.3772(4) 0.25848(19)
O9 O 1.0440(4) 0.2428(5) 0.1440(3)
O10 O 0.9757(3) 0.4591(3) 0.2309(2)
N5 N 0.9309(3) 0.3031(3) 0.2915(2)
N6 N 0.6409(3) 0.3739(3) 0.1890(2)
O11 O 0.5550(3) 0.3458(5) 0.1532(3)
O12 O 0.5767(5) 0.4531(5) -0.0829(2)
O13 O 0.6024(5) 0.6528(5) -0.0660(3)
N7 N 0.7056(5) 0.7001(4) 0.0927(3)
N8 N 0.6855(4) 0.5215(4) 0.0339(2)
C28 C 0.8620(4) 0.2117(4) 0.2726(2)
C29 C 0.7461(3) 0.5333(4) 0.1630(2)
O14 O 1.0029(5) 0.2549(6) 0.0201(3)
C30 C 0.7346(3) 0.4127(3) 0.1476(2)
C31 C 0.7127(4) 0.5927(4) 0.0982(3)
C32 C 0.8345(3) 0.3332(4) 0.1687(2)
C33 C 0.8056(3) 0.2235(3) 0.1994(2)
C34 C 0.7043(4) 0.4082(4) 0.0598(2)
H23 H 0.6395 0.3621 0.0441
C35 C 0.7325(4) 0.1442(4) 0.1681(3)
H24 H 0.6959 0.1513 0.1186
C36 C 0.9241(3) 0.3760(4) 0.2333(2)
C37 C 0.7721(5) 0.5903(5) 0.2307(3)
H25 H 0.7939 0.5545 0.2768
C38 C 0.8044(4) 0.3608(4) 0.0354(2)
H26 H 0.8156 0.3576 -0.0151
C39 C 0.8762(4) 0.3235(4) 0.0928(3)
C40 C 0.9838(5) 0.2698(6) 0.0900(4)
C41 C 0.8467(5) 0.1209(5) 0.3156(3)
H27 H 0.8855 0.1128 0.3645
C42 C 0.7641(5) 0.7042(6) 0.2263(4)
H28 H 0.7806 0.7462 0.2702
C43 C 1.0103(4) 0.3128(5) 0.3611(3)
H29 H 0.9739 0.3000 0.4044
H30 H 1.0414 0.3852 0.3642
H31 H 1.0677 0.2596 0.3604
C44 C 0.4386(6) 0.6466(6) 0.0429(4)
H32 H 0.4828 0.7086 0.0438
C45 C 0.7724(6) 0.0419(5) 0.2847(4)
H33 H 0.7609 -0.0200 0.3130
C46 C 0.4644(5) 0.5535(5) 0.0066(3)
C47 C 0.7326(6) 0.7541(5) 0.1588(5)
H34 H 0.7295 0.8303 0.1579
C48 C 0.3969(6) 0.4623(7) 0.0028(5)
H35 H 0.4135 0.3996 -0.0231
C49 C 0.3452(8) 0.6474(10) 0.0786(5)
H36 H 0.3288 0.7090 0.1056
C50 C 0.7148(6) 0.0540(4) 0.2117(3)
H37 H 0.6639 0.0010 0.1921
C51 C 0.2773(9) 0.5571(13) 0.0739(7)
C52 C 0.3044(8) 0.4663(11) 0.0381(8)
H38 H 0.2598 0.4045 0.0370
C53 C 0.1719(12) 0.560(2) 0.1136(10)
H39 H 0.1885 0.5971 0.1616
H40 H 0.1483 0.4866 0.1216
H41 H 0.1142 0.5988 0.0817
C54 C 1.1069(12) 0.1920(15) 0.0212(9)
H42 H 1.1512 0.2264 -0.0121
H43 H 1.0901 0.1182 0.0045
H44 H 1.1466 0.1909 0.0721
loop_
_geom_bond_atom_site_label_1
_geom_bond_atom_site_label_2
_geom_bond_site_symmetry_1
_geom_bond_site_symmetry_2
S1 O2 1_555 1_555
O1 C3 1_555 1_555
O3 C6 1_555 1_555
N1 C2 1_555 1_555
O4 N2 1_555 1_555
C1 C2 1_555 1_555
O5 C6 1_555 1_555
N2 O7 1_555 1_555
O6 S1 1_555 1_555
N3 S1 1_555 1_555
N4 C8 1_555 1_555
C2 C16 1_555 1_555
C3 N1 1_555 1_555
C4 C1 1_555 1_555
H1 C4 1_555 1_555
C5 C4 1_555 1_555
H2 C5 1_555 1_555
C6 C17 1_555 1_555
C7 N2 1_555 1_555
C8 N3 1_555 1_555
C9 H3 1_555 1_555
C10 N3 1_555 1_555
H4 C10 1_555 1_555
C11 N1 1_555 1_555
H5 C11 1_555 1_555
H6 C11 1_555 1_555
H7 C11 1_555 1_555
C12 C5 1_555 1_555
H8 C12 1_555 1_555
C13 C1 1_555 1_555
C14 C7 1_555 1_555
C15 S1 1_555 1_555
C16 C12 1_555 1_555
H9 C16 1_555 1_555
C17 C13 1_555 1_555
C18 C10 1_555 1_555
H10 C18 1_555 1_555
C19 H11 1_555 1_555
C20 C15 1_555 1_555
H12 C20 1_555 1_555
C21 N4 1_555 1_555
H13 C21 1_555 1_555
C22 C14 1_555 1_555
H14 C22 1_555 1_555
C23 C9 1_555 1_555
H15 C23 1_555 1_555
C24 C20 1_555 1_555
H16 C24 1_555 1_555
C25 C23 1_555 1_555
C26 O3 1_555 1_555
H17 C26 1_555 1_555
H18 C26 1_555 1_555
H19 C26 1_555 1_555
C27 C25 1_555 1_555
H20 C27 1_555 1_555
H21 C27 1_555 1_555
H22 C27 1_555 1_555
S2 O12 1_555 1_555
O8 N6 1_555 1_555
O9 C40 1_555 1_555
O10 C36 1_555 1_555
N5 C28 1_555 1_555
N6 O11 1_555 1_555
O13 S2 1_555 1_555
N7 C31 1_555 1_555
N8 S2 1_555 1_555
C28 C33 1_555 1_555
C29 C30 1_555 1_555
O14 C40 1_555 1_555
C30 N6 1_555 1_555
C31 N8 1_555 1_555
C32 C30 1_555 1_555
C33 C32 1_555 1_555
C34 N8 1_555 1_555
H23 C34 1_555 1_555
C35 C33 1_555 1_555
H24 C35 1_555 1_555
C36 N5 1_555 1_555
C37 C29 1_555 1_555
H25 C37 1_555 1_555
C38 C34 1_555 1_555
H26 C38 1_555 1_555
C39 C32 1_555 1_555
C40 C39 1_555 1_555
C41 C28 1_555 1_555
H27 C41 1_555 1_555
C42 C37 1_555 1_555
H28 C42 1_555 1_555
C43 N5 1_555 1_555
H29 C43 1_555 1_555
H30 C43 1_555 1_555
H31 C43 1_555 1_555
C44 H32 1_555 1_555
C45 C41 1_555 1_555
H33 C45 1_555 1_555
C46 S2 1_555 1_555
C47 N7 1_555 1_555
H34 C47 1_555 1_555
C48 C46 1_555 1_555
H35 C48 1_555 1_555
C49 C44 1_555 1_555
H36 C49 1_555 1_555
C50 C35 1_555 1_555
H37 C50 1_555 1_555
C51 C49 1_555 1_555
C52 C48 1_555 1_555
H38 C52 1_555 1_555
C53 C51 1_555 1_555
H39 C53 1_555 1_555
H40 C53 1_555 1_555
H41 C53 1_555 1_555
C54 O14 1_555 1_555
H42 C54 1_555 1_555
H43 C54 1_555 1_555
H44 C54 1_555 1_555
C3 C13 1_555 1_555
C7 C10 1_555 1_555
C7 C13 1_555 1_555
C8 C14 1_555 1_555
C9 C15 1_555 1_555
C17 C18 1_555 1_555
C19 C21 1_555 1_555
C19 C22 1_555 1_555
C24 C25 1_555 1_555
C29 C31 1_555 1_555
C30 C34 1_555 1_555
C32 C36 1_555 1_555
C38 C39 1_555 1_555
C42 C47 1_555 1_555
C44 C46 1_555 1_555
C45 C50 1_555 1_555
C51 C52 1_555 1_555

#END
