
#######################################################################
#
#                 Cambridge Crystallographic Data Centre
#                                CCDC 
#
#######################################################################
#
# If this CIF has been generated from an entry in the Cambridge 
# Structural Database, then it will include bibliographic, chemical, 
# crystal, experimental, refinement or atomic coordinate data resulting 
# from the CCDC's data processing and validation procedures.
#
#######################################################################

data_JAXMAX
_chemical_formula_moiety         'C12 H11 N7 O1 S1'
_chemical_name_systematic        
4-(2-Hydroxybenzylideneamino)-3-(1H-1,2,4-triazol-1-ylmethyl)-1H-1,2,4-triazole-5(4H)-thione
_symmetry_cell_setting           monoclinic
_symmetry_space_group_name_H-M   'P 21/c'
_symmetry_Int_Tables_number      14
_space_group_name_Hall           '-P 2ybc'
loop_
_symmetry_equiv_pos_site_id
_symmetry_equiv_pos_as_xyz
1 x,y,z
2 -x,1/2+y,1/2-z
3 -x,-y,-z
4 x,1/2-y,1/2+z
_cell_length_a                   8.3335(9)
_cell_length_b                   14.9777(16)
_cell_length_c                   11.4724(12)
_cell_angle_alpha                90
_cell_angle_beta                 107.990(2)
_cell_angle_gamma                90
_cell_volume                     1361.94
_exptl_crystal_colour            yellow
_exptl_crystal_description       block
_cell_formula_units_Z            4
_exptl_crystal_recrystallization_method ethanol
loop_
_atom_site_label
_atom_site_type_symbol
_atom_site_fract_x
_atom_site_fract_y
_atom_site_fract_z
S1 S 0.24099(6) 0.05342(3) 1.03693(4)
O1 O -0.04626(15) 0.37581(7) 0.80700(11)
H1 H 0.013(3) 0.3616(14) 0.878(2)
N1 N 0.40905(17) 0.53058(9) 1.13906(13)
N2 N 0.22775(15) 0.43147(8) 1.15774(11)
N3 N 0.18802(17) 0.44585(9) 1.03499(12)
N4 N 0.30746(17) 0.23425(8) 1.29213(11)
N5 N 0.33087(17) 0.15302(9) 1.24430(12)
H2 H 0.406(2) 0.1151(13) 1.2895(18)
N6 N 0.14833(15) 0.22013(8) 1.10029(10)
N7 N 0.04316(15) 0.25335(8) 0.98900(11)
C1 C 0.2999(2) 0.50609(11) 1.02949(15)
H3 H 0.3039 0.5302 0.9557
C2 C 0.3588(2) 0.48184(11) 1.21707(15)
H4 H 0.4081 0.4826 1.3017
C3 C 0.13501(19) 0.36690(10) 1.20714(14)
H5 H 0.0162 0.3698 1.1606
H6 H 0.1465 0.3822 1.2915
C4 C 0.19761(18) 0.27407(10) 1.20221(12)
C5 C 0.23881(18) 0.14125(9) 1.12697(13)
C6 C -0.06507(18) 0.19935(10) 0.92130(13)
H7 H -0.0729 0.1412 0.9475
C7 C -0.17580(18) 0.22927(10) 0.80306(13)
C8 C -0.3023(2) 0.17068(11) 0.73623(15)
H8 H -0.3132 0.1151 0.7692
C9 C -0.4106(2) 0.19364(12) 0.62293(15)
H9 H -0.4949 0.1544 0.5806
C10 C -0.3927(2) 0.27575(12) 0.57264(14)
H10 H -0.4645 0.2912 0.4957
C11 C -0.2693(2) 0.33477(11) 0.63586(14)
H11 H -0.2583 0.3895 0.6008
C12 C -0.16075(18) 0.31324(10) 0.75192(13)
loop_
_geom_bond_atom_site_label_1
_geom_bond_atom_site_label_2
_geom_bond_site_symmetry_1
_geom_bond_site_symmetry_2
S1 C5 1_555 1_555
O1 H1 1_555 1_555
N1 C1 1_555 1_555
N2 N3 1_555 1_555
N3 C1 1_555 1_555
N4 N5 1_555 1_555
N5 H2 1_555 1_555
N6 N7 1_555 1_555
N7 C6 1_555 1_555
C1 H3 1_555 1_555
C2 N1 1_555 1_555
H4 C2 1_555 1_555
C3 N2 1_555 1_555
H5 C3 1_555 1_555
H6 C3 1_555 1_555
C4 N4 1_555 1_555
C5 N5 1_555 1_555
C6 H7 1_555 1_555
C7 C6 1_555 1_555
C8 C7 1_555 1_555
H8 C8 1_555 1_555
C9 C8 1_555 1_555
H9 C9 1_555 1_555
C10 C9 1_555 1_555
H10 C10 1_555 1_555
C11 C10 1_555 1_555
H11 C11 1_555 1_555
C12 O1 1_555 1_555
N2 C2 1_555 1_555
N6 C4 1_555 1_555
N6 C5 1_555 1_555
C3 C4 1_555 1_555
C7 C12 1_555 1_555
C11 C12 1_555 1_555

#END
