
#######################################################################
#
#                 Cambridge Crystallographic Data Centre
#                                CCDC 
#
#######################################################################
#
# If this CIF has been generated from an entry in the Cambridge 
# Structural Database, then it will include bibliographic, chemical, 
# crystal, experimental, refinement or atomic coordinate data resulting 
# from the CCDC's data processing and validation procedures.
#
#######################################################################

data_JAXMEB
_chemical_formula_moiety         '2(C4 H7 N2 1+),C6 Cl2 O4 2-'
_chemical_name_systematic        'bis(4-Methylimidazolium) chloranilate'
_symmetry_cell_setting           monoclinic
_symmetry_space_group_name_H-M   'P 21/n'
_symmetry_Int_Tables_number      14
_space_group_name_Hall           '-P 2yn'
loop_
_symmetry_equiv_pos_site_id
_symmetry_equiv_pos_as_xyz
1 x,y,z
2 1/2-x,1/2+y,1/2-z
3 -x,-y,-z
4 1/2+x,1/2-y,1/2+z
_cell_length_a                   5.2739(10)
_cell_length_b                   9.5018(17)
_cell_length_c                   16.560(3)
_cell_angle_alpha                90
_cell_angle_beta                 99.157(3)
_cell_angle_gamma                90
_cell_volume                     819.272
_exptl_crystal_colour            red
_exptl_crystal_description       needle
_cell_formula_units_Z            2
_exptl_crystal_recrystallization_method 'ammonia solution'
loop_
_atom_site_label
_atom_site_type_symbol
_atom_site_fract_x
_atom_site_fract_y
_atom_site_fract_z
C1 C 0.7109(4) -0.04877(19) 0.56200(11)
C2 C 0.5207(4) 0.06642(19) 0.57873(11)
C3 C 0.6731(4) -0.10803(19) 0.48510(11)
Cl1 Cl 0.88065(11) -0.24113(6) 0.46351(3)
O1 O 0.8843(3) -0.07912(15) 0.62053(8)
O2 O 0.5513(3) 0.11557(16) 0.64870(8)
C1B C 0.2891(4) 0.04877(19) 0.43800(11)
C2B C 0.4793(4) -0.06642(19) 0.42127(11)
C3B C 0.3269(4) 0.10803(19) 0.51490(11)
Cl1B Cl 0.11935(11) 0.24113(6) 0.53649(3)
O1B O 0.1157(3) 0.07912(15) 0.37947(8)
O2B O 0.4487(3) -0.11557(16) 0.35130(8)
C4 C 0.5572(4) 0.5625(2) 0.66397(13)
C5 C 0.3006(4) 0.6844(2) 0.72942(13)
H1 H 0.2195 0.7197 0.7711
C6 C 0.4119(5) 0.6480(2) 0.61051(13)
H2 H 0.4178 0.6548 0.5548
C7 C 0.7593(5) 0.4582(3) 0.65323(19)
H3 H 0.6891 0.3650 0.6527
H4 H 0.8997 0.4667 0.6976
H5 H 0.8197 0.4758 0.6024
N1 N 0.4810(4) 0.58724(19) 0.73776(11)
H6 H 0.5416 0.5457 0.7828
N2 N 0.2548(4) 0.72288(18) 0.65236(11)
H7 H 0.1443 0.7849 0.6318
loop_
_geom_bond_atom_site_label_1
_geom_bond_atom_site_label_2
_geom_bond_site_symmetry_1
_geom_bond_site_symmetry_2
C1 C2 1_555 1_555
C2 O2 1_555 1_555
C3 C1 1_555 1_555
C4 C6 1_555 1_555
C5 H1 1_555 1_555
C6 H2 1_555 1_555
C7 C4 1_555 1_555
H3 C7 1_555 1_555
H4 C7 1_555 1_555
H5 C7 1_555 1_555
Cl1 C3 1_555 1_555
N1 C4 1_555 1_555
H6 N1 1_555 1_555
N2 C5 1_555 1_555
H7 N2 1_555 1_555
O1 C1 1_555 1_555
C1B C2B 1_555 1_555
C2B C3 1_555 1_555
C3B C2 1_555 1_555
Cl1B C3B 1_555 1_555
O1B C1B 1_555 1_555
O2B C2B 1_555 1_555
C5 N1 1_555 1_555
C6 N2 1_555 1_555
C1B C3B 1_555 1_555

#END
