
#######################################################################
#
#                 Cambridge Crystallographic Data Centre
#                                CCDC 
#
#######################################################################
#
# If this CIF has been generated from an entry in the Cambridge 
# Structural Database, then it will include bibliographic, chemical, 
# crystal, experimental, refinement or atomic coordinate data resulting 
# from the CCDC's data processing and validation procedures.
#
#######################################################################

data_JAXPUT
_chemical_formula_moiety         'C126 H126 N8 O24 S8,8(C3 H7 N1 O1)'
_chemical_name_systematic        
"6,12,54,60-tetrakis(Ethoxycarbonyl)-2,17,26,35,47,50,65-octakis(4-tolylsulfonyl)-2,17,26,35,47,50,65-octa-aza(3.3)(3,3')biphenylo(1,3)benzeno(3.3)(4,6)benzeno(1,3)benzeno(3.3)(4,6)benzeno(1,3)benzeno(3.3)(4,6)benzeno(3,3')biphenylo(5)phane dimethylformamide clathrate"
_symmetry_cell_setting           monoclinic
_symmetry_space_group_name_H-M   'P 21/n'
_symmetry_Int_Tables_number      14
_space_group_name_Hall           '-P 2yn'
loop_
_symmetry_equiv_pos_site_id
_symmetry_equiv_pos_as_xyz
1 x,y,z
2 1/2+x,1/2-y,1/2+z
3 -x,-y,-z
4 1/2-x,1/2+y,1/2-z
_cell_length_a                   16.7090(4)
_cell_length_b                   16.6596(2)
_cell_length_c                   27.2399(5)
_cell_angle_alpha                90
_cell_angle_beta                 105.376(1)
_cell_angle_gamma                90
_cell_volume                     7311.23
_exptl_crystal_colour            colorless
_exptl_crystal_description       plates
_chemical_melting_point          'above 280 deg.C'
_cell_formula_units_Z            2
loop_
_atom_site_label
_atom_site_type_symbol
_atom_site_fract_x
_atom_site_fract_y
_atom_site_fract_z
S1 S 0.76468(3) 0.33959(3) 0.57777(2)
S2 S 0.68818(3) 0.25317(3) 0.36819(2)
S3 S 0.19056(3) 0.23866(3) 0.36935(2)
S4 S 0.28098(3) 0.39124(3) 0.58811(2)
O1 O 0.78140(9) 0.39540(9) 0.61923(6)
O2 O 0.74893(9) 0.25680(8) 0.58616(7)
O3 O 0.69831(9) 0.33849(8) 0.37399(6)
O4 O 0.75635(8) 0.20094(8) 0.39068(6)
O5 O 0.16383(9) 0.15980(9) 0.35100(7)
O6 O 0.23903(9) 0.28603(9) 0.34353(6)
O7 O 0.23189(8) 0.46143(8) 0.57082(6)
O8 O 0.24447(8) 0.31302(8) 0.57782(6)
O9 O 0.81551(10) 0.06245(11) 0.55536(7)
O10 O 0.74714(9) 0.05783(9) 0.61573(6)
O11 O 0.41558(11) 0.05317(12) 0.67333(7)
O12 O 0.28258(10) 0.09037(10) 0.64815(7)
N1 N 0.68284(9) 0.37321(9) 0.53534(7)
N2 N 0.61158(10) 0.22846(9) 0.39177(7)
N3 N 0.24689(10) 0.22837(10) 0.42806(7)
N4 N 0.35938(10) 0.39419(9) 0.56216(7)
C1 C 0.54195(12) 0.47619(11) 0.54815(9)
H1 H 0.5710 0.4606 0.5817
C2 C 0.54359(12) 0.51182(11) 0.46319(8)
C3 C 0.58613(12) 0.48632(11) 0.51178(8)
C4 C 0.67700(12) 0.46136(11) 0.52612(9)
H2 H 0.7023 0.4753 0.4983
H3 H 0.7075 0.4902 0.5572
C5 C 0.65081(12) 0.32204(12) 0.48997(9)
H4 H 0.6809 0.2702 0.4950
H5 H 0.6615 0.3487 0.4598
C6 C 0.55771(12) 0.30616(11) 0.47999(8)
C7 C 0.52207(12) 0.30907(11) 0.52075(8)
H6 H 0.5574 0.3120 0.5544
C8 C 0.43623(12) 0.30781(11) 0.51384(8)
C9 C 0.38435(12) 0.29778(11) 0.46483(9)
C10 C 0.42115(12) 0.28723(11) 0.42464(9)
H7 H 0.3865 0.2767 0.3915
C11 C 0.50666(12) 0.29168(11) 0.43145(9)
C12 C 0.54008(12) 0.28438(12) 0.38477(8)
H8 H 0.4948 0.2656 0.3557
H9 H 0.5574 0.3382 0.3761
C13 C 0.59244(13) 0.14136(11) 0.39288(9)
H10 H 0.6337 0.1101 0.3806
H11 H 0.5369 0.1306 0.3698
C14 C 0.59417(12) 0.11509(11) 0.44592(9)
C15 C 0.66884(12) 0.10232(11) 0.48200(9)
H12 H 0.7196 0.1065 0.4727
C16 C 0.66945(12) 0.08337(11) 0.53172(9)
C17 C 0.59544(12) 0.07989(11) 0.54631(9)
H13 H 0.5967 0.0684 0.5807
C18 C 0.51928(12) 0.09331(11) 0.51034(9)
C19 C 0.52101(12) 0.10775(11) 0.46027(9)
H14 H 0.4698 0.1128 0.4349
C20 C 0.43909(12) 0.09694(11) 0.52483(9)
C21 C 0.43367(13) 0.08348(11) 0.57431(9)
H15 H 0.4813 0.0658 0.5996
C22 C 0.35919(13) 0.09561(11) 0.58724(9)
C23 C 0.28964(13) 0.12462(11) 0.55105(9)
H16 H 0.2400 0.1359 0.5605
C24 C 0.29298(12) 0.13690(11) 0.50147(9)
C25 C 0.36661(12) 0.12036(11) 0.48857(9)
H17 H 0.3677 0.1252 0.4540
C26 C 0.21939(12) 0.16968(12) 0.46140(9)
H18 H 0.1895 0.1249 0.4404
H19 H 0.1807 0.1962 0.4782
C27 C 0.29005(12) 0.30097(11) 0.45400(9)
H20 H 0.2753 0.3082 0.4866
H21 H 0.2695 0.3485 0.4325
C28 C 0.40546(12) 0.31738(11) 0.56132(9)
H22 H 0.3685 0.2718 0.5634
H23 H 0.4536 0.3153 0.5917
C29 C 0.58742(12) 0.53299(11) 0.42300(8)
H24 H 0.5457 0.5431 0.3902
H25 H 0.6223 0.4872 0.4182
C30 C 0.84958(12) 0.34297(12) 0.55107(9)
C31 C 0.89313(13) 0.41458(13) 0.55327(9)
H26 H 0.8755 0.4613 0.5675
C32 C 0.96219(13) 0.41711(14) 0.53462(10)
H27 H 0.9927 0.4657 0.5370
C33 C 0.98831(13) 0.35052(14) 0.51253(9)
C34 C 0.94205(14) 0.28010(14) 0.50884(10)
H28 H 0.9579 0.2344 0.4927
C35 C 0.87323(13) 0.27549(13) 0.52825(10)
H29 H 0.8427 0.2269 0.5260
C36 C 1.06613(14) 0.35435(17) 0.49493(11)
H30 H 1.0860 0.2998 0.4916
H31 H 1.1088 0.3843 0.5198
H32 H 1.0544 0.3815 0.4619
C37 C 0.65795(12) 0.23244(12) 0.30251(9)
C38 C 0.69135(13) 0.16734(12) 0.28293(9)
H33 H 0.7306 0.1335 0.3051
C39 C 0.66763(14) 0.15182(13) 0.23145(10)
H34 H 0.6911 0.1073 0.2184
C40 C 0.60983(14) 0.20021(14) 0.19804(10)
C41 C 0.57644(14) 0.26517(14) 0.21867(9)
H35 H 0.5368 0.2988 0.1966
C42 C 0.59955(13) 0.28157(13) 0.27009(9)
H36 H 0.5760 0.3258 0.2833
C43 C 0.58497(16) 0.18516(16) 0.14166(10)
H37 H 0.5263 0.1989 0.1278
H38 H 0.5935 0.1284 0.1351
H39 H 0.6189 0.2184 0.1253
C44 C 0.10061(12) 0.29540(12) 0.36789(9)
C45 C 0.09820(13) 0.37700(13) 0.35666(9)
H40 H 0.1454 0.4029 0.3506
C46 C 0.02617(13) 0.42023(13) 0.35437(10)
H41 H 0.0242 0.4758 0.3463
C47 C -0.04327(13) 0.38342(13) 0.36369(9)
C48 C -0.03986(13) 0.30173(13) 0.37430(9)
H42 H -0.0872 0.2757 0.3800
C49 C 0.03162(13) 0.25743(13) 0.37668(9)
H43 H 0.0333 0.2017 0.3843
C50 C -0.11905(14) 0.43203(14) 0.36427(12)
H44 H -0.1676 0.3966 0.3580
H45 H -0.1281 0.4732 0.3376
H46 H -0.1108 0.4579 0.3976
C51 C 0.32185(12) 0.40104(11) 0.65465(8)
C52 C 0.32851(12) 0.47723(12) 0.67646(9)
H47 H 0.3091 0.5231 0.6560
C53 C 0.36370(13) 0.48537(12) 0.72822(9)
H48 H 0.3686 0.5373 0.7431
C54 C 0.39213(13) 0.41911(13) 0.75905(9)
C55 C 0.38353(14) 0.34353(13) 0.73603(9)
H49 H 0.4017 0.2974 0.7565
C56 C 0.34945(13) 0.33408(12) 0.68449(9)
H50 H 0.3449 0.2822 0.6696
C57 C 0.43181(15) 0.42877(15) 0.81500(10)
H51 H 0.4019 0.3961 0.8343
H52 H 0.4297 0.4853 0.8245
H53 H 0.4898 0.4112 0.8228
C58 C 0.75142(13) 0.06730(12) 0.56801(9)
C59 C 0.82433(14) 0.04036(14) 0.65317(10)
H54 H 0.8559 0.0002 0.6391
H55 H 0.8122 0.0168 0.6838
C60 C 0.87595(17) 0.11382(15) 0.66801(12)
H56 H 0.9277 0.0997 0.6933
H57 H 0.8453 0.1532 0.6827
H58 H 0.8888 0.1368 0.6379
C61 C 0.35772(14) 0.07740(13) 0.64049(10)
C62 C 0.27250(17) 0.07091(16) 0.69814(11)
H59 H 0.3092 0.0254 0.7126
H60 H 0.2145 0.0541 0.6948
C63 C 0.29277(18) 0.14045(15) 0.73306(11)
H61 H 0.2857 0.1255 0.7664
H62 H 0.2557 0.1852 0.7191
H63 H 0.3504 0.1567 0.7367
C2B C 0.45641(12) 0.48818(11) 0.53681(8)
C3B C 0.41387(12) 0.51368(11) 0.48822(8)
C1B C 0.45805(12) 0.52381(11) 0.45185(9)
H1B H 0.4290 0.5394 0.4183
N4B N 0.64062(10) 0.60581(9) 0.43784(7)
S4B S 0.71902(3) 0.60876(3) 0.41189(2)
O7B O 0.76811(8) 0.53857(8) 0.42918(6)
O8B O 0.75553(8) 0.68698(8) 0.42218(6)
C51B C 0.67815(12) 0.59896(11) 0.34535(8)
C52B C 0.67149(12) 0.52277(12) 0.32354(9)
H47B H 0.6909 0.4769 0.3440
C53B C 0.63630(13) 0.51463(12) 0.27178(9)
H48B H 0.6314 0.4627 0.2569
C54B C 0.60787(13) 0.58089(13) 0.24095(9)
C55B C 0.61647(14) 0.65647(13) 0.26397(9)
H49B H 0.5983 0.7026 0.2435
C56B C 0.65055(13) 0.66592(12) 0.31551(9)
H50B H 0.6551 0.7178 0.3304
C57B C 0.56819(15) 0.57123(15) 0.18500(10)
H51B H 0.5981 0.6039 0.1657
H52B H 0.5703 0.5147 0.1755
H53B H 0.5102 0.5888 0.1772
C28B C 0.59454(12) 0.68262(11) 0.43868(9)
C8B C 0.56377(12) 0.69219(11) 0.48616(8)
C7B C 0.47793(12) 0.69093(11) 0.47925(8)
C6B C 0.44229(12) 0.69384(11) 0.52001(8)
C5B C 0.34919(12) 0.67796(12) 0.51003(9)
N1B N 0.31716(9) 0.62679(9) 0.46466(7)
S1B S 0.23532(3) 0.66041(3) 0.42223(2)
O1B O 0.21860(9) 0.60460(9) 0.38077(6)
O2B O 0.25107(9) 0.74320(8) 0.41384(7)
C30B C 0.15042(12) 0.65703(12) 0.44893(9)
C31B C 0.10687(13) 0.58542(13) 0.44673(9)
H26B H 0.1245 0.5387 0.4325
C32B C 0.03781(13) 0.58289(14) 0.46538(10)
H27B H 0.0073 0.5343 0.4630
C33B C 0.01169(13) 0.64948(14) 0.48747(9)
C34B C 0.05795(14) 0.71990(14) 0.49116(10)
H28B H 0.0421 0.7656 0.5073
C35B C 0.12677(13) 0.72451(13) 0.47175(10)
H29B H 0.1573 0.7731 0.4740
C36B C -0.06613(14) 0.64565(17) 0.50507(11)
H30B H -0.0860 0.7002 0.5084
H31B H -0.1088 0.6157 0.4802
H32B H -0.0544 0.6185 0.5381
C4B C 0.32300(12) 0.53864(11) 0.47388(9)
H2B H 0.2977 0.5247 0.5017
H3B H 0.2925 0.5098 0.4428
H4B H 0.3191 0.7298 0.5050
H5B H 0.3385 0.6513 0.5402
C11B C 0.49334(12) 0.70832(11) 0.56855(9)
C10B C 0.57885(12) 0.71277(11) 0.57536(9)
C9B C 0.61565(12) 0.70222(11) 0.53517(9)
C27B C 0.70995(12) 0.69903(11) 0.54600(9)
N3B N 0.75311(10) 0.77163(10) 0.57194(7)
S3B S 0.80944(3) 0.76134(3) 0.63065(2)
O5B O 0.83617(9) 0.84020(9) 0.64900(7)
O6B O 0.76097(9) 0.71397(9) 0.65647(6)
C44B C 0.89939(12) 0.70460(12) 0.63211(9)
C45B C 0.90180(13) 0.62300(13) 0.64334(9)
H40B H 0.8546 0.5971 0.6494
C46B C 0.97383(13) 0.57977(13) 0.64563(10)
H41B H 0.9758 0.5242 0.6537
C47B C 1.04327(13) 0.61658(13) 0.63631(9)
C48B C 1.03986(13) 0.69827(13) 0.62570(9)
H42B H 1.0872 0.7243 0.6200
C49B C 0.96838(13) 0.74257(13) 0.62332(9)
H43B H 0.9667 0.7983 0.6157
C50B C 1.11905(14) 0.56797(14) 0.63573(12)
H44B H 1.1676 0.6034 0.6420
H45B H 1.1281 0.5268 0.6624
H46B H 1.1108 0.5421 0.6024
C26B C 0.78061(12) 0.83032(12) 0.53860(9)
C24B C 0.70702(12) 0.86310(11) 0.49853(9)
C23B C 0.71036(13) 0.87538(11) 0.44895(9)
C22B C 0.64081(13) 0.90439(11) 0.41276(9)
C21B C 0.56633(13) 0.91652(11) 0.42569(9)
C20B C 0.56091(12) 0.90306(11) 0.47517(9)
C18B C 0.48072(12) 0.90669(11) 0.48966(9)
C17B C 0.40456(12) 0.92011(11) 0.45369(9)
C16B C 0.33055(12) 0.91663(11) 0.46828(9)
C15B C 0.33116(12) 0.89768(11) 0.51800(9)
C14B C 0.40583(12) 0.88491(11) 0.55408(9)
C13B C 0.40756(13) 0.85864(11) 0.60712(9)
N2B N 0.38842(10) 0.77154(9) 0.60823(7)
S2B S 0.31182(3) 0.74683(3) 0.63181(2)
O3B O 0.30169(9) 0.66151(8) 0.62601(6)
O4B O 0.24365(8) 0.79906(8) 0.60932(6)
C37B C 0.34205(12) 0.76756(12) 0.69749(9)
C38B C 0.30865(13) 0.83266(12) 0.71707(9)
H33B H 0.2694 0.8665 0.6949
C39B C 0.33237(14) 0.84818(13) 0.76855(10)
H34B H 0.3089 0.8927 0.7816
C40B C 0.39017(14) 0.79979(14) 0.80196(10)
C41B C 0.42356(14) 0.73483(14) 0.78133(9)
H35B H 0.4632 0.7012 0.8034
C42B C 0.40045(13) 0.71843(13) 0.72991(9)
H36B H 0.4240 0.6742 0.7167
C43B C 0.41503(16) 0.81484(16) 0.85834(10)
H37B H 0.4737 0.8011 0.8722
H38B H 0.4065 0.8716 0.8649
H39B H 0.3811 0.7816 0.8747
C12B C 0.45992(12) 0.71562(12) 0.61523(8)
H8B H 0.5052 0.7344 0.6443
H9B H 0.4426 0.6618 0.6239
H10B H 0.3663 0.8899 0.6194
H11B H 0.4631 0.8694 0.6302
C19B C 0.47899(12) 0.89225(11) 0.53973(9)
H14B H 0.5302 0.8872 0.5651
H12B H 0.2804 0.8935 0.5273
C58B C 0.24858(13) 0.93270(12) 0.43199(9)
O9B O 0.18449(10) 0.93755(11) 0.44464(7)
O10B O 0.25286(9) 0.94217(9) 0.38427(6)
C59B C 0.17567(14) 0.95964(14) 0.34683(10)
H54B H 0.1441 0.9998 0.3609
H55B H 0.1878 0.9832 0.3162
C60B C 0.12405(17) 0.88618(15) 0.33199(12)
H56B H 0.0723 0.9003 0.3067
H57B H 0.1547 0.8468 0.3173
H58B H 0.1112 0.8632 0.3621
H13B H 0.4033 0.9316 0.4193
C25B C 0.63339(12) 0.87964(11) 0.51143(9)
H17B H 0.6323 0.8748 0.5460
H15B H 0.5187 0.9342 0.4004
C61B C 0.64228(14) 0.92260(13) 0.35951(10)
O11B O 0.58442(11) 0.94683(12) 0.32667(7)
O12B O 0.71742(10) 0.90963(10) 0.35185(7)
C62B C 0.72750(17) 0.92909(16) 0.30186(11)
H59B H 0.6908 0.9746 0.2874
H60B H 0.7855 0.9459 0.3052
C63B C 0.70723(18) 0.85955(15) 0.26694(11)
H61B H 0.7143 0.8745 0.2336
H62B H 0.7443 0.8148 0.2809
H63B H 0.6496 0.8433 0.2633
H16B H 0.7600 0.8641 0.4395
H18B H 0.8105 0.8751 0.5596
H19B H 0.8193 0.8038 0.5218
H20B H 0.7247 0.6918 0.5134
H21B H 0.7305 0.6515 0.5675
H7B H 0.6135 0.7233 0.6085
H6B H 0.4426 0.6880 0.4456
H22B H 0.6315 0.7282 0.4366
H23B H 0.5464 0.6847 0.4083
C29B C 0.41258(12) 0.46701(11) 0.57700(8)
H24B H 0.4543 0.4569 0.6098
H25B H 0.3777 0.5128 0.5818
O13 O 0.39369(11) 0.05753(11) 0.34697(7)
C64 C 0.36229(16) 0.11317(16) 0.31977(11)
H64 H 0.3197 0.1420 0.3293
N5 N 0.38216(13) 0.13753(12) 0.27771(9)
C65 C 0.44349(16) 0.09459(16) 0.25835(12)
H65 H 0.4664 0.0501 0.2813
H66 H 0.4883 0.1314 0.2564
H67 H 0.4170 0.0734 0.2244
C66 C 0.3434(2) 0.20710(17) 0.24874(13)
H68 H 0.3009 0.2287 0.2639
H69 H 0.3177 0.1912 0.2134
H70 H 0.3856 0.2483 0.2494
O14 O 0.59056(12) 0.30916(12) 0.64732(8)
C67 C 0.62169(17) 0.24339(18) 0.65933(11)
H71 H 0.6602 0.2246 0.6418
N6 N 0.60639(12) 0.19596(12) 0.69476(9)
C68 C 0.54847(18) 0.21968(18) 0.72300(13)
H72 H 0.5790 0.2350 0.7576
H73 H 0.5114 0.1747 0.7245
H74 H 0.5157 0.2655 0.7061
C69 C 0.6482(2) 0.11967(18) 0.70843(15)
H75 H 0.6841 0.1089 0.6860
H76 H 0.6069 0.0768 0.7047
H77 H 0.6819 0.1218 0.7438
O15 O 1.01894(10) 0.10955(10) 0.45028(7)
C70 C 1.01167(14) 0.03763(15) 0.44135(10)
H78 H 1.0600 0.0095 0.4391
N7 N 0.94191(11) -0.00510(10) 0.43452(8)
C71 C 0.86579(14) 0.03323(14) 0.43821(11)
H79 H 0.8503 0.0127 0.4681
H80 H 0.8213 0.0215 0.4075
H81 H 0.8743 0.0914 0.4415
C72 C 0.94008(16) -0.09092(13) 0.42483(11)
H82 H 0.9950 -0.1087 0.4227
H83 H 0.8989 -0.1026 0.3926
H84 H 0.9252 -0.1194 0.4526
O16 O 0.5358(2) 0.6017(2) 0.70745(14)
C73 C 0.5991(2) 0.5786(2) 0.69748(18)
H85 H 0.6276 0.6169 0.6825
N8 N 0.63297(11) 0.50492(11) 0.70533(8)
C74 C 0.5877(3) 0.4444(2) 0.72929(18)
H86 H 0.5473 0.4721 0.7435
H87 H 0.6277 0.4158 0.7565
H88 H 0.5588 0.4059 0.7034
C75 C 0.7045(2) 0.4823(3) 0.69214(19)
H89 H 0.6917 0.4380 0.6676
H90 H 0.7466 0.4648 0.7227
H91 H 0.7258 0.5281 0.6768
O17? O 0.5120(3) 0.5658(3) 0.6944(2)
C76? C 0.5606(3) 0.5094(3) 0.7096(3)
H92? H 0.5411 0.4660 0.7259
C77? C 0.6672(4) 0.5626(3) 0.6723(3)
H93? H 0.6215 0.5827 0.6445
H94? H 0.7073 0.5344 0.6581
H95? H 0.6947 0.6078 0.6931
C78? C 0.6943(4) 0.4405(3) 0.7237(3)
H96? H 0.6709 0.4006 0.7425
H97? H 0.7448 0.4634 0.7462
H98? H 0.7078 0.4146 0.6946
loop_
_geom_bond_atom_site_label_1
_geom_bond_atom_site_label_2
_geom_bond_site_symmetry_1
_geom_bond_site_symmetry_2
S1 O1 1_555 1_555
S2 O3 1_555 1_555
S3 O5 1_555 1_555
S4 O7 1_555 1_555
O2 S1 1_555 1_555
O4 S2 1_555 1_555
O6 S3 1_555 1_555
O8 S4 1_555 1_555
O9 C58 1_555 1_555
O10 C58 1_555 1_555
O11 C61 1_555 1_555
O12 C61 1_555 1_555
N1 S1 1_555 1_555
N2 S2 1_555 1_555
N3 S3 1_555 1_555
N4 S4 1_555 1_555
C1 H1 1_555 1_555
C2 C3 1_555 1_555
C3 C1 1_555 1_555
C4 N1 1_555 1_555
H2 C4 1_555 1_555
H3 C4 1_555 1_555
C5 N1 1_555 1_555
H4 C5 1_555 1_555
H5 C5 1_555 1_555
C6 C5 1_555 1_555
C7 C6 1_555 1_555
H6 C7 1_555 1_555
C8 C7 1_555 1_555
C9 C8 1_555 1_555
C10 C9 1_555 1_555
H7 C10 1_555 1_555
C11 C6 1_555 1_555
C12 N2 1_555 1_555
H8 C12 1_555 1_555
H9 C12 1_555 1_555
C13 N2 1_555 1_555
H10 C13 1_555 1_555
H11 C13 1_555 1_555
C14 C13 1_555 1_555
C15 C14 1_555 1_555
H12 C15 1_555 1_555
C16 C15 1_555 1_555
C17 C16 1_555 1_555
H13 C17 1_555 1_555
C18 C17 1_555 1_555
C19 C14 1_555 1_555
H14 C19 1_555 1_555
C20 C18 1_555 1_555
C21 C20 1_555 1_555
H15 C21 1_555 1_555
C22 C21 1_555 1_555
C23 C22 1_555 1_555
H16 C23 1_555 1_555
C24 C23 1_555 1_555
C25 C20 1_555 1_555
H17 C25 1_555 1_555
C26 N3 1_555 1_555
H18 C26 1_555 1_555
H19 C26 1_555 1_555
C27 N3 1_555 1_555
H20 C27 1_555 1_555
H21 C27 1_555 1_555
C28 N4 1_555 1_555
H22 C28 1_555 1_555
H23 C28 1_555 1_555
C29 C2 1_555 1_555
H24 C29 1_555 1_555
H25 C29 1_555 1_555
C30 S1 1_555 1_555
C31 C30 1_555 1_555
H26 C31 1_555 1_555
C32 C31 1_555 1_555
H27 C32 1_555 1_555
C33 C32 1_555 1_555
C34 C33 1_555 1_555
H28 C34 1_555 1_555
C35 C30 1_555 1_555
H29 C35 1_555 1_555
C36 C33 1_555 1_555
H30 C36 1_555 1_555
H31 C36 1_555 1_555
H32 C36 1_555 1_555
C37 S2 1_555 1_555
C38 C37 1_555 1_555
H33 C38 1_555 1_555
C39 C38 1_555 1_555
H34 C39 1_555 1_555
C40 C39 1_555 1_555
C41 C40 1_555 1_555
H35 C41 1_555 1_555
C42 C37 1_555 1_555
H36 C42 1_555 1_555
C43 C40 1_555 1_555
H37 C43 1_555 1_555
H38 C43 1_555 1_555
H39 C43 1_555 1_555
C44 S3 1_555 1_555
C45 C44 1_555 1_555
H40 C45 1_555 1_555
C46 C45 1_555 1_555
H41 C46 1_555 1_555
C47 C46 1_555 1_555
C48 C47 1_555 1_555
H42 C48 1_555 1_555
C49 C44 1_555 1_555
H43 C49 1_555 1_555
C50 C47 1_555 1_555
H44 C50 1_555 1_555
H45 C50 1_555 1_555
H46 C50 1_555 1_555
C51 S4 1_555 1_555
C52 C51 1_555 1_555
H47 C52 1_555 1_555
C53 C52 1_555 1_555
H48 C53 1_555 1_555
C54 C53 1_555 1_555
C55 C54 1_555 1_555
H49 C55 1_555 1_555
C56 C51 1_555 1_555
H50 C56 1_555 1_555
C57 C54 1_555 1_555
H51 C57 1_555 1_555
H52 C57 1_555 1_555
H53 C57 1_555 1_555
C58 C16 1_555 1_555
C59 O10 1_555 1_555
H54 C59 1_555 1_555
H55 C59 1_555 1_555
C60 C59 1_555 1_555
H56 C60 1_555 1_555
H57 C60 1_555 1_555
H58 C60 1_555 1_555
C61 C22 1_555 1_555
C62 O12 1_555 1_555
H59 C62 1_555 1_555
H60 C62 1_555 1_555
C63 C62 1_555 1_555
H61 C63 1_555 1_555
H62 C63 1_555 1_555
H63 C63 1_555 1_555
O13 C64 1_555 1_555
C64 H64 1_555 1_555
N5 C64 1_555 1_555
C65 N5 1_555 1_555
H65 C65 1_555 1_555
H66 C65 1_555 1_555
H67 C65 1_555 1_555
C66 N5 1_555 1_555
H68 C66 1_555 1_555
H69 C66 1_555 1_555
H70 C66 1_555 1_555
O14 C67 1_555 1_555
C67 H71 1_555 1_555
N6 C67 1_555 1_555
C68 N6 1_555 1_555
H72 C68 1_555 1_555
H73 C68 1_555 1_555
H74 C68 1_555 1_555
C69 N6 1_555 1_555
H75 C69 1_555 1_555
H76 C69 1_555 1_555
H77 C69 1_555 1_555
O15 C70 1_555 1_555
C70 H78 1_555 1_555
N7 C70 1_555 1_555
C71 N7 1_555 1_555
H79 C71 1_555 1_555
H80 C71 1_555 1_555
H81 C71 1_555 1_555
C72 N7 1_555 1_555
H82 C72 1_555 1_555
H83 C72 1_555 1_555
H84 C72 1_555 1_555
O16 C73 1_555 1_555
C73 H85 1_555 1_555
N8 C73 1_555 1_555
C74 N8 1_555 1_555
H86 C74 1_555 1_555
H87 C74 1_555 1_555
H88 C74 1_555 1_555
C75 N8 1_555 1_555
H89 C75 1_555 1_555
H90 C75 1_555 1_555
H91 C75 1_555 1_555
C2B C1 1_555 1_555
C3B C2B 1_555 1_555
C1B C2 1_555 1_555
H1B C1B 1_555 1_555
N4B C29 1_555 1_555
S4B N4B 1_555 1_555
O7B S4B 1_555 1_555
O8B S4B 1_555 1_555
C51B S4B 1_555 1_555
C52B C51B 1_555 1_555
H47B C52B 1_555 1_555
C53B C52B 1_555 1_555
H48B C53B 1_555 1_555
C54B C53B 1_555 1_555
C55B C54B 1_555 1_555
H49B C55B 1_555 1_555
C56B C51B 1_555 1_555
H50B C56B 1_555 1_555
C57B C54B 1_555 1_555
H51B C57B 1_555 1_555
H52B C57B 1_555 1_555
H53B C57B 1_555 1_555
C28B N4B 1_555 1_555
C8B C28B 1_555 1_555
C7B C8B 1_555 1_555
C6B C7B 1_555 1_555
C5B C6B 1_555 1_555
N1B C5B 1_555 1_555
S1B N1B 1_555 1_555
O1B S1B 1_555 1_555
O2B S1B 1_555 1_555
C30B S1B 1_555 1_555
C31B C30B 1_555 1_555
H26B C31B 1_555 1_555
C32B C31B 1_555 1_555
H27B C32B 1_555 1_555
C33B C32B 1_555 1_555
C34B C33B 1_555 1_555
H28B C34B 1_555 1_555
C35B C30B 1_555 1_555
H29B C35B 1_555 1_555
C36B C33B 1_555 1_555
H30B C36B 1_555 1_555
H31B C36B 1_555 1_555
H32B C36B 1_555 1_555
C4B C3B 1_555 1_555
H2B C4B 1_555 1_555
H3B C4B 1_555 1_555
H4B C5B 1_555 1_555
H5B C5B 1_555 1_555
C11B C6B 1_555 1_555
C10B C11B 1_555 1_555
C9B C8B 1_555 1_555
C27B C9B 1_555 1_555
N3B C27B 1_555 1_555
S3B N3B 1_555 1_555
O5B S3B 1_555 1_555
O6B S3B 1_555 1_555
C44B S3B 1_555 1_555
C45B C44B 1_555 1_555
H40B C45B 1_555 1_555
C46B C45B 1_555 1_555
H41B C46B 1_555 1_555
C47B C46B 1_555 1_555
C48B C47B 1_555 1_555
H42B C48B 1_555 1_555
C49B C44B 1_555 1_555
H43B C49B 1_555 1_555
C50B C47B 1_555 1_555
H44B C50B 1_555 1_555
H45B C50B 1_555 1_555
H46B C50B 1_555 1_555
C26B N3B 1_555 1_555
C24B C26B 1_555 1_555
C23B C24B 1_555 1_555
C22B C23B 1_555 1_555
C21B C22B 1_555 1_555
C20B C21B 1_555 1_555
C18B C20B 1_555 1_555
C17B C18B 1_555 1_555
C16B C17B 1_555 1_555
C15B C16B 1_555 1_555
C14B C15B 1_555 1_555
C13B C14B 1_555 1_555
N2B C13B 1_555 1_555
S2B N2B 1_555 1_555
O3B S2B 1_555 1_555
O4B S2B 1_555 1_555
C37B S2B 1_555 1_555
C38B C37B 1_555 1_555
H33B C38B 1_555 1_555
C39B C38B 1_555 1_555
H34B C39B 1_555 1_555
C40B C39B 1_555 1_555
C41B C40B 1_555 1_555
H35B C41B 1_555 1_555
C42B C37B 1_555 1_555
H36B C42B 1_555 1_555
C43B C40B 1_555 1_555
H37B C43B 1_555 1_555
H38B C43B 1_555 1_555
H39B C43B 1_555 1_555
C12B C11B 1_555 1_555
H8B C12B 1_555 1_555
H9B C12B 1_555 1_555
H10B C13B 1_555 1_555
H11B C13B 1_555 1_555
C19B C18B 1_555 1_555
H14B C19B 1_555 1_555
H12B C15B 1_555 1_555
C58B C16B 1_555 1_555
O9B C58B 1_555 1_555
O10B C58B 1_555 1_555
C59B O10B 1_555 1_555
H54B C59B 1_555 1_555
H55B C59B 1_555 1_555
C60B C59B 1_555 1_555
H56B C60B 1_555 1_555
H57B C60B 1_555 1_555
H58B C60B 1_555 1_555
H13B C17B 1_555 1_555
C25B C24B 1_555 1_555
H17B C25B 1_555 1_555
H15B C21B 1_555 1_555
C61B C22B 1_555 1_555
O11B C61B 1_555 1_555
O12B C61B 1_555 1_555
C62B O12B 1_555 1_555
H59B C62B 1_555 1_555
H60B C62B 1_555 1_555
C63B C62B 1_555 1_555
H61B C63B 1_555 1_555
H62B C63B 1_555 1_555
H63B C63B 1_555 1_555
H16B C23B 1_555 1_555
H18B C26B 1_555 1_555
H19B C26B 1_555 1_555
H20B C27B 1_555 1_555
H21B C27B 1_555 1_555
H7B C10B 1_555 1_555
H6B C7B 1_555 1_555
H22B C28B 1_555 1_555
H23B C28B 1_555 1_555
C29B N4 1_555 1_555
H24B C29B 1_555 1_555
H25B C29B 1_555 1_555
C3 C4 1_555 1_555
C8 C28 1_555 1_555
C9 C27 1_555 1_555
C10 C11 1_555 1_555
C11 C12 1_555 1_555
C18 C19 1_555 1_555
C24 C26 1_555 1_555
C24 C25 1_555 1_555
C34 C35 1_555 1_555
C41 C42 1_555 1_555
C48 C49 1_555 1_555
C55 C56 1_555 1_555
C2B C29B 1_555 1_555
C3B C1B 1_555 1_555
C55B C56B 1_555 1_555
N1B C4B 1_555 1_555
C34B C35B 1_555 1_555
C10B C9B 1_555 1_555
C48B C49B 1_555 1_555
C20B C25B 1_555 1_555
C14B C19B 1_555 1_555
N2B C12B 1_555 1_555
C41B C42B 1_555 1_555

#END
