
#######################################################################
#
#                 Cambridge Crystallographic Data Centre
#                                CCDC 
#
#######################################################################
#
# If this CIF has been generated from an entry in the Cambridge 
# Structural Database, then it will include bibliographic, chemical, 
# crystal, experimental, refinement or atomic coordinate data resulting 
# from the CCDC's data processing and validation procedures.
#
#######################################################################

data_JAXPON
_chemical_formula_moiety         'C60 H66 N2 O12 S2,2(C6 H6)'
_chemical_name_systematic        
"2,17-bis(4-t-Butylbenzensulfonyl)-6,12,21,27-tetrakis(ethoxycarbonyl)-2,17-diaza(3.3)(3,3')(3,3')biphenylo(2)phane benzene clathrate"
_symmetry_cell_setting           triclinic
_symmetry_space_group_name_H-M   'P -1'
_symmetry_Int_Tables_number      2
_space_group_name_Hall           '-P 1'
loop_
_symmetry_equiv_pos_site_id
_symmetry_equiv_pos_as_xyz
1 x,y,z
2 -x,-y,-z
_cell_length_a                   10.2068(3)
_cell_length_b                   13.6082(3)
_cell_length_c                   13.8057(4)
_cell_angle_alpha                63.495(2)
_cell_angle_beta                 69.250(2)
_cell_angle_gamma                72.121(2)
_cell_volume                     1579.1
_exptl_crystal_colour            colorless
_exptl_crystal_description       prisms
_chemical_melting_point          249deg.C
_cell_formula_units_Z            1
_exptl_crystal_recrystallization_method benzene
loop_
_atom_site_label
_atom_site_type_symbol
_atom_site_fract_x
_atom_site_fract_y
_atom_site_fract_z
C1 C 0.63451(14) 0.48298(11) 0.78375(12)
H1 H 0.6425 0.4128 0.7751
H2 H 0.6125 0.4667 0.8647
N1 N 0.51768(11) 0.56616(9) 0.73781(9)
S1 S 0.37523(3) 0.60449(3) 0.82481(3)
O1 O 0.29455(10) 0.69996(8) 0.75672(8)
O2 O 0.42454(10) 0.61316(8) 0.90533(8)
C2 C 0.27564(13) 0.49573(11) 0.89442(11)
C3 C 0.30472(14) 0.40630(12) 0.98994(11)
H3 H 0.3722 0.4064 1.0228
C4 C 0.23416(15) 0.31692(12) 1.03674(11)
H4 H 0.2539 0.2562 1.1023
C5 C 0.13483(14) 0.31342(11) 0.99046(11)
C6 C 0.10412(16) 0.40683(13) 0.89761(12)
H5 H 0.0338 0.4086 0.8663
C7 C 0.17293(16) 0.49712(13) 0.84968(12)
H6 H 0.1498 0.5597 0.7864
C8 C 0.07070(15) 0.20829(12) 1.03563(12)
C9 C -0.06666(16) 0.23326(14) 1.00109(13)
H7 H -0.1074 0.1652 1.0355
H8 H -0.0454 0.2595 0.9194
H9 H -0.1350 0.2911 1.0262
C10 C 0.03836(17) 0.15331(13) 1.16379(12)
H10 H -0.0089 0.0899 1.1903
H11 H -0.0241 0.2078 1.1961
H12 H 0.1275 0.1271 1.1868
C11 C 0.18058(18) 0.12602(13) 0.98501(14)
H13 H 0.1424 0.0580 1.0118
H14 H 0.2687 0.1072 1.0078
H15 H 0.2006 0.1605 0.9032
C12 C 0.49877(15) 0.56465(12) 0.63711(11)
H16 H 0.4044 0.6084 0.6254
H17 H 0.5015 0.4869 0.6488
C13 C 0.61402(14) 0.61304(11) 0.53398(11)
C14 C 0.60605(14) 0.72844(11) 0.48004(11)
H18 H 0.5270 0.7773 0.5063
C15 C 0.71512(14) 0.77132(11) 0.38744(11)
C16 C 0.83217(14) 0.70000(11) 0.35004(11)
H19 H 0.9061 0.7306 0.2871
C17 C 0.84303(13) 0.58430(11) 0.40324(10)
C18 C 0.73017(14) 0.54290(11) 0.49458(11)
H20 H 0.7334 0.4645 0.5305
C19 C 0.71293(14) 0.89391(11) 0.32205(11)
O3 O 0.81395(11) 0.93228(8) 0.25115(9)
O4 O 0.58583(10) 0.95539(7) 0.35028(8)
C20 C 0.57408(16) 1.07571(11) 0.28558(12)
H21 H 0.6638 1.0993 0.2718
H22 H 0.4961 1.1161 0.3289
C21 C 0.54480(19) 1.10500(13) 0.17589(13)
H23 H 0.5357 1.1859 0.1342
H24 H 0.4561 1.0815 0.1896
H25 H 0.6235 1.0668 0.1321
C22 C 0.97145(13) 0.50900(11) 0.36547(10)
C23 C 0.96751(14) 0.39894(11) 0.38816(10)
H26 H 0.8802 0.3719 0.4266
C24 C 1.08946(14) 0.32853(11) 0.35523(11)
C25 C 1.21833(14) 0.36647(11) 0.29791(11)
H27 H 1.3012 0.3183 0.2746
C26 C 0.77556(14) 0.52408(11) 0.72499(11)
C27 C 1.10260(14) 0.54501(11) 0.30914(10)
H28 H 1.1081 0.6192 0.2939
C28 C 1.07883(14) 0.20983(11) 0.38952(11)
O5 O 0.96886(11) 0.17428(8) 0.44042(9)
O6 O 1.20426(10) 0.14772(8) 0.36041(8)
C29 C 1.20732(16) 0.02721(11) 0.40669(12)
H29 H 1.2814 -0.0065 0.3555
H30 H 1.1142 0.0128 0.4141
C30 C 1.23874(17) -0.02470(12) 0.51946(13)
H31 H 1.2420 -0.1054 0.5496
H32 H 1.1639 0.0075 0.5704
H33 H 1.3308 -0.0101 0.5118
C26A C 1.22444(14) 0.47592(11) 0.27501(11)
C1A C 1.36549(14) 0.51702(11) 0.21625(12)
H1A H 1.3575 0.5872 0.2249
H2A H 1.3875 0.5333 0.1353
N1A N 1.48232(11) 0.43384(9) 0.26219(9)
S1A S 1.62477(3) 0.39551(3) 0.17519(3)
O1A O 1.70545(10) 0.30004(8) 0.24328(8)
O2A O 1.57546(10) 0.38684(8) 0.09467(8)
C2A C 1.72436(13) 0.50427(11) 0.10558(11)
C3A C 1.69528(14) 0.59370(12) 0.01006(11)
H3A H 1.6278 0.5936 -0.0228
C4A C 1.76584(15) 0.68308(12) -0.03674(11)
H4A H 1.7461 0.7438 -0.1023
C5A C 1.86517(14) 0.68658(11) 0.00954(11)
C6A C 1.89588(16) 0.59317(13) 0.10239(12)
H5A H 1.9662 0.5914 0.1337
C7A C 1.82707(16) 0.50288(13) 0.15032(12)
H6A H 1.8502 0.4403 0.2136
C8A C 1.92930(15) 0.79171(12) -0.03563(12)
C9A C 2.06666(16) 0.76674(14) -0.00109(13)
H7A H 2.1074 0.8348 -0.0355
H8A H 2.0454 0.7405 0.0806
H9A H 2.1350 0.7089 -0.0262
C10A C 1.96164(17) 0.84669(13) -0.16379(12)
H10A H 2.0089 0.9101 -0.1903
H11A H 2.0241 0.7922 -0.1961
H12A H 1.8725 0.8729 -0.1868
C11A C 1.81942(18) 0.87398(13) 0.01499(14)
H13A H 1.8576 0.9420 -0.0118
H14A H 1.7313 0.8928 -0.0078
H15A H 1.7994 0.8395 0.0968
C12A C 1.50123(15) 0.43535(12) 0.36289(11)
H16A H 1.5956 0.3916 0.3746
H17A H 1.4985 0.5131 0.3512
C13A C 1.38598(14) 0.38696(11) 0.46602(11)
C14A C 1.39395(14) 0.27156(11) 0.51996(11)
H18A H 1.4730 0.2227 0.4937
C15A C 1.28488(14) 0.22868(11) 0.61256(11)
C16A C 1.16783(14) 0.30000(11) 0.64996(11)
H19A H 1.0939 0.2694 0.7129
C17A C 1.15697(13) 0.41570(11) 0.59676(10)
C18A C 1.26983(14) 0.45710(11) 0.50542(11)
H20A H 1.2666 0.5355 0.4695
C22A C 1.02855(13) 0.49100(11) 0.63453(10)
C23A C 1.03249(14) 0.60106(11) 0.61184(10)
H26A H 1.1198 0.6281 0.5734
C24A C 0.91054(14) 0.67147(11) 0.64477(11)
C25A C 0.78167(14) 0.63353(11) 0.70209(11)
H27A H 0.6988 0.6817 0.7254
C27A C 0.89740(14) 0.45499(11) 0.69086(10)
H28A H 0.8919 0.3808 0.7061
C28A C 0.92117(14) 0.79017(11) 0.61048(11)
O5A O 1.03114(11) 0.82572(8) 0.55958(9)
O6A O 0.79574(10) 0.85228(8) 0.63959(8)
C29A C 0.79268(16) 0.97279(11) 0.59331(12)
H29A H 0.7186 1.0065 0.6445
H30A H 0.8858 0.9872 0.5859
C30A C 0.76126(17) 1.02470(12) 0.48054(13)
H31A H 0.7580 1.1054 0.4504
H32A H 0.8361 0.9925 0.4296
H33A H 0.6692 1.0101 0.4882
C19A C 1.28707(14) 0.10609(11) 0.67795(11)
O3A O 1.18605(11) 0.06772(8) 0.74885(9)
O4A O 1.41417(10) 0.04461(7) 0.64972(8)
C20A C 1.42592(16) -0.07571(11) 0.71442(12)
H21A H 1.3362 -0.0993 0.7282
H22A H 1.5039 -0.1161 0.6711
C21A C 1.45520(19) -0.10500(13) 0.82411(13)
H23A H 1.4643 -0.1859 0.8658
H24A H 1.5439 -0.0815 0.8104
H25A H 1.3765 -0.0668 0.8679
C31 C 0.8076(2) 0.18892(14) 0.68362(14)
H34 H 0.8932 0.1817 0.6280
C32 C 0.81401(18) 0.16472(13) 0.78941(14)
H35 H 0.9036 0.1405 0.8067
C33 C 0.6917(2) 0.17528(15) 0.87028(14)
H36 H 0.6965 0.1595 0.9434
C34 C 0.5613(2) 0.20902(16) 0.84538(18)
H37 H 0.4759 0.2154 0.9015
C35 C 0.5560(2) 0.23363(16) 0.7369(2)
H38 H 0.4671 0.2574 0.7186
C36 C 0.6810(2) 0.22307(15) 0.65693(16)
H39 H 0.6785 0.2397 0.5830
loop_
_geom_bond_atom_site_label_1
_geom_bond_atom_site_label_2
_geom_bond_site_symmetry_1
_geom_bond_site_symmetry_2
C1 H1 1_555 1_555
H2 C1 1_555 1_555
N1 C1 1_555 1_555
S1 N1 1_555 1_555
O1 S1 1_555 1_555
O2 S1 1_555 1_555
C2 S1 1_555 1_555
C3 C2 1_555 1_555
H3 C3 1_555 1_555
C4 C3 1_555 1_555
H4 C4 1_555 1_555
C5 C4 1_555 1_555
C6 C5 1_555 1_555
H5 C6 1_555 1_555
C7 C2 1_555 1_555
H6 C7 1_555 1_555
C8 C5 1_555 1_555
C9 C8 1_555 1_555
H7 C9 1_555 1_555
H8 C9 1_555 1_555
H9 C9 1_555 1_555
C10 C8 1_555 1_555
H10 C10 1_555 1_555
H11 C10 1_555 1_555
H12 C10 1_555 1_555
C11 C8 1_555 1_555
H13 C11 1_555 1_555
H14 C11 1_555 1_555
H15 C11 1_555 1_555
C12 N1 1_555 1_555
H16 C12 1_555 1_555
H17 C12 1_555 1_555
C13 C12 1_555 1_555
C14 C13 1_555 1_555
H18 C14 1_555 1_555
C15 C14 1_555 1_555
C16 C15 1_555 1_555
H19 C16 1_555 1_555
C17 C16 1_555 1_555
C18 C13 1_555 1_555
H20 C18 1_555 1_555
C19 C15 1_555 1_555
O3 C19 1_555 1_555
O4 C19 1_555 1_555
C20 O4 1_555 1_555
H21 C20 1_555 1_555
H22 C20 1_555 1_555
C21 C20 1_555 1_555
H23 C21 1_555 1_555
H24 C21 1_555 1_555
H25 C21 1_555 1_555
C22 C17 1_555 1_555
C23 C22 1_555 1_555
H26 C23 1_555 1_555
C24 C23 1_555 1_555
C25 C24 1_555 1_555
H27 C25 1_555 1_555
C26 C1 1_555 1_555
C27 C22 1_555 1_555
H28 C27 1_555 1_555
C28 C24 1_555 1_555
O5 C28 1_555 1_555
O6 C28 1_555 1_555
C29 O6 1_555 1_555
H29 C29 1_555 1_555
H30 C29 1_555 1_555
C30 C29 1_555 1_555
H31 C30 1_555 1_555
H32 C30 1_555 1_555
H33 C30 1_555 1_555
C31 H34 1_555 1_555
C32 C31 1_555 1_555
H35 C32 1_555 1_555
C33 C32 1_555 1_555
H36 C33 1_555 1_555
C34 C33 1_555 1_555
H37 C34 1_555 1_555
C35 C34 1_555 1_555
H38 C35 1_555 1_555
C36 C31 1_555 1_555
H39 C36 1_555 1_555
C26A C25 1_555 1_555
C1A C26A 1_555 1_555
H1A C1A 1_555 1_555
H2A C1A 1_555 1_555
N1A C1A 1_555 1_555
S1A N1A 1_555 1_555
O1A S1A 1_555 1_555
O2A S1A 1_555 1_555
C2A S1A 1_555 1_555
C3A C2A 1_555 1_555
H3A C3A 1_555 1_555
C4A C3A 1_555 1_555
H4A C4A 1_555 1_555
C5A C4A 1_555 1_555
C6A C5A 1_555 1_555
H5A C6A 1_555 1_555
C7A C2A 1_555 1_555
H6A C7A 1_555 1_555
C8A C5A 1_555 1_555
C9A C8A 1_555 1_555
H7A C9A 1_555 1_555
H8A C9A 1_555 1_555
H9A C9A 1_555 1_555
C10A C8A 1_555 1_555
H10A C10A 1_555 1_555
H11A C10A 1_555 1_555
H12A C10A 1_555 1_555
C11A C8A 1_555 1_555
H13A C11A 1_555 1_555
H14A C11A 1_555 1_555
H15A C11A 1_555 1_555
C12A N1A 1_555 1_555
H16A C12A 1_555 1_555
H17A C12A 1_555 1_555
C13A C12A 1_555 1_555
C14A C13A 1_555 1_555
H18A C14A 1_555 1_555
C15A C14A 1_555 1_555
C16A C15A 1_555 1_555
H19A C16A 1_555 1_555
C17A C16A 1_555 1_555
C18A C13A 1_555 1_555
H20A C18A 1_555 1_555
C22A C17A 1_555 1_555
C23A C22A 1_555 1_555
H26A C23A 1_555 1_555
C24A C23A 1_555 1_555
C25A C26 1_555 1_555
H27A C25A 1_555 1_555
C27A C26 1_555 1_555
H28A C27A 1_555 1_555
C28A C24A 1_555 1_555
O5A C28A 1_555 1_555
O6A C28A 1_555 1_555
C29A O6A 1_555 1_555
H29A C29A 1_555 1_555
H30A C29A 1_555 1_555
C30A C29A 1_555 1_555
H31A C30A 1_555 1_555
H32A C30A 1_555 1_555
H33A C30A 1_555 1_555
C19A C15A 1_555 1_555
O3A C19A 1_555 1_555
O4A C19A 1_555 1_555
C20A O4A 1_555 1_555
H21A C20A 1_555 1_555
H22A C20A 1_555 1_555
C21A C20A 1_555 1_555
H23A C21A 1_555 1_555
H24A C21A 1_555 1_555
H25A C21A 1_555 1_555
C6 C7 1_555 1_555
C17 C18 1_555 1_555
C27 C26A 1_555 1_555
C35 C36 1_555 1_555
C6A C7A 1_555 1_555
C17A C18A 1_555 1_555
C22A C27A 1_555 1_555
C24A C25A 1_555 1_555

#END
