
#######################################################################
#
#                 Cambridge Crystallographic Data Centre
#                                CCDC 
#
#######################################################################
#
# If this CIF has been generated from an entry in the Cambridge 
# Structural Database, then it will include bibliographic, chemical, 
# crystal, experimental, refinement or atomic coordinate data resulting 
# from the CCDC's data processing and validation procedures.
#
#######################################################################

data_JAXQEF01
_chemical_formula_moiety         'C14 H12 N2 O2,C3 H7 N1 O1'
_chemical_name_systematic        
"N'-(4-Hydroxybenzylidene)benzohydrazide dimethylformamide solvate"
_symmetry_cell_setting           orthorhombic
_symmetry_space_group_name_H-M   'P b c a'
_symmetry_Int_Tables_number      61
_space_group_name_Hall           '-P 2ac 2ab'
loop_
_symmetry_equiv_pos_site_id
_symmetry_equiv_pos_as_xyz
1 x,y,z
2 1/2+x,1/2-y,-z
3 -x,1/2+y,1/2-z
4 1/2-x,-y,1/2+z
5 -x,-y,-z
6 1/2-x,1/2+y,z
7 x,1/2-y,1/2+z
8 1/2+x,y,1/2-z
_cell_length_a                   15.514(3)
_cell_length_b                   9.3184(16)
_cell_length_c                   22.921(4)
_cell_angle_alpha                90
_cell_angle_beta                 90
_cell_angle_gamma                90
_cell_volume                     3313.59
_exptl_crystal_colour            colorless
_exptl_crystal_description       block
_cell_formula_units_Z            8
loop_
_atom_site_label
_atom_site_type_symbol
_atom_site_fract_x
_atom_site_fract_y
_atom_site_fract_z
O1 O 1.13549(10) 0.6752(2) 0.11241(7)
C1 C 1.06462(14) 0.6872(2) 0.13448(11)
H1 H 1.0542 0.6341 0.1681
N1 N 1.00115(11) 0.76851(19) 0.11514(8)
C2 C 0.91888(16) 0.7770(3) 0.14544(15)
H2 H 0.9171 0.7059 0.1757
H3 H 0.8729 0.7599 0.1183
H4 H 0.9124 0.8706 0.1623
C3 C 1.0136(2) 0.8586(3) 0.06418(13)
H5 H 1.0703 0.8998 0.0652
H6 H 0.9713 0.9339 0.0641
H7 H 1.0073 0.8017 0.0295
O2 O 0.06956(9) -0.34241(14) 0.35128(6)
H8 H 0.0250 -0.3117 0.3660
C4 C 0.21230(12) -0.1680(2) 0.24892(8)
H9 H 0.2692 -0.1757 0.2366
C5 C 0.19212(12) 0.0285(2) 0.17802(8)
H10 H 0.2498 0.0221 0.1672
N2 N 0.14294(9) 0.11726(17) 0.15199(6)
N3 N 0.18071(10) 0.19694(18) 0.10800(7)
C6 C 0.04407(11) -0.1454(2) 0.28647(8)
H11 H -0.0127 -0.1375 0.2991
O3 O 0.05069(9) 0.28870(19) 0.08430(7)
C7 C 0.09758(11) -0.24926(18) 0.31018(7)
C8 C 0.18203(12) -0.2604(2) 0.29087(8)
H12 H 0.2182 -0.3304 0.3063
C9 C 0.15951(11) -0.06298(18) 0.22445(7)
C10 C 0.12864(12) 0.2805(2) 0.07517(8)
C11 C 0.16856(12) 0.35928(19) 0.02575(8)
C12 C 0.07491(12) -0.0537(2) 0.24420(8)
H13 H 0.0385 0.0156 0.2286
C13 C 0.11791(16) 0.4567(3) -0.00358(11)
H14 H 0.0624 0.4746 0.0098
C14 C 0.14708(19) 0.5284(3) -0.05211(12)
H15 H 0.1114 0.5932 -0.0713
C15 C 0.22852(18) 0.5041(3) -0.07190(10)
H16 H 0.2487 0.5518 -0.1048
C16 C 0.28015(17) 0.4098(3) -0.04325(11)
H17 H 0.3361 0.3943 -0.0564
C17 C 0.25047(15) 0.3364(3) 0.00542(10)
H18 H 0.2863 0.2713 0.0243
loop_
_geom_bond_atom_site_label_1
_geom_bond_atom_site_label_2
_geom_bond_site_symmetry_1
_geom_bond_site_symmetry_2
O1 C1 1_555 1_555
C1 H1 1_555 1_555
N1 C1 1_555 1_555
C2 N1 1_555 1_555
H2 C2 1_555 1_555
H3 C2 1_555 1_555
H4 C2 1_555 1_555
C3 N1 1_555 1_555
H5 C3 1_555 1_555
H6 C3 1_555 1_555
H7 C3 1_555 1_555
O2 H8 1_555 1_555
C4 H9 1_555 1_555
C5 H10 1_555 1_555
N2 C5 1_555 1_555
N3 N2 1_555 1_555
C6 H11 1_555 1_555
O3 C10 1_555 1_555
C7 O2 1_555 1_555
C8 C4 1_555 1_555
H12 C8 1_555 1_555
C9 C4 1_555 1_555
C10 N3 1_555 1_555
C11 C10 1_555 1_555
C12 C6 1_555 1_555
H13 C12 1_555 1_555
C13 C11 1_555 1_555
H14 C13 1_555 1_555
C14 C13 1_555 1_555
H15 C14 1_555 1_555
C15 C14 1_555 1_555
H16 C15 1_555 1_555
C16 C15 1_555 1_555
H17 C16 1_555 1_555
C17 C11 1_555 1_555
H18 C17 1_555 1_555
C5 C9 1_555 1_555
C6 C7 1_555 1_555
C7 C8 1_555 1_555
C9 C12 1_555 1_555
C16 C17 1_555 1_555

#END
