
#######################################################################
#
#                 Cambridge Crystallographic Data Centre
#                                CCDC 
#
#######################################################################
#
# If this CIF has been generated from an entry in the Cambridge 
# Structural Database, then it will include bibliographic, chemical, 
# crystal, experimental, refinement or atomic coordinate data resulting 
# from the CCDC's data processing and validation procedures.
#
#######################################################################

data_JAXQAA
_chemical_formula_moiety         'C20 H20 Br2 O4'
_chemical_name_systematic        
Diethyl-5,5'-bis(bromomethyl)biphenyl-3,3'-dicarboxylate
_symmetry_cell_setting           triclinic
_symmetry_space_group_name_H-M   'P -1'
_symmetry_Int_Tables_number      2
_space_group_name_Hall           '-P 1'
loop_
_symmetry_equiv_pos_site_id
_symmetry_equiv_pos_as_xyz
1 x,y,z
2 -x,-y,-z
_cell_length_a                   4.8150(2)
_cell_length_b                   8.9023(4)
_cell_length_c                   12.1859(4)
_cell_angle_alpha                94.148(4)
_cell_angle_beta                 94.625(2)
_cell_angle_gamma                102.489(2)
_cell_volume                     506.155
_exptl_crystal_colour            colorless
_exptl_crystal_description       plates
_chemical_melting_point          173deg.C
_cell_formula_units_Z            1
loop_
_atom_site_label
_atom_site_type_symbol
_atom_site_fract_x
_atom_site_fract_y
_atom_site_fract_z
Br1 Br 0.5587(3) 0.21068(18) 0.17128(9)
C1 C 0.1242(11) 0.0651(7) 0.4954(5)
C2 C 0.1520(12) 0.1351(7) 0.3961(6)
H1 H 0.0160 0.0989 0.3361
C3 C 0.3806(13) 0.2579(8) 0.3861(6)
C4 C 0.5870(12) 0.3095(7) 0.4728(6)
H2 H 0.7414 0.3900 0.4651
C5 C 0.5674(11) 0.2438(7) 0.5699(5)
C6 C 0.3370(12) 0.1196(7) 0.5822(6)
H3 H 0.3273 0.0741 0.6485
C7 C 0.3985(16) 0.3303(9) 0.2801(7)
H4 H 0.5172 0.4340 0.2933
H5 H 0.2089 0.3379 0.2511
C8 C 0.7941(13) 0.3029(7) 0.6645(6)
O1 O 1.0072(16) 0.3968(9) 0.6540(7)
O2 O 0.7949(19) 0.2033(10) 0.7434(6)
C9 C 1.016(3) 0.2497(18) 0.8329(10)
H6 H 1.1895 0.3053 0.8056
H7 H 1.0571 0.1591 0.8647
C10 C 0.924(7) 0.353(3) 0.9209(19)
H8 H 1.0725 0.3827 0.9807
H9 H 0.7529 0.2971 0.9482
H10 H 0.8865 0.4430 0.8896
C1A C -0.1242(11) -0.0651(7) 0.5046(5)
C2A C -0.1520(12) -0.1351(7) 0.6039(6)
H1A H -0.0160 -0.0989 0.6639
C3A C -0.3806(13) -0.2579(8) 0.6139(6)
C4A C -0.5870(12) -0.3095(7) 0.5272(6)
H2A H -0.7414 -0.3900 0.5349
C5A C -0.5674(11) -0.2438(7) 0.4301(5)
C6A C -0.3370(12) -0.1196(7) 0.4178(6)
H3A H -0.3273 -0.0741 0.3515
C8A C -0.7941(13) -0.3029(7) 0.3355(6)
O1A O -1.0072(16) -0.3968(9) 0.3460(7)
O2A O -0.7949(19) -0.2033(10) 0.2566(6)
C9A C -1.016(3) -0.2497(18) 0.1671(10)
H6A H -1.1895 -0.3053 0.1944
H7A H -1.0571 -0.1591 0.1353
C10A C -0.924(7) -0.353(3) 0.0791(19)
H8A H -1.0725 -0.3827 0.0193
H9A H -0.7529 -0.2971 0.0518
H10A H -0.8865 -0.4430 0.1104
C7A C -0.3985(16) -0.3303(9) 0.7199(7)
Br1A Br -0.5587(3) -0.21068(18) 0.82872(9)
H4A H -0.5172 -0.4340 0.7067
H5A H -0.2089 -0.3379 0.7489
O3? O 0.950(2) 0.4318(11) 0.6669(9)
O4? O 0.716(2) 0.2488(13) 0.7607(7)
C11? C 0.922(4) 0.304(2) 0.8532(11)
H11? H 0.8431 0.3662 0.9059
H12? H 1.0898 0.3700 0.8289
C12? C 1.010(9) 0.174(4) 0.909(3)
H13? H 1.1457 0.2156 0.9719
H14? H 1.0946 0.1147 0.8582
H15? H 0.8444 0.1087 0.9337
loop_
_geom_bond_atom_site_label_1
_geom_bond_atom_site_label_2
_geom_bond_site_symmetry_1
_geom_bond_site_symmetry_2
Br1 C7 1_555 1_555
C1 C2 1_555 1_555
C2 H1 1_555 1_555
C3 C2 1_555 1_555
C4 C3 1_555 1_555
H2 C4 1_555 1_555
C5 C4 1_555 1_555
C6 C1 1_555 1_555
H3 C6 1_555 1_555
C7 C3 1_555 1_555
H4 C7 1_555 1_555
H5 C7 1_555 1_555
C8 C5 1_555 1_555
O1 C8 1_555 1_555
O2 C8 1_555 1_555
C9 O2 1_555 1_555
H6 C9 1_555 1_555
H7 C9 1_555 1_555
C10 C9 1_555 1_555
H8 C10 1_555 1_555
H9 C10 1_555 1_555
H10 C10 1_555 1_555
C1A C1 1_555 1_555
C2A C1A 1_555 1_555
H1A C2A 1_555 1_555
C3A C2A 1_555 1_555
C4A C3A 1_555 1_555
H2A C4A 1_555 1_555
C5A C4A 1_555 1_555
C6A C1A 1_555 1_555
H3A C6A 1_555 1_555
C8A C5A 1_555 1_555
O1A C8A 1_555 1_555
O2A C8A 1_555 1_555
C9A O2A 1_555 1_555
H6A C9A 1_555 1_555
H7A C9A 1_555 1_555
C10A C9A 1_555 1_555
H8A C10A 1_555 1_555
H9A C10A 1_555 1_555
H10A C10A 1_555 1_555
C7A C3A 1_555 1_555
Br1A C7A 1_555 1_555
H4A C7A 1_555 1_555
H5A C7A 1_555 1_555
C5 C6 1_555 1_555
C5A C6A 1_555 1_555

#END
