
#######################################################################
#
#                 Cambridge Crystallographic Data Centre
#                                CCDC 
#
#######################################################################
#
# If this CIF has been generated from an entry in the Cambridge 
# Structural Database, then it will include bibliographic, chemical, 
# crystal, experimental, refinement or atomic coordinate data resulting 
# from the CCDC's data processing and validation procedures.
#
#######################################################################

data_JAXRIJ
_chemical_formula_moiety         'C28 H54 N8 Na2'
_chemical_name_systematic        
(\m~2~-2,2'-Bipyridine)-bis((pentamethyldiethylenetriamine)-sodium)
_symmetry_cell_setting           monoclinic
_symmetry_space_group_name_H-M   'P 21/c'
_symmetry_Int_Tables_number      14
_space_group_name_Hall           '-P 2ybc'
loop_
_symmetry_equiv_pos_site_id
_symmetry_equiv_pos_as_xyz
1 x,y,z
2 x,1/2-y,1/2+z
3 -x,-y,-z
4 -x,1/2+y,1/2-z
_cell_length_a                   13.227(2)
_cell_length_b                   14.276(2)
_cell_length_c                   18.032(2)
_cell_angle_alpha                90
_cell_angle_beta                 105.380(8)
_cell_angle_gamma                90
_cell_volume                     3283.02
_exptl_crystal_colour            'deep red'
_exptl_crystal_description       block
_cell_formula_units_Z            4
loop_
_atom_site_label
_atom_site_type_symbol
_atom_site_fract_x
_atom_site_fract_y
_atom_site_fract_z
N1 N 0.7343(2) 0.6255(2) -0.06106(14)
C1 C 0.7340(2) 0.5331(2) -0.0729(2)
H1 H 0.7263(2) 0.4946(2) -0.0317(2)
C2 C 0.7433(3) 0.4878(3) -0.1374(2)
H2 H 0.7381(3) 0.4215(3) -0.1419(2)
C3 C 0.7612(3) 0.5441(3) -0.1969(2)
H3 H 0.7737(3) 0.5158(3) -0.2413(2)
C4 C 0.7605(3) 0.6373(3) -0.1907(2)
H4 H 0.7721(3) 0.6743(3) -0.2315(2)
C5 C 0.7428(2) 0.6840(2) -0.1240(2)
N2 N 0.7252(2) 0.8188(2) -0.0464(2)
C6 C 0.7357(2) 0.7796(2) -0.1173(2)
C7 C 0.7377(3) 0.8448(3) -0.1784(2)
H5 H 0.7371(3) 0.8208(3) -0.2276(2)
C8 C 0.7403(3) 0.9375(3) -0.1681(2)
H6 H 0.7435(3) 0.9782(3) -0.2091(2)
C9 C 0.7383(3) 0.9746(3) -0.0959(3)
H7 H 0.7431(3) 1.0401(3) -0.0861(3)
C10 C 0.7290(3) 0.9122(2) -0.0407(2)
H8 H 0.7249(3) 0.9379(2) 0.0070(2)
Na1 Na 0.86563(9) 0.72475(9) 0.02356(7)
N3 N 0.9217(3) 0.6155(2) 0.1327(2)
N4 N 0.9947(3) 0.8082(3) 0.1372(2)
N5 N 1.0249(2) 0.7741(2) -0.0182(2)
C11 C 0.8229(6) 0.5648(6) 0.1429(5)
H9 H 0.7779(6) 0.6099(6) 0.1600(5)
H10 H 0.8439(6) 0.5152(6) 0.1814(5)
H11 H 0.7843(6) 0.5373(6) 0.0937(5)
C13 C 0.9722(4) 0.5383(4) 0.1087(3)
H15 H 0.9950(4) 0.4941(4) 0.1514(3)
H16 H 1.0333(4) 0.5604(4) 0.0926(3)
H17 H 0.9232(4) 0.5070(4) 0.0654(3)
C14 C 0.9644(7) 0.6640(6) 0.2050(5)
H18 H 1.0228(7) 0.6256(6) 0.2358(5)
H19 H 0.9093(7) 0.6650(6) 0.2329(5)
C15 C 1.0030(7) 0.7593(6) 0.2042(4)
H20 H 0.9678(7) 0.7973(6) 0.2359(4)
H21 H 1.0785(7) 0.7580(6) 0.2318(4)
C18 C 0.9423(6) 0.8892(5) 0.1595(4)
H26 H 0.8815(6) 0.8682(5) 0.1765(4)
H27 H 0.9190(6) 0.9313(5) 0.1154(4)
H28 H 0.9913(6) 0.9224(5) 0.2017(4)
C19 C 1.0839(4) 0.8379(4) 0.1123(2)
H29 H 1.1457(4) 0.8358(4) 0.1575(2)
H30 H 1.0727(4) 0.9043(4) 0.0965(2)
C20 C 1.1112(5) 0.7865(5) 0.0491(3)
H31 H 1.1679(5) 0.8208(5) 0.0342(3)
H32 H 1.1389(5) 0.7241(5) 0.0683(3)
C22 C 1.0028(6) 0.8599(6) -0.0599(5)
H35 H 0.9440(6) 0.8507(6) -0.1055(5)
H36 H 1.0648(6) 0.8798(6) -0.0757(5)
H37 H 0.9844(6) 0.9081(6) -0.0270(5)
C23 C 1.0478(8) 0.7016(7) -0.0677(6)
H38 H 1.0629(8) 0.6427(7) -0.0390(6)
H39 H 1.1088(8) 0.7200(7) -0.0855(6)
H40 H 0.9871(8) 0.6929(7) -0.1122(6)
Na2 Na 0.58046(9) 0.71572(9) -0.05577(7)
N6 N 0.5037(2) 0.7784(2) 0.0478(2)
N7 N 0.4262(2) 0.8195(2) -0.1255(2)
N8 N 0.4453(2) 0.6164(2) -0.1428(2)
C26 C 0.4266(4) 0.7289(3) 0.0781(3)
H47 H 0.3648(4) 0.7144(3) 0.0359(3)
H48 H 0.4059(4) 0.7686(3) 0.1160(3)
H49 H 0.4574(4) 0.6706(3) 0.1028(3)
C27 C 0.5954(3) 0.7998(3) 0.1110(2)
H50 H 0.6253(3) 0.7414(3) 0.1361(2)
H51 H 0.5746(3) 0.8401(3) 0.1484(2)
H52 H 0.6479(3) 0.8321(3) 0.0909(2)
C28 C 0.4598(3) 0.8657(3) 0.0108(2)
H53 H 0.5175(3) 0.9049(3) 0.0024(2)
H54 H 0.4268(3) 0.9003(3) 0.0458(2)
C29 C 0.3795(3) 0.8515(3) -0.0652(2)
H55 H 0.3272(3) 0.8048(3) -0.0585(2)
H56 H 0.3422(3) 0.9113(3) -0.0813(2)
C30 C 0.4661(3) 0.8988(3) -0.1609(2)
H57 H 0.4970(3) 0.8757(3) -0.2012(2)
H58 H 0.5196(3) 0.9320(3) -0.1217(2)
H59 H 0.4083(3) 0.9417(3) -0.1836(2)
C31 C 0.3518(3) 0.7650(3) -0.1838(2)
H60 H 0.3733(3) 0.7669(3) -0.2324(2)
H61 H 0.2815(3) 0.7942(3) -0.1937(2)
C32 C 0.3448(3) 0.6645(3) -0.1604(2)
H62 H 0.3169(3) 0.6625(3) -0.1146(2)
H63 H 0.2947(3) 0.6309(3) -0.2026(2)
C33 C 0.4369(3) 0.5241(3) -0.1116(3)
H64 H 0.5053(3) 0.4929(3) -0.1001(3)
H65 H 0.3854(3) 0.4869(3) -0.1492(3)
H66 H 0.4143(3) 0.5300(3) -0.0642(3)
C34 C 0.4855(3) 0.6078(3) -0.2106(2)
H67 H 0.4912(3) 0.6701(3) -0.2319(2)
H68 H 0.4374(3) 0.5693(3) -0.2494(2)
H69 H 0.5548(3) 0.5781(3) -0.1960(2)
C12? C 0.8323(9) 0.6125(9) 0.1507(6)
H12? H 0.8147(9) 0.6753(9) 0.1653(6)
H13? H 0.8381(9) 0.5694(9) 0.1939(6)
H14? H 0.7772(9) 0.5906(9) 0.1063(6)
C16? C 1.0167(8) 0.6514(7) 0.1930(5)
H22? H 1.0015(8) 0.6419(7) 0.2434(5)
H23? H 1.0752(8) 0.6087(7) 0.1919(5)
C17? C 1.0477(7) 0.7227(6) 0.1938(5)
H24? H 1.1195(7) 0.7157(6) 0.1876(5)
H25? H 1.0560(7) 0.7460(6) 0.2468(5)
C21? C 1.0662(14) 0.8522(13) 0.0320(9)
H33? H 1.1336(14) 0.8712(13) 0.0223(9)
H34? H 1.0172(14) 0.9055(13) 0.0170(9)
C24? C 0.9945(8) 0.8191(8) -0.0935(6)
H41? H 0.9648(8) 0.7723(8) -0.1329(6)
H42? H 1.0563(8) 0.8478(8) -0.1044(6)
H43? H 0.9420(8) 0.8676(8) -0.0936(6)
C25? C 1.0852(15) 0.6918(12) -0.0285(11)
H44? H 1.0402(15) 0.6489(12) -0.0652(11)
H45? H 1.1117(15) 0.6599(12) 0.0211(11)
H46? H 1.1444(15) 0.7112(12) -0.0481(11)
loop_
_geom_bond_atom_site_label_1
_geom_bond_atom_site_label_2
_geom_bond_site_symmetry_1
_geom_bond_site_symmetry_2
N1 C1 1_555 1_555
C1 H1 1_555 1_555
C2 C1 1_555 1_555
H2 C2 1_555 1_555
C3 C2 1_555 1_555
H3 C3 1_555 1_555
C4 C3 1_555 1_555
H4 C4 1_555 1_555
C5 N1 1_555 1_555
N2 C6 1_555 1_555
C6 C5 1_555 1_555
C7 C6 1_555 1_555
H5 C7 1_555 1_555
C8 C7 1_555 1_555
H6 C8 1_555 1_555
C9 C8 1_555 1_555
H7 C9 1_555 1_555
C10 N2 1_555 1_555
H8 C10 1_555 1_555
Na1 N1 1_555 1_555
N3 Na1 1_555 1_555
N4 Na1 1_555 1_555
N5 Na1 1_555 1_555
C11 N3 1_555 1_555
H9 C11 1_555 1_555
H10 C11 1_555 1_555
H11 C11 1_555 1_555
C13 N3 1_555 1_555
H15 C13 1_555 1_555
H16 C13 1_555 1_555
H17 C13 1_555 1_555
C14 N3 1_555 1_555
H18 C14 1_555 1_555
H19 C14 1_555 1_555
C15 N4 1_555 1_555
H20 C15 1_555 1_555
H21 C15 1_555 1_555
C18 N4 1_555 1_555
H26 C18 1_555 1_555
H27 C18 1_555 1_555
H28 C18 1_555 1_555
C19 N4 1_555 1_555
H29 C19 1_555 1_555
H30 C19 1_555 1_555
C20 N5 1_555 1_555
H31 C20 1_555 1_555
H32 C20 1_555 1_555
C22 N5 1_555 1_555
H35 C22 1_555 1_555
H36 C22 1_555 1_555
H37 C22 1_555 1_555
C23 N5 1_555 1_555
H38 C23 1_555 1_555
H39 C23 1_555 1_555
H40 C23 1_555 1_555
Na2 N1 1_555 1_555
N6 Na2 1_555 1_555
N7 Na2 1_555 1_555
N8 Na2 1_555 1_555
C26 N6 1_555 1_555
H47 C26 1_555 1_555
H48 C26 1_555 1_555
H49 C26 1_555 1_555
C27 N6 1_555 1_555
H50 C27 1_555 1_555
H51 C27 1_555 1_555
H52 C27 1_555 1_555
C28 N6 1_555 1_555
H53 C28 1_555 1_555
H54 C28 1_555 1_555
C29 N7 1_555 1_555
H55 C29 1_555 1_555
H56 C29 1_555 1_555
C30 N7 1_555 1_555
H57 C30 1_555 1_555
H58 C30 1_555 1_555
H59 C30 1_555 1_555
C31 N7 1_555 1_555
H60 C31 1_555 1_555
H61 C31 1_555 1_555
C32 N8 1_555 1_555
H62 C32 1_555 1_555
H63 C32 1_555 1_555
C33 N8 1_555 1_555
H64 C33 1_555 1_555
H65 C33 1_555 1_555
H66 C33 1_555 1_555
C34 N8 1_555 1_555
H67 C34 1_555 1_555
H68 C34 1_555 1_555
H69 C34 1_555 1_555
C4 C5 1_555 1_555
C5 Na1 1_555 1_555
C5 Na2 1_555 1_555
N2 Na2 1_555 1_555
N2 Na1 1_555 1_555
C6 Na1 1_555 1_555
C6 Na2 1_555 1_555
C9 C10 1_555 1_555
C14 C15 1_555 1_555
C19 C20 1_555 1_555
C28 C29 1_555 1_555
C31 C32 1_555 1_555

#END
