
#######################################################################
#
#                 Cambridge Crystallographic Data Centre
#                                CCDC 
#
#######################################################################
#
# If this CIF has been generated from an entry in the Cambridge 
# Structural Database, then it will include bibliographic, chemical, 
# crystal, experimental, refinement or atomic coordinate data resulting 
# from the CCDC's data processing and validation procedures.
#
#######################################################################

data_JAXSIL
_chemical_formula_moiety         'C20 H22 O6'
_chemical_name_systematic        
4-(4-(4-Formyl-2-methoxyphenoxy)butoxy)-3-methoxybenzaldehyde
_symmetry_cell_setting           monoclinic
_symmetry_space_group_name_H-M   'P 21/c'
_symmetry_Int_Tables_number      14
_space_group_name_Hall           '-P 2ybc'
loop_
_symmetry_equiv_pos_site_id
_symmetry_equiv_pos_as_xyz
1 x,y,z
2 -x,1/2+y,1/2-z
3 -x,-y,-z
4 x,1/2-y,1/2+z
_cell_length_a                   7.4200(16)
_cell_length_b                   7.6630(16)
_cell_length_c                   16.407(3)
_cell_angle_alpha                90
_cell_angle_beta                 95.787(4)
_cell_angle_gamma                90
_cell_volume                     928.139
_exptl_crystal_colour            colorless
_exptl_crystal_description       block
_cell_formula_units_Z            2
_exptl_crystal_recrystallization_method acetonitrile
loop_
_atom_site_label
_atom_site_type_symbol
_atom_site_fract_x
_atom_site_fract_y
_atom_site_fract_z
O1 O 0.34776(14) 0.12609(14) 0.93658(7)
O2 O 0.58088(16) 0.37044(15) 0.93058(8)
O3 O 0.9952(2) 0.1593(2) 0.70978(12)
C1 C 0.4770(2) 0.0965(2) 0.88525(9)
C2 C 0.4892(2) -0.0514(2) 0.83826(10)
H1 H 0.4070 -0.1421 0.8416
C3 C 0.6242(2) -0.0645(2) 0.78607(11)
H2 H 0.6323 -0.1647 0.7547
C4 C 0.7463(2) 0.0687(2) 0.78007(10)
C5 C 0.7368(2) 0.2177(2) 0.82858(10)
H3 H 0.8201 0.3074 0.8252
C6 C 0.6049(2) 0.2321(2) 0.88113(9)
C7 C 0.7032(3) 0.5134(2) 0.92870(14)
H4 H 0.8244 0.4739 0.9446
H5 H 0.6715 0.6021 0.9660
H6 H 0.6961 0.5604 0.8742
C8 C 0.8809(3) 0.0528(3) 0.72112(13)
H7 H 0.8778 -0.0483 0.6897
C9 C 0.2067(2) -0.0015(2) 0.93851(10)
H8 H 0.2574 -0.1129 0.9573
H9 H 0.1441 -0.0171 0.8842
C10 C 0.0776(2) 0.0643(2) 0.99644(10)
H10 H 0.0284 0.1758 0.9771
H11 H 0.1426 0.0822 1.0501
O1B O -0.34776(14) -0.12609(14) 1.06342(7)
O2B O -0.58088(16) -0.37044(15) 1.06942(8)
O3B O -0.9952(2) -0.1593(2) 1.29022(12)
C1B C -0.4770(2) -0.0965(2) 1.11475(9)
C2B C -0.4892(2) 0.0514(2) 1.16174(10)
H1B H -0.4070 0.1421 1.1584
C3B C -0.6242(2) 0.0645(2) 1.21393(11)
H2B H -0.6323 0.1647 1.2453
C4B C -0.7463(2) -0.0687(2) 1.21993(10)
C5B C -0.7368(2) -0.2177(2) 1.17142(10)
H3B H -0.8201 -0.3074 1.1748
C6B C -0.6049(2) -0.2321(2) 1.11887(9)
C7B C -0.7032(3) -0.5134(2) 1.07130(14)
H4B H -0.8244 -0.4739 1.0554
H5B H -0.6715 -0.6021 1.0340
H6B H -0.6961 -0.5604 1.1258
C8B C -0.8809(3) -0.0528(3) 1.27888(13)
H7B H -0.8778 0.0483 1.3103
C9B C -0.2067(2) 0.0015(2) 1.06149(10)
H8B H -0.2574 0.1129 1.0427
H9B H -0.1441 0.0171 1.1158
C10B C -0.0776(2) -0.0643(2) 1.00356(10)
H10B H -0.0284 -0.1758 1.0229
H11B H -0.1426 -0.0822 0.9499
loop_
_geom_bond_atom_site_label_1
_geom_bond_atom_site_label_2
_geom_bond_site_symmetry_1
_geom_bond_site_symmetry_2
O1 C1 1_555 1_555
O2 C6 1_555 1_555
O3 C8 1_555 1_555
C1 C2 1_555 1_555
C2 H1 1_555 1_555
C3 C2 1_555 1_555
H2 C3 1_555 1_555
C4 C3 1_555 1_555
C5 C4 1_555 1_555
H3 C5 1_555 1_555
C6 C1 1_555 1_555
C7 O2 1_555 1_555
H4 C7 1_555 1_555
H5 C7 1_555 1_555
H6 C7 1_555 1_555
C8 C4 1_555 1_555
H7 C8 1_555 1_555
C9 O1 1_555 1_555
H8 C9 1_555 1_555
H9 C9 1_555 1_555
C10 C9 1_555 1_555
H10 C10 1_555 1_555
H11 C10 1_555 1_555
O1B C1B 1_555 1_555
O2B C6B 1_555 1_555
O3B C8B 1_555 1_555
C1B C2B 1_555 1_555
C2B H1B 1_555 1_555
C3B C2B 1_555 1_555
H2B C3B 1_555 1_555
C4B C3B 1_555 1_555
C5B C4B 1_555 1_555
H3B C5B 1_555 1_555
C6B C1B 1_555 1_555
C7B O2B 1_555 1_555
H4B C7B 1_555 1_555
H5B C7B 1_555 1_555
H6B C7B 1_555 1_555
C8B C4B 1_555 1_555
H7B C8B 1_555 1_555
C9B O1B 1_555 1_555
H8B C9B 1_555 1_555
H9B C9B 1_555 1_555
C10B C10 1_555 1_555
H10B C10B 1_555 1_555
H11B C10B 1_555 1_555
C5 C6 1_555 1_555
C5B C6B 1_555 1_555
C9B C10B 1_555 1_555

#END
