
#######################################################################
#
#                 Cambridge Crystallographic Data Centre
#                                CCDC 
#
#######################################################################
#
# If this CIF has been generated from an entry in the Cambridge 
# Structural Database, then it will include bibliographic, chemical, 
# crystal, experimental, refinement or atomic coordinate data resulting 
# from the CCDC's data processing and validation procedures.
#
#######################################################################

data_JAXTAE
_chemical_formula_moiety         'C14 H10 N4 O4'
_chemical_name_systematic        (E,E)-N,N'-bis(3-Nitrobenzylidene)hydrazine
_symmetry_cell_setting           monoclinic
_symmetry_space_group_name_H-M   'P 21/n'
_symmetry_Int_Tables_number      14
_space_group_name_Hall           '-P 2yn'
loop_
_symmetry_equiv_pos_site_id
_symmetry_equiv_pos_as_xyz
1 x,y,z
2 1/2-x,1/2+y,1/2-z
3 -x,-y,-z
4 1/2+x,1/2-y,1/2+z
_cell_length_a                   6.9694(19)
_cell_length_b                   7.833(2)
_cell_length_c                   12.990(4)
_cell_angle_alpha                90
_cell_angle_beta                 105.175(4)
_cell_angle_gamma                90
_cell_volume                     684.414
_exptl_crystal_colour            'light yellow'
_exptl_crystal_description       block
_chemical_melting_point          '469-470 K'
_cell_formula_units_Z            2
_exptl_crystal_recrystallization_method THF
loop_
_atom_site_label
_atom_site_type_symbol
_atom_site_fract_x
_atom_site_fract_y
_atom_site_fract_z
O1 O 0.6567(2) 0.8906(2) 1.09525(13)
O2 O 0.8984(2) 0.7322(2) 1.17929(11)
N1 N 0.8070(2) 0.8074(2) 1.09941(14)
N2 N 1.4133(2) 0.53887(19) 1.00720(13)
C1 C 1.3163(3) 0.6158(2) 0.92344(15)
H1 H 1.3649 0.6158 0.8632
C2 C 1.1288(2) 0.7046(2) 0.92005(14)
C3 C 1.0230(3) 0.7846(2) 0.82660(15)
H2 H 1.0708 0.7805 0.7662
C4 C 0.8475(3) 0.8700(3) 0.82294(16)
H3 H 0.7788 0.9232 0.7601
C5 C 0.7733(3) 0.8773(2) 0.91120(16)
H4 H 0.6550 0.9340 0.9090
C6 C 0.8800(2) 0.7978(2) 1.00290(14)
C7 C 1.0551(2) 0.7121(2) 1.00964(13)
H5 H 1.1231 0.6599 1.0730
O1B O 2.3433(2) 0.1094(2) 0.90475(13)
O2B O 2.1016(2) 0.2678(2) 0.82071(11)
N1B N 2.1930(2) 0.1926(2) 0.90059(14)
N2B N 1.5867(2) 0.46113(19) 0.99280(13)
C1B C 1.6837(3) 0.3842(2) 1.07656(15)
H1B H 1.6351 0.3842 1.1368
C2B C 1.8712(2) 0.2954(2) 1.07995(14)
C3B C 1.9770(3) 0.2154(2) 1.17340(15)
H2B H 1.9292 0.2195 1.2338
C4B C 2.1525(3) 0.1300(3) 1.17706(16)
H3B H 2.2212 0.0768 1.2399
C5B C 2.2267(3) 0.1227(2) 1.08880(16)
H4B H 2.3450 0.0660 1.0910
C6B C 2.1200(2) 0.2022(2) 0.99710(14)
C7B C 1.9449(2) 0.2879(2) 0.99036(13)
H5B H 1.8769 0.3401 0.9270
loop_
_geom_bond_atom_site_label_1
_geom_bond_atom_site_label_2
_geom_bond_site_symmetry_1
_geom_bond_site_symmetry_2
O1 N1 1_555 1_555
O2 N1 1_555 1_555
N1 C6 1_555 1_555
N2 C1 1_555 1_555
C1 H1 1_555 1_555
C2 C1 1_555 1_555
C3 C2 1_555 1_555
H2 C3 1_555 1_555
C4 C3 1_555 1_555
H3 C4 1_555 1_555
C5 C4 1_555 1_555
H4 C5 1_555 1_555
C6 C5 1_555 1_555
C7 C2 1_555 1_555
H5 C7 1_555 1_555
O1B N1B 1_555 1_555
O2B N1B 1_555 1_555
N1B C6B 1_555 1_555
N2B N2 1_555 1_555
C1B N2B 1_555 1_555
H1B C1B 1_555 1_555
C2B C1B 1_555 1_555
C3B C2B 1_555 1_555
H2B C3B 1_555 1_555
C4B C3B 1_555 1_555
H3B C4B 1_555 1_555
C5B C4B 1_555 1_555
H4B C5B 1_555 1_555
C6B C5B 1_555 1_555
C7B C2B 1_555 1_555
H5B C7B 1_555 1_555
C6 C7 1_555 1_555
C6B C7B 1_555 1_555

#END
