
#######################################################################
#
#                 Cambridge Crystallographic Data Centre
#                                CCDC 
#
#######################################################################
#
# If this CIF has been generated from an entry in the Cambridge 
# Structural Database, then it will include bibliographic, chemical, 
# crystal, experimental, refinement or atomic coordinate data resulting 
# from the CCDC's data processing and validation procedures.
#
#######################################################################

data_JAXVOU
_chemical_formula_moiety         'C28 H20 N4 O4 S1'
_chemical_name_systematic        
3,4-Dinitro-N,N,N',N'-tetraphenylthiophene-2,5-diamine
_symmetry_cell_setting           monoclinic
_symmetry_space_group_name_H-M   'P 21/c'
_symmetry_Int_Tables_number      14
_space_group_name_Hall           '-P 2ybc'
loop_
_symmetry_equiv_pos_site_id
_symmetry_equiv_pos_as_xyz
1 x,y,z
2 -x,1/2+y,1/2-z
3 -x,-y,-z
4 x,1/2-y,1/2+z
_cell_length_a                   9.9075(4)
_cell_length_b                   19.0621(7)
_cell_length_c                   13.5418(5)
_cell_angle_alpha                90
_cell_angle_beta                 108.977(2)
_cell_angle_gamma                90
_cell_volume                     2418.47
_exptl_crystal_colour            red
_exptl_crystal_description       prism
_cell_formula_units_Z            4
_exptl_crystal_recrystallization_method dichloromethane/hexane
loop_
_atom_site_label
_atom_site_type_symbol
_atom_site_fract_x
_atom_site_fract_y
_atom_site_fract_z
S1 S 0.14386(5) 0.19726(3) 0.76901(4)
O1 O -0.16195(18) 0.07572(9) 0.49648(12)
O2 O -0.25881(16) 0.17939(9) 0.46885(12)
O3 O -0.04222(15) 0.22456(8) 0.39982(10)
O4 O 0.02078(15) 0.32747(8) 0.46971(11)
N1 N -0.04938(17) 0.08972(9) 0.73135(12)
N2 N 0.22500(17) 0.31126(9) 0.68470(12)
N3 N -0.16109(18) 0.13903(10) 0.51226(13)
N4 N 0.00092(17) 0.26419(9) 0.47562(12)
C1 C 0.0095(2) 0.14329(11) 0.68913(15)
C2 C -0.0360(2) 0.16880(11) 0.59051(15)
C3 C 0.0306(2) 0.23258(11) 0.57656(15)
C4 C 0.1320(2) 0.25544(11) 0.66699(15)
C5 C 0.0377(2) 0.03035(11) 0.77337(15)
C6 C 0.1261(2) 0.00357(11) 0.72125(17)
H1 H 0.1280 0.0244 0.6596
C7 C 0.2113(2) -0.05411(12) 0.76083(19)
H2 H 0.2707 -0.0718 0.7259
C8 C 0.2086(2) -0.08574(12) 0.85264(19)
H3 H 0.2650 -0.1249 0.8787
C9 C 0.1217(2) -0.05877(12) 0.90469(18)
H4 H 0.1199 -0.0798 0.9662
C10 C 0.0369(2) -0.00044(11) 0.86619(16)
H5 H -0.0203 0.0179 0.9024
C11 C -0.1906(2) 0.09890(11) 0.73584(14)
C12 C -0.2775(2) 0.04147(11) 0.73164(16)
H6 H -0.2444 -0.0035 0.7256
C13 C -0.4142(2) 0.05095(13) 0.73643(17)
H7 H -0.4717 0.0121 0.7347
C14 C -0.4656(2) 0.11735(13) 0.74366(17)
H8 H -0.5575 0.1236 0.7463
C15 C -0.3783(2) 0.17457(13) 0.74696(16)
H9 H -0.4120 0.2195 0.7519
C16 C -0.2420(2) 0.16574(12) 0.74300(16)
H10 H -0.1845 0.2046 0.7451
C17 C 0.2976(2) 0.32895(11) 0.61243(15)
C18 C 0.3075(2) 0.39877(12) 0.58713(17)
H11 H 0.2633 0.4333 0.6143
C19 C 0.3831(2) 0.41685(14) 0.52137(18)
H12 H 0.3897 0.4637 0.5041
C20 C 0.4487(2) 0.36574(15) 0.48128(17)
H13 H 0.5011 0.3782 0.4382
C21 C 0.4367(2) 0.29610(14) 0.50493(17)
H14 H 0.4802 0.2617 0.4770
C22 C 0.3600(2) 0.27719(12) 0.57014(16)
H15 H 0.3507 0.2302 0.5853
C23 C 0.2608(2) 0.34701(10) 0.78325(15)
C24 C 0.1535(2) 0.36635(11) 0.82214(15)
H16 H 0.0590 0.3561 0.7845
C25 C 0.1864(2) 0.40100(11) 0.91718(16)
H17 H 0.1140 0.4133 0.9437
C26 C 0.3260(2) 0.41720(12) 0.97213(17)
H18 H 0.3477 0.4410 1.0353
C27 C 0.4345(2) 0.39822(12) 0.93385(17)
H19 H 0.5286 0.4093 0.9713
C28 C 0.4026(2) 0.36245(11) 0.83927(17)
H20 H 0.4753 0.3490 0.8138
loop_
_geom_bond_atom_site_label_1
_geom_bond_atom_site_label_2
_geom_bond_site_symmetry_1
_geom_bond_site_symmetry_2
S1 C1 1_555 1_555
O1 N3 1_555 1_555
O2 N3 1_555 1_555
O3 N4 1_555 1_555
O4 N4 1_555 1_555
N1 C1 1_555 1_555
N2 C4 1_555 1_555
N3 C2 1_555 1_555
N4 C3 1_555 1_555
C1 C2 1_555 1_555
C2 C3 1_555 1_555
C3 C4 1_555 1_555
C4 S1 1_555 1_555
C5 N1 1_555 1_555
C6 C5 1_555 1_555
H1 C6 1_555 1_555
C7 C6 1_555 1_555
H2 C7 1_555 1_555
C8 C7 1_555 1_555
H3 C8 1_555 1_555
C9 C8 1_555 1_555
H4 C9 1_555 1_555
C10 C5 1_555 1_555
H5 C10 1_555 1_555
C11 N1 1_555 1_555
C12 C11 1_555 1_555
H6 C12 1_555 1_555
C13 C12 1_555 1_555
H7 C13 1_555 1_555
C14 C13 1_555 1_555
H8 C14 1_555 1_555
C15 C14 1_555 1_555
H9 C15 1_555 1_555
C16 C11 1_555 1_555
H10 C16 1_555 1_555
C17 N2 1_555 1_555
C18 C17 1_555 1_555
H11 C18 1_555 1_555
C19 C18 1_555 1_555
H12 C19 1_555 1_555
C20 C19 1_555 1_555
H13 C20 1_555 1_555
C21 C20 1_555 1_555
H14 C21 1_555 1_555
C22 C17 1_555 1_555
H15 C22 1_555 1_555
C23 N2 1_555 1_555
C24 C23 1_555 1_555
H16 C24 1_555 1_555
C25 C24 1_555 1_555
H17 C25 1_555 1_555
C26 C25 1_555 1_555
H18 C26 1_555 1_555
C27 C26 1_555 1_555
H19 C27 1_555 1_555
C28 C23 1_555 1_555
H20 C28 1_555 1_555
C9 C10 1_555 1_555
C15 C16 1_555 1_555
C21 C22 1_555 1_555
C27 C28 1_555 1_555

#END
