
#######################################################################
#
#                 Cambridge Crystallographic Data Centre
#                                CCDC 
#
#######################################################################
#
# If this CIF has been generated from an entry in the Cambridge 
# Structural Database, then it will include bibliographic, chemical, 
# crystal, experimental, refinement or atomic coordinate data resulting 
# from the CCDC's data processing and validation procedures.
#
#######################################################################

data_JAXYEN
_chemical_formula_moiety         'C9 H7 N1 O1 S1'
_chemical_name_systematic        4-(2'-Thienyl)-1H-pyrrole-2-carbaldehyde
_symmetry_cell_setting           monoclinic
_symmetry_space_group_name_H-M   'P 21/c'
_symmetry_Int_Tables_number      14
_space_group_name_Hall           '-P 2ybc'
loop_
_symmetry_equiv_pos_site_id
_symmetry_equiv_pos_as_xyz
1 x,y,z
2 -x,1/2+y,1/2-z
3 -x,-y,-z
4 x,1/2-y,1/2+z
_cell_length_a                   6.303(2)
_cell_length_b                   7.745(3)
_cell_length_c                   17.4240(10)
_cell_angle_alpha                90
_cell_angle_beta                 96.640(10)
_cell_angle_gamma                90
_cell_volume                     844.877
_exptl_crystal_colour            orange
_exptl_crystal_description       block
_chemical_melting_point          '456-458 K'
_cell_formula_units_Z            4
_exptl_crystal_recrystallization_method dichloromethane
loop_
_atom_site_label
_atom_site_type_symbol
_atom_site_fract_x
_atom_site_fract_y
_atom_site_fract_z
O1 O -0.2026(3) 0.1625(3) 0.97144(11)
N1 N 0.1619(3) 0.0592(3) 0.89633(11)
H1 H 0.1728 0.0129 0.9415
C1 C 0.0042(4) 0.1706(3) 0.86715(14)
C2 C 0.0459(4) 0.2162(3) 0.79381(14)
H2 H -0.0350 0.2914 0.7606
C3 C 0.2314(3) 0.1296(3) 0.77791(13)
C4 C 0.2970(4) 0.0339(3) 0.84300(14)
H3 H 0.4165 -0.0374 0.8491
C5 C -0.1710(5) 0.2165(3) 0.90849(17)
H4 H -0.2696 0.2948 0.8849
C6 C 0.3319(4) 0.1321(3) 0.70659(14)
C7 C 0.4045(6) 0.1631(4) 0.57259(17)
H5 H 0.4015 0.1861 0.5201
C8 C 0.5702(5) 0.0897(4) 0.61421(18)
H6 H 0.6919 0.0576 0.5922
S1 S 0.2045(2) 0.2100(2) 0.62231(7)
C9 C 0.5520(16) 0.0616(12) 0.6966(6)
H7 H 0.6516 0.0124 0.7338
S2? S 0.537(3) 0.068(2) 0.6940(11)
C10? C 0.229(6) 0.195(5) 0.640(2)
H8? H 0.0938 0.2445 0.6325
loop_
_geom_bond_atom_site_label_1
_geom_bond_atom_site_label_2
_geom_bond_site_symmetry_1
_geom_bond_site_symmetry_2
O1 C5 1_555 1_555
N1 H1 1_555 1_555
C1 N1 1_555 1_555
C2 C1 1_555 1_555
H2 C2 1_555 1_555
C3 C2 1_555 1_555
C4 N1 1_555 1_555
H3 C4 1_555 1_555
C5 C1 1_555 1_555
H4 C5 1_555 1_555
C6 C3 1_555 1_555
C7 H5 1_555 1_555
C8 C7 1_555 1_555
H6 C8 1_555 1_555
S1 C6 1_555 1_555
C9 C6 1_555 1_555
H7 C9 1_555 1_555
C3 C4 1_555 1_555
C7 S1 1_555 1_555
C8 C9 1_555 1_555

#END
