
#######################################################################
#
#                 Cambridge Crystallographic Data Centre
#                                CCDC 
#
#######################################################################
#
# If this CIF has been generated from an entry in the Cambridge 
# Structural Database, then it will include bibliographic, chemical, 
# crystal, experimental, refinement or atomic coordinate data resulting 
# from the CCDC's data processing and validation procedures.
#
#######################################################################

data_JAYBUH
_chemical_formula_moiety         'C15 H22 N2 O4'
_chemical_name_systematic        
"Diisopropyl N,N'-(4-methyl-m-phenylene)dicarbamate"
_symmetry_cell_setting           monoclinic
_symmetry_space_group_name_H-M   'C c'
_symmetry_Int_Tables_number      9
_space_group_name_Hall           'C -2yc'
loop_
_symmetry_equiv_pos_site_id
_symmetry_equiv_pos_as_xyz
1 x,y,z
2 x,-y,1/2+z
3 1/2+x,1/2+y,z
4 1/2+x,1/2-y,1/2+z
_cell_length_a                   9.0708(18)
_cell_length_b                   15.997(6)
_cell_length_c                   12.113(2)
_cell_angle_alpha                90
_cell_angle_beta                 111.28(3)
_cell_angle_gamma                90
_cell_volume                     1637.82
_exptl_crystal_colour            colorless
_exptl_crystal_description       block
_chemical_melting_point          '408.7 K'
_cell_formula_units_Z            4
_exptl_crystal_recrystallization_method methanol
loop_
_atom_site_label
_atom_site_type_symbol
_atom_site_fract_x
_atom_site_fract_y
_atom_site_fract_z
O1 O -0.27760(16) -0.01524(8) 0.01147(13)
O2 O -0.17607(19) 0.11536(9) 0.04311(13)
O3 O 0.31794(17) 0.35770(8) 0.26434(12)
O4 O 0.27170(15) 0.22950(8) 0.18213(12)
N1 N -0.1044(2) 0.01607(9) 0.18753(15)
H1 H -0.1239 -0.0348 0.2007
N2 N 0.24907(18) 0.25244(9) 0.35816(14)
H2 H 0.2687 0.2847 0.4187
C1 C -0.4108(4) -0.07389(19) -0.1770(3)
H3 H -0.3126 -0.0968 -0.1762
H4 H -0.4792 -0.0634 -0.2573
H5 H -0.4605 -0.1129 -0.1413
C2 C -0.5262(4) 0.0470(2) -0.1050(3)
H6 H -0.4988 0.0984 -0.0613
H7 H -0.5772 0.0103 -0.0672
H8 H -0.5968 0.0586 -0.1844
C3 C -0.3798(2) 0.00628(14) -0.10845(18)
H9 H -0.3244 0.0451 -0.1425
C4 C -0.1849(2) 0.04551(11) 0.07832(17)
C5 C 0.0078(2) 0.05838(10) 0.28297(16)
C6 C 0.0550(2) 0.02067(11) 0.39413(17)
H10 H 0.0104 -0.0299 0.4037
C7 C 0.1680(2) 0.05840(11) 0.48925(17)
H11 H 0.1982 0.0326 0.5629
C8 C 0.23873(19) 0.13408(11) 0.47972(15)
C9 C 0.3658(3) 0.17192(15) 0.5858(2)
H12 H 0.3842 0.1365 0.6535
H13 H 0.3325 0.2261 0.6015
H14 H 0.4616 0.1772 0.5698
C10 C 0.18722(19) 0.17221(10) 0.36857(15)
C11 C 0.07219(19) 0.13507(10) 0.27113(16)
H15 H 0.0385 0.1616 0.1979
C12 C 0.28111(19) 0.28485(10) 0.26658(16)
C13 C 0.2966(2) 0.26075(13) 0.07691(18)
H16 H 0.2497 0.3166 0.0573
C14 C 0.4691(3) 0.2652(2) 0.0992(3)
H17 H 0.5182 0.3042 0.1621
H18 H 0.4843 0.2835 0.0286
H19 H 0.5160 0.2110 0.1214
C15 C 0.2083(3) 0.20043(19) -0.0206(2)
H20 H 0.0981 0.2009 -0.0313
H21 H 0.2500 0.1451 0.0006
H22 H 0.2204 0.2170 -0.0930
loop_
_geom_bond_atom_site_label_1
_geom_bond_atom_site_label_2
_geom_bond_site_symmetry_1
_geom_bond_site_symmetry_2
O1 C3 1_555 1_555
O2 C4 1_555 1_555
O3 C12 1_555 1_555
O4 C12 1_555 1_555
N1 H1 1_555 1_555
N2 H2 1_555 1_555
C1 H3 1_555 1_555
H4 C1 1_555 1_555
H5 C1 1_555 1_555
C2 H6 1_555 1_555
H7 C2 1_555 1_555
H8 C2 1_555 1_555
C3 C1 1_555 1_555
H9 C3 1_555 1_555
C4 O1 1_555 1_555
C5 N1 1_555 1_555
C6 C5 1_555 1_555
H10 C6 1_555 1_555
C7 C6 1_555 1_555
H11 C7 1_555 1_555
C8 C7 1_555 1_555
C9 C8 1_555 1_555
H12 C9 1_555 1_555
H13 C9 1_555 1_555
H14 C9 1_555 1_555
C10 N2 1_555 1_555
C11 C5 1_555 1_555
H15 C11 1_555 1_555
C12 N2 1_555 1_555
C13 O4 1_555 1_555
H16 C13 1_555 1_555
C14 C13 1_555 1_555
H17 C14 1_555 1_555
H18 C14 1_555 1_555
H19 C14 1_555 1_555
C15 C13 1_555 1_555
H20 C15 1_555 1_555
H21 C15 1_555 1_555
H22 C15 1_555 1_555
N1 C4 1_555 1_555
C2 C3 1_555 1_555
C8 C10 1_555 1_555
C10 C11 1_555 1_555

#END
