
#######################################################################
#
#                 Cambridge Crystallographic Data Centre
#                                CCDC 
#
#######################################################################
#
# If this CIF has been generated from an entry in the Cambridge 
# Structural Database, then it will include bibliographic, chemical, 
# crystal, experimental, refinement or atomic coordinate data resulting 
# from the CCDC's data processing and validation procedures.
#
#######################################################################

data_JAYBAN
_chemical_formula_moiety         'C7 H9 N3 O2'
_chemical_name_systematic        N-(2-Hydroxyethyl)pyrazine-2-carboxamide
_symmetry_cell_setting           triclinic
_symmetry_space_group_name_H-M   'P -1'
_symmetry_Int_Tables_number      2
_space_group_name_Hall           '-P 1'
loop_
_symmetry_equiv_pos_site_id
_symmetry_equiv_pos_as_xyz
1 x,y,z
2 -x,-y,-z
_cell_length_a                   5.3054(12)
_cell_length_b                   7.8287(19)
_cell_length_c                   19.880(5)
_cell_angle_alpha                86.953(4)
_cell_angle_beta                 87.262(4)
_cell_angle_gamma                74.451(4)
_cell_volume                     793.877
_exptl_crystal_colour            colorless
_exptl_crystal_description       block
_chemical_melting_point          '391 K'
_cell_formula_units_Z            4
_exptl_crystal_recrystallization_method methanol
loop_
_atom_site_label
_atom_site_type_symbol
_atom_site_fract_x
_atom_site_fract_y
_atom_site_fract_z
N1 N 0.2083(4) 0.3372(2) 0.24175(9)
N2 N -0.2735(4) 0.5184(3) 0.18822(11)
N3 N 0.3110(4) 0.3859(3) 0.36994(10)
H1 H 0.405(5) 0.316(3) 0.3424(12)
O1 O -0.0790(3) 0.5936(2) 0.38138(8)
O2 O 0.1559(4) 0.2186(3) 0.49932(9)
H3 H 0.1057 0.2740 0.5335
C1 C 0.0246(4) 0.4501(3) 0.27757(10)
C2 C -0.2126(4) 0.5384(3) 0.25103(12)
H5 H -0.3352 0.6151 0.2781
C3 C -0.0898(5) 0.4069(3) 0.15268(12)
H6 H -0.1220 0.3889 0.1084
C4 C 0.1471(5) 0.3168(3) 0.17885(12)
H7 H 0.2684 0.2391 0.1518
C5 C 0.0818(4) 0.4830(3) 0.34838(11)
C6 C 0.4113(5) 0.3926(3) 0.43607(11)
H8 H 0.3057 0.4971 0.4580
H9 H 0.5891 0.4036 0.4310
C7 C 0.4095(5) 0.2305(3) 0.48004(12)
H10 H 0.4999 0.1257 0.4560
H11 H 0.5054 0.2321 0.5202
N4 N 0.2316(4) 0.8528(3) 0.26789(9)
N5 N -0.2027(4) 1.0893(3) 0.32754(10)
N6 N 0.2069(4) 0.7568(3) 0.13834(10)
H2 H 0.326(5) 0.714(4) 0.1646(14)
O3 O -0.1852(3) 0.9577(2) 0.12904(9)
O4 O 0.4084(5) 0.7642(3) -0.04072(9)
H4 H 0.3353 0.8474 -0.0658
C8 C 0.0132(4) 0.9250(3) 0.23437(11)
C9 C -0.1990(4) 1.0409(3) 0.26423(12)
H12 H -0.3468 1.0877 0.2390
C10 C 0.0139(5) 1.0182(3) 0.36063(12)
H13 H 0.0220 1.0479 0.4050
C11 C 0.2273(5) 0.9018(3) 0.33143(12)
H14 H 0.3746 0.8552 0.3569
C12 C 0.0042(4) 0.8809(3) 0.16215(11)
C13 C 0.2332(5) 0.7071(3) 0.06827(11)
H15 H 0.0609 0.7226 0.0506
H16 H 0.3277 0.5829 0.0657
C14 C 0.3759(6) 0.8178(4) 0.02653(12)
H17 H 0.2781 0.9416 0.0276
H18 H 0.5459 0.8057 0.0450
loop_
_geom_bond_atom_site_label_1
_geom_bond_atom_site_label_2
_geom_bond_site_symmetry_1
_geom_bond_site_symmetry_2
N1 C1 1_555 1_555
N2 C2 1_555 1_555
N3 H1 1_555 1_555
N4 C8 1_555 1_555
N5 C9 1_555 1_555
N6 H2 1_555 1_555
O1 C5 1_555 1_555
O2 H3 1_555 1_555
O3 C12 1_555 1_555
O4 H4 1_555 1_555
C1 C2 1_555 1_555
C2 H5 1_555 1_555
C3 N2 1_555 1_555
H6 C3 1_555 1_555
C4 N1 1_555 1_555
H7 C4 1_555 1_555
C5 N3 1_555 1_555
C6 N3 1_555 1_555
H8 C6 1_555 1_555
H9 C6 1_555 1_555
C7 O2 1_555 1_555
H10 C7 1_555 1_555
H11 C7 1_555 1_555
C8 C9 1_555 1_555
C9 H12 1_555 1_555
C10 N5 1_555 1_555
H13 C10 1_555 1_555
C11 N4 1_555 1_555
H14 C11 1_555 1_555
C12 N6 1_555 1_555
C13 N6 1_555 1_555
H15 C13 1_555 1_555
H16 C13 1_555 1_555
C14 O4 1_555 1_555
H17 C14 1_555 1_555
H18 C14 1_555 1_555
C1 C5 1_555 1_555
C3 C4 1_555 1_555
C6 C7 1_555 1_555
C8 C12 1_555 1_555
C10 C11 1_555 1_555
C13 C14 1_555 1_555

#END
