
#######################################################################
#
#                 Cambridge Crystallographic Data Centre
#                                CCDC 
#
#######################################################################
#
# If this CIF has been generated from an entry in the Cambridge 
# Structural Database, then it will include bibliographic, chemical, 
# crystal, experimental, refinement or atomic coordinate data resulting 
# from the CCDC's data processing and validation procedures.
#
#######################################################################

data_JAYGEW
_chemical_formula_moiety         'C10 H8 N2 O5'
_chemical_name_systematic        
'(E)-3-((4-Nitrophenylamino)carbonyl)prop-2-enoic acid'
_symmetry_cell_setting           monoclinic
_symmetry_space_group_name_H-M   'P 21/c'
_symmetry_Int_Tables_number      14
_space_group_name_Hall           '-P 2ybc'
loop_
_symmetry_equiv_pos_site_id
_symmetry_equiv_pos_as_xyz
1 x,y,z
2 -x,1/2+y,1/2-z
3 -x,-y,-z
4 x,1/2-y,1/2+z
_cell_length_a                   9.6052(7)
_cell_length_b                   12.8416(10)
_cell_length_c                   9.0921(7)
_cell_angle_alpha                90
_cell_angle_beta                 114.388(2)
_cell_angle_gamma                90
_cell_volume                     1021.41
_exptl_crystal_colour            yellow
_exptl_crystal_description       plate
_chemical_melting_point          '472-474 K'
_cell_formula_units_Z            4
_exptl_crystal_recrystallization_method ethanol
loop_
_atom_site_label
_atom_site_type_symbol
_atom_site_fract_x
_atom_site_fract_y
_atom_site_fract_z
O1 O 0.72801(13) 0.03077(9) 0.65778(16)
O2 O 1.28952(17) 0.24682(13) 0.4548(2)
O3 O 1.22748(17) 0.40730(12) 0.45950(19)
O4 O 0.54851(15) -0.10562(9) 0.68397(18)
O5 O 0.36370(16) -0.10330(10) 0.7637(2)
N1 N 0.74726(15) 0.20691(11) 0.67282(18)
N2 N 1.21330(18) 0.31419(15) 0.4797(2)
C1 C 0.68626(19) 0.11613(13) 0.6895(2)
C2 C 0.5665(2) 0.12856(14) 0.7505(2)
C3 C 0.47741(19) 0.05686(14) 0.7728(2)
C4 C 0.4612(2) -0.05654(14) 0.7397(2)
C5 C 0.86599(18) 0.22698(13) 0.6247(2)
C6 C 0.9471(2) 0.15067(14) 0.5844(2)
C7 C 1.0627(2) 0.17921(15) 0.5391(2)
C8 C 1.09543(19) 0.28272(14) 0.5340(2)
C9 C 1.01897(19) 0.35913(14) 0.5764(2)
C10 C 0.9034(2) 0.33121(13) 0.6206(2)
H1 H 0.7074 0.2613 0.6951
H2 H 0.5513 0.1963 0.7771
H3 H 0.4131 0.0827 0.8175
H4 H 0.9237 0.0807 0.5879
H5 H 1.1176 0.1287 0.5124
H6 H 1.0449 0.4288 0.5752
H7 H 0.8499 0.3824 0.6480
H8 H 0.6074 -0.0641 0.6711
loop_
_geom_bond_atom_site_label_1
_geom_bond_atom_site_label_2
_geom_bond_site_symmetry_1
_geom_bond_site_symmetry_2
O1 C1 1_555 1_555
O2 N2 1_555 1_555
O3 N2 1_555 1_555
O4 C4 1_555 1_555
O5 C4 1_555 1_555
N1 C1 1_555 1_555
N2 C8 1_555 1_555
C1 C2 1_555 1_555
C2 C3 1_555 1_555
C3 C4 1_555 1_555
C5 N1 1_555 1_555
C6 C5 1_555 1_555
C7 C6 1_555 1_555
C8 C7 1_555 1_555
C9 C8 1_555 1_555
C10 C5 1_555 1_555
H1 N1 1_555 1_555
H2 C2 1_555 1_555
H3 C3 1_555 1_555
H4 C6 1_555 1_555
H5 C7 1_555 1_555
H6 C9 1_555 1_555
H7 C10 1_555 1_555
H8 O4 1_555 1_555
C9 C10 1_555 1_555

#END
