
#######################################################################
#
#                 Cambridge Crystallographic Data Centre
#                                CCDC 
#
#######################################################################
#
# If this CIF has been generated from an entry in the Cambridge 
# Structural Database, then it will include bibliographic, chemical, 
# crystal, experimental, refinement or atomic coordinate data resulting 
# from the CCDC's data processing and validation procedures.
#
#######################################################################

data_JAYJUP
_chemical_name_common            Amidoflumet
_chemical_formula_moiety         'C9 H7 Cl1 F3 N1 O4 S1'
_chemical_name_systematic        
'Methyl 5-chloro-2-((trifluoromethyl)sulfonylamino)benzoate'
_chemical_properties_biological  acaricide
_symmetry_cell_setting           triclinic
_symmetry_space_group_name_H-M   'P -1'
_symmetry_Int_Tables_number      2
_space_group_name_Hall           '-P 1'
loop_
_symmetry_equiv_pos_site_id
_symmetry_equiv_pos_as_xyz
1 x,y,z
2 -x,-y,-z
_cell_length_a                   5.341(2)
_cell_length_b                   9.8870(10)
_cell_length_c                   11.754(3)
_cell_angle_alpha                85.212(9)
_cell_angle_beta                 85.470(10)
_cell_angle_gamma                88.939(6)
_cell_volume                     616.545
_exptl_crystal_colour            colorless
_exptl_crystal_description       block
_chemical_melting_point          '356 K'
_cell_formula_units_Z            2
_exptl_crystal_recrystallization_method chloroform
loop_
_atom_site_label
_atom_site_type_symbol
_atom_site_fract_x
_atom_site_fract_y
_atom_site_fract_z
Cl1 Cl 0.8261(5) 0.3175(2) 0.6298(2)
S1 S 0.0020(4) 0.1370(2) 0.2240(2)
F1 F 0.3230(10) 0.1003(6) 0.0536(4)
F2 F 0.1110(10) -0.0741(5) 0.1131(5)
F3 F 0.4070(10) -0.0144(5) 0.2087(4)
O1 O 0.3930(10) 0.4687(5) 0.1514(5)
O2 O 0.7400(10) 0.5343(6) 0.2210(5)
O3 O -0.0860(10) 0.0537(6) 0.3218(5)
O4 O -0.1590(10) 0.1923(6) 0.1418(5)
N1 N 0.1660(10) 0.2577(7) 0.2573(6)
C1 C 0.639(2) 0.2953(8) 0.5191(6)
C2 C 0.460(2) 0.1950(8) 0.5315(7)
C3 C 0.307(2) 0.1806(8) 0.4457(7)
C4 C 0.3290(10) 0.2644(7) 0.3467(6)
C5 C 0.5110(10) 0.3670(7) 0.3317(6)
C6 C 0.663(2) 0.3799(7) 0.4203(6)
C7 C 0.539(2) 0.4598(7) 0.2265(6)
C8 C 0.781(2) 0.6310(10) 0.1217(9)
C9 C 0.227(2) 0.0309(8) 0.1457(7)
H1 H 0.4429 0.1362 0.5998
H2 H 0.1837 0.1116 0.4547
H3 H 0.7862 0.4488 0.4125
H4 H 0.7968 0.5828 0.0536
H5 H 0.9301 0.6795 0.1273
H6 H 0.6408 0.6927 0.1183
H7 H 0.18(2) 0.304(9) 0.200(7)
loop_
_geom_bond_atom_site_label_1
_geom_bond_atom_site_label_2
_geom_bond_site_symmetry_1
_geom_bond_site_symmetry_2
Cl1 C1 1_555 1_555
S1 O3 1_555 1_555
F1 C9 1_555 1_555
F2 C9 1_555 1_555
F3 C9 1_555 1_555
O1 C7 1_555 1_555
O2 C7 1_555 1_555
O4 S1 1_555 1_555
N1 S1 1_555 1_555
C1 C2 1_555 1_555
C2 C3 1_555 1_555
C3 C4 1_555 1_555
C4 N1 1_555 1_555
C5 C4 1_555 1_555
C6 C1 1_555 1_555
C7 C5 1_555 1_555
C8 O2 1_555 1_555
C9 S1 1_555 1_555
H1 C2 1_555 1_555
H2 C3 1_555 1_555
H3 C6 1_555 1_555
H4 C8 1_555 1_555
H5 C8 1_555 1_555
H6 C8 1_555 1_555
H7 N1 1_555 1_555
C5 C6 1_555 1_555

#END
