
#######################################################################
#
#                 Cambridge Crystallographic Data Centre
#                                CCDC 
#
#######################################################################
#
# If this CIF has been generated from an entry in the Cambridge 
# Structural Database, then it will include bibliographic, chemical, 
# crystal, experimental, refinement or atomic coordinate data resulting 
# from the CCDC's data processing and validation procedures.
#
#######################################################################

data_JAYKEC
_chemical_formula_moiety         'C6 N10 O8 2-,2(C1 H6 N3 1+)'
_chemical_name_systematic        
"bis(guanidinium) 4,4'-(diazene-1,2-diyl)bis(3,5-dinitropyrazol-1-ide)"
_symmetry_cell_setting           monoclinic
_symmetry_space_group_name_H-M   'C 2/c'
_symmetry_Int_Tables_number      15
_space_group_name_Hall           '-C 2yn'
loop_
_symmetry_equiv_pos_site_id
_symmetry_equiv_pos_as_xyz
1 x,y,z
2 -x,y,1/2-z
3 1/2+x,1/2+y,z
4 1/2-x,1/2+y,1/2-z
5 -x,-y,-z
6 x,-y,1/2+z
7 1/2-x,1/2-y,-z
8 1/2+x,1/2-y,1/2+z
_cell_length_a                   25.791(4)
_cell_length_b                   12.9808(5)
_cell_length_c                   23.848(3)
_cell_angle_alpha                90
_cell_angle_beta                 119.15(2)
_cell_angle_gamma                90
_cell_volume                     6972.82
_exptl_crystal_colour            red
_exptl_crystal_description       block
_cell_formula_units_Z            16
loop_
_atom_site_label
_atom_site_type_symbol
_atom_site_fract_x
_atom_site_fract_y
_atom_site_fract_z
O1 O 0.02185(7) 0.65655(11) 0.46354(8)
O2 O 0.06816(6) 0.53773(11) 0.53500(8)
O3 O 0.22789(7) 0.08992(11) 0.53534(8)
N1 N 0.10322(8) 0.34446(13) 0.48211(9)
O4 O 0.18684(7) 0.53757(12) 0.62611(9)
N2 N 0.14660(8) 0.40229(13) 0.51639(9)
O5 O 0.06327(7) 0.20978(12) 0.37198(9)
O6 O 0.18174(6) 0.20833(11) 0.46381(8)
C1 C 0.01658(9) 0.35999(16) 0.37140(11)
C2 C 0.05482(9) 0.39773(16) 0.43258(11)
N3 N -0.01908(8) 0.51089(14) 0.37139(10)
C3 C 0.23328(9) 0.38636(17) 0.62731(11)
O7 O -0.02550(7) 0.23718(12) 0.29292(9)
N4 N 0.26834(8) 0.23520(13) 0.62746(10)
O8 O 0.27544(7) 0.51035(12) 0.70544(8)
N5 N 0.23174(8) 0.48457(14) 0.65487(10)
C4 C 0.19491(9) 0.34896(16) 0.56591(11)
N6 N 0.01816(8) 0.26291(14) 0.34338(10)
N7 N 0.27627(8) 0.31955(14) 0.66411(10)
N8 N 0.20865(8) 0.17863(14) 0.51970(10)
C5 C 0.22053(9) 0.25174(16) 0.56959(12)
C6 C 0.02882(9) 0.49448(16) 0.42859(12)
N9 N -0.02672(8) 0.42701(14) 0.33486(10)
N10 N 0.04086(8) 0.56788(14) 0.47888(10)
O9 O 0.25986(7) 0.87698(12) 0.47945(8)
O10 O 0.48961(7) 0.36919(12) 0.51822(8)
N11 N 0.36719(7) 0.61682(12) 0.46943(9)
O11 O 0.35152(6) 0.83985(10) 0.50832(8)
O12 O 0.31867(7) 0.47017(11) 0.36503(8)
N12 N 0.38147(7) 0.62847(12) 0.52780(9)
O13 O 0.39777(6) 0.40634(11) 0.48826(8)
O14 O 0.42893(7) 0.77448(12) 0.63193(9)
N13 N 0.27104(8) 0.51704(14) 0.33998(10)
C7 C 0.43912(9) 0.59034(16) 0.56957(11)
O15 O 0.52152(7) 0.75969(12) 0.70485(9)
C8 C 0.30948(10) 0.65503(16) 0.42734(12)
O16 O 0.22643(7) 0.48779(12) 0.29158(9)
N14 N 0.47698(8) 0.72817(14) 0.65723(10)
N15 N 0.53032(8) 0.57681(14) 0.65897(9)
N16 N 0.22498(8) 0.75142(14) 0.37626(10)
N17 N 0.52372(8) 0.49457(14) 0.62159(10)
C9 C 0.48019(10) 0.63251(16) 0.62858(11)
N18 N 0.45122(8) 0.42100(14) 0.52194(10)
N19 N 0.21785(8) 0.66898(14) 0.33839(10)
C10 C 0.26786(9) 0.61266(16) 0.36864(12)
C11 C 0.47020(9) 0.50304(16) 0.56866(12)
N20 N 0.29807(8) 0.82485(14) 0.47544(10)
C12 C 0.27867(9) 0.74294(16) 0.42912(11)
C13 C 0.11783(10) 0.98018(17) 0.32738(12)
N21 N 0.11960(8) 0.88709(13) 0.30548(10)
H1 H 0.0944 0.8706 0.2655
H2 H 0.1459 0.8418 0.3310
N22 N 0.15531(8) 1.00429(14) 0.38794(10)
H3 H 0.1539 1.0657 0.4027
H4 H 0.1816 0.9588 0.4133
N23 N 0.07816(8) 1.04788(14) 0.28880(10)
H5 H 0.0531 1.0311 0.2488
H6 H 0.0768 1.1098 0.3031
N24 N 0.09361(8) 0.25905(14) 0.10893(9)
H7 H 0.0672 0.2143 0.0830
H8 H 0.0947 0.3214 0.0951
C14 C 0.13181(10) 0.23254(17) 0.16888(12)
N25 N 0.13041(8) 0.13905(13) 0.19000(10)
H9 H 0.1041 0.0940 0.1643
H10 H 0.1558 0.1218 0.2298
N26 N 0.17124(8) 0.30117(14) 0.20790(10)
H11 H 0.1964 0.2843 0.2478
H12 H 0.1721 0.3634 0.1938
N27 N 0.15100(8) 0.50587(14) 0.39250(10)
H13 H 0.1453 0.5637 0.4079
H14 H 0.1803 0.4646 0.4175
C15 C 0.11555(10) 0.48094(17) 0.33171(12)
N28 N 0.07144(8) 0.54243(14) 0.29378(10)
H15 H 0.0655 0.6004 0.3089
H16 H 0.0480 0.5254 0.2534
N29 N 0.12261(8) 0.39231(14) 0.30843(10)
H17 H 0.0981 0.3753 0.2683
H18 H 0.1518 0.3506 0.3331
C16 C 0.13487(10) 0.72686(17) 0.17177(12)
N30 N 0.17939(8) 0.78946(14) 0.20925(10)
H19 H 0.2031 0.7732 0.2497
H20 H 0.1851 0.8471 0.1935
N31 N 0.12652(8) 0.64066(14) 0.19547(10)
H21 H 0.0978 0.5984 0.1706
H22 H 0.1497 0.6254 0.2362
N32 N 0.10034(8) 0.75104(15) 0.11043(10)
H23 H 0.0715 0.7093 0.0851
H24 H 0.1063 0.8088 0.0951
loop_
_geom_bond_atom_site_label_1
_geom_bond_atom_site_label_2
_geom_bond_site_symmetry_1
_geom_bond_site_symmetry_2
O1 N10 1_555 1_555
O2 N10 1_555 1_555
O3 N8 1_555 1_555
N1 N2 1_555 1_555
O4 N5 1_555 1_555
N2 C4 1_555 1_555
O5 N6 1_555 1_555
O6 N8 1_555 1_555
C1 C2 1_555 1_555
C2 N1 1_555 1_555
N3 C6 1_555 1_555
C3 N5 1_555 1_555
O7 N6 1_555 1_555
N4 N7 1_555 1_555
O8 N5 1_555 1_555
C4 C3 1_555 1_555
N6 C1 1_555 1_555
N7 C3 1_555 1_555
N8 C5 1_555 1_555
C5 N4 1_555 1_555
C6 C2 1_555 1_555
N9 C1 1_555 1_555
N10 C6 1_555 1_555
O9 N20 1_555 1_555
O10 N18 1_555 1_555
N11 N12 1_555 1_555
O11 N20 1_555 1_555
O12 N13 1_555 1_555
N12 C7 1_555 1_555
O13 N18 1_555 1_555
O14 N14 1_555 1_555
N13 O16 1_555 1_555
C7 C9 1_555 1_555
O15 N14 1_555 1_555
C8 N11 1_555 1_555
N14 C9 1_555 1_555
N15 N17 1_555 1_555
N16 N19 1_555 1_555
N17 C11 1_555 1_555
C9 N15 1_555 1_555
N18 C11 1_555 1_555
N19 C10 1_555 1_555
C10 N13 1_555 1_555
C11 C7 1_555 1_555
N20 C12 1_555 1_555
C12 C8 1_555 1_555
C13 N21 1_555 1_555
N21 H1 1_555 1_555
H2 N21 1_555 1_555
N22 C13 1_555 1_555
H3 N22 1_555 1_555
H4 N22 1_555 1_555
N23 C13 1_555 1_555
H5 N23 1_555 1_555
H6 N23 1_555 1_555
N24 H7 1_555 1_555
H8 N24 1_555 1_555
C14 N24 1_555 1_555
N25 C14 1_555 1_555
H9 N25 1_555 1_555
H10 N25 1_555 1_555
N26 C14 1_555 1_555
H11 N26 1_555 1_555
H12 N26 1_555 1_555
N27 H13 1_555 1_555
H14 N27 1_555 1_555
C15 N27 1_555 1_555
N28 C15 1_555 1_555
H15 N28 1_555 1_555
H16 N28 1_555 1_555
N29 C15 1_555 1_555
H17 N29 1_555 1_555
H18 N29 1_555 1_555
C16 N30 1_555 1_555
N30 H19 1_555 1_555
H20 N30 1_555 1_555
N31 C16 1_555 1_555
H21 N31 1_555 1_555
H22 N31 1_555 1_555
N32 C16 1_555 1_555
H23 N32 1_555 1_555
H24 N32 1_555 1_555
N3 N9 1_555 1_555
C4 C5 1_555 1_555
C8 C10 1_555 1_555
N16 C12 1_555 1_555

#END
