
#######################################################################
#
#                 Cambridge Crystallographic Data Centre
#                                CCDC 
#
#######################################################################
#
# If this CIF has been generated from an entry in the Cambridge 
# Structural Database, then it will include bibliographic, chemical, 
# crystal, experimental, refinement or atomic coordinate data resulting 
# from the CCDC's data processing and validation procedures.
#
#######################################################################

data_JAYKAY
_chemical_formula_moiety         'C6 N10 O8 2-,2(K1 1+)'
_chemical_name_systematic        
"di-potassium 4,4'-(diazene-1,2-diyl)bis(3,5-dinitropyrazol-1-ide)"
_symmetry_cell_setting           monoclinic
_symmetry_space_group_name_H-M   'P 21/c'
_symmetry_Int_Tables_number      14
_space_group_name_Hall           '-P 2ybc'
loop_
_symmetry_equiv_pos_site_id
_symmetry_equiv_pos_as_xyz
1 x,y,z
2 -x,1/2+y,1/2-z
3 -x,-y,-z
4 x,1/2-y,1/2+z
_cell_length_a                   8.0303(3)
_cell_length_b                   4.75253(14)
_cell_length_c                   17.3615(6)
_cell_angle_alpha                90
_cell_angle_beta                 102.148(3)
_cell_angle_gamma                90
_cell_volume                     647.751
_cell_formula_units_Z            2
loop_
_atom_site_label
_atom_site_type_symbol
_atom_site_fract_x
_atom_site_fract_y
_atom_site_fract_z
K1 K 0.12067(5) 0.06259(8) 0.15481(2)
O1 O 0.53423(17) -0.0962(3) -0.16647(8)
N1 N 0.20334(19) 0.5791(3) 0.00968(9)
O2 O 0.27288(17) 0.4945(3) 0.07560(7)
O3 O 0.10994(16) 0.7903(3) -0.00103(7)
N2 N 0.3846(2) -0.0348(3) -0.19017(9)
O4 O 0.29639(18) -0.1148(3) -0.25331(8)
N3 N 0.48103(18) 0.1290(3) 0.00153(8)
N4 N 0.17321(19) 0.3083(3) -0.18117(9)
C1 C 0.3500(2) 0.2166(3) -0.06190(10)
N5 N 0.12600(19) 0.4816(3) -0.12789(9)
C2 C 0.2305(2) 0.4286(3) -0.05815(10)
C3 C 0.3048(2) 0.1515(4) -0.14254(10)
O1B O 0.46577(17) 0.0962(3) 0.16647(8)
N1B N 0.79666(19) -0.5791(3) -0.00968(9)
O2B O 0.72712(17) -0.4945(3) -0.07560(7)
O3B O 0.89006(16) -0.7903(3) 0.00103(7)
N2B N 0.6154(2) 0.0348(3) 0.19017(9)
O4B O 0.70361(18) 0.1148(3) 0.25331(8)
N3B N 0.51897(18) -0.1290(3) -0.00153(8)
N4B N 0.82679(19) -0.3083(3) 0.18117(9)
C1B C 0.6500(2) -0.2166(3) 0.06190(10)
N5B N 0.87400(19) -0.4816(3) 0.12789(9)
C2B C 0.7695(2) -0.4286(3) 0.05815(10)
C3B C 0.6952(2) -0.1515(4) 0.14254(10)
loop_
_geom_bond_atom_site_label_1
_geom_bond_atom_site_label_2
_geom_bond_site_symmetry_1
_geom_bond_site_symmetry_2
O1 N2 1_555 1_555
N1 O2 1_555 1_555
O3 N1 1_555 1_555
N2 O4 1_555 1_555
N3 C1 1_555 1_555
N4 N5 1_555 1_555
C1 C2 1_555 1_555
N5 C2 1_555 1_555
C2 N1 1_555 1_555
C3 N2 1_555 1_555
O1B N2B 1_555 1_555
N1B O2B 1_555 1_555
O3B N1B 1_555 1_555
N2B O4B 1_555 1_555
N3B N3 1_555 1_555
N4B N5B 1_555 1_555
C1B N3B 1_555 1_555
N5B C2B 1_555 1_555
C2B N1B 1_555 1_555
C3B N2B 1_555 1_555
N4 C3 1_555 1_555
C1 C3 1_555 1_555
N4B C3B 1_555 1_555
C1B C2B 1_555 1_555
C1B C3B 1_555 1_555

#END
