
#######################################################################
#
#                 Cambridge Crystallographic Data Centre
#                                CCDC 
#
#######################################################################
#
# If this CIF has been generated from an entry in the Cambridge 
# Structural Database, then it will include bibliographic, chemical, 
# crystal, experimental, refinement or atomic coordinate data resulting 
# from the CCDC's data processing and validation procedures.
#
#######################################################################

data_JAYMEC
_chemical_formula_moiety         'C25 H28 Cl1 N1 O4'
_chemical_name_systematic        
'9-(4-Chlorophenyl)-3,3,6,6-tetramethyl-1,8-dioxo-1,2,3,4,5,6,7,8,9,10-decahydroacridine-10-acetic acid'
_symmetry_cell_setting           monoclinic
_symmetry_space_group_name_H-M   'P 21/c'
_symmetry_Int_Tables_number      14
_space_group_name_Hall           '-P 2ybc'
loop_
_symmetry_equiv_pos_site_id
_symmetry_equiv_pos_as_xyz
1 x,y,z
2 -x,1/2+y,1/2-z
3 -x,-y,-z
4 x,1/2-y,1/2+z
_cell_length_a                   12.655(3)
_cell_length_b                   16.582(3)
_cell_length_c                   11.500(3)
_cell_angle_alpha                90
_cell_angle_beta                 107.708(6)
_cell_angle_gamma                90
_cell_volume                     2298.88
_exptl_crystal_colour            'light yellow'
_exptl_crystal_description       block
_cell_formula_units_Z            4
_exptl_crystal_recrystallization_method ethanol
loop_
_atom_site_label
_atom_site_type_symbol
_atom_site_fract_x
_atom_site_fract_y
_atom_site_fract_z
Cl1 Cl 0.15015(12) 0.58195(8) 0.33536(13)
O1 O 0.4848(2) 0.37008(16) 0.8556(2)
O2 O 0.1038(2) 0.31521(16) 0.8107(2)
O3 O 0.3528(2) 0.01195(17) 0.6922(3)
O4 O 0.3655(2) -0.03496(15) 0.5146(2)
H1 H 0.4036 -0.0716 0.5582
N1 N 0.2973(2) 0.16477(17) 0.5914(3)
C1 C 0.3940(3) 0.2051(2) 0.6531(3)
C2 C 0.3897(3) 0.2738(2) 0.7153(3)
C3 C 0.2803(3) 0.3132(2) 0.7075(3)
H2 H 0.2876 0.3385 0.7886
C4 C 0.1938(3) 0.2481(2) 0.6872(3)
C5 C 0.1996(3) 0.1810(2) 0.6225(3)
C6 C 0.4898(3) 0.3119(2) 0.7890(3)
C7 C 0.5989(3) 0.2819(3) 0.7825(4)
H3 H 0.6569 0.2954 0.8597
H4 H 0.6175 0.3101 0.7154
C8 C 0.6002(3) 0.1920(2) 0.7615(4)
C9 C 0.5031(3) 0.1704(2) 0.6488(3)
H5 H 0.5191 0.1906 0.5749
H6 H 0.4965 0.1109 0.6422
C10 C 0.1068(3) 0.2561(2) 0.7469(3)
C11 C 0.0256(3) 0.1884(2) 0.7326(3)
H7 H -0.0438 0.2095 0.7439
H8 H 0.0564 0.1477 0.7970
C12 C -0.0012(3) 0.1477(2) 0.6072(3)
C13 C 0.1086(3) 0.1196(2) 0.5869(3)
H9 H 0.1340 0.0698 0.6348
H10 H 0.0940 0.1061 0.4996
C14 C 0.2487(3) 0.3798(2) 0.6112(3)
C15 C 0.2899(3) 0.3836(2) 0.5132(4)
H11 H 0.3394 0.3428 0.5036
C16 C 0.2608(4) 0.4456(3) 0.4283(4)
H12 H 0.2912 0.4477 0.3623
C17 C 0.1880(4) 0.5035(2) 0.4404(4)
C18 C 0.1454(4) 0.5011(3) 0.5373(5)
H13 H 0.0956 0.5418 0.5463
C19 C 0.1752(3) 0.4394(2) 0.6209(4)
H14 H 0.1446 0.4376 0.6867
C20 C 0.3027(3) 0.09579(19) 0.5146(3)
H15 H 0.3536 0.1088 0.4667
H16 H 0.2281 0.0863 0.4563
C21 C 0.3414(3) 0.0205(2) 0.5854(3)
C22 C 0.7087(3) 0.1665(3) 0.7386(5)
H17 H 0.7165 0.1953 0.6672
H18 H 0.7075 0.1083 0.7237
H19 H 0.7715 0.1798 0.8103
C23 C 0.5901(4) 0.1457(3) 0.8735(4)
H20 H 0.6518 0.1605 0.9454
H21 H 0.5922 0.0876 0.8590
H22 H 0.5197 0.1596 0.8877
C24 C -0.0612(3) 0.2068(2) 0.5075(4)
H23 H -0.1319 0.2225 0.5193
H24 H -0.0753 0.1810 0.4275
H25 H -0.0150 0.2547 0.5114
C25 C -0.0738(3) 0.0734(3) 0.6021(4)
H26 H -0.1453 0.0900 0.6110
H27 H -0.0367 0.0365 0.6686
H28 H -0.0861 0.0461 0.5236
loop_
_geom_bond_atom_site_label_1
_geom_bond_atom_site_label_2
_geom_bond_site_symmetry_1
_geom_bond_site_symmetry_2
Cl1 C17 1_555 1_555
O1 C6 1_555 1_555
O2 C10 1_555 1_555
O3 C21 1_555 1_555
O4 H1 1_555 1_555
N1 C1 1_555 1_555
C1 C2 1_555 1_555
C2 C3 1_555 1_555
C3 H2 1_555 1_555
C4 C3 1_555 1_555
C5 N1 1_555 1_555
C6 C2 1_555 1_555
C7 C6 1_555 1_555
H3 C7 1_555 1_555
H4 C7 1_555 1_555
C8 C7 1_555 1_555
C9 C1 1_555 1_555
H5 C9 1_555 1_555
H6 C9 1_555 1_555
C10 C4 1_555 1_555
C11 C10 1_555 1_555
H7 C11 1_555 1_555
H8 C11 1_555 1_555
C12 C11 1_555 1_555
C13 C5 1_555 1_555
H9 C13 1_555 1_555
H10 C13 1_555 1_555
C14 C3 1_555 1_555
C15 C14 1_555 1_555
H11 C15 1_555 1_555
C16 C15 1_555 1_555
H12 C16 1_555 1_555
C17 C16 1_555 1_555
C18 C17 1_555 1_555
H13 C18 1_555 1_555
C19 C14 1_555 1_555
H14 C19 1_555 1_555
C20 N1 1_555 1_555
H15 C20 1_555 1_555
H16 C20 1_555 1_555
C21 O4 1_555 1_555
C22 C8 1_555 1_555
H17 C22 1_555 1_555
H18 C22 1_555 1_555
H19 C22 1_555 1_555
C23 C8 1_555 1_555
H20 C23 1_555 1_555
H21 C23 1_555 1_555
H22 C23 1_555 1_555
C24 C12 1_555 1_555
H23 C24 1_555 1_555
H24 C24 1_555 1_555
H25 C24 1_555 1_555
C25 C12 1_555 1_555
H26 C25 1_555 1_555
H27 C25 1_555 1_555
H28 C25 1_555 1_555
C4 C5 1_555 1_555
C8 C9 1_555 1_555
C12 C13 1_555 1_555
C18 C19 1_555 1_555
C20 C21 1_555 1_555

#END
