
#######################################################################
#
#                 Cambridge Crystallographic Data Centre
#                                CCDC 
#
#######################################################################
#
# If this CIF has been generated from an entry in the Cambridge 
# Structural Database, then it will include bibliographic, chemical, 
# crystal, experimental, refinement or atomic coordinate data resulting 
# from the CCDC's data processing and validation procedures.
#
#######################################################################

data_JAYPUU04
_chemical_formula_moiety         'C6 H16 N1 1+,Cl1 1-'
_chemical_name_systematic        'Di-isopropylammonium chloride'
_symmetry_cell_setting           monoclinic
_symmetry_space_group_name_H-M   'P 21'
_symmetry_Int_Tables_number      4
_space_group_name_Hall           'P 2yb'
loop_
_symmetry_equiv_pos_site_id
_symmetry_equiv_pos_as_xyz
1 x,y,z
2 -x,1/2+y,-z
_cell_length_a                   7.6736(15)
_cell_length_b                   7.9445(16)
_cell_length_c                   7.7659(16)
_cell_angle_alpha                90
_cell_angle_beta                 114.95(3)
_cell_angle_gamma                90
_cell_volume                     429.249
_cell_formula_units_Z            2
loop_
_atom_site_label
_atom_site_type_symbol
_atom_site_fract_x
_atom_site_fract_y
_atom_site_fract_z
N1 N 0.3403(2) 0.4491(2) 0.5342(2)
H1 H 0.3454 0.3432 0.5707
H2 H 0.4288 0.4626 0.4921
C1 C 0.3938(3) 0.5491(5) 0.7155(3)
H3 H 0.3974 0.6693 0.6886
C2 C 0.1229(5) 0.6615(4) 0.3098(5)
H4 H -0.0014 0.6777 0.2069
H5 H 0.2209 0.6885 0.2682
H6 H 0.1356 0.7335 0.4138
C3 C 0.2486(5) 0.5194(5) 0.7961(5)
H7 H 0.2787 0.5894 0.9057
H8 H 0.2524 0.4033 0.8319
H9 H 0.1224 0.5465 0.7019
C4 C 0.1441(3) 0.4803(4) 0.3737(4)
H10 H 0.0451 0.4544 0.4183
C5 C 0.5925(4) 0.4917(4) 0.8536(4)
H11 H 0.6341 0.5573 0.9679
H12 H 0.6810 0.5066 0.7969
H13 H 0.5880 0.3750 0.8835
C6 C 0.1220(4) 0.3608(4) 0.2132(4)
H14 H 0.1355 0.2468 0.2582
H15 H 0.2193 0.3845 0.1695
H16 H -0.0026 0.3754 0.1105
Cl1 Cl 0.64477(7) 0.55683(6) 0.37471(7)
loop_
_geom_bond_atom_site_label_1
_geom_bond_atom_site_label_2
_geom_bond_site_symmetry_1
_geom_bond_site_symmetry_2
N1 H1 1_555 1_555
H2 N1 1_555 1_555
C1 N1 1_555 1_555
H3 C1 1_555 1_555
C2 H4 1_555 1_555
H5 C2 1_555 1_555
H6 C2 1_555 1_555
C3 C1 1_555 1_555
H7 C3 1_555 1_555
H8 C3 1_555 1_555
H9 C3 1_555 1_555
C4 N1 1_555 1_555
H10 C4 1_555 1_555
C5 C1 1_555 1_555
H11 C5 1_555 1_555
H12 C5 1_555 1_555
H13 C5 1_555 1_555
C6 C4 1_555 1_555
H14 C6 1_555 1_555
H15 C6 1_555 1_555
H16 C6 1_555 1_555
C2 C4 1_555 1_555

#END
