
#######################################################################
#
#                 Cambridge Crystallographic Data Centre
#                                CCDC 
#
#######################################################################
#
# If this CIF has been generated from an entry in the Cambridge 
# Structural Database, then it will include bibliographic, chemical, 
# crystal, experimental, refinement or atomic coordinate data resulting 
# from the CCDC's data processing and validation procedures.
#
#######################################################################

data_JAYPUU06
_chemical_formula_moiety         'C6 H16 N1 1+,Cl1 1-'
_chemical_name_systematic        'Di-isopropylammonium chloride'
_symmetry_cell_setting           monoclinic
_symmetry_space_group_name_H-M   'P 21'
_symmetry_Int_Tables_number      4
_space_group_name_Hall           'P 2yb'
loop_
_symmetry_equiv_pos_site_id
_symmetry_equiv_pos_as_xyz
1 x,y,z
2 -x,1/2+y,-z
_cell_length_a                   7.5856(15)
_cell_length_b                   7.8941(16)
_cell_length_c                   7.7199(15)
_cell_angle_alpha                90
_cell_angle_beta                 115.17(3)
_cell_angle_gamma                90
_cell_volume                     418.386
_cell_formula_units_Z            2
loop_
_atom_site_label
_atom_site_type_symbol
_atom_site_fract_x
_atom_site_fract_y
_atom_site_fract_z
N1 N 0.34137(15) 0.44882(15) 0.53188(15)
H1 H 0.3465 0.3429 0.5684
H2 H 0.4299 0.4623 0.4898
C1 C 0.39311(17) 0.5513(3) 0.71260(17)
H3 H 0.4011 0.6739 0.6840
C2 C 0.1234(3) 0.6626(2) 0.3047(3)
H4 H -0.0049 0.6800 0.1983
H5 H 0.2252 0.6904 0.2630
H6 H 0.1366 0.7362 0.4118
C3 C 0.2393(2) 0.5279(3) 0.7870(2)
H7 H 0.2702 0.5999 0.8996
H8 H 0.2366 0.4091 0.8223
H9 H 0.1116 0.5597 0.6871
C4 C 0.1438(2) 0.4796(2) 0.3681(2)
H10 H 0.0399 0.4520 0.4109
C5 C 0.5920(2) 0.4909(2) 0.8570(2)
H11 H 0.6336 0.5589 0.9739
H12 H 0.6867 0.5033 0.8024
H13 H 0.5838 0.3715 0.8877
C6 C 0.1270(2) 0.3594(2) 0.2076(2)
H14 H 0.1408 0.2423 0.2538
H15 H 0.2299 0.3847 0.1666
H16 H -0.0005 0.3737 0.0992
Cl1 Cl 0.65051(4) 0.55670(3) 0.37550(4)
loop_
_geom_bond_atom_site_label_1
_geom_bond_atom_site_label_2
_geom_bond_site_symmetry_1
_geom_bond_site_symmetry_2
N1 H1 1_555 1_555
H2 N1 1_555 1_555
C1 N1 1_555 1_555
H3 C1 1_555 1_555
C2 H4 1_555 1_555
H5 C2 1_555 1_555
H6 C2 1_555 1_555
C3 C1 1_555 1_555
H7 C3 1_555 1_555
H8 C3 1_555 1_555
H9 C3 1_555 1_555
C4 N1 1_555 1_555
H10 C4 1_555 1_555
C5 C1 1_555 1_555
H11 C5 1_555 1_555
H12 C5 1_555 1_555
H13 C5 1_555 1_555
C6 C4 1_555 1_555
H14 C6 1_555 1_555
H15 C6 1_555 1_555
H16 C6 1_555 1_555
C2 C4 1_555 1_555

#END
