
#######################################################################
#
#                 Cambridge Crystallographic Data Centre
#                                CCDC 
#
#######################################################################
#
# If this CIF has been generated from an entry in the Cambridge 
# Structural Database, then it will include bibliographic, chemical, 
# crystal, experimental, refinement or atomic coordinate data resulting 
# from the CCDC's data processing and validation procedures.
#
#######################################################################

data_JAYQIK
_chemical_formula_moiety         'C16 H12 N6 O1,0.5(C6 H12)'
_chemical_name_systematic        
'2-(1H-Benzotriazol-1-yl)-1-phenyl-2-(1H-1,2,4-triazol-1-yl)ethanone cyclohexane solvate'
_symmetry_cell_setting           monoclinic
_symmetry_space_group_name_H-M   'P 21/c'
_symmetry_Int_Tables_number      14
_space_group_name_Hall           '-P 2ybc'
loop_
_symmetry_equiv_pos_site_id
_symmetry_equiv_pos_as_xyz
1 x,y,z
2 -x,1/2+y,1/2-z
3 -x,-y,-z
4 x,1/2-y,1/2+z
_cell_length_a                   8.9187(12)
_cell_length_b                   8.3101(11)
_cell_length_c                   25.367(3)
_cell_angle_alpha                90
_cell_angle_beta                 108.718(4)
_cell_angle_gamma                90
_cell_volume                     1780.64
_exptl_crystal_colour            colorless
_exptl_crystal_description       plate
_cell_formula_units_Z            4
_exptl_crystal_recrystallization_method 'ethyl acetate/cyclohexane'
loop_
_atom_site_label
_atom_site_type_symbol
_atom_site_fract_x
_atom_site_fract_y
_atom_site_fract_z
O1 O -0.00484(17) -0.39807(16) -0.32650(6)
N1 N 0.26308(15) -0.20208(15) -0.36971(5)
N2 N 0.38371(17) -0.09458(17) -0.36185(6)
N3 N 0.37767(19) -0.03470(18) -0.40949(6)
N4 N 0.30576(17) -0.44732(15) -0.31817(5)
N5 N 0.4471(2) -0.6610(2) -0.28881(7)
N6 N 0.2653(2) -0.54880(17) -0.36255(6)
C1 C -0.1595(2) -0.0926(3) -0.34004(8)
H1 H -0.2253 -0.1809 -0.3527
C2 C -0.2244(2) 0.0578(3) -0.33958(9)
H2 H -0.3338 0.0701 -0.3525
C3 C -0.1303(3) 0.1887(3) -0.32043(8)
H3 H -0.1754 0.2897 -0.3204
C4 C 0.0314(2) 0.1707(2) -0.30115(8)
H4 H 0.0958 0.2593 -0.2874
C5 C 0.0984(2) 0.0218(2) -0.30206(7)
H5 H 0.2080 0.0111 -0.2895
C6 C 0.0042(2) -0.1128(2) -0.32157(6)
C7 C 0.0706(2) -0.2761(2) -0.32350(6)
C8 C 0.2449(2) -0.28446(18) -0.32207(6)
H6 H 0.3086 -0.2265 -0.2888
C9 C 0.17670(19) -0.21057(18) -0.42509(6)
C10 C 0.0448(2) -0.3004(2) -0.45572(7)
H7 H -0.0048 -0.3734 -0.4390
C11 C -0.0064(2) -0.2736(2) -0.51211(7)
H8 H -0.0940 -0.3301 -0.5342
C12 C 0.0684(3) -0.1643(3) -0.53759(7)
H9 H 0.0290 -0.1505 -0.5760
C13 C 0.1972(3) -0.0779(2) -0.50765(8)
H10 H 0.2469 -0.0058 -0.5247
C14 C 0.2516(2) -0.10266(19) -0.44993(7)
C15 C 0.4124(2) -0.5170(2) -0.27554(7)
H11 H 0.4568 -0.4698 -0.2408
C16 C 0.3544(3) -0.6734(2) -0.34247(8)
H12 H 0.3541 -0.7647 -0.3637
C18 C 0.4661(13) -0.9801(11) -0.0588(3)
H15 H 0.5605 -0.9421 -0.0660
H16 H 0.3837 -0.9920 -0.0945
C19 C 0.4988(8) -1.1349(5) -0.0328(3)
H17 H 0.4582 -1.2415 -0.0452
H18 H 0.5724 -1.1054 -0.0522
C20 C 0.4175(6) -0.8612(5) -0.0272(2)
H19 H 0.3264 -0.7906 -0.0349
H20 H 0.4872 -0.8192 -0.0465
C18B C 0.5339(13) -1.0199(11) 0.0588(3)
H15B H 0.4395 -1.0579 0.0660
H16B H 0.6163 -1.0080 0.0945
C19B C 0.5012(8) -0.8651(5) 0.0328(3)
H17B H 0.5418 -0.7585 0.0452
H18B H 0.4276 -0.8946 0.0522
C20B C 0.5825(6) -1.1388(5) 0.0272(2)
H19B H 0.6736 -1.2094 0.0349
H20B H 0.5128 -1.1808 0.0465
C17? C 0.3670(14) -1.0196(9) -0.0469(5)
H13? H 0.3180 -1.0166 -0.0870
H14? H 0.2880 -1.0557 -0.0307
loop_
_geom_bond_atom_site_label_1
_geom_bond_atom_site_label_2
_geom_bond_site_symmetry_1
_geom_bond_site_symmetry_2
O1 C7 1_555 1_555
N1 N2 1_555 1_555
N2 N3 1_555 1_555
N3 C14 1_555 1_555
N4 N6 1_555 1_555
N5 C15 1_555 1_555
N6 C16 1_555 1_555
C1 H1 1_555 1_555
C2 C1 1_555 1_555
H2 C2 1_555 1_555
C3 C2 1_555 1_555
H3 C3 1_555 1_555
C4 C3 1_555 1_555
H4 C4 1_555 1_555
C5 C4 1_555 1_555
H5 C5 1_555 1_555
C6 C1 1_555 1_555
C7 C6 1_555 1_555
C8 N1 1_555 1_555
H6 C8 1_555 1_555
C9 N1 1_555 1_555
C10 C9 1_555 1_555
H7 C10 1_555 1_555
C11 C10 1_555 1_555
H8 C11 1_555 1_555
C12 C11 1_555 1_555
H9 C12 1_555 1_555
C13 C12 1_555 1_555
H10 C13 1_555 1_555
C14 C9 1_555 1_555
C15 N4 1_555 1_555
H11 C15 1_555 1_555
C16 N5 1_555 1_555
H12 C16 1_555 1_555
C18 H15 1_555 1_555
H16 C18 1_555 1_555
C19 C18 1_555 1_555
H17 C19 1_555 1_555
H18 C19 1_555 1_555
C20 C18 1_555 1_555
H19 C20 1_555 1_555
H20 C20 1_555 1_555
C18B H15B 1_555 1_555
H16B C18B 1_555 1_555
C19B C20 1_555 1_555
H17B C19B 1_555 1_555
H18B C19B 1_555 1_555
C20B C19 1_555 1_555
H19B C20B 1_555 1_555
H20B C20B 1_555 1_555
N4 C8 1_555 1_555
C5 C6 1_555 1_555
C7 C8 1_555 1_555
C13 C14 1_555 1_555
C18B C19B 1_555 1_555
C18B C20B 1_555 1_555

#END
