
#######################################################################
#
#                 Cambridge Crystallographic Data Centre
#                                CCDC 
#
#######################################################################
#
# If this CIF has been generated from an entry in the Cambridge 
# Structural Database, then it will include bibliographic, chemical, 
# crystal, experimental, refinement or atomic coordinate data resulting 
# from the CCDC's data processing and validation procedures.
#
#######################################################################

data_JAYRIL
_chemical_formula_moiety         'C24 H25 Cl1 N4 O4'
_chemical_name_systematic        
'Methyl 2-(2-(1-(3-(2-chlorophenyl)-1,2,4-oxadiazol-5-yl)-2-(dimethylamino)vinyloxy)phenyl)-3-(dimethylamino)acrylate'
_symmetry_cell_setting           monoclinic
_symmetry_space_group_name_H-M   'P 21/c'
_symmetry_Int_Tables_number      14
_space_group_name_Hall           '-P 2ybc'
loop_
_symmetry_equiv_pos_site_id
_symmetry_equiv_pos_as_xyz
1 x,y,z
2 -x,1/2+y,1/2-z
3 -x,-y,-z
4 x,1/2-y,1/2+z
_cell_length_a                   16.088(3)
_cell_length_b                   8.3060(17)
_cell_length_c                   17.358(4)
_cell_angle_alpha                90
_cell_angle_beta                 95.79(3)
_cell_angle_gamma                90
_cell_volume                     2307.66
_exptl_crystal_colour            colorless
_exptl_crystal_description       block
_cell_formula_units_Z            4
_exptl_crystal_recrystallization_method ethanol
loop_
_atom_site_label
_atom_site_type_symbol
_atom_site_fract_x
_atom_site_fract_y
_atom_site_fract_z
C1 C 0.6334(2) 0.8337(6) 1.0124(2)
H1 H 0.6569 0.7314 1.0007
H2 H 0.6377 0.9063 0.9699
H3 H 0.5757 0.8200 1.0205
C2 C 0.6490(3) 1.0566(6) 1.1064(3)
H4 H 0.6789 1.0861 1.1550
H5 H 0.5903 1.0504 1.1121
H6 H 0.6583 1.1361 1.0681
C3 C 0.7497(2) 0.8399(5) 1.1162(2)
H7 H 0.7692 0.8922 1.1618
C4 C 1.0023(3) 0.5497(7) 1.1706(2)
H8 H 1.0411 0.5021 1.1387
H9 H 0.9940 0.4785 1.2127
H10 H 1.0243 0.6504 1.1908
C5 C 0.8737(2) 0.6907(5) 1.1508(2)
C6 C 0.7993(2) 0.7165(4) 1.09676(18)
C7 C 0.78927(19) 0.6218(4) 1.02277(18)
C8 C 0.7669(2) 0.4603(5) 1.0226(2)
H11 H 0.7570 0.4108 1.0688
C9 C 0.7591(2) 0.3709(5) 0.9541(2)
H12 H 0.7436 0.2631 0.9547
C10 C 0.7748(2) 0.4441(5) 0.8856(2)
H13 H 0.7690 0.3854 0.8397
C11 C 0.7988(2) 0.6032(5) 0.88446(19)
H14 H 0.8100 0.6517 0.8383
C12 C 0.80612(19) 0.6898(4) 0.95247(18)
C13 C 1.0091(2) 0.7581(5) 0.9898(2)
H15 H 0.9534 0.7574 1.0049
H16 H 1.0464 0.8047 1.0304
H17 H 1.0263 0.6497 0.9805
C14 C 1.0929(2) 0.8655(6) 0.8893(3)
H18 H 1.0889 0.9363 0.8454
H19 H 1.1104 0.7607 0.8739
H20 H 1.1329 0.9074 0.9290
C15 C 0.9437(2) 0.9177(4) 0.87924(19)
H21 H 0.9553 0.9728 0.8349
C16 C 0.8619(2) 0.9182(4) 0.89107(18)
C17 C 0.8007(2) 0.9914(4) 0.83681(18)
C18 C 0.6930(2) 1.0712(4) 0.7700(2)
C19 C 0.6047(2) 1.0959(5) 0.7399(2)
C20 C 0.5438(2) 1.1457(5) 0.7845(3)
C21 C 0.4621(3) 1.1731(6) 0.7508(4)
H22 H 0.4212 1.2097 0.7807
C22 C 0.4433(3) 1.1455(7) 0.6735(4)
H23 H 0.3888 1.1609 0.6513
C23 C 0.5024(4) 1.0960(7) 0.6286(3)
H24 H 0.4879 1.0801 0.5759
C24 C 0.5829(3) 1.0690(6) 0.6591(3)
H25 H 0.6228 1.0336 0.6278
Cl1 Cl 0.56563(8) 1.1829(2) 0.88131(8)
N1 N 0.67855(19) 0.8995(4) 1.08190(19)
N2 N 1.01115(17) 0.8531(4) 0.91904(17)
N3 N 0.75238(19) 1.1309(4) 0.73270(17)
N4 N 0.71883(18) 0.9841(4) 0.83528(16)
O1 O 0.89158(18) 0.7630(4) 1.21119(14)
O2 O 0.92423(15) 0.5769(3) 1.12529(14)
O3 O 0.83115(14) 0.8502(3) 0.95638(12)
O4 O 0.82591(14) 1.0777(3) 0.77744(13)
loop_
_geom_bond_atom_site_label_1
_geom_bond_atom_site_label_2
_geom_bond_site_symmetry_1
_geom_bond_site_symmetry_2
C1 H1 1_555 1_555
H2 C1 1_555 1_555
H3 C1 1_555 1_555
C2 H4 1_555 1_555
H5 C2 1_555 1_555
H6 C2 1_555 1_555
C3 H7 1_555 1_555
C4 H8 1_555 1_555
H9 C4 1_555 1_555
H10 C4 1_555 1_555
C5 C6 1_555 1_555
C6 C3 1_555 1_555
C7 C6 1_555 1_555
C8 C7 1_555 1_555
H11 C8 1_555 1_555
C9 C8 1_555 1_555
H12 C9 1_555 1_555
C10 C9 1_555 1_555
H13 C10 1_555 1_555
C11 C10 1_555 1_555
H14 C11 1_555 1_555
C12 C7 1_555 1_555
C13 H15 1_555 1_555
H16 C13 1_555 1_555
H17 C13 1_555 1_555
C14 H18 1_555 1_555
H19 C14 1_555 1_555
H20 C14 1_555 1_555
C15 H21 1_555 1_555
C16 C15 1_555 1_555
C17 C16 1_555 1_555
C18 C19 1_555 1_555
C19 C20 1_555 1_555
C20 C21 1_555 1_555
C21 H22 1_555 1_555
C22 C21 1_555 1_555
H23 C22 1_555 1_555
C23 C22 1_555 1_555
H24 C23 1_555 1_555
C24 C19 1_555 1_555
H25 C24 1_555 1_555
Cl1 C20 1_555 1_555
N1 C1 1_555 1_555
N2 C13 1_555 1_555
N3 C18 1_555 1_555
N4 C17 1_555 1_555
O1 C5 1_555 1_555
O2 C4 1_555 1_555
O3 C12 1_555 1_555
O4 C17 1_555 1_555
C2 N1 1_555 1_555
C3 N1 1_555 1_555
C5 O2 1_555 1_555
C11 C12 1_555 1_555
C14 N2 1_555 1_555
C15 N2 1_555 1_555
C16 O3 1_555 1_555
C18 N4 1_555 1_555
C23 C24 1_555 1_555
N3 O4 1_555 1_555

#END
