
#######################################################################
#
#                 Cambridge Crystallographic Data Centre
#                                CCDC 
#
#######################################################################
#
# If this CIF has been generated from an entry in the Cambridge 
# Structural Database, then it will include bibliographic, chemical, 
# crystal, experimental, refinement or atomic coordinate data resulting 
# from the CCDC's data processing and validation procedures.
#
#######################################################################

data_JAYREH
_chemical_formula_moiety         'C17 H12 N2 O2,C10 H8 O1'
_chemical_name_systematic        
'1-((4-Formylphenyl)hydrazono)naphthalen-2(1H)-one 2-naphthol'
_symmetry_cell_setting           triclinic
_symmetry_space_group_name_H-M   'P -1'
_symmetry_Int_Tables_number      2
_space_group_name_Hall           '-P 1'
loop_
_symmetry_equiv_pos_site_id
_symmetry_equiv_pos_as_xyz
1 x,y,z
2 -x,-y,-z
_cell_length_a                   7.9088(12)
_cell_length_b                   10.7469(16)
_cell_length_c                   12.3067(19)
_cell_angle_alpha                86.421(3)
_cell_angle_beta                 89.184(3)
_cell_angle_gamma                83.715(3)
_cell_volume                     1037.67
_exptl_crystal_colour            red
_exptl_crystal_description       block
_chemical_melting_point          '410.0 K'
_cell_formula_units_Z            2
_exptl_crystal_recrystallization_method acetone
loop_
_atom_site_label
_atom_site_type_symbol
_atom_site_fract_x
_atom_site_fract_y
_atom_site_fract_z
C18 C 0.8446(4) 1.0972(2) 0.9089(2)
H13 H 0.8291 1.1773 0.8748
C19 C 0.7280(4) 1.0168(3) 0.8958(2)
C20 C 0.7468(4) 0.8965(3) 0.9492(2)
H15 H 0.6640 0.8427 0.9413
C21 C 0.8847(4) 0.8580(3) 1.0125(2)
H16 H 0.8959 0.7779 1.0467
C22 C 0.9897(3) 1.0616(2) 0.97346(18)
O3 O 0.6013(5) 1.0485(3) 0.8288(3)
H17 H 0.6182 1.1126 0.7926
C18A C 1.1554(4) 0.9028(2) 1.0911(2)
H13A H 1.1709 0.8227 1.1252
C19A C 1.2720(4) 0.9832(3) 1.1042(2)
C20A C 1.2532(4) 1.1035(3) 1.0508(2)
H15A H 1.3360 1.1573 1.0587
C21A C 1.1153(4) 1.1420(3) 0.9875(2)
H16A H 1.1041 1.2221 0.9533
C22A C 1.0103(3) 0.9384(2) 1.02654(18)
O3A O 1.3987(5) 0.9515(3) 1.1712(3)
H17A H 1.3818 0.8874 1.2074
O4 O 0.7492(9) 0.8641(6) 0.3000(6)
H18 H 0.6483 0.8444 0.3073
C23 C 0.9748(6) 0.9409(3) 0.3636(3)
H19 H 1.0344 0.9309 0.2985
C24 C 0.8175(7) 0.9060(4) 0.3755(4)
C25 C 0.7151(6) 0.9168(3) 0.4678(4)
H21 H 0.6064 0.8913 0.4718
C26 C 0.7874(5) 0.9682(3) 0.5524(3)
H22 H 0.7243 0.9779 0.6163
C27 C 1.0484(5) 0.9929(3) 0.4518(3)
O4A O 1.2508(9) 1.1359(6) 0.7000(6)
H18A H 1.3517 1.1556 0.6927
C23A C 1.0252(6) 1.0591(3) 0.6364(3)
H19A H 0.9656 1.0691 0.7015
C24A C 1.1825(7) 1.0940(4) 0.6245(4)
C25A C 1.2849(6) 1.0832(3) 0.5322(4)
H21A H 1.3936 1.1087 0.5282
C26A C 1.2126(5) 1.0318(3) 0.4476(3)
H22A H 1.2757 1.0221 0.3837
C27A C 0.9516(5) 1.0071(3) 0.5482(3)
N1 N 0.3434(2) 0.50515(19) 0.40980(15)
N2 N 0.2751(2) 0.6010(2) 0.46135(16)
H1 H 0.289(4) 0.679(3) 0.432(2)
O1 O 0.4007(3) 0.7432(2) 0.31120(18)
O2 O -0.1270(3) 0.4370(2) 0.89404(16)
C1 C 0.4294(3) 0.5225(2) 0.31792(18)
C2 C 0.4554(3) 0.6449(3) 0.2673(2)
C3 C 0.5456(3) 0.6480(3) 0.1647(2)
H2 H 0.5602 0.7250 0.1291
C4 C 0.6087(3) 0.5428(3) 0.1198(2)
H3 H 0.6672 0.5492 0.0540
C5 C 0.5904(3) 0.4204(3) 0.16836(19)
C6 C 0.4992(3) 0.4093(2) 0.26695(18)
C7 C 0.4819(3) 0.2895(3) 0.3130(2)
H4 H 0.4202 0.2804 0.3774
C8 C 0.5547(4) 0.1847(3) 0.2648(2)
H5 H 0.5426 0.1056 0.2972
C9 C 0.6462(4) 0.1955(3) 0.1681(2)
H6 H 0.6962 0.1242 0.1362
C10 C 0.6622(3) 0.3119(3) 0.1202(2)
H7 H 0.7215 0.3192 0.0547
C11 C 0.1791(3) 0.5810(2) 0.55579(17)
C12 C 0.1043(3) 0.6856(2) 0.6061(2)
H8 H 0.1177 0.7657 0.5767
C13 C 0.0101(3) 0.6699(2) 0.6999(2)
H9 H -0.0408 0.7398 0.7334
C14 C -0.0096(3) 0.5509(2) 0.74492(18)
C15 C 0.0644(3) 0.4473(2) 0.69288(18)
H10 H 0.0501 0.3673 0.7222
C16 C 0.1580(3) 0.4607(2) 0.59915(18)
H11 H 0.2068 0.3905 0.5650
C17 C -0.1049(3) 0.5354(3) 0.8472(2)
H12 H -0.1523 0.6079 0.8784
H14? H 0.6347 1.0409 0.8512
H20? H 0.7727 0.8713 0.3163
loop_
_geom_bond_atom_site_label_1
_geom_bond_atom_site_label_2
_geom_bond_site_symmetry_1
_geom_bond_site_symmetry_2
N1 N2 1_555 1_555
N2 H1 1_555 1_555
O1 C2 1_555 1_555
O2 C17 1_555 1_555
C1 N1 1_555 1_555
C2 C1 1_555 1_555
C3 C2 1_555 1_555
H2 C3 1_555 1_555
C4 C3 1_555 1_555
H3 C4 1_555 1_555
C5 C4 1_555 1_555
C6 C1 1_555 1_555
C7 C6 1_555 1_555
H4 C7 1_555 1_555
C8 C7 1_555 1_555
H5 C8 1_555 1_555
C9 C8 1_555 1_555
H6 C9 1_555 1_555
C10 C5 1_555 1_555
H7 C10 1_555 1_555
C11 N2 1_555 1_555
C12 C11 1_555 1_555
H8 C12 1_555 1_555
C13 C12 1_555 1_555
H9 C13 1_555 1_555
C14 C13 1_555 1_555
C15 C14 1_555 1_555
H10 C15 1_555 1_555
C16 C11 1_555 1_555
H11 C16 1_555 1_555
C17 C14 1_555 1_555
H12 C17 1_555 1_555
C18 H13 1_555 1_555
C19 C18 1_555 1_555
C20 C19 1_555 1_555
H15 C20 1_555 1_555
C21 C20 1_555 1_555
H16 C21 1_555 1_555
C22 C18 1_555 1_555
O3 C19 1_555 1_555
H17 O3 1_555 1_555
O4 H18 1_555 1_555
C23 H19 1_555 1_555
C24 O4 1_555 1_555
C25 C24 1_555 1_555
H21 C25 1_555 1_555
C26 C25 1_555 1_555
H22 C26 1_555 1_555
C27 C23 1_555 1_555
C18A H13A 1_555 1_555
C19A C18A 1_555 1_555
C20A C19A 1_555 1_555
H15A C20A 1_555 1_555
C21A C22 1_555 1_555
H16A C21A 1_555 1_555
C22A C21 1_555 1_555
O3A C19A 1_555 1_555
H17A O3A 1_555 1_555
O4A H18A 1_555 1_555
C23A H19A 1_555 1_555
C24A O4A 1_555 1_555
C25A C24A 1_555 1_555
H21A C25A 1_555 1_555
C26A C27 1_555 1_555
H22A C26A 1_555 1_555
C27A C26 1_555 1_555
C5 C6 1_555 1_555
C9 C10 1_555 1_555
C15 C16 1_555 1_555
C22 C22A 1_555 1_555
C23 C24 1_555 1_555
C27 C27A 1_555 1_555
C18A C22A 1_555 1_555
C20A C21A 1_555 1_555
C23A C24A 1_555 1_555
C23A C27A 1_555 1_555
C25A C26A 1_555 1_555

#END
