
#######################################################################
#
#                 Cambridge Crystallographic Data Centre
#                                CCDC 
#
#######################################################################
#
# If this CIF has been generated from an entry in the Cambridge 
# Structural Database, then it will include bibliographic, chemical, 
# crystal, experimental, refinement or atomic coordinate data resulting 
# from the CCDC's data processing and validation procedures.
#
#######################################################################

data_JAYSAE
_chemical_formula_moiety         'C24 H29 N5 O3'
_chemical_name_systematic        
1-((2,6-Dimethylphenyl)aminocarbonylmethyl)-4-((3-(3-methoxyphenyl)-1,2,4-oxadiazol-5-yl)methyl)piperazine
_chemical_properties_biological  'potential biological activity'
_symmetry_cell_setting           monoclinic
_symmetry_space_group_name_H-M   'P 21/c'
_symmetry_Int_Tables_number      14
_space_group_name_Hall           '-P 2ybc'
loop_
_symmetry_equiv_pos_site_id
_symmetry_equiv_pos_as_xyz
1 x,y,z
2 -x,1/2+y,1/2-z
3 -x,-y,-z
4 x,1/2-y,1/2+z
_cell_length_a                   17.120(3)
_cell_length_b                   10.271(2)
_cell_length_c                   13.042(3)
_cell_angle_alpha                90
_cell_angle_beta                 91.10(3)
_cell_angle_gamma                90
_cell_volume                     2292.88
_exptl_crystal_colour            colorless
_exptl_crystal_description       block
_cell_formula_units_Z            4
_exptl_crystal_recrystallization_method ethanol
loop_
_atom_site_label
_atom_site_type_symbol
_atom_site_fract_x
_atom_site_fract_y
_atom_site_fract_z
O1 O 0.62504(17) -0.4005(3) 1.1594(2)
O2 O 0.58584(13) 0.2310(2) 0.96094(18)
O3 O 1.01782(14) 0.63426(19) 0.74072(19)
N1 N 0.56240(16) 0.1670(3) 1.0516(2)
N2 N 0.62927(14) 0.0306(2) 0.9501(2)
N3 N 0.71048(14) 0.2991(2) 0.82335(19)
N4 N 0.85797(15) 0.4313(2) 0.8194(2)
N5 N 0.99969(16) 0.4167(2) 0.7270(2)
C1 C 0.6357(3) -0.4449(4) 1.0595(4)
H1 H 0.6501 -0.5352 1.0611
H2 H 0.6764 -0.3954 1.0282
H3 H 0.5880 -0.4346 1.0205
C2 C 0.6044(2) -0.2735(4) 1.1732(3)
C3 C 0.5788(2) -0.2416(4) 1.2691(3)
H4 H 0.5779 -0.3045 1.3204
C4 C 0.5547(2) -0.1178(5) 1.2894(3)
H5 H 0.5361 -0.0979 1.3541
C5 C 0.5573(2) -0.0219(4) 1.2157(3)
H6 H 0.5411 0.0623 1.2308
C6 C 0.58403(17) -0.0519(3) 1.1194(2)
C7 C 0.60720(18) -0.1782(3) 1.0978(3)
H7 H 0.6246 -0.1992 1.0328
C8 C 0.58997(17) 0.0491(3) 1.0398(3)
C9 C 0.62509(17) 0.1432(3) 0.9067(3)
C10 C 0.66072(18) 0.1845(3) 0.8093(2)
H8 H 0.6916 0.1135 0.7825
H9 H 0.6197 0.2041 0.7593
C11 C 0.77107(18) 0.2795(3) 0.9026(3)
H10 H 0.8047 0.2078 0.8835
H11 H 0.7471 0.2578 0.9672
C12 C 0.81898(19) 0.4027(3) 0.9148(3)
H12 H 0.7852 0.4747 0.9327
H13 H 0.8575 0.3915 0.9696
C13 C 0.7987(2) 0.4516(3) 0.7394(3)
H14 H 0.8238 0.4704 0.6750
H15 H 0.7665 0.5257 0.7569
C14 C 0.74802(19) 0.3320(3) 0.7272(2)
H16 H 0.7083 0.3477 0.6746
H17 H 0.7798 0.2593 0.7054
C15 C 0.91131(19) 0.5419(3) 0.8295(3)
H18 H 0.9302 0.5465 0.9000
H19 H 0.8824 0.6212 0.8151
C16 C 0.98010(19) 0.5362(3) 0.7604(2)
C17 C 1.06152(18) 0.3914(3) 0.6586(3)
C18 C 1.1386(2) 0.4080(3) 0.6913(3)
C19 C 1.1964(2) 0.3814(3) 0.6207(4)
H20 H 1.2486 0.3913 0.6401
C20 C 1.1779(3) 0.3407(4) 0.5226(4)
H21 H 1.2175 0.3255 0.4763
C21 C 1.1014(2) 0.3226(3) 0.4930(3)
H22 H 1.0894 0.2942 0.4268
C22 C 1.04223(19) 0.3462(3) 0.5604(3)
C23 C 0.9589(2) 0.3230(3) 0.5282(3)
H23 H 0.9295 0.4019 0.5360
H24 H 0.9370 0.2561 0.5702
H25 H 0.9567 0.2962 0.4577
C24 C 1.1595(2) 0.4499(4) 0.7989(3)
H26 H 1.1234 0.4120 0.8458
H27 H 1.1569 0.5431 0.8036
H28 H 1.2115 0.4213 0.8161
H29 H 0.9669(18) 0.359(3) 0.741(3)
loop_
_geom_bond_atom_site_label_1
_geom_bond_atom_site_label_2
_geom_bond_site_symmetry_1
_geom_bond_site_symmetry_2
O1 C1 1_555 1_555
O2 N1 1_555 1_555
O3 C16 1_555 1_555
N1 C8 1_555 1_555
N2 C8 1_555 1_555
N3 C10 1_555 1_555
N4 C12 1_555 1_555
N5 C16 1_555 1_555
C1 H1 1_555 1_555
H2 C1 1_555 1_555
H3 C1 1_555 1_555
C2 O1 1_555 1_555
C3 C2 1_555 1_555
H4 C3 1_555 1_555
C4 C3 1_555 1_555
H5 C4 1_555 1_555
C5 C4 1_555 1_555
H6 C5 1_555 1_555
C6 C5 1_555 1_555
C7 C2 1_555 1_555
H7 C7 1_555 1_555
C8 C6 1_555 1_555
C9 O2 1_555 1_555
C10 C9 1_555 1_555
H8 C10 1_555 1_555
H9 C10 1_555 1_555
C11 N3 1_555 1_555
H10 C11 1_555 1_555
H11 C11 1_555 1_555
C12 C11 1_555 1_555
H12 C12 1_555 1_555
H13 C12 1_555 1_555
C13 N4 1_555 1_555
H14 C13 1_555 1_555
H15 C13 1_555 1_555
C14 N3 1_555 1_555
H16 C14 1_555 1_555
H17 C14 1_555 1_555
C15 N4 1_555 1_555
H18 C15 1_555 1_555
H19 C15 1_555 1_555
C16 C15 1_555 1_555
C17 N5 1_555 1_555
C18 C17 1_555 1_555
C19 C18 1_555 1_555
H20 C19 1_555 1_555
C20 C19 1_555 1_555
H21 C20 1_555 1_555
C21 C20 1_555 1_555
H22 C21 1_555 1_555
C22 C17 1_555 1_555
C23 C22 1_555 1_555
H23 C23 1_555 1_555
H24 C23 1_555 1_555
H25 C23 1_555 1_555
C24 C18 1_555 1_555
H26 C24 1_555 1_555
H27 C24 1_555 1_555
H28 C24 1_555 1_555
H29 N5 1_555 1_555
N2 C9 1_555 1_555
C6 C7 1_555 1_555
C13 C14 1_555 1_555
C21 C22 1_555 1_555

#END
