
#######################################################################
#
#                 Cambridge Crystallographic Data Centre
#                                CCDC 
#
#######################################################################
#
# If this CIF has been generated from an entry in the Cambridge 
# Structural Database, then it will include bibliographic, chemical, 
# crystal, experimental, refinement or atomic coordinate data resulting 
# from the CCDC's data processing and validation procedures.
#
#######################################################################

data_JAYSEI
_chemical_formula_moiety         'C20 H13 N1'
_chemical_name_systematic        9-(4-Ethynylphenyl)-9H-carbazole
_symmetry_cell_setting           monoclinic
_symmetry_space_group_name_H-M   'C 2/c'
_symmetry_Int_Tables_number      15
_space_group_name_Hall           '-C 2yn'
loop_
_symmetry_equiv_pos_site_id
_symmetry_equiv_pos_as_xyz
1 x,y,z
2 1/2+x,1/2+y,z
3 -x,y,1/2-z
4 1/2-x,1/2+y,1/2-z
5 -x,-y,-z
6 1/2-x,1/2-y,-z
7 x,-y,1/2+z
8 1/2+x,1/2-y,1/2+z
_cell_length_a                   26.753(3)
_cell_length_b                   5.7309(6)
_cell_length_c                   20.185(2)
_cell_angle_alpha                90
_cell_angle_beta                 110.868(2)
_cell_angle_gamma                90
_cell_volume                     2891.74
_exptl_crystal_colour            colorless
_exptl_crystal_description       block
_cell_formula_units_Z            8
_exptl_crystal_recrystallization_method hexane/dichloromethane
loop_
_atom_site_label
_atom_site_type_symbol
_atom_site_fract_x
_atom_site_fract_y
_atom_site_fract_z
N1 N 0.13975(4) 0.54237(18) 0.07748(5)
C1 C 0.18806(5) 0.4220(2) 0.10603(7)
C2 C 0.23516(6) 0.4468(3) 0.09284(8)
C3 C 0.27689(7) 0.2998(3) 0.12820(10)
C4 C 0.27272(7) 0.1345(3) 0.17596(9)
C5 C 0.22662(6) 0.1144(3) 0.19037(8)
C6 C 0.18374(5) 0.2594(2) 0.15549(6)
C7 C 0.13072(5) 0.2808(2) 0.15724(6)
C8 C 0.10250(6) 0.1579(2) 0.19222(7)
C9 C 0.04936(6) 0.2066(3) 0.17689(7)
C10 C 0.02367(6) 0.3764(3) 0.12753(7)
C11 C 0.05071(5) 0.5034(2) 0.09264(7)
C12 C 0.10429(5) 0.4539(2) 0.10797(6)
C13 C 0.12560(5) 0.6997(2) 0.01924(6)
C14 C 0.09826(5) 0.9024(2) 0.02056(7)
C15 C 0.08327(5) 1.0521(2) -0.03638(7)
C16 C 0.09598(5) 1.0025(2) -0.09587(6)
C17 C 0.12378(5) 0.7987(2) -0.09659(7)
C18 C 0.13823(5) 0.6474(2) -0.03983(7)
C19 C 0.08085(5) 1.1589(2) -0.15529(7)
C20 C 0.06977(6) 1.2868(3) -0.20341(8)
H1 H 0.2391(6) 0.562(3) 0.0597(7)
H2 H 0.3091(7) 0.317(3) 0.1181(7)
H3 H 0.3039(7) 0.033(3) 0.1986(7)
H4 H 0.2232(6) 0.000(2) 0.2234(7)
H5 H 0.1209(5) 0.035(2) 0.2257(6)
H6 H 0.0282(6) 0.117(2) 0.1995(7)
H7 H -0.0147(6) 0.411(2) 0.1159(6)
H8 H 0.0310(5) 0.623(2) 0.0580(6)
H9 H 0.0891(5) 0.941(2) 0.0606(6)
H10 H 0.0635(5) 1.195(2) -0.0356(6)
H11 H 0.1343(5) 0.760(2) -0.1370(6)
H12 H 0.1575(5) 0.503(2) -0.0414(6)
H13 H 0.0597(7) 1.386(3) -0.2422(8)
loop_
_geom_bond_atom_site_label_1
_geom_bond_atom_site_label_2
_geom_bond_site_symmetry_1
_geom_bond_site_symmetry_2
N1 C1 1_555 1_555
C1 C2 1_555 1_555
C2 C3 1_555 1_555
C3 C4 1_555 1_555
C4 C5 1_555 1_555
C5 C6 1_555 1_555
C6 C1 1_555 1_555
C7 C6 1_555 1_555
C8 C7 1_555 1_555
C9 C8 1_555 1_555
C10 C9 1_555 1_555
C11 C10 1_555 1_555
C12 N1 1_555 1_555
C13 N1 1_555 1_555
C14 C13 1_555 1_555
C15 C14 1_555 1_555
C16 C15 1_555 1_555
C17 C16 1_555 1_555
C18 C13 1_555 1_555
C19 C16 1_555 1_555
C20 C19 1_555 1_555
H1 C2 1_555 1_555
H2 C3 1_555 1_555
H3 C4 1_555 1_555
H4 C5 1_555 1_555
H5 C8 1_555 1_555
H6 C9 1_555 1_555
H7 C10 1_555 1_555
H8 C11 1_555 1_555
H9 C14 1_555 1_555
H10 C15 1_555 1_555
H11 C17 1_555 1_555
H12 C18 1_555 1_555
H13 C20 1_555 1_555
C7 C12 1_555 1_555
C11 C12 1_555 1_555
C17 C18 1_555 1_555

#END
