
#######################################################################
#
#                 Cambridge Crystallographic Data Centre
#                                CCDC 
#
#######################################################################
#
# If this CIF has been generated from an entry in the Cambridge 
# Structural Database, then it will include bibliographic, chemical, 
# crystal, experimental, refinement or atomic coordinate data resulting 
# from the CCDC's data processing and validation procedures.
#
#######################################################################

data_JAYWUE
_chemical_formula_moiety         'C16 H16 O6'
_chemical_name_systematic        
5,7-dimethoxy-8-(5-methyl-3,6-dioxabicyclo[3.1.0]hexan-2-yl)-2H-1-benzopyran-2-one
_symmetry_cell_setting           monoclinic
_symmetry_space_group_name_H-M   'P 21'
_symmetry_Int_Tables_number      4
_space_group_name_Hall           'P 2yb'
loop_
_symmetry_equiv_pos_site_id
_symmetry_equiv_pos_as_xyz
1 x,y,z
2 -x,1/2+y,-z
_cell_length_a                   8.9452(1)
_cell_length_b                   7.6683(1)
_cell_length_c                   19.8154(1)
_cell_angle_alpha                90
_cell_angle_beta                 91.4239(7)
_cell_angle_gamma                90
_cell_volume                     1358.81
_exptl_crystal_colour            colorless
_exptl_crystal_description       block
_cell_formula_units_Z            4
loop_
_atom_site_label
_atom_site_type_symbol
_atom_site_fract_x
_atom_site_fract_y
_atom_site_fract_z
O1 O 0.43455(17) 0.0255(2) 0.37454(8)
C1 C 0.4816(2) 0.2337(3) 0.21085(12)
C2 C 0.4025(2) 0.1037(4) 0.31372(13)
O2 O 0.07268(15) 0.2344(3) 0.22097(7)
C3 C 0.3330(2) 0.2606(3) 0.19155(12)
H1 H 0.3079(2) 0.3114(3) 0.14904(12)
C4 C 0.7006(2) 0.0450(3) 0.35574(11)
H2 H 0.8013(2) 0.0273(3) 0.37050(11)
O3 O 0.60092(18) 0.2825(3) 0.17259(9)
C5 C 0.5784(2) -0.0112(3) 0.39886(10)
O4 O 0.01214(15) -0.1176(3) 0.42209(8)
C6 C 0.2205(2) 0.2113(3) 0.23600(10)
O5 O 0.59072(16) -0.0819(3) 0.45239(8)
C7 C 0.6723(2) 0.1205(3) 0.29625(12)
H3 H 0.7533(2) 0.1525(3) 0.26873(12)
C8 C 0.2272(2) -0.1860(4) 0.50221(11)
H4 H 0.1881(15) -0.1602(15) 0.54689(17)
H5 H 0.2027(15) -0.3066(4) 0.4899(5)
H6 H 0.3360(3) -0.1708(16) 0.5033(6)
C9 C 0.5682(3) 0.3573(4) 0.10828(13)
H7 H 0.5107(18) 0.2740(10) 0.0805(3)
H8 H 0.5096(18) 0.4640(13) 0.11394(15)
H9 H 0.6618(3) 0.385(2) 0.0860(4)
O6 O 0.11699(19) 0.2078(2) 0.39919(9)
C10 C 0.1571(2) -0.0625(3) 0.45043(12)
C11 C 0.2525(2) 0.1286(3) 0.29796(10)
C12 C 0.1622(3) 0.1253(4) 0.46297(12)
H10 H 0.2646(3) 0.1619(4) 0.47682(12)
H11 H 0.0929(3) 0.1576(4) 0.49907(12)
C13 C 0.1426(2) -0.0944(3) 0.37879(13)
H12 H 0.1928(2) -0.1952(3) 0.35669(13)
C14 C 0.5204(2) 0.1547(3) 0.27259(12)
C15 C 0.0324(2) 0.3488(4) 0.16466(11)
H13 H 0.0612(18) 0.2940(11) 0.12223(12)
H14 H -0.0758(4) 0.3689(19) 0.1638(6)
H15 H 0.0847(16) 0.4604(9) 0.1701(5)
C16 C 0.1293(2) 0.0857(3) 0.34476(10)
H16 H 0.0331(2) 0.0881(3) 0.31800(10)
O7 O 0.56509(17) -0.1575(2) 0.12441(8)
O8 O 0.92643(15) -0.3705(2) 0.27901(7)
C17 C 0.4794(2) -0.2861(3) 0.22737(12)
O9 O 0.40915(16) -0.0488(3) 0.04769(7)
O10 O 0.98609(16) -0.0167(3) 0.07746(7)
O11 O 0.40175(17) -0.4136(3) 0.32723(8)
C18 C 0.7467(2) -0.2629(3) 0.20235(10)
C19 C 0.3011(2) -0.1772(4) 0.14389(11)
H17 H 0.2005(2) -0.1571(4) 0.12951(11)
C20 C 0.9665(2) -0.4772(4) 0.33457(10)
H18 H 0.9112(14) -0.5874(10) 0.3315(4)
H19 H 1.0741(4) -0.5010(19) 0.3343(5)
H20 H 0.9419(17) -0.4174(10) 0.37657(10)
O12 O 0.8820(2) -0.3415(3) 0.09955(8)
C21 C 0.5948(2) -0.2355(3) 0.18609(13)
C22 C 0.6665(3) -0.3959(3) 0.30773(12)
H21 H 0.6923(3) -0.4505(3) 0.34946(12)
C23 C 0.8716(2) -0.2127(4) 0.15453(11)
H22 H 0.9682(2) -0.2154(4) 0.18101(11)
C24 C 0.3298(3) -0.2569(4) 0.20435(13)
H23 H 0.2491(3) -0.2932(4) 0.23130(13)
C25 C 0.4195(2) -0.1237(4) 0.10202(11)
C26 C 0.5175(2) -0.3681(3) 0.28970(11)
C27 C 0.7731(2) 0.0530(4) -0.00223(11)
H24 H 0.7819(16) 0.1720(5) 0.0155(4)
H25 H 0.8234(12) 0.0457(16) -0.0455(3)
H26 H 0.6673(5) 0.0231(14) -0.0088(6)
C28 C 0.8620(2) -0.0452(4) 0.11997(11)
H27 H 0.8129(2) 0.0560(4) 0.14224(11)
C29 C 0.8353(3) -0.2673(3) 0.03721(14)
H28 H 0.9015(3) -0.3055(3) 0.00076(14)
H29 H 0.7316(3) -0.3034(3) 0.02542(14)
C30 C 0.7788(2) -0.3431(3) 0.26417(11)
C31 C 0.8439(2) -0.0702(3) 0.04622(11)
C32 C 0.4327(3) -0.4944(4) 0.39246(12)
H30 H 0.5022(15) -0.5919(14) 0.38694(17)
H31 H 0.4775(18) -0.4082(7) 0.4233(3)
H32 H 0.3392(4) -0.538(2) 0.4111(4)
loop_
_geom_bond_atom_site_label_1
_geom_bond_atom_site_label_2
_geom_bond_site_symmetry_1
_geom_bond_site_symmetry_2
O1 C2 1_555 1_555
C1 C3 1_555 1_555
C2 C11 1_555 1_555
O2 C6 1_555 1_555
C3 H1 1_555 1_555
C4 H2 1_555 1_555
O3 C1 1_555 1_555
C5 O1 1_555 1_555
O4 C10 1_555 1_555
C6 C3 1_555 1_555
O5 C5 1_555 1_555
C7 C4 1_555 1_555
H3 C7 1_555 1_555
C8 H4 1_555 1_555
H5 C8 1_555 1_555
H6 C8 1_555 1_555
C9 O3 1_555 1_555
H7 C9 1_555 1_555
H8 C9 1_555 1_555
H9 C9 1_555 1_555
O6 C12 1_555 1_555
C10 C8 1_555 1_555
C11 C6 1_555 1_555
C12 C10 1_555 1_555
H10 C12 1_555 1_555
H11 C12 1_555 1_555
C13 O4 1_555 1_555
H12 C13 1_555 1_555
C14 C1 1_555 1_555
C15 O2 1_555 1_555
H13 C15 1_555 1_555
H14 C15 1_555 1_555
H15 C15 1_555 1_555
C16 O6 1_555 1_555
H16 C16 1_555 1_555
O7 C21 1_555 1_555
O8 C20 1_555 1_555
C17 C21 1_555 1_555
O9 C25 1_555 1_555
O10 C28 1_555 1_555
O11 C26 1_555 1_555
C18 C21 1_555 1_555
C19 H17 1_555 1_555
C20 H18 1_555 1_555
H19 C20 1_555 1_555
H20 C20 1_555 1_555
O12 C23 1_555 1_555
C22 H21 1_555 1_555
C23 C18 1_555 1_555
H22 C23 1_555 1_555
C24 C17 1_555 1_555
H23 C24 1_555 1_555
C25 O7 1_555 1_555
C26 C17 1_555 1_555
C27 H24 1_555 1_555
H25 C27 1_555 1_555
H26 C27 1_555 1_555
C28 C23 1_555 1_555
H27 C28 1_555 1_555
C29 O12 1_555 1_555
H28 C29 1_555 1_555
H29 C29 1_555 1_555
C30 O8 1_555 1_555
C31 O10 1_555 1_555
C32 O11 1_555 1_555
H30 C32 1_555 1_555
H31 C32 1_555 1_555
H32 C32 1_555 1_555
C2 C14 1_555 1_555
C4 C5 1_555 1_555
C7 C14 1_555 1_555
C10 C13 1_555 1_555
C11 C16 1_555 1_555
C13 C16 1_555 1_555
C18 C30 1_555 1_555
C19 C24 1_555 1_555
C19 C25 1_555 1_555
C22 C26 1_555 1_555
C22 C30 1_555 1_555
C27 C31 1_555 1_555
C28 C31 1_555 1_555
C29 C31 1_555 1_555

#END
