
#######################################################################
#
#                 Cambridge Crystallographic Data Centre
#                                CCDC 
#
#######################################################################
#
# If this CIF has been generated from an entry in the Cambridge 
# Structural Database, then it will include bibliographic, chemical, 
# crystal, experimental, refinement or atomic coordinate data resulting 
# from the CCDC's data processing and validation procedures.
#
#######################################################################

data_JAYWEM
_chemical_formula_moiety         'C8 H12 N4 O4'
_chemical_name_systematic        
'Diethyl 1,4-dihydro-1,2,4,5-tetrazine-3,6-dicarboxylate'
_symmetry_cell_setting           monoclinic
_symmetry_space_group_name_H-M   'P 21/c'
_symmetry_Int_Tables_number      14
_space_group_name_Hall           '-P 2ybc'
loop_
_symmetry_equiv_pos_site_id
_symmetry_equiv_pos_as_xyz
1 x,y,z
2 -x,1/2+y,1/2-z
3 -x,-y,-z
4 x,1/2-y,1/2+z
_cell_length_a                   8.4740(10)
_cell_length_b                   13.4510(15)
_cell_length_c                   10.159(3)
_cell_angle_alpha                90
_cell_angle_beta                 109.090(17)
_cell_angle_gamma                90
_cell_volume                     1094.28
_exptl_crystal_colour            orange
_exptl_crystal_description       block
_chemical_melting_point          '374-375 K'
_cell_formula_units_Z            4
_exptl_crystal_recrystallization_method ethanol
loop_
_atom_site_label
_atom_site_type_symbol
_atom_site_fract_x
_atom_site_fract_y
_atom_site_fract_z
O1 O 0.7357(3) 0.61761(18) 0.0420(2)
O2 O 0.8615(4) 1.08332(17) 0.3472(2)
O3 O 0.7479(3) 1.09764(15) 0.1173(2)
N1 N 0.8760(3) 0.80892(16) 0.0889(2)
N2 N 0.8244(3) 0.90866(16) 0.0856(2)
N3 N 0.9291(3) 0.88550(17) 0.3253(2)
N4 N 0.8646(3) 0.78761(17) 0.3128(2)
C1 C 0.8434(3) 0.7521(2) 0.1916(2)
C2 C 0.8551(3) 0.9437(2) 0.2077(2)
C3 C 0.7833(4) 0.6483(2) 0.1585(3)
C4 C 0.8210(4) 1.0487(2) 0.2322(3)
C5 C 0.7050(6) 1.2015(3) 0.1317(4)
H1 H 0.6170 1.2050 0.1731
H2 H 0.8018 1.2366 0.1919
C6 C 0.6511(8) 1.2459(3) -0.0014(5)
H3 H 0.7405 1.2448 -0.0400
H4 H 0.6188 1.3135 0.0064
H5 H 0.5574 1.2097 -0.0612
O4 O 0.8036(5) 0.5971(3) 0.2760(3)
C7 C 0.7403(6) 0.4944(3) 0.2632(5)
H6 H 0.7597 0.4626 0.1843
H7 H 0.8008 0.4574 0.3463
C8 C 0.5614(7) 0.4919(6) 0.2445(7)
H8 H 0.5430 0.5176 0.3264
H9 H 0.5220 0.4245 0.2294
H10 H 0.5019 0.5317 0.1655
H16 H 0.847(4) 0.784(2) 0.0069(17)
H17 H 0.923(4) 0.911(2) 0.401(2)
O5? O 0.719(2) 0.6007(12) 0.2393(16)
C9? C 0.664(6) 0.5014(16) 0.183(3)
H11? H 0.5768 0.5055 0.0934
H12? H 0.7566 0.4629 0.1733
C10? C 0.602(6) 0.459(4) 0.288(3)
H13? H 0.6896 0.4592 0.3767
H14? H 0.5663 0.3918 0.2629
H15? H 0.5097 0.4977 0.2942
loop_
_geom_bond_atom_site_label_1
_geom_bond_atom_site_label_2
_geom_bond_site_symmetry_1
_geom_bond_site_symmetry_2
O1 C3 1_555 1_555
O2 C4 1_555 1_555
O3 C4 1_555 1_555
N1 N2 1_555 1_555
N2 C2 1_555 1_555
N3 N4 1_555 1_555
N4 C1 1_555 1_555
C1 N1 1_555 1_555
C2 N3 1_555 1_555
C3 C1 1_555 1_555
C4 C2 1_555 1_555
C5 O3 1_555 1_555
H1 C5 1_555 1_555
H2 C5 1_555 1_555
C6 C5 1_555 1_555
H3 C6 1_555 1_555
H4 C6 1_555 1_555
H5 C6 1_555 1_555
O4 C3 1_555 1_555
C7 O4 1_555 1_555
H6 C7 1_555 1_555
H7 C7 1_555 1_555
C8 C7 1_555 1_555
H8 C8 1_555 1_555
H9 C8 1_555 1_555
H10 C8 1_555 1_555
H16 N1 1_555 1_555
H17 N3 1_555 1_555

#END
