
#######################################################################
#
#                 Cambridge Crystallographic Data Centre
#                                CCDC 
#
#######################################################################
#
# If this CIF has been generated from an entry in the Cambridge 
# Structural Database, then it will include bibliographic, chemical, 
# crystal, experimental, refinement or atomic coordinate data resulting 
# from the CCDC's data processing and validation procedures.
#
#######################################################################

data_JAYZOB
_chemical_formula_moiety         'C15 H12 N2 O5'
_chemical_name_systematic        N-acetoxy-4-nitro-N-phenylbenzamide
_symmetry_cell_setting           orthorhombic
_symmetry_space_group_name_H-M   'P n a 21'
_symmetry_Int_Tables_number      33
_space_group_name_Hall           'P 2c -2n'
loop_
_symmetry_equiv_pos_site_id
_symmetry_equiv_pos_as_xyz
1 x,y,z
2 -x,-y,1/2+z
3 1/2-x,1/2+y,1/2+z
4 1/2+x,1/2-y,z
_cell_length_a                   10.558(2)
_cell_length_b                   16.971(4)
_cell_length_c                   8.182(3)
_cell_angle_alpha                90
_cell_angle_beta                 90
_cell_angle_gamma                90
_cell_volume                     1466.05
_exptl_crystal_colour            'dark yellow'
_exptl_crystal_description       block
_cell_formula_units_Z            4
loop_
_atom_site_label
_atom_site_type_symbol
_atom_site_fract_x
_atom_site_fract_y
_atom_site_fract_z
O1 O 0.6689(4) 0.4839(3) 0.1867(7)
O2 O 0.6347(6) 0.4929(4) 0.4579(9)
O3 O 0.8860(4) 0.4287(2) 0.2933(8)
O4 O 1.4029(6) 0.6694(5) 0.4029(14)
O5 O 1.2833(6) 0.7393(5) 0.5509(9)
N1 N 0.7731(4) 0.5352(3) 0.2119(8)
N2 N 1.3006(7) 0.6870(4) 0.4560(10)
C1 C 0.8408(6) 0.6308(4) 0.0094(9)
H1 H 0.9077 0.5981 -0.0200
C2 C 0.8234(8) 0.7011(5) -0.0694(11)
H2 H 0.8791 0.7160 -0.1519
C3 C 0.7241(9) 0.7503(5) -0.0280(14)
H3 H 0.7123 0.7979 -0.0822
C4 C 0.6442(8) 0.7279(5) 0.0930(12)
H4 H 0.5767 0.7604 0.1205
C5 C 0.6605(6) 0.6580(4) 0.1766(10)
H5 H 0.6061 0.6442 0.2612
C6 C 0.7590(5) 0.6086(4) 0.1324(9)
C7 C 0.8795(6) 0.4987(4) 0.2672(10)
C8 C 0.9869(5) 0.5535(3) 0.3069(9)
C9 C 1.1078(6) 0.5343(4) 0.2500(10)
H6 H 1.1194 0.4913 0.1811
C10 C 1.2092(6) 0.5794(4) 0.2967(11)
H7 H 1.2899 0.5686 0.2569
C11 C 1.1902(6) 0.6400(4) 0.4018(10)
C12 C 1.0734(6) 0.6605(4) 0.4618(10)
H8 H 1.0633 0.7023 0.5343
C13 C 0.9715(6) 0.6161(3) 0.4093(9)
H9 H 0.8905 0.6293 0.4447
C14 C 0.6051(7) 0.4663(5) 0.3306(11)
C15 C 0.4999(7) 0.4118(5) 0.2903(14)
H10 H 0.4490 0.4343 0.2051
H11 H 0.4487 0.4035 0.3857
H12 H 0.5340 0.3623 0.2541
loop_
_geom_bond_atom_site_label_1
_geom_bond_atom_site_label_2
_geom_bond_site_symmetry_1
_geom_bond_site_symmetry_2
O1 N1 1_555 1_555
O2 C14 1_555 1_555
O3 C7 1_555 1_555
O4 N2 1_555 1_555
O5 N2 1_555 1_555
N1 C6 1_555 1_555
N2 C11 1_555 1_555
C1 H1 1_555 1_555
C2 C1 1_555 1_555
H2 C2 1_555 1_555
C3 C2 1_555 1_555
H3 C3 1_555 1_555
C4 C3 1_555 1_555
H4 C4 1_555 1_555
C5 C4 1_555 1_555
H5 C5 1_555 1_555
C6 C1 1_555 1_555
C7 N1 1_555 1_555
C8 C7 1_555 1_555
C9 C8 1_555 1_555
H6 C9 1_555 1_555
C10 C9 1_555 1_555
H7 C10 1_555 1_555
C11 C10 1_555 1_555
C12 C11 1_555 1_555
H8 C12 1_555 1_555
C13 C8 1_555 1_555
H9 C13 1_555 1_555
C14 O1 1_555 1_555
C15 C14 1_555 1_555
H10 C15 1_555 1_555
H11 C15 1_555 1_555
H12 C15 1_555 1_555
C5 C6 1_555 1_555
C12 C13 1_555 1_555

#END
