
#######################################################################
#
#                 Cambridge Crystallographic Data Centre
#                                CCDC 
#
#######################################################################
#
# If this CIF has been generated from an entry in the Cambridge 
# Structural Database, then it will include bibliographic, chemical, 
# crystal, experimental, refinement or atomic coordinate data resulting 
# from the CCDC's data processing and validation procedures.
#
#######################################################################

data_JAZCOD01
_chemical_formula_moiety         'C17 H14 O5'
_chemical_name_systematic        4',7-Dimethoxy-5-hydroxyflavone
_symmetry_cell_setting           triclinic
_symmetry_space_group_name_H-M   'P -1'
_symmetry_Int_Tables_number      2
_space_group_name_Hall           '-P 1'
loop_
_symmetry_equiv_pos_site_id
_symmetry_equiv_pos_as_xyz
1 x,y,z
2 -x,-y,-z
_cell_length_a                   7.120(5)
_cell_length_b                   7.297(5)
_cell_length_c                   13.559(10)
_cell_angle_alpha                89.313(12)
_cell_angle_beta                 86.298(12)
_cell_angle_gamma                83.999(13)
_cell_volume                     699.121
_exptl_crystal_colour            colorless
_exptl_crystal_description       strip
_chemical_melting_point          446K
_cell_formula_units_Z            2
_exptl_crystal_recrystallization_method benzene
loop_
_atom_site_label
_atom_site_type_symbol
_atom_site_fract_x
_atom_site_fract_y
_atom_site_fract_z
O1 O 0.2531(4) 0.9887(3) 0.84496(19)
O2 O 0.4586(4) 0.4465(4) 0.8426(2)
O3 O 0.4503(5) 0.4498(5) 0.6528(3)
O4 O 0.2488(4) 0.9998(4) 0.4957(2)
O5 O 0.1384(4) 1.3497(4) 1.26435(19)
C1 C 0.2910(6) 0.8978(6) 0.9310(3)
C2 C 0.3596(6) 0.7201(6) 0.9323(3)
C3 C 0.3959(6) 0.6140(6) 0.8434(3)
C4 C 0.3540(6) 0.7117(6) 0.7546(3)
C5 C 0.3841(6) 0.6321(6) 0.6593(3)
C6 C 0.3454(7) 0.7283(7) 0.5762(3)
C7 C 0.2806(6) 0.9140(6) 0.5837(3)
C8 C 0.2480(6) 1.0009(6) 0.6735(3)
C9 C 0.2861(6) 0.8954(6) 0.7557(3)
C10 C 0.2493(5) 1.0195(5) 1.0160(3)
C11 C 0.1780(6) 1.2021(6) 1.0064(3)
C12 C 0.1396(6) 1.3168(6) 1.0870(3)
C13 C 0.1687(6) 1.2472(6) 1.1794(3)
C14 C 0.2384(6) 1.0653(6) 1.1926(3)
C15 C 0.2776(6) 0.9544(6) 1.1115(3)
C16 C 0.1755(11) 1.1909(8) 0.4976(4)
C17 C 0.0685(10) 1.5383(7) 1.2573(4)
H1 H 0.470(6) 0.415(6) 0.714(3)
H2 H 0.389(5) 0.660(4) 0.993(2)
H3 H 0.366(4) 0.672(4) 0.510(2)
H4 H 0.187(4) 1.134(4) 0.682(2)
H5 H 0.170(5) 1.249(5) 0.942(3)
H6 H 0.099(4) 1.454(4) 1.075(2)
H7 H 0.263(5) 1.025(5) 1.2635(17)
H8 H 0.344(5) 0.824(5) 1.116(2)
H9 H 0.160(6) 1.222(5) 0.4277(16)
H10 H 0.251(5) 1.274(4) 0.532(3)
H11 H 0.049(4) 1.209(7) 0.532(3)
H12 H 0.059(5) 1.578(5) 1.331(3)
H13 H -0.066(7) 1.567(7) 1.228(4)
H14 H 0.145(6) 1.610(5) 1.212(3)
loop_
_geom_bond_atom_site_label_1
_geom_bond_atom_site_label_2
_geom_bond_site_symmetry_1
_geom_bond_site_symmetry_2
O1 C1 1_555 1_555
O2 C3 1_555 1_555
O3 C5 1_555 1_555
O4 C7 1_555 1_555
O5 C13 1_555 1_555
C1 C2 1_555 1_555
C2 C3 1_555 1_555
C3 C4 1_555 1_555
C4 C5 1_555 1_555
C5 C6 1_555 1_555
C6 C7 1_555 1_555
C7 C8 1_555 1_555
C8 C9 1_555 1_555
C9 O1 1_555 1_555
C10 C1 1_555 1_555
C11 C10 1_555 1_555
C12 C11 1_555 1_555
C13 C12 1_555 1_555
C14 C13 1_555 1_555
C15 C10 1_555 1_555
C16 O4 1_555 1_555
C17 O5 1_555 1_555
H1 O3 1_555 1_555
H2 C2 1_555 1_555
H3 C6 1_555 1_555
H4 C8 1_555 1_555
H5 C11 1_555 1_555
H6 C12 1_555 1_555
H7 C14 1_555 1_555
H8 C15 1_555 1_555
H9 C16 1_555 1_555
H10 C16 1_555 1_555
H11 C16 1_555 1_555
H12 C17 1_555 1_555
H13 C17 1_555 1_555
H14 C17 1_555 1_555
C4 C9 1_555 1_555
C14 C15 1_555 1_555

#END
