
#######################################################################
#
#                 Cambridge Crystallographic Data Centre
#                                CCDC 
#
#######################################################################
#
# If this CIF has been generated from an entry in the Cambridge 
# Structural Database, then it will include bibliographic, chemical, 
# crystal, experimental, refinement or atomic coordinate data resulting 
# from the CCDC's data processing and validation procedures.
#
#######################################################################

data_JAZCIW
_chemical_formula_moiety         'C23 H21 N1 O4 S2'
_chemical_name_systematic        
8-Methoxycarbonyl-10-p-tosyl-10-aza-1-thia(2.2)metacyclophane
_symmetry_cell_setting           triclinic
_symmetry_space_group_name_H-M   'P -1'
_symmetry_Int_Tables_number      2
_space_group_name_Hall           '-P 1'
loop_
_symmetry_equiv_pos_site_id
_symmetry_equiv_pos_as_xyz
1 x,y,z
2 -x,-y,-z
_cell_length_a                   8.783(1)
_cell_length_b                   10.820(1)
_cell_length_c                   12.746(1)
_cell_angle_alpha                113.92(1)
_cell_angle_beta                 100.08(1)
_cell_angle_gamma                97.93(1)
_cell_volume                     1060.37
_exptl_crystal_colour            colorless
_cell_formula_units_Z            2
loop_
_atom_site_label
_atom_site_type_symbol
_atom_site_fract_x
_atom_site_fract_y
_atom_site_fract_z
S1 S 0.08813(11) 0.35309(8) 0.76272(8)
C1 C 0.26888(42) 0.42937(31) 0.89045(29)
C2 C 0.28768(36) 0.58461(30) 0.95867(26)
C3 C 0.20102(40) 0.63042(35) 1.04312(28)
C4 C 0.18178(41) 0.76530(36) 1.08850(28)
C5 C 0.23795(36) 0.85215(31) 1.04177(26)
C6 C 0.32858(31) 0.81171(27) 0.95993(23)
C7 C 0.36665(32) 0.68065(28) 0.92720(23)
C8 C 0.34381(33) 0.89151(28) 0.88737(25)
N1 N 0.19334(28) 0.83659(22) 0.78957(20)
C9 C 0.16533(31) 0.69217(27) 0.70682(24)
C10 C 0.21867(37) 0.64859(32) 0.60522(27)
C11 C 0.21177(39) 0.50711(34) 0.54174(27)
C12 C 0.16891(36) 0.41503(31) 0.58651(26)
C13 C 0.11745(32) 0.45959(27) 0.68945(25)
C14 C 0.10399(30) 0.59717(27) 0.74392(23)
S2 S 0.10738(9) 0.94376(8) 0.75552(7)
O1 O -0.04513(24) 0.86420(24) 0.67760(20)
O2 O 0.11821(30) 1.06015(23) 0.86512(20)
C15 C 0.21714(33) 1.00581(27) 0.67711(25)
C16 C 0.16226(37) 0.95621(33) 0.55594(28)
C17 C 0.24290(43) 1.01338(39) 0.49678(33)
C18 C 0.37813(45) 1.11979(39) 0.55603(40)
C19 C 0.43457(45) 1.16484(36) 0.67704(40)
C20 C 0.35566(41) 1.10948(31) 0.73859(32)
C21 C 0.46028(52) 1.18672(47) 0.49244(46)
C22 C 0.48764(35) 0.64257(31) 0.85800(27)
O3 O 0.61028(27) 0.75093(24) 0.89559(23)
O4 O 0.48538(29) 0.52951(24) 0.78441(24)
C23 C 0.73882(47) 0.72729(44) 0.83680(46)
H1 H 0.3726(4) 0.4101(3) 0.8573(3)
H2 H 0.2573(4) 0.3812(3) 0.9490(3)
H3 H 0.1480(4) 0.5593(3) 1.0736(3)
H4 H 0.1236(4) 0.8023(4) 1.1596(3)
H5 H 0.2109(4) 0.9533(3) 1.0694(3)
H6 H 0.4450(3) 0.8756(3) 0.8503(2)
H7 H 0.3580(3) 1.0011(3) 0.9422(2)
H8 H 0.2651(4) 0.7225(3) 0.5751(3)
H9 H 0.2403(4) 0.4698(3) 0.4568(3)
H10 H 0.1754(4) 0.3079(3) 0.5413(3)
H11 H 0.0455(3) 0.6292(3) 0.8152(2)
H12 H 0.0568(4) 0.8731(3) 0.5078(3)
H13 H 0.1994(4) 0.9741(4) 0.4019(3)
H14 H 0.5427(4) 1.2450(4) 0.7244(4)
H15 H 0.4010(4) 1.1463(3) 0.8330(3)
H16 H 0.3988(5) 1.1374(5) 0.3994(5)
H17 H 0.5814(5) 1.1752(5) 0.5023(5)
H18 H 0.4599(5) 1.2958(5) 0.5297(5)
H19 H 0.8304(5) 0.8220(4) 0.8747(5)
H20 H 0.6932(5) 0.6959(4) 0.7432(5)
H21 H 0.7881(5) 0.6464(4) 0.8489(5)
loop_
_geom_bond_atom_site_label_1
_geom_bond_atom_site_label_2
_geom_bond_site_symmetry_1
_geom_bond_site_symmetry_2
S1 C1 1_555 1_555
C1 C2 1_555 1_555
C2 C3 1_555 1_555
C3 C4 1_555 1_555
C4 C5 1_555 1_555
C5 C6 1_555 1_555
C6 C7 1_555 1_555
C7 C2 1_555 1_555
C8 C6 1_555 1_555
N1 C8 1_555 1_555
C9 N1 1_555 1_555
C10 C9 1_555 1_555
C11 C10 1_555 1_555
C12 C11 1_555 1_555
C13 S1 1_555 1_555
C14 C9 1_555 1_555
S2 N1 1_555 1_555
O1 S2 1_555 1_555
O2 S2 1_555 1_555
C15 S2 1_555 1_555
C16 C15 1_555 1_555
C17 C16 1_555 1_555
C18 C17 1_555 1_555
C19 C18 1_555 1_555
C20 C15 1_555 1_555
C21 C18 1_555 1_555
C22 C7 1_555 1_555
O3 C22 1_555 1_555
O4 C22 1_555 1_555
C23 O3 1_555 1_555
H1 C1 1_555 1_555
H2 C1 1_555 1_555
H3 C3 1_555 1_555
H4 C4 1_555 1_555
H5 C5 1_555 1_555
H6 C8 1_555 1_555
H7 C8 1_555 1_555
H8 C10 1_555 1_555
H9 C11 1_555 1_555
H10 C12 1_555 1_555
H11 C14 1_555 1_555
H12 C16 1_555 1_555
H13 C17 1_555 1_555
H14 C19 1_555 1_555
H15 C20 1_555 1_555
H16 C21 1_555 1_555
H17 C21 1_555 1_555
H18 C21 1_555 1_555
H19 C23 1_555 1_555
H20 C23 1_555 1_555
H21 C23 1_555 1_555
C12 C13 1_555 1_555
C13 C14 1_555 1_555
C19 C20 1_555 1_555

#END
