
#######################################################################
#
#                 Cambridge Crystallographic Data Centre
#                                CCDC 
#
#######################################################################
#
# If this CIF has been generated from an entry in the Cambridge 
# Structural Database, then it will include bibliographic, chemical, 
# crystal, experimental, refinement or atomic coordinate data resulting 
# from the CCDC's data processing and validation procedures.
#
#######################################################################

data_JAZJIG
_chemical_formula_moiety         'C29 H26 N2 O2 S1'
_chemical_name_systematic        
2-benzylidene-1-(4-methylphenyl)-3-((4-methylphenyl)sulfonyl)-1,2,3,3a-tetrahydrocyclohepta[d]imidazole
_symmetry_cell_setting           orthorhombic
_symmetry_space_group_name_H-M   'P n a 21'
_symmetry_Int_Tables_number      33
_space_group_name_Hall           'P 2c -2n'
loop_
_symmetry_equiv_pos_site_id
_symmetry_equiv_pos_as_xyz
1 x,y,z
2 -x,-y,1/2+z
3 1/2+x,1/2-y,z
4 1/2-x,1/2+y,1/2+z
_cell_length_a                   17.790(2)
_cell_length_b                   12.8118(18)
_cell_length_c                   10.7159(14)
_cell_angle_alpha                90
_cell_angle_beta                 90
_cell_angle_gamma                90
_cell_volume                     2442.39
_exptl_crystal_description       block
_cell_formula_units_Z            4
loop_
_atom_site_label
_atom_site_type_symbol
_atom_site_fract_x
_atom_site_fract_y
_atom_site_fract_z
S1 S -0.01733(5) 0.37613(8) 0.47781(12)
C1 C 0.0817(2) 0.1795(3) 0.6866(4)
C2 C 0.0800(3) 0.2723(4) 0.7558(4)
H1 H 0.0848 0.3359 0.7149
C3 C 0.0753(2) 0.0879(4) 0.7544(4)
H2 H 0.0780 0.0245 0.7122
C4 C 0.0651(3) 0.0869(5) 0.8829(5)
H3 H 0.0582 0.0242 0.9251
C5 C 0.0714(3) 0.2707(5) 0.8832(5)
H4 H 0.0697 0.3333 0.9270
C6 C 0.0653(3) 0.1791(5) 0.9461(5)
H5 H 0.0612 0.1794 1.0326
C7 C 0.0956(2) 0.1723(3) 0.5537(4)
H6 H 0.1055 0.1049 0.5260
C8 C 0.0968(2) 0.2446(3) 0.4628(4)
N1 N 0.07609(18) 0.3524(2) 0.4727(4)
C9 C 0.1410(2) 0.3231(3) 0.2827(4)
C10 C 0.1169(2) 0.4082(3) 0.3712(4)
H7 H 0.0824 0.4559 0.3284
N2 N 0.1232(2) 0.2288(3) 0.3417(3)
C11 C 0.0963(2) 0.0579(3) 0.2558(4)
H8 H 0.0457 0.0761 0.2537
C12 C 0.2448(3) 0.0054(4) 0.2619(5)
H9 H 0.2953 -0.0129 0.2671
C13 C 0.1941(3) -0.0685(3) 0.2182(4)
C14 C 0.1495(2) 0.1285(3) 0.2976(4)
C15 C 0.1191(3) -0.0402(3) 0.2172(5)
H10 H 0.0833 -0.0879 0.1900
C16 C 0.2244(2) 0.1021(4) 0.2969(5)
H11 H 0.2605 0.1506 0.3205
C17 C 0.2168(3) -0.1761(4) 0.1750(7)
H12 H 0.1755 -0.2234 0.1860
H13 H 0.2590 -0.1998 0.2231
H14 H 0.2304 -0.1736 0.0883
O1 O -0.02273(17) 0.4870(2) 0.4754(5)
O2 O -0.0470(2) 0.3182(3) 0.5796(3)
C18 C -0.0566(2) 0.3267(3) 0.3402(4)
C19 C -0.0928(3) 0.2309(3) 0.3410(5)
H15 H -0.0964 0.1932 0.4149
C20 C -0.1230(3) 0.1918(3) 0.2343(5)
H16 H -0.1487 0.1287 0.2368
C21 C -0.0505(3) 0.3810(4) 0.2299(5)
H17 H -0.0266 0.4455 0.2290
C22 C -0.0795(3) 0.3409(5) 0.1213(5)
H18 H -0.0747 0.3779 0.0471
C23 C -0.1161(3) 0.2443(4) 0.1222(5)
C24 C -0.1466(4) 0.2017(7) 0.0016(7)
H19 H -0.1587 0.1292 0.0119
H20 H -0.1094 0.2090 -0.0627
H21 H -0.1910 0.2396 -0.0215
C25 C 0.1846(2) 0.4665(4) 0.4133(5)
H22 H 0.1996 0.4628 0.4963
C26 C 0.2238(3) 0.5238(4) 0.3328(6)
H23 H 0.2597 0.5688 0.3659
C27 C 0.1923(3) 0.4433(4) 0.1296(6)
H24 H 0.1885 0.4556 0.0443
C28 C 0.1722(3) 0.3407(4) 0.1727(5)
H25 H 0.1816 0.2840 0.1208
C29 C 0.2159(3) 0.5226(4) 0.2006(7)
H26 H 0.2285 0.5839 0.1589
loop_
_geom_bond_atom_site_label_1
_geom_bond_atom_site_label_2
_geom_bond_site_symmetry_1
_geom_bond_site_symmetry_2
S1 N1 1_555 1_555
C1 C2 1_555 1_555
C2 H1 1_555 1_555
C3 C1 1_555 1_555
H2 C3 1_555 1_555
C4 C3 1_555 1_555
H3 C4 1_555 1_555
C5 C2 1_555 1_555
H4 C5 1_555 1_555
C6 C4 1_555 1_555
H5 C6 1_555 1_555
C7 C1 1_555 1_555
H6 C7 1_555 1_555
C8 C7 1_555 1_555
N1 C8 1_555 1_555
C9 C10 1_555 1_555
C10 N1 1_555 1_555
H7 C10 1_555 1_555
N2 C8 1_555 1_555
C11 H8 1_555 1_555
C12 H9 1_555 1_555
C13 C12 1_555 1_555
C14 N2 1_555 1_555
C15 C11 1_555 1_555
H10 C15 1_555 1_555
C16 C12 1_555 1_555
H11 C16 1_555 1_555
C17 C13 1_555 1_555
H12 C17 1_555 1_555
H13 C17 1_555 1_555
H14 C17 1_555 1_555
O1 S1 1_555 1_555
O2 S1 1_555 1_555
C18 S1 1_555 1_555
C19 C18 1_555 1_555
H15 C19 1_555 1_555
C20 C19 1_555 1_555
H16 C20 1_555 1_555
C21 C18 1_555 1_555
H17 C21 1_555 1_555
C22 C21 1_555 1_555
H18 C22 1_555 1_555
C23 C20 1_555 1_555
C24 C23 1_555 1_555
H19 C24 1_555 1_555
H20 C24 1_555 1_555
H21 C24 1_555 1_555
C25 C10 1_555 1_555
H22 C25 1_555 1_555
C26 C25 1_555 1_555
H23 C26 1_555 1_555
C27 H24 1_555 1_555
C28 C9 1_555 1_555
H25 C28 1_555 1_555
C29 C26 1_555 1_555
H26 C29 1_555 1_555
C5 C6 1_555 1_555
C9 N2 1_555 1_555
C11 C14 1_555 1_555
C13 C15 1_555 1_555
C14 C16 1_555 1_555
C22 C23 1_555 1_555
C27 C28 1_555 1_555
C27 C29 1_555 1_555

#END
