
#######################################################################
#
#                 Cambridge Crystallographic Data Centre
#                                CCDC 
#
#######################################################################
#
# If this CIF has been generated from an entry in the Cambridge 
# Structural Database, then it will include bibliographic, chemical, 
# crystal, experimental, refinement or atomic coordinate data resulting 
# from the CCDC's data processing and validation procedures.
#
#######################################################################

data_JAZJOM
_chemical_formula_moiety         'C23 H24 N2 O3 S1'
_chemical_name_systematic        
't-butyl (S)-((S)-1-oxo-2-thiocyanato-1,2,3,4-tetrahydronaphthalen-2-yl)(phenyl)methylcarbamate'
_symmetry_cell_setting           tetragonal
_symmetry_space_group_name_H-M   'P 41'
_symmetry_Int_Tables_number      76
_space_group_name_Hall           'P 4w'
loop_
_symmetry_equiv_pos_site_id
_symmetry_equiv_pos_as_xyz
1 x,y,z
2 -y,x,1/4+z
3 -x,-y,1/2+z
4 y,-x,3/4+z
_cell_length_a                   11.5133(4)
_cell_length_b                   11.5133(4)
_cell_length_c                   17.0266(8)
_cell_angle_alpha                90
_cell_angle_beta                 90
_cell_angle_gamma                90
_cell_volume                     2256.98
_exptl_crystal_colour            colorless
_exptl_crystal_description       Block
_cell_formula_units_Z            4
loop_
_atom_site_label
_atom_site_type_symbol
_atom_site_fract_x
_atom_site_fract_y
_atom_site_fract_z
S1 S 0.04154(10) 0.47991(13) 0.05100(8)
O1 O 0.4721(2) 0.3639(3) 0.03720(16)
O2 O 0.5382(2) 0.4167(3) -0.08351(16)
C1 C 0.4595(3) 0.4119(3) -0.0253(2)
N1 N 0.3644(3) 0.4712(3) -0.04787(19)
H1 H 0.3574 0.4913 -0.0963
C2 C 0.2731(3) 0.5023(4) 0.0074(2)
H2 H 0.2889 0.4600 0.0562
C3 C 0.1564(3) 0.4559(4) -0.0250(2)
C4 C 0.1596(4) 0.3221(4) -0.0241(3)
C5 C 0.1207(3) 0.5054(4) -0.1038(2)
H3 H 0.1867 0.5026 -0.1392
H4 H 0.0992 0.5862 -0.0971
C6 C 0.2744(3) 0.6295(4) 0.0273(2)
C7 C 0.2637(4) 0.6639(5) 0.1052(3)
H5 H 0.2581 0.6076 0.1441
C8 C 0.6397(4) 0.3410(4) -0.0839(3)
C9 C 0.1135(4) 0.2582(5) -0.0930(3)
C10 C 0.2848(4) 0.7139(4) -0.0294(3)
H6 H 0.2939 0.6922 -0.0817
O3 O 0.1988(4) 0.2723(3) 0.0321(2)
C11 C 0.0048(4) 0.6174(6) 0.0339(3)
C12 C 0.0453(4) 0.3134(5) -0.1484(3)
C13 C 0.0198(4) 0.4405(5) -0.1409(3)
H7 H -0.0491 0.4511 -0.1089
H8 H 0.0042 0.4726 -0.1925
N2 N -0.0238(4) 0.7112(5) 0.0232(3)
C14 C 0.6937(4) 0.3682(5) -0.1632(3)
H9 H 0.6377 0.3544 -0.2039
H10 H 0.7602 0.3193 -0.1713
H11 H 0.7173 0.4482 -0.1644
C15 C 0.2612(5) 0.7789(6) 0.1261(3)
H12 H 0.2535 0.8002 0.1785
C16 C 0.0926(8) 0.0776(7) -0.1606(6)
H13 H 0.1086 -0.0013 -0.1650
C17 C 0.2821(5) 0.8299(5) -0.0099(4)
H14 H 0.2882 0.8865 -0.0487
C18 C 0.7218(4) 0.3710(6) -0.0171(3)
H15 H 0.7416 0.4519 -0.0198
H16 H 0.7911 0.3251 -0.0215
H17 H 0.6845 0.3551 0.0322
C19 C 0.1365(5) 0.1403(5) -0.1000(4)
H18 H 0.1827 0.1037 -0.0626
C20 C 0.5996(5) 0.2160(5) -0.0801(3)
H19 H 0.5635 0.2017 -0.0302
H20 H 0.6652 0.1653 -0.0863
H21 H 0.5447 0.2016 -0.1214
C21 C 0.2702(5) 0.8618(6) 0.0691(4)
H22 H 0.2683 0.9400 0.0827
C22 C 0.0240(6) 0.1323(8) -0.2156(6)
H23 H -0.0065 0.0893 -0.2570
C23 C -0.0004(5) 0.2489(7) -0.2109(4)
H24 H -0.0465 0.2844 -0.2487
loop_
_geom_bond_atom_site_label_1
_geom_bond_atom_site_label_2
_geom_bond_site_symmetry_1
_geom_bond_site_symmetry_2
S1 C3 1_555 1_555
O1 C1 1_555 1_555
O2 C1 1_555 1_555
C1 N1 1_555 1_555
N1 H1 1_555 1_555
C2 N1 1_555 1_555
H2 C2 1_555 1_555
C3 C2 1_555 1_555
C4 C3 1_555 1_555
C5 C3 1_555 1_555
H3 C5 1_555 1_555
H4 C5 1_555 1_555
C6 C2 1_555 1_555
C7 C6 1_555 1_555
H5 C7 1_555 1_555
C8 O2 1_555 1_555
C9 C4 1_555 1_555
C10 C6 1_555 1_555
H6 C10 1_555 1_555
O3 C4 1_555 1_555
C11 S1 1_555 1_555
C12 C9 1_555 1_555
C13 C5 1_555 1_555
H7 C13 1_555 1_555
H8 C13 1_555 1_555
N2 C11 1_555 1_555
C14 C8 1_555 1_555
H9 C14 1_555 1_555
H10 C14 1_555 1_555
H11 C14 1_555 1_555
C15 C7 1_555 1_555
H12 C15 1_555 1_555
C16 H13 1_555 1_555
C17 C10 1_555 1_555
H14 C17 1_555 1_555
C18 C8 1_555 1_555
H15 C18 1_555 1_555
H16 C18 1_555 1_555
H17 C18 1_555 1_555
C19 C9 1_555 1_555
H18 C19 1_555 1_555
C20 C8 1_555 1_555
H19 C20 1_555 1_555
H20 C20 1_555 1_555
H21 C20 1_555 1_555
C21 C15 1_555 1_555
H22 C21 1_555 1_555
C22 C16 1_555 1_555
H23 C22 1_555 1_555
C23 C12 1_555 1_555
H24 C23 1_555 1_555
C12 C13 1_555 1_555
C16 C19 1_555 1_555
C17 C21 1_555 1_555
C22 C23 1_555 1_555

#END
