
#######################################################################
#
#                 Cambridge Crystallographic Data Centre
#                                CCDC 
#
#######################################################################
#
# If this CIF has been generated from an entry in the Cambridge 
# Structural Database, then it will include bibliographic, chemical, 
# crystal, experimental, refinement or atomic coordinate data resulting 
# from the CCDC's data processing and validation procedures.
#
#######################################################################

data_JAZNAC
_chemical_formula_moiety         'C25 H28 O7'
_chemical_name_systematic        
8-(2,3-dihydroxy-3-methylbutyl)-1,11-dihydroxy-5-methyl-2-(prop-1-en-2-yl)-2,3-dihydropyrano[3,2-a]xanthen-12(1H)-one
_symmetry_cell_setting           monoclinic
_symmetry_space_group_name_H-M   'P 21'
_symmetry_Int_Tables_number      4
_space_group_name_Hall           'P 2yb'
loop_
_symmetry_equiv_pos_site_id
_symmetry_equiv_pos_as_xyz
1 x,y,z
2 -x,1/2+y,-z
_cell_length_a                   6.2804(3)
_cell_length_b                   17.2710(6)
_cell_length_c                   10.3842(4)
_cell_angle_alpha                90
_cell_angle_beta                 101.759(4)
_cell_angle_gamma                90
_cell_volume                     1102.72
_exptl_crystal_colour            yellow
_exptl_crystal_description       Block
_cell_formula_units_Z            2
loop_
_atom_site_label
_atom_site_type_symbol
_atom_site_fract_x
_atom_site_fract_y
_atom_site_fract_z
O1 O -0.3831(4) -0.58054(15) -0.7797(3)
O2 O -0.9681(4) -0.34288(17) -0.8708(3)
O3 O -0.1965(5) -0.78723(17) -0.5754(2)
H1 H -0.2733 -0.7885 -0.5204
O4 O -0.1730(5) -0.37879(16) -0.5900(3)
O5 O 0.1949(5) -0.44665(17) -0.4882(3)
H2 H 0.1032 -0.4123 -0.4954
O6 O -0.5781(5) -0.8586(2) -0.6971(3)
H3 H -0.4975 -0.8842 -0.6407
C1 C -0.6647(7) -0.1584(2) -0.7607(4)
C2 C 0.1076(6) -0.5097(2) -0.5555(4)
C3 C -0.3179(6) -0.7565(2) -0.6954(3)
H4 H -0.4180 -0.7171 -0.6746
C4 C -0.5141(6) -0.5166(2) -0.7963(4)
C5 C -0.7180(6) -0.5287(2) -0.8766(4)
H5 H -0.7532 -0.5772 -0.9140
C6 C -0.8075(6) -0.3970(2) -0.8427(3)
C7 C -0.1043(6) -0.5083(2) -0.6366(4)
C8 C -0.5356(6) -0.2985(2) -0.7303(3)
H6 H -0.3960 -0.2880 -0.7551
C9 C -0.8658(6) -0.4701(2) -0.9005(4)
C10 C -0.4531(6) -0.4451(2) -0.7397(3)
C11 C -0.1791(6) -0.5768(2) -0.7017(3)
C12 C -0.2389(6) -0.4391(2) -0.6518(4)
C13 C -0.0593(7) -0.6447(2) -0.6922(4)
C14 C -0.4510(7) -0.8198(2) -0.7783(4)
C15 C -0.6022(6) -0.3815(2) -0.7687(3)
C16 C 0.1454(7) -0.6429(2) -0.6117(4)
H7 H 0.2295 -0.6876 -0.6023
C17 C -0.1532(7) -0.7172(2) -0.7630(4)
H8 H -0.0361 -0.7531 -0.7671
H9 H -0.2231 -0.7041 -0.8524
C18 C -0.7050(6) -0.2418(2) -0.8036(4)
H10 H -0.6930 -0.2438 -0.8962
C19 C 0.2294(7) -0.5768(3) -0.5447(4)
H11 H 0.3684 -0.5776 -0.4923
C20 C -0.9280(6) -0.2715(2) -0.7985(4)
H12 H -0.9389 -0.2800 -0.7078
H13 H -1.0364 -0.2334 -0.8362
C21 C -1.0858(7) -0.4817(3) -0.9901(4)
H14 H -1.0919 -0.4530 -1.0699
H15 H -1.1978 -0.4638 -0.9468
H16 H -1.1072 -0.5358 -1.0104
C22 C -0.7853(10) -0.1215(3) -0.6898(6)
C23 C -0.3117(9) -0.8781(3) -0.8319(5)
H17 H -0.2073 -0.8999 -0.7607
H18 H -0.2371 -0.8528 -0.8922
H19 H -0.4023 -0.9185 -0.8769
C24 C -0.6149(8) -0.7823(3) -0.8885(4)
H20 H -0.7068 -0.8214 -0.9365
H21 H -0.5392 -0.7556 -0.9468
H22 H -0.7021 -0.7460 -0.8519
C25 C -0.4825(9) -0.1202(3) -0.8043(6)
H23 H -0.3485 -0.1447 -0.7633
H24 H -0.4783 -0.0666 -0.7798
H25 H -0.5017 -0.1245 -0.8981
O7 O -0.5129(4) -0.28426(16) -0.5929(2)
H26 H -0.4038 -0.3063 -0.5526
H27 H -0.920(10) -0.144(3) -0.663(6)
H28 H -0.765(9) -0.066(3) -0.667(5)
loop_
_geom_bond_atom_site_label_1
_geom_bond_atom_site_label_2
_geom_bond_site_symmetry_1
_geom_bond_site_symmetry_2
O1 C4 1_555 1_555
O2 C6 1_555 1_555
O3 H1 1_555 1_555
O4 C12 1_555 1_555
O5 H2 1_555 1_555
O6 H3 1_555 1_555
C1 C18 1_555 1_555
C2 O5 1_555 1_555
C3 O3 1_555 1_555
H4 C3 1_555 1_555
C4 C5 1_555 1_555
C5 H5 1_555 1_555
C6 C9 1_555 1_555
C7 C2 1_555 1_555
C8 H6 1_555 1_555
C9 C5 1_555 1_555
C10 C4 1_555 1_555
C11 O1 1_555 1_555
C12 C7 1_555 1_555
C13 C11 1_555 1_555
C14 O6 1_555 1_555
C15 C6 1_555 1_555
C16 C13 1_555 1_555
H7 C16 1_555 1_555
C17 C3 1_555 1_555
H8 C17 1_555 1_555
H9 C17 1_555 1_555
C18 C8 1_555 1_555
H10 C18 1_555 1_555
C19 C2 1_555 1_555
H11 C19 1_555 1_555
C20 O2 1_555 1_555
H12 C20 1_555 1_555
H13 C20 1_555 1_555
C21 C9 1_555 1_555
H14 C21 1_555 1_555
H15 C21 1_555 1_555
H16 C21 1_555 1_555
C22 C1 1_555 1_555
C23 C14 1_555 1_555
H17 C23 1_555 1_555
H18 C23 1_555 1_555
H19 C23 1_555 1_555
C24 C14 1_555 1_555
H20 C24 1_555 1_555
H21 C24 1_555 1_555
H22 C24 1_555 1_555
C25 C1 1_555 1_555
H23 C25 1_555 1_555
H24 C25 1_555 1_555
H25 C25 1_555 1_555
O7 C8 1_555 1_555
H26 O7 1_555 1_555
H27 C22 1_555 1_555
H28 C22 1_555 1_555
C3 C14 1_555 1_555
C7 C11 1_555 1_555
C8 C15 1_555 1_555
C10 C12 1_555 1_555
C10 C15 1_555 1_555
C13 C17 1_555 1_555
C16 C19 1_555 1_555
C18 C20 1_555 1_555

#END
