
#######################################################################
#
#                 Cambridge Crystallographic Data Centre
#                                CCDC 
#
#######################################################################
#
# If this CIF has been generated from an entry in the Cambridge 
# Structural Database, then it will include bibliographic, chemical, 
# crystal, experimental, refinement or atomic coordinate data resulting 
# from the CCDC's data processing and validation procedures.
#
#######################################################################

data_JAZTAI
_chemical_formula_moiety         'C24 H22 O3'
_chemical_name_systematic        
2,3,6a-triphenylhexahydrofuro[3,2-b]furan-2-ol
_symmetry_cell_setting           monoclinic
_symmetry_space_group_name_H-M   'P 21/n'
_symmetry_Int_Tables_number      14
_space_group_name_Hall           '-P 2yn'
loop_
_symmetry_equiv_pos_site_id
_symmetry_equiv_pos_as_xyz
1 x,y,z
2 1/2-x,1/2+y,1/2-z
3 -x,-y,-z
4 1/2+x,1/2-y,1/2+z
_cell_length_a                   6.75194(14)
_cell_length_b                   14.9496(4)
_cell_length_c                   19.4789(5)
_cell_angle_alpha                90
_cell_angle_beta                 97.913(2)
_cell_angle_gamma                90
_cell_volume                     1947.46
_cell_formula_units_Z            4
loop_
_atom_site_label
_atom_site_type_symbol
_atom_site_fract_x
_atom_site_fract_y
_atom_site_fract_z
O1 O 0.03913(14) 0.54155(6) 0.73482(5)
H1 H 0.1494 0.5326 0.7230
O2 O -0.14520(14) 0.44661(6) 0.65540(5)
O3 O -0.59982(13) 0.49738(8) 0.68967(5)
C1 C -0.07348(19) 0.46279(9) 0.72696(7)
C2 C -0.26825(19) 0.47932(9) 0.75839(7)
H2 H -0.3306 0.4208 0.7627
C3 C 0.0433(2) 0.30235(10) 0.71915(8)
H3 H -0.0409 0.2959 0.6775
C4 C -0.0745(2) 0.58061(11) 0.55984(8)
H4 H 0.0079 0.5306 0.5660
C5 C -0.2430(2) 0.58515(10) 0.59277(7)
C6 C -0.6035(2) 0.42215(12) 0.64360(8)
H5 H -0.7388 0.4091 0.6222
H6 H -0.5476 0.3693 0.6679
C7 C 0.04720(19) 0.38228(9) 0.75513(7)
C8 C -0.30851(19) 0.50636(9) 0.63330(7)
C9 C -0.2476(2) 0.52222(11) 0.82897(7)
C10 C 0.1688(2) 0.38937(11) 0.81832(8)
H7 H 0.1718 0.4424 0.8434
C11 C 0.2856(3) 0.31784(12) 0.84405(9)
H8 H 0.3648 0.3228 0.8869
C12 C -0.3601(3) 0.66145(12) 0.58325(9)
H9 H -0.4741 0.6661 0.6049
C13 C -0.39882(19) 0.52945(10) 0.70035(7)
H10 H -0.3950 0.5941 0.7089
C14 C -0.0271(3) 0.64981(14) 0.51776(9)
H11 H 0.0858 0.6452 0.4955
C15 C -0.2800(3) 0.47126(15) 0.88577(9)
H12 H -0.3125 0.4111 0.8798
C16 C -0.4755(2) 0.45277(11) 0.59047(8)
H13 H -0.5513 0.4901 0.5555
H14 H -0.4215 0.4022 0.5680
C17 C 0.1650(3) 0.23155(11) 0.74506(10)
H15 H 0.1639 0.1785 0.7201
C18 C 0.2863(3) 0.23952(12) 0.80719(10)
H16 H 0.3684 0.1923 0.8243
C19 C -0.1980(3) 0.61136(13) 0.83967(9)
H17 H -0.1740 0.6468 0.8025
C20 C -0.2184(4) 0.5969(2) 0.96070(11)
H18 H -0.2104 0.6221 1.0046
C21 C -0.3094(3) 0.73094(13) 0.54180(10)
H19 H -0.3882 0.7822 0.5365
C22 C -0.1838(3) 0.64829(17) 0.90546(11)
H20 H -0.1506 0.7083 0.9121
C23 C -0.1432(3) 0.72443(13) 0.50846(9)
H21 H -0.1106 0.7704 0.4799
C24 C -0.2648(4) 0.5085(2) 0.95119(10)
H22 H -0.2862 0.4733 0.9888
loop_
_geom_bond_atom_site_label_1
_geom_bond_atom_site_label_2
_geom_bond_site_symmetry_1
_geom_bond_site_symmetry_2
O1 H1 1_555 1_555
O2 C1 1_555 1_555
O3 C6 1_555 1_555
C1 O1 1_555 1_555
C2 C1 1_555 1_555
H2 C2 1_555 1_555
C3 H3 1_555 1_555
C4 H4 1_555 1_555
C5 C4 1_555 1_555
C6 H5 1_555 1_555
H6 C6 1_555 1_555
C7 C1 1_555 1_555
C8 O2 1_555 1_555
C9 C2 1_555 1_555
C10 C7 1_555 1_555
H7 C10 1_555 1_555
C11 C10 1_555 1_555
H8 C11 1_555 1_555
C12 C5 1_555 1_555
H9 C12 1_555 1_555
C13 O3 1_555 1_555
H10 C13 1_555 1_555
C14 C4 1_555 1_555
H11 C14 1_555 1_555
C15 C9 1_555 1_555
H12 C15 1_555 1_555
C16 C6 1_555 1_555
H13 C16 1_555 1_555
H14 C16 1_555 1_555
C17 C3 1_555 1_555
H15 C17 1_555 1_555
C18 C11 1_555 1_555
H16 C18 1_555 1_555
C19 C9 1_555 1_555
H17 C19 1_555 1_555
C20 H18 1_555 1_555
C21 C12 1_555 1_555
H19 C21 1_555 1_555
C22 C19 1_555 1_555
H20 C22 1_555 1_555
C23 C14 1_555 1_555
H21 C23 1_555 1_555
C24 C15 1_555 1_555
H22 C24 1_555 1_555
C2 C13 1_555 1_555
C3 C7 1_555 1_555
C5 C8 1_555 1_555
C8 C13 1_555 1_555
C8 C16 1_555 1_555
C17 C18 1_555 1_555
C20 C22 1_555 1_555
C20 C24 1_555 1_555
C21 C23 1_555 1_555

#END
