
#######################################################################
#
#                 Cambridge Crystallographic Data Centre
#                                CCDC 
#
#######################################################################
#
# If this CIF has been generated from an entry in the Cambridge 
# Structural Database, then it will include bibliographic, chemical, 
# crystal, experimental, refinement or atomic coordinate data resulting 
# from the CCDC's data processing and validation procedures.
#
#######################################################################

data_JAZVUB
_chemical_formula_moiety         'C31 H29 N1 O4 S2,C1 H4 O1'
_chemical_name_systematic        
'N-(p-Tolylsulfonyl)(2.2)(1,3)(1,3)-1-thia-10-aza(2.2)(4,6)(1,3)cyclophan-1,1-dioxide methanol solvate'
_symmetry_cell_setting           monoclinic
_symmetry_space_group_name_H-M   'P 21/n'
_symmetry_Int_Tables_number      14
_space_group_name_Hall           '-P 2yn'
loop_
_symmetry_equiv_pos_site_id
_symmetry_equiv_pos_as_xyz
1 x,y,z
2 1/2-x,1/2+y,1/2-z
3 -x,-y,-z
4 1/2+x,1/2-y,1/2+z
_cell_length_a                   14.133(5)
_cell_length_b                   7.487(2)
_cell_length_c                   26.721(10)
_cell_angle_alpha                90
_cell_angle_beta                 90.63(3)
_cell_angle_gamma                90
_cell_volume                     2827.28
_chemical_melting_point          272-273deg.C(dec)
_cell_formula_units_Z            4
loop_
_atom_site_label
_atom_site_type_symbol
_atom_site_fract_x
_atom_site_fract_y
_atom_site_fract_z
C1 C -0.1274(7) 0.6026(14) 0.2633(4)
C2 C -0.1439(7) 0.6650(16) 0.3118(4)
C3 C -0.0886(9) 0.8021(15) 0.3312(4)
C4 C -0.0096(7) 0.8612(16) 0.3067(4)
C5 C 0.0095(6) 0.8028(12) 0.2599(3)
C6 C -0.0524(6) 0.6846(13) 0.2373(3)
C7 C 0.1064(6) 0.8261(14) 0.2373(3)
C8 C 0.1706(6) 0.6665(13) 0.2521(3)
C9 C 0.1362(6) 0.4939(14) 0.2301(3)
C10 C 0.0593(7) 0.4088(13) 0.2542(3)
C11 C -0.0019(6) 0.2921(14) 0.2294(3)
C12 C -0.0998(6) 0.2687(14) 0.2522(4)
C13 C -0.1683(7) 0.4304(14) 0.2438(4)
C14 C 0.1618(6) 0.4234(11) 0.1844(3)
C15 C 0.2359(6) 0.5139(13) 0.1508(3)
N1 N 0.1857(5) 0.6246(10) 0.1129(3)
C16 C 0.1313(6) 0.5285(11) 0.0773(3)
C17 C 0.0399(6) 0.4813(12) 0.0912(3)
C18 C -0.0056(6) 0.3361(13) 0.0673(3)
S1 S -0.0958(2) 0.2248(4) 0.0998(1)
C19 C -0.0349(7) 0.1085(13) 0.1498(3)
C20 C 0.0263(6) 0.2223(12) 0.1835(3)
C21 C 0.1145(6) 0.2778(12) 0.1649(3)
C22 C 0.1674(7) 0.4476(12) 0.0356(3)
C23 C 0.1206(8) 0.3221(15) 0.0091(4)
C24 C 0.0367(8) 0.2579(14) 0.0254(4)
O1 O -0.1377(6) 0.0928(12) 0.0683(3)
O2 O -0.1560(4) 0.3589(11) 0.1217(3)
S2 S 0.2267(2) 0.8259(3) 0.0998(1)
O3 O 0.1533(4) 0.9136(9) 0.0717(2)
O4 O 0.2610(5) 0.8976(10) 0.1456(2)
C25 C 0.3250(6) 0.8006(13) 0.0603(4)
C26 C 0.3147(7) 0.8211(15) 0.0097(4)
C27 C 0.3948(9) 0.8011(15) -0.0204(4)
C28 C 0.4791(8) 0.7630(15) -0.0014(5)
C29 C 0.4905(8) 0.7402(15) 0.0491(5)
C30 C 0.4117(7) 0.7608(14) 0.0808(4)
C31 C 0.5622(8) 0.7400(16) -0.0372(5)
H1 H -0.1908 0.6098 0.3324
H2 H -0.1076 0.8595 0.3616
H3 H 0.0325 0.9449 0.3225
H4 H -0.0446 0.6564 0.2026
H5 H 0.0996 0.8285 0.2015
H6 H 0.1339 0.9364 0.2487
H7 H 0.1713 0.6576 0.2879
H8 H 0.2337 0.6880 0.2405
H9 H 0.0490 0.4311 0.2891
H10 H -0.1269 0.1650 0.2365
H11 H -0.0932 0.2482 0.2875
H12 H -0.2267 0.4075 0.2606
H13 H -0.1803 0.4435 0.2085
H14 H 0.2720 0.4235 0.1342
H15 H 0.2776 0.5878 0.1704
H16 H 0.0085 0.5457 0.1173
H17 H 0.0045 0.0187 0.1350
H18 H -0.0818 0.0523 0.1701
H19 H 0.1429 0.2109 0.1384
H20 H 0.2302 0.4803 0.0257
H21 H 0.1452 0.2787 -0.0219
H22 H 0.0051 0.1597 0.0092
H23 H 0.2534 0.8461 -0.0044
H24 H 0.3896 0.8153 -0.0561
H25 H 0.5518 0.7103 0.0624
H26 H 0.4176 0.7502 0.1165
H27 H 0.6174 0.7144 -0.0172
H28 H 0.5728 0.8463 -0.0564
H29 H 0.5497 0.6417 -0.0594
O5 O -0.2884(7) 0.6223(19) 0.0862(4)
C32 C -0.2636(13) 0.7593(23) 0.1191(7)
H30 H -0.2536 0.5322 0.0924
H31 H -0.2862 0.7390 0.1524
H32 H -0.2906 0.8679 0.1062
H33 H -0.1959 0.7693 0.1199
loop_
_geom_bond_atom_site_label_1
_geom_bond_atom_site_label_2
_geom_bond_site_symmetry_1
_geom_bond_site_symmetry_2
C1 C2 1_555 1_555
C2 C3 1_555 1_555
C3 C4 1_555 1_555
C4 C5 1_555 1_555
C5 C6 1_555 1_555
C6 C1 1_555 1_555
C7 C5 1_555 1_555
C8 C7 1_555 1_555
C9 C8 1_555 1_555
C10 C9 1_555 1_555
C11 C10 1_555 1_555
C12 C11 1_555 1_555
C13 C1 1_555 1_555
C14 C9 1_555 1_555
C15 C14 1_555 1_555
N1 C15 1_555 1_555
C16 N1 1_555 1_555
C17 C16 1_555 1_555
C18 C17 1_555 1_555
S1 C18 1_555 1_555
C19 S1 1_555 1_555
C20 C11 1_555 1_555
C21 C14 1_555 1_555
C22 C16 1_555 1_555
C23 C22 1_555 1_555
C24 C18 1_555 1_555
O1 S1 1_555 1_555
O2 S1 1_555 1_555
S2 N1 1_555 1_555
O3 S2 1_555 1_555
O4 S2 1_555 1_555
C25 S2 1_555 1_555
C26 C25 1_555 1_555
C27 C26 1_555 1_555
C28 C27 1_555 1_555
C29 C28 1_555 1_555
C30 C25 1_555 1_555
C31 C28 1_555 1_555
H1 C2 1_555 1_555
H2 C3 1_555 1_555
H3 C4 1_555 1_555
H4 C6 1_555 1_555
H5 C7 1_555 1_555
H6 C7 1_555 1_555
H7 C8 1_555 1_555
H8 C8 1_555 1_555
H9 C10 1_555 1_555
H10 C12 1_555 1_555
H11 C12 1_555 1_555
H12 C13 1_555 1_555
H13 C13 1_555 1_555
H14 C15 1_555 1_555
H15 C15 1_555 1_555
H16 C17 1_555 1_555
H17 C19 1_555 1_555
H18 C19 1_555 1_555
H19 C21 1_555 1_555
H20 C22 1_555 1_555
H21 C23 1_555 1_555
H22 C24 1_555 1_555
H23 C26 1_555 1_555
H24 C27 1_555 1_555
H25 C29 1_555 1_555
H26 C30 1_555 1_555
H27 C31 1_555 1_555
H28 C31 1_555 1_555
H29 C31 1_555 1_555
O5 C32 1_555 1_555
C32 H31 1_555 1_555
H30 O5 1_555 1_555
H32 C32 1_555 1_555
H33 C32 1_555 1_555
C12 C13 1_555 1_555
C19 C20 1_555 1_555
C20 C21 1_555 1_555
C23 C24 1_555 1_555
C29 C30 1_555 1_555

#END
