
#######################################################################
#
#                 Cambridge Crystallographic Data Centre
#                                CCDC 
#
#######################################################################
#
# If this CIF has been generated from an entry in the Cambridge 
# Structural Database, then it will include bibliographic, chemical, 
# crystal, experimental, refinement or atomic coordinate data resulting 
# from the CCDC's data processing and validation procedures.
#
#######################################################################

data_JAZWAI
_chemical_formula_moiety         'C25 H21 N1 O2 S2'
_chemical_name_systematic        
N-(p-Tolylsulfonyl)-1-thia-14-aza(2)(2,4)naphthalino(2)metacyclophane
_symmetry_cell_setting           monoclinic
_symmetry_space_group_name_H-M   'P 21/n'
_symmetry_Int_Tables_number      14
_space_group_name_Hall           '-P 2yn'
loop_
_symmetry_equiv_pos_site_id
_symmetry_equiv_pos_as_xyz
1 x,y,z
2 1/2-x,1/2+y,1/2-z
3 -x,-y,-z
4 1/2+x,1/2-y,1/2+z
_cell_length_a                   11.001(10)
_cell_length_b                   11.406(10)
_cell_length_c                   16.506(13)
_cell_angle_alpha                90
_cell_angle_beta                 94.84(4)
_cell_angle_gamma                90
_cell_volume                     2063.74
_chemical_melting_point          240-241deg.C(dec)
_cell_formula_units_Z            4
loop_
_atom_site_label
_atom_site_type_symbol
_atom_site_fract_x
_atom_site_fract_y
_atom_site_fract_z
S1 S -0.00951 0.06689 0.24432
O1 O -0.06311 0.07457 0.32048
O2 O 0.01452 0.17061 0.19889
C1 C -0.10388 -0.02406 0.17936
C2 C -0.18180 -0.10192 0.21279
H1 H -0.18374 -0.10682 0.27801
C3 C -0.25604 -0.17329 0.16218
H2 H -0.31807 -0.23324 0.18815
C4 C -0.25244 -0.16892 0.07866
C5 C -0.17280 -0.09097 0.04636
H3 H -0.16920 -0.08750 -0.01878
C6 C -0.09809 -0.01791 0.09577
H4 H -0.03638 0.04274 0.07016
C7 C -0.33416 -0.24622 0.02377
H5 H -0.31817 -0.23023 -0.03894
H6 H -0.42828 -0.22735 0.03274
H7 H -0.31476 -0.33691 0.03856
N1 N 0.12000 -0.00052 0.26222
C8 C 0.20755 -0.00158 0.20361
C9 C 0.21349 -0.09551 0.15069
H8 H 0.13812 -0.15617 0.14219
C10 C 0.31654 -0.10957 0.10981
H9 H 0.31838 -0.17771 0.06449
C11 C 0.41704 -0.03681 0.12534
H10 H 0.49993 -0.05305 0.09646
C12 C 0.41005 0.05689 0.17956
C13 C 0.30255 0.07919 0.21411
H11 H 0.29216 0.15841 0.24869
S2 S 0.54419 0.12836 0.22184
C14 C 0.57708 0.03229 0.31186
H12 H 0.65998 0.06198 0.34530
H13 H 0.58920 -0.05651 0.29130
C15 C 0.47671 0.03363 0.36732
C16 C 0.47320 0.11402 0.42854
H14 H 0.55223 0.16823 0.44407
C17 C 0.36949 0.12692 0.47166
C18 C 0.36925 0.20360 0.53890
H15 H 0.45218 0.24897 0.55983
C19 C 0.26686 0.22112 0.57776
H16 H 0.26932 0.27879 0.62977
C20 C 0.15485 0.08789 0.48600
H17 H 0.07037 0.04495 0.46535
C21 C 0.15822 0.16349 0.55068
H18 H 0.07632 0.17998 0.58062
C22 C 0.26055 0.06456 0.44558
C23 C 0.26615 -0.01947 0.38141
C24 C 0.37421 -0.04022 0.34954
H19 H 0.38213 -0.11424 0.30952
C25 C 0.15209 -0.07145 0.33748
H20 H 0.07809 -0.06917 0.37649
H21 H 0.16946 -0.16107 0.32079
loop_
_geom_bond_atom_site_label_1
_geom_bond_atom_site_label_2
_geom_bond_site_symmetry_1
_geom_bond_site_symmetry_2
S1 O1 1_555 1_555
O2 S1 1_555 1_555
C1 S1 1_555 1_555
C2 C1 1_555 1_555
H1 C2 1_555 1_555
C3 C2 1_555 1_555
H2 C3 1_555 1_555
C4 C3 1_555 1_555
C5 C4 1_555 1_555
H3 C5 1_555 1_555
C6 C1 1_555 1_555
H4 C6 1_555 1_555
C7 C4 1_555 1_555
H5 C7 1_555 1_555
H6 C7 1_555 1_555
H7 C7 1_555 1_555
N1 S1 1_555 1_555
C8 N1 1_555 1_555
C9 C8 1_555 1_555
H8 C9 1_555 1_555
C10 C9 1_555 1_555
H9 C10 1_555 1_555
C11 C10 1_555 1_555
H10 C11 1_555 1_555
C12 C11 1_555 1_555
C13 C8 1_555 1_555
H11 C13 1_555 1_555
S2 C12 1_555 1_555
C14 S2 1_555 1_555
H12 C14 1_555 1_555
H13 C14 1_555 1_555
C15 C14 1_555 1_555
C16 C15 1_555 1_555
H14 C16 1_555 1_555
C17 C16 1_555 1_555
C18 C17 1_555 1_555
H15 C18 1_555 1_555
C19 C18 1_555 1_555
H16 C19 1_555 1_555
C20 H17 1_555 1_555
C21 C19 1_555 1_555
H18 C21 1_555 1_555
C22 C17 1_555 1_555
C23 C22 1_555 1_555
C24 C15 1_555 1_555
H19 C24 1_555 1_555
C25 N1 1_555 1_555
H20 C25 1_555 1_555
H21 C25 1_555 1_555
C5 C6 1_555 1_555
C12 C13 1_555 1_555
C20 C21 1_555 1_555
C20 C22 1_555 1_555
C23 C24 1_555 1_555
C23 C25 1_555 1_555

#END
