
#######################################################################
#
#                 Cambridge Crystallographic Data Centre
#                                CCDC 
#
#######################################################################
#
# If this CIF has been generated from an entry in the Cambridge 
# Structural Database, then it will include bibliographic, chemical, 
# crystal, experimental, refinement or atomic coordinate data resulting 
# from the CCDC's data processing and validation procedures.
#
#######################################################################

data_JEBCUR
_chemical_formula_moiety         'C24 H24 N2 O2'
_chemical_name_systematic        
4,4'-((1Z,1'Z)-2,2'-(2,5-diethoxy-1,4-phenylene)bis(ethene-2,1-diyl))dipyridine
_symmetry_cell_setting           monoclinic
_symmetry_space_group_name_H-M   'P 21/c'
_symmetry_Int_Tables_number      14
_space_group_name_Hall           '-P 2ybc'
loop_
_symmetry_equiv_pos_site_id
_symmetry_equiv_pos_as_xyz
1 x,y,z
2 -x,1/2+y,1/2-z
3 -x,-y,-z
4 x,1/2-y,1/2+z
_cell_length_a                   11.7857(4)
_cell_length_b                   10.6233(4)
_cell_length_c                   8.0268(3)
_cell_angle_alpha                90
_cell_angle_beta                 102.104(2)
_cell_angle_gamma                90
_cell_volume                     982.638
_exptl_crystal_colour            yellow
_exptl_crystal_description       block
_cell_formula_units_Z            2
loop_
_atom_site_label
_atom_site_type_symbol
_atom_site_fract_x
_atom_site_fract_y
_atom_site_fract_z
C1 C 0.64731(11) 0.52901(11) 0.49232(16)
H1 H 0.6057 0.4665 0.5343
C2 C 0.76491(10) 0.53829(11) 0.56002(14)
H2 H 0.8005 0.4814 0.6427
C3 C 0.83006(9) 0.63264(10) 0.50464(13)
C4 C 0.77088(9) 0.70972(10) 0.37414(13)
H3 H 0.8102 0.7726 0.3288
C5 C 0.65361(10) 0.69202(11) 0.31293(15)
H4 H 0.6164 0.7446 0.2258
C6 C 0.95445(9) 0.64232(10) 0.58225(13)
H5 H 0.9870 0.5683 0.6329
C7 C 1.02940(9) 0.73835(11) 0.59319(14)
H6 H 1.1059 0.7173 0.6406
C8 C 1.01172(9) 0.87096(10) 0.54337(13)
C9 C 0.91183(9) 0.93729(10) 0.55406(13)
H7 H 0.8524 0.8959 0.5918
C10 C 0.89827(9) 1.06367(10) 0.51004(13)
C11 C 0.70792(10) 1.06932(12) 0.56948(17)
H8 H 0.7336 1.0347 0.6830
H9 H 0.6798 1.0009 0.4917
C12 C 0.61340(11) 1.16398(14) 0.5682(2)
H10 H 0.6416 1.2301 0.6477
H11 H 0.5483 1.1236 0.6002
H12 H 0.5898 1.1988 0.4559
N1 N 0.58977(8) 0.60466(10) 0.36994(14)
O1 O 0.80177(6) 1.13274(7) 0.51736(10)
C1B C 1.35269(11) 1.47099(11) 0.50768(16)
H1B H 1.3943 1.5335 0.4657
C2B C 1.23509(10) 1.46171(11) 0.43998(14)
H2B H 1.1995 1.5186 0.3573
C3B C 1.16994(9) 1.36736(10) 0.49536(13)
C4B C 1.22912(9) 1.29028(10) 0.62586(13)
H3B H 1.1898 1.2274 0.6712
C5B C 1.34639(10) 1.30798(11) 0.68707(15)
H4B H 1.3836 1.2554 0.7742
C6B C 1.04555(9) 1.35768(10) 0.41775(13)
H5B H 1.0130 1.4317 0.3671
C7B C 0.97060(9) 1.26165(11) 0.40681(14)
H6B H 0.8941 1.2827 0.3594
C8B C 0.98828(9) 1.12904(10) 0.45663(13)
C9B C 1.08817(9) 1.06271(10) 0.44594(13)
H7B H 1.1476 1.1041 0.4082
C10B C 1.10173(9) 0.93633(10) 0.48996(13)
C11B C 1.29208(10) 0.93068(12) 0.43052(17)
H8B H 1.2664 0.9653 0.3170
H9B H 1.3202 0.9991 0.5083
C12B C 1.38660(11) 0.83602(14) 0.4318(2)
H10B H 1.3584 0.7699 0.3523
H11B H 1.4517 0.8764 0.3998
H12B H 1.4102 0.8012 0.5441
N1B N 1.41023(8) 1.39534(10) 0.63006(14)
O1B O 1.19823(6) 0.86726(7) 0.48264(10)
loop_
_geom_bond_atom_site_label_1
_geom_bond_atom_site_label_2
_geom_bond_site_symmetry_1
_geom_bond_site_symmetry_2
C1 H1 1_555 1_555
C2 C1 1_555 1_555
H2 C2 1_555 1_555
C3 C2 1_555 1_555
C4 C3 1_555 1_555
H3 C4 1_555 1_555
C5 C4 1_555 1_555
H4 C5 1_555 1_555
C6 C3 1_555 1_555
H5 C6 1_555 1_555
C7 C6 1_555 1_555
H6 C7 1_555 1_555
C8 C7 1_555 1_555
C9 C8 1_555 1_555
H7 C9 1_555 1_555
C10 C9 1_555 1_555
C11 H8 1_555 1_555
H9 C11 1_555 1_555
C12 C11 1_555 1_555
H10 C12 1_555 1_555
H11 C12 1_555 1_555
H12 C12 1_555 1_555
N1 C1 1_555 1_555
O1 C10 1_555 1_555
C1B H1B 1_555 1_555
C2B C1B 1_555 1_555
H2B C2B 1_555 1_555
C3B C2B 1_555 1_555
C4B C3B 1_555 1_555
H3B C4B 1_555 1_555
C5B C4B 1_555 1_555
H4B C5B 1_555 1_555
C6B C3B 1_555 1_555
H5B C6B 1_555 1_555
C7B C6B 1_555 1_555
H6B C7B 1_555 1_555
C8B C10 1_555 1_555
C9B C8B 1_555 1_555
H7B C9B 1_555 1_555
C10B C8 1_555 1_555
C11B H8B 1_555 1_555
H9B C11B 1_555 1_555
C12B C11B 1_555 1_555
H10B C12B 1_555 1_555
H11B C12B 1_555 1_555
H12B C12B 1_555 1_555
N1B C1B 1_555 1_555
O1B C10B 1_555 1_555
C5 N1 1_555 1_555
C11 O1 1_555 1_555
C5B N1B 1_555 1_555
C7B C8B 1_555 1_555
C9B C10B 1_555 1_555
C11B O1B 1_555 1_555

#END
