
#######################################################################
#
#                 Cambridge Crystallographic Data Centre
#                                CCDC 
#
#######################################################################
#
# If this CIF has been generated from an entry in the Cambridge 
# Structural Database, then it will include bibliographic, chemical, 
# crystal, experimental, refinement or atomic coordinate data resulting 
# from the CCDC's data processing and validation procedures.
#
#######################################################################

data_JEBFEB
_chemical_formula_moiety         'C12 H11 N2 O1 P1'
_chemical_name_systematic        1,3-Dihydrido-2-phenyl-1,3,2-diazaphosphole
_symmetry_cell_setting           orthorhombic
_symmetry_space_group_name_H-M   'C m c a'
_symmetry_Int_Tables_number      64
_space_group_name_Hall           '-C 2ac 2'
loop_
_symmetry_equiv_pos_site_id
_symmetry_equiv_pos_as_xyz
1 x,y,z
2 1/2+x,1/2+y,z
3 -x,y,z
4 1/2-x,1/2+y,z
5 x,1/2-y,1/2+z
6 1/2+x,-y,1/2+z
7 -x,1/2-y,1/2+z
8 1/2-x,-y,1/2+z
9 -x,-y,-z
10 1/2-x,1/2-y,-z
11 x,-y,-z
12 1/2+x,1/2-y,-z
13 -x,1/2+y,1/2-z
14 1/2-x,y,1/2-z
15 x,1/2+y,1/2-z
16 1/2+x,y,1/2-z
_cell_length_a                   7.679(2)
_cell_length_b                   17.127(3)
_cell_length_c                   17.210(4)
_cell_angle_alpha                90
_cell_angle_beta                 90
_cell_angle_gamma                90
_cell_volume                     2263.43
_exptl_crystal_colour            colorless
_chemical_melting_point          280-281deg.C
_cell_formula_units_Z            8
loop_
_atom_site_label
_atom_site_type_symbol
_atom_site_fract_x
_atom_site_fract_y
_atom_site_fract_z
P1 P 0.0000 0.2078(1) 0.2042(1)
O1 O 0.0000 0.2338(3) 0.2865(3)
N1 N 0.1550(5) 0.2428(2) 0.1472(2)
C1 C 0.0000 0.1037(5) 0.2000(5)
C2 C 0.0000 0.0620(6) 0.2687(6)
C3 C 0.0000 -0.0200(7) 0.2648(9)
C4 C 0.0000 -0.0578(7) 0.1958(9)
C5 C 0.0000 -0.0168(7) 0.1280(9)
C6 C 0.0000 0.0641(5) 0.1294(5)
C7 C 0.0908(6) 0.2943(3) 0.0913(3)
C8 C 0.1820(8) 0.3408(4) 0.0399(3)
C9 C 0.0894(8) 0.3887(4) -0.0097(4)
N1B N -0.1550(5) 0.2428(2) 0.1472(2)
C7B C -0.0908(6) 0.2943(3) 0.0913(3)
C9B C -0.0894(8) 0.3887(4) -0.0097(4)
C8B C -0.1820(8) 0.3408(4) 0.0399(3)
loop_
_geom_bond_atom_site_label_1
_geom_bond_atom_site_label_2
_geom_bond_site_symmetry_1
_geom_bond_site_symmetry_2
P1 O1 1_555 1_555
N1 P1 1_555 1_555
C1 P1 1_555 1_555
C2 C1 1_555 1_555
C3 C2 1_555 1_555
C4 C3 1_555 1_555
C5 C4 1_555 1_555
C6 C1 1_555 1_555
C7 N1 1_555 1_555
C8 C7 1_555 1_555
C9 C8 1_555 1_555
N1B P1 1_555 1_555
C7B C7 1_555 1_555
C9B C9 1_555 1_555
C8B C7B 1_555 1_555
C5 C6 1_555 1_555
N1B C7B 1_555 1_555
C9B C8B 1_555 1_555

#END
