
#######################################################################
#
#                 Cambridge Crystallographic Data Centre
#                                CCDC 
#
#######################################################################
#
# If this CIF has been generated from an entry in the Cambridge 
# Structural Database, then it will include bibliographic, chemical, 
# crystal, experimental, refinement or atomic coordinate data resulting 
# from the CCDC's data processing and validation procedures.
#
#######################################################################

data_JEBKUZ
_chemical_formula_moiety         'C22 H18 Br4 N2'
_chemical_name_systematic        
9,9,12,12-tetrabromo-8,11-diphenyl-7,10-diazatricyclo[4.3.3.0^1,6^]dodeca-7,10-diene
_symmetry_cell_setting           orthorhombic
_symmetry_space_group_name_H-M   'P b c a'
_symmetry_Int_Tables_number      61
_space_group_name_Hall           '-P 2ac 2ab'
loop_
_symmetry_equiv_pos_site_id
_symmetry_equiv_pos_as_xyz
1 x,y,z
2 1/2-x,-y,1/2+z
3 1/2+x,1/2-y,-z
4 -x,1/2+y,1/2-z
5 -x,-y,-z
6 1/2+x,y,1/2-z
7 1/2-x,1/2+y,z
8 x,1/2-y,1/2+z
_cell_length_a                   10.7971(8)
_cell_length_b                   15.2395(13)
_cell_length_c                   26.1285(19)
_cell_angle_alpha                90
_cell_angle_beta                 90
_cell_angle_gamma                90
_cell_volume                     4299.25
_exptl_crystal_colour            'light yellow'
_exptl_crystal_description       block
_cell_formula_units_Z            8
loop_
_atom_site_label
_atom_site_type_symbol
_atom_site_fract_x
_atom_site_fract_y
_atom_site_fract_z
Br1 Br 0.29763(6) 0.55208(5) 0.71020(3)
Br2 Br 0.54310(6) 0.46708(5) 0.66969(3)
Br3 Br 0.57876(6) 0.79695(5) 0.55250(3)
Br4 Br 0.64742(7) 0.87396(5) 0.66031(3)
N1 N 0.6480(4) 0.6406(3) 0.66889(18)
N2 N 0.4111(4) 0.6790(3) 0.60410(18)
C1 C 0.5198(5) 0.6568(4) 0.6842(2)
C2 C 0.4446(5) 0.5737(4) 0.6677(2)
C3 C 0.4002(5) 0.5972(4) 0.6145(2)
C4 C 0.4690(5) 0.7280(4) 0.6468(2)
C5 C 0.5915(6) 0.7678(4) 0.6242(2)
C6 C 0.6865(5) 0.6974(4) 0.6369(2)
C7 C 0.5198(6) 0.6820(5) 0.7408(2)
H1 H 0.5964 0.7127 0.7482
H2 H 0.5197 0.6285 0.7609
C8 C 0.4112(7) 0.7395(5) 0.7587(2)
H3 H 0.3365 0.7042 0.7598
H4 H 0.4278 0.7603 0.7931
C9 C 0.3896(7) 0.8185(5) 0.7236(2)
H5 H 0.3162 0.8497 0.7349
H6 H 0.4595 0.8582 0.7263
C10 C 0.3734(6) 0.7913(5) 0.6681(2)
H7 H 0.2923 0.7648 0.6644
H8 H 0.3743 0.8439 0.6472
C11 C 0.3480(6) 0.5358(4) 0.5763(2)
C12 C 0.3497(8) 0.5622(5) 0.5250(3)
H9 H 0.3851 0.6155 0.5158
C13 C 0.2988(9) 0.5086(6) 0.4886(3)
H10 H 0.2982 0.5266 0.4546
C14 C 0.2483(8) 0.4282(5) 0.5016(3)
H11 H 0.2152 0.3920 0.4764
C15 C 0.2473(6) 0.4024(5) 0.5513(3)
H12 H 0.2131 0.3485 0.5602
C16 C 0.2967(6) 0.4558(5) 0.5884(3)
H13 H 0.2956 0.4375 0.6223
C17 C 0.8147(5) 0.6932(4) 0.6172(2)
C18 C 0.8726(6) 0.7625(4) 0.5917(2)
H14 H 0.8293 0.8139 0.5849
C19 C 0.9955(6) 0.7540(5) 0.5765(3)
H15 H 1.0344 0.8008 0.5602
C20 C 1.0598(7) 0.6787(6) 0.5849(3)
H16 H 1.1418 0.6739 0.5744
C21 C 1.0024(7) 0.6091(5) 0.6093(3)
H17 H 1.0458 0.5573 0.6148
C22 C 0.8819(6) 0.6162(5) 0.6254(3)
H18 H 0.8446 0.5691 0.6420
loop_
_geom_bond_atom_site_label_1
_geom_bond_atom_site_label_2
_geom_bond_site_symmetry_1
_geom_bond_site_symmetry_2
Br1 C2 1_555 1_555
Br2 C2 1_555 1_555
Br3 C5 1_555 1_555
Br4 C5 1_555 1_555
N1 C1 1_555 1_555
N2 C3 1_555 1_555
C1 C2 1_555 1_555
C2 C3 1_555 1_555
C3 C11 1_555 1_555
C4 N2 1_555 1_555
C5 C4 1_555 1_555
C6 N1 1_555 1_555
C7 C1 1_555 1_555
H1 C7 1_555 1_555
H2 C7 1_555 1_555
C8 C7 1_555 1_555
H3 C8 1_555 1_555
H4 C8 1_555 1_555
C9 C8 1_555 1_555
H5 C9 1_555 1_555
H6 C9 1_555 1_555
C10 C4 1_555 1_555
H7 C10 1_555 1_555
H8 C10 1_555 1_555
C11 C12 1_555 1_555
C12 H9 1_555 1_555
C13 C12 1_555 1_555
H10 C13 1_555 1_555
C14 C13 1_555 1_555
H11 C14 1_555 1_555
C15 C14 1_555 1_555
H12 C15 1_555 1_555
C16 C11 1_555 1_555
H13 C16 1_555 1_555
C17 C6 1_555 1_555
C18 C17 1_555 1_555
H14 C18 1_555 1_555
C19 C18 1_555 1_555
H15 C19 1_555 1_555
C20 C19 1_555 1_555
H16 C20 1_555 1_555
C21 C20 1_555 1_555
H17 C21 1_555 1_555
C22 C17 1_555 1_555
H18 C22 1_555 1_555
C1 C4 1_555 1_555
C5 C6 1_555 1_555
C9 C10 1_555 1_555
C15 C16 1_555 1_555
C21 C22 1_555 1_555

#END
