
#######################################################################
#
#                 Cambridge Crystallographic Data Centre
#                                CCDC 
#
#######################################################################
#
# If this CIF has been generated from an entry in the Cambridge 
# Structural Database, then it will include bibliographic, chemical, 
# crystal, experimental, refinement or atomic coordinate data resulting 
# from the CCDC's data processing and validation procedures.
#
#######################################################################

data_JEBLUX02
_chemical_formula_moiety         'C36 H46 B2'
_chemical_name_systematic        bis((\m~2~-hydrido)-dimesityl-borane)
_symmetry_cell_setting           monoclinic
_symmetry_space_group_name_H-M   'P 2/n'
_symmetry_Int_Tables_number      13
_space_group_name_Hall           '-P 2yac'
loop_
_symmetry_equiv_pos_site_id
_symmetry_equiv_pos_as_xyz
1 x,y,z
2 1/2+x,-y,1/2+z
3 -x,-y,-z
4 1/2-x,y,1/2-z
_cell_length_a                   12.2566(6)
_cell_length_b                   7.7598(4)
_cell_length_c                   16.7075(9)
_cell_angle_alpha                90
_cell_angle_beta                 109.5960(10)
_cell_angle_gamma                90
_cell_volume                     1496.99
_exptl_crystal_colour            colorless
_exptl_crystal_description       block
_cell_formula_units_Z            2
_exptl_crystal_recrystallization_method 'THF/diethyl ether'
loop_
_atom_site_label
_atom_site_type_symbol
_atom_site_fract_x
_atom_site_fract_y
_atom_site_fract_z
C1 C 0.99869(11) 0.36245(16) 0.29574(8)
C2 C 1.11759(11) 0.34092(17) 0.31215(8)
H1 H 1.1577 0.4256 0.2940
C3 C 0.72272(12) 0.41103(18) 0.49919(9)
H2 H 0.7427 0.5059 0.5352
C4 C 1.11646(11) 0.07422(18) 0.38178(8)
H3 H 1.1553 -0.0219 0.4110
C5 C 1.17796(11) 0.19785(18) 0.35452(8)
C6 C 0.66715(11) 0.12621(16) 0.39239(8)
C7 C 0.99802(11) 0.09036(17) 0.36655(8)
C8 C 0.77214(11) 0.39294(17) 0.43582(8)
C9 C 0.74493(11) 0.24936(16) 0.38001(8)
C10 C 0.61858(11) 0.15023(17) 0.45627(8)
H4 H 0.5669 0.0683 0.4629
C11 C 0.63212(12) -0.03798(17) 0.34109(9)
H5 H 0.5783 -0.1009 0.3605
H6 H 0.6995 -0.1074 0.3481
H7 H 0.5963 -0.0097 0.2821
C12 C 0.93588(11) 0.23594(16) 0.32273(8)
C13 C 1.30616(12) 0.1785(2) 0.37153(10)
H11 H 1.3327 0.0727 0.4015
H12 H 1.3465 0.2737 0.4053
H13 H 1.3208 0.1769 0.3186
C14 C 0.64453(12) 0.29170(18) 0.51019(9)
C15 C 0.94592(12) 0.52492(17) 0.24827(9)
H17 H 1.0050 0.5912 0.2366
H18 H 0.9123 0.5919 0.2823
H19 H 0.8870 0.4947 0.1957
C16 C 0.59079(14) 0.3154(2) 0.57868(10)
H23 H 0.6192 0.4200 0.6092
H24 H 0.6109 0.2195 0.6172
H25 H 0.5081 0.3218 0.5531
C17 C 0.93782(12) -0.05602(17) 0.39459(9)
H29 H 0.9938 -0.1418 0.4231
H30 H 0.8810 -0.1064 0.3458
H31 H 0.9005 -0.0128 0.4326
C18 C 0.84942(12) 0.53766(18) 0.42628(9)
H32 H 0.8569 0.6223 0.4697
H33 H 0.8160 0.5901 0.3714
H34 H 0.9245 0.4925 0.4317
B1 B 0.79983(13) 0.24257(18) 0.30583(9)
H35 H 0.7500 0.129(3) 0.2500
H36 H 0.7500 0.358(3) 0.2500
B1C B 0.70017(13) 0.24257(18) 0.19417(9)
C9C C 0.75507(11) 0.24936(16) 0.11999(8)
C6C C 0.83285(11) 0.12621(16) 0.10761(8)
C10C C 0.88142(11) 0.15023(17) 0.04373(8)
H4C H 0.9331 0.0683 0.0371
C14C C 0.85547(12) 0.29170(18) -0.01019(9)
C3C C 0.77728(12) 0.41103(18) 0.00081(9)
H2C H 0.7573 0.5059 -0.0352
C8C C 0.72786(11) 0.39294(17) 0.06418(8)
C18C C 0.65058(12) 0.53766(18) 0.07372(9)
H32C H 0.6431 0.6223 0.0303
H33C H 0.6840 0.5901 0.1286
H34C H 0.5755 0.4925 0.0683
C16C C 0.90921(14) 0.3154(2) -0.07868(10)
H23C H 0.8808 0.4200 -0.1092
H24C H 0.8891 0.2195 -0.1172
H25C H 0.9919 0.3218 -0.0531
C11C C 0.86788(12) -0.03798(17) 0.15891(9)
H5C H 0.9217 -0.1009 0.1395
H6C H 0.8005 -0.1074 0.1519
H7C H 0.9037 -0.0097 0.2179
C12C C 0.56412(11) 0.23594(16) 0.17727(8)
C1C C 0.50131(11) 0.36245(16) 0.20426(8)
C2C C 0.38241(11) 0.34092(17) 0.18785(8)
H1C H 0.3423 0.4256 0.2060
C5C C 0.32204(11) 0.19785(18) 0.14548(8)
C4C C 0.38354(11) 0.07422(18) 0.11822(8)
H3C H 0.3447 -0.0219 0.0890
C7C C 0.50198(11) 0.09036(17) 0.13345(8)
C17C C 0.56218(12) -0.05602(17) 0.10541(9)
H29C H 0.5062 -0.1418 0.0769
H30C H 0.6190 -0.1064 0.1542
H31C H 0.5995 -0.0128 0.0674
C13C C 0.19384(12) 0.1785(2) 0.12847(10)
H11C H 0.1673 0.0727 0.0985
H12C H 0.1535 0.2737 0.0947
H13C H 0.1792 0.1769 0.1814
C15C C 0.55408(12) 0.52492(17) 0.25173(9)
H17C H 0.4950 0.5912 0.2634
H18C H 0.5877 0.5919 0.2177
H19C H 0.6130 0.4947 0.3043
H8? H 0.6774 -0.0508 0.3044
H9? H 0.5515 -0.0323 0.3075
H10? H 0.6453 -0.1349 0.3789
H14? H 1.3328 0.2714 0.3449
H15? H 1.3208 0.0707 0.3488
H16? H 1.3465 0.1812 0.4317
H20? H 0.8694 0.5405 0.2508
H21? H 0.9417 0.5151 0.1900
H22? H 0.9931 0.6222 0.2739
H26? H 0.5434 0.2174 0.5794
H27? H 0.5440 0.4177 0.5672
H28? H 0.6509 0.3263 0.6329
loop_
_geom_bond_atom_site_label_1
_geom_bond_atom_site_label_2
_geom_bond_site_symmetry_1
_geom_bond_site_symmetry_2
C1 C2 1_555 1_555
C2 H1 1_555 1_555
C3 H2 1_555 1_555
C4 H3 1_555 1_555
C5 C2 1_555 1_555
C6 C9 1_555 1_555
C7 C4 1_555 1_555
C8 C3 1_555 1_555
C9 C8 1_555 1_555
C10 C6 1_555 1_555
H4 C10 1_555 1_555
C11 C6 1_555 1_555
H5 C11 1_555 1_555
H6 C11 1_555 1_555
H7 C11 1_555 1_555
C12 C1 1_555 1_555
C13 C5 1_555 1_555
H11 C13 1_555 1_555
H12 C13 1_555 1_555
H13 C13 1_555 1_555
C14 C3 1_555 1_555
C15 C1 1_555 1_555
H17 C15 1_555 1_555
H18 C15 1_555 1_555
H19 C15 1_555 1_555
C16 C14 1_555 1_555
H23 C16 1_555 1_555
H24 C16 1_555 1_555
H25 C16 1_555 1_555
C17 C7 1_555 1_555
H29 C17 1_555 1_555
H30 C17 1_555 1_555
H31 C17 1_555 1_555
C18 C8 1_555 1_555
H32 C18 1_555 1_555
H33 C18 1_555 1_555
H34 C18 1_555 1_555
B1 C9 1_555 1_555
H35 B1 1_555 1_555
H36 B1 1_555 1_555
B1C H35 1_555 1_555
C9C B1C 1_555 1_555
C6C C9C 1_555 1_555
C10C C6C 1_555 1_555
H4C C10C 1_555 1_555
C14C C10C 1_555 1_555
C3C C14C 1_555 1_555
H2C C3C 1_555 1_555
C8C C9C 1_555 1_555
C18C C8C 1_555 1_555
H32C C18C 1_555 1_555
H33C C18C 1_555 1_555
H34C C18C 1_555 1_555
C16C C14C 1_555 1_555
H23C C16C 1_555 1_555
H24C C16C 1_555 1_555
H25C C16C 1_555 1_555
C11C C6C 1_555 1_555
H5C C11C 1_555 1_555
H6C C11C 1_555 1_555
H7C C11C 1_555 1_555
C12C B1C 1_555 1_555
C1C C12C 1_555 1_555
C2C C1C 1_555 1_555
H1C C2C 1_555 1_555
C5C C2C 1_555 1_555
C4C C5C 1_555 1_555
H3C C4C 1_555 1_555
C7C C12C 1_555 1_555
C17C C7C 1_555 1_555
H29C C17C 1_555 1_555
H30C C17C 1_555 1_555
H31C C17C 1_555 1_555
C13C C5C 1_555 1_555
H11C C13C 1_555 1_555
H12C C13C 1_555 1_555
H13C C13C 1_555 1_555
C15C C1C 1_555 1_555
H17C C15C 1_555 1_555
H18C C15C 1_555 1_555
H19C C15C 1_555 1_555
C4 C5 1_555 1_555
C7 C12 1_555 1_555
C10 C14 1_555 1_555
C12 B1 1_555 1_555
H36 B1C 1_555 1_555
C3C C8C 1_555 1_555
C4C C7C 1_555 1_555

#END
