
#######################################################################
#
#                 Cambridge Crystallographic Data Centre
#                                CCDC 
#
#######################################################################
#
# If this CIF has been generated from an entry in the Cambridge 
# Structural Database, then it will include bibliographic, chemical, 
# crystal, experimental, refinement or atomic coordinate data resulting 
# from the CCDC's data processing and validation procedures.
#
#######################################################################

data_JEBMUZ
_chemical_formula_moiety         'C48 H42'
_chemical_name_systematic        
anti-1,2-bis(5-(10-t-butyl-11H-benzo(b)fluorenyl))benzene
_symmetry_cell_setting           triclinic
_symmetry_space_group_name_H-M   'P -1'
_symmetry_Int_Tables_number      2
_space_group_name_Hall           '-P 1'
loop_
_symmetry_equiv_pos_site_id
_symmetry_equiv_pos_as_xyz
1 x,y,z
2 -x,-y,-z
_cell_length_a                   10.2893(13)
_cell_length_b                   10.7583(14)
_cell_length_c                   16.789(2)
_cell_angle_alpha                74.830(2)
_cell_angle_beta                 88.688(3)
_cell_angle_gamma                74.319(3)
_cell_volume                     1724.66
_cell_formula_units_Z            2
_exptl_crystal_recrystallization_method dichloromethane/hexanes
loop_
_atom_site_label
_atom_site_type_symbol
_atom_site_fract_x
_atom_site_fract_y
_atom_site_fract_z
C1 C 0.5061(2) 0.3440(3) 0.30540(16)
C2 C 0.4235(3) 0.4578(3) 0.3241(2)
H1 H 0.3906 0.5352 0.2816
C3 C 0.3893(3) 0.4584(4) 0.4035(2)
H2 H 0.3349 0.5359 0.4144
C4 C 0.4354(3) 0.3451(4) 0.4666(2)
H3 H 0.4101 0.3438 0.5202
C5 C 0.5193(3) 0.2333(3) 0.44969(19)
H4 H 0.5507 0.1565 0.4928
C6 C 0.5589(3) 0.2308(3) 0.37071(17)
C7 C 0.5348(3) 0.3395(3) 0.21858(16)
C8 C 0.6441(3) 0.3840(3) 0.17755(17)
C9 C 0.7117(3) 0.4576(3) 0.2131(2)
H5 H 0.6948 0.4629 0.2669
C10 C 0.8004(3) 0.5206(3) 0.1702(2)
H6 H 0.8448 0.5666 0.1949
C11 C 0.8240(3) 0.5155(3) 0.0891(2)
H7 H 0.8796 0.5633 0.0582
C12 C 0.7661(3) 0.4406(3) 0.05462(19)
H8 H 0.7849 0.4376 0.0006
C13 C 0.6786(3) 0.3671(3) 0.09730(18)
C14 C 0.6193(3) 0.2850(3) 0.06258(16)
C15 C 0.5038(3) 0.2602(3) 0.09750(17)
C16 C 0.4028(3) 0.1986(3) 0.06950(19)
H9 H 0.3735 0.2414 0.0120
H10 H 0.4418 0.1035 0.0762
C17 C 0.2880(3) 0.2226(3) 0.12405(19)
C18 C 0.1637(3) 0.1983(3) 0.1198(2)
H11 H 0.1429 0.1606 0.0795
C19 C 0.0708(3) 0.2314(3) 0.1768(2)
H12 H -0.0134 0.2157 0.1747
C20 C 0.1008(3) 0.2872(3) 0.2366(2)
H13 H 0.0359 0.3107 0.2734
C21 C 0.2262(3) 0.3087(3) 0.24251(19)
H14 H 0.2468 0.3448 0.2836
C22 C 0.3206(3) 0.2754(3) 0.18613(18)
C23 C 0.4569(3) 0.2952(3) 0.17280(17)
C24 C 0.6852(3) 0.2300(3) -0.01002(18)
C25 C 0.6463(3) 0.1073(3) -0.0179(2)
H15 H 0.7019 0.0691 -0.0569
H16 H 0.5531 0.1325 -0.0367
H17 H 0.6594 0.0425 0.0349
C26 C 0.6443(3) 0.3377(4) -0.09252(19)
H18 H 0.6830 0.3014 -0.1369
H19 H 0.6767 0.4131 -0.0917
H20 H 0.5476 0.3659 -0.1005
C27 C 0.8409(3) 0.1808(3) 0.00449(19)
H21 H 0.8637 0.1255 0.0600
H22 H 0.8768 0.2566 -0.0037
H23 H 0.8787 0.1300 -0.0338
C28 C 0.6618(3) 0.1117(3) 0.35569(16)
C29 C 0.7984(3) 0.0960(3) 0.36787(16)
C30 C 0.8663(3) 0.1761(3) 0.40190(17)
C31 C 0.8184(3) 0.2936(3) 0.42660(17)
H24 H 0.7264 0.3368 0.4223
C32 C 0.9099(4) 0.3452(3) 0.45776(19)
H25 H 0.8786 0.4240 0.4739
C33 C 1.0476(4) 0.2813(4) 0.4652(2)
H26 H 1.1074 0.3173 0.4863
C34 C 1.0957(3) 0.1646(3) 0.44148(19)
H27 H 1.1876 0.1210 0.4471
C35 C 1.0057(3) 0.1126(3) 0.40903(18)
C36 C 1.0361(3) -0.0043(3) 0.37354(18)
H28 H 1.0824 -0.0856 0.4146
H29 H 1.0923 0.0089 0.3266
C37 C 0.8978(2) -0.0123(3) 0.34673(17)
C38 C 0.8641(3) -0.1013(3) 0.31135(17)
C39 C 0.7219(3) -0.0944(3) 0.30664(17)
C40 C 0.6701(3) -0.1879(3) 0.2818(2)
H30 H 0.7305 -0.2574 0.2658
C41 C 0.5361(4) -0.1817(4) 0.2801(2)
H31 H 0.5077 -0.2461 0.2630
C42 C 0.4425(3) -0.0813(4) 0.3033(2)
H32 H 0.3513 -0.0781 0.3023
C43 C 0.4839(3) 0.0140(3) 0.32787(18)
H33 H 0.4205 0.0821 0.3434
C44 C 0.6236(3) 0.0098(3) 0.32993(17)
C45 C 0.9668(3) -0.2058(3) 0.2763(2)
C46 C 0.9275(3) -0.1826(3) 0.18404(19)
H34 H 0.9385 -0.0978 0.1529
H35 H 0.8349 -0.1828 0.1785
H36 H 0.9846 -0.2528 0.1635
C47 C 0.9778(3) -0.3508(3) 0.3271(2)
H37 H 1.0304 -0.4124 0.2986
H38 H 0.8890 -0.3636 0.3339
H39 H 1.0208 -0.3667 0.3804
C48 C 1.1140(3) -0.1944(4) 0.2753(3)
H40 H 1.1153 -0.1060 0.2445
H41 H 1.1696 -0.2590 0.2499
H42 H 1.1482 -0.2111 0.3310
loop_
_geom_bond_atom_site_label_1
_geom_bond_atom_site_label_2
_geom_bond_site_symmetry_1
_geom_bond_site_symmetry_2
C1 C2 1_555 1_555
C2 H1 1_555 1_555
C3 C2 1_555 1_555
H2 C3 1_555 1_555
C4 C3 1_555 1_555
H3 C4 1_555 1_555
C5 C4 1_555 1_555
H4 C5 1_555 1_555
C6 C1 1_555 1_555
C7 C1 1_555 1_555
C8 C7 1_555 1_555
C9 C8 1_555 1_555
H5 C9 1_555 1_555
C10 C9 1_555 1_555
H6 C10 1_555 1_555
C11 C10 1_555 1_555
H7 C11 1_555 1_555
C12 C11 1_555 1_555
H8 C12 1_555 1_555
C13 C8 1_555 1_555
C14 C13 1_555 1_555
C15 C14 1_555 1_555
C16 C15 1_555 1_555
H9 C16 1_555 1_555
H10 C16 1_555 1_555
C17 C16 1_555 1_555
C18 C17 1_555 1_555
H11 C18 1_555 1_555
C19 C18 1_555 1_555
H12 C19 1_555 1_555
C20 C19 1_555 1_555
H13 C20 1_555 1_555
C21 C20 1_555 1_555
H14 C21 1_555 1_555
C22 C17 1_555 1_555
C23 C7 1_555 1_555
C24 C14 1_555 1_555
C25 C24 1_555 1_555
H15 C25 1_555 1_555
H16 C25 1_555 1_555
H17 C25 1_555 1_555
C26 C24 1_555 1_555
H18 C26 1_555 1_555
H19 C26 1_555 1_555
H20 C26 1_555 1_555
C27 C24 1_555 1_555
H21 C27 1_555 1_555
H22 C27 1_555 1_555
H23 C27 1_555 1_555
C28 C6 1_555 1_555
C29 C28 1_555 1_555
C30 C29 1_555 1_555
C31 C30 1_555 1_555
H24 C31 1_555 1_555
C32 C31 1_555 1_555
H25 C32 1_555 1_555
C33 C32 1_555 1_555
H26 C33 1_555 1_555
C34 C33 1_555 1_555
H27 C34 1_555 1_555
C35 C30 1_555 1_555
C36 C35 1_555 1_555
H28 C36 1_555 1_555
H29 C36 1_555 1_555
C37 C29 1_555 1_555
C38 C37 1_555 1_555
C39 C38 1_555 1_555
C40 C39 1_555 1_555
H30 C40 1_555 1_555
C41 C40 1_555 1_555
H31 C41 1_555 1_555
C42 C41 1_555 1_555
H32 C42 1_555 1_555
C43 C42 1_555 1_555
H33 C43 1_555 1_555
C44 C28 1_555 1_555
C45 C38 1_555 1_555
C46 C45 1_555 1_555
H34 C46 1_555 1_555
H35 C46 1_555 1_555
H36 C46 1_555 1_555
C47 C45 1_555 1_555
H37 C47 1_555 1_555
H38 C47 1_555 1_555
H39 C47 1_555 1_555
C48 C45 1_555 1_555
H40 C48 1_555 1_555
H41 C48 1_555 1_555
H42 C48 1_555 1_555
C5 C6 1_555 1_555
C12 C13 1_555 1_555
C15 C23 1_555 1_555
C21 C22 1_555 1_555
C22 C23 1_555 1_555
C34 C35 1_555 1_555
C36 C37 1_555 1_555
C39 C44 1_555 1_555
C43 C44 1_555 1_555

#END
