
#######################################################################
#
#                 Cambridge Crystallographic Data Centre
#                                CCDC 
#
#######################################################################
#
# If this CIF has been generated from an entry in the Cambridge 
# Structural Database, then it will include bibliographic, chemical, 
# crystal, experimental, refinement or atomic coordinate data resulting 
# from the CCDC's data processing and validation procedures.
#
#######################################################################

data_JEBNEK
_chemical_formula_moiety         'C52 H30 O2'
_chemical_name_systematic        
anti-1,2-bis(5-(10-phenyl-11-oxo-benzo(b)fluorenyl))benzene
_symmetry_cell_setting           monoclinic
_symmetry_space_group_name_H-M   'C 2/c'
_symmetry_Int_Tables_number      15
_space_group_name_Hall           '-C 2yn'
loop_
_symmetry_equiv_pos_site_id
_symmetry_equiv_pos_as_xyz
1 x,y,z
2 1/2+x,1/2+y,z
3 -x,y,1/2-z
4 1/2-x,1/2+y,1/2-z
5 -x,-y,-z
6 1/2-x,1/2-y,-z
7 x,-y,1/2+z
8 1/2+x,1/2-y,1/2+z
_cell_length_a                   30.928(3)
_cell_length_b                   11.2640(12)
_cell_length_c                   22.028(2)
_cell_angle_alpha                90
_cell_angle_beta                 115.950(2)
_cell_angle_gamma                90
_cell_volume                     6900.24
_cell_formula_units_Z            8
_exptl_crystal_recrystallization_method dichloromethane/ethanol
loop_
_atom_site_label
_atom_site_type_symbol
_atom_site_fract_x
_atom_site_fract_y
_atom_site_fract_z
O1 O 0.21181(5) 0.82306(16) 0.33628(8)
O2 O 0.54146(6) 0.79174(17) 0.50677(9)
C1 C 0.36304(7) 0.54248(19) 0.56559(10)
C2 C 0.34832(8) 0.4893(2) 0.61033(11)
H1 H 0.3272 0.5295 0.6228
C3 C 0.36453(8) 0.3779(2) 0.63655(12)
H2 H 0.3544 0.3440 0.6666
C4 C 0.39552(9) 0.3170(2) 0.61839(13)
H3 H 0.4055 0.2407 0.6348
C5 C 0.41178(8) 0.3697(2) 0.57563(12)
H4 H 0.4334 0.3288 0.5644
C6 C 0.39664(7) 0.4820(2) 0.54911(10)
C7 C 0.34283(7) 0.65815(19) 0.53161(10)
C8 C 0.29841(7) 0.66687(19) 0.47721(10)
C9 C 0.25891(7) 0.5785(2) 0.44551(10)
C10 C 0.25403(8) 0.4612(2) 0.45964(12)
H5 H 0.2788 0.4226 0.4952
C11 C 0.21152(8) 0.4016(2) 0.41985(12)
H6 H 0.2082 0.3224 0.4289
C12 C 0.17419(8) 0.4579(3) 0.36709(13)
H7 H 0.1459 0.4168 0.3417
C13 C 0.17875(7) 0.5745(2) 0.35191(12)
H8 H 0.1538 0.6129 0.3164
C14 C 0.22109(7) 0.6328(2) 0.39054(11)
C15 C 0.23543(7) 0.7544(2) 0.38123(11)
C16 C 0.28458(7) 0.7732(2) 0.43777(10)
C17 C 0.31407(7) 0.8689(2) 0.44982(11)
C18 C 0.35898(7) 0.8670(2) 0.51062(11)
C19 C 0.39088(8) 0.9653(2) 0.52961(12)
H9 H 0.3832 1.0320 0.5020
C20 C 0.43251(8) 0.9633(2) 0.58768(13)
H10 H 0.4531 1.0283 0.5995
C21 C 0.44422(8) 0.8637(2) 0.62951(13)
H11 H 0.4722 0.8637 0.6698
C22 C 0.41513(7) 0.7666(2) 0.61205(11)
H12 H 0.4238 0.7008 0.6404
C23 C 0.37202(7) 0.7638(2) 0.55151(10)
C24 C 0.41503(7) 0.54101(19) 0.50417(11)
C25 C 0.45880(7) 0.5971(2) 0.52817(10)
C26 C 0.49979(7) 0.6014(2) 0.59701(11)
C27 C 0.50724(8) 0.5502(2) 0.65784(12)
H13 H 0.4836 0.5037 0.6613
C28 C 0.55099(9) 0.5697(2) 0.71393(13)
H14 H 0.5560 0.5364 0.7551
C29 C 0.58707(9) 0.6370(2) 0.71035(13)
H15 H 0.6161 0.6470 0.7485
C30 C 0.57993(8) 0.6893(2) 0.65005(13)
H16 H 0.6039 0.7350 0.6469
C31 C 0.53611(7) 0.6723(2) 0.59418(12)
C32 C 0.51949(7) 0.7229(2) 0.52585(12)
C33 C 0.47054(7) 0.6720(2) 0.48497(11)
C34 C 0.43943(7) 0.6931(2) 0.41894(11)
C35 C 0.39555(7) 0.6243(2) 0.39043(11)
C36 C 0.36304(7) 0.6312(2) 0.32119(11)
H17 H 0.3692 0.6838 0.2934
C37 C 0.32284(8) 0.5623(2) 0.29450(12)
H18 H 0.3021 0.5675 0.2487
C38 C 0.31265(8) 0.4843(2) 0.33522(12)
H19 H 0.2854 0.4366 0.3165
C39 C 0.34241(7) 0.4771(2) 0.40264(12)
H20 H 0.3348 0.4254 0.4295
C40 C 0.38450(7) 0.54679(19) 0.43245(11)
C41 C 0.30419(7) 0.9684(2) 0.40083(11)
C42 C 0.28949(10) 1.0796(2) 0.40989(13)
H21 H 0.2828 1.0935 0.4465
C43 C 0.28457(11) 1.1707(3) 0.36549(15)
H22 H 0.2745 1.2452 0.3724
C44 C 0.29436(10) 1.1522(3) 0.31144(15)
H23 H 0.2916 1.2139 0.2819
C45 C 0.30826(10) 1.0417(3) 0.30148(14)
H24 H 0.3148 1.0282 0.2646
C46 C 0.31283(9) 0.9492(3) 0.34542(13)
H25 H 0.3217 0.8741 0.3374
C47 C 0.44652(7) 0.7894(2) 0.37830(11)
C48 C 0.44039(9) 0.9051(3) 0.39379(16)
H26 H 0.4361 0.9202 0.4323
C49 C 0.44043(11) 0.9976(3) 0.3539(2)
H27 H 0.4368 1.0747 0.3661
C50 C 0.44560(12) 0.9789(4) 0.2971(2)
H28 H 0.4438 1.0423 0.2690
C51 C 0.45364(11) 0.8658(4) 0.28074(15)
H29 H 0.4587 0.8531 0.2427
C52 C 0.45413(9) 0.7690(3) 0.32181(13)
H30 H 0.4595 0.6924 0.3110
loop_
_geom_bond_atom_site_label_1
_geom_bond_atom_site_label_2
_geom_bond_site_symmetry_1
_geom_bond_site_symmetry_2
O1 C15 1_555 1_555
O2 C32 1_555 1_555
C1 C2 1_555 1_555
C2 H1 1_555 1_555
C3 C2 1_555 1_555
H2 C3 1_555 1_555
C4 C3 1_555 1_555
H3 C4 1_555 1_555
C5 C4 1_555 1_555
H4 C5 1_555 1_555
C6 C1 1_555 1_555
C7 C1 1_555 1_555
C8 C7 1_555 1_555
C9 C8 1_555 1_555
C10 C9 1_555 1_555
H5 C10 1_555 1_555
C11 C10 1_555 1_555
H6 C11 1_555 1_555
C12 C11 1_555 1_555
H7 C12 1_555 1_555
C13 C12 1_555 1_555
H8 C13 1_555 1_555
C14 C9 1_555 1_555
C15 C14 1_555 1_555
C16 C8 1_555 1_555
C17 C16 1_555 1_555
C18 C17 1_555 1_555
C19 C18 1_555 1_555
H9 C19 1_555 1_555
C20 C19 1_555 1_555
H10 C20 1_555 1_555
C21 C20 1_555 1_555
H11 C21 1_555 1_555
C22 C21 1_555 1_555
H12 C22 1_555 1_555
C23 C7 1_555 1_555
C24 C6 1_555 1_555
C25 C24 1_555 1_555
C26 C25 1_555 1_555
C27 C26 1_555 1_555
H13 C27 1_555 1_555
C28 C27 1_555 1_555
H14 C28 1_555 1_555
C29 C28 1_555 1_555
H15 C29 1_555 1_555
C30 C29 1_555 1_555
H16 C30 1_555 1_555
C31 C26 1_555 1_555
C32 C31 1_555 1_555
C33 C25 1_555 1_555
C34 C33 1_555 1_555
C35 C34 1_555 1_555
C36 C35 1_555 1_555
H17 C36 1_555 1_555
C37 C36 1_555 1_555
H18 C37 1_555 1_555
C38 C37 1_555 1_555
H19 C38 1_555 1_555
C39 C38 1_555 1_555
H20 C39 1_555 1_555
C40 C24 1_555 1_555
C41 C17 1_555 1_555
C42 C41 1_555 1_555
H21 C42 1_555 1_555
C43 C42 1_555 1_555
H22 C43 1_555 1_555
C44 C43 1_555 1_555
H23 C44 1_555 1_555
C45 C44 1_555 1_555
H24 C45 1_555 1_555
C46 C41 1_555 1_555
H25 C46 1_555 1_555
C47 C34 1_555 1_555
C48 C47 1_555 1_555
H26 C48 1_555 1_555
C49 C48 1_555 1_555
H27 C49 1_555 1_555
C50 C49 1_555 1_555
H28 C50 1_555 1_555
C51 C50 1_555 1_555
H29 C51 1_555 1_555
C52 C47 1_555 1_555
H30 C52 1_555 1_555
C5 C6 1_555 1_555
C13 C14 1_555 1_555
C15 C16 1_555 1_555
C18 C23 1_555 1_555
C22 C23 1_555 1_555
C30 C31 1_555 1_555
C32 C33 1_555 1_555
C35 C40 1_555 1_555
C39 C40 1_555 1_555
C45 C46 1_555 1_555
C51 C52 1_555 1_555

#END
