
#######################################################################
#
#                 Cambridge Crystallographic Data Centre
#                                CCDC 
#
#######################################################################
#
# If this CIF has been generated from an entry in the Cambridge 
# Structural Database, then it will include bibliographic, chemical, 
# crystal, experimental, refinement or atomic coordinate data resulting 
# from the CCDC's data processing and validation procedures.
#
#######################################################################

data_JEBNIO
_chemical_formula_moiety         'C52 H30 O2,C1 H2 Cl2'
_chemical_name_systematic        
'syn-1,2-bis(5-(10-phenyl-11-oxo-benzo(b)fluorenyl))benzene dichloromethane solvate'
_symmetry_cell_setting           monoclinic
_symmetry_space_group_name_H-M   'P 21/c'
_symmetry_Int_Tables_number      14
_space_group_name_Hall           '-P 2ybc'
loop_
_symmetry_equiv_pos_site_id
_symmetry_equiv_pos_as_xyz
1 x,y,z
2 -x,1/2+y,1/2-z
3 -x,-y,-z
4 x,1/2-y,1/2+z
_cell_length_a                   17.0379(12)
_cell_length_b                   11.7439(8)
_cell_length_c                   19.5142(13)
_cell_angle_alpha                90
_cell_angle_beta                 96.6260(10)
_cell_angle_gamma                90
_cell_volume                     3878.54
_cell_formula_units_Z            4
_exptl_crystal_recrystallization_method dichloromethane/ethanol
loop_
_atom_site_label
_atom_site_type_symbol
_atom_site_fract_x
_atom_site_fract_y
_atom_site_fract_z
O1 O 0.03700(12) 0.99738(17) 0.18456(8)
O2 O 0.31144(13) 0.7465(2) 0.23320(9)
C1 C 0.12660(14) 0.7733(2) -0.07572(10)
C2 C 0.06747(16) 0.7645(2) -0.13076(11)
H1 H 0.0295 0.8215 -0.1379
C3 C 0.06408(16) 0.6723(3) -0.17519(12)
H2 H 0.0246 0.6684 -0.2123
C4 C 0.11895(17) 0.5866(3) -0.16458(12)
H3 H 0.1158 0.5233 -0.1935
C5 C 0.17873(16) 0.5948(2) -0.11084(11)
H4 H 0.2162 0.5370 -0.1043
C6 C 0.18437(14) 0.6873(2) -0.06628(10)
C7 C 0.13035(14) 0.8714(2) -0.02583(11)
C8 C 0.08143(15) 0.8809(2) 0.02541(11)
C9 C 0.00945(15) 0.8177(2) 0.03882(11)
C10 C -0.03604(16) 0.7345(3) 0.00228(13)
H5 H -0.0222 0.7071 -0.0394
C11 C -0.10236(17) 0.6932(3) 0.02900(15)
H6 H -0.1327 0.6375 0.0046
C12 C -0.12508(18) 0.7318(3) 0.09079(15)
H7 H -0.1699 0.7022 0.1074
C13 C -0.08056(17) 0.8148(3) 0.12771(14)
H8 H -0.0950 0.8420 0.1692
C14 C -0.01439(16) 0.8562(2) 0.10159(12)
C15 C 0.04049(16) 0.9455(2) 0.13091(12)
C16 C 0.10038(15) 0.9595(2) 0.08092(11)
C17 C 0.16486(16) 1.0300(2) 0.08589(12)
C18 C 0.21084(15) 1.0317(2) 0.02858(12)
C19 C 0.27367(17) 1.1083(3) 0.02555(14)
H9 H 0.2873 1.1575 0.0624
C20 C 0.31513(17) 1.1123(3) -0.03002(15)
H10 H 0.3560 1.1645 -0.0310
C21 C 0.29657(18) 1.0388(3) -0.08531(14)
H11 H 0.3251 1.0417 -0.1231
C22 C 0.23672(16) 0.9624(2) -0.08407(12)
H12 H 0.2246 0.9142 -0.1216
C23 C 0.19249(15) 0.9543(2) -0.02738(11)
C24 C 0.25315(14) 0.7020(2) -0.01157(11)
C25 C 0.24601(14) 0.6921(2) 0.05735(11)
C26 C 0.18113(15) 0.6451(2) 0.09373(11)
C27 C 0.11290(16) 0.5872(2) 0.07000(13)
H13 H 0.1003 0.5728 0.0232
C28 C 0.06334(18) 0.5508(3) 0.11742(14)
H14 H 0.0174 0.5113 0.1019
C29 C 0.08085(19) 0.5722(3) 0.18734(15)
H15 H 0.0462 0.5489 0.2181
C30 C 0.15004(19) 0.6284(3) 0.21135(13)
H16 H 0.1627 0.6427 0.2582
C31 C 0.19979(16) 0.6627(2) 0.16449(12)
C32 C 0.27784(17) 0.7185(3) 0.17786(12)
C33 C 0.30703(15) 0.7314(2) 0.10816(11)
C34 C 0.37553(15) 0.7775(2) 0.09186(12)
C35 C 0.38892(15) 0.7779(2) 0.02049(12)
C36 C 0.46028(17) 0.8174(3) -0.00034(14)
H17 H 0.4991 0.8460 0.0326
C37 C 0.47396(18) 0.8146(3) -0.06819(14)
H18 H 0.5218 0.8404 -0.0808
C38 C 0.41617(18) 0.7731(3) -0.11806(14)
H19 H 0.4262 0.7694 -0.1639
C39 C 0.34485(17) 0.7379(3) -0.10037(12)
H20 H 0.3062 0.7128 -0.1346
C40 C 0.32860(15) 0.7387(2) -0.03085(11)
C41 C 0.19030(16) 1.0982(3) 0.14921(12)
C42 C 0.2342(2) 1.0484(3) 0.20374(14)
H21 H 0.2456 0.9711 0.2019
C43 C 0.2623(2) 1.1099(4) 0.26170(16)
H22 H 0.2927 1.0745 0.2983
C44 C 0.2449(2) 1.2235(4) 0.26494(18)
H23 H 0.2636 1.2655 0.3038
C45 C 0.2008(2) 1.2745(4) 0.2119(2)
H24 H 0.1887 1.3515 0.2145
C46 C 0.1735(2) 1.2131(3) 0.15346(17)
H25 H 0.1437 1.2493 0.1168
C47 C 0.43592(16) 0.8276(3) 0.14483(12)
C48 C 0.4950(2) 0.7634(4) 0.17978(17)
H26 H 0.4985 0.6861 0.1704
C49 C 0.5493(2) 0.8135(6) 0.2290(2)
H27 H 0.5885 0.7691 0.2529
C50 C 0.5460(3) 0.9256(6) 0.2426(2)
H28 H 0.5833 0.9587 0.2751
C51 C 0.4884(4) 0.9899(4) 0.2087(2)
H29 H 0.4859 1.0674 0.2180
C52 C 0.4331(3) 0.9407(4) 0.16048(19)
H30 H 0.3931 0.9856 0.1381
C53 C 0.4017(3) 0.4540(4) 0.0391(3)
H31 H 0.4503 0.4194 0.0601
H32 H 0.4062 0.5356 0.0462
Cl1 Cl 0.32384(9) 0.40376(12) 0.08022(7)
Cl2 Cl 0.39092(10) 0.42580(13) -0.04980(7)
loop_
_geom_bond_atom_site_label_1
_geom_bond_atom_site_label_2
_geom_bond_site_symmetry_1
_geom_bond_site_symmetry_2
O1 C15 1_555 1_555
O2 C32 1_555 1_555
C1 C2 1_555 1_555
C2 H1 1_555 1_555
C3 C2 1_555 1_555
H2 C3 1_555 1_555
C4 C3 1_555 1_555
H3 C4 1_555 1_555
C5 C4 1_555 1_555
H4 C5 1_555 1_555
C6 C1 1_555 1_555
C7 C1 1_555 1_555
C8 C7 1_555 1_555
C9 C8 1_555 1_555
C10 C9 1_555 1_555
H5 C10 1_555 1_555
C11 C10 1_555 1_555
H6 C11 1_555 1_555
C12 C11 1_555 1_555
H7 C12 1_555 1_555
C13 C12 1_555 1_555
H8 C13 1_555 1_555
C14 C9 1_555 1_555
C15 C14 1_555 1_555
C16 C8 1_555 1_555
C17 C16 1_555 1_555
C18 C17 1_555 1_555
C19 C18 1_555 1_555
H9 C19 1_555 1_555
C20 C19 1_555 1_555
H10 C20 1_555 1_555
C21 C20 1_555 1_555
H11 C21 1_555 1_555
C22 C21 1_555 1_555
H12 C22 1_555 1_555
C23 C7 1_555 1_555
C24 C6 1_555 1_555
C25 C24 1_555 1_555
C26 C25 1_555 1_555
C27 C26 1_555 1_555
H13 C27 1_555 1_555
C28 C27 1_555 1_555
H14 C28 1_555 1_555
C29 C28 1_555 1_555
H15 C29 1_555 1_555
C30 C29 1_555 1_555
H16 C30 1_555 1_555
C31 C26 1_555 1_555
C32 C31 1_555 1_555
C33 C25 1_555 1_555
C34 C33 1_555 1_555
C35 C34 1_555 1_555
C36 C35 1_555 1_555
H17 C36 1_555 1_555
C37 C36 1_555 1_555
H18 C37 1_555 1_555
C38 C37 1_555 1_555
H19 C38 1_555 1_555
C39 C38 1_555 1_555
H20 C39 1_555 1_555
C40 C24 1_555 1_555
C41 C17 1_555 1_555
C42 C41 1_555 1_555
H21 C42 1_555 1_555
C43 C42 1_555 1_555
H22 C43 1_555 1_555
C44 C43 1_555 1_555
H23 C44 1_555 1_555
C45 C44 1_555 1_555
H24 C45 1_555 1_555
C46 C41 1_555 1_555
H25 C46 1_555 1_555
C47 C34 1_555 1_555
C48 C47 1_555 1_555
H26 C48 1_555 1_555
C49 C48 1_555 1_555
H27 C49 1_555 1_555
C50 C49 1_555 1_555
H28 C50 1_555 1_555
C51 C50 1_555 1_555
H29 C51 1_555 1_555
C52 C47 1_555 1_555
H30 C52 1_555 1_555
C53 H31 1_555 1_555
H32 C53 1_555 1_555
Cl1 C53 1_555 1_555
Cl2 C53 1_555 1_555
C5 C6 1_555 1_555
C13 C14 1_555 1_555
C15 C16 1_555 1_555
C18 C23 1_555 1_555
C22 C23 1_555 1_555
C30 C31 1_555 1_555
C32 C33 1_555 1_555
C35 C40 1_555 1_555
C39 C40 1_555 1_555
C45 C46 1_555 1_555
C51 C52 1_555 1_555

#END
