
#######################################################################
#
#                 Cambridge Crystallographic Data Centre
#                                CCDC 
#
#######################################################################
#
# If this CIF has been generated from an entry in the Cambridge 
# Structural Database, then it will include bibliographic, chemical, 
# crystal, experimental, refinement or atomic coordinate data resulting 
# from the CCDC's data processing and validation procedures.
#
#######################################################################

data_JEBPEM
_chemical_formula_moiety         'C27 H17 N3 O4 S5,2(C1 H1 Cl3)'
_chemical_name_systematic        
'5-((1-thiazole)azo)-25,26,27,28-tetrahydroxy-2,8,14,20-tetrathiacalix(4)arene chloroform solvate'
_symmetry_cell_setting           monoclinic
_symmetry_space_group_name_H-M   'P 21/n'
_symmetry_Int_Tables_number      14
_space_group_name_Hall           '-P 2yn'
loop_
_symmetry_equiv_pos_site_id
_symmetry_equiv_pos_as_xyz
1 x,y,z
2 1/2-x,1/2+y,1/2-z
3 -x,-y,-z
4 1/2+x,1/2-y,1/2+z
_cell_length_a                   10.9745(7)
_cell_length_b                   22.1150(14)
_cell_length_c                   14.8313(9)
_cell_angle_alpha                90
_cell_angle_beta                 90.9580(10)
_cell_angle_gamma                90
_cell_volume                     3599.07
_exptl_crystal_colour            red
_exptl_crystal_description       block
_chemical_melting_point          'above 250 deg.C'
_cell_formula_units_Z            4
_exptl_crystal_recrystallization_method chloroform
loop_
_atom_site_label
_atom_site_type_symbol
_atom_site_fract_x
_atom_site_fract_y
_atom_site_fract_z
C28 C 0.3697(5) 0.9611(2) 0.7286(3)
H18 H 0.4523 0.9730 0.7474
Cl1 Cl 0.36407(19) 0.88326(6) 0.71919(10)
Cl2 Cl 0.26752(19) 0.98682(8) 0.80806(12)
Cl3 Cl 0.3361(2) 0.99345(8) 0.62354(12)
C29 C 0.1700(12) 0.0565(7) 0.3478(10)
Cl4 Cl 0.2583(8) 0.0995(2) 0.2858(4)
Cl5 Cl 0.2033(13) 0.0118(3) 0.4247(6)
Cl6 Cl 0.0180(6) 0.0761(3) 0.3317(6)
S1 S 0.28632(8) 0.76126(5) -0.07038(6)
S2 S -0.11684(8) 0.77400(5) 0.14524(7)
S3 S 0.18080(9) 0.77049(5) 0.44867(6)
S4 S 0.58426(8) 0.76729(5) 0.23256(6)
S5 S 0.77106(11) 1.02845(6) -0.05709(8)
O1 O 0.1263(2) 0.73009(13) 0.08627(19)
H1 H 0.1987 0.7247 0.0762
O2 O 0.0774(3) 0.72645(12) 0.27349(19)
H2 H 0.0761 0.7231 0.2184
O3 O 0.3361(2) 0.73128(13) 0.29452(19)
H3 H 0.2653 0.7257 0.3093
O4 O 0.3810(2) 0.72323(12) 0.10986(18)
H4 H 0.3915 0.7197 0.1645
N1 N 0.6120(3) 0.92969(14) -0.01218(19)
N2 N 0.5741(3) 0.95231(15) -0.0845(2)
N3 N 0.7848(5) 1.0822(2) -0.1393(4)
C1 C 0.0838(3) 0.77722(16) 0.0356(2)
C2 C 0.1502(3) 0.79868(17) -0.0377(2)
C3 C 0.1055(4) 0.84681(19) -0.0870(3)
H5 H 0.1491 0.8610 -0.1359
C4 C -0.0030(4) 0.8743(2) -0.0651(3)
H6 H -0.0313 0.9073 -0.0982
C5 C -0.0693(4) 0.8525(2) 0.0063(3)
H7 H -0.1433 0.8704 0.0204
C6 C -0.0263(3) 0.80415(18) 0.0570(2)
C7 C 0.0334(3) 0.78133(17) 0.2967(2)
C8 C -0.0538(3) 0.81073(18) 0.2419(2)
C9 C -0.0963(4) 0.8666(2) 0.2678(3)
H8 H -0.1540 0.8862 0.2317
C10 C -0.0554(5) 0.8940(3) 0.3457(4)
H9 H -0.0843 0.9320 0.3616
C11 C 0.0291(4) 0.8644(2) 0.4001(3)
H10 H 0.0558 0.8825 0.4536
C12 C 0.0745(3) 0.80839(19) 0.3760(2)
C13 C 0.3835(3) 0.77815(17) 0.3422(2)
C14 C 0.3205(3) 0.80279(18) 0.4141(2)
C15 C 0.3717(4) 0.8499(2) 0.4626(3)
H11 H 0.3308 0.8660 0.5114
C16 C 0.4839(4) 0.8734(2) 0.4389(3)
H12 H 0.5170 0.9056 0.4714
C17 C 0.5463(4) 0.8495(2) 0.3678(3)
H13 H 0.6217 0.8652 0.3525
C18 C 0.4968(3) 0.80168(17) 0.3189(2)
C19 C 0.4350(3) 0.77446(16) 0.0813(2)
C20 C 0.5277(3) 0.80217(17) 0.1322(2)
C21 C 0.5813(3) 0.85384(16) 0.0992(2)
H14 H 0.6423 0.8727 0.1331
C22 C 0.5466(3) 0.87827(16) 0.0172(2)
C23 C 0.4543(3) 0.85042(16) -0.0338(2)
H15 H 0.4306 0.8666 -0.0893
C24 C 0.3984(3) 0.79910(16) -0.0022(2)
C25 C 0.6427(3) 1.00217(17) -0.1132(3)
C26 C 0.6136(3) 1.03162(16) -0.1851(2)
H16 H 0.5461 1.0229 -0.2215
C27 C 0.6922(5) 1.0763(2) -0.2010(3)
H17 H 0.6842 1.1016 -0.2508
Cl7? Cl 0.170(2) 0.0443(9) 0.4461(7)
Cl8? Cl 0.2911(12) 0.0943(6) 0.3334(14)
Cl9? Cl 0.0649(19) 0.0669(7) 0.2907(10)
loop_
_geom_bond_atom_site_label_1
_geom_bond_atom_site_label_2
_geom_bond_site_symmetry_1
_geom_bond_site_symmetry_2
S1 C2 1_555 1_555
S2 C6 1_555 1_555
S3 C12 1_555 1_555
S4 C18 1_555 1_555
S5 N3 1_555 1_555
O1 H1 1_555 1_555
O2 H2 1_555 1_555
O3 H3 1_555 1_555
O4 H4 1_555 1_555
N1 N2 1_555 1_555
N2 C25 1_555 1_555
N3 C27 1_555 1_555
C1 O1 1_555 1_555
C2 C1 1_555 1_555
C3 C2 1_555 1_555
H5 C3 1_555 1_555
C4 C3 1_555 1_555
H6 C4 1_555 1_555
C5 C4 1_555 1_555
H7 C5 1_555 1_555
C6 C1 1_555 1_555
C7 O2 1_555 1_555
C8 S2 1_555 1_555
C9 C8 1_555 1_555
H8 C9 1_555 1_555
C10 C9 1_555 1_555
H9 C10 1_555 1_555
C11 C10 1_555 1_555
H10 C11 1_555 1_555
C12 C7 1_555 1_555
C13 O3 1_555 1_555
C14 S3 1_555 1_555
C15 C14 1_555 1_555
H11 C15 1_555 1_555
C16 C15 1_555 1_555
H12 C16 1_555 1_555
C17 C16 1_555 1_555
H13 C17 1_555 1_555
C18 C13 1_555 1_555
C19 O4 1_555 1_555
C20 S4 1_555 1_555
C21 C20 1_555 1_555
H14 C21 1_555 1_555
C22 N1 1_555 1_555
C23 C22 1_555 1_555
H15 C23 1_555 1_555
C24 S1 1_555 1_555
C25 S5 1_555 1_555
C26 C25 1_555 1_555
H16 C26 1_555 1_555
C27 C26 1_555 1_555
H17 C27 1_555 1_555
C28 H18 1_555 1_555
Cl1 C28 1_555 1_555
Cl2 C28 1_555 1_555
Cl3 C28 1_555 1_555
C29 Cl4 1_555 1_555
Cl5 C29 1_555 1_555
Cl6 C29 1_555 1_555
C5 C6 1_555 1_555
C7 C8 1_555 1_555
C11 C12 1_555 1_555
C13 C14 1_555 1_555
C17 C18 1_555 1_555
C19 C20 1_555 1_555
C19 C24 1_555 1_555
C21 C22 1_555 1_555
C23 C24 1_555 1_555

#END
