
#######################################################################
#
#                 Cambridge Crystallographic Data Centre
#                                CCDC 
#
#######################################################################
#
# If this CIF has been generated from an entry in the Cambridge 
# Structural Database, then it will include bibliographic, chemical, 
# crystal, experimental, refinement or atomic coordinate data resulting 
# from the CCDC's data processing and validation procedures.
#
#######################################################################

data_JEBQOW
_chemical_formula_moiety         'C16 H19 N5 O2'
_chemical_name_systematic        
5-(3-Ethylthyminylmethyl)-1-methyl-6-aminobenzimidazole
_symmetry_cell_setting           monoclinic
_symmetry_space_group_name_H-M   'P 21/c'
_symmetry_Int_Tables_number      14
_space_group_name_Hall           '-P 2ybc'
loop_
_symmetry_equiv_pos_site_id
_symmetry_equiv_pos_as_xyz
1 x,y,z
2 x,1/2-y,1/2+z
3 -x,-y,-z
4 -x,1/2+y,1/2-z
_cell_length_a                   12.028(4)
_cell_length_b                   11.282(4)
_cell_length_c                   11.441(5)
_cell_angle_alpha                90.00
_cell_angle_beta                 92.00(7)
_cell_angle_gamma                90.00
_cell_volume                     1551.6
_exptl_crystal_colour            colorless
_exptl_crystal_description       plate
_chemical_melting_point          215-217deg.C
_cell_formula_units_Z            4
_exptl_crystal_recrystallization_method trifluoromethanol/ethanol
loop_
_atom_site_label
_atom_site_type_symbol
_atom_site_fract_x
_atom_site_fract_y
_atom_site_fract_z
O1 O 0.0389(3) 0.1120(4) 0.1952(4)
N1 N 0.1681(4) 0.0439(4) 0.0692(4)
O2 O 0.2994(4) -0.0173(4) -0.0573(4)
N2 N 0.1648(4) 0.1092(5) -0.1250(4)
C1 C 0.4166(5) 0.0131(6) 0.2323(5)
C2 C 0.2164(6) 0.0420(6) -0.0389(6)
C3 C 0.3006(5) 0.0271(6) 0.2451(5)
N3 N 0.4561(4) -0.0553(5) 0.1405(5)
H1 H 0.4094 -0.0892 0.0912
H2 H 0.5274 -0.0639 0.1326
N4 N 0.3220(5) 0.2084(5) 0.5199(5)
C4 C 0.0729(5) 0.1777(6) -0.1032(6)
H4 H 0.0410 0.2227 -0.1648
C5 C 0.2159(5) -0.0316(6) 0.1637(5)
H5 H 0.2510 -0.1004 0.1280
H6 H 0.1550 -0.0610 0.2103
C6 C 0.0752(5) 0.1144(6) 0.0954(6)
C7 C 0.4512(5) 0.1246(5) 0.4059(5)
C8 C 0.2625(5) 0.0915(6) 0.3395(5)
H7 H 0.1858 0.1019 0.3486
C9 C 0.2130(6) 0.1107(7) -0.2423(5)
H8 H 0.2943 0.1128 -0.2336
H9 H 0.1888 0.1828 -0.2837
C10 C 0.0273(5) 0.1831(6) 0.0011(5)
N5 N 0.5036(4) 0.1816(5) 0.4988(5)
C11 C 0.3384(6) 0.1400(6) 0.4202(5)
C12 C 0.4932(5) 0.0619(6) 0.3135(6)
H10 H 0.5702 0.0524 0.3055
C13 C 0.6222(5) 0.1899(6) 0.5243(6)
H11 H 0.6620 0.1485 0.4643
H12 H 0.6397 0.1541 0.5998
H13 H 0.6443 0.2726 0.5258
C14 C 0.4202(6) 0.2286(6) 0.5624(6)
H14 H 0.4337 0.2722 0.6315
C15 C -0.0704(5) 0.2609(7) 0.0267(6)
H15 H -0.0954 0.3015 -0.0442
H16 H -0.0485 0.3189 0.0858
H17 H -0.1305 0.2126 0.0551
C16 C 0.1794(7) 0.0063(8) -0.3127(6)
H18 H 0.2126 0.0109 -0.3886
H19 H 0.0990 0.0047 -0.3228
H20 H 0.2046 -0.0652 -0.2729
H3? H 0.2592 0.2320 0.5472
loop_
_geom_bond_atom_site_label_1
_geom_bond_atom_site_label_2
_geom_bond_site_symmetry_1
_geom_bond_site_symmetry_2
O1 C6 1_555 1_555
N1 C2 1_555 1_555
O2 C2 1_555 1_555
N2 C2 1_555 1_555
C1 C3 1_555 1_555
C3 C5 1_555 1_555
N3 C1 1_555 1_555
H1 N3 1_555 1_555
H2 N3 1_555 1_555
N4 C11 1_555 1_555
C4 N2 1_555 1_555
H4 C4 1_555 1_555
C5 N1 1_555 1_555
H5 C5 1_555 1_555
H6 C5 1_555 1_555
C6 N1 1_555 1_555
C7 N5 1_555 1_555
C8 C3 1_555 1_555
H7 C8 1_555 1_555
C9 N2 1_555 1_555
H8 C9 1_555 1_555
H9 C9 1_555 1_555
C10 C4 1_555 1_555
N5 C13 1_555 1_555
C11 C7 1_555 1_555
C12 C1 1_555 1_555
H10 C12 1_555 1_555
C13 H11 1_555 1_555
H12 C13 1_555 1_555
H13 C13 1_555 1_555
C14 N4 1_555 1_555
H14 C14 1_555 1_555
C15 C10 1_555 1_555
H15 C15 1_555 1_555
H16 C15 1_555 1_555
H17 C15 1_555 1_555
C16 C9 1_555 1_555
H18 C16 1_555 1_555
H19 C16 1_555 1_555
H20 C16 1_555 1_555
C6 C10 1_555 1_555
C7 C12 1_555 1_555
C8 C11 1_555 1_555
N5 C14 1_555 1_555

#END
