
#######################################################################
#
#                 Cambridge Crystallographic Data Centre
#                                CCDC 
#
#######################################################################
#
# If this CIF has been generated from an entry in the Cambridge 
# Structural Database, then it will include bibliographic, chemical, 
# crystal, experimental, refinement or atomic coordinate data resulting 
# from the CCDC's data processing and validation procedures.
#
#######################################################################

data_JECCEC
_chemical_formula_moiety         'C34 H86 N10 Si4 Sr2'
_chemical_name_systematic        
bis(\m-1,4,7-trimethyl-1,4,7,10-tetraazacyclododecane)-bis(bis(trimethylsilyl)amino)-di-strontium
_symmetry_cell_setting           monoclinic
_symmetry_space_group_name_H-M   'P 21/n'
_symmetry_Int_Tables_number      14
_space_group_name_Hall           '-P 2yn'
loop_
_symmetry_equiv_pos_site_id
_symmetry_equiv_pos_as_xyz
1 x,y,z
2 1/2-x,1/2+y,1/2-z
3 -x,-y,-z
4 1/2+x,1/2-y,1/2+z
_cell_length_a                   9.3831(12)
_cell_length_b                   26.657(3)
_cell_length_c                   9.8491(12)
_cell_angle_alpha                90
_cell_angle_beta                 100.519(2)
_cell_angle_gamma                90
_cell_volume                     2422.11
_exptl_crystal_colour            colorless
_exptl_crystal_description       block
_cell_formula_units_Z            2
_chemical_properties_physical    
', Air-sensitive,Moisture-sensitive,Oxygen-sensitive'
_exptl_crystal_recrystallization_method toluene
loop_
_atom_site_label
_atom_site_type_symbol
_atom_site_fract_x
_atom_site_fract_y
_atom_site_fract_z
Sr1 Sr 0.56514(2) 0.07050(2) 0.46007(2)
Si1 Si 0.82232(8) 0.14445(3) 0.67197(8)
Si2 Si 0.53932(8) 0.18934(3) 0.69221(8)
N1 N 0.4097(3) -0.00319(8) 0.3402(2)
N2 N 0.3003(3) 0.10273(10) 0.3014(2)
N3 N 0.5987(3) 0.13105(8) 0.2323(2)
N4 N 0.7045(3) 0.02305(8) 0.2631(2)
N5 N 0.6404(2) 0.14441(8) 0.6348(2)
C1 C 0.2883(6) 0.00615(19) 0.2380(6)
H1 H 0.2241 -0.0236 0.2258
H2 H 0.3189 0.0133 0.1489
C2 C 0.2087(5) 0.0507(2) 0.2824(6)
H3 H 0.1788 0.0425 0.3712
H4 H 0.1195 0.0562 0.2131
C3 C 0.3239(5) 0.11667(18) 0.1686(5)
H5 H 0.2344 0.1314 0.1148
H6 H 0.3493 0.0867 0.1188
C4 C 0.4454(8) 0.1543(2) 0.1829(8)
H7 H 0.4286 0.1805 0.2495
H8 H 0.4433 0.1708 0.0925
C5 C 0.6372(7) 0.1030(2) 0.1168(6)
H9 H 0.6722 0.1267 0.0526
H10 H 0.5499 0.0860 0.0658
C6 C 0.7542(6) 0.06422(19) 0.1659(5)
H11 H 0.8414 0.0815 0.2164
H12 H 0.7813 0.0475 0.0845
C7 C 0.5950 -0.0085(2) 0.1781(6)
H13 H 0.6423 -0.0322 0.1227
H14 H 0.5267 0.0127 0.1140
C8 C 0.5143(7) -0.0371(2) 0.2725(6)
H15 H 0.5855 -0.0531 0.3465
H16 H 0.4572 -0.0641 0.2191
C9 C 0.2073(3) 0.13321(11) 0.3703(4)
H17 H 0.1190 0.1419 0.3048
H18 H 0.2586 0.1640 0.4048
H19 H 0.1815 0.1144 0.4477
C10 C 0.8950(3) 0.09499(11) 0.5649(3)
H20 H 0.995(4) 0.0945(12) 0.587(3)
H21 H 0.866(3) 0.0593(12) 0.586(3)
H22 H 0.866(3) 0.1005(11) 0.460(3)
C11 C 0.6861(3) 0.17557(11) 0.2782(3)
H23 H 0.6851 0.1983 0.1998
H24 H 0.7861 0.1654 0.3149
H25 H 0.6456 0.1928 0.3504
C12 C 0.8440(3) 0.00004(12) 0.3130(3)
H26 H 0.8768 -0.0175 0.2368
H27 H 0.8350 -0.0240 0.3862
H28 H 0.9145 0.0260 0.3497
C13 C 0.9090(3) 0.12845(11) 0.8545(3)
H29 H 0.8885 0.1551 0.9168
H30 H 1.0141 0.1253 0.8607
H31 H 0.8697 0.0966 0.8811
C14 C 0.9135(3) 0.20468(11) 0.6342(3)
H32 H 0.8735 0.2157 0.5401
H33 H 1.0179 0.1990 0.6430
H34 H 0.8962 0.2306 0.7000
C15 C 0.6272(3) 0.22311(10) 0.8542(3)
H35 H 0.6555 0.1987 0.9287
H36 H 0.5584 0.2472 0.8811
H37 H 0.7134 0.2410 0.8370
C16 C 0.4904(4) 0.24181(11) 0.5642(3)
H38 H 0.5788 0.2593 0.5510
H39 H 0.4258 0.2655 0.5991
H40 H 0.4413 0.2280 0.4757
C17 C 0.3665(3) 0.16457(11) 0.7381(4)
H41 H 0.3122 0.1460 0.6593
H42 H 0.3077 0.1926 0.7609
H43 H 0.3895 0.1421 0.8179
Sr1B Sr 0.43486(2) -0.07050(2) 0.53993(2)
Si1B Si 0.17768(8) -0.14445(3) 0.32803(8)
Si2B Si 0.46068(8) -0.18934(3) 0.30779(8)
N1B N 0.5903(3) 0.00319(8) 0.6598(2)
N2B N 0.6997(3) -0.10273(10) 0.6986(2)
N3B N 0.4013(3) -0.13105(8) 0.7677(2)
N4B N 0.2955(3) -0.02305(8) 0.7369(2)
N5B N 0.3596(2) -0.14441(8) 0.3652(2)
C1B C 0.7117(6) -0.00615(19) 0.7620(6)
H1B H 0.7759 0.0236 0.7742
H2B H 0.6811 -0.0133 0.8511
C2B C 0.7913(5) -0.0507(2) 0.7176(6)
H3B H 0.8212 -0.0425 0.6288
H4B H 0.8805 -0.0562 0.7869
C3B C 0.6761(5) -0.11667(18) 0.8314(5)
H5B H 0.7656 -0.1314 0.8852
H6B H 0.6507 -0.0867 0.8812
C4B C 0.5546(8) -0.1543(2) 0.8171(8)
H7B H 0.5714 -0.1805 0.7505
H8B H 0.5567 -0.1708 0.9075
C5B C 0.3628(7) -0.1030(2) 0.8832(6)
H9B H 0.3278 -0.1267 0.9474
H10B H 0.4501 -0.0860 0.9342
C6B C 0.2458(6) -0.06422(19) 0.8341(5)
H11B H 0.1586 -0.0815 0.7836
H12B H 0.2187 -0.0475 0.9155
C7B C 0.4050 0.0085(2) 0.8219(6)
H13B H 0.3577 0.0322 0.8773
H14B H 0.4733 -0.0127 0.8860
C8B C 0.4857(7) 0.0371(2) 0.7275(6)
H15B H 0.4145 0.0531 0.6535
H16B H 0.5428 0.0641 0.7809
C9B C 0.7927(3) -0.13321(11) 0.6297(4)
H17B H 0.8810 -0.1419 0.6952
H18B H 0.7414 -0.1640 0.5952
H19B H 0.8185 -0.1144 0.5523
C10B C 0.1050(3) -0.09499(11) 0.4351(3)
H20B H 0.005(4) -0.0945(12) 0.413(3)
H21B H 0.134(3) -0.0593(12) 0.414(3)
H22B H 0.134(3) -0.1005(11) 0.540(3)
C11B C 0.3139(3) -0.17557(11) 0.7218(3)
H23B H 0.3149 -0.1983 0.8002
H24B H 0.2139 -0.1654 0.6851
H25B H 0.3544 -0.1928 0.6496
C12B C 0.1560(3) -0.00004(12) 0.6870(3)
H26B H 0.1232 0.0175 0.7632
H27B H 0.1650 0.0240 0.6138
H28B H 0.0855 -0.0260 0.6503
C13B C 0.0910(3) -0.12845(11) 0.1455(3)
H29B H 0.1115 -0.1551 0.0832
H30B H -0.0141 -0.1253 0.1393
H31B H 0.1303 -0.0966 0.1189
C14B C 0.0865(3) -0.20468(11) 0.3658(3)
H32B H 0.1265 -0.2157 0.4599
H33B H -0.0179 -0.1990 0.3570
H34B H 0.1038 -0.2306 0.3000
C15B C 0.3728(3) -0.22311(10) 0.1458(3)
H35B H 0.3445 -0.1987 0.0713
H36B H 0.4416 -0.2472 0.1189
H37B H 0.2866 -0.2410 0.1630
C16B C 0.5096(4) -0.24181(11) 0.4358(3)
H38B H 0.4212 -0.2593 0.4490
H39B H 0.5742 -0.2655 0.4009
H40B H 0.5587 -0.2280 0.5243
C17B C 0.6335(3) -0.16457(11) 0.2619(4)
H41B H 0.6878 -0.1460 0.3407
H42B H 0.6923 -0.1926 0.2391
H43B H 0.6105 -0.1421 0.1821
C18? C 0.2496(7) 0.0186(3) 0.2963(8)
H44? H 0.1894 -0.0069 0.2395
H45? H 0.2083 0.0237 0.3809
C19? C 0.2373(8) 0.0675(2) 0.2164(8)
H46? H 0.2861 0.0645 0.1357
H47? H 0.1342 0.0759 0.1828
C20? C 0.3443(8) 0.1516(2) 0.2107(7)
H48? H 0.2597 0.1610 0.1397
H49? H 0.3688 0.1807 0.2732
C21? C 0.4702(11) 0.1400(3) 0.1419(10)
H50? H 0.4461 0.1102 0.0823
H51? H 0.4847 0.1686 0.0816
C22? C 0.7092(9) 0.1038(3) 0.1591(8)
H52? H 0.7085 0.1195 0.0679
H53? H 0.8078 0.1078 0.2147
C23? C 0.6749(9) 0.0487(3) 0.1397(7)
H54? H 0.5712 0.0446 0.0986
H55? H 0.7329 0.0342 0.0748
C24? C 0.6117(7) -0.0275(3) 0.2488(8)
H56? H 0.6350 -0.0465 0.1694
H57? H 0.6448 -0.0479 0.3326
C25? C 0.4499(9) -0.0229(3) 0.2296(8)
H58? H 0.4144 -0.0014 0.1484
H59? H 0.4055 -0.0565 0.2116
loop_
_geom_bond_atom_site_label_1
_geom_bond_atom_site_label_2
_geom_bond_site_symmetry_1
_geom_bond_site_symmetry_2
Sr1 N1 1_555 1_555
Si1 N5 1_555 1_555
Si2 N5 1_555 1_555
N1 C1 1_555 1_555
N2 Sr1 1_555 1_555
N3 Sr1 1_555 1_555
N4 Sr1 1_555 1_555
N5 Sr1 1_555 1_555
C1 H1 1_555 1_555
H2 C1 1_555 1_555
C2 N2 1_555 1_555
H3 C2 1_555 1_555
H4 C2 1_555 1_555
C3 N2 1_555 1_555
H5 C3 1_555 1_555
H6 C3 1_555 1_555
C4 N3 1_555 1_555
H7 C4 1_555 1_555
H8 C4 1_555 1_555
C5 N3 1_555 1_555
H9 C5 1_555 1_555
H10 C5 1_555 1_555
C6 N4 1_555 1_555
H11 C6 1_555 1_555
H12 C6 1_555 1_555
C7 N4 1_555 1_555
H13 C7 1_555 1_555
H14 C7 1_555 1_555
C8 N1 1_555 1_555
H15 C8 1_555 1_555
H16 C8 1_555 1_555
C9 N2 1_555 1_555
H17 C9 1_555 1_555
H18 C9 1_555 1_555
H19 C9 1_555 1_555
C10 Si1 1_555 1_555
H20 C10 1_555 1_555
H21 C10 1_555 1_555
H22 C10 1_555 1_555
C11 N3 1_555 1_555
H23 C11 1_555 1_555
H24 C11 1_555 1_555
H25 C11 1_555 1_555
C12 N4 1_555 1_555
H26 C12 1_555 1_555
H27 C12 1_555 1_555
H28 C12 1_555 1_555
C13 Si1 1_555 1_555
H29 C13 1_555 1_555
H30 C13 1_555 1_555
H31 C13 1_555 1_555
C14 Si1 1_555 1_555
H32 C14 1_555 1_555
H33 C14 1_555 1_555
H34 C14 1_555 1_555
C15 Si2 1_555 1_555
H35 C15 1_555 1_555
H36 C15 1_555 1_555
H37 C15 1_555 1_555
C16 Si2 1_555 1_555
H38 C16 1_555 1_555
H39 C16 1_555 1_555
H40 C16 1_555 1_555
C17 Si2 1_555 1_555
H41 C17 1_555 1_555
H42 C17 1_555 1_555
H43 C17 1_555 1_555
Sr1B N1 1_555 1_555
Si1B N5B 1_555 1_555
Si2B N5B 1_555 1_555
N1B Sr1 1_555 1_555
N2B Sr1B 1_555 1_555
N3B Sr1B 1_555 1_555
N4B Sr1B 1_555 1_555
N5B Sr1B 1_555 1_555
C1B N1B 1_555 1_555
H1B C1B 1_555 1_555
H2B C1B 1_555 1_555
C2B N2B 1_555 1_555
H3B C2B 1_555 1_555
H4B C2B 1_555 1_555
C3B N2B 1_555 1_555
H5B C3B 1_555 1_555
H6B C3B 1_555 1_555
C4B N3B 1_555 1_555
H7B C4B 1_555 1_555
H8B C4B 1_555 1_555
C5B N3B 1_555 1_555
H9B C5B 1_555 1_555
H10B C5B 1_555 1_555
C6B N4B 1_555 1_555
H11B C6B 1_555 1_555
H12B C6B 1_555 1_555
C7B N4B 1_555 1_555
H13B C7B 1_555 1_555
H14B C7B 1_555 1_555
C8B N1B 1_555 1_555
H15B C8B 1_555 1_555
H16B C8B 1_555 1_555
C9B N2B 1_555 1_555
H17B C9B 1_555 1_555
H18B C9B 1_555 1_555
H19B C9B 1_555 1_555
C10B Si1B 1_555 1_555
H20B C10B 1_555 1_555
H21B C10B 1_555 1_555
H22B C10B 1_555 1_555
C11B N3B 1_555 1_555
H23B C11B 1_555 1_555
H24B C11B 1_555 1_555
H25B C11B 1_555 1_555
C12B N4B 1_555 1_555
H26B C12B 1_555 1_555
H27B C12B 1_555 1_555
H28B C12B 1_555 1_555
C13B Si1B 1_555 1_555
H29B C13B 1_555 1_555
H30B C13B 1_555 1_555
H31B C13B 1_555 1_555
C14B Si1B 1_555 1_555
H32B C14B 1_555 1_555
H33B C14B 1_555 1_555
H34B C14B 1_555 1_555
C15B Si2B 1_555 1_555
H35B C15B 1_555 1_555
H36B C15B 1_555 1_555
H37B C15B 1_555 1_555
C16B Si2B 1_555 1_555
H38B C16B 1_555 1_555
H39B C16B 1_555 1_555
H40B C16B 1_555 1_555
C17B Si2B 1_555 1_555
H41B C17B 1_555 1_555
H42B C17B 1_555 1_555
H43B C17B 1_555 1_555
C1 C2 1_555 1_555
C3 C4 1_555 1_555
C5 C6 1_555 1_555
C7 C8 1_555 1_555
Sr1B N1B 1_555 1_555
C1B C2B 1_555 1_555
C3B C4B 1_555 1_555
C5B C6B 1_555 1_555
C7B C8B 1_555 1_555

#END
