
#######################################################################
#
#                 Cambridge Crystallographic Data Centre
#                                CCDC 
#
#######################################################################
#
# If this CIF has been generated from an entry in the Cambridge 
# Structural Database, then it will include bibliographic, chemical, 
# crystal, experimental, refinement or atomic coordinate data resulting 
# from the CCDC's data processing and validation procedures.
#
#######################################################################

data_JECCIG
_chemical_formula_moiety         'C19 H54 N6 Si4 Sr1'
_chemical_name_systematic        
bis(N,N-bis(dimethylsilyl)amino)-(1,4,7-trimethyl-1,4,7,10-tetraazacyclododecane)-strontium
_symmetry_cell_setting           monoclinic
_symmetry_space_group_name_H-M   'C 2/c'
_symmetry_Int_Tables_number      15
_space_group_name_Hall           '-C 2yn'
loop_
_symmetry_equiv_pos_site_id
_symmetry_equiv_pos_as_xyz
1 x,y,z
2 -x,y,1/2-z
3 1/2+x,1/2+y,z
4 1/2-x,1/2+y,1/2-z
5 -x,-y,-z
6 x,-y,1/2+z
7 1/2-x,1/2-y,-z
8 1/2+x,1/2-y,1/2+z
_cell_length_a                   21.541(2)
_cell_length_b                   10.4100(11)
_cell_length_c                   16.409(5)
_cell_angle_alpha                90
_cell_angle_beta                 121.6531(15)
_cell_angle_gamma                90
_cell_volume                     3132.21
_exptl_crystal_colour            colorless
_exptl_crystal_description       block
_cell_formula_units_Z            4
_chemical_properties_physical    
', Air-sensitive,Moisture-sensitive,Oxygen-sensitive'
_exptl_crystal_recrystallization_method 'tetrahydrofuran/pentane 1:9'
loop_
_atom_site_label
_atom_site_type_symbol
_atom_site_fract_x
_atom_site_fract_y
_atom_site_fract_z
Sr1 Sr 1.0000 0.40012(2) 0.2500
Si1 Si 0.89114(3) 0.61866(5) 0.09258(4)
H1 H 0.9499(10) 0.5591(18) 0.0886(14)
Si2 Si 0.84859(3) 0.58816(6) 0.24211(4)
H2 H 0.8789(11) 0.514(2) 0.3273(15)
N1 N 1.00485(10) 0.23222(15) 0.12091(13)
N2 N 0.89230(8) 0.55174(15) 0.18584(11)
N3 N 0.8898(6) 0.2065(6) 0.1748(7)
C1 C 0.9363(4) 0.1417(7) 0.0754(5)
H3 H 0.9248 0.1148 0.0111
H4 H 0.9484 0.0635 0.1153
C2 C 0.8699(3) 0.2033(5) 0.0664(4)
H5 H 0.8256 0.1513 0.0257
H6 H 0.8623 0.2910 0.0394
C3 C 0.9073(4) 0.1055(5) 0.2474(4)
H7 H 0.9470 0.0508 0.2530
H8 H 0.8639 0.0505 0.2257
C4 C 0.9309(6) 0.1606(9) 0.3457(7)
H9 H 0.8919 0.2163 0.3410
H10 H 0.9397 0.0899 0.3909
C5 C 0.8180(2) 0.2604(4) 0.1440(3)
H11 H 0.7811 0.1923 0.1160
H12 H 0.8061 0.3275 0.0960
H13 H 0.8186 0.2976 0.1992
C6 C 0.99201(12) 0.30527(19) 0.03665(14)
H14 H 1.0281 0.3744 0.0571
H15 H 0.9429 0.3423 0.0040
H16 H 0.9965 0.2478 -0.0073
C7 C 0.91008(12) 0.79546(18) 0.10113(15)
H17 H 0.8723 0.8419 0.1054
H18 H 0.9099 0.8239 0.0441
H19 H 0.9579 0.8131 0.1583
C8 C 0.80728(12) 0.5891(2) -0.02773(14)
H20 H 0.7970 0.4968 -0.0364
H21 H 0.8151 0.6209 -0.0779
H22 H 0.7658 0.6343 -0.0318
C9 C 0.85569(16) 0.7600(2) 0.28101(17)
H23 H 0.9069 0.7871 0.3148
H24 H 0.8370 0.7679 0.3238
H25 H 0.8269 0.8146 0.2247
C10 C 0.74840(13) 0.5518(4) 0.1732(2)
H26 H 0.7238 0.6059 0.1159
H27 H 0.7282 0.5692 0.2135
H28 H 0.7408 0.4611 0.1542
N1A N 0.99515(10) 0.23222(15) 0.37909(13)
N3A N 1.1102(6) 0.2065(6) 0.3252(7)
C1A C 1.0637(4) 0.1417(7) 0.4246(5)
H3A H 1.0752 0.1148 0.4889
H4A H 1.0516 0.0635 0.3847
C2A C 1.1301(3) 0.2033(5) 0.4336(4)
H5A H 1.1744 0.1513 0.4743
H6A H 1.1377 0.2910 0.4606
C3A C 1.0927(4) 0.1055(5) 0.2526(4)
H7A H 1.0530 0.0508 0.2470
H8A H 1.1361 0.0505 0.2743
C4A C 1.0691(6) 0.1606(9) 0.1543(7)
H9A H 1.1081 0.2163 0.1590
H10A H 1.0603 0.0899 0.1091
C5A C 1.1820(2) 0.2604(4) 0.3560(3)
H11A H 1.2189 0.1923 0.3840
H12A H 1.1939 0.3275 0.4040
H13A H 1.1814 0.2976 0.3008
C6A C 1.00799(12) 0.30527(19) 0.46335(14)
H14A H 0.9719 0.3744 0.4429
H15A H 1.0571 0.3423 0.4960
H16A H 1.0035 0.2478 0.5073
Si1A Si 1.10886(3) 0.61866(5) 0.40742(4)
H1A H 1.0501(10) 0.5591(18) 0.4114(14)
Si2A Si 1.15141(3) 0.58816(6) 0.25789(4)
H2A H 1.1211(11) 0.514(2) 0.1727(15)
N2A N 1.10770(8) 0.55174(15) 0.31416(11)
C7A C 1.08992(12) 0.79546(18) 0.39887(15)
H17A H 1.1277 0.8419 0.3946
H18A H 1.0901 0.8239 0.4559
H19A H 1.0421 0.8131 0.3417
C8A C 1.19272(12) 0.5891(2) 0.52773(14)
H20A H 1.2030 0.4968 0.5364
H21A H 1.1849 0.6209 0.5779
H22A H 1.2342 0.6343 0.5318
C9A C 1.14431(16) 0.7600(2) 0.21899(17)
H23A H 1.0931 0.7871 0.1852
H24A H 1.1630 0.7679 0.1762
H25A H 1.1731 0.8146 0.2753
C10A C 1.25160(13) 0.5518(4) 0.3268(2)
H26A H 1.2762 0.6059 0.3841
H27A H 1.2718 0.5692 0.2865
H28A H 1.2592 0.4611 0.3458
N4? N 0.8854(6) 0.2468(6) 0.1615(7)
C11? C 0.9625(4) 0.1207(8) 0.1065(5)
H29? H 0.9885 0.0646 0.1635
H30? H 0.9564 0.0725 0.0507
C12? C 0.8879(4) 0.1546(5) 0.0892(4)
H31? H 0.8634 0.0736 0.0881
H32? H 0.8588 0.1934 0.0247
C13? C 0.8806(4) 0.1447(6) 0.2185(4)
H33? H 0.9074 0.0681 0.2174
H34? H 0.8289 0.1202 0.1910
C14? C 0.9129(6) 0.1898(10) 0.3211(7)
H35? H 0.9069 0.1196 0.3570
H36? H 0.8833 0.2632 0.3201
H37? H 0.856(2) 0.315(5) 0.150(3)
loop_
_geom_bond_atom_site_label_1
_geom_bond_atom_site_label_2
_geom_bond_site_symmetry_1
_geom_bond_site_symmetry_2
Sr1 N1 1_555 1_555
Si1 H1 1_555 1_555
Si2 H2 1_555 1_555
N1 C1 1_555 1_555
N2 Sr1 1_555 1_555
N3 Sr1 1_555 1_555
C1 H3 1_555 1_555
H4 C1 1_555 1_555
C2 N3 1_555 1_555
H5 C2 1_555 1_555
H6 C2 1_555 1_555
C3 N3 1_555 1_555
H7 C3 1_555 1_555
H8 C3 1_555 1_555
C4 C3 1_555 1_555
H9 C4 1_555 1_555
H10 C4 1_555 1_555
C5 N3 1_555 1_555
H11 C5 1_555 1_555
H12 C5 1_555 1_555
H13 C5 1_555 1_555
C6 N1 1_555 1_555
H14 C6 1_555 1_555
H15 C6 1_555 1_555
H16 C6 1_555 1_555
C7 Si1 1_555 1_555
H17 C7 1_555 1_555
H18 C7 1_555 1_555
H19 C7 1_555 1_555
C8 Si1 1_555 1_555
H20 C8 1_555 1_555
H21 C8 1_555 1_555
H22 C8 1_555 1_555
C9 Si2 1_555 1_555
H23 C9 1_555 1_555
H24 C9 1_555 1_555
H25 C9 1_555 1_555
C10 Si2 1_555 1_555
H26 C10 1_555 1_555
H27 C10 1_555 1_555
H28 C10 1_555 1_555
N1A Sr1 1_555 1_555
N3A Sr1 1_555 1_555
C1A N1A 1_555 1_555
H3A C1A 1_555 1_555
H4A C1A 1_555 1_555
C2A N3A 1_555 1_555
H5A C2A 1_555 1_555
H6A C2A 1_555 1_555
C3A N3A 1_555 1_555
H7A C3A 1_555 1_555
H8A C3A 1_555 1_555
C4A N1 1_555 1_555
H9A C4A 1_555 1_555
H10A C4A 1_555 1_555
C5A N3A 1_555 1_555
H11A C5A 1_555 1_555
H12A C5A 1_555 1_555
H13A C5A 1_555 1_555
C6A N1A 1_555 1_555
H14A C6A 1_555 1_555
H15A C6A 1_555 1_555
H16A C6A 1_555 1_555
Si1A H1A 1_555 1_555
Si2A H2A 1_555 1_555
N2A Sr1 1_555 1_555
C7A Si1A 1_555 1_555
H17A C7A 1_555 1_555
H18A C7A 1_555 1_555
H19A C7A 1_555 1_555
C8A Si1A 1_555 1_555
H20A C8A 1_555 1_555
H21A C8A 1_555 1_555
H22A C8A 1_555 1_555
C9A Si2A 1_555 1_555
H23A C9A 1_555 1_555
H24A C9A 1_555 1_555
H25A C9A 1_555 1_555
C10A Si2A 1_555 1_555
H26A C10A 1_555 1_555
H27A C10A 1_555 1_555
H28A C10A 1_555 1_555
Si1 N2 1_555 1_555
Si2 N2 1_555 1_555
C1 C2 1_555 1_555
C4 N1A 1_555 1_555
C1A C2A 1_555 1_555
C3A C4A 1_555 1_555
Si1A N2A 1_555 1_555
Si2A N2A 1_555 1_555

#END
