
#######################################################################
#
#                 Cambridge Crystallographic Data Centre
#                                CCDC 
#
#######################################################################
#
# If this CIF has been generated from an entry in the Cambridge 
# Structural Database, then it will include bibliographic, chemical, 
# crystal, experimental, refinement or atomic coordinate data resulting 
# from the CCDC's data processing and validation procedures.
#
#######################################################################

data_JECDAZ
_chemical_formula_moiety         'C15 H39 Mg1 N5 Si2'
_chemical_name_systematic        
(N,N-bis(dimethylsilyl)amino)-(1,4,7-trimethyl-1,4,7,10-tetraazacyclododecanato)-magnesium
_symmetry_cell_setting           orthorhombic
_symmetry_space_group_name_H-M   'P b c a'
_symmetry_Int_Tables_number      61
_space_group_name_Hall           '-P 2ac 2ab'
loop_
_symmetry_equiv_pos_site_id
_symmetry_equiv_pos_as_xyz
1 x,y,z
2 1/2-x,-y,1/2+z
3 1/2+x,1/2-y,-z
4 -x,1/2+y,1/2-z
5 -x,-y,-z
6 1/2+x,y,1/2-z
7 1/2-x,1/2+y,z
8 x,1/2-y,1/2+z
_cell_length_a                   17.331(15)
_cell_length_b                   13.273(12)
_cell_length_c                   18.878(18)
_cell_angle_alpha                90
_cell_angle_beta                 90
_cell_angle_gamma                90
_cell_volume                     4342.59
_exptl_crystal_colour            colorless
_exptl_crystal_description       block
_cell_formula_units_Z            8
_chemical_properties_physical    
', Air-sensitive,Moisture-sensitive,Oxygen-sensitive'
_exptl_crystal_recrystallization_method pentane
loop_
_atom_site_label
_atom_site_type_symbol
_atom_site_fract_x
_atom_site_fract_y
_atom_site_fract_z
Si1 Si 0.20266(3) 0.68698(4) 0.67644(3)
H1 H 0.2582(12) 0.7127(14) 0.7289(10)
Si2 Si 0.08633(3) 0.52497(4) 0.65823(3)
H2 H 0.0323(12) 0.4789(15) 0.6997(10)
Mg1 Mg 0.14542(3) 0.58626(4) 0.81552(3)
N1 N 0.17647(9) 0.68146(12) 0.89199(8)
N2 N 0.25827(9) 0.51388(11) 0.85038(8)
N3 N 0.10229(9) 0.44336(12) 0.86056(8)
N4 N 0.02742(9) 0.63823(12) 0.85449(8)
N5 N 0.14407(9) 0.59717(11) 0.70899(8)
C1 C 0.24443(12) 0.65852(15) 0.93192(10)
H3 H 0.2307 0.6189 0.9745
H4 H 0.2698 0.7216 0.9475
C2 C 0.29839(11) 0.59873(15) 0.88538(11)
H5 H 0.3206 0.6437 0.8488
H6 H 0.3413 0.5722 0.9145
C3 C 0.23805(12) 0.43488(14) 0.90228(10)
H7 H 0.2704 0.4433 0.9451
H8 H 0.2497 0.3680 0.8817
C4 C 0.15331(11) 0.43831(15) 0.92348(10)
H9 H 0.1406 0.3775 0.9514
H10 H 0.1441 0.4980 0.9538
C5 C 0.02126(12) 0.45798(15) 0.88168(11)
H11 H 0.0084 0.4094 0.9197
H12 H -0.0125 0.4433 0.8406
C6 C 0.00484(12) 0.56299(15) 0.90755(10)
H13 H -0.0509 0.5698 0.9179
H14 H 0.0336 0.5753 0.9520
C7 C 0.04481(12) 0.73534(15) 0.88870(11)
H15 H 0.0012 0.7547 0.9197
H16 H 0.0505 0.7880 0.8519
C8 C 0.11819(12) 0.73020(15) 0.93245(10)
H17 H 0.1352 0.7990 0.9453
H18 H 0.1086 0.6921 0.9767
C9 C 0.30839(12) 0.47262(16) 0.79478(11)
H19 H 0.3567 0.4488 0.8160
H20 H 0.3197 0.5252 0.7599
H21 H 0.2822 0.4163 0.7714
C10 C 0.10808(14) 0.34992(15) 0.81980(12)
H22 H 0.1615 0.3402 0.8043
H23 H 0.0743 0.3540 0.7782
H24 H 0.0922 0.2930 0.8495
C11 C -0.03359(12) 0.65184(18) 0.80167(11)
H25 H -0.0479 0.5862 0.7818
H26 H -0.0149 0.6959 0.7637
H27 H -0.0788 0.6825 0.8242
C12 C 0.15015(13) 0.80450(15) 0.65242(11)
H28 H 0.1151 0.7908 0.6128
H29 H 0.1873 0.8565 0.6385
H30 H 0.1204 0.8281 0.6933
C13 C 0.25998(12) 0.64855(16) 0.59716(10)
H31 H 0.2895 0.5876 0.6082
H32 H 0.2955 0.7030 0.5842
H33 H 0.2250 0.6349 0.5575
C14 C 0.03028(13) 0.59368(18) 0.58885(11)
H34 H 0.0011 0.6486 0.6109
H35 H -0.0055 0.5470 0.5657
H36 H 0.0659 0.6215 0.5536
C15 C 0.13745(13) 0.42048(16) 0.61238(12)
H37 H 0.1774 0.4484 0.5813
H38 H 0.1005 0.3818 0.5840
H39 H 0.1614 0.3762 0.6476
loop_
_geom_bond_atom_site_label_1
_geom_bond_atom_site_label_2
_geom_bond_site_symmetry_1
_geom_bond_site_symmetry_2
Si1 H1 1_555 1_555
Si2 H2 1_555 1_555
Mg1 N1 1_555 1_555
N1 C1 1_555 1_555
N2 Mg1 1_555 1_555
N3 Mg1 1_555 1_555
N4 Mg1 1_555 1_555
N5 Si1 1_555 1_555
C1 H3 1_555 1_555
H4 C1 1_555 1_555
C2 N2 1_555 1_555
H5 C2 1_555 1_555
H6 C2 1_555 1_555
C3 N2 1_555 1_555
H7 C3 1_555 1_555
H8 C3 1_555 1_555
C4 N3 1_555 1_555
H9 C4 1_555 1_555
H10 C4 1_555 1_555
C5 N3 1_555 1_555
H11 C5 1_555 1_555
H12 C5 1_555 1_555
C6 N4 1_555 1_555
H13 C6 1_555 1_555
H14 C6 1_555 1_555
C7 N4 1_555 1_555
H15 C7 1_555 1_555
H16 C7 1_555 1_555
C8 N1 1_555 1_555
H17 C8 1_555 1_555
H18 C8 1_555 1_555
C9 N2 1_555 1_555
H19 C9 1_555 1_555
H20 C9 1_555 1_555
H21 C9 1_555 1_555
C10 N3 1_555 1_555
H22 C10 1_555 1_555
H23 C10 1_555 1_555
H24 C10 1_555 1_555
C11 N4 1_555 1_555
H25 C11 1_555 1_555
H26 C11 1_555 1_555
H27 C11 1_555 1_555
C12 Si1 1_555 1_555
H28 C12 1_555 1_555
H29 C12 1_555 1_555
H30 C12 1_555 1_555
C13 Si1 1_555 1_555
H31 C13 1_555 1_555
H32 C13 1_555 1_555
H33 C13 1_555 1_555
C14 Si2 1_555 1_555
H34 C14 1_555 1_555
H35 C14 1_555 1_555
H36 C14 1_555 1_555
C15 Si2 1_555 1_555
H37 C15 1_555 1_555
H38 C15 1_555 1_555
H39 C15 1_555 1_555
Si2 N5 1_555 1_555
Mg1 N5 1_555 1_555
C1 C2 1_555 1_555
C3 C4 1_555 1_555
C5 C6 1_555 1_555
C7 C8 1_555 1_555

#END
