
#######################################################################
#
#                 Cambridge Crystallographic Data Centre
#                                CCDC 
#
#######################################################################
#
# If this CIF has been generated from an entry in the Cambridge 
# Structural Database, then it will include bibliographic, chemical, 
# crystal, experimental, refinement or atomic coordinate data resulting 
# from the CCDC's data processing and validation procedures.
#
#######################################################################

data_JECFEC
_chemical_name_common            
'(Octacyanospherand)-di-potassium dibromide pyridine clathrate pyridine solvate'
_chemical_formula_moiety         'C64 H40 K2 N8 2+,4(C5 H5 N1),2(Br1 1-)'
_chemical_name_systematic        
'(Octamethyl-nonacyclo(35.3.1.1^2,6^.1^7,11^.1^12,16^.1^17,21^.1^22,26^.1^27,31^.1^32,36^)-octatetraconta-1(41),2,4,6(48),7,9,11(47),12,14,16(46),17,19,21(45),22,24,26(44),27,29,31(43),32,34,36(42),37,39-tetracosaene-octacarbonitrile)-di-potassium dibromide dipyridine clathrate pyridine solvate'
_symmetry_cell_setting           tetragonal
_symmetry_space_group_name_H-M   'P 4/n n c'
_symmetry_Int_Tables_number      126
_space_group_name_Hall           '-P 4a 2bc'
loop_
_symmetry_equiv_pos_site_id
_symmetry_equiv_pos_as_xyz
1 x,y,z
2 1/2-y,x,z
3 1/2-x,1/2-y,z
4 y,1/2-x,z
5 -x,1/2+y,1/2+z
6 1/2+y,1/2+x,1/2+z
7 1/2+x,-y,1/2+z
8 -y,-x,1/2+z
9 -x,-y,-z
10 1/2+y,-x,-z
11 1/2+x,1/2+y,-z
12 -y,1/2+x,-z
13 x,1/2-y,1/2-z
14 1/2-y,1/2-x,1/2-z
15 1/2-x,y,1/2-z
16 y,x,1/2-z
_cell_length_a                   18.6301(29)
_cell_length_b                   18.6301(29)
_cell_length_c                   10.4432(18)
_cell_angle_alpha                90
_cell_angle_beta                 90
_cell_angle_gamma                90
_cell_volume                     3624.63
_exptl_crystal_colour            'pale yellow'
_cell_formula_units_Z            2
loop_
_atom_site_label
_atom_site_type_symbol
_atom_site_fract_x
_atom_site_fract_y
_atom_site_fract_z
N2 N 0.2500 0.3822(11) 0.7500
C9 C 0.3048(14) 0.4225(14) 0.6845(24)
C10 C 0.3043(15) 0.4940(14) 0.6889(25)
C11 C 0.2500 0.5258(18) 0.7500
C9N C 0.1952(14) 0.4225(14) 0.8155(24)
C10N C 0.1957(15) 0.4940(14) 0.8111(25)
K1 K 0.2500 0.2500 0.5830
C1 C 0.2120(6) 0.5131(6) 0.2273(12)
C2 C 0.1889(7) 0.5677(7) 0.1427(13)
C3 C 0.1179(8) 0.5700(8) 0.1059(14)
C4 C 0.0933(9) 0.6308(9) 0.0198(16)
C5 C 0.0689(7) 0.5184(7) 0.1471(13)
C6 C 0.0901(6) 0.4625(6) 0.2274(12)
C7 C 0.1626(6) 0.4605(6) 0.2665(13)
C8 C 0.1845(7) 0.4061(7) 0.3581(14)
N1 N 0.2002(7) 0.3654(7) 0.4332(12)
H1 H 0.2265 0.6072 0.1076
H2 H 0.0380 0.6391 0.0466
H3 H 0.0961 0.6162 -0.0802
H4 H 0.1233 0.6796 0.0354
H5 H 0.0136 0.5218 0.1163
N1A N 0.1346(7) 0.2002(7) 0.4332(12)
N1B N 0.2998(7) 0.1346(7) 0.4332(12)
N1C N 0.3654(7) 0.2998(7) 0.4332(12)
C1N C 0.2880(6) 0.5131(6) 0.2727(12)
C6M C 0.0375(6) 0.4099(6) 0.2726(12)
C8A C 0.0939(7) 0.1845(7) 0.3581(14)
C8B C 0.3155(7) 0.0939(7) 0.3581(14)
C8C C 0.4061(7) 0.3155(7) 0.3581(14)
C2N C 0.3111(7) 0.5677(7) 0.3573(13)
C7N C 0.3374(6) 0.4605(6) 0.2335(13)
C5M C -0.0184(7) 0.4311(7) 0.3529(13)
C7M C 0.0395(6) 0.3374(6) 0.2335(13)
C7A C 0.0395(6) 0.1626(6) 0.2665(13)
C7B C 0.3374(6) 0.0395(6) 0.2665(13)
C7C C 0.4605(6) 0.3374(6) 0.2665(13)
C3N C 0.3821(8) 0.5700(8) 0.3941(14)
H1N H 0.2735 0.6072 0.3924
C6N C 0.4099(6) 0.4625(6) 0.2726(12)
C8N C 0.3155(7) 0.4061(7) 0.1419(14)
C3M C -0.0700(8) 0.3821(8) 0.3941(14)
H5M H -0.0218 0.4864 0.3837
C1M C -0.0131(6) 0.2880(6) 0.2727(12)
C8M C 0.0939(7) 0.3155(7) 0.1419(14)
C1A C -0.0131(6) 0.2120(6) 0.2273(12)
C6A C 0.0375(6) 0.0901(6) 0.2274(12)
C1B C 0.2880(6) -0.0131(6) 0.2273(12)
C6B C 0.4099(6) 0.0375(6) 0.2274(12)
C1C C 0.5131(6) 0.2880(6) 0.2273(12)
C6C C 0.4625(6) 0.4099(6) 0.2274(12)
C4N C 0.4067(9) 0.6308(9) 0.4802(16)
C5N C 0.4311(7) 0.5184(7) 0.3529(13)
N1N N 0.2998(7) 0.3654(7) 0.0668(12)
C2M C -0.0677(7) 0.3111(7) 0.3573(13)
C4M C -0.1308(9) 0.4067(9) 0.4802(16)
N1M N 0.1346(7) 0.2998(7) 0.0668(12)
C2A C -0.0677(7) 0.1889(7) 0.1427(13)
C5A C -0.0184(7) 0.0689(7) 0.1471(13)
C6L C 0.0901(6) 0.0375(6) 0.2726(12)
C1L C 0.2120(6) -0.0131(6) 0.2727(12)
C2B C 0.3111(7) -0.0677(7) 0.1427(13)
C5B C 0.4311(7) -0.0184(7) 0.1471(13)
C6O C 0.4625(6) 0.0901(6) 0.2726(12)
C1O C 0.5131(6) 0.2120(6) 0.2727(12)
C2C C 0.5677(7) 0.3111(7) 0.1427(13)
C5C C 0.5184(7) 0.4311(7) 0.1471(13)
H2N H 0.4620 0.6391 0.4534
H3N H 0.4039 0.6162 0.5802
H4N H 0.3767 0.6796 0.4646
H5N H 0.4864 0.5218 0.3837
K1L K 0.2500 0.2500 -0.0830
H1M H -0.1072 0.2735 0.3924
H2M H -0.1391 0.4620 0.4534
H3M H -0.1162 0.4039 0.5802
H4M H -0.1796 0.3767 0.4646
C3A C -0.0700(8) 0.1179(8) 0.1059(14)
H1A H -0.1072 0.2265 0.1076
H5A H -0.0218 0.0136 0.1163
C5L C 0.0689(7) -0.0184(7) 0.3529(13)
C7L C 0.1626(6) 0.0395(6) 0.2335(13)
C2L C 0.1889(7) -0.0677(7) 0.3573(13)
C3B C 0.3821(8) -0.0700(8) 0.1059(14)
H1B H 0.2735 -0.1072 0.1076
H5B H 0.4864 -0.0218 0.1163
C5O C 0.5184(7) 0.0689(7) 0.3529(13)
C7O C 0.4605(6) 0.1626(6) 0.2335(13)
C2O C 0.5677(7) 0.1889(7) 0.3573(13)
C3C C 0.5700(8) 0.3821(8) 0.1059(14)
H1C H 0.6072 0.2735 0.1076
H5C H 0.5218 0.4864 0.1163
N1L N 0.2002(7) 0.1346(7) 0.0668(12)
N1O N 0.3654(7) 0.2002(7) 0.0668(12)
C4A C -0.1308(9) 0.0933(9) 0.0198(16)
C3L C 0.1179(8) -0.0700(8) 0.3941(14)
H5L H 0.0136 -0.0218 0.3837
C8L C 0.1845(7) 0.0939(7) 0.1419(14)
H1L H 0.2265 -0.1072 0.3924
C4B C 0.4067(9) -0.1308(9) 0.0198(16)
C3O C 0.5700(8) 0.1179(8) 0.3941(14)
H5O H 0.5218 0.0136 0.3837
C8O C 0.4061(7) 0.1845(7) 0.1419(14)
H1O H 0.6072 0.2265 0.3924
C4C C 0.6308(9) 0.4067(9) 0.0198(16)
H2A H -0.1391 0.0380 0.0466
H3A H -0.1162 0.0961 -0.0802
H4A H -0.1796 0.1233 0.0354
C4L C 0.0933(9) -0.1308(9) 0.4802(16)
H2B H 0.4620 -0.1391 0.0466
H3B H 0.4039 -0.1162 -0.0802
H4B H 0.3767 -0.1796 0.0354
C4O C 0.6308(9) 0.0933(9) 0.4802(16)
H2C H 0.6391 0.4620 0.0466
H3C H 0.6162 0.4039 -0.0802
H4C H 0.6796 0.3767 0.0354
H2L H 0.0380 -0.1391 0.4534
H3L H 0.0961 -0.1162 0.5802
H4L H 0.1233 -0.1796 0.4646
H2O H 0.6391 0.0380 0.4534
H3O H 0.6162 0.0961 0.5802
H4O H 0.6796 0.1233 0.4646
Br1? Br 0.2500 0.7500 0.2108
loop_
_geom_bond_atom_site_label_1
_geom_bond_atom_site_label_2
_geom_bond_site_symmetry_1
_geom_bond_site_symmetry_2
K1 N1 1_555 1_555
C1 C2 1_555 1_555
C2 C3 1_555 1_555
C3 C4 1_555 1_555
C4 H2 1_555 1_555
C5 C3 1_555 1_555
C6 C5 1_555 1_555
C7 C1 1_555 1_555
C8 C7 1_555 1_555
N1 C8 1_555 1_555
N2 C9 1_555 1_555
C9 C10 1_555 1_555
C10 C11 1_555 1_555
C11 C10N 1_555 1_555
H1 C2 1_555 1_555
H3 C4 1_555 1_555
H4 C4 1_555 1_555
H5 C5 1_555 1_555
N1A K1 1_555 1_555
N1B K1 1_555 1_555
N1C K1 1_555 1_555
C1N C1 1_555 1_555
C6M C6 1_555 1_555
C8A N1A 1_555 1_555
C8B N1B 1_555 1_555
C8C N1C 1_555 1_555
C2N C1N 1_555 1_555
C7N C1N 1_555 1_555
C5M C6M 1_555 1_555
C7M C6M 1_555 1_555
C7A C8A 1_555 1_555
C7B C8B 1_555 1_555
C7C C8C 1_555 1_555
C3N C2N 1_555 1_555
H1N C2N 1_555 1_555
C6N C7N 1_555 1_555
C8N C7N 1_555 1_555
C3M C5M 1_555 1_555
H5M C5M 1_555 1_555
C1M C7M 1_555 1_555
C8M C7M 1_555 1_555
C1A C7A 1_555 1_555
C6A C7A 1_555 1_555
C1B C7B 1_555 1_555
C6B C7B 1_555 1_555
C1C C7C 1_555 1_555
C6C C7C 1_555 1_555
C4N C3N 1_555 1_555
C5N C3N 1_555 1_555
N1N C8N 1_555 1_555
C2M C3M 1_555 1_555
C4M C3M 1_555 1_555
N1M C8M 1_555 1_555
C2A C1A 1_555 1_555
C5A C6A 1_555 1_555
C6L C6A 1_555 1_555
C1L C1B 1_555 1_555
C2B C1B 1_555 1_555
C5B C6B 1_555 1_555
C6O C6B 1_555 1_555
C1O C1C 1_555 1_555
C2C C1C 1_555 1_555
C5C C6C 1_555 1_555
H2N C4N 1_555 1_555
H3N C4N 1_555 1_555
H4N C4N 1_555 1_555
H5N C5N 1_555 1_555
K1L N1N 1_555 1_555
H1M C2M 1_555 1_555
H2M C4M 1_555 1_555
H3M C4M 1_555 1_555
H4M C4M 1_555 1_555
C3A C2A 1_555 1_555
H1A C2A 1_555 1_555
H5A C5A 1_555 1_555
C5L C6L 1_555 1_555
C7L C6L 1_555 1_555
C2L C1L 1_555 1_555
C3B C2B 1_555 1_555
H1B C2B 1_555 1_555
H5B C5B 1_555 1_555
C5O C6O 1_555 1_555
C7O C6O 1_555 1_555
C2O C1O 1_555 1_555
C3C C2C 1_555 1_555
H1C C2C 1_555 1_555
H5C C5C 1_555 1_555
N1L K1L 1_555 1_555
N1O K1L 1_555 1_555
C4A C3A 1_555 1_555
C3L C5L 1_555 1_555
H5L C5L 1_555 1_555
C8L C7L 1_555 1_555
H1L C2L 1_555 1_555
C4B C3B 1_555 1_555
C3O C5O 1_555 1_555
H5O C5O 1_555 1_555
C8O C7O 1_555 1_555
H1O C2O 1_555 1_555
C4C C3C 1_555 1_555
H2A C4A 1_555 1_555
H3A C4A 1_555 1_555
H4A C4A 1_555 1_555
C4L C3L 1_555 1_555
H2B C4B 1_555 1_555
H3B C4B 1_555 1_555
H4B C4B 1_555 1_555
C4O C3O 1_555 1_555
H2C C4C 1_555 1_555
H3C C4C 1_555 1_555
H4C C4C 1_555 1_555
H2L C4L 1_555 1_555
H3L C4L 1_555 1_555
H4L C4L 1_555 1_555
H2O C4O 1_555 1_555
H3O C4O 1_555 1_555
H4O C4O 1_555 1_555
C9N N2 1_555 1_555
C10N C9N 1_555 1_555
C6 C7 1_555 1_555
C6N C5N 1_555 1_555
C6N C6C 1_555 1_555
C1M C1A 1_555 1_555
C1M C2M 1_555 1_555
N1M K1L 1_555 1_555
C5A C3A 1_555 1_555
C1L C7L 1_555 1_555
C5B C3B 1_555 1_555
C1O C7O 1_555 1_555
C5C C3C 1_555 1_555
C2L C3L 1_555 1_555
C2O C3O 1_555 1_555
N1L C8L 1_555 1_555
N1O C8O 1_555 1_555

#END
