
#######################################################################
#
#                 Cambridge Crystallographic Data Centre
#                                CCDC 
#
#######################################################################
#
# If this CIF has been generated from an entry in the Cambridge 
# Structural Database, then it will include bibliographic, chemical, 
# crystal, experimental, refinement or atomic coordinate data resulting 
# from the CCDC's data processing and validation procedures.
#
#######################################################################

data_JECFIG
_chemical_name_common            'Octacyanospherand dihydrate'
_chemical_formula_moiety         'C64 H40 N8,2(H2 O1)'
_chemical_name_systematic        
'4,9,14,19,24,29,34,39-Octamethyl-nonacyclo (35.3.1.1^2,6^.1^7,11^.1^12,16^.1^17,21^.1^22,26^.1^27,31^.1^32,36^)-octatetraconta-1(41),2,4,6(48),7,9,11(47),12,14,16(46),17,19,21(45),22,24,26(44),27,29,31(43),32,34,36(42),37,39-tetracosaene-41,42,43,44,45,46,47,48-octacarbonitrile dihydrate'
_symmetry_cell_setting           tetragonal
_symmetry_space_group_name_H-M   'P -4 n 2'
_symmetry_Int_Tables_number      118
_space_group_name_Hall           'P -4 -2n'
loop_
_symmetry_equiv_pos_site_id
_symmetry_equiv_pos_as_xyz
1 x,y,z
2 -y,x,-z
3 -x,-y,z
4 y,-x,-z
5 1/2-x,1/2+y,1/2+z
6 1/2+y,1/2+x,1/2-z
7 1/2+x,1/2-y,1/2+z
8 1/2-y,1/2-x,1/2-z
_cell_length_a                   11.8540(12)
_cell_length_b                   11.8540(12)
_cell_length_c                   19.5392(20)
_cell_angle_alpha                90
_cell_angle_beta                 90
_cell_angle_gamma                90
_cell_volume                     2745.6
_exptl_crystal_colour            'pale yellow'
_chemical_melting_point          'above 360deg.C'
_cell_formula_units_Z            2
loop_
_atom_site_label
_atom_site_type_symbol
_atom_site_fract_x
_atom_site_fract_y
_atom_site_fract_z
N1 N 0.4137(10) 0.1660(10) 1.12428(63)
N2 N 0.7758(11) 0.0099(10) 1.19007(54)
C1 C 0.4880(11) 0.1408(12) 1.0906(7)
C2 C 0.5776(9) 0.1119(9) 1.0415(5)
C3 C 0.5539(9) 0.0305(9) 0.9909(5)
C4 C 0.6374(9) 0.0117(9) 0.9411(5)
H1 H 0.6202 -0.0461 0.8997
C5 C 0.7373(9) 0.0643(10) 0.9434(5)
C6 C 0.8282(13) 0.0455(13) 0.8896(7)
H2 H 0.9100 0.0857 0.8906
H3 H 0.7756 0.0862 0.8518
H4 H 0.8380 -0.0425 0.8767
C7 C 0.7600(9) 0.1470(9) 0.9958(5)
H5 H 0.8392 0.1920 0.9968
C8 C 0.6787(9) 0.1663(9) 1.0443(5)
C9 C 0.7037(8) 0.2521(8) 1.1004(4)
C10 C 0.6820(10) 0.3641(9) 1.0886(6)
H6 H 0.6524 0.3895 1.0386
C11 C 0.6977(10) 0.4465(10) 1.1384(6)
C12 C 0.6748(12) 0.5694(11) 1.1238(7)
H7 H 0.6510 0.5746 1.0706
H8 H 0.7615 0.5959 1.1296
H9 H 0.6208 0.6236 1.1538
C13 C 0.7393(10) 0.4088(10) 1.2026(6)
H10 H 0.7560 0.4705 1.2419
C14 C 0.7586(8) 0.2969(9) 1.2163(4)
C15 C 0.7397(9) 0.2191(9) 1.1628(4)
C16 C 0.7592(10) 0.1002(12) 1.1786(6)
C3B C 0.4461(9) -0.0305(9) 0.9909(5)
C14E C 0.7969(9) 0.2586(8) 1.2837(4)
C2B C 0.4224(9) -0.1119(9) 1.0415(5)
C4B C 0.3626(9) -0.0117(9) 0.9411(5)
C13E C 0.9088(10) 0.2393(10) 1.2974(6)
C15E C 0.7191(9) 0.2397(9) 1.3372(4)
C1B C 0.5120(11) -0.1408(12) 1.0906(7)
C8B C 0.3213(9) -0.1663(9) 1.0443(5)
H1B H 0.3798 0.0461 0.8997
C5B C 0.2627(9) -0.0643(10) 0.9434(5)
C11E C 0.9465(10) 0.1977(10) 1.3616(6)
H10E H 0.9705 0.2560 1.2581
C9E C 0.7521(8) 0.2037(8) 1.3996(4)
C16E C 0.6002(12) 0.2592(10) 1.3214(6)
N1B N 0.5863(10) -0.1660(10) 1.12428(63)
C7B C 0.2400(9) -0.1470(9) 0.9958(5)
C9B C 0.2963(8) -0.2521(8) 1.1004(4)
C6B C 0.1718(13) -0.0455(13) 0.8896(7)
C10E C 0.8641(9) 0.1820(10) 1.4114(6)
C12E C 1.0694(11) 0.1748(12) 1.3762(7)
C8E C 0.6663(9) 0.1787(9) 1.4557(5)
N2E N 0.5099(10) 0.2758(11) 1.30993(54)
H5B H 0.1608 -0.1920 0.9968
C10B C 0.3180(10) -0.3641(9) 1.0886(6)
C15B C 0.2603(9) -0.2191(9) 1.1628(4)
H2B H 0.0900 -0.0857 0.8906
H3B H 0.2244 -0.0862 0.8518
H4B H 0.1620 0.0425 0.8767
H6E H 0.8895 0.1524 1.4614
H7E H 1.0746 0.1510 1.4294
H8E H 1.0959 0.2615 1.3704
H9E H 1.1236 0.1208 1.3462
C2E C 0.6119(9) 0.0776(9) 1.4585(5)
C7E C 0.6470(9) 0.2600(9) 1.5042(5)
H6B H 0.3476 -0.3895 1.0386
C11B C 0.3023(10) -0.4465(10) 1.1384(6)
C14B C 0.2414(8) -0.2969(9) 1.2163(4)
C16B C 0.2408(10) -0.1002(12) 1.1786(6)
C1E C 0.6408(12) -0.0120(11) 1.4094(7)
C3E C 0.5305(9) 0.0539(9) 1.5091(5)
C5E C 0.5643(10) 0.2373(9) 1.5566(5)
H5E H 0.6920 0.3392 1.5032
C12B C 0.3252(12) -0.5694(11) 1.1238(7)
C13B C 0.2607(10) -0.4088(10) 1.2026(6)
C14G C 0.2031(9) -0.2586(8) 1.2837(4)
N2B N 0.2242(11) -0.0099(10) 1.19007(54)
N1E N 0.6660(10) -0.0863(10) 1.37572(63)
C3G C 0.4695(9) -0.0539(9) 1.5091(5)
C4E C 0.5117(9) 0.1374(9) 1.5589(5)
C6E C 0.5455(13) 0.3282(13) 1.6104(7)
H7B H 0.3490 -0.5746 1.0706
H8B H 0.2385 -0.5959 1.1296
H9B H 0.3792 -0.6236 1.1538
H10B H 0.2440 -0.4705 1.2419
C13G C 0.0912(10) -0.2393(10) 1.2974(6)
C15G C 0.2809(9) -0.2397(9) 1.3372(4)
C2G C 0.3881(9) -0.0776(9) 1.4585(5)
C4G C 0.4883(9) -0.1374(9) 1.5589(5)
H1E H 0.4539 0.1202 1.6003
H2E H 0.5857 0.4100 1.6094
H3E H 0.5862 0.2756 1.6482
H4E H 0.4575 0.3380 1.6233
C11G C 0.0535(10) -0.1977(10) 1.3616(6)
H10G H 0.0295 -0.2560 1.2581
C9G C 0.2479(8) -0.2037(8) 1.3996(4)
C16G C 0.3998(12) -0.2592(10) 1.3214(6)
C1G C 0.3592(12) 0.0120(11) 1.4094(7)
C8G C 0.3337(9) -0.1787(9) 1.4557(5)
H1G H 0.5461 -0.1202 1.6003
C5G C 0.4357(10) -0.2373(9) 1.5566(5)
C10G C 0.1359(9) -0.1820(10) 1.4114(6)
C12G C -0.0694(11) -0.1748(12) 1.3762(7)
N2G N 0.4901(10) -0.2758(11) 1.30993(54)
N1G N 0.3340(10) 0.0863(10) 1.37572(63)
C7G C 0.3530(9) -0.2600(9) 1.5042(5)
C6G C 0.4545(13) -0.3282(13) 1.6104(7)
H6G H 0.1105 -0.1524 1.4614
H7G H -0.0746 -0.1510 1.4294
H8G H -0.0959 -0.2615 1.3704
H9G H -0.1236 -0.1208 1.3462
H5G H 0.3080 -0.3392 1.5032
H2G H 0.4143 -0.4100 1.6094
H3G H 0.4138 -0.2756 1.6482
H4G H 0.5425 -0.3380 1.6233
O1 O 0.2514(10) 0.2486(10) 1.2500
H11 H 0.295(11) 0.2539(75) 1.2595(73)
H11G H 0.2461(75) 0.205(11) 1.2405(73)
loop_
_geom_bond_atom_site_label_1
_geom_bond_atom_site_label_2
_geom_bond_site_symmetry_1
_geom_bond_site_symmetry_2
N1 C1 1_555 1_555
N2 C16 1_555 1_555
C1 C2 1_555 1_555
C2 C3 1_555 1_555
C3 C4 1_555 1_555
C4 H1 1_555 1_555
C5 C4 1_555 1_555
C6 C5 1_555 1_555
H2 C6 1_555 1_555
H3 C6 1_555 1_555
H4 C6 1_555 1_555
C7 C5 1_555 1_555
H5 C7 1_555 1_555
C8 C2 1_555 1_555
C9 C8 1_555 1_555
C10 C9 1_555 1_555
H6 C10 1_555 1_555
C11 C10 1_555 1_555
C12 C11 1_555 1_555
H7 C12 1_555 1_555
H8 C12 1_555 1_555
H9 C12 1_555 1_555
C13 C11 1_555 1_555
H10 C13 1_555 1_555
C14 C13 1_555 1_555
C15 C9 1_555 1_555
C16 C15 1_555 1_555
O1 H11 1_555 1_555
C3B C3 1_555 1_555
C14E C14 1_555 1_555
C2B C3B 1_555 1_555
C4B C3B 1_555 1_555
C13E C14E 1_555 1_555
C15E C14E 1_555 1_555
C1B C2B 1_555 1_555
C8B C2B 1_555 1_555
H1B C4B 1_555 1_555
C5B C4B 1_555 1_555
C11E C13E 1_555 1_555
H10E C13E 1_555 1_555
C9E C15E 1_555 1_555
C16E C15E 1_555 1_555
N1B C1B 1_555 1_555
C7B C8B 1_555 1_555
C9B C8B 1_555 1_555
C6B C5B 1_555 1_555
C10E C11E 1_555 1_555
C12E C11E 1_555 1_555
C8E C9E 1_555 1_555
N2E C16E 1_555 1_555
H5B C7B 1_555 1_555
C10B C9B 1_555 1_555
C15B C9B 1_555 1_555
H2B C6B 1_555 1_555
H3B C6B 1_555 1_555
H4B C6B 1_555 1_555
H6E C10E 1_555 1_555
H7E C12E 1_555 1_555
H8E C12E 1_555 1_555
H9E C12E 1_555 1_555
C2E C8E 1_555 1_555
C7E C8E 1_555 1_555
H6B C10B 1_555 1_555
C11B C10B 1_555 1_555
C14B C15B 1_555 1_555
C16B C15B 1_555 1_555
C1E C2E 1_555 1_555
C3E C2E 1_555 1_555
C5E C7E 1_555 1_555
H5E C7E 1_555 1_555
C12B C11B 1_555 1_555
C13B C11B 1_555 1_555
C14G C14B 1_555 1_555
N2B C16B 1_555 1_555
N1E C1E 1_555 1_555
C3G C3E 1_555 1_555
C4E C3E 1_555 1_555
C6E C5E 1_555 1_555
H7B C12B 1_555 1_555
H8B C12B 1_555 1_555
H9B C12B 1_555 1_555
H10B C13B 1_555 1_555
C13G C14G 1_555 1_555
C15G C14G 1_555 1_555
C2G C3G 1_555 1_555
C4G C3G 1_555 1_555
H1E C4E 1_555 1_555
H2E C6E 1_555 1_555
H3E C6E 1_555 1_555
H4E C6E 1_555 1_555
C11G C13G 1_555 1_555
H10G C13G 1_555 1_555
C9G C15G 1_555 1_555
C16G C15G 1_555 1_555
C1G C2G 1_555 1_555
C8G C2G 1_555 1_555
H1G C4G 1_555 1_555
C5G C4G 1_555 1_555
C10G C11G 1_555 1_555
C12G C11G 1_555 1_555
N2G C16G 1_555 1_555
N1G C1G 1_555 1_555
C7G C8G 1_555 1_555
C6G C5G 1_555 1_555
H6G C10G 1_555 1_555
H7G C12G 1_555 1_555
H8G C12G 1_555 1_555
H9G C12G 1_555 1_555
H5G C7G 1_555 1_555
H2G C6G 1_555 1_555
H3G C6G 1_555 1_555
H4G C6G 1_555 1_555
H11G O1 1_555 1_555
C7 C8 1_555 1_555
C14 C15 1_555 1_555
C5B C7B 1_555 1_555
C9E C10E 1_555 1_555
C14B C13B 1_555 1_555
C5E C4E 1_555 1_555
C9G C8G 1_555 1_555
C9G C10G 1_555 1_555
C5G C7G 1_555 1_555

#END
