
#######################################################################
#
#                 Cambridge Crystallographic Data Centre
#                                CCDC 
#
#######################################################################
#
# If this CIF has been generated from an entry in the Cambridge 
# Structural Database, then it will include bibliographic, chemical, 
# crystal, experimental, refinement or atomic coordinate data resulting 
# from the CCDC's data processing and validation procedures.
#
#######################################################################

data_JECJOT
_chemical_formula_moiety         'C13 H7 F3 N4 O6'
_chemical_name_systematic        
2,4-dinitro-N-[4-nitro-3-(trifluoromethyl)phenyl]aniline
_symmetry_cell_setting           triclinic
_symmetry_space_group_name_H-M   'P -1'
_symmetry_Int_Tables_number      2
_space_group_name_Hall           '-P 1'
loop_
_symmetry_equiv_pos_site_id
_symmetry_equiv_pos_as_xyz
1 x,y,z
2 -x,-y,-z
_cell_length_a                   8.0718(6)
_cell_length_b                   8.2115(7)
_cell_length_c                   11.4425(9)
_cell_angle_alpha                76.477(3)
_cell_angle_beta                 82.582(3)
_cell_angle_gamma                70.713(3)
_cell_volume                     694.902
_exptl_crystal_description       block
_cell_formula_units_Z            2
loop_
_atom_site_label
_atom_site_type_symbol
_atom_site_fract_x
_atom_site_fract_y
_atom_site_fract_z
F1 F 0.91310(15) 0.75898(15) -0.13057(9)
F2 F 1.07266(14) 0.71742(16) 0.01606(10)
F3 F 0.86071(16) 0.95951(15) -0.02495(10)
O1 O 0.57519(17) 0.94905(17) -0.12194(12)
O2 O 0.42156(19) 0.7706(2) -0.10310(13)
N1 N 0.8215(2) 0.4066(2) 0.36832(14)
H1 H 0.873(3) 0.447(3) 0.407(2)
N2 N 0.87816(19) 0.2529(2) 0.62496(13)
N3 N 0.5332(2) 0.8188(2) -0.06953(14)
N4 N 0.69748(19) -0.2377(2) 0.57974(14)
C1 C 0.8505(2) 0.5994(2) 0.17706(16)
H2 H 0.963(3) 0.582(3) 0.1984(19)
C2 C 0.7856(2) 0.7012(2) 0.06790(16)
C3 C 0.7308(2) -0.0708(2) 0.52679(17)
C4 C 0.8159(2) 0.1723(2) 0.54620(16)
C5 C 0.7159(2) -0.0052(2) 0.40289(17)
H3 H 0.693(3) -0.072(3) 0.354(2)
C6 C 0.7490(2) 0.5122(2) 0.25966(16)
C7 C 0.7953(2) 0.2495(2) 0.42162(16)
C8 C 0.5126(2) 0.6305(2) 0.12552(17)
H4 H 0.397(3) 0.644(3) 0.107(2)
C9 C 0.5773(2) 0.5321(2) 0.23489(17)
H5 H 0.505(3) 0.479(3) 0.292(2)
C10 C 0.7811(2) 0.0153(2) 0.59878(17)
H6 H 0.793(3) -0.028(3) 0.679(2)
C11 C 0.7479(2) 0.1514(2) 0.35277(16)
H7 H 0.740(3) 0.198(3) 0.267(2)
C12 C 0.6156(2) 0.7140(2) 0.04265(16)
C13 C 0.9067(2) 0.7859(3) -0.01808(16)
O3 O 0.63999(17) -0.30519(18) 0.51531(13)
O4 O 0.72726(19) -0.30295(18) 0.68622(12)
O5 O 0.95673(17) 0.36145(17) 0.57796(12)
O6 O 0.85562(19) 0.20762(19) 0.73422(12)
loop_
_geom_bond_atom_site_label_1
_geom_bond_atom_site_label_2
_geom_bond_site_symmetry_1
_geom_bond_site_symmetry_2
F1 C13 1_555 1_555
F2 C13 1_555 1_555
F3 C13 1_555 1_555
O1 N3 1_555 1_555
O2 N3 1_555 1_555
N1 H1 1_555 1_555
N2 C4 1_555 1_555
N3 C12 1_555 1_555
N4 C3 1_555 1_555
C1 H2 1_555 1_555
C2 C1 1_555 1_555
C3 C5 1_555 1_555
C4 C7 1_555 1_555
C5 H3 1_555 1_555
C6 N1 1_555 1_555
C7 N1 1_555 1_555
C8 H4 1_555 1_555
C9 C6 1_555 1_555
H5 C9 1_555 1_555
C10 C3 1_555 1_555
H6 C10 1_555 1_555
C11 C5 1_555 1_555
H7 C11 1_555 1_555
C12 C2 1_555 1_555
C13 C2 1_555 1_555
O3 N4 1_555 1_555
O4 N4 1_555 1_555
O5 N2 1_555 1_555
O6 N2 1_555 1_555
C1 C6 1_555 1_555
C4 C10 1_555 1_555
C7 C11 1_555 1_555
C8 C9 1_555 1_555
C8 C12 1_555 1_555

#END
