
#######################################################################
#
#                 Cambridge Crystallographic Data Centre
#                                CCDC 
#
#######################################################################
#
# If this CIF has been generated from an entry in the Cambridge 
# Structural Database, then it will include bibliographic, chemical, 
# crystal, experimental, refinement or atomic coordinate data resulting 
# from the CCDC's data processing and validation procedures.
#
#######################################################################

data_JECLUY
_chemical_formula_moiety         'C16 H7 F9 O8 S3'
_chemical_name_systematic        
2-(2',4',6'-tris(Trifluoromethylsulfonylphenyl)tropolone)
_symmetry_cell_setting           triclinic
_symmetry_space_group_name_H-M   'P -1'
_symmetry_Int_Tables_number      2
_space_group_name_Hall           '-P 1'
loop_
_symmetry_equiv_pos_site_id
_symmetry_equiv_pos_as_xyz
1 x,y,z
2 -x,-y,-z
_cell_length_a                   9.543(1)
_cell_length_b                   10.248(2)
_cell_length_c                   11.815(4)
_cell_angle_alpha                89.35(2)
_cell_angle_beta                 75.78(2)
_cell_angle_gamma                81.06(1)
_cell_volume                     1106.02
_chemical_melting_point          148deg.C
_cell_formula_units_Z            2
loop_
_atom_site_label
_atom_site_type_symbol
_atom_site_fract_x
_atom_site_fract_y
_atom_site_fract_z
C1 C 0.9822(3) 0.6867(3) 0.3189(2)
C2 C 1.1347(3) 0.6820(3) 0.2500(3)
C3 C 1.2328(3) 0.5678(3) 0.2231(3)
C4 C 1.1915(3) 0.4457(3) 0.2577(3)
C5 C 1.0489(3) 0.4404(3) 0.3208(3)
C6 C 0.9487(3) 0.5526(3) 0.3504(2)
C7 C 0.8017(3) 0.8647(3) 0.3160(3)
C8 C 0.6961(4) 0.9434(4) 0.2737(3)
C9 C 0.6137(5) 1.0596(4) 0.3255(4)
C10 C 0.6166(5) 1.1245(4) 0.4270(4)
C11 C 0.7004(4) 1.0878(4) 0.5058(4)
C12 C 0.8051(4) 0.9765(3) 0.5047(3)
C13 C 0.8486(3) 0.8774(3) 0.4186(3)
C14 C 1.1826(5) 0.8277(4) 0.0437(3)
C15 C 1.2858(5) 0.2664(5) 0.0692(4)
C16 C 0.6801(4) 0.4968(4) 0.3113(3)
O1 O 0.8772(2) 0.7555(2) 0.2562(2)
O2 O 0.9515(2) 0.7756(2) 0.4246(2)
O3 O 1.3492(3) 0.8154(3) 0.1868(3)
O4 O 1.0973(3) 0.9390(2) 0.2511(2)
O5 O 1.4577(3) 0.3259(3) 0.1887(3)
O6 O 0.7773(2) 0.4142(2) 0.4886(2)
O7 O 0.6926(2) 0.6544(2) 0.4776(2)
S1 S 1.1968(1) 0.8262(1) 0.1958(1)
S2 S 1.3121(1) 0.3025(1) 0.2122(1)
S3 S 0.7729(1) 0.5326(1) 0.4244(1)
F1 F 1.2477(4) 0.7162(3) -0.0100(2)
F2 F 1.2462(4) 0.9202(3) -0.0115(2)
F3 F 1.0472(3) 0.8453(4) 0.0382(2)
F4 F 1.1504(4) 0.2506(4) 0.0788(3)
F5 F 1.3709(4) 0.1579(3) 0.0245(3)
F6 F 1.3179(5) 0.3623(3) -0.0008(2)
F7 F 0.6671(4) 0.5926(4) 0.2436(3)
F8 F 0.5521(2) 0.4698(3) 0.3617(2)
O8 O 1.2672(3) 0.1951(2) 0.2818(2)
F9 F 0.7528(3) 0.3939(4) 0.2485(3)
H1 H 1.3268(47) 0.5736(14) 0.1831(37)
H2 H 1.0238(47) 0.3732(43) 0.3413(37)
H3 H 0.6851(48) 0.9179(44) 0.1901(38)
H4 H 0.5489(7) 1.1023(43) 0.2827(38)
H5 H 0.5596(47) 1.2011(43) 0.4456(37)
H6 H 0.6828(47) 1.1470(43) 0.5754(37)
loop_
_geom_bond_atom_site_label_1
_geom_bond_atom_site_label_2
_geom_bond_site_symmetry_1
_geom_bond_site_symmetry_2
C1 C2 1_555 1_555
C2 C3 1_555 1_555
C3 C4 1_555 1_555
C4 C5 1_555 1_555
C5 C6 1_555 1_555
C6 C1 1_555 1_555
C7 C8 1_555 1_555
C8 C9 1_555 1_555
C9 C10 1_555 1_555
C10 C11 1_555 1_555
C11 C12 1_555 1_555
C12 C13 1_555 1_555
C13 C7 1_555 1_555
C14 S1 1_555 1_555
C15 S2 1_555 1_555
C16 S3 1_555 1_555
O1 C1 1_555 1_555
O2 C1 1_555 1_555
O3 S1 1_555 1_555
O4 S1 1_555 1_555
O5 S2 1_555 1_555
O6 S3 1_555 1_555
O7 S3 1_555 1_555
S1 C2 1_555 1_555
S2 C4 1_555 1_555
S3 C6 1_555 1_555
F1 C14 1_555 1_555
F2 C14 1_555 1_555
F3 C14 1_555 1_555
F4 C15 1_555 1_555
F5 C15 1_555 1_555
F6 C15 1_555 1_555
F7 C16 1_555 1_555
F8 C16 1_555 1_555
O8 S2 1_555 1_555
F9 C16 1_555 1_555
H1 C3 1_555 1_555
H2 C5 1_555 1_555
H3 C8 1_555 1_555
H4 C9 1_555 1_555
H5 C10 1_555 1_555
H6 C11 1_555 1_555
C7 O1 1_555 1_555
C13 O2 1_555 1_555

#END
