
#######################################################################
#
#                 Cambridge Crystallographic Data Centre
#                                CCDC 
#
#######################################################################
#
# If this CIF has been generated from an entry in the Cambridge 
# Structural Database, then it will include bibliographic, chemical, 
# crystal, experimental, refinement or atomic coordinate data resulting 
# from the CCDC's data processing and validation procedures.
#
#######################################################################

data_JECSUI
_chemical_formula_moiety         'C17 H13 Br1 O3'
_chemical_name_systematic        
5-(4-bromobenzene-1-carbonyl)-4-phenyloxolan-2-one
_symmetry_cell_setting           orthorhombic
_symmetry_space_group_name_H-M   'P 21 21 21'
_symmetry_Int_Tables_number      19
_space_group_name_Hall           'P 2ac 2ab'
loop_
_symmetry_equiv_pos_site_id
_symmetry_equiv_pos_as_xyz
1 x,y,z
2 1/2-x,-y,1/2+z
3 -x,1/2+y,1/2-z
4 1/2+x,1/2-y,-z
_cell_length_a                   5.7218(8)
_cell_length_b                   5.9498(8)
_cell_length_c                   42.706(6)
_cell_angle_alpha                90
_cell_angle_beta                 90
_cell_angle_gamma                90
_cell_volume                     1453.86
_exptl_crystal_colour            colorless
_exptl_crystal_description       Needle
_cell_formula_units_Z            4
loop_
_atom_site_label
_atom_site_type_symbol
_atom_site_fract_x
_atom_site_fract_y
_atom_site_fract_z
Br1 Br -0.06236(9) 1.16082(8) 0.023625(10)
O1 O 0.8175(7) 0.5334(6) 0.08579(8)
O2 O 1.0612(5) 0.7088(4) 0.13143(7)
O3 O 1.2022(6) 0.3866(6) 0.14924(9)
C1 C 0.5473(8) 0.8273(7) 0.07879(8)
C2 C 0.2695(8) 1.1277(7) 0.07285(9)
H1 H 0.2057 1.2625 0.0798
C3 C 0.6752(6) 0.8624(7) 0.18174(8)
C4 C 1.0384(8) 0.5092(7) 0.14657(10)
C5 C 0.8561(7) 0.8729(7) 0.20309(9)
H2 H 0.9877 0.7837 0.2001
C6 C 0.1842(8) 1.0250(7) 0.04618(9)
C7 C 0.4504(8) 1.0280(6) 0.08896(9)
H3 H 0.5085 1.0963 0.1069
C8 C 0.2749(8) 0.8265(8) 0.03578(10)
H4 H 0.2155 0.7585 0.0179
C9 C 0.6808(7) 0.7114(6) 0.15333(9)
H5 H 0.5209 0.6886 0.1457
C10 C 0.7411(8) 0.7116(7) 0.09537(10)
C11 C 0.4735(7) 1.1428(7) 0.21194(9)
H6 H 0.3448 1.2362 0.2147
C12 C 0.8341(6) 0.8000(7) 0.12620(8)
H7 H 0.8386 0.9647 0.1262
C13 C 0.4548(9) 0.7285(8) 0.05206(9)
H8 H 0.5162 0.5928 0.0450
C14 C 0.6530(7) 1.1464(8) 0.23326(9)
H9 H 0.6439 1.2392 0.2507
C15 C 0.7960(8) 0.4832(7) 0.15863(11)
H10 H 0.7972 0.4452 0.1807
H11 H 0.7136 0.3662 0.1473
C16 C 0.4843(6) 0.9992(7) 0.18625(9)
H12 H 0.3613 0.9957 0.1720
C17 C 0.8451(8) 1.0135(8) 0.22880(9)
H13 H 0.9681 1.0178 0.2430
loop_
_geom_bond_atom_site_label_1
_geom_bond_atom_site_label_2
_geom_bond_site_symmetry_1
_geom_bond_site_symmetry_2
Br1 C6 1_555 1_555
O1 C10 1_555 1_555
O2 C4 1_555 1_555
O3 C4 1_555 1_555
C1 C7 1_555 1_555
C2 H1 1_555 1_555
C3 C5 1_555 1_555
C4 C15 1_555 1_555
C5 H2 1_555 1_555
C6 C2 1_555 1_555
C7 C2 1_555 1_555
H3 C7 1_555 1_555
C8 C6 1_555 1_555
H4 C8 1_555 1_555
C9 C3 1_555 1_555
H5 C9 1_555 1_555
C10 C1 1_555 1_555
C11 H6 1_555 1_555
C12 O2 1_555 1_555
H7 C12 1_555 1_555
C13 C1 1_555 1_555
H8 C13 1_555 1_555
C14 C11 1_555 1_555
H9 C14 1_555 1_555
C15 C9 1_555 1_555
H10 C15 1_555 1_555
H11 C15 1_555 1_555
C16 C3 1_555 1_555
H12 C16 1_555 1_555
C17 C5 1_555 1_555
H13 C17 1_555 1_555
C8 C13 1_555 1_555
C9 C12 1_555 1_555
C10 C12 1_555 1_555
C11 C16 1_555 1_555
C14 C17 1_555 1_555

#END
