
#######################################################################
#
#                 Cambridge Crystallographic Data Centre
#                                CCDC 
#
#######################################################################
#
# If this CIF has been generated from an entry in the Cambridge 
# Structural Database, then it will include bibliographic, chemical, 
# crystal, experimental, refinement or atomic coordinate data resulting 
# from the CCDC's data processing and validation procedures.
#
#######################################################################

data_JECVAR
_chemical_formula_moiety         'C15 H15 F3 N2 O3'
_chemical_name_systematic        
3-[(hex-1-en-1-yl)(oxo)azanylidene]-5-(trifluoromethoxy)-1,3-dihydro-2H-indol-2-one
_symmetry_cell_setting           triclinic
_symmetry_space_group_name_H-M   'P -1'
_symmetry_Int_Tables_number      2
_space_group_name_Hall           '-P 1'
loop_
_symmetry_equiv_pos_site_id
_symmetry_equiv_pos_as_xyz
1 x,y,z
2 -x,-y,-z
_cell_length_a                   5.158(4)
_cell_length_b                   9.565(7)
_cell_length_c                   16.058(11)
_cell_angle_alpha                87.872(11)
_cell_angle_beta                 87.558(11)
_cell_angle_gamma                83.708(12)
_cell_volume                     786.334
_exptl_crystal_colour            'metallic black'
_exptl_crystal_description       block
_cell_formula_units_Z            2
loop_
_atom_site_label
_atom_site_type_symbol
_atom_site_fract_x
_atom_site_fract_y
_atom_site_fract_z
N1 N 0.1314(4) 0.7864(2) 0.53613(14)
O1 O 0.2977(4) 0.8391(2) 0.57910(13)
O2 O -0.2823(4) 0.6276(2) 0.45644(11)
C1 C -0.0213(5) 0.6953(2) 0.57191(16)
C2 C -0.0198(5) 0.6469(3) 0.65721(17)
N2 N -0.3183(4) 0.5370(2) 0.59059(14)
H1 H -0.4363 0.4824 0.5829
C3 C -0.2044(6) 0.5495(3) 0.66640(17)
C4 C 0.1148(5) 0.8258(3) 0.44927(18)
H2 H -0.0122 0.7921 0.4184
C5 C 0.2747(6) 0.9084(3) 0.4123(2)
H3 H 0.3971 0.9432 0.4446
C6 C -0.2194(5) 0.6222(3) 0.52988(16)
C7 C -0.2539(8) 0.4795(4) 0.7409(2)
H4 H -0.3779 0.4157 0.7457
C8 C 0.2729(7) 0.9496(4) 0.3227(2)
H5 H 0.2370 1.0511 0.3173
H6 H 0.1318 0.9089 0.2977
C9 C 0.1223(6) 0.6751(4) 0.72600(18)
H7 H 0.2452 0.7395 0.7223
C10 C 0.0704(8) 0.6026(5) 0.7989(2)
O3 O 0.2267(7) 0.6247(5) 0.86795(19)
C11 C 0.5228(8) 0.9049(5) 0.2750(2)
H8 H 0.5736 0.8060 0.2876
H9 H 0.6586 0.9573 0.2939
C12 C -0.1102(9) 0.5083(5) 0.8088(2)
H10 H -0.1372 0.4635 0.8603
F1 F 0.0134(16) 0.8242(6) 0.9041(3)
C13 C 0.5061(15) 0.9267(9) 0.1817(4)
H11 H 0.3345 0.9062 0.1666
H12 H 0.5169 1.0258 0.1685
F2 F 0.3043(11) 0.7117(7) 0.9825(2)
F3 F -0.0581(13) 0.6519(7) 0.9696(3)
C14 C 0.1344(19) 0.6983(9) 0.9274(3)
C15 C 0.688(3) 0.8506(11) 0.1311(4)
H13 H 0.7021 0.8990 0.0779
H14 H 0.6336 0.7592 0.1235
H15 H 0.8540 0.8407 0.1566
loop_
_geom_bond_atom_site_label_1
_geom_bond_atom_site_label_2
_geom_bond_site_symmetry_1
_geom_bond_site_symmetry_2
N1 O1 1_555 1_555
O2 C6 1_555 1_555
C1 N1 1_555 1_555
C2 C1 1_555 1_555
N2 H1 1_555 1_555
C3 C2 1_555 1_555
C4 N1 1_555 1_555
H2 C4 1_555 1_555
C5 C4 1_555 1_555
H3 C5 1_555 1_555
C6 C1 1_555 1_555
C7 C3 1_555 1_555
H4 C7 1_555 1_555
C8 C5 1_555 1_555
H5 C8 1_555 1_555
H6 C8 1_555 1_555
C9 C2 1_555 1_555
H7 C9 1_555 1_555
C10 C9 1_555 1_555
O3 C10 1_555 1_555
C11 C8 1_555 1_555
H8 C11 1_555 1_555
H9 C11 1_555 1_555
C12 C7 1_555 1_555
H10 C12 1_555 1_555
F1 C14 1_555 1_555
C13 C11 1_555 1_555
H11 C13 1_555 1_555
H12 C13 1_555 1_555
F2 C14 1_555 1_555
F3 C14 1_555 1_555
C14 O3 1_555 1_555
C15 C13 1_555 1_555
H13 C15 1_555 1_555
H14 C15 1_555 1_555
H15 C15 1_555 1_555
N2 C3 1_555 1_555
N2 C6 1_555 1_555
C10 C12 1_555 1_555

#END
