
#######################################################################
#
#                 Cambridge Crystallographic Data Centre
#                                CCDC 
#
#######################################################################
#
# If this CIF has been generated from an entry in the Cambridge 
# Structural Database, then it will include bibliographic, chemical, 
# crystal, experimental, refinement or atomic coordinate data resulting 
# from the CCDC's data processing and validation procedures.
#
#######################################################################

data_JECWIA
_chemical_formula_moiety         'C24 H14 N2 S1'
_chemical_name_systematic        
3-(anthracen-9-yl)-2-(1,3-benzothiazol-2-yl)prop-2-enenitrile
_symmetry_cell_setting           monoclinic
_symmetry_space_group_name_H-M   'P 21/c'
_symmetry_Int_Tables_number      14
_space_group_name_Hall           '-P 2ybc'
loop_
_symmetry_equiv_pos_site_id
_symmetry_equiv_pos_as_xyz
1 x,y,z
2 -x,1/2+y,1/2-z
3 -x,-y,-z
4 x,1/2-y,1/2+z
_cell_length_a                   12.0615(5)
_cell_length_b                   13.9829(5)
_cell_length_c                   11.3318(5)
_cell_angle_alpha                90
_cell_angle_beta                 111.927(5)
_cell_angle_gamma                90
_cell_volume                     1772.91
_exptl_crystal_colour            'light yellow'
_exptl_crystal_description       block
_cell_formula_units_Z            4
loop_
_atom_site_label
_atom_site_type_symbol
_atom_site_fract_x
_atom_site_fract_y
_atom_site_fract_z
S1 S 0.78735(5) 0.22932(4) 0.38623(5)
N1 N 0.65515(18) 0.05934(17) -0.05098(18)
N2 N 0.84824(14) 0.20293(13) 0.19117(15)
C1 C 0.61858(17) 0.06659(16) 0.36333(18)
C2 C 0.71277(17) 0.02321(16) 0.46244(18)
C3 C 0.80532(19) -0.03098(18) 0.4435(2)
H1 H 0.8033 -0.0396 0.3613
C4 C 0.8957(2) -0.06994(18) 0.5425(2)
H2 H 0.9551 -0.1043 0.5274
C5 C 0.9011(2) -0.05910(18) 0.6681(2)
H3 H 0.9636 -0.0864 0.7353
C6 C 0.8155(2) -0.00911(17) 0.6909(2)
H4 H 0.8199 -0.0025 0.7742
C7 C 0.71897(18) 0.03365(16) 0.59097(19)
C8 C 0.63099(19) 0.08625(16) 0.6136(2)
H5 H 0.6356 0.0934 0.6969
C9 C 0.53697(18) 0.12819(16) 0.5163(2)
C10 C 0.4462(2) 0.18166(18) 0.5395(2)
H6 H 0.4502 0.1886 0.6226
C11 C 0.3554(2) 0.22211(19) 0.4445(3)
H7 H 0.2982 0.2574 0.4623
C12 C 0.3464(2) 0.21113(19) 0.3166(2)
H8 H 0.2826 0.2387 0.2511
C13 C 0.42998(19) 0.16068(18) 0.2890(2)
H9 H 0.4226 0.1542 0.2047
C14 C 0.52895(18) 0.11757(16) 0.38748(19)
C15 C 0.61111(18) 0.05746(17) 0.23015(19)
H10 H 0.5536 0.0162 0.1769
C16 C 0.68064(17) 0.10388(16) 0.18038(18)
C17 C 0.66674(19) 0.08065(18) 0.0503(2)
C18 C 0.77301(17) 0.17556(15) 0.24205(18)
C19 C 0.90697(18) 0.29433(16) 0.37916(19)
C20 C 0.98085(19) 0.35841(16) 0.46757(19)
H11 H 0.9669 0.3742 0.5406
C21 C 1.09466(18) 0.37455(17) 0.3329(2)
H12 H 1.1587 0.4021 0.3186
C22 C 1.07546(19) 0.39789(17) 0.4440(2)
H13 H 1.1268 0.4403 0.5022
C23 C 1.02166(18) 0.31219(17) 0.2449(2)
H14 H 1.0351 0.2980 0.1712
C24 C 0.92646(17) 0.27032(16) 0.26801(18)
loop_
_geom_bond_atom_site_label_1
_geom_bond_atom_site_label_2
_geom_bond_site_symmetry_1
_geom_bond_site_symmetry_2
S1 C18 1_555 1_555
N1 C17 1_555 1_555
N2 C18 1_555 1_555
C1 C2 1_555 1_555
C2 C3 1_555 1_555
C3 H1 1_555 1_555
C4 C3 1_555 1_555
H2 C4 1_555 1_555
C5 C4 1_555 1_555
H3 C5 1_555 1_555
C6 C5 1_555 1_555
H4 C6 1_555 1_555
C7 C2 1_555 1_555
C8 C7 1_555 1_555
H5 C8 1_555 1_555
C9 C8 1_555 1_555
C10 C9 1_555 1_555
H6 C10 1_555 1_555
C11 C10 1_555 1_555
H7 C11 1_555 1_555
C12 C11 1_555 1_555
H8 C12 1_555 1_555
C13 C12 1_555 1_555
H9 C13 1_555 1_555
C14 C1 1_555 1_555
C15 C1 1_555 1_555
H10 C15 1_555 1_555
C16 C15 1_555 1_555
C17 C16 1_555 1_555
C18 C16 1_555 1_555
C19 S1 1_555 1_555
C20 C19 1_555 1_555
H11 C20 1_555 1_555
C21 H12 1_555 1_555
C22 C20 1_555 1_555
H13 C22 1_555 1_555
C23 C21 1_555 1_555
H14 C23 1_555 1_555
C24 N2 1_555 1_555
C6 C7 1_555 1_555
C9 C14 1_555 1_555
C13 C14 1_555 1_555
C19 C24 1_555 1_555
C21 C22 1_555 1_555
C23 C24 1_555 1_555

#END
