
#######################################################################
#
#                 Cambridge Crystallographic Data Centre
#                                CCDC 
#
#######################################################################
#
# If this CIF has been generated from an entry in the Cambridge 
# Structural Database, then it will include bibliographic, chemical, 
# crystal, experimental, refinement or atomic coordinate data resulting 
# from the CCDC's data processing and validation procedures.
#
#######################################################################

data_JECZID
_chemical_formula_moiety         'C19 H18 N2 O2'
_chemical_name_systematic        
'ethyl 1-benzyl-5-phenyl-1H-pyrazole-3-carboxylate'
_symmetry_cell_setting           triclinic
_symmetry_space_group_name_H-M   'P -1'
_symmetry_Int_Tables_number      2
_space_group_name_Hall           '-P 1'
loop_
_symmetry_equiv_pos_site_id
_symmetry_equiv_pos_as_xyz
1 x,y,z
2 -x,-y,-z
_cell_length_a                   9.8324(19)
_cell_length_b                   10.590(2)
_cell_length_c                   17.794(3)
_cell_angle_alpha                77.080(3)
_cell_angle_beta                 81.720(4)
_cell_angle_gamma                64.958(3)
_cell_volume                     1633.58
_exptl_crystal_colour            colorless
_exptl_crystal_description       block
_cell_formula_units_Z            4
loop_
_atom_site_label
_atom_site_type_symbol
_atom_site_fract_x
_atom_site_fract_y
_atom_site_fract_z
C1 C 0.6289(3) 0.2789(3) 0.37972(15)
C2 C 0.5534(3) 0.4241(3) 0.35759(16)
H1 H 0.6056 0.4817 0.3506
C3 C 0.4010(4) 0.4844(4) 0.34571(17)
H2 H 0.3515 0.5820 0.3309
C4 C 0.3228(4) 0.4000(4) 0.35581(18)
H3 H 0.2203 0.4405 0.3483
C5 C 0.3963(4) 0.2562(4) 0.37695(19)
H4 H 0.3438 0.1989 0.3831
C6 C 0.5479(3) 0.1958(3) 0.38920(17)
H5 H 0.5966 0.0980 0.4040
C7 C 0.7919(3) 0.2085(3) 0.39019(15)
C8 C 0.8955(3) 0.0861(3) 0.36723(16)
H6 H 0.8783 0.0298 0.3396
C9 C 1.0317(3) 0.0638(3) 0.39400(15)
C10 C 1.1760(3) -0.0560(3) 0.38284(17)
C11 C 1.4391(3) -0.1597(4) 0.3965(2)
H7 H 1.4304 -0.2500 0.4072
H8 H 1.5073 -0.1640 0.4323
C12 C 1.5017(4) -0.1362(4) 0.3170(2)
H9 H 1.4366 -0.1359 0.2815
H10 H 1.5995 -0.2106 0.3114
H11 H 1.5099 -0.0466 0.3061
C13 C 0.8159(3) 0.3770(3) 0.46425(15)
H12 H 0.8597 0.3512 0.5138
H13 H 0.7077 0.4110 0.4735
C14 C 0.8536(3) 0.4959(3) 0.41503(14)
C15 C 0.8987(3) 0.4984(3) 0.33803(15)
H14 H 0.9057 0.4256 0.3146
C16 C 0.9338(3) 0.6085(3) 0.29488(17)
H15 H 0.9630 0.6093 0.2427
C17 C 0.9256(3) 0.7161(3) 0.32888(19)
H16 H 0.9508 0.7890 0.3002
C18 C 0.8798(4) 0.7151(3) 0.40583(19)
H17 H 0.8730 0.7878 0.4293
C19 C 0.8440(3) 0.6065(3) 0.44799(17)
H18 H 0.8127 0.6072 0.4998
N1 N 0.8698(2) 0.2515(2) 0.42923(12)
N2 N 1.0173(2) 0.1652(2) 0.43166(12)
O1 O 1.1868(2) -0.1508(2) 0.35247(15)
O2 O 1.2920(2) -0.0476(2) 0.40866(12)
C20 C 0.4558(3) 0.5797(3) 0.13977(15)
C21 C 0.5311(3) 0.6646(3) 0.14005(16)
H19 H 0.4775 0.7624 0.1322
C22 C 0.6825(3) 0.6090(3) 0.15148(17)
H20 H 0.7300 0.6685 0.1516
C23 C 0.7626(3) 0.4642(3) 0.16281(16)
H21 H 0.8651 0.4255 0.1702
C24 C 0.6917(3) 0.3775(3) 0.16325(16)
H22 H 0.7463 0.2798 0.1711
C25 C 0.5398(3) 0.4337(3) 0.15219(16)
H23 H 0.4929 0.3734 0.1530
C26 C 0.2928(3) 0.6494(3) 0.12913(15)
C27 C 0.1893(3) 0.7715(3) 0.15393(16)
H24 H 0.2070 0.8246 0.1835
C28 C 0.0534(3) 0.7984(3) 0.12551(16)
C29 C -0.0913(3) 0.9190(3) 0.1356(2)
C30 C -0.3555(5) 1.0308(4) 0.1108(3)
H25 H -0.4305 0.9920 0.1277
H26 H -0.3572 1.0869 0.1475
C31 C -0.3773(9) 1.1033(7) 0.0442(3)
H27 H -0.2826 1.0853 0.0154
H28 H -0.4266 1.2020 0.0473
H29 H -0.4393 1.0780 0.0187
C32 C 0.2592(3) 0.4907(3) 0.04942(15)
H30 H 0.3677 0.4513 0.0408
H31 H 0.2159 0.5236 -0.0006
C33 C 0.2123(3) 0.3761(3) 0.09442(14)
C34 C 0.2179(3) 0.3381(3) 0.17408(15)
H32 H 0.2481 0.3869 0.2009
C35 C 0.1798(3) 0.2295(3) 0.21418(17)
H33 H 0.1850 0.2055 0.2676
C36 C 0.1337(3) 0.1559(3) 0.17561(19)
H34 H 0.1087 0.0820 0.2026
C37 C 0.1253(4) 0.1937(3) 0.0967(2)
H35 H 0.0930 0.1461 0.0701
C38 C 0.1649(3) 0.3028(3) 0.05645(16)
H36 H 0.1594 0.3269 0.0031
N3 N 0.2126(2) 0.6112(2) 0.08842(12)
N4 N 0.0663(3) 0.7009(2) 0.08561(13)
O3 O -0.1091(2) 1.0084(2) 0.17138(15)
O4 O -0.2016(3) 0.9152(3) 0.10171(18)
loop_
_geom_bond_atom_site_label_1
_geom_bond_atom_site_label_2
_geom_bond_site_symmetry_1
_geom_bond_site_symmetry_2
C1 C2 1_555 1_555
C2 H1 1_555 1_555
C3 C2 1_555 1_555
H2 C3 1_555 1_555
C4 C3 1_555 1_555
H3 C4 1_555 1_555
C5 C4 1_555 1_555
H4 C5 1_555 1_555
C6 C1 1_555 1_555
H5 C6 1_555 1_555
C7 C1 1_555 1_555
C8 C7 1_555 1_555
H6 C8 1_555 1_555
C9 C8 1_555 1_555
C10 C9 1_555 1_555
C11 H7 1_555 1_555
H8 C11 1_555 1_555
C12 C11 1_555 1_555
H9 C12 1_555 1_555
H10 C12 1_555 1_555
H11 C12 1_555 1_555
C13 H12 1_555 1_555
H13 C13 1_555 1_555
C14 C13 1_555 1_555
C15 C14 1_555 1_555
H14 C15 1_555 1_555
C16 C15 1_555 1_555
H15 C16 1_555 1_555
C17 C16 1_555 1_555
H16 C17 1_555 1_555
C18 C17 1_555 1_555
H17 C18 1_555 1_555
C19 C14 1_555 1_555
H18 C19 1_555 1_555
N1 C7 1_555 1_555
N2 C9 1_555 1_555
O1 C10 1_555 1_555
O2 C10 1_555 1_555
C20 C21 1_555 1_555
C21 H19 1_555 1_555
C22 C21 1_555 1_555
H20 C22 1_555 1_555
C23 C22 1_555 1_555
H21 C23 1_555 1_555
C24 C23 1_555 1_555
H22 C24 1_555 1_555
C25 C20 1_555 1_555
H23 C25 1_555 1_555
C26 C20 1_555 1_555
C27 C26 1_555 1_555
H24 C27 1_555 1_555
C28 C27 1_555 1_555
C29 C28 1_555 1_555
C30 H25 1_555 1_555
H26 C30 1_555 1_555
C31 C30 1_555 1_555
H27 C31 1_555 1_555
H28 C31 1_555 1_555
H29 C31 1_555 1_555
C32 H30 1_555 1_555
H31 C32 1_555 1_555
C33 C32 1_555 1_555
C34 C33 1_555 1_555
H32 C34 1_555 1_555
C35 C34 1_555 1_555
H33 C35 1_555 1_555
C36 C35 1_555 1_555
H34 C36 1_555 1_555
C37 C36 1_555 1_555
H35 C37 1_555 1_555
C38 C33 1_555 1_555
H36 C38 1_555 1_555
N3 C26 1_555 1_555
N4 C28 1_555 1_555
O3 C29 1_555 1_555
O4 C29 1_555 1_555
C5 C6 1_555 1_555
C11 O2 1_555 1_555
C13 N1 1_555 1_555
C18 C19 1_555 1_555
N1 N2 1_555 1_555
C24 C25 1_555 1_555
C30 O4 1_555 1_555
C32 N3 1_555 1_555
C37 C38 1_555 1_555
N3 N4 1_555 1_555

#END
