
#######################################################################
#
#                 Cambridge Crystallographic Data Centre
#                                CCDC 
#
#######################################################################
#
# If this CIF has been generated from an entry in the Cambridge 
# Structural Database, then it will include bibliographic, chemical, 
# crystal, experimental, refinement or atomic coordinate data resulting 
# from the CCDC's data processing and validation procedures.
#
#######################################################################

data_JEDJEK
_chemical_formula_moiety         'C47 H34 N2 O4,C1 H1 Cl3'
_chemical_name_systematic        
'2-(2,6-diisopropylphenyl)-8-(2-methyl-1,3-dioxo-2,3-dihydro-1H-benzo[de]isoquinolin-6-yl)-1H-benzo[5,10]anthra[2,1,9-def]isoquinoline-1,3(2H)-dione chloroform solvate'
_symmetry_cell_setting           triclinic
_symmetry_space_group_name_H-M   'P -1'
_symmetry_Int_Tables_number      2
_space_group_name_Hall           '-P 1'
loop_
_symmetry_equiv_pos_site_id
_symmetry_equiv_pos_as_xyz
1 x,y,z
2 -x,-y,-z
_cell_length_a                   9.353(6)
_cell_length_b                   14.518(11)
_cell_length_c                   15.869(11)
_cell_angle_alpha                68.16(2)
_cell_angle_beta                 75.46(3)
_cell_angle_gamma                83.60(3)
_cell_volume                     1935.69
_exptl_crystal_colour            red
_exptl_crystal_description       block
_cell_formula_units_Z            2
loop_
_atom_site_label
_atom_site_type_symbol
_atom_site_fract_x
_atom_site_fract_y
_atom_site_fract_z
C1 C 0.8052(7) -0.1057(4) 0.9633(4)
H1 H 0.8336 -0.1598 1.0105
C2 C 0.8983(7) -0.0254(4) 0.9149(4)
H2 H 0.9886 -0.0270 0.9302
C3 C 0.8599(6) 0.0570(4) 0.8446(3)
C4 C 0.7244(6) 0.0534(4) 0.8229(3)
C5 C 0.6284(6) -0.0262(4) 0.8695(3)
C6 C 0.6720(7) -0.1059(4) 0.9423(4)
H3 H 0.6098 -0.1593 0.9765
C7 C 0.9598(6) 0.1462(4) 0.7969(4)
H4 H 0.9274 0.1892 0.7405
C8 C 0.9458(9) 0.2056(5) 0.8606(5)
H5 H 0.8439 0.2231 0.8793
H6 H 1.0024 0.2648 0.8276
H7 H 0.9824 0.1660 0.9147
C9 C 1.1218(8) 0.1199(7) 0.7687(7)
H8 H 1.1781 0.1796 0.7392
H9 H 1.1340 0.0855 0.7261
H10 H 1.1560 0.0781 0.8231
C10 C 0.4844(6) -0.0323(4) 0.8427(4)
H11 H 0.4521 0.0359 0.8115
C11 C 0.3586(7) -0.0812(5) 0.9263(5)
H12 H 0.3434 -0.0476 0.9698
H13 H 0.3841 -0.1496 0.9562
H14 H 0.2697 -0.0771 0.9052
C12 C 0.5087(8) -0.0851(6) 0.7741(5)
H15 H 0.4169 -0.0878 0.7585
H16 H 0.5455 -0.1513 0.8015
H17 H 0.5793 -0.0497 0.7186
C13 C 0.7432(6) 0.1311(4) 0.6569(3)
C14 C 0.6758(5) 0.1983(4) 0.5799(3)
C15 C 0.5635(5) 0.2665(3) 0.5947(3)
C16 C 0.5178(5) 0.2742(4) 0.6845(3)
C17 C 0.5815(6) 0.2074(4) 0.7633(3)
C18 C 0.7224(6) 0.1931(4) 0.4926(4)
H18 H 0.7998 0.1500 0.4812
C19 C 0.6551(6) 0.2517(4) 0.4207(3)
H19 H 0.6889 0.2465 0.3623
C20 C 0.5413(5) 0.3165(3) 0.4328(3)
C21 C 0.4961(5) 0.3271(3) 0.5216(3)
C22 C 0.3847(5) 0.3968(3) 0.5381(3)
C23 C 0.3443(6) 0.4012(4) 0.6268(4)
H20 H 0.2699 0.4458 0.6389
C24 C 0.4106(6) 0.3418(4) 0.6979(3)
H21 H 0.3813 0.3482 0.7560
C25 C 0.4623(5) 0.3746(4) 0.3593(3)
C26 C 0.3535(5) 0.4461(3) 0.3753(3)
C27 C 0.3135(5) 0.4607(3) 0.4620(3)
C28 C 0.4911(6) 0.3606(4) 0.2752(4)
H22 H 0.5606 0.3125 0.2653
C29 C 0.4197(6) 0.4160(4) 0.2051(4)
H23 H 0.4416 0.4033 0.1499
C30 C 0.3181(6) 0.4888(4) 0.2146(3)
C31 C 0.2807(6) 0.5043(4) 0.3015(3)
C32 C 0.1777(6) 0.5780(4) 0.3162(4)
H24 H 0.1329 0.6179 0.2684
C33 C 0.1422(6) 0.5918(4) 0.3996(4)
H25 H 0.0731 0.6405 0.4085
C34 C 0.2107(6) 0.5322(4) 0.4723(4)
H26 H 0.1847 0.5420 0.5289
C35 C 0.2536(6) 0.5485(4) 0.1323(4)
C36 C 0.3465(6) 0.6069(4) 0.0525(3)
H27 H 0.4447 0.6119 0.0528
C37 C 0.2966(6) 0.6595(4) -0.0296(4)
H28 H 0.3626 0.6969 -0.0831
C38 C 0.1504(5) 0.6559(4) -0.0312(3)
C39 C 0.0517(5) 0.5974(3) 0.0499(3)
C40 C 0.1022(6) 0.5421(4) 0.1339(3)
C41 C -0.0029(6) 0.4820(4) 0.2113(3)
H29 H 0.0270 0.4440 0.2659
C42 C -0.1465(6) 0.4784(4) 0.2076(4)
H30 H -0.2124 0.4389 0.2600
C43 C -0.1959(6) 0.5324(4) 0.1275(4)
H31 H -0.2941 0.5292 0.1264
C44 C -0.0983(6) 0.5918(4) 0.0484(3)
C45 C 0.0986(6) 0.7107(4) -0.1175(4)
C46 C -0.1495(6) 0.6479(4) -0.0376(4)
C47 C -0.1010(8) 0.7613(5) -0.2007(4)
H32 H -0.0195 0.7965 -0.2481
H33 H -0.1772 0.8078 -0.1886
H34 H -0.1392 0.7169 -0.2216
N1 N 0.6828(4) 0.1342(3) 0.7445(3)
N2 N -0.0505(5) 0.7039(3) -0.1145(3)
O1 O 0.5471(5) 0.2107(3) 0.8402(2)
O2 O 0.8434(4) 0.0740(3) 0.6457(2)
O3 O 0.1839(5) 0.7583(3) -0.1900(3)
O4 O -0.2800(5) 0.6443(3) -0.0415(3)
C48 C 0.1632(9) 0.1185(6) 0.5186(6)
H35 H 0.0868 0.0827 0.5728
Cl1 Cl 0.1465(4) 0.0897(3) 0.4256(2)
Cl2 Cl 0.3333(4) 0.0775(3) 0.5448(3)
Cl3 Cl 0.1361(3) 0.2417(2) 0.4991(3)
loop_
_geom_bond_atom_site_label_1
_geom_bond_atom_site_label_2
_geom_bond_site_symmetry_1
_geom_bond_site_symmetry_2
C1 H1 1_555 1_555
C2 C1 1_555 1_555
H2 C2 1_555 1_555
C3 C2 1_555 1_555
C4 C3 1_555 1_555
C5 C4 1_555 1_555
C6 C1 1_555 1_555
H3 C6 1_555 1_555
C7 C3 1_555 1_555
H4 C7 1_555 1_555
C8 C7 1_555 1_555
H5 C8 1_555 1_555
H6 C8 1_555 1_555
H7 C8 1_555 1_555
C9 C7 1_555 1_555
H8 C9 1_555 1_555
H9 C9 1_555 1_555
H10 C9 1_555 1_555
C10 C5 1_555 1_555
H11 C10 1_555 1_555
C11 C10 1_555 1_555
H12 C11 1_555 1_555
H13 C11 1_555 1_555
H14 C11 1_555 1_555
C12 C10 1_555 1_555
H15 C12 1_555 1_555
H16 C12 1_555 1_555
H17 C12 1_555 1_555
C13 C14 1_555 1_555
C14 C15 1_555 1_555
C15 C16 1_555 1_555
C16 C17 1_555 1_555
C17 N1 1_555 1_555
C18 C14 1_555 1_555
H18 C18 1_555 1_555
C19 C18 1_555 1_555
H19 C19 1_555 1_555
C20 C19 1_555 1_555
C21 C15 1_555 1_555
C22 C21 1_555 1_555
C23 C22 1_555 1_555
H20 C23 1_555 1_555
C24 C16 1_555 1_555
H21 C24 1_555 1_555
C25 C20 1_555 1_555
C26 C25 1_555 1_555
C27 C22 1_555 1_555
C28 C25 1_555 1_555
H22 C28 1_555 1_555
C29 C28 1_555 1_555
H23 C29 1_555 1_555
C30 C29 1_555 1_555
C31 C26 1_555 1_555
C32 C31 1_555 1_555
H24 C32 1_555 1_555
C33 C32 1_555 1_555
H25 C33 1_555 1_555
C34 C27 1_555 1_555
H26 C34 1_555 1_555
C35 C30 1_555 1_555
C36 C35 1_555 1_555
H27 C36 1_555 1_555
C37 C36 1_555 1_555
H28 C37 1_555 1_555
C38 C37 1_555 1_555
C39 C38 1_555 1_555
C40 C35 1_555 1_555
C41 C40 1_555 1_555
H29 C41 1_555 1_555
C42 C41 1_555 1_555
H30 C42 1_555 1_555
C43 C42 1_555 1_555
H31 C43 1_555 1_555
C44 C39 1_555 1_555
C45 C38 1_555 1_555
C46 C44 1_555 1_555
C47 H32 1_555 1_555
H33 C47 1_555 1_555
H34 C47 1_555 1_555
N1 C4 1_555 1_555
N2 C45 1_555 1_555
O1 C17 1_555 1_555
O2 C13 1_555 1_555
O3 C45 1_555 1_555
O4 C46 1_555 1_555
C48 H35 1_555 1_555
Cl1 C48 1_555 1_555
Cl2 C48 1_555 1_555
Cl3 C48 1_555 1_555
C5 C6 1_555 1_555
C13 N1 1_555 1_555
C20 C21 1_555 1_555
C23 C24 1_555 1_555
C26 C27 1_555 1_555
C30 C31 1_555 1_555
C33 C34 1_555 1_555
C39 C40 1_555 1_555
C43 C44 1_555 1_555
C46 N2 1_555 1_555
C47 N2 1_555 1_555

#END
