
#######################################################################
#
#                 Cambridge Crystallographic Data Centre
#                                CCDC 
#
#######################################################################
#
# If this CIF has been generated from an entry in the Cambridge 
# Structural Database, then it will include bibliographic, chemical, 
# crystal, experimental, refinement or atomic coordinate data resulting 
# from the CCDC's data processing and validation procedures.
#
#######################################################################

data_JEDJOU
_chemical_formula_moiety         'C54 H48 N2 O4'
_chemical_name_systematic        
2-(2,6-diisopropylphenyl)-8-(2-octyl-1,3-dioxo-2,3-dihydro-1H-benzo[de]isoquinolin-6-yl)-1H-benzo[5,10]anthra[2,1,9-def]isoquinoline-1,3(2H)-dione
_symmetry_cell_setting           triclinic
_symmetry_space_group_name_H-M   'P -1'
_symmetry_Int_Tables_number      2
_space_group_name_Hall           '-P 1'
loop_
_symmetry_equiv_pos_site_id
_symmetry_equiv_pos_as_xyz
1 x,y,z
2 -x,-y,-z
_cell_length_a                   9.1680(6)
_cell_length_b                   12.8426(7)
_cell_length_c                   18.3287(10)
_cell_angle_alpha                84.994(3)
_cell_angle_beta                 88.536(3)
_cell_angle_gamma                79.486(3)
_cell_volume                     2113.61
_exptl_crystal_colour            red
_exptl_crystal_description       block
_cell_formula_units_Z            2
loop_
_atom_site_label
_atom_site_type_symbol
_atom_site_fract_x
_atom_site_fract_y
_atom_site_fract_z
C1 C 1.0678(4) 0.0966(3) 0.2321(2)
C2 C 0.9886(4) 0.1979(3) 0.2222(2)
H1 H 1.0074 0.2418 0.1813
C3 C 0.8809(4) 0.2357(3) 0.2725(2)
H2 H 0.8297 0.3052 0.2647
C4 C 0.6487(4) 0.3142(3) 0.3809(2)
H3 H 0.6672 0.3602 0.3411
C5 C 0.5394(4) 0.3505(3) 0.4314(2)
H4 H 0.4869 0.4197 0.4245
C6 C 0.5079(4) 0.2863(3) 0.4908(2)
C7 C 0.5580(4) 0.1102(3) 0.5608(2)
H5 H 0.4843 0.1334 0.5945
C8 C 0.6345(5) 0.0086(3) 0.5699(2)
H6 H 0.6126 -0.0367 0.6094
C9 C 0.7449(5) -0.0273(3) 0.5204(2)
H7 H 0.7969 -0.0966 0.5278
C10 C 0.9811(4) -0.1037(3) 0.4151(2)
H8 H 0.9635 -0.1493 0.4553
C11 C 1.0902(4) -0.1394(3) 0.3652(2)
H9 H 1.1448 -0.2078 0.3728
C12 C 1.1194(4) -0.0756(3) 0.3046(2)
C13 C 1.0372(4) 0.0293(3) 0.2936(2)
C14 C 0.9275(4) 0.0671(3) 0.3452(2)
C15 C 0.8972(4) -0.0022(3) 0.4073(2)
C16 C 0.7805(4) 0.0366(3) 0.4603(2)
C17 C 0.6999(4) 0.1436(3) 0.4495(2)
C18 C 0.7310(4) 0.2122(3) 0.3876(2)
C19 C 0.8461(4) 0.1735(3) 0.3346(2)
C20 C 0.5878(4) 0.1807(3) 0.5015(2)
C21 C 1.2359(4) -0.1167(3) 0.2522(2)
C22 C 1.1819(4) 0.0576(3) 0.1781(2)
C23 C 1.3708(5) -0.0861(3) 0.1364(2)
C24 C 1.5182(5) -0.0779(3) 0.1485(2)
C25 C 1.6204(6) -0.1077(4) 0.0933(3)
H10 H 1.7192 -0.1022 0.0991
C26 C 1.5793(8) -0.1443(4) 0.0316(3)
H11 H 1.6497 -0.1627 -0.0047
C27 C 1.4354(7) -0.1548(4) 0.0219(3)
H12 H 1.4100 -0.1818 -0.0205
C28 C 1.3265(5) -0.1260(3) 0.0741(2)
C29 C 1.1670(6) -0.1411(4) 0.0652(3)
H13 H 1.1026 -0.0864 0.0911
C30 C 1.1422(8) -0.2499(5) 0.1002(4)
H14 H 1.0409 -0.2567 0.0937
H15 H 1.1634 -0.2554 0.1516
H16 H 1.2069 -0.3054 0.0772
C31 C 1.1168(7) -0.1277(5) -0.0155(3)
H17 H 1.0156 -0.1372 -0.0177
H18 H 1.1788 -0.1797 -0.0426
H19 H 1.1248 -0.0577 -0.0364
C32 C 1.5672(5) -0.0373(4) 0.2173(3)
H20 H 1.4854 -0.0359 0.2529
C33 C 1.7023(7) -0.1090(5) 0.2522(3)
H21 H 1.7278 -0.0800 0.2957
H22 H 1.7842 -0.1136 0.2182
H23 H 1.6802 -0.1786 0.2647
C34 C 1.5949(9) 0.0750(5) 0.2034(4)
H24 H 1.6235 0.0989 0.2482
H25 H 1.5060 0.1206 0.1855
H26 H 1.6730 0.0769 0.1677
C35 C 0.3940(4) 0.3277(3) 0.5454(2)
C36 C 0.4360(4) 0.3512(3) 0.6135(2)
H27 H 0.5361 0.3391 0.6253
C37 C 0.3306(5) 0.3927(3) 0.6643(3)
H28 H 0.3612 0.4110 0.7087
C38 C 0.1793(4) 0.4072(3) 0.6494(2)
C39 C 0.1338(4) 0.3806(3) 0.5827(2)
C40 C 0.2413(4) 0.3422(3) 0.5279(2)
C41 C 0.1870(4) 0.3204(3) 0.4611(2)
H29 H 0.2543 0.2956 0.4249
C42 C 0.0380(5) 0.3344(3) 0.4472(2)
H30 H 0.0057 0.3200 0.4021
C43 C -0.0655(5) 0.3703(3) 0.5012(2)
H31 H -0.1665 0.3785 0.4922
C44 C -0.0174(4) 0.3938(3) 0.5682(2)
C45 C -0.1295(5) 0.4294(3) 0.6243(3)
C46 C 0.0710(5) 0.4512(3) 0.7044(3)
C47 C -0.1883(6) 0.4797(4) 0.7492(3)
H32 H -0.1417 0.4597 0.7965
H33 H -0.2685 0.4404 0.7460
C48 C -0.2490(6) 0.5959(4) 0.7424(3)
H34 H -0.3075 0.6144 0.6983
H35 H -0.1682 0.6355 0.7390
C49 C -0.3498(14) 0.6261(7) 0.8120(5)
H36 H -0.2840 0.6204 0.8533
H37 H -0.3947 0.7006 0.8035
C50 C -0.4678(11) 0.5687(10) 0.8348(6)
H38 H -0.4195 0.4966 0.8499
H39 H -0.5225 0.5646 0.7909
C51 C -0.5808(16) 0.5992(12) 0.8920(6)
H40 H -0.5303 0.5901 0.9386
H41 H -0.6196 0.6745 0.8824
C52 C -0.698(2) 0.5484(12) 0.9002(10)
H42 H -0.7667 0.5852 0.9347
H43 H -0.7480 0.5570 0.8535
C53 C -0.6758(18) 0.4492(12) 0.9219(10)
H44 H -0.5984 0.4331 0.9585
H45 H -0.6452 0.4068 0.8810
C54 C -0.8237(13) 0.4242(9) 0.9551(7)
H46 H -0.8126 0.3495 0.9693
H47 H -0.9005 0.4443 0.9193
H48 H -0.8496 0.4633 0.9972
N1 N 1.2584(3) -0.0480(2) 0.19054(17)
N2 N -0.0788(4) 0.4526(3) 0.6906(2)
O1 O 1.2119(3) 0.1126(2) 0.12468(17)
O2 O 1.3116(3) -0.2051(2) 0.26045(16)
O3 O -0.2625(3) 0.4383(2) 0.61356(18)
O4 O 0.1057(4) 0.4868(3) 0.7594(2)
loop_
_geom_bond_atom_site_label_1
_geom_bond_atom_site_label_2
_geom_bond_site_symmetry_1
_geom_bond_site_symmetry_2
C1 C2 1_555 1_555
C2 H1 1_555 1_555
C3 C2 1_555 1_555
H2 C3 1_555 1_555
C4 H3 1_555 1_555
C5 C4 1_555 1_555
H4 C5 1_555 1_555
C6 C5 1_555 1_555
C7 H5 1_555 1_555
C8 C7 1_555 1_555
H6 C8 1_555 1_555
C9 C8 1_555 1_555
H7 C9 1_555 1_555
C10 H8 1_555 1_555
C11 C10 1_555 1_555
H9 C11 1_555 1_555
C12 C11 1_555 1_555
C13 C1 1_555 1_555
C14 C13 1_555 1_555
C15 C10 1_555 1_555
C16 C9 1_555 1_555
C17 C16 1_555 1_555
C18 C4 1_555 1_555
C19 C3 1_555 1_555
C20 C6 1_555 1_555
C21 C12 1_555 1_555
C22 C1 1_555 1_555
C23 C24 1_555 1_555
C24 C25 1_555 1_555
C25 H10 1_555 1_555
C26 C25 1_555 1_555
H11 C26 1_555 1_555
C27 C26 1_555 1_555
H12 C27 1_555 1_555
C28 C23 1_555 1_555
C29 C28 1_555 1_555
H13 C29 1_555 1_555
C30 C29 1_555 1_555
H14 C30 1_555 1_555
H15 C30 1_555 1_555
H16 C30 1_555 1_555
C31 C29 1_555 1_555
H17 C31 1_555 1_555
H18 C31 1_555 1_555
H19 C31 1_555 1_555
C32 C24 1_555 1_555
H20 C32 1_555 1_555
C33 C32 1_555 1_555
H21 C33 1_555 1_555
H22 C33 1_555 1_555
H23 C33 1_555 1_555
C34 C32 1_555 1_555
H24 C34 1_555 1_555
H25 C34 1_555 1_555
H26 C34 1_555 1_555
C35 C6 1_555 1_555
C36 C35 1_555 1_555
H27 C36 1_555 1_555
C37 C36 1_555 1_555
H28 C37 1_555 1_555
C38 C37 1_555 1_555
C39 C38 1_555 1_555
C40 C35 1_555 1_555
C41 C40 1_555 1_555
H29 C41 1_555 1_555
C42 C41 1_555 1_555
H30 C42 1_555 1_555
C43 C42 1_555 1_555
H31 C43 1_555 1_555
C44 C39 1_555 1_555
C45 C44 1_555 1_555
C46 C38 1_555 1_555
C47 H32 1_555 1_555
H33 C47 1_555 1_555
C48 C47 1_555 1_555
H34 C48 1_555 1_555
H35 C48 1_555 1_555
C49 C48 1_555 1_555
H36 C49 1_555 1_555
H37 C49 1_555 1_555
C50 C49 1_555 1_555
H38 C50 1_555 1_555
H39 C50 1_555 1_555
C51 C50 1_555 1_555
H40 C51 1_555 1_555
H41 C51 1_555 1_555
C52 C51 1_555 1_555
H42 C52 1_555 1_555
H43 C52 1_555 1_555
C53 C52 1_555 1_555
H44 C53 1_555 1_555
H45 C53 1_555 1_555
C54 C53 1_555 1_555
H46 C54 1_555 1_555
H47 C54 1_555 1_555
H48 C54 1_555 1_555
N1 C21 1_555 1_555
N2 C45 1_555 1_555
O1 C22 1_555 1_555
O2 C21 1_555 1_555
O3 C45 1_555 1_555
O4 C46 1_555 1_555
C7 C20 1_555 1_555
C12 C13 1_555 1_555
C14 C15 1_555 1_555
C14 C19 1_555 1_555
C15 C16 1_555 1_555
C17 C18 1_555 1_555
C17 C20 1_555 1_555
C18 C19 1_555 1_555
C22 N1 1_555 1_555
C23 N1 1_555 1_555
C27 C28 1_555 1_555
C39 C40 1_555 1_555
C43 C44 1_555 1_555
C46 N2 1_555 1_555
C47 N2 1_555 1_555

#END
