
#######################################################################
#
#                 Cambridge Crystallographic Data Centre
#                                CCDC 
#
#######################################################################
#
# If this CIF has been generated from an entry in the Cambridge 
# Structural Database, then it will include bibliographic, chemical, 
# crystal, experimental, refinement or atomic coordinate data resulting 
# from the CCDC's data processing and validation procedures.
#
#######################################################################

data_JEDJUA
_chemical_formula_moiety         'C62 H64 N2 O4'
_chemical_name_systematic        
2-(2,6-diisopropylphenyl)-8-(2-hexadecyl-1,3-dioxo-2,3-dihydro-1H-benzo[de]isoquinolin-6-yl)-1H-benzo[5,10]anthra[2,1,9-def]isoquinoline-1,3(2H)-dione
_symmetry_cell_setting           triclinic
_symmetry_space_group_name_H-M   'P -1'
_symmetry_Int_Tables_number      2
_space_group_name_Hall           '-P 1'
loop_
_symmetry_equiv_pos_site_id
_symmetry_equiv_pos_as_xyz
1 x,y,z
2 -x,-y,-z
_cell_length_a                   9.1506(8)
_cell_length_b                   13.8911(11)
_cell_length_c                   19.6605(16)
_cell_angle_alpha                84.331(4)
_cell_angle_beta                 87.822(4)
_cell_angle_gamma                78.265(4)
_cell_volume                     2434.47
_exptl_crystal_colour            red
_exptl_crystal_description       block
_cell_formula_units_Z            2
loop_
_atom_site_label
_atom_site_type_symbol
_atom_site_fract_x
_atom_site_fract_y
_atom_site_fract_z
C1 C 0.9306(8) 0.5533(5) 0.8445(4)
C2 C 0.8677(8) 0.4803(5) 0.8888(4)
C3 C 0.7184(7) 0.4756(5) 0.8832(4)
H1 H 0.6588 0.5187 0.8499
C4 C 0.6543(7) 0.4077(5) 0.9264(4)
H2 H 0.5528 0.4045 0.9209
C5 C 0.7355(7) 0.3463(5) 0.9761(4)
C6 C 0.8919(8) 0.3476(5) 0.9822(4)
C7 C 0.9830(8) 0.2862(5) 1.0339(4)
H3 H 0.9413 0.2426 1.0655
C8 C 1.1310(8) 0.2910(5) 1.0374(4)
H4 H 1.1907 0.2501 1.0717
C9 C 1.1962(8) 0.3545(5) 0.9916(5)
H5 H 1.2992 0.3559 0.9945
C10 C 1.1089(8) 0.4154(5) 0.9418(4)
C11 C 1.1789(8) 0.4790(5) 0.8924(4)
C12 C 0.9560(7) 0.4145(5) 0.9380(4)
C13 C 0.6613(7) 0.2778(5) 1.0225(4)
C14 C 0.5622(8) 0.3174(5) 1.0712(4)
H6 H 0.5437 0.3864 1.0754
C15 C 0.4880(8) 0.2561(5) 1.1148(4)
H7 H 0.4203 0.2847 1.1486
C16 C 0.5102(7) 0.1552(4) 1.1104(4)
C17 C 0.6136(7) 0.1121(5) 1.0611(4)
C18 C 0.6425(7) 0.0088(5) 1.0554(4)
C19 C 0.7425(8) -0.0291(5) 1.0059(4)
H8 H 0.7632 -0.0983 1.0023
C20 C 0.8143(8) 0.0312(5) 0.9609(4)
H9 H 0.8819 0.0028 0.9271
C21 C 0.7882(8) 0.1312(5) 0.9652(4)
H10 H 0.8376 0.1714 0.9342
C22 C 0.6879(7) 0.1751(5) 1.0154(4)
C23 C 0.4333(8) 0.0916(5) 1.1580(4)
C24 C 0.3298(9) 0.1311(6) 1.2063(4)
H11 H 0.3056 0.2006 1.2081
C25 C 0.2603(9) 0.0706(6) 1.2525(5)
H12 H 0.1910 0.0993 1.2857
C26 C 0.2918(9) -0.0310(6) 1.2501(4)
C27 C 0.3928(8) -0.0741(5) 1.1995(4)
C28 C 0.4245(8) -0.1771(5) 1.1957(4)
C29 C 0.5214(9) -0.2169(6) 1.1462(4)
H13 H 0.5405 -0.2861 1.1425
C30 C 0.5924(8) -0.1554(5) 1.1012(4)
H14 H 0.6607 -0.1846 1.0679
C31 C 0.5671(7) -0.0540(5) 1.1032(4)
C32 C 0.4646(7) -0.0119(5) 1.1532(4)
C33 C 0.2180(10) -0.0934(7) 1.3000(5)
C34 C 0.3501(10) -0.2418(6) 1.2436(4)
C35 C 0.1783(11) -0.2566(7) 1.3412(5)
C36 C 0.0352(12) -0.2723(8) 1.3270(6)
C37 C -0.0482(11) -0.2228(8) 1.2644(6)
H15 H -0.0135 -0.1596 1.2516
C38 C -0.0113(11) -0.2858(8) 1.2040(6)
H16 H -0.0660 -0.2516 1.1638
H17 H -0.0403 -0.3496 1.2156
H18 H 0.0962 -0.2964 1.1940
C39 C -0.2192(13) -0.1965(11) 1.2759(7)
H19 H -0.2667 -0.1645 1.2333
H20 H -0.2427 -0.1514 1.3118
H21 H -0.2568 -0.2569 1.2897
C40 C -0.0238(16) -0.3343(9) 1.3740(8)
H22 H -0.1177 -0.3490 1.3649
C41 C 0.0436(16) -0.3750(9) 1.4317(8)
H23 H -0.0032 -0.4169 1.4626
C42 C 0.1837(16) -0.3564(8) 1.4472(6)
H24 H 0.2300 -0.3845 1.4889
C43 C 0.2561(13) -0.2955(7) 1.4004(6)
C44 C 0.4011(14) -0.2707(8) 1.4188(6)
H25 H 0.4330 -0.2282 1.3793
C45 C 0.3819(15) -0.2115(9) 1.4808(6)
H26 H 0.4781 -0.1964 1.4915
H27 H 0.3462 -0.2502 1.5200
H28 H 0.3092 -0.1498 1.4708
C46 C 0.5245(15) -0.3612(11) 1.4306(7)
H29 H 0.6161 -0.3410 1.4426
H30 H 0.5422 -0.3953 1.3889
H31 H 0.4950 -0.4057 1.4681
C47 C 1.1581(10) 0.6026(7) 0.7932(5)
H32 H 1.2510 0.6160 0.8111
H33 H 1.0903 0.6666 0.7808
C48 C 1.1946(12) 0.5441(8) 0.7293(6)
H34 H 1.2468 0.4759 0.7440
H35 H 1.1001 0.5400 0.7080
C49 C 1.2909(11) 0.5902(9) 0.6766(6)
H36 H 1.2495 0.6619 0.6691
H37 H 1.2864 0.5616 0.6328
C50 C 1.4529(12) 0.5750(9) 0.6970(6)
H38 H 1.4570 0.6071 0.7394
H39 H 1.4915 0.5033 0.7076
C51 C 1.5546(11) 0.6141(9) 0.6443(6)
H40 H 1.5319 0.6871 0.6421
H41 H 1.5325 0.5952 0.5991
C52 C 1.7204(12) 0.5779(10) 0.6574(6)
H42 H 1.7395 0.5858 0.7055
H43 H 1.7470 0.5065 0.6512
C53 C 1.8216(11) 0.6308(8) 0.6116(6)
H44 H 1.9217 0.5876 0.6098
H45 H 1.7819 0.6418 0.5647
C54 C 1.8374(14) 0.7282(9) 0.6340(7)
H46 H 1.7377 0.7631 0.6487
H47 H 1.9018 0.7150 0.6746
C55 C 1.8998(15) 0.7957(10) 0.5831(7)
H48 H 1.9870 0.7578 0.5594
H49 H 1.9345 0.8463 0.6069
C56 C 1.7864(19) 0.8449(11) 0.5322(8)
H50 H 1.7593 0.7934 0.5065
H51 H 1.6956 0.8754 0.5572
C57 C 1.8275(19) 0.9190(12) 0.4838(8)
H52 H 1.9177 0.8886 0.4583
H53 H 1.8550 0.9705 0.5093
C58 C 1.7090(18) 0.9692(9) 0.4320(7)
H54 H 1.6716 0.9176 0.4106
H55 H 1.6240 1.0077 0.4568
C59 C 1.7616(17) 1.0356(10) 0.3777(7)
H56 H 1.7947 1.0883 0.3998
H57 H 1.8508 0.9973 0.3556
C60 C 1.6602(15) 1.0822(8) 0.3247(8)
H58 H 1.5745 1.1260 0.3453
H59 H 1.6212 1.0308 0.3037
C61 C 1.734(3) 1.1440(13) 0.2677(8)
H60 H 1.6532 1.1902 0.2423
H61 H 1.7918 1.1844 0.2903
C62 C 1.834(2) 1.0889(13) 0.2173(10)
H62 H 1.8721 1.1357 0.1840
H63 H 1.7788 1.0495 0.1935
H64 H 1.9184 1.0452 0.2411
N1 N 1.0867(7) 0.5439(5) 0.8457(4)
N2 N 0.2503(8) -0.1948(5) 1.2917(4)
O1 O 0.8565(6) 0.6195(4) 0.8072(3)
O2 O 1.3134(6) 0.4759(5) 0.8896(4)
O3 O 0.3767(7) -0.3307(4) 1.2427(3)
O4 O 0.1369(7) -0.0609(5) 1.3462(3)
loop_
_geom_bond_atom_site_label_1
_geom_bond_atom_site_label_2
_geom_bond_site_symmetry_1
_geom_bond_site_symmetry_2
C1 C2 1_555 1_555
C2 C3 1_555 1_555
C3 H1 1_555 1_555
C4 C3 1_555 1_555
H2 C4 1_555 1_555
C5 C4 1_555 1_555
C6 C5 1_555 1_555
C7 C6 1_555 1_555
H3 C7 1_555 1_555
C8 C7 1_555 1_555
H4 C8 1_555 1_555
C9 C8 1_555 1_555
H5 C9 1_555 1_555
C10 C9 1_555 1_555
C11 C10 1_555 1_555
C12 C2 1_555 1_555
C13 C5 1_555 1_555
C14 C13 1_555 1_555
H6 C14 1_555 1_555
C15 C14 1_555 1_555
H7 C15 1_555 1_555
C16 C15 1_555 1_555
C17 C16 1_555 1_555
C18 C17 1_555 1_555
C19 C18 1_555 1_555
H8 C19 1_555 1_555
C20 C19 1_555 1_555
H9 C20 1_555 1_555
C21 C20 1_555 1_555
H10 C21 1_555 1_555
C22 C13 1_555 1_555
C23 C16 1_555 1_555
C24 C23 1_555 1_555
H11 C24 1_555 1_555
C25 C24 1_555 1_555
H12 C25 1_555 1_555
C26 C25 1_555 1_555
C27 C26 1_555 1_555
C28 C27 1_555 1_555
C29 C28 1_555 1_555
H13 C29 1_555 1_555
C30 C29 1_555 1_555
H14 C30 1_555 1_555
C31 C18 1_555 1_555
C32 C23 1_555 1_555
C33 C26 1_555 1_555
C34 C28 1_555 1_555
C35 C36 1_555 1_555
C36 C37 1_555 1_555
C37 H15 1_555 1_555
C38 C37 1_555 1_555
H16 C38 1_555 1_555
H17 C38 1_555 1_555
H18 C38 1_555 1_555
C39 C37 1_555 1_555
H19 C39 1_555 1_555
H20 C39 1_555 1_555
H21 C39 1_555 1_555
C40 C36 1_555 1_555
H22 C40 1_555 1_555
C41 C40 1_555 1_555
H23 C41 1_555 1_555
C42 C41 1_555 1_555
H24 C42 1_555 1_555
C43 C35 1_555 1_555
C44 C43 1_555 1_555
H25 C44 1_555 1_555
C45 C44 1_555 1_555
H26 C45 1_555 1_555
H27 C45 1_555 1_555
H28 C45 1_555 1_555
C46 C44 1_555 1_555
H29 C46 1_555 1_555
H30 C46 1_555 1_555
H31 C46 1_555 1_555
C47 H32 1_555 1_555
H33 C47 1_555 1_555
C48 C47 1_555 1_555
H34 C48 1_555 1_555
H35 C48 1_555 1_555
C49 C48 1_555 1_555
H36 C49 1_555 1_555
H37 C49 1_555 1_555
C50 C49 1_555 1_555
H38 C50 1_555 1_555
H39 C50 1_555 1_555
C51 C50 1_555 1_555
H40 C51 1_555 1_555
H41 C51 1_555 1_555
C52 C51 1_555 1_555
H42 C52 1_555 1_555
H43 C52 1_555 1_555
C53 C52 1_555 1_555
H44 C53 1_555 1_555
H45 C53 1_555 1_555
C54 C53 1_555 1_555
H46 C54 1_555 1_555
H47 C54 1_555 1_555
C55 C54 1_555 1_555
H48 C55 1_555 1_555
H49 C55 1_555 1_555
C56 C55 1_555 1_555
H50 C56 1_555 1_555
H51 C56 1_555 1_555
C57 C56 1_555 1_555
H52 C57 1_555 1_555
H53 C57 1_555 1_555
C58 C57 1_555 1_555
H54 C58 1_555 1_555
H55 C58 1_555 1_555
C59 C58 1_555 1_555
H56 C59 1_555 1_555
H57 C59 1_555 1_555
C60 C59 1_555 1_555
H58 C60 1_555 1_555
H59 C60 1_555 1_555
C61 C60 1_555 1_555
H60 C61 1_555 1_555
H61 C61 1_555 1_555
C62 C61 1_555 1_555
H62 C62 1_555 1_555
H63 C62 1_555 1_555
H64 C62 1_555 1_555
N1 C1 1_555 1_555
N2 C33 1_555 1_555
O1 C1 1_555 1_555
O2 C11 1_555 1_555
O3 C34 1_555 1_555
O4 C33 1_555 1_555
C6 C12 1_555 1_555
C10 C12 1_555 1_555
C11 N1 1_555 1_555
C17 C22 1_555 1_555
C21 C22 1_555 1_555
C27 C32 1_555 1_555
C30 C31 1_555 1_555
C31 C32 1_555 1_555
C34 N2 1_555 1_555
C35 N2 1_555 1_555
C42 C43 1_555 1_555
C47 N1 1_555 1_555

#END
