
#######################################################################
#
#                 Cambridge Crystallographic Data Centre
#                                CCDC 
#
#######################################################################
#
# If this CIF has been generated from an entry in the Cambridge 
# Structural Database, then it will include bibliographic, chemical, 
# crystal, experimental, refinement or atomic coordinate data resulting 
# from the CCDC's data processing and validation procedures.
#
#######################################################################

data_JEDKUB
_chemical_formula_moiety         'C25 H19 N1 O1'
_chemical_name_systematic        
2,4,6-triphenyl-2,3-dihydrofuro[2,3-b]pyridine
_symmetry_cell_setting           monoclinic
_symmetry_space_group_name_H-M   'P 21/c'
_symmetry_Int_Tables_number      14
_space_group_name_Hall           '-P 2ybc'
loop_
_symmetry_equiv_pos_site_id
_symmetry_equiv_pos_as_xyz
1 x,y,z
2 -x,1/2+y,1/2-z
3 -x,-y,-z
4 x,1/2-y,1/2+z
_cell_length_a                   9.3863(16)
_cell_length_b                   17.598(3)
_cell_length_c                   11.455(2)
_cell_angle_alpha                90
_cell_angle_beta                 106.320(4)
_cell_angle_gamma                90
_cell_volume                     1815.9
_exptl_crystal_colour            colorless
_exptl_crystal_description       Prism
_cell_formula_units_Z            4
loop_
_atom_site_label
_atom_site_type_symbol
_atom_site_fract_x
_atom_site_fract_y
_atom_site_fract_z
O1 O 0.33621(8) 0.99771(4) 0.19023(7)
N1 N 0.54754(9) 1.03439(5) 0.33681(7)
C1 C 0.73750(12) 1.14878(6) 0.46158(10)
H1 H 0.6450 1.1622 0.4062
C2 C 0.83874(14) 1.20526(6) 0.51319(11)
H2 H 0.8147 1.2570 0.4934
C3 C 0.97460(13) 1.18669(6) 0.59338(12)
H3 H 1.0442 1.2255 0.6277
C4 C 1.00837(12) 1.11118(6) 0.62322(10)
H4 H 1.1010 1.0982 0.6787
C5 C 0.90713(11) 1.05462(6) 0.57221(9)
H5 H 0.9312 1.0031 0.5933
C6 C 0.77030(11) 1.07235(5) 0.49024(9)
C7 C 0.66155(11) 1.01207(6) 0.43326(9)
C8 C 0.67610(11) 0.93765(5) 0.47507(9)
H6 H 0.7556 0.9249 0.5442
C9 C 0.57565(11) 0.88044(5) 0.41731(9)
C10 C 0.46070(11) 0.90321(6) 0.31852(9)
C11 C 0.45469(11) 0.98013(6) 0.28658(9)
C12 C 0.23704(12) 0.93162(6) 0.16613(9)
H7 H 0.1541 0.9404 0.2035
C13 C 0.33226(12) 0.86376(6) 0.23110(9)
H8 H 0.2767 0.8319 0.2745
H9 H 0.3659 0.8318 0.1728
C14 C 0.17331(11) 0.92121(5) 0.03116(9)
C15 C 0.26368(13) 0.92416(6) -0.04589(10)
H10 H 0.3655 0.9372 -0.0144
C16 C 0.20619(15) 0.90816(7) -0.16892(11)
H11 H 0.2689 0.9100 -0.2211
C17 C 0.05779(14) 0.88954(6) -0.21561(10)
H12 H 0.0189 0.8777 -0.2995
C18 C -0.03349(13) 0.88827(6) -0.13985(11)
H13 H -0.1359 0.8766 -0.1720
C19 C 0.02405(12) 0.90396(6) -0.01663(10)
H14 H -0.0392 0.9029 0.0351
C20 C 0.59818(11) 0.80079(5) 0.46200(9)
C21 C 0.65874(12) 0.78548(6) 0.58572(9)
H15 H 0.6810 0.8263 0.6423
C22 C 0.68681(13) 0.71115(6) 0.62703(10)
H16 H 0.7273 0.7015 0.7115
C23 C 0.65587(12) 0.65107(6) 0.54547(11)
H17 H 0.6775 0.6004 0.5736
C24 C 0.59330(13) 0.66527(6) 0.42288(11)
H18 H 0.5706 0.6242 0.3668
C25 C 0.56358(12) 0.73944(6) 0.38159(10)
H19 H 0.5191 0.7486 0.2975
loop_
_geom_bond_atom_site_label_1
_geom_bond_atom_site_label_2
_geom_bond_site_symmetry_1
_geom_bond_site_symmetry_2
O1 C11 1_555 1_555
N1 C7 1_555 1_555
C1 H1 1_555 1_555
C2 C1 1_555 1_555
H2 C2 1_555 1_555
C3 C2 1_555 1_555
H3 C3 1_555 1_555
C4 C3 1_555 1_555
H4 C4 1_555 1_555
C5 C4 1_555 1_555
H5 C5 1_555 1_555
C6 C1 1_555 1_555
C7 C6 1_555 1_555
C8 C7 1_555 1_555
H6 C8 1_555 1_555
C9 C8 1_555 1_555
C10 C9 1_555 1_555
C11 N1 1_555 1_555
C12 O1 1_555 1_555
H7 C12 1_555 1_555
C13 C10 1_555 1_555
H8 C13 1_555 1_555
H9 C13 1_555 1_555
C14 C12 1_555 1_555
C15 C14 1_555 1_555
H10 C15 1_555 1_555
C16 C15 1_555 1_555
H11 C16 1_555 1_555
C17 C16 1_555 1_555
H12 C17 1_555 1_555
C18 C17 1_555 1_555
H13 C18 1_555 1_555
C19 C14 1_555 1_555
H14 C19 1_555 1_555
C20 C9 1_555 1_555
C21 C20 1_555 1_555
H15 C21 1_555 1_555
C22 C21 1_555 1_555
H16 C22 1_555 1_555
C23 C22 1_555 1_555
H17 C23 1_555 1_555
C24 C23 1_555 1_555
H18 C24 1_555 1_555
C25 C20 1_555 1_555
H19 C25 1_555 1_555
C5 C6 1_555 1_555
C10 C11 1_555 1_555
C12 C13 1_555 1_555
C18 C19 1_555 1_555
C24 C25 1_555 1_555

#END
