
#######################################################################
#
#                 Cambridge Crystallographic Data Centre
#                                CCDC 
#
#######################################################################
#
# If this CIF has been generated from an entry in the Cambridge 
# Structural Database, then it will include bibliographic, chemical, 
# crystal, experimental, refinement or atomic coordinate data resulting 
# from the CCDC's data processing and validation procedures.
#
#######################################################################

data_JEDQOB
_chemical_formula_moiety         'C24 H24 N5 O1 1+,C2 H4 Cl2,C1 H3 O3 S1 1-'
_chemical_name_systematic        
'4-{[(3-{[4-(1-cyanocyclopentyl)phenyl]carbamoyl}pyridin-2-yl)amino]methyl}pyridinium methanesulfonate 1,2-dichloroethane solvate'
_symmetry_cell_setting           monoclinic
_symmetry_space_group_name_H-M   'C c'
_symmetry_Int_Tables_number      9
_space_group_name_Hall           'C -2yc'
loop_
_symmetry_equiv_pos_site_id
_symmetry_equiv_pos_as_xyz
1 x,y,z
2 x,-y,1/2+z
3 1/2+x,1/2+y,z
4 1/2+x,1/2-y,1/2+z
_cell_length_a                   8.7131(6)
_cell_length_b                   16.7497(12)
_cell_length_c                   19.4579(13)
_cell_angle_alpha                90
_cell_angle_beta                 98.784(4)
_cell_angle_gamma                90
_cell_volume                     2806.41
_exptl_crystal_colour            'light white'
_exptl_crystal_description       prism
_cell_formula_units_Z            4
loop_
_atom_site_label
_atom_site_type_symbol
_atom_site_fract_x
_atom_site_fract_y
_atom_site_fract_z
Cl1 Cl 0.4587(3) 0.48741(11) 0.16196(12)
C1 C 0.3705(10) 0.4748(5) 0.2383(4)
H1 H 0.2956 0.4300 0.2305
H2 H 0.4519 0.4597 0.2774
C2 C 0.2886(10) 0.5465(5) 0.2584(4)
H3 H 0.3614 0.5922 0.2643
H4 H 0.2526 0.5368 0.3035
Cl2 Cl 0.1235(2) 0.57091(13) 0.19326(14)
S1 S 0.75783(13) 0.32492(8) 0.25120(7)
O1 O 0.6475(5) 0.3439(3) 0.2966(2)
O2 O 0.6830(4) 0.3036(3) 0.1813(2)
O3 O 0.8707(5) 0.2648(3) 0.2791(2)
C3 C 0.8682(10) 0.4110(5) 0.2402(5)
H5 H 0.9253 0.4275 0.2853
H6 H 0.7987 0.4542 0.2210
H7 H 0.9418 0.3991 0.2082
C4 C 0.0384(5) 0.4467(3) -0.0625(3)
N1 N 0.4331(4) 0.3084(2) -0.0841(2)
H8 H 0.4303 0.2823 -0.1235
C5 C 0.8046(5) 0.2169(3) -0.0038(3)
N2 N 0.8120(5) 0.2342(3) 0.0647(2)
H9 H 0.7521 0.2723 0.0770
N3 N 1.3816(5) 0.2720(3) 0.1576(3)
H10 H 1.4793 0.2873 0.1657
N4 N 0.9143(5) 0.1662(3) -0.0196(2)
N5 N -0.3441(6) 0.4486(3) -0.1389(3)
C6 C -0.2410(6) 0.4675(3) -0.0999(3)
C7 C -0.1049(6) 0.4932(3) -0.0494(3)
C8 C 0.1856(6) 0.4738(3) -0.0355(3)
H11 H 0.1967 0.5236 -0.0118
C9 C 0.3176(6) 0.4294(3) -0.0425(3)
H12 H 0.4176 0.4495 -0.0245
C10 C 0.3031(5) 0.3559(3) -0.0755(3)
C11 C 0.5614(5) 0.3002(3) -0.0358(3)
C12 C 0.6886(5) 0.2493(3) -0.0552(3)
C13 C 0.9137(6) 0.1930(3) 0.1177(3)
H13 H 0.9166 0.1360 0.1045
H14 H 0.8693 0.1959 0.1615
C14 C 1.0778(6) 0.2237(3) 0.1315(3)
C15 C 1.1330(6) 0.2823(4) 0.0916(3)
H15 H 1.0648 0.3073 0.0552
C16 C 1.2870(7) 0.3044(4) 0.1047(3)
H16 H 1.3258 0.3430 0.0760
C17 C 1.3326(7) 0.2174(4) 0.1980(3)
H17 H 1.4035 0.1954 0.2351
C18 C 1.1809(7) 0.1919(4) 0.1875(3)
H18 H 1.1463 0.1533 0.2175
C19 C -0.0915(7) 0.5863(3) -0.0543(3)
H19 H 0.0147 0.6018 -0.0612
H20 H -0.1660 0.6070 -0.0938
C20 C -0.1284(10) 0.6198(4) 0.0139(4)
H21 H -0.0317 0.6324 0.0458
H22 H -0.1915 0.6690 0.0057
C21 C -0.2190(8) 0.5544(4) 0.0441(4)
H23 H -0.2117 0.5602 0.0951
H24 H -0.3297 0.5552 0.0228
C22 C -0.1399(7) 0.4788(3) 0.0254(3)
H25 H -0.2090 0.4320 0.0267
H26 H -0.0427 0.4694 0.0580
C23 C 0.0273(6) 0.3743(3) -0.0973(3)
H27 H -0.0723 0.3556 -0.1175
C24 C 0.1557(6) 0.3288(3) -0.1035(3)
H28 H 0.1438 0.2788 -0.1269
O4 O 0.5713(4) 0.3315(2) 0.02207(19)
C25 C 0.6992(6) 0.2319(3) -0.1240(3)
H29 H 0.6262 0.2542 -0.1602
C26 C 0.8155(6) 0.1823(3) -0.1402(3)
H30 H 0.8243 0.1706 -0.1872
C27 C 0.9182(6) 0.1504(3) -0.0864(3)
H31 H 0.9962 0.1152 -0.0976
loop_
_geom_bond_atom_site_label_1
_geom_bond_atom_site_label_2
_geom_bond_site_symmetry_1
_geom_bond_site_symmetry_2
Cl1 C1 1_555 1_555
C1 H1 1_555 1_555
H2 C1 1_555 1_555
C2 C1 1_555 1_555
H3 C2 1_555 1_555
H4 C2 1_555 1_555
Cl2 C2 1_555 1_555
S1 O1 1_555 1_555
O2 S1 1_555 1_555
O3 S1 1_555 1_555
C3 S1 1_555 1_555
H5 C3 1_555 1_555
H6 C3 1_555 1_555
H7 C3 1_555 1_555
C4 C7 1_555 1_555
N1 H8 1_555 1_555
C5 N2 1_555 1_555
N2 H9 1_555 1_555
N3 H10 1_555 1_555
N4 C5 1_555 1_555
N5 C6 1_555 1_555
C6 C7 1_555 1_555
C7 C19 1_555 1_555
C8 C4 1_555 1_555
H11 C8 1_555 1_555
C9 C8 1_555 1_555
H12 C9 1_555 1_555
C10 N1 1_555 1_555
C11 N1 1_555 1_555
C12 C5 1_555 1_555
C13 N2 1_555 1_555
H13 C13 1_555 1_555
H14 C13 1_555 1_555
C14 C13 1_555 1_555
C15 C14 1_555 1_555
H15 C15 1_555 1_555
C16 N3 1_555 1_555
H16 C16 1_555 1_555
C17 N3 1_555 1_555
H17 C17 1_555 1_555
C18 C14 1_555 1_555
H18 C18 1_555 1_555
C19 H19 1_555 1_555
H20 C19 1_555 1_555
C20 C19 1_555 1_555
H21 C20 1_555 1_555
H22 C20 1_555 1_555
C21 C20 1_555 1_555
H23 C21 1_555 1_555
H24 C21 1_555 1_555
C22 C7 1_555 1_555
H25 C22 1_555 1_555
H26 C22 1_555 1_555
C23 C4 1_555 1_555
H27 C23 1_555 1_555
C24 C10 1_555 1_555
H28 C24 1_555 1_555
O4 C11 1_555 1_555
C25 C12 1_555 1_555
H29 C25 1_555 1_555
C26 C25 1_555 1_555
H30 C26 1_555 1_555
C27 N4 1_555 1_555
H31 C27 1_555 1_555
C9 C10 1_555 1_555
C11 C12 1_555 1_555
C15 C16 1_555 1_555
C17 C18 1_555 1_555
C21 C22 1_555 1_555
C23 C24 1_555 1_555
C26 C27 1_555 1_555

#END
