
#######################################################################
#
#                 Cambridge Crystallographic Data Centre
#                                CCDC 
#
#######################################################################
#
# If this CIF has been generated from an entry in the Cambridge 
# Structural Database, then it will include bibliographic, chemical, 
# crystal, experimental, refinement or atomic coordinate data resulting 
# from the CCDC's data processing and validation procedures.
#
#######################################################################

data_JEDQUH
_chemical_formula_moiety         'C24 H24 N5 O1 1+,C4 H8 O1,C1 H3 O3 S1 1-'
_chemical_name_systematic        
'4-{[(3-{[4-(1-cyanocyclopentyl)phenyl]carbamoyl}pyridin-2-yl)amino]methyl}pyridinium methanesulfonate tetrahydrofuran solvate'
_symmetry_cell_setting           monoclinic
_symmetry_space_group_name_H-M   'C c'
_symmetry_Int_Tables_number      9
_space_group_name_Hall           'C -2yc'
loop_
_symmetry_equiv_pos_site_id
_symmetry_equiv_pos_as_xyz
1 x,y,z
2 x,-y,1/2+z
3 1/2+x,1/2+y,z
4 1/2+x,1/2-y,1/2+z
_cell_length_a                   8.9227(5)
_cell_length_b                   16.5120(9)
_cell_length_c                   19.2111(10)
_cell_angle_alpha                90
_cell_angle_beta                 98.584(4)
_cell_angle_gamma                90
_cell_volume                     2798.7
_exptl_crystal_colour            'light white'
_exptl_crystal_description       needle
_cell_formula_units_Z            4
loop_
_atom_site_label
_atom_site_type_symbol
_atom_site_fract_x
_atom_site_fract_y
_atom_site_fract_z
S1 S 0.54069(13) 0.67209(9) 0.32532(7)
O1 O 0.6474(5) 0.6506(3) 0.27917(19)
O2 O 0.6133(4) 0.7182(3) 0.3860(2)
O3 O 0.4072(4) 0.7129(3) 0.2909(2)
C1 C 0.4805(10) 0.5834(6) 0.3616(5)
H1 H 0.4442 0.5451 0.3238
H2 H 0.3981 0.5959 0.3884
H3 H 0.5653 0.5592 0.3930
O4 O 0.7034(4) 0.6777(2) 0.54831(17)
N1 N 0.8404(4) 0.7037(3) 0.6546(2)
H4 H 0.8428 0.7300 0.6946
N2 N 0.3665(5) 0.8434(3) 0.5922(2)
N3 N -0.0934(5) 0.7489(3) 0.4080(2)
H5 H -0.1904 0.7368 0.3994
N4 N 0.4639(5) 0.7741(3) 0.5060(2)
H6 H 0.5184 0.7337 0.4936
C2 C 0.5892(5) 0.7609(3) 0.6268(2)
C3 C 0.4732(5) 0.7929(3) 0.5751(2)
C4 C 1.2321(5) 0.5676(3) 0.6343(2)
C5 C 0.7138(5) 0.7102(3) 0.6065(3)
C6 C 0.9693(5) 0.6574(3) 0.6451(2)
C7 C 1.1108(6) 0.6886(3) 0.6697(3)
H7 H 1.1196 0.7409 0.6904
N5 N 1.5959(6) 0.5695(3) 0.7211(3)
C8 C 1.4196(6) 0.5318(3) 0.5510(3)
H8 H 1.3285 0.5413 0.5157
H9 H 1.4894 0.5783 0.5504
C9 C 0.3650(6) 0.8610(3) 0.6603(3)
H10 H 0.2893 0.8969 0.6720
C10 C 0.2043(6) 0.7905(3) 0.4373(3)
C11 C 1.2401(6) 0.6441(3) 0.6642(2)
H11 H 1.3365 0.6666 0.6815
C12 C 0.1123(7) 0.8199(4) 0.3781(3)
H12 H 0.1529 0.8556 0.3468
C13 C 0.3670(6) 0.8186(4) 0.4517(3)
H13 H 0.4109 0.8148 0.4074
H14 H 0.3680 0.8764 0.4654
C14 C 0.9586(6) 0.5817(3) 0.6143(3)
H15 H 0.8617 0.5599 0.5968
C15 C 1.0879(6) 0.5374(3) 0.6088(3)
H16 H 1.0786 0.4854 0.5872
C16 C 0.5820(6) 0.7802(3) 0.6967(3)
H17 H 0.6561 0.7593 0.7329
C17 C 1.3752(6) 0.5198(3) 0.6258(3)
C18 C 0.4677(6) 0.8297(4) 0.7139(3)
H18 H 0.4605 0.8417 0.7617
C19 C -0.0364(7) 0.7975(4) 0.3647(3)
H19 H -0.0991 0.8173 0.3239
C20 C 1.5009(6) 0.5478(3) 0.6787(3)
C21 C 0.1413(6) 0.7369(4) 0.4802(3)
H20 H 0.2021 0.7140 0.5202
C22 C -0.0090(7) 0.7170(4) 0.4648(3)
H21 H -0.0532 0.6808 0.4943
C23 C 1.3636(7) 0.4261(3) 0.6331(3)
H22 H 1.4352 0.4069 0.6742
H23 H 1.2596 0.4106 0.6399
C24 C 1.4970(8) 0.4535(4) 0.5358(3)
H24 H 1.6037 0.4525 0.5591
H25 H 1.4940 0.4453 0.4845
C25 C 1.4018(10) 0.3899(4) 0.5671(4)
H26 H 1.3085 0.3775 0.5340
H27 H 1.4603 0.3392 0.5773
C26 C 0.9637(12) 0.4632(6) 0.3044(5)
H28 H 0.9019 0.4135 0.2952
H29 H 0.9583 0.4936 0.2597
O5 O 0.9039(12) 0.5124(7) 0.3561(5)
C27 C 1.1503(12) 0.4609(7) 0.3967(6)
H30 H 1.1417 0.4126 0.4265
H31 H 1.2556 0.4814 0.4062
C28 C 1.1123(13) 0.4425(8) 0.3285(6)
H32 H 1.1263 0.3837 0.3217
H33 H 1.1801 0.4717 0.3007
C29 C 1.0524(15) 0.5181(8) 0.4097(6)
H34 H 1.0988 0.5721 0.4064
H35 H 1.0287 0.5114 0.4581
loop_
_geom_bond_atom_site_label_1
_geom_bond_atom_site_label_2
_geom_bond_site_symmetry_1
_geom_bond_site_symmetry_2
S1 O1 1_555 1_555
O2 S1 1_555 1_555
O3 S1 1_555 1_555
C1 S1 1_555 1_555
H1 C1 1_555 1_555
H2 C1 1_555 1_555
H3 C1 1_555 1_555
O4 C5 1_555 1_555
N1 H4 1_555 1_555
N2 C3 1_555 1_555
N3 H5 1_555 1_555
N4 H6 1_555 1_555
C2 C3 1_555 1_555
C3 N4 1_555 1_555
C4 C11 1_555 1_555
C5 N1 1_555 1_555
C6 N1 1_555 1_555
C7 C6 1_555 1_555
H7 C7 1_555 1_555
N5 C20 1_555 1_555
C8 H8 1_555 1_555
H9 C8 1_555 1_555
C9 N2 1_555 1_555
H10 C9 1_555 1_555
C10 C12 1_555 1_555
C11 C7 1_555 1_555
H11 C11 1_555 1_555
C12 H12 1_555 1_555
C13 N4 1_555 1_555
H13 C13 1_555 1_555
H14 C13 1_555 1_555
C14 C6 1_555 1_555
H15 C14 1_555 1_555
C15 C4 1_555 1_555
H16 C15 1_555 1_555
C16 C2 1_555 1_555
H17 C16 1_555 1_555
C17 C4 1_555 1_555
C18 C9 1_555 1_555
H18 C18 1_555 1_555
C19 N3 1_555 1_555
H19 C19 1_555 1_555
C20 C17 1_555 1_555
C21 C10 1_555 1_555
H20 C21 1_555 1_555
C22 N3 1_555 1_555
H21 C22 1_555 1_555
C23 C17 1_555 1_555
H22 C23 1_555 1_555
H23 C23 1_555 1_555
C24 C8 1_555 1_555
H24 C24 1_555 1_555
H25 C24 1_555 1_555
C25 C23 1_555 1_555
H26 C25 1_555 1_555
H27 C25 1_555 1_555
C26 H28 1_555 1_555
H29 C26 1_555 1_555
O5 C26 1_555 1_555
C27 H30 1_555 1_555
H31 C27 1_555 1_555
C28 C26 1_555 1_555
H32 C28 1_555 1_555
H33 C28 1_555 1_555
C29 O5 1_555 1_555
H34 C29 1_555 1_555
H35 C29 1_555 1_555
C2 C5 1_555 1_555
C8 C17 1_555 1_555
C10 C13 1_555 1_555
C12 C19 1_555 1_555
C14 C15 1_555 1_555
C16 C18 1_555 1_555
C21 C22 1_555 1_555
C24 C25 1_555 1_555
C27 C28 1_555 1_555
C27 C29 1_555 1_555

#END
