
#######################################################################
#
#                 Cambridge Crystallographic Data Centre
#                                CCDC 
#
#######################################################################
#
# If this CIF has been generated from an entry in the Cambridge 
# Structural Database, then it will include bibliographic, chemical, 
# crystal, experimental, refinement or atomic coordinate data resulting 
# from the CCDC's data processing and validation procedures.
#
#######################################################################

data_JEDTUK
_chemical_formula_moiety         'C24 H24 N5 O1 1+,C3 H7 N1 O1,C1 H3 O3 S1 1-'
_chemical_name_systematic        
'4-{[(3-{[4-(1-cyanocyclopentyl)phenyl]carbamoyl}pyridin-2-yl)amino]methyl}pyridinium methanesulfonate N,N-dimethylformamide solvate'
_symmetry_cell_setting           triclinic
_symmetry_space_group_name_H-M   'P -1'
_symmetry_Int_Tables_number      2
_space_group_name_Hall           '-P 1'
loop_
_symmetry_equiv_pos_site_id
_symmetry_equiv_pos_as_xyz
1 x,y,z
2 -x,-y,-z
_cell_length_a                   8.9095(7)
_cell_length_b                   9.1868(7)
_cell_length_c                   19.4817(15)
_cell_angle_alpha                98.298(4)
_cell_angle_beta                 95.752(4)
_cell_angle_gamma                118.046(4)
_cell_volume                     1366.56
_exptl_crystal_colour            colorless
_exptl_crystal_description       block
_cell_formula_units_Z            2
loop_
_atom_site_label
_atom_site_type_symbol
_atom_site_fract_x
_atom_site_fract_y
_atom_site_fract_z
S1 S 0.61020(8) 0.71338(9) 0.43190(3)
O1 O 0.6865(2) 0.7926(3) 0.37460(10)
O2 O 0.7386(3) 0.7116(3) 0.48264(11)
O3 O 0.5161(3) 0.7888(4) 0.46303(13)
C1 C 0.4586(6) 0.5047(5) 0.3900(2)
H1 H 0.5174 0.4488 0.3703
H2 H 0.3787 0.5042 0.3529
H3 H 0.3964 0.4465 0.4237
N1 N 0.4961(3) 0.8370(3) 0.25278(11)
O4 O 0.5944(2) 0.6075(2) 0.20961(9)
N2 N 1.2498(3) 0.2879(3) 0.04058(12)
C2 C 0.4641(3) 0.8345(3) 0.18315(12)
N3 N 0.6757(2) 0.6062(2) 0.10303(10)
H4 H 0.6718 0.6371 0.0636
C3 C 0.9521(3) 0.3432(3) 0.12594(11)
C4 C 1.0549(3) 0.2512(3) 0.13621(11)
N4 N 0.3934(3) 0.9290(3) 0.16578(11)
N5 N -0.0170(3) 0.8190(3) 0.35065(11)
H5 H -0.1178 0.7958 0.3591
C5 C -0.0044(3) 0.7166(3) 0.29838(13)
H6 H -0.1033 0.6201 0.2725
C6 C 0.1556(3) 0.7543(3) 0.28294(12)
H7 H 0.1647 0.6833 0.2464
C7 C 0.3034(3) 0.8981(3) 0.32180(11)
C8 C 0.4825(3) 0.9531(3) 0.30694(12)
H8 H 0.5246 1.0608 0.2931
H9 H 0.5582 0.9711 0.3504
C9 C 0.5044(3) 0.7396(3) 0.13082(11)
C10 C 0.5929(3) 0.6454(3) 0.15171(11)
C11 C 0.7671(3) 0.5183(3) 0.11329(11)
C12 C 0.7092(3) 0.3831(3) 0.14750(12)
H10 H 0.6082 0.3498 0.1656
C13 C 0.8025(3) 0.2989(3) 0.15437(12)
H11 H 0.7649 0.2113 0.1783
C14 C 1.1700(3) 0.3167(3) 0.21179(12)
H12 H 1.2844 0.4090 0.2123
H13 H 1.1171 0.3552 0.2459
C15 C 1.1802(5) 0.1648(4) 0.22796(16)
H14 H 1.2099 0.1765 0.2785
H15 H 1.2651 0.1491 0.2052
C16 C 0.1224(4) 0.9567(4) 0.39027(13)
H16 H 0.1093 1.0245 0.4268
C17 C 0.2845(3) 0.9982(3) 0.37740(13)
H17 H 0.3815 1.0927 0.4056
C18 C 0.9421(3) 0.0551(3) 0.12963(13)
H18 H 0.8199 0.0214 0.1227
H19 H 0.9615 -0.0062 0.0898
C19 C 0.9976(6) 0.0187(4) 0.1976(2)
H20 H 0.9978 -0.0879 0.1887
H21 H 0.9202 0.0132 0.2300
C20 C 1.1665(3) 0.2753(3) 0.08304(12)
C21 C 1.0089(3) 0.4780(3) 0.09217(11)
H22 H 1.1089 0.5102 0.0733
C22 C 0.9181(3) 0.5650(3) 0.08627(11)
H23 H 0.9586 0.6557 0.0640
C23 C 0.4594(3) 0.7408(3) 0.06067(12)
H24 H 0.4808 0.6778 0.0252
C24 C 0.3828(3) 0.8346(3) 0.04291(12)
H25 H 0.3510 0.8349 -0.0040
C25 C 0.3556(3) 0.9277(3) 0.09759(13)
H26 H 0.3078 0.9938 0.0861
H27 H 0.543(4) 0.781(4) 0.2642(18)
O5 O 0.7461(7) 0.4042(6) 0.3452(2)
C26 C 0.7577(8) 0.3684(6) 0.4036(3)
H28 H 0.6960 0.3878 0.4362
N6 N 0.8563(5) 0.3034(5) 0.4201(2)
C27 C 0.8485(5) 0.2521(6) 0.4838(2)
H29 H 0.7876 0.2943 0.5110
H30 H 0.9639 0.2957 0.5096
H31 H 0.7886 0.1309 0.4748
C28 C 0.9366(11) 0.2788(14) 0.3703(5)
H32 H 0.8900 0.1597 0.3529
H33 H 1.0581 0.3300 0.3893
H34 H 0.9202 0.3287 0.3322
loop_
_geom_bond_atom_site_label_1
_geom_bond_atom_site_label_2
_geom_bond_site_symmetry_1
_geom_bond_site_symmetry_2
S1 O1 1_555 1_555
O2 S1 1_555 1_555
O3 S1 1_555 1_555
C1 S1 1_555 1_555
H1 C1 1_555 1_555
H2 C1 1_555 1_555
H3 C1 1_555 1_555
N1 C2 1_555 1_555
O4 C10 1_555 1_555
N2 C20 1_555 1_555
C2 N4 1_555 1_555
N3 H4 1_555 1_555
C3 C4 1_555 1_555
C4 C14 1_555 1_555
N4 C25 1_555 1_555
N5 H5 1_555 1_555
C5 N5 1_555 1_555
H6 C5 1_555 1_555
C6 C5 1_555 1_555
H7 C6 1_555 1_555
C7 C6 1_555 1_555
C8 N1 1_555 1_555
H8 C8 1_555 1_555
H9 C8 1_555 1_555
C9 C2 1_555 1_555
C10 N3 1_555 1_555
C11 N3 1_555 1_555
C12 C11 1_555 1_555
H10 C12 1_555 1_555
C13 C3 1_555 1_555
H11 C13 1_555 1_555
C14 H12 1_555 1_555
H13 C14 1_555 1_555
C15 C14 1_555 1_555
H14 C15 1_555 1_555
H15 C15 1_555 1_555
C16 N5 1_555 1_555
H16 C16 1_555 1_555
C17 C7 1_555 1_555
H17 C17 1_555 1_555
C18 C4 1_555 1_555
H18 C18 1_555 1_555
H19 C18 1_555 1_555
C19 C15 1_555 1_555
H20 C19 1_555 1_555
H21 C19 1_555 1_555
C20 C4 1_555 1_555
C21 C3 1_555 1_555
H22 C21 1_555 1_555
C22 C11 1_555 1_555
H23 C22 1_555 1_555
C23 C9 1_555 1_555
H24 C23 1_555 1_555
C24 C23 1_555 1_555
H25 C24 1_555 1_555
C25 C24 1_555 1_555
H26 C25 1_555 1_555
H27 N1 1_555 1_555
O5 C26 1_555 1_555
C26 H28 1_555 1_555
N6 C26 1_555 1_555
C27 N6 1_555 1_555
H29 C27 1_555 1_555
H30 C27 1_555 1_555
H31 C27 1_555 1_555
C28 N6 1_555 1_555
H32 C28 1_555 1_555
H33 C28 1_555 1_555
H34 C28 1_555 1_555
C7 C8 1_555 1_555
C9 C10 1_555 1_555
C12 C13 1_555 1_555
C16 C17 1_555 1_555
C18 C19 1_555 1_555
C21 C22 1_555 1_555

#END
