
#######################################################################
#
#                 Cambridge Crystallographic Data Centre
#                                CCDC 
#
#######################################################################
#
# If this CIF has been generated from an entry in the Cambridge 
# Structural Database, then it will include bibliographic, chemical, 
# crystal, experimental, refinement or atomic coordinate data resulting 
# from the CCDC's data processing and validation procedures.
#
#######################################################################

data_JEFRUH
_chemical_formula_moiety         'C60 H80 Cl2 N4 O20 Rb2,C2 H6 O1'
_chemical_name_systematic        
'(\m~2~-1,7,10,16,17,23,26,32,35,38,43,46-Dodecaoxa-4,13,20,29-tetra-aza(16.8^4,13^.16.8^20,29^)(9,10)anthracenophane)-bis(perchlorato-O)-di-rubidium ethanol clathrate'
_symmetry_cell_setting           triclinic
_symmetry_space_group_name_H-M   'P -1'
_symmetry_Int_Tables_number      2
_space_group_name_Hall           '-P 1'
loop_
_symmetry_equiv_pos_site_id
_symmetry_equiv_pos_as_xyz
1 x,y,z
2 -x,-y,-z
_cell_length_a                   13.088
_cell_length_b                   13.166
_cell_length_c                   13.824
_cell_angle_alpha                105.14
_cell_angle_beta                 94.98
_cell_angle_gamma                126.96
_cell_volume                     1743.13
_exptl_crystal_colour            yellow
_chemical_melting_point          210-220deg.C(dec.)
_cell_formula_units_Z            1
loop_
_atom_site_label
_atom_site_type_symbol
_atom_site_fract_x
_atom_site_fract_y
_atom_site_fract_z
C1 C 0.4145(7) -0.1303(8) 0.3032(6)
C2 C 0.5528(7) -0.0307(7) 0.3580(5)
C3 C 0.6401(7) 0.0822(8) 0.3284(6)
C4 C 0.7719(3) 0.1722(8) 0.3831(7)
C5 C 0.8265(7) 0.1622(8) 0.4672(6)
C6 C 0.7473(7) 0.0577(8) 0.4988(6)
C7 C 0.6072(7) -0.0428(7) 0.4435(6)
C8 C 0.5186(7) -0.1579(7) 0.4725(6)
C9 C 0.3805(7) -0.2517(7) 0.4210(6)
C10 C 0.2905(7) -0.3588(8) 0.4554(6)
C11 C 0.1576(8) -0.4465(3) 0.4019(7)
C12 C 0.1043(8) -0.4365(8) 0.3186(7)
C13 C 0.1851(7) -0.3365(8) 0.2825(6)
C14 C 0.3251(7) -0.2411(7) 0.3346(6)
O1 O 0.3624(5) -0.1234(5) 0.2151(4)
C15 C 0.3747(8) -0.1884(9) 0.1215(6)
C16 C 0.3499(9) -0.1492(9) 0.0351(6)
N1 N 0.2189(6) -0.1835(6) 0.0080(5)
C17 C 0.1062(8) -0.3263(8) -0.0121(6)
C18 C -0.0158(8) -0.3456(8) 0.0(7)
O2 O 0.0090(5) -0.2817(6) 0.1099(4)
C19 C -0.1084(8) -0.3246(9) 0.1376(7)
C20 C -0.0716(8) -0.2499(9) 0.2510(7)
O3 O -0.0029(6) -0.1086(6) 0.2708(5)
C21 C 0.0026(9) -0.037(1) 0.3634(8)
C22 C 0.2034(9) -0.154(1) -0.0851(6)
C23 C 0.272(1) -0.005(1) -0.0597(7)
O4 O 0.2053(6) 0.0292(6) -0.0055(4)
C24 C 0.257(1) 0.164(1) 0.0093(8)
C25 C 0.189(1) 0.201(1) 0.0688(8)
O5 O 0.2278(6) 0.2173(6) 0.1751(4)
C26 C 0.185(1) 0.274(1) 0.2406(8)
C27 C 0.248(1) 0.3108(9) 0.3528(7)
N2 N 0.2075(6) 0.1913(7) 0.3782(5)
C28 C 0.0638(9) 0.106(1) 0.3760(8)
O6 O 0.5756(5) -0.1697(5) 0.5526(4)
C29 C 0.5688(8) -0.2882(9) 0.5156(7)
C30 C 0.2972(9) 0.2456(9) 0.4842(7)
Rb1 Rb 0.25707(8) 0.02375(8) 0.21295(7)
O7 O 0.5346(7) 0.2274(7) 0.2106(7)
O8 O 0.6120(8) 0.3986(9) 0.1546(7)
O9 O 0.7521(7) 0.4026(9) 0.2675(8)
O10 O 0.621(1) 0.443(1) 0.3157(8)
Cl1 Cl 0.6334(2) 0.3699(2) 0.2398(2)
H1 H 0.582(6) 0.091(6) 0.266(5)
H2 H 0.796(6) 0.228(6) 0.364(4)
H3 H 0.905(6) 0.212(6) 0.509(5)
H4 H 0.803(5) 0.062(5) 0.565(4)
H5 H 0.339(5) -0.348(5) 0.529(4)
H6 H 0.133(6) -0.493(7) 0.424(5)
H7 H 0.016(6) -0.499(6) 0.290(5)
H8 H 0.140(6) -0.326(6) 0.227(5)
H9 H 0.467(6) -0.155(7) 0.138(5)
H10 H 0.309(6) -0.297(6) 0.103(4)
H11 H 0.434(7) -0.023(7) 0.060(5)
H12 H 0.355(7) -0.188(7) -0.012(5)
H13 H 0.091(6) -0.385(6) -0.071(5)
H14 H 0.149(6) -0.342(6) 0.040(4)
H15 H -0.020(6) -0.285(7) -0.032(5)
H16 H -0.103(9) -0.45(1) -0.028(7)
H17 H -0.146(8) -0.287(9) 0.103(6)
H18 H -0.152(8) -0.408(8) 0.107(6)
H19 H -0.148(8) -0.265(8) 0.261(6)
H20 H 0.005(7) -0.245(7) 0.282(5)
H21 H -0.080(8) -0.075(8) 0.359(6)
H22 H 0.074(8) -0.042(9) 0.410(6)
H23 H 0.011(7) 0.083(8) 0.282(6)
H24 H 0.067(7) 0.156(8) 0.433(6)
H25 H 0.244(7) -0.170(7) -0.125(6)
H26 H 0.116(7) -0.186(7) -0.116(5)
H27 H 0.389(8) 0.069(8) -0.001(6)
H28 H 0.251(6) 0.010(6) -0.116(5)
H29 H 0.372(8) 0.240(8) 0.074(6)
H30 H 0.236(8) 0.150(8) -0.047(6)
H31 H 0.246(7) 0.309(8) 0.085(6)
H32 H 0.090(7) 0.121(7) 0.040(6)
H33 H 0.237(7) 0.369(8) 0.238(6)
H34 H 0.095(8) 0.191(8) 0.215(6)
H35 H 0.367(9) 0.376(9) 0.374(7)
H36 H 0.239(6) 0.365(7) 0.393(5)
H37 H 0.500(7) -0.358(7) 0.429(5)
H38 H 0.536(7) -0.342(7) 0.583(5)
H39 H 0.248(7) 0.178(7) 0.522(5)
H40 H 0.335(7) 0.347(8) 0.539(6)
Rb1A Rb 0.74293(8) -0.02375(8) 0.78705(7)
C30A C 0.7028(9) -0.2456(9) 0.5158(7)
C29A C 0.4312(8) 0.2882(9) 0.4844(7)
O6A O 0.4244(5) 0.1697(5) 0.4474(4)
O1A O 0.6376(5) 0.1234(5) 0.7849(4)
N1A N 0.7811(6) 0.1835(6) 0.9920(5)
O2A O 0.9910(5) 0.2817(6) 0.8901(4)
O3A O 1.0029(6) 0.1086(6) 0.7292(5)
O4A O 0.7947(6) -0.0292(6) 1.0055(4)
O5A O 0.7722(6) -0.2173(6) 0.8249(4)
N2A N 0.7925(6) -0.1913(7) 0.6218(5)
O7A O 0.4654(7) -0.2274(7) 0.7894(7)
H39A H 0.752(7) -0.178(7) 0.478(5)
H40A H 0.665(7) -0.347(8) 0.461(6)
H37A H 0.500(7) 0.358(7) 0.571(5)
H38A H 0.464(7) 0.342(7) 0.417(5)
C8A C 0.4814(7) 0.1579(7) 0.5275(6)
C1A C 0.5855(7) 0.1303(8) 0.6968(6)
C15A C 0.6253(8) 0.1884(9) 0.8785(6)
C16A C 0.6501(9) 0.1492(9) 0.9649(6)
C17A C 0.8938(8) 0.3263(8) 1.0121(6)
C22A C 0.7966(9) 0.154(1) 1.0851(6)
C18A C 1.0158(8) 0.3456(8) 1.0(7)
C19A C 1.1084(8) 0.3246(9) 0.8624(7)
C20A C 1.0716(8) 0.2499(9) 0.7490(7)
C21A C 0.9974(9) 0.037(1) 0.6366(8)
C23A C 0.728(1) 0.005(1) 1.0597(7)
C24A C 0.743(1) -0.164(1) 0.9907(8)
C25A C 0.811(1) -0.201(1) 0.9312(8)
C26A C 0.815(1) -0.274(1) 0.7594(8)
C27A C 0.752(1) -0.3108(9) 0.6472(7)
C28A C 0.9362(9) -0.106(1) 0.6240(8)
Cl1A Cl 0.3666(2) -0.3699(2) 0.7602(2)
C7A C 0.3928(7) 0.0428(7) 0.5565(6)
C9A C 0.6195(7) 0.2517(7) 0.5790(6)
C2A C 0.4472(7) 0.0307(7) 0.6420(5)
C14A C 0.6749(7) 0.2411(7) 0.6654(6)
H9A H 0.533(6) 0.155(7) 0.862(5)
H10A H 0.691(6) 0.297(6) 0.897(4)
H11A H 0.566(7) 0.023(7) 0.940(5)
H12A H 0.645(7) 0.188(7) 1.012(5)
H13A H 0.909(6) 0.385(6) 1.071(5)
H14A H 0.851(6) 0.342(6) 0.960(4)
H25A H 0.756(7) 0.170(7) 1.125(6)
H26A H 0.884(7) 0.186(7) 1.116(5)
H15A H 1.020(6) 0.285(7) 1.032(5)
H16A H 1.103(9) 0.45(1) 1.028(7)
H17A H 1.146(8) 0.287(9) 0.897(6)
H18A H 1.152(8) 0.408(8) 0.893(6)
H19A H 1.148(8) 0.265(8) 0.739(6)
H20A H 0.995(7) 0.245(7) 0.718(5)
H21A H 1.080(8) 0.075(8) 0.641(6)
H22A H 0.926(8) 0.042(9) 0.590(6)
H27A H 0.611(8) -0.069(8) 1.001(6)
H28A H 0.749(6) -0.010(6) 1.116(5)
H29A H 0.628(8) -0.240(8) 0.926(6)
H30A H 0.764(8) -0.150(8) 1.047(6)
H31A H 0.754(7) -0.309(8) 0.915(6)
H32A H 0.910(7) -0.121(7) 0.960(6)
H33A H 0.763(7) -0.369(8) 0.762(6)
H34A H 0.905(8) -0.191(8) 0.785(6)
H35A H 0.633(9) -0.376(9) 0.626(7)
H36A H 0.761(6) -0.365(7) 0.607(5)
H23A H 0.989(7) -0.083(8) 0.718(6)
H24A H 0.933(7) -0.156(8) 0.567(6)
O8A O 0.3880(8) -0.3986(9) 0.8454(7)
O9A O 0.2479(7) -0.4026(9) 0.7325(8)
O10A O 0.379(1) -0.443(1) 0.6843(8)
C6A C 0.2527(7) -0.0577(8) 0.5012(6)
C10A C 0.7095(7) 0.3588(8) 0.5446(6)
C3A C 0.3599(7) -0.0822(8) 0.6716(6)
C13A C 0.8149(7) 0.3365(8) 0.7175(6)
C5A C 0.1735(7) -0.1622(8) 0.5328(6)
H4A H 0.197(5) -0.062(5) 0.435(4)
C11A C 0.8424(8) 0.4465(3) 0.5981(7)
H5A H 0.661(5) 0.348(5) 0.471(4)
C4A C 0.2281(3) -0.1722(8) 0.6169(7)
H1A H 0.418(6) -0.091(6) 0.734(5)
C12A C 0.8957(8) 0.4365(8) 0.6814(7)
H8A H 0.860(6) 0.326(6) 0.773(5)
H3A H 0.095(6) -0.212(6) 0.491(5)
H6A H 0.867(6) 0.493(7) 0.576(5)
H2A H 0.204(6) -0.228(6) 0.636(4)
H7A H 0.984(6) 0.499(6) 0.710(5)
O11? O 0.6264(9) 0.7469(9) 0.2440(5)
C31? C 0.508(1) 0.591(1) 0.185(1)
C32? C 0.435(1) 0.5522(9) 0.0646(9)
loop_
_geom_bond_atom_site_label_1
_geom_bond_atom_site_label_2
_geom_bond_site_symmetry_1
_geom_bond_site_symmetry_2
C1 C2 1_555 1_555
C2 C3 1_555 1_555
C3 C4 1_555 1_555
C4 C5 1_555 1_555
C5 C6 1_555 1_555
C6 C7 1_555 1_555
C7 C2 1_555 1_555
C8 C7 1_555 1_555
C9 C8 1_555 1_555
C10 C9 1_555 1_555
C11 C10 1_555 1_555
C12 C11 1_555 1_555
C13 C12 1_555 1_555
C14 C1 1_555 1_555
O1 C1 1_555 1_555
C15 O1 1_555 1_555
C16 C15 1_555 1_555
N1 C16 1_555 1_555
C17 N1 1_555 1_555
C18 C17 1_555 1_555
O2 C18 1_555 1_555
C19 O2 1_555 1_555
C20 C19 1_555 1_555
O3 C20 1_555 1_555
C21 O3 1_555 1_555
C22 N1 1_555 1_555
C23 C22 1_555 1_555
O4 C23 1_555 1_555
C24 O4 1_555 1_555
C25 C24 1_555 1_555
O5 C25 1_555 1_555
C26 O5 1_555 1_555
C27 C26 1_555 1_555
N2 C27 1_555 1_555
C28 C21 1_555 1_555
O6 C8 1_555 1_555
C29 O6 1_555 1_555
C30 N2 1_555 1_555
Rb1 O1 1_555 1_555
O7 Rb1 1_555 1_555
O8 Cl1 1_555 1_555
O9 Cl1 1_555 1_555
O10 Cl1 1_555 1_555
Cl1 O7 1_555 1_555
H1 C3 1_555 1_555
H2 C4 1_555 1_555
H3 C5 1_555 1_555
H4 C6 1_555 1_555
H5 C10 1_555 1_555
H6 C11 1_555 1_555
H7 C12 1_555 1_555
H8 C13 1_555 1_555
H9 C15 1_555 1_555
H10 C15 1_555 1_555
H11 C16 1_555 1_555
H12 C16 1_555 1_555
H13 C17 1_555 1_555
H14 C17 1_555 1_555
H15 C18 1_555 1_555
H16 C18 1_555 1_555
H17 C19 1_555 1_555
H18 C19 1_555 1_555
H19 C20 1_555 1_555
H20 C20 1_555 1_555
H21 C21 1_555 1_555
H22 C21 1_555 1_555
H23 C28 1_555 1_555
H24 C28 1_555 1_555
H25 C22 1_555 1_555
H26 C22 1_555 1_555
H27 C23 1_555 1_555
H28 C23 1_555 1_555
H29 C24 1_555 1_555
H30 C24 1_555 1_555
H31 C25 1_555 1_555
H32 C25 1_555 1_555
H33 C26 1_555 1_555
H34 C26 1_555 1_555
H35 C27 1_555 1_555
H36 C27 1_555 1_555
H37 C29 1_555 1_555
H38 C29 1_555 1_555
H39 C30 1_555 1_555
H40 C30 1_555 1_555
Rb1A O6 1_555 1_555
C30A C29 1_555 1_555
C29A C30 1_555 1_555
O6A Rb1 1_555 1_555
O1A Rb1A 1_555 1_555
N1A Rb1A 1_555 1_555
O2A Rb1A 1_555 1_555
O3A Rb1A 1_555 1_555
O4A Rb1A 1_555 1_555
O5A Rb1A 1_555 1_555
N2A Rb1A 1_555 1_555
O7A Rb1A 1_555 1_555
H39A C30A 1_555 1_555
H40A C30A 1_555 1_555
H37A C29A 1_555 1_555
H38A C29A 1_555 1_555
C8A O6A 1_555 1_555
C1A O1A 1_555 1_555
C15A O1A 1_555 1_555
C16A N1A 1_555 1_555
C17A N1A 1_555 1_555
C22A N1A 1_555 1_555
C18A O2A 1_555 1_555
C19A O2A 1_555 1_555
C20A O3A 1_555 1_555
C21A O3A 1_555 1_555
C23A O4A 1_555 1_555
C24A O4A 1_555 1_555
C25A O5A 1_555 1_555
C26A O5A 1_555 1_555
C27A N2A 1_555 1_555
C28A N2A 1_555 1_555
Cl1A O7A 1_555 1_555
C7A C8A 1_555 1_555
C9A C8A 1_555 1_555
C2A C1A 1_555 1_555
C14A C1A 1_555 1_555
H9A C15A 1_555 1_555
H10A C15A 1_555 1_555
H11A C16A 1_555 1_555
H12A C16A 1_555 1_555
H13A C17A 1_555 1_555
H14A C17A 1_555 1_555
H25A C22A 1_555 1_555
H26A C22A 1_555 1_555
H15A C18A 1_555 1_555
H16A C18A 1_555 1_555
H17A C19A 1_555 1_555
H18A C19A 1_555 1_555
H19A C20A 1_555 1_555
H20A C20A 1_555 1_555
H21A C21A 1_555 1_555
H22A C21A 1_555 1_555
H27A C23A 1_555 1_555
H28A C23A 1_555 1_555
H29A C24A 1_555 1_555
H30A C24A 1_555 1_555
H31A C25A 1_555 1_555
H32A C25A 1_555 1_555
H33A C26A 1_555 1_555
H34A C26A 1_555 1_555
H35A C27A 1_555 1_555
H36A C27A 1_555 1_555
H23A C28A 1_555 1_555
H24A C28A 1_555 1_555
O8A Cl1A 1_555 1_555
O9A Cl1A 1_555 1_555
O10A Cl1A 1_555 1_555
C6A C7A 1_555 1_555
C10A C9A 1_555 1_555
C3A C2A 1_555 1_555
C13A C14A 1_555 1_555
C5A C6A 1_555 1_555
H4A C6A 1_555 1_555
C11A C10A 1_555 1_555
H5A C10A 1_555 1_555
C4A C3A 1_555 1_555
H1A C3A 1_555 1_555
C12A C13A 1_555 1_555
H8A C13A 1_555 1_555
H3A C5A 1_555 1_555
H6A C11A 1_555 1_555
H2A C4A 1_555 1_555
H7A C12A 1_555 1_555
C9 C14 1_555 1_555
C13 C14 1_555 1_555
N1 Rb1 1_555 1_555
O2 Rb1 1_555 1_555
O3 Rb1 1_555 1_555
O4 Rb1 1_555 1_555
O5 Rb1 1_555 1_555
N2 C28 1_555 1_555
N2 Rb1 1_555 1_555
C30A N2A 1_555 1_555
C29A O6A 1_555 1_555
C15A C16A 1_555 1_555
C17A C18A 1_555 1_555
C22A C23A 1_555 1_555
C19A C20A 1_555 1_555
C21A C28A 1_555 1_555
C24A C25A 1_555 1_555
C26A C27A 1_555 1_555
C7A C2A 1_555 1_555
C9A C14A 1_555 1_555
C5A C4A 1_555 1_555
C11A C12A 1_555 1_555

#END
