
#######################################################################
#
#                 Cambridge Crystallographic Data Centre
#                                CCDC 
#
#######################################################################
#
# If this CIF has been generated from an entry in the Cambridge 
# Structural Database, then it will include bibliographic, chemical, 
# crystal, experimental, refinement or atomic coordinate data resulting 
# from the CCDC's data processing and validation procedures.
#
#######################################################################

data_JEFSOD
_chemical_formula_moiety         'C21 H15 N3'
_chemical_name_systematic        1,3,5-tris(2-Pyridyl)benzene
_symmetry_cell_setting           orthorhombic
_symmetry_space_group_name_H-M   'P n a 21'
_symmetry_Int_Tables_number      33
_space_group_name_Hall           'P 2c -2n'
loop_
_symmetry_equiv_pos_site_id
_symmetry_equiv_pos_as_xyz
1 x,y,z
2 -x,-y,1/2+z
3 1/2+x,1/2-y,z
4 1/2-x,1/2+y,1/2+z
_cell_length_a                   8.1963(3)
_cell_length_b                   11.3357(4)
_cell_length_c                   16.0763(5)
_cell_angle_alpha                90
_cell_angle_beta                 90
_cell_angle_gamma                90
_cell_volume                     1493.66
_exptl_crystal_colour            colorless
_cell_formula_units_Z            4
_exptl_crystal_recrystallization_method dichloromethane
loop_
_atom_site_label
_atom_site_type_symbol
_atom_site_fract_x
_atom_site_fract_y
_atom_site_fract_z
N1 N 0.43596(17) 1.20424(11) 0.42632(9)
C1 C 0.5194(2) 1.26776(14) 0.48199(12)
H1 H 0.5365 1.3491 0.4706
C2 C 0.5825(2) 1.22214(15) 0.55537(11)
H2 H 0.6428 1.2704 0.5927
C3 C 0.5550(2) 1.10393(15) 0.57259(11)
H3 H 0.5973 1.0692 0.6219
C4 C 0.4650(2) 1.03727(13) 0.51691(11)
H4 H 0.4414 0.9569 0.5285
C5 C 0.40915(18) 1.08937(12) 0.44334(9)
N2 N 0.02766(18) 1.03566(11) 0.11877(9)
C6 C -0.0538(2) 1.09542(14) 0.05977(11)
H5 H -0.0738 1.0568 0.0083
C7 C -0.1109(2) 1.21026(15) 0.06917(11)
H6 H -0.1670 1.2493 0.0254
C8 C -0.08300(19) 1.26563(12) 0.14469(10)
H7 H -0.1197 1.3441 0.1536
C9 C -0.00116(18) 1.20555(12) 0.20706(10)
H8 H 0.0174 1.2418 0.2595
C10 C 0.05385(18) 1.09069(12) 0.19177(9)
N3 N 0.27529(16) 0.65572(11) 0.39061(9)
C11 C 0.2791(2) 0.53745(13) 0.39422(11)
H9 H 0.3088 0.5016 0.4455
C12 C 0.2422(2) 0.46441(12) 0.32763(12)
H10 H 0.2479 0.3810 0.3328
C13 C 0.1969(2) 0.51683(13) 0.25347(11)
H11 H 0.1699 0.4698 0.2066
C14 C 0.1914(2) 0.63905(13) 0.24834(10)
H12 H 0.1603 0.6765 0.1979
C15 C 0.23207(18) 0.70608(12) 0.31803(10)
C16 C 0.23111(18) 1.08315(11) 0.31828(11)
H13 H 0.2307 1.1670 0.3191
C17 C 0.31762(18) 1.02168(12) 0.37918(9)
C18 C 0.31769(19) 0.89874(12) 0.37757(9)
H14 H 0.3772 0.8563 0.4185
C19 C 0.23104(17) 0.83712(11) 0.31632(10)
C20 C 0.14581(18) 0.90020(11) 0.25566(10)
H15 H 0.0877 0.8589 0.2136
C21 C 0.14515(18) 1.02378(11) 0.25614(9)
loop_
_geom_bond_atom_site_label_1
_geom_bond_atom_site_label_2
_geom_bond_site_symmetry_1
_geom_bond_site_symmetry_2
N1 C1 1_555 1_555
C1 H1 1_555 1_555
C2 C1 1_555 1_555
H2 C2 1_555 1_555
C3 C2 1_555 1_555
H3 C3 1_555 1_555
C4 C3 1_555 1_555
H4 C4 1_555 1_555
C5 N1 1_555 1_555
N2 C6 1_555 1_555
C6 H5 1_555 1_555
C7 C6 1_555 1_555
H6 C7 1_555 1_555
C8 C7 1_555 1_555
H7 C8 1_555 1_555
C9 C8 1_555 1_555
H8 C9 1_555 1_555
C10 N2 1_555 1_555
N3 C11 1_555 1_555
C11 H9 1_555 1_555
C12 C11 1_555 1_555
H10 C12 1_555 1_555
C13 C12 1_555 1_555
H11 C13 1_555 1_555
C14 C13 1_555 1_555
H12 C14 1_555 1_555
C15 N3 1_555 1_555
C16 H13 1_555 1_555
C17 C5 1_555 1_555
C18 C17 1_555 1_555
H14 C18 1_555 1_555
C19 C15 1_555 1_555
C20 C19 1_555 1_555
H15 C20 1_555 1_555
C21 C10 1_555 1_555
C4 C5 1_555 1_555
C9 C10 1_555 1_555
C14 C15 1_555 1_555
C16 C17 1_555 1_555
C16 C21 1_555 1_555
C18 C19 1_555 1_555
C20 C21 1_555 1_555

#END
