
#######################################################################
#
#                 Cambridge Crystallographic Data Centre
#                                CCDC 
#
#######################################################################
#
# If this CIF has been generated from an entry in the Cambridge 
# Structural Database, then it will include bibliographic, chemical, 
# crystal, experimental, refinement or atomic coordinate data resulting 
# from the CCDC's data processing and validation procedures.
#
#######################################################################

data_JEGDOR
_chemical_formula_moiety         'C29 H21 N1 O1 S1'
_chemical_name_systematic        
5-[4-(diphenylamino)phenyl]-3-phenylthiophene-2-carbaldehyde
_symmetry_cell_setting           monoclinic
_symmetry_space_group_name_H-M   'C c'
_symmetry_Int_Tables_number      9
_space_group_name_Hall           'C -2yc'
loop_
_symmetry_equiv_pos_site_id
_symmetry_equiv_pos_as_xyz
1 x,y,z
2 x,-y,1/2+z
3 1/2+x,1/2+y,z
4 1/2+x,1/2-y,1/2+z
_cell_length_a                   11.0284(9)
_cell_length_b                   11.0185(10)
_cell_length_c                   35.813(3)
_cell_angle_alpha                90
_cell_angle_beta                 90.442(3)
_cell_angle_gamma                90
_cell_volume                     4351.74
_exptl_crystal_colour            yellow
_exptl_crystal_description       plate
_cell_formula_units_Z            8
loop_
_atom_site_label
_atom_site_type_symbol
_atom_site_fract_x
_atom_site_fract_y
_atom_site_fract_z
S1 S 0.6882(3) 0.2021(3) 0.79016(9)
O1 O 0.5913(15) 0.0098(12) 0.7410(3)
N1 N 0.7814(14) 0.6396(13) 0.9192(3)
C1 C 0.7944(14) 0.3203(14) 0.7947(4)
C2 C 0.8655(13) 0.3211(10) 0.7638(4)
H1 H 0.927963 0.379245 0.760294
C3 C 0.8395(15) 0.2281(12) 0.7370(4)
C4 C 0.7437(16) 0.1548(12) 0.7473(4)
C5 C 0.6770(17) 0.0614(16) 0.7278(4)
H2 H 0.701914 0.039483 0.703388
C6 C 0.9115(14) 0.2171(14) 0.7022(4)
C7 C 0.9535(14) 0.3202(11) 0.6840(3)
H3 H 0.936539 0.397271 0.694680
C8 C 1.018(2) 0.3158(16) 0.6516(4)
H4 H 1.044868 0.388125 0.639813
C9 C 1.0437(15) 0.2010(18) 0.6363(4)
H5 H 1.089869 0.194820 0.614061
C10 C 1.001(2) 0.0976(17) 0.6536(4)
H6 H 1.017859 0.020426 0.642952
C11 C 0.9362(15) 0.1042(12) 0.6859(4)
H7 H 0.907542 0.032042 0.697382
C12 C 0.7899(15) 0.3997(15) 0.8267(3)
C13 C 0.8646(12) 0.5032(15) 0.8278(4)
H8 H 0.915084 0.521099 0.807192
C14 C 0.8657(15) 0.5796(14) 0.8586(4)
H9 H 0.920257 0.646276 0.859634
C15 C 0.7868(15) 0.5581(15) 0.8880(4)
C16 C 0.7114(14) 0.4573(18) 0.8873(4)
H10 H 0.655367 0.443542 0.906855
C17 C 0.7190(15) 0.3754(14) 0.8571(3)
H11 H 0.674075 0.301924 0.857808
C18 C 0.8895(15) 0.6854(18) 0.9347(4)
C19 C 0.9951(15) 0.615(2) 0.9384(4)
H12 H 0.996536 0.533400 0.929477
C20 C 1.0966(17) 0.664(3) 0.9552(6)
H13 H 1.168750 0.617611 0.957095
C21 C 1.0950(18) 0.781(3) 0.9694(7)
H14 H 1.166388 0.814371 0.980475
C22 C 0.996(2) 0.847(2) 0.9678(5)
H15 H 0.996091 0.925151 0.979032
C23 C 0.8901(17) 0.8055(18) 0.9499(4)
H16 H 0.820452 0.855990 0.947957
C24 C 0.6664(11) 0.6750(12) 0.9326(4)
C25 C 0.6479(18) 0.6826(15) 0.9701(5)
H17 H 0.711286 0.663246 0.987229
C26 C 0.5361(15) 0.719(2) 0.9828(5)
H18 H 0.521774 0.721379 1.008905
C27 C 0.4440(15) 0.7510(19) 0.9582(5)
H19 H 0.368963 0.780872 0.967279
C28 C 0.4633(18) 0.7392(18) 0.9204(6)
H20 H 0.399090 0.755762 0.903327
C29 C 0.5708(16) 0.7048(15) 0.9076(5)
H21 H 0.583562 0.700281 0.881477
S2 S 0.2633(3) 0.1232(3) 0.71871(9)
O2 O 0.0740(12) 0.0269(11) 0.7674(3)
N2 N 0.6911(16) 0.2099(11) 0.5889(3)
C30 C 0.3785(11) 0.2282(10) 0.7151(4)
C31 C 0.3854(15) 0.3053(15) 0.7449(3)
H22 H 0.443310 0.368673 0.747286
C32 C 0.2946(15) 0.2788(12) 0.7722(4)
C33 C 0.2221(14) 0.1810(11) 0.7606(4)
C34 C 0.1296(15) 0.1134(11) 0.7813(5)
H23 H 0.111985 0.136947 0.806147
C35 C 0.2841(14) 0.3532(12) 0.8076(3)
C36 C 0.3925(14) 0.3967(14) 0.8236(4)
H24 H 0.468926 0.381154 0.812499
C37 C 0.383(2) 0.4637(17) 0.8566(4)
H25 H 0.454773 0.491409 0.868697
C38 C 0.2722(16) 0.4905(14) 0.8719(4)
H26 H 0.267938 0.539564 0.893651
C39 C 0.1677(16) 0.4463(14) 0.8558(4)
H27 H 0.090897 0.459954 0.866858
C40 C 0.1779(16) 0.3814(13) 0.8228(4)
H28 H 0.105711 0.355746 0.810526
C41 C 0.4588(15) 0.2272(13) 0.6824(4)
C42 C 0.5637(16) 0.3002(16) 0.6808(4)
H29 H 0.582279 0.353026 0.701011
C43 C 0.6391(16) 0.2965(11) 0.6507(4)
H30 H 0.709788 0.345791 0.650436
C44 C 0.6127(19) 0.2199(12) 0.6201(4)
C45 C 0.5118(18) 0.1459(14) 0.6210(4)
H31 H 0.496203 0.092460 0.600731
C46 C 0.4318(14) 0.1480(13) 0.6513(3)
H32 H 0.361330 0.098314 0.651356
C47 C 0.7411(18) 0.3147(13) 0.5726(4)
C48 C 0.8588(16) 0.3161(16) 0.5594(4)
H33 H 0.908352 0.246613 0.563189
C49 C 0.9065(19) 0.4147(16) 0.5410(4)
H34 H 0.984780 0.411293 0.530169
C50 C 0.836(3) 0.5200(18) 0.5387(4)
H35 H 0.869871 0.591605 0.528353
C51 C 0.716(2) 0.5218(16) 0.5514(4)
H36 H 0.665615 0.591254 0.548043
C52 C 0.673(2) 0.4185(13) 0.5691(4)
H37 H 0.593017 0.419533 0.579104
C53 C 0.7302(14) 0.0941(12) 0.5788(4)
C54 C 0.7468(18) 0.0631(17) 0.5412(4)
H38 H 0.726957 0.119181 0.521919
C55 C 0.7932(19) -0.0520(16) 0.5324(5)
H39 H 0.809299 -0.071402 0.507061
C56 C 0.8156(18) -0.137(2) 0.5593(7)
H40 H 0.844754 -0.215256 0.553106
C57 C 0.795(2) -0.1047(14) 0.5958(5)
H41 H 0.811701 -0.162918 0.614646
C58 C 0.7519(15) 0.0034(14) 0.6063(5)
H42 H 0.736241 0.019443 0.631877
loop_
_geom_bond_atom_site_label_1
_geom_bond_atom_site_label_2
_geom_bond_site_symmetry_1
_geom_bond_site_symmetry_2
S1 C1 1_555 1_555
O1 C5 1_555 1_555
N1 C15 1_555 1_555
C1 C2 1_555 1_555
C2 H1 1_555 1_555
C3 C2 1_555 1_555
C4 S1 1_555 1_555
C5 C4 1_555 1_555
H2 C5 1_555 1_555
C6 C3 1_555 1_555
C7 C6 1_555 1_555
H3 C7 1_555 1_555
C8 C7 1_555 1_555
H4 C8 1_555 1_555
C9 C8 1_555 1_555
H5 C9 1_555 1_555
C10 C9 1_555 1_555
H6 C10 1_555 1_555
C11 C6 1_555 1_555
H7 C11 1_555 1_555
C12 C1 1_555 1_555
C13 C12 1_555 1_555
H8 C13 1_555 1_555
C14 C13 1_555 1_555
H9 C14 1_555 1_555
C15 C14 1_555 1_555
C16 C15 1_555 1_555
H10 C16 1_555 1_555
C17 C12 1_555 1_555
H11 C17 1_555 1_555
C18 N1 1_555 1_555
C19 C18 1_555 1_555
H12 C19 1_555 1_555
C20 C19 1_555 1_555
H13 C20 1_555 1_555
C21 C20 1_555 1_555
H14 C21 1_555 1_555
C22 C21 1_555 1_555
H15 C22 1_555 1_555
C23 C18 1_555 1_555
H16 C23 1_555 1_555
C24 N1 1_555 1_555
C25 C24 1_555 1_555
H17 C25 1_555 1_555
C26 C25 1_555 1_555
H18 C26 1_555 1_555
C27 C26 1_555 1_555
H19 C27 1_555 1_555
C28 C27 1_555 1_555
H20 C28 1_555 1_555
C29 C24 1_555 1_555
H21 C29 1_555 1_555
S2 C30 1_555 1_555
O2 C34 1_555 1_555
N2 C44 1_555 1_555
C30 C31 1_555 1_555
C31 H22 1_555 1_555
C32 C31 1_555 1_555
C33 S2 1_555 1_555
C34 C33 1_555 1_555
H23 C34 1_555 1_555
C35 C32 1_555 1_555
C36 C35 1_555 1_555
H24 C36 1_555 1_555
C37 C36 1_555 1_555
H25 C37 1_555 1_555
C38 C37 1_555 1_555
H26 C38 1_555 1_555
C39 C38 1_555 1_555
H27 C39 1_555 1_555
C40 C35 1_555 1_555
H28 C40 1_555 1_555
C41 C30 1_555 1_555
C42 C41 1_555 1_555
H29 C42 1_555 1_555
C43 C42 1_555 1_555
H30 C43 1_555 1_555
C44 C43 1_555 1_555
C45 C44 1_555 1_555
H31 C45 1_555 1_555
C46 C41 1_555 1_555
H32 C46 1_555 1_555
C47 N2 1_555 1_555
C48 C47 1_555 1_555
H33 C48 1_555 1_555
C49 C48 1_555 1_555
H34 C49 1_555 1_555
C50 C49 1_555 1_555
H35 C50 1_555 1_555
C51 C50 1_555 1_555
H36 C51 1_555 1_555
C52 C47 1_555 1_555
H37 C52 1_555 1_555
C53 N2 1_555 1_555
C54 C53 1_555 1_555
H38 C54 1_555 1_555
C55 C54 1_555 1_555
H39 C55 1_555 1_555
C56 C55 1_555 1_555
H40 C56 1_555 1_555
C57 C56 1_555 1_555
H41 C57 1_555 1_555
C58 C53 1_555 1_555
H42 C58 1_555 1_555
C3 C4 1_555 1_555
C10 C11 1_555 1_555
C16 C17 1_555 1_555
C22 C23 1_555 1_555
C28 C29 1_555 1_555
C32 C33 1_555 1_555
C39 C40 1_555 1_555
C45 C46 1_555 1_555
C51 C52 1_555 1_555
C57 C58 1_555 1_555

#END
