
#######################################################################
#
#                 Cambridge Crystallographic Data Centre
#                                CCDC 
#
#######################################################################
#
# If this CIF has been generated from an entry in the Cambridge 
# Structural Database, then it will include bibliographic, chemical, 
# crystal, experimental, refinement or atomic coordinate data resulting 
# from the CCDC's data processing and validation procedures.
#
#######################################################################

data_JEGGEK03
_chemical_formula_moiety         'C44 H28 N4'
_chemical_name_systematic        
4'-(4-(4'-cyanobiphenyl-4-yl)-2,5-diphenylpyrrolo[3,2-b]pyrrol-1(4H)-yl)biphenyl-4-carbonitrile
_symmetry_cell_setting           triclinic
_symmetry_space_group_name_H-M   'P -1'
_symmetry_Int_Tables_number      2
_space_group_name_Hall           '-P 1'
loop_
_symmetry_equiv_pos_site_id
_symmetry_equiv_pos_as_xyz
1 x,y,z
2 -x,-y,-z
_cell_length_a                   9.954(2)
_cell_length_b                   12.579(3)
_cell_length_c                   14.142(3)
_cell_angle_alpha                66.59(3)
_cell_angle_beta                 73.97(3)
_cell_angle_gamma                87.77(3)
_cell_volume                     1556.76
_exptl_crystal_colour            orange
_exptl_crystal_description       plate
_cell_formula_units_Z            2
loop_
_atom_site_label
_atom_site_type_symbol
_atom_site_fract_x
_atom_site_fract_y
_atom_site_fract_z
N1 N -0.1892(4) 0.8755(4) 0.0652(3)
N2 N 0.8269(4) 0.4783(3) 0.0802(3)
C1 C -0.0881(5) 0.8294(4) 0.0709(4)
C2 C 0.0408(4) 0.7722(4) 0.0767(4)
C3 C 0.0401(5) 0.6636(4) 0.1551(4)
H1 H -0.0458 0.6246 0.2060
C4 C 0.1648(5) 0.6103(4) 0.1602(4)
H2 H 0.1632 0.5352 0.2145
C5 C 0.2921(5) 0.6664(4) 0.0861(4)
C6 C 0.2900(5) 0.7751(4) 0.0050(4)
H3 H 0.3752 0.8132 -0.0476
C7 C 0.1658(5) 0.8286(4) -0.0004(4)
H4 H 0.1661 0.9027 -0.0559
C8 C 0.4285(4) 0.6134(4) 0.0909(3)
C9 C 0.4394(5) 0.4936(4) 0.1266(3)
H5 H 0.3570 0.4427 0.1532
C10 C 0.5697(5) 0.4476(4) 0.1239(3)
H6 H 0.5754 0.3660 0.1476
C11 C 0.6906(4) 0.5203(4) 0.0867(3)
C12 C 0.6810(4) 0.6395(4) 0.0549(4)
H7 H 0.7629 0.6899 0.0320
C13 C 0.5509(5) 0.6843(4) 0.0568(4)
H8 H 0.5455 0.7659 0.0342
C14 C 0.8688(4) 0.3736(4) 0.1472(3)
C15 C 0.7793(4) 0.2950(4) 0.2523(3)
C16 C 0.6924(4) 0.3371(4) 0.3248(4)
H9 H 0.6854 0.4185 0.3031
C17 C 0.6175(5) 0.2629(4) 0.4263(4)
H10 H 0.5586 0.2933 0.4733
C18 C 0.6273(5) 0.1437(4) 0.4607(4)
H11 H 0.5777 0.0928 0.5318
C19 C 0.7100(5) 0.0994(4) 0.3907(4)
H12 H 0.7158 0.0179 0.4132
C20 C 0.7849(5) 0.1749(4) 0.2868(4)
H13 H 0.8404 0.1439 0.2389
C21 C 0.9440(4) 0.5350(4) -0.0059(4)
C22 C 0.9907(5) 0.6347(4) -0.1032(4)
H14 H 0.9358 0.6959 -0.1328
N1A N 2.1892(4) 0.1245(4) -0.0652(3)
N2A N 1.1731(4) 0.5217(3) -0.0802(3)
C1A C 2.0881(5) 0.1706(4) -0.0709(4)
C2A C 1.9592(4) 0.2278(4) -0.0767(4)
C3A C 1.9599(5) 0.3364(4) -0.1551(4)
H1A H 2.0458 0.3754 -0.2060
C4A C 1.8352(5) 0.3897(4) -0.1602(4)
H2A H 1.8368 0.4648 -0.2145
C5A C 1.7079(5) 0.3336(4) -0.0861(4)
C6A C 1.7100(5) 0.2249(4) -0.0050(4)
H3A H 1.6248 0.1868 0.0476
C7A C 1.8342(5) 0.1714(4) 0.0004(4)
H4A H 1.8339 0.0973 0.0559
C8A C 1.5715(4) 0.3866(4) -0.0909(3)
C9A C 1.5606(5) 0.5064(4) -0.1266(3)
H5A H 1.6430 0.5573 -0.1532
C10A C 1.4303(5) 0.5524(4) -0.1239(3)
H6A H 1.4246 0.6340 -0.1476
C11A C 1.3094(4) 0.4797(4) -0.0867(3)
C12A C 1.3190(4) 0.3605(4) -0.0549(4)
H7A H 1.2371 0.3101 -0.0320
C13A C 1.4491(5) 0.3157(4) -0.0568(4)
H8A H 1.4545 0.2341 -0.0342
C14A C 1.1312(4) 0.6264(4) -0.1472(3)
C15A C 1.2207(4) 0.7050(4) -0.2523(3)
C16A C 1.3076(4) 0.6629(4) -0.3248(4)
H9A H 1.3146 0.5815 -0.3031
C17A C 1.3825(5) 0.7371(4) -0.4263(4)
H10A H 1.4414 0.7067 -0.4733
C18A C 1.3727(5) 0.8563(4) -0.4607(4)
H11A H 1.4223 0.9072 -0.5318
C19A C 1.2900(5) 0.9006(4) -0.3907(4)
H12A H 1.2842 0.9821 -0.4132
C20A C 1.2151(5) 0.8251(4) -0.2868(4)
H13A H 1.1596 0.8561 -0.2389
C21A C 1.0560(4) 0.4650(4) 0.0059(4)
C22A C 1.0093(5) 0.3653(4) 0.1032(4)
H14A H 1.0642 0.3041 0.1328
N3 N -0.0114(4) 0.9968(4) 0.1845(3)
N4 N 0.8719(4) 0.5985(3) 0.4823(3)
C23 C 0.0922(5) 0.9541(4) 0.1927(4)
C24 C 0.2165(5) 0.8974(4) 0.2127(3)
C25 C 0.2017(5) 0.7893(4) 0.2971(4)
H15 H 0.1113 0.7500 0.3362
C26 C 0.3186(4) 0.7392(4) 0.3241(4)
H16 H 0.3081 0.6641 0.3805
C27 C 0.4515(4) 0.7959(4) 0.2707(4)
C28 C 0.4673(5) 0.9017(4) 0.1823(3)
H17 H 0.5584 0.9393 0.1427
C29 C 0.3518(5) 0.9529(4) 0.1512(4)
H18 H 0.3634 1.0238 0.0896
C30 C 0.5735(4) 0.7461(4) 0.3132(3)
C31 C 0.5839(5) 0.6255(4) 0.3573(3)
H19 H 0.5226 0.5755 0.3495
C32 C 0.6823(4) 0.5786(4) 0.4118(3)
H20 H 0.6873 0.4968 0.4414
C33 C 0.7729(4) 0.6493(4) 0.4235(3)
C34 C 0.7715(4) 0.7696(4) 0.3744(3)
H21 H 0.8386 0.8195 0.3768
C35 C 0.6692(4) 0.8156(4) 0.3213(3)
H22 H 0.6660 0.8976 0.2899
C36 C 0.9647(4) 0.4247(4) 0.4264(3)
H23 H 0.9095 0.4148 0.3849
C37 C 0.9508(4) 0.5078(4) 0.4726(3)
C38 C 0.9257(4) 0.6386(4) 0.5461(3)
C39 C 0.8629(4) 0.7293(4) 0.5830(3)
C40 C 0.7178(5) 0.7324(4) 0.6188(4)
H24 H 0.6571 0.6780 0.6160
C41 C 0.6612(5) 0.8143(4) 0.6586(4)
H25 H 0.5624 0.8164 0.6825
C42 C 0.7510(6) 0.8933(5) 0.6631(4)
H26 H 0.7133 0.9498 0.6896
C43 C 0.8933(6) 0.8899(5) 0.6293(4)
H27 H 0.9537 0.9437 0.6332
C44 C 0.9504(5) 0.8079(4) 0.5893(4)
H28 H 1.0492 0.8059 0.5664
N3A N 2.0114(4) 0.0032(4) 0.8155(3)
N4A N 1.1281(4) 0.4015(3) 0.5177(3)
C23A C 1.9078(5) 0.0459(4) 0.8073(4)
C24A C 1.7835(5) 0.1026(4) 0.7873(3)
C25A C 1.7983(5) 0.2107(4) 0.7029(4)
H15A H 1.8887 0.2500 0.6638
C26A C 1.6814(4) 0.2608(4) 0.6759(4)
H16A H 1.6919 0.3359 0.6195
C27A C 1.5485(4) 0.2041(4) 0.7293(4)
C28A C 1.5327(5) 0.0983(4) 0.8177(3)
H17A H 1.4416 0.0607 0.8573
C29A C 1.6482(5) 0.0471(4) 0.8488(4)
H18A H 1.6366 -0.0238 0.9104
C30A C 1.4265(4) 0.2539(4) 0.6868(3)
C31A C 1.4161(5) 0.3745(4) 0.6427(3)
H19A H 1.4774 0.4245 0.6505
C32A C 1.3177(4) 0.4214(4) 0.5882(3)
H20A H 1.3127 0.5032 0.5586
C33A C 1.2271(4) 0.3507(4) 0.5765(3)
C34A C 1.2285(4) 0.2304(4) 0.6256(3)
H21A H 1.1614 0.1805 0.6232
C35A C 1.3308(4) 0.1844(4) 0.6787(3)
H22A H 1.3340 0.1024 0.7101
C36A C 1.0353(4) 0.5753(4) 0.5736(3)
H23A H 1.0905 0.5852 0.6151
C37A C 1.0492(4) 0.4922(4) 0.5274(3)
C38A C 1.0743(4) 0.3614(4) 0.4539(3)
C39A C 1.1371(4) 0.2707(4) 0.4170(3)
C40A C 1.2822(5) 0.2676(4) 0.3812(4)
H24A H 1.3429 0.3220 0.3840
C41A C 1.3388(5) 0.1857(4) 0.3414(4)
H25A H 1.4376 0.1836 0.3175
C42A C 1.2490(6) 0.1067(5) 0.3369(4)
H26A H 1.2867 0.0502 0.3104
C43A C 1.1067(6) 0.1101(5) 0.3707(4)
H27A H 1.0463 0.0563 0.3668
C44A C 1.0496(5) 0.1921(4) 0.4107(4)
H28A H 0.9508 0.1941 0.4336
loop_
_geom_bond_atom_site_label_1
_geom_bond_atom_site_label_2
_geom_bond_site_symmetry_1
_geom_bond_site_symmetry_2
N1 C1 1_555 1_555
N2 C11 1_555 1_555
C1 C2 1_555 1_555
C2 C3 1_555 1_555
C3 H1 1_555 1_555
C4 C3 1_555 1_555
H2 C4 1_555 1_555
C5 C4 1_555 1_555
C6 C5 1_555 1_555
H3 C6 1_555 1_555
C7 C2 1_555 1_555
H4 C7 1_555 1_555
C8 C5 1_555 1_555
C9 C8 1_555 1_555
H5 C9 1_555 1_555
C10 C9 1_555 1_555
H6 C10 1_555 1_555
C11 C10 1_555 1_555
C12 C11 1_555 1_555
H7 C12 1_555 1_555
C13 C8 1_555 1_555
H8 C13 1_555 1_555
C14 N2 1_555 1_555
C15 C14 1_555 1_555
C16 C15 1_555 1_555
H9 C16 1_555 1_555
C17 C16 1_555 1_555
H10 C17 1_555 1_555
C18 C17 1_555 1_555
H11 C18 1_555 1_555
C19 C18 1_555 1_555
H12 C19 1_555 1_555
C20 C15 1_555 1_555
H13 C20 1_555 1_555
C21 N2 1_555 1_555
C22 C21 1_555 1_555
H14 C22 1_555 1_555
N3 C23 1_555 1_555
N4 C33 1_555 1_555
C23 C24 1_555 1_555
C24 C25 1_555 1_555
C25 H15 1_555 1_555
C26 C25 1_555 1_555
H16 C26 1_555 1_555
C27 C26 1_555 1_555
C28 C27 1_555 1_555
H17 C28 1_555 1_555
C29 C24 1_555 1_555
H18 C29 1_555 1_555
C30 C27 1_555 1_555
C31 C30 1_555 1_555
H19 C31 1_555 1_555
C32 C31 1_555 1_555
H20 C32 1_555 1_555
C33 C32 1_555 1_555
C34 C33 1_555 1_555
H21 C34 1_555 1_555
C35 C30 1_555 1_555
H22 C35 1_555 1_555
C36 H23 1_555 1_555
C37 N4 1_555 1_555
C38 N4 1_555 1_555
C39 C38 1_555 1_555
C40 C39 1_555 1_555
H24 C40 1_555 1_555
C41 C40 1_555 1_555
H25 C41 1_555 1_555
C42 C41 1_555 1_555
H26 C42 1_555 1_555
C43 C42 1_555 1_555
H27 C43 1_555 1_555
C44 C39 1_555 1_555
H28 C44 1_555 1_555
N1A C1A 1_555 1_555
N2A C11A 1_555 1_555
C1A C2A 1_555 1_555
C2A C3A 1_555 1_555
C3A H1A 1_555 1_555
C4A C3A 1_555 1_555
H2A C4A 1_555 1_555
C5A C4A 1_555 1_555
C6A C5A 1_555 1_555
H3A C6A 1_555 1_555
C7A C2A 1_555 1_555
H4A C7A 1_555 1_555
C8A C5A 1_555 1_555
C9A C8A 1_555 1_555
H5A C9A 1_555 1_555
C10A C9A 1_555 1_555
H6A C10A 1_555 1_555
C11A C10A 1_555 1_555
C12A C11A 1_555 1_555
H7A C12A 1_555 1_555
C13A C8A 1_555 1_555
H8A C13A 1_555 1_555
C14A C22 1_555 1_555
C15A C14A 1_555 1_555
C16A C15A 1_555 1_555
H9A C16A 1_555 1_555
C17A C16A 1_555 1_555
H10A C17A 1_555 1_555
C18A C17A 1_555 1_555
H11A C18A 1_555 1_555
C19A C18A 1_555 1_555
H12A C19A 1_555 1_555
C20A C15A 1_555 1_555
H13A C20A 1_555 1_555
C21A C21 1_555 1_555
C22A C14 1_555 1_555
H14A C22A 1_555 1_555
N3A C23A 1_555 1_555
N4A C33A 1_555 1_555
C23A C24A 1_555 1_555
C24A C25A 1_555 1_555
C25A H15A 1_555 1_555
C26A C25A 1_555 1_555
H16A C26A 1_555 1_555
C27A C26A 1_555 1_555
C28A C27A 1_555 1_555
H17A C28A 1_555 1_555
C29A C24A 1_555 1_555
H18A C29A 1_555 1_555
C30A C27A 1_555 1_555
C31A C30A 1_555 1_555
H19A C31A 1_555 1_555
C32A C31A 1_555 1_555
H20A C32A 1_555 1_555
C33A C32A 1_555 1_555
C34A C33A 1_555 1_555
H21A C34A 1_555 1_555
C35A C30A 1_555 1_555
H22A C35A 1_555 1_555
C36A C38 1_555 1_555
H23A C36A 1_555 1_555
C37A C37 1_555 1_555
C38A C36 1_555 1_555
C39A C38A 1_555 1_555
C40A C39A 1_555 1_555
H24A C40A 1_555 1_555
C41A C40A 1_555 1_555
H25A C41A 1_555 1_555
C42A C41A 1_555 1_555
H26A C42A 1_555 1_555
C43A C42A 1_555 1_555
H27A C43A 1_555 1_555
C44A C39A 1_555 1_555
H28A C44A 1_555 1_555
C6 C7 1_555 1_555
C12 C13 1_555 1_555
C19 C20 1_555 1_555
C28 C29 1_555 1_555
C34 C35 1_555 1_555
C36 C37 1_555 1_555
C43 C44 1_555 1_555
N2A C14A 1_555 1_555
N2A C21A 1_555 1_555
C6A C7A 1_555 1_555
C12A C13A 1_555 1_555
C19A C20A 1_555 1_555
C21A C22A 1_555 1_555
N4A C37A 1_555 1_555
N4A C38A 1_555 1_555
C28A C29A 1_555 1_555
C34A C35A 1_555 1_555
C36A C37A 1_555 1_555
C43A C44A 1_555 1_555

#END
