
#######################################################################
#
#                 Cambridge Crystallographic Data Centre
#                                CCDC 
#
#######################################################################
#
# If this CIF has been generated from an entry in the Cambridge 
# Structural Database, then it will include bibliographic, chemical, 
# crystal, experimental, refinement or atomic coordinate data resulting 
# from the CCDC's data processing and validation procedures.
#
#######################################################################

data_JEGGEK
_chemical_formula_moiety         'C44 H28 N4'
_chemical_name_systematic        
4'-(4-(4'-cyanobiphenyl-4-yl)-2,5-diphenylpyrrolo[3,2-b]pyrrol-1(4H)-yl)biphenyl-4-carbonitrile
_symmetry_cell_setting           triclinic
_symmetry_space_group_name_H-M   'P -1'
_symmetry_Int_Tables_number      2
_space_group_name_Hall           '-P 1'
loop_
_symmetry_equiv_pos_site_id
_symmetry_equiv_pos_as_xyz
1 x,y,z
2 -x,-y,-z
_cell_length_a                   9.9111(4)
_cell_length_b                   12.5520(9)
_cell_length_c                   14.0590(8)
_cell_angle_alpha                66.632(6)
_cell_angle_beta                 74.117(4)
_cell_angle_gamma                88.072(4)
_cell_volume                     1538.68
_cell_formula_units_Z            2
loop_
_atom_site_label
_atom_site_type_symbol
_atom_site_fract_x
_atom_site_fract_y
_atom_site_fract_z
C1 C 0.7712(2) 0.2694(2) 0.37380(17)
H1 H 0.8380 0.3194 0.3772
C2 C 0.0917(2) 0.4542(2) 0.19204(18)
N1 N -0.01155(19) 0.4968(2) 0.18446(16)
N2 N 0.87183(16) 0.09804(18) 0.48267(14)
C3 C 0.6625(2) 0.3154(2) 0.65802(18)
H2 H 0.5634 0.3176 0.6811
C4 C 1.0352(2) 0.0754(2) 0.57390(17)
H3 H 1.0903 0.0849 0.6161
C5 C 0.4527(2) 0.2952(2) 0.26910(17)
C6 C 0.9256(2) 0.1392(2) 0.54629(17)
C7 C 0.5724(2) 0.2443(2) 0.31270(17)
C8 C 0.7176(2) 0.2330(2) 0.61936(17)
H4 H 0.6556 0.1785 0.6172
C9 C 0.6714(2) 0.3165(2) 0.31957(17)
H5 H 0.6699 0.3986 0.2866
C10 C 0.3516(2) 0.4534(2) 0.15182(18)
H6 H 0.3629 0.5261 0.0917
C11 C 0.3186(2) 0.2375(2) 0.32302(18)
H7 H 0.3081 0.1617 0.3789
C12 C 0.95044(19) 0.0066(2) 0.47249(17)
C13 C 0.68076(19) 0.0787(2) 0.41084(17)
H8 H 0.6851 -0.0034 0.4406
C14 C 0.7509(2) 0.3948(2) 0.66341(19)
H9 H 0.7129 0.4511 0.6904
C15 C 0.8628(2) 0.2286(2) 0.58345(17)
C16 C 0.4666(2) 0.4029(2) 0.18121(18)
H10 H 0.5577 0.4416 0.1412
C17 C 0.9516(2) 0.3090(2) 0.58905(18)
H11 H 1.0508 0.3076 0.5655
C18 C 0.8950(2) 0.3912(2) 0.62900(19)
H12 H 0.9561 0.4453 0.6326
C19 C 0.5828(2) 0.1251(2) 0.35620(17)
H13 H 0.5213 0.0749 0.3481
C20 C 0.2164(2) 0.3966(2) 0.21151(18)
C21 C 0.7734(2) 0.1490(2) 0.42336(17)
C22 C 0.1996(2) 0.2890(2) 0.29641(18)
H14 H 0.1084 0.2505 0.3362
C1A C 1.2288(2) -0.2694(2) 0.62620(17)
H1A H 1.1620 -0.3194 0.6228
C2A C 1.9083(2) -0.4542(2) 0.80796(18)
N1A N 2.01155(19) -0.4968(2) 0.81554(16)
N2A N 1.12817(16) -0.09804(18) 0.51733(14)
C3A C 1.3375(2) -0.3154(2) 0.34198(18)
H2A H 1.4366 -0.3176 0.3189
C4A C 0.9648(2) -0.0754(2) 0.42610(17)
H3A H 0.9097 -0.0849 0.3839
C5A C 1.5473(2) -0.2952(2) 0.73090(17)
C6A C 1.0744(2) -0.1392(2) 0.45371(17)
C7A C 1.4276(2) -0.2443(2) 0.68730(17)
C8A C 1.2824(2) -0.2330(2) 0.38064(17)
H4A H 1.3444 -0.1785 0.3828
C9A C 1.3286(2) -0.3165(2) 0.68043(17)
H5A H 1.3301 -0.3986 0.7134
C10A C 1.6484(2) -0.4534(2) 0.84818(18)
H6A H 1.6371 -0.5261 0.9083
C11A C 1.6814(2) -0.2375(2) 0.67698(18)
H7A H 1.6919 -0.1617 0.6211
C12A C 1.04956(19) -0.0066(2) 0.52751(17)
C13A C 1.31924(19) -0.0787(2) 0.58916(17)
H8A H 1.3149 0.0034 0.5594
C14A C 1.2491(2) -0.3948(2) 0.33659(19)
H9A H 1.2871 -0.4511 0.3096
C15A C 1.1372(2) -0.2286(2) 0.41655(17)
C16A C 1.5334(2) -0.4029(2) 0.81879(18)
H10A H 1.4423 -0.4416 0.8588
C17A C 1.0484(2) -0.3090(2) 0.41095(18)
H11A H 0.9492 -0.3076 0.4345
C18A C 1.1050(2) -0.3912(2) 0.37100(19)
H12A H 1.0439 -0.4453 0.3674
C19A C 1.4172(2) -0.1251(2) 0.64380(17)
H13A H 1.4787 -0.0749 0.6519
C20A C 1.7836(2) -0.3966(2) 0.78849(18)
C21A C 1.2266(2) -0.1490(2) 0.57664(17)
C22A C 1.8004(2) -0.2890(2) 0.70359(18)
H14A H 1.8916 -0.2505 0.6638
C23 C 0.3192(2) -0.1386(2) 0.94547(18)
H15 H 0.2362 -0.1890 0.9697
C24 C 0.5720(2) -0.1130(2) 0.90901(17)
C25 C 0.3099(2) -0.0197(2) 0.91236(17)
C26 C 0.5610(2) 0.0068(2) 0.87328(17)
H16 H 0.6441 0.0577 0.8468
C27 C 0.4317(2) 0.0539(2) 0.87532(17)
H17 H 0.4267 0.1358 0.8516
N3 N 0.17308(16) 0.02201(18) 0.91998(14)
C28 C 1.0880(2) -0.3306(2) 0.92963(18)
N4 N 1.19003(19) -0.37542(19) 0.93478(16)
C29 C 0.05469(19) -0.0350(2) 1.00696(18)
C30 C 0.8328(2) -0.3293(2) 1.00149(18)
H18 H 0.8314 -0.4040 1.0570
C31 C 0.8361(2) -0.1098(2) 0.83974(18)
H19 H 0.8382 -0.0345 0.7850
C32 C 0.2225(2) 0.2057(2) 0.74682(17)
C33 C 0.4486(2) -0.1849(2) 0.94368(18)
H20 H 0.4532 -0.2667 0.9664
C34 C 0.3746(2) 0.3577(2) 0.53794(19)
H21 H 0.4255 0.4090 0.4669
C35 C 0.1319(2) 0.1268(2) 0.85268(17)
C36 C 0.3085(2) 0.1627(2) 0.67485(17)
H22 H 0.3149 0.0812 0.6968
C37 C -0.0090(2) 0.1355(2) 0.89648(18)
H23 H -0.0639 0.1970 0.8673
C38 C 0.3840(2) 0.2386(2) 0.57189(18)
H24 H 0.4428 0.2087 0.5242
C39 C 0.2902(2) 0.4019(2) 0.60849(19)
H25 H 0.2838 0.4835 0.5858
C40 C 0.2156(2) 0.3265(2) 0.71207(18)
H26 H 0.1590 0.3571 0.7601
C41 C 0.7095(2) -0.2755(2) 0.99612(18)
H27 H 0.6238 -0.3138 1.0489
C42 C 0.9593(2) -0.2731(2) 0.92476(18)
C43 C 0.9603(2) -0.1633(2) 0.84483(19)
H28 H 1.0466 -0.1245 0.7933
C44 C 0.7079(2) -0.1657(2) 0.91453(18)
C23A C -0.3192(2) 0.1386(2) 1.05453(18)
H15A H -0.2362 0.1890 1.0303
C24A C -0.5720(2) 0.1130(2) 1.09099(17)
C25A C -0.3099(2) 0.0197(2) 1.08764(17)
C26A C -0.5610(2) -0.0068(2) 1.12672(17)
H16A H -0.6441 -0.0577 1.1532
C27A C -0.4317(2) -0.0539(2) 1.12468(17)
H17A H -0.4267 -0.1358 1.1484
N3A N -0.17308(16) -0.02201(18) 1.08002(14)
C28A C -1.0880(2) 0.3306(2) 1.07037(18)
N4A N -1.19003(19) 0.37542(19) 1.06522(16)
C29A C -0.05469(19) 0.0350(2) 0.99304(18)
C30A C -0.8328(2) 0.3293(2) 0.99851(18)
H18A H -0.8314 0.4040 0.9430
C31A C -0.8361(2) 0.1098(2) 1.16026(18)
H19A H -0.8382 0.0345 1.2150
C32A C -0.2225(2) -0.2057(2) 1.25318(17)
C33A C -0.4486(2) 0.1849(2) 1.05632(18)
H20A H -0.4532 0.2667 1.0336
C34A C -0.3746(2) -0.3577(2) 1.46206(19)
H21A H -0.4255 -0.4090 1.5331
C35A C -0.1319(2) -0.1268(2) 1.14732(17)
C36A C -0.3085(2) -0.1627(2) 1.32515(17)
H22A H -0.3149 -0.0812 1.3032
C37A C 0.0090(2) -0.1355(2) 1.10352(18)
H23A H 0.0639 -0.1970 1.1327
C38A C -0.3840(2) -0.2386(2) 1.42811(18)
H24A H -0.4428 -0.2087 1.4758
C39A C -0.2902(2) -0.4019(2) 1.39151(19)
H25A H -0.2838 -0.4835 1.4142
C40A C -0.2156(2) -0.3265(2) 1.28793(18)
H26A H -0.1590 -0.3571 1.2399
C41A C -0.7095(2) 0.2755(2) 1.00388(18)
H27A H -0.6238 0.3138 0.9511
C42A C -0.9593(2) 0.2731(2) 1.07524(18)
C43A C -0.9603(2) 0.1633(2) 1.15517(19)
H28A H -1.0466 0.1245 1.2067
C44A C -0.7079(2) 0.1657(2) 1.08547(18)
loop_
_geom_bond_atom_site_label_1
_geom_bond_atom_site_label_2
_geom_bond_site_symmetry_1
_geom_bond_site_symmetry_2
C1 H1 1_555 1_555
C2 N1 1_555 1_555
N2 C6 1_555 1_555
C3 H2 1_555 1_555
C4 H3 1_555 1_555
C5 C7 1_555 1_555
C6 C4 1_555 1_555
C7 C9 1_555 1_555
C8 C3 1_555 1_555
H4 C8 1_555 1_555
C9 C1 1_555 1_555
H5 C9 1_555 1_555
C10 H6 1_555 1_555
C11 C5 1_555 1_555
H7 C11 1_555 1_555
C12 N2 1_555 1_555
C13 H8 1_555 1_555
C14 C3 1_555 1_555
H9 C14 1_555 1_555
C15 C6 1_555 1_555
C16 C5 1_555 1_555
H10 C16 1_555 1_555
C17 C15 1_555 1_555
H11 C17 1_555 1_555
C18 C14 1_555 1_555
H12 C18 1_555 1_555
C19 C7 1_555 1_555
H13 C19 1_555 1_555
C20 C2 1_555 1_555
C21 C1 1_555 1_555
C22 C11 1_555 1_555
H14 C22 1_555 1_555
C23 H15 1_555 1_555
C24 C26 1_555 1_555
C25 C23 1_555 1_555
C26 H16 1_555 1_555
C27 C25 1_555 1_555
H17 C27 1_555 1_555
N3 C25 1_555 1_555
C28 N4 1_555 1_555
C29 N3 1_555 1_555
C30 H18 1_555 1_555
C31 H19 1_555 1_555
C32 C35 1_555 1_555
C33 C23 1_555 1_555
H20 C33 1_555 1_555
C34 H21 1_555 1_555
C35 N3 1_555 1_555
C36 C32 1_555 1_555
H22 C36 1_555 1_555
C37 C35 1_555 1_555
H23 C37 1_555 1_555
C38 C34 1_555 1_555
H24 C38 1_555 1_555
C39 C34 1_555 1_555
H25 C39 1_555 1_555
C40 C32 1_555 1_555
H26 C40 1_555 1_555
C41 C30 1_555 1_555
H27 C41 1_555 1_555
C42 C28 1_555 1_555
C43 C31 1_555 1_555
H28 C43 1_555 1_555
C44 C24 1_555 1_555
C1A H1A 1_555 1_555
C2A N1A 1_555 1_555
N2A C6A 1_555 1_555
C3A H2A 1_555 1_555
C4A C12 1_555 1_555
H3A C4A 1_555 1_555
C5A C7A 1_555 1_555
C6A C4A 1_555 1_555
C7A C9A 1_555 1_555
C8A C3A 1_555 1_555
H4A C8A 1_555 1_555
C9A C1A 1_555 1_555
H5A C9A 1_555 1_555
C10A H6A 1_555 1_555
C11A C5A 1_555 1_555
H7A C11A 1_555 1_555
C12A C4 1_555 1_555
C13A H8A 1_555 1_555
C14A C3A 1_555 1_555
H9A C14A 1_555 1_555
C15A C6A 1_555 1_555
C16A C5A 1_555 1_555
H10A C16A 1_555 1_555
C17A C15A 1_555 1_555
H11A C17A 1_555 1_555
C18A C14A 1_555 1_555
H12A C18A 1_555 1_555
C19A C7A 1_555 1_555
H13A C19A 1_555 1_555
C20A C2A 1_555 1_555
C21A C1A 1_555 1_555
C22A C11A 1_555 1_555
H14A C22A 1_555 1_555
C23A H15A 1_555 1_555
C24A C26A 1_555 1_555
C25A C23A 1_555 1_555
C26A H16A 1_555 1_555
C27A C25A 1_555 1_555
H17A C27A 1_555 1_555
N3A C25A 1_555 1_555
C28A N4A 1_555 1_555
C29A C29 1_555 1_555
C30A H18A 1_555 1_555
C31A H19A 1_555 1_555
C32A C35A 1_555 1_555
C33A C23A 1_555 1_555
H20A C33A 1_555 1_555
C34A H21A 1_555 1_555
C35A N3A 1_555 1_555
C36A C32A 1_555 1_555
H22A C36A 1_555 1_555
C37A C29 1_555 1_555
H23A C37A 1_555 1_555
C38A C34A 1_555 1_555
H24A C38A 1_555 1_555
C39A C34A 1_555 1_555
H25A C39A 1_555 1_555
C40A C32A 1_555 1_555
H26A C40A 1_555 1_555
C41A C30A 1_555 1_555
H27A C41A 1_555 1_555
C42A C28A 1_555 1_555
C43A C31A 1_555 1_555
H28A C43A 1_555 1_555
C44A C24A 1_555 1_555
N2 C21 1_555 1_555
C8 C15 1_555 1_555
C10 C16 1_555 1_555
C10 C20 1_555 1_555
C12 C12A 1_555 1_555
C13 C19 1_555 1_555
C13 C21 1_555 1_555
C17 C18 1_555 1_555
C20 C22 1_555 1_555
C24 C33 1_555 1_555
C26 C27 1_555 1_555
C30 C42 1_555 1_555
C31 C44 1_555 1_555
C36 C38 1_555 1_555
C37 C29A 1_555 1_555
C39 C40 1_555 1_555
C41 C44 1_555 1_555
C42 C43 1_555 1_555
N2A C12A 1_555 1_555
N2A C21A 1_555 1_555
C8A C15A 1_555 1_555
C10A C16A 1_555 1_555
C10A C20A 1_555 1_555
C13A C19A 1_555 1_555
C13A C21A 1_555 1_555
C17A C18A 1_555 1_555
C20A C22A 1_555 1_555
C24A C33A 1_555 1_555
C26A C27A 1_555 1_555
N3A C29A 1_555 1_555
C30A C42A 1_555 1_555
C31A C44A 1_555 1_555
C35A C37A 1_555 1_555
C36A C38A 1_555 1_555
C39A C40A 1_555 1_555
C41A C44A 1_555 1_555
C42A C43A 1_555 1_555

#END
