
#######################################################################
#
#                 Cambridge Crystallographic Data Centre
#                                CCDC 
#
#######################################################################
#
# If this CIF has been generated from an entry in the Cambridge 
# Structural Database, then it will include bibliographic, chemical, 
# crystal, experimental, refinement or atomic coordinate data resulting 
# from the CCDC's data processing and validation procedures.
#
#######################################################################

data_JEGGEK01
_chemical_formula_moiety         'C44 H28 N4'
_chemical_name_systematic        
4'-(4-(4'-cyanobiphenyl-4-yl)-2,5-diphenylpyrrolo[3,2-b]pyrrol-1(4H)-yl)biphenyl-4-carbonitrile
_symmetry_cell_setting           triclinic
_symmetry_space_group_name_H-M   'P -1'
_symmetry_Int_Tables_number      2
_space_group_name_Hall           '-P 1'
loop_
_symmetry_equiv_pos_site_id
_symmetry_equiv_pos_as_xyz
1 x,y,z
2 -x,-y,-z
_cell_length_a                   7.4791(15)
_cell_length_b                   10.820(2)
_cell_length_c                   12.248(2)
_cell_angle_alpha                70.35(3)
_cell_angle_beta                 80.13(3)
_cell_angle_gamma                76.87(3)
_cell_volume                     904.14
_exptl_crystal_colour            yellow
_exptl_crystal_description       rod
_cell_formula_units_Z            1
loop_
_atom_site_label
_atom_site_type_symbol
_atom_site_fract_x
_atom_site_fract_y
_atom_site_fract_z
N1 N 0.2030(6) 0.4898(4) 0.4089(3)
N2 N 1.6144(7) -0.0745(5) 0.2811(4)
C1 C 1.4662(9) -0.0232(5) 0.2984(5)
C2 C 1.2743(8) 0.0384(5) 0.3214(4)
C3 C 1.2336(8) 0.1123(6) 0.3975(5)
H1 H 1.3274 0.1179 0.4381
C4 C 1.0526(8) 0.1790(6) 0.4145(5)
H2 H 1.0240 0.2295 0.4674
C5 C 0.9128(8) 0.1725(5) 0.3547(4)
C6 C 0.9583(8) 0.0922(6) 0.2809(5)
H3 H 0.8643 0.0827 0.2426
C7 C 1.1385(9) 0.0262(6) 0.2628(5)
H4 H 1.1681 -0.0263 0.2114
C8 C 0.7246(7) 0.2496(5) 0.3683(4)
C9 C 0.6584(7) 0.2794(5) 0.4720(4)
H5 H 0.7317 0.2456 0.5354
C10 C 0.4869(7) 0.3578(5) 0.4827(4)
H6 H 0.4431 0.3757 0.5544
C11 C 0.3783(7) 0.4106(5) 0.3924(4)
C12 C 0.4424(8) 0.3823(6) 0.2878(5)
H7 H 0.3705 0.4199 0.2237
C13 C 0.6088(8) 0.3004(6) 0.2781(5)
H8 H 0.6474 0.2771 0.2084
C14 C 0.1140(7) 0.6063(5) 0.3326(4)
C15 C 0.0809(7) 0.4544(5) 0.5088(4)
C16 C 0.0635(7) 0.3578(5) 0.6180(4)
H9 H 0.1542 0.2832 0.6514
C17 C 0.218(2) 0.6914(16) 0.2218(15)
C18 C 0.400(2) 0.696(2) 0.2074(19)
H10 H 0.4740 0.6422 0.2680
C19 C 0.480(2) 0.7767(16) 0.1083(14)
H11 H 0.6087 0.7772 0.1017
C20 C 0.378(2) 0.8578(14) 0.0171(12)
H12 H 0.4327 0.9152 -0.0512
C21 C 0.194(3) 0.8516(13) 0.0298(11)
H13 H 0.1208 0.9030 -0.0322
C22 C 0.1123(19) 0.7725(13) 0.1305(11)
H14 H -0.0163 0.7726 0.1384
N1A N -0.2030(6) 0.5102(4) 0.5911(3)
N2A N -1.6144(7) 1.0745(5) 0.7189(4)
C1A C -1.4662(9) 1.0232(5) 0.7016(5)
C2A C -1.2743(8) 0.9616(5) 0.6786(4)
C3A C -1.2336(8) 0.8877(6) 0.6025(5)
H1A H -1.3274 0.8821 0.5619
C4A C -1.0526(8) 0.8210(6) 0.5855(5)
H2A H -1.0240 0.7705 0.5326
C5A C -0.9128(8) 0.8275(5) 0.6453(4)
C6A C -0.9583(8) 0.9078(6) 0.7191(5)
H3A H -0.8643 0.9173 0.7574
C7A C -1.1385(9) 0.9738(6) 0.7372(5)
H4A H -1.1681 1.0263 0.7886
C8A C -0.7246(7) 0.7504(5) 0.6317(4)
C9A C -0.6584(7) 0.7206(5) 0.5280(4)
H5A H -0.7317 0.7544 0.4646
C10A C -0.4869(7) 0.6422(5) 0.5173(4)
H6A H -0.4431 0.6243 0.4456
C11A C -0.3783(7) 0.5894(5) 0.6076(4)
C12A C -0.4424(8) 0.6177(6) 0.7122(5)
H7A H -0.3705 0.5801 0.7763
C13A C -0.6088(8) 0.6996(6) 0.7219(5)
H8A H -0.6474 0.7229 0.7916
C14A C -0.1140(7) 0.3937(5) 0.6674(4)
C15A C -0.0809(7) 0.5456(5) 0.4912(4)
C16A C -0.0635(7) 0.6422(5) 0.3820(4)
H9A H -0.1542 0.7168 0.3486
C17A C -0.218(2) 0.3086(16) 0.7782(15)
C18A C -0.400(2) 0.304(2) 0.7926(19)
H10A H -0.4740 0.3578 0.7320
C19A C -0.480(2) 0.2233(16) 0.8917(14)
H11A H -0.6087 0.2228 0.8983
C20A C -0.378(2) 0.1422(14) 0.9829(12)
H12A H -0.4327 0.0848 1.0512
C21A C -0.194(3) 0.1484(13) 0.9702(11)
H13A H -0.1208 0.0970 1.0322
C22A C -0.1123(19) 0.2275(13) 0.8695(11)
H14A H 0.0163 0.2274 0.8616
C23? C 0.172(2) 0.6747(19) 0.2229(18)
C24? C 0.357(3) 0.704(3) 0.199(2)
H15? H 0.4392 0.6627 0.2578
C25? C 0.417(2) 0.7901(18) 0.0962(15)
H16? H 0.5382 0.8084 0.0843
C26? C 0.302(3) 0.8494(15) 0.0102(13)
H17? H 0.3471 0.9047 -0.0630
C27? C 0.123(2) 0.8303(14) 0.0283(12)
H18? H 0.0420 0.8770 -0.0305
C28? C 0.056(2) 0.7403(14) 0.1351(13)
H19? H -0.0667 0.7253 0.1461
loop_
_geom_bond_atom_site_label_1
_geom_bond_atom_site_label_2
_geom_bond_site_symmetry_1
_geom_bond_site_symmetry_2
N1 C11 1_555 1_555
N2 C1 1_555 1_555
C1 C2 1_555 1_555
C2 C3 1_555 1_555
C3 H1 1_555 1_555
C4 C3 1_555 1_555
H2 C4 1_555 1_555
C5 C4 1_555 1_555
C6 C5 1_555 1_555
H3 C6 1_555 1_555
C7 C2 1_555 1_555
H4 C7 1_555 1_555
C8 C5 1_555 1_555
C9 C8 1_555 1_555
H5 C9 1_555 1_555
C10 C9 1_555 1_555
H6 C10 1_555 1_555
C11 C10 1_555 1_555
C12 C11 1_555 1_555
H7 C12 1_555 1_555
C13 C8 1_555 1_555
H8 C13 1_555 1_555
C14 N1 1_555 1_555
C15 N1 1_555 1_555
C16 C15 1_555 1_555
H9 C16 1_555 1_555
C17 C14 1_555 1_555
C18 C17 1_555 1_555
H10 C18 1_555 1_555
C19 C18 1_555 1_555
H11 C19 1_555 1_555
C20 C19 1_555 1_555
H12 C20 1_555 1_555
C21 C20 1_555 1_555
H13 C21 1_555 1_555
C22 C17 1_555 1_555
H14 C22 1_555 1_555
N1A C11A 1_555 1_555
N2A C1A 1_555 1_555
C1A C2A 1_555 1_555
C2A C3A 1_555 1_555
C3A H1A 1_555 1_555
C4A C3A 1_555 1_555
H2A C4A 1_555 1_555
C5A C4A 1_555 1_555
C6A C5A 1_555 1_555
H3A C6A 1_555 1_555
C7A C2A 1_555 1_555
H4A C7A 1_555 1_555
C8A C5A 1_555 1_555
C9A C8A 1_555 1_555
H5A C9A 1_555 1_555
C10A C9A 1_555 1_555
H6A C10A 1_555 1_555
C11A C10A 1_555 1_555
C12A C11A 1_555 1_555
H7A C12A 1_555 1_555
C13A C8A 1_555 1_555
H8A C13A 1_555 1_555
C14A C16 1_555 1_555
C15A C15 1_555 1_555
C16A C14 1_555 1_555
H9A C16A 1_555 1_555
C17A C14A 1_555 1_555
C18A C17A 1_555 1_555
H10A C18A 1_555 1_555
C19A C18A 1_555 1_555
H11A C19A 1_555 1_555
C20A C19A 1_555 1_555
H12A C20A 1_555 1_555
C21A C20A 1_555 1_555
H13A C21A 1_555 1_555
C22A C17A 1_555 1_555
H14A C22A 1_555 1_555
C6 C7 1_555 1_555
C12 C13 1_555 1_555
C21 C22 1_555 1_555
N1A C14A 1_555 1_555
N1A C15A 1_555 1_555
C6A C7A 1_555 1_555
C12A C13A 1_555 1_555
C15A C16A 1_555 1_555
C21A C22A 1_555 1_555

#END
