
#######################################################################
#
#                 Cambridge Crystallographic Data Centre
#                                CCDC 
#
#######################################################################
#
# If this CIF has been generated from an entry in the Cambridge 
# Structural Database, then it will include bibliographic, chemical, 
# crystal, experimental, refinement or atomic coordinate data resulting 
# from the CCDC's data processing and validation procedures.
#
#######################################################################

data_JEGHEL
_chemical_compound_source        'fruiting body of Ganoderma hainanense'
_chemical_name_common            'ganoderense A hemihydrate'
_chemical_formula_moiety         'C30 H40 O7,0.5(H2 O1)'
_chemical_name_systematic        
'3-hydroxy-7,11,15,23-tetraoxolanosta-8,16-dien-26-oic acid hemihydrate'
_chemical_properties_biological  
'tested for inhibitory activity against thioredoxin reductase'
_symmetry_cell_setting           triclinic
_symmetry_space_group_name_H-M   'P 1'
_symmetry_Int_Tables_number      1
_space_group_name_Hall           'P 1'
loop_
_symmetry_equiv_pos_site_id
_symmetry_equiv_pos_as_xyz
1 x,y,z
_cell_length_a                   6.53943(11)
_cell_length_b                   12.2582(2)
_cell_length_c                   17.6249(3)
_cell_angle_alpha                78.5773(15)
_cell_angle_beta                 82.7695(14)
_cell_angle_gamma                89.1522(14)
_cell_volume                     1373.77
_cell_formula_units_Z            2
loop_
_atom_site_label
_atom_site_type_symbol
_atom_site_fract_x
_atom_site_fract_y
_atom_site_fract_z
O1 O -0.65809(16) -0.62133(9) -0.40387(7)
O2 O -0.34734(15) -0.51961(9) -0.34222(6)
O3 O -0.21548(18) -0.57675(10) -0.94856(7)
O4 O 0.00736(17) -0.44545(10) -1.01541(7)
O5 O -0.50201(16) -0.14896(10) -0.06225(6)
C1 C -0.2127(2) -0.25152(14) -0.15570(9)
O6 O -0.8012(2) -0.10982(11) -0.41224(7)
O7 O -0.4220(2) -0.27507(11) -0.80887(8)
C2 C -0.3128(2) -0.17095(13) -0.33230(9)
C3 C -0.6423(2) -0.53211(12) -0.44852(9)
C4 C -0.3510(2) -0.32218(13) -0.50988(9)
C5 C -0.6758(2) -0.41611(11) -0.42763(8)
C6 C -0.8239(2) -0.32294(13) -0.67188(10)
C7 C -0.4436(2) -0.44714(12) -0.31551(9)
C8 C -0.5244(2) -0.22039(12) -0.29279(8)
C9 C -0.4430(2) -0.28307(13) -0.14641(8)
C10 C -0.5903(2) -0.37828(12) -0.36113(8)
C11 C -0.5871(2) -0.09096(14) -0.19524(9)
C12 C -0.6278(2) -0.51221(12) -0.53421(9)
C13 C -0.9147(2) -0.41501(14) -0.41154(10)
C14 C -0.4805(2) -0.38282(15) -0.07811(9)
C15 C -0.1300(2) -0.48636(13) -0.95588(9)
C16 C -0.1719(2) -0.41089(14) -0.89803(9)
C17 C -0.4009(2) -0.41783(13) -0.24054(9)
C18 C -0.7088(2) -0.19389(13) -0.42126(9)
C19 C -0.6154(2) -0.40312(12) -0.56621(8)
C20 C -0.6055(2) -0.35094(12) -0.65110(8)
C21 C -0.6626(2) -0.12906(12) -0.26481(8)
C22 C -0.6878(2) -0.22351(12) -0.50327(9)
C23 C -0.4238(3) -0.37463(14) -0.78429(10)
C24 C -0.6155(2) -0.26981(12) -0.35531(8)
C25 C -0.5876(2) -0.33650(12) -0.50372(8)
C26 C -0.3481(3) -0.45628(15) -0.83580(10)
C27 C -0.5783(2) -0.18627(14) -0.12596(9)
C28 C 0.0263(3) -0.39517(19) -0.86271(13)
C29 C -0.4974(3) -0.42810(13) -0.70124(9)
C30 C -0.5157(2) -0.31584(12) -0.22031(8)
H1 H 0.027(3) -0.4902(9) -1.0445(8)
H2 H -0.412(3) -0.1016(15) -0.07946(8)
H3 H -0.1737(5) -0.2466(11) -0.10575(15)
H4 H -0.1319(3) -0.3073(6) -0.1765(7)
H5 H -0.1891(4) -0.1809(5) -0.1907(6)
H6 H -0.3277(4) -0.1270(8) -0.3828(3)
H7 H -0.2610(9) -0.1249(8) -0.3007(4)
H8 H -0.2181(6) -0.23021(13) -0.3380(7)
H9 H -0.3192(2) -0.2757(9) -0.4749(5)
H10 H -0.2892(3) -0.39373(17) -0.4961(7)
H11 H -0.2979(3) -0.2882(10) -0.56240(19)
H12 H -0.9029(7) -0.39042(16) -0.6646(8)
H13 H -0.8892(8) -0.2759(10) -0.6387(5)
H14 H -0.8162(3) -0.2850(10) -0.7253(3)
H15 H -0.4508(2) -0.05779(14) -0.21116(9)
H16 H -0.6789(2) -0.03431(14) -0.17953(9)
H17 H -0.6272(2) -0.56842(12) -0.56277(9)
H18 H -0.9724(2) -0.4302(11) -0.4559(3)
H19 H -0.9605(2) -0.4709(7) -0.3665(5)
H20 H -0.9589(2) -0.3432(4) -0.4023(7)
H21 H -0.3833(13) -0.4401(5) -0.0861(4)
H22 H -0.464(2) -0.3596(3) -0.03031(13)
H23 H -0.6180(7) -0.4111(7) -0.0752(5)
H24 H -0.2121(2) -0.33809(14) -0.92603(9)
H25 H -0.4377(2) -0.48111(13) -0.19854(9)
H26 H -0.2540(2) -0.40456(13) -0.24341(9)
H27 H -0.5254(2) -0.28154(12) -0.66075(8)
H28 H -0.6643(2) -0.06564(12) -0.30750(8)
H29 H -0.8026(2) -0.15749(12) -0.25000(8)
H30 H -0.8233(2) -0.22438(12) -0.52007(9)
H31 H -0.6053(2) -0.16669(12) -0.54008(9)
H32 H -0.4619(3) -0.47627(15) -0.86090(10)
H33 H -0.3034(3) -0.52353(15) -0.80332(10)
H34 H -0.7188(2) -0.21506(14) -0.10815(9)
H35 H 0.0715(16) -0.4661(3) -0.8368(9)
H36 H 0.1317(9) -0.3625(14) -0.90348(19)
H37 H -0.0005(8) -0.3471(12) -0.8258(8)
H38 H -0.3798(3) -0.46054(13) -0.67687(9)
H39 H -0.5915(3) -0.48843(13) -0.70146(9)
H40 H -0.6589(2) -0.34091(12) -0.20408(8)
O8 O -0.69821(15) -0.67145(9) -0.72105(6)
O9 O -1.05830(16) -0.57070(9) -0.65979(6)
O10 O -1.16164(17) -0.70280(10) -0.05402(7)
O11 O -1.10375(18) -0.91159(10) -0.25141(7)
O12 O -0.80024(16) -1.00633(11) -1.01555(6)
O13 O -0.91900(18) -0.57916(10) -0.11601(7)
O14 O -1.1175(3) -1.09831(11) -0.63618(8)
C31 C -1.1332(2) -0.96680(12) -0.55525(8)
C32 C -1.0680(2) -0.65925(12) -0.61403(9)
C33 C -1.3047(2) -0.77788(13) -0.65120(9)
C34 C -1.1208(2) -0.78564(12) -0.49500(9)
C35 C -0.6675(2) -1.03942(13) -0.74248(9)
C36 C -1.1157(2) -0.67691(12) -0.52828(9)
C37 C -1.1738(2) -0.83776(12) -0.41066(8)
C38 C -1.4040(2) -0.87088(13) -0.39417(9)
C39 C -1.0049(2) -1.04688(13) -0.80037(9)
C40 C -0.9230(2) -1.07663(14) -0.87912(9)
C41 C -0.6920(3) -0.79022(15) -0.98285(9)
C42 C -0.4943(2) -0.95298(15) -0.92514(9)
C43 C -0.9439(2) -0.81539(12) -0.69868(8)
C44 C -0.8709(2) -0.97493(15) -0.94222(9)
C45 C -1.1268(2) -0.75853(13) -0.35799(9)
C46 C -0.6656(2) -0.78537(13) -0.81687(9)
C47 C -0.8084(2) -0.86762(13) -0.54811(9)
C48 C -1.0780(2) -0.77582(11) -0.63355(8)
C49 C -0.7677(2) -0.74789(12) -0.74529(9)
C50 C -0.7495(3) -0.72460(18) -0.21136(11)
C51 C -1.0412(2) -0.85336(11) -0.55584(8)
C52 C -0.7955(2) -0.87178(12) -0.84111(8)
C53 C -0.7087(2) -0.89948(14) -0.92172(9)
C54 C -0.8537(2) -0.97170(12) -0.77237(8)
C55 C -0.9624(2) -0.92431(12) -0.70360(8)
C56 C -1.0096(2) -0.66725(13) -0.10936(9)
C57 C -0.9628(2) -0.74627(13) -0.16493(9)
C58 C -1.0772(2) -1.00311(13) -0.63396(9)
C59 C -1.1203(2) -0.81135(14) -0.27404(9)
C60 C -1.1343(3) -0.73130(16) -0.21779(10)
H41 H -1.175(3) -0.6606(12) -0.0230(8)
H42 H -0.8998(2) -1.017(2) -1.0373(7)
H43 H -1.0830(2) -1.02151(12) -0.51426(8)
H44 H -1.2820(2) -0.96395(12) -0.54385(8)
H45 H -1.3957(2) -0.7631(11) -0.6073(3)
H46 H -1.3218(5) -0.7220(7) -0.6965(5)
H47 H -1.3365(7) -0.8498(4) -0.6607(7)
H48 H -0.7110(5) -1.0862(8) -0.6927(4)
H49 H -0.6150(13) -1.0847(8) -0.7791(4)
H50 H -0.5613(8) -0.98925(13) -0.7371(7)
H51 H -1.1394(2) -0.61975(12) -0.50065(9)
H52 H -1.0915(2) -0.90505(12) -0.39891(8)
H53 H -1.4864(2) -0.80546(18) -0.4048(7)
H54 H -1.4327(5) -0.9211(9) -0.4270(5)
H55 H -1.4363(5) -0.9067(10) -0.3404(2)
H56 H -1.1353(2) -1.00889(13) -0.80491(9)
H57 H -1.0302(2) -1.11490(13) -0.76153(9)
H58 H -0.8007(2) -1.12164(14) -0.87319(9)
H59 H -1.0261(2) -1.12079(14) -0.89480(9)
H60 H -0.5741(13) -0.7483(6) -0.9770(5)
H61 H -0.677(2) -0.80684(15) -1.03423(9)
H62 H -0.8143(10) -0.7474(6) -0.9754(5)
H63 H -0.4413(9) -0.9529(10) -0.97848(11)
H64 H -0.4028(6) -0.9112(7) -0.9029(7)
H65 H -0.5050(4) -1.0282(4) -0.8962(7)
H66 H -0.9971(2) -0.93178(15) -0.94845(9)
H67 H -0.9947(2) -0.72260(13) -0.37860(9)
H68 H -1.2305(2) -0.70095(13) -0.36055(9)
H69 H -0.6424(2) -0.72150(13) -0.85942(9)
H70 H -0.5325(2) -0.81689(13) -0.80668(9)
H71 H -0.7913(2) -0.8998(10) -0.49505(18)
H72 H -0.7491(5) -0.9156(9) -0.5817(6)
H73 H -0.7406(4) -0.79625(19) -0.5627(7)
H74 H -0.7443(8) -0.6513(5) -0.2433(7)
H75 H -0.6476(3) -0.7303(13) -0.17607(11)
H76 H -0.7223(10) -0.7786(8) -0.2440(7)
H77 H -0.9265(2) -0.83459(12) -0.84999(8)
H78 H -0.9689(2) -0.82272(13) -0.13481(9)
H79 H -1.2667(3) -0.74185(16) -0.18541(10)
H80 H -1.1285(3) -0.65561(16) -0.24757(10)
O15 O -0.13742(18) -0.01780(10) -0.08938(7)
H81 H -0.045(2) -0.0394(16) -0.0601(11)
H82 H -0.239(2) -0.0628(14) -0.0769(12)
loop_
_geom_bond_atom_site_label_1
_geom_bond_atom_site_label_2
_geom_bond_site_symmetry_1
_geom_bond_site_symmetry_2
O1 C3 1_555 1_555
O2 C7 1_555 1_555
O3 C15 1_555 1_555
O4 C15 1_555 1_555
O5 C27 1_555 1_555
C1 C9 1_555 1_555
O6 C18 1_555 1_555
O7 C23 1_555 1_555
C2 C8 1_555 1_555
C3 C5 1_555 1_555
C4 C25 1_555 1_555
C5 C10 1_555 1_555
C6 C20 1_555 1_555
C7 C10 1_555 1_555
C8 C21 1_555 1_555
C9 C14 1_555 1_555
C10 C24 1_555 1_555
C11 C21 1_555 1_555
C12 C3 1_555 1_555
C13 C5 1_555 1_555
C14 H21 1_555 1_555
C15 C16 1_555 1_555
C16 C26 1_555 1_555
C17 C7 1_555 1_555
C18 C22 1_555 1_555
C19 C12 1_555 1_555
C20 C19 1_555 1_555
C21 H28 1_555 1_555
C22 C25 1_555 1_555
C23 C26 1_555 1_555
C24 C8 1_555 1_555
C25 C5 1_555 1_555
C26 H32 1_555 1_555
C27 C9 1_555 1_555
C28 C16 1_555 1_555
C29 C20 1_555 1_555
C30 C8 1_555 1_555
H1 O4 1_555 1_555
H2 O5 1_555 1_555
H3 C1 1_555 1_555
H4 C1 1_555 1_555
H5 C1 1_555 1_555
H6 C2 1_555 1_555
H7 C2 1_555 1_555
H8 C2 1_555 1_555
H9 C4 1_555 1_555
H10 C4 1_555 1_555
H11 C4 1_555 1_555
H12 C6 1_555 1_555
H13 C6 1_555 1_555
H14 C6 1_555 1_555
H15 C11 1_555 1_555
H16 C11 1_555 1_555
H17 C12 1_555 1_555
H18 C13 1_555 1_555
H19 C13 1_555 1_555
H20 C13 1_555 1_555
H22 C14 1_555 1_555
H23 C14 1_555 1_555
H24 C16 1_555 1_555
H25 C17 1_555 1_555
H26 C17 1_555 1_555
H27 C20 1_555 1_555
H29 C21 1_555 1_555
H30 C22 1_555 1_555
H31 C22 1_555 1_555
H33 C26 1_555 1_555
H34 C27 1_555 1_555
H35 C28 1_555 1_555
H36 C28 1_555 1_555
H37 C28 1_555 1_555
H38 C29 1_555 1_555
H39 C29 1_555 1_555
H40 C30 1_555 1_555
O8 C49 1_555 1_555
O9 C32 1_555 1_555
O10 C56 1_555 1_555
O11 C59 1_555 1_555
O12 C44 1_555 1_555
O13 C56 1_555 1_555
O14 C58 1_555 1_555
C31 C51 1_555 1_555
C32 C36 1_555 1_555
C33 C48 1_555 1_555
C34 C36 1_555 1_555
C35 C54 1_555 1_555
C36 H51 1_555 1_555
C37 C34 1_555 1_555
C38 C37 1_555 1_555
C39 C40 1_555 1_555
C40 C44 1_555 1_555
C41 C53 1_555 1_555
C42 C53 1_555 1_555
C43 C48 1_555 1_555
C44 C53 1_555 1_555
C45 C37 1_555 1_555
C46 C49 1_555 1_555
C47 C51 1_555 1_555
C48 C32 1_555 1_555
C49 C43 1_555 1_555
C50 C57 1_555 1_555
C51 C34 1_555 1_555
C52 C46 1_555 1_555
C53 C52 1_555 1_555
C54 C39 1_555 1_555
C55 C43 1_555 1_555
C56 C57 1_555 1_555
C57 C60 1_555 1_555
C58 C31 1_555 1_555
C59 C45 1_555 1_555
C60 C59 1_555 1_555
H41 O10 1_555 1_555
H42 O12 1_555 1_555
H43 C31 1_555 1_555
H44 C31 1_555 1_555
H45 C33 1_555 1_555
H46 C33 1_555 1_555
H47 C33 1_555 1_555
H48 C35 1_555 1_555
H49 C35 1_555 1_555
H50 C35 1_555 1_555
H52 C37 1_555 1_555
H53 C38 1_555 1_555
H54 C38 1_555 1_555
H55 C38 1_555 1_555
H56 C39 1_555 1_555
H57 C39 1_555 1_555
H58 C40 1_555 1_555
H59 C40 1_555 1_555
H60 C41 1_555 1_555
H61 C41 1_555 1_555
H62 C41 1_555 1_555
H63 C42 1_555 1_555
H64 C42 1_555 1_555
H65 C42 1_555 1_555
H66 C44 1_555 1_555
H67 C45 1_555 1_555
H68 C45 1_555 1_555
H69 C46 1_555 1_555
H70 C46 1_555 1_555
H71 C47 1_555 1_555
H72 C47 1_555 1_555
H73 C47 1_555 1_555
H74 C50 1_555 1_555
H75 C50 1_555 1_555
H76 C50 1_555 1_555
H77 C52 1_555 1_555
H78 C57 1_555 1_555
H79 C60 1_555 1_555
H80 C60 1_555 1_555
O15 H81 1_555 1_555
H82 O15 1_555 1_555
C9 C30 1_555 1_555
C11 C27 1_555 1_555
C17 C30 1_555 1_555
C18 C24 1_555 1_555
C19 C25 1_555 1_555
C23 C29 1_555 1_555
C48 C51 1_555 1_555
C52 C54 1_555 1_555
C54 C55 1_555 1_555
C55 C58 1_555 1_555

#END
