
#######################################################################
#
#                 Cambridge Crystallographic Data Centre
#                                CCDC 
#
#######################################################################
#
# If this CIF has been generated from an entry in the Cambridge 
# Structural Database, then it will include bibliographic, chemical, 
# crystal, experimental, refinement or atomic coordinate data resulting 
# from the CCDC's data processing and validation procedures.
#
#######################################################################

data_JEGJAJ
_chemical_compound_source        
'South China Sea soft coral Sarcophyton elegans'
_chemical_name_common            'sarelengan D'
_chemical_formula_moiety         'C20 H30 O5'
_chemical_name_systematic        
5,8-dihydroxy-8-isopropyl-1,5-dimethyl-15-oxabicyclo[9.3.2]hexadeca-6,11-diene-2,16-dione
_symmetry_cell_setting           monoclinic
_symmetry_space_group_name_H-M   'P 21'
_symmetry_Int_Tables_number      4
_space_group_name_Hall           'P 2yb'
loop_
_symmetry_equiv_pos_site_id
_symmetry_equiv_pos_as_xyz
1 x,y,z
2 -x,1/2+y,-z
_cell_length_a                   7.06058(10)
_cell_length_b                   8.04934(10)
_cell_length_c                   16.4003(2)
_cell_angle_alpha                90
_cell_angle_beta                 90.0131(11)
_cell_angle_gamma                90
_cell_volume                     932.078
_chemical_melting_point          '186-188 deg.C'
_cell_formula_units_Z            2
loop_
_atom_site_label
_atom_site_type_symbol
_atom_site_fract_x
_atom_site_fract_y
_atom_site_fract_z
O1 O 0.39117(13) 0.33556(11) 0.10203(5)
O2 O 0.42379(12) 0.06847(10) 0.12162(5)
O3 O -0.10992(12) 0.39779(10) 0.35143(5)
H1 H -0.123(2) 0.49751(11) 0.3428(7)
O4 O 0.11793(13) -0.25955(10) 0.18349(5)
O5 O -0.12358(12) -0.22429(10) 0.31195(5)
H2 H -0.0691(11) -0.2384(18) 0.2683(4)
C1 C 0.31237(17) 0.20540(15) 0.11557(7)
C2 C -0.21735(16) 0.30549(14) 0.29265(7)
C3 C 0.20450(18) -0.15470(15) 0.34842(7)
H3 H 0.22413(18) -0.27376(15) 0.34497(7)
H4 H 0.27513(18) -0.11526(15) 0.39532(7)
C4 C -0.16577(17) 0.36603(14) 0.20624(7)
H5 H -0.24168(17) 0.30558(14) 0.16686(7)
H6 H -0.19805(17) 0.48278(14) 0.20160(7)
C5 C -0.01591(17) 0.08745(14) 0.09858(7)
H7 H -0.14269(17) 0.10121(14) 0.11240(7)
C6 C -0.05021(17) 0.05925(14) 0.35532(7)
H8 H 0.01085(17) 0.13212(14) 0.39062(7)
C7 C -0.16734(16) 0.12439(14) 0.30119(7)
H9 H -0.22448(16) 0.05128(14) 0.26481(7)
C8 C 0.29065(17) -0.07482(14) 0.27168(7)
H10 H 0.25481(17) 0.04150(14) 0.27089(7)
H11 H 0.42747(17) -0.07940(14) 0.27652(7)
C9 C -0.00708(17) -0.12384(14) 0.36472(7)
C10 C -0.0560(2) -0.18075(16) 0.45098(8)
H12 H -0.1898(3) -0.1693(13) 0.4598(2)
H13 H -0.0203(14) -0.2950(4) 0.4576(2)
H14 H 0.0113(12) -0.1137(9) 0.48977(8)
C11 C -0.43335(16) 0.32300(15) 0.30957(8)
H15 H -0.49928(16) 0.25057(15) 0.27082(8)
C12 C -0.4857(2) 0.2641(2) 0.39500(9)
H16 H -0.4447(15) 0.1514(5) 0.4022(3)
H17 H -0.4249(14) 0.3337(10) 0.43469(9)
H18 H -0.6206(3) 0.2703(14) 0.4019(3)
C13 C 0.04415(17) 0.34366(14) 0.18487(7)
H19 H 0.08604(17) 0.44424(14) 0.15774(7)
H20 H 0.11392(17) 0.33595(14) 0.23568(7)
C14 C 0.23599(16) -0.15044(14) 0.19088(7)
C15 C 0.10283(16) 0.19759(14) 0.13209(7)
C16 C 0.22995(17) -0.11212(16) 0.03566(7)
H21 H 0.23070(17) -0.22711(16) 0.01798(7)
H22 H 0.29202(17) -0.04709(16) -0.00635(7)
C17 C 0.02432(18) -0.05452(16) 0.04224(7)
H23 H -0.05161(18) -0.14851(16) 0.05960(7)
H24 H -0.01850(18) -0.02356(16) -0.01186(7)
C18 C -0.50798(19) 0.49887(17) 0.29635(10)
H25 H -0.4420(12) 0.5743(3) 0.3317(5)
H26 H -0.4879(15) 0.5309(6) 0.2406(2)
H27 H -0.6410(4) 0.5021(4) 0.3084(7)
C19 C 0.52200(18) -0.20920(16) 0.10909(8)
H28 H 0.5914(8) -0.1833(9) 0.0604(3)
H29 H 0.6009(7) -0.1901(10) 0.1558(3)
H30 H 0.4839(2) -0.32366(17) 0.1078(6)
C20 C 0.34657(17) -0.09862(14) 0.11417(7)
loop_
_geom_bond_atom_site_label_1
_geom_bond_atom_site_label_2
_geom_bond_site_symmetry_1
_geom_bond_site_symmetry_2
O1 C1 1_555 1_555
O2 C1 1_555 1_555
O3 H1 1_555 1_555
O4 C14 1_555 1_555
O5 H2 1_555 1_555
C1 C15 1_555 1_555
C2 O3 1_555 1_555
C3 H3 1_555 1_555
H4 C3 1_555 1_555
C4 C2 1_555 1_555
H5 C4 1_555 1_555
H6 C4 1_555 1_555
C5 H7 1_555 1_555
C6 H8 1_555 1_555
C7 C2 1_555 1_555
H9 C7 1_555 1_555
C8 C3 1_555 1_555
H10 C8 1_555 1_555
H11 C8 1_555 1_555
C9 O5 1_555 1_555
C10 C9 1_555 1_555
H12 C10 1_555 1_555
H13 C10 1_555 1_555
H14 C10 1_555 1_555
C11 C2 1_555 1_555
H15 C11 1_555 1_555
C12 C11 1_555 1_555
H16 C12 1_555 1_555
H17 C12 1_555 1_555
H18 C12 1_555 1_555
C13 C4 1_555 1_555
H19 C13 1_555 1_555
H20 C13 1_555 1_555
C14 C8 1_555 1_555
C15 C5 1_555 1_555
C16 H21 1_555 1_555
H22 C16 1_555 1_555
C17 C5 1_555 1_555
H23 C17 1_555 1_555
H24 C17 1_555 1_555
C18 C11 1_555 1_555
H25 C18 1_555 1_555
H26 C18 1_555 1_555
H27 C18 1_555 1_555
C19 H28 1_555 1_555
H29 C19 1_555 1_555
H30 C19 1_555 1_555
C20 O2 1_555 1_555
C3 C9 1_555 1_555
C6 C7 1_555 1_555
C6 C9 1_555 1_555
C13 C15 1_555 1_555
C14 C20 1_555 1_555
C16 C17 1_555 1_555
C16 C20 1_555 1_555
C19 C20 1_555 1_555

#END
