
#######################################################################
#
#                 Cambridge Crystallographic Data Centre
#                                CCDC 
#
#######################################################################
#
# If this CIF has been generated from an entry in the Cambridge 
# Structural Database, then it will include bibliographic, chemical, 
# crystal, experimental, refinement or atomic coordinate data resulting 
# from the CCDC's data processing and validation procedures.
#
#######################################################################

data_JEGJIR
_chemical_compound_source        
'South China Sea soft coral Sarcophyton elegans'
_chemical_name_common            'sarelengan F'
_chemical_formula_moiety         'C20 H30 O5'
_chemical_name_systematic        
9-hydroxy-12-isopropyl-5,9-dimethyl-13,17-dioxatricyclo[10.2.2.1^2,5^]heptadec-10-ene-6,14-dione
_symmetry_cell_setting           orthorhombic
_symmetry_space_group_name_H-M   'P 21 21 21'
_symmetry_Int_Tables_number      19
_space_group_name_Hall           'P 2ac 2ab'
loop_
_symmetry_equiv_pos_site_id
_symmetry_equiv_pos_as_xyz
1 x,y,z
2 1/2+x,1/2-y,-z
3 -x,1/2+y,1/2-z
4 1/2-x,-y,1/2+z
_cell_length_a                   6.43129(10)
_cell_length_b                   12.91548(17)
_cell_length_c                   22.1013(3)
_cell_angle_alpha                90
_cell_angle_beta                 90
_cell_angle_gamma                90
_cell_volume                     1835.8
_chemical_melting_point          '183-185 deg.C'
_cell_formula_units_Z            4
loop_
_atom_site_label
_atom_site_type_symbol
_atom_site_fract_x
_atom_site_fract_y
_atom_site_fract_z
O1 O -0.36239(16) -0.36168(8) -0.04996(4)
O2 O -0.70941(18) -0.47854(9) -0.23410(5)
O3 O -0.19367(18) -0.63294(8) -0.10404(5)
O4 O -0.4364(2) -0.50362(9) -0.00036(5)
O5 O -0.1008(2) -0.77621(9) -0.23684(5)
C1 C -0.4864(3) -0.47105(11) -0.22862(6)
C2 C -0.0093(2) -0.32125(11) -0.08322(6)
C3 C 0.0486(2) -0.43484(12) -0.08155(6)
C4 C -0.0857(3) -0.49516(11) -0.03676(6)
C5 C -0.1765(3) -0.59672(12) -0.22723(7)
C6 C -0.1217(2) -0.70230(12) -0.20342(7)
C7 C -0.2951(3) -0.34836(12) -0.15774(6)
C8 C -0.4149(3) -0.58456(11) -0.22622(6)
C9 C -0.3080(3) -0.45607(11) -0.02883(6)
C10 C -0.3958(3) -0.41389(12) -0.28270(6)
C11 C -0.4363(2) -0.42089(11) -0.16853(6)
C12 C -0.2402(2) -0.30617(11) -0.09578(6)
C13 C -0.5396(3) -0.17740(12) -0.09717(7)
C14 C -0.3055(3) -0.19174(11) -0.08782(6)
C15 C -0.0882(3) -0.71525(12) -0.13492(7)
C16 C 0.1292(3) -0.66200(13) -0.05335(7)
C17 C -0.1830(3) -0.11847(12) -0.12862(7)
C18 C 0.1422(3) -0.69608(13) -0.11982(7)
C19 C -0.0868(3) -0.61203(12) -0.04741(6)
C20 C -0.1645(3) -0.82076(13) -0.11334(7)
H1 H -0.7586(4) -0.4206(2) -0.2391(10)
H2 H 0.0254(2) -0.28959(11) -0.04472(6)
H3 H 0.0710(2) -0.28682(11) -0.11445(6)
H4 H 0.0319(2) -0.46424(12) -0.12165(6)
H5 H 0.1936(2) -0.44159(12) -0.07018(6)
H6 H -0.0191(3) -0.48550(11) 0.00272(6)
H7 H -0.1126(3) -0.54375(12) -0.20228(7)
H8 H -0.1252(3) -0.58896(12) -0.26826(7)
H9 H -0.2242(3) -0.32125(12) -0.19081(6)
H10 H -0.4688(3) -0.61626(11) -0.18965(6)
H11 H -0.4734(3) -0.62137(11) -0.26048(6)
H12 H -0.4301(18) -0.4504(6) -0.31918(8)
H13 H -0.4527(16) -0.3452(4) -0.2844(4)
H14 H -0.2474(3) -0.4099(9) -0.2786(3)
H15 H -0.5132(2) -0.44345(11) -0.13541(6)
H16 H -0.5771(4) -0.2005(10) -0.1370(2)
H17 H -0.6140(3) -0.2172(9) -0.0676(4)
H18 H -0.5745(4) -0.10551(19) -0.0928(6)
H19 H -0.2747(3) -0.17240(11) -0.04590(6)
H20 H 0.1423(3) -0.72101(13) -0.02648(7)
H21 H 0.2379(3) -0.61248(13) -0.04390(7)
H22 H -0.0377(4) -0.1231(8) -0.1190(4)
H23 H -0.2041(17) -0.1375(7) -0.17016(8)
H24 H -0.2301(15) -0.04876(18) -0.1224(5)
H25 H 0.2239(3) -0.75873(13) -0.12428(7)
H26 H 0.2009(3) -0.64207(13) -0.14509(7)
H27 H -0.1624(3) -0.64570(12) -0.01432(6)
H28 H -0.120(2) -0.8320(5) -0.0724(3)
H29 H -0.3136(3) -0.8228(4) -0.1150(6)
H30 H -0.1083(19) -0.87389(15) -0.1390(4)
loop_
_geom_bond_atom_site_label_1
_geom_bond_atom_site_label_2
_geom_bond_site_symmetry_1
_geom_bond_site_symmetry_2
O1 C9 1_555 1_555
O2 C1 1_555 1_555
O3 C15 1_555 1_555
O4 C9 1_555 1_555
O5 C6 1_555 1_555
C1 C8 1_555 1_555
C2 C3 1_555 1_555
C3 C4 1_555 1_555
C4 C9 1_555 1_555
C5 C6 1_555 1_555
C6 C15 1_555 1_555
C7 C11 1_555 1_555
C8 C5 1_555 1_555
C10 C1 1_555 1_555
C11 C1 1_555 1_555
C12 O1 1_555 1_555
C13 C14 1_555 1_555
C14 C12 1_555 1_555
C15 C18 1_555 1_555
C16 C18 1_555 1_555
C17 C14 1_555 1_555
C18 H25 1_555 1_555
C19 O3 1_555 1_555
C20 C15 1_555 1_555
H1 O2 1_555 1_555
H2 C2 1_555 1_555
H3 C2 1_555 1_555
H4 C3 1_555 1_555
H5 C3 1_555 1_555
H6 C4 1_555 1_555
H7 C5 1_555 1_555
H8 C5 1_555 1_555
H9 C7 1_555 1_555
H10 C8 1_555 1_555
H11 C8 1_555 1_555
H12 C10 1_555 1_555
H13 C10 1_555 1_555
H14 C10 1_555 1_555
H15 C11 1_555 1_555
H16 C13 1_555 1_555
H17 C13 1_555 1_555
H18 C13 1_555 1_555
H19 C14 1_555 1_555
H20 C16 1_555 1_555
H21 C16 1_555 1_555
H22 C17 1_555 1_555
H23 C17 1_555 1_555
H24 C17 1_555 1_555
H26 C18 1_555 1_555
H27 C19 1_555 1_555
H28 C20 1_555 1_555
H29 C20 1_555 1_555
H30 C20 1_555 1_555
C2 C12 1_555 1_555
C4 C19 1_555 1_555
C7 C12 1_555 1_555
C16 C19 1_555 1_555

#END
