
#######################################################################
#
#                 Cambridge Crystallographic Data Centre
#                                CCDC 
#
#######################################################################
#
# If this CIF has been generated from an entry in the Cambridge 
# Structural Database, then it will include bibliographic, chemical, 
# crystal, experimental, refinement or atomic coordinate data resulting 
# from the CCDC's data processing and validation procedures.
#
#######################################################################

data_JEGKUE
_chemical_formula_moiety         'C21 H14 O1 S1,C6 F4 I2'
_chemical_name_systematic        
'3-(9-anthryl)-1-(2-thienyl)prop-2-en-1-one 1,2,4,5-tetrafluoro-3,6-diiodobenzene'
_symmetry_cell_setting           monoclinic
_symmetry_space_group_name_H-M   'P 21/n'
_symmetry_Int_Tables_number      14
_space_group_name_Hall           '-P 2yn'
loop_
_symmetry_equiv_pos_site_id
_symmetry_equiv_pos_as_xyz
1 x,y,z
2 1/2-x,1/2+y,1/2-z
3 -x,-y,-z
4 1/2+x,1/2-y,1/2+z
_cell_length_a                   13.345(3)
_cell_length_b                   8.4850(17)
_cell_length_c                   21.757(4)
_cell_angle_alpha                90
_cell_angle_beta                 93.52(3)
_cell_angle_gamma                90
_cell_volume                     2458.95
_exptl_crystal_colour            orange
_exptl_crystal_description       block
_cell_formula_units_Z            4
loop_
_atom_site_label
_atom_site_type_symbol
_atom_site_fract_x
_atom_site_fract_y
_atom_site_fract_z
S1 S 0.65755(17) 0.6394(3) 0.23241(11)
O1 O 0.5488(4) 0.4216(7) 0.3120(2)
C1 C 0.2771(5) 0.4743(8) 0.4701(3)
C2 C 0.3541(5) 0.3801(9) 0.5007(3)
H1 H 0.4126 0.3582 0.4812
C3 C 0.3424(6) 0.3226(9) 0.5582(3)
H2 H 0.3925 0.2598 0.5771
C4 C 0.2563(6) 0.3563(10) 0.5895(3)
H3 H 0.2493 0.3142 0.6284
C5 C 0.1845(6) 0.4479(10) 0.5639(3)
H4 H 0.1286 0.4720 0.5856
C6 C 0.1924(5) 0.5105(9) 0.5025(3)
C7 C 0.1162(5) 0.6061(9) 0.4753(3)
H5 H 0.0619 0.6331 0.4980
C8 C 0.1196(5) 0.6624(8) 0.4144(3)
C9 C 0.0399(6) 0.7474(9) 0.3864(4)
H6 H -0.0135 0.7764 0.4095
C10 C 0.0387(6) 0.7887(10) 0.3261(4)
H7 H -0.0135 0.8493 0.3085
C11 C 0.1185(6) 0.7382(10) 0.2897(4)
H8 H 0.1163 0.7593 0.2477
C12 C 0.1974(6) 0.6591(9) 0.3174(4)
H9 H 0.2500 0.6309 0.2935
C13 C 0.2043(5) 0.6172(8) 0.3802(3)
C14 C 0.2846(5) 0.5314(8) 0.4090(3)
C15 C 0.3753(5) 0.4945(10) 0.3760(3)
H10 H 0.3984 0.3911 0.3772
C16 C 0.4258(5) 0.5985(9) 0.3447(3)
H11 H 0.4037 0.7025 0.3438
C17 C 0.5147(5) 0.5588(10) 0.3115(3)
C18 C 0.5619(5) 0.6846(9) 0.2781(3)
C19 C 0.6684(7) 0.8279(11) 0.2101(4)
H12 H 0.7152 0.8617 0.1830
C20 C 0.6019(7) 0.9259(12) 0.2356(4)
H13 H 0.5993 1.0337 0.2277
C21 C 0.5363(5) 0.8489(8) 0.2755(3)
H14 H 0.4857 0.8969 0.2963
I1 I 0.37650(4) 0.80054(7) 0.58853(2)
F1 F 0.1630(3) 0.9704(6) 0.5733(2)
I2 I 0.12930(4) 1.20134(7) 0.34408(2)
F2 F 0.4381(3) 0.8800(6) 0.45241(19)
F3 F 0.3451(3) 1.0346(6) 0.35882(19)
F4 F 0.0701(3) 1.1261(6) 0.4796(2)
C22 C 0.2095(6) 0.9851(9) 0.5200(3)
C23 C 0.3026(6) 0.9210(9) 0.5156(3)
C24 C 0.3462(5) 0.9402(9) 0.4602(3)
C25 C 0.2974(5) 1.0174(10) 0.4115(3)
C26 C 0.2042(6) 1.0846(9) 0.4165(3)
C27 C 0.1608(6) 1.0651(9) 0.4717(4)
loop_
_geom_bond_atom_site_label_1
_geom_bond_atom_site_label_2
_geom_bond_site_symmetry_1
_geom_bond_site_symmetry_2
S1 C18 1_555 1_555
O1 C17 1_555 1_555
C1 C2 1_555 1_555
C2 H1 1_555 1_555
C3 C2 1_555 1_555
H2 C3 1_555 1_555
C4 C3 1_555 1_555
H3 C4 1_555 1_555
C5 C4 1_555 1_555
H4 C5 1_555 1_555
C6 C1 1_555 1_555
C7 C6 1_555 1_555
H5 C7 1_555 1_555
C8 C7 1_555 1_555
C9 C8 1_555 1_555
H6 C9 1_555 1_555
C10 C9 1_555 1_555
H7 C10 1_555 1_555
C11 C10 1_555 1_555
H8 C11 1_555 1_555
C12 C11 1_555 1_555
H9 C12 1_555 1_555
C13 C8 1_555 1_555
C14 C1 1_555 1_555
C15 C14 1_555 1_555
H10 C15 1_555 1_555
C16 C15 1_555 1_555
H11 C16 1_555 1_555
C17 C16 1_555 1_555
C18 C17 1_555 1_555
C19 S1 1_555 1_555
H12 C19 1_555 1_555
C20 C19 1_555 1_555
H13 C20 1_555 1_555
C21 C18 1_555 1_555
H14 C21 1_555 1_555
I1 C23 1_555 1_555
F1 C22 1_555 1_555
I2 C26 1_555 1_555
F2 C24 1_555 1_555
F3 C25 1_555 1_555
F4 C27 1_555 1_555
C22 C23 1_555 1_555
C23 C24 1_555 1_555
C24 C25 1_555 1_555
C25 C26 1_555 1_555
C26 C27 1_555 1_555
C27 C22 1_555 1_555
C5 C6 1_555 1_555
C12 C13 1_555 1_555
C13 C14 1_555 1_555
C20 C21 1_555 1_555

#END
