
#######################################################################
#
#                 Cambridge Crystallographic Data Centre
#                                CCDC 
#
#######################################################################
#
# If this CIF has been generated from an entry in the Cambridge 
# Structural Database, then it will include bibliographic, chemical, 
# crystal, experimental, refinement or atomic coordinate data resulting 
# from the CCDC's data processing and validation procedures.
#
#######################################################################

data_JEGLAL
_chemical_formula_moiety         'C27 H20 N2 O1,C6 F4 I2'
_chemical_name_systematic        
'1-(3-phenyl-5-(pyren-1-yl)-4,5-dihydro-1H-pyrazol-1-yl)ethanone 1,2,4,5-tetrafluoro-3,6-diiodobenzene'
_symmetry_cell_setting           monoclinic
_symmetry_space_group_name_H-M   'P 21/c'
_symmetry_Int_Tables_number      14
_space_group_name_Hall           '-P 2ybc'
loop_
_symmetry_equiv_pos_site_id
_symmetry_equiv_pos_as_xyz
1 x,y,z
2 -x,1/2+y,1/2-z
3 -x,-y,-z
4 x,1/2-y,1/2+z
_cell_length_a                   7.5060(15)
_cell_length_b                   29.362(6)
_cell_length_c                   13.378(3)
_cell_angle_alpha                90
_cell_angle_beta                 101.07(3)
_cell_angle_gamma                90
_cell_volume                     2893.53
_exptl_crystal_colour            yellow
_exptl_crystal_description       block
_cell_formula_units_Z            4
loop_
_atom_site_label
_atom_site_type_symbol
_atom_site_fract_x
_atom_site_fract_y
_atom_site_fract_z
O1 O 0.3507(9) 0.5014(3) 0.1555(5)
N1 N 0.2897(11) 0.4280(3) 0.1218(6)
C1 C 0.3120(13) 0.4119(3) 0.2259(7)
H1 H 0.4256 0.4236 0.2663
N2 N 0.2494(10) 0.3919(3) 0.0515(6)
C2 C 0.3265(14) 0.3610(3) 0.2104(8)
H2 H 0.4502 0.3505 0.2334
H3 H 0.2469 0.3444 0.2467
C3 C 0.2694(11) 0.3552(3) 0.0993(8)
C4 C 0.2369(13) 0.3119(4) 0.0463(9)
C5 C 0.2802(13) 0.2707(4) 0.0969(9)
H4 H 0.3281 0.2708 0.1663
C6 C 0.2540(16) 0.2307(4) 0.0469(13)
H5 H 0.2860 0.2040 0.0831
C7 C 0.1844(17) 0.2279(6) -0.0519(14)
H6 H 0.1623 0.1995 -0.0826
C8 C 0.1461(17) 0.2659(6) -0.1074(11)
H7 H 0.1018 0.2640 -0.1772
C9 C 0.1741(14) 0.3097(5) -0.0583(9)
H8 H 0.1504 0.3363 -0.0964
C10 C 0.3052(13) 0.4703(4) 0.0921(8)
C11 C 0.2632(13) 0.4819(4) -0.0196(7)
H9 H 0.2306 0.4546 -0.0585
H10 H 0.1641 0.5031 -0.0326
H11 H 0.3683 0.4953 -0.0389
C12 C 0.1494(12) 0.4259(3) 0.2754(7)
C13 C -0.0049(12) 0.4443(3) 0.2150(8)
H12 H -0.0113 0.4480 0.1454
C14 C -0.1502(12) 0.4574(4) 0.2596(8)
H13 H -0.2555 0.4681 0.2179
C15 C -0.1439(11) 0.4552(3) 0.3611(7)
C16 C 0.0150(11) 0.4352(3) 0.4249(7)
C17 C 0.1637(11) 0.4217(3) 0.3800(7)
C18 C -0.2884(11) 0.4705(3) 0.4115(9)
H14 H -0.3924 0.4833 0.3728
C19 C -0.2754(13) 0.4665(4) 0.5121(9)
H15 H -0.3693 0.4773 0.5420
C20 C -0.1231(12) 0.4463(3) 0.5739(8)
C21 C 0.0220(11) 0.4311(3) 0.5299(7)
C22 C -0.1177(14) 0.4403(4) 0.6789(9)
H16 H -0.2149 0.4492 0.7082
C23 C 0.0366(14) 0.4206(4) 0.7382(8)
H17 H 0.0413 0.4166 0.8076
C24 C 0.1798(13) 0.4072(4) 0.6970(8)
H18 H 0.2818 0.3950 0.7389
C25 C 0.1763(12) 0.4116(3) 0.5933(7)
C26 C 0.3212(11) 0.3987(4) 0.5481(8)
H19 H 0.4246 0.3869 0.5896
C27 C 0.3190(11) 0.4025(3) 0.4470(8)
H20 H 0.4183 0.3926 0.4206
I1 I 0.78160(12) 0.32801(3) 0.55995(12)
I2 I 0.66126(10) 0.10184(3) 0.40970(6)
F1 F 0.5514(11) 0.1954(3) 0.2934(6)
F2 F 0.6007(11) 0.2819(3) 0.3487(8)
F3 F 0.8622(11) 0.2350(3) 0.6798(6)
F4 F 0.8127(10) 0.1477(3) 0.6238(5)
C28 C 0.6308(15) 0.2049(5) 0.3880(11)
C29 C 0.6537(16) 0.2492(5) 0.4204(13)
C30 C 0.7343(14) 0.2603(4) 0.5183(13)
C31 C 0.7869(15) 0.2256(5) 0.5848(11)
C32 C 0.7582(14) 0.1810(4) 0.5549(9)
C33 C 0.6841(13) 0.1694(4) 0.4587(9)
loop_
_geom_bond_atom_site_label_1
_geom_bond_atom_site_label_2
_geom_bond_site_symmetry_1
_geom_bond_site_symmetry_2
O1 C10 1_555 1_555
N1 C1 1_555 1_555
C1 H1 1_555 1_555
N2 N1 1_555 1_555
C2 C1 1_555 1_555
H2 C2 1_555 1_555
H3 C2 1_555 1_555
C3 N2 1_555 1_555
C4 C3 1_555 1_555
C5 C4 1_555 1_555
H4 C5 1_555 1_555
C6 C5 1_555 1_555
H5 C6 1_555 1_555
C7 C6 1_555 1_555
H6 C7 1_555 1_555
C8 C7 1_555 1_555
H7 C8 1_555 1_555
C9 C4 1_555 1_555
H8 C9 1_555 1_555
C10 N1 1_555 1_555
C11 C10 1_555 1_555
H9 C11 1_555 1_555
H10 C11 1_555 1_555
H11 C11 1_555 1_555
C12 C1 1_555 1_555
C13 C12 1_555 1_555
H12 C13 1_555 1_555
C14 C13 1_555 1_555
H13 C14 1_555 1_555
C15 C14 1_555 1_555
C16 C15 1_555 1_555
C17 C12 1_555 1_555
C18 C15 1_555 1_555
H14 C18 1_555 1_555
C19 C18 1_555 1_555
H15 C19 1_555 1_555
C20 C19 1_555 1_555
C21 C16 1_555 1_555
C22 C20 1_555 1_555
H16 C22 1_555 1_555
C23 C22 1_555 1_555
H17 C23 1_555 1_555
C24 C23 1_555 1_555
H18 C24 1_555 1_555
C25 C21 1_555 1_555
C26 C25 1_555 1_555
H19 C26 1_555 1_555
C27 C17 1_555 1_555
H20 C27 1_555 1_555
I1 C30 1_555 1_555
I2 C33 1_555 1_555
F1 C28 1_555 1_555
F2 C29 1_555 1_555
F3 C31 1_555 1_555
F4 C32 1_555 1_555
C28 C29 1_555 1_555
C29 C30 1_555 1_555
C30 C31 1_555 1_555
C31 C32 1_555 1_555
C32 C33 1_555 1_555
C33 C28 1_555 1_555
C2 C3 1_555 1_555
C8 C9 1_555 1_555
C16 C17 1_555 1_555
C20 C21 1_555 1_555
C24 C25 1_555 1_555
C26 C27 1_555 1_555

#END
