
#######################################################################
#
#                 Cambridge Crystallographic Data Centre
#                                CCDC 
#
#######################################################################
#
# If this CIF has been generated from an entry in the Cambridge 
# Structural Database, then it will include bibliographic, chemical, 
# crystal, experimental, refinement or atomic coordinate data resulting 
# from the CCDC's data processing and validation procedures.
#
#######################################################################

data_JEGLOZ
_chemical_compound_source        
'isolated from the dried aerial parts of Artemisia sieversiana'
_chemical_formula_moiety         'C8 H6 O2 S1'
_chemical_name_systematic        '5-(prop-1-yn-1-yl)thiophene-2-carboxylic acid'
_chemical_properties_biological  
'inhibitory effects on the NO production in LPS-stimulated BV-2 microglial cells'
_symmetry_cell_setting           triclinic
_symmetry_space_group_name_H-M   'P -1'
_symmetry_Int_Tables_number      2
_space_group_name_Hall           '-P 1'
loop_
_symmetry_equiv_pos_site_id
_symmetry_equiv_pos_as_xyz
1 x,y,z
2 -x,-y,-z
_cell_length_a                   5.0787(6)
_cell_length_b                   7.2038(8)
_cell_length_c                   10.8020(11)
_cell_angle_alpha                93.803(9)
_cell_angle_beta                 103.283(10)
_cell_angle_gamma                98.994(10)
_cell_volume                     377.744
_cell_formula_units_Z            2
loop_
_atom_site_label
_atom_site_type_symbol
_atom_site_fract_x
_atom_site_fract_y
_atom_site_fract_z
S1 S 0.27174(9) 0.40773(6) 0.26189(4)
O1 O -0.1902(3) 0.55071(18) 0.10030(11)
O2 O -0.4232(3) 0.26694(18) 0.00250(12)
H1 H -0.5363 0.3310 -0.0290
C1 C 0.6466(4) 0.2198(3) 0.39999(17)
C2 C -0.2156(4) 0.3754(3) 0.08240(16)
C3 C -0.0047(4) 0.0881(3) 0.15017(17)
H2 H -0.1412 -0.0035 0.0976
C4 C 0.2280(4) 0.0464(3) 0.23494(17)
H3 H 0.2633 -0.0756 0.2437
C5 C 1.1134(4) 0.2596(3) 0.57894(17)
H4 H 1.2594 0.3266 0.5477
H5 H 1.1522 0.1369 0.5978
H6 H 1.0985 0.3291 0.6553
C6 C 0.8545(4) 0.2387(3) 0.48152(17)
C7 C -0.0091(4) 0.2774(3) 0.15319(16)
C8 C 0.3981(4) 0.2058(3) 0.30368(17)
loop_
_geom_bond_atom_site_label_1
_geom_bond_atom_site_label_2
_geom_bond_site_symmetry_1
_geom_bond_site_symmetry_2
S1 C7 1_555 1_555
O1 C2 1_555 1_555
O2 H1 1_555 1_555
C1 C6 1_555 1_555
C2 O2 1_555 1_555
C3 H2 1_555 1_555
C4 C3 1_555 1_555
H3 C4 1_555 1_555
C5 H4 1_555 1_555
H5 C5 1_555 1_555
H6 C5 1_555 1_555
C6 C5 1_555 1_555
C7 C2 1_555 1_555
C8 S1 1_555 1_555
C1 C8 1_555 1_555
C3 C7 1_555 1_555
C4 C8 1_555 1_555

#END
