
#######################################################################
#
#                 Cambridge Crystallographic Data Centre
#                                CCDC 
#
#######################################################################
#
# If this CIF has been generated from an entry in the Cambridge 
# Structural Database, then it will include bibliographic, chemical, 
# crystal, experimental, refinement or atomic coordinate data resulting 
# from the CCDC's data processing and validation procedures.
#
#######################################################################

data_JEGPAN
_chemical_formula_moiety         'C26 H16 N8 O8'
_chemical_name_systematic        bis((2,4-Dinitrophenyl)hydrazone)benzil
_symmetry_cell_setting           orthorhombic
_symmetry_space_group_name_H-M   'P n a m'
_symmetry_Int_Tables_number      62
_space_group_name_Hall           '-P 2c 2n'
loop_
_symmetry_equiv_pos_site_id
_symmetry_equiv_pos_as_xyz
1 x,y,z
2 1/2-x,1/2+y,-z
3 1/2+x,1/2-y,1/2-z
4 -x,-y,1/2+z
5 -x,-y,-z
6 1/2+x,1/2-y,z
7 1/2-x,1/2+y,1/2+z
8 x,y,1/2-z
_cell_length_a                   19.685(5)
_cell_length_b                   19.781(5)
_cell_length_c                   6.7151(15)
_cell_angle_alpha                90
_cell_angle_beta                 90
_cell_angle_gamma                90
_cell_volume                     2614.79
_cell_formula_units_Z            4
loop_
_atom_site_label
_atom_site_type_symbol
_atom_site_fract_x
_atom_site_fract_y
_atom_site_fract_z
O1 O 0.38973(7) 0.43564(8) 0.2500
O2 O 0.37981(8) 0.32936(8) 0.2500
O3 O 0.17320(8) 0.21646(9) 0.2500
O4 O 0.07833(8) 0.27095(9) 0.2500
O5 O 0.17962(7) 0.89666(8) 0.2500
O6 O 0.20555(9) 1.00201(8) 0.2500
O7 O 0.43619(18) 1.08261(14) 0.2500
O8 O 0.51511(14) 1.00769(15) 0.2500
N1 N 0.35551(9) 0.38513(10) 0.2500
N2 N 0.14009(10) 0.26853(10) 0.2500
N3 N 0.28492(9) 0.51149(9) 0.2500
N4 N 0.25124(8) 0.57254(10) 0.2500
N5 N 0.30079(8) 0.74136(10) 0.2500
N6 N 0.27088(8) 0.80413(9) 0.2500
N7 N 0.22126(9) 0.94334(10) 0.2500
N8 N 0.45401(11) 1.02247(12) 0.2500
C1 C 0.24837(11) 0.45440(11) 0.2500
C2 C 0.28136(10) 0.39193(11) 0.2500
C3 C 0.24637(11) 0.33148(12) 0.2500
H1 H 0.2697 0.2906 0.2500
C4 C 0.17720(12) 0.33244(11) 0.2500
C5 C 0.14204(11) 0.39245(12) 0.2500
H2 H 0.0948 0.3922 0.2500
C6 C 0.17628(10) 0.45260(13) 0.2500
H3 H 0.1520 0.4929 0.2500
C7 C 0.29033(11) 0.62387(12) 0.2500
C8 C 0.36719(11) 0.61656(12) 0.2500
C9 C 0.39989(8) 0.61138(9) 0.0747(3)
H4 H 0.3765 0.6167 -0.0446
C10 C 0.46984(8) 0.59775(10) 0.0749(3)
H5 H 0.4933 0.5924 -0.0444
C11 C 0.50251(14) 0.59251(14) 0.2500
H6 H 0.5492 0.5850 0.2500
C12 C 0.26003(10) 0.69082(12) 0.2500
C13 C 0.18458(10) 0.69776(12) 0.2500
C14 C 0.14853(12) 0.70324(18) 0.0758(4)
H7 H 0.1711 0.6967 -0.0443
C15 C 0.08035(12) 0.71794(17) 0.0720(5)
H8 H 0.0558 0.7177 -0.0462
C16 C 0.05038(17) 0.7329(2) 0.2500
H9 H 0.0082 0.7540 0.2500
C22 C 0.31432(10) 0.85722(12) 0.2500
C23 C 0.29281(11) 0.92448(12) 0.2500
C24 C 0.33791(11) 0.97823(13) 0.2500
H15 H 0.3221 1.0225 0.2500
C25 C 0.40634(12) 0.96496(13) 0.2500
C26 C 0.42949(12) 0.90036(12) 0.2500
H16 H 0.4760 0.8924 0.2500
C27 C 0.38578(11) 0.84712(12) 0.2500
H17 H 0.4030 0.8033 0.2500
C9G C 0.39989(8) 0.61138(9) 0.4253(3)
H4G H 0.3765 0.6167 0.5446
C10G C 0.46984(8) 0.59775(10) 0.4251(3)
H5G H 0.4933 0.5924 0.5444
C14G C 0.14853(12) 0.70324(18) 0.4242(4)
H7G H 0.1711 0.6967 0.5443
C15G C 0.08035(12) 0.71794(17) 0.4280(5)
H8G H 0.0558 0.7177 0.5462
O9? O 0.4276(2) 1.0700(2) 0.1575(9)
O10? O 0.51254(16) 1.0091(3) 0.1942(14)
C17? C 0.1621(3) 0.6798(4) 0.0176(12)
H10? H 0.1946 0.6639 -0.0782
C18? C 0.0926(3) 0.6919(4) -0.0440(12)
H11? H 0.0716 0.6776 -0.1660
C19? C 0.0491(3) 0.7239(4) 0.1235(11)
H12? H 0.0046 0.7400 0.0896
C20? C 0.0784(2) 0.7440(3) 0.3116(12)
H13? H 0.0475 0.7585 0.4135
C21? C 0.1440(3) 0.7310(3) 0.3499(11)
H14? H 0.1619 0.7503 0.4699
loop_
_geom_bond_atom_site_label_1
_geom_bond_atom_site_label_2
_geom_bond_site_symmetry_1
_geom_bond_site_symmetry_2
O1 N1 1_555 1_555
O2 N1 1_555 1_555
O3 N2 1_555 1_555
O4 N2 1_555 1_555
O5 N7 1_555 1_555
O6 N7 1_555 1_555
O7 N8 1_555 1_555
O8 N8 1_555 1_555
N1 C2 1_555 1_555
N2 C4 1_555 1_555
N3 N4 1_555 1_555
N4 C7 1_555 1_555
N5 N6 1_555 1_555
N6 C22 1_555 1_555
N7 C23 1_555 1_555
N8 C25 1_555 1_555
C1 N3 1_555 1_555
C2 C1 1_555 1_555
C3 C2 1_555 1_555
H1 C3 1_555 1_555
C4 C3 1_555 1_555
C5 C4 1_555 1_555
H2 C5 1_555 1_555
C6 C1 1_555 1_555
H3 C6 1_555 1_555
C7 C8 1_555 1_555
C8 C9 1_555 1_555
C9 H4 1_555 1_555
C10 C9 1_555 1_555
H5 C10 1_555 1_555
C11 C10 1_555 1_555
H6 C11 1_555 1_555
C12 N5 1_555 1_555
C13 C12 1_555 1_555
C14 C13 1_555 1_555
H7 C14 1_555 1_555
C15 C14 1_555 1_555
H8 C15 1_555 1_555
C16 C15 1_555 1_555
H9 C16 1_555 1_555
C22 C23 1_555 1_555
C23 C24 1_555 1_555
C24 H15 1_555 1_555
C25 C24 1_555 1_555
C26 C25 1_555 1_555
H16 C26 1_555 1_555
C27 C22 1_555 1_555
H17 C27 1_555 1_555
C9G C8 1_555 1_555
H4G C9G 1_555 1_555
C10G C11 1_555 1_555
H5G C10G 1_555 1_555
C14G C13 1_555 1_555
H7G C14G 1_555 1_555
C15G C16 1_555 1_555
H8G C15G 1_555 1_555
C5 C6 1_555 1_555
C7 C12 1_555 1_555
C26 C27 1_555 1_555
C9G C10G 1_555 1_555
C14G C15G 1_555 1_555

#END
