
#######################################################################
#
#                 Cambridge Crystallographic Data Centre
#                                CCDC 
#
#######################################################################
#
# If this CIF has been generated from an entry in the Cambridge 
# Structural Database, then it will include bibliographic, chemical, 
# crystal, experimental, refinement or atomic coordinate data resulting 
# from the CCDC's data processing and validation procedures.
#
#######################################################################

data_JEGVAV
_chemical_formula_moiety         'C17 H18 N4 O2'
_chemical_name_systematic        
1-methoxy-6-(4-phenyl-1H-1,2,3-triazol-1-yl)hexahydro-3,5-methanocyclopenta[b]pyrrol-2(1H)-one
_symmetry_cell_setting           triclinic
_symmetry_space_group_name_H-M   'P -1'
_symmetry_Int_Tables_number      2
_space_group_name_Hall           '-P 1'
loop_
_symmetry_equiv_pos_site_id
_symmetry_equiv_pos_as_xyz
1 x,y,z
2 -x,-y,-z
_cell_length_a                   8.6299(4)
_cell_length_b                   9.2935(4)
_cell_length_c                   10.1165(4)
_cell_angle_alpha                75.026(2)
_cell_angle_beta                 71.957(2)
_cell_angle_gamma                86.649(2)
_cell_volume                     745.062
_exptl_crystal_colour            colorless
_exptl_crystal_description       block
_cell_formula_units_Z            2
loop_
_atom_site_label
_atom_site_type_symbol
_atom_site_fract_x
_atom_site_fract_y
_atom_site_fract_z
O1 O 1.29769(8) 0.61941(6) -0.03842(7)
O2 O 1.07211(7) 0.50098(7) 0.22783(7)
N1 N 1.20097(8) 0.42182(7) 0.15878(7)
N2 N 0.93608(7) 0.09767(7) 0.23127(7)
N3 N 0.99403(8) -0.01364(8) 0.31702(8)
N4 N 0.87380(8) -0.10992(7) 0.39081(8)
C1 C 1.28720(9) 0.48603(8) 0.01832(8)
C2 C 1.35536(9) 0.35839(8) -0.04717(8)
H1 H 1.4694 0.3772 -0.1136
C3 C 1.33689(9) 0.22116(8) 0.08247(8)
H2 H 1.4324 0.2016 0.1203
C4 C 1.17737(9) 0.26160(8) 0.18716(8)
H3 H 1.1624 0.208 0.2898
C5 C 1.04254(8) 0.22034(7) 0.12888(8)
H4 H 0.9763 0.3097 0.1051
C6 C 1.14337(9) 0.17741(8) -0.01031(8)
H5 H 1.0809 0.12 -0.049
C7 C 1.23155(9) 0.31911(8) -0.11846(8)
H6 H 1.1541 0.4006 -0.131
H7 H 1.2889 0.2997 -0.2131
C8 C 1.28556(10) 0.09365(8) 0.03375(9)
H8 H 1.2494 0.0027 0.113
H9 H 1.371 0.0694 -0.0482
C9 C 1.12881(12) 0.58743(11) 0.30297(11)
H10 H 1.173 0.5211 0.3744
H11 H 1.0379 0.6423 0.3515
H12 H 1.2143 0.6581 0.2344
C10 C 0.77734(8) 0.07243(7) 0.24941(8)
H13 H 0.7083 0.1332 0.2019
C11 C 0.73766(8) -0.06118(7) 0.35235(8)
C12 C 0.58364(8) -0.14669(7) 0.41858(7)
C13 C 0.57258(10) -0.27624(8) 0.52824(9)
H14 H 0.6644 -0.3074 0.5604
C14 C 0.42804(11) -0.35998(9) 0.59066(9)
H15 H 0.4222 -0.4487 0.6644
C15 C 0.29225(10) -0.31483(9) 0.54606(9)
H16 H 0.1936 -0.3723 0.5891
C16 C 0.30137(9) -0.18514(9) 0.43816(9)
H17 H 0.2085 -0.1533 0.4077
C17 C 0.44629(9) -0.10189(8) 0.37462(8)
H18 H 0.4519 -0.0136 0.3005
loop_
_geom_bond_atom_site_label_1
_geom_bond_atom_site_label_2
_geom_bond_site_symmetry_1
_geom_bond_site_symmetry_2
O1 C1 1_555 1_555
O2 N1 1_555 1_555
N1 C1 1_555 1_555
N2 N3 1_555 1_555
N3 N4 1_555 1_555
N4 C11 1_555 1_555
C1 C2 1_555 1_555
C2 H1 1_555 1_555
C3 C2 1_555 1_555
H2 C3 1_555 1_555
C4 N1 1_555 1_555
H3 C4 1_555 1_555
C5 N2 1_555 1_555
H4 C5 1_555 1_555
C6 C5 1_555 1_555
H5 C6 1_555 1_555
C7 C2 1_555 1_555
H6 C7 1_555 1_555
H7 C7 1_555 1_555
C8 C3 1_555 1_555
H8 C8 1_555 1_555
H9 C8 1_555 1_555
C9 O2 1_555 1_555
H10 C9 1_555 1_555
H11 C9 1_555 1_555
H12 C9 1_555 1_555
C10 N2 1_555 1_555
H13 C10 1_555 1_555
C11 C10 1_555 1_555
C12 C11 1_555 1_555
C13 C12 1_555 1_555
H14 C13 1_555 1_555
C14 C13 1_555 1_555
H15 C14 1_555 1_555
C15 C14 1_555 1_555
H16 C15 1_555 1_555
C16 C15 1_555 1_555
H17 C16 1_555 1_555
C17 C12 1_555 1_555
H18 C17 1_555 1_555
C3 C4 1_555 1_555
C4 C5 1_555 1_555
C6 C7 1_555 1_555
C6 C8 1_555 1_555
C16 C17 1_555 1_555

#END
