
#######################################################################
#
#                 Cambridge Crystallographic Data Centre
#                                CCDC 
#
#######################################################################
#
# If this CIF has been generated from an entry in the Cambridge 
# Structural Database, then it will include bibliographic, chemical, 
# crystal, experimental, refinement or atomic coordinate data resulting 
# from the CCDC's data processing and validation procedures.
#
#######################################################################

data_JEGVEZ
_chemical_formula_moiety         'C19 H28 N2 O4'
_chemical_name_systematic        
't-butyl [(1-methoxy-4,4-dimethyl-5-oxopyrrolidin-2-yl)(phenyl)methyl]carbamate'
_symmetry_cell_setting           monoclinic
_symmetry_space_group_name_H-M   'P 21/c'
_symmetry_Int_Tables_number      14
_space_group_name_Hall           '-P 2ybc'
loop_
_symmetry_equiv_pos_site_id
_symmetry_equiv_pos_as_xyz
1 x,y,z
2 -x,1/2+y,1/2-z
3 -x,-y,-z
4 x,1/2-y,1/2+z
_cell_length_a                   16.6582(11)
_cell_length_b                   11.8720(8)
_cell_length_c                   10.1303(6)
_cell_angle_alpha                90
_cell_angle_beta                 107.307(3)
_cell_angle_gamma                90
_cell_volume                     1912.72
_exptl_crystal_colour            colorless
_exptl_crystal_description       block
_cell_formula_units_Z            4
loop_
_atom_site_label
_atom_site_type_symbol
_atom_site_fract_x
_atom_site_fract_y
_atom_site_fract_z
O1 O 0.08829(3) 0.72599(4) 0.57780(4)
O2 O 0.29120(3) 1.06764(4) 0.73941(5)
N1 N 0.21370(3) 0.79175(4) 0.58596(5)
H1 H 0.1970(6) 0.7706(8) 0.5001(10)
O3 O 0.17494(3) 0.78868(4) 0.78449(4)
N2 N 0.27745(3) 1.03009(4) 0.60322(5)
O4 O 0.25297(4) 1.20877(4) 0.51202(6)
C1 C 0.16013(3) 0.77018(4) 0.66059(5)
C2 C 0.36320(3) 0.73146(5) 0.65018(6)
C3 C 0.30039(3) 0.82429(5) 0.65154(5)
H2 H 0.3061 0.8419 0.7504
C4 C 0.01275(3) 0.71902(5) 0.62508(6)
C5 C 0.32524(3) 0.93104(4) 0.58637(6)
H3 H 0.3864 0.9461 0.6308
C6 C 0.29901(4) 1.05565(5) 0.38663(6)
C7 C 0.30784(4) 0.93032(5) 0.42894(6)
H4 H 0.2554 0.8886 0.3834
H5 H 0.3549 0.8949 0.4034
C8 C 0.27301(4) 1.11100(5) 0.50365(6)
C9 C 0.48468(4) 0.56993(6) 0.64546(7)
H6 H 0.526 0.5155 0.6429
C10 C -0.01145(4) 0.83661(6) 0.65934(7)
H7 H 0.0296 0.8632 0.7446
H8 H -0.0675 0.8344 0.6722
H9 H -0.0121 0.888 0.5833
C11 C 0.44616(3) 0.74309(5) 0.73446(6)
H10 H 0.4612 0.806 0.7947
C12 C 0.34152(4) 0.63725(5) 0.56516(6)
H11 H 0.2853 0.6281 0.5078
C13 C 0.02656(4) 0.63661(5) 0.74499(6)
H12 H 0.0507 0.5666 0.7223
H13 H -0.0274 0.6204 0.7614
H14 H 0.0652 0.6699 0.8284
C14 C 0.38434(4) 1.10683(6) 0.38961(7)
H15 H 0.426 1.0893 0.4782
H16 H 0.3787 1.1887 0.3785
H17 H 0.4026 1.0751 0.314
C15 C 0.50685(4) 0.66360(5) 0.73101(7)
H18 H 0.5633 0.6733 0.787
C16 C -0.05336(4) 0.67304(6) 0.49844(6)
H19 H -0.0585 0.7234 0.4197
H20 H -0.1076 0.6683 0.5175
H21 H -0.0366 0.5979 0.4766
C17 C 0.21255(4) 1.07846(6) 0.76943(7)
H22 H 0.175 1.1279 0.7008
H23 H 0.2224 1.1108 0.8619
H24 H 0.1866 1.004 0.7661
C18 C 0.40198(4) 0.55614(5) 0.56376(7)
H25 H 0.3865 0.4914 0.5068
C19 C 0.23455(5) 1.07677(6) 0.24657(7)
H26 H 0.2525 1.0387 0.1742
H27 H 0.23 1.1579 0.228
H28 H 0.1797 1.0473 0.2474
loop_
_geom_bond_atom_site_label_1
_geom_bond_atom_site_label_2
_geom_bond_site_symmetry_1
_geom_bond_site_symmetry_2
O1 C1 1_555 1_555
O2 N2 1_555 1_555
N1 H1 1_555 1_555
O3 C1 1_555 1_555
N2 C5 1_555 1_555
O4 C8 1_555 1_555
C1 N1 1_555 1_555
C2 C3 1_555 1_555
C3 N1 1_555 1_555
H2 C3 1_555 1_555
C4 O1 1_555 1_555
C5 C3 1_555 1_555
H3 C5 1_555 1_555
C6 C7 1_555 1_555
C7 C5 1_555 1_555
H4 C7 1_555 1_555
H5 C7 1_555 1_555
C8 N2 1_555 1_555
C9 H6 1_555 1_555
C10 C4 1_555 1_555
H7 C10 1_555 1_555
H8 C10 1_555 1_555
H9 C10 1_555 1_555
C11 C2 1_555 1_555
H10 C11 1_555 1_555
C12 C2 1_555 1_555
H11 C12 1_555 1_555
C13 C4 1_555 1_555
H12 C13 1_555 1_555
H13 C13 1_555 1_555
H14 C13 1_555 1_555
C14 C6 1_555 1_555
H15 C14 1_555 1_555
H16 C14 1_555 1_555
H17 C14 1_555 1_555
C15 C9 1_555 1_555
H18 C15 1_555 1_555
C16 C4 1_555 1_555
H19 C16 1_555 1_555
H20 C16 1_555 1_555
H21 C16 1_555 1_555
C17 O2 1_555 1_555
H22 C17 1_555 1_555
H23 C17 1_555 1_555
H24 C17 1_555 1_555
C18 C9 1_555 1_555
H25 C18 1_555 1_555
C19 C6 1_555 1_555
H26 C19 1_555 1_555
H27 C19 1_555 1_555
H28 C19 1_555 1_555
C6 C8 1_555 1_555
C11 C15 1_555 1_555
C12 C18 1_555 1_555

#END
