
#######################################################################
#
#                 Cambridge Crystallographic Data Centre
#                                CCDC 
#
#######################################################################
#
# If this CIF has been generated from an entry in the Cambridge 
# Structural Database, then it will include bibliographic, chemical, 
# crystal, experimental, refinement or atomic coordinate data resulting 
# from the CCDC's data processing and validation procedures.
#
#######################################################################

data_JEGVID
_chemical_formula_moiety         'C16 H18 N4 O2'
_chemical_name_systematic        
1-methoxy-6-(4-phenyl-1H-1,2,3-triazol-1-yl)hexahydrocyclopenta[b]pyrrol-2(1H)-one
_symmetry_cell_setting           monoclinic
_symmetry_space_group_name_H-M   'P 21/n'
_symmetry_Int_Tables_number      14
_space_group_name_Hall           '-P 2yn'
loop_
_symmetry_equiv_pos_site_id
_symmetry_equiv_pos_as_xyz
1 x,y,z
2 1/2-x,1/2+y,1/2-z
3 -x,-y,-z
4 1/2+x,1/2-y,1/2+z
_cell_length_a                   5.77440(10)
_cell_length_b                   34.6741(8)
_cell_length_c                   7.5977(2)
_cell_angle_alpha                90
_cell_angle_beta                 105.7920(13)
_cell_angle_gamma                90
_cell_volume                     1463.81
_exptl_crystal_colour            colorless
_exptl_crystal_description       block
_cell_formula_units_Z            4
loop_
_atom_site_label
_atom_site_type_symbol
_atom_site_fract_x
_atom_site_fract_y
_atom_site_fract_z
O1 O 0.87491(19) 0.06998(3) 0.13698(12)
O2 O 1.31082(19) 0.03127(3) 0.26656(14)
N1 N 0.6534(2) 0.13399(3) 0.36989(16)
N2 N 0.4377(2) 0.13348(4) 0.40511(17)
N3 N 0.2856(2) 0.15229(4) 0.27072(16)
C1 C 0.7246(3) 0.03975(5) 0.03744(19)
H1 H 0.82 0.0162 0.0431
H2 H 0.6595 0.0476 -0.0905
H3 H 0.5918 0.0349 0.0919
C2 C 0.6417(3) 0.15247(4) 0.21216(19)
H4 H 0.7684 0.1565 0.1564
C3 C 0.4057(2) 0.16427(4) 0.14908(18)
C4 C 0.2894(2) 0.18595(4) -0.01711(18)
C5 C 0.3868(3) 0.18521(4) -0.16637(19)
H5 H 0.5288 0.1708 -0.1592
C6 C 0.2776(3) 0.20541(4) -0.3253(2)
H6 H 0.3452 0.2047 -0.4262
C7 C 0.0702(3) 0.22663(4) -0.3370(2)
H7 H -0.0053 0.2402 -0.446
C8 C -0.0267(3) 0.22787(4) -0.1885(2)
H8 H -0.1677 0.2426 -0.1958
C9 C 0.0815(3) 0.20768(4) -0.02955(19)
H9 H 0.0139 0.2086 0.0713
N4 N 0.9721(3) 0.05822(4) 0.31668(16)
C10 C 1.1932(5) 0.04226(9) 0.3684(2)
C11 C 1.2652(5) 0.04020(6) 0.5751(2)
H10 H 1.4084 0.0565 0.6271
H11 H 1.3033 0.0133 0.6168
C12 C 1.0456(3) 0.05529(4) 0.63557(17)
H12 H 0.9694 0.0337 0.6873
C13 C 0.8672(2) 0.07116(4) 0.45812(17)
H13 H 0.7028 0.06 0.4408
C14 C 0.8653(3) 0.11492(4) 0.48738(18)
H14 H 1.0122 0.1262 0.4616
C15 C 0.8916(3) 0.11811(5) 0.6923(2)
H15 H 0.7424 0.1102 0.7228
H16 H 0.9349 0.1446 0.7376
C16 C 1.0978(3) 0.08974(5) 0.7696(2)
H17 H 1.099 0.0814 0.8945
H18 H 1.2551 0.1016 0.7737
N5? N 1.031(4) 0.0674(7) 0.319(2)
C17? C 1.211(11) 0.0414(18) 0.384(4)
C18? C 1.221(9) 0.0396(9) 0.587(4)
H19? H 1.3797 0.0304 0.6615
H20? H 1.0934 0.0226 0.6086
C19? C 1.177(4) 0.0829(6) 0.631(2)
H21? H 1.3281 0.0985 0.6706
C20? C 1.002(4) 0.0969(6) 0.447(2)
H22? H 1.0519 0.1228 0.4119
C21? C 0.755(4) 0.0992(6) 0.481(2)
H23? H 0.6559 0.0753 0.4438
C22? C 0.809(5) 0.1086(9) 0.686(3)
H24? H 0.849 0.1363 0.7093
H25? H 0.671 0.102 0.7339
C23? C 1.025(6) 0.0831(12) 0.769(3)
H26? H 0.972 0.0567 0.7884
H27? H 1.1189 0.0937 0.8882
loop_
_geom_bond_atom_site_label_1
_geom_bond_atom_site_label_2
_geom_bond_site_symmetry_1
_geom_bond_site_symmetry_2
O1 C1 1_555 1_555
O2 C10 1_555 1_555
N1 N2 1_555 1_555
N2 N3 1_555 1_555
N3 C3 1_555 1_555
C1 H1 1_555 1_555
H2 C1 1_555 1_555
H3 C1 1_555 1_555
C2 N1 1_555 1_555
H4 C2 1_555 1_555
C3 C2 1_555 1_555
C4 C3 1_555 1_555
C5 C4 1_555 1_555
H5 C5 1_555 1_555
C6 C5 1_555 1_555
H6 C6 1_555 1_555
C7 C6 1_555 1_555
H7 C7 1_555 1_555
C8 C7 1_555 1_555
H8 C8 1_555 1_555
C9 C4 1_555 1_555
H9 C9 1_555 1_555
N4 O1 1_555 1_555
C10 N4 1_555 1_555
C11 C10 1_555 1_555
H10 C11 1_555 1_555
H11 C11 1_555 1_555
C12 C11 1_555 1_555
H12 C12 1_555 1_555
C13 N4 1_555 1_555
H13 C13 1_555 1_555
C14 N1 1_555 1_555
H14 C14 1_555 1_555
C15 C14 1_555 1_555
H15 C15 1_555 1_555
H16 C15 1_555 1_555
C16 C12 1_555 1_555
H17 C16 1_555 1_555
H18 C16 1_555 1_555
C8 C9 1_555 1_555
C12 C13 1_555 1_555
C13 C14 1_555 1_555
C15 C16 1_555 1_555

#END
