
#######################################################################
#
#                 Cambridge Crystallographic Data Centre
#                                CCDC 
#
#######################################################################
#
# If this CIF has been generated from an entry in the Cambridge 
# Structural Database, then it will include bibliographic, chemical, 
# crystal, experimental, refinement or atomic coordinate data resulting 
# from the CCDC's data processing and validation procedures.
#
#######################################################################

data_JEGXUP
_chemical_formula_moiety         'C20 H28 O12'
_chemical_name_systematic        
(+)-Cyclo(2)-((4R,5R)-2,2-dimethyl-1,3-dioxolane-4,5-dimethyl)malonate
_symmetry_cell_setting           orthorhombic
_symmetry_space_group_name_H-M   'P 21 21 21'
_symmetry_Int_Tables_number      19
_space_group_name_Hall           'P 2ac 2ab'
loop_
_symmetry_equiv_pos_site_id
_symmetry_equiv_pos_as_xyz
1 x,y,z
2 1/2-x,-y,1/2+z
3 -x,1/2+y,1/2-z
4 1/2+x,1/2-y,-z
_cell_length_a                   8.7037(3)
_cell_length_b                   15.5372(2)
_cell_length_c                   16.0611(4)
_cell_angle_alpha                90
_cell_angle_beta                 90
_cell_angle_gamma                90
_cell_volume                     2171.96
_exptl_crystal_colour            colorless
_exptl_crystal_description       block
_chemical_melting_point          157.4deg.C
_cell_formula_units_Z            4
_exptl_crystal_recrystallization_method pentane/dichloromethane
loop_
_atom_site_label
_atom_site_type_symbol
_atom_site_fract_x
_atom_site_fract_y
_atom_site_fract_z
C1 C 0.65575(19) 0.81434(10) 0.93560(10)
H1 H 0.7109 0.7586 0.9345
H2 H 0.5560 0.8068 0.9069
O1 O 0.74622(12) 0.87971(7) 0.89327(6)
O2 O 0.53266(14) 0.94690(9) 0.84820(9)
C2 C 0.66950(18) 0.94258(10) 0.85253(10)
C3 C 0.78278(18) 1.00479(10) 0.81498(9)
H3 H 0.7300 1.0420 0.7739
H4 H 0.8648 0.9726 0.7857
O3 O 0.77811(14) 1.09088(8) 0.93840(8)
C4 C 0.85242(17) 1.05960(9) 0.88280(9)
O4 O 1.00377(12) 1.06866(7) 0.87434(6)
C5 C 1.07489(18) 1.11984(10) 0.93939(10)
H5 H 1.0610 1.0914 0.9940
H6 H 1.0261 1.1773 0.9419
C6 C 1.24327(18) 1.12894(9) 0.92040(9)
H7 H 1.2906 1.0712 0.9107
O5 O 1.26292(16) 1.18268(8) 0.84890(7)
C7 C 1.39232(18) 1.23826(9) 0.86127(9)
C8 C 1.3365(3) 1.32978(11) 0.85660(13)
H8 H 1.2563 1.3390 0.8985
H9 H 1.2946 1.3410 0.8010
H10 H 1.4224 1.3690 0.8673
C9 C 1.5161(3) 1.21728(16) 0.79973(12)
H11 H 1.5470 1.1570 0.8064
H12 H 1.6049 1.2547 0.8094
H13 H 1.4774 1.2264 0.7431
O6 O 1.44931(13) 1.21971(7) 0.94286(6)
C10 C 1.33078(18) 1.17756(10) 0.98840(9)
H14 H 1.2624 1.2207 1.0160
C11 C 1.41048(19) 1.12241(10) 1.05249(10)
H15 H 1.4767 1.0791 1.0250
H16 H 1.4751 1.1583 1.0895
O7 O 1.28957(12) 1.08048(7) 1.09987(7)
O8 O 1.46836(13) 1.00083(9) 1.16387(8)
C12 C 1.33605(18) 1.01763(10) 1.15140(10)
C13 C 1.20048(18) 0.97249(10) 1.19054(10)
H17 H 1.1499 1.0115 1.2308
H18 H 1.2365 0.9210 1.2212
O9 O 1.12115(16) 0.91951(10) 1.05681(9)
C14 C 1.08633(18) 0.94565(9) 1.12449(10)
O10 O 0.94241(12) 0.95575(7) 1.15055(6)
C15 C 0.82106(18) 0.94333(10) 1.08932(10)
H19 H 0.8552 0.9675 1.0354
H20 H 0.7290 0.9758 1.1073
C16 C 0.77752(18) 0.85061(9) 1.07684(10)
H21 H 0.8638 0.8169 1.0518
O11 O 0.73328(14) 0.81653(8) 1.15602(7)
C17 C 0.61916(19) 0.75248(10) 1.14160(10)
C18 C 0.6884(2) 0.66451(12) 1.12886(14)
H22 H 0.7586 0.6660 1.0812
H23 H 0.6064 0.6227 1.1182
H24 H 0.7453 0.6476 1.1789
C19 C 0.5082(3) 0.75659(14) 1.21353(12)
H25 H 0.4667 0.8150 1.2181
H26 H 0.5619 0.7416 1.2652
H27 H 0.4240 0.7159 1.2041
O12 O 0.54095(14) 0.77857(8) 1.06701(7)
C20 C 0.62900(18) 0.84208(10) 1.02494(9)
H28 H 0.5723 0.8981 1.0256
loop_
_geom_bond_atom_site_label_1
_geom_bond_atom_site_label_2
_geom_bond_site_symmetry_1
_geom_bond_site_symmetry_2
C1 H1 1_555 1_555
H2 C1 1_555 1_555
O1 C1 1_555 1_555
O2 C2 1_555 1_555
C2 O1 1_555 1_555
C3 C2 1_555 1_555
H3 C3 1_555 1_555
H4 C3 1_555 1_555
O3 C4 1_555 1_555
C4 C3 1_555 1_555
O4 C4 1_555 1_555
C5 O4 1_555 1_555
H5 C5 1_555 1_555
H6 C5 1_555 1_555
C6 C5 1_555 1_555
H7 C6 1_555 1_555
O5 C6 1_555 1_555
C7 O5 1_555 1_555
C8 C7 1_555 1_555
H8 C8 1_555 1_555
H9 C8 1_555 1_555
H10 C8 1_555 1_555
C9 C7 1_555 1_555
H11 C9 1_555 1_555
H12 C9 1_555 1_555
H13 C9 1_555 1_555
O6 C7 1_555 1_555
C10 C6 1_555 1_555
H14 C10 1_555 1_555
C11 C10 1_555 1_555
H15 C11 1_555 1_555
H16 C11 1_555 1_555
O7 C11 1_555 1_555
O8 C12 1_555 1_555
C12 O7 1_555 1_555
C13 C12 1_555 1_555
H17 C13 1_555 1_555
H18 C13 1_555 1_555
O9 C14 1_555 1_555
C14 C13 1_555 1_555
O10 C14 1_555 1_555
C15 O10 1_555 1_555
H19 C15 1_555 1_555
H20 C15 1_555 1_555
C16 C15 1_555 1_555
H21 C16 1_555 1_555
O11 C16 1_555 1_555
C17 O11 1_555 1_555
C18 C17 1_555 1_555
H22 C18 1_555 1_555
H23 C18 1_555 1_555
H24 C18 1_555 1_555
C19 C17 1_555 1_555
H25 C19 1_555 1_555
H26 C19 1_555 1_555
H27 C19 1_555 1_555
O12 C17 1_555 1_555
C20 C1 1_555 1_555
H28 C20 1_555 1_555
O6 C10 1_555 1_555
C16 C20 1_555 1_555
O12 C20 1_555 1_555

#END
