
#######################################################################
#
#                 Cambridge Crystallographic Data Centre
#                                CCDC 
#
#######################################################################
#
# If this CIF has been generated from an entry in the Cambridge 
# Structural Database, then it will include bibliographic, chemical, 
# crystal, experimental, refinement or atomic coordinate data resulting 
# from the CCDC's data processing and validation procedures.
#
#######################################################################

data_JEGYOK
_chemical_formula_moiety         'C22 H20 O8'
_chemical_name_systematic        Cyclo(2)benzene-1,4-dimethylenemalonate
_symmetry_cell_setting           monoclinic
_symmetry_space_group_name_H-M   'P 21/c'
_symmetry_Int_Tables_number      14
_space_group_name_Hall           '-P 2ybc'
loop_
_symmetry_equiv_pos_site_id
_symmetry_equiv_pos_as_xyz
1 x,y,z
2 -x,1/2+y,1/2-z
3 -x,-y,-z
4 x,1/2-y,1/2+z
_cell_length_a                   11.7989(4)
_cell_length_b                   5.8463(2)
_cell_length_c                   14.1202(5)
_cell_angle_alpha                90
_cell_angle_beta                 105.132(2)
_cell_angle_gamma                90
_cell_volume                     940.238
_exptl_crystal_colour            colorless
_chemical_melting_point          122.8deg.C
_cell_formula_units_Z            2
_exptl_crystal_recrystallization_method chloroform
loop_
_atom_site_label
_atom_site_type_symbol
_atom_site_fract_x
_atom_site_fract_y
_atom_site_fract_z
C1 C -0.35461(12) 0.7658(3) 0.99429(10)
H1 H -0.3840 0.6422 1.0295
H2 H -0.4028 0.9041 0.9949
O1 O -0.36380(9) 0.69600(18) 0.89315(7)
C2 C -0.38337(12) 0.4745(3) 0.87077(11)
O2 O -0.39720(10) 0.3282(2) 0.92650(8)
C3 C -0.38420(13) 0.4297(3) 0.76497(11)
H3 H -0.4662 0.4148 0.7247
H4 H -0.3478 0.5604 0.7394
C4 C -0.31770(12) 0.2142(3) 0.75709(10)
O3 O -0.35494(10) 0.0533(2) 0.70547(8)
O4 O -0.20758(9) 0.22668(19) 0.81522(8)
C5 C -0.13466(13) 0.0284(3) 0.81687(11)
H5 H -0.1421 -0.0256 0.7491
H6 H -0.1602 -0.0965 0.8539
C6 C -0.00908(12) 0.0904(2) 0.86478(10)
C7 C 0.07709(13) -0.0719(3) 0.86826(11)
H7 H 0.0558 -0.2171 0.8389
C8 C 0.19423(13) -0.0270(3) 0.91384(11)
H8 H 0.2517 -0.1422 0.9163
C9 C -0.22774(12) 0.8154(3) 1.04429(10)
C10 C -0.14176(13) 0.6510(3) 1.04834(12)
H9 H -0.1635 0.5047 1.0201
C11 C 0.02444(13) 0.3030(3) 0.90696(11)
H10 H -0.0332 0.4175 0.9052
C1B C 0.35461(12) 0.2342(3) 1.00571(10)
H1B H 0.3840 0.3578 0.9705
H2B H 0.4028 0.0959 1.0051
O1B O 0.36380(9) 0.30400(18) 1.10685(7)
C2B C 0.38337(12) 0.5255(3) 1.12923(11)
O2B O 0.39720(10) 0.6718(2) 1.07350(8)
C3B C 0.38420(13) 0.5703(3) 1.23503(11)
H3B H 0.4662 0.5852 1.2753
H4B H 0.3478 0.4396 1.2606
C4B C 0.31770(12) 0.7858(3) 1.24291(10)
O3B O 0.35494(10) 0.9467(2) 1.29453(8)
O4B O 0.20758(9) 0.77332(19) 1.18478(8)
C5B C 0.13466(13) 0.9716(3) 1.18313(11)
H5B H 0.1421 1.0256 1.2509
H6B H 0.1602 1.0965 1.1461
C6B C 0.00908(12) 0.9096(2) 1.13522(10)
C7B C -0.07709(13) 1.0719(3) 1.13174(11)
H7B H -0.0558 1.2171 1.1611
C8B C -0.19423(13) 1.0270(3) 1.08616(11)
H8B H -0.2517 1.1422 1.0837
C9B C 0.22774(12) 0.1846(3) 0.95571(10)
C10B C 0.14176(13) 0.3490(3) 0.95166(12)
H9B H 0.1635 0.4953 0.9799
C11B C -0.02444(13) 0.6970(3) 1.09304(11)
H10B H 0.0332 0.5825 1.0948
loop_
_geom_bond_atom_site_label_1
_geom_bond_atom_site_label_2
_geom_bond_site_symmetry_1
_geom_bond_site_symmetry_2
C1 H1 1_555 1_555
H2 C1 1_555 1_555
O1 C1 1_555 1_555
C2 O1 1_555 1_555
O2 C2 1_555 1_555
C3 C2 1_555 1_555
H3 C3 1_555 1_555
H4 C3 1_555 1_555
C4 C3 1_555 1_555
O3 C4 1_555 1_555
O4 C4 1_555 1_555
C5 O4 1_555 1_555
H5 C5 1_555 1_555
H6 C5 1_555 1_555
C6 C5 1_555 1_555
C7 C6 1_555 1_555
H7 C7 1_555 1_555
C8 C7 1_555 1_555
H8 C8 1_555 1_555
C9 C1 1_555 1_555
C10 C9 1_555 1_555
H9 C10 1_555 1_555
C11 C6 1_555 1_555
H10 C11 1_555 1_555
C1B H1B 1_555 1_555
H2B C1B 1_555 1_555
O1B C1B 1_555 1_555
C2B O1B 1_555 1_555
O2B C2B 1_555 1_555
C3B C2B 1_555 1_555
H3B C3B 1_555 1_555
H4B C3B 1_555 1_555
C4B C3B 1_555 1_555
O3B C4B 1_555 1_555
O4B C4B 1_555 1_555
C5B O4B 1_555 1_555
H5B C5B 1_555 1_555
H6B C5B 1_555 1_555
C6B C5B 1_555 1_555
C7B C6B 1_555 1_555
H7B C7B 1_555 1_555
C8B C9 1_555 1_555
H8B C8B 1_555 1_555
C9B C8 1_555 1_555
C10B C11 1_555 1_555
H9B C10B 1_555 1_555
C11B C10 1_555 1_555
H10B C11B 1_555 1_555
C1B C9B 1_555 1_555
C6B C11B 1_555 1_555
C7B C8B 1_555 1_555
C9B C10B 1_555 1_555

#END
