
#######################################################################
#
#                 Cambridge Crystallographic Data Centre
#                                CCDC 
#
#######################################################################
#
# If this CIF has been generated from an entry in the Cambridge 
# Structural Database, then it will include bibliographic, chemical, 
# crystal, experimental, refinement or atomic coordinate data resulting 
# from the CCDC's data processing and validation procedures.
#
#######################################################################

data_JEGYAW
_chemical_formula_moiety         'C28 H44 O12'
_chemical_name_systematic        
(+)-Cyclo(2)-(2,2-dimethyl-1,3-dioxolane-4,5-dipropyl)malonate
_symmetry_cell_setting           triclinic
_symmetry_space_group_name_H-M   'P 1'
_symmetry_Int_Tables_number      1
_space_group_name_Hall           'P 1'
loop_
_symmetry_equiv_pos_site_id
_symmetry_equiv_pos_as_xyz
1 x,y,z
_cell_length_a                   7.8292(16)
_cell_length_b                   8.1741(16)
_cell_length_c                   11.902(2)
_cell_angle_alpha                87.96(3)
_cell_angle_beta                 75.89(3)
_cell_angle_gamma                79.54(3)
_cell_volume                     726.402
_exptl_crystal_colour            colorless
_exptl_crystal_description       plate
_cell_formula_units_Z            1
_exptl_crystal_recrystallization_method pentane/dichloromethane
loop_
_atom_site_label
_atom_site_type_symbol
_atom_site_fract_x
_atom_site_fract_y
_atom_site_fract_z
C1 C 1.0974(2) 0.6752(2) 0.57179(15)
H1 H 1.1964 0.5818 0.5382
O1 O 1.0993(2) 0.8123(2) 0.49326(13)
C2 C 1.2146(3) 0.9170(3) 0.51822(17)
C3 C 1.1137(3) 1.0922(3) 0.53191(19)
H2 H 1.0047 1.0975 0.5942
H3 H 1.0814 1.1285 0.4593
H4 H 1.1890 1.1653 0.5512
C4 C 1.3851(3) 0.8991(3) 0.42458(19)
H5 H 1.4464 0.7828 0.4195
H6 H 1.4630 0.9702 0.4429
H7 H 1.3572 0.9324 0.3502
O2 O 1.2593(2) 0.85548(19) 0.62450(13)
C5 C 1.1360(2) 0.7477(2) 0.67689(16)
H8 H 1.0238 0.8153 0.7243
C6 C 1.2178(3) 0.6207(2) 0.75229(17)
H9 H 1.3295 0.5568 0.7038
H10 H 1.1345 0.5418 0.7794
C7 C 1.2619(3) 0.6874(3) 0.85818(17)
H11 H 1.1650 0.7798 0.8933
H12 H 1.2662 0.5981 0.9163
C8 C 1.4341(3) 0.7477(4) 0.83004(18)
H13 H 1.5323 0.6570 0.7940
H14 H 1.4300 0.8406 0.7745
O3 O 1.46580(18) 0.8041(2) 0.93721(12)
O4 O 1.7517(2) 0.6722(2) 0.89093(14)
C9 C 1.6248(3) 0.7510(2) 0.95796(17)
C10 C 1.6313(3) 0.8004(3) 1.07737(18)
H15 H 1.7438 0.8424 1.0724
H16 H 1.5302 0.8921 1.1072
O5 O 1.7144(2) 0.6267(3) 1.22799(16)
C11 C 1.6214(3) 0.6576(2) 1.16136(17)
O6 O 1.4925(2) 0.5780(2) 1.15618(15)
C12 C 1.4473(4) 0.4592(4) 1.2493(2)
H17 H 1.3464 0.5134 1.3116
H18 H 1.5515 0.4208 1.2829
C13 C 1.3966(4) 0.3150(3) 1.2003(2)
H19 H 1.3731 0.2324 1.2625
H20 H 1.5003 0.2620 1.1394
C14 C 1.2333(3) 0.3551(3) 1.1484(2)
H21 H 1.1335 0.4237 1.2042
H22 H 1.2630 0.4208 1.0770
C15 C 1.1748(3) 0.2001(3) 1.11995(18)
H23 H 1.2794 0.1242 1.0714
O7 O 1.1073(2) 0.1190(2) 1.22668(15)
C16 C 0.9896(3) 0.0169(3) 1.20497(17)
C17 C 1.0814(3) -0.1616(3) 1.1878(2)
H24 H 1.1868 -0.1703 1.1225
H25 H 0.9986 -0.2291 1.1716
H26 H 1.1188 -0.2019 1.2582
C18 C 0.8252(3) 0.0384(3) 1.3048(2)
H27 H 0.7692 0.1562 1.3130
H28 H 0.8598 0.0003 1.3764
H29 H 0.7400 -0.0272 1.2897
O8 O 0.9405(2) 0.0768(2) 1.10047(14)
C19 C 1.0181(3) 0.2214(3) 1.06295(18)
H30 H 0.9306 0.3249 1.0921
C20 C 1.0765(3) 0.2216(3) 0.93171(18)
H31 H 1.1563 0.1145 0.9058
H32 H 1.1479 0.3108 0.9082
C21 C 0.9265(3) 0.2467(3) 0.8676(2)
H33 H 0.8444 0.3525 0.8942
H34 H 0.9794 0.2565 0.7837
C22 C 0.8197(3) 0.1067(2) 0.88584(17)
H35 H 0.8965 0.0022 0.9012
H36 H 0.7177 0.1324 0.9543
O9 O 0.75285(18) 0.08383(17) 0.78494(12)
O10 O 0.5175(2) 0.2884(2) 0.84449(15)
C23 C 0.6024(3) 0.1840(3) 0.77438(18)
C24 C 0.5539(3) 0.1443(3) 0.6645(2)
H37 H 0.4310 0.1194 0.6845
H38 H 0.6361 0.0431 0.6284
O11 O 0.4648(2) 0.31213(19) 0.51317(14)
C25 C 0.5631(3) 0.2839(2) 0.57704(17)
O12 O 0.69549(18) 0.36450(18) 0.57781(13)
C26 C 0.7142(3) 0.4989(3) 0.4936(2)
H39 H 0.6187 0.5962 0.5205
H40 H 0.7030 0.4615 0.4179
C27 C 0.8948(3) 0.5463(3) 0.48078(17)
H41 H 0.9123 0.6292 0.4182
H42 H 0.9882 0.4466 0.4568
C28 C 0.9202(3) 0.6185(3) 0.59080(17)
H43 H 0.8225 0.7140 0.6182
H44 H 0.9122 0.5330 0.6520
loop_
_geom_bond_atom_site_label_1
_geom_bond_atom_site_label_2
_geom_bond_site_symmetry_1
_geom_bond_site_symmetry_2
C1 H1 1_555 1_555
O1 C1 1_555 1_555
C2 O1 1_555 1_555
C3 C2 1_555 1_555
H2 C3 1_555 1_555
H3 C3 1_555 1_555
H4 C3 1_555 1_555
C4 C2 1_555 1_555
H5 C4 1_555 1_555
H6 C4 1_555 1_555
H7 C4 1_555 1_555
O2 C2 1_555 1_555
C5 C1 1_555 1_555
H8 C5 1_555 1_555
C6 C5 1_555 1_555
H9 C6 1_555 1_555
H10 C6 1_555 1_555
C7 C6 1_555 1_555
H11 C7 1_555 1_555
H12 C7 1_555 1_555
C8 C7 1_555 1_555
H13 C8 1_555 1_555
H14 C8 1_555 1_555
O3 C8 1_555 1_555
O4 C9 1_555 1_555
C9 O3 1_555 1_555
C10 C9 1_555 1_555
H15 C10 1_555 1_555
H16 C10 1_555 1_555
O5 C11 1_555 1_555
C11 C10 1_555 1_555
O6 C11 1_555 1_555
C12 O6 1_555 1_555
H17 C12 1_555 1_555
H18 C12 1_555 1_555
C13 C12 1_555 1_555
H19 C13 1_555 1_555
H20 C13 1_555 1_555
C14 C13 1_555 1_555
H21 C14 1_555 1_555
H22 C14 1_555 1_555
C15 C14 1_555 1_555
H23 C15 1_555 1_555
O7 C15 1_555 1_555
C16 O7 1_555 1_555
C17 C16 1_555 1_555
H24 C17 1_555 1_555
H25 C17 1_555 1_555
H26 C17 1_555 1_555
C18 C16 1_555 1_555
H27 C18 1_555 1_555
H28 C18 1_555 1_555
H29 C18 1_555 1_555
O8 C16 1_555 1_555
C19 C15 1_555 1_555
H30 C19 1_555 1_555
C20 C19 1_555 1_555
H31 C20 1_555 1_555
H32 C20 1_555 1_555
C21 C20 1_555 1_555
H33 C21 1_555 1_555
H34 C21 1_555 1_555
C22 C21 1_555 1_555
H35 C22 1_555 1_555
H36 C22 1_555 1_555
O9 C22 1_555 1_555
O10 C23 1_555 1_555
C23 O9 1_555 1_555
C24 C23 1_555 1_555
H37 C24 1_555 1_555
H38 C24 1_555 1_555
O11 C25 1_555 1_555
C25 C24 1_555 1_555
O12 C25 1_555 1_555
C26 O12 1_555 1_555
H39 C26 1_555 1_555
H40 C26 1_555 1_555
C27 C26 1_555 1_555
H41 C27 1_555 1_555
H42 C27 1_555 1_555
C28 C1 1_555 1_555
H43 C28 1_555 1_555
H44 C28 1_555 1_555
O2 C5 1_555 1_555
O8 C19 1_555 1_555
C27 C28 1_555 1_555

#END
