
#######################################################################
#
#                 Cambridge Crystallographic Data Centre
#                                CCDC 
#
#######################################################################
#
# If this CIF has been generated from an entry in the Cambridge 
# Structural Database, then it will include bibliographic, chemical, 
# crystal, experimental, refinement or atomic coordinate data resulting 
# from the CCDC's data processing and validation procedures.
#
#######################################################################

data_JEHFAE
_chemical_name_common            
"Tetra-n-butylammonium 1,1'-(4,5-dichloro-o-phenylene)-bis(3-phenylurea) benzoate"
_chemical_formula_moiety         'C16 H36 N1 1+,C20 H16 Cl2 N4 O2,C7 H5 O2 1-'
_chemical_name_systematic        
"Tetra-n-butylammonium 4,5-dichloro-N,N'-bis(N-phenylcarbamoyl)-o-phenylenediamine benzoate"
_symmetry_cell_setting           monoclinic
_symmetry_space_group_name_H-M   'P 21/c'
_symmetry_Int_Tables_number      14
_space_group_name_Hall           '-P 2ybc'
loop_
_symmetry_equiv_pos_site_id
_symmetry_equiv_pos_as_xyz
1 x,y,z
2 -x,1/2+y,1/2-z
3 -x,-y,-z
4 x,1/2-y,1/2+z
_cell_length_a                   21.1911(9)
_cell_length_b                   8.5246(3)
_cell_length_c                   22.6193(10)
_cell_angle_alpha                90
_cell_angle_beta                 95.091(2)
_cell_angle_gamma                90
_cell_volume                     4069.96
_exptl_crystal_colour            colorless
_exptl_crystal_description       block
_cell_formula_units_Z            4
loop_
_atom_site_label
_atom_site_type_symbol
_atom_site_fract_x
_atom_site_fract_y
_atom_site_fract_z
C1 C 0.37848(15) 0.4444(4) 0.83000(14)
H1 H 0.3388 0.4680 0.8090
C2 C -0.00438(15) 0.6553(4) 0.93684(15)
C3 C -0.03097(16) 0.5570(4) 0.89155(16)
H2 H -0.0093 0.4643 0.8818
C4 C -0.08821(16) 0.5937(4) 0.86101(16)
H3 H -0.1057 0.5257 0.8306
C5 C -0.12051(16) 0.7289(5) 0.87433(17)
H4 H -0.1600 0.7545 0.8533
C6 C -0.09401(16) 0.8258(4) 0.91887(17)
H5 H -0.1156 0.9191 0.9281
C7 C -0.03649(16) 0.7901(4) 0.95057(16)
H6 H -0.0194 0.8577 0.9813
C17 C 0.44373(15) 0.4148(4) 0.92156(16)
H17 H 0.4488 0.4182 0.9637
C18 C 0.49481(17) 0.3739(4) 0.89000(17)
H18 H 0.5346 0.3490 0.9106
C19 C 0.48768(16) 0.3694(4) 0.82826(16)
H19 H 0.5225 0.3429 0.8065
C20 C 0.42979(16) 0.4039(4) 0.79917(16)
H20 H 0.4247 0.3998 0.7570
C21 C 0.38530(15) 0.4506(4) 0.89155(14)
C22 C 0.33383(16) 0.5634(4) 0.97528(14)
C23 C 0.26204(15) 0.6575(4) 1.04899(14)
C24 C 0.30946(15) 0.7194(4) 1.08775(14)
H21 H 0.3525 0.7050 1.0802
C25 C 0.29521(15) 0.8026(4) 1.13774(15)
C26 C 0.23292(16) 0.8239(4) 1.14977(15)
C27 C 0.18482(16) 0.7598(4) 1.11214(15)
H22 H 0.1421 0.7716 1.1210
C28 C 0.19830(15) 0.6775(4) 1.06103(15)
C29 C 0.09211(15) 0.6919(4) 1.00666(15)
N1 N 0.33072(12) 0.4870(3) 0.92145(11)
H54 H 0.2933 0.4595 0.9047
N2 N 0.27522(12) 0.5773(3) 0.99680(12)
H55 H 0.2431 0.5320 0.9762
N3 N 0.14899(12) 0.6153(3) 1.02306(12)
H56 H 0.1543 0.5209 1.0085
N4 N 0.05401(12) 0.6070(3) 0.96665(12)
H57 H 0.0671 0.5122 0.9585
O3 O 0.38316(10) 0.6153(3) 0.99993(11)
O4 O 0.07937(11) 0.8207(3) 1.02600(11)
Cl1 Cl 0.35766(4) 0.87986(11) 1.18399(4)
Cl2 Cl 0.21521(4) 0.92971(11) 1.21195(4)
C8 C 0.09695(16) 0.3166(4) 0.79481(15)
H7 H 0.1232 0.3719 0.7700
C9 C 0.04110(16) 0.2498(5) 0.77053(16)
H8 H 0.0287 0.2610 0.7294
C10 C 0.00325(16) 0.1666(4) 0.80629(18)
H9 H -0.0349 0.1199 0.7894
C11 C 0.02065(17) 0.1509(4) 0.86645(17)
H10 H -0.0051 0.0931 0.8909
C12 C 0.07602(15) 0.2206(4) 0.89039(16)
H11 H 0.0877 0.2116 0.9318
C13 C 0.11504(15) 0.3035(4) 0.85515(15)
C14 C 0.17547(15) 0.3779(4) 0.88223(15)
O1 O 0.21810(11) 0.4113(3) 0.84989(10)
O2 O 0.17955(11) 0.3984(3) 0.93820(11)
C15 C 0.48475(16) 0.8421(5) 0.85755(17)
H12 H 0.4748 0.7387 0.8391
H13 H 0.5212 0.8865 0.8387
C16 C 0.50382(18) 0.8185(5) 0.92320(18)
H14 H 0.5136 0.9203 0.9419
H15 H 0.5413 0.7508 0.9282
H16 H 0.4689 0.7691 0.9419
C30 C 0.29713(16) 1.0755(4) 0.80720(14)
H23 H 0.2634 1.1515 0.8145
H24 H 0.3362 1.1361 0.8024
C31 C 0.27802(17) 0.9898(4) 0.74917(15)
H25 H 0.2338 0.9522 0.7491
H26 H 0.3058 0.8974 0.7457
C32 C 0.28365(17) 1.0994(4) 0.69627(16)
H27 H 0.2579 1.0568 0.6613
H28 H 0.2660 1.2033 0.7055
C33 C 0.35189(18) 1.1208(5) 0.68058(17)
H29 H 0.3781 1.1590 0.7155
H30 H 0.3528 1.1970 0.6482
H31 H 0.3685 1.0199 0.6680
C34 C 0.25286(15) 0.8624(4) 0.86810(16)
H32 H 0.2458 0.7994 0.8313
H33 H 0.2643 0.7888 0.9012
C35 C 0.19082(15) 0.9416(4) 0.87931(17)
H34 H 0.1957 0.9963 0.9181
H35 H 0.1801 1.0210 0.8481
C36 C 0.13758(16) 0.8232(4) 0.87943(16)
H36 H 0.1026 0.8698 0.8997
H37 H 0.1531 0.7302 0.9026
C37 C 0.11194(17) 0.7704(6) 0.81801(18)
H38 H 0.0952 0.8613 0.7951
H39 H 0.0779 0.6939 0.8214
H40 H 0.1461 0.7220 0.7978
C38 C 0.31853(16) 1.0812(4) 0.91472(15)
H41 H 0.3532 1.1548 0.9076
H42 H 0.2795 1.1440 0.9166
C39 C 0.33417(17) 1.0035(4) 0.97461(15)
H43 H 0.3780 0.9623 0.9769
H44 H 0.3052 0.9139 0.9787
C40 C 0.32797(16) 1.1195(4) 1.02589(16)
H45 H 0.3516 1.0780 1.0623
H46 H 0.3475 1.2206 1.0161
C41 C 0.25938(17) 1.1479(4) 1.03815(17)
H47 H 0.2363 1.1950 1.0031
H48 H 0.2581 1.2191 1.0721
H49 H 0.2395 1.0479 1.0472
C42 C 0.36669(15) 0.8669(4) 0.85758(16)
H50 H 0.3748 0.8087 0.8954
H51 H 0.3565 0.7887 0.8258
C43 C 0.42741(16) 0.9509(4) 0.84492(17)
H52 H 0.4329 1.0457 0.8701
H53 H 0.4245 0.9844 0.8029
N5 N 0.30892(12) 0.9708(3) 0.86195(12)
loop_
_geom_bond_atom_site_label_1
_geom_bond_atom_site_label_2
_geom_bond_site_symmetry_1
_geom_bond_site_symmetry_2
C1 H1 1_555 1_555
C2 C3 1_555 1_555
C3 H2 1_555 1_555
C4 C3 1_555 1_555
H3 C4 1_555 1_555
C5 C4 1_555 1_555
H4 C5 1_555 1_555
C6 C5 1_555 1_555
H5 C6 1_555 1_555
C7 C2 1_555 1_555
H6 C7 1_555 1_555
C8 H7 1_555 1_555
C9 C8 1_555 1_555
H8 C9 1_555 1_555
C10 C9 1_555 1_555
H9 C10 1_555 1_555
C11 C10 1_555 1_555
H10 C11 1_555 1_555
C12 C11 1_555 1_555
H11 C12 1_555 1_555
C13 C8 1_555 1_555
C14 C13 1_555 1_555
C15 H12 1_555 1_555
H13 C15 1_555 1_555
C16 C15 1_555 1_555
H14 C16 1_555 1_555
H15 C16 1_555 1_555
H16 C16 1_555 1_555
O1 C14 1_555 1_555
O2 C14 1_555 1_555
C17 H17 1_555 1_555
C18 C17 1_555 1_555
H18 C18 1_555 1_555
C19 C18 1_555 1_555
H19 C19 1_555 1_555
C20 C1 1_555 1_555
H20 C20 1_555 1_555
C21 C1 1_555 1_555
C22 N1 1_555 1_555
C23 C24 1_555 1_555
C24 H21 1_555 1_555
C25 C24 1_555 1_555
C26 C25 1_555 1_555
C27 C26 1_555 1_555
H22 C27 1_555 1_555
C28 C23 1_555 1_555
C29 N3 1_555 1_555
C30 H23 1_555 1_555
H24 C30 1_555 1_555
C31 C30 1_555 1_555
H25 C31 1_555 1_555
H26 C31 1_555 1_555
C32 C31 1_555 1_555
H27 C32 1_555 1_555
H28 C32 1_555 1_555
C33 C32 1_555 1_555
H29 C33 1_555 1_555
H30 C33 1_555 1_555
H31 C33 1_555 1_555
C34 H32 1_555 1_555
H33 C34 1_555 1_555
C35 C34 1_555 1_555
H34 C35 1_555 1_555
H35 C35 1_555 1_555
C36 C35 1_555 1_555
H36 C36 1_555 1_555
H37 C36 1_555 1_555
C37 C36 1_555 1_555
H38 C37 1_555 1_555
H39 C37 1_555 1_555
H40 C37 1_555 1_555
C38 H41 1_555 1_555
H42 C38 1_555 1_555
C39 C38 1_555 1_555
H43 C39 1_555 1_555
H44 C39 1_555 1_555
C40 C39 1_555 1_555
H45 C40 1_555 1_555
H46 C40 1_555 1_555
C41 C40 1_555 1_555
H47 C41 1_555 1_555
H48 C41 1_555 1_555
H49 C41 1_555 1_555
C42 H50 1_555 1_555
H51 C42 1_555 1_555
C43 C15 1_555 1_555
H52 C43 1_555 1_555
H53 C43 1_555 1_555
N1 C21 1_555 1_555
H54 N1 1_555 1_555
N2 C22 1_555 1_555
H55 N2 1_555 1_555
N3 C28 1_555 1_555
H56 N3 1_555 1_555
N4 C2 1_555 1_555
H57 N4 1_555 1_555
N5 C30 1_555 1_555
O3 C22 1_555 1_555
O4 C29 1_555 1_555
Cl1 C25 1_555 1_555
Cl2 C26 1_555 1_555
C6 C7 1_555 1_555
C12 C13 1_555 1_555
C17 C21 1_555 1_555
C19 C20 1_555 1_555
C23 N2 1_555 1_555
C27 C28 1_555 1_555
C29 N4 1_555 1_555
C34 N5 1_555 1_555
C38 N5 1_555 1_555
C42 C43 1_555 1_555
C42 N5 1_555 1_555

#END
