
#######################################################################
#
#                 Cambridge Crystallographic Data Centre
#                                CCDC 
#
#######################################################################
#
# If this CIF has been generated from an entry in the Cambridge 
# Structural Database, then it will include bibliographic, chemical, 
# crystal, experimental, refinement or atomic coordinate data resulting 
# from the CCDC's data processing and validation procedures.
#
#######################################################################

data_JEHFUX02
_chemical_formula_moiety         'C14 H17 B1 F2 N2'
_chemical_name_systematic        
5,5-Difluoro-1,3,7,9,10-pentamethyl-5H-4\l^5^,5\l^5^-dipyrrolo[1,2-c:2',1'-f][1,3,2]diazaborinine
_symmetry_cell_setting           orthorhombic
_symmetry_space_group_name_H-M   'P n m a'
_symmetry_Int_Tables_number      62
_space_group_name_Hall           '-P 2ac 2n'
loop_
_symmetry_equiv_pos_site_id
_symmetry_equiv_pos_as_xyz
1 x,y,z
2 1/2-x,-y,1/2+z
3 1/2+x,1/2-y,1/2-z
4 -x,1/2+y,-z
5 -x,-y,-z
6 1/2+x,y,1/2-z
7 1/2-x,1/2+y,1/2+z
8 x,1/2-y,z
_cell_length_a                   11.3154(16)
_cell_length_b                   7.0396(10)
_cell_length_c                   16.013(2)
_cell_angle_alpha                90
_cell_angle_beta                 90
_cell_angle_gamma                90
_cell_volume                     1275.53
_exptl_crystal_colour            orange
_exptl_crystal_description       lath
_cell_formula_units_Z            4
loop_
_atom_site_label
_atom_site_type_symbol
_atom_site_fract_x
_atom_site_fract_y
_atom_site_fract_z
F1 F 0.20098(5) 0.58854(10) 0.62882(4)
N1 N 0.22748(9) 0.7500 0.49737(6)
N2 N 0.38572(9) 0.7500 0.60395(6)
C1 C 0.11973(11) 0.7500 0.46086(8)
C2 C 0.13373(12) 0.7500 0.37377(8)
H1 H 0.0716 0.7500 0.3339
C3 C 0.25432(12) 0.7500 0.35577(8)
C4 C 0.31376(11) 0.7500 0.43459(8)
C5 C 0.43441(11) 0.7500 0.45529(8)
C6 C 0.46993(11) 0.7500 0.53949(7)
C7 C 0.58450(11) 0.7500 0.57714(8)
C8 C 0.56579(11) 0.7500 0.66309(8)
H2 H 0.6256 0.7500 0.7047
C9 C 0.44358(11) 0.7500 0.67781(8)
C10 C 0.00715(12) 0.7500 0.50915(9)
H3 H 0.0033 0.6381 0.5440
H4 H -0.0592 0.7500 0.4712
C11 C 0.30354(13) 0.7500 0.26887(8)
H5 H 0.2392 0.7500 0.2288
H6 H 0.3518 0.6375 0.2605
C12 C 0.70427(12) 0.7500 0.53749(9)
H7 H 0.7644 0.7500 0.5802
H8 H 0.7134 0.8617 0.5032
C13 C 0.38319(13) 0.7500 0.76038(8)
H9 H 0.3345 0.8610 0.7655
H10 H 0.4408 0.7500 0.8044
C14 C 0.52627(12) 0.7500 0.38763(8)
B1 B 0.25039(13) 0.7500 0.59224(9)
F1G F 0.20098(5) 0.91146(10) 0.62882(4)
H3G H 0.0033 0.8619 0.5440
H6G H 0.3518 0.8625 0.2605
H8G H 0.7134 0.6383 0.5032
H9G H 0.3345 0.6390 0.7655
H11? H 0.5168 0.6363 0.3529
H12? H 0.5757 0.8637 0.3929
H13? H 0.6052 0.7500 0.4129
H14? H 0.4874 0.7500 0.3330
loop_
_geom_bond_atom_site_label_1
_geom_bond_atom_site_label_2
_geom_bond_site_symmetry_1
_geom_bond_site_symmetry_2
F1 B1 1_555 1_555
N1 C1 1_555 1_555
N2 C6 1_555 1_555
C1 C2 1_555 1_555
C2 H1 1_555 1_555
C3 C2 1_555 1_555
C4 N1 1_555 1_555
C5 C4 1_555 1_555
C6 C5 1_555 1_555
C7 C6 1_555 1_555
C8 C7 1_555 1_555
H2 C8 1_555 1_555
C9 N2 1_555 1_555
C10 C1 1_555 1_555
H3 C10 1_555 1_555
H4 C10 1_555 1_555
C11 C3 1_555 1_555
H5 C11 1_555 1_555
H6 C11 1_555 1_555
C12 C7 1_555 1_555
H7 C12 1_555 1_555
H8 C12 1_555 1_555
C13 C9 1_555 1_555
H9 C13 1_555 1_555
H10 C13 1_555 1_555
C14 C5 1_555 1_555
B1 N1 1_555 1_555
F1G B1 1_555 1_555
H3G C10 1_555 1_555
H6G C11 1_555 1_555
H8G C12 1_555 1_555
H9G C13 1_555 1_555
N2 B1 1_555 1_555
C3 C4 1_555 1_555
C8 C9 1_555 1_555

#END
