
#######################################################################
#
#                 Cambridge Crystallographic Data Centre
#                                CCDC 
#
#######################################################################
#
# If this CIF has been generated from an entry in the Cambridge 
# Structural Database, then it will include bibliographic, chemical, 
# crystal, experimental, refinement or atomic coordinate data resulting 
# from the CCDC's data processing and validation procedures.
#
#######################################################################

data_JEHLOA01
_chemical_formula_moiety         'C36 H28 N2 S1'
_chemical_name_systematic        
4,7-bis(9,9-dimethyl-9H-fluoren-2-yl)-2,1,3-benzothiadiazole
_symmetry_cell_setting           triclinic
_symmetry_space_group_name_H-M   'P -1'
_symmetry_Int_Tables_number      2
_space_group_name_Hall           '-P 1'
loop_
_symmetry_equiv_pos_site_id
_symmetry_equiv_pos_as_xyz
1 x,y,z
2 -x,-y,-z
_cell_length_a                   8.940(2)
_cell_length_b                   11.936(3)
_cell_length_c                   13.729(4)
_cell_angle_alpha                107.836(6)
_cell_angle_beta                 93.220(3)
_cell_angle_gamma                102.212(3)
_cell_volume                     1351.45
_exptl_crystal_colour            yellow
_exptl_crystal_description       plate
_cell_formula_units_Z            2
loop_
_atom_site_label
_atom_site_type_symbol
_atom_site_fract_x
_atom_site_fract_y
_atom_site_fract_z
S1 S 0.30408(6) 0.52525(5) 0.51921(4)
N1 N 0.39539(18) 0.59709(14) 0.44990(12)
N2 N 0.17056(18) 0.59618(14) 0.54840(12)
C1 C 0.5056(2) 0.78304(16) 0.34266(13)
C2 C 0.5619(2) 0.68311(15) 0.29000(13)
H1 H 0.5085 0.6051 0.2846
C3 C 0.6964(2) 0.70043(15) 0.24615(12)
C4 C 0.7786(2) 0.60611(15) 0.18788(13)
C5 C 0.9244(2) 0.68660(16) 0.17030(13)
C6 C 1.0510(2) 0.65383(18) 0.12630(15)
H2 H 1.0541 0.5727 0.1015
C7 C 1.1730(2) 0.7438(2) 0.11978(16)
H3 H 1.2591 0.7227 0.0912
C8 C 1.1682(2) 0.86470(19) 0.15535(15)
H4 H 1.2501 0.9237 0.1491
C9 C 1.0429(2) 0.89862(16) 0.20008(14)
H5 H 1.0403 0.9799 0.2248
C10 C 0.9208(2) 0.80859(15) 0.20728(12)
C11 C 0.7787(2) 0.81743(15) 0.25406(12)
C12 C 0.7234(2) 0.91717(16) 0.30519(14)
H6 H 0.7763 0.9950 0.3098
C13 C 0.5889(2) 0.89896(16) 0.34901(14)
H7 H 0.5525 0.9658 0.3838
C14 C 0.8153(3) 0.5279(2) 0.25154(19)
H8 H 0.8785 0.5789 0.3149
H9 H 0.8694 0.4711 0.2131
H10 H 0.7209 0.4847 0.2666
C15 C 0.6815(3) 0.52543(19) 0.08486(16)
H11 H 0.5885 0.4781 0.0978
H12 H 0.7396 0.4723 0.0457
H13 H 0.6558 0.5754 0.0466
C16 C 0.3643(2) 0.77094(15) 0.39424(13)
C17 C 0.32166(19) 0.68341(15) 0.44619(13)
C18 C 0.19154(19) 0.68307(15) 0.50317(12)
C19 C 0.09758(19) 0.76782(15) 0.50870(12)
C20 C 0.1402(2) 0.84647(17) 0.45486(13)
H14 H 0.0808 0.9016 0.4543
C21 C 0.2692(2) 0.84834(17) 0.40029(14)
H15 H 0.2909 0.9054 0.3665
C22 C -0.03552(18) 0.77249(15) 0.56828(12)
C23 C -0.1631(2) 0.80608(16) 0.53207(13)
H16 H -0.1647 0.8207 0.4693
C24 C -0.2863(2) 0.81801(17) 0.58717(14)
H17 H -0.3700 0.8405 0.5620
C25 C -0.28391(19) 0.79610(15) 0.68039(13)
C26 C -0.3923(2) 0.80826(16) 0.75685(15)
C27 C -0.5300(2) 0.8446(2) 0.75744(19)
H18 H -0.5716 0.8599 0.7005
C28 C -0.6039(3) 0.8576(3) 0.8446(2)
H19 H -0.6955 0.8828 0.8467
C29 C -0.5434(3) 0.8336(3) 0.9283(2)
H20 H -0.5948 0.8433 0.9863
C30 C -0.4067(3) 0.7951(2) 0.92788(19)
H21 H -0.3669 0.7783 0.9845
C31 C -0.3315(2) 0.78227(17) 0.84099(15)
C32 C -0.1819(2) 0.74292(17) 0.82145(14)
C33 C -0.15862(19) 0.76092(15) 0.71762(12)
C34 C -0.03582(19) 0.74817(15) 0.66207(13)
H22 H 0.0464 0.7236 0.6866
C35 C -0.2037(3) 0.6082(2) 0.8111(2)
H23 H -0.2256 0.5971 0.8757
H24 H -0.1110 0.5831 0.7928
H25 H -0.2881 0.5604 0.7585
C36 C -0.0483(3) 0.8206(3) 0.90571(16)
H26 H -0.0307 0.9036 0.9081
H27 H 0.0434 0.7923 0.8907
H28 H -0.0737 0.8146 0.9712
loop_
_geom_bond_atom_site_label_1
_geom_bond_atom_site_label_2
_geom_bond_site_symmetry_1
_geom_bond_site_symmetry_2
S1 N1 1_555 1_555
N1 C17 1_555 1_555
N2 S1 1_555 1_555
C1 C2 1_555 1_555
C2 H1 1_555 1_555
C3 C2 1_555 1_555
C4 C3 1_555 1_555
C5 C4 1_555 1_555
C6 C5 1_555 1_555
H2 C6 1_555 1_555
C7 C6 1_555 1_555
H3 C7 1_555 1_555
C8 C7 1_555 1_555
H4 C8 1_555 1_555
C9 C8 1_555 1_555
H5 C9 1_555 1_555
C10 C5 1_555 1_555
C11 C3 1_555 1_555
C12 C11 1_555 1_555
H6 C12 1_555 1_555
C13 C1 1_555 1_555
H7 C13 1_555 1_555
C14 C4 1_555 1_555
H8 C14 1_555 1_555
H9 C14 1_555 1_555
H10 C14 1_555 1_555
C15 C4 1_555 1_555
H11 C15 1_555 1_555
H12 C15 1_555 1_555
H13 C15 1_555 1_555
C16 C1 1_555 1_555
C17 C16 1_555 1_555
C18 N2 1_555 1_555
C19 C18 1_555 1_555
C20 C19 1_555 1_555
H14 C20 1_555 1_555
C21 C16 1_555 1_555
H15 C21 1_555 1_555
C22 C19 1_555 1_555
C23 C22 1_555 1_555
H16 C23 1_555 1_555
C24 C23 1_555 1_555
H17 C24 1_555 1_555
C25 C24 1_555 1_555
C26 C25 1_555 1_555
C27 C26 1_555 1_555
H18 C27 1_555 1_555
C28 C27 1_555 1_555
H19 C28 1_555 1_555
C29 C28 1_555 1_555
H20 C29 1_555 1_555
C30 C29 1_555 1_555
H21 C30 1_555 1_555
C31 C26 1_555 1_555
C32 C31 1_555 1_555
C33 C25 1_555 1_555
C34 C22 1_555 1_555
H22 C34 1_555 1_555
C35 C32 1_555 1_555
H23 C35 1_555 1_555
H24 C35 1_555 1_555
H25 C35 1_555 1_555
C36 C32 1_555 1_555
H26 C36 1_555 1_555
H27 C36 1_555 1_555
H28 C36 1_555 1_555
C9 C10 1_555 1_555
C10 C11 1_555 1_555
C12 C13 1_555 1_555
C17 C18 1_555 1_555
C20 C21 1_555 1_555
C30 C31 1_555 1_555
C32 C33 1_555 1_555
C33 C34 1_555 1_555

#END
