
#######################################################################
#
#                 Cambridge Crystallographic Data Centre
#                                CCDC 
#
#######################################################################
#
# If this CIF has been generated from an entry in the Cambridge 
# Structural Database, then it will include bibliographic, chemical, 
# crystal, experimental, refinement or atomic coordinate data resulting 
# from the CCDC's data processing and validation procedures.
#
#######################################################################

data_JEHPUI
_chemical_formula_moiety         'C13 H11 Br1 F1 N1 O2'
_chemical_name_systematic        
'(R)-(5-Bromo-7-fluoro-1,2,3,4-tetrahydrocyclopenta(b)indol-3-yl)acetic acid'
_symmetry_cell_setting           monoclinic
_symmetry_space_group_name_H-M   'P 21'
_symmetry_Int_Tables_number      4
_space_group_name_Hall           'P 2yb'
loop_
_symmetry_equiv_pos_site_id
_symmetry_equiv_pos_as_xyz
1 x,y,z
2 -x,1/2+y,-z
_cell_length_a                   7.992(3)
_cell_length_b                   9.877(3)
_cell_length_c                   16.286(5)
_cell_angle_alpha                90
_cell_angle_beta                 103.693(5)
_cell_angle_gamma                90
_cell_volume                     1249.03
_cell_formula_units_Z            4
loop_
_atom_site_label
_atom_site_type_symbol
_atom_site_fract_x
_atom_site_fract_y
_atom_site_fract_z
Br1 Br 0.04161(8) 0.17143(6) 0.84559(4)
F1 F 0.1733(5) 0.0271(4) 1.1613(2)
O1 O 0.1799(8) 0.8456(5) 0.7957(4)
H1 H 0.0921 0.8298 0.7593
O2 O 0.2064(7) 0.6259(4) 0.8167(3)
N1 N 0.2274(5) 0.4361(4) 0.9441(3)
H2 H 0.2012 0.4442 0.8900
C1 C 0.2196(7) 0.7384(8) 0.8459(4)
C2 C 0.2724(8) 0.7738(6) 0.9361(4)
H3 H 0.1694 0.7898 0.9563
H4 H 0.3359 0.8583 0.9413
C3 C 0.3822(6) 0.6698(6) 0.9936(3)
H5 H 0.4904 0.6577 0.9761
C4 C 0.4241(8) 0.7133(7) 1.0883(4)
H6 H 0.5340 0.7599 1.1027
H7 H 0.3361 0.7748 1.0980
C5 C 0.4309(7) 0.5857(7) 1.1441(4)
H8 H 0.5485 0.5562 1.1667
H9 H 0.3759 0.6016 1.1903
C6 C 0.3324(6) 0.4851(5) 1.0826(3)
C7 C 0.3055(6) 0.5325(5) 1.0022(4)
C8 C 0.1995(6) 0.3240(5) 0.9904(3)
C9 C 0.1265(6) 0.2002(5) 0.9626(3)
C10 C 0.1183(7) 0.1001(6) 1.0202(3)
H10 H 0.0707 0.0159 1.0029
C11 C 0.1838(8) 0.1294(6) 1.1056(4)
C12 C 0.2527(7) 0.2488(9) 1.1366(4)
H11 H 0.2913 0.2628 1.1944
C13 C 0.2644(6) 0.3517(5) 1.0782(3)
Br2 Br 0.74977(7) 1.22990(6) 0.64222(3)
F2 F 0.4484(6) 1.3717(4) 0.3359(2)
N2 N 0.7900(5) 0.9627(4) 0.5296(3)
H12 H 0.8405 0.9554 0.5823
O3 O 0.9826(7) 0.5602(5) 0.6709(3)
H13 H 1.0598 0.5809 0.7119
O4 O 1.0063(7) 0.7754(5) 0.6415(3)
C14 C 0.9505(8) 0.6617(8) 0.6187(4)
C15 C 0.8438(8) 0.6283(6) 0.5357(4)
H14 H 0.7245 0.6243 0.5393
H15 H 0.8757 0.5389 0.5199
C16 C 0.8584(7) 0.7286(6) 0.4658(4)
H16 H 0.9804 0.7391 0.4658
C17 C 0.7595(8) 0.6815(7) 0.3765(4)
H17 H 0.6609 0.6269 0.3805
H18 H 0.8341 0.6275 0.3504
C18 C 0.6991(8) 0.8104(7) 0.3226(4)
H19 H 0.7802 0.8366 0.2897
H20 H 0.5857 0.7985 0.2855
C19 C 0.6965(7) 0.9109(5) 0.3927(3)
C20 C 0.7830(7) 0.8642(5) 0.4688(3)
C21 C 0.7024(6) 1.0744(5) 0.4916(3)
C22 C 0.6725(6) 1.1982(5) 0.5250(3)
C23 C 0.5877(7) 1.2982(6) 0.4728(3)
H21 H 0.5673 1.3820 0.4945
C24 C 0.5327(7) 1.2714(6) 0.3865(4)
C25 C 0.5553(7) 1.1491(8) 0.3507(3)
H22 H 0.5142 1.1341 0.2931
C26 C 0.6427(6) 1.0475(5) 0.4041(3)
loop_
_geom_bond_atom_site_label_1
_geom_bond_atom_site_label_2
_geom_bond_site_symmetry_1
_geom_bond_site_symmetry_2
Br1 C9 1_555 1_555
F1 C11 1_555 1_555
O1 H1 1_555 1_555
O2 C1 1_555 1_555
N1 H2 1_555 1_555
C1 O1 1_555 1_555
C2 C1 1_555 1_555
H3 C2 1_555 1_555
H4 C2 1_555 1_555
C3 C2 1_555 1_555
H5 C3 1_555 1_555
C4 C3 1_555 1_555
H6 C4 1_555 1_555
H7 C4 1_555 1_555
C5 C4 1_555 1_555
H8 C5 1_555 1_555
H9 C5 1_555 1_555
C6 C5 1_555 1_555
C7 N1 1_555 1_555
C8 N1 1_555 1_555
C9 C8 1_555 1_555
C10 C9 1_555 1_555
H10 C10 1_555 1_555
C11 C10 1_555 1_555
C12 C11 1_555 1_555
H11 C12 1_555 1_555
C13 C6 1_555 1_555
Br2 C22 1_555 1_555
F2 C24 1_555 1_555
N2 H12 1_555 1_555
O3 H13 1_555 1_555
O4 C14 1_555 1_555
C14 O3 1_555 1_555
C15 C14 1_555 1_555
H14 C15 1_555 1_555
H15 C15 1_555 1_555
C16 C15 1_555 1_555
H16 C16 1_555 1_555
C17 C16 1_555 1_555
H17 C17 1_555 1_555
H18 C17 1_555 1_555
C18 C17 1_555 1_555
H19 C18 1_555 1_555
H20 C18 1_555 1_555
C19 C18 1_555 1_555
C20 N2 1_555 1_555
C21 N2 1_555 1_555
C22 C21 1_555 1_555
C23 C22 1_555 1_555
H21 C23 1_555 1_555
C24 C23 1_555 1_555
C25 C24 1_555 1_555
H22 C25 1_555 1_555
C26 C19 1_555 1_555
C3 C7 1_555 1_555
C6 C7 1_555 1_555
C8 C13 1_555 1_555
C12 C13 1_555 1_555
C16 C20 1_555 1_555
C19 C20 1_555 1_555
C21 C26 1_555 1_555
C25 C26 1_555 1_555

#END
