
#######################################################################
#
#                 Cambridge Crystallographic Data Centre
#                                CCDC 
#
#######################################################################
#
# If this CIF has been generated from an entry in the Cambridge 
# Structural Database, then it will include bibliographic, chemical, 
# crystal, experimental, refinement or atomic coordinate data resulting 
# from the CCDC's data processing and validation procedures.
#
#######################################################################

data_JEHXUP01
_chemical_formula_moiety         'C48 H40 N2 P6,C1 H2 Cl2'
_chemical_name_systematic        
'2,2,4,4,6,6,8,8-octaphenyl-1,5,2,3,4,6,7,8-diazahexaphosphocane-2,4,6,8-tetraium-1,3,5,7-tetraide dichloromethane solvate'
_symmetry_cell_setting           monoclinic
_symmetry_space_group_name_H-M   'P 2/n'
_symmetry_Int_Tables_number      13
_space_group_name_Hall           '-P 2yac'
loop_
_symmetry_equiv_pos_site_id
_symmetry_equiv_pos_as_xyz
1 x,y,z
2 1/2-x,y,1/2-z
3 -x,-y,-z
4 1/2+x,-y,1/2+z
_cell_length_a                   12.153(2)
_cell_length_b                   9.3574(16)
_cell_length_c                   20.114(3)
_cell_angle_alpha                90
_cell_angle_beta                 90.115(2)
_cell_angle_gamma                90
_cell_volume                     2287.37
_exptl_crystal_colour            yellow
_exptl_crystal_description       prism
_cell_formula_units_Z            2
loop_
_atom_site_label
_atom_site_type_symbol
_atom_site_fract_x
_atom_site_fract_y
_atom_site_fract_z
C1 C 0.97645(13) 0.39277(18) 0.13804(8)
C2 C 1.08216(15) 0.3389(2) 0.12927(9)
H1 H 1.0965 0.2406 0.1375
C3 C 1.16654(16) 0.4276(3) 0.10865(11)
H2 H 1.2384 0.3900 0.1022
C4 C 1.14613(18) 0.5710(3) 0.09741(11)
H3 H 1.2042 0.6322 0.0838
C5 C 1.04230(19) 0.6249(2) 0.10588(12)
H4 H 1.0287 0.7235 0.0982
C6 C 0.95675(16) 0.5359(2) 0.12573(10)
H5 H 0.8846 0.5735 0.1308
C7 C 0.85891(13) 0.13284(18) 0.10846(8)
C8 C 0.8795(2) 0.1586(2) 0.04189(10)
H6 H 0.9036 0.2504 0.0279
C9 C 0.8650(2) 0.0505(3) -0.00427(11)
H7 H 0.8794 0.0685 -0.0499
C10 C 0.83006(19) -0.0825(3) 0.01516(11)
H8 H 0.8209 -0.1563 -0.0168
C11 C 0.80847(19) -0.1084(2) 0.08078(11)
H9 H 0.7834 -0.2000 0.0944
C12 C 0.82310(18) -0.0013(2) 0.12742(9)
H10 H 0.8084 -0.0201 0.1729
C13 C 0.57560(15) 0.2911(2) 0.09677(8)
C14 C 0.61319(19) 0.3629(3) 0.04106(10)
H11 H 0.6700 0.4321 0.0452
C15 C 0.5678(2) 0.3339(4) -0.02076(11)
H12 H 0.5932 0.3842 -0.0588
C16 C 0.4869(2) 0.2334(4) -0.02741(12)
H13 H 0.4564 0.2138 -0.0700
C17 C 0.4499(3) 0.1611(3) 0.02714(13)
H14 H 0.3940 0.0909 0.0224
C18 C 0.4941(2) 0.1900(3) 0.08978(11)
H15 H 0.4678 0.1400 0.1277
C19 C 0.57102(13) 0.51182(17) 0.19472(8)
C20 C 0.63548(15) 0.63355(18) 0.19972(8)
H16 H 0.7129 0.6266 0.1939
C21 C 0.58812(17) 0.7656(2) 0.21310(10)
H17 H 0.6331 0.8482 0.2169
C22 C 0.47588(18) 0.7764(2) 0.22090(10)
H18 H 0.4433 0.8664 0.2304
C23 C 0.41082(17) 0.6562(2) 0.21486(11)
H19 H 0.3333 0.6644 0.2193
C24 C 0.45746(15) 0.5235(2) 0.20241(10)
H20 H 0.4122 0.4410 0.1991
N1 N 0.76137(11) 0.37760(14) 0.16823(7)
P1 P 0.86765(3) 0.27746(4) 0.16863(2)
P2 P 0.91822(4) 0.17297(4) 0.25820(2)
P3 P 0.63363(3) 0.34004(4) 0.17703(2)
C1A C 0.52355(13) 0.39277(18) 0.36196(8)
C2A C 0.41784(15) 0.3389(2) 0.37073(9)
H1A H 0.4035 0.2406 0.3625
C3A C 0.33346(16) 0.4276(3) 0.39135(11)
H2A H 0.2616 0.3900 0.3978
C4A C 0.35387(18) 0.5710(3) 0.40259(11)
H3A H 0.2958 0.6322 0.4162
C5A C 0.45770(19) 0.6249(2) 0.39412(12)
H4A H 0.4713 0.7235 0.4018
C6A C 0.54325(16) 0.5359(2) 0.37427(10)
H5A H 0.6154 0.5735 0.3692
C7A C 0.64109(13) 0.13284(18) 0.39154(8)
C8A C 0.6205(2) 0.1586(2) 0.45811(10)
H6A H 0.5964 0.2504 0.4721
C9A C 0.6350(2) 0.0505(3) 0.50427(11)
H7A H 0.6206 0.0685 0.5499
C10A C 0.66994(19) -0.0825(3) 0.48484(11)
H8A H 0.6791 -0.1563 0.5168
C11A C 0.69153(19) -0.1084(2) 0.41922(11)
H9A H 0.7166 -0.2000 0.4056
C12A C 0.67690(18) -0.0013(2) 0.37258(9)
H10A H 0.6916 -0.0201 0.3271
C13A C 0.92440(15) 0.2911(2) 0.40323(8)
C14A C 0.88681(19) 0.3629(3) 0.45894(10)
H11A H 0.8300 0.4321 0.4548
C15A C 0.9322(2) 0.3339(4) 0.52076(11)
H12A H 0.9068 0.3842 0.5588
C16A C 1.0131(2) 0.2334(4) 0.52741(12)
H13A H 1.0436 0.2138 0.5700
C17A C 1.0501(3) 0.1611(3) 0.47286(13)
H14A H 1.1060 0.0909 0.4776
C18A C 1.0059(2) 0.1900(3) 0.41022(11)
H15A H 1.0322 0.1400 0.3723
C19A C 0.92898(13) 0.51182(17) 0.30528(8)
C20A C 0.86452(15) 0.63355(18) 0.30028(8)
H16A H 0.7871 0.6266 0.3061
C21A C 0.91188(17) 0.7656(2) 0.28690(10)
H17A H 0.8669 0.8482 0.2831
C22A C 1.02412(18) 0.7764(2) 0.27910(10)
H18A H 1.0567 0.8664 0.2696
C23A C 1.08918(17) 0.6562(2) 0.28514(11)
H19A H 1.1667 0.6644 0.2807
C24A C 1.04254(15) 0.5235(2) 0.29759(10)
H20A H 1.0878 0.4410 0.3009
N1A N 0.73863(11) 0.37760(14) 0.33177(7)
P1A P 0.63235(3) 0.27746(4) 0.33137(2)
P2A P 0.58178(4) 0.17297(4) 0.24180(2)
P3A P 0.86637(3) 0.34004(4) 0.32297(2)
C25 C 1.2500 0.1159(4) 0.2500
H21 H 1.1843 0.1781 0.2531
Cl1 Cl 1.24055(5) 0.01093(7) 0.17793(3)
H21A H 1.3157 0.1781 0.2469
Cl1A Cl 1.25945(5) 0.01093(7) 0.32207(3)
H22? H 1.1843 0.1781 0.2531
loop_
_geom_bond_atom_site_label_1
_geom_bond_atom_site_label_2
_geom_bond_site_symmetry_1
_geom_bond_site_symmetry_2
C1 C2 1_555 1_555
C2 H1 1_555 1_555
C3 C2 1_555 1_555
H2 C3 1_555 1_555
C4 C3 1_555 1_555
H3 C4 1_555 1_555
C5 C4 1_555 1_555
H4 C5 1_555 1_555
C6 C1 1_555 1_555
H5 C6 1_555 1_555
C7 C8 1_555 1_555
C8 H6 1_555 1_555
C9 C8 1_555 1_555
H7 C9 1_555 1_555
C10 C9 1_555 1_555
H8 C10 1_555 1_555
C11 C10 1_555 1_555
H9 C11 1_555 1_555
C12 C7 1_555 1_555
H10 C12 1_555 1_555
C13 C14 1_555 1_555
C14 H11 1_555 1_555
C15 C14 1_555 1_555
H12 C15 1_555 1_555
C16 C15 1_555 1_555
H13 C16 1_555 1_555
C17 C16 1_555 1_555
H14 C17 1_555 1_555
C18 C13 1_555 1_555
H15 C18 1_555 1_555
C19 C20 1_555 1_555
C20 H16 1_555 1_555
C21 C20 1_555 1_555
H17 C21 1_555 1_555
C22 C21 1_555 1_555
H18 C22 1_555 1_555
C23 C22 1_555 1_555
H19 C23 1_555 1_555
C24 C19 1_555 1_555
H20 C24 1_555 1_555
N1 P1 1_555 1_555
P1 C1 1_555 1_555
P2 P1 1_555 1_555
P3 C13 1_555 1_555
C25 H21 1_555 1_555
Cl1 C25 1_555 1_555
C1A C2A 1_555 1_555
C2A H1A 1_555 1_555
C3A C2A 1_555 1_555
H2A C3A 1_555 1_555
C4A C3A 1_555 1_555
H3A C4A 1_555 1_555
C5A C4A 1_555 1_555
H4A C5A 1_555 1_555
C6A C1A 1_555 1_555
H5A C6A 1_555 1_555
C7A C8A 1_555 1_555
C8A H6A 1_555 1_555
C9A C8A 1_555 1_555
H7A C9A 1_555 1_555
C10A C9A 1_555 1_555
H8A C10A 1_555 1_555
C11A C10A 1_555 1_555
H9A C11A 1_555 1_555
C12A C7A 1_555 1_555
H10A C12A 1_555 1_555
C13A C14A 1_555 1_555
C14A H11A 1_555 1_555
C15A C14A 1_555 1_555
H12A C15A 1_555 1_555
C16A C15A 1_555 1_555
H13A C16A 1_555 1_555
C17A C16A 1_555 1_555
H14A C17A 1_555 1_555
C18A C13A 1_555 1_555
H15A C18A 1_555 1_555
C19A C20A 1_555 1_555
C20A H16A 1_555 1_555
C21A C20A 1_555 1_555
H17A C21A 1_555 1_555
C22A C21A 1_555 1_555
H18A C22A 1_555 1_555
C23A C22A 1_555 1_555
H19A C23A 1_555 1_555
C24A C19A 1_555 1_555
H20A C24A 1_555 1_555
N1A P1A 1_555 1_555
P1A C1A 1_555 1_555
P2A P3 1_555 1_555
P3A P2 1_555 1_555
H21A C25 1_555 1_555
Cl1A C25 1_555 1_555
C5 C6 1_555 1_555
C7 P1 1_555 1_555
C11 C12 1_555 1_555
C17 C18 1_555 1_555
C19 P3 1_555 1_555
C23 C24 1_555 1_555
N1 P3 1_555 1_555
C5A C6A 1_555 1_555
C7A P1A 1_555 1_555
C11A C12A 1_555 1_555
C13A P3A 1_555 1_555
C17A C18A 1_555 1_555
C19A P3A 1_555 1_555
C23A C24A 1_555 1_555
N1A P3A 1_555 1_555
P1A P2A 1_555 1_555

#END
