
#######################################################################
#
#                 Cambridge Crystallographic Data Centre
#                                CCDC 
#
#######################################################################
#
# If this CIF has been generated from an entry in the Cambridge 
# Structural Database, then it will include bibliographic, chemical, 
# crystal, experimental, refinement or atomic coordinate data resulting 
# from the CCDC's data processing and validation procedures.
#
#######################################################################

data_JEJFIQ
_chemical_formula_moiety         'C124 H168'
_chemical_name_systematic        
1^9^,1^9^,4^9^,4^9^,7^9^,7^9^,10^9^,10^9^-octa-n-octyl-1,4,7,10(2,7)-tetrafluorenadodecacyclophane-2,5,8,11-tetraene
_symmetry_cell_setting           monoclinic
_symmetry_space_group_name_H-M   'P 21/c'
_symmetry_Int_Tables_number      14
_space_group_name_Hall           '-P 2ybc'
loop_
_symmetry_equiv_pos_site_id
_symmetry_equiv_pos_as_xyz
1 x,y,z
2 -x,1/2+y,1/2-z
3 -x,-y,-z
4 x,1/2-y,1/2+z
_cell_length_a                   26.301(2)
_cell_length_b                   18.6381(15)
_cell_length_c                   22.7995(16)
_cell_angle_alpha                90
_cell_angle_beta                 107.972(5)
_cell_angle_gamma                90
_cell_volume                     10631
_exptl_crystal_colour            yellow
_exptl_crystal_description       prism
_cell_formula_units_Z            4
loop_
_atom_site_label
_atom_site_type_symbol
_atom_site_fract_x
_atom_site_fract_y
_atom_site_fract_z
C1 C 0.3609(3) 0.8293(3) 0.2199(3)
C2 C 0.3933(3) 0.8921(3) 0.2068(3)
H1 H 0.3804 0.9369 0.2208
H2 H 0.4311 0.8856 0.2320
C3 C 0.3915(3) 0.9020(3) 0.1400(3)
H3 H 0.4019 0.8564 0.1247
H4 H 0.3543 0.9129 0.1149
C4 C 0.4278(3) 0.9615(3) 0.1309(3)
H5 H 0.4209 1.0051 0.1522
H6 H 0.4653 0.9471 0.1514
C5 C 0.4220(3) 0.9809(3) 0.0651(3)
H7 H 0.3842 0.9937 0.0445
H8 H 0.4437 1.0244 0.0653
C6 C 0.4378(3) 0.9248(4) 0.0271(3)
H9 H 0.4169 0.8808 0.0275
H10 H 0.4760 0.9130 0.0466
C7 C 0.4297(3) 0.9462(4) -0.0397(4)
H11 H 0.3912 0.9566 -0.0592
H12 H 0.4494 0.9915 -0.0397
C8 C 0.4465(3) 0.8934(4) -0.0794(4)
H13 H 0.4852 0.8842 -0.0609
H14 H 0.4276 0.8476 -0.0787
C9 C 0.4367(4) 0.9145(5) -0.1435(4)
H15 H 0.4488 0.8762 -0.1655
H16 H 0.4564 0.9587 -0.1452
H17 H 0.3984 0.9226 -0.1629
C10 C 0.3621(3) 0.8295(3) 0.2869(3)
H18 H 0.3998 0.8251 0.3130
H19 H 0.3490 0.8767 0.2960
C11 C 0.3305(3) 0.7726(4) 0.3063(3)
H20 H 0.3447 0.7251 0.2997
H21 H 0.2930 0.7753 0.2794
C12 C 0.3314(3) 0.7779(4) 0.3727(3)
H22 H 0.3689 0.7734 0.3996
H23 H 0.3186 0.8261 0.3797
C13 C 0.2987(3) 0.7232(4) 0.3915(3)
H24 H 0.3104 0.6750 0.3827
H25 H 0.2609 0.7292 0.3660
C14 C 0.3019(4) 0.7267(4) 0.4594(4)
H26 H 0.3399 0.7233 0.4846
H27 H 0.2884 0.7739 0.4679
C15 C 0.2607(10) 0.6799(12) 0.4743(9)
H28 H 0.2607 0.6902 0.5169
H29 H 0.2249 0.6919 0.4460
C16 C 0.2711(9) 0.6014(10) 0.4687(7)
H30 H 0.2582 0.5881 0.4245
H31 H 0.3102 0.5934 0.4833
C17 C 0.2458(10) 0.5520(11) 0.5035(10)
H32 H 0.2584 0.5029 0.5014
H33 H 0.2068 0.5536 0.4852
H34 H 0.2554 0.5673 0.5467
C18 C 0.3767(3) 0.7576(3) 0.2005(3)
C19 C 0.4261(3) 0.7270(3) 0.2218(3)
H35 H 0.4540 0.7517 0.2514
C20 C 0.4363(3) 0.6578(4) 0.2000(3)
C21 C 0.3934(3) 0.6251(3) 0.1548(3)
H36 H 0.3989 0.5798 0.1386
C22 C 0.3443(3) 0.6566(3) 0.1337(3)
H37 H 0.3162 0.6333 0.1031
C23 C 0.3352(3) 0.7225(3) 0.1568(3)
C24 C 0.4912(3) 0.6303(4) 0.2234(3)
H38 H 0.5161 0.6641 0.2472
C25 C 0.5129(3) 0.5662(4) 0.2176(3)
H39 H 0.5509 0.5653 0.2323
C26 C 0.4883(3) 0.4981(3) 0.1928(3)
C27 C 0.5080(3) 0.4573(4) 0.1534(3)
H40 H 0.5366 0.4763 0.1409
C28 C 0.4880(3) 0.3908(4) 0.1316(3)
H41 H 0.5023 0.3648 0.1045
C29 C 0.4465(3) 0.3624(3) 0.1499(3)
C30 C 0.4260(3) 0.4013(3) 0.1900(3)
C31 C 0.4460(3) 0.4685(3) 0.2108(3)
H42 H 0.4312 0.4948 0.2372
C32 C 0.3793(3) 0.3625(3) 0.2008(3)
C33 C 0.3270(3) 0.4049(3) 0.1739(3)
H43 H 0.2976 0.3780 0.1825
H44 H 0.3305 0.4515 0.1957
C34 C 0.3119(3) 0.4190(4) 0.1064(4)
H45 H 0.3035 0.3728 0.0841
H46 H 0.3430 0.4402 0.0969
C35 C 0.2642(3) 0.4692(4) 0.0829(4)
H47 H 0.2339 0.4499 0.0953
H48 H 0.2736 0.5167 0.1028
C36 C 0.2466(3) 0.4786(4) 0.0142(4)
H49 H 0.2364 0.4313 -0.0056
H50 H 0.2770 0.4970 0.0017
C37 C 0.2002(4) 0.5292(4) -0.0088(4)
H51 H 0.1712 0.5139 0.0077
H52 H 0.2116 0.5779 0.0074
C38 C 0.1787(4) 0.5327(5) -0.0775(4)
H53 H 0.1688 0.4835 -0.0934
H54 H 0.1455 0.5617 -0.0889
C39 C 0.2143(4) 0.5624(5) -0.1082(5)
H55 H 0.2479 0.5344 -0.0961
H56 H 0.2233 0.6122 -0.0935
C40 C 0.1921(5) 0.5634(5) -0.1789(5)
H57 H 0.2187 0.5845 -0.1959
H58 H 0.1594 0.5922 -0.1917
H59 H 0.1841 0.5143 -0.1943
C41 C 0.3885(3) 0.3503(3) 0.2699(4)
H60 H 0.3915 0.3977 0.2903
H61 H 0.3566 0.3261 0.2749
C42 C 0.4376(3) 0.3062(4) 0.3034(3)
H62 H 0.4698 0.3311 0.2999
H63 H 0.4354 0.2592 0.2824
C43 C 0.4446(3) 0.2929(4) 0.3715(4)
H64 H 0.4518 0.3391 0.3940
H65 H 0.4111 0.2729 0.3758
C44 C 0.4902(3) 0.2413(4) 0.3999(3)
H66 H 0.4841 0.1970 0.3748
H67 H 0.5238 0.2632 0.3975
C45 C 0.4976(4) 0.2211(4) 0.4662(4)
H68 H 0.5033 0.2653 0.4914
H69 H 0.4644 0.1981 0.4687
C46 C 0.5437(4) 0.1709(5) 0.4929(4)
H70 H 0.5754 0.1910 0.4839
H71 H 0.5517 0.1712 0.5383
C47 C 0.5380(4) 0.0950(5) 0.4722(4)
H72 H 0.5301 0.0940 0.4268
H73 H 0.5068 0.0740 0.4817
C48 C 0.5860(4) 0.0483(5) 0.5007(4)
H74 H 0.5789 -0.0004 0.4840
H75 H 0.5933 0.0469 0.5455
H76 H 0.6171 0.0680 0.4911
C49 C 0.3791(3) 0.2932(3) 0.1653(3)
C50 C 0.4176(3) 0.2945(3) 0.1344(3)
C51 C 0.4217(3) 0.2378(4) 0.0973(4)
H77 H 0.4485 0.2379 0.0772
C52 C 0.3870(3) 0.1814(4) 0.0896(4)
H78 H 0.3895 0.1429 0.0633
C53 C 0.3478(3) 0.1790(4) 0.1194(4)
C54 C 0.3452(3) 0.2358(4) 0.1585(4)
H79 H 0.3197 0.2346 0.1804
C55 C 0.3122(4) 0.1176(4) 0.1083(5)
H80 H 0.3265 0.0749 0.0968
C56 C 0.2623(4) 0.1115(4) 0.1116(5)
H81 H 0.2479 0.0643 0.1056
C57 C 0.2255(3) 0.1680(4) 0.1232(5)
C58 C 0.1944(3) 0.1511(4) 0.1630(4)
H82 H 0.1957 0.1047 0.1807
C59 C 0.1628(3) 0.2039(4) 0.1747(4)
C60 C 0.1618(3) 0.2735(4) 0.1514(3)
C61 C 0.1914(3) 0.2899(4) 0.1104(4)
H83 H 0.1893 0.3362 0.0924
C62 C 0.2232(3) 0.2371(4) 0.0973(4)
H84 H 0.2437 0.2475 0.0706
C63 C 0.1245(3) 0.1987(3) 0.2131(4)
C64 C 0.1509(4) 0.1736(4) 0.2803(5)
H85 H 0.1228 0.1720 0.3007
H86 H 0.1635 0.1238 0.2789
C65 C 0.1977(4) 0.2171(5) 0.3215(5)
H87 H 0.1867 0.2668 0.3270
H88 H 0.2280 0.2184 0.3044
C66 C 0.2122(5) 0.1745(8) 0.3828(6)
H89 H 0.2153 0.1229 0.3743
H90 H 0.1833 0.1801 0.4019
C67 C 0.2700(5) 0.2036(8) 0.4319(6)
H91 H 0.2667 0.2551 0.4407
H92 H 0.2776 0.1770 0.4713
C68 C 0.3167(5) 0.1934(7) 0.4057(6)
H93 H 0.3481 0.2195 0.4326
H94 H 0.3070 0.2164 0.3646
C69 C 0.3340(7) 0.1147(9) 0.3989(7)
H95 H 0.3690 0.1117 0.4315
H96 H 0.3092 0.0869 0.4151
C70 C 0.3420(8) 0.0646(11) 0.3500(8)
H97 H 0.3771 0.0401 0.3648
H98 H 0.3133 0.0282 0.3378
C71 C 0.3398(9) 0.1145(11) 0.2971(9)
H99 H 0.3451 0.0870 0.2629
H100 H 0.3679 0.1508 0.3107
H101 H 0.3048 0.1382 0.2834
C72 C 0.0779(4) 0.1458(4) 0.1816(5)
H102 H 0.0929 0.0968 0.1835
H103 H 0.0525 0.1456 0.2059
C73 C 0.0467(4) 0.1624(5) 0.1144(5)
H104 H 0.0737 0.1628 0.0923
H105 H 0.0346 0.2127 0.1145
C74 C -0.0056(7) 0.1185(7) 0.0683(7)
H106 H -0.0364 0.1516 0.0546
H107 H 0.0031 0.1020 0.0312
C75 C -0.0170(6) 0.0709(9) 0.0918(7)
H108 H -0.0271 0.0874 0.1280
H109 H 0.0140 0.0383 0.1066
C76 C -0.0671(6) 0.0276(8) 0.0446(5)
H110 H -0.0974 0.0615 0.0305
H111 H -0.0566 0.0141 0.0080
C77 C -0.0856(5) -0.0340(8) 0.0661(6)
H112 H -0.0526 -0.0601 0.0887
H113 H -0.1005 -0.0160 0.0982
C78 C -0.1208(5) -0.0878(8) 0.0367(5)
H114 H -0.1039 -0.1106 0.0082
H115 H -0.1526 -0.0622 0.0102
C79 C -0.1422(5) -0.1473(7) 0.0637(6)
H116 H -0.1646 -0.1776 0.0306
H117 H -0.1637 -0.1283 0.0884
H118 H -0.1126 -0.1758 0.0900
C80 C 0.1035(3) 0.2758(3) 0.2090(3)
C81 C 0.1251(3) 0.3190(4) 0.1727(3)
C82 C 0.1113(3) 0.3903(3) 0.1637(3)
H119 H 0.1263 0.4196 0.1392
C83 C 0.0760(3) 0.4181(3) 0.1902(3)
H120 H 0.0661 0.4672 0.1835
C84 C 0.0537(3) 0.3767(3) 0.2273(3)
C85 C 0.0687(3) 0.3040(3) 0.2367(3)
H121 H 0.0547 0.2747 0.2622
C86 C 0.0138(3) 0.4030(3) 0.2558(3)
H122 H 0.0005 0.3671 0.2767
C87 C -0.0068(3) 0.4677(3) 0.2575(3)
H123 H -0.0325 0.4696 0.2790
C88 C 0.0030(3) 0.5384(3) 0.2315(3)
C89 C -0.0372(3) 0.5703(4) 0.1845(3)
H124 H -0.0705 0.5466 0.1684
C90 C -0.0295(3) 0.6361(4) 0.1606(3)
H125 H -0.0573 0.6574 0.1283
C91 C 0.0189(3) 0.6703(3) 0.1842(3)
C92 C 0.0601(3) 0.6410(3) 0.2333(3)
C93 C 0.0526(3) 0.5739(3) 0.2572(3)
H126 H 0.0801 0.5528 0.2898
C94 C 0.1098(2) 0.6895(3) 0.2523(3)
C95 C 0.1603(2) 0.6531(3) 0.2469(3)
H127 H 0.1881 0.6903 0.2515
H128 H 0.1734 0.6194 0.2820
C96 C 0.1547(3) 0.6123(3) 0.1881(3)
H129 H 0.1343 0.6418 0.1525
H130 H 0.1341 0.5678 0.1880
C97 C 0.2092(3) 0.5926(4) 0.1806(3)
H131 H 0.2030 0.5585 0.1458
H132 H 0.2249 0.6366 0.1690
C98 C 0.2490(3) 0.5605(4) 0.2355(4)
H133 H 0.2826 0.5527 0.2254
H134 H 0.2567 0.5961 0.2694
C99 C 0.2348(4) 0.4944(5) 0.2582(5)
H135 H 0.2294 0.4572 0.2258
H136 H 0.2005 0.5007 0.2669
C100 C 0.2770(5) 0.4685(6) 0.3164(6)
H137 H 0.3079 0.4517 0.3041
H138 H 0.2892 0.5110 0.3431
C101 C 0.2662(6) 0.4188(9) 0.3505(6)
H139 H 0.2574 0.3744 0.3255
H140 H 0.2338 0.4333 0.3608
C102 C 0.3142(5) 0.3993(5) 0.4161(5)
H141 H 0.3025 0.3593 0.4368
H142 H 0.3212 0.4414 0.4432
H143 H 0.3469 0.3858 0.4069
C103 C 0.1212(3) 0.7170(3) 0.3189(3)
H144 H 0.1276 0.6745 0.3463
H145 H 0.1550 0.7444 0.3296
C104 C 0.0812(3) 0.7623(3) 0.3347(3)
H146 H 0.0464 0.7373 0.3216
H147 H 0.0771 0.8075 0.3109
C105 C 0.0947(3) 0.7810(3) 0.4032(3)
H148 H 0.0964 0.7359 0.4266
H149 H 0.1308 0.8029 0.4170
C106 C 0.0570(3) 0.8305(3) 0.4198(3)
H150 H 0.0202 0.8117 0.4017
H151 H 0.0586 0.8778 0.4005
C107 C 0.0670(4) 0.8418(4) 0.4884(3)
H152 H 0.1031 0.8628 0.5066
H153 H 0.0666 0.7947 0.5083
C108 C 0.0254(5) 0.8915(5) 0.5029(4)
H154 H 0.0399 0.9080 0.5461
H155 H 0.0205 0.9344 0.4761
C109 C -0.0278(5) 0.8585(5) 0.4944(4)
H156 H -0.0238 0.8189 0.5243
H157 H -0.0410 0.8377 0.4524
C110 C -0.0701(4) 0.9126(6) 0.5030(4)
H158 H -0.1041 0.8877 0.4971
H159 H -0.0751 0.9514 0.4727
H160 H -0.0576 0.9329 0.5447
C111 C 0.0377(3) 0.7378(3) 0.1667(3)
C112 C 0.0123(3) 0.7873(4) 0.1221(3)
H161 H -0.0236 0.7799 0.0972
C113 C 0.0401(3) 0.8476(3) 0.1145(3)
H162 H 0.0227 0.8824 0.0847
C114 C 0.0941(3) 0.8585(3) 0.1502(3)
C115 C 0.1192(3) 0.8079(3) 0.1963(3)
H163 H 0.1552 0.8145 0.2212
C116 C 0.0907(3) 0.7493(3) 0.2047(3)
C117 C 0.1222(3) 0.9240(3) 0.1402(3)
H164 H 0.1020 0.9672 0.1347
C118 C 0.1711(3) 0.9305(4) 0.1380(3)
H165 H 0.1821 0.9783 0.1338
C119 C 0.2126(3) 0.8735(3) 0.1410(3)
C120 C 0.1976(3) 0.8100(3) 0.1057(3)
H166 H 0.1616 0.8028 0.0809
C121 C 0.2360(3) 0.7586(3) 0.1077(3)
H167 H 0.2264 0.7162 0.0837
C122 C 0.2893(3) 0.7686(3) 0.1454(3)
C123 C 0.3033(3) 0.8308(3) 0.1799(3)
C124 C 0.2661(3) 0.8826(4) 0.1771(3)
H168 H 0.2765 0.9257 0.2000
C125? C 0.2915(13) 0.6576(13) 0.4909(11)
H169? H 0.2939 0.6677 0.5343
H170? H 0.3188 0.6211 0.4907
C126? C 0.2355(12) 0.6290(13) 0.4558(9)
H171? H 0.2085 0.6658 0.4565
H172? H 0.2332 0.6204 0.4122
C127? C 0.2228(12) 0.5622(14) 0.4824(13)
H173? H 0.1889 0.5430 0.4557
H174? H 0.2198 0.5719 0.5234
H175? H 0.2513 0.5271 0.4858
C128? C 0.2300(8) 0.2091(10) 0.3910(7)
H176? H 0.2068 0.1983 0.4168
H177? H 0.2524 0.2516 0.4075
C129? C 0.2643(7) 0.1416(8) 0.3829(7)
H178? H 0.2754 0.1145 0.4222
H179? H 0.2411 0.1097 0.3510
C130? C 0.3158(9) 0.1599(13) 0.3641(12)
H180? H 0.3332 0.2003 0.3911
H181? H 0.3023 0.1801 0.3219
C131? C 0.3632(6) 0.1078(8) 0.3627(6)
H182? H 0.3792 0.0862 0.4040
H183? H 0.3913 0.1354 0.3521
C132? C 0.3401(7) 0.0442(9) 0.3113(8)
H184? H 0.3689 0.0096 0.3122
H185? H 0.3108 0.0179 0.3208
C133? C 0.3209(10) 0.0760(13) 0.2525(9)
H186? H 0.3063 0.0388 0.2215
H187? H 0.3502 0.1008 0.2430
H188? H 0.2927 0.1106 0.2521
loop_
_geom_bond_atom_site_label_1
_geom_bond_atom_site_label_2
_geom_bond_site_symmetry_1
_geom_bond_site_symmetry_2
C1 C2 1_555 1_555
C2 H1 1_555 1_555
H2 C2 1_555 1_555
C3 C2 1_555 1_555
H3 C3 1_555 1_555
H4 C3 1_555 1_555
C4 C3 1_555 1_555
H5 C4 1_555 1_555
H6 C4 1_555 1_555
C5 C4 1_555 1_555
H7 C5 1_555 1_555
H8 C5 1_555 1_555
C6 C5 1_555 1_555
H9 C6 1_555 1_555
H10 C6 1_555 1_555
C7 C6 1_555 1_555
H11 C7 1_555 1_555
H12 C7 1_555 1_555
C8 C7 1_555 1_555
H13 C8 1_555 1_555
H14 C8 1_555 1_555
C9 C8 1_555 1_555
H15 C9 1_555 1_555
H16 C9 1_555 1_555
H17 C9 1_555 1_555
C10 C1 1_555 1_555
H18 C10 1_555 1_555
H19 C10 1_555 1_555
C11 C10 1_555 1_555
H20 C11 1_555 1_555
H21 C11 1_555 1_555
C12 C11 1_555 1_555
H22 C12 1_555 1_555
H23 C12 1_555 1_555
C13 C12 1_555 1_555
H24 C13 1_555 1_555
H25 C13 1_555 1_555
C14 C13 1_555 1_555
H26 C14 1_555 1_555
H27 C14 1_555 1_555
C15 C14 1_555 1_555
H28 C15 1_555 1_555
H29 C15 1_555 1_555
C16 C15 1_555 1_555
H30 C16 1_555 1_555
H31 C16 1_555 1_555
C17 C16 1_555 1_555
H32 C17 1_555 1_555
H33 C17 1_555 1_555
H34 C17 1_555 1_555
C18 C1 1_555 1_555
C19 C18 1_555 1_555
H35 C19 1_555 1_555
C20 C19 1_555 1_555
C21 C20 1_555 1_555
H36 C21 1_555 1_555
C22 C21 1_555 1_555
H37 C22 1_555 1_555
C23 C18 1_555 1_555
C24 C20 1_555 1_555
H38 C24 1_555 1_555
C25 C24 1_555 1_555
H39 C25 1_555 1_555
C26 C25 1_555 1_555
C27 C26 1_555 1_555
H40 C27 1_555 1_555
C28 C27 1_555 1_555
H41 C28 1_555 1_555
C29 C28 1_555 1_555
C30 C29 1_555 1_555
C31 C26 1_555 1_555
H42 C31 1_555 1_555
C32 C30 1_555 1_555
C33 C32 1_555 1_555
H43 C33 1_555 1_555
H44 C33 1_555 1_555
C34 C33 1_555 1_555
H45 C34 1_555 1_555
H46 C34 1_555 1_555
C35 C34 1_555 1_555
H47 C35 1_555 1_555
H48 C35 1_555 1_555
C36 C35 1_555 1_555
H49 C36 1_555 1_555
H50 C36 1_555 1_555
C37 C36 1_555 1_555
H51 C37 1_555 1_555
H52 C37 1_555 1_555
C38 C37 1_555 1_555
H53 C38 1_555 1_555
H54 C38 1_555 1_555
C39 C38 1_555 1_555
H55 C39 1_555 1_555
H56 C39 1_555 1_555
C40 C39 1_555 1_555
H57 C40 1_555 1_555
H58 C40 1_555 1_555
H59 C40 1_555 1_555
C41 C32 1_555 1_555
H60 C41 1_555 1_555
H61 C41 1_555 1_555
C42 C41 1_555 1_555
H62 C42 1_555 1_555
H63 C42 1_555 1_555
C43 C42 1_555 1_555
H64 C43 1_555 1_555
H65 C43 1_555 1_555
C44 C43 1_555 1_555
H66 C44 1_555 1_555
H67 C44 1_555 1_555
C45 C44 1_555 1_555
H68 C45 1_555 1_555
H69 C45 1_555 1_555
C46 C45 1_555 1_555
H70 C46 1_555 1_555
H71 C46 1_555 1_555
C47 C46 1_555 1_555
H72 C47 1_555 1_555
H73 C47 1_555 1_555
C48 C47 1_555 1_555
H74 C48 1_555 1_555
H75 C48 1_555 1_555
H76 C48 1_555 1_555
C49 C32 1_555 1_555
C50 C29 1_555 1_555
C51 C50 1_555 1_555
H77 C51 1_555 1_555
C52 C51 1_555 1_555
H78 C52 1_555 1_555
C53 C52 1_555 1_555
C54 C49 1_555 1_555
H79 C54 1_555 1_555
C55 C53 1_555 1_555
H80 C55 1_555 1_555
C56 C55 1_555 1_555
H81 C56 1_555 1_555
C57 C56 1_555 1_555
C58 C57 1_555 1_555
H82 C58 1_555 1_555
C59 C58 1_555 1_555
C60 C59 1_555 1_555
C61 C60 1_555 1_555
H83 C61 1_555 1_555
C62 C57 1_555 1_555
H84 C62 1_555 1_555
C63 C59 1_555 1_555
C64 C63 1_555 1_555
H85 C64 1_555 1_555
H86 C64 1_555 1_555
C65 C64 1_555 1_555
H87 C65 1_555 1_555
H88 C65 1_555 1_555
C66 C65 1_555 1_555
H89 C66 1_555 1_555
H90 C66 1_555 1_555
C67 C66 1_555 1_555
H91 C67 1_555 1_555
H92 C67 1_555 1_555
C68 C67 1_555 1_555
H93 C68 1_555 1_555
H94 C68 1_555 1_555
C69 C68 1_555 1_555
H95 C69 1_555 1_555
H96 C69 1_555 1_555
C70 C69 1_555 1_555
H97 C70 1_555 1_555
H98 C70 1_555 1_555
C71 C70 1_555 1_555
H99 C71 1_555 1_555
H100 C71 1_555 1_555
H101 C71 1_555 1_555
C72 C63 1_555 1_555
H102 C72 1_555 1_555
H103 C72 1_555 1_555
C73 C72 1_555 1_555
H104 C73 1_555 1_555
H105 C73 1_555 1_555
C74 C73 1_555 1_555
H106 C74 1_555 1_555
H107 C74 1_555 1_555
C75 C74 1_555 1_555
H108 C75 1_555 1_555
H109 C75 1_555 1_555
C76 C75 1_555 1_555
H110 C76 1_555 1_555
H111 C76 1_555 1_555
C77 C76 1_555 1_555
H112 C77 1_555 1_555
H113 C77 1_555 1_555
C78 C77 1_555 1_555
H114 C78 1_555 1_555
H115 C78 1_555 1_555
C79 C78 1_555 1_555
H116 C79 1_555 1_555
H117 C79 1_555 1_555
H118 C79 1_555 1_555
C80 C63 1_555 1_555
C81 C60 1_555 1_555
C82 C81 1_555 1_555
H119 C82 1_555 1_555
C83 C82 1_555 1_555
H120 C83 1_555 1_555
C84 C83 1_555 1_555
C85 C80 1_555 1_555
H121 C85 1_555 1_555
C86 C84 1_555 1_555
H122 C86 1_555 1_555
C87 C86 1_555 1_555
H123 C87 1_555 1_555
C88 C87 1_555 1_555
C89 C88 1_555 1_555
H124 C89 1_555 1_555
C90 C89 1_555 1_555
H125 C90 1_555 1_555
C91 C90 1_555 1_555
C92 C91 1_555 1_555
C93 C88 1_555 1_555
H126 C93 1_555 1_555
C94 C92 1_555 1_555
C95 C94 1_555 1_555
H127 C95 1_555 1_555
H128 C95 1_555 1_555
C96 C95 1_555 1_555
H129 C96 1_555 1_555
H130 C96 1_555 1_555
C97 C96 1_555 1_555
H131 C97 1_555 1_555
H132 C97 1_555 1_555
C98 C97 1_555 1_555
H133 C98 1_555 1_555
H134 C98 1_555 1_555
C99 C98 1_555 1_555
H135 C99 1_555 1_555
H136 C99 1_555 1_555
C100 C99 1_555 1_555
H137 C100 1_555 1_555
H138 C100 1_555 1_555
C101 C100 1_555 1_555
H139 C101 1_555 1_555
H140 C101 1_555 1_555
C102 C101 1_555 1_555
H141 C102 1_555 1_555
H142 C102 1_555 1_555
H143 C102 1_555 1_555
C103 C94 1_555 1_555
H144 C103 1_555 1_555
H145 C103 1_555 1_555
C104 C103 1_555 1_555
H146 C104 1_555 1_555
H147 C104 1_555 1_555
C105 C104 1_555 1_555
H148 C105 1_555 1_555
H149 C105 1_555 1_555
C106 C105 1_555 1_555
H150 C106 1_555 1_555
H151 C106 1_555 1_555
C107 C106 1_555 1_555
H152 C107 1_555 1_555
H153 C107 1_555 1_555
C108 C107 1_555 1_555
H154 C108 1_555 1_555
H155 C108 1_555 1_555
C109 C108 1_555 1_555
H156 C109 1_555 1_555
H157 C109 1_555 1_555
C110 C109 1_555 1_555
H158 C110 1_555 1_555
H159 C110 1_555 1_555
H160 C110 1_555 1_555
C111 C91 1_555 1_555
C112 C111 1_555 1_555
H161 C112 1_555 1_555
C113 C112 1_555 1_555
H162 C113 1_555 1_555
C114 C113 1_555 1_555
C115 C114 1_555 1_555
H163 C115 1_555 1_555
C116 C94 1_555 1_555
C117 C114 1_555 1_555
H164 C117 1_555 1_555
C118 C117 1_555 1_555
H165 C118 1_555 1_555
C119 C118 1_555 1_555
C120 C119 1_555 1_555
H166 C120 1_555 1_555
C121 C120 1_555 1_555
H167 C121 1_555 1_555
C122 C23 1_555 1_555
C123 C1 1_555 1_555
C124 C119 1_555 1_555
H168 C124 1_555 1_555
C22 C23 1_555 1_555
C30 C31 1_555 1_555
C49 C50 1_555 1_555
C53 C54 1_555 1_555
C61 C62 1_555 1_555
C80 C81 1_555 1_555
C84 C85 1_555 1_555
C92 C93 1_555 1_555
C111 C116 1_555 1_555
C115 C116 1_555 1_555
C121 C122 1_555 1_555
C122 C123 1_555 1_555
C123 C124 1_555 1_555

#END
