
#######################################################################
#
#                 Cambridge Crystallographic Data Centre
#                                CCDC 
#
#######################################################################
#
# If this CIF has been generated from an entry in the Cambridge 
# Structural Database, then it will include bibliographic, chemical, 
# crystal, experimental, refinement or atomic coordinate data resulting 
# from the CCDC's data processing and validation procedures.
#
#######################################################################

data_JEJHAK
_chemical_formula_moiety         'C11 H9 F3 O3'
_chemical_name_systematic        
'4-(2-(trifluoromethyl)oxetan-2-yl)benzoic acid'
_symmetry_cell_setting           monoclinic
_symmetry_space_group_name_H-M   'P 21/c'
_symmetry_Int_Tables_number      14
_space_group_name_Hall           '-P 2ybc'
loop_
_symmetry_equiv_pos_site_id
_symmetry_equiv_pos_as_xyz
1 x,y,z
2 -x,1/2+y,1/2-z
3 -x,-y,-z
4 x,1/2-y,1/2+z
_cell_length_a                   21.8847(17)
_cell_length_b                   5.5241(5)
_cell_length_c                   19.1875(14)
_cell_angle_alpha                90
_cell_angle_beta                 115.838(4)
_cell_angle_gamma                90
_cell_volume                     2087.75
_exptl_crystal_colour            colorless
_exptl_crystal_description       prism
_cell_formula_units_Z            8
_exptl_crystal_recrystallization_method 'ethyl acetate/heptane'
loop_
_atom_site_label
_atom_site_type_symbol
_atom_site_fract_x
_atom_site_fract_y
_atom_site_fract_z
F1 F 0.26113(12) 0.2305(5) 1.04894(13)
F2 F 0.27432(12) 0.4218(5) 0.95859(15)
F3 F 0.23648(12) 0.0570(5) 0.94002(14)
O1 O 0.12288(14) 0.2031(5) 0.96692(17)
O2 O -0.00150(14) 0.3240(6) 0.56860(17)
O3 O 0.06196(15) 0.6549(6) 0.58374(17)
H1 H 0.040(2) 0.661(8) 0.5262(11)
C1 C 0.1533(2) 0.5747(8) 0.9913(3)
H2 H 0.1964 0.6280 1.0344
H3 H 0.1264 0.7138 0.9608
C2 C 0.1129(2) 0.3918(8) 1.0144(3)
H4 H 0.1343 0.3536 1.0704
H5 H 0.0647 0.4377 0.9968
C3 C 0.1612(2) 0.3665(7) 0.9422(2)
C4 C 0.2334(2) 0.2683(8) 0.9725(2)
C5 C 0.12967(19) 0.3986(8) 0.8555(2)
C6 C 0.0844(2) 0.2269(8) 0.8092(2)
H6 H 0.0732 0.0922 0.8321
C7 C 0.05537(19) 0.2503(8) 0.7293(3)
H7 H 0.0244 0.1315 0.6974
C8 C 0.07188(19) 0.4502(7) 0.6959(2)
C9 C 0.1170(2) 0.6231(8) 0.7430(2)
H8 H 0.1281 0.7591 0.7204
C10 C 0.1456(2) 0.5983(8) 0.8218(2)
H9 H 0.1764 0.7174 0.8538
C11 C 0.04094(19) 0.4710(7) 0.6107(2)
F4 F 0.23311(13) 0.3181(5) 0.28927(15)
F5 F 0.22673(13) 0.5166(6) 0.18968(15)
F6 F 0.25469(14) 0.1388(5) 0.20292(17)
O4 O 0.36991(15) 0.2434(6) 0.34391(18)
O5 O 0.49833(15) 0.3310(6) 0.06981(17)
O6 O 0.44124(16) 0.6739(6) 0.02397(19)
H10 H 0.465(2) 0.666(9) -0.009(2)
C12 C 0.3483(2) 0.6222(8) 0.3437(2)
H11 H 0.3785 0.7538 0.3424
H12 H 0.3066 0.6869 0.3450
C13 C 0.3835(2) 0.4265(8) 0.4025(3)
H13 H 0.4326 0.4576 0.4335
H14 H 0.3614 0.3930 0.4368
C14 C 0.3359(2) 0.4212(8) 0.2839(2)
C15 C 0.2629(2) 0.3463(9) 0.2420(3)
C16 C 0.36902(19) 0.4455(8) 0.2290(2)
C17 C 0.4133(2) 0.2679(8) 0.2275(2)
H15 H 0.4234 0.1337 0.2617
C18 C 0.4429(2) 0.2835(8) 0.1770(3)
H16 H 0.4732 0.1608 0.1767
C19 C 0.42824(19) 0.4795(8) 0.1264(2)
C20 C 0.3841(2) 0.6597(8) 0.1276(2)
H17 H 0.3737 0.7935 0.0932
C21 C 0.3550(2) 0.6436(8) 0.1796(2)
H18 H 0.3257 0.7680 0.1812
C22 C 0.45892(19) 0.4870(8) 0.0711(2)
loop_
_geom_bond_atom_site_label_1
_geom_bond_atom_site_label_2
_geom_bond_site_symmetry_1
_geom_bond_site_symmetry_2
F1 C4 1_555 1_555
F2 C4 1_555 1_555
F3 C4 1_555 1_555
O1 C2 1_555 1_555
O2 C11 1_555 1_555
O3 H1 1_555 1_555
C1 H2 1_555 1_555
H3 C1 1_555 1_555
C2 C1 1_555 1_555
H4 C2 1_555 1_555
H5 C2 1_555 1_555
C3 O1 1_555 1_555
C4 C3 1_555 1_555
C5 C3 1_555 1_555
C6 C5 1_555 1_555
H6 C6 1_555 1_555
C7 C6 1_555 1_555
H7 C7 1_555 1_555
C8 C7 1_555 1_555
C9 C8 1_555 1_555
H8 C9 1_555 1_555
C10 C5 1_555 1_555
H9 C10 1_555 1_555
C11 O3 1_555 1_555
F4 C15 1_555 1_555
F5 C15 1_555 1_555
F6 C15 1_555 1_555
O4 C13 1_555 1_555
O5 C22 1_555 1_555
O6 H10 1_555 1_555
C12 H11 1_555 1_555
H12 C12 1_555 1_555
C13 C12 1_555 1_555
H13 C13 1_555 1_555
H14 C13 1_555 1_555
C14 O4 1_555 1_555
C15 C14 1_555 1_555
C16 C14 1_555 1_555
C17 C16 1_555 1_555
H15 C17 1_555 1_555
C18 C17 1_555 1_555
H16 C18 1_555 1_555
C19 C18 1_555 1_555
C20 C19 1_555 1_555
H17 C20 1_555 1_555
C21 C16 1_555 1_555
H18 C21 1_555 1_555
C22 O6 1_555 1_555
C1 C3 1_555 1_555
C8 C11 1_555 1_555
C9 C10 1_555 1_555
C12 C14 1_555 1_555
C19 C22 1_555 1_555
C20 C21 1_555 1_555

#END
