
#######################################################################
#
#                 Cambridge Crystallographic Data Centre
#                                CCDC 
#
#######################################################################
#
# If this CIF has been generated from an entry in the Cambridge 
# Structural Database, then it will include bibliographic, chemical, 
# crystal, experimental, refinement or atomic coordinate data resulting 
# from the CCDC's data processing and validation procedures.
#
#######################################################################

data_JEJJAK
_chemical_formula_moiety         'C11 H9 Cl1 N2 O1 S1'
_chemical_name_systematic        
1-(4-Chlorophenyl)-2-(5-methyl-1,3,4-thiadiazol-2-yl)ethanone
_symmetry_cell_setting           monoclinic
_symmetry_space_group_name_H-M   'P 21/c'
_symmetry_Int_Tables_number      14
_space_group_name_Hall           '-P 2ybc'
loop_
_symmetry_equiv_pos_site_id
_symmetry_equiv_pos_as_xyz
1 x,y,z
2 -x,1/2+y,1/2-z
3 -x,-y,-z
4 x,1/2-y,1/2+z
_cell_length_a                   14.1019(17)
_cell_length_b                   14.5952(14)
_cell_length_c                   5.5101(5)
_cell_angle_alpha                90
_cell_angle_beta                 92.309(9)
_cell_angle_gamma                90
_cell_volume                     1133.17
_exptl_crystal_colour            yellow
_exptl_crystal_description       block
_chemical_melting_point          436-437K
_cell_formula_units_Z            4
_exptl_crystal_recrystallization_method ethanol
loop_
_atom_site_label
_atom_site_type_symbol
_atom_site_fract_x
_atom_site_fract_y
_atom_site_fract_z
S1 S 0.91236(10) 0.15790(11) 0.0981(2)
Cl1 Cl 1.52907(11) 0.11717(14) -0.3558(4)
N1 N 0.8775(3) 0.0742(4) -0.2952(8)
O1 O 1.1056(3) 0.1709(3) 0.1158(7)
C1 C 0.9472(4) 0.1088(3) -0.1665(8)
N2 N 0.7903(3) 0.0849(4) -0.1895(9)
C2 C 0.7986(4) 0.1279(4) 0.0163(9)
C3 C 0.7152(5) 0.1494(6) 0.1676(13)
H1 H 0.663(5) 0.106(5) 0.142(15)
H2 H 0.736(6) 0.142(5) 0.351(16)
H3 H 0.714(6) 0.213(6) 0.170(16)
C4 C 1.0458(4) 0.1045(5) -0.2528(10)
H4 H 1.046(4) 0.143(4) -0.369(12)
H5 H 1.057(6) 0.045(6) -0.317(14)
C5 C 1.1244(4) 0.1367(3) -0.0809(8)
C6 C 1.2235(3) 0.1283(3) -0.1514(8)
C7 C 1.2484(4) 0.0864(4) -0.3668(9)
H6 H 1.199(4) 0.054(3) -0.463(9)
C8 C 1.3428(4) 0.0816(4) -0.4268(10)
H7 H 1.361(4) 0.053(4) -0.571(12)
C9 C 1.4118(4) 0.1180(4) -0.2738(11)
C10 C 1.3888(4) 0.1599(4) -0.0579(11)
H8 H 1.442(5) 0.180(4) 0.051(12)
C11 C 1.2947(4) 0.1645(4) 0.0013(10)
H9 H 1.275(5) 0.198(5) 0.139(13)
loop_
_geom_bond_atom_site_label_1
_geom_bond_atom_site_label_2
_geom_bond_site_symmetry_1
_geom_bond_site_symmetry_2
S1 C1 1_555 1_555
Cl1 C9 1_555 1_555
N1 C1 1_555 1_555
O1 C5 1_555 1_555
C1 C4 1_555 1_555
N2 N1 1_555 1_555
C2 S1 1_555 1_555
C3 C2 1_555 1_555
H1 C3 1_555 1_555
H2 C3 1_555 1_555
H3 C3 1_555 1_555
C4 H4 1_555 1_555
H5 C4 1_555 1_555
C5 C4 1_555 1_555
C6 C5 1_555 1_555
C7 C6 1_555 1_555
H6 C7 1_555 1_555
C8 C7 1_555 1_555
H7 C8 1_555 1_555
C9 C8 1_555 1_555
C10 C9 1_555 1_555
H8 C10 1_555 1_555
C11 C6 1_555 1_555
H9 C11 1_555 1_555
N2 C2 1_555 1_555
C10 C11 1_555 1_555

#END
