
#######################################################################
#
#                 Cambridge Crystallographic Data Centre
#                                CCDC 
#
#######################################################################
#
# If this CIF has been generated from an entry in the Cambridge 
# Structural Database, then it will include bibliographic, chemical, 
# crystal, experimental, refinement or atomic coordinate data resulting 
# from the CCDC's data processing and validation procedures.
#
#######################################################################

data_JEJNAO
_chemical_formula_moiety         'C10 H9 N2 1+,C7 H3 N2 O6 1-,C7 H4 N2 O6'
_chemical_name_systematic        
"2,2'-Bipyridinium 3,5-dinitrobenzoate 3,5-dinitrobenzoic acid"
_symmetry_cell_setting           monoclinic
_symmetry_space_group_name_H-M   'P 21'
_symmetry_Int_Tables_number      4
_space_group_name_Hall           'P 2yb'
loop_
_symmetry_equiv_pos_site_id
_symmetry_equiv_pos_as_xyz
1 x,y,z
2 -x,1/2+y,-z
_cell_length_a                   5.6782(17)
_cell_length_b                   21.221(6)
_cell_length_c                   10.394(3)
_cell_angle_alpha                90
_cell_angle_beta                 91.946(4)
_cell_angle_gamma                90
_cell_volume                     1251.72
_exptl_crystal_colour            colorless
_exptl_crystal_description       block
_chemical_melting_point          148-149deg.C
_cell_formula_units_Z            2
loop_
_atom_site_label
_atom_site_type_symbol
_atom_site_fract_x
_atom_site_fract_y
_atom_site_fract_z
O1 O 1.0924(4) 0.11548(10) -0.0047(2)
O2 O 0.7938(4) 0.06281(9) 0.0545(2)
O3 O 0.2507(3) 0.15515(10) 0.34335(18)
O4 O 0.3399(4) 0.24226(11) 0.4389(2)
O5 O 0.9604(3) 0.37708(8) 0.25791(18)
O6 O 1.2347(3) 0.32717(8) 0.14840(16)
N1 N 0.9117(4) 0.11067(10) 0.0540(2)
N2 N 0.3740(4) 0.20217(11) 0.3591(2)
C1 C 1.0425(4) 0.32960(11) 0.2007(2)
C2 C 0.8932(3) 0.27101(10) 0.1998(2)
C3 C 0.9620(4) 0.22040(11) 0.1257(2)
H1 H 1.0919 0.2237 0.0741
C4 C 0.8342(4) 0.16495(11) 0.1298(2)
C5 C 0.6402(4) 0.15816(11) 0.2037(2)
H2 H 0.5560 0.1206 0.2053
C6 C 0.5759(4) 0.20944(11) 0.2753(2)
C7 C 0.6957(4) 0.26604(12) 0.2747(2)
H3 H 0.6455 0.3000 0.3232
O7 O 0.2314(3) 0.46824(8) 0.27107(19)
H4 H 0.1534 0.4358 0.2758
O8 O 0.4654(4) 0.42036(9) 0.4195(2)
O9 O 1.1364(4) 0.54412(12) 0.5942(3)
O10 O 1.2456(3) 0.62807(13) 0.4963(2)
O11 O 0.7050(4) 0.72568(10) 0.1901(3)
O12 O 0.3993(5) 0.67612(10) 0.1249(2)
N3 N 1.1098(4) 0.58428(14) 0.5119(2)
N4 N 0.5816(5) 0.67933(10) 0.1879(2)
C8 C 0.4150(4) 0.46425(11) 0.3481(2)
C9 C 0.5684(4) 0.52187(10) 0.3442(2)
C10 C 0.7667(4) 0.52553(12) 0.4251(2)
H5 H 0.8089 0.4921 0.4789
C11 C 0.9001(4) 0.57956(12) 0.4243(2)
C12 C 0.8486(4) 0.62991(12) 0.3470(2)
H6 H 0.9431 0.6657 0.3478
C13 C 0.6506(4) 0.62529(11) 0.2681(2)
C14 C 0.5104(4) 0.57202(11) 0.2644(2)
H7 H 0.3786 0.5700 0.2089
N5 N 0.4005(3) 0.39997(9) 0.95989(18)
H8 H 0.3089 0.3747 0.9992
N6 N 0.0165(3) 0.34673(9) 0.8564(2)
C15 C 0.5790(4) 0.42613(12) 1.0275(2)
H9 H 0.6038 0.4161 1.1141
C16 C 0.7256(5) 0.46776(13) 0.9692(3)
H10 H 0.8497 0.4867 1.0152
C17 C 0.6847(5) 0.48079(13) 0.8408(3)
H11 H 0.7820 0.5090 0.7995
C18 C 0.5016(5) 0.45256(13) 0.7731(3)
H12 H 0.4757 0.4616 0.6862
C19 C 0.3553(4) 0.41065(11) 0.8343(2)
C20 C 0.1543(4) 0.37661(12) 0.7738(2)
C21 C 0.1155(5) 0.37444(15) 0.6430(3)
H13 H 0.2166 0.3949 0.5882
C22 C -0.0762(6) 0.34143(17) 0.5944(3)
H14 H -0.1088 0.3399 0.5061
C23 C -0.2174(6) 0.31104(15) 0.6777(3)
H15 H -0.3476 0.2883 0.6471
C24 C -0.1650(5) 0.31444(13) 0.8075(3)
H16 H -0.2612 0.2931 0.8636
loop_
_geom_bond_atom_site_label_1
_geom_bond_atom_site_label_2
_geom_bond_site_symmetry_1
_geom_bond_site_symmetry_2
O1 N1 1_555 1_555
O2 N1 1_555 1_555
O3 N2 1_555 1_555
O4 N2 1_555 1_555
O5 C1 1_555 1_555
O6 C1 1_555 1_555
N1 C4 1_555 1_555
N2 C6 1_555 1_555
C1 C2 1_555 1_555
C2 C3 1_555 1_555
C3 H1 1_555 1_555
C4 C3 1_555 1_555
C5 C4 1_555 1_555
H2 C5 1_555 1_555
C6 C5 1_555 1_555
C7 C2 1_555 1_555
H3 C7 1_555 1_555
O7 H4 1_555 1_555
O8 C8 1_555 1_555
O9 N3 1_555 1_555
O10 N3 1_555 1_555
O11 N4 1_555 1_555
O12 N4 1_555 1_555
N3 C11 1_555 1_555
N4 C13 1_555 1_555
C8 O7 1_555 1_555
C9 C8 1_555 1_555
C10 C9 1_555 1_555
H5 C10 1_555 1_555
C11 C10 1_555 1_555
C12 C11 1_555 1_555
H6 C12 1_555 1_555
C13 C12 1_555 1_555
C14 C9 1_555 1_555
H7 C14 1_555 1_555
N5 H8 1_555 1_555
N6 C20 1_555 1_555
C15 N5 1_555 1_555
H9 C15 1_555 1_555
C16 C15 1_555 1_555
H10 C16 1_555 1_555
C17 C16 1_555 1_555
H11 C17 1_555 1_555
C18 C17 1_555 1_555
H12 C18 1_555 1_555
C19 N5 1_555 1_555
C20 C19 1_555 1_555
C21 C20 1_555 1_555
H13 C21 1_555 1_555
C22 C21 1_555 1_555
H14 C22 1_555 1_555
C23 C22 1_555 1_555
H15 C23 1_555 1_555
C24 N6 1_555 1_555
H16 C24 1_555 1_555
C6 C7 1_555 1_555
C13 C14 1_555 1_555
C18 C19 1_555 1_555
C23 C24 1_555 1_555

#END
