
#######################################################################
#
#                 Cambridge Crystallographic Data Centre
#                                CCDC 
#
#######################################################################
#
# If this CIF has been generated from an entry in the Cambridge 
# Structural Database, then it will include bibliographic, chemical, 
# crystal, experimental, refinement or atomic coordinate data resulting 
# from the CCDC's data processing and validation procedures.
#
#######################################################################

data_JEJTEY
_chemical_formula_moiety         'H12 Mg1 O6 2+,2(C19 H17 O7 S1 1-),8(H2 O1)'
_chemical_name_systematic        
"Hexaaqua-magnesium bis(4',7-diethoxylisoflavone-3'-sulfonate) octahydrate"
_symmetry_cell_setting           triclinic
_symmetry_space_group_name_H-M   'P -1'
_symmetry_Int_Tables_number      2
_space_group_name_Hall           '-P 1'
loop_
_symmetry_equiv_pos_site_id
_symmetry_equiv_pos_as_xyz
1 x,y,z
2 -x,-y,-z
_cell_length_a                   9.036(3)
_cell_length_b                   16.442(6)
_cell_length_c                   18.212(7)
_cell_angle_alpha                72.379(6)
_cell_angle_beta                 87.346(6)
_cell_angle_gamma                82.888(6)
_cell_volume                     2558.85
_exptl_crystal_colour            colorless
_exptl_crystal_description       prismatic
_cell_formula_units_Z            2
_exptl_crystal_recrystallization_method ethanol/water
loop_
_atom_site_label
_atom_site_type_symbol
_atom_site_fract_x
_atom_site_fract_y
_atom_site_fract_z
Mg1 Mg 0.9976(2) 0.24585(14) 0.49937(12)
O1 O 1.1981(4) 0.1929(3) 0.5524(3)
O2 O 1.0017(4) 0.3598(3) 0.5251(2)
O3 O 0.8861(5) 0.1932(3) 0.5991(2)
O4 O 0.7967(4) 0.2988(3) 0.4468(3)
O5 O 0.9918(4) 0.1327(3) 0.4738(3)
O6 O 1.1118(5) 0.3017(3) 0.3999(2)
H1 H 1.099(6) 0.348(2) 0.358(2)
H2 H 1.277(4) 0.221(3) 0.553(3)
H3 H 0.964(5) 0.369(4) 0.569(2)
H4 H 0.916(4) 0.100(3) 0.489(3)
H5 H 0.908(6) 0.1396(14) 0.630(3)
H6 H 0.778(6) 0.3551(9) 0.423(3)
H7 H 1.194(4) 0.268(3) 0.393(3)
H8 H 1.220(5) 0.1367(10) 0.577(3)
H9 H 0.724(4) 0.269(2) 0.442(3)
H10 H 1.041(5) 0.122(4) 0.433(2)
H11 H 0.814(4) 0.221(3) 0.620(3)
H12 H 1.081(4) 0.388(3) 0.509(3)
O7 O 0.9623(5) 0.3161(3) 1.0596(2)
O8 O 0.9666(5) 0.4671(3) 0.8367(2)
O9 O 1.3970(5) 0.4260(3) 1.1128(3)
O10 O 0.3938(4) 0.3340(3) 0.7473(2)
O11 O 0.6530(4) 0.2893(3) 0.6518(2)
O12 O 0.5681(4) 0.4418(3) 0.6218(2)
O13 O 0.8276(4) 0.3901(3) 0.6504(2)
S1 S 0.67275(17) 0.37102(11) 0.66380(9)
C1 C 0.8596(7) 0.3144(4) 1.0094(4)
H13 H 0.7879 0.2768 1.0272
C2 C 0.8524(7) 0.3631(4) 0.9347(4)
C3 C 0.9659(7) 0.4192(4) 0.9034(4)
C4 C 1.0780(7) 0.4197(4) 0.9587(4)
C5 C 1.1926(7) 0.4692(4) 0.9372(4)
H14 H 1.2002 0.5027 0.8862
C6 C 1.2976(7) 0.4704(4) 0.9896(4)
H15 H 1.3736 0.5054 0.9738
C7 C 1.2898(7) 0.4190(4) 1.0666(4)
C8 C 1.1769(7) 0.3667(4) 1.0895(4)
H16 H 1.1700 0.3317 1.1401
C9 C 1.0734(7) 0.3682(4) 1.0341(4)
C10 C 0.7299(6) 0.3562(4) 0.8855(3)
C11 C 0.7523(6) 0.3636(3) 0.8081(3)
H17 H 0.8461 0.3730 0.7863
C12 C 0.6385(6) 0.3572(3) 0.7625(3)
C13 C 0.4998(6) 0.3397(4) 0.7960(4)
C14 C 0.4758(7) 0.3305(4) 0.8732(4)
H18 H 0.3837 0.3176 0.8957
C15 C 0.5891(7) 0.3403(4) 0.9171(4)
H19 H 0.5710 0.3363 0.9687
C16 C 1.3828(7) 0.3877(4) 1.1939(4)
H20 H 1.3913 0.3256 1.2060
H21 H 1.2862 0.4073 1.2118
C17 C 1.5042(7) 0.4131(4) 1.2323(4)
H22 H 1.4966 0.3879 1.2871
H23 H 1.4947 0.4745 1.2202
H24 H 1.5993 0.3931 1.2144
C18 C 0.2502(6) 0.3112(4) 0.7772(4)
H25 H 0.1974 0.3562 0.7959
H26 H 0.2607 0.2582 0.8194
C19 C 0.1668(6) 0.3002(4) 0.7126(4)
H27 H 0.0700 0.2841 0.7306
H28 H 0.2209 0.2562 0.6941
H29 H 0.1560 0.3533 0.6715
O14 O 0.7276(5) 0.0615(3) 0.5012(3)
H30 H 0.711(6) 0.020(2) 0.5453(19)
H31 H 0.646(4) 0.101(2) 0.491(3)
O15 O 0.7270(5) 0.4758(3) 0.3877(3)
H32 H 0.649(4) 0.514(3) 0.366(3)
H33 H 0.795(4) 0.471(4) 0.351(2)
O16 O 0.5526(4) 0.2145(3) 0.4386(3)
H34 H 0.482(4) 0.214(4) 0.405(2)
H35 H 0.509(5) 0.230(4) 0.478(2)
O17 O 0.8617(5) 0.0451(3) 0.0795(3)
O18 O 1.1519(6) 0.1947(3) -0.0568(3)
O19 O 0.5480(5) 0.0738(3) -0.1240(3)
O20 O 1.5683(4) 0.1624(3) 0.2358(2)
O21 O 1.4068(4) 0.0502(3) 0.3663(2)
O22 O 1.3255(4) 0.2025(3) 0.3389(2)
O23 O 1.1461(4) 0.1033(3) 0.3446(2)
S2 S 1.29981(17) 0.12194(12) 0.32695(9)
C20 C 0.9919(6) 0.0615(4) 0.1106(4)
H36 H 1.0102 0.0364 0.1629
C21 C 1.0900(7) 0.1118(5) 0.0677(4)
C22 C 1.0686(8) 0.1497(5) -0.0169(5)
C23 C 0.9349(8) 0.1273(4) -0.0467(4)
C24 C 0.8993(8) 0.1550(4) -0.1228(4)
H37 H 0.9645 0.1871 -0.1574
C25 C 0.7739(8) 0.1381(4) -0.1506(5)
H38 H 0.7548 0.1583 -0.2032
C26 C 0.6735(8) 0.0906(4) -0.1003(4)
C27 C 0.7020(7) 0.0590(4) -0.0219(4)
H39 H 0.6373 0.0263 0.0125
C28 C 0.8366(9) 0.0795(4) 0.0027(4)
C29 C 1.2195(7) 0.1293(4) 0.1060(4)
C30 C 1.2058(7) 0.1251(4) 0.1854(3)
H40 H 1.1146 0.1152 0.2103
C31 C 1.3233(6) 0.1352(4) 0.2265(3)
C32 C 1.4602(7) 0.1531(4) 0.1906(4)
C33 C 1.4735(7) 0.1603(4) 0.1118(4)
H41 H 1.5626 0.1737 0.0859
C34 C 1.3561(8) 0.1478(4) 0.0725(4)
H42 H 1.3697 0.1520 0.0206
C35 C 0.5183(8) 0.0986(5) -0.2074(4)
H43 H 0.5928 0.0684 -0.2328
H44 H 0.5208 0.1599 -0.2305
C36 C 0.3661(9) 0.0746(5) -0.2154(5)
H45 H 0.3425 0.0891 -0.2690
H46 H 0.2935 0.1054 -0.1905
H47 H 0.3650 0.0139 -0.1918
C37 C 1.7026(6) 0.1946(4) 0.2004(4)
H48 H 1.6791 0.2493 0.1613
H49 H 1.7560 0.1546 0.1760
C38 C 1.7960(6) 0.2054(4) 0.2607(4)
H50 H 1.8864 0.2273 0.2378
H51 H 1.8198 0.1509 0.2989
H52 H 1.7424 0.2451 0.2845
O24 O 1.2838(4) 0.0172(3) 0.6129(3)
H53 H 1.381(2) 0.002(4) 0.626(3)
H54 H 1.270(5) 0.001(4) 0.571(2)
O25 O 1.0249(6) 0.4755(3) 0.3174(3)
H55 H 0.993(6) 0.444(3) 0.3633(14)
H56 H 1.080(6) 0.515(3) 0.324(3)
O26 O 1.4273(5) 0.2887(3) 0.5488(3)
H57 H 1.499(4) 0.288(3) 0.581(3)
H58 H 1.380(5) 0.3416(15) 0.528(3)
O27 O 0.9983(5) 0.0292(3) 0.6858(3)
H59 H 1.091(2) 0.022(4) 0.667(3)
H60 H 1.001(5) 0.028(4) 0.7349(12)
O28 O 1.2537(5) 0.4468(3) 0.4974(2)
H61 H 1.283(6) 0.478(3) 0.4504(12)
H62 H 1.266(6) 0.475(3) 0.531(2)
loop_
_geom_bond_atom_site_label_1
_geom_bond_atom_site_label_2
_geom_bond_site_symmetry_1
_geom_bond_site_symmetry_2
Mg1 O1 1_555 1_555
O1 H2 1_555 1_555
O2 Mg1 1_555 1_555
O3 Mg1 1_555 1_555
O4 Mg1 1_555 1_555
O5 Mg1 1_555 1_555
O6 Mg1 1_555 1_555
H1 O6 1_555 1_555
H3 O2 1_555 1_555
H4 O5 1_555 1_555
H5 O3 1_555 1_555
H6 O4 1_555 1_555
H7 O6 1_555 1_555
H8 O1 1_555 1_555
H9 O4 1_555 1_555
H10 O5 1_555 1_555
H11 O3 1_555 1_555
H12 O2 1_555 1_555
O7 C1 1_555 1_555
O8 C3 1_555 1_555
O9 C7 1_555 1_555
O10 C13 1_555 1_555
O11 S1 1_555 1_555
O12 S1 1_555 1_555
O13 S1 1_555 1_555
S1 C12 1_555 1_555
C1 H13 1_555 1_555
C2 C1 1_555 1_555
C3 C2 1_555 1_555
C4 C3 1_555 1_555
C5 C4 1_555 1_555
H14 C5 1_555 1_555
C6 C5 1_555 1_555
H15 C6 1_555 1_555
C7 C6 1_555 1_555
C8 C7 1_555 1_555
H16 C8 1_555 1_555
C9 O7 1_555 1_555
C10 C2 1_555 1_555
C11 C10 1_555 1_555
H17 C11 1_555 1_555
C12 C11 1_555 1_555
C13 C12 1_555 1_555
C14 C13 1_555 1_555
H18 C14 1_555 1_555
C15 C10 1_555 1_555
H19 C15 1_555 1_555
C16 O9 1_555 1_555
H20 C16 1_555 1_555
H21 C16 1_555 1_555
C17 C16 1_555 1_555
H22 C17 1_555 1_555
H23 C17 1_555 1_555
H24 C17 1_555 1_555
C18 O10 1_555 1_555
H25 C18 1_555 1_555
H26 C18 1_555 1_555
C19 C18 1_555 1_555
H27 C19 1_555 1_555
H28 C19 1_555 1_555
H29 C19 1_555 1_555
O14 H30 1_555 1_555
H31 O14 1_555 1_555
O15 H32 1_555 1_555
H33 O15 1_555 1_555
O16 H34 1_555 1_555
H35 O16 1_555 1_555
O17 C20 1_555 1_555
O18 C22 1_555 1_555
O19 C26 1_555 1_555
O20 C32 1_555 1_555
O21 S2 1_555 1_555
O22 S2 1_555 1_555
O23 S2 1_555 1_555
S2 C31 1_555 1_555
C20 H36 1_555 1_555
C21 C20 1_555 1_555
C22 C21 1_555 1_555
C23 C22 1_555 1_555
C24 C23 1_555 1_555
H37 C24 1_555 1_555
C25 C24 1_555 1_555
H38 C25 1_555 1_555
C26 C25 1_555 1_555
C27 C26 1_555 1_555
H39 C27 1_555 1_555
C28 O17 1_555 1_555
C29 C21 1_555 1_555
C30 C29 1_555 1_555
H40 C30 1_555 1_555
C31 C30 1_555 1_555
C32 C31 1_555 1_555
C33 C32 1_555 1_555
H41 C33 1_555 1_555
C34 C29 1_555 1_555
H42 C34 1_555 1_555
C35 O19 1_555 1_555
H43 C35 1_555 1_555
H44 C35 1_555 1_555
C36 C35 1_555 1_555
H45 C36 1_555 1_555
H46 C36 1_555 1_555
H47 C36 1_555 1_555
C37 O20 1_555 1_555
H48 C37 1_555 1_555
H49 C37 1_555 1_555
C38 C37 1_555 1_555
H50 C38 1_555 1_555
H51 C38 1_555 1_555
H52 C38 1_555 1_555
O24 H53 1_555 1_555
H54 O24 1_555 1_555
O25 H55 1_555 1_555
H56 O25 1_555 1_555
O26 H57 1_555 1_555
H58 O26 1_555 1_555
O27 H59 1_555 1_555
H60 O27 1_555 1_555
O28 H61 1_555 1_555
H62 O28 1_555 1_555
C4 C9 1_555 1_555
C8 C9 1_555 1_555
C14 C15 1_555 1_555
C23 C28 1_555 1_555
C27 C28 1_555 1_555
C33 C34 1_555 1_555

#END
