
#######################################################################
#
#                 Cambridge Crystallographic Data Centre
#                                CCDC 
#
#######################################################################
#
# If this CIF has been generated from an entry in the Cambridge 
# Structural Database, then it will include bibliographic, chemical, 
# crystal, experimental, refinement or atomic coordinate data resulting 
# from the CCDC's data processing and validation procedures.
#
#######################################################################

data_JEJVAY
_chemical_formula_moiety         'C24 H18 Br1 Cl1 N2 O3 S1,0.5(C1 H2 Cl2)'
_chemical_name_systematic        
"4-bromo-5'-(chloromethyl)-4'-nitro-3',5'-diphenylspiro[indole-3,2'-thiolan]-2(1H)-one dichloromethane solvate"
_symmetry_cell_setting           monoclinic
_symmetry_space_group_name_H-M   'C 2'
_symmetry_Int_Tables_number      5
_space_group_name_Hall           'C 2y'
loop_
_symmetry_equiv_pos_site_id
_symmetry_equiv_pos_as_xyz
1 x,y,z
2 -x,y,-z
3 1/2+x,1/2+y,z
4 1/2-x,1/2+y,-z
_cell_length_a                   20.39(3)
_cell_length_b                   7.937(11)
_cell_length_c                   16.73(2)
_cell_angle_alpha                90
_cell_angle_beta                 116.683(15)
_cell_angle_gamma                90
_cell_volume                     2419.17
_exptl_crystal_colour            yellow
_exptl_crystal_description       block
_cell_formula_units_Z            4
loop_
_atom_site_label
_atom_site_type_symbol
_atom_site_fract_x
_atom_site_fract_y
_atom_site_fract_z
S1 S 0.23646(5) 1.72531(14) 0.24263(7)
Br1 Br 0.23301(2) 1.74226(7) 0.46034(3)
Cl1 Cl 0.38778(6) 1.90681(18) 0.37265(9)
O1 O 0.08541(14) 1.7409(5) 0.06328(18)
O2 O 0.1615(3) 2.2979(5) 0.1381(3)
O3 O 0.1908(2) 2.2720(4) 0.2779(3)
N1 N 0.04231(18) 1.5800(5) 0.1433(3)
H1 H 0.0054 1.5350 0.0992
N2 N 0.1758(2) 2.2141(5) 0.2056(4)
C1 C 0.1503(2) 1.6198(5) 0.3788(3)
C2 C 0.1182(2) 1.5092(6) 0.4139(3)
H2 H 0.1372 1.4969 0.4756
C3 C 0.0584(3) 1.4175(6) 0.3582(4)
H3 H 0.0371 1.3428 0.3826
C4 C 0.0292(3) 1.4335(6) 0.2672(4)
H4 H -0.0117 1.3712 0.2297
C5 C 0.0618(2) 1.5436(5) 0.2326(3)
C6 C 0.1231(2) 1.6378(4) 0.2872(3)
C7 C 0.14281(17) 1.7502(6) 0.2285(2)
C8 C 0.0872(2) 1.6927(5) 0.1332(3)
C9 C 0.1341(2) 1.9414(5) 0.2414(3)
H5 H 0.1615 1.9664 0.3054
C10 C 0.0542(2) 1.9919(5) 0.2116(3)
C11 C 0.0076(2) 2.0408(6) 0.1255(3)
H6 H 0.0254 2.0488 0.0832
C12 C -0.0652(3) 2.0779(7) 0.1010(4)
H7 H -0.0962 2.1093 0.0425
C13 C -0.0914(2) 2.0685(6) 0.1630(4)
H8 H -0.1402 2.0945 0.1467
C14 C -0.0464(3) 2.0214(5) 0.2483(4)
H9 H -0.0647 2.0143 0.2901
C15 C 0.0262(2) 1.9843(5) 0.2733(4)
H10 H 0.0568 1.9538 0.3321
C16 C 0.1739(2) 2.0252(5) 0.1939(3)
H11 H 0.1474 1.9995 0.1299
C17 C 0.25291(19) 1.9510(5) 0.2307(3)
C18 C 0.3031(2) 2.0205(6) 0.3237(3)
H12 H 0.2788 2.0112 0.3618
H13 H 0.3129 2.1388 0.3190
C19 C 0.2835(2) 1.9777(5) 0.1629(3)
C20 C 0.2536(2) 1.8884(6) 0.0831(3)
H14 H 0.2154 1.8130 0.0717
C21 C 0.2798(2) 1.9102(6) 0.0202(3)
H15 H 0.2597 1.8481 -0.0325
C22 C 0.3347(2) 2.0223(6) 0.0354(3)
H16 H 0.3526 2.0360 -0.0064
C23 C 0.3631(2) 2.1140(6) 0.1122(3)
H17 H 0.3999 2.1922 0.1219
C24 C 0.3382(2) 2.0931(5) 0.1764(3)
H18 H 0.3584 2.1570 0.2286
Cl2 Cl 0.42051(13) 1.4051(3) 0.46252(17)
C25 C 0.5000 1.2917(16) 0.5000
H19 H 0.4973 1.2203 0.4523
Cl2A Cl 0.57949(13) 1.4051(3) 0.53748(17)
H19A H 0.5027 1.2203 0.5477
loop_
_geom_bond_atom_site_label_1
_geom_bond_atom_site_label_2
_geom_bond_site_symmetry_1
_geom_bond_site_symmetry_2
S1 C7 1_555 1_555
Br1 C1 1_555 1_555
Cl1 C18 1_555 1_555
O1 C8 1_555 1_555
O2 N2 1_555 1_555
O3 N2 1_555 1_555
N1 H1 1_555 1_555
N2 C16 1_555 1_555
C1 C2 1_555 1_555
C2 H2 1_555 1_555
C3 C2 1_555 1_555
H3 C3 1_555 1_555
C4 C3 1_555 1_555
H4 C4 1_555 1_555
C5 N1 1_555 1_555
C6 C1 1_555 1_555
C7 C6 1_555 1_555
C8 N1 1_555 1_555
C9 C7 1_555 1_555
H5 C9 1_555 1_555
C10 C9 1_555 1_555
C11 C10 1_555 1_555
H6 C11 1_555 1_555
C12 C11 1_555 1_555
H7 C12 1_555 1_555
C13 C12 1_555 1_555
H8 C13 1_555 1_555
C14 C13 1_555 1_555
H9 C14 1_555 1_555
C15 C10 1_555 1_555
H10 C15 1_555 1_555
C16 C9 1_555 1_555
H11 C16 1_555 1_555
C17 S1 1_555 1_555
C18 C17 1_555 1_555
H12 C18 1_555 1_555
H13 C18 1_555 1_555
C19 C17 1_555 1_555
C20 C19 1_555 1_555
H14 C20 1_555 1_555
C21 C20 1_555 1_555
H15 C21 1_555 1_555
C22 C21 1_555 1_555
H16 C22 1_555 1_555
C23 C22 1_555 1_555
H17 C23 1_555 1_555
C24 C19 1_555 1_555
H18 C24 1_555 1_555
Cl2 C25 1_555 1_555
C25 H19 1_555 1_555
Cl2A C25 1_555 1_555
H19A C25 1_555 1_555
C4 C5 1_555 1_555
C5 C6 1_555 1_555
C7 C8 1_555 1_555
C14 C15 1_555 1_555
C16 C17 1_555 1_555
C23 C24 1_555 1_555

#END
