
#######################################################################
#
#                 Cambridge Crystallographic Data Centre
#                                CCDC 
#
#######################################################################
#
# If this CIF has been generated from an entry in the Cambridge 
# Structural Database, then it will include bibliographic, chemical, 
# crystal, experimental, refinement or atomic coordinate data resulting 
# from the CCDC's data processing and validation procedures.
#
#######################################################################

data_JEJWAX
_chemical_compound_source        'roots and stems of Kadsura longipedunculata'
_chemical_name_common            'Longipedunin A'
_chemical_formula_moiety         'C31 H32 O8'
_chemical_name_systematic        
'5,6,7,8-Tetrahydro-2,3,13-trimethoxy-6,7-dimethyl-benzo(3,4)cycloocta(1,2-f)(1,3)benzodioxole-1-ol-8-yl cinnamate'
_chemical_properties_biological  'HIV-1 protease inhibitory activity'
_symmetry_cell_setting           monoclinic
_symmetry_space_group_name_H-M   'P 21'
_symmetry_Int_Tables_number      4
_space_group_name_Hall           'P 2yb'
loop_
_symmetry_equiv_pos_site_id
_symmetry_equiv_pos_as_xyz
1 x,y,z
2 -x,1/2+y,-z
_cell_length_a                   11.320(2)
_cell_length_b                   10.665(3)
_cell_length_c                   11.680(2)
_cell_angle_alpha                90
_cell_angle_beta                 107.74(1)
_cell_angle_gamma                90
_cell_volume                     1343.05
_exptl_crystal_colour            colorless
_exptl_crystal_description       prismatic
_chemical_melting_point          176-178deg.C
_cell_formula_units_Z            2
_exptl_crystal_recrystallization_method methanol
loop_
_atom_site_label
_atom_site_type_symbol
_atom_site_fract_x
_atom_site_fract_y
_atom_site_fract_z
O1 O 0.1328(2) 0.2707(9) 0.2649(2)
O2 O 0.2066(2) 0.1406(10) 0.4666(2)
O3 O 0.4163(3) 0.0038(10) 0.5243(2)
O4 O 0.2028(2) -0.0008(9) 0.0450(2)
O5 O 0.1440(3) 0.4940(10) -0.2167(2)
O6 O 0.1980(3) 0.5988(9) -0.0359(2)
O7 O 0.2944(3) 0.4618(9) 0.2013(2)
O8 O 0.0461(2) -0.0938(10) -0.0960(2)
C1 C 0.2409(2) 0.2077(10) 0.2840(2)
C2 C 0.2796(3) 0.1412(10) 0.3920(3)
C3 C 0.3869(3) 0.0682(9) 0.4177(3)
C4 C 0.4545(3) 0.0646(10) 0.3383(3)
C5 C 0.4166(2) 0.1296(10) 0.2297(3)
C6 C 0.4945(3) 0.1187(10) 0.1454(3)
C7 C 0.4678(3) 0.0064(10) 0.0574(3)
C8 C 0.3595(3) 0.0303(9) -0.0594(3)
C9 C 0.2341(3) 0.0730(9) -0.0457(3)
C10 C 0.2285(2) 0.2132(10) -0.0252(2)
C11 C 0.1889(3) 0.2819(10) -0.1333(3)
C12 C 0.1843(3) 0.4096(10) -0.1244(3)
C13 C 0.2159(3) 0.4715(10) -0.0163(3)
C14 C 0.2598(3) 0.4065(10) 0.0911(2)
C15 C 0.2636(2) 0.2737(10) 0.0861(2)
C16 C 0.3090(2) 0.2031(9) 0.2020(2)
C17 C 0.4624(4) -0.1186(10) 0.1187(4)
C18 C 0.3398(4) -0.0800(10) -0.1466(4)
C19 C 0.1354(4) 0.6085(10) -0.1611(4)
C20 C 0.3603(4) 0.5778(10) 0.2134(3)
C21 C 0.2347(7) 0.234(1) 0.5560(5)
C22 C 0.4920(6) -0.104(1) 0.5342(4)
C23 C 0.1100(2) -0.0838(10) 0.0083(3)
C24 C 0.0952(3) -0.1644(9) 0.1037(3)
C25 C 0.1438(3) -0.1445(9) 0.2207(3)
C26 C 0.1264(3) -0.2267(10) 0.3153(3)
C27 C 0.1421(5) -0.178(1) 0.4301(4)
C28 C 0.1233(8) -0.254(1) 0.5188(4)
C29 C 0.0910(7) -0.380(1) 0.4959(5)
C30 C 0.0762(5) -0.4272(10) 0.3833(4)
C31 C 0.0933(3) -0.3517(10) 0.2940(3)
H1 H 0.5287 0.0181 0.3577
H2 H 0.5788 0.1143 0.1934
H3 H 0.4827 0.1945 0.0987
H4 H 0.5393 0.0017 0.0314
H5 H 0.3864 0.0990 -0.0985
H6 H 0.1728 0.0566 -0.1200
H7 H 0.1665 0.2426 -0.2093
H8 H 0.5384 -0.1308 0.1805
H9 H 0.4495 -0.1831 0.0614
H10 H 0.3961 -0.1160 0.1527
H11 H 0.4168 -0.1018 -0.1573
H12 H 0.2833 -0.0550 -0.2218
H13 H 0.3069 -0.1478 -0.1149
H14 H 0.0506 0.6296 -0.1732
H15 H 0.1725 0.6741 -0.1948
H16 H 0.4301 0.5691 0.1852
H17 H 0.3874 0.6034 0.2955
H18 H 0.3071 0.6419 0.1673
H19 H 0.3102 0.2149 0.6159
H20 H 0.1697 0.2403 0.5915
H21 H 0.2433 0.3138 0.5209
H22 H 0.4597 -0.1541 0.4652
H23 H 0.4925 -0.1485 0.6041
H24 H 0.5740 -0.0779 0.5398
H25 H 0.0463 -0.2365 0.0799
H26 H 0.1935 -0.0704 0.2452
H27 H 0.1652 -0.0914 0.4469
H28 H 0.1330 -0.2186 0.5963
H29 H 0.0793 -0.4308 0.5575
H30 H 0.0538 -0.5113 0.3666
H31 H 0.0823 -0.3847 0.2164
H32 H 0.1168 0.3158 0.2009
loop_
_geom_bond_atom_site_label_1
_geom_bond_atom_site_label_2
_geom_bond_site_symmetry_1
_geom_bond_site_symmetry_2
O1 C1 1_555 1_555
O2 C2 1_555 1_555
O3 C3 1_555 1_555
O4 C9 1_555 1_555
O5 C12 1_555 1_555
O6 C13 1_555 1_555
O7 C14 1_555 1_555
O8 C23 1_555 1_555
C1 C2 1_555 1_555
C2 C3 1_555 1_555
C3 C4 1_555 1_555
C4 C5 1_555 1_555
C5 C6 1_555 1_555
C6 C7 1_555 1_555
C7 C8 1_555 1_555
C8 C9 1_555 1_555
C9 C10 1_555 1_555
C10 C11 1_555 1_555
C11 C12 1_555 1_555
C12 C13 1_555 1_555
C13 C14 1_555 1_555
C14 C15 1_555 1_555
C15 C10 1_555 1_555
C16 C1 1_555 1_555
C17 C7 1_555 1_555
C18 C8 1_555 1_555
C19 O5 1_555 1_555
C20 O7 1_555 1_555
C21 O2 1_555 1_555
C22 O3 1_555 1_555
C23 O4 1_555 1_555
C24 C23 1_555 1_555
C25 C24 1_555 1_555
C26 C25 1_555 1_555
C27 C26 1_555 1_555
C28 C27 1_555 1_555
C29 C28 1_555 1_555
C30 C29 1_555 1_555
C31 C26 1_555 1_555
H1 C4 1_555 1_555
H2 C6 1_555 1_555
H3 C6 1_555 1_555
H4 C7 1_555 1_555
H5 C8 1_555 1_555
H6 C9 1_555 1_555
H7 C11 1_555 1_555
H8 C17 1_555 1_555
H9 C17 1_555 1_555
H10 C17 1_555 1_555
H11 C18 1_555 1_555
H12 C18 1_555 1_555
H13 C18 1_555 1_555
H14 C19 1_555 1_555
H15 C19 1_555 1_555
H16 C20 1_555 1_555
H17 C20 1_555 1_555
H18 C20 1_555 1_555
H19 C21 1_555 1_555
H20 C21 1_555 1_555
H21 C21 1_555 1_555
H22 C22 1_555 1_555
H23 C22 1_555 1_555
H24 C22 1_555 1_555
H25 C24 1_555 1_555
H26 C25 1_555 1_555
H27 C27 1_555 1_555
H28 C28 1_555 1_555
H29 C29 1_555 1_555
H30 C30 1_555 1_555
H31 C31 1_555 1_555
H32 O1 1_555 1_555
O6 C19 1_555 1_555
C5 C16 1_555 1_555
C15 C16 1_555 1_555
C30 C31 1_555 1_555

#END
