
#######################################################################
#
#                 Cambridge Crystallographic Data Centre
#                                CCDC 
#
#######################################################################
#
# If this CIF has been generated from an entry in the Cambridge 
# Structural Database, then it will include bibliographic, chemical, 
# crystal, experimental, refinement or atomic coordinate data resulting 
# from the CCDC's data processing and validation procedures.
#
#######################################################################

data_JEJXII
_chemical_formula_moiety         'C30 H27 N1 O2'
_chemical_name_systematic        
2-[2,6-bis(propan-2-yl)phenyl]-6-phenyl-1H-benzo[de]isoquinoline-1,3(2H)-dione
_symmetry_cell_setting           tetragonal
_symmetry_space_group_name_H-M   'P 43'
_symmetry_Int_Tables_number      78
_space_group_name_Hall           'P 4cw'
loop_
_symmetry_equiv_pos_site_id
_symmetry_equiv_pos_as_xyz
1 x,y,z
2 -y,x,3/4+z
3 -x,-y,1/2+z
4 y,-x,1/4+z
_cell_length_a                   9.3587(2)
_cell_length_b                   9.3587(2)
_cell_length_c                   27.1778(10)
_cell_angle_alpha                90
_cell_angle_beta                 90
_cell_angle_gamma                90
_cell_volume                     2380.37
_exptl_crystal_colour            white
_exptl_crystal_description       stick
_cell_formula_units_Z            4
loop_
_atom_site_label
_atom_site_type_symbol
_atom_site_fract_x
_atom_site_fract_y
_atom_site_fract_z
N1 N 0.6170(2) 0.2590(2) 0.01289(7)
O1 O 0.76217(19) 0.38204(19) 0.06462(7)
O2 O 0.47027(18) 0.1217(2) -0.03391(7)
C1 C 0.8585(2) 0.1449(3) -0.03528(9)
C2 C 0.7197(3) 0.0943(2) -0.04768(8)
C3 C 0.5917(3) 0.1559(3) -0.02338(9)
C4 C 1.1307(3) 0.2466(3) -0.01096(10)
H1 H 1.2212 0.2792 -0.0023
C5 C 0.9804(3) 0.0942(3) -0.06179(9)
C6 C 0.8768(3) 0.2468(3) 0.00221(9)
C7 C 0.8229(3) -0.0540(3) -0.11095(9)
H2 H 0.8096 -0.1212 -0.1357
C8 C 1.1162(3) 0.1497(3) -0.04845(9)
H3 H 1.1970 0.1197 -0.0655
C9 C 0.9592(3) -0.0050(3) -0.10104(9)
C10 C 0.7519(3) 0.3022(2) 0.02931(9)
C11 C 0.7037(3) -0.0044(3) -0.08444(9)
H4 H 0.6132 -0.0390 -0.0920
C12 C 0.4968(3) 0.3201(3) 0.03903(10)
C13 C 1.0111(3) 0.2967(3) 0.01437(9)
H5 H 1.0218 0.3636 0.0394
C14 C 0.4423(3) 0.2449(3) 0.07923(10)
C15 C 1.0791(3) -0.0495(3) -0.13360(9)
C16 C 1.0731(3) -0.0160(3) -0.18336(10)
H6 H 0.9935 0.0317 -0.1957
C17 C 0.3291(3) 0.3069(3) 0.10499(11)
H7 H 0.2891 0.2586 0.1315
C18 C 0.3327(3) 0.5119(3) 0.05175(12)
H8 H 0.2960 0.6008 0.0431
C19 C 0.5015(3) 0.1014(3) 0.09570(11)
H9 H 0.5872 0.0816 0.0762
C20 C 0.5023(3) 0.5305(3) -0.02070(13)
H10 H 0.5970 0.4910 -0.0280
C21 C 0.2755(3) 0.4395(3) 0.09162(11)
H11 H 0.2010 0.4798 0.1095
C22 C 0.4444(3) 0.4533(3) 0.02443(10)
C23 C 1.3096(3) -0.1597(3) -0.14778(12)
H12 H 1.3889 -0.2086 -0.1359
C24 C 1.1994(3) -0.1226(3) -0.11580(11)
H13 H 1.2055 -0.1462 -0.0826
C25 C 1.1834(3) -0.0524(4) -0.21498(11)
H14 H 1.1780 -0.0285 -0.2481
C26 C 0.3935(4) -0.0179(3) 0.08563(14)
H15 H 0.3094 -0.0026 0.1052
H16 H 0.4351 -0.1085 0.0940
H17 H 0.3681 -0.0175 0.0514
C27 C 0.5195(4) 0.6912(3) -0.01275(16)
H18 H 0.4271 0.7342 -0.0090
H19 H 0.5671 0.7324 -0.0406
H20 H 0.5752 0.7078 0.0163
C28 C 0.5454(4) 0.1032(4) 0.15016(12)
H21 H 0.6106 0.1806 0.1558
H22 H 0.5909 0.0144 0.1584
H23 H 0.4620 0.1157 0.1703
C29 C 0.4060(4) 0.5014(4) -0.06519(13)
H24 H 0.3973 0.4002 -0.0700
H25 H 0.4472 0.5441 -0.0940
H26 H 0.3132 0.5417 -0.0594
C30 C 1.3017(3) -0.1244(4) -0.19702(12)
H27 H 1.3759 -0.1490 -0.2182
loop_
_geom_bond_atom_site_label_1
_geom_bond_atom_site_label_2
_geom_bond_site_symmetry_1
_geom_bond_site_symmetry_2
N1 C3 1_555 1_555
O1 C10 1_555 1_555
O2 C3 1_555 1_555
C1 C2 1_555 1_555
C2 C3 1_555 1_555
C4 H1 1_555 1_555
C5 C1 1_555 1_555
C6 C1 1_555 1_555
C7 H2 1_555 1_555
C8 C4 1_555 1_555
H3 C8 1_555 1_555
C9 C5 1_555 1_555
C10 N1 1_555 1_555
C11 C2 1_555 1_555
H4 C11 1_555 1_555
C12 N1 1_555 1_555
C13 C4 1_555 1_555
H5 C13 1_555 1_555
C14 C12 1_555 1_555
C15 C9 1_555 1_555
C16 C15 1_555 1_555
H6 C16 1_555 1_555
C17 C14 1_555 1_555
H7 C17 1_555 1_555
C18 H8 1_555 1_555
C19 C14 1_555 1_555
H9 C19 1_555 1_555
C20 H10 1_555 1_555
C21 C17 1_555 1_555
H11 C21 1_555 1_555
C22 C12 1_555 1_555
C23 H12 1_555 1_555
C24 C15 1_555 1_555
H13 C24 1_555 1_555
C25 C16 1_555 1_555
H14 C25 1_555 1_555
C26 C19 1_555 1_555
H15 C26 1_555 1_555
H16 C26 1_555 1_555
H17 C26 1_555 1_555
C27 C20 1_555 1_555
H18 C27 1_555 1_555
H19 C27 1_555 1_555
H20 C27 1_555 1_555
C28 C19 1_555 1_555
H21 C28 1_555 1_555
H22 C28 1_555 1_555
H23 C28 1_555 1_555
C29 C20 1_555 1_555
H24 C29 1_555 1_555
H25 C29 1_555 1_555
H26 C29 1_555 1_555
C30 C23 1_555 1_555
H27 C30 1_555 1_555
C5 C8 1_555 1_555
C6 C10 1_555 1_555
C6 C13 1_555 1_555
C7 C9 1_555 1_555
C7 C11 1_555 1_555
C18 C21 1_555 1_555
C18 C22 1_555 1_555
C20 C22 1_555 1_555
C23 C24 1_555 1_555
C25 C30 1_555 1_555

#END
