
#######################################################################
#
#                 Cambridge Crystallographic Data Centre
#                                CCDC 
#
#######################################################################
#
# If this CIF has been generated from an entry in the Cambridge 
# Structural Database, then it will include bibliographic, chemical, 
# crystal, experimental, refinement or atomic coordinate data resulting 
# from the CCDC's data processing and validation procedures.
#
#######################################################################

data_JEJZEE
_chemical_name_common            
9-(4-Methoxycarbonyl-1H-1,2,3-triazolyl)-9-dehydroxyepiquinine
_chemical_formula_moiety         'C24 H27 N5 O3'
_chemical_name_systematic        
6-Methoxy-4-((4-methoxycarbonyl-1H-1,2,3-triazolyl)(5-ethenyl-1-azabicyclo[2.2.2]octan-2-yl)methyl)quinoline
_symmetry_cell_setting           monoclinic
_symmetry_space_group_name_H-M   'P 21'
_symmetry_Int_Tables_number      4
_space_group_name_Hall           'P 2yb'
loop_
_symmetry_equiv_pos_site_id
_symmetry_equiv_pos_as_xyz
1 x,y,z
2 -x,1/2+y,-z
_cell_length_a                   10.550(2)
_cell_length_b                   8.053(2)
_cell_length_c                   13.709(3)
_cell_angle_alpha                90
_cell_angle_beta                 104.32(3)
_cell_angle_gamma                90
_cell_volume                     1128.52
_exptl_crystal_colour            colorless
_exptl_crystal_description       plate
_chemical_melting_point          239-241deg.C
_cell_formula_units_Z            2
_exptl_crystal_recrystallization_method methanol
loop_
_atom_site_label
_atom_site_type_symbol
_atom_site_fract_x
_atom_site_fract_y
_atom_site_fract_z
N1 N -0.0419(4) -0.1453(5) -1.1073(3)
C1 C 0.0560(5) -0.1011(7) -1.0331(3)
H1 H 0.1361 -0.0667 -1.0482
C2 C 0.0482(5) -0.1011(6) -0.9313(3)
H2 H 0.1214 -0.0652 -0.8789
C3 C -0.0622(4) -0.1506(5) -0.9064(3)
C4 C -0.2945(4) -0.2445(7) -0.9711(3)
H3 H -0.3085 -0.2454 -0.9045
C5 C -0.3942(4) -0.2891(8) -1.0503(4)
C6 C -0.3758(5) -0.2885(8) -1.1501(3)
H4 H -0.4463 -0.3209 -1.2056
C7 C -0.2604(5) -0.2405(7) -1.1651(3)
H5 H -0.2482 -0.2410 -1.2322
C8 C -0.1552(4) -0.1912(6) -1.0853(3)
C9 C -0.1723(4) -0.1956(5) -0.9846(3)
O1 O -0.5168(3) -0.3331(7) -1.0455(3)
C10 C -0.5483(5) -0.3278(11) -0.9513(5)
H6 H -0.4897 -0.3983 -0.9044
H7 H -0.5367 -0.2135 -0.9312
H8 H -0.6366 -0.3633 -0.9566
N2 N 0.0428(3) -0.1399(5) -0.6166(3)
C11 C 0.1692(4) -0.0936(7) -0.5501(4)
H9 H 0.1595 -0.0884 -0.4824
H10 H 0.1931 0.0151 -0.5680
C12 C 0.2801(4) -0.2171(7) -0.5551(3)
H11 H 0.3179 -0.2588 -0.4887
C13 C 0.2152(4) -0.3614(7) -0.6221(3)
H12 H 0.2791 -0.4452 -0.6244
C14 C 0.1088(5) -0.4347(8) -0.5788(4)
H13 H 0.1449 -0.4660 -0.5099
H14 H 0.0713 -0.5316 -0.6157
C15 C 0.0041(5) -0.3028(7) -0.5823(3)
H15 H -0.0134 -0.2900 -0.5172
H16 H -0.0754 -0.3388 -0.6282
C16 C 0.1521(4) -0.2991(7) -0.7278(3)
H17 H 0.2186 -0.2621 -0.7596
H18 H 0.1030 -0.3861 -0.7679
C17 C 0.0614(4) -0.1540(6) -0.7195(3)
H19 H 0.1036 -0.0536 -0.7323
C18 C -0.0701(4) -0.1615(6) -0.7961(3)
H20 H -0.1090 -0.2665 -0.7875
C19 C 0.3878(5) -0.1323(9) -0.5914(4)
H21 H 0.3624 -0.0770 -0.6553
C20 C 0.5094(7) -0.1277(11) -0.5431(6)
H22 H 0.5369 -0.1823 -0.4791
H23 H 0.5724 -0.0717 -0.5713
N3 N -0.1574(3) -0.0303(4) -0.7755(2)
N4 N -0.2571(4) -0.0711(5) -0.7340(3)
N5 N -0.3108(3) 0.0678(5) -0.7162(3)
C21 C -0.2448(4) 0.1952(5) -0.7455(3)
C22 C -0.1474(4) 0.1342(6) -0.7833(3)
H24 H -0.0850 0.1937 -0.8104
C23 C -0.2809(4) 0.3711(6) -0.7402(3)
O2 O -0.2297(4) 0.4808(4) -0.7759(3)
O3 O -0.3730(3) 0.3923(4) -0.6926(2)
C24 C -0.4106(5) 0.5607(7) -0.6767(4)
H25 H -0.4332 0.5669 -0.6131
H26 H -0.4874 0.5883 -0.7283
H27 H -0.3439 0.6413 -0.6775
loop_
_geom_bond_atom_site_label_1
_geom_bond_atom_site_label_2
_geom_bond_site_symmetry_1
_geom_bond_site_symmetry_2
N1 C1 1_555 1_555
C1 H1 1_555 1_555
C2 C1 1_555 1_555
H2 C2 1_555 1_555
C3 C2 1_555 1_555
C4 H3 1_555 1_555
C5 C4 1_555 1_555
C6 C5 1_555 1_555
H4 C6 1_555 1_555
C7 C6 1_555 1_555
H5 C7 1_555 1_555
C8 N1 1_555 1_555
C9 C3 1_555 1_555
O1 C5 1_555 1_555
C10 O1 1_555 1_555
H6 C10 1_555 1_555
H7 C10 1_555 1_555
H8 C10 1_555 1_555
N2 C11 1_555 1_555
C11 H9 1_555 1_555
H10 C11 1_555 1_555
C12 C11 1_555 1_555
H11 C12 1_555 1_555
C13 C12 1_555 1_555
H12 C13 1_555 1_555
C14 C13 1_555 1_555
H13 C14 1_555 1_555
H14 C14 1_555 1_555
C15 N2 1_555 1_555
H15 C15 1_555 1_555
H16 C15 1_555 1_555
C16 C13 1_555 1_555
H17 C16 1_555 1_555
H18 C16 1_555 1_555
C17 N2 1_555 1_555
H19 C17 1_555 1_555
C18 C3 1_555 1_555
H20 C18 1_555 1_555
C19 C12 1_555 1_555
H21 C19 1_555 1_555
C20 C19 1_555 1_555
H22 C20 1_555 1_555
H23 C20 1_555 1_555
N3 C18 1_555 1_555
N4 N3 1_555 1_555
N5 N4 1_555 1_555
C21 N5 1_555 1_555
C22 N3 1_555 1_555
H24 C22 1_555 1_555
C23 C21 1_555 1_555
O2 C23 1_555 1_555
O3 C23 1_555 1_555
C24 O3 1_555 1_555
H25 C24 1_555 1_555
H26 C24 1_555 1_555
H27 C24 1_555 1_555
C4 C9 1_555 1_555
C7 C8 1_555 1_555
C8 C9 1_555 1_555
C14 C15 1_555 1_555
C16 C17 1_555 1_555
C17 C18 1_555 1_555
C21 C22 1_555 1_555

#END
