
#######################################################################
#
#                 Cambridge Crystallographic Data Centre
#                                CCDC 
#
#######################################################################
#
# If this CIF has been generated from an entry in the Cambridge 
# Structural Database, then it will include bibliographic, chemical, 
# crystal, experimental, refinement or atomic coordinate data resulting 
# from the CCDC's data processing and validation procedures.
#
#######################################################################

data_JEKFOU01
_chemical_formula_moiety         'C24 H32 O6'
_chemical_name_systematic        
1,2,4-trimethoxy-5-(2-methyl-1-(2,4,5-trimethoxyphenyl)pent-1-en-3-yl)benzene
_symmetry_cell_setting           monoclinic
_symmetry_space_group_name_H-M   'P 21/n'
_symmetry_Int_Tables_number      14
_space_group_name_Hall           '-P 2yn'
loop_
_symmetry_equiv_pos_site_id
_symmetry_equiv_pos_as_xyz
1 x,y,z
2 1/2-x,1/2+y,1/2-z
3 -x,-y,-z
4 1/2+x,1/2-y,1/2+z
_cell_length_a                   7.054(2)
_cell_length_b                   11.912(4)
_cell_length_c                   27.117(8)
_cell_angle_alpha                90
_cell_angle_beta                 94.310(6)
_cell_angle_gamma                90
_cell_volume                     2272.12
_exptl_crystal_colour            colorless
_exptl_crystal_description       prismatic
_cell_formula_units_Z            4
loop_
_atom_site_label
_atom_site_type_symbol
_atom_site_fract_x
_atom_site_fract_y
_atom_site_fract_z
O1 O 0.6158(3) 0.56504(17) 0.17066(8)
O2 O 0.7462(3) 0.8395(2) 0.04524(8)
O3 O 0.4660(4) 0.9609(2) 0.06988(9)
O4 O 0.5105(3) 0.57972(18) 0.31738(8)
O5 O 0.7159(3) 0.8076(2) 0.45978(7)
O6 O 0.4308(3) 0.9405(2) 0.44152(8)
C1 C 0.5828(4) 0.6647(2) 0.14590(10)
C2 C 0.6851(4) 0.6973(3) 0.10645(10)
H1 H 0.7796 0.6505 0.0960
C3 C 0.6484(4) 0.7981(3) 0.08265(10)
C4 C 0.4990(4) 0.8646(3) 0.09688(10)
C5 C 0.3992(4) 0.8319(2) 0.13629(10)
H2 H 0.2999 0.8770 0.1454
C6 C 0.4419(4) 0.7335(2) 0.16307(9)
C7 C 0.3492(4) 0.7025(2) 0.20807(10)
H3 H 0.3179 0.6272 0.2113
C8 C 0.3052(3) 0.7697(2) 0.24444(9)
C9 C 0.2143(4) 0.7226(2) 0.28958(9)
H4 H 0.2031 0.6413 0.2849
C10 C 0.3439(3) 0.7421(2) 0.33663(9)
C11 C 0.4954(4) 0.6699(2) 0.34829(10)
C12 C 0.6207(4) 0.6889(2) 0.38945(10)
H5 H 0.7210 0.6395 0.3968
C13 C 0.5972(4) 0.7805(2) 0.41953(9)
C14 C 0.4425(4) 0.8527(2) 0.40951(10)
C15 C 0.3204(4) 0.8319(2) 0.36833(9)
H6 H 0.2180 0.8800 0.3615
C16 C 0.3398(5) 0.8943(2) 0.24547(11)
H7 H 0.4479 0.9113 0.2273
H8 H 0.3638 0.9187 0.2791
H9 H 0.2299 0.9324 0.2307
C17 C 0.0128(4) 0.7684(3) 0.29323(11)
H10 H -0.0329 0.7457 0.3246
H11 H 0.0165 0.8498 0.2925
C18 C -0.1239(4) 0.7269(3) 0.25148(13)
H12 H -0.0798 0.7497 0.2204
H13 H -0.2477 0.7582 0.2549
H14 H -0.1311 0.6465 0.2527
C19 C 0.7631(5) 0.4963(3) 0.15518(15)
H15 H 0.7356 0.4759 0.1211
H16 H 0.7726 0.4297 0.1752
H17 H 0.8812 0.5366 0.1587
C20 C 0.9090(5) 0.7780(4) 0.03232(15)
H18 H 0.9981 0.7716 0.0607
H19 H 0.9678 0.8166 0.0064
H20 H 0.8707 0.7043 0.0211
C21 C 0.3030(6) 1.0235(4) 0.07771(19)
H21 H 0.1935 0.9755 0.0744
H22 H 0.2890 1.0827 0.0537
H23 H 0.3149 1.0551 0.1104
C22 C 0.6575(6) 0.5019(3) 0.32828(16)
H24 H 0.7775 0.5403 0.3306
H25 H 0.6564 0.4467 0.3025
H26 H 0.6390 0.4657 0.3592
C23 C 0.8842(5) 0.7432(4) 0.46856(14)
H27 H 0.8513 0.6665 0.4748
H28 H 0.9582 0.7727 0.4968
H29 H 0.9571 0.7467 0.4401
C24 C 0.2719(6) 1.0108(4) 0.43573(16)
H30 H 0.2680 1.0462 0.4039
H31 H 0.2802 1.0671 0.4611
H32 H 0.1586 0.9672 0.4382
loop_
_geom_bond_atom_site_label_1
_geom_bond_atom_site_label_2
_geom_bond_site_symmetry_1
_geom_bond_site_symmetry_2
O1 C1 1_555 1_555
O2 C3 1_555 1_555
O3 C4 1_555 1_555
O4 C11 1_555 1_555
O5 C13 1_555 1_555
O6 C14 1_555 1_555
C1 C2 1_555 1_555
C2 H1 1_555 1_555
C3 C2 1_555 1_555
C4 C3 1_555 1_555
C5 C4 1_555 1_555
H2 C5 1_555 1_555
C6 C1 1_555 1_555
C7 C6 1_555 1_555
H3 C7 1_555 1_555
C8 C7 1_555 1_555
C9 C8 1_555 1_555
H4 C9 1_555 1_555
C10 C9 1_555 1_555
C11 C10 1_555 1_555
C12 C11 1_555 1_555
H5 C12 1_555 1_555
C13 C12 1_555 1_555
C14 C13 1_555 1_555
C15 C10 1_555 1_555
H6 C15 1_555 1_555
C16 C8 1_555 1_555
H7 C16 1_555 1_555
H8 C16 1_555 1_555
H9 C16 1_555 1_555
C17 C9 1_555 1_555
H10 C17 1_555 1_555
H11 C17 1_555 1_555
C18 C17 1_555 1_555
H12 C18 1_555 1_555
H13 C18 1_555 1_555
H14 C18 1_555 1_555
C19 O1 1_555 1_555
H15 C19 1_555 1_555
H16 C19 1_555 1_555
H17 C19 1_555 1_555
C20 O2 1_555 1_555
H18 C20 1_555 1_555
H19 C20 1_555 1_555
H20 C20 1_555 1_555
C21 O3 1_555 1_555
H21 C21 1_555 1_555
H22 C21 1_555 1_555
H23 C21 1_555 1_555
C22 O4 1_555 1_555
H24 C22 1_555 1_555
H25 C22 1_555 1_555
H26 C22 1_555 1_555
C23 O5 1_555 1_555
H27 C23 1_555 1_555
H28 C23 1_555 1_555
H29 C23 1_555 1_555
C24 O6 1_555 1_555
H30 C24 1_555 1_555
H31 C24 1_555 1_555
H32 C24 1_555 1_555
C5 C6 1_555 1_555
C14 C15 1_555 1_555

#END
