
#######################################################################
#
#                 Cambridge Crystallographic Data Centre
#                                CCDC 
#
#######################################################################
#
# If this CIF has been generated from an entry in the Cambridge 
# Structural Database, then it will include bibliographic, chemical, 
# crystal, experimental, refinement or atomic coordinate data resulting 
# from the CCDC's data processing and validation procedures.
#
#######################################################################

data_JEKFUB
_chemical_formula_moiety         'C28 H30 O2'
_chemical_name_systematic        
trans-(3-Benzoyl-1,4-diethyl-2,3,5,6,7,8-hexahydronaphthalen-2-yl)phenylmethanone
_symmetry_cell_setting           triclinic
_symmetry_space_group_name_H-M   'P -1'
_symmetry_Int_Tables_number      2
_space_group_name_Hall           '-P 1'
loop_
_symmetry_equiv_pos_site_id
_symmetry_equiv_pos_as_xyz
1 x,y,z
2 -x,-y,-z
_cell_length_a                   8.842(7)
_cell_length_b                   9.948(8)
_cell_length_c                   14.060(11)
_cell_angle_alpha                74.797(14)
_cell_angle_beta                 75.299(15)
_cell_angle_gamma                88.277(14)
_cell_volume                     1153.49
_exptl_crystal_colour            colorless
_cell_formula_units_Z            2
loop_
_atom_site_label
_atom_site_type_symbol
_atom_site_fract_x
_atom_site_fract_y
_atom_site_fract_z
O1 O 0.3512(2) 0.60098(18) 0.45385(11)
O2 O 0.7551(2) 0.69749(17) 0.10142(13)
C1 C 0.4372(2) 0.5296(2) 0.29881(14)
C2 C 0.5731(2) 0.6408(2) 0.26720(15)
C3 C 0.5198(2) 0.7896(2) 0.23648(15)
C4 C 0.3953(2) 0.8143(2) 0.19593(14)
C5 C 0.3340(3) 0.9609(2) 0.16736(17)
H1 H 0.2563 0.9752 0.2260
H2 H 0.4199 1.0281 0.1518
C6 C 0.2614(3) 0.9902(3) 0.0771(2)
H3 H 0.2108 1.0788 0.0713
H4 H 0.3434 0.9976 0.0151
C7 C 0.1442(3) 0.8788(3) 0.0877(2)
H5 H 0.1020 0.9012 0.0284
H6 H 0.0585 0.8757 0.1472
C8 C 0.2158(3) 0.7365(3) 0.09838(19)
H7 H 0.2829 0.7337 0.0327
H8 H 0.1323 0.6664 0.1161
C9 C 0.3120(2) 0.6975(2) 0.17818(14)
C10 C 0.3279(2) 0.5626(2) 0.22635(14)
C11 C 0.2568(3) 0.4382(2) 0.20668(18)
H9 H 0.2162 0.3698 0.2712
H10 H 0.1696 0.4687 0.1772
C12 C 0.3725(4) 0.3698(3) 0.1361(2)
H11 H 0.4158 0.4376 0.0727
H12 H 0.3201 0.2956 0.1235
H13 H 0.4551 0.3328 0.1672
C13 C 0.6125(3) 0.9009(2) 0.2570(2)
H14 H 0.6318 0.9816 0.1985
H15 H 0.7130 0.8650 0.2650
C14 C 0.5282(4) 0.9464(3) 0.3522(2)
H16 H 0.4341 0.9916 0.3417
H17 H 0.5954 1.0099 0.3650
H18 H 0.5023 0.8660 0.4096
C15 C 0.3450(2) 0.5104(2) 0.41041(15)
C16 C 0.2467(2) 0.3779(2) 0.46612(15)
C17 C 0.1167(3) 0.3827(3) 0.54580(16)
H19 H 0.0949 0.4655 0.5647
C18 C 0.0196(3) 0.2648(3) 0.59727(19)
H20 H -0.0688 0.2705 0.6485
C19 C 0.0530(4) 0.1398(3) 0.5732(2)
C20 C 0.1841(3) 0.1316(3) 0.4976(2)
H21 H 0.2090 0.0468 0.4824
C21 C 0.2792(3) 0.2501(3) 0.4438(2)
C22 C 0.7078(2) 0.6104(2) 0.18265(15)
C23 C 0.7799(2) 0.4698(2) 0.20156(14)
C24 C 0.7792(2) 0.3866(2) 0.29836(15)
H22 H 0.7310 0.4171 0.3555
C25 C 0.8498(3) 0.2584(3) 0.31062(19)
C26 C 0.9208(3) 0.2117(3) 0.2261(2)
C27 C 0.9229(3) 0.2930(2) 0.12968(19)
H23 H 0.9710 0.2616 0.0729
C28 C 0.8534(2) 0.4218(2) 0.11718(16)
H24 H 0.8560 0.4763 0.0519
H25 H 0.481(2) 0.441(2) 0.2948(13)
H26 H 0.617(2) 0.6272(18) 0.3274(13)
H27 H -0.010(3) 0.064(3) 0.607(2)
H28 H 0.370(3) 0.244(2) 0.3960(18)
H29 H 0.845(2) 0.203(2) 0.3774(17)
H30 H 0.967(3) 0.118(3) 0.2375(17)
loop_
_geom_bond_atom_site_label_1
_geom_bond_atom_site_label_2
_geom_bond_site_symmetry_1
_geom_bond_site_symmetry_2
O1 C15 1_555 1_555
O2 C22 1_555 1_555
C1 C2 1_555 1_555
C2 C3 1_555 1_555
C3 C4 1_555 1_555
C4 C5 1_555 1_555
C5 H1 1_555 1_555
H2 C5 1_555 1_555
C6 C5 1_555 1_555
H3 C6 1_555 1_555
H4 C6 1_555 1_555
C7 C6 1_555 1_555
H5 C7 1_555 1_555
H6 C7 1_555 1_555
C8 C7 1_555 1_555
H7 C8 1_555 1_555
H8 C8 1_555 1_555
C9 C4 1_555 1_555
C10 C1 1_555 1_555
C11 C10 1_555 1_555
H9 C11 1_555 1_555
H10 C11 1_555 1_555
C12 C11 1_555 1_555
H11 C12 1_555 1_555
H12 C12 1_555 1_555
H13 C12 1_555 1_555
C13 C3 1_555 1_555
H14 C13 1_555 1_555
H15 C13 1_555 1_555
C14 C13 1_555 1_555
H16 C14 1_555 1_555
H17 C14 1_555 1_555
H18 C14 1_555 1_555
C15 C1 1_555 1_555
C16 C15 1_555 1_555
C17 C16 1_555 1_555
H19 C17 1_555 1_555
C18 C17 1_555 1_555
H20 C18 1_555 1_555
C19 C18 1_555 1_555
C20 C19 1_555 1_555
H21 C20 1_555 1_555
C21 C16 1_555 1_555
C22 C2 1_555 1_555
C23 C22 1_555 1_555
C24 C23 1_555 1_555
H22 C24 1_555 1_555
C25 C24 1_555 1_555
C26 C25 1_555 1_555
C27 C26 1_555 1_555
H23 C27 1_555 1_555
C28 C23 1_555 1_555
H24 C28 1_555 1_555
H25 C1 1_555 1_555
H26 C2 1_555 1_555
H27 C19 1_555 1_555
H28 C21 1_555 1_555
H29 C25 1_555 1_555
H30 C26 1_555 1_555
C8 C9 1_555 1_555
C9 C10 1_555 1_555
C20 C21 1_555 1_555
C27 C28 1_555 1_555

#END
