
#######################################################################
#
#                 Cambridge Crystallographic Data Centre
#                                CCDC 
#
#######################################################################
#
# If this CIF has been generated from an entry in the Cambridge 
# Structural Database, then it will include bibliographic, chemical, 
# crystal, experimental, refinement or atomic coordinate data resulting 
# from the CCDC's data processing and validation procedures.
#
#######################################################################

data_JEKFOX
_chemical_name_common            
4-(4-(9H-carbazol-9-yl)phenyl)-2,2-difluoro-6-(4-(1,2,2-triphenylvinyl)phenyl)-2H-1,3,2-dioxaborinin-1-ium-2-uide
_chemical_formula_moiety         'C47 H32 B1 F2 N1 O2'
_chemical_name_systematic        
(1-(4-(9H-carbazol-9-yl)phenyl)-3-oxo-3-(4-(triphenylethenyl)phenyl)propenolato)-difluoro-boron
_symmetry_cell_setting           triclinic
_symmetry_space_group_name_H-M   'P -1'
_symmetry_Int_Tables_number      2
_space_group_name_Hall           '-P 1'
loop_
_symmetry_equiv_pos_site_id
_symmetry_equiv_pos_as_xyz
1 x,y,z
2 -x,-y,-z
_cell_length_a                   8.3426(9)
_cell_length_b                   11.4056(11)
_cell_length_c                   19.6777(18)
_cell_angle_alpha                81.770(3)
_cell_angle_beta                 84.375(3)
_cell_angle_gamma                87.955(4)
_cell_volume                     1843.73
_cell_formula_units_Z            2
loop_
_atom_site_label
_atom_site_type_symbol
_atom_site_fract_x
_atom_site_fract_y
_atom_site_fract_z
F1 F 0.1484(3) 0.35413(18) 0.94956(11)
F2 F 0.0521(3) 0.4920(2) 0.87161(11)
O1 O 0.3156(3) 0.43038(18) 0.85539(10)
O2 O 0.2181(3) 0.5491(2) 0.94503(11)
C1 C 0.3721(3) 0.6862(2) 0.98467(12)
C2 C 0.5781(3) 0.4371(2) 0.80228(12)
C3 C 0.3911(4) 0.8557(2) 1.07171(12)
C4 C 0.3582(4) 0.5945(2) 0.94058(12)
C5 C 0.4561(3) 0.4765(2) 0.85345(12)
C6 C 0.4817(3) 0.5578(2) 0.89607(12)
H1 H 0.5837 0.5886 0.8949
N1 N 0.4045(3) 0.94028(19) 1.11736(11)
C7 C 0.5321(4) 0.3819(2) 0.74932(13)
H2 H 0.4237 0.3679 0.7473
C8 C 0.8077(4) 0.3642(2) 0.70181(12)
C9 C 0.5236(4) 0.8302(2) 1.02768(12)
H3 H 0.6189 0.8704 1.0270
C10 C 0.2381(4) 0.7149(2) 1.02847(13)
H4 H 0.1412 0.6772 1.0281
C11 C 0.9294(4) 0.3265(2) 0.64812(12)
C12 C 0.7416(4) 0.4518(2) 0.80581(13)
H5 H 0.7749 0.4875 0.8415
C13 C 0.5145(4) 0.7460(2) 0.98503(12)
H6 H 0.6045 0.7286 0.9561
C14 C 0.6442(4) 0.3473(2) 0.69957(13)
H7 H 0.6100 0.3120 0.6639
C15 C 0.2482(4) 0.7977(2) 1.07177(13)
H8 H 0.1590 0.8150 1.1012
C16 C 1.0613(4) 0.3906(2) 0.62256(13)
C17 C 0.8912(3) 0.2148(2) 0.62234(12)
C18 C 0.8548(3) 0.4144(2) 0.75755(12)
H9 H 0.9637 0.4224 0.7619
C19 C 1.1989(4) 0.3429(2) 0.57988(14)
C20 C 1.0802(4) 0.5144(2) 0.63506(13)
C21 C 0.5364(5) 0.9500(3) 1.15500(14)
C22 C 0.8538(4) 0.1073(2) 0.52886(15)
H10 H 0.8602 0.1045 0.4817
C23 C 0.8390(4) 0.1154(2) 0.66785(14)
H11 H 0.8327 0.1172 0.7151
C24 C 0.8023(4) 0.0109(3) 0.57415(16)
H12 H 0.7714 -0.0569 0.5581
C25 C 0.8963(4) 0.2083(2) 0.55245(13)
H13 H 0.9292 0.2737 0.5209
B1 B 0.1796(5) 0.4559(4) 0.9054(2)
C26 C 0.9555(4) 0.5965(2) 0.62788(14)
H14 H 0.8582 0.5740 0.6148
C27 C 0.5088(6) 1.0475(3) 1.19120(16)
C28 C 1.2661(4) 0.4100(3) 0.52049(15)
H15 H 1.2221 0.4845 0.5062
C29 C 0.7968(4) 0.0153(2) 0.64350(16)
H16 H 0.7639 -0.0507 0.6745
C30 C 0.3561(5) 1.0996(3) 1.17444(14)
C31 C 0.2918(5) 1.0321(3) 1.12888(15)
C32 C 1.2235(5) 0.5521(3) 0.65290(16)
H17 H 1.3109 0.4993 0.6562
C33 C 0.6725(5) 0.8782(3) 1.16233(16)
H18 H 0.6884 0.8124 1.1393
C34 C 1.3971(5) 0.3681(4) 0.48207(18)
H19 H 1.4407 0.4144 0.4422
C35 C 1.4012(5) 0.1920(4) 0.5611(2)
H20 H 1.4480 0.1183 0.5751
C36 C 0.9728(6) 0.7111(3) 0.63976(18)
H21 H 0.8877 0.7655 0.6344
C37 C 0.1509(5) 1.0626(3) 1.09998(18)
H22 H 0.1125 1.0186 1.0690
C38 C 1.2682(4) 0.2334(3) 0.60019(17)
H23 H 1.2260 0.1869 0.6402
C39 C 0.2675(7) 1.1979(3) 1.19325(19)
H24 H 0.3046 1.2426 1.2242
C40 C 1.4627(5) 0.2600(4) 0.5020(2)
H25 H 1.5499 0.2318 0.4753
C41 C 0.6262(7) 1.0746(3) 1.2327(2)
H26 H 0.6129 1.1405 1.2558
C42 C 1.1145(8) 0.7455(4) 0.6594(2)
H27 H 1.1252 0.8226 0.6683
C43 C 0.0672(5) 1.1630(3) 1.1193(2)
H28 H -0.0290 1.1867 1.1007
C44 C 0.7842(5) 0.9059(3) 1.20436(17)
H29 H 0.8765 0.8586 1.2094
C45 C 0.1260(7) 1.2273(3) 1.1655(2)
H30 H 0.0668 1.2928 1.1781
C46 C 1.2401(7) 0.6660(4) 0.6659(2)
H31 H 1.3369 0.6890 0.6791
C47 C 0.7610(7) 1.0023(4) 1.2388(2)
H32 H 0.8381 1.0192 1.2669
loop_
_geom_bond_atom_site_label_1
_geom_bond_atom_site_label_2
_geom_bond_site_symmetry_1
_geom_bond_site_symmetry_2
F1 B1 1_555 1_555
F2 B1 1_555 1_555
O1 C5 1_555 1_555
O2 C4 1_555 1_555
C1 C4 1_555 1_555
C2 C5 1_555 1_555
C3 N1 1_555 1_555
C4 C6 1_555 1_555
C5 C6 1_555 1_555
C6 H1 1_555 1_555
N1 C21 1_555 1_555
C7 C2 1_555 1_555
H2 C7 1_555 1_555
C8 C11 1_555 1_555
C9 C3 1_555 1_555
H3 C9 1_555 1_555
C10 C1 1_555 1_555
H4 C10 1_555 1_555
C11 C16 1_555 1_555
C12 C2 1_555 1_555
H5 C12 1_555 1_555
C13 C1 1_555 1_555
H6 C13 1_555 1_555
C14 C7 1_555 1_555
H7 C14 1_555 1_555
C15 C3 1_555 1_555
H8 C15 1_555 1_555
C16 C19 1_555 1_555
C17 C11 1_555 1_555
C18 C8 1_555 1_555
H9 C18 1_555 1_555
C19 C28 1_555 1_555
C20 C16 1_555 1_555
C21 C27 1_555 1_555
C22 H10 1_555 1_555
C23 C17 1_555 1_555
H11 C23 1_555 1_555
C24 C22 1_555 1_555
H12 C24 1_555 1_555
C25 C17 1_555 1_555
H13 C25 1_555 1_555
B1 O1 1_555 1_555
C26 C20 1_555 1_555
H14 C26 1_555 1_555
C27 C30 1_555 1_555
C28 H15 1_555 1_555
C29 C23 1_555 1_555
H16 C29 1_555 1_555
C30 C31 1_555 1_555
C31 N1 1_555 1_555
C32 C20 1_555 1_555
H17 C32 1_555 1_555
C33 C21 1_555 1_555
H18 C33 1_555 1_555
C34 C28 1_555 1_555
H19 C34 1_555 1_555
C35 H20 1_555 1_555
C36 C26 1_555 1_555
H21 C36 1_555 1_555
C37 C31 1_555 1_555
H22 C37 1_555 1_555
C38 C19 1_555 1_555
H23 C38 1_555 1_555
C39 C30 1_555 1_555
H24 C39 1_555 1_555
C40 C34 1_555 1_555
H25 C40 1_555 1_555
C41 C27 1_555 1_555
H26 C41 1_555 1_555
C42 C36 1_555 1_555
H27 C42 1_555 1_555
C43 C37 1_555 1_555
H28 C43 1_555 1_555
C44 C33 1_555 1_555
H29 C44 1_555 1_555
C45 C39 1_555 1_555
H30 C45 1_555 1_555
C46 C32 1_555 1_555
H31 C46 1_555 1_555
C47 C41 1_555 1_555
H32 C47 1_555 1_555
O2 B1 1_555 1_555
C8 C14 1_555 1_555
C9 C13 1_555 1_555
C10 C15 1_555 1_555
C12 C18 1_555 1_555
C22 C25 1_555 1_555
C24 C29 1_555 1_555
C35 C38 1_555 1_555
C35 C40 1_555 1_555
C42 C46 1_555 1_555
C43 C45 1_555 1_555
C44 C47 1_555 1_555

#END
