
#######################################################################
#
#                 Cambridge Crystallographic Data Centre
#                                CCDC 
#
#######################################################################
#
# If this CIF has been generated from an entry in the Cambridge 
# Structural Database, then it will include bibliographic, chemical, 
# crystal, experimental, refinement or atomic coordinate data resulting 
# from the CCDC's data processing and validation procedures.
#
#######################################################################

data_JEKFUD
_chemical_name_common            
'4-(4-(9H-carbazol-9-yl)phenyl)-2,2-difluoro-6-(4-(1,2,2-triphenylvinyl)phenyl)-2H-1,3,2-dioxaborinin-1-ium-2-uide unknown solvate'
_chemical_formula_moiety         'C47 H32 B1 F2 N1 O2'
_chemical_name_systematic        
'(1-(4-(9H-carbazol-9-yl)phenyl)-3-oxo-3-(4-(triphenylethenyl)phenyl)propenolato)-difluoro-boron unknown solvate'
_symmetry_cell_setting           monoclinic
_symmetry_space_group_name_H-M   'P 21/n'
_symmetry_Int_Tables_number      14
_space_group_name_Hall           '-P 2yn'
loop_
_symmetry_equiv_pos_site_id
_symmetry_equiv_pos_as_xyz
1 x,y,z
2 1/2-x,1/2+y,1/2-z
3 -x,-y,-z
4 1/2+x,1/2-y,1/2+z
_cell_length_a                   14.917(2)
_cell_length_b                   24.663(3)
_cell_length_c                   20.762(3)
_cell_angle_alpha                90
_cell_angle_beta                 93.468(5)
_cell_angle_gamma                90
_cell_volume                     7624.31
_cell_formula_units_Z            8
loop_
_atom_site_label
_atom_site_type_symbol
_atom_site_fract_x
_atom_site_fract_y
_atom_site_fract_z
B1 B 0.3862(6) 0.5050(4) 0.6275(5)
C1 C 0.9547(5) 0.4699(3) 0.5844(4)
C2 C 0.9284(6) 0.4170(4) 0.5776(5)
H1 H 0.8681 0.4075 0.5775
C3 C 0.9928(8) 0.3786(4) 0.5709(7)
H2 H 0.9762 0.3423 0.5679
C4 C 1.0812(8) 0.3923(5) 0.5684(7)
H3 H 1.1230 0.3657 0.5597
C5 C 1.1094(7) 0.4444(4) 0.5783(6)
H4 H 1.1701 0.4531 0.5786
C6 C 1.0472(6) 0.4833(4) 0.5875(5)
C7 C 1.0532(5) 0.5419(3) 0.5982(4)
C8 C 1.1232(6) 0.5781(4) 0.6026(5)
H5 H 1.1813 0.5660 0.5971
C9 C 1.1085(6) 0.6305(4) 0.6146(6)
H6 H 1.1561 0.6545 0.6220
C10 C 1.0181(7) 0.6484(4) 0.6157(6)
H7 H 1.0071 0.6854 0.6187
C11 C 0.9476(6) 0.6142(4) 0.6125(5)
H8 H 0.8893 0.6266 0.6166
C12 C 0.9654(5) 0.5603(3) 0.6030(5)
C13 C 0.8150(5) 0.5198(3) 0.6107(4)
C14 C 0.7923(5) 0.5444(4) 0.6654(5)
H9 H 0.8371 0.5586 0.6936
C15 C 0.7026(5) 0.5489(3) 0.6805(4)
H10 H 0.6882 0.5666 0.7180
C16 C 0.6359(5) 0.5272(3) 0.6402(4)
C17 C 0.6577(5) 0.5001(3) 0.5851(4)
H11 H 0.6131 0.4840 0.5584
C18 C 0.7478(5) 0.4971(3) 0.5700(4)
H12 H 0.7628 0.4798 0.5323
C19 C 0.5399(5) 0.5327(3) 0.6549(4)
C20 C 0.5105(5) 0.5676(3) 0.7012(4)
H13 H 0.5522 0.5891 0.7244
C21 C 0.4225(5) 0.5714(3) 0.7135(4)
C22 C 0.3845(5) 0.6074(3) 0.7615(3)
C23 C 0.4371(5) 0.6315(3) 0.8087(4)
H14 H 0.4987 0.6253 0.8110
C24 C 0.4003(5) 0.6651(3) 0.8535(4)
H15 H 0.4375 0.6803 0.8862
C25 C 0.3087(5) 0.6767(3) 0.8506(4)
C26 C 0.2563(5) 0.6512(3) 0.8019(4)
H16 H 0.1946 0.6572 0.7994
C27 C 0.2918(5) 0.6177(3) 0.7578(4)
H17 H 0.2547 0.6017 0.7255
C28 C 0.2696(5) 0.7128(3) 0.8988(4)
C29 C 0.3003(5) 0.7028(3) 0.9670(4)
C30 C 0.2995(6) 0.6503(3) 0.9928(5)
H18 H 0.2835 0.6212 0.9659
C31 C 0.3217(7) 0.6409(5) 1.0566(6)
H19 H 0.3214 0.6056 1.0724
C32 C 0.3443(7) 0.6828(6) 1.0972(6)
H20 H 0.3577 0.6765 1.1409
C33 C 0.3471(6) 0.7351(5) 1.0725(5)
H21 H 0.3628 0.7638 1.1000
C34 C 0.3274(5) 0.7450(3) 1.0092(4)
H22 H 0.3318 0.7801 0.9934
C35 C 0.2085(5) 0.7518(3) 0.8826(4)
C36 C 0.1589(5) 0.7830(3) 0.9325(4)
C37 C 0.1150(5) 0.7570(3) 0.9800(4)
H23 H 0.1142 0.7194 0.9822
C38 C 0.0718(6) 0.7881(3) 1.0247(4)
H24 H 0.0398 0.7705 1.0555
C39 C 0.0745(6) 0.8433(4) 1.0251(4)
H25 H 0.0470 0.8629 1.0567
C40 C 0.1193(6) 0.8696(3) 0.9771(4)
H26 H 0.1222 0.9072 0.9765
C41 C 0.1603(5) 0.8392(3) 0.9296(4)
H27 H 0.1881 0.8567 0.8965
C42 C 0.1824(9) 0.7684(4) 0.8162(5)
C43 C 0.2502(10) 0.7877(5) 0.7777(5)
H28 H 0.3103 0.7877 0.7926
C44 C 0.2220(13) 0.8080(6) 0.7130(7)
H29 H 0.2635 0.8229 0.6863
C45 C 0.1385(14) 0.8046(6) 0.6945(8)
H30 H 0.1220 0.8169 0.6532
C46 C 0.0673(12) 0.7834(6) 0.7321(7)
H31 H 0.0079 0.7819 0.7159
C47 C 0.0927(10) 0.7661(5) 0.7914(6)
H32 H 0.0494 0.7522 0.8173
F1 F 0.3609(3) 0.45294(18) 0.6460(3)
F2 F 0.3440(3) 0.5196(2) 0.5717(3)
N1 N 0.9057(4) 0.5170(3) 0.5943(3)
O1 O 0.4845(3) 0.5028(2) 0.6208(3)
O2 O 0.3618(3) 0.5419(2) 0.6788(3)
B2 B 0.6182(6) 0.4982(4) 0.8567(5)
C48 C 0.8364(6) 0.1530(3) 0.5749(4)
H33 H 0.8050 0.1363 0.6068
C49 C 0.8877(7) 0.1216(3) 0.5361(5)
H34 H 0.8899 0.0841 0.5412
C50 C 0.9359(6) 0.1469(4) 0.4895(4)
H35 H 0.9696 0.1262 0.4624
C51 C 0.9340(6) 0.2012(4) 0.4834(4)
H36 H 0.9681 0.2178 0.4530
C52 C 0.8825(5) 0.2321(3) 0.5212(4)
H37 H 0.8823 0.2695 0.5160
C53 C 0.8305(5) 0.2092(3) 0.5675(4)
C54 C 0.7770(5) 0.2429(3) 0.6097(4)
C55 C 0.7844(6) 0.2274(3) 0.6809(4)
C56 C 0.8665(8) 0.2202(4) 0.7142(5)
H38 H 0.9180 0.2237 0.6914
C57 C 0.8770(10) 0.2081(5) 0.7792(6)
H39 H 0.9331 0.2070 0.8013
C58 C 0.8006(13) 0.1980(5) 0.8085(6)
H40 H 0.8047 0.1887 0.8520
C59 C 0.7180(11) 0.2006(4) 0.7776(5)
H41 H 0.6673 0.1915 0.7992
C60 C 0.7094(7) 0.2175(3) 0.7126(4)
H42 H 0.6529 0.2217 0.6917
C61 C 0.7228(5) 0.2835(3) 0.5871(4)
C62 C 0.6941(5) 0.2892(3) 0.5186(4)
C63 C 0.6682(5) 0.2425(3) 0.4811(4)
H43 H 0.6686 0.2086 0.5005
C64 C 0.6426(6) 0.2472(4) 0.4166(5)
H44 H 0.6271 0.2164 0.3928
C65 C 0.6397(6) 0.2959(5) 0.3877(5)
H45 H 0.6220 0.2984 0.3441
C66 C 0.6623(6) 0.3414(4) 0.4212(5)
H46 H 0.6612 0.3748 0.4004
C67 C 0.6880(5) 0.3382(3) 0.4888(4)
H47 H 0.7004 0.3697 0.5123
C68 C 0.6849(5) 0.3239(3) 0.6328(4)
C69 C 0.5943(5) 0.3368(3) 0.6294(4)
H48 H 0.5563 0.3214 0.5972
C70 C 0.5595(5) 0.3720(3) 0.6730(4)
H49 H 0.4984 0.3797 0.6707
C71 C 0.6168(5) 0.3965(3) 0.7210(4)
C72 C 0.7084(5) 0.3856(3) 0.7221(4)
H50 H 0.7477 0.4030 0.7518
C73 C 0.7406(5) 0.3490(3) 0.6791(4)
H51 H 0.8016 0.3410 0.6814
C74 C 0.5823(5) 0.4319(3) 0.7711(4)
C75 C 0.4923(5) 0.4387(3) 0.7805(4)
H52 H 0.4499 0.4230 0.7516
C76 C 0.4642(5) 0.4678(3) 0.8308(4)
C77 C 0.3703(5) 0.4722(3) 0.8466(4)
C78 C 0.3484(6) 0.4881(4) 0.9090(5)
H53 H 0.3932 0.4968 0.9404
C79 C 0.2589(6) 0.4903(4) 0.9224(5)
H54 H 0.2445 0.4999 0.9638
C80 C 0.1926(6) 0.4793(4) 0.8788(5)
C81 C 0.2125(6) 0.4646(4) 0.8131(5)
H55 H 0.1671 0.4589 0.7811
C82 C 0.3007(6) 0.4596(4) 0.8011(5)
H56 H 0.3153 0.4472 0.7608
C83 C 0.0555(6) 0.4498(4) 0.9331(6)
C84 C 0.0948(8) 0.4098(4) 0.9753(7)
H57 H 0.1563 0.4033 0.9785
C85 C 0.0337(10) 0.3806(5) 1.0123(8)
H58 H 0.0545 0.3512 1.0370
C86 C -0.0569(10) 0.3951(5) 1.0123(9)
H59 H -0.0936 0.3777 1.0406
C87 C -0.0943(8) 0.4357(5) 0.9703(7)
H60 H -0.1554 0.4436 0.9685
C88 C -0.0350(6) 0.4637(4) 0.9309(6)
C89 C -0.0497(7) 0.5103(5) 0.8863(6)
C90 C 0.0367(6) 0.5187(5) 0.8597(6)
C91 C 0.0451(9) 0.5579(6) 0.8170(7)
H61 H 0.0997 0.5643 0.7990
C92 C -0.0316(10) 0.5899(7) 0.7994(7)
H62 H -0.0240 0.6175 0.7697
C93 C -0.1083(10) 0.5847(7) 0.8198(7)
H63 H -0.1546 0.6086 0.8077
C94 C -0.1212(7) 0.5411(6) 0.8621(8)
H64 H -0.1789 0.5329 0.8739
F3 F 0.6674(3) 0.48953(19) 0.9129(2)
F4 F 0.6326(3) 0.54797(17) 0.8314(2)
N2 N 0.0996(5) 0.4829(3) 0.8911(4)
O3 O 0.6423(3) 0.4565(2) 0.8078(3)
O4 O 0.5218(4) 0.4931(2) 0.8699(3)
loop_
_geom_bond_atom_site_label_1
_geom_bond_atom_site_label_2
_geom_bond_site_symmetry_1
_geom_bond_site_symmetry_2
B1 F1 1_555 1_555
C1 C2 1_555 1_555
C2 H1 1_555 1_555
C3 C2 1_555 1_555
H2 C3 1_555 1_555
C4 C3 1_555 1_555
H3 C4 1_555 1_555
C5 C4 1_555 1_555
H4 C5 1_555 1_555
C6 C1 1_555 1_555
C7 C6 1_555 1_555
C8 C7 1_555 1_555
H5 C8 1_555 1_555
C9 C8 1_555 1_555
H6 C9 1_555 1_555
C10 C9 1_555 1_555
H7 C10 1_555 1_555
C11 C10 1_555 1_555
H8 C11 1_555 1_555
C12 C7 1_555 1_555
C13 C14 1_555 1_555
C14 H9 1_555 1_555
C15 C14 1_555 1_555
H10 C15 1_555 1_555
C16 C15 1_555 1_555
C17 C16 1_555 1_555
H11 C17 1_555 1_555
C18 C13 1_555 1_555
H12 C18 1_555 1_555
C19 C16 1_555 1_555
C20 C19 1_555 1_555
H13 C20 1_555 1_555
C21 C20 1_555 1_555
C22 C21 1_555 1_555
C23 C22 1_555 1_555
H14 C23 1_555 1_555
C24 C23 1_555 1_555
H15 C24 1_555 1_555
C25 C24 1_555 1_555
C26 C25 1_555 1_555
H16 C26 1_555 1_555
C27 C22 1_555 1_555
H17 C27 1_555 1_555
C28 C25 1_555 1_555
C29 C28 1_555 1_555
C30 C29 1_555 1_555
H18 C30 1_555 1_555
C31 C30 1_555 1_555
H19 C31 1_555 1_555
C32 C31 1_555 1_555
H20 C32 1_555 1_555
C33 C32 1_555 1_555
H21 C33 1_555 1_555
C34 C29 1_555 1_555
H22 C34 1_555 1_555
C35 C28 1_555 1_555
C36 C35 1_555 1_555
C37 C36 1_555 1_555
H23 C37 1_555 1_555
C38 C37 1_555 1_555
H24 C38 1_555 1_555
C39 C38 1_555 1_555
H25 C39 1_555 1_555
C40 C39 1_555 1_555
H26 C40 1_555 1_555
C41 C36 1_555 1_555
H27 C41 1_555 1_555
C42 C35 1_555 1_555
C43 C42 1_555 1_555
H28 C43 1_555 1_555
C44 C43 1_555 1_555
H29 C44 1_555 1_555
C45 C44 1_555 1_555
H30 C45 1_555 1_555
C46 C45 1_555 1_555
H31 C46 1_555 1_555
C47 C42 1_555 1_555
H32 C47 1_555 1_555
F2 B1 1_555 1_555
N1 C1 1_555 1_555
O1 B1 1_555 1_555
O2 B1 1_555 1_555
B2 F3 1_555 1_555
C48 H33 1_555 1_555
C49 C48 1_555 1_555
H34 C49 1_555 1_555
C50 C49 1_555 1_555
H35 C50 1_555 1_555
C51 C50 1_555 1_555
H36 C51 1_555 1_555
C52 C51 1_555 1_555
H37 C52 1_555 1_555
C53 C48 1_555 1_555
C54 C53 1_555 1_555
C55 C54 1_555 1_555
C56 C55 1_555 1_555
H38 C56 1_555 1_555
C57 C56 1_555 1_555
H39 C57 1_555 1_555
C58 C57 1_555 1_555
H40 C58 1_555 1_555
C59 C58 1_555 1_555
H41 C59 1_555 1_555
C60 C55 1_555 1_555
H42 C60 1_555 1_555
C61 C54 1_555 1_555
C62 C61 1_555 1_555
C63 C62 1_555 1_555
H43 C63 1_555 1_555
C64 C63 1_555 1_555
H44 C64 1_555 1_555
C65 C64 1_555 1_555
H45 C65 1_555 1_555
C66 C65 1_555 1_555
H46 C66 1_555 1_555
C67 C62 1_555 1_555
H47 C67 1_555 1_555
C68 C61 1_555 1_555
C69 C68 1_555 1_555
H48 C69 1_555 1_555
C70 C69 1_555 1_555
H49 C70 1_555 1_555
C71 C70 1_555 1_555
C72 C71 1_555 1_555
H50 C72 1_555 1_555
C73 C68 1_555 1_555
H51 C73 1_555 1_555
C74 C71 1_555 1_555
C75 C74 1_555 1_555
H52 C75 1_555 1_555
C76 C75 1_555 1_555
C77 C76 1_555 1_555
C78 C77 1_555 1_555
H53 C78 1_555 1_555
C79 C78 1_555 1_555
H54 C79 1_555 1_555
C80 C79 1_555 1_555
C81 C80 1_555 1_555
H55 C81 1_555 1_555
C82 C77 1_555 1_555
H56 C82 1_555 1_555
C83 C84 1_555 1_555
C84 H57 1_555 1_555
C85 C84 1_555 1_555
H58 C85 1_555 1_555
C86 C85 1_555 1_555
H59 C86 1_555 1_555
C87 C86 1_555 1_555
H60 C87 1_555 1_555
C88 C83 1_555 1_555
C89 C88 1_555 1_555
C90 C89 1_555 1_555
C91 C90 1_555 1_555
H61 C91 1_555 1_555
C92 C91 1_555 1_555
H62 C92 1_555 1_555
C93 C92 1_555 1_555
H63 C93 1_555 1_555
C94 C89 1_555 1_555
H64 C94 1_555 1_555
F4 B2 1_555 1_555
N2 C80 1_555 1_555
O3 B2 1_555 1_555
O4 B2 1_555 1_555
C5 C6 1_555 1_555
C11 C12 1_555 1_555
C12 N1 1_555 1_555
C13 N1 1_555 1_555
C17 C18 1_555 1_555
C19 O1 1_555 1_555
C21 O2 1_555 1_555
C26 C27 1_555 1_555
C33 C34 1_555 1_555
C40 C41 1_555 1_555
C46 C47 1_555 1_555
C52 C53 1_555 1_555
C59 C60 1_555 1_555
C66 C67 1_555 1_555
C72 C73 1_555 1_555
C74 O3 1_555 1_555
C76 O4 1_555 1_555
C81 C82 1_555 1_555
C83 N2 1_555 1_555
C87 C88 1_555 1_555
C90 N2 1_555 1_555
C93 C94 1_555 1_555

#END
