
#######################################################################
#
#                 Cambridge Crystallographic Data Centre
#                                CCDC 
#
#######################################################################
#
# If this CIF has been generated from an entry in the Cambridge 
# Structural Database, then it will include bibliographic, chemical, 
# crystal, experimental, refinement or atomic coordinate data resulting 
# from the CCDC's data processing and validation procedures.
#
#######################################################################

data_JEKFIR
_chemical_name_common            
(1-(4-(dibenzylamino)phenyl)-3-oxo-3-(4-(triphenylethenyl)phenyl)propenolato)-difluoro-boron
_chemical_formula_moiety         'C49 H38 B1 F2 N1 O2'
_chemical_name_systematic        
4-(4-(dibenzylamino)phenyl)-2,2-difluoro-6-(4-(1,2,2-triphenylvinyl)phenyl)-2H-1,3,2-dioxaborinin-1-ium-2-uide
_symmetry_cell_setting           triclinic
_symmetry_space_group_name_H-M   'P -1'
_symmetry_Int_Tables_number      2
_space_group_name_Hall           '-P 1'
loop_
_symmetry_equiv_pos_site_id
_symmetry_equiv_pos_as_xyz
1 x,y,z
2 -x,-y,-z
_cell_length_a                   8.393(5)
_cell_length_b                   11.122(7)
_cell_length_c                   21.214(13)
_cell_angle_alpha                97.698(17)
_cell_angle_beta                 96.901(15)
_cell_angle_gamma                91.598(18)
_cell_volume                     1946.25
_cell_formula_units_Z            2
loop_
_atom_site_label
_atom_site_type_symbol
_atom_site_fract_x
_atom_site_fract_y
_atom_site_fract_z
O1 O -0.2803(6) 0.5142(5) 0.0752(2)
O2 O -0.1891(6) 0.4189(5) 0.1680(2)
C1 C -0.0441(8) 0.4604(6) 0.1658(3)
C2 C -0.0128(8) 0.5324(6) 0.1210(3)
H1 H 0.0909 0.5644 0.1214
C3 C -0.1136(8) 0.6346(6) 0.0270(3)
C4 C -0.0819(9) 0.8002(6) -0.0620(3)
C5 C -0.1338(8) 0.5585(6) 0.0749(3)
C6 C 0.0789(8) 0.4238(6) 0.2140(3)
C7 C 0.2403(8) 0.4376(6) 0.2098(3)
H2 H 0.2745 0.4690 0.1750
C8 C -0.2294(9) 0.7402(6) -0.0580(3)
H3 H -0.3196 0.7551 -0.0854
N1 N -0.0687(8) 0.8868(5) -0.1000(3)
C9 C -0.2435(8) 0.6611(6) -0.0154(3)
H4 H -0.3433 0.6233 -0.0144
F1 F -0.3982(7) 0.3385(6) 0.0945(3)
C10 C 0.0372(9) 0.6887(6) 0.0204(3)
H5 H 0.1286 0.6700 0.0460
C11 C 0.0507(8) 0.7671(6) -0.0225(3)
H6 H 0.1518 0.8002 -0.0259
C12 C 0.3528(9) 0.4049(7) 0.2573(3)
H7 H 0.4617 0.4154 0.2541
C13 C 0.4214(9) 0.3191(7) 0.3610(3)
C14 C 0.0301(9) 0.3735(7) 0.2652(4)
H8 H -0.0788 0.3610 0.2678
C15 C 0.3045(9) 0.3562(7) 0.3102(3)
C16 C -0.1969(10) 0.9081(7) -0.1505(4)
H9 H -0.2749 0.8402 -0.1579
H10 H -0.1509 0.9120 -0.1901
F2 F -0.4256(7) 0.5099(7) 0.1580(3)
B1 B -0.3251(11) 0.4458(10) 0.1247(5)
C17 C 0.3788(9) 0.2043(8) 0.3834(4)
C18 C -0.2801(10) 1.0218(8) -0.1340(4)
C19 C 0.1547(10) 0.9841(8) -0.1450(4)
C20 C 0.1417(10) 0.3421(7) 0.3122(4)
H11 H 0.1063 0.3101 0.3467
C21 C 0.3843(10) 0.1965(9) 0.4485(4)
H12 H 0.4213 0.2635 0.4783
C22 C 0.5561(10) 0.3853(8) 0.3848(3)
C23 C 0.7564(11) 0.2308(9) 0.4059(5)
H13 H 0.7112 0.1831 0.3683
C24 C 0.6938(10) 0.3392(8) 0.4253(4)
C25 C 0.5871(12) 0.5124(9) 0.3739(4)
C26 C 0.2326(11) 0.8850(8) -0.1704(5)
H14 H 0.2273 0.8131 -0.1528
C27 C 0.4676(13) 0.5953(11) 0.3818(4)
H15 H 0.3687 0.5709 0.3926
C28 C 0.3360(12) 0.0915(11) 0.4695(5)
H16 H 0.3417 0.0878 0.5132
C29 C -0.3640(11) 1.0381(8) -0.0816(5)
H17 H -0.3663 0.9767 -0.0560
C30 C 0.7639(10) 0.4076(9) 0.4813(4)
H18 H 0.7227 0.4823 0.4943
C31 C -0.2788(12) 1.1160(9) -0.1700(5)
H19 H -0.2201 1.1089 -0.2047
C32 C 0.0631(10) 0.9792(7) -0.0890(4)
H20 H 0.1371 0.9636 -0.0526
H21 H 0.0196 1.0581 -0.0780
C33 C 0.2797(13) -0.0074(10) 0.4266(6)
H22 H 0.2455 -0.0778 0.4413
C34 C 0.3207(12) 0.1034(9) 0.3421(4)
H23 H 0.3126 0.1071 0.2983
C35 C -0.3610(14) 1.2210(9) -0.1567(7)
H24 H -0.3611 1.2824 -0.1824
C36 C 0.8915(12) 0.3692(11) 0.5181(5)
H25 H 0.9340 0.4158 0.5564
C37 C -0.4443(12) 1.1417(11) -0.0660(6)
H26 H -0.4988 1.1505 -0.0301
C38 C 0.1640(12) 1.0920(8) -0.1697(5)
H27 H 0.1138 1.1598 -0.1522
C39 C 0.2734(14) -0.0036(9) 0.3621(5)
H28 H 0.2381 -0.0713 0.3325
C40 C -0.4428(13) 1.2303(11) -0.1035(8)
H29 H -0.4986 1.2999 -0.0934
C41 C 0.498(3) 0.7146(15) 0.3734(6)
H30 H 0.4206 0.7710 0.3811
C42 C 0.9569(13) 0.2613(14) 0.4982(6)
H31 H 1.0466 0.2362 0.5223
C43 C 0.8917(13) 0.1911(11) 0.4436(6)
H32 H 0.9352 0.1171 0.4308
C44 C 0.633(3) 0.7504(15) 0.3551(7)
H33 H 0.6478 0.8304 0.3478
C45 C 0.3179(13) 0.8908(11) -0.2214(6)
H34 H 0.3668 0.8223 -0.2390
C46 C 0.7323(14) 0.5511(11) 0.3558(4)
H35 H 0.8122 0.4958 0.3504
C47 C 0.3305(15) 0.9952(14) -0.2458(6)
H36 H 0.3926 1.0001 -0.2789
C48 C 0.2506(16) 1.0975(12) -0.2217(6)
H37 H 0.2553 1.1686 -0.2402
C49 C 0.760(2) 0.6670(16) 0.3460(6)
H38 H 0.8566 0.6921 0.3338
loop_
_geom_bond_atom_site_label_1
_geom_bond_atom_site_label_2
_geom_bond_site_symmetry_1
_geom_bond_site_symmetry_2
O1 C5 1_555 1_555
O2 C1 1_555 1_555
C1 C2 1_555 1_555
C2 H1 1_555 1_555
C3 C5 1_555 1_555
C4 C8 1_555 1_555
C5 C2 1_555 1_555
C6 C1 1_555 1_555
C7 C6 1_555 1_555
H2 C7 1_555 1_555
C8 H3 1_555 1_555
N1 C4 1_555 1_555
C9 C3 1_555 1_555
H4 C9 1_555 1_555
F1 B1 1_555 1_555
C10 C3 1_555 1_555
H5 C10 1_555 1_555
C11 C4 1_555 1_555
H6 C11 1_555 1_555
C12 C7 1_555 1_555
H7 C12 1_555 1_555
C13 C15 1_555 1_555
C14 C6 1_555 1_555
H8 C14 1_555 1_555
C15 C12 1_555 1_555
C16 N1 1_555 1_555
H9 C16 1_555 1_555
H10 C16 1_555 1_555
F2 B1 1_555 1_555
B1 O1 1_555 1_555
C17 C13 1_555 1_555
C18 C16 1_555 1_555
C19 C26 1_555 1_555
C20 C14 1_555 1_555
H11 C20 1_555 1_555
C21 C17 1_555 1_555
H12 C21 1_555 1_555
C22 C13 1_555 1_555
C23 H13 1_555 1_555
C24 C22 1_555 1_555
C25 C22 1_555 1_555
C26 H14 1_555 1_555
C27 C25 1_555 1_555
H15 C27 1_555 1_555
C28 C21 1_555 1_555
H16 C28 1_555 1_555
C29 C18 1_555 1_555
H17 C29 1_555 1_555
C30 C24 1_555 1_555
H18 C30 1_555 1_555
C31 C18 1_555 1_555
H19 C31 1_555 1_555
C32 N1 1_555 1_555
H20 C32 1_555 1_555
H21 C32 1_555 1_555
C33 C28 1_555 1_555
H22 C33 1_555 1_555
C34 C17 1_555 1_555
H23 C34 1_555 1_555
C35 C31 1_555 1_555
H24 C35 1_555 1_555
C36 C30 1_555 1_555
H25 C36 1_555 1_555
C37 C29 1_555 1_555
H26 C37 1_555 1_555
C38 C19 1_555 1_555
H27 C38 1_555 1_555
C39 C33 1_555 1_555
H28 C39 1_555 1_555
C40 C35 1_555 1_555
H29 C40 1_555 1_555
C41 C27 1_555 1_555
H30 C41 1_555 1_555
C42 C36 1_555 1_555
H31 C42 1_555 1_555
C43 C23 1_555 1_555
H32 C43 1_555 1_555
C44 C41 1_555 1_555
H33 C44 1_555 1_555
C45 C26 1_555 1_555
H34 C45 1_555 1_555
C46 C25 1_555 1_555
H35 C46 1_555 1_555
C47 C45 1_555 1_555
H36 C47 1_555 1_555
C48 C38 1_555 1_555
H37 C48 1_555 1_555
C49 C44 1_555 1_555
H38 C49 1_555 1_555
O2 B1 1_555 1_555
C8 C9 1_555 1_555
C10 C11 1_555 1_555
C15 C20 1_555 1_555
C19 C32 1_555 1_555
C23 C24 1_555 1_555
C34 C39 1_555 1_555
C37 C40 1_555 1_555
C42 C43 1_555 1_555
C46 C49 1_555 1_555
C47 C48 1_555 1_555

#END
