
#######################################################################
#
#                 Cambridge Crystallographic Data Centre
#                                CCDC 
#
#######################################################################
#
# If this CIF has been generated from an entry in the Cambridge 
# Structural Database, then it will include bibliographic, chemical, 
# crystal, experimental, refinement or atomic coordinate data resulting 
# from the CCDC's data processing and validation procedures.
#
#######################################################################

data_JEKGIS
_chemical_formula_moiety         'C26 H24 N2 O5'
_chemical_name_systematic        
2-(2-nitro-3-(2-(4-nitrophenyl)propan-2-yl)-2,3-dihydro-1H-inden-1-yl)-1-phenylethan-1-one
_symmetry_cell_setting           monoclinic
_symmetry_space_group_name_H-M   'P 21/c'
_symmetry_Int_Tables_number      14
_space_group_name_Hall           '-P 2ybc'
loop_
_symmetry_equiv_pos_site_id
_symmetry_equiv_pos_as_xyz
1 x,y,z
2 -x,1/2+y,1/2-z
3 -x,-y,-z
4 x,1/2-y,1/2+z
_cell_length_a                   13.234(4)
_cell_length_b                   11.140(3)
_cell_length_c                   15.953(5)
_cell_angle_alpha                90
_cell_angle_beta                 109.502(9)
_cell_angle_gamma                90
_cell_volume                     2216.97
_exptl_crystal_colour            colorless
_exptl_crystal_description       block
_cell_formula_units_Z            4
loop_
_atom_site_label
_atom_site_type_symbol
_atom_site_fract_x
_atom_site_fract_y
_atom_site_fract_z
C1 C 0.18763(14) 0.42938(15) 0.37307(10)
H1 H 0.1219 0.3864 0.3556
C2 C 0.24420(14) 0.44365(15) 0.31458(10)
H2 H 0.2172 0.4101 0.2566
C3 C 0.33997(14) 0.50667(15) 0.34029(10)
H3 H 0.3779 0.5158 0.2996
C4 C 0.38144(13) 0.55680(14) 0.42488(10)
H4 H 0.4473 0.5996 0.4422
C5 C 0.32450(12) 0.54299(13) 0.48344(9)
C6 C 0.22883(12) 0.47909(14) 0.45771(9)
C7 C 0.18077(12) 0.47659(14) 0.53111(10)
H5 H 0.1255 0.5415 0.5181
C8 C 0.12535(13) 0.35993(14) 0.54040(10)
H6 H 0.0748 0.3363 0.4815
H7 H 0.1797 0.2956 0.5609
C9 C 0.06469(12) 0.37154(15) 0.60549(10)
C10 C 0.01611(13) 0.26169(15) 0.63013(10)
C11 C -0.04769(14) 0.27545(18) 0.68393(11)
H8 H -0.057 0.3526 0.7057
C12 C -0.09720(15) 0.17623(19) 0.70528(12)
H9 H -0.14 0.1855 0.7423
C13 C -0.08507(16) 0.06390(19) 0.67337(13)
H10 H -0.1202 -0.0034 0.6878
C14 C -0.02197(16) 0.04941(18) 0.62048(13)
H11 H -0.0135 -0.0279 0.5986
C15 C 0.02910(14) 0.14792(16) 0.59923(12)
H12 H 0.0731 0.1376 0.5634
C16 C 0.27555(12) 0.51667(14) 0.61400(9)
H13 H 0.2491 0.5697 0.6528
C17 C 0.35433(12) 0.58614(13) 0.57889(9)
H14 H 0.4288 0.5586 0.6123
C18 C 0.34824(12) 0.72531(13) 0.59211(9)
C19 C 0.38928(14) 0.75362(15) 0.69213(10)
H15 H 0.3979 0.8406 0.7008
H16 H 0.4586 0.7141 0.7201
H17 H 0.3376 0.7242 0.7193
C20 C 0.23347(13) 0.77172(15) 0.55262(11)
H18 H 0.1898 0.7384 0.586
H19 H 0.2035 0.747 0.4902
H20 H 0.2334 0.8595 0.5563
C21 C 0.42206(12) 0.78315(13) 0.54753(9)
C22 C 0.53269(13) 0.76935(14) 0.58559(10)
H21 H 0.5612 0.7314 0.6419
C23 C 0.60180(14) 0.80975(15) 0.54303(12)
H22 H 0.677 0.7992 0.5693
C24 C 0.55927(15) 0.86554(14) 0.46173(11)
C25 C 0.45070(15) 0.88431(14) 0.42272(11)
H23 H 0.4231 0.9247 0.3673
C26 C 0.38265(14) 0.84294(14) 0.46612(10)
H24 H 0.3076 0.8555 0.44
N1 N 0.32854(11) 0.40636(12) 0.66462(9)
N2 N 0.63169(15) 0.90629(13) 0.41537(12)
O1 O 0.05153(10) 0.47004(11) 0.63367(8)
O2 O 0.30131(11) 0.37537(14) 0.72742(9)
O3 O 0.39159(10) 0.35028(10) 0.63862(8)
O4 O 0.72892(13) 0.89956(13) 0.45475(12)
O5 O 0.59186(14) 0.94553(13) 0.33978(10)
loop_
_geom_bond_atom_site_label_1
_geom_bond_atom_site_label_2
_geom_bond_site_symmetry_1
_geom_bond_site_symmetry_2
C1 H1 1_555 1_555
C2 C1 1_555 1_555
H2 C2 1_555 1_555
C3 C2 1_555 1_555
H3 C3 1_555 1_555
C4 C3 1_555 1_555
H4 C4 1_555 1_555
C5 C4 1_555 1_555
C6 C1 1_555 1_555
C7 C6 1_555 1_555
H5 C7 1_555 1_555
C8 C7 1_555 1_555
H6 C8 1_555 1_555
H7 C8 1_555 1_555
C9 C8 1_555 1_555
C10 C9 1_555 1_555
C11 C10 1_555 1_555
H8 C11 1_555 1_555
C12 C11 1_555 1_555
H9 C12 1_555 1_555
C13 C12 1_555 1_555
H10 C13 1_555 1_555
C14 C13 1_555 1_555
H11 C14 1_555 1_555
C15 C10 1_555 1_555
H12 C15 1_555 1_555
C16 C7 1_555 1_555
H13 C16 1_555 1_555
C17 C5 1_555 1_555
H14 C17 1_555 1_555
C18 C17 1_555 1_555
C19 C18 1_555 1_555
H15 C19 1_555 1_555
H16 C19 1_555 1_555
H17 C19 1_555 1_555
C20 C18 1_555 1_555
H18 C20 1_555 1_555
H19 C20 1_555 1_555
H20 C20 1_555 1_555
C21 C18 1_555 1_555
C22 C21 1_555 1_555
H21 C22 1_555 1_555
C23 C22 1_555 1_555
H22 C23 1_555 1_555
C24 C23 1_555 1_555
C25 C24 1_555 1_555
H23 C25 1_555 1_555
C26 C21 1_555 1_555
H24 C26 1_555 1_555
N1 C16 1_555 1_555
N2 C24 1_555 1_555
O1 C9 1_555 1_555
O2 N1 1_555 1_555
O3 N1 1_555 1_555
O4 N2 1_555 1_555
O5 N2 1_555 1_555
C5 C6 1_555 1_555
C14 C15 1_555 1_555
C16 C17 1_555 1_555
C25 C26 1_555 1_555

#END
