
#######################################################################
#
#                 Cambridge Crystallographic Data Centre
#                                CCDC 
#
#######################################################################
#
# If this CIF has been generated from an entry in the Cambridge 
# Structural Database, then it will include bibliographic, chemical, 
# crystal, experimental, refinement or atomic coordinate data resulting 
# from the CCDC's data processing and validation procedures.
#
#######################################################################

data_JEKGAI
_chemical_formula_moiety         'C34 H38 O1'
_chemical_name_systematic        
(E)-3-Butylidene-2-(1,4-diethyl-5,6,7,8-tetrahydronaphthalen-2-yl)-2,5-diphenyl-2,3-dihydrofuran
_symmetry_cell_setting           monoclinic
_symmetry_space_group_name_H-M   'P 21/n'
_symmetry_Int_Tables_number      14
_space_group_name_Hall           '-P 2yn'
loop_
_symmetry_equiv_pos_site_id
_symmetry_equiv_pos_as_xyz
1 x,y,z
2 1/2-x,1/2+y,1/2-z
3 -x,-y,-z
4 1/2+x,1/2-y,1/2+z
_cell_length_a                   18.041(4)
_cell_length_b                   8.6120(17)
_cell_length_c                   19.180(4)
_cell_angle_alpha                90
_cell_angle_beta                 115.580(4)
_cell_angle_gamma                90
_cell_volume                     2687.89
_exptl_crystal_colour            green
_cell_formula_units_Z            4
loop_
_atom_site_label
_atom_site_type_symbol
_atom_site_fract_x
_atom_site_fract_y
_atom_site_fract_z
O1 O 0.52754(11) 0.8550(2) 0.15885(11)
C1 C 0.52560(19) 0.7844(4) 0.09384(18)
C2 C 0.45710(19) 0.8136(4) 0.03076(18)
H1 H 0.4451 0.7754 -0.0183
C3 C 0.40373(19) 0.9139(4) 0.04952(17)
C4 C 0.44830(17) 0.9352(4) 0.13796(16)
C5 C 0.46516(19) 1.1057(4) 0.15665(16)
C6 C 0.4063(2) 1.2009(4) 0.16377(19)
H2 H 0.3574 1.1574 0.1596
C7 C 0.4190(3) 1.3578(5) 0.1769(2)
H3 H 0.3786 1.4188 0.1812
C8 C 0.4909(3) 1.4252(5) 0.1837(2)
H4 H 0.4998 1.5311 0.1930
C9 C 0.5493(3) 1.3331(5) 0.1764(2)
H5 H 0.5980 1.3777 0.1805
C10 C 0.5372(2) 1.1770(4) 0.16332(17)
H6 H 0.5778 1.1173 0.1588
C11 C 0.59894(18) 0.6946(4) 0.10560(18)
C12 C 0.6650(2) 0.6841(4) 0.1777(2)
H7 H 0.6634 0.7358 0.2195
C13 C 0.7339(2) 0.5961(5) 0.1878(2)
H8 H 0.7781 0.5897 0.2364
C14 C 0.7367(2) 0.5200(5) 0.1271(3)
H9 H 0.7827 0.4610 0.1344
C15 C 0.6719(2) 0.5294(5) 0.0545(3)
H10 H 0.6744 0.4774 0.0130
C16 C 0.6032(2) 0.6163(4) 0.0434(2)
H11 H 0.5596 0.6227 -0.0055
C17 C 0.40715(18) 0.8534(3) 0.18404(17)
C18 C 0.33287(18) 0.7786(3) 0.14435(18)
H12 H 0.3083 0.7829 0.0906
C19 C 0.29287(19) 0.6968(4) 0.18100(18)
C20 C 0.3311(2) 0.6878(4) 0.26180(19)
C21 C 0.40713(19) 0.7607(4) 0.30315(17)
C22 C 0.44538(18) 0.8475(4) 0.26536(17)
C23 C 0.2883(2) 0.5957(5) 0.3016(2)
H13 H 0.2322 0.6325 0.2828
H14 H 0.2861 0.4876 0.2867
C24 C 0.3278(3) 0.6053(7) 0.3871(2)
H15 H 0.3042 0.6927 0.4023
H16 H 0.3138 0.5121 0.4073
C25 C 0.4123(3) 0.6214(7) 0.4220(3)
H17 H 0.4360 0.5221 0.4188
H18 H 0.4291 0.6429 0.4763
C26 C 0.4498(2) 0.7433(4) 0.3911(2)
H19 H 0.5071 0.7176 0.4065
H20 H 0.4480 0.8423 0.4144
C27 C 0.52707(19) 0.9269(4) 0.31336(18)
H21 H 0.5530 0.9527 0.2799
H22 H 0.5627 0.8542 0.3519
C28 C 0.5200(2) 1.0750(5) 0.3544(2)
H23 H 0.4891 1.1515 0.3165
H24 H 0.5739 1.1145 0.3861
H25 H 0.4924 1.0517 0.3862
C29 C 0.2101(2) 0.6198(5) 0.1356(2)
H26 H 0.2152 0.5115 0.1510
H27 H 0.1710 0.6670 0.1515
C30 C 0.1747(3) 0.6249(6) 0.0515(3)
H28 H 0.1702 0.7309 0.0348
H29 H 0.1211 0.5783 0.0305
H30 H 0.2094 0.5689 0.0339
C31 C 0.3338(2) 0.9815(4) 0.00232(18)
H31 H 0.3100 1.0489 0.0247
C32 C 0.2895(2) 0.9596(4) -0.08376(18)
H32 H 0.3005 1.0484 -0.1090
H33 H 0.3114 0.8683 -0.0980
C33 C 0.1993(3) 0.9415(9) -0.1129(3)
H34 H 0.1785 0.9273 -0.1683
H35 H 0.1915 0.8430 -0.0925
C34 C 0.1474(3) 1.0394(7) -0.1035(3)
H36 H 0.1556 1.0373 -0.0506
H37 H 0.0919 1.0091 -0.1365
H38 H 0.1570 1.1426 -0.1168
loop_
_geom_bond_atom_site_label_1
_geom_bond_atom_site_label_2
_geom_bond_site_symmetry_1
_geom_bond_site_symmetry_2
O1 C1 1_555 1_555
C1 C2 1_555 1_555
C2 H1 1_555 1_555
C3 C2 1_555 1_555
C4 O1 1_555 1_555
C5 C4 1_555 1_555
C6 C5 1_555 1_555
H2 C6 1_555 1_555
C7 C6 1_555 1_555
H3 C7 1_555 1_555
C8 C7 1_555 1_555
H4 C8 1_555 1_555
C9 C8 1_555 1_555
H5 C9 1_555 1_555
C10 C5 1_555 1_555
H6 C10 1_555 1_555
C11 C1 1_555 1_555
C12 C11 1_555 1_555
H7 C12 1_555 1_555
C13 C12 1_555 1_555
H8 C13 1_555 1_555
C14 C13 1_555 1_555
H9 C14 1_555 1_555
C15 C14 1_555 1_555
H10 C15 1_555 1_555
C16 C11 1_555 1_555
H11 C16 1_555 1_555
C17 C4 1_555 1_555
C18 C17 1_555 1_555
H12 C18 1_555 1_555
C19 C18 1_555 1_555
C20 C19 1_555 1_555
C21 C20 1_555 1_555
C22 C17 1_555 1_555
C23 C20 1_555 1_555
H13 C23 1_555 1_555
H14 C23 1_555 1_555
C24 C23 1_555 1_555
H15 C24 1_555 1_555
H16 C24 1_555 1_555
C25 C24 1_555 1_555
H17 C25 1_555 1_555
H18 C25 1_555 1_555
C26 C21 1_555 1_555
H19 C26 1_555 1_555
H20 C26 1_555 1_555
C27 C22 1_555 1_555
H21 C27 1_555 1_555
H22 C27 1_555 1_555
C28 C27 1_555 1_555
H23 C28 1_555 1_555
H24 C28 1_555 1_555
H25 C28 1_555 1_555
C29 C19 1_555 1_555
H26 C29 1_555 1_555
H27 C29 1_555 1_555
C30 C29 1_555 1_555
H28 C30 1_555 1_555
H29 C30 1_555 1_555
H30 C30 1_555 1_555
C31 C3 1_555 1_555
H31 C31 1_555 1_555
C32 C31 1_555 1_555
H32 C32 1_555 1_555
H33 C32 1_555 1_555
C33 C32 1_555 1_555
H34 C33 1_555 1_555
H35 C33 1_555 1_555
C34 C33 1_555 1_555
H36 C34 1_555 1_555
H37 C34 1_555 1_555
H38 C34 1_555 1_555
C3 C4 1_555 1_555
C9 C10 1_555 1_555
C15 C16 1_555 1_555
C21 C22 1_555 1_555
C25 C26 1_555 1_555

#END
