
#######################################################################
#
#                 Cambridge Crystallographic Data Centre
#                                CCDC 
#
#######################################################################
#
# If this CIF has been generated from an entry in the Cambridge 
# Structural Database, then it will include bibliographic, chemical, 
# crystal, experimental, refinement or atomic coordinate data resulting 
# from the CCDC's data processing and validation procedures.
#
#######################################################################

data_JEKHUD
_chemical_name_common            
'diethyl 4-((3-(ethoxy)-3-oxoprop-1-en-1-yl)oxy)-7-methyl-2-(4-methylphenyl)-2,3,9,9a-tetrahydronaphtho[2,3-b]furan-3,9-dicarboxylate'
_chemical_formula_moiety         'C31 H34 O8'
_chemical_name_systematic        
'diethyl 4-([3-(ethyloxy)-3-oxoprop-1-en-1-yl]oxy)-7-methyl-2-(4-methylphenyl)-2,3,9,9a-tetrahydronaphtho[2,3-b]furan-3,9-dicarboxylate'
_symmetry_cell_setting           monoclinic
_symmetry_space_group_name_H-M   'P 21/c'
_symmetry_Int_Tables_number      14
_space_group_name_Hall           '-P 2ybc'
loop_
_symmetry_equiv_pos_site_id
_symmetry_equiv_pos_as_xyz
1 x,y,z
2 -x,1/2+y,1/2-z
3 -x,-y,-z
4 x,1/2-y,1/2+z
_cell_length_a                   11.573(3)
_cell_length_b                   14.732(4)
_cell_length_c                   17.032(5)
_cell_angle_alpha                90
_cell_angle_beta                 98.886(11)
_cell_angle_gamma                90
_cell_volume                     2868.99
_exptl_crystal_colour            colorless
_exptl_crystal_description       block
_chemical_melting_point          '152-153 deg.C'
_cell_formula_units_Z            4
loop_
_atom_site_label
_atom_site_type_symbol
_atom_site_fract_x
_atom_site_fract_y
_atom_site_fract_z
O1 O 0.54443(10) 0.59726(9) 0.28273(8)
O2 O 0.79376(11) 0.69971(9) 0.34600(9)
O3 O 0.84730(10) 0.55979(8) 0.38743(8)
O4 O 0.36280(11) 0.59220(9) 0.50991(9)
O5 O 0.05525(12) 0.73251(12) 0.51564(11)
O6 O 0.10163(12) 0.83030(10) 0.42520(10)
O7 O 0.31395(10) 0.71436(9) 0.27779(9)
O8 O 0.17494(12) 0.60816(11) 0.26105(11)
C1 C 0.55693(13) 0.64148(12) 0.35776(11)
C2 C 0.66527(12) 0.61012(12) 0.41280(11)
C3 C 0.66530(13) 0.65253(11) 0.49429(11)
C4 C 0.76527(16) 0.68337(12) 0.54146(11)
C5 C 0.76273(17) 0.71892(12) 0.61716(12)
C6 C 0.65662(19) 0.72226(13) 0.64464(12)
C7 C 0.55638(18) 0.69177(12) 0.59848(12)
C8 C 0.55733(14) 0.65674(11) 0.52301(12)
C9 C 0.45407(14) 0.62354(12) 0.47136(12)
C10 C 0.45042(13) 0.61529(12) 0.39376(12)
C11 C 0.36505(14) 0.56997(12) 0.33046(12)
C12 C 0.45144(16) 0.53121(12) 0.27746(12)
C13 C 0.77474(13) 0.63084(12) 0.37799(11)
C14 C 0.95655(14) 0.56824(13) 0.35521(13)
C15 C 1.02757(19) 0.48734(17) 0.38202(18)
C16 C 0.8727(2) 0.75436(19) 0.66644(13)
C17 C 0.26325(14) 0.64156(13) 0.50597(12)
C18 C 0.23638(14) 0.71780(12) 0.46805(12)
C19 C 0.12240(17) 0.75943(14) 0.47370(13)
C20 C -0.0100(2) 0.8764(2) 0.4247(2)
C21 C -0.0246(2) 0.9430(2) 0.3615(2)
C22 C 0.27365(16) 0.63118(13) 0.28606(12)
C23 C 0.2324(2) 0.77892(17) 0.23557(17)
C24 C 0.2890(2) 0.86893(18) 0.2427(2)
C25 C 0.40754(16) 0.51347(12) 0.19112(12)
C26 C 0.4067(2) 0.58001(13) 0.13543(14)
C27 C 0.3708(2) 0.56271(17) 0.05590(16)
C28 C 0.33450(19) 0.47700(17) 0.02932(14)
C29 C 0.2982(2) 0.4574(2) -0.05682(18)
C30 C 0.3334(2) 0.41182(17) 0.08643(18)
C31 C 0.3697(2) 0.42927(14) 0.16536(16)
H1 H 0.5593 0.7074 0.3507
H2 H 0.6601 0.5441 0.4186
H3 H 0.8402 0.6799 0.5215
H4 H 0.6530 0.7471 0.6976
H5 H 0.4822 0.6947 0.6194
H6 H 0.4846 0.4746 0.3015
H7 H 0.9407 0.5704 0.2982
H8 H 0.9971 0.6224 0.3749
H9 H 0.4323 0.6413 0.1523
H10 H 0.3710 0.6118 0.0171
H11 H 0.3063 0.3507 0.0700
H12 H 0.3684 0.3803 0.2042
H13 H 0.3271 0.5196 0.3541
H14 H 0.2035 0.6169 0.5351
H15 H 0.2907 0.7466 0.4368
H16 H -0.0737 0.8330 0.4160
H17 H -0.0099 0.9065 0.4754
H18 H 0.2141 0.7619 0.1800
H19 H 0.1611 0.7801 0.2589
H20 H 1.0753 0.4998 0.4321
H21 H 1.0768 0.4727 0.3433
H22 H 0.9769 0.4370 0.3878
H23 H 0.9138 0.7047 0.6947
H24 H 0.9215 0.7820 0.6324
H25 H 0.8532 0.7985 0.7037
H26 H 0.0076 1.0000 0.3816
H27 H -0.1063 0.9505 0.3416
H28 H 0.0154 0.9228 0.3194
H29 H 0.2158 0.4682 -0.0709
H30 H 0.3150 0.3952 -0.0674
H31 H 0.3403 0.4964 -0.0876
H32 H 0.2709 0.8989 0.2894
H33 H 0.2604 0.9046 0.1967
H34 H 0.3722 0.8620 0.2468
loop_
_geom_bond_atom_site_label_1
_geom_bond_atom_site_label_2
_geom_bond_site_symmetry_1
_geom_bond_site_symmetry_2
O1 C1 1_555 1_555
O2 C13 1_555 1_555
O3 C13 1_555 1_555
O4 C9 1_555 1_555
O5 C19 1_555 1_555
O6 C19 1_555 1_555
O7 C22 1_555 1_555
O8 C22 1_555 1_555
C1 C2 1_555 1_555
C2 C3 1_555 1_555
C3 C4 1_555 1_555
C4 C5 1_555 1_555
C5 C6 1_555 1_555
C6 C7 1_555 1_555
C7 C8 1_555 1_555
C8 C3 1_555 1_555
C9 C8 1_555 1_555
C10 C1 1_555 1_555
C11 C10 1_555 1_555
C12 O1 1_555 1_555
C13 C2 1_555 1_555
C14 O3 1_555 1_555
C15 C14 1_555 1_555
C16 C5 1_555 1_555
C17 O4 1_555 1_555
C18 C17 1_555 1_555
C19 C18 1_555 1_555
C20 O6 1_555 1_555
C21 C20 1_555 1_555
C22 C11 1_555 1_555
C23 O7 1_555 1_555
C24 C23 1_555 1_555
C25 C12 1_555 1_555
C26 C25 1_555 1_555
C27 C26 1_555 1_555
C28 C27 1_555 1_555
C29 C28 1_555 1_555
C30 C28 1_555 1_555
C31 C25 1_555 1_555
H1 C1 1_555 1_555
H2 C2 1_555 1_555
H3 C4 1_555 1_555
H4 C6 1_555 1_555
H5 C7 1_555 1_555
H6 C12 1_555 1_555
H7 C14 1_555 1_555
H8 C14 1_555 1_555
H9 C26 1_555 1_555
H10 C27 1_555 1_555
H11 C30 1_555 1_555
H12 C31 1_555 1_555
H13 C11 1_555 1_555
H14 C17 1_555 1_555
H15 C18 1_555 1_555
H16 C20 1_555 1_555
H17 C20 1_555 1_555
H18 C23 1_555 1_555
H19 C23 1_555 1_555
H20 C15 1_555 1_555
H21 C15 1_555 1_555
H22 C15 1_555 1_555
H23 C16 1_555 1_555
H24 C16 1_555 1_555
H25 C16 1_555 1_555
H26 C21 1_555 1_555
H27 C21 1_555 1_555
H28 C21 1_555 1_555
H29 C29 1_555 1_555
H30 C29 1_555 1_555
H31 C29 1_555 1_555
H32 C24 1_555 1_555
H33 C24 1_555 1_555
H34 C24 1_555 1_555
C9 C10 1_555 1_555
C11 C12 1_555 1_555
C30 C31 1_555 1_555

#END
