
#######################################################################
#
#                 Cambridge Crystallographic Data Centre
#                                CCDC 
#
#######################################################################
#
# If this CIF has been generated from an entry in the Cambridge 
# Structural Database, then it will include bibliographic, chemical, 
# crystal, experimental, refinement or atomic coordinate data resulting 
# from the CCDC's data processing and validation procedures.
#
#######################################################################

data_JEKJEO
_chemical_formula_moiety         'C11 H13 N1 O2'
_chemical_name_systematic        L-1-Benzyl-4-hydroxymethyl-2-azetidinone
_symmetry_cell_setting           orthorhombic
_symmetry_space_group_name_H-M   'P 21 21 21'
_symmetry_Int_Tables_number      19
_space_group_name_Hall           'P 2ac 2ab'
loop_
_symmetry_equiv_pos_site_id
_symmetry_equiv_pos_as_xyz
1 x,y,z
2 1/2+x,1/2-y,-z
3 -x,1/2+y,1/2-z
4 1/2-x,-y,1/2+z
_cell_length_a                   7.183(1)
_cell_length_b                   6.364(1)
_cell_length_c                   21.79(1)
_cell_angle_alpha                90
_cell_angle_beta                 90
_cell_angle_gamma                90
_cell_volume                     996.078
_exptl_crystal_colour            colorless
_cell_formula_units_Z            4
loop_
_atom_site_label
_atom_site_type_symbol
_atom_site_fract_x
_atom_site_fract_y
_atom_site_fract_z
N1 N 0.4379(3) 0.3952(4) 0.1637(1)
C1 C 0.3910(4) 0.1926(5) 0.1691(1)
C2 C 0.1873(5) 0.2349(6) 0.1559(2)
C3 C 0.2450(4) 0.4690(6) 0.1529(1)
C4 C 0.1705(5) 0.6116(7) 0.2018(2)
O1 O 0.1731(4) 0.5171(5) 0.2604(1)
C5 C 0.6144(4) 0.5049(6) 0.1679(1)
C6 C 0.7117(4) 0.5285(5) 0.1070(1)
C7 C 0.7273(5) 0.3585(5) 0.0675(1)
C8 C 0.8195(5) 0.3788(6) 0.0117(2)
C9 C 0.8960(5) 0.5677(6) -0.0050(2)
C10 C 0.8843(6) 0.7366(7) 0.0342(2)
C11 C 0.7917(5) 0.7172(5) 0.0900(2)
O2 O 0.4847(3) 0.0367(4) 0.1801(1)
H1 H 0.101(5) 0.221(6) 0.188(2)
H2 H 0.150(7) 0.164(7) 0.117(2)
H3 H 0.228(5) 0.527(6) 0.118(2)
H4 H 0.245(5) 0.731(5) 0.201(1)
H5 H 0.043(5) 0.628(6) 0.190(2)
H6 H 0.277(7) 0.522(7) 0.273(2)
H7 H 0.693(4) 0.433(5) 0.194(1)
H8 H 0.603(6) 0.634(7) 0.189(2)
H9 H 0.684(6) 0.204(6) 0.080(2)
H10 H 0.828(6) 0.261(7) -0.017(2)
H11 H 0.949(5) 0.578(6) -0.045(2)
H12 H 0.926(7) 0.868(8) 0.025(2)
H13 H 0.781(5) 0.822(5) 0.113(2)
loop_
_geom_bond_atom_site_label_1
_geom_bond_atom_site_label_2
_geom_bond_site_symmetry_1
_geom_bond_site_symmetry_2
N1 C1 1_555 1_555
C1 C2 1_555 1_555
C2 C3 1_555 1_555
C3 N1 1_555 1_555
C4 C3 1_555 1_555
O1 C4 1_555 1_555
C5 N1 1_555 1_555
C6 C5 1_555 1_555
C7 C6 1_555 1_555
C8 C7 1_555 1_555
C9 C8 1_555 1_555
C10 C9 1_555 1_555
C11 C6 1_555 1_555
O2 C1 1_555 1_555
H1 C2 1_555 1_555
H2 C2 1_555 1_555
H3 C3 1_555 1_555
H4 C4 1_555 1_555
H5 C4 1_555 1_555
H6 O1 1_555 1_555
H7 C5 1_555 1_555
H8 C5 1_555 1_555
H9 C7 1_555 1_555
H10 C8 1_555 1_555
H11 C9 1_555 1_555
H12 C10 1_555 1_555
H13 C11 1_555 1_555
C10 C11 1_555 1_555

#END
