
#######################################################################
#
#                 Cambridge Crystallographic Data Centre
#                                CCDC 
#
#######################################################################
#
# If this CIF has been generated from an entry in the Cambridge 
# Structural Database, then it will include bibliographic, chemical, 
# crystal, experimental, refinement or atomic coordinate data resulting 
# from the CCDC's data processing and validation procedures.
#
#######################################################################

data_JEKJUH
_chemical_formula_moiety         'C27 H27 N1 O4,0.5(C4 H8 O2)'
_chemical_name_systematic        
'3a-(3,4-dimethoxyphenyl)-1-methoxy-7-(4-phenylbuta-1,3-diyn-1-yl)octahydro-2H-indol-2-one ethyl acetate solvate'
_symmetry_cell_setting           triclinic
_symmetry_space_group_name_H-M   'P -1'
_symmetry_Int_Tables_number      2
_space_group_name_Hall           '-P 1'
loop_
_symmetry_equiv_pos_site_id
_symmetry_equiv_pos_as_xyz
1 x,y,z
2 -x,-y,-z
_cell_length_a                   10.3428(7)
_cell_length_b                   16.0861(11)
_cell_length_c                   17.3663(12)
_cell_angle_alpha                65.705(3)
_cell_angle_beta                 73.172(4)
_cell_angle_gamma                89.520(4)
_cell_volume                     2500.29
_exptl_crystal_colour            colorless
_exptl_crystal_description       plate
_cell_formula_units_Z            4
loop_
_atom_site_label
_atom_site_type_symbol
_atom_site_fract_x
_atom_site_fract_y
_atom_site_fract_z
O1 O 0.14864(12) 0.06430(8) 0.42312(8)
O2 O 0.18174(12) -0.03760(8) 0.58399(8)
O3 O -0.57148(12) 0.17598(8) 0.75151(9)
O4 O -0.50992(12) 0.03146(8) 0.72538(9)
N1 N 0.12870(13) 0.04657(9) 0.56441(9)
C1 C 0.02133(15) 0.05484(10) 0.63677(10)
H1 H -0.0576 0.0068 0.6581
C2 C -0.01820(15) 0.15110(10) 0.58432(10)
C3 C 0.09017(16) 0.22744(11) 0.56759(11)
H2 H 0.1754 0.2263 0.5237
H3 H 0.0582 0.2878 0.5411
C4 C 0.12166(17) 0.21867(11) 0.65108(12)
H4 H 0.1921 0.2693 0.6353
H5 H 0.0385 0.2236 0.6942
C5 C 0.17219(18) 0.12635(12) 0.69346(12)
H6 H 0.1906 0.1207 0.7481
H7 H 0.2582 0.1229 0.6516
C6 C 0.06491(17) 0.04753(11) 0.71651(11)
H8 H -0.018 0.0527 0.7606
C7 C -0.00369(16) 0.14902(11) 0.49363(10)
H9 H -0.092 0.1266 0.4929
H10 H 0.0287 0.2111 0.4442
C8 C 0.09958(15) 0.08374(10) 0.48562(10)
C9 C 0.32547(17) -0.02165(13) 0.56474(13)
H11 H 0.3671 0.0196 0.5016
H12 H 0.3632 -0.0802 0.5782
H13 H 0.3448 0.0067 0.6012
C10 C 0.10492(18) -0.04359(12) 0.76063(11)
C11 C 0.13623(19) -0.11881(13) 0.79622(12)
C12 C 0.17008(19) -0.20544(13) 0.83722(12)
C13 C 0.1981(2) -0.28158(13) 0.87401(12)
C14 C 0.2327(2) -0.37129(14) 0.91930(14)
C15 C 0.3534(2) -0.39883(15) 0.88168(15)
H14 H 0.4124 -0.3586 0.8246
C16 C 0.3878(3) -0.48476(18) 0.9273(2)
H15 H 0.4682 -0.5045 0.9004
C17 C 0.3050(4) -0.5418(2) 1.0119(2)
H16 H 0.3301 -0.6001 1.0436
C18 C 0.1865(4) -0.5148(2) 1.0506(2)
H17 H 0.131 -0.554 1.1092
C19 C 0.1479(3) -0.43019(19) 1.00403(19)
H18 H 0.0644 -0.4126 1.0297
C20 C -0.16327(15) 0.16131(10) 0.63015(10)
C21 C -0.19861(16) 0.23843(10) 0.64463(10)
H19 H -0.1296 0.2873 0.6265
C22 C -0.33431(16) 0.24558(11) 0.68547(11)
H20 H -0.3558 0.2989 0.6948
C23 C -0.43666(16) 0.17574(11) 0.71218(11)
C24 C -0.40289(16) 0.09691(11) 0.69786(11)
C25 C -0.26903(16) 0.09077(10) 0.65703(11)
H21 H -0.2479 0.0378 0.6469
C26 C -0.60942(19) 0.25366(13) 0.76911(13)
H22 H -0.5827 0.3096 0.7131
H23 H -0.5633 0.2589 0.8092
H24 H -0.7082 0.2457 0.7971
C27 C -0.47670(18) -0.05503(12) 0.72624(14)
H25 H -0.4332 -0.0473 0.6651
H26 H -0.56 -0.0987 0.7533
H27 H -0.4141 -0.0786 0.7609
O5 O 0.42083(13) 0.56417(8) 0.42335(8)
O6 O 0.23903(12) 0.46253(8) 0.58630(8)
O7 O 0.83718(13) 0.67723(8) 0.74236(9)
O8 O 0.80234(14) 0.53297(9) 0.71591(10)
N2 N 0.30920(14) 0.54707(9) 0.56511(9)
C28 C 0.35035(16) 0.55643(10) 0.63579(10)
H28 H 0.4106 0.5087 0.6561
C29 C 0.43821(15) 0.65262(10) 0.58146(10)
C30 C 0.34395(16) 0.72896(11) 0.56610(11)
H29 H 0.4004 0.7894 0.5386
H30 H 0.299 0.7276 0.5234
C31 C 0.23435(17) 0.72050(11) 0.65068(12)
H31 H 0.1774 0.7709 0.6356
H32 H 0.278 0.7262 0.6924
C32 C 0.14474(17) 0.62788(12) 0.69534(13)
H33 H 0.0966 0.6236 0.6552
H34 H 0.0756 0.6225 0.7508
C33 C 0.23346(17) 0.54970(11) 0.71681(11)
H35 H 0.2769 0.5563 0.7588
C34 C 0.50756(16) 0.64992(11) 0.49077(10)
H36 H 0.52 0.7118 0.4412
H37 H 0.5976 0.6277 0.4885
C35 C 0.41180(16) 0.58408(11) 0.48509(11)
C36 C 0.11107(18) 0.47772(13) 0.57021(14)
H38 H 0.1266 0.5176 0.5071
H39 H 0.0584 0.5072 0.6064
H40 H 0.0605 0.4187 0.5861
C37 C 0.15291(18) 0.45850(12) 0.76421(12)
C38 C 0.08650(18) 0.38422(13) 0.80206(12)
C39 C 0.00992(19) 0.29901(13) 0.84309(12)
C40 C -0.05766(19) 0.22529(13) 0.87917(12)
C41 C -0.14533(19) 0.13969(12) 0.92560(12)
C42 C -0.2160(2) 0.10997(14) 0.88204(13)
H41 H -0.2016 0.1447 0.8202
C43 C -0.3066(3) 0.03020(16) 0.92894(16)
H42 H -0.3537 0.0095 0.8993
C44 C -0.3288(3) -0.01997(16) 1.01993(16)
H43 H -0.392 -0.0744 1.0522
C45 C -0.2597(3) 0.00882(15) 1.06357(14)
H44 H -0.2754 -0.0258 1.1256
C46 C -0.1678(2) 0.08807(15) 1.01703(13)
H45 H -0.1197 0.1076 1.047
C47 C 0.54145(15) 0.66300(10) 0.62544(10)
C48 C 0.56089(16) 0.73937(11) 0.64099(11)
H46 H 0.5068 0.7878 0.6246
C49 C 0.65848(16) 0.74647(11) 0.68026(11)
H47 H 0.6699 0.7994 0.6901
C50 C 0.73832(16) 0.67698(11) 0.70478(11)
C51 C 0.72032(17) 0.59893(11) 0.68948(11)
C52 C 0.62380(16) 0.59300(11) 0.65022(11)
H48 H 0.613 0.5403 0.6398
C53 C 0.8518(2) 0.75214(13) 0.76472(13)
H49 H 0.878 0.8099 0.7104
H50 H 0.9222 0.7429 0.7939
H51 H 0.765 0.7549 0.8052
C54 C 0.7683(2) 0.44653(12) 0.71754(15)
H52 H 0.782 0.454 0.6567
H53 H 0.6727 0.4235 0.7532
H54 H 0.8267 0.4026 0.7439
O9 O 0.2715(4) 0.1303(3) 0.1306(3)
O10 O 0.3973(3) 0.2364(3) -0.0028(3)
C55 C 0.2821(5) 0.1859(4) 0.0539(4)
C56 C 0.1676(5) 0.2103(9) 0.0161(4)
H55 H 0.1662 0.1772 -0.0202
H56 H 0.1799 0.2767 -0.0211
H57 H 0.0812 0.1931 0.0646
C57 C 0.5165(4) 0.2230(3) 0.0259(3)
H58 H 0.5399 0.1599 0.0382
H59 H 0.4999 0.232 0.0809
C58 C 0.6279(5) 0.2914(3) -0.0469(3)
H60 H 0.6417 0.2826 -0.1012
H61 H 0.7118 0.2836 -0.0306
H62 H 0.6043 0.3534 -0.0574
O11? O 0.3320(12) 0.1724(9) 0.0932(7)
O12? O 0.4189(7) 0.2598(7) -0.0509(7)
C59? C 0.3194(15) 0.2242(12) 0.0203(9)
C60? C 0.1817(19) 0.237(3) 0.0064(18)
H63? H 0.1206 0.179 0.0431
H64? H 0.1917 0.2549 -0.0564
H65? H 0.1434 0.285 0.0235
C61? C 0.5526(8) 0.2354(7) -0.0426(6)
H66? H 0.6181 0.2497 -0.1021
H67? H 0.5456 0.1686 -0.0051
C62? C 0.6016(18) 0.2886(14) -0.0014(16)
H68? H 0.6004 0.3544 -0.0358
H69? H 0.6948 0.2772 -0.0011
H70? H 0.5419 0.2693 0.0599
loop_
_geom_bond_atom_site_label_1
_geom_bond_atom_site_label_2
_geom_bond_site_symmetry_1
_geom_bond_site_symmetry_2
O1 C8 1_555 1_555
O2 N1 1_555 1_555
O3 C23 1_555 1_555
O4 C24 1_555 1_555
N1 C1 1_555 1_555
C1 H1 1_555 1_555
C2 C1 1_555 1_555
C3 C2 1_555 1_555
H2 C3 1_555 1_555
H3 C3 1_555 1_555
C4 C3 1_555 1_555
H4 C4 1_555 1_555
H5 C4 1_555 1_555
C5 C4 1_555 1_555
H6 C5 1_555 1_555
H7 C5 1_555 1_555
C6 C1 1_555 1_555
H8 C6 1_555 1_555
C7 C2 1_555 1_555
H9 C7 1_555 1_555
H10 C7 1_555 1_555
C8 N1 1_555 1_555
C9 O2 1_555 1_555
H11 C9 1_555 1_555
H12 C9 1_555 1_555
H13 C9 1_555 1_555
C10 C6 1_555 1_555
C11 C10 1_555 1_555
C12 C11 1_555 1_555
C13 C12 1_555 1_555
C14 C13 1_555 1_555
C15 C14 1_555 1_555
H14 C15 1_555 1_555
C16 C15 1_555 1_555
H15 C16 1_555 1_555
C17 C16 1_555 1_555
H16 C17 1_555 1_555
C18 C17 1_555 1_555
H17 C18 1_555 1_555
C19 C14 1_555 1_555
H18 C19 1_555 1_555
C20 C2 1_555 1_555
C21 C20 1_555 1_555
H19 C21 1_555 1_555
C22 C21 1_555 1_555
H20 C22 1_555 1_555
C23 C22 1_555 1_555
C24 C23 1_555 1_555
C25 C20 1_555 1_555
H21 C25 1_555 1_555
C26 O3 1_555 1_555
H22 C26 1_555 1_555
H23 C26 1_555 1_555
H24 C26 1_555 1_555
C27 O4 1_555 1_555
H25 C27 1_555 1_555
H26 C27 1_555 1_555
H27 C27 1_555 1_555
O5 C35 1_555 1_555
O6 N2 1_555 1_555
O7 C50 1_555 1_555
O8 C51 1_555 1_555
N2 C28 1_555 1_555
C28 H28 1_555 1_555
C29 C28 1_555 1_555
C30 C29 1_555 1_555
H29 C30 1_555 1_555
H30 C30 1_555 1_555
C31 C30 1_555 1_555
H31 C31 1_555 1_555
H32 C31 1_555 1_555
C32 C31 1_555 1_555
H33 C32 1_555 1_555
H34 C32 1_555 1_555
C33 C28 1_555 1_555
H35 C33 1_555 1_555
C34 C29 1_555 1_555
H36 C34 1_555 1_555
H37 C34 1_555 1_555
C35 N2 1_555 1_555
C36 O6 1_555 1_555
H38 C36 1_555 1_555
H39 C36 1_555 1_555
H40 C36 1_555 1_555
C37 C33 1_555 1_555
C38 C37 1_555 1_555
C39 C38 1_555 1_555
C40 C39 1_555 1_555
C41 C40 1_555 1_555
C42 C41 1_555 1_555
H41 C42 1_555 1_555
C43 C42 1_555 1_555
H42 C43 1_555 1_555
C44 C43 1_555 1_555
H43 C44 1_555 1_555
C45 C44 1_555 1_555
H44 C45 1_555 1_555
C46 C41 1_555 1_555
H45 C46 1_555 1_555
C47 C29 1_555 1_555
C48 C47 1_555 1_555
H46 C48 1_555 1_555
C49 C48 1_555 1_555
H47 C49 1_555 1_555
C50 C49 1_555 1_555
C51 C50 1_555 1_555
C52 C47 1_555 1_555
H48 C52 1_555 1_555
C53 O7 1_555 1_555
H49 C53 1_555 1_555
H50 C53 1_555 1_555
H51 C53 1_555 1_555
C54 O8 1_555 1_555
H52 C54 1_555 1_555
H53 C54 1_555 1_555
H54 C54 1_555 1_555
O9 C55 1_555 1_555
O10 C55 1_555 1_555
C55 C56 1_555 1_555
C56 H55 1_555 1_555
H56 C56 1_555 1_555
H57 C56 1_555 1_555
C57 O10 1_555 1_555
H58 C57 1_555 1_555
H59 C57 1_555 1_555
C58 C57 1_555 1_555
H60 C58 1_555 1_555
H61 C58 1_555 1_555
H62 C58 1_555 1_555
C5 C6 1_555 1_555
C7 C8 1_555 1_555
C18 C19 1_555 1_555
C24 C25 1_555 1_555
C32 C33 1_555 1_555
C34 C35 1_555 1_555
C45 C46 1_555 1_555
C51 C52 1_555 1_555

#END
