
#######################################################################
#
#                 Cambridge Crystallographic Data Centre
#                                CCDC 
#
#######################################################################
#
# If this CIF has been generated from an entry in the Cambridge 
# Structural Database, then it will include bibliographic, chemical, 
# crystal, experimental, refinement or atomic coordinate data resulting 
# from the CCDC's data processing and validation procedures.
#
#######################################################################

data_JEKJER
_chemical_formula_moiety         'C34 H35 B2 P2 1+,C1 F3 O3 S1 1-,2(C6 H6)'
_chemical_name_systematic        
'1,1-bis(trimethylphosphonio)-2-(anthracen-9-yl)-1,2-dihydroanthra[1,9-cd][1,2]diborole-1-ide trifluoromethanesulfonate benzene solvate'
_symmetry_cell_setting           monoclinic
_symmetry_space_group_name_H-M   'P 21/c'
_symmetry_Int_Tables_number      14
_space_group_name_Hall           '-P 2ybc'
loop_
_symmetry_equiv_pos_site_id
_symmetry_equiv_pos_as_xyz
1 x,y,z
2 -x,1/2+y,1/2-z
3 -x,-y,-z
4 x,1/2-y,1/2+z
_cell_length_a                   11.0551(4)
_cell_length_b                   13.8648(6)
_cell_length_c                   28.6834(11)
_cell_angle_alpha                90
_cell_angle_beta                 99.6580(10)
_cell_angle_gamma                90
_cell_volume                     4334.19
_exptl_crystal_colour            yellow
_exptl_crystal_description       block
_cell_formula_units_Z            4
loop_
_atom_site_label
_atom_site_type_symbol
_atom_site_fract_x
_atom_site_fract_y
_atom_site_fract_z
S1 S 0.50864(5) 0.28575(4) 0.55444(2)
F1 F 0.45975(16) 0.11179(11) 0.52003(6)
O1 O 0.39682(15) 0.31790(13) 0.52572(6)
F2 F 0.38812(16) 0.14008(12) 0.58349(6)
F3 F 0.58037(17) 0.11485(13) 0.58725(7)
O2 O 0.61408(15) 0.28880(13) 0.53147(7)
O3 O 0.5273(2) 0.32086(14) 0.60212(6)
C1 C 0.4841(2) 0.15690(19) 0.56175(9)
B1 B 0.6503(2) 0.20643(18) 0.86624(8)
P1 P 0.65561(5) 0.09077(4) 0.90583(2)
B2 B 0.7963(2) 0.24748(17) 0.85594(9)
P2 P 0.57635(5) 0.31637(4) 0.89303(2)
C2 C 0.65507(19) 0.23985(15) 0.78095(7)
C3 C 0.58136(19) 0.19695(15) 0.81069(7)
C4 C 0.92826(19) 0.25663(16) 0.88660(7)
C5 C 0.97494(19) 0.34321(16) 0.90854(7)
C6 C 0.4673(2) 0.15790(16) 0.78952(7)
C7 C 1.11822(19) 0.17430(16) 0.92516(8)
C8 C 0.4313(2) 0.16172(16) 0.73859(7)
C9 C 1.00448(19) 0.17375(16) 0.89229(8)
C10 C 0.6165(2) 0.24987(16) 0.73084(7)
C11 C 0.7736(2) 0.27271(16) 0.80293(8)
C12 C 0.6975(2) 0.29791(17) 0.70511(8)
H1 H 0.6728 0.3082 0.6721
C13 C 1.1566(2) 0.25875(17) 0.94927(8)
H2 H 1.2298 0.2584 0.9720
C14 C 0.8499(2) 0.31640(16) 0.77560(8)
H3 H 0.9293 0.3375 0.7899
C15 C 0.9133(2) 0.43377(16) 0.89923(8)
H4 H 0.8387 0.4359 0.8774
C16 C 0.3843(2) 0.11339(16) 0.81582(8)
H5 H 0.4043 0.1118 0.8493
C17 C 0.5048(2) 0.20933(17) 0.71060(8)
H6 H 0.4782 0.2140 0.6774
C18 C 1.0696(2) 0.51561(18) 0.95356(8)
H7 H 1.0997 0.5736 0.9690
C19 C 1.08982(19) 0.34383(17) 0.94080(7)
C20 C 0.5565(2) 0.41371(16) 0.85067(8)
H8 H 0.6344 0.4264 0.8398
H9 H 0.5300 0.4719 0.8656
H10 H 0.4942 0.3957 0.8236
C21 C 0.5301(2) 0.06220(17) 0.93683(8)
H11 H 0.4549 0.0523 0.9138
H12 H 0.5180 0.1156 0.9579
H13 H 0.5496 0.0033 0.9554
C22 C 1.1330(2) 0.43256(17) 0.96304(8)
H14 H 1.2078 0.4331 0.9849
C23 C 0.9714(2) 0.08704(17) 0.86635(8)
H15 H 0.8987 0.0860 0.8434
C24 C 0.3191(2) 0.11672(17) 0.71771(8)
H16 H 0.2963 0.1172 0.6843
C25 C 0.6673(2) -0.01379(16) 0.86963(8)
H17 H 0.5987 -0.0143 0.8431
H18 H 0.6645 -0.0722 0.8886
H19 H 0.7450 -0.0117 0.8575
C26 C 1.1885(2) 0.08734(17) 0.93201(9)
H20 H 1.2627 0.0866 0.9542
C27 C 0.4240(2) 0.29879(18) 0.90655(9)
H21 H 0.3910 0.3608 0.9150
H22 H 0.4278 0.2539 0.9332
H23 H 0.3706 0.2721 0.8788
C28 C 0.7837(2) 0.08928(18) 0.95407(8)
H24 H 0.8601 0.0996 0.9417
H25 H 0.7870 0.0267 0.9702
H26 H 0.7735 0.1407 0.9765
C29 C 0.2765(2) 0.07288(18) 0.79427(9)
H27 H 0.2229 0.0442 0.8129
C30 C 0.9583(2) 0.51664(17) 0.92071(8)
H28 H 0.9151 0.5755 0.9137
C31 C 0.6638(2) 0.36149(17) 0.94744(8)
H29 H 0.7484 0.3737 0.9430
H30 H 0.6635 0.3136 0.9725
H31 H 0.6269 0.4216 0.9563
C32 C 0.8106(2) 0.32984(17) 0.72668(8)
H32 H 0.8630 0.3614 0.7084
C33 C 1.0414(2) 0.00578(18) 0.87375(9)
H33 H 1.0166 -0.0512 0.8563
C34 C 0.2440(2) 0.07334(17) 0.74418(9)
H34 H 0.1702 0.0434 0.7294
C35 C 1.1516(2) 0.00604(18) 0.90760(9)
H35 H 1.1994 -0.0511 0.9130
C36 C 1.1276(2) 0.28746(18) 0.57750(9)
H36 H 1.1939 0.3034 0.5617
C37 C 1.1491(2) 0.26925(18) 0.62553(9)
H37 H 1.2300 0.2737 0.6429
C38 C 1.0527(3) 0.24454(18) 0.64850(9)
H38 H 1.0675 0.2312 0.6815
C39 C 1.0095(2) 0.28242(18) 0.55251(9)
H39 H 0.9947 0.2954 0.5195
C40 C 0.9130(2) 0.25874(18) 0.57511(9)
H40 H 0.8320 0.2557 0.5578
C41 C 0.9346(2) 0.23941(18) 0.62309(10)
H41 H 0.8683 0.2225 0.6387
C42 C 0.1760(2) 0.37206(19) 0.81858(9)
H42 H 0.1425 0.3282 0.8384
C43 C 0.2205(2) 0.33861(18) 0.77933(9)
H43 H 0.2174 0.2717 0.7721
C44 C 0.2696(2) 0.40253(18) 0.75053(8)
H44 H 0.3005 0.3793 0.7237
C45 C 0.2739(3) 0.49940(19) 0.76058(9)
H45 H 0.3077 0.5432 0.7408
C46 C 0.1802(3) 0.4690(2) 0.82879(10)
H46 H 0.1498 0.4922 0.8558
C47 C 0.2286(3) 0.5327(2) 0.79975(11)
H47 H 0.2308 0.5997 0.8067
loop_
_geom_bond_atom_site_label_1
_geom_bond_atom_site_label_2
_geom_bond_site_symmetry_1
_geom_bond_site_symmetry_2
S1 O1 1_555 1_555
F1 C1 1_555 1_555
F2 C1 1_555 1_555
F3 C1 1_555 1_555
O2 S1 1_555 1_555
O3 S1 1_555 1_555
C1 S1 1_555 1_555
B1 P1 1_555 1_555
P1 C21 1_555 1_555
B2 B1 1_555 1_555
P2 B1 1_555 1_555
C2 C3 1_555 1_555
C3 B1 1_555 1_555
C4 B2 1_555 1_555
C5 C4 1_555 1_555
C6 C3 1_555 1_555
C7 C9 1_555 1_555
C8 C6 1_555 1_555
C9 C4 1_555 1_555
C10 C2 1_555 1_555
C11 B2 1_555 1_555
C12 C10 1_555 1_555
H1 C12 1_555 1_555
C13 C7 1_555 1_555
H2 C13 1_555 1_555
C14 C11 1_555 1_555
H3 C14 1_555 1_555
C15 C5 1_555 1_555
H4 C15 1_555 1_555
C16 C6 1_555 1_555
H5 C16 1_555 1_555
C17 C8 1_555 1_555
H6 C17 1_555 1_555
C18 H7 1_555 1_555
C19 C5 1_555 1_555
C20 P2 1_555 1_555
H8 C20 1_555 1_555
H9 C20 1_555 1_555
H10 C20 1_555 1_555
C21 H11 1_555 1_555
H12 C21 1_555 1_555
H13 C21 1_555 1_555
C22 C18 1_555 1_555
H14 C22 1_555 1_555
C23 C9 1_555 1_555
H15 C23 1_555 1_555
C24 C8 1_555 1_555
H16 C24 1_555 1_555
C25 P1 1_555 1_555
H17 C25 1_555 1_555
H18 C25 1_555 1_555
H19 C25 1_555 1_555
C26 C7 1_555 1_555
H20 C26 1_555 1_555
C27 P2 1_555 1_555
H21 C27 1_555 1_555
H22 C27 1_555 1_555
H23 C27 1_555 1_555
C28 P1 1_555 1_555
H24 C28 1_555 1_555
H25 C28 1_555 1_555
H26 C28 1_555 1_555
C29 C16 1_555 1_555
H27 C29 1_555 1_555
C30 C15 1_555 1_555
H28 C30 1_555 1_555
C31 P2 1_555 1_555
H29 C31 1_555 1_555
H30 C31 1_555 1_555
H31 C31 1_555 1_555
C32 C12 1_555 1_555
H32 C32 1_555 1_555
C33 C23 1_555 1_555
H33 C33 1_555 1_555
C34 C24 1_555 1_555
H34 C34 1_555 1_555
C35 C26 1_555 1_555
H35 C35 1_555 1_555
C36 H36 1_555 1_555
C37 C36 1_555 1_555
H37 C37 1_555 1_555
C38 C37 1_555 1_555
H38 C38 1_555 1_555
C39 C36 1_555 1_555
H39 C39 1_555 1_555
C40 C39 1_555 1_555
H40 C40 1_555 1_555
C41 C38 1_555 1_555
H41 C41 1_555 1_555
C42 H42 1_555 1_555
C43 C42 1_555 1_555
H43 C43 1_555 1_555
C44 C43 1_555 1_555
H44 C44 1_555 1_555
C45 C44 1_555 1_555
H45 C45 1_555 1_555
C46 C42 1_555 1_555
H46 C46 1_555 1_555
C47 C45 1_555 1_555
H47 C47 1_555 1_555
C2 C11 1_555 1_555
C10 C17 1_555 1_555
C13 C19 1_555 1_555
C14 C32 1_555 1_555
C18 C30 1_555 1_555
C19 C22 1_555 1_555
C29 C34 1_555 1_555
C33 C35 1_555 1_555
C40 C41 1_555 1_555
C46 C47 1_555 1_555

#END
