
#######################################################################
#
#                 Cambridge Crystallographic Data Centre
#                                CCDC 
#
#######################################################################
#
# If this CIF has been generated from an entry in the Cambridge 
# Structural Database, then it will include bibliographic, chemical, 
# crystal, experimental, refinement or atomic coordinate data resulting 
# from the CCDC's data processing and validation procedures.
#
#######################################################################

data_JEKKES
_chemical_formula_moiety         'C45 H58 N4 O1 Si2,C4 H10 O1'
_chemical_name_systematic        
"(2,2'-(9,9-dimethyl-9H-xanthene-4,5-diyl)bis(1,3-di-t-butyl-4-phenyl-2,3-dihydro-1,3,2-diazasilete)) diethyl ether solvate"
_symmetry_cell_setting           monoclinic
_symmetry_space_group_name_H-M   'P 21/n'
_symmetry_Int_Tables_number      14
_space_group_name_Hall           '-P 2yn'
loop_
_symmetry_equiv_pos_site_id
_symmetry_equiv_pos_as_xyz
1 x,y,z
2 1/2-x,1/2+y,1/2-z
3 -x,-y,-z
4 1/2+x,1/2-y,1/2+z
_cell_length_a                   13.5531(2)
_cell_length_b                   24.8195(3)
_cell_length_c                   14.31360(10)
_cell_angle_alpha                90
_cell_angle_beta                 99.4050(10)
_cell_angle_gamma                90
_cell_volume                     4750.1
_exptl_crystal_colour            'pale yellow'
_exptl_crystal_description       rod
_cell_formula_units_Z            4
loop_
_atom_site_label
_atom_site_type_symbol
_atom_site_fract_x
_atom_site_fract_y
_atom_site_fract_z
Si1 Si 0.54304(5) 0.18112(2) 0.17725(4)
O1 O 0.68745(12) 0.09777(7) 0.13423(11)
N1 N 0.60921(14) -0.04620(8) 0.30684(14)
C1 C 0.67839(16) 0.13454(9) 0.06076(15)
Si2 Si 0.64413(5) 0.02586(3) 0.29039(5)
N2 N 0.71703(15) -0.00293(8) 0.40145(14)
N3 N 0.40957(14) 0.17525(8) 0.11604(14)
C2 C 0.59331(17) 0.21216(9) -0.00848(16)
H1 H 0.5459 0.2403 -0.0080
N4 N 0.48468(14) 0.24968(8) 0.15279(13)
C3 C 0.64607(18) 0.20856(10) -0.08328(16)
H2 H 0.6337 0.2337 -0.1340
C4 C 0.71660(17) 0.16852(10) -0.08427(16)
H3 H 0.7536 0.1671 -0.1351
C5 C 0.73479(16) 0.13000(9) -0.01199(16)
C6 C 0.81662(17) 0.08788(10) -0.01127(16)
C7 C 0.81086(17) 0.04652(10) 0.06685(17)
C8 C 0.74785(16) 0.05302(9) 0.13372(16)
C9 C 0.74005(17) 0.01583(9) 0.20557(17)
C10 C 0.80279(19) -0.02879(10) 0.21038(19)
H4 H 0.8002 -0.0549 0.2585
C11 C 0.8689(2) -0.03646(11) 0.1472(2)
H5 H 0.9119 -0.0669 0.1528
C12 C 0.87134(19) 0.00098(11) 0.0758(2)
H6 H 0.9156 -0.0046 0.0317
C13 C 0.91912(18) 0.11650(12) 0.0083(2)
H7 H 0.9214 0.1448 -0.0390
H8 H 0.9724 0.0903 0.0047
H9 H 0.9286 0.1326 0.0717
C14 C 0.8052(2) 0.05894(13) -0.10774(19)
H10 H 0.7403 0.0407 -0.1202
H11 H 0.8588 0.0323 -0.1066
H12 H 0.8093 0.0854 -0.1578
C15 C 0.39460(17) 0.22820(9) 0.12050(15)
C16 C 0.66143(16) -0.04755(9) 0.39441(16)
C17 C 0.51008(19) 0.30310(10) 0.19502(18)
C18 C 0.4648(3) 0.31069(16) 0.2838(3)
H13 H 0.3919 0.3131 0.2670
H14 H 0.4908 0.3439 0.3157
H15 H 0.4825 0.2800 0.3262
C19 C 0.4802(3) 0.34756(13) 0.1239(3)
H16 H 0.5095 0.3407 0.0669
H17 H 0.5045 0.3822 0.1516
H18 H 0.4071 0.3487 0.1073
C20 C 0.6238(2) 0.30384(12) 0.2216(2)
H19 H 0.6447 0.2768 0.2708
H20 H 0.6456 0.3396 0.2456
H21 H 0.6540 0.2956 0.1656
C21 C 0.34558(19) 0.13209(10) 0.06854(18)
C22 C 0.2526(2) 0.12271(15) 0.1138(3)
H22 H 0.2724 0.1173 0.1821
H23 H 0.2172 0.0907 0.0857
H24 H 0.2085 0.1541 0.1026
C23 C 0.3168(3) 0.14541(12) -0.0365(2)
H25 H 0.2702 0.1759 -0.0442
H26 H 0.2846 0.1140 -0.0702
H27 H 0.3770 0.1549 -0.0627
C24 C 0.4093(2) 0.08119(11) 0.0802(2)
H28 H 0.4688 0.0865 0.0505
H29 H 0.3702 0.0509 0.0497
H30 H 0.4297 0.0735 0.1477
C25 C 0.7951(2) 0.01680(11) 0.47701(19)
C26 C 0.7513(3) 0.03727(16) 0.5618(2)
H31 H 0.6998 0.0643 0.5406
H32 H 0.8045 0.0536 0.6077
H33 H 0.7216 0.0071 0.5916
C27 C 0.8715(2) -0.02714(14) 0.5063(2)
H34 H 0.8406 -0.0563 0.5375
H35 H 0.9280 -0.0123 0.5503
H36 H 0.8955 -0.0413 0.4502
C28 C 0.8451(2) 0.06370(12) 0.4333(2)
H37 H 0.8748 0.0506 0.3796
H38 H 0.8975 0.0793 0.4810
H39 H 0.7949 0.0913 0.4113
C29 C 0.52736(18) -0.08067(11) 0.26007(17)
C30 C 0.5049(2) -0.06099(12) 0.15755(18)
H40 H 0.4826 -0.0234 0.1564
H41 H 0.4522 -0.0833 0.1219
H42 H 0.5655 -0.0636 0.1287
C31 C 0.4338(2) -0.07403(14) 0.3060(2)
H43 H 0.4486 -0.0855 0.3724
H44 H 0.3797 -0.0962 0.2722
H45 H 0.4133 -0.0361 0.3029
C32 C 0.5601(2) -0.13962(11) 0.26125(19)
H46 H 0.6247 -0.1422 0.2391
H47 H 0.5100 -0.1607 0.2195
H48 H 0.5667 -0.1537 0.3259
C33 C 0.64973(16) -0.08650(9) 0.47152(16)
C34 C 0.58770(18) -0.07352(10) 0.53702(16)
H49 H 0.5544 -0.0397 0.5331
C35 C 0.57435(19) -0.10961(11) 0.60777(17)
H50 H 0.5320 -0.1005 0.6521
C36 C 0.6225(2) -0.15870(11) 0.61374(18)
H51 H 0.6131 -0.1834 0.6622
C37 C 0.6842(2) -0.17201(11) 0.5496(2)
H52 H 0.7172 -0.2059 0.5540
C38 C 0.69828(18) -0.13599(10) 0.47862(18)
H53 H 0.7412 -0.1452 0.4348
C39 C 0.29600(18) 0.25586(10) 0.09770(17)
C40 C 0.2283(2) 0.25394(12) 0.16066(19)
H54 H 0.2467 0.2371 0.2206
C41 C 0.1341(2) 0.27636(15) 0.1366(2)
H55 H 0.0878 0.2746 0.1797
C42 C 0.1077(2) 0.30123(14) 0.0500(2)
H56 H 0.0431 0.3168 0.0337
C43 C 0.1740(2) 0.30373(12) -0.0132(2)
H57 H 0.1552 0.3209 -0.0728
C44 C 0.2687(2) 0.28111(11) 0.01050(18)
H58 H 0.3148 0.2829 -0.0328
C45 C 0.60813(16) 0.17526(9) 0.06658(15)
C46 C 0.9207(4) 0.1743(3) 0.2824(4)
H59 H 0.9324 0.1793 0.3519
H60 H 0.8888 0.1386 0.2698
C47 C 0.8476(3) 0.21408(19) 0.2434(4)
H61 H 0.8586 0.2474 0.2805
H62 H 0.7803 0.2004 0.2459
H63 H 0.8544 0.2215 0.1775
O2 O 1.0026(3) 0.1717(2) 0.2580(3)
C48 C 1.0713(4) 0.1319(2) 0.2971(3)
H64 H 1.0631 0.1267 0.3640
H65 H 1.1395 0.1464 0.2976
C49 C 1.0664(3) 0.0784(2) 0.2514(3)
H66 H 1.0046 0.0602 0.2606
H67 H 1.1241 0.0568 0.2798
H68 H 1.0673 0.0827 0.1835
loop_
_geom_bond_atom_site_label_1
_geom_bond_atom_site_label_2
_geom_bond_site_symmetry_1
_geom_bond_site_symmetry_2
Si1 N3 1_555 1_555
O1 C1 1_555 1_555
N1 Si2 1_555 1_555
C1 C5 1_555 1_555
Si2 N2 1_555 1_555
N2 C16 1_555 1_555
N3 C15 1_555 1_555
C2 H1 1_555 1_555
N4 Si1 1_555 1_555
C3 C2 1_555 1_555
H2 C3 1_555 1_555
C4 C3 1_555 1_555
H3 C4 1_555 1_555
C5 C4 1_555 1_555
C6 C5 1_555 1_555
C7 C6 1_555 1_555
C8 O1 1_555 1_555
C9 Si2 1_555 1_555
C10 C9 1_555 1_555
H4 C10 1_555 1_555
C11 C10 1_555 1_555
H5 C11 1_555 1_555
C12 C7 1_555 1_555
H6 C12 1_555 1_555
C13 C6 1_555 1_555
H7 C13 1_555 1_555
H8 C13 1_555 1_555
H9 C13 1_555 1_555
C14 C6 1_555 1_555
H10 C14 1_555 1_555
H11 C14 1_555 1_555
H12 C14 1_555 1_555
C15 N4 1_555 1_555
C16 N1 1_555 1_555
C17 N4 1_555 1_555
C18 C17 1_555 1_555
H13 C18 1_555 1_555
H14 C18 1_555 1_555
H15 C18 1_555 1_555
C19 C17 1_555 1_555
H16 C19 1_555 1_555
H17 C19 1_555 1_555
H18 C19 1_555 1_555
C20 C17 1_555 1_555
H19 C20 1_555 1_555
H20 C20 1_555 1_555
H21 C20 1_555 1_555
C21 N3 1_555 1_555
C22 C21 1_555 1_555
H22 C22 1_555 1_555
H23 C22 1_555 1_555
H24 C22 1_555 1_555
C23 C21 1_555 1_555
H25 C23 1_555 1_555
H26 C23 1_555 1_555
H27 C23 1_555 1_555
C24 C21 1_555 1_555
H28 C24 1_555 1_555
H29 C24 1_555 1_555
H30 C24 1_555 1_555
C25 N2 1_555 1_555
C26 C25 1_555 1_555
H31 C26 1_555 1_555
H32 C26 1_555 1_555
H33 C26 1_555 1_555
C27 C25 1_555 1_555
H34 C27 1_555 1_555
H35 C27 1_555 1_555
H36 C27 1_555 1_555
C28 C25 1_555 1_555
H37 C28 1_555 1_555
H38 C28 1_555 1_555
H39 C28 1_555 1_555
C29 N1 1_555 1_555
C30 C29 1_555 1_555
H40 C30 1_555 1_555
H41 C30 1_555 1_555
H42 C30 1_555 1_555
C31 C29 1_555 1_555
H43 C31 1_555 1_555
H44 C31 1_555 1_555
H45 C31 1_555 1_555
C32 C29 1_555 1_555
H46 C32 1_555 1_555
H47 C32 1_555 1_555
H48 C32 1_555 1_555
C33 C16 1_555 1_555
C34 C33 1_555 1_555
H49 C34 1_555 1_555
C35 C34 1_555 1_555
H50 C35 1_555 1_555
C36 C35 1_555 1_555
H51 C36 1_555 1_555
C37 C36 1_555 1_555
H52 C37 1_555 1_555
C38 C33 1_555 1_555
H53 C38 1_555 1_555
C39 C15 1_555 1_555
C40 C39 1_555 1_555
H54 C40 1_555 1_555
C41 C40 1_555 1_555
H55 C41 1_555 1_555
C42 C41 1_555 1_555
H56 C42 1_555 1_555
C43 C42 1_555 1_555
H57 C43 1_555 1_555
C44 C39 1_555 1_555
H58 C44 1_555 1_555
C45 Si1 1_555 1_555
C46 H59 1_555 1_555
H60 C46 1_555 1_555
C47 C46 1_555 1_555
H61 C47 1_555 1_555
H62 C47 1_555 1_555
H63 C47 1_555 1_555
O2 C46 1_555 1_555
C48 O2 1_555 1_555
H64 C48 1_555 1_555
H65 C48 1_555 1_555
C49 C48 1_555 1_555
H66 C49 1_555 1_555
H67 C49 1_555 1_555
H68 C49 1_555 1_555
C1 C45 1_555 1_555
C2 C45 1_555 1_555
C7 C8 1_555 1_555
C8 C9 1_555 1_555
C11 C12 1_555 1_555
C37 C38 1_555 1_555
C43 C44 1_555 1_555

#END
