
#######################################################################
#
#                 Cambridge Crystallographic Data Centre
#                                CCDC 
#
#######################################################################
#
# If this CIF has been generated from an entry in the Cambridge 
# Structural Database, then it will include bibliographic, chemical, 
# crystal, experimental, refinement or atomic coordinate data resulting 
# from the CCDC's data processing and validation procedures.
#
#######################################################################

data_JEKPIB
_chemical_formula_moiety         'C19 H18 N2 O1'
_chemical_name_systematic        
2-cyano-N-ethyl-3-(4'-methylbiphenyl-4-yl)acrylamide
_symmetry_cell_setting           orthorhombic
_symmetry_space_group_name_H-M   'P c a 21'
_symmetry_Int_Tables_number      29
_space_group_name_Hall           'P 2c -2ac'
loop_
_symmetry_equiv_pos_site_id
_symmetry_equiv_pos_as_xyz
1 x,y,z
2 -x,-y,1/2+z
3 1/2+x,-y,z
4 1/2-x,y,1/2+z
_cell_length_a                   28.6884(13)
_cell_length_b                   11.0433(5)
_cell_length_c                   9.6341(4)
_cell_angle_alpha                90
_cell_angle_beta                 90
_cell_angle_gamma                90
_cell_volume                     3052.22
_exptl_crystal_colour            colorless
_exptl_crystal_description       needle
_cell_formula_units_Z            8
loop_
_atom_site_label
_atom_site_type_symbol
_atom_site_fract_x
_atom_site_fract_y
_atom_site_fract_z
C1 C 0.27995(11) 0.1310(3) 0.5865(4)
H1 H 0.2536(15) 0.079(3) 0.417(4)
O1 O 0.27793(9) 0.1219(2) 0.7131(3)
N1 N 0.25498(11) 0.0618(2) 0.5005(4)
C2 C 0.31272(11) 0.2214(3) 0.5222(4)
C3 C 0.33447(11) 0.3008(3) 0.6037(4)
H2 H 0.3252 0.2975 0.6983
C4 C 0.32218(13) 0.2122(3) 0.3768(4)
N2 N 0.33047(14) 0.2010(3) 0.2609(4)
C5 C 0.22374(13) -0.0316(3) 0.5539(4)
H3 H 0.1985 0.0069 0.6081
H4 H 0.2413 -0.0859 0.6169
C6 C 0.20282(14) -0.1050(3) 0.4379(4)
H5 H 0.1835 -0.1698 0.4770
H6 H 0.2278 -0.1406 0.3818
H7 H 0.1835 -0.0525 0.3795
C7 C 0.37018(11) 0.3923(3) 0.5741(4)
C8 C 0.37985(12) 0.4405(3) 0.4441(4)
H8 H 0.3613 0.4179 0.3668
C9 C 0.41611(13) 0.5207(3) 0.4262(4)
H9 H 0.4219 0.5523 0.3361
C10 C 0.44457(12) 0.5572(3) 0.5356(4)
C11 C 0.43341(13) 0.5128(3) 0.6667(4)
H10 H 0.4513 0.5376 0.7446
C12 C 0.39668(13) 0.4331(3) 0.6856(4)
H11 H 0.3894 0.4057 0.7766
C13 C 0.48539(12) 0.6369(3) 0.5148(4)
C14 C 0.48959(14) 0.7113(3) 0.4002(5)
H12 H 0.4649 0.7144 0.3346
C15 C 0.52883(15) 0.7813(3) 0.3788(5)
H13 H 0.5305 0.8306 0.2982
C16 C 0.56584(12) 0.7820(3) 0.4712(4)
C17 C 0.56124(13) 0.7103(3) 0.5872(4)
H14 H 0.5855 0.7098 0.6542
C18 C 0.52250(13) 0.6393(3) 0.6089(4)
H15 H 0.5209 0.5906 0.6900
C19 C 0.60859(13) 0.8568(3) 0.4426(5)
H16 H 0.6255 0.8707 0.5296
H17 H 0.5993 0.9347 0.4025
H18 H 0.6288 0.8137 0.3772
C20 C 0.28400(12) 0.6211(3) 0.6122(4)
H19 H 0.2508(18) 0.584(4) 0.442(5)
O2 O 0.28628(8) 0.6023(2) 0.7384(3)
N3 N 0.25437(10) 0.5613(3) 0.5290(4)
C21 C 0.31639(12) 0.7111(3) 0.5459(4)
C22 C 0.34797(12) 0.7660(3) 0.6272(4)
H20 H 0.3461 0.7438 0.7223
C23 C 0.31478(13) 0.7287(3) 0.3987(4)
N4 N 0.31343(12) 0.7406(3) 0.2808(4)
C24 C 0.22317(12) 0.4707(3) 0.5872(4)
H21 H 0.1981 0.5116 0.6401
H22 H 0.2407 0.4186 0.6524
C25 C 0.20187(15) 0.3935(3) 0.4756(5)
H23 H 0.1815 0.3326 0.5180
H24 H 0.2266 0.3530 0.4232
H25 H 0.1836 0.4446 0.4128
C26 C 0.38468(12) 0.8535(3) 0.5966(4)
C27 C 0.38497(12) 0.9326(3) 0.4832(4)
H26 H 0.3602 0.9302 0.4179
C28 C 0.42098(13) 1.0141(3) 0.4654(4)
H27 H 0.4204 1.0675 0.3881
C29 C 0.45824(12) 1.0199(3) 0.5582(4)
C30 C 0.45804(12) 0.9402(3) 0.6698(4)
H28 H 0.4833 0.9408 0.7335
C31 C 0.42187(13) 0.8604(3) 0.6897(4)
H29 H 0.4222 0.8088 0.7685
C32 C 0.49632(12) 1.1098(3) 0.5434(4)
C33 C 0.48822(12) 1.2255(3) 0.4911(4)
H30 H 0.4581 1.2459 0.4570
C34 C 0.52338(13) 1.3111(3) 0.4881(4)
H31 H 0.5167 1.3899 0.4537
C35 C 0.56796(12) 1.2853(3) 0.5337(4)
C36 C 0.57616(12) 1.1703(3) 0.5867(4)
H32 H 0.6063 1.1503 0.6203
C37 C 0.54116(12) 1.0846(3) 0.5913(4)
H33 H 0.5478 1.0067 0.6280
C38 C 0.60639(13) 1.3779(3) 0.5262(5)
H34 H 0.6269 1.3690 0.6069
H35 H 0.5928 1.4593 0.5258
H36 H 0.6245 1.3656 0.4410
loop_
_geom_bond_atom_site_label_1
_geom_bond_atom_site_label_2
_geom_bond_site_symmetry_1
_geom_bond_site_symmetry_2
C1 O1 1_555 1_555
H1 N1 1_555 1_555
N1 C1 1_555 1_555
C2 C1 1_555 1_555
C3 C2 1_555 1_555
H2 C3 1_555 1_555
C4 C2 1_555 1_555
N2 C4 1_555 1_555
C5 N1 1_555 1_555
H3 C5 1_555 1_555
H4 C5 1_555 1_555
C6 C5 1_555 1_555
H5 C6 1_555 1_555
H6 C6 1_555 1_555
H7 C6 1_555 1_555
C7 C3 1_555 1_555
C8 C7 1_555 1_555
H8 C8 1_555 1_555
C9 C8 1_555 1_555
H9 C9 1_555 1_555
C10 C9 1_555 1_555
C11 C10 1_555 1_555
H10 C11 1_555 1_555
C12 C7 1_555 1_555
H11 C12 1_555 1_555
C13 C10 1_555 1_555
C14 C13 1_555 1_555
H12 C14 1_555 1_555
C15 C14 1_555 1_555
H13 C15 1_555 1_555
C16 C15 1_555 1_555
C17 C16 1_555 1_555
H14 C17 1_555 1_555
C18 C13 1_555 1_555
H15 C18 1_555 1_555
C19 C16 1_555 1_555
H16 C19 1_555 1_555
H17 C19 1_555 1_555
H18 C19 1_555 1_555
C20 O2 1_555 1_555
H19 N3 1_555 1_555
N3 C20 1_555 1_555
C21 C20 1_555 1_555
C22 C21 1_555 1_555
H20 C22 1_555 1_555
C23 C21 1_555 1_555
N4 C23 1_555 1_555
C24 N3 1_555 1_555
H21 C24 1_555 1_555
H22 C24 1_555 1_555
C25 C24 1_555 1_555
H23 C25 1_555 1_555
H24 C25 1_555 1_555
H25 C25 1_555 1_555
C26 C22 1_555 1_555
C27 C26 1_555 1_555
H26 C27 1_555 1_555
C28 C27 1_555 1_555
H27 C28 1_555 1_555
C29 C28 1_555 1_555
C30 C29 1_555 1_555
H28 C30 1_555 1_555
C31 C26 1_555 1_555
H29 C31 1_555 1_555
C32 C29 1_555 1_555
C33 C32 1_555 1_555
H30 C33 1_555 1_555
C34 C33 1_555 1_555
H31 C34 1_555 1_555
C35 C34 1_555 1_555
C36 C35 1_555 1_555
H32 C36 1_555 1_555
C37 C32 1_555 1_555
H33 C37 1_555 1_555
C38 C35 1_555 1_555
H34 C38 1_555 1_555
H35 C38 1_555 1_555
H36 C38 1_555 1_555
C11 C12 1_555 1_555
C17 C18 1_555 1_555
C30 C31 1_555 1_555
C36 C37 1_555 1_555

#END
