
#######################################################################
#
#                 Cambridge Crystallographic Data Centre
#                                CCDC 
#
#######################################################################
#
# If this CIF has been generated from an entry in the Cambridge 
# Structural Database, then it will include bibliographic, chemical, 
# crystal, experimental, refinement or atomic coordinate data resulting 
# from the CCDC's data processing and validation procedures.
#
#######################################################################

data_JEKSAU
_chemical_formula_moiety         'C15 H17 N7'
_chemical_name_systematic        
1-(4-(pyrimidin-2-yl)piperazin-1-ylmethyl)-1H-1,2,3-benzotriazole
_symmetry_cell_setting           triclinic
_symmetry_space_group_name_H-M   'P -1'
_symmetry_Int_Tables_number      2
_space_group_name_Hall           '-P 1'
loop_
_symmetry_equiv_pos_site_id
_symmetry_equiv_pos_as_xyz
1 x,y,z
2 -x,-y,-z
_cell_length_a                   6.370(2)
_cell_length_b                   9.830(3)
_cell_length_c                   11.821(4)
_cell_angle_alpha                89.603(6)
_cell_angle_beta                 86.018(6)
_cell_angle_gamma                85.850(6)
_cell_volume                     736.472
_chemical_melting_point          '149-150 deg.C'
_cell_formula_units_Z            2
_exptl_crystal_recrystallization_method ethanol
loop_
_atom_site_label
_atom_site_type_symbol
_atom_site_fract_x
_atom_site_fract_y
_atom_site_fract_z
N1 N -0.3144(3) 0.3233(2) 0.55174(18)
N2 N -0.1787(3) 0.2183(2) 0.53496(17)
N3 N 0.0053(3) 0.24679(18) 0.57701(15)
N4 N 0.2311(3) 0.09759(17) 0.68207(15)
N5 N 0.3298(3) -0.09923(19) 0.85017(16)
N6 N 0.2214(3) -0.2376(2) 0.99914(18)
N7 N 0.5874(3) -0.2176(2) 0.94701(17)
C1 C -0.2169(4) 0.4221(2) 0.60588(19)
C2 C -0.2915(4) 0.5532(3) 0.6429(2)
H1 H -0.4281 0.5883 0.6318
C3 C -0.1546(5) 0.6260(3) 0.6955(2)
H2 H -0.1996 0.7131 0.7216
C4 C 0.0517(5) 0.5756(3) 0.7123(2)
H3 H 0.1392 0.6300 0.7491
C5 C 0.1289(4) 0.4486(2) 0.6764(2)
H4 H 0.2663 0.4148 0.6871
C6 C -0.0118(4) 0.3736(2) 0.62292(17)
C7 C 0.1857(4) 0.1479(2) 0.57064(19)
H5 H 0.1573 0.0722 0.5231
H6 H 0.3078 0.1899 0.5362
C8 C 0.0691(3) 0.0124(2) 0.73175(19)
H7 H 0.0627 -0.0676 0.6849
H8 H -0.0675 0.0632 0.7339
C9 C 0.1175(3) -0.0313(2) 0.85005(19)
H9 H 0.1074 0.0479 0.8991
H10 H 0.0148 -0.0931 0.8794
C10 C 0.4930(4) -0.0205(2) 0.7943(2)
H11 H 0.6269 -0.0746 0.7899
H12 H 0.5086 0.0607 0.8382
C11 C 0.4350(3) 0.0195(2) 0.6769(2)
H13 H 0.5421 0.0739 0.6411
H14 H 0.4286 -0.0618 0.6316
C12 C 0.3810(4) -0.1871(2) 0.93559(19)
C13 C 0.2790(5) -0.3270(3) 1.0780(2)
H15 H 0.1735 -0.3649 1.1237
C14 C 0.4833(5) -0.3663(3) 1.0959(2)
H16 H 0.5185 -0.4295 1.1517
C15 C 0.6334(5) -0.3083(3) 1.0278(2)
H17 H 0.7745 -0.3331 1.0380
loop_
_geom_bond_atom_site_label_1
_geom_bond_atom_site_label_2
_geom_bond_site_symmetry_1
_geom_bond_site_symmetry_2
N1 N2 1_555 1_555
N2 N3 1_555 1_555
N3 C6 1_555 1_555
N4 C7 1_555 1_555
N5 C9 1_555 1_555
N6 C12 1_555 1_555
N7 C12 1_555 1_555
C1 N1 1_555 1_555
C2 C1 1_555 1_555
H1 C2 1_555 1_555
C3 C2 1_555 1_555
H2 C3 1_555 1_555
C4 C3 1_555 1_555
H3 C4 1_555 1_555
C5 C4 1_555 1_555
H4 C5 1_555 1_555
C6 C1 1_555 1_555
C7 N3 1_555 1_555
H5 C7 1_555 1_555
H6 C7 1_555 1_555
C8 N4 1_555 1_555
H7 C8 1_555 1_555
H8 C8 1_555 1_555
C9 C8 1_555 1_555
H9 C9 1_555 1_555
H10 C9 1_555 1_555
C10 N5 1_555 1_555
H11 C10 1_555 1_555
H12 C10 1_555 1_555
C11 N4 1_555 1_555
H13 C11 1_555 1_555
H14 C11 1_555 1_555
C12 N5 1_555 1_555
C13 N6 1_555 1_555
H15 C13 1_555 1_555
C14 C13 1_555 1_555
H16 C14 1_555 1_555
C15 N7 1_555 1_555
H17 C15 1_555 1_555
C5 C6 1_555 1_555
C10 C11 1_555 1_555
C14 C15 1_555 1_555

#END
