
#######################################################################
#
#                 Cambridge Crystallographic Data Centre
#                                CCDC 
#
#######################################################################
#
# If this CIF has been generated from an entry in the Cambridge 
# Structural Database, then it will include bibliographic, chemical, 
# crystal, experimental, refinement or atomic coordinate data resulting 
# from the CCDC's data processing and validation procedures.
#
#######################################################################

data_JEKTEZ
_chemical_formula_moiety         'C19 H23 N1 O3'
_chemical_name_systematic        
4-(4-methoxyphenyl)-1,7,7-trimethyl-4,6,7,8-tetrahydroquinoline-2,5(1H,3H)-dione
_symmetry_cell_setting           monoclinic
_symmetry_space_group_name_H-M   'P 21/c'
_symmetry_Int_Tables_number      14
_space_group_name_Hall           '-P 2ybc'
loop_
_symmetry_equiv_pos_site_id
_symmetry_equiv_pos_as_xyz
1 x,y,z
2 -x,1/2+y,1/2-z
3 -x,-y,-z
4 x,1/2-y,1/2+z
_cell_length_a                   8.7462(10)
_cell_length_b                   17.7367(19)
_cell_length_c                   11.5959(14)
_cell_angle_alpha                90
_cell_angle_beta                 110.981(3)
_cell_angle_gamma                90
_cell_volume                     1679.59
_exptl_crystal_colour            colorless
_exptl_crystal_description       block
_cell_formula_units_Z            4
loop_
_atom_site_label
_atom_site_type_symbol
_atom_site_fract_x
_atom_site_fract_y
_atom_site_fract_z
O1 O 0.69716(15) 0.48019(6) 0.47998(11)
O2 O 0.83769(15) 0.22845(7) 0.15638(12)
O3 O 0.85141(13) 0.61145(7) -0.00276(11)
N1 N 0.56317(14) 0.39140(7) 0.33993(11)
C1 C 0.56969(17) 0.32645(7) 0.27304(12)
C2 C 0.70875(17) 0.30896(8) 0.25322(12)
C3 C 0.85655(17) 0.35945(8) 0.30447(13)
H1 H 0.9570 0.3289 0.3160
C4 C 0.86196(18) 0.38657(8) 0.43124(13)
H2 H 0.8805 0.3430 0.4880
H3 H 0.9541 0.4222 0.4662
C5 C 0.70505(19) 0.42460(8) 0.42047(13)
C6 C 0.7138(2) 0.24411(8) 0.17788(14)
C7 C 0.5589(2) 0.19851(9) 0.12136(16)
H4 H 0.5895 0.1457 0.1123
H5 H 0.4982 0.2183 0.0376
C8 C 0.4447(2) 0.19885(8) 0.19494(15)
C9 C 0.41501(18) 0.28064(8) 0.22271(14)
H6 H 0.3411 0.3046 0.1459
H7 H 0.3590 0.2812 0.2833
C10 C 0.40563(19) 0.42549(9) 0.32896(15)
H8 H 0.3595 0.3987 0.3829
H9 H 0.3299 0.4219 0.2432
H10 H 0.4223 0.4786 0.3535
C11 C 0.85418(17) 0.42652(8) 0.22078(12)
C12 C 0.72466(19) 0.44205(9) 0.11194(14)
H11 H 0.6323 0.4095 0.0864
C13 C 0.72710(19) 0.50386(9) 0.03982(14)
H12 H 0.6369 0.5133 -0.0342
C14 C 0.86040(18) 0.55201(8) 0.07505(13)
C15 C 0.99021(19) 0.53851(9) 0.18439(15)
H13 H 1.0815 0.5717 0.2104
C16 C 0.98583(18) 0.47635(9) 0.25529(14)
H14 H 1.0755 0.4674 0.3299
C17 C 0.9949(2) 0.65583(10) 0.02074(18)
H15 H 1.0199 0.6825 0.0993
H16 H 0.9767 0.6925 -0.0461
H17 H 1.0870 0.6230 0.0251
C18 C 0.2795(2) 0.16287(10) 0.1192(2)
H18 H 0.2964 0.1100 0.1022
H19 H 0.2306 0.1901 0.0410
H20 H 0.2059 0.1655 0.1660
C19 C 0.5208(2) 0.15484(10) 0.31568(18)
H21 H 0.6222 0.1797 0.3675
H22 H 0.5454 0.1033 0.2972
H23 H 0.4437 0.1533 0.3595
loop_
_geom_bond_atom_site_label_1
_geom_bond_atom_site_label_2
_geom_bond_site_symmetry_1
_geom_bond_site_symmetry_2
O1 C5 1_555 1_555
O2 C6 1_555 1_555
O3 C14 1_555 1_555
N1 C1 1_555 1_555
C1 C2 1_555 1_555
C2 C3 1_555 1_555
C3 H1 1_555 1_555
C4 C3 1_555 1_555
H2 C4 1_555 1_555
H3 C4 1_555 1_555
C5 N1 1_555 1_555
C6 C2 1_555 1_555
C7 C6 1_555 1_555
H4 C7 1_555 1_555
H5 C7 1_555 1_555
C8 C7 1_555 1_555
C9 C1 1_555 1_555
H6 C9 1_555 1_555
H7 C9 1_555 1_555
C10 N1 1_555 1_555
H8 C10 1_555 1_555
H9 C10 1_555 1_555
H10 C10 1_555 1_555
C11 C3 1_555 1_555
C12 C11 1_555 1_555
H11 C12 1_555 1_555
C13 C12 1_555 1_555
H12 C13 1_555 1_555
C14 C13 1_555 1_555
C15 C14 1_555 1_555
H13 C15 1_555 1_555
C16 C11 1_555 1_555
H14 C16 1_555 1_555
C17 O3 1_555 1_555
H15 C17 1_555 1_555
H16 C17 1_555 1_555
H17 C17 1_555 1_555
C18 C8 1_555 1_555
H18 C18 1_555 1_555
H19 C18 1_555 1_555
H20 C18 1_555 1_555
C19 C8 1_555 1_555
H21 C19 1_555 1_555
H22 C19 1_555 1_555
H23 C19 1_555 1_555
C4 C5 1_555 1_555
C8 C9 1_555 1_555
C15 C16 1_555 1_555

#END
