
#######################################################################
#
#                 Cambridge Crystallographic Data Centre
#                                CCDC 
#
#######################################################################
#
# If this CIF has been generated from an entry in the Cambridge 
# Structural Database, then it will include bibliographic, chemical, 
# crystal, experimental, refinement or atomic coordinate data resulting 
# from the CCDC's data processing and validation procedures.
#
#######################################################################

data_JEKVON
_chemical_formula_moiety         'C29 H28 N4 O4'
_chemical_name_systematic        
"diethyl 2,2'-((4-(4,2':6',4''-terpyridin-4'-yl)phenyl)imino)diacetate"
_symmetry_cell_setting           monoclinic
_symmetry_space_group_name_H-M   'C 2/c'
_symmetry_Int_Tables_number      15
_space_group_name_Hall           '-C 2yn'
loop_
_symmetry_equiv_pos_site_id
_symmetry_equiv_pos_as_xyz
1 x,y,z
2 -x,y,1/2-z
3 1/2+x,1/2+y,z
4 1/2-x,1/2+y,1/2-z
5 -x,-y,-z
6 x,-y,1/2+z
7 1/2-x,1/2-y,-z
8 1/2+x,1/2-y,1/2+z
_cell_length_a                   27.452(2)
_cell_length_b                   10.7752(9)
_cell_length_c                   17.6087(14)
_cell_angle_alpha                90
_cell_angle_beta                 99.8190(10)
_cell_angle_gamma                90
_cell_volume                     5132.37
_exptl_crystal_description       block
_cell_formula_units_Z            8
loop_
_atom_site_label
_atom_site_type_symbol
_atom_site_fract_x
_atom_site_fract_y
_atom_site_fract_z
N1 N 0.47042(6) 0.32773(17) 0.10022(11)
N2 N 0.34534(8) 0.6316(2) -0.03326(13)
N3 N 0.49828(11) -0.1319(2) 0.13494(17)
N4 N 0.71690(7) 0.70738(19) 0.35613(13)
O1 O 0.83427(7) 0.5453(2) 0.38474(13)
O2 O 0.67188(9) 1.01236(19) 0.38244(12)
O3 O 0.71497(9) 0.9483(2) 0.29245(13)
O4 O 0.76689(8) 0.5065(2) 0.43673(13)
C1 C 0.55107(8) 0.4585(2) 0.18252(12)
C2 C 0.47202(8) 0.4524(2) 0.09930(12)
C3 C 0.54900(8) 0.3292(2) 0.18254(13)
H1 H 0.5749 0.2841 0.2106
C4 C 0.51118(8) 0.5202(2) 0.13939(12)
H2 H 0.5107 0.6065 0.1374
C5 C 0.42856(8) 0.5149(2) 0.05228(12)
C6 C 0.58834(8) 0.63336(19) 0.26693(12)
H3 H 0.5568 0.6659 0.2656
C7 C 0.62827(8) 0.6938(2) 0.30918(13)
H4 H 0.6232 0.7657 0.3359
C8 C 0.50899(8) 0.2677(2) 0.14139(12)
C9 C 0.59387(8) 0.5254(2) 0.22644(13)
C10 C 0.64186(8) 0.4810(2) 0.22901(14)
H5 H 0.6468 0.4093 0.2020
C11 C 0.43187(9) 0.6296(2) 0.01875(13)
H6 H 0.4621 0.6708 0.0245
C12 C 0.68225(8) 0.5409(2) 0.27068(14)
H7 H 0.7138 0.5092 0.2710
C13 C 0.67635(8) 0.6485(2) 0.31240(13)
C14 C 0.38223(9) 0.4607(2) 0.04185(16)
H8 H 0.3779 0.3832 0.0630
C15 C 0.34267(10) 0.5219(3) 0.00002(18)
H9 H 0.3119 0.4838 -0.0054
C16 C 0.39019(10) 0.6829(2) -0.02332(14)
H10 H 0.3935 0.7594 -0.0463
C17 C 0.50602(8) 0.1295(2) 0.13919(13)
C18 C 0.54087(11) 0.0530(2) 0.18066(19)
H11 H 0.5684 0.0873 0.2117
C19 C 0.71016(10) 0.8160(2) 0.40033(14)
H12 H 0.7396 0.8288 0.4386
H13 H 0.6827 0.8022 0.4274
C20 C 0.76686(10) 0.6751(3) 0.34669(18)
H14 H 0.7882 0.7462 0.3606
H15 H 0.7670 0.6570 0.2928
C21 C 0.46637(12) 0.0691(3) 0.0965(2)
H16 H 0.4410 0.1146 0.0674
C22 C 0.78801(10) 0.5648(3) 0.39450(16)
C23 C 0.70025(10) 0.9315(2) 0.35206(15)
C24 C 0.46419(15) -0.0585(3) 0.0969(2)
H17 H 0.4365 -0.0959 0.0681
C25 C 0.53539(12) -0.0734(3) 0.1766(2)
H18 H 0.5599 -0.1214 0.2056
C26 C 0.66566(14) 1.1366(3) 0.3469(2)
H19 H 0.6645 1.1300 0.2917
H20 H 0.6349 1.1732 0.3561
C27 C 0.86031(14) 0.4436(4) 0.4286(2)
H21 H 0.8510 0.4403 0.4794
H22 H 0.8957 0.4579 0.4352
C28 C 0.84803(19) 0.3232(4) 0.3882(3)
H23 H 0.8146 0.3009 0.3911
H24 H 0.8700 0.2599 0.4122
H25 H 0.8516 0.3314 0.3351
C29 C 0.70721(18) 1.2144(4) 0.3806(3)
H26 H 0.7087 1.2187 0.4354
H27 H 0.7029 1.2963 0.3591
H28 H 0.7374 1.1794 0.3695
loop_
_geom_bond_atom_site_label_1
_geom_bond_atom_site_label_2
_geom_bond_site_symmetry_1
_geom_bond_site_symmetry_2
N1 C2 1_555 1_555
N2 C15 1_555 1_555
N3 C24 1_555 1_555
N4 C13 1_555 1_555
O1 C22 1_555 1_555
O2 C23 1_555 1_555
O3 C23 1_555 1_555
O4 C22 1_555 1_555
C1 C3 1_555 1_555
C2 C4 1_555 1_555
C3 H1 1_555 1_555
C4 C1 1_555 1_555
H2 C4 1_555 1_555
C5 C2 1_555 1_555
C6 H3 1_555 1_555
C7 C6 1_555 1_555
H4 C7 1_555 1_555
C8 N1 1_555 1_555
C9 C1 1_555 1_555
C10 C9 1_555 1_555
H5 C10 1_555 1_555
C11 C5 1_555 1_555
H6 C11 1_555 1_555
C12 C10 1_555 1_555
H7 C12 1_555 1_555
C13 C7 1_555 1_555
C14 C5 1_555 1_555
H8 C14 1_555 1_555
C15 C14 1_555 1_555
H9 C15 1_555 1_555
C16 N2 1_555 1_555
H10 C16 1_555 1_555
C17 C8 1_555 1_555
C18 C17 1_555 1_555
H11 C18 1_555 1_555
C19 N4 1_555 1_555
H12 C19 1_555 1_555
H13 C19 1_555 1_555
C20 N4 1_555 1_555
H14 C20 1_555 1_555
H15 C20 1_555 1_555
C21 C17 1_555 1_555
H16 C21 1_555 1_555
C22 C20 1_555 1_555
C23 C19 1_555 1_555
C24 C21 1_555 1_555
H17 C24 1_555 1_555
C25 N3 1_555 1_555
H18 C25 1_555 1_555
C26 O2 1_555 1_555
H19 C26 1_555 1_555
H20 C26 1_555 1_555
C27 O1 1_555 1_555
H21 C27 1_555 1_555
H22 C27 1_555 1_555
C28 C27 1_555 1_555
H23 C28 1_555 1_555
H24 C28 1_555 1_555
H25 C28 1_555 1_555
C29 C26 1_555 1_555
H26 C29 1_555 1_555
H27 C29 1_555 1_555
H28 C29 1_555 1_555
C3 C8 1_555 1_555
C6 C9 1_555 1_555
C11 C16 1_555 1_555
C12 C13 1_555 1_555
C18 C25 1_555 1_555

#END
