
#######################################################################
#
#                 Cambridge Crystallographic Data Centre
#                                CCDC 
#
#######################################################################
#
# If this CIF has been generated from an entry in the Cambridge 
# Structural Database, then it will include bibliographic, chemical, 
# crystal, experimental, refinement or atomic coordinate data resulting 
# from the CCDC's data processing and validation procedures.
#
#######################################################################

data_JEKVAX
_chemical_formula_moiety         'C18 H22 N4 O4'
_chemical_name_systematic        
3-((2-hydroxy-4-(diethylamino)phenyl)methylenehydrazinocarbonyl)-4-hydroxy-6-methylpyridin-2(1H)-one
_chemical_properties_biological  
'no antibacterial activity towards Staphylococous aureus and Bacillus subtilis'
_symmetry_cell_setting           triclinic
_symmetry_space_group_name_H-M   'P -1'
_symmetry_Int_Tables_number      2
_space_group_name_Hall           '-P 1'
loop_
_symmetry_equiv_pos_site_id
_symmetry_equiv_pos_as_xyz
1 x,y,z
2 -x,-y,-z
_cell_length_a                   10.1930(14)
_cell_length_b                   12.5200(17)
_cell_length_c                   15.1863(19)
_cell_angle_alpha                96.292(3)
_cell_angle_beta                 96.450(3)
_cell_angle_gamma                102.443(3)
_cell_volume                     1862.55
_exptl_crystal_colour            colorless
_exptl_crystal_description       prismatic
_chemical_melting_point          '282-283 deg.C'
_cell_formula_units_Z            4
_exptl_crystal_recrystallization_method ethanol
loop_
_atom_site_label
_atom_site_type_symbol
_atom_site_fract_x
_atom_site_fract_y
_atom_site_fract_z
O1 O 1.2192(3) 0.2332(2) 0.22747(19)
O2 O 1.0023(2) 0.4317(2) 0.09653(14)
O3 O 1.3839(4) 0.2711(3) 0.1179(2)
O4 O 1.0104(3) 0.1303(3) 0.41960(19)
N1 N 1.0380(3) 0.3078(3) 0.22394(19)
N2 N 0.9973(3) 0.2610(2) 0.29692(17)
N3 N 1.1529(3) 0.4513(3) -0.00237(19)
N4 N 0.6811(4) 0.0960(3) 0.6165(2)
C1 C 1.1493(4) 0.2922(3) 0.1924(2)
C2 C 1.1868(3) 0.3442(3) 0.1142(2)
C3 C 1.1084(3) 0.4101(3) 0.0716(2)
C4 C 1.2653(4) 0.4350(3) -0.0359(2)
C5 C 1.3425(4) 0.3753(3) 0.0046(3)
H1 H 1.4207 0.3644 -0.0177
C6 C 1.3050(4) 0.3299(3) 0.0799(3)
C7 C 1.2957(4) 0.4887(4) -0.1182(2)
H2 H 1.3762 0.4714 -0.1374
H3 H 1.3093 0.5673 -0.1042
H4 H 1.2207 0.4614 -0.1652
C8 C 0.8931(4) 0.2830(3) 0.3263(2)
H5 H 0.8485 0.3302 0.2983
C9 C 0.8422(3) 0.2367(3) 0.4019(2)
C10 C 0.8998(4) 0.1615(3) 0.4458(2)
C11 C 0.8471(4) 0.1161(3) 0.5161(2)
H6 H 0.8878 0.0658 0.5429
C12 C 0.7348(4) 0.1431(3) 0.5480(2)
C13 C 0.6772(4) 0.2193(3) 0.5054(2)
H7 H 0.6023 0.2402 0.5254
C14 C 0.7298(4) 0.2636(3) 0.4345(2)
H8 H 0.6886 0.3133 0.4074
C15 C 0.5754(6) 0.1368(4) 0.6619(3)
H9 H 0.5855 0.1260 0.7244
H10 H 0.5848 0.2150 0.6588
C16 C 0.4455(6) 0.0761(4) 0.6176(3)
H11 H 0.4349 0.0899 0.5565
H12 H 0.3759 0.0991 0.6473
H13 H 0.4384 -0.0014 0.6192
C17 C 0.7199(5) -0.0132(6) 0.6454(3)
H14 H 0.6453 -0.0590 0.6682
H15 H 0.7456 -0.0560 0.5957
C18 C 0.8312(8) 0.0300(5) 0.7133(4)
H16 H 0.9038 0.0739 0.6886
H17 H 0.8615 -0.0296 0.7375
H18 H 0.8041 0.0752 0.7599
H37 H 0.992(3) 0.343(3) 0.196(2)
H39 H 1.332(5) 0.248(4) 0.155(3)
H40 H 1.043(5) 0.168(4) 0.383(3)
H41 H 1.099(3) 0.490(3) -0.029(2)
O5 O 0.4169(3) 0.5227(2) 0.27893(18)
O6 O 0.0707(3) 0.5316(2) 0.40260(15)
O7 O 0.4713(3) 0.3981(3) 0.3890(2)
O8 O 0.4014(3) 0.6836(2) 0.08293(19)
N5 N 0.2232(4) 0.5825(3) 0.2772(2)
N6 N 0.2508(3) 0.6339(3) 0.20391(19)
N7 N 0.1414(4) 0.4293(3) 0.5040(2)
N8 N 0.2711(4) 0.9058(3) -0.1293(2)
C19 C 0.3110(4) 0.5269(3) 0.3119(2)
C20 C 0.2760(4) 0.4737(3) 0.3893(2)
C21 C 0.1586(4) 0.4812(3) 0.4296(2)
C22 C 0.2236(5) 0.3675(3) 0.5378(3)
C23 C 0.3321(5) 0.3571(4) 0.4997(3)
H19 H 0.3894 0.3152 0.5228
C24 C 0.3603(4) 0.4094(3) 0.4242(3)
C25 C 0.1860(5) 0.3177(4) 0.6208(3)
H20 H 0.2435 0.2687 0.6350
H21 H 0.0930 0.2772 0.6098
H22 H 0.1977 0.3755 0.6700
C26 C 0.1680(4) 0.6875(3) 0.1713(2)
H23 H 0.0905 0.6910 0.1974
C27 C 0.1940(4) 0.7429(3) 0.0943(2)
C28 C 0.3084(4) 0.7384(3) 0.0527(2)
C29 C 0.3329(4) 0.7924(3) -0.0200(2)
H24 H 0.4096 0.7872 -0.0464
C30 C 0.2479(4) 0.8541(3) -0.0553(3)
C31 C 0.1315(4) 0.8596(3) -0.0129(3)
H25 H 0.0714 0.9004 -0.0339
C32 C 0.1084(4) 0.8047(3) 0.0590(3)
H26 H 0.0314 0.8091 0.0856
C33 C 0.1891(5) 0.9758(4) -0.1651(3)
H27 H 0.0946 0.9446 -0.1610
H28 H 0.1980 0.9775 -0.2279
C34 C 0.2281(6) 1.0900(5) -0.1175(5)
H29 H 0.2147 1.0892 -0.0560
H30 H 0.1731 1.1339 -0.1450
H31 H 0.3219 1.1210 -0.1207
C35 C 0.3860(5) 0.8882(4) -0.1800(3)
H32 H 0.3954 0.8126 -0.1809
H33 H 0.3676 0.9021 -0.2412
C36 C 0.5067(7) 0.9622(4) -0.1363(3)
H34 H 0.4942 1.0363 -0.1320
H35 H 0.5798 0.9563 -0.1699
H36 H 0.5279 0.9441 -0.0774
H38 H 0.149(3) 0.576(4) 0.303(3)
H42 H 0.476(4) 0.435(4) 0.344(3)
H43 H 0.354(5) 0.659(5) 0.121(4)
H44 H 0.067(3) 0.433(4) 0.526(3)
loop_
_geom_bond_atom_site_label_1
_geom_bond_atom_site_label_2
_geom_bond_site_symmetry_1
_geom_bond_site_symmetry_2
O1 C1 1_555 1_555
O2 C3 1_555 1_555
O3 C6 1_555 1_555
O4 C10 1_555 1_555
O5 C19 1_555 1_555
O6 C21 1_555 1_555
O7 C24 1_555 1_555
O8 C28 1_555 1_555
N1 N2 1_555 1_555
N2 C8 1_555 1_555
N3 C3 1_555 1_555
N4 C12 1_555 1_555
N5 N6 1_555 1_555
N6 C26 1_555 1_555
N7 C21 1_555 1_555
N8 C30 1_555 1_555
C1 N1 1_555 1_555
C2 C1 1_555 1_555
C3 C2 1_555 1_555
C4 N3 1_555 1_555
C5 C4 1_555 1_555
H1 C5 1_555 1_555
C6 C2 1_555 1_555
C7 C4 1_555 1_555
H2 C7 1_555 1_555
H3 C7 1_555 1_555
H4 C7 1_555 1_555
C8 H5 1_555 1_555
C9 C8 1_555 1_555
C10 C9 1_555 1_555
C11 C10 1_555 1_555
H6 C11 1_555 1_555
C12 C11 1_555 1_555
C13 C12 1_555 1_555
H7 C13 1_555 1_555
C14 C9 1_555 1_555
H8 C14 1_555 1_555
C15 N4 1_555 1_555
H9 C15 1_555 1_555
H10 C15 1_555 1_555
C16 C15 1_555 1_555
H11 C16 1_555 1_555
H12 C16 1_555 1_555
H13 C16 1_555 1_555
C17 N4 1_555 1_555
H14 C17 1_555 1_555
H15 C17 1_555 1_555
C18 C17 1_555 1_555
H16 C18 1_555 1_555
H17 C18 1_555 1_555
H18 C18 1_555 1_555
C19 N5 1_555 1_555
C20 C19 1_555 1_555
C21 C20 1_555 1_555
C22 N7 1_555 1_555
C23 C22 1_555 1_555
H19 C23 1_555 1_555
C24 C20 1_555 1_555
C25 C22 1_555 1_555
H20 C25 1_555 1_555
H21 C25 1_555 1_555
H22 C25 1_555 1_555
C26 H23 1_555 1_555
C27 C26 1_555 1_555
C28 C27 1_555 1_555
C29 C28 1_555 1_555
H24 C29 1_555 1_555
C30 C29 1_555 1_555
C31 C30 1_555 1_555
H25 C31 1_555 1_555
C32 C27 1_555 1_555
H26 C32 1_555 1_555
C33 N8 1_555 1_555
H27 C33 1_555 1_555
H28 C33 1_555 1_555
C34 C33 1_555 1_555
H29 C34 1_555 1_555
H30 C34 1_555 1_555
H31 C34 1_555 1_555
C35 N8 1_555 1_555
H32 C35 1_555 1_555
H33 C35 1_555 1_555
C36 C35 1_555 1_555
H34 C36 1_555 1_555
H35 C36 1_555 1_555
H36 C36 1_555 1_555
H37 N1 1_555 1_555
H38 N5 1_555 1_555
H39 O3 1_555 1_555
H40 O4 1_555 1_555
H41 N3 1_555 1_555
H42 O7 1_555 1_555
H43 O8 1_555 1_555
H44 N7 1_555 1_555
C5 C6 1_555 1_555
C13 C14 1_555 1_555
C23 C24 1_555 1_555
C31 C32 1_555 1_555

#END
