
#######################################################################
#
#                 Cambridge Crystallographic Data Centre
#                                CCDC 
#
#######################################################################
#
# If this CIF has been generated from an entry in the Cambridge 
# Structural Database, then it will include bibliographic, chemical, 
# crystal, experimental, refinement or atomic coordinate data resulting 
# from the CCDC's data processing and validation procedures.
#
#######################################################################

data_JELDIQ
_chemical_formula_moiety         'C37 H34 N10'
_chemical_name_systematic        
2-(6-(3,5-dimethyl-1H-pyrazol-1-yl)pyridin-2-yl)-5-((2-(6-(3,5-dimethyl-1H-pyrazol-1-yl)pyridin-2-yl)-1-methyl-1H-benzimidazol-5-yl)methyl)-1-methyl-1H-benzimidazole
_symmetry_cell_setting           monoclinic
_symmetry_space_group_name_H-M   'C 2/c'
_symmetry_Int_Tables_number      15
_space_group_name_Hall           '-C 2yn'
loop_
_symmetry_equiv_pos_site_id
_symmetry_equiv_pos_as_xyz
1 x,y,z
2 -x,y,1/2-z
3 1/2+x,1/2+y,z
4 1/2-x,1/2+y,1/2-z
5 -x,-y,-z
6 x,-y,1/2+z
7 1/2-x,1/2-y,-z
8 1/2+x,1/2-y,1/2+z
_cell_length_a                   14.1531(9)
_cell_length_b                   11.8403(6)
_cell_length_c                   19.7642(13)
_cell_angle_alpha                90
_cell_angle_beta                 103.443(6)
_cell_angle_gamma                90
_cell_volume                     3221.28
_exptl_crystal_description       prismatic
_cell_formula_units_Z            4
loop_
_atom_site_label
_atom_site_type_symbol
_atom_site_fract_x
_atom_site_fract_y
_atom_site_fract_z
N1 N 0.25660(14) 0.73839(17) 0.80151(9)
N2 N 0.23053(13) 0.70040(15) 0.73435(9)
N3 N 0.20997(11) 0.78908(13) 0.62679(8)
N4 N 0.08093(11) 0.86006(13) 0.49704(8)
N5 N 0.20786(11) 0.94698(13) 0.46961(8)
C1 C 0.2042(2) 0.6741(3) 0.83462(14)
C2 C 0.1478(2) 0.5971(3) 0.78981(17)
H1 H 0.1061 0.5437 0.8015
C3 C 0.16474(17) 0.6144(2) 0.72545(14)
C4 C 0.1279(2) 0.5538(2) 0.65868(16)
H2 H 0.0629 0.5783 0.6382
H3 H 0.1279 0.4740 0.6672
H4 H 0.1690 0.5700 0.6275
C5 C 0.2122(3) 0.6940(3) 0.91104(14)
H5 H 0.2586 0.7528 0.9272
H6 H 0.2330 0.6257 0.9363
H7 H 0.1500 0.7161 0.9182
C6 C 0.27229(14) 0.75346(16) 0.68380(10)
C7 C 0.37134(14) 0.76485(17) 0.69613(11)
H8 H 0.4119 0.7380 0.7369
C8 C 0.40837(15) 0.81765(17) 0.64577(11)
H9 H 0.4751 0.8266 0.6518
C9 C 0.34565(14) 0.85707(17) 0.58640(11)
H10 H 0.3693 0.8942 0.5523
C10 C 0.24673(13) 0.84051(15) 0.57831(9)
C11 C 0.17897(13) 0.88201(15) 0.51522(9)
C12 C 0.12504(13) 0.96921(15) 0.41860(9)
C13 C 0.04559(14) 0.91549(16) 0.43514(9)
C14 C -0.04748(15) 0.92246(18) 0.39262(11)
H11 H -0.0998 0.8855 0.4038
C15 C -0.05840(15) 0.98655(18) 0.33338(11)
H12 H -0.1198 0.9926 0.3039
C16 C 0.01965(15) 1.04336(16) 0.31547(10)
C17 C 0.11162(14) 1.03394(15) 0.35770(10)
H13 H 0.1640 1.0700 0.3460
C18 C 0.02026(15) 0.7905(2) 0.53063(11)
H14 H -0.0467 0.7997 0.5070
H15 H 0.0290 0.8133 0.5783
H16 H 0.0385 0.7127 0.5288
C19 C 0.0000 1.1135(2) 0.2500
H17 H -0.0556 1.1618 0.2493
H17A H 0.0556 1.1618 0.2507
N1A N -0.25660(14) 0.73839(17) -0.30151(9)
N2A N -0.23053(13) 0.70040(15) -0.23435(9)
N3A N -0.20997(11) 0.78908(13) -0.12679(8)
N4A N -0.08093(11) 0.86006(13) 0.00296(8)
N5A N -0.20786(11) 0.94698(13) 0.03039(8)
C1A C -0.2042(2) 0.6741(3) -0.33462(14)
C2A C -0.1478(2) 0.5971(3) -0.28981(17)
H1A H -0.1061 0.5437 -0.3015
C3A C -0.16474(17) 0.6144(2) -0.22545(14)
C4A C -0.1279(2) 0.5538(2) -0.15868(16)
H2A H -0.0629 0.5783 -0.1382
H3A H -0.1279 0.4740 -0.1672
H4A H -0.1690 0.5700 -0.1275
C5A C -0.2122(3) 0.6940(3) -0.41104(14)
H5A H -0.2586 0.7528 -0.4272
H6A H -0.2330 0.6257 -0.4363
H7A H -0.1500 0.7161 -0.4182
C6A C -0.27229(14) 0.75346(16) -0.18380(10)
C7A C -0.37134(14) 0.76485(17) -0.19613(11)
H8A H -0.4119 0.7380 -0.2369
C8A C -0.40837(15) 0.81765(17) -0.14577(11)
H9A H -0.4751 0.8266 -0.1518
C9A C -0.34565(14) 0.85707(17) -0.08640(11)
H10A H -0.3693 0.8942 -0.0523
C10A C -0.24673(13) 0.84051(15) -0.07831(9)
C11A C -0.17897(13) 0.88201(15) -0.01522(9)
C12A C -0.12504(13) 0.96921(15) 0.08140(9)
C13A C -0.04559(14) 0.91549(16) 0.06486(9)
C14A C 0.04748(15) 0.92246(18) 0.10738(11)
H11A H 0.0998 0.8855 0.0962
C15A C 0.05840(15) 0.98655(18) 0.16662(11)
H12A H 0.1198 0.9926 0.1961
C16A C -0.01965(15) 1.04336(16) 0.18453(10)
C17A C -0.11162(14) 1.03394(15) 0.14230(10)
H13A H -0.1640 1.0700 0.1540
C18A C -0.02026(15) 0.7905(2) -0.03063(11)
H14A H 0.0467 0.7997 -0.0070
H15A H -0.0290 0.8133 -0.0783
H16A H -0.0385 0.7127 -0.0288
H18? H -0.0556 1.1618 0.2493
loop_
_geom_bond_atom_site_label_1
_geom_bond_atom_site_label_2
_geom_bond_site_symmetry_1
_geom_bond_site_symmetry_2
N1 N2 1_555 1_555
N2 C3 1_555 1_555
N3 C6 1_555 1_555
N4 C11 1_555 1_555
N5 C11 1_555 1_555
C1 N1 1_555 1_555
C2 C1 1_555 1_555
H1 C2 1_555 1_555
C3 C2 1_555 1_555
C4 C3 1_555 1_555
H2 C4 1_555 1_555
H3 C4 1_555 1_555
H4 C4 1_555 1_555
C5 C1 1_555 1_555
H5 C5 1_555 1_555
H6 C5 1_555 1_555
H7 C5 1_555 1_555
C6 N2 1_555 1_555
C7 C6 1_555 1_555
H8 C7 1_555 1_555
C8 C7 1_555 1_555
H9 C8 1_555 1_555
C9 C8 1_555 1_555
H10 C9 1_555 1_555
C10 N3 1_555 1_555
C11 C10 1_555 1_555
C12 N5 1_555 1_555
C13 N4 1_555 1_555
C14 C13 1_555 1_555
H11 C14 1_555 1_555
C15 C14 1_555 1_555
H12 C15 1_555 1_555
C16 C15 1_555 1_555
C17 C12 1_555 1_555
H13 C17 1_555 1_555
C18 N4 1_555 1_555
H14 C18 1_555 1_555
H15 C18 1_555 1_555
H16 C18 1_555 1_555
C19 C16 1_555 1_555
H17 C19 1_555 1_555
H17A C19 1_555 1_555
N1A N2A 1_555 1_555
N2A C3A 1_555 1_555
N3A C6A 1_555 1_555
N4A C11A 1_555 1_555
N5A C11A 1_555 1_555
C1A N1A 1_555 1_555
C2A C1A 1_555 1_555
H1A C2A 1_555 1_555
C3A C2A 1_555 1_555
C4A C3A 1_555 1_555
H2A C4A 1_555 1_555
H3A C4A 1_555 1_555
H4A C4A 1_555 1_555
C5A C1A 1_555 1_555
H5A C5A 1_555 1_555
H6A C5A 1_555 1_555
H7A C5A 1_555 1_555
C6A N2A 1_555 1_555
C7A C6A 1_555 1_555
H8A C7A 1_555 1_555
C8A C7A 1_555 1_555
H9A C8A 1_555 1_555
C9A C8A 1_555 1_555
H10A C9A 1_555 1_555
C10A N3A 1_555 1_555
C11A C10A 1_555 1_555
C12A N5A 1_555 1_555
C13A N4A 1_555 1_555
C14A C13A 1_555 1_555
H11A C14A 1_555 1_555
C15A C14A 1_555 1_555
H12A C15A 1_555 1_555
C16A C19 1_555 1_555
C17A C12A 1_555 1_555
H13A C17A 1_555 1_555
C18A N4A 1_555 1_555
H14A C18A 1_555 1_555
H15A C18A 1_555 1_555
H16A C18A 1_555 1_555
C9 C10 1_555 1_555
C12 C13 1_555 1_555
C16 C17 1_555 1_555
C9A C10A 1_555 1_555
C12A C13A 1_555 1_555
C15A C16A 1_555 1_555
C16A C17A 1_555 1_555

#END
