
#######################################################################
#
#                 Cambridge Crystallographic Data Centre
#                                CCDC 
#
#######################################################################
#
# If this CIF has been generated from an entry in the Cambridge 
# Structural Database, then it will include bibliographic, chemical, 
# crystal, experimental, refinement or atomic coordinate data resulting 
# from the CCDC's data processing and validation procedures.
#
#######################################################################

data_JELGUD
_chemical_formula_moiety         'C16 H26 O4 Si1'
_chemical_name_systematic        
3-(t-Butyldimethylsiloxy)-2-methoxy-2,3,5,8a-tetrahydrocyclopenta(1,2-b:2,3-b')difuran
_symmetry_cell_setting           rhombohedral
_symmetry_space_group_name_H-M   'R 3'
_symmetry_Int_Tables_number      146
_space_group_name_Hall           'R 3'
loop_
_symmetry_equiv_pos_site_id
_symmetry_equiv_pos_as_xyz
1 x,y,z
2 -y,x-y,z
3 -x+y,-x,z
4 2/3+x,1/3+y,1/3+z
5 2/3-y,1/3+x-y,1/3+z
6 2/3-x+y,1/3-x,1/3+z
7 1/3+x,2/3+y,2/3+z
8 1/3-y,2/3+x-y,2/3+z
9 1/3-x+y,2/3-x,2/3+z
_cell_length_a                   21.5990(14)
_cell_length_b                   21.5990(14)
_cell_length_c                   10.1080(15)
_cell_angle_alpha                90
_cell_angle_beta                 90
_cell_angle_gamma                120
_cell_volume                     4083.79
_exptl_crystal_colour            colorless
_exptl_crystal_description       block
_chemical_melting_point          '96-98 deg.C'
_cell_formula_units_Z            9
loop_
_atom_site_label
_atom_site_type_symbol
_atom_site_fract_x
_atom_site_fract_y
_atom_site_fract_z
Si1 Si 0.8562(2) 0.7334(2) 0.8216(5)
O1 O 0.8595(3) 0.6955(3) 0.6834(6)
O2 O 0.8214(3) 0.6857(4) 0.4250(7)
O3 O 0.7286(3) 0.5680(3) 0.4623(7)
O4 O 0.8972(3) 0.6112(3) 0.5436(6)
C1 C 0.9305(8) 0.8228(9) 0.8204(18)
C2 C 0.9168(18) 0.8600(11) 0.688(3)
H1 H 0.9619 0.8925 0.6475
H2 H 0.8931 0.8856 0.7137
H3 H 0.8875 0.8234 0.6254
C3 C 0.9306(8) 0.8645(8) 0.9467(15)
H4 H 0.9736 0.9103 0.9488
H5 H 0.9284 0.8378 1.0242
H6 H 0.8899 0.8712 0.9448
C4 C 1.0002(6) 0.8249(9) 0.801(2)
H7 H 1.0072 0.7989 0.8708
H8 H 1.0385 0.8737 0.8018
H9 H 0.9998 0.8035 0.7173
C5 C 0.8776(14) 0.6868(14) 0.9664(17)
H10 H 0.8717 0.6420 0.9361
H11 H 0.8456 0.6785 1.0388
H12 H 0.9260 0.7171 0.9952
C6 C 0.7705(9) 0.7235(13) 0.848(3)
H13 H 0.7582 0.7145 0.9398
H14 H 0.7357 0.6842 0.7961
H15 H 0.7711 0.7666 0.8216
C7 C 0.7961(7) 0.7083(8) 0.3175(16)
H16 H 0.7606 0.7192 0.3482
H17 H 0.7753 0.6708 0.2528
H18 H 0.8351 0.7502 0.2785
C8 C 0.7683(5) 0.6386(5) 0.5082(9)
C9 C 0.8028(5) 0.6317(4) 0.6359(10)
H19 H 0.7662 0.6099 0.7048
C10 C 0.8256(5) 0.5779(5) 0.5917(8)
C11 C 0.7632(5) 0.5292(5) 0.4994(10)
H20 H 0.7797 0.5140 0.4221
C12 C 0.7195(6) 0.4688(5) 0.5890(14)
H21 H 0.6726 0.4341 0.5702
C13 C 0.7536(6) 0.4684(7) 0.7005(12)
H22 H 0.7344 0.4347 0.7679
C14 C 0.8240(5) 0.5286(6) 0.6973(11)
C15 C 0.8893(7) 0.5460(6) 0.7295(13)
H23 H 0.9018 0.5239 0.7946
C16 C 0.9404(5) 0.6068(6) 0.6455(11)
H24 H 0.9639 0.6508 0.6962
H25 H 0.9765 0.5976 0.6085
H26 H 0.7264 0.6469 0.5352
loop_
_geom_bond_atom_site_label_1
_geom_bond_atom_site_label_2
_geom_bond_site_symmetry_1
_geom_bond_site_symmetry_2
Si1 O1 1_555 1_555
O1 C9 1_555 1_555
O2 C7 1_555 1_555
O3 C8 1_555 1_555
O4 C10 1_555 1_555
C1 Si1 1_555 1_555
C2 C1 1_555 1_555
H1 C2 1_555 1_555
H2 C2 1_555 1_555
H3 C2 1_555 1_555
C3 C1 1_555 1_555
H4 C3 1_555 1_555
H5 C3 1_555 1_555
H6 C3 1_555 1_555
C4 C1 1_555 1_555
H7 C4 1_555 1_555
H8 C4 1_555 1_555
H9 C4 1_555 1_555
C5 Si1 1_555 1_555
H10 C5 1_555 1_555
H11 C5 1_555 1_555
H12 C5 1_555 1_555
C6 Si1 1_555 1_555
H13 C6 1_555 1_555
H14 C6 1_555 1_555
H15 C6 1_555 1_555
C7 H16 1_555 1_555
H17 C7 1_555 1_555
H18 C7 1_555 1_555
C8 O2 1_555 1_555
C9 C8 1_555 1_555
H19 C9 1_555 1_555
C10 C9 1_555 1_555
C11 O3 1_555 1_555
H20 C11 1_555 1_555
C12 C11 1_555 1_555
H21 C12 1_555 1_555
C13 C12 1_555 1_555
H22 C13 1_555 1_555
C14 C10 1_555 1_555
C15 C14 1_555 1_555
H23 C15 1_555 1_555
C16 O4 1_555 1_555
H24 C16 1_555 1_555
H25 C16 1_555 1_555
H26 C8 1_555 1_555
C10 C11 1_555 1_555
C13 C14 1_555 1_555
C15 C16 1_555 1_555

#END
