
#######################################################################
#
#                 Cambridge Crystallographic Data Centre
#                                CCDC 
#
#######################################################################
#
# If this CIF has been generated from an entry in the Cambridge 
# Structural Database, then it will include bibliographic, chemical, 
# crystal, experimental, refinement or atomic coordinate data resulting 
# from the CCDC's data processing and validation procedures.
#
#######################################################################

data_JELHAK
_chemical_formula_moiety         'C10 H12 O4'
_chemical_name_systematic        
3-Hydroxy-2-methoxy-2,3,5,8a-tetrahydrocyclopenta(1,2-b:2,3-b')difuran
_symmetry_cell_setting           trigonal
_symmetry_space_group_name_H-M   'P 31'
_symmetry_Int_Tables_number      144
_space_group_name_Hall           'P 31'
loop_
_symmetry_equiv_pos_site_id
_symmetry_equiv_pos_as_xyz
1 x,y,z
2 -y,x-y,1/3+z
3 -x+y,-x,2/3+z
_cell_length_a                   7.7030(6)
_cell_length_b                   7.7030(6)
_cell_length_c                   13.585(2)
_cell_angle_alpha                90
_cell_angle_beta                 90
_cell_angle_gamma                120
_cell_volume                     698.088
_exptl_crystal_colour            colorless
_exptl_crystal_description       block
_chemical_melting_point          '112-114 deg.C'
_cell_formula_units_Z            3
loop_
_atom_site_label
_atom_site_type_symbol
_atom_site_fract_x
_atom_site_fract_y
_atom_site_fract_z
O1 O -0.1451(5) -0.0973(4) 0.1376
O2 O -0.2462(5) 0.0064(5) 0.2748
O3 O 0.2453(5) 0.2185(6) 0.1679
O4 O -0.0104(5) 0.3289(5) 0.0886
C1 C -0.3011(11) -0.3031(9) 0.1385
C2 C -0.0936(8) -0.0189(7) 0.2302
C3 C -0.2199(7) 0.1986(7) 0.2440
C4 C -0.1911(8) 0.3329(7) 0.3305(4)
C5 C -0.0289(8) 0.5125(8) 0.3218(4)
C6 C 0.0669(7) 0.5229(7) 0.2281(4)
C7 C 0.1527(8) 0.6484(8) 0.1547(4)
C8 C 0.1288(9) 0.5352(7) 0.0636(4)
C9 C -0.0168(6) 0.3132(6) 0.1896
C10 C 0.0809(7) 0.1908(7) 0.2258(4)
H1 H 0.134(7) 0.236(6) 0.284(3)
H2 H -0.430(10) -0.316(8) 0.159(4)
H3 H 0.196(9) 0.211(9) 0.116(4)
H4 H -0.317(8) 0.184(8) 0.204(4)
H5 H 0.205(7) 0.772(8) 0.157(3)
H6 H 0.011(7) 0.618(8) 0.361(3)
H7 H 0.063(7) 0.568(7) 0.010(4)
H8 H -0.287(9) 0.301(8) 0.381(4)
H9 H -0.083(6) -0.107(6) 0.271(3)
H10 H 0.258(8) 0.549(7) 0.034(3)
H11 H -0.264(9) -0.399(10) 0.186(5)
H12 H -0.300(9) -0.317(9) 0.074(4)
loop_
_geom_bond_atom_site_label_1
_geom_bond_atom_site_label_2
_geom_bond_site_symmetry_1
_geom_bond_site_symmetry_2
O1 C1 1_555 1_555
O2 C2 1_555 1_555
O3 C10 1_555 1_555
O4 C8 1_555 1_555
C1 H2 1_555 1_555
C2 O1 1_555 1_555
C3 O2 1_555 1_555
C4 C3 1_555 1_555
C5 C4 1_555 1_555
C6 C5 1_555 1_555
C7 C6 1_555 1_555
C8 C7 1_555 1_555
C9 O4 1_555 1_555
C10 C2 1_555 1_555
H1 C10 1_555 1_555
H3 O3 1_555 1_555
H4 C3 1_555 1_555
H5 C7 1_555 1_555
H6 C5 1_555 1_555
H7 C8 1_555 1_555
H8 C4 1_555 1_555
H9 C2 1_555 1_555
H10 C8 1_555 1_555
H11 C1 1_555 1_555
H12 C1 1_555 1_555
C3 C9 1_555 1_555
C6 C9 1_555 1_555
C9 C10 1_555 1_555

#END
