
#######################################################################
#
#                 Cambridge Crystallographic Data Centre
#                                CCDC 
#
#######################################################################
#
# If this CIF has been generated from an entry in the Cambridge 
# Structural Database, then it will include bibliographic, chemical, 
# crystal, experimental, refinement or atomic coordinate data resulting 
# from the CCDC's data processing and validation procedures.
#
#######################################################################

data_JELVAX
_chemical_formula_moiety         'C20 H30 O2'
_chemical_name_systematic        ent-19-Hydroxy-6-oxokaur-16-ene
_symmetry_cell_setting           orthorhombic
_symmetry_space_group_name_H-M   'P 21 21 21'
_symmetry_Int_Tables_number      19
_space_group_name_Hall           'P 2ac 2ab'
loop_
_symmetry_equiv_pos_site_id
_symmetry_equiv_pos_as_xyz
1 x,y,z
2 1/2+x,1/2-y,-z
3 -x,1/2+y,1/2-z
4 1/2-x,-y,1/2+z
_cell_length_a                   6.349(1)
_cell_length_b                   11.106(1)
_cell_length_c                   23.812(1)
_cell_angle_alpha                90
_cell_angle_beta                 90
_cell_angle_gamma                90
_cell_volume                     1679.03
_chemical_melting_point          158-159deg.C
_cell_formula_units_Z            4
loop_
_atom_site_label
_atom_site_type_symbol
_atom_site_fract_x
_atom_site_fract_y
_atom_site_fract_z
O1 O 0.7705(13) 1.1462(10) 0.3282(5)
O2 O 0.5122(16) 0.9925(9) 0.2797(4)
C1 C 0.2124(23) 1.0260(12) 0.4624(5)
C2 C 0.3251(25) 1.1452(12) 0.4732(5)
C3 C 0.3089(25) 1.2311(11) 0.4227(5)
C4 C 0.4083(20) 1.1770(11) 0.3689(5)
C5 C 0.2971(18) 1.0530(10) 0.3587(5)
C6 C 0.3463(20) 0.9821(11) 0.3056(5)
C7 C 0.1841(22) 0.8959(12) 0.2880(5)
C8 C 0.1501(18) 0.7994(10) 0.3342(5)
C9 C 0.1254(18) 0.8611(11) 0.3934(5)
C10 C 0.2944(20) 0.9590(10) 0.4093(5)
C11 C 0.0992(23) 0.7610(12) 0.4397(5)
C12 C 0.2221(27) 0.6449(1) 0.4327(6)
C13 C 0.2173(22) 0.6010(12) 0.3688(6)
C14 C 0.3234(20) 0.7017(11) 0.3319(5)
C15 C -0.0512(22) 0.7260(12) 0.3195(6)
C16 C -0.0119(23) 0.6045(13) 0.3469(5)
C17 C -0.1474(24) 0.5107(13) 0.3515(7)
C18 C 0.3539(23) 1.2603(11) 0.3186(6)
C19 C 0.6588(20) 1.1770(12) 0.3782(6)
C20 C 0.5162(19) 0.9044(11) 0.4209(5)
H1 H 0.235 0.968 0.498
H2 H 0.046 1.044 0.457
H3 H 0.489 1.127 0.481
H4 H 0.255 1.188 0.509
H5 H 0.390 1.314 0.433
H6 H 0.145 1.250 0.415
H7 H 0.143 1.093 0.354
H8 H 0.038 0.943 0.281
H9 H 0.234 0.852 0.250
H10 H -0.016 0.915 0.391
H11 H 0.146 0.800 0.479
H12 H -0.066 0.737 0.441
H13 H 0.383 0.660 0.445
H14 H 0.153 0.576 0.459
H15 H 0.290 0.513 0.367
H16 H 0.352 0.671 0.289
H17 H 0.469 0.733 0.350
H18 H -0.069 0.717 0.275
H19 H -0.190 0.768 0.337
H20 H 0.422 1.224 0.281
H21 H 0.185 1.266 0.314
H22 H 0.417 1.349 0.326
H23 H -0.306 0.519 0.335
H24 H -0.097 0.428 0.371
H25 H 0.697 1.112 0.410
H26 H 0.707 1.266 0.392
H27 H 0.625 0.976 0.432
H28 H 0.506 0.841 0.455
H29 H 0.571 0.858 0.384
H30 H 0.750 1.082 0.348
loop_
_geom_bond_atom_site_label_1
_geom_bond_atom_site_label_2
_geom_bond_site_symmetry_1
_geom_bond_site_symmetry_2
O1 C19 1_555 1_555
O2 C6 1_555 1_555
C1 C2 1_555 1_555
C2 C3 1_555 1_555
C3 C4 1_555 1_555
C4 C5 1_555 1_555
C5 C6 1_555 1_555
C6 C7 1_555 1_555
C7 C8 1_555 1_555
C8 C9 1_555 1_555
C9 C10 1_555 1_555
C10 C1 1_555 1_555
C11 C9 1_555 1_555
C12 C11 1_555 1_555
C13 C12 1_555 1_555
C14 C8 1_555 1_555
C15 C8 1_555 1_555
C16 C13 1_555 1_555
C17 C16 1_555 1_555
C18 C4 1_555 1_555
C19 C4 1_555 1_555
C20 C10 1_555 1_555
H1 C1 1_555 1_555
H2 C1 1_555 1_555
H3 C2 1_555 1_555
H4 C2 1_555 1_555
H5 C3 1_555 1_555
H6 C3 1_555 1_555
H7 C5 1_555 1_555
H8 C7 1_555 1_555
H9 C7 1_555 1_555
H10 C9 1_555 1_555
H11 C11 1_555 1_555
H12 C11 1_555 1_555
H13 C12 1_555 1_555
H14 C12 1_555 1_555
H15 C13 1_555 1_555
H16 C14 1_555 1_555
H17 C14 1_555 1_555
H18 C15 1_555 1_555
H19 C15 1_555 1_555
H20 C18 1_555 1_555
H21 C18 1_555 1_555
H22 C18 1_555 1_555
H23 C17 1_555 1_555
H24 C17 1_555 1_555
H25 C19 1_555 1_555
H26 C19 1_555 1_555
H27 C20 1_555 1_555
H28 C20 1_555 1_555
H29 C20 1_555 1_555
H30 O1 1_555 1_555
C5 C10 1_555 1_555
C13 C14 1_555 1_555
C15 C16 1_555 1_555

#END
