
#######################################################################
#
#                 Cambridge Crystallographic Data Centre
#                                CCDC 
#
#######################################################################
#
# If this CIF has been generated from an entry in the Cambridge 
# Structural Database, then it will include bibliographic, chemical, 
# crystal, experimental, refinement or atomic coordinate data resulting 
# from the CCDC's data processing and validation procedures.
#
#######################################################################

data_JEMQUQ
_chemical_formula_moiety         'C16 H12 O2'
_chemical_name_systematic        
(E)-2-(4-hydroxybenzylidene)-2,3-dihydro-1H-inden-1-one
_symmetry_cell_setting           orthorhombic
_symmetry_space_group_name_H-M   'P n a 21'
_symmetry_Int_Tables_number      33
_space_group_name_Hall           'P 2c -2n'
loop_
_symmetry_equiv_pos_site_id
_symmetry_equiv_pos_as_xyz
1 x,y,z
2 -x,-y,1/2+z
3 1/2+x,1/2-y,z
4 1/2-x,1/2+y,1/2+z
_cell_length_a                   13.4949(4)
_cell_length_b                   15.1516(4)
_cell_length_c                   5.7058(2)
_cell_angle_alpha                90
_cell_angle_beta                 90
_cell_angle_gamma                90
_cell_volume                     1166.66
_exptl_crystal_colour            yellow
_exptl_crystal_description       rod
_cell_formula_units_Z            4
loop_
_atom_site_label
_atom_site_type_symbol
_atom_site_fract_x
_atom_site_fract_y
_atom_site_fract_z
O1 O 0.27637(11) 0.60427(9) 0.8503(2)
O2 O 0.64947(11) 0.96602(9) 0.1597(3)
H1 H 0.686(2) 0.9415(19) 0.045(6)
C1 C 0.31672(15) 0.57426(13) 0.6726(4)
C2 C 0.38764(15) 0.62202(14) 0.5220(3)
C3 C 0.41578(15) 0.56269(13) 0.3191(4)
H2 H 0.3961 0.5892 0.1675
H3 H 0.4880 0.5511 0.3173
C4 C 0.35822(15) 0.47920(13) 0.3671(4)
C5 C 0.35342(15) 0.40253(13) 0.2336(4)
H4 H 0.3911 0.3968 0.0938
C6 C 0.29242(15) 0.33479(14) 0.3089(4)
H5 H 0.2881 0.2823 0.2182
C7 C 0.23704(16) 0.34158(14) 0.5148(4)
H6 H 0.1964 0.2938 0.5633
C8 C 0.24114(15) 0.41779(13) 0.6485(4)
H7 H 0.2036 0.4233 0.7885
C9 C 0.30217(14) 0.48628(13) 0.5714(4)
C10 C 0.47659(15) 0.76879(13) 0.4598(3)
C11 C 0.48459(15) 0.85343(13) 0.5593(4)
H8 H 0.4494 0.8661 0.6995
C12 C 0.54195(16) 0.91835(14) 0.4592(4)
H9 H 0.5460 0.9750 0.5298
C13 C 0.59385(14) 0.90068(13) 0.2544(3)
C14 C 0.58624(15) 0.81774(13) 0.1507(4)
H10 H 0.6208 0.8059 0.0090
C15 C 0.52918(16) 0.75293(14) 0.2516(4)
H11 H 0.5253 0.6965 0.1795
C16 C 0.41351(14) 0.70521(13) 0.5767(3)
H12 H 0.3851 0.7262 0.7186
loop_
_geom_bond_atom_site_label_1
_geom_bond_atom_site_label_2
_geom_bond_site_symmetry_1
_geom_bond_site_symmetry_2
O1 C1 1_555 1_555
O2 H1 1_555 1_555
C1 C2 1_555 1_555
C2 C3 1_555 1_555
C3 H2 1_555 1_555
H3 C3 1_555 1_555
C4 C3 1_555 1_555
C5 C4 1_555 1_555
H4 C5 1_555 1_555
C6 C5 1_555 1_555
H5 C6 1_555 1_555
C7 C6 1_555 1_555
H6 C7 1_555 1_555
C8 C7 1_555 1_555
H7 C8 1_555 1_555
C9 C1 1_555 1_555
C10 C11 1_555 1_555
C11 H8 1_555 1_555
C12 C11 1_555 1_555
H9 C12 1_555 1_555
C13 O2 1_555 1_555
C14 C13 1_555 1_555
H10 C14 1_555 1_555
C15 C10 1_555 1_555
H11 C15 1_555 1_555
C16 C2 1_555 1_555
H12 C16 1_555 1_555
C4 C9 1_555 1_555
C8 C9 1_555 1_555
C10 C16 1_555 1_555
C12 C13 1_555 1_555
C14 C15 1_555 1_555

#END
