
#######################################################################
#
#                 Cambridge Crystallographic Data Centre
#                                CCDC 
#
#######################################################################
#
# If this CIF has been generated from an entry in the Cambridge 
# Structural Database, then it will include bibliographic, chemical, 
# crystal, experimental, refinement or atomic coordinate data resulting 
# from the CCDC's data processing and validation procedures.
#
#######################################################################

data_JEMRUR
_chemical_formula_moiety         'C17 H11 N1 O1'
_chemical_name_systematic        
(E)-2-(4-cyanobenzylidene)-2,3-dihydro-1H-inden-1-one
_symmetry_cell_setting           orthorhombic
_symmetry_space_group_name_H-M   'P n a 21'
_symmetry_Int_Tables_number      33
_space_group_name_Hall           'P 2c -2n'
loop_
_symmetry_equiv_pos_site_id
_symmetry_equiv_pos_as_xyz
1 x,y,z
2 -x,-y,1/2+z
3 1/2+x,1/2-y,z
4 1/2-x,1/2+y,1/2+z
_cell_length_a                   23.431(3)
_cell_length_b                   11.1523(10)
_cell_length_c                   4.7449(6)
_cell_angle_alpha                90
_cell_angle_beta                 90
_cell_angle_gamma                90
_cell_volume                     1239.89
_exptl_crystal_colour            colorless
_exptl_crystal_description       needle
_cell_formula_units_Z            4
loop_
_atom_site_label
_atom_site_type_symbol
_atom_site_fract_x
_atom_site_fract_y
_atom_site_fract_z
O1 O 0.4919(2) 0.2717(4) 1.0341(12)
N1 N 0.2761(3) 0.7184(5) -0.3690(15)
C1 C 0.4452(3) 0.2288(6) 0.9687(16)
C2 C 0.4041(3) 0.2762(5) 0.7573(15)
C3 C 0.3518(3) 0.1965(5) 0.7518(16)
H1 H 0.3457 0.1619 0.5620
H2 H 0.3173 0.2413 0.8089
C4 C 0.4199(3) 0.1184(5) 1.0870(16)
C5 C 0.3340(3) 0.0012(5) 1.0484(15)
H3 H 0.2973 -0.0120 0.9685
C6 C 0.3666(3) 0.0989(5) 0.9666(14)
C7 C 0.3556(3) -0.0768(5) 1.2477(17)
H4 H 0.3338 -0.1444 1.3047
C8 C 0.4099(3) -0.0565(6) 1.3674(17)
H5 H 0.4240 -0.1102 1.5063
C9 C 0.4429(3) 0.0396(5) 1.2863(16)
H6 H 0.4798 0.0521 1.3629
C10 C 0.3853(3) 0.4428(5) 0.3994(14)
C11 C 0.4113(3) 0.5481(5) 0.2888(16)
H7 H 0.4478 0.5719 0.3557
C12 C 0.3843(3) 0.6161(5) 0.0862(16)
H8 H 0.4024 0.6855 0.0117
C13 C 0.3300(3) 0.5824(5) -0.0095(14)
C14 C 0.3040(3) 0.4790(5) 0.0962(16)
H9 H 0.2674 0.4558 0.0297
C15 C 0.3315(3) 0.4102(5) 0.2977(16)
H10 H 0.3136 0.3398 0.3677
C16 C 0.4166(3) 0.3762(5) 0.6140(15)
H11 H 0.4525 0.4101 0.6608
C17 C 0.3001(3) 0.6572(6) -0.2080(17)
loop_
_geom_bond_atom_site_label_1
_geom_bond_atom_site_label_2
_geom_bond_site_symmetry_1
_geom_bond_site_symmetry_2
O1 C1 1_555 1_555
N1 C17 1_555 1_555
C1 C2 1_555 1_555
C2 C3 1_555 1_555
C3 H1 1_555 1_555
H2 C3 1_555 1_555
C4 C1 1_555 1_555
C5 H3 1_555 1_555
C6 C3 1_555 1_555
C7 C5 1_555 1_555
H4 C7 1_555 1_555
C8 C7 1_555 1_555
H5 C8 1_555 1_555
C9 C4 1_555 1_555
H6 C9 1_555 1_555
C10 C11 1_555 1_555
C11 H7 1_555 1_555
C12 C11 1_555 1_555
H8 C12 1_555 1_555
C13 C12 1_555 1_555
C14 C13 1_555 1_555
H9 C14 1_555 1_555
C15 C10 1_555 1_555
H10 C15 1_555 1_555
C16 C2 1_555 1_555
H11 C16 1_555 1_555
C17 C13 1_555 1_555
C4 C6 1_555 1_555
C5 C6 1_555 1_555
C8 C9 1_555 1_555
C10 C16 1_555 1_555
C14 C15 1_555 1_555

#END
