
#######################################################################
#
#                 Cambridge Crystallographic Data Centre
#                                CCDC 
#
#######################################################################
#
# If this CIF has been generated from an entry in the Cambridge 
# Structural Database, then it will include bibliographic, chemical, 
# crystal, experimental, refinement or atomic coordinate data resulting 
# from the CCDC's data processing and validation procedures.
#
#######################################################################

data_JEMTIF
_chemical_formula_moiety         'C24 H26 Br1 N1 O7'
_chemical_name_systematic        6'-Bromoplatensimycin
_symmetry_cell_setting           orthorhombic
_symmetry_space_group_name_H-M   'P 21 21 21'
_symmetry_Int_Tables_number      19
_space_group_name_Hall           'P 2ac 2ab'
loop_
_symmetry_equiv_pos_site_id
_symmetry_equiv_pos_as_xyz
1 x,y,z
2 1/2-x,-y,1/2+z
3 1/2+x,1/2-y,-z
4 -x,1/2+y,1/2-z
_cell_length_a                   10.176(4)
_cell_length_b                   11.376(5)
_cell_length_c                   19.084(8)
_cell_angle_alpha                90
_cell_angle_beta                 90
_cell_angle_gamma                90
_cell_volume                     2209.21
_exptl_crystal_colour            colorless
_chemical_melting_point          219-221deg.C(dec)
_cell_formula_units_Z            4
_exptl_crystal_recrystallization_method methanol/water
loop_
_atom_site_label
_atom_site_type_symbol
_atom_site_fract_x
_atom_site_fract_y
_atom_site_fract_z
Br1 Br -0.36849(4) 1.30827(3) -0.03899(2)
O1 O 0.3725(3) 0.66459(19) -0.16560(12)
O2 O -0.1578(2) 0.5023(2) -0.09707(14)
O3 O -0.0329(2) 0.9558(2) -0.08957(13)
O4 O -0.1757(2) 1.11577(18) -0.03061(13)
H1 H -0.1159 1.0693 -0.0430
O5 O -0.4537(2) 0.7877(2) -0.07884(12)
H2 H -0.5251 0.7719 -0.0987
O6 O -0.7170(2) 0.8358(2) -0.06095(12)
O7 O -0.7742(2) 1.0171(2) -0.09447(13)
H3 H -0.8504 0.9887 -0.0945
N1 N -0.2165(3) 0.8594(2) -0.05324(15)
H4 H -0.2422 0.7917 -0.0356
C1 C -0.0904(4) 0.8628(3) -0.07346(19)
C2 C -0.0251(3) 0.7452(3) -0.08351(18)
H5 H -0.0602 0.6880 -0.0491
H6 H 0.0707 0.7526 -0.0759
C3 C -0.0519(3) 0.7018(3) -0.15792(17)
H7 H -0.0156 0.7600 -0.1913
H8 H -0.1482 0.6992 -0.1651
C4 C 0.0052(3) 0.5799(3) -0.17631(19)
C5 C -0.0552(4) 0.4843(3) -0.1289(2)
C6 C 0.0147(4) 0.3710(3) -0.1257(2)
H9 H -0.0294 0.3054 -0.1058
C7 C 0.1371(4) 0.3560(3) -0.14939(18)
H10 H 0.1736 0.2792 -0.1475
C8 C 0.2202(3) 0.4527(3) -0.17864(19)
C9 C 0.1571(3) 0.5752(3) -0.16426(19)
H11 H 0.1676 0.5866 -0.1126
C10 C 0.2426(3) 0.6737(3) -0.19713(18)
H12 H 0.2031 0.7532 -0.1894
C11 C 0.2772(4) 0.6540(3) -0.27428(19)
H13 H 0.3307 0.7191 -0.2936
H14 H 0.1979 0.6426 -0.3036
C12 C 0.3572(4) 0.5399(3) -0.26664(19)
H15 H 0.4215 0.5273 -0.3056
C13 C 0.2593(3) 0.4371(3) -0.25762(19)
H16 H 0.3019 0.3601 -0.2661
H17 H 0.1824 0.4455 -0.2890
C14 C 0.3619(4) 0.4560(3) -0.14788(19)
H18 H 0.3617 0.4774 -0.0976
H19 H 0.4077 0.3799 -0.1541
C15 C 0.4238(3) 0.5535(3) -0.1933(2)
C16 C 0.5737(3) 0.5594(3) -0.1927(2)
H20 H 0.6032 0.6237 -0.2230
H21 H 0.6098 0.4849 -0.2099
H22 H 0.6044 0.5733 -0.1447
C17 C -0.0431(3) 0.5495(3) -0.25148(19)
H23 H -0.0140 0.4700 -0.2639
H24 H -0.0064 0.6061 -0.2849
H25 H -0.1393 0.5531 -0.2530
C18 C -0.6912(3) 0.9376(3) -0.07462(19)
C19 C -0.5522(3) 0.9833(3) -0.06869(18)
C20 C -0.4454(4) 0.9062(3) -0.06817(18)
C21 C -0.3168(3) 0.9487(3) -0.05582(18)
C22 C -0.2942(3) 1.0679(3) -0.0454(2)
C23 C -0.4029(3) 1.1469(3) -0.0488(2)
C24 C -0.5283(4) 1.1039(3) -0.05939(19)
H26 H -0.6001 1.1572 -0.0604
loop_
_geom_bond_atom_site_label_1
_geom_bond_atom_site_label_2
_geom_bond_site_symmetry_1
_geom_bond_site_symmetry_2
Br1 C23 1_555 1_555
O1 C10 1_555 1_555
O2 C5 1_555 1_555
O3 C1 1_555 1_555
O4 H1 1_555 1_555
O5 H2 1_555 1_555
O6 C18 1_555 1_555
O7 H3 1_555 1_555
N1 H4 1_555 1_555
C1 N1 1_555 1_555
C2 C1 1_555 1_555
H5 C2 1_555 1_555
H6 C2 1_555 1_555
C3 C2 1_555 1_555
H7 C3 1_555 1_555
H8 C3 1_555 1_555
C4 C3 1_555 1_555
C5 C4 1_555 1_555
C6 C5 1_555 1_555
H9 C6 1_555 1_555
C7 C6 1_555 1_555
H10 C7 1_555 1_555
C8 C7 1_555 1_555
C9 C4 1_555 1_555
H11 C9 1_555 1_555
C10 C9 1_555 1_555
H12 C10 1_555 1_555
C11 C10 1_555 1_555
H13 C11 1_555 1_555
H14 C11 1_555 1_555
C12 C11 1_555 1_555
H15 C12 1_555 1_555
C13 C8 1_555 1_555
H16 C13 1_555 1_555
H17 C13 1_555 1_555
C14 C8 1_555 1_555
H18 C14 1_555 1_555
H19 C14 1_555 1_555
C15 O1 1_555 1_555
C16 C15 1_555 1_555
H20 C16 1_555 1_555
H21 C16 1_555 1_555
H22 C16 1_555 1_555
C17 C4 1_555 1_555
H23 C17 1_555 1_555
H24 C17 1_555 1_555
H25 C17 1_555 1_555
C18 O7 1_555 1_555
C19 C18 1_555 1_555
C20 O5 1_555 1_555
C21 N1 1_555 1_555
C22 O4 1_555 1_555
C23 C22 1_555 1_555
C24 C19 1_555 1_555
H26 C24 1_555 1_555
C8 C9 1_555 1_555
C12 C13 1_555 1_555
C12 C15 1_555 1_555
C14 C15 1_555 1_555
C19 C20 1_555 1_555
C20 C21 1_555 1_555
C21 C22 1_555 1_555
C23 C24 1_555 1_555

#END
