
#######################################################################
#
#                 Cambridge Crystallographic Data Centre
#                                CCDC 
#
#######################################################################
#
# If this CIF has been generated from an entry in the Cambridge 
# Structural Database, then it will include bibliographic, chemical, 
# crystal, experimental, refinement or atomic coordinate data resulting 
# from the CCDC's data processing and validation procedures.
#
#######################################################################

data_JEMWII
_chemical_formula_moiety         'C16 H14 N2 O6'
_chemical_name_systematic        1,1-bis(o-Methoxyphenyl)-2,2-dinitroethylene
_symmetry_cell_setting           monoclinic
_symmetry_space_group_name_H-M   'C 2/c'
_symmetry_Int_Tables_number      15
_space_group_name_Hall           '-C 2yn'
loop_
_symmetry_equiv_pos_site_id
_symmetry_equiv_pos_as_xyz
1 x,y,z
2 1/2+x,1/2+y,z
3 -x,y,1/2-z
4 1/2-x,1/2+y,1/2-z
5 -x,-y,-z
6 1/2-x,1/2-y,-z
7 x,-y,1/2+z
8 1/2+x,1/2-y,1/2+z
_cell_length_a                   12.671(5)
_cell_length_b                   15.795(6)
_cell_length_c                   16.290(7)
_cell_angle_alpha                90
_cell_angle_beta                 108.421(8)
_cell_angle_gamma                90
_cell_volume                     3093.2
_exptl_crystal_colour            yellow
_exptl_crystal_description       block
_cell_formula_units_Z            8
loop_
_atom_site_label
_atom_site_type_symbol
_atom_site_fract_x
_atom_site_fract_y
_atom_site_fract_z
O1 O 0.4525(2) 0.10563(17) 0.57835(19)
N1 N 0.4313(4) 0.3549(2) 0.4992(2)
C1 C 0.5673(3) 0.2391(3) 0.5438(2)
O2 O 0.6267(3) 0.2510(2) 0.72269(19)
N2 N 0.6028(4) 0.3813(2) 0.6118(2)
C2 C 0.5372(3) 0.3186(3) 0.5517(2)
C3 C 0.4950(3) 0.1861(2) 0.4733(2)
O3 O 0.3458(3) 0.3189(2) 0.4966(2)
C4 C 0.4376(3) 0.1172(3) 0.4929(3)
O4 O 0.4357(3) 0.4188(2) 0.4584(2)
O5 O 0.7028(3) 0.3854(2) 0.6243(2)
C5 C 0.3712(4) 0.0678(3) 0.4270(3)
H1 H 0.3335 0.0219 0.4401
C6 C 0.3599(4) 0.0858(3) 0.3417(3)
H2 H 0.3140 0.0524 0.2978
O6 O 0.5511(3) 0.4277(2) 0.6468(2)
C7 C 0.4164(4) 0.1532(3) 0.3213(3)
H3 H 0.4104 0.1648 0.2640
C8 C 0.4819(4) 0.2029(3) 0.3873(3)
H4 H 0.5184 0.2492 0.3736
C9 C 0.3908(4) 0.0391(3) 0.6021(3)
H5 H 0.4087 0.0376 0.6639
H6 H 0.4099 -0.0141 0.5820
H7 H 0.3126 0.0493 0.5762
C10 C 0.6683(3) 0.1984(3) 0.6027(3)
C11 C 0.6927(4) 0.2001(3) 0.6926(3)
C12 C 0.7776(4) 0.1518(3) 0.7457(3)
H8 H 0.7908 0.1512 0.8052
C13 C 0.8432(4) 0.1039(3) 0.7089(4)
H9 H 0.9014 0.0717 0.7443
C14 C 0.8229(4) 0.1037(3) 0.6205(5)
H10 H 0.8680 0.0723 0.5966
C15 C 0.7354(4) 0.1501(3) 0.5676(3)
H11 H 0.7212 0.1492 0.5080
C16 C 0.6455(4) 0.2589(3) 0.8132(3)
H12 H 0.5918 0.2971 0.8231
H13 H 0.7190 0.2807 0.8406
H14 H 0.6385 0.2044 0.8370
loop_
_geom_bond_atom_site_label_1
_geom_bond_atom_site_label_2
_geom_bond_site_symmetry_1
_geom_bond_site_symmetry_2
O1 C4 1_555 1_555
N1 C2 1_555 1_555
C1 C2 1_555 1_555
O2 C11 1_555 1_555
N2 C2 1_555 1_555
C3 C1 1_555 1_555
O3 N1 1_555 1_555
C4 C3 1_555 1_555
O4 N1 1_555 1_555
O5 N2 1_555 1_555
C5 C4 1_555 1_555
H1 C5 1_555 1_555
C6 C5 1_555 1_555
H2 C6 1_555 1_555
O6 N2 1_555 1_555
C7 C6 1_555 1_555
H3 C7 1_555 1_555
C8 C3 1_555 1_555
H4 C8 1_555 1_555
C9 O1 1_555 1_555
H5 C9 1_555 1_555
H6 C9 1_555 1_555
H7 C9 1_555 1_555
C10 C1 1_555 1_555
C11 C10 1_555 1_555
C12 C11 1_555 1_555
H8 C12 1_555 1_555
C13 C12 1_555 1_555
H9 C13 1_555 1_555
C14 C13 1_555 1_555
H10 C14 1_555 1_555
C15 C10 1_555 1_555
H11 C15 1_555 1_555
C16 O2 1_555 1_555
H12 C16 1_555 1_555
H13 C16 1_555 1_555
H14 C16 1_555 1_555
C7 C8 1_555 1_555
C14 C15 1_555 1_555

#END
