
#######################################################################
#
#                 Cambridge Crystallographic Data Centre
#                                CCDC 
#
#######################################################################
#
# If this CIF has been generated from an entry in the Cambridge 
# Structural Database, then it will include bibliographic, chemical, 
# crystal, experimental, refinement or atomic coordinate data resulting 
# from the CCDC's data processing and validation procedures.
#
#######################################################################

data_JENDAK
_chemical_formula_moiety         'C4 H6 N7 1+,Br1 1-'
_chemical_name_systematic        
'5-amino-4-(4H-1,2,4-triazol-4-yl)-4H-1,2,4-triazol-1-ium bromide'
_symmetry_cell_setting           orthorhombic
_symmetry_space_group_name_H-M   'P b c a'
_symmetry_Int_Tables_number      61
_space_group_name_Hall           '-P 2ac 2ab'
loop_
_symmetry_equiv_pos_site_id
_symmetry_equiv_pos_as_xyz
1 x,y,z
2 1/2-x,-y,1/2+z
3 -x,1/2+y,1/2-z
4 1/2+x,1/2-y,-z
5 -x,-y,-z
6 1/2+x,y,1/2-z
7 x,1/2-y,1/2+z
8 1/2-x,1/2+y,z
_cell_length_a                   15.4741(13)
_cell_length_b                   13.4743(12)
_cell_length_c                   15.7331(14)
_cell_angle_alpha                90
_cell_angle_beta                 90
_cell_angle_gamma                90
_cell_volume                     3280.39
_exptl_crystal_colour            colorless
_exptl_crystal_description       Prism
_cell_formula_units_Z            16
_exptl_crystal_preparation       Fiber
loop_
_atom_site_label
_atom_site_type_symbol
_atom_site_fract_x
_atom_site_fract_y
_atom_site_fract_z
Br1 Br 0.23786(2) 0.55815(2) 0.07144(2)
Br2 Br 0.50518(2) 0.19765(2) 0.66545(2)
N1 N 0.46965(9) 0.38036(11) -0.05928(9)
N2 N 0.47415(9) 0.27641(11) -0.06296(9)
N3 N 0.35491(9) 0.31823(10) -0.00020(9)
N4 N 0.27924(9) 0.31059(10) 0.04507(9)
N5 N 0.19201(10) 0.29938(11) 0.15467(9)
N6 N 0.14770(10) 0.28628(11) 0.07862(10)
H1 H 0.0943(15) 0.2746(15) 0.0805(13)
N7 N 0.18205(11) 0.28017(12) -0.06924(10)
H2 H 0.1310(13) 0.2619(16) -0.0844(13)
H3 H 0.2203(12) 0.2960(15) -0.1063(14)
C1 C 0.39777(10) 0.40339(12) -0.02125(11)
H4 H 0.3782 0.4689 -0.0099
C2 C 0.40552(10) 0.24089(13) -0.02614(10)
H5 H 0.3927 0.1725 -0.0186
C3 C 0.27091(11) 0.31462(12) 0.13246(11)
H6 H 0.3171 0.3269 0.1708
C4 C 0.19970(11) 0.29105(12) 0.01158(11)
N8 N 0.29958(9) 0.37050(11) 0.80885(9)
N9 N 0.28268(9) 0.47254(12) 0.81679(9)
N10 N 0.40434(9) 0.45327(10) 0.75114(9)
N11 N 0.47635(9) 0.47374(11) 0.70284(9)
H7 H 0.6601(14) 0.4926(14) 0.6610(12)
N12 N 0.55558(9) 0.50954(12) 0.59129(10)
N13 N 0.60650(10) 0.49296(11) 0.66278(9)
N14 N 0.58536(10) 0.44658(12) 0.80779(9)
H8 H 0.5470(12) 0.4352(16) 0.8460(14)
H9 H 0.6399(12) 0.4412(15) 0.8207(13)
C5 C 0.37209(11) 0.36116(13) 0.76865(11)
H10 H 0.3986 0.3000 0.7537
C6 C 0.34610(11) 0.52036(13) 0.78119(11)
H11 H 0.3510 0.5905 0.7769
C7 C 0.47725(11) 0.49705(13) 0.61731(11)
H12 H 0.4273 0.5030 0.5826
C8 C 0.55989(10) 0.46989(12) 0.73082(11)
loop_
_geom_bond_atom_site_label_1
_geom_bond_atom_site_label_2
_geom_bond_site_symmetry_1
_geom_bond_site_symmetry_2
N1 N2 1_555 1_555
N2 C2 1_555 1_555
N3 N4 1_555 1_555
N4 C3 1_555 1_555
N5 N6 1_555 1_555
N6 H1 1_555 1_555
N7 H2 1_555 1_555
H3 N7 1_555 1_555
C1 N1 1_555 1_555
H4 C1 1_555 1_555
C2 N3 1_555 1_555
H5 C2 1_555 1_555
C3 N5 1_555 1_555
H6 C3 1_555 1_555
C4 N4 1_555 1_555
N8 N9 1_555 1_555
N9 C6 1_555 1_555
N10 N11 1_555 1_555
N11 C7 1_555 1_555
H7 N13 1_555 1_555
N12 N13 1_555 1_555
N13 C8 1_555 1_555
N14 H8 1_555 1_555
H9 N14 1_555 1_555
C5 N8 1_555 1_555
H10 C5 1_555 1_555
C6 N10 1_555 1_555
H11 C6 1_555 1_555
C7 N12 1_555 1_555
H12 C7 1_555 1_555
C8 N11 1_555 1_555
N3 C1 1_555 1_555
N6 C4 1_555 1_555
N7 C4 1_555 1_555
N10 C5 1_555 1_555
N14 C8 1_555 1_555

#END
