
#######################################################################
#
#                 Cambridge Crystallographic Data Centre
#                                CCDC 
#
#######################################################################
#
# If this CIF has been generated from an entry in the Cambridge 
# Structural Database, then it will include bibliographic, chemical, 
# crystal, experimental, refinement or atomic coordinate data resulting 
# from the CCDC's data processing and validation procedures.
#
#######################################################################

data_JENKIZ
_chemical_formula_moiety         'C67 H59 N3 O2,C1 H1 Cl3'
_chemical_name_systematic        
"3-(4'-(5-(4-t-butylphenyl)-1,3,4-oxadiazol-2-yl)biphenyl-4-yl)-4-(4-(3,6-di-t-butyl-9H-carbazol-9-yl)phenyl)-2,5-diphenylcyclopenta-2,4-dien-1-one chloroform solvate"
_symmetry_cell_setting           triclinic
_symmetry_space_group_name_H-M   'P -1'
_symmetry_Int_Tables_number      2
_space_group_name_Hall           '-P 1'
loop_
_symmetry_equiv_pos_site_id
_symmetry_equiv_pos_as_xyz
1 x,y,z
2 -x,-y,-z
_cell_length_a                   12.530(2)
_cell_length_b                   13.193(3)
_cell_length_c                   19.047(4)
_cell_angle_alpha                98.185(5)
_cell_angle_beta                 103.738(5)
_cell_angle_gamma                107.851(5)
_cell_volume                     2831.38
_exptl_crystal_colour            brown
_exptl_crystal_description       needle
_cell_formula_units_Z            2
_exptl_crystal_recrystallization_method Chloroform/pentane
loop_
_atom_site_label
_atom_site_type_symbol
_atom_site_fract_x
_atom_site_fract_y
_atom_site_fract_z
C1 C 0.6023(7) 0.0896(6) 0.6579(5)
C2 C 0.6399(7) 0.1378(6) 0.5952(4)
C3 C 0.5689(7) 0.1892(6) 0.5692(4)
C4 C 0.4800(7) 0.1830(6) 0.6140(4)
C5 C 0.4934(7) 0.1160(6) 0.6598(4)
C6 C 0.7421(7) 0.1270(7) 0.5747(4)
C7 C 0.8180(7) 0.2123(6) 0.5549(4)
H1 H 0.8026 0.2781 0.5523
C8 C 0.9170(7) 0.1995(7) 0.5389(4)
H2 H 0.9683 0.2575 0.5252
C9 C 0.9424(7) 0.1065(7) 0.5423(4)
H3 H 1.0109 0.1008 0.5315
C10 C 0.8692(7) 0.0216(7) 0.5612(4)
H4 H 0.8856 -0.0438 0.5628
C11 C 0.7701(7) 0.0321(6) 0.5779(4)
H5 H 0.7201 -0.0265 0.5919
C12 C 0.5583(7) 0.2382(7) 0.5030(5)
C13 C 0.5422(6) 0.1692(6) 0.4349(5)
H6 H 0.5505 0.0999 0.4336
C14 C 0.5140(7) 0.2033(6) 0.3700(4)
H7 H 0.4971 0.1543 0.3238
C15 C 0.5097(7) 0.3085(7) 0.3706(5)
C16 C 0.5355(6) 0.3781(6) 0.4390(4)
H8 H 0.5380 0.4511 0.4406
C17 C 0.5578(7) 0.3449(6) 0.5054(4)
H9 H 0.5724 0.3934 0.5514
N1 N 0.4796(6) 0.3423(5) 0.3029(4)
C18 C 0.5235(7) 0.3263(6) 0.2428(5)
C19 C 0.6069(7) 0.2796(6) 0.2346(4)
H10 H 0.6419 0.2491 0.2721
C20 C 0.6359(7) 0.2799(6) 0.1689(4)
H11 H 0.6903 0.2461 0.1609
C21 C 0.5893(7) 0.3274(6) 0.1137(4)
C22 C 0.5085(7) 0.3771(6) 0.1237(4)
H12 H 0.4775 0.4118 0.0876
C23 C 0.4753(7) 0.3742(6) 0.1875(5)
C24 C 0.3979(7) 0.4217(6) 0.2167(5)
C25 C 0.3268(7) 0.4775(6) 0.1858(5)
H13 H 0.3223 0.4898 0.1375
C26 C 0.2617(7) 0.5152(6) 0.2279(5)
C27 C 0.2672(7) 0.4914(6) 0.2978(5)
H14 H 0.2230 0.5159 0.3261
C28 C 0.3363(6) 0.4323(6) 0.3273(4)
H15 H 0.3377 0.4154 0.3743
C29 C 0.4020(7) 0.3995(6) 0.2862(5)
C30 C 0.6309(8) 0.3256(8) 0.0438(5)
C31 C 0.7661(8) 0.3666(7) 0.0646(5)
H16 H 0.7955 0.3192 0.0928
H17 H 0.7987 0.4418 0.0949
H18 H 0.7901 0.3651 0.0192
C32 C 0.5823(7) 0.2074(7) -0.0042(5)
H19 H 0.6138 0.2057 -0.0466
H20 H 0.4964 0.1824 -0.0222
H21 H 0.6060 0.1591 0.0259
C33 C 0.5836(8) 0.3967(8) -0.0065(5)
H22 H 0.6111 0.4725 0.0221
H23 H 0.4976 0.3672 -0.0230
H24 H 0.6128 0.3947 -0.0499
C34 C 0.1889(8) 0.5808(7) 0.1961(5)
C35 C 0.0855(7) 0.5079(6) 0.1286(5)
H25 H 0.1151 0.4748 0.0916
H26 H 0.0426 0.5522 0.1067
H27 H 0.0327 0.4500 0.1443
C36 C 0.2634(7) 0.6748(6) 0.1708(4)
H28 H 0.3327 0.7203 0.2124
H29 H 0.2170 0.7193 0.1538
H30 H 0.2884 0.6454 0.1299
C37 C 0.1436(7) 0.6338(6) 0.2555(5)
H31 H 0.0912 0.5762 0.2717
H32 H 0.1007 0.6784 0.2341
H33 H 0.2105 0.6803 0.2983
C38 C 0.4030(7) 0.2498(6) 0.6136(5)
C39 C 0.3252(7) 0.2567(6) 0.5489(4)
H34 H 0.3177 0.2152 0.5017
C40 C 0.2597(6) 0.3239(6) 0.5540(5)
H35 H 0.2092 0.3302 0.5102
C41 C 0.2679(7) 0.3826(6) 0.6238(5)
C42 C 0.3443(7) 0.3750(6) 0.6875(4)
H36 H 0.3502 0.4144 0.7349
C43 C 0.4116(7) 0.3103(6) 0.6820(5)
H37 H 0.4646 0.3071 0.7258
C44 C 0.2000(7) 0.4558(6) 0.6304(4)
C45 C 0.1665(6) 0.5073(6) 0.5740(4)
H38 H 0.1850 0.4930 0.5289
C46 C 0.1064(7) 0.5792(6) 0.5828(4)
H39 H 0.0857 0.6145 0.5443
C47 C 0.0769(7) 0.5989(7) 0.6475(5)
C48 C 0.1068(7) 0.5477(6) 0.7022(5)
H40 H 0.0866 0.5615 0.7467
C49 C 0.1659(7) 0.4760(6) 0.6942(4)
H41 H 0.1838 0.4399 0.7327
C50 C 0.0120(7) 0.6738(7) 0.6557(5)
N2 N -0.0404(6) 0.7104(5) 0.6033(4)
N3 N -0.0919(6) 0.7795(6) 0.6377(4)
C51 C -0.0685(7) 0.7710(7) 0.7063(5)
O1 O -0.0017(5) 0.7070(4) 0.7230(3)
C52 C -0.1029(7) 0.8225(7) 0.7655(5)
C53 C -0.1515(8) 0.9019(7) 0.7543(5)
H42 H -0.1600 0.9248 0.7089
C54 C -0.1881(8) 0.9483(8) 0.8111(5)
H43 H -0.2221 1.0023 0.8023
C55 C -0.1776(7) 0.9201(7) 0.8793(5)
C56 C -0.1287(7) 0.8396(7) 0.8875(5)
H44 H -0.1195 0.8166 0.9329
C57 C -0.0927(7) 0.7913(6) 0.8325(5)
H45 H -0.0605 0.7361 0.8408
C58 C -0.2200(8) 0.9744(7) 0.9386(5)
C59 C -0.1973(7) 0.9366(7) 1.0092(5)
H46 H -0.2411 0.8579 0.9993
H47 H -0.2229 0.9763 1.0455
H48 H -0.1131 0.9509 1.0290
C60 C -0.3551(7) 0.9461(6) 0.9043(4)
H49 H -0.3959 0.8670 0.8956
H50 H -0.3699 0.9685 0.8571
H51 H -0.3842 0.9850 0.9388
C61 C -0.1614(7) 1.0993(6) 0.9539(5)
H52 H -0.1880 1.1345 0.9917
H53 H -0.1829 1.1236 0.9079
H54 H -0.0759 1.1197 0.9716
C62 C 0.4132(8) 0.0669(6) 0.7021(5)
C63 C 0.2925(8) 0.0224(6) 0.6660(5)
H55 H 0.2623 0.0272 0.6164
C64 C 0.2154(8) -0.0302(7) 0.7044(6)
H56 H 0.1330 -0.0598 0.6806
C65 C 0.2595(9) -0.0383(7) 0.7757(6)
H57 H 0.2076 -0.0744 0.8009
C66 C 0.3793(9) 0.0058(7) 0.8113(5)
H58 H 0.4094 0.0020 0.8612
C67 C 0.4544(7) 0.0550(6) 0.7739(4)
H59 H 0.5366 0.0815 0.7977
O2 O 0.6520(5) 0.0474(4) 0.6991(3)
C68 C 0.1378(10) 0.1904(12) 0.8293(7)
H60 H 0.1230 0.1150 0.8381
Cl1 Cl 0.0670(3) 0.1862(3) 0.7375(2)
Cl2 Cl 0.0916(4) 0.2709(4) 0.8914(3)
Cl3 Cl 0.2859(4) 0.2610(4) 0.8477(2)
loop_
_geom_bond_atom_site_label_1
_geom_bond_atom_site_label_2
_geom_bond_site_symmetry_1
_geom_bond_site_symmetry_2
C1 C2 1_555 1_555
C2 C3 1_555 1_555
C3 C4 1_555 1_555
C4 C5 1_555 1_555
C5 C1 1_555 1_555
C6 C2 1_555 1_555
C7 C6 1_555 1_555
H1 C7 1_555 1_555
C8 C7 1_555 1_555
H2 C8 1_555 1_555
C9 C8 1_555 1_555
H3 C9 1_555 1_555
C10 C9 1_555 1_555
H4 C10 1_555 1_555
C11 C6 1_555 1_555
H5 C11 1_555 1_555
C12 C3 1_555 1_555
C13 C12 1_555 1_555
H6 C13 1_555 1_555
C14 C13 1_555 1_555
H7 C14 1_555 1_555
C15 C14 1_555 1_555
C16 C15 1_555 1_555
H8 C16 1_555 1_555
C17 C12 1_555 1_555
H9 C17 1_555 1_555
N1 C15 1_555 1_555
C18 N1 1_555 1_555
C19 C18 1_555 1_555
H10 C19 1_555 1_555
C20 C19 1_555 1_555
H11 C20 1_555 1_555
C21 C20 1_555 1_555
C22 C21 1_555 1_555
H12 C22 1_555 1_555
C23 C18 1_555 1_555
C24 C23 1_555 1_555
C25 C24 1_555 1_555
H13 C25 1_555 1_555
C26 C25 1_555 1_555
C27 C26 1_555 1_555
H14 C27 1_555 1_555
C28 C27 1_555 1_555
H15 C28 1_555 1_555
C29 N1 1_555 1_555
C30 C21 1_555 1_555
C31 C30 1_555 1_555
H16 C31 1_555 1_555
H17 C31 1_555 1_555
H18 C31 1_555 1_555
C32 C30 1_555 1_555
H19 C32 1_555 1_555
H20 C32 1_555 1_555
H21 C32 1_555 1_555
C33 C30 1_555 1_555
H22 C33 1_555 1_555
H23 C33 1_555 1_555
H24 C33 1_555 1_555
C34 C26 1_555 1_555
C35 C34 1_555 1_555
H25 C35 1_555 1_555
H26 C35 1_555 1_555
H27 C35 1_555 1_555
C36 C34 1_555 1_555
H28 C36 1_555 1_555
H29 C36 1_555 1_555
H30 C36 1_555 1_555
C37 C34 1_555 1_555
H31 C37 1_555 1_555
H32 C37 1_555 1_555
H33 C37 1_555 1_555
C38 C4 1_555 1_555
C39 C38 1_555 1_555
H34 C39 1_555 1_555
C40 C39 1_555 1_555
H35 C40 1_555 1_555
C41 C40 1_555 1_555
C42 C41 1_555 1_555
H36 C42 1_555 1_555
C43 C38 1_555 1_555
H37 C43 1_555 1_555
C44 C41 1_555 1_555
C45 C44 1_555 1_555
H38 C45 1_555 1_555
C46 C45 1_555 1_555
H39 C46 1_555 1_555
C47 C46 1_555 1_555
C48 C47 1_555 1_555
H40 C48 1_555 1_555
C49 C44 1_555 1_555
H41 C49 1_555 1_555
C50 C47 1_555 1_555
N2 C50 1_555 1_555
N3 N2 1_555 1_555
C51 N3 1_555 1_555
O1 C50 1_555 1_555
C52 C51 1_555 1_555
C53 C52 1_555 1_555
H42 C53 1_555 1_555
C54 C53 1_555 1_555
H43 C54 1_555 1_555
C55 C54 1_555 1_555
C56 C55 1_555 1_555
H44 C56 1_555 1_555
C57 C52 1_555 1_555
H45 C57 1_555 1_555
C58 C55 1_555 1_555
C59 C58 1_555 1_555
H46 C59 1_555 1_555
H47 C59 1_555 1_555
H48 C59 1_555 1_555
C60 C58 1_555 1_555
H49 C60 1_555 1_555
H50 C60 1_555 1_555
H51 C60 1_555 1_555
C61 C58 1_555 1_555
H52 C61 1_555 1_555
H53 C61 1_555 1_555
H54 C61 1_555 1_555
C62 C5 1_555 1_555
C63 C62 1_555 1_555
H55 C63 1_555 1_555
C64 C63 1_555 1_555
H56 C64 1_555 1_555
C65 C64 1_555 1_555
H57 C65 1_555 1_555
C66 C65 1_555 1_555
H58 C66 1_555 1_555
C67 C62 1_555 1_555
H59 C67 1_555 1_555
O2 C1 1_555 1_555
C68 H60 1_555 1_555
Cl1 C68 1_555 1_555
Cl2 C68 1_555 1_555
Cl3 C68 1_555 1_555
C10 C11 1_555 1_555
C16 C17 1_555 1_555
C22 C23 1_555 1_555
C24 C29 1_555 1_555
C28 C29 1_555 1_555
C42 C43 1_555 1_555
C48 C49 1_555 1_555
C51 O1 1_555 1_555
C56 C57 1_555 1_555
C66 C67 1_555 1_555

#END
