
#######################################################################
#
#                 Cambridge Crystallographic Data Centre
#                                CCDC 
#
#######################################################################
#
# If this CIF has been generated from an entry in the Cambridge 
# Structural Database, then it will include bibliographic, chemical, 
# crystal, experimental, refinement or atomic coordinate data resulting 
# from the CCDC's data processing and validation procedures.
#
#######################################################################

data_JENMOH
_chemical_formula_moiety         'C17 H18 N2 O6,C6 H6 N2 O1'
_chemical_name_systematic        
'dimethyl 2,6-dimethyl-4-(2-nitrophenyl)-1,4-dihydropyridine-3,5-dicarboxylate pyridine-2-carboxamide'
_symmetry_cell_setting           triclinic
_symmetry_space_group_name_H-M   'P -1'
_symmetry_Int_Tables_number      2
_space_group_name_Hall           '-P 1'
loop_
_symmetry_equiv_pos_site_id
_symmetry_equiv_pos_as_xyz
1 x,y,z
2 -x,-y,-z
_cell_length_a                   7.5743(2)
_cell_length_b                   11.4918(4)
_cell_length_c                   13.8653(4)
_cell_angle_alpha                106.089(2)
_cell_angle_beta                 97.442(2)
_cell_angle_gamma                103.739(2)
_cell_volume                     1101.47
_exptl_crystal_colour            colorless
_exptl_crystal_description       block
_cell_formula_units_Z            2
loop_
_atom_site_label
_atom_site_type_symbol
_atom_site_fract_x
_atom_site_fract_y
_atom_site_fract_z
O1 O 0.0983(2) 0.29143(14) 0.24521(11)
O2 O 0.2103(2) -0.13070(14) 0.44402(12)
O3 O 0.1200(2) -0.11770(14) 0.28851(11)
O4 O -0.0306(2) 0.01441(16) 0.13726(13)
N1 N 0.1071(2) -0.01937(17) 0.12158(13)
O5 O 0.0998(2) -0.11755(17) 0.05533(13)
N2 N 0.2872(2) 0.25791(16) 0.56994(13)
H1 H 0.3287 0.2953 0.6364
O6 O 0.1653(3) 0.46849(17) 0.37559(14)
C1 C 0.2085(3) 0.06973(19) 0.42965(15)
C2 C 0.3231(3) 0.13158(18) 0.28482(15)
C3 C 0.1787(3) 0.14061(18) 0.35269(15)
H2 H 0.0516 0.0992 0.3082
C4 C 0.1746(3) -0.06620(19) 0.38077(15)
C5 C 0.2621(3) 0.12975(19) 0.53193(15)
C6 C 0.2517(3) 0.33148(19) 0.51061(16)
C7 C 0.1958(3) 0.27897(19) 0.40733(16)
C8 C 0.2919(3) 0.06048(19) 0.18202(16)
C9 C 0.1554(3) 0.3575(2) 0.34500(17)
C10 C 0.5080(3) 0.1967(2) 0.33258(17)
H3 H 0.5362 0.2442 0.4034
C11 C 0.3007(3) 0.0736(2) 0.61579(16)
H4 H 0.4119 0.0447 0.6102
H5 H 0.1942 0.0018 0.6089
H6 H 0.3212 0.1378 0.6828
C12 C 0.6517(3) 0.1945(2) 0.28071(19)
H7 H 0.7758 0.2407 0.3157
C13 C 0.2812(4) 0.4666(2) 0.57214(18)
H8 H 0.1632 0.4876 0.5640
H9 H 0.3726 0.5216 0.5480
H10 H 0.3271 0.4791 0.6447
C14 C 0.6148(3) 0.1250(2) 0.1779(2)
H11 H 0.7125 0.1247 0.1413
C15 C 0.4351(3) 0.0563(2) 0.12906(18)
H12 H 0.4088 0.0058 0.0590
C16 C 0.0422(4) 0.3593(2) 0.17946(19)
H13 H 0.0022 0.3028 0.1083
H14 H 0.1472 0.4311 0.1844
H15 H -0.0610 0.3904 0.2009
C17 C 0.1797(4) -0.2649(2) 0.39740(19)
H16 H 0.2700 -0.2788 0.3540
H17 H 0.0535 -0.3029 0.3553
H18 H 0.1948 -0.3041 0.4512
O7 O 0.7028(2) 0.62033(16) 0.21956(12)
N3 N 0.9309(3) 0.63194(17) 0.12992(14)
H19 H 0.9971 0.7063 0.1730
H20 H 0.9723 0.5957 0.0763
N4 N 0.7353(3) 0.40506(18) -0.01280(14)
C18 C 0.6617(3) 0.4488(2) 0.06855(16)
C19 C 0.7685(3) 0.5744(2) 0.14582(16)
C20 C 0.3906(3) 0.2731(2) 0.00914(19)
H21 H 0.2739 0.2277 0.0170
C21 C 0.4934(3) 0.3853(2) 0.08305(18)
H22 H 0.4491 0.4183 0.1429
C22 C 0.4597(3) 0.2283(2) -0.0760(2)
H23 H 0.3906 0.1524 -0.1289
C23 C 0.6317(3) 0.2959(2) -0.08282(18)
H24 H 0.6799 0.2627 -0.1411
loop_
_geom_bond_atom_site_label_1
_geom_bond_atom_site_label_2
_geom_bond_site_symmetry_1
_geom_bond_site_symmetry_2
O1 C9 1_555 1_555
O2 C4 1_555 1_555
O3 C4 1_555 1_555
O4 N1 1_555 1_555
N1 O5 1_555 1_555
N2 H1 1_555 1_555
O6 C9 1_555 1_555
C1 C3 1_555 1_555
C2 C3 1_555 1_555
C3 H2 1_555 1_555
C4 C1 1_555 1_555
C5 N2 1_555 1_555
C6 N2 1_555 1_555
C7 C3 1_555 1_555
C8 N1 1_555 1_555
C9 C7 1_555 1_555
C10 C2 1_555 1_555
H3 C10 1_555 1_555
C11 C5 1_555 1_555
H4 C11 1_555 1_555
H5 C11 1_555 1_555
H6 C11 1_555 1_555
C12 C10 1_555 1_555
H7 C12 1_555 1_555
C13 C6 1_555 1_555
H8 C13 1_555 1_555
H9 C13 1_555 1_555
H10 C13 1_555 1_555
C14 C12 1_555 1_555
H11 C14 1_555 1_555
C15 C8 1_555 1_555
H12 C15 1_555 1_555
C16 O1 1_555 1_555
H13 C16 1_555 1_555
H14 C16 1_555 1_555
H15 C16 1_555 1_555
C17 O2 1_555 1_555
H16 C17 1_555 1_555
H17 C17 1_555 1_555
H18 C17 1_555 1_555
O7 C19 1_555 1_555
N3 H19 1_555 1_555
H20 N3 1_555 1_555
N4 C18 1_555 1_555
C18 C19 1_555 1_555
C19 N3 1_555 1_555
C20 H21 1_555 1_555
C21 C18 1_555 1_555
H22 C21 1_555 1_555
C22 C20 1_555 1_555
H23 C22 1_555 1_555
C23 N4 1_555 1_555
H24 C23 1_555 1_555
C1 C5 1_555 1_555
C2 C8 1_555 1_555
C6 C7 1_555 1_555
C14 C15 1_555 1_555
C20 C21 1_555 1_555
C22 C23 1_555 1_555

#END
