
#######################################################################
#
#                 Cambridge Crystallographic Data Centre
#                                CCDC 
#
#######################################################################
#
# If this CIF has been generated from an entry in the Cambridge 
# Structural Database, then it will include bibliographic, chemical, 
# crystal, experimental, refinement or atomic coordinate data resulting 
# from the CCDC's data processing and validation procedures.
#
#######################################################################

data_JENMUN01
_chemical_formula_moiety         'C17 H18 N2 O6,C6 H6 N2 O1'
_chemical_name_systematic        
'dimethyl 2,6-dimethyl-4-(2-nitrophenyl)-1,4-dihydropyridine-3,5-dicarboxylate pyridine-4-carboxamide'
_symmetry_cell_setting           orthorhombic
_symmetry_space_group_name_H-M   'P 21 21 21'
_symmetry_Int_Tables_number      19
_space_group_name_Hall           'P 2ac 2ab'
loop_
_symmetry_equiv_pos_site_id
_symmetry_equiv_pos_as_xyz
1 x,y,z
2 1/2+x,1/2-y,-z
3 -x,1/2+y,1/2-z
4 1/2-x,-y,1/2+z
_cell_length_a                   7.8608(9)
_cell_length_b                   12.3313(14)
_cell_length_c                   22.699(3)
_cell_angle_alpha                90
_cell_angle_beta                 90
_cell_angle_gamma                90
_cell_volume                     2200.3
_exptl_crystal_colour            yellow
_exptl_crystal_description       block
_cell_formula_units_Z            4
loop_
_atom_site_label
_atom_site_type_symbol
_atom_site_fract_x
_atom_site_fract_y
_atom_site_fract_z
N1 N 0.4803(3) 0.93950(19) 0.52384(10)
H1 H 0.361(4) 0.935(3) 0.5174(14)
N2 N 1.1162(2) 0.91606(17) 0.50668(9)
O1 O 0.5167(2) 0.86883(16) 0.43315(8)
C1 C 0.5764(3) 0.90576(19) 0.47951(11)
C2 C 0.8395(3) 0.9894(2) 0.52498(12)
H2 H 0.767(4) 1.042(2) 0.5473(13)
C3 C 1.0139(3) 0.9880(2) 0.53237(12)
H3 H 1.073(4) 1.041(2) 0.5555(14)
C4 C 0.7650(3) 0.91240(19) 0.48820(10)
C5 C 0.8713(3) 0.8388(2) 0.46017(11)
H4 H 0.8257 0.7859 0.4342
C6 C 1.0444(3) 0.8436(2) 0.47068(11)
H5 H 1.1160 0.7928 0.4513
H6 H 0.534(4) 0.960(3) 0.5558(17)
C7 C 0.4145(3) 0.8409(2) 0.17944(12)
H7 H 0.4126 0.8771 0.2164
O2 O 0.8473(2) 0.61345(15) 0.16789(8)
O3 O 0.7803(3) 0.53072(16) 0.25204(9)
O4 O 0.8398(2) 0.77726(16) 0.07085(8)
O5 O 0.7099(3) 0.63004(18) 0.04501(9)
N3 N 0.6254(3) 0.84165(17) 0.31344(9)
H8 H 0.5655 0.8499 0.3459
O6 O 0.8708(3) 0.99913(15) 0.14403(8)
O7 O 0.7890(3) 1.11100(15) 0.21618(9)
C8 C 0.2601(4) 0.7702(2) 0.09646(12)
H9 H 0.152(4) 0.764(2) 0.0756(15)
C9 C 0.2626(3) 0.8258(2) 0.14943(12)
H10 H 0.157(4) 0.852(2) 0.1664(13)
C10 C 0.7307(3) 0.81376(19) 0.19611(10)
N4 N 0.7152(3) 0.71659(18) 0.07124(9)
C11 C 0.6746(3) 0.9335(2) 0.28289(11)
C12 C 0.6655(3) 0.7379(2) 0.29567(11)
C13 C 0.6342(4) 0.6537(2) 0.34192(12)
H11 H 0.729(3) 0.622(2) 0.3529(13)
H12 H 0.568(3) 0.6016(19) 0.3298(14)
C14 C 0.6505(4) 1.0359(2) 0.31801(12)
H13 H 0.5972 1.0184 0.3559
H14 H 0.5772 1.0860 0.2961
H15 H 0.7612 1.0701 0.3250
C15 C 0.5702(3) 0.80467(18) 0.15728(10)
C16 C 0.7290(3) 0.72151(19) 0.24077(10)
C17 C 0.7855(3) 0.6130(2) 0.22294(11)
C18 C 0.8972(4) 0.5088(2) 0.14456(14)
H16 H 0.9718 0.4721 0.1729
H17 H 0.9581 0.5190 0.1073
H18 H 0.7956 0.4645 0.1378
C19 C 0.4100(3) 0.7325(2) 0.07324(12)
H19 H 0.4103 0.6934 0.0372
C20 C 0.5620(3) 0.7520(2) 0.10302(11)
C21 C 0.7368(3) 0.92285(19) 0.22762(10)
C22 C 0.8056(3) 1.0120(2) 0.19204(11)
C23 C 0.8452(4) 1.2011(2) 0.18109(15)
H20 H 0.9644 1.1905 0.1699
H21 H 0.8343 1.2682 0.2039
H22 H 0.7751 1.2062 0.1455
H23 H 0.575(4) 0.695(3) 0.3750(15)
H24 H 0.840(4) 0.805(2) 0.1696(12)
loop_
_geom_bond_atom_site_label_1
_geom_bond_atom_site_label_2
_geom_bond_site_symmetry_1
_geom_bond_site_symmetry_2
N1 H1 1_555 1_555
N2 C3 1_555 1_555
O1 C1 1_555 1_555
C1 N1 1_555 1_555
C2 H2 1_555 1_555
C3 C2 1_555 1_555
H3 C3 1_555 1_555
C4 C1 1_555 1_555
C5 C4 1_555 1_555
H4 C5 1_555 1_555
C6 N2 1_555 1_555
H5 C6 1_555 1_555
H6 N1 1_555 1_555
C7 H7 1_555 1_555
O2 C17 1_555 1_555
O3 C17 1_555 1_555
O4 N4 1_555 1_555
O5 N4 1_555 1_555
N3 H8 1_555 1_555
O6 C22 1_555 1_555
O7 C22 1_555 1_555
C8 H9 1_555 1_555
C9 C7 1_555 1_555
H10 C9 1_555 1_555
C10 C15 1_555 1_555
N4 C20 1_555 1_555
C11 N3 1_555 1_555
C12 N3 1_555 1_555
C13 C12 1_555 1_555
H11 C13 1_555 1_555
H12 C13 1_555 1_555
C14 C11 1_555 1_555
H13 C14 1_555 1_555
H14 C14 1_555 1_555
H15 C14 1_555 1_555
C15 C7 1_555 1_555
C16 C10 1_555 1_555
C17 C16 1_555 1_555
C18 O2 1_555 1_555
H16 C18 1_555 1_555
H17 C18 1_555 1_555
H18 C18 1_555 1_555
C19 C8 1_555 1_555
H19 C19 1_555 1_555
C20 C15 1_555 1_555
C21 C10 1_555 1_555
C22 C21 1_555 1_555
C23 O7 1_555 1_555
H20 C23 1_555 1_555
H21 C23 1_555 1_555
H22 C23 1_555 1_555
H23 C13 1_555 1_555
H24 C10 1_555 1_555
C2 C4 1_555 1_555
C5 C6 1_555 1_555
C8 C9 1_555 1_555
C11 C21 1_555 1_555
C12 C16 1_555 1_555
C19 C20 1_555 1_555

#END
