
#######################################################################
#
#                 Cambridge Crystallographic Data Centre
#                                CCDC 
#
#######################################################################
#
# If this CIF has been generated from an entry in the Cambridge 
# Structural Database, then it will include bibliographic, chemical, 
# crystal, experimental, refinement or atomic coordinate data resulting 
# from the CCDC's data processing and validation procedures.
#
#######################################################################

data_JENYOT
_chemical_formula_moiety         'C24 H16 O2'
_chemical_name_systematic        'benzyl pyrene-1-carboxylate'
_symmetry_cell_setting           monoclinic
_symmetry_space_group_name_H-M   'P 21/c'
_symmetry_Int_Tables_number      14
_space_group_name_Hall           '-P 2ybc'
loop_
_symmetry_equiv_pos_site_id
_symmetry_equiv_pos_as_xyz
1 x,y,z
2 -x,1/2+y,1/2-z
3 -x,-y,-z
4 x,1/2-y,1/2+z
_cell_length_a                   10.9965(6)
_cell_length_b                   11.8076(8)
_cell_length_c                   13.2007(7)
_cell_angle_alpha                90
_cell_angle_beta                 92.894(5)
_cell_angle_gamma                90
_cell_volume                     1711.82
_exptl_crystal_colour            'light yellow'
_exptl_crystal_description       block
_cell_formula_units_Z            4
_exptl_crystal_recrystallization_method methanol
loop_
_atom_site_label
_atom_site_type_symbol
_atom_site_fract_x
_atom_site_fract_y
_atom_site_fract_z
O1 O 0.67218(12) 0.48091(14) 0.85841(10)
O2 O 0.73975(15) 0.35662(15) 0.74966(15)
C1 C 0.50731(14) 0.38727(14) 0.62674(12)
C2 C 0.55307(15) 0.45506(14) 0.70804(13)
C3 C 0.39845(14) 0.42114(14) 0.57252(12)
C4 C 0.88516(18) 0.53132(19) 0.89472(14)
C5 C 0.66403(17) 0.42388(16) 0.77097(15)
C6 C 0.49188(18) 0.55416(15) 0.73202(14)
H1 H 0.5228 0.5991 0.7851
C7 C 0.34930(15) 0.35598(15) 0.48988(13)
C8 C 0.33757(16) 0.52212(15) 0.59999(14)
C9 C 0.24175(17) 0.39147(17) 0.43461(14)
C10 C 0.40795(17) 0.25526(16) 0.46111(14)
C11 C 0.51542(18) 0.22165(16) 0.51759(15)
H2 H 0.5537 0.1546 0.5004
C12 C 0.38747(18) 0.58691(16) 0.67931(15)
H3 H 0.3492 0.6538 0.6970
C13 C 0.56359(16) 0.28362(16) 0.59510(14)
H4 H 0.6349 0.2591 0.6291
C14 C 0.22850(19) 0.55438(18) 0.54355(18)
H5 H 0.1883 0.6201 0.5616
C15 C 0.7801(2) 0.4602(2) 0.92407(16)
H6 H 0.8022 0.3809 0.9203
H7 H 0.7620 0.4769 0.9937
C16 C 0.8868(2) 0.6447(2) 0.91923(18)
H8 H 0.8235 0.6759 0.9542
C17 C 0.3591(2) 0.1937(2) 0.37769(16)
H9 H 0.3965 0.1269 0.3587
C18 C 0.1978(2) 0.3280(2) 0.35215(16)
H10 H 0.1277 0.3513 0.3156
C19 C 0.9802(2) 0.4864(2) 0.84479(18)
H11 H 0.9803 0.4098 0.8283
C20 C 0.18285(19) 0.4927(2) 0.46563(18)
H12 H 0.1115 0.5161 0.4310
C21 C 0.2568(2) 0.2308(2) 0.32386(17)
H13 H 0.2270 0.1900 0.2677
C22 C 1.0746(2) 0.5540(3) 0.8191(2)
H14 H 1.1390 0.5231 0.7854
C23 C 0.9809(3) 0.7108(3) 0.8923(2)
H15 H 0.9808 0.7876 0.9080
C24 C 1.0752(3) 0.6665(4) 0.8426(3)
H16 H 1.1395 0.7124 0.8249
loop_
_geom_bond_atom_site_label_1
_geom_bond_atom_site_label_2
_geom_bond_site_symmetry_1
_geom_bond_site_symmetry_2
O1 C5 1_555 1_555
O2 C5 1_555 1_555
C1 C2 1_555 1_555
C2 C5 1_555 1_555
C3 C1 1_555 1_555
C4 C15 1_555 1_555
C6 C2 1_555 1_555
H1 C6 1_555 1_555
C7 C3 1_555 1_555
C8 C3 1_555 1_555
C9 C7 1_555 1_555
C10 C7 1_555 1_555
C11 C10 1_555 1_555
H2 C11 1_555 1_555
C12 C6 1_555 1_555
H3 C12 1_555 1_555
C13 C1 1_555 1_555
H4 C13 1_555 1_555
C14 C8 1_555 1_555
H5 C14 1_555 1_555
C15 O1 1_555 1_555
H6 C15 1_555 1_555
H7 C15 1_555 1_555
C16 C4 1_555 1_555
H8 C16 1_555 1_555
C17 C10 1_555 1_555
H9 C17 1_555 1_555
C18 C9 1_555 1_555
H10 C18 1_555 1_555
C19 C4 1_555 1_555
H11 C19 1_555 1_555
C20 C9 1_555 1_555
H12 C20 1_555 1_555
C21 C17 1_555 1_555
H13 C21 1_555 1_555
C22 C19 1_555 1_555
H14 C22 1_555 1_555
C23 C16 1_555 1_555
H15 C23 1_555 1_555
C24 C22 1_555 1_555
H16 C24 1_555 1_555
C8 C12 1_555 1_555
C11 C13 1_555 1_555
C14 C20 1_555 1_555
C18 C21 1_555 1_555
C23 C24 1_555 1_555

#END
