
#######################################################################
#
#                 Cambridge Crystallographic Data Centre
#                                CCDC 
#
#######################################################################
#
# If this CIF has been generated from an entry in the Cambridge 
# Structural Database, then it will include bibliographic, chemical, 
# crystal, experimental, refinement or atomic coordinate data resulting 
# from the CCDC's data processing and validation procedures.
#
#######################################################################

data_JENYEJ
_chemical_formula_moiety         'C18 H12 O2'
_chemical_name_systematic        'pyren-1-yl acetate'
_symmetry_cell_setting           orthorhombic
_symmetry_space_group_name_H-M   'P 21 21 21'
_symmetry_Int_Tables_number      19
_space_group_name_Hall           'P 2ac 2ab'
loop_
_symmetry_equiv_pos_site_id
_symmetry_equiv_pos_as_xyz
1 x,y,z
2 1/2-x,-y,1/2+z
3 1/2+x,1/2-y,-z
4 -x,1/2+y,1/2-z
_cell_length_a                   5.4969(3)
_cell_length_b                   10.7350(7)
_cell_length_c                   22.1474(12)
_cell_angle_alpha                90
_cell_angle_beta                 90
_cell_angle_gamma                90
_cell_volume                     1306.9
_cell_formula_units_Z            4
loop_
_atom_site_label
_atom_site_type_symbol
_atom_site_fract_x
_atom_site_fract_y
_atom_site_fract_z
O1 O -0.0368(4) 0.4118(2) 0.44514(9)
O2 O 0.1899(5) 0.5836(2) 0.45369(12)
C1 C 0.1335(6) 0.3554(3) 0.40639(13)
C2 C 0.1020(5) 0.3682(3) 0.34404(12)
C3 C -0.0856(5) 0.4427(3) 0.31759(13)
H1 H -0.1925 0.4862 0.3423
C4 C -0.1091(5) 0.4502(3) 0.25717(14)
H2 H -0.2334 0.4985 0.2410
C5 C 0.0524(5) 0.3859(3) 0.21726(12)
C6 C 0.0308(6) 0.3937(3) 0.15440(14)
H3 H -0.0936 0.4407 0.1374
C7 C 0.1932(7) 0.3319(4) 0.11745(15)
H4 H 0.1770 0.3380 0.0758
C8 C 0.3803(7) 0.2610(3) 0.14163(14)
H5 H 0.4886 0.2206 0.1160
C9 C 0.4074(5) 0.2498(3) 0.20378(13)
C10 C 0.5958(6) 0.1767(3) 0.23051(16)
H6 H 0.7056 0.1350 0.2058
C11 C 0.6175(6) 0.1670(3) 0.29073(16)
H7 H 0.7417 0.1182 0.3067
C12 C 0.4547(5) 0.2297(3) 0.33123(14)
C13 C 0.4734(6) 0.2217(3) 0.39376(15)
H8 H 0.5958 0.1731 0.4106
C14 C 0.3144(6) 0.2842(3) 0.43132(15)
H9 H 0.3299 0.2780 0.4730
C15 C 0.2665(5) 0.3034(2) 0.30612(13)
C16 C 0.2433(5) 0.3131(2) 0.24219(13)
C17 C 0.0079(6) 0.5285(4) 0.46567(13)
C18 C -0.1969(6) 0.5732(3) 0.50393(15)
H10 H -0.1991 0.5274 0.5412
H11 H -0.3478 0.5608 0.4830
H12 H -0.1759 0.6603 0.5123
loop_
_geom_bond_atom_site_label_1
_geom_bond_atom_site_label_2
_geom_bond_site_symmetry_1
_geom_bond_site_symmetry_2
O1 C1 1_555 1_555
O2 C17 1_555 1_555
C1 C2 1_555 1_555
C2 C3 1_555 1_555
C3 H1 1_555 1_555
C4 C3 1_555 1_555
H2 C4 1_555 1_555
C5 C4 1_555 1_555
C6 C5 1_555 1_555
H3 C6 1_555 1_555
C7 C6 1_555 1_555
H4 C7 1_555 1_555
C8 C7 1_555 1_555
H5 C8 1_555 1_555
C9 C8 1_555 1_555
C10 C9 1_555 1_555
H6 C10 1_555 1_555
C11 C10 1_555 1_555
H7 C11 1_555 1_555
C12 C11 1_555 1_555
C13 C12 1_555 1_555
H8 C13 1_555 1_555
C14 C1 1_555 1_555
H9 C14 1_555 1_555
C15 C2 1_555 1_555
C16 C5 1_555 1_555
C17 O1 1_555 1_555
C18 C17 1_555 1_555
H10 C18 1_555 1_555
H11 C18 1_555 1_555
H12 C18 1_555 1_555
C9 C16 1_555 1_555
C12 C15 1_555 1_555
C13 C14 1_555 1_555
C15 C16 1_555 1_555

#END
