
#######################################################################
#
#                 Cambridge Crystallographic Data Centre
#                                CCDC 
#
#######################################################################
#
# If this CIF has been generated from an entry in the Cambridge 
# Structural Database, then it will include bibliographic, chemical, 
# crystal, experimental, refinement or atomic coordinate data resulting 
# from the CCDC's data processing and validation procedures.
#
#######################################################################

data_JEPLEW
_chemical_formula_moiety         'C33 H42 O11,2(C1 H4 O1)'
_chemical_name_systematic        
'7,9-Dideacetyl-1-deoxybaccaton VI methanol solvate'
_symmetry_cell_setting           monoclinic
_symmetry_space_group_name_H-M   'P 21'
_symmetry_Int_Tables_number      4
_space_group_name_Hall           'P 2yb'
loop_
_symmetry_equiv_pos_site_id
_symmetry_equiv_pos_as_xyz
1 x,y,z
2 -x,1/2+y,-z
_cell_length_a                   8.6540(17)
_cell_length_b                   16.470(5)
_cell_length_c                   12.671(3)
_cell_angle_alpha                90
_cell_angle_beta                 97.63(2)
_cell_angle_gamma                90
_cell_volume                     1790.02
_exptl_crystal_colour            colorless
_exptl_crystal_description       prismatic
_cell_formula_units_Z            2
loop_
_atom_site_label
_atom_site_type_symbol
_atom_site_fract_x
_atom_site_fract_y
_atom_site_fract_z
O1 O 0.8706(3) 0.29898(17) 0.95191(19)
O2 O 0.6670(3) 0.3831(2) 0.9350(2)
O3 O 1.1863(3) 0.27440(17) 0.93873(19)
O4 O 1.4073(3) 0.2686(2) 1.0532(2)
O5 O 1.2045(4) 0.4577(2) 0.8712(2)
O6 O 1.3333(4) 0.5295(2) 1.2087(3)
H1 H 1.2611 0.5451 1.2408
O7 O 1.0744(4) 0.52678(17) 1.2831(3)
H2 H 0.9961 0.5473 1.3037
O8 O 0.9905(3) 0.41091(17) 1.4089(2)
O9 O 1.1961(6) 0.3923(4) 1.5268(3)
O10 O 1.2471(3) 0.13860(17) 1.1810(2)
O11 O 1.2738(7) 0.0399(3) 1.2964(5)
C1 C 0.8761(4) 0.2539(2) 1.1300(3)
H3 H 0.7713 0.2359 1.1005
C2 C 0.9148(4) 0.3262(2) 1.0609(3)
H4 H 0.8462 0.3713 1.0741
C3 C 1.0868(4) 0.3591(2) 1.0736(3)
H5 H 1.1489 0.3210 1.1210
C4 C 1.1578(4) 0.3580(2) 0.9674(3)
C5 C 1.2962(5) 0.4140(3) 0.9568(3)
H6 H 1.3799 0.3836 0.9294
C6 C 1.3617(5) 0.4661(3) 1.0484(3)
H7 H 1.3539 0.5223 1.0255
H8 H 1.4717 0.4536 1.0657
C7 C 1.2863(5) 0.4584(3) 1.1491(3)
H9 H 1.3333 0.4116 1.1890
C8 C 1.1079(4) 0.4446(2) 1.1294(3)
C9 C 1.0342(4) 0.4490(2) 1.2354(3)
H10 H 0.9207 0.4480 1.2164
C10 C 1.0752(4) 0.3861(2) 1.3227(3)
H11 H 1.1872 0.3893 1.3474
C11 C 1.0347(4) 0.2994(2) 1.2910(3)
C12 C 1.1485(4) 0.2462(2) 1.2824(3)
C13 C 1.1090(5) 0.1683(2) 1.2210(3)
H12 H 1.0731 0.1277 1.2688
C14 C 0.9838(5) 0.1802(3) 1.1244(3)
H13 H 0.9198 0.1316 1.1159
H14 H 1.0353 0.1854 1.0613
C15 C 0.8668(4) 0.2771(3) 1.2474(3)
C16 C 0.8147(5) 0.2032(3) 1.3106(4)
H15 H 0.8079 0.2192 1.3827
H16 H 0.8895 0.1602 1.3103
H17 H 0.7146 0.1846 1.2778
C17 C 0.7358(4) 0.3399(3) 1.2533(3)
H18 H 0.7526 0.3859 1.2098
H19 H 0.7365 0.3572 1.3257
H20 H 0.6369 0.3157 1.2281
C18 C 1.3174(4) 0.2569(3) 1.3257(3)
H21 H 1.3282 0.3012 1.3753
H22 H 1.3761 0.2683 1.2682
H23 H 1.3559 0.2080 1.3611
C19 C 1.0269(5) 0.5131(3) 1.0608(4)
H24 H 1.0776 0.5204 0.9985
H25 H 1.0330 0.5626 1.1012
H26 H 0.9195 0.4992 1.0398
C20 C 1.0799(5) 0.4002(3) 0.8687(3)
H27 H 1.0689 0.3659 0.8059
H28 H 0.9809 0.4249 0.8781
C21 C 0.7421(4) 0.3299(3) 0.8983(3)
C22 C 0.7031(4) 0.2962(3) 0.7907(3)
C23 C 0.7893(5) 0.2352(3) 0.7521(3)
H29 H 0.8754 0.2138 0.7948
C24 C 0.7482(6) 0.2062(3) 0.6511(4)
H30 H 0.8067 0.1652 0.6253
C25 C 0.6221(6) 0.2371(3) 0.5880(4)
H31 H 0.5951 0.2173 0.5193
C26 C 0.5344(5) 0.2979(4) 0.6261(4)
H32 H 0.4478 0.3190 0.5836
C27 C 0.5761(5) 0.3264(3) 0.7264(3)
H33 H 0.5172 0.3674 0.7521
C28 C 1.3219(5) 0.2406(3) 0.9810(4)
C29 C 1.3462(6) 0.1618(3) 0.9248(4)
H34 H 1.2934 0.1188 0.9566
H35 H 1.4556 0.1500 0.9312
H36 H 1.3050 0.1666 0.8509
C30 C 1.0640(7) 0.4124(3) 1.5051(4)
C31 C 0.9639(8) 0.4421(5) 1.5834(4)
H37 H 1.0278 0.4674 1.6421
H38 H 0.9086 0.3973 1.6091
H39 H 0.8906 0.4810 1.5499
C32 C 1.3196(6) 0.0749(3) 1.2260(5)
C33 C 1.4667(6) 0.0556(3) 1.1841(5)
H40 H 1.4468 0.0166 1.1277
H41 H 1.5402 0.0336 1.2402
H42 H 1.5087 0.1042 1.1572
O12 O 0.8487(5) 0.6012(3) 0.3622(5)
H43 H 0.7598 0.5819 0.3472
C34 C 0.8387(9) 0.6770(6) 0.4041(9)
H44 H 0.7674 0.7092 0.3570
H45 H 0.9397 0.7020 0.4128
H46 H 0.8018 0.6730 0.4721
O13 O 0.5830(6) 0.5254(4) 0.3617(6)
H47 H 0.5116 0.5310 0.3116
C35 C 0.5211(13) 0.4986(8) 0.4518(10)
H48 H 0.5399 0.4414 0.4610
H49 H 0.4109 0.5086 0.4430
H50 H 0.5700 0.5272 0.5133
loop_
_geom_bond_atom_site_label_1
_geom_bond_atom_site_label_2
_geom_bond_site_symmetry_1
_geom_bond_site_symmetry_2
O1 C2 1_555 1_555
O2 C21 1_555 1_555
O3 C4 1_555 1_555
O4 C28 1_555 1_555
O5 C5 1_555 1_555
O6 H1 1_555 1_555
O7 H2 1_555 1_555
O8 C10 1_555 1_555
O9 C30 1_555 1_555
O10 C13 1_555 1_555
O11 C32 1_555 1_555
C1 H3 1_555 1_555
C2 C1 1_555 1_555
H4 C2 1_555 1_555
C3 C2 1_555 1_555
H5 C3 1_555 1_555
C4 C3 1_555 1_555
C5 C4 1_555 1_555
H6 C5 1_555 1_555
C6 C5 1_555 1_555
H7 C6 1_555 1_555
H8 C6 1_555 1_555
C7 O6 1_555 1_555
H9 C7 1_555 1_555
C8 C3 1_555 1_555
C9 O7 1_555 1_555
H10 C9 1_555 1_555
C10 C9 1_555 1_555
H11 C10 1_555 1_555
C11 C10 1_555 1_555
C12 C11 1_555 1_555
C13 C12 1_555 1_555
H12 C13 1_555 1_555
C14 C1 1_555 1_555
H13 C14 1_555 1_555
H14 C14 1_555 1_555
C15 C1 1_555 1_555
C16 C15 1_555 1_555
H15 C16 1_555 1_555
H16 C16 1_555 1_555
H17 C16 1_555 1_555
C17 C15 1_555 1_555
H18 C17 1_555 1_555
H19 C17 1_555 1_555
H20 C17 1_555 1_555
C18 C12 1_555 1_555
H21 C18 1_555 1_555
H22 C18 1_555 1_555
H23 C18 1_555 1_555
C19 C8 1_555 1_555
H24 C19 1_555 1_555
H25 C19 1_555 1_555
H26 C19 1_555 1_555
C20 O5 1_555 1_555
H27 C20 1_555 1_555
H28 C20 1_555 1_555
C21 O1 1_555 1_555
C22 C21 1_555 1_555
C23 C22 1_555 1_555
H29 C23 1_555 1_555
C24 C23 1_555 1_555
H30 C24 1_555 1_555
C25 C24 1_555 1_555
H31 C25 1_555 1_555
C26 C25 1_555 1_555
H32 C26 1_555 1_555
C27 C22 1_555 1_555
H33 C27 1_555 1_555
C28 O3 1_555 1_555
C29 C28 1_555 1_555
H34 C29 1_555 1_555
H35 C29 1_555 1_555
H36 C29 1_555 1_555
C30 O8 1_555 1_555
C31 C30 1_555 1_555
H37 C31 1_555 1_555
H38 C31 1_555 1_555
H39 C31 1_555 1_555
C32 O10 1_555 1_555
C33 C32 1_555 1_555
H40 C33 1_555 1_555
H41 C33 1_555 1_555
H42 C33 1_555 1_555
O12 H43 1_555 1_555
C34 O12 1_555 1_555
H44 C34 1_555 1_555
H45 C34 1_555 1_555
H46 C34 1_555 1_555
O13 H47 1_555 1_555
C35 O13 1_555 1_555
H48 C35 1_555 1_555
H49 C35 1_555 1_555
H50 C35 1_555 1_555
C4 C20 1_555 1_555
C6 C7 1_555 1_555
C7 C8 1_555 1_555
C8 C9 1_555 1_555
C11 C15 1_555 1_555
C13 C14 1_555 1_555
C26 C27 1_555 1_555

#END
