
#######################################################################
#
#                 Cambridge Crystallographic Data Centre
#                                CCDC 
#
#######################################################################
#
# If this CIF has been generated from an entry in the Cambridge 
# Structural Database, then it will include bibliographic, chemical, 
# crystal, experimental, refinement or atomic coordinate data resulting 
# from the CCDC's data processing and validation procedures.
#
#######################################################################

data_JEPTIK
_chemical_name_common            HOF-11a
_chemical_formula_moiety         'C21 H15 N1 O6'
_chemical_name_systematic        
"4,4',4''-nitrilotribenzoic acid unknown solvate"
_symmetry_cell_setting           monoclinic
_symmetry_space_group_name_H-M   'P 21/n'
_symmetry_Int_Tables_number      14
_space_group_name_Hall           '-P 2yn'
loop_
_symmetry_equiv_pos_site_id
_symmetry_equiv_pos_as_xyz
1 x,y,z
2 1/2-x,1/2+y,1/2-z
3 -x,-y,-z
4 1/2+x,1/2-y,1/2+z
_cell_length_a                   7.3200(4)
_cell_length_b                   26.982(3)
_cell_length_c                   49.968(4)
_cell_angle_alpha                90
_cell_angle_beta                 92.692(5)
_cell_angle_gamma                90
_cell_volume                     9858.2
_exptl_crystal_colour            colorless
_exptl_crystal_description       block
_cell_formula_units_Z            16
_exptl_crystal_preparation       'degassed crystal'
loop_
_atom_site_label
_atom_site_type_symbol
_atom_site_fract_x
_atom_site_fract_y
_atom_site_fract_z
C1 C 0.2136(5) 0.12161(18) 0.49357(10)
C2 C 0.0933(5) 0.11614(17) 0.47128(10)
H1 H 0.1147 0.1337 0.4552
C3 C -0.0586(5) 0.08498(18) 0.47247(10)
H2 H -0.1368 0.0801 0.4570
C4 C -0.0958(5) 0.06106(18) 0.49622(11)
C5 C 0.0255(6) 0.06595(18) 0.51841(11)
H3 H 0.0033 0.0487 0.5345
C6 C 0.1799(6) 0.0963(2) 0.51700(10)
H4 H 0.2622 0.0995 0.5322
C7 C -0.2690(6) 0.03244(19) 0.49802(13)
C8 C 0.4025(6) 0.1907(2) 0.53840(10)
H5 H 0.2754 0.1973 0.5390
C9 C 0.4715(5) 0.16834(18) 0.51584(9)
C10 C 0.6614(6) 0.1614(2) 0.51515(10)
H6 H 0.7121 0.1473 0.4997
C11 C 0.7728(6) 0.1749(2) 0.53643(9)
H7 H 0.9006 0.1692 0.5358
C12 C 0.7056(5) 0.1966(2) 0.55900(10)
C13 C 0.5183(6) 0.2030(2) 0.55984(9)
H8 H 0.4687 0.2162 0.5756
C14 C 0.8337(6) 0.2086(2) 0.58166(11)
C15 C 0.4346(5) 0.16784(19) 0.46741(9)
C16 C 0.4809(5) 0.2173(2) 0.46291(10)
H9 H 0.4567 0.2420 0.4758
C17 C 0.5628(5) 0.2299(2) 0.43926(9)
H10 H 0.5934 0.2635 0.4360
C18 C 0.5997(5) 0.1945(2) 0.42064(9)
C19 C 0.5547(5) 0.1453(2) 0.42527(10)
H11 H 0.5821 0.1208 0.4124
C20 C 0.4705(5) 0.1315(2) 0.44838(9)
H12 H 0.4375 0.0980 0.4513
C21 C 0.6866(6) 0.2093(3) 0.39533(11)
N1 N 0.3607(4) 0.15476(16) 0.49229(7)
O1 O 0.7186(5) 0.25388(18) 0.39125(8)
O2 O 0.7296(5) 0.17340(17) 0.37952(7)
H13 H 0.7798 0.1851 0.3661
O3 O -0.3756(4) 0.02838(15) 0.47799(8)
O4 O -0.3006(4) 0.01492(15) 0.52146(8)
H14 H -0.3999 -0.0007 0.5207
O5 O 0.7738(4) 0.22208(16) 0.60342(7)
O6 O 1.0025(4) 0.20504(17) 0.57712(7)
H15 H 1.0653 0.2132 0.5909
C22 C 0.0295(6) 0.66178(19) 0.46146(10)
C23 C -0.1569(5) 0.6668(2) 0.46373(10)
H16 H -0.2063 0.6682 0.4810
C24 C -0.2696(6) 0.6699(2) 0.44148(10)
H17 H -0.3976 0.6729 0.4434
C25 C -0.2025(6) 0.6688(2) 0.41571(10)
C26 C -0.0165(5) 0.6660(2) 0.41375(9)
H18 H 0.0327 0.6658 0.3965
C27 C 0.0992(6) 0.6635(2) 0.43573(10)
H19 H 0.2276 0.6629 0.4337
C28 C -0.3276(7) 0.6699(2) 0.39199(11)
C29 C 0.0836(5) 0.67992(19) 0.50942(9)
C30 C 0.0522(6) 0.7297(2) 0.51018(10)
H20 H 0.0719 0.7497 0.4949
C31 C -0.0087(6) 0.7509(2) 0.53339(10)
H21 H -0.0304 0.7856 0.5339
C32 C -0.0386(5) 0.7227(2) 0.55580(10)
C33 C -0.0037(6) 0.6718(2) 0.55470(10)
H22 H -0.0212 0.6515 0.5699
C34 C 0.0574(6) 0.6508(2) 0.53093(10)
H23 H 0.0803 0.6162 0.5300
C35 C -0.1049(6) 0.7447(2) 0.58063(11)
C36 C 0.2973(6) 0.6266(2) 0.48686(10)
C37 C 0.4331(5) 0.6355(2) 0.50681(10)
H24 H 0.4225 0.6632 0.5183
C38 C 0.5829(6) 0.6044(2) 0.51012(11)
H25 H 0.6695 0.6101 0.5246
C39 C 0.6090(6) 0.5654(2) 0.49281(11)
C40 C 0.4729(6) 0.5568(2) 0.47299(11)
H26 H 0.4863 0.5298 0.4611
C41 C 0.3184(6) 0.5863(2) 0.47005(11)
H27 H 0.2270 0.5789 0.4565
C42 C 0.7754(6) 0.5359(2) 0.49586(13)
N2 N 0.1440(4) 0.65825(15) 0.48504(7)
O7 O -0.2646(4) 0.66507(18) 0.36883(7)
O8 O -0.5000(4) 0.67466(17) 0.39555(7)
H28 H -0.5577 0.6749 0.3806
O9 O -0.1112(4) 0.79066(15) 0.58279(7)
O10 O -0.1562(5) 0.71398(16) 0.59825(8)
H29 H -0.1900 0.7296 0.6117
O11 O 0.7992(4) 0.50369(17) 0.47702(9)
H30 H 0.9001 0.4893 0.4798
O12 O 0.8855(5) 0.54169(16) 0.51493(10)
C43 C 0.3218(5) 0.34079(18) 0.23023(9)
C44 C 0.4539(5) 0.33776(19) 0.25099(9)
H31 H 0.4406 0.3145 0.2650
C45 C 0.6042(6) 0.3684(2) 0.25133(11)
H32 H 0.6917 0.3670 0.2660
C46 C 0.6294(5) 0.40161(19) 0.23050(11)
C47 C 0.4968(6) 0.40570(19) 0.21027(10)
H33 H 0.5101 0.4293 0.1964
C48 C 0.3427(6) 0.37530(19) 0.21003(10)
H34 H 0.2515 0.3782 0.1959
C49 C 0.8014(6) 0.4319(2) 0.23143(13)
C50 C 0.1064(5) 0.2932(2) 0.25611(9)
C51 C 0.0786(6) 0.3273(2) 0.27652(10)
H35 H 0.1066 0.3613 0.2739
C52 C 0.0115(5) 0.3121(2) 0.30020(9)
H36 H -0.0045 0.3352 0.3143
C53 C -0.0336(5) 0.2621(2) 0.30356(9)
C54 C -0.0036(6) 0.2285(2) 0.28371(10)
H37 H -0.0315 0.1945 0.2864
C55 C 0.0661(6) 0.2432(2) 0.26001(10)
H38 H 0.0868 0.2196 0.2464
C56 C -0.1070(6) 0.2463(3) 0.32982(11)
C57 C 0.0510(5) 0.29961(18) 0.20771(9)
C58 C -0.1378(5) 0.29650(19) 0.21083(9)
H39 H -0.1851 0.3001 0.2281
C59 C -0.2549(5) 0.2883(2) 0.18900(9)
H40 H -0.3823 0.2851 0.1915
C60 C -0.1897(5) 0.2846(2) 0.16320(10)
C61 C -0.0045(6) 0.2862(2) 0.16055(10)
H41 H 0.0426 0.2830 0.1432
C62 C 0.1173(5) 0.2925(2) 0.18279(9)
H42 H 0.2455 0.2919 0.1806
C63 C -0.3184(6) 0.2804(2) 0.14026(10)
N3 N 0.1672(4) 0.30886(15) 0.23047(7)
O13 O -0.1181(4) 0.19976(16) 0.33462(7)
O14 O -0.1549(5) 0.28028(16) 0.34576(8)
H43 H -0.1937 0.2674 0.3597
O15 O 0.9116(4) 0.43014(15) 0.25088(9)
O16 O 0.8258(4) 0.45775(15) 0.21001(9)
H44 H 0.9264 0.4727 0.2116
O17 O -0.2615(4) 0.28266(17) 0.11679(7)
O18 O -0.4881(4) 0.27506(17) 0.14472(7)
H45 H -0.5484 0.2723 0.1301
C64 C 0.7297(5) 0.59447(19) 0.23577(10)
C65 C 0.6101(5) 0.59348(18) 0.21354(9)
H46 H 0.6319 0.6145 0.1988
C66 C 0.4609(5) 0.56282(18) 0.21231(10)
H47 H 0.3809 0.5625 0.1968
C67 C 0.4265(5) 0.53183(18) 0.23406(10)
C68 C 0.2521(7) 0.5022(2) 0.23229(13)
C69 C 0.5475(6) 0.53157(19) 0.25621(11)
H48 H 0.5262 0.5100 0.2708
C70 C 0.6980(6) 0.5621(2) 0.25747(10)
H49 H 0.7803 0.5615 0.2728
C71 C 0.9870(5) 0.63621(19) 0.26126(10)
C72 C 1.1742(6) 0.6283(2) 0.26077(10)
H50 H 1.2264 0.6168 0.2449
C73 C 1.2850(6) 0.6374(2) 0.28357(10)
H51 H 1.4132 0.6325 0.2829
C74 C 1.2133(5) 0.6533(2) 0.30727(10)
C75 C 1.0270(6) 0.6608(2) 0.30748(10)
H52 H 0.9748 0.6711 0.3236
C76 C 0.9135(6) 0.6536(2) 0.28464(11)
H53 H 0.7865 0.6606 0.2850
C77 C 1.3366(6) 0.6616(2) 0.33118(11)
C78 C 0.9527(5) 0.64587(19) 0.21341(9)
C79 C 0.9967(5) 0.6144(2) 0.19253(9)
H54 H 0.9736 0.5798 0.1938
C80 C 1.0743(5) 0.6333(2) 0.16983(9)
H55 H 1.1007 0.6118 0.1554
C81 C 1.1129(5) 0.6830(2) 0.16813(10)
C82 C 1.0689(5) 0.7142(2) 0.18869(11)
H56 H 1.0927 0.7487 0.1872
C83 C 0.9906(5) 0.6966(2) 0.21150(10)
H57 H 0.9632 0.7185 0.2256
C84 C 1.1949(6) 0.7037(3) 0.14435(12)
N4 N 0.8785(4) 0.62776(15) 0.23722(7)
O19 O 0.2265(4) 0.47704(16) 0.25456(8)
H58 H 0.1274 0.4614 0.2530
O20 O 0.1470(4) 0.50236(15) 0.21259(9)
O21 O 1.2427(4) 0.67246(16) 0.12638(8)
H59 H 1.2899 0.6878 0.1138
O22 O 1.2176(5) 0.74948(19) 0.14215(8)
O23 O 1.5051(4) 0.65674(18) 0.32774(7)
H60 H 1.5641 0.6609 0.3424
O24 O 1.2709(4) 0.67236(17) 0.35289(7)
loop_
_geom_bond_atom_site_label_1
_geom_bond_atom_site_label_2
_geom_bond_site_symmetry_1
_geom_bond_site_symmetry_2
C1 C2 1_555 1_555
C2 H1 1_555 1_555
C3 C2 1_555 1_555
H2 C3 1_555 1_555
C4 C3 1_555 1_555
C5 C4 1_555 1_555
H3 C5 1_555 1_555
C6 C1 1_555 1_555
H4 C6 1_555 1_555
C7 C4 1_555 1_555
C8 H5 1_555 1_555
C9 C8 1_555 1_555
C10 C9 1_555 1_555
H6 C10 1_555 1_555
C11 C10 1_555 1_555
H7 C11 1_555 1_555
C12 C11 1_555 1_555
C13 C8 1_555 1_555
H8 C13 1_555 1_555
C14 C12 1_555 1_555
C15 C16 1_555 1_555
C16 H9 1_555 1_555
C17 C16 1_555 1_555
H10 C17 1_555 1_555
C18 C17 1_555 1_555
C19 C18 1_555 1_555
H11 C19 1_555 1_555
C20 C15 1_555 1_555
H12 C20 1_555 1_555
C21 C18 1_555 1_555
N1 C1 1_555 1_555
O1 C21 1_555 1_555
O2 C21 1_555 1_555
H13 O2 1_555 1_555
O3 C7 1_555 1_555
O4 C7 1_555 1_555
H14 O4 1_555 1_555
O5 C14 1_555 1_555
O6 C14 1_555 1_555
H15 O6 1_555 1_555
C22 C23 1_555 1_555
C23 H16 1_555 1_555
C24 C23 1_555 1_555
H17 C24 1_555 1_555
C25 C24 1_555 1_555
C26 C25 1_555 1_555
H18 C26 1_555 1_555
C27 C22 1_555 1_555
H19 C27 1_555 1_555
C28 C25 1_555 1_555
C29 C30 1_555 1_555
C30 H20 1_555 1_555
C31 C30 1_555 1_555
H21 C31 1_555 1_555
C32 C31 1_555 1_555
C33 C32 1_555 1_555
H22 C33 1_555 1_555
C34 C29 1_555 1_555
H23 C34 1_555 1_555
C35 C32 1_555 1_555
C36 C37 1_555 1_555
C37 H24 1_555 1_555
C38 C37 1_555 1_555
H25 C38 1_555 1_555
C39 C38 1_555 1_555
C40 C39 1_555 1_555
H26 C40 1_555 1_555
C41 C36 1_555 1_555
H27 C41 1_555 1_555
C42 C39 1_555 1_555
N2 C22 1_555 1_555
O7 C28 1_555 1_555
O8 C28 1_555 1_555
H28 O8 1_555 1_555
O9 C35 1_555 1_555
O10 C35 1_555 1_555
H29 O10 1_555 1_555
O11 C42 1_555 1_555
H30 O11 1_555 1_555
O12 C42 1_555 1_555
C43 C44 1_555 1_555
C44 H31 1_555 1_555
C45 C44 1_555 1_555
H32 C45 1_555 1_555
C46 C45 1_555 1_555
C47 C46 1_555 1_555
H33 C47 1_555 1_555
C48 C43 1_555 1_555
H34 C48 1_555 1_555
C49 C46 1_555 1_555
C50 C51 1_555 1_555
C51 H35 1_555 1_555
C52 C51 1_555 1_555
H36 C52 1_555 1_555
C53 C52 1_555 1_555
C54 C53 1_555 1_555
H37 C54 1_555 1_555
C55 C50 1_555 1_555
H38 C55 1_555 1_555
C56 C53 1_555 1_555
C57 C58 1_555 1_555
C58 H39 1_555 1_555
C59 C58 1_555 1_555
H40 C59 1_555 1_555
C60 C59 1_555 1_555
C61 C60 1_555 1_555
H41 C61 1_555 1_555
C62 C57 1_555 1_555
H42 C62 1_555 1_555
C63 C60 1_555 1_555
N3 C43 1_555 1_555
O13 C56 1_555 1_555
O14 C56 1_555 1_555
H43 O14 1_555 1_555
O15 C49 1_555 1_555
O16 C49 1_555 1_555
H44 O16 1_555 1_555
O17 C63 1_555 1_555
O18 C63 1_555 1_555
H45 O18 1_555 1_555
C64 C65 1_555 1_555
C65 H46 1_555 1_555
C66 C65 1_555 1_555
H47 C66 1_555 1_555
C67 C66 1_555 1_555
C68 C67 1_555 1_555
C69 C67 1_555 1_555
H48 C69 1_555 1_555
C70 C64 1_555 1_555
H49 C70 1_555 1_555
C71 C72 1_555 1_555
C72 H50 1_555 1_555
C73 C72 1_555 1_555
H51 C73 1_555 1_555
C74 C73 1_555 1_555
C75 C74 1_555 1_555
H52 C75 1_555 1_555
C76 C71 1_555 1_555
H53 C76 1_555 1_555
C77 C74 1_555 1_555
C78 C79 1_555 1_555
C79 H54 1_555 1_555
C80 C79 1_555 1_555
H55 C80 1_555 1_555
C81 C80 1_555 1_555
C82 C81 1_555 1_555
H56 C82 1_555 1_555
C83 C78 1_555 1_555
H57 C83 1_555 1_555
C84 C81 1_555 1_555
N4 C64 1_555 1_555
O19 C68 1_555 1_555
H58 O19 1_555 1_555
O20 C68 1_555 1_555
O21 C84 1_555 1_555
H59 O21 1_555 1_555
O22 C84 1_555 1_555
O23 C77 1_555 1_555
H60 O23 1_555 1_555
O24 C77 1_555 1_555
C5 C6 1_555 1_555
C9 N1 1_555 1_555
C12 C13 1_555 1_555
C15 N1 1_555 1_555
C19 C20 1_555 1_555
C26 C27 1_555 1_555
C29 N2 1_555 1_555
C33 C34 1_555 1_555
C36 N2 1_555 1_555
C40 C41 1_555 1_555
C47 C48 1_555 1_555
C50 N3 1_555 1_555
C54 C55 1_555 1_555
C57 N3 1_555 1_555
C61 C62 1_555 1_555
C69 C70 1_555 1_555
C71 N4 1_555 1_555
C75 C76 1_555 1_555
C78 N4 1_555 1_555
C82 C83 1_555 1_555

#END
