
#######################################################################
#
#                 Cambridge Crystallographic Data Centre
#                                CCDC 
#
#######################################################################
#
# If this CIF has been generated from an entry in the Cambridge 
# Structural Database, then it will include bibliographic, chemical, 
# crystal, experimental, refinement or atomic coordinate data resulting 
# from the CCDC's data processing and validation procedures.
#
#######################################################################

data_JEQMEA
_chemical_formula_moiety         'H14 B2 Mg1 N2,2(H6 B1 N1)'
_chemical_name_systematic        
'diammine-bis(tetrahydridoborate)-magnesium bis(ammonioborate)'
_symmetry_cell_setting           tetragonal
_symmetry_space_group_name_H-M   'P 4 b m'
_symmetry_Int_Tables_number      100
_space_group_name_Hall           'P 4 -2ab'
loop_
_symmetry_equiv_pos_site_id
_symmetry_equiv_pos_as_xyz
1 x,y,z
2 -x,-y,z
3 1/2-x,1/2+y,z
4 -y,x,z
5 1/2-y,1/2-x,z
6 y,-x,z
7 1/2+y,1/2+x,z
8 1/2+x,1/2-y,z
_cell_length_a                   9.4642(8)
_cell_length_b                   9.4642(8)
_cell_length_c                   5.5229(8)
_cell_angle_alpha                90
_cell_angle_beta                 90
_cell_angle_gamma                90
_cell_volume                     494.692
_exptl_crystal_colour            white
_cell_formula_units_Z            2
loop_
_atom_site_label
_atom_site_type_symbol
_atom_site_fract_x
_atom_site_fract_y
_atom_site_fract_z
B1 B 0.34667 0.84667 0.33275
H1 H 0.250445 0.825523 0.466623
H2 H 0.309602 0.932317 0.188357
Mg1 Mg 0.500 1 0.5878
N1 N 0.37772 1.12228 0.78818
H1F H 0.325523 0.750445 0.466623
H2F H 0.432317 0.809602 0.188357
B1A B 0.65333 1.15333 0.33275
H1A H 0.749555 1.174477 0.466623
H2A H 0.690398 1.067683 0.188357
N1A N 0.62228 0.87772 0.78818
H1D H 0.674477 1.249555 0.466623
H2D H 0.567683 1.190398 0.188357
B2 B 0.000 0.000 -0.09633
N2 N 0.000 0.000 0.19167
H3? H 0.103152 0.017290 0.194438
H4? H -0.110763 0.059364 -0.103372
H5? H 0.303153 1.111289 0.663887
H6? H 0.367138 1.047590 0.912361
loop_
_geom_bond_atom_site_label_1
_geom_bond_atom_site_label_2
_geom_bond_site_symmetry_1
_geom_bond_site_symmetry_2
B1 H1 1_555 1_555
H2 B1 1_555 1_555
Mg1 B1 1_555 1_555
N1 Mg1 1_555 1_555
B2 N2 1_555 1_555
H1F B1 1_555 1_555
H2F B1 1_555 1_555
B1A Mg1 1_555 1_555
H1A B1A 1_555 1_555
H2A B1A 1_555 1_555
N1A Mg1 1_555 1_555
H1D B1A 1_555 1_555
H2D B1A 1_555 1_555

#END
