
#######################################################################
#
#                 Cambridge Crystallographic Data Centre
#                                CCDC 
#
#######################################################################
#
# If this CIF has been generated from an entry in the Cambridge 
# Structural Database, then it will include bibliographic, chemical, 
# crystal, experimental, refinement or atomic coordinate data resulting 
# from the CCDC's data processing and validation procedures.
#
#######################################################################

data_JEQRON
_chemical_formula_moiety         'C18 H17 Br1 N2 O1'
_chemical_name_systematic        
2-(4-t-Butylphenyl)-5-(4-bromophenyl)-1,3,4-oxadiazole
_symmetry_cell_setting           monoclinic
_symmetry_space_group_name_H-M   'P 21/n'
_symmetry_Int_Tables_number      14
_space_group_name_Hall           '-P 2yn'
loop_
_symmetry_equiv_pos_site_id
_symmetry_equiv_pos_as_xyz
1 x,y,z
2 1/2-x,1/2+y,1/2-z
3 -x,-y,-z
4 1/2+x,1/2-y,1/2+z
_cell_length_a                   7.3569(11)
_cell_length_b                   6.1392(10)
_cell_length_c                   34.909(6)
_cell_angle_alpha                90
_cell_angle_beta                 91.43(2)
_cell_angle_gamma                90
_cell_volume                     1576.19
_exptl_crystal_colour            colorless
_exptl_crystal_description       plate
_cell_formula_units_Z            4
loop_
_atom_site_label
_atom_site_type_symbol
_atom_site_fract_x
_atom_site_fract_y
_atom_site_fract_z
Br1 Br 0.79228(9) 0.82499(12) 0.08781(2)
O1 O 0.4732(6) 0.6075(7) 0.26789(12)
N1 N 0.3575(7) 0.2819(9) 0.28070(15)
N2 N 0.4234(7) 0.2794(9) 0.24311(15)
C1 C 0.3885(8) 0.4803(10) 0.29376(17)
C2 C 0.4895(8) 0.4730(10) 0.23723(17)
C3 C 0.3460(7) 0.5671(10) 0.33152(16)
C4 C 0.4079(8) 0.7736(10) 0.34268(17)
H1 H 0.4720 0.8630 0.3254
C5 C 0.3763(9) 0.8473(10) 0.37941(18)
H2 H 0.4213 0.9859 0.3872
C6 C 0.2780(8) 0.7218(10) 0.40564(16)
C7 C 0.2120(8) 0.5208(10) 0.39306(17)
H3 H 0.1420 0.4350 0.4099
C8 C 0.2477(8) 0.4424(10) 0.35651(17)
H4 H 0.2024 0.3040 0.3487
C9 C 0.2636(9) 0.7936(10) 0.44759(17)
C10 C 0.4488(10) 0.7509(13) 0.46781(19)
H5 H 0.4829 0.5979 0.4644
H6 H 0.4392 0.7824 0.4952
H7 H 0.5419 0.8448 0.4569
C11 C 0.2207(9) 1.0378(10) 0.45056(18)
H8 H 0.3187 1.1226 0.4393
H9 H 0.2100 1.0775 0.4776
H10 H 0.1058 1.0690 0.4368
C12 C 0.1163(12) 0.6688(13) 0.4687(2)
H11 H -0.0026 0.6967 0.4564
H12 H 0.1145 0.7174 0.4955
H13 H 0.1424 0.5122 0.4679
C13 C 0.5685(7) 0.5559(10) 0.20227(17)
C14 C 0.6392(8) 0.7688(10) 0.20072(18)
H14 H 0.6415 0.8585 0.2229
C15 C 0.7063(8) 0.8470(11) 0.16649(18)
H15 H 0.7512 0.9918 0.1649
C16 C 0.7063(8) 0.7142(10) 0.13499(17)
C17 C 0.6388(9) 0.5011(11) 0.13603(19)
H16 H 0.6413 0.4101 0.1140
C18 C 0.5687(8) 0.4254(11) 0.16975(18)
H17 H 0.5211 0.2817 0.1707
loop_
_geom_bond_atom_site_label_1
_geom_bond_atom_site_label_2
_geom_bond_site_symmetry_1
_geom_bond_site_symmetry_2
Br1 C16 1_555 1_555
O1 C1 1_555 1_555
N1 N2 1_555 1_555
N2 C2 1_555 1_555
C1 N1 1_555 1_555
C2 O1 1_555 1_555
C3 C1 1_555 1_555
C4 C3 1_555 1_555
H1 C4 1_555 1_555
C5 C4 1_555 1_555
H2 C5 1_555 1_555
C6 C5 1_555 1_555
C7 C6 1_555 1_555
H3 C7 1_555 1_555
C8 C3 1_555 1_555
H4 C8 1_555 1_555
C9 C6 1_555 1_555
C10 C9 1_555 1_555
H5 C10 1_555 1_555
H6 C10 1_555 1_555
H7 C10 1_555 1_555
C11 C9 1_555 1_555
H8 C11 1_555 1_555
H9 C11 1_555 1_555
H10 C11 1_555 1_555
C12 C9 1_555 1_555
H11 C12 1_555 1_555
H12 C12 1_555 1_555
H13 C12 1_555 1_555
C13 C2 1_555 1_555
C14 C13 1_555 1_555
H14 C14 1_555 1_555
C15 C14 1_555 1_555
H15 C15 1_555 1_555
C16 C15 1_555 1_555
C17 C16 1_555 1_555
H16 C17 1_555 1_555
C18 C13 1_555 1_555
H17 C18 1_555 1_555
C7 C8 1_555 1_555
C17 C18 1_555 1_555

#END
