
#######################################################################
#
#                 Cambridge Crystallographic Data Centre
#                                CCDC 
#
#######################################################################
#
# If this CIF has been generated from an entry in the Cambridge 
# Structural Database, then it will include bibliographic, chemical, 
# crystal, experimental, refinement or atomic coordinate data resulting 
# from the CCDC's data processing and validation procedures.
#
#######################################################################

data_JEQRED
_chemical_formula_moiety         'C43 H49 Br1 N2 O1'
_chemical_name_systematic        
2-(4-t-Butylphenyl)-5-(4-(9,9-di-n-hexyl-2-bromofluoren-7-yl)phenyl)-1,3,4-oxadiazole
_symmetry_cell_setting           triclinic
_symmetry_space_group_name_H-M   'P -1'
_symmetry_Int_Tables_number      2
_space_group_name_Hall           '-P 1'
loop_
_symmetry_equiv_pos_site_id
_symmetry_equiv_pos_as_xyz
1 x,y,z
2 -x,-y,-z
_cell_length_a                   10.945(5)
_cell_length_b                   12.714(3)
_cell_length_c                   13.128(4)
_cell_angle_alpha                96.10(1)
_cell_angle_beta                 93.84(1)
_cell_angle_gamma                94.38(1)
_cell_volume                     1805.97
_exptl_crystal_colour            colorless
_exptl_crystal_description       trapezoid
_chemical_melting_point          133.9-134.8deg.C
_cell_formula_units_Z            2
_exptl_crystal_recrystallization_method ethanol
loop_
_atom_site_label
_atom_site_type_symbol
_atom_site_fract_x
_atom_site_fract_y
_atom_site_fract_z
Br1 Br 0.702749(15) -0.039572(12) 0.137215(14)
O1 O -0.06775(9) 0.84734(7) 0.53665(7)
N1 N -0.17002(11) 0.77223(10) 0.39288(10)
N2 N -0.23040(12) 0.86014(10) 0.43066(10)
C1 C 0.53812(12) 0.12176(10) 0.16824(11)
H1 H 0.5213 0.1111 0.0958
C2 C 0.62136(13) 0.06296(11) 0.21778(12)
C3 C 0.64797(13) 0.07673(11) 0.32330(12)
H2 H 0.7050 0.0350 0.3546
C4 C 0.58989(13) 0.15195(11) 0.38280(11)
H3 H 0.6077 0.1629 0.4551
C5 C 0.42013(13) 0.33854(11) 0.47838(10)
H4 H 0.4684 0.3167 0.5339
C6 C 0.33924(13) 0.41627(11) 0.49585(10)
H5 H 0.3332 0.4480 0.5640
C7 C 0.26608(12) 0.44898(10) 0.41523(10)
C8 C 0.27694(11) 0.40225(10) 0.31458(10)
H6 H 0.2284 0.4235 0.2588
C9 C 0.38870(11) 0.27161(10) 0.19392(9)
C10 C 0.48084(11) 0.19633(10) 0.22860(10)
C11 C 0.50579(11) 0.21135(10) 0.33545(10)
C12 C 0.42955(11) 0.29302(10) 0.37806(10)
C13 C 0.35801(11) 0.32574(10) 0.29685(10)
C14 C 0.45004(11) 0.35442(10) 0.13047(10)
H7 H 0.4806 0.3161 0.0689
H8 H 0.3866 0.3994 0.1064
C15 C 0.55617(12) 0.42642(10) 0.18740(10)
H9 H 0.5243 0.4713 0.2443
H10 H 0.6161 0.3819 0.2179
C16 C 0.62183(12) 0.49763(11) 0.11854(11)
H11 H 0.5620 0.5416 0.0873
H12 H 0.6552 0.4530 0.0623
C17 C 0.72614(14) 0.56983(12) 0.17749(12)
H13 H 0.6915 0.6147 0.2329
H14 H 0.7838 0.5251 0.2105
C18 C 0.79852(16) 0.64104(14) 0.11364(15)
H15 H 0.7447 0.6838 0.0786
H16 H 0.8548 0.6879 0.1599
C19 C 0.8732(2) 0.57888(19) 0.0410(2)
H18 H 0.9189 0.6273 0.0011
H19 H 0.8181 0.5284 -0.0056
H20 H 0.9311 0.5401 0.0798
C21 C 0.27542(11) 0.21442(10) 0.12996(10)
H24 H 0.2174 0.2679 0.1152
H25 H 0.3019 0.1836 0.0634
C22 C 0.20676(12) 0.12671(10) 0.17918(10)
H26 H 0.1869 0.1550 0.2487
H27 H 0.2609 0.0687 0.1867
C23 C 0.08798(12) 0.08164(11) 0.11622(11)
H28 H 0.1087 0.0533 0.0469
H29 H 0.0514 0.0215 0.1492
C24 C -0.00851(13) 0.16139(11) 0.10457(11)
H30 H 0.0255 0.2186 0.0664
H31 H -0.0813 0.1250 0.0629
C25 C -0.04958(14) 0.21134(13) 0.20583(13)
H32 H -0.0821 0.1545 0.2451
H33 H 0.0223 0.2501 0.2469
C26 C -0.14816(16) 0.28779(14) 0.18987(15)
H34 H -0.1162 0.3445 0.1513
H35 H -0.1711 0.3188 0.2567
H36 H -0.2206 0.2492 0.1512
C27 C 0.17810(12) 0.53063(10) 0.43236(10)
C28 C 0.20526(12) 0.62128(11) 0.50255(11)
H37 H 0.2808 0.6296 0.5437
C29 C 0.12322(13) 0.69947(11) 0.51307(11)
H38 H 0.1430 0.7607 0.5611
C30 C 0.01249(12) 0.68798(10) 0.45325(10)
C31 C -0.01693(13) 0.59617(11) 0.38490(11)
H39 H -0.0936 0.5868 0.3453
C32 C 0.06484(12) 0.51942(11) 0.37489(10)
H40 H 0.0438 0.4575 0.3279
C33 C -0.07638(12) 0.76769(10) 0.45730(10)
C34 C -0.16806(13) 0.90083(10) 0.51418(11)
C35 C -0.19670(13) 0.99026(10) 0.58529(11)
C36 C -0.10636(15) 1.05282(11) 0.64891(11)
H41 H -0.0226 1.0392 0.6451
C37 C -0.13822(16) 1.13494(12) 0.71780(12)
H42 H -0.0754 1.1778 0.7598
C38 C -0.26044(16) 1.15547(11) 0.72666(12)
C39 C -0.34952(15) 1.09244(12) 0.66191(12)
H43 H -0.4334 1.1056 0.6659
C40 C -0.31897(14) 1.01111(12) 0.59173(12)
H44 H -0.3814 0.9697 0.5481
C41 C -0.2923(2) 1.24149(16) 0.80949(16)
C42 C -0.3835(2) 1.31060(18) 0.76057(18)
H45 H -0.3437 1.3443 0.7062
H46 H -0.4043 1.3654 0.8133
H47 H -0.4586 1.2683 0.7312
C43 C -0.3512(2) 1.18461(18) 0.89365(16)
H48 H -0.2905 1.1402 0.9212
H49 H -0.4258 1.1401 0.8669
H50 H -0.3712 1.2377 0.9484
C44 C -0.1817(2) 1.31433(17) 0.85875(18)
H51 H -0.1231 1.2708 0.8905
H52 H -0.2078 1.3668 0.9113
H53 H -0.1424 1.3510 0.8060
H17? H 0.8271 0.5937 0.0602
C20? C 0.9001(9) 0.7085(7) 0.1429(8)
H21? H 0.9289 0.7442 0.0853
H22? H 0.9660 0.6698 0.1713
H23? H 0.8767 0.7615 0.1962
C45? C -0.3372(7) 1.2343(7) 0.7947(7)
C46? C -0.2884(11) 1.2095(10) 0.9017(8)
H54? H -0.3068 1.1324 0.8967
H55? H -0.3475 1.2446 0.9437
H56? H -0.2051 1.2284 0.9337
C47? C -0.2771(9) 1.3433(7) 0.7797(8)
H57? H -0.2790 1.3399 0.7047
H58? H -0.1971 1.3759 0.8100
H59? H -0.3421 1.3860 0.8046
C48? C -0.4748(7) 1.2365(8) 0.7911(8)
H60? H -0.5115 1.1686 0.8085
H61? H -0.5001 1.2448 0.7196
H62? H -0.5026 1.2947 0.8365
loop_
_geom_bond_atom_site_label_1
_geom_bond_atom_site_label_2
_geom_bond_site_symmetry_1
_geom_bond_site_symmetry_2
Br1 C2 1_555 1_555
O1 C33 1_555 1_555
N1 N2 1_555 1_555
N2 C34 1_555 1_555
C1 H1 1_555 1_555
C2 C1 1_555 1_555
C3 C2 1_555 1_555
H2 C3 1_555 1_555
C4 C3 1_555 1_555
H3 C4 1_555 1_555
C5 H4 1_555 1_555
C6 C5 1_555 1_555
H5 C6 1_555 1_555
C7 C6 1_555 1_555
C8 C7 1_555 1_555
H6 C8 1_555 1_555
C9 C10 1_555 1_555
C10 C1 1_555 1_555
C11 C4 1_555 1_555
C12 C5 1_555 1_555
C13 C8 1_555 1_555
C14 C9 1_555 1_555
H7 C14 1_555 1_555
H8 C14 1_555 1_555
C15 C14 1_555 1_555
H9 C15 1_555 1_555
H10 C15 1_555 1_555
C16 C15 1_555 1_555
H11 C16 1_555 1_555
H12 C16 1_555 1_555
C17 C16 1_555 1_555
H13 C17 1_555 1_555
H14 C17 1_555 1_555
C18 C17 1_555 1_555
H15 C18 1_555 1_555
H16 C18 1_555 1_555
C19 C18 1_555 1_555
H18 C19 1_555 1_555
H19 C19 1_555 1_555
H20 C19 1_555 1_555
C21 C9 1_555 1_555
H24 C21 1_555 1_555
H25 C21 1_555 1_555
C22 C21 1_555 1_555
H26 C22 1_555 1_555
H27 C22 1_555 1_555
C23 C22 1_555 1_555
H28 C23 1_555 1_555
H29 C23 1_555 1_555
C24 C23 1_555 1_555
H30 C24 1_555 1_555
H31 C24 1_555 1_555
C25 C24 1_555 1_555
H32 C25 1_555 1_555
H33 C25 1_555 1_555
C26 C25 1_555 1_555
H34 C26 1_555 1_555
H35 C26 1_555 1_555
H36 C26 1_555 1_555
C27 C7 1_555 1_555
C28 C27 1_555 1_555
H37 C28 1_555 1_555
C29 C28 1_555 1_555
H38 C29 1_555 1_555
C30 C29 1_555 1_555
C31 C30 1_555 1_555
H39 C31 1_555 1_555
C32 C27 1_555 1_555
H40 C32 1_555 1_555
C33 N1 1_555 1_555
C34 O1 1_555 1_555
C35 C34 1_555 1_555
C36 C35 1_555 1_555
H41 C36 1_555 1_555
C37 C36 1_555 1_555
H42 C37 1_555 1_555
C38 C37 1_555 1_555
C39 C38 1_555 1_555
H43 C39 1_555 1_555
C40 C35 1_555 1_555
H44 C40 1_555 1_555
C41 C38 1_555 1_555
C42 C41 1_555 1_555
H45 C42 1_555 1_555
H46 C42 1_555 1_555
H47 C42 1_555 1_555
C43 C41 1_555 1_555
H48 C43 1_555 1_555
H49 C43 1_555 1_555
H50 C43 1_555 1_555
C44 C41 1_555 1_555
H51 C44 1_555 1_555
H52 C44 1_555 1_555
H53 C44 1_555 1_555
C9 C13 1_555 1_555
C10 C11 1_555 1_555
C11 C12 1_555 1_555
C12 C13 1_555 1_555
C30 C33 1_555 1_555
C31 C32 1_555 1_555
C39 C40 1_555 1_555

#END
