
#######################################################################
#
#                 Cambridge Crystallographic Data Centre
#                                CCDC 
#
#######################################################################
#
# If this CIF has been generated from an entry in the Cambridge 
# Structural Database, then it will include bibliographic, chemical, 
# crystal, experimental, refinement or atomic coordinate data resulting 
# from the CCDC's data processing and validation procedures.
#
#######################################################################

data_JEQRIH
_chemical_formula_moiety         'C45 H31 N7 O2,3(C1 D1 Cl3)'
_chemical_name_systematic        
'2,5-bis(2-(4-(Diphenylamino)phenyl)-1,3,4-oxadiazol-5-yl)pyridine deuterochloroform solvate'
_symmetry_cell_setting           monoclinic
_symmetry_space_group_name_H-M   'I 2/a'
_symmetry_Int_Tables_number      15
_space_group_name_Hall           '-I 2ya'
loop_
_symmetry_equiv_pos_site_id
_symmetry_equiv_pos_as_xyz
1 x,y,z
2 1/2+x,1/2+y,1/2+z
3 1/2-x,y,-z
4 -x,1/2+y,1/2-z
5 -x,-y,-z
6 1/2-x,1/2-y,1/2-z
7 1/2+x,-y,z
8 x,1/2-y,1/2+z
_cell_length_a                   21.462(6)
_cell_length_b                   9.581(3)
_cell_length_c                   23.428(6)
_cell_angle_alpha                90
_cell_angle_beta                 96.48(2)
_cell_angle_gamma                90
_cell_volume                     4786.66
_exptl_crystal_colour            yellow
_exptl_crystal_description       prism
_chemical_melting_point          269.5-270.3deg.C
_cell_formula_units_Z            4
loop_
_atom_site_label
_atom_site_type_symbol
_atom_site_fract_x
_atom_site_fract_y
_atom_site_fract_z
Cl1 Cl 0.69876(4) 0.35401(10) 0.64017(4)
Cl2 Cl 0.78068(4) 0.51904(11) 0.57848(4)
Cl3 Cl 0.67678(6) 0.64912(12) 0.62809(5)
C24 C 0.70378(15) 0.4990(4) 0.59504(14)
D1 D 0.6760 0.4821 0.5586
O1 O 0.51344(8) 0.35916(19) 0.44422(7)
N1 N 0.59864(12) 0.3206(3) 0.50447(10)
N2 N 0.60103(11) 0.4573(3) 0.48355(10)
N3 N 0.48716(10) 0.9629(2) 0.31782(10)
C1 C 0.56036(13) 0.0372(3) 0.52279(11)
H1 H 0.6023 0.0621 0.5386
C2 C 0.52231(13) 0.1290(3) 0.48925(11)
C3 C 0.46261(14) 0.0900(3) 0.46645(12)
H2 H 0.4346(16) 0.149(3) 0.4484(14)
C4 C 0.54722(13) 0.2675(3) 0.48062(11)
C5 C 0.55084(12) 0.4755(3) 0.44804(11)
C6 C 0.53279(12) 0.5980(3) 0.41417(11)
C7 C 0.47883(12) 0.6022(3) 0.37432(11)
H3 H 0.4524 0.5227 0.3692
C8 C 0.46403(12) 0.7213(3) 0.34243(11)
H4 H 0.4277 0.7225 0.3154
C9 C 0.50213(12) 0.8405(3) 0.34975(11)
C10 C 0.55615(12) 0.8350(3) 0.38903(12)
H5 H 0.5827 0.9142 0.3942
C11 C 0.57143(12) 0.7162(3) 0.42032(11)
H6 H 0.6086 0.7138 0.4463
C12 C 0.53758(12) 1.0566(3) 0.30919(12)
C13 C 0.58856(13) 1.0079(3) 0.28365(13)
H7 H 0.5889 0.9155 0.2692
C14 C 0.63894(13) 1.0955(4) 0.27928(13)
H8 H 0.6746 1.0616 0.2632
C15 C 0.63810(14) 1.2328(4) 0.29871(13)
H9 H 0.6728 1.2924 0.2955
C16 C 0.58634(15) 1.2812(3) 0.32259(12)
H10 H 0.5851 1.3750 0.3353
C17 C 0.53624(13) 1.1934(3) 0.32766(12)
H11 H 0.5007 1.2272 0.3440
C18 C 0.42468(12) 1.0055(3) 0.29946(12)
C19 C 0.41201(13) 1.0850(3) 0.24994(12)
H12 H 0.4452 1.1105 0.2285
C20 C 0.35109(13) 1.1267(3) 0.23130(13)
H13 H 0.3429 1.1821 0.1977
C21 C 0.30214(13) 1.0883(3) 0.26209(14)
H14 H 0.2604 1.1151 0.2492
C22 C 0.31453(13) 1.0108(3) 0.31153(14)
H15 H 0.2811 0.9849 0.3326
C23 C 0.37519(13) 0.9699(3) 0.33094(13)
H16 H 0.3831 0.9177 0.3654
O1D O 0.48656(8) -0.35916(19) 0.55578(7)
N1D N 0.40136(12) -0.3206(3) 0.49553(10)
N2D N 0.39897(11) -0.4573(3) 0.51645(10)
N3D N 0.51284(10) -0.9629(2) 0.68218(10)
C1D C 0.43964(13) -0.0372(3) 0.47721(11)
H1D H 0.3977 -0.0621 0.4614
C2D C 0.47769(13) -0.1290(3) 0.51075(11)
C3D C 0.53739(14) -0.0900(3) 0.53355(12)
H2D H 0.5654(16) -0.149(3) 0.5516(14)
C4D C 0.45278(13) -0.2675(3) 0.51938(11)
C5D C 0.44916(12) -0.4755(3) 0.55196(11)
C6D C 0.46721(12) -0.5980(3) 0.58583(11)
C7D C 0.52117(12) -0.6022(3) 0.62568(11)
H3D H 0.5476 -0.5227 0.6308
C8D C 0.53597(12) -0.7213(3) 0.65757(11)
H4D H 0.5723 -0.7225 0.6846
C9D C 0.49787(12) -0.8405(3) 0.65025(11)
C10D C 0.44385(12) -0.8350(3) 0.61097(12)
H5D H 0.4173 -0.9142 0.6058
C11D C 0.42857(12) -0.7162(3) 0.57968(11)
H6D H 0.3914 -0.7138 0.5537
C12D C 0.46242(12) -1.0566(3) 0.69081(12)
C13D C 0.41144(13) -1.0079(3) 0.71635(13)
H7D H 0.4111 -0.9155 0.7308
C14D C 0.36106(13) -1.0955(4) 0.72072(13)
H8D H 0.3254 -1.0616 0.7368
C15D C 0.36190(14) -1.2328(4) 0.70129(13)
H9D H 0.3272 -1.2924 0.7045
C16D C 0.41366(15) -1.2812(3) 0.67741(12)
H10D H 0.4149 -1.3750 0.6647
C17D C 0.46376(13) -1.1934(3) 0.67234(12)
H11D H 0.4993 -1.2272 0.6560
C18D C 0.57532(12) -1.0055(3) 0.70054(12)
C19D C 0.58799(13) -1.0850(3) 0.75006(12)
H12D H 0.5548 -1.1105 0.7715
C20D C 0.64891(13) -1.1267(3) 0.76870(13)
H13D H 0.6571 -1.1821 0.8023
C21D C 0.69786(13) -1.0883(3) 0.73791(14)
H14D H 0.7396 -1.1151 0.7508
C22D C 0.68547(13) -1.0108(3) 0.68847(14)
H15D H 0.7189 -0.9849 0.6674
C23D C 0.62481(13) -0.9699(3) 0.66906(13)
H16D H 0.6169 -0.9177 0.6346
N4? N 0.56036(13) 0.0372(3) 0.52279(11)
Cl4? Cl 0.69408(11) 0.0783(3) 0.42999(8)
Cl5? Cl 0.71774(13) -0.1090(3) 0.52507(13)
Cl6? Cl 0.77975(12) 0.1546(3) 0.52482(18)
C25? C 0.7119(3) 0.0646(9) 0.5043(3)
D2? D 0.6772 0.1086 0.5229
loop_
_geom_bond_atom_site_label_1
_geom_bond_atom_site_label_2
_geom_bond_site_symmetry_1
_geom_bond_site_symmetry_2
O1 C4 1_555 1_555
N1 N2 1_555 1_555
N2 C5 1_555 1_555
N3 C9 1_555 1_555
C1 H1 1_555 1_555
C2 C1 1_555 1_555
C3 C2 1_555 1_555
H2 C3 1_555 1_555
C4 N1 1_555 1_555
C5 O1 1_555 1_555
C6 C5 1_555 1_555
C7 C6 1_555 1_555
H3 C7 1_555 1_555
C8 C7 1_555 1_555
H4 C8 1_555 1_555
C9 C8 1_555 1_555
C10 C9 1_555 1_555
H5 C10 1_555 1_555
C11 C6 1_555 1_555
H6 C11 1_555 1_555
C12 N3 1_555 1_555
C13 C12 1_555 1_555
H7 C13 1_555 1_555
C14 C13 1_555 1_555
H8 C14 1_555 1_555
C15 C14 1_555 1_555
H9 C15 1_555 1_555
C16 C15 1_555 1_555
H10 C16 1_555 1_555
C17 C12 1_555 1_555
H11 C17 1_555 1_555
C18 N3 1_555 1_555
C19 C18 1_555 1_555
H12 C19 1_555 1_555
C20 C19 1_555 1_555
H13 C20 1_555 1_555
C21 C20 1_555 1_555
H14 C21 1_555 1_555
C22 C21 1_555 1_555
H15 C22 1_555 1_555
C23 C18 1_555 1_555
H16 C23 1_555 1_555
Cl1 C24 1_555 1_555
Cl2 C24 1_555 1_555
Cl3 C24 1_555 1_555
C24 D1 1_555 1_555
O1D C4D 1_555 1_555
N1D N2D 1_555 1_555
N2D C5D 1_555 1_555
N3D C9D 1_555 1_555
C1D C3 1_555 1_555
H1D C1D 1_555 1_555
C2D C1D 1_555 1_555
C3D C1 1_555 1_555
H2D C3D 1_555 1_555
C4D N1D 1_555 1_555
C5D O1D 1_555 1_555
C6D C5D 1_555 1_555
C7D C6D 1_555 1_555
H3D C7D 1_555 1_555
C8D C7D 1_555 1_555
H4D C8D 1_555 1_555
C9D C8D 1_555 1_555
C10D C9D 1_555 1_555
H5D C10D 1_555 1_555
C11D C6D 1_555 1_555
H6D C11D 1_555 1_555
C12D N3D 1_555 1_555
C13D C12D 1_555 1_555
H7D C13D 1_555 1_555
C14D C13D 1_555 1_555
H8D C14D 1_555 1_555
C15D C14D 1_555 1_555
H9D C15D 1_555 1_555
C16D C15D 1_555 1_555
H10D C16D 1_555 1_555
C17D C12D 1_555 1_555
H11D C17D 1_555 1_555
C18D N3D 1_555 1_555
C19D C18D 1_555 1_555
H12D C19D 1_555 1_555
C20D C19D 1_555 1_555
H13D C20D 1_555 1_555
C21D C20D 1_555 1_555
H14D C21D 1_555 1_555
C22D C21D 1_555 1_555
H15D C22D 1_555 1_555
C23D C18D 1_555 1_555
H16D C23D 1_555 1_555
C2 C4 1_555 1_555
C10 C11 1_555 1_555
C16 C17 1_555 1_555
C22 C23 1_555 1_555
C2D C3D 1_555 1_555
C2D C4D 1_555 1_555
C10D C11D 1_555 1_555
C16D C17D 1_555 1_555
C22D C23D 1_555 1_555

#END
