
#######################################################################
#
#                 Cambridge Crystallographic Data Centre
#                                CCDC 
#
#######################################################################
#
# If this CIF has been generated from an entry in the Cambridge 
# Structural Database, then it will include bibliographic, chemical, 
# crystal, experimental, refinement or atomic coordinate data resulting 
# from the CCDC's data processing and validation procedures.
#
#######################################################################

data_JEQTIJ
_chemical_formula_moiety         'C31 H36 N2 O2'
_chemical_name_systematic        
N-Benzyl-1-(quinolin-2-ylmethyl)dodecahydronaphtho(1,2-c)furan-3-methyl-4-carboxamide
_symmetry_cell_setting           monoclinic
_symmetry_space_group_name_H-M   'P 21/c'
_symmetry_Int_Tables_number      14
_space_group_name_Hall           '-P 2ybc'
loop_
_symmetry_equiv_pos_site_id
_symmetry_equiv_pos_as_xyz
1 x,y,z
2 -x,1/2+y,1/2-z
3 -x,-y,-z
4 x,1/2-y,1/2+z
_cell_length_a                   17.751(3)
_cell_length_b                   15.733(3)
_cell_length_c                   9.410(2)
_cell_angle_alpha                90.00
_cell_angle_beta                 97.14(1)
_cell_angle_gamma                90.00
_cell_volume                     2607.61
_exptl_crystal_colour            colorless
_exptl_crystal_description       plate
_cell_formula_units_Z            4
loop_
_atom_site_label
_atom_site_type_symbol
_atom_site_fract_x
_atom_site_fract_y
_atom_site_fract_z
C1 C 0.3844(2) 0.4574(3) 0.0333(5)
C2 C 0.3677(2) 0.3761(3) 0.1105(4)
C3 C 0.2821(2) 0.3607(3) 0.1143(4)
C4 C 0.2372(2) 0.4402(3) 0.1466(5)
C5 C 0.2597(3) 0.5228(3) 0.0729(5)
C6 C 0.2208(3) 0.6002(3) 0.1297(7)
C7 C 0.2447(4) 0.6819(4) 0.0598(8)
C8 C 0.3311(3) 0.6934(4) 0.0812(8)
C9 C 0.3690(3) 0.6161(3) 0.0235(6)
C10 C 0.3459(3) 0.5336(3) 0.0928(5)
C11 C 0.4075(2) 0.3002(3) 0.0546(4)
N1 N 0.4340(2) 0.2413(2) 0.1484(4)
O1 O 0.4153(2) 0.2944(2) -0.0737(3)
C12 C 0.4731(3) 0.1655(3) 0.1089(5)
C13 C 0.4256(3) 0.0857(3) 0.1041(4)
C14 C 0.3505(3) 0.0857(3) 0.0466(5)
C15 C 0.3077(3) 0.0119(3) 0.0433(5)
C16 C 0.3403(3) -0.0628(3) 0.0932(6)
C17 C 0.4149(3) -0.0632(3) 0.1513(6)
C18 C 0.4588(3) 0.0103(3) 0.1555(5)
C19 C 0.2331(2) 0.3197(3) -0.0148(5)
O2 O 0.1582(2) 0.3340(2) 0.0219(4)
C20 C 0.1543(3) 0.4124(3) 0.1012(5)
C21 C 0.2397(3) 0.3517(4) -0.1654(5)
C22 C 0.1103(3) 0.3917(3) 0.2278(5)
N2 N 0.1134(2) 0.5015(2) 0.4093(4)
C23 C 0.0783(2) 0.4694(3) 0.2917(5)
C24 C 0.0119(3) 0.5049(4) 0.2174(5)
C25 C -0.0184(3) 0.5742(4) 0.2706(6)
C26 C 0.0154(3) 0.6121(3) 0.3970(5)
C27 C -0.0125(3) 0.6834(4) 0.4607(7)
C28 C 0.0247(4) 0.7158(4) 0.5827(7)
C29 C 0.0897(3) 0.6767(4) 0.6526(7)
C30 C 0.1197(3) 0.6055(4) 0.5938(7)
C31 C 0.0823(3) 0.5717(3) 0.4631(5)
H1 H 0.3645 0.4509 -0.0760
H2 H 0.4433 0.4676 0.0458
H3 H 0.3906 0.3843 0.2180
H4 H 0.2892 0.3157 0.1973
H5 H 0.2481 0.4583 0.2546
H6 H 0.2412 0.5179 -0.0372
H7 H 0.2359 0.6043 0.2410
H8 H 0.1617 0.5930 0.1071
H9 H 0.2195 0.7339 0.1055
H10 H 0.2259 0.6795 -0.0504
H11 H 0.3499 0.7003 0.1909
H12 H 0.3455 0.7480 0.0262
H13 H 0.4282 0.6232 0.0446
H14 H 0.3531 0.6124 -0.0876
H15 H 0.3641 0.5373 0.2032
H16 H 0.4269 0.2493 0.2491
H17 H 0.5214 0.1565 0.1840
H18 H 0.4899 0.1752 0.0070
H19 H 0.3265 0.1395 0.0067
H20 H 0.2527 0.0133 0.0042
H21 H 0.3100 -0.1165 0.0873
H22 H 0.4383 -0.1173 0.1915
H23 H 0.5137 0.0087 0.1952
H24 H 0.2509 0.2567 -0.0260
H25 H 0.1261 0.4627 0.0435
H26 H 0.2027 0.3171 -0.2396
H27 H 0.2252 0.4164 -0.1725
H28 H 0.2957 0.3437 -0.1880
H29 H 0.1473 0.3612 0.3076
H30 H 0.0653 0.3507 0.1917
H31 H -0.0123 0.4787 0.1261
H32 H -0.0659 0.5992 0.2191
H33 H -0.0604 0.7109 0.4158
H34 H 0.0053 0.7689 0.6239
H35 H 0.1146 0.7002 0.7454
H36 H 0.1669 0.5782 0.6423
loop_
_geom_bond_atom_site_label_1
_geom_bond_atom_site_label_2
_geom_bond_site_symmetry_1
_geom_bond_site_symmetry_2
C1 C2 1_555 1_555
C2 C3 1_555 1_555
C3 C4 1_555 1_555
C4 C5 1_555 1_555
C5 C6 1_555 1_555
C6 C7 1_555 1_555
C7 C8 1_555 1_555
C8 C9 1_555 1_555
C9 C10 1_555 1_555
C10 C1 1_555 1_555
C11 C2 1_555 1_555
N1 C11 1_555 1_555
O1 C11 1_555 1_555
C12 N1 1_555 1_555
C13 C12 1_555 1_555
C14 C13 1_555 1_555
C15 C14 1_555 1_555
C16 C15 1_555 1_555
C17 C16 1_555 1_555
C18 C13 1_555 1_555
C19 C3 1_555 1_555
O2 C19 1_555 1_555
C20 C4 1_555 1_555
C21 C19 1_555 1_555
C22 C20 1_555 1_555
N2 C23 1_555 1_555
C23 C22 1_555 1_555
C24 C23 1_555 1_555
C25 C24 1_555 1_555
C26 C25 1_555 1_555
C27 C26 1_555 1_555
C28 C27 1_555 1_555
C29 C28 1_555 1_555
C30 C29 1_555 1_555
C31 N2 1_555 1_555
H1 C1 1_555 1_555
H2 C1 1_555 1_555
H3 C2 1_555 1_555
H4 C3 1_555 1_555
H5 C4 1_555 1_555
H6 C5 1_555 1_555
H7 C6 1_555 1_555
H8 C6 1_555 1_555
H9 C7 1_555 1_555
H10 C7 1_555 1_555
H11 C8 1_555 1_555
H12 C8 1_555 1_555
H13 C9 1_555 1_555
H14 C9 1_555 1_555
H15 C10 1_555 1_555
H16 N1 1_555 1_555
H17 C12 1_555 1_555
H18 C12 1_555 1_555
H19 C14 1_555 1_555
H20 C15 1_555 1_555
H21 C16 1_555 1_555
H22 C17 1_555 1_555
H23 C18 1_555 1_555
H24 C19 1_555 1_555
H25 C20 1_555 1_555
H26 C21 1_555 1_555
H27 C21 1_555 1_555
H28 C21 1_555 1_555
H29 C22 1_555 1_555
H30 C22 1_555 1_555
H31 C24 1_555 1_555
H32 C25 1_555 1_555
H33 C27 1_555 1_555
H34 C28 1_555 1_555
H35 C29 1_555 1_555
H36 C30 1_555 1_555
C5 C10 1_555 1_555
C17 C18 1_555 1_555
O2 C20 1_555 1_555
C26 C31 1_555 1_555
C30 C31 1_555 1_555

#END
