
#######################################################################
#
#                 Cambridge Crystallographic Data Centre
#                                CCDC 
#
#######################################################################
#
# If this CIF has been generated from an entry in the Cambridge 
# Structural Database, then it will include bibliographic, chemical, 
# crystal, experimental, refinement or atomic coordinate data resulting 
# from the CCDC's data processing and validation procedures.
#
#######################################################################

data_JERHOE
_chemical_formula_moiety         'C20 H19 N1 O2'
_chemical_name_systematic        (2-Nitro-3-(phenylethynyl)cyclohexyl)benzene
_symmetry_cell_setting           triclinic
_symmetry_space_group_name_H-M   'P -1'
_symmetry_Int_Tables_number      2
_space_group_name_Hall           '-P 1'
loop_
_symmetry_equiv_pos_site_id
_symmetry_equiv_pos_as_xyz
1 x,y,z
2 -x,-y,-z
_cell_length_a                   10.054(2)
_cell_length_b                   11.932(2)
_cell_length_c                   14.177(3)
_cell_angle_alpha                99.36(2)
_cell_angle_beta                 100.40(1)
_cell_angle_gamma                90.29(1)
_cell_volume                     1649.48
_chemical_melting_point          130.9-132deg.C
_cell_formula_units_Z            4
loop_
_atom_site_label
_atom_site_type_symbol
_atom_site_fract_x
_atom_site_fract_y
_atom_site_fract_z
O1 O 0.46745(13) 1.06120(10) 0.83644(10)
O2 O 0.56297(14) 1.01408(12) 0.71382(10)
N1 N 0.48627(13) 0.99425(12) 0.76609(10)
C1 C 0.65987(16) 0.69009(13) 0.80259(11)
H1 H 0.6016 0.6355 0.7607
C2 C 0.79559(19) 0.66943(16) 0.82333(14)
H2 H 0.8280 0.6011 0.7961
C3 C 0.88282(18) 0.7492(2) 0.88394(15)
H3 H 0.9746 0.7352 0.8982
C4 C 0.83468(18) 0.84975(19) 0.92359(14)
H4 H 0.8941 0.9045 0.9643
C5 C 0.69809(17) 0.87030(15) 0.90341(12)
H5 H 0.6663 0.9387 0.9310
C6 C 0.60814(14) 0.79008(13) 0.84250(10)
C7 C 0.45703(14) 0.80740(12) 0.82164(10)
H6 H 0.4162 0.7318 0.7939
C8 C 0.39671(15) 0.84456(14) 0.91248(11)
H7 H 0.4200 0.7909 0.9569
H8 H 0.4358 0.9184 0.9448
C9 C 0.24377(15) 0.85158(14) 0.88882(12)
H9 H 0.2040 0.7762 0.8627
H10 H 0.2102 0.8789 0.9481
C10 C 0.20029(15) 0.93018(13) 0.81580(11)
H11 H 0.2303 1.0075 0.8449
H12 H 0.1023 0.9281 0.7990
C11 C 0.25902(14) 0.89579(13) 0.72382(10)
H13 H 0.2184 0.8207 0.6939
C12 C 0.41304(14) 0.88088(12) 0.74282(10)
H14 H 0.4367 0.8410 0.6823
C13 C 0.21985(16) 0.97026(14) 0.65162(11)
C14 C 0.18773(15) 1.02966(14) 0.59213(11)
C15 C 0.15012(15) 1.10045(13) 0.51892(11)
C16 C 0.05457(17) 1.18287(14) 0.52863(11)
H15 H 0.0114 1.1911 0.5820
C17 C 0.02306(18) 1.25269(14) 0.45982(12)
H16 H -0.0398 1.3087 0.4676
C18 C 0.08402(19) 1.23972(15) 0.38013(13)
H17 H 0.0630 1.2873 0.3341
C19 C 0.17608(19) 1.15671(16) 0.36803(13)
H18 H 0.2161 1.1472 0.3132
C20 C 0.20939(17) 1.08742(15) 0.43672(12)
H19 H 0.2721 1.0314 0.4281
O3 O 0.19977(15) 0.56205(10) 0.83504(11)
O4 O 0.04799(14) 0.50833(13) 0.70828(11)
N2 N 0.14964(14) 0.49257(13) 0.76472(11)
C21 C 0.00021(15) 0.18559(13) 0.80228(11)
H20 H 0.0431 0.1314 0.7645
C22 C -0.12767(17) 0.16084(15) 0.81745(13)
H21 H -0.1694 0.0902 0.7907
C23 C -0.19307(17) 0.23987(18) 0.87163(12)
H22 H -0.2792 0.2232 0.8821
C24 C -0.13129(18) 0.34357(18) 0.91037(12)
H23 H -0.1762 0.3979 0.9465
C25 C -0.00246(17) 0.36853(15) 0.89630(11)
H24 H 0.0387 0.4392 0.9235
C26 C 0.06597(14) 0.28899(12) 0.84193(10)
C27 C 0.20889(14) 0.31058(12) 0.82697(10)
H25 H 0.2402 0.2355 0.8028
C28 C 0.31001(15) 0.35444(14) 0.91999(11)
H26 H 0.2847 0.4290 0.9483
H27 H 0.3076 0.3038 0.9667
C29 C 0.45288(15) 0.36195(14) 0.89908(12)
H28 H 0.5145 0.3919 0.9589
H29 H 0.4807 0.2863 0.8758
C30 C 0.46222(15) 0.43739(14) 0.82395(11)
H30 H 0.5530 0.4359 0.8096
H31 H 0.4451 0.5151 0.8503
C31 C 0.36037(15) 0.39837(13) 0.73010(11)
H32 H 0.3886 0.3236 0.7024
C32 C 0.21496(14) 0.38076(12) 0.74576(10)
H33 H 0.1635 0.3378 0.6852
C33 C 0.36374(16) 0.47170(14) 0.65632(11)
C34 C 0.36452(16) 0.53030(14) 0.59606(11)
C35 C 0.36357(16) 0.60021(13) 0.52222(10)
C36 C 0.46521(17) 0.68169(14) 0.52999(11)
H34 H 0.5371 0.6897 0.5823
C37 C 0.46049(19) 0.75091(14) 0.46081(12)
H35 H 0.5282 0.8065 0.4674
C38 C 0.3569(2) 0.73832(16) 0.38257(13)
H36 H 0.3538 0.7857 0.3363
C39 C 0.25747(19) 0.65573(17) 0.37225(13)
H37 H 0.1882 0.6461 0.3181
C40 C 0.25986(17) 0.58690(15) 0.44192(12)
H38 H 0.1918 0.5315 0.4349
loop_
_geom_bond_atom_site_label_1
_geom_bond_atom_site_label_2
_geom_bond_site_symmetry_1
_geom_bond_site_symmetry_2
O1 N1 1_555 1_555
O2 N1 1_555 1_555
N1 C12 1_555 1_555
C1 H1 1_555 1_555
C2 C1 1_555 1_555
H2 C2 1_555 1_555
C3 C2 1_555 1_555
H3 C3 1_555 1_555
C4 C3 1_555 1_555
H4 C4 1_555 1_555
C5 C4 1_555 1_555
H5 C5 1_555 1_555
C6 C1 1_555 1_555
C7 C6 1_555 1_555
H6 C7 1_555 1_555
C8 C7 1_555 1_555
H7 C8 1_555 1_555
H8 C8 1_555 1_555
C9 C8 1_555 1_555
H9 C9 1_555 1_555
H10 C9 1_555 1_555
C10 C9 1_555 1_555
H11 C10 1_555 1_555
H12 C10 1_555 1_555
C11 C10 1_555 1_555
H13 C11 1_555 1_555
C12 C7 1_555 1_555
H14 C12 1_555 1_555
C13 C11 1_555 1_555
C14 C13 1_555 1_555
C15 C14 1_555 1_555
C16 C15 1_555 1_555
H15 C16 1_555 1_555
C17 C16 1_555 1_555
H16 C17 1_555 1_555
C18 C17 1_555 1_555
H17 C18 1_555 1_555
C19 C18 1_555 1_555
H18 C19 1_555 1_555
C20 C15 1_555 1_555
H19 C20 1_555 1_555
O3 N2 1_555 1_555
O4 N2 1_555 1_555
N2 C32 1_555 1_555
C21 H20 1_555 1_555
C22 C21 1_555 1_555
H21 C22 1_555 1_555
C23 C22 1_555 1_555
H22 C23 1_555 1_555
C24 C23 1_555 1_555
H23 C24 1_555 1_555
C25 C24 1_555 1_555
H24 C25 1_555 1_555
C26 C21 1_555 1_555
C27 C26 1_555 1_555
H25 C27 1_555 1_555
C28 C27 1_555 1_555
H26 C28 1_555 1_555
H27 C28 1_555 1_555
C29 C28 1_555 1_555
H28 C29 1_555 1_555
H29 C29 1_555 1_555
C30 C29 1_555 1_555
H30 C30 1_555 1_555
H31 C30 1_555 1_555
C31 C30 1_555 1_555
H32 C31 1_555 1_555
C32 C27 1_555 1_555
H33 C32 1_555 1_555
C33 C31 1_555 1_555
C34 C33 1_555 1_555
C35 C34 1_555 1_555
C36 C35 1_555 1_555
H34 C36 1_555 1_555
C37 C36 1_555 1_555
H35 C37 1_555 1_555
C38 C37 1_555 1_555
H36 C38 1_555 1_555
C39 C38 1_555 1_555
H37 C39 1_555 1_555
C40 C35 1_555 1_555
H38 C40 1_555 1_555
C5 C6 1_555 1_555
C11 C12 1_555 1_555
C19 C20 1_555 1_555
C25 C26 1_555 1_555
C31 C32 1_555 1_555
C39 C40 1_555 1_555

#END
