
#######################################################################
#
#                 Cambridge Crystallographic Data Centre
#                                CCDC 
#
#######################################################################
#
# If this CIF has been generated from an entry in the Cambridge 
# Structural Database, then it will include bibliographic, chemical, 
# crystal, experimental, refinement or atomic coordinate data resulting 
# from the CCDC's data processing and validation procedures.
#
#######################################################################

data_JERHIY
_chemical_formula_moiety         'C15 H19 N1 O4'
_chemical_name_systematic        'Methyl 2-(2-nitro-3-phenylcyclohexyl)acetate'
_symmetry_cell_setting           monoclinic
_symmetry_space_group_name_H-M   'P 21/c'
_symmetry_Int_Tables_number      14
_space_group_name_Hall           '-P 2ybc'
loop_
_symmetry_equiv_pos_site_id
_symmetry_equiv_pos_as_xyz
1 x,y,z
2 -x,1/2+y,1/2-z
3 -x,-y,-z
4 x,1/2-y,1/2+z
_cell_length_a                   9.955(2)
_cell_length_b                   10.050(2)
_cell_length_c                   15.080(2)
_cell_angle_alpha                90
_cell_angle_beta                 107.27(1)
_cell_angle_gamma                90
_cell_volume                     1440.7
_chemical_melting_point          106.8-108.7deg.C
_cell_formula_units_Z            4
loop_
_atom_site_label
_atom_site_type_symbol
_atom_site_fract_x
_atom_site_fract_y
_atom_site_fract_z
O1 O 0.80685(14) 0.35709(14) 0.02229(10)
O2 O 0.94370(13) 0.29120(14) 0.15116(9)
O3 O 0.85879(12) -0.18308(12) 0.01840(8)
O4 O 0.62550(13) -0.17154(12) -0.02029(10)
N1 N 0.82933(14) 0.29530(13) 0.09404(10)
C1 C 0.75743(18) 0.49865(18) 0.26595(12)
H1 H 0.8365 0.4631 0.3090
C2 C 0.7350(2) 0.63433(19) 0.26388(13)
H2 H 0.7991 0.6890 0.3055
C3 C 0.6199(2) 0.68910(19) 0.20152(14)
H3 H 0.6054 0.7806 0.2004
C4 C 0.5261(2) 0.60811(19) 0.14072(13)
H4 H 0.4472 0.6446 0.0982
C5 C 0.54792(18) 0.47254(18) 0.14212(12)
H5 H 0.4833 0.4188 0.1001
C6 C 0.66392(15) 0.41466(15) 0.20483(10)
C7 C 0.68437(16) 0.26514(15) 0.20284(10)
H6 H 0.5936 0.2267 0.2021
C8 C 0.7905(2) 0.20557(17) 0.28801(11)
H7 H 0.8827 0.2432 0.2946
H8 H 0.7641 0.2284 0.3430
C9 C 0.7977(2) 0.05512(17) 0.28034(12)
H9 H 0.8687 0.0205 0.3343
H10 H 0.7079 0.0169 0.2794
C10 C 0.83322(18) 0.01426(17) 0.19313(11)
H11 H 0.8335 -0.0821 0.1891
H12 H 0.9269 0.0456 0.1968
C11 C 0.72826(16) 0.07048(15) 0.10597(10)
H13 H 0.6374 0.0303 0.1032
C12 C 0.70746(15) 0.22098(15) 0.11114(10)
H14 H 0.6227 0.2447 0.0611
C13 C 0.75832(19) 0.02908(16) 0.01630(11)
H15 H 0.6956 0.0763 -0.0358
H16 H 0.8543 0.0524 0.0197
C14 C 0.73764(19) -0.11813(18) 0.00166(11)
C15 C 0.8483(2) -0.32679(18) 0.01350(14)
H17 H 0.8046 -0.3582 0.0583
H18 H 0.9407 -0.3645 0.0265
H19 H 0.7927 -0.3529 -0.0476
loop_
_geom_bond_atom_site_label_1
_geom_bond_atom_site_label_2
_geom_bond_site_symmetry_1
_geom_bond_site_symmetry_2
O1 N1 1_555 1_555
O2 N1 1_555 1_555
O3 C14 1_555 1_555
O4 C14 1_555 1_555
N1 C12 1_555 1_555
C1 H1 1_555 1_555
C2 C1 1_555 1_555
H2 C2 1_555 1_555
C3 C2 1_555 1_555
H3 C3 1_555 1_555
C4 C3 1_555 1_555
H4 C4 1_555 1_555
C5 C4 1_555 1_555
H5 C5 1_555 1_555
C6 C1 1_555 1_555
C7 C6 1_555 1_555
H6 C7 1_555 1_555
C8 C7 1_555 1_555
H7 C8 1_555 1_555
H8 C8 1_555 1_555
C9 C8 1_555 1_555
H9 C9 1_555 1_555
H10 C9 1_555 1_555
C10 C9 1_555 1_555
H11 C10 1_555 1_555
H12 C10 1_555 1_555
C11 C10 1_555 1_555
H13 C11 1_555 1_555
C12 C7 1_555 1_555
H14 C12 1_555 1_555
C13 C11 1_555 1_555
H15 C13 1_555 1_555
H16 C13 1_555 1_555
C14 C13 1_555 1_555
C15 O3 1_555 1_555
H17 C15 1_555 1_555
H18 C15 1_555 1_555
H19 C15 1_555 1_555
C5 C6 1_555 1_555
C11 C12 1_555 1_555

#END
