
#######################################################################
#
#                 Cambridge Crystallographic Data Centre
#                                CCDC 
#
#######################################################################
#
# If this CIF has been generated from an entry in the Cambridge 
# Structural Database, then it will include bibliographic, chemical, 
# crystal, experimental, refinement or atomic coordinate data resulting 
# from the CCDC's data processing and validation procedures.
#
#######################################################################

data_JERHUK
_chemical_formula_moiety         'C12 H13 N1 O3'
_chemical_name_systematic        1-Nitro-2-phenyl-7-oxabicyclo[4.1.0]heptane
_symmetry_cell_setting           monoclinic
_symmetry_space_group_name_H-M   'P 21/c'
_symmetry_Int_Tables_number      14
_space_group_name_Hall           '-P 2ybc'
loop_
_symmetry_equiv_pos_site_id
_symmetry_equiv_pos_as_xyz
1 x,y,z
2 -x,1/2+y,1/2-z
3 -x,-y,-z
4 x,1/2-y,1/2+z
_cell_length_a                   5.754(1)
_cell_length_b                   26.725(4)
_cell_length_c                   7.623(1)
_cell_angle_alpha                90
_cell_angle_beta                 108.061(8)
_cell_angle_gamma                90
_cell_volume                     1114.47
_chemical_melting_point          93.7-95.1deg.C
_cell_formula_units_Z            4
loop_
_atom_site_label
_atom_site_type_symbol
_atom_site_fract_x
_atom_site_fract_y
_atom_site_fract_z
O1 O 0.9250(2) 0.40135(5) 0.66026(18)
O2 O 0.4688(4) 0.46332(6) 0.3169(2)
O3 O 0.8553(3) 0.45600(6) 0.3638(2)
N1 N 0.6701(4) 0.44905(5) 0.4049(2)
C1 C 0.6913(3) 0.42046(5) 0.5791(2)
C2 C 0.8465(3) 0.44407(6) 0.7481(2)
H1 H 0.9168 0.4767 0.7342
C3 C 0.8029(4) 0.43424(8) 0.9281(2)
H2 H 0.7984 0.4659 0.9891
H3 H 0.9388 0.4150 1.0061
C4 C 0.5679(4) 0.40618(8) 0.9084(2)
H4 H 0.4336 0.4299 0.8786
H5 H 0.5777 0.3910 1.0260
C5 C 0.5126(3) 0.36571(7) 0.7612(2)
H6 H 0.3664 0.3478 0.7619
H7 H 0.6469 0.3420 0.7892
C6 C 0.4750(3) 0.38805(5) 0.56917(19)
H8 H 0.3304 0.4097 0.5401
C7 C 0.4311(3) 0.34909(5) 0.4184(2)
C8 C 0.2017(3) 0.34349(6) 0.2934(2)
H9 H 0.0747 0.3639 0.3016
C9 C 0.1577(4) 0.30760(8) 0.1551(3)
H10 H 0.0013 0.3040 0.0725
C10 C 0.3414(5) 0.27762(7) 0.1393(3)
H11 H 0.3115 0.2540 0.0455
C11 C 0.5696(4) 0.28261(7) 0.2623(3)
H12 H 0.6953 0.2621 0.2523
C12 C 0.6168(3) 0.31787(6) 0.4021(3)
H13 H 0.7733 0.3207 0.4854
loop_
_geom_bond_atom_site_label_1
_geom_bond_atom_site_label_2
_geom_bond_site_symmetry_1
_geom_bond_site_symmetry_2
O1 C1 1_555 1_555
O2 N1 1_555 1_555
O3 N1 1_555 1_555
N1 C1 1_555 1_555
C1 C2 1_555 1_555
C2 O1 1_555 1_555
H1 C2 1_555 1_555
C3 C2 1_555 1_555
H2 C3 1_555 1_555
H3 C3 1_555 1_555
C4 C3 1_555 1_555
H4 C4 1_555 1_555
H5 C4 1_555 1_555
C5 C4 1_555 1_555
H6 C5 1_555 1_555
H7 C5 1_555 1_555
C6 C1 1_555 1_555
H8 C6 1_555 1_555
C7 C6 1_555 1_555
C8 C7 1_555 1_555
H9 C8 1_555 1_555
C9 C8 1_555 1_555
H10 C9 1_555 1_555
C10 C9 1_555 1_555
H11 C10 1_555 1_555
C11 C10 1_555 1_555
H12 C11 1_555 1_555
C12 C7 1_555 1_555
H13 C12 1_555 1_555
C5 C6 1_555 1_555
C11 C12 1_555 1_555

#END
