
#######################################################################
#
#                 Cambridge Crystallographic Data Centre
#                                CCDC 
#
#######################################################################
#
# If this CIF has been generated from an entry in the Cambridge 
# Structural Database, then it will include bibliographic, chemical, 
# crystal, experimental, refinement or atomic coordinate data resulting 
# from the CCDC's data processing and validation procedures.
#
#######################################################################

data_JERJAS
_chemical_formula_moiety         'C17 H19 N1 O6'
_chemical_name_systematic        
'Methyl 3-(3-nitro-4-(3,4-methylenedioxyphenyl)cyclohexen-3-yl)propanoate'
_symmetry_cell_setting           monoclinic
_symmetry_space_group_name_H-M   'P 21'
_symmetry_Int_Tables_number      4
_space_group_name_Hall           'P 2yb'
loop_
_symmetry_equiv_pos_site_id
_symmetry_equiv_pos_as_xyz
1 x,y,z
2 -x,1/2+y,-z
_cell_length_a                   9.102(2)
_cell_length_b                   7.185(1)
_cell_length_c                   12.243(2)
_cell_angle_alpha                90
_cell_angle_beta                 96.06(2)
_cell_angle_gamma                90
_cell_volume                     796.192
_chemical_melting_point          113.4-114.5deg.C
_cell_formula_units_Z            2
loop_
_atom_site_label
_atom_site_type_symbol
_atom_site_fract_x
_atom_site_fract_y
_atom_site_fract_z
O1 O 0.1308(2) 0.9045(3) 0.06674(13)
O2 O 0.1313(2) 0.8162(3) -0.11457(13)
O3 O 0.66838(19) 0.6601(3) 0.21548(14)
O4 O 0.5556(2) 0.7874(3) 0.34094(16)
O5 O 0.88847(17) 0.3473(3) 0.62686(12)
O6 O 0.9412(2) 0.2334(4) 0.46634(15)
N1 N 0.5856(2) 0.6526(3) 0.28762(15)
C1 C 0.5227(2) 0.4598(3) 0.31250(17)
C2 C 0.4085(3) 0.4819(4) 0.39092(19)
H1 H 0.4288 0.5603 0.4511
C3 C 0.2806(3) 0.3952(5) 0.3784(2)
H2 H 0.2163 0.4138 0.4316
C4 C 0.2321(3) 0.2706(5) 0.2859(3)
H3 H 0.1609 0.3350 0.2348
H4 H 0.1838 0.1624 0.3133
C5 C 0.3621(3) 0.2081(4) 0.2264(3)
H5 H 0.3254 0.1483 0.1579
H6 H 0.4198 0.1173 0.2712
C6 C 0.4615(3) 0.3719(3) 0.20231(17)
H7 H 0.5457 0.3208 0.1685
C7 C 0.3776(2) 0.5006(3) 0.11794(16)
C8 C 0.2959(2) 0.6561(3) 0.14476(17)
H8 H 0.2927 0.6924 0.2174
C9 C 0.2209(2) 0.7525(3) 0.05989(17)
C10 C 0.2205(2) 0.6988(4) -0.04781(17)
C11 C 0.2967(3) 0.5474(4) -0.07625(18)
H9 H 0.2953 0.5104 -0.1491
C12 C 0.3773(3) 0.4496(4) 0.00812(18)
H10 H 0.4326 0.3470 -0.0094
C13 C 0.0911(4) 0.9592(5) -0.0444(2)
H11 H -0.0145 0.9813 -0.0567
H12 H 0.1417 1.0736 -0.0597
C14 C 0.6591(2) 0.3502(4) 0.36309(17)
H13 H 0.6317 0.2205 0.3696
H14 H 0.7351 0.3564 0.3133
C15 C 0.7233(2) 0.4202(4) 0.47527(18)
H15 H 0.7435 0.5523 0.4703
H16 H 0.6503 0.4042 0.5268
C16 C 0.8625(2) 0.3219(4) 0.51872(18)
C17 C 1.0267(3) 0.2779(6) 0.6799(2)
H17 H 1.0314 0.1456 0.6699
H18 H 1.0336 0.3059 0.7569
H19 H 1.1071 0.3361 0.6481
loop_
_geom_bond_atom_site_label_1
_geom_bond_atom_site_label_2
_geom_bond_site_symmetry_1
_geom_bond_site_symmetry_2
O1 C9 1_555 1_555
O2 C10 1_555 1_555
O3 N1 1_555 1_555
O4 N1 1_555 1_555
O5 C16 1_555 1_555
O6 C16 1_555 1_555
N1 C1 1_555 1_555
C1 C2 1_555 1_555
C2 H1 1_555 1_555
C3 C2 1_555 1_555
H2 C3 1_555 1_555
C4 C3 1_555 1_555
H3 C4 1_555 1_555
H4 C4 1_555 1_555
C5 C4 1_555 1_555
H5 C5 1_555 1_555
H6 C5 1_555 1_555
C6 C1 1_555 1_555
H7 C6 1_555 1_555
C7 C6 1_555 1_555
C8 C7 1_555 1_555
H8 C8 1_555 1_555
C9 C8 1_555 1_555
C10 C9 1_555 1_555
C11 C10 1_555 1_555
H9 C11 1_555 1_555
C12 C7 1_555 1_555
H10 C12 1_555 1_555
C13 O1 1_555 1_555
H11 C13 1_555 1_555
H12 C13 1_555 1_555
C14 C1 1_555 1_555
H13 C14 1_555 1_555
H14 C14 1_555 1_555
C15 C14 1_555 1_555
H15 C15 1_555 1_555
H16 C15 1_555 1_555
C16 C15 1_555 1_555
C17 O5 1_555 1_555
H17 C17 1_555 1_555
H18 C17 1_555 1_555
H19 C17 1_555 1_555
O2 C13 1_555 1_555
C5 C6 1_555 1_555
C11 C12 1_555 1_555

#END
