
#######################################################################
#
#                 Cambridge Crystallographic Data Centre
#                                CCDC 
#
#######################################################################
#
# If this CIF has been generated from an entry in the Cambridge 
# Structural Database, then it will include bibliographic, chemical, 
# crystal, experimental, refinement or atomic coordinate data resulting 
# from the CCDC's data processing and validation procedures.
#
#######################################################################

data_JERNEC
_chemical_formula_moiety         'C25 H29 N1 O4'
_chemical_name_systematic        
'ethyl 2-methyl-7-phenyl-5-{[(1-phenylethyl)carbamoyl]oxy}hepta-2,3-dienoate'
_symmetry_cell_setting           monoclinic
_symmetry_space_group_name_H-M   'P 21'
_symmetry_Int_Tables_number      4
_space_group_name_Hall           'P 2yb'
loop_
_symmetry_equiv_pos_site_id
_symmetry_equiv_pos_as_xyz
1 x,y,z
2 -x,1/2+y,-z
_cell_length_a                   12.6378(14)
_cell_length_b                   5.4271(7)
_cell_length_c                   18.219(2)
_cell_angle_alpha                90
_cell_angle_beta                 98.010(7)
_cell_angle_gamma                90
_cell_volume                     1237.39
_exptl_crystal_description       block
_cell_formula_units_Z            2
loop_
_atom_site_label
_atom_site_type_symbol
_atom_site_fract_x
_atom_site_fract_y
_atom_site_fract_z
O1 O -0.02458(15) 1.0153(3) 0.75264(11)
O2 O -0.15007(16) 1.3105(4) 0.76096(12)
O3 O 0.46749(19) 1.3008(6) 0.88485(13)
O4 O 0.31787(17) 1.1031(5) 0.90116(12)
N1 N -0.1799(2) 0.9071(6) 0.78374(16)
C1 C 0.1250(2) 0.8315(6) 0.55761(17)
C2 C 0.1888(3) 0.6253(8) 0.5648(2)
H1 H 0.1922 0.5303 0.6075
C3 C 0.2491(4) 0.5590(8) 0.5094(3)
H2 H 0.2919 0.4192 0.5153
C4 C 0.2448(4) 0.7001(11) 0.4474(3)
H3 H 0.2840 0.6551 0.4100
C5 C 0.1840(3) 0.9041(10) 0.4407(2)
H4 H 0.1808 0.9999 0.3981
C6 C 0.1252(3) 0.9678(7) 0.49492(19)
H5 H 0.0840 1.1102 0.4887
C7 C 0.0569(3) 0.9055(8) 0.61572(18)
H6 H -0.0021 1.0050 0.5923
H7 H 0.0270 0.7583 0.6349
C8 C 0.1169(2) 1.0494(6) 0.68032(17)
H8 H 0.1583 0.9350 0.7137
H9 H 0.1667 1.1607 0.6614
C9 C 0.0436(2) 1.1960(6) 0.72259(16)
H10 H -0.0013 1.3017 0.6874
C10 C 0.0991(2) 1.3552(6) 0.78279(17)
H11 H 0.0565 1.4422 0.8115
C11 C 0.2018(3) 1.3805(6) 0.79747(16)
C12 C 0.3060(2) 1.4171(6) 0.81108(17)
C13 C 0.3624(3) 1.6140(8) 0.7724(2)
H12 H 0.3132 1.6944 0.7351
H13 H 0.4180 1.5367 0.7497
H14 H 0.3932 1.7335 0.8080
C14 C 0.3731(3) 1.2708(7) 0.86839(18)
C15 C 0.3781(3) 0.9568(9) 0.9593(2)
H15 H 0.4103 1.0627 0.9992
H16 H 0.4345 0.8670 0.9399
C16 C 0.3038(4) 0.7827(8) 0.9878(3)
H17 H 0.2466 0.8733 1.0047
H18 H 0.3406 0.6885 1.0281
H19 H 0.2752 0.6734 0.9485
C17 C -0.1220(2) 1.0972(7) 0.76532(15)
C18 C -0.2909(2) 0.9355(6) 0.79815(16)
H20 H -0.2971 1.0983 0.8204
C19 C -0.3142(3) 0.7438(7) 0.8544(2)
H21 H -0.3128 0.5825 0.8329
H22 H -0.3833 0.7732 0.8689
H23 H -0.2605 0.7542 0.8971
C20 C -0.3700(2) 0.9233(6) 0.72841(17)
C21 C -0.4485(3) 1.1004(7) 0.7142(2)
H24 H -0.4525 1.2274 0.7479
C22 C -0.5225(4) 1.0889(10) 0.6524(3)
H25 H -0.5744 1.2112 0.6441
C23 C -0.5201(4) 0.9020(11) 0.6022(3)
H26 H -0.5703 0.8982 0.5598
C24 C -0.4436(4) 0.7232(9) 0.6157(2)
H27 H -0.4430 0.5939 0.5823
C25 C -0.3687(3) 0.7347(7) 0.6785(2)
H28 H -0.3163 0.6135 0.6867
H29 H -0.158(3) 0.778(6) 0.7825(17)
loop_
_geom_bond_atom_site_label_1
_geom_bond_atom_site_label_2
_geom_bond_site_symmetry_1
_geom_bond_site_symmetry_2
O1 C9 1_555 1_555
O2 C17 1_555 1_555
O3 C14 1_555 1_555
O4 C14 1_555 1_555
N1 C17 1_555 1_555
C1 C2 1_555 1_555
C2 H1 1_555 1_555
C3 C2 1_555 1_555
H2 C3 1_555 1_555
C4 C3 1_555 1_555
H3 C4 1_555 1_555
C5 C4 1_555 1_555
H4 C5 1_555 1_555
C6 C1 1_555 1_555
H5 C6 1_555 1_555
C7 C1 1_555 1_555
H6 C7 1_555 1_555
H7 C7 1_555 1_555
C8 C7 1_555 1_555
H8 C8 1_555 1_555
H9 C8 1_555 1_555
C9 C8 1_555 1_555
H10 C9 1_555 1_555
C10 C9 1_555 1_555
H11 C10 1_555 1_555
C11 C10 1_555 1_555
C12 C11 1_555 1_555
C13 C12 1_555 1_555
H12 C13 1_555 1_555
H13 C13 1_555 1_555
H14 C13 1_555 1_555
C14 C12 1_555 1_555
C15 O4 1_555 1_555
H15 C15 1_555 1_555
H16 C15 1_555 1_555
C16 C15 1_555 1_555
H17 C16 1_555 1_555
H18 C16 1_555 1_555
H19 C16 1_555 1_555
C17 O1 1_555 1_555
C18 N1 1_555 1_555
H20 C18 1_555 1_555
C19 C18 1_555 1_555
H21 C19 1_555 1_555
H22 C19 1_555 1_555
H23 C19 1_555 1_555
C20 C18 1_555 1_555
C21 C20 1_555 1_555
H24 C21 1_555 1_555
C22 C21 1_555 1_555
H25 C22 1_555 1_555
C23 C22 1_555 1_555
H26 C23 1_555 1_555
C24 C23 1_555 1_555
H27 C24 1_555 1_555
C25 C20 1_555 1_555
H28 C25 1_555 1_555
H29 N1 1_555 1_555
C5 C6 1_555 1_555
C24 C25 1_555 1_555

#END
