
#######################################################################
#
#                 Cambridge Crystallographic Data Centre
#                                CCDC 
#
#######################################################################
#
# If this CIF has been generated from an entry in the Cambridge 
# Structural Database, then it will include bibliographic, chemical, 
# crystal, experimental, refinement or atomic coordinate data resulting 
# from the CCDC's data processing and validation procedures.
#
#######################################################################

data_JERNAY
_chemical_formula_moiety         'C18 H22 O3'
_chemical_name_systematic        
't-butyl 2-ethynyl-3-hydroxy-2-methyl-5-phenylpent-4-enoate'
_symmetry_cell_setting           orthorhombic
_symmetry_space_group_name_H-M   'P 21 21 21'
_symmetry_Int_Tables_number      19
_space_group_name_Hall           'P 2ac 2ab'
loop_
_symmetry_equiv_pos_site_id
_symmetry_equiv_pos_as_xyz
1 x,y,z
2 1/2-x,-y,1/2+z
3 -x,1/2+y,1/2-z
4 1/2+x,1/2-y,-z
_cell_length_a                   5.92800(10)
_cell_length_b                   10.2709(2)
_cell_length_c                   26.3281(6)
_cell_angle_alpha                90
_cell_angle_beta                 90
_cell_angle_gamma                90
_cell_volume                     1603.01
_exptl_crystal_description       block
_cell_formula_units_Z            4
loop_
_atom_site_label
_atom_site_type_symbol
_atom_site_fract_x
_atom_site_fract_y
_atom_site_fract_z
O1 O 0.2033(2) 0.29542(12) 0.17190(4)
O2 O 0.4058(2) 0.11573(13) 0.15281(5)
O3 O -0.1302(2) 0.02463(13) 0.13537(5)
H1 H -0.0574 0.0084 0.1611
C1 C 0.2590(3) 0.19414(17) 0.14369(6)
C2 C -0.0803(3) -0.12524(16) -0.03637(6)
C3 C 0.0466(3) -0.21742(18) -0.06304(7)
H2 H 0.1836 -0.2455 -0.0498
C4 C 0.1165(3) 0.18491(16) 0.09474(6)
C5 C 0.0056(3) -0.07911(17) 0.01288(6)
H3 H 0.1411 -0.1155 0.0236
C6 C -0.0867(3) 0.00828(17) 0.04396(6)
H4 H -0.2208 0.0485 0.0345
C7 C 0.2770(3) 0.20588(19) 0.04940(7)
H5 H 0.1936 0.1992 0.0183
H6 H 0.3932 0.1408 0.0500
H7 H 0.3442 0.2907 0.0517
C8 C -0.0678(3) 0.28052(17) 0.09316(6)
C9 C 0.0196(3) 0.04372(17) 0.09385(6)
H8 H 0.1472 -0.0156 0.0989
C10 C 0.3050(3) 0.31761(18) 0.22299(6)
C11 C -0.2173(3) 0.35675(18) 0.09016(7)
H9 H -0.3346 0.4166 0.0878
C12 C -0.2840(3) -0.08363(18) -0.05764(7)
H10 H -0.3710 -0.0221 -0.0407
C13 C -0.2312(4) -0.22563(19) -0.12935(7)
H11 H -0.2822 -0.2592 -0.1601
C14 C -0.3578(4) -0.1330(2) -0.10369(7)
H12 H -0.4931 -0.1038 -0.1175
C15 C 0.5592(4) 0.3321(2) 0.21944(8)
H13 H 0.6252 0.2497 0.2107
H14 H 0.6175 0.3606 0.2516
H15 H 0.5958 0.3951 0.1938
C16 C 0.1961(4) 0.4447(2) 0.23856(8)
H16 H 0.2412 0.5123 0.2155
H17 H 0.2430 0.4670 0.2724
H18 H 0.0350 0.4355 0.2377
C17 C 0.2339(4) 0.2067(2) 0.25726(7)
H19 H 0.0732 0.1960 0.2555
H20 H 0.2769 0.2259 0.2916
H21 H 0.3065 0.1279 0.2465
C18 C -0.0287(4) -0.26778(18) -0.10903(7)
H22 H 0.0570 -0.3297 -0.1261
loop_
_geom_bond_atom_site_label_1
_geom_bond_atom_site_label_2
_geom_bond_site_symmetry_1
_geom_bond_site_symmetry_2
O1 C1 1_555 1_555
O2 C1 1_555 1_555
O3 H1 1_555 1_555
C1 C4 1_555 1_555
C2 C3 1_555 1_555
C3 H2 1_555 1_555
C4 C7 1_555 1_555
C5 C2 1_555 1_555
H3 C5 1_555 1_555
C6 C5 1_555 1_555
H4 C6 1_555 1_555
C7 H5 1_555 1_555
H6 C7 1_555 1_555
H7 C7 1_555 1_555
C8 C4 1_555 1_555
C9 O3 1_555 1_555
H8 C9 1_555 1_555
C10 O1 1_555 1_555
C11 C8 1_555 1_555
H9 C11 1_555 1_555
C12 C2 1_555 1_555
H10 C12 1_555 1_555
C13 H11 1_555 1_555
C14 C12 1_555 1_555
H12 C14 1_555 1_555
C15 C10 1_555 1_555
H13 C15 1_555 1_555
H14 C15 1_555 1_555
H15 C15 1_555 1_555
C16 C10 1_555 1_555
H16 C16 1_555 1_555
H17 C16 1_555 1_555
H18 C16 1_555 1_555
C17 C10 1_555 1_555
H19 C17 1_555 1_555
H20 C17 1_555 1_555
H21 C17 1_555 1_555
C18 C3 1_555 1_555
H22 C18 1_555 1_555
C4 C9 1_555 1_555
C6 C9 1_555 1_555
C13 C14 1_555 1_555
C13 C18 1_555 1_555

#END
