
#######################################################################
#
#                 Cambridge Crystallographic Data Centre
#                                CCDC 
#
#######################################################################
#
# If this CIF has been generated from an entry in the Cambridge 
# Structural Database, then it will include bibliographic, chemical, 
# crystal, experimental, refinement or atomic coordinate data resulting 
# from the CCDC's data processing and validation procedures.
#
#######################################################################

data_JESGOE
_chemical_formula_moiety         'C20 H32 O3'
_chemical_name_systematic        
3-(3-Hydroxypropyl)-2,4,14-trimethyl-10-oxatetracyclo(10.2.1.0^2,7^.0^9,14^)pentadecan-11-one
_symmetry_cell_setting           triclinic
_symmetry_space_group_name_H-M   'P -1'
_symmetry_Int_Tables_number      2
_space_group_name_Hall           '-P 1'
loop_
_symmetry_equiv_pos_site_id
_symmetry_equiv_pos_as_xyz
1 x,y,z
2 -x,-y,-z
_cell_length_a                   6.6318(16)
_cell_length_b                   10.293(3)
_cell_length_c                   13.750(3)
_cell_angle_alpha                99.427(5)
_cell_angle_beta                 96.076(4)
_cell_angle_gamma                107.618(4)
_cell_volume                     870.345
_exptl_crystal_colour            colorless
_exptl_crystal_description       Plate
_cell_formula_units_Z            2
loop_
_atom_site_label
_atom_site_type_symbol
_atom_site_fract_x
_atom_site_fract_y
_atom_site_fract_z
O1 O 1.4067(3) 1.0866(2) 0.90095(14)
O2 O 1.2451(2) 1.03045(16) 0.74550(12)
C1 C 1.2445(4) 1.0701(2) 0.84409(17)
C2 C 1.0409(4) 1.0851(2) 0.87425(16)
C3 C 0.8727(4) 0.9382(2) 0.86014(15)
C4 C 0.7438(3) 0.9065(2) 0.75289(15)
C5 C 0.7061(3) 0.7590(2) 0.68906(15)
C6 C 0.6308(3) 0.6429(2) 0.75071(16)
C7 C 0.6067(4) 0.4971(2) 0.68914(18)
C8 C 0.8130(4) 0.4960(2) 0.64862(19)
C9 C 0.8950(4) 0.6105(2) 0.59246(18)
C10 C 0.9199(3) 0.7530(2) 0.65606(15)
C11 C 1.0167(4) 0.8703(2) 0.60297(17)
C12 C 1.0620(4) 1.0134(2) 0.66830(16)
C13 C 0.8636(3) 1.0323(2) 0.70772(15)
C14 C 0.9387(4) 1.1517(2) 0.80025(17)
C15 C 0.7265(4) 1.0687(3) 0.62587(18)
C16 C 0.5288(4) 0.7317(3) 0.59810(18)
C17 C 0.5438(5) 0.3817(3) 0.7489(2)
C18 C 0.4254(4) 0.6440(2) 0.79392(17)
C19 C 0.4309(4) 0.6255(3) 0.90255(18)
C20 C 0.2356(4) 0.6386(3) 0.9451(2)
O3 O 0.2075(3) 0.7703(2) 0.94569(15)
H1 H 0.787(5) 0.395(3) 0.607(2)
H2 H 0.489(5) 0.473(3) 0.634(2)
H3 H 0.447(4) 0.535(3) 0.9069(18)
H4 H 1.014(4) 0.765(2) 0.7187(18)
H5 H 0.393(4) 0.738(2) 0.7957(17)
H6 H 1.112(4) 1.088(3) 0.632(2)
H7 H 0.752(4) 0.660(3) 0.808(2)
H8 H 1.068(4) 1.129(3) 0.944(2)
H9 H 1.055(4) 1.240(3) 0.7832(19)
H10 H 0.606(4) 0.921(2) 0.7591(15)
H11 H 0.941(4) 0.877(3) 0.8686(19)
H12 H 1.144(4) 0.859(2) 0.5834(17)
H13 H 0.809(4) 1.167(3) 0.8235(18)
H14 H 0.920(5) 0.506(3) 0.711(2)
H15 H 0.780(5) 0.946(3) 0.901(2)
H16 H 0.564(5) 0.693(3) 0.940(2)
H17 H 0.917(4) 0.864(3) 0.542(2)
H18 H 0.800(4) 1.164(3) 0.6187(19)
H19 H 1.036(5) 0.607(3) 0.577(2)
H20 H 0.691(5) 1.003(3) 0.556(2)
H21 H 0.394(5) 0.749(3) 0.622(2)
H22 H 0.408(5) 0.364(3) 0.766(2)
H23 H 0.532(5) 0.282(4) 0.710(3)
H24 H 0.310(5) 0.568(3) 0.753(2)
H25 H 0.589(4) 1.070(3) 0.6462(19)
H26 H 0.797(4) 0.598(3) 0.525(2)
H27 H 0.479(5) 0.638(3) 0.565(2)
H28 H 0.655(5) 0.399(3) 0.812(3)
H29 H 0.560(6) 0.802(4) 0.553(3)
H30 H 0.099(5) 0.560(3) 0.908(2)
H31 H 0.253(5) 0.620(3) 1.009(3)
H32 H 0.330(7) 0.832(4) 0.980(3)
loop_
_geom_bond_atom_site_label_1
_geom_bond_atom_site_label_2
_geom_bond_site_symmetry_1
_geom_bond_site_symmetry_2
O1 C1 1_555 1_555
O2 C1 1_555 1_555
C1 C2 1_555 1_555
C2 C3 1_555 1_555
C3 C4 1_555 1_555
C4 C5 1_555 1_555
C5 C6 1_555 1_555
C6 C7 1_555 1_555
C7 C8 1_555 1_555
C8 C9 1_555 1_555
C9 C10 1_555 1_555
C10 C5 1_555 1_555
C11 C10 1_555 1_555
C12 O2 1_555 1_555
C13 C4 1_555 1_555
C14 C2 1_555 1_555
C15 C13 1_555 1_555
C16 C5 1_555 1_555
C17 C7 1_555 1_555
C18 C6 1_555 1_555
C19 C18 1_555 1_555
C20 C19 1_555 1_555
O3 C20 1_555 1_555
H1 C8 1_555 1_555
H2 C7 1_555 1_555
H3 C19 1_555 1_555
H4 C10 1_555 1_555
H5 C18 1_555 1_555
H6 C12 1_555 1_555
H7 C6 1_555 1_555
H8 C2 1_555 1_555
H9 C14 1_555 1_555
H10 C4 1_555 1_555
H11 C3 1_555 1_555
H12 C11 1_555 1_555
H13 C14 1_555 1_555
H14 C8 1_555 1_555
H15 C3 1_555 1_555
H16 C19 1_555 1_555
H17 C11 1_555 1_555
H18 C15 1_555 1_555
H19 C9 1_555 1_555
H20 C15 1_555 1_555
H21 C16 1_555 1_555
H22 C17 1_555 1_555
H23 C17 1_555 1_555
H24 C18 1_555 1_555
H25 C15 1_555 1_555
H26 C9 1_555 1_555
H27 C16 1_555 1_555
H28 C17 1_555 1_555
H29 C16 1_555 1_555
H30 C20 1_555 1_555
H31 C20 1_555 1_555
H32 O3 1_555 1_555
C11 C12 1_555 1_555
C12 C13 1_555 1_555
C13 C14 1_555 1_555

#END
