
#######################################################################
#
#                 Cambridge Crystallographic Data Centre
#                                CCDC 
#
#######################################################################
#
# If this CIF has been generated from an entry in the Cambridge 
# Structural Database, then it will include bibliographic, chemical, 
# crystal, experimental, refinement or atomic coordinate data resulting 
# from the CCDC's data processing and validation procedures.
#
#######################################################################

data_JESVEL
_chemical_formula_moiety         'C14 H17 N1 O2'
_chemical_name_systematic        
9-methyl-3,4,6,7,9,10-hexahydroacridine-1,8(2H,5H)-dione
_symmetry_cell_setting           triclinic
_symmetry_space_group_name_H-M   'P -1'
_symmetry_Int_Tables_number      2
_space_group_name_Hall           '-P 1'
loop_
_symmetry_equiv_pos_site_id
_symmetry_equiv_pos_as_xyz
1 x,y,z
2 -x,-y,-z
_cell_length_a                   7.1790(7)
_cell_length_b                   9.4082(7)
_cell_length_c                   10.3120(9)
_cell_angle_alpha                109.865(7)
_cell_angle_beta                 102.893(8)
_cell_angle_gamma                105.164(7)
_cell_volume                     593.713
_cell_formula_units_Z            2
loop_
_atom_site_label
_atom_site_type_symbol
_atom_site_fract_x
_atom_site_fract_y
_atom_site_fract_z
O1 O 0.40355(17) 0.81877(14) 1.14021(13)
O2 O 0.32067(18) 0.38602(14) 0.64652(14)
N1 N 0.9652(2) 0.73908(16) 1.00528(15)
H1 H 1.0966 0.7699 1.0290
C1 C 0.8834(2) 0.81728(18) 1.10304(17)
C2 C 1.0310(3) 0.9340(2) 1.25375(19)
H2 H 1.1623 0.9864 1.2476
H3 H 1.0525 0.8753 1.3135
C3 C 0.9486(3) 1.0617(2) 1.32516(19)
H4 H 1.0389 1.1304 1.4259
H5 H 0.9434 1.1297 1.2728
C4 C 0.7348(3) 0.9785(2) 1.32194(18)
H6 H 0.7445 0.9237 1.3863
H7 H 0.6778 1.0602 1.3595
C5 C 0.5911(2) 0.85648(18) 1.16985(17)
C6 C 0.6780(2) 0.78478(17) 1.06224(16)
C7 C 0.5359(2) 0.67596(18) 0.90647(16)
H8 H 0.4128 0.6027 0.9089
C8 C 0.6381(2) 0.57432(18) 0.82244(16)
C9 C 0.5088(3) 0.43116(19) 0.68659(18)
C10 C 0.6117(3) 0.3360(2) 0.5970(2)
H9 H 0.6128 0.2451 0.6212
H10 H 0.5315 0.2922 0.4937
C11 C 0.8298(3) 0.4369(2) 0.6227(2)
H11 H 0.8286 0.5166 0.5830
H12 H 0.8938 0.3672 0.5726
C12 C 0.9522(3) 0.5226(2) 0.7856(2)
H13 H 0.9748 0.4432 0.8210
H14 H 1.0853 0.5984 0.8017
C13 C 0.8434(2) 0.61269(18) 0.87040(17)
C14 C 0.4706(3) 0.7776(2) 0.82967(19)
H15 H 0.4057 0.8411 0.8840
H16 H 0.3757 0.7068 0.7321
H17 H 0.5894 0.8487 0.8248
loop_
_geom_bond_atom_site_label_1
_geom_bond_atom_site_label_2
_geom_bond_site_symmetry_1
_geom_bond_site_symmetry_2
O1 C5 1_555 1_555
O2 C9 1_555 1_555
N1 H1 1_555 1_555
C1 N1 1_555 1_555
C2 C1 1_555 1_555
H2 C2 1_555 1_555
H3 C2 1_555 1_555
C3 C2 1_555 1_555
H4 C3 1_555 1_555
H5 C3 1_555 1_555
C4 C3 1_555 1_555
H6 C4 1_555 1_555
H7 C4 1_555 1_555
C5 C4 1_555 1_555
C6 C1 1_555 1_555
C7 C6 1_555 1_555
H8 C7 1_555 1_555
C8 C7 1_555 1_555
C9 C8 1_555 1_555
C10 C9 1_555 1_555
H9 C10 1_555 1_555
H10 C10 1_555 1_555
C11 C10 1_555 1_555
H11 C11 1_555 1_555
H12 C11 1_555 1_555
C12 C11 1_555 1_555
H13 C12 1_555 1_555
H14 C12 1_555 1_555
C13 N1 1_555 1_555
C14 C7 1_555 1_555
H15 C14 1_555 1_555
H16 C14 1_555 1_555
H17 C14 1_555 1_555
C5 C6 1_555 1_555
C8 C13 1_555 1_555
C12 C13 1_555 1_555

#END
