
#######################################################################
#
#                 Cambridge Crystallographic Data Centre
#                                CCDC 
#
#######################################################################
#
# If this CIF has been generated from an entry in the Cambridge 
# Structural Database, then it will include bibliographic, chemical, 
# crystal, experimental, refinement or atomic coordinate data resulting 
# from the CCDC's data processing and validation procedures.
#
#######################################################################

data_JESVOV
_chemical_formula_moiety         'C12 H17 N1 O2'
_chemical_name_systematic        
1,1'-(2,4,6-trimethyl-1,4-dihydropyridine-3,5-diyl)bis(ethan-1-one)
_symmetry_cell_setting           triclinic
_symmetry_space_group_name_H-M   'P -1'
_symmetry_Int_Tables_number      2
_space_group_name_Hall           '-P 1'
loop_
_symmetry_equiv_pos_site_id
_symmetry_equiv_pos_as_xyz
1 x,y,z
2 -x,-y,-z
_cell_length_a                   7.4500(6)
_cell_length_b                   9.1018(9)
_cell_length_c                   9.2654(7)
_cell_angle_alpha                108.813(8)
_cell_angle_beta                 104.599(7)
_cell_angle_gamma                93.602(7)
_cell_volume                     568.34
_cell_formula_units_Z            2
loop_
_atom_site_label
_atom_site_type_symbol
_atom_site_fract_x
_atom_site_fract_y
_atom_site_fract_z
O1 O 0.3892(2) 0.5909(2) 0.18590(17)
O2 O 1.09442(18) 0.8001(2) 0.77409(17)
N1 N 0.4448(2) 0.77088(19) 0.68261(18)
H1 H 0.3520 0.7996 0.7184
C1 C 0.4126(2) 0.7076(2) 0.5191(2)
C2 C 0.5607(2) 0.7029(2) 0.4596(2)
C3 C 0.7513(2) 0.7895(2) 0.5719(2)
H2 H 0.8479 0.7356 0.5315
C4 C 0.7730(2) 0.7854(2) 0.7380(2)
C5 C 0.6172(2) 0.7903(2) 0.7908(2)
C6 C 0.2109(3) 0.6453(3) 0.4290(2)
H3 H 0.1916 0.5326 0.3939
H4 H 0.1778 0.6780 0.3383
H5 H 0.1336 0.6853 0.4969
C7 C 0.5398(3) 0.6261(2) 0.2883(2)
C8 C 0.7133(3) 0.5879(3) 0.2381(2)
H6 H 0.7942 0.6836 0.2601
H7 H 0.6782 0.5284 0.1261
H8 H 0.7781 0.5271 0.2961
C9 C 0.7801(3) 0.9578(3) 0.5739(3)
H9 H 0.6912 1.0147 0.6185
H10 H 0.7620 0.9563 0.4671
H11 H 0.9053 1.0082 0.6373
C10 C 0.9626(2) 0.7829(2) 0.8290(2)
C11 C 1.0063(3) 0.7513(3) 0.9828(2)
H12 H 0.9940 0.8418 1.0664
H13 H 1.1325 0.7294 1.0085
H14 H 0.9204 0.6625 0.9715
C12 C 0.6044(3) 0.8131(3) 0.9552(2)
H15 H 0.4834 0.8393 0.9626
H16 H 0.7007 0.8968 1.0313
H17 H 0.6209 0.7178 0.9770
loop_
_geom_bond_atom_site_label_1
_geom_bond_atom_site_label_2
_geom_bond_site_symmetry_1
_geom_bond_site_symmetry_2
O1 C7 1_555 1_555
O2 C10 1_555 1_555
N1 H1 1_555 1_555
C1 N1 1_555 1_555
C2 C1 1_555 1_555
C3 C2 1_555 1_555
H2 C3 1_555 1_555
C4 C3 1_555 1_555
C5 N1 1_555 1_555
C6 C1 1_555 1_555
H3 C6 1_555 1_555
H4 C6 1_555 1_555
H5 C6 1_555 1_555
C7 C2 1_555 1_555
C8 C7 1_555 1_555
H6 C8 1_555 1_555
H7 C8 1_555 1_555
H8 C8 1_555 1_555
C9 C3 1_555 1_555
H9 C9 1_555 1_555
H10 C9 1_555 1_555
H11 C9 1_555 1_555
C10 C4 1_555 1_555
C11 C10 1_555 1_555
H12 C11 1_555 1_555
H13 C11 1_555 1_555
H14 C11 1_555 1_555
C12 C5 1_555 1_555
H15 C12 1_555 1_555
H16 C12 1_555 1_555
H17 C12 1_555 1_555
C4 C5 1_555 1_555

#END
