
#######################################################################
#
#                 Cambridge Crystallographic Data Centre
#                                CCDC 
#
#######################################################################
#
# If this CIF has been generated from an entry in the Cambridge 
# Structural Database, then it will include bibliographic, chemical, 
# crystal, experimental, refinement or atomic coordinate data resulting 
# from the CCDC's data processing and validation procedures.
#
#######################################################################

data_JESVAF
_chemical_formula_moiety         'C8 H7 N1 O4'
_chemical_name_systematic        '3-Nitrophenylacetic acid'
_symmetry_cell_setting           monoclinic
_symmetry_space_group_name_H-M   'C 2/c'
_symmetry_Int_Tables_number      15
_space_group_name_Hall           '-C 2yn'
loop_
_symmetry_equiv_pos_site_id
_symmetry_equiv_pos_as_xyz
1 x,y,z
2 1/2+x,1/2+y,z
3 -x,y,1/2-z
4 1/2-x,1/2+y,1/2-z
5 -x,-y,-z
6 1/2-x,1/2-y,-z
7 x,-y,1/2+z
8 1/2+x,1/2-y,1/2+z
_cell_length_a                   21.9690(6)
_cell_length_b                   9.2901(7)
_cell_length_c                   7.9642(2)
_cell_angle_alpha                90
_cell_angle_beta                 106.216(2)
_cell_angle_gamma                90
_cell_volume                     1560.78
_exptl_crystal_colour            colorless
_exptl_crystal_description       needle
_cell_formula_units_Z            8
_exptl_crystal_recrystallization_method water
loop_
_atom_site_label
_atom_site_type_symbol
_atom_site_fract_x
_atom_site_fract_y
_atom_site_fract_z
O1 O 0.47049(5) 0.16282(10) 0.51651(13)
O2 O 0.43311(5) -0.04557(10) 0.58490(15)
O3 O 0.22765(5) 0.56092(11) 0.29531(14)
O4 O 0.28282(5) 0.75666(10) 0.35972(13)
N1 N 0.27493(5) 0.62691(12) 0.37843(15)
C1 C 0.37313(6) 0.32274(14) 0.61287(17)
C2 C 0.32437(6) 0.39825(14) 0.49749(16)
C3 C 0.32499(6) 0.54757(13) 0.50499(17)
C4 C 0.37157(6) 0.62561(14) 0.62303(17)
C5 C 0.41941(6) 0.54895(14) 0.73923(18)
C6 C 0.42016(6) 0.39950(14) 0.73416(17)
C7 C 0.37434(6) 0.16061(14) 0.60971(18)
C8 C 0.43087(6) 0.09578(13) 0.56546(16)
H1 H 0.2913 0.3487 0.4153
H2 H 0.3708 0.7278 0.6244
H3 H 0.4519 0.5990 0.8228
H4 H 0.4532 0.3486 0.8146
H5 H 0.3354 0.1263 0.5232
H6 H 0.3734 0.1246 0.7259
H7 H 0.4644 -0.0782 0.5561
loop_
_geom_bond_atom_site_label_1
_geom_bond_atom_site_label_2
_geom_bond_site_symmetry_1
_geom_bond_site_symmetry_2
O1 C8 1_555 1_555
O2 C8 1_555 1_555
O3 N1 1_555 1_555
O4 N1 1_555 1_555
N1 C3 1_555 1_555
C1 C2 1_555 1_555
C2 C3 1_555 1_555
C3 C4 1_555 1_555
C4 C5 1_555 1_555
C5 C6 1_555 1_555
C6 C1 1_555 1_555
C7 C1 1_555 1_555
C8 C7 1_555 1_555
H1 C2 1_555 1_555
H2 C4 1_555 1_555
H3 C5 1_555 1_555
H4 C6 1_555 1_555
H5 C7 1_555 1_555
H6 C7 1_555 1_555
H7 O2 1_555 1_555

#END
