
#######################################################################
#
#                 Cambridge Crystallographic Data Centre
#                                CCDC 
#
#######################################################################
#
# If this CIF has been generated from an entry in the Cambridge 
# Structural Database, then it will include bibliographic, chemical, 
# crystal, experimental, refinement or atomic coordinate data resulting 
# from the CCDC's data processing and validation procedures.
#
#######################################################################

data_JESWIQ
_chemical_formula_moiety         'C32 H42 O3 Si5'
_chemical_name_systematic        
2,2,4,4-tetraphenyl-6,6-bis[(trimethylsilyl)methyl]-1,3,5,2,4,6-trioxatrisilinane
_symmetry_cell_setting           monoclinic
_symmetry_space_group_name_H-M   'P 21/n'
_symmetry_Int_Tables_number      14
_space_group_name_Hall           '-P 2yn'
loop_
_symmetry_equiv_pos_site_id
_symmetry_equiv_pos_as_xyz
1 x,y,z
2 1/2-x,1/2+y,1/2-z
3 -x,-y,-z
4 1/2+x,1/2-y,1/2+z
_cell_length_a                   10.0574(11)
_cell_length_b                   16.506(2)
_cell_length_c                   20.663(2)
_cell_angle_alpha                90
_cell_angle_beta                 93.834(2)
_cell_angle_gamma                90
_cell_volume                     3422.53
_exptl_crystal_colour            colorless
_exptl_crystal_description       prism
_cell_formula_units_Z            4
loop_
_atom_site_label
_atom_site_type_symbol
_atom_site_fract_x
_atom_site_fract_y
_atom_site_fract_z
Si1 Si 0.51491(5) 0.75138(3) 0.23037(3)
O1 O 0.56849(14) 0.82293(8) 0.28056(6)
C1 C 0.66236(19) 0.70919(11) 0.19281(9)
C2 C 0.6465(2) 0.65431(12) 0.14129(10)
H1 H 0.55914 0.639895 0.124921
C3 C 0.7554(2) 0.62050(13) 0.11359(10)
H2 H 0.742173 0.583405 0.078597
C4 C 0.8826(2) 0.64059(15) 0.13671(11)
H3 H 0.957288 0.617521 0.11772
C5 C 0.9011(2) 0.69429(17) 0.18751(12)
H4 H 0.988877 0.708041 0.203666
C6 C 0.7921(2) 0.72853(14) 0.21534(11)
H5 H 0.806433 0.765668 0.250231
C7 C 0.3926(2) 0.79339(11) 0.16833(9)
C8 C 0.2594(2) 0.77045(14) 0.16262(11)
H6 H 0.228687 0.730316 0.191008
C9 C 0.1702(2) 0.80492(17) 0.11631(12)
H7 H 0.079759 0.787908 0.113104
C10 C 0.2122(3) 0.86347(15) 0.07518(11)
H8 H 0.150941 0.887526 0.043889
C11 C 0.3440(3) 0.88718(14) 0.07952(11)
H9 H 0.373623 0.927619 0.051118
C12 C 0.4328(2) 0.85226(14) 0.12506(11)
H10 H 0.523509 0.868623 0.127073
Si2 Si 0.55118(5) 0.83657(3) 0.35822(3)
O2 O 0.48693(14) 0.75372(8) 0.38612(6)
C13 C 0.7167(2) 0.85308(12) 0.40155(9)
C14 C 0.8030(2) 0.91290(13) 0.38131(11)
H11 H 0.777641 0.944428 0.34405
C15 C 0.9255(2) 0.92712(14) 0.41470(12)
H12 H 0.983023 0.967968 0.400221
C16 C 0.9630(2) 0.88174(14) 0.46891(11)
H13 H 1.046314 0.891622 0.492002
C17 C 0.8799(2) 0.82204(14) 0.48963(11)
H14 H 0.906386 0.790531 0.52675
C18 C 0.7584(2) 0.80799(13) 0.45660(10)
H15 H 0.701875 0.766866 0.471505
C19 C 0.43760(19) 0.92354(11) 0.36804(10)
C20 C 0.3800(2) 0.96613(13) 0.31485(10)
H16 H 0.399628 0.950563 0.272263
C21 C 0.2946(2) 1.03086(13) 0.32321(11)
H17 H 0.257222 1.059636 0.286552
C22 C 0.2639(2) 1.05340(13) 0.38499(12)
H18 H 0.204965 1.097431 0.3907
C23 C 0.3188(2) 1.01193(13) 0.43832(11)
H19 H 0.297209 1.027126 0.480711
C24 C 0.4053(2) 0.94821(12) 0.42988(10)
H20 H 0.443646 0.920563 0.466896
Si3 Si 0.46868(5) 0.66394(3) 0.35138(3)
O3 O 0.44237(13) 0.68246(8) 0.27290(6)
Si4 Si 0.18596(6) 0.68014(4) 0.40984(3)
C25 C 0.3228(2) 0.61346(13) 0.38253(11)
H21 H 0.354393 0.5789 0.419584
H22 H 0.283959 0.577095 0.348153
C26 C 0.1273(3) 0.7491(2) 0.34294(14)
H23 H 0.048065 0.778414 0.355238
H24 H 0.104902 0.71735 0.303636
H25 H 0.197856 0.787918 0.33464
C27 C 0.2467(2) 0.73855(14) 0.48269(10)
H26 H 0.313754 0.706699 0.508115
H27 H 0.171794 0.750286 0.50924
H28 H 0.286443 0.789511 0.469194
C28 C 0.0460(3) 0.61388(19) 0.43251(15)
H29 H 0.074367 0.582262 0.471145
H30 H 0.020941 0.577047 0.396551
H31 H -0.030701 0.64755 0.441749
Si5 Si 0.65226(6) 0.50442(4) 0.33250(3)
C29 C 0.6276(2) 0.60921(13) 0.36565(11)
H32 H 0.64631 0.605948 0.413234
H33 H 0.697763 0.643968 0.348854
C30 C 0.8080(2) 0.50430(16) 0.28814(12)
H34 H 0.882979 0.522214 0.317386
H35 H 0.797464 0.541226 0.251018
H36 H 0.825286 0.449385 0.272745
C31 C 0.5110(3) 0.47089(15) 0.27577(12)
H37 H 0.531392 0.417639 0.257925
H38 H 0.49778 0.51014 0.24034
H39 H 0.429713 0.467254 0.299216
C32 C 0.6702(3) 0.43270(17) 0.40222(13)
H40 H 0.680934 0.377466 0.385979
H41 H 0.590377 0.435383 0.426893
H42 H 0.74856 0.447547 0.430439
loop_
_geom_bond_atom_site_label_1
_geom_bond_atom_site_label_2
_geom_bond_site_symmetry_1
_geom_bond_site_symmetry_2
Si1 O1 1_555 1_555
O1 Si2 1_555 1_555
C1 Si1 1_555 1_555
C2 C1 1_555 1_555
H1 C2 1_555 1_555
C3 C2 1_555 1_555
H2 C3 1_555 1_555
C4 C3 1_555 1_555
H3 C4 1_555 1_555
C5 C4 1_555 1_555
H4 C5 1_555 1_555
C6 C1 1_555 1_555
H5 C6 1_555 1_555
C7 Si1 1_555 1_555
C8 C7 1_555 1_555
H6 C8 1_555 1_555
C9 C8 1_555 1_555
H7 C9 1_555 1_555
C10 C9 1_555 1_555
H8 C10 1_555 1_555
C11 C10 1_555 1_555
H9 C11 1_555 1_555
C12 C7 1_555 1_555
H10 C12 1_555 1_555
Si2 O2 1_555 1_555
O2 Si3 1_555 1_555
C13 Si2 1_555 1_555
C14 C13 1_555 1_555
H11 C14 1_555 1_555
C15 C14 1_555 1_555
H12 C15 1_555 1_555
C16 C15 1_555 1_555
H13 C16 1_555 1_555
C17 C16 1_555 1_555
H14 C17 1_555 1_555
C18 C13 1_555 1_555
H15 C18 1_555 1_555
C19 Si2 1_555 1_555
C20 C19 1_555 1_555
H16 C20 1_555 1_555
C21 C20 1_555 1_555
H17 C21 1_555 1_555
C22 C21 1_555 1_555
H18 C22 1_555 1_555
C23 C22 1_555 1_555
H19 C23 1_555 1_555
C24 C19 1_555 1_555
H20 C24 1_555 1_555
Si3 O3 1_555 1_555
O3 Si1 1_555 1_555
Si4 C25 1_555 1_555
C25 Si3 1_555 1_555
H21 C25 1_555 1_555
H22 C25 1_555 1_555
C26 Si4 1_555 1_555
H23 C26 1_555 1_555
H24 C26 1_555 1_555
H25 C26 1_555 1_555
C27 Si4 1_555 1_555
H26 C27 1_555 1_555
H27 C27 1_555 1_555
H28 C27 1_555 1_555
C28 Si4 1_555 1_555
H29 C28 1_555 1_555
H30 C28 1_555 1_555
H31 C28 1_555 1_555
Si5 C29 1_555 1_555
C29 Si3 1_555 1_555
H32 C29 1_555 1_555
H33 C29 1_555 1_555
C30 Si5 1_555 1_555
H34 C30 1_555 1_555
H35 C30 1_555 1_555
H36 C30 1_555 1_555
C31 Si5 1_555 1_555
H37 C31 1_555 1_555
H38 C31 1_555 1_555
H39 C31 1_555 1_555
C32 Si5 1_555 1_555
H40 C32 1_555 1_555
H41 C32 1_555 1_555
H42 C32 1_555 1_555
C5 C6 1_555 1_555
C11 C12 1_555 1_555
C17 C18 1_555 1_555
C23 C24 1_555 1_555

#END
