
#######################################################################
#
#                 Cambridge Crystallographic Data Centre
#                                CCDC 
#
#######################################################################
#
# If this CIF has been generated from an entry in the Cambridge 
# Structural Database, then it will include bibliographic, chemical, 
# crystal, experimental, refinement or atomic coordinate data resulting 
# from the CCDC's data processing and validation procedures.
#
#######################################################################

data_JESYIQ
_chemical_formula_moiety         'C20 H28 O2'
_chemical_name_systematic        
3,6,9b,9d-Tetramethyl-4,5,5a,6,7,8,8a,8b,9a,9b,9c,9d-dodecahydroazuleno(1',8',7':3,4,5)naphtho(1,2-b)oxiren-2(1H)-one
_symmetry_cell_setting           monoclinic
_symmetry_space_group_name_H-M   'P 21/n'
_symmetry_Int_Tables_number      14
_space_group_name_Hall           '-P 2yn'
loop_
_symmetry_equiv_pos_site_id
_symmetry_equiv_pos_as_xyz
1 x,y,z
2 1/2-x,1/2+y,1/2-z
3 -x,-y,-z
4 1/2+x,1/2-y,1/2+z
_cell_length_a                   9.6273(7)
_cell_length_b                   16.1782(12)
_cell_length_c                   11.0361(8)
_cell_angle_alpha                90
_cell_angle_beta                 106.4870(10)
_cell_angle_gamma                90
_cell_volume                     1648.22
_exptl_crystal_colour            colorless
_exptl_crystal_description       Irregular
_chemical_melting_point          42-44deg.C
_cell_formula_units_Z            4
_exptl_crystal_recrystallization_method 'hexane/diethyl ether'
loop_
_atom_site_label
_atom_site_type_symbol
_atom_site_fract_x
_atom_site_fract_y
_atom_site_fract_z
C1 C 0.44009(16) 0.39803(8) 0.53205(13)
O1 O 0.43159(12) 0.41071(6) 0.40003(9)
C2 C 0.29948(14) 0.38470(8) 0.56595(11)
C3 C 0.16586(16) 0.41338(9) 0.46165(14)
C4 C 0.04272(14) 0.35979(8) 0.47231(12)
O2 O -0.08515(11) 0.37684(7) 0.42795(10)
C5 C 0.10462(13) 0.28487(8) 0.54501(10)
C6 C 0.26796(12) 0.29094(7) 0.58939(10)
C7 C 0.35322(12) 0.22287(7) 0.53663(10)
C8 C 0.25906(13) 0.14415(7) 0.48995(11)
C9 C 0.33741(15) 0.08011(8) 0.42863(13)
C10 C 0.38230(17) 0.11879(9) 0.31973(13)
C11 C 0.47410(16) 0.19504(9) 0.36121(14)
C12 C 0.39782(13) 0.25843(8) 0.42234(11)
C13 C 0.49029(15) 0.33451(9) 0.46078(13)
C14 C 0.20088(16) 0.10123(8) 0.59013(14)
C15 C 0.11966(16) 0.15585(9) 0.66119(14)
C16 C 0.03228(14) 0.22224(9) 0.57836(12)
C17 C -0.12885(16) 0.21242(13) 0.53497(19)
C18 C 0.3067(2) 0.43279(10) 0.68737(16)
C19 C 0.2468(2) 0.00281(10) 0.38230(18)
C20 C 0.48896(14) 0.20178(9) 0.64463(12)
H1 H 0.5129(16) 0.4329(10) 0.5892(14)
H2 H 0.1796(18) 0.4027(10) 0.3744(16)
H3 H 0.1437(19) 0.4714(12) 0.4673(16)
H4 H 0.3010(14) 0.2836(8) 0.6845(12)
H5 H 0.1710(15) 0.1636(8) 0.4187(13)
H6 H 0.4251(17) 0.0627(10) 0.4929(15)
H7 H 0.4367(18) 0.0776(11) 0.2844(16)
H8 H 0.2904(17) 0.1334(9) 0.2508(15)
H9 H 0.5683(18) 0.1789(10) 0.4245(15)
H10 H 0.4998(17) 0.2202(10) 0.2893(15)
H11 H 0.3075(15) 0.2759(9) 0.3584(13)
H12 H 0.5938(18) 0.3301(10) 0.4715(14)
H13 H 0.1334(17) 0.0578(11) 0.5443(15)
H14 H 0.2814(18) 0.0717(10) 0.6528(15)
H15 H 0.0557(18) 0.1213(11) 0.6927(15)
H16 H 0.1896(16) 0.1817(9) 0.7340(14)
H17 H -0.165(2) 0.1975(12) 0.6066(19)
H18 H -0.179(2) 0.2603(15) 0.485(2)
H19 H -0.156(2) 0.1625(15) 0.480(2)
H20 H 0.216(2) 0.4230(11) 0.7141(16)
H21 H 0.392(2) 0.4127(11) 0.7581(17)
H22 H 0.3194(19) 0.4914(13) 0.6743(16)
H23 H 0.145(2) 0.0175(12) 0.3283(18)
H24 H 0.293(2) -0.0305(13) 0.3323(19)
H25 H 0.237(2) -0.0331(12) 0.452(2)
H26 H 0.4582(17) 0.1756(11) 0.7151(16)
H27 H 0.5462(17) 0.2543(10) 0.6805(15)
H28 H 0.5592(17) 0.1618(10) 0.6197(14)
loop_
_geom_bond_atom_site_label_1
_geom_bond_atom_site_label_2
_geom_bond_site_symmetry_1
_geom_bond_site_symmetry_2
C1 O1 1_555 1_555
O1 C13 1_555 1_555
C2 C1 1_555 1_555
C3 C2 1_555 1_555
C4 C3 1_555 1_555
O2 C4 1_555 1_555
C5 C4 1_555 1_555
C6 C2 1_555 1_555
C7 C6 1_555 1_555
C8 C7 1_555 1_555
C9 C8 1_555 1_555
C10 C9 1_555 1_555
C11 C10 1_555 1_555
C12 C7 1_555 1_555
C13 C1 1_555 1_555
C14 C8 1_555 1_555
C15 C14 1_555 1_555
C16 C5 1_555 1_555
C17 C16 1_555 1_555
C18 C2 1_555 1_555
C19 C9 1_555 1_555
C20 C7 1_555 1_555
H1 C1 1_555 1_555
H2 C3 1_555 1_555
H3 C3 1_555 1_555
H4 C6 1_555 1_555
H5 C8 1_555 1_555
H6 C9 1_555 1_555
H7 C10 1_555 1_555
H8 C10 1_555 1_555
H9 C11 1_555 1_555
H10 C11 1_555 1_555
H11 C12 1_555 1_555
H12 C13 1_555 1_555
H13 C14 1_555 1_555
H14 C14 1_555 1_555
H15 C15 1_555 1_555
H16 C15 1_555 1_555
H17 C17 1_555 1_555
H18 C17 1_555 1_555
H19 C17 1_555 1_555
H20 C18 1_555 1_555
H21 C18 1_555 1_555
H22 C18 1_555 1_555
H23 C19 1_555 1_555
H24 C19 1_555 1_555
H25 C19 1_555 1_555
H26 C20 1_555 1_555
H27 C20 1_555 1_555
H28 C20 1_555 1_555
C5 C6 1_555 1_555
C11 C12 1_555 1_555
C12 C13 1_555 1_555
C15 C16 1_555 1_555

#END
