
#######################################################################
#
#                 Cambridge Crystallographic Data Centre
#                                CCDC 
#
#######################################################################
#
# If this CIF has been generated from an entry in the Cambridge 
# Structural Database, then it will include bibliographic, chemical, 
# crystal, experimental, refinement or atomic coordinate data resulting 
# from the CCDC's data processing and validation procedures.
#
#######################################################################

data_JESZAI
_chemical_formula_moiety         'C10 H8 O4 S4 1+,C10 H8 O4 S4,Cl1 O4 1-'
_chemical_name_systematic        
'bis(bis(Ethylenedioxy)tetrathiafulvalene) perchlorate'
_symmetry_cell_setting           monoclinic
_symmetry_space_group_name_H-M   'P 21/m'
_symmetry_Int_Tables_number      11
_space_group_name_Hall           '-P 2yb'
loop_
_symmetry_equiv_pos_site_id
_symmetry_equiv_pos_as_xyz
1 x,y,z
2 -x,1/2+y,-z
3 -x,-y,-z
4 x,1/2-y,z
_cell_length_a                   5.340(1)
_cell_length_b                   33.43(1)
_cell_length_c                   4.035(2)
_cell_angle_alpha                90
_cell_angle_beta                 98.25(2)
_cell_angle_gamma                90
_cell_volume                     712.859
_cell_formula_units_Z            1
loop_
_atom_site_label
_atom_site_type_symbol
_atom_site_fract_x
_atom_site_fract_y
_atom_site_fract_z
S1 S 0.3194(2) 0.03447(4) 1.2460(3)
S2 S -0.1466(2) 0.05718(4) 0.7956(3)
O3 O 0.4552(7) 0.11058(10) 1.2871(10)
O4 O 0.0003(7) 0.13306(10) 0.8435(10)
C1 C 0.0359(8) 0.01968(13) 1.0084(11)
C2 C 0.2742(8) 0.08493(14) 1.1505(12)
C3 C 0.0634(9) 0.09465(14) 0.9427(12)
C4 C 0.4294(11) 0.1487(2) 1.113(2)
C5 C 0.1539(11) 0.1619(2) 1.054(2)
C1B C -0.0359(8) -0.01968(13) 0.9916(11)
S1B S -0.3194(2) -0.03447(4) 0.7540(3)
S2B S 0.1466(2) -0.05718(4) 1.2044(3)
C2B C -0.2742(8) -0.08493(14) 0.8495(12)
C3B C -0.0634(9) -0.09465(14) 1.0573(12)
O3B O -0.4552(7) -0.11058(10) 0.7129(10)
O4B O -0.0003(7) -0.13306(10) 1.1565(10)
C4B C -0.4294(11) -0.1487(2) 0.887(2)
C5B C -0.1539(11) -0.1619(2) 0.946(2)
Cl1 Cl 0.617(2) 0.2500 0.638(3)
O1 O 0.694(4) 0.2192(6) 0.691(6)
O2 O 0.402(5) 0.2500 0.513(11)
O1C O 0.694(4) 0.2808(6) 0.691(6)
loop_
_geom_bond_atom_site_label_1
_geom_bond_atom_site_label_2
_geom_bond_site_symmetry_1
_geom_bond_site_symmetry_2
Cl1 O1 1_555 1_555
O2 Cl1 1_555 1_555
S1 C1 1_555 1_555
S2 C1 1_555 1_555
O3 C2 1_555 1_555
O4 C3 1_555 1_555
C1 C1B 1_555 1_555
C2 S1 1_555 1_555
C3 S2 1_555 1_555
C4 O3 1_555 1_555
C5 O4 1_555 1_555
O1C Cl1 1_555 1_555
C1B S1B 1_555 1_555
S1B C2B 1_555 1_555
S2B C1B 1_555 1_555
C2B C3B 1_555 1_555
C3B S2B 1_555 1_555
O3B C2B 1_555 1_555
O4B C3B 1_555 1_555
C4B O3B 1_555 1_555
C5B O4B 1_555 1_555
C2 C3 1_555 1_555
C4 C5 1_555 1_555
C4B C5B 1_555 1_555

#END
