
#######################################################################
#
#                 Cambridge Crystallographic Data Centre
#                                CCDC 
#
#######################################################################
#
# If this CIF has been generated from an entry in the Cambridge 
# Structural Database, then it will include bibliographic, chemical, 
# crystal, experimental, refinement or atomic coordinate data resulting 
# from the CCDC's data processing and validation procedures.
#
#######################################################################

data_JETBEQ
_chemical_formula_moiety         'C34 H28 N4 O2,1.5(C1 Cl4),0.2(H2 O1)'
_chemical_name_systematic        
'(2E,8E,5R,11R,12R)-11,12-bis(Pyridin-3-yl)-2,8-bis((pyridin-3-yl)methylidene)dispiro(4.0.4.2)dodecane-1,7-dione tetrachloromethane solvate hydrate'
_symmetry_cell_setting           triclinic
_symmetry_space_group_name_H-M   'P -1'
_symmetry_Int_Tables_number      2
_space_group_name_Hall           '-P 1'
loop_
_symmetry_equiv_pos_site_id
_symmetry_equiv_pos_as_xyz
1 x,y,z
2 -x,-y,-z
_cell_length_a                   13.2251(4)
_cell_length_b                   15.9387(4)
_cell_length_c                   16.9422(5)
_cell_angle_alpha                83.847(1)
_cell_angle_beta                 79.893(2)
_cell_angle_gamma                79.163(1)
_cell_volume                     3442.96
_exptl_crystal_colour            colorless
_exptl_crystal_description       block
_cell_formula_units_Z            4
loop_
_atom_site_label
_atom_site_type_symbol
_atom_site_fract_x
_atom_site_fract_y
_atom_site_fract_z
Cl1 Cl 0.3384(2) 0.86557(16) 0.24778(15)
C1 C 0.2898(10) 0.7743(6) 0.2338(6)
Cl5 Cl 0.2670(5) 0.7088(4) 0.3198(4)
Cl6 Cl 0.4044(3) 0.7001(2) 0.1763(2)
Cl7 Cl 0.1992(7) 0.7925(5) 0.1728(5)
O1 O 0.1645(10) 0.6317(8) 0.2521(7)
C2 C 0.3981(6) 0.1115(5) 0.2087(5)
Cl8 Cl 0.31440(17) 0.13247(15) 0.13218(13)
Cl9 Cl 0.49115(17) 0.02118(15) 0.18681(13)
Cl10 Cl 0.4616(2) 0.19828(17) 0.20382(13)
Cl11 Cl 0.3181(2) 0.1010(2) 0.30171(13)
C3 C 0.1266(6) 0.3546(5) 0.3007(5)
Cl12 Cl 0.03126(15) 0.44688(12) 0.30473(12)
Cl13 Cl 0.07029(17) 0.26177(14) 0.30532(13)
Cl14 Cl 0.19443(17) 0.34625(15) 0.38292(14)
Cl15 Cl 0.21690(18) 0.35841(18) 0.21072(15)
O2 O 0.5499(4) 0.5618(3) 0.4163(3)
O3 O 0.6448(4) 0.3065(3) 0.2143(3)
C4 C 0.5775(5) 0.3585(4) 0.2509(4)
C5 C 0.4568(5) 0.4128(4) 0.3625(4)
H1 H 0.4475 0.4515 0.4061
H2 H 0.4159 0.3664 0.3811
C6 C 0.5709(5) 0.3762(4) 0.3381(4)
C7 C 0.6237(5) 0.3072(4) 0.3960(4)
H3 H 0.6873 0.2744 0.3646
C8 C 0.5622(5) 0.2434(4) 0.4469(4)
C9 C 0.5245(6) 0.1823(4) 0.4126(5)
H4 H 0.5364 0.1802 0.3559
N1 N 0.4879(5) 0.1857(4) 0.5780(4)
C10 C 0.4704(7) 0.1252(5) 0.4604(6)
H5 H 0.4448 0.0835 0.4370
C11 C 0.4539(6) 0.1287(5) 0.5415(6)
H6 H 0.4163 0.0886 0.5738
C12 C 0.5396(5) 0.2419(4) 0.5288(4)
H7 H 0.5623 0.2843 0.5536
C13 C 0.4222(5) 0.4628(4) 0.2855(4)
H8 H 0.3472 0.4636 0.2852
H9 H 0.4349 0.5225 0.2813
C14 C 0.4887(5) 0.4141(4) 0.2180(4)
C15 C 0.4792(6) 0.4116(4) 0.1407(4)
H10 H 0.5320 0.3727 0.1113
C16 C 0.4003(6) 0.4596(4) 0.0947(4)
C17 C 0.3956(7) 0.4338(5) 0.0202(4)
H11 H 0.4439 0.3850 0.0020
C18 C 0.2571(8) 0.5709(5) 0.0706(6)
H12 H 0.2078 0.6197 0.0871
N2 N 0.3282(6) 0.4725(5) -0.0279(4)
C19 C 0.2598(7) 0.5389(5) -0.0017(5)
H13 H 0.2099 0.5659 -0.0346
C20 C 0.3293(8) 0.5292(5) 0.1192(6)
H14 H 0.3289 0.5496 0.1700
C21 C 0.6068(5) 0.5293(4) 0.3592(4)
C22 C 0.7496(5) 0.4326(4) 0.2923(4)
H15 H 0.7657 0.3787 0.2649
H16 H 0.8099 0.4376 0.3178
C23 C 0.6501(4) 0.4349(4) 0.3549(3)
C24 C 0.6568(5) 0.3787(4) 0.4347(3)
H17 H 0.5975 0.4024 0.4760
C25 C 0.7556(5) 0.3640(4) 0.4709(3)
C26 C 0.7755(6) 0.4265(4) 0.5151(4)
H18 H 0.7260 0.4774 0.5245
C27 C 0.9192(5) 0.2760(5) 0.4930(4)
H19 H 0.9668 0.2236 0.4868
N3 N 0.8716(6) 0.4123(5) 0.5457(4)
C28 C 0.9373(6) 0.3362(5) 0.5321(5)
H20 H 1.0010 0.3265 0.5529
C29 C 0.8296(5) 0.2913(5) 0.4615(4)
H21 H 0.8171 0.2489 0.4308
C30 C 0.7239(5) 0.5118(4) 0.2315(4)
H22 H 0.7876 0.5351 0.2074
H23 H 0.6916 0.4961 0.1879
C31 C 0.6487(5) 0.5753(4) 0.2819(4)
C32 C 0.6198(5) 0.6597(4) 0.2707(4)
H24 H 0.5728 0.6858 0.3139
C33 C 0.6498(5) 0.7186(4) 0.2012(4)
C34 C 0.6989(6) 0.6923(5) 0.1252(4)
H25 H 0.7144 0.6333 0.1156
N4 N 0.6498(6) 0.8664(4) 0.1521(4)
C35 C 0.7244(7) 0.7536(5) 0.0648(5)
H26 H 0.7590 0.7375 0.0132
C36 C 0.6990(7) 0.8373(6) 0.0806(5)
H27 H 0.7171 0.8787 0.0384
C37 C 0.6268(6) 0.8066(5) 0.2102(5)
H28 H 0.5926 0.8250 0.2612
O4 O 0.8352(4) 0.1739(3) 0.3042(3)
O5 O 0.9736(4) -0.0636(3) 0.0885(3)
C38 C 0.9088(5) 0.1278(4) 0.2692(4)
C39 C 1.0444(5) 0.0849(4) 0.1595(4)
H29 H 1.0824 0.1338 0.1465
H30 H 1.0606 0.0490 0.1132
C40 C 0.9273(4) 0.1159(4) 0.1804(4)
C41 C 0.8744(5) 0.1863(4) 0.1234(4)
H31 H 0.8080 0.2156 0.1544
C42 C 0.9326(5) 0.2544(4) 0.0785(4)
C43 C 0.9589(6) 0.3172(4) 0.1186(5)
H32 H 0.9417 0.3172 0.1755
C44 C 1.0073(5) 0.3202(4) -0.0484(4)
H33 H 1.0236 0.3214 -0.1053
N5 N 1.0102(6) 0.3797(4) 0.0750(5)
C45 C 1.0319(6) 0.3791(5) -0.0069(6)
H34 H 1.0662 0.4227 -0.0363
C46 C 0.9587(5) 0.2599(4) -0.0053(4)
H35 H 0.9407 0.2179 -0.0335
C47 C 1.0740(5) 0.0308(4) 0.2384(4)
H36 H 1.0644 -0.0294 0.2384
H37 H 1.1471 0.0315 0.2439
C48 C 0.9989(5) 0.0755(4) 0.3046(4)
C49 C 1.0069(5) 0.0818(4) 0.3810(4)
H38 H 0.9506 0.1171 0.4112
C50 C 1.0929(5) 0.0405(4) 0.4237(4)
C51 C 1.1514(5) -0.0405(4) 0.4083(4)
H39 H 1.1363 -0.0722 0.3687
N6 N 1.1946(5) 0.0503(4) 0.5273(4)
C52 C 1.2311(6) -0.0735(5) 0.4512(4)
H40 H 1.2728 -0.1278 0.4408
C53 C 1.2498(6) -0.0267(5) 0.5094(4)
H41 H 1.3050 -0.0504 0.5386
C54 C 1.1175(6) 0.0815(5) 0.4848(4)
H42 H 1.0765 0.1355 0.4972
C55 C 0.9076(5) -0.0372(4) 0.1455(4)
C56 C 0.7554(5) 0.0471(4) 0.2120(4)
H43 H 0.6993 0.0411 0.1823
H44 H 0.7322 0.0981 0.2433
C57 C 0.8552(5) 0.0548(4) 0.1544(3)
C58 C 0.8480(5) 0.1167(4) 0.0775(3)
H45 H 0.9087 0.0979 0.0352
C59 C 0.7493(6) 0.1325(4) 0.0413(4)
C60 C 0.7223(8) 0.0670(5) 0.0043(5)
H46 H 0.7671 0.0130 -0.0006
N7 N 0.5919(6) 0.2295(5) 0.0118(4)
C61 C 0.6268(9) 0.0837(6) -0.0253(5)
H47 H 0.6046 0.0405 -0.0493
C62 C 0.5663(8) 0.1636(7) -0.0190(5)
H48 H 0.5012 0.1729 -0.0379
C63 C 0.6799(6) 0.2101(6) 0.0441(4)
H49 H 0.6965 0.2534 0.0716
C64 C 0.7827(5) -0.0343(4) 0.2680(4)
H50 H 0.8085 -0.0203 0.3155
H51 H 0.7212 -0.0625 0.2864
C65 C 0.8662(5) -0.0903(4) 0.2167(4)
C66 C 0.9025(6) -0.1755(4) 0.2222(4)
H52 H 0.9544 -0.1962 0.1791
C67 C 0.8722(5) -0.2407(4) 0.2862(4)
C68 C 0.8125(6) -0.2230(5) 0.3603(4)
H53 H 0.7904 -0.1658 0.3751
N8 N 0.8846(6) -0.3927(4) 0.3221(4)
C69 C 0.7863(7) -0.2918(6) 0.4120(5)
H54 H 0.7424 -0.2827 0.4622
C70 C 0.8254(7) -0.3746(5) 0.3890(6)
H55 H 0.8071 -0.4210 0.4254
C71 C 0.9062(6) -0.3262(4) 0.2713(5)
H56 H 0.9481 -0.3383 0.2209
Cl2? Cl 0.2066(6) 0.7502(4) 0.3268(4)
Cl3? Cl 0.3797(7) 0.7003(6) 0.2152(6)
Cl4? Cl 0.2011(5) 0.8054(4) 0.1636(4)
loop_
_geom_bond_atom_site_label_1
_geom_bond_atom_site_label_2
_geom_bond_site_symmetry_1
_geom_bond_site_symmetry_2
Cl1 C1 1_555 1_555
C1 Cl5 1_555 1_555
Cl6 C1 1_555 1_555
Cl7 C1 1_555 1_555
C2 Cl8 1_555 1_555
Cl9 C2 1_555 1_555
Cl10 C2 1_555 1_555
Cl11 C2 1_555 1_555
C3 Cl12 1_555 1_555
Cl13 C3 1_555 1_555
Cl14 C3 1_555 1_555
Cl15 C3 1_555 1_555
O2 C21 1_555 1_555
O3 C4 1_555 1_555
O4 C38 1_555 1_555
O5 C55 1_555 1_555
C4 C6 1_555 1_555
C5 H1 1_555 1_555
H2 C5 1_555 1_555
C6 C5 1_555 1_555
C7 C6 1_555 1_555
H3 C7 1_555 1_555
C8 C7 1_555 1_555
C9 C8 1_555 1_555
H4 C9 1_555 1_555
N1 C11 1_555 1_555
C10 C9 1_555 1_555
H5 C10 1_555 1_555
C11 C10 1_555 1_555
H6 C11 1_555 1_555
C12 C8 1_555 1_555
H7 C12 1_555 1_555
C13 C5 1_555 1_555
H8 C13 1_555 1_555
H9 C13 1_555 1_555
C14 C4 1_555 1_555
C15 C14 1_555 1_555
H10 C15 1_555 1_555
C16 C15 1_555 1_555
C17 C16 1_555 1_555
H11 C17 1_555 1_555
C18 H12 1_555 1_555
N2 C17 1_555 1_555
C19 C18 1_555 1_555
H13 C19 1_555 1_555
C20 C16 1_555 1_555
H14 C20 1_555 1_555
C21 C23 1_555 1_555
C22 H15 1_555 1_555
H16 C22 1_555 1_555
C23 C6 1_555 1_555
C24 C7 1_555 1_555
H17 C24 1_555 1_555
C25 C24 1_555 1_555
C26 C25 1_555 1_555
H18 C26 1_555 1_555
C27 H19 1_555 1_555
N3 C26 1_555 1_555
C28 C27 1_555 1_555
H20 C28 1_555 1_555
C29 C25 1_555 1_555
H21 C29 1_555 1_555
C30 C22 1_555 1_555
H22 C30 1_555 1_555
H23 C30 1_555 1_555
C31 C21 1_555 1_555
C32 C31 1_555 1_555
H24 C32 1_555 1_555
C33 C32 1_555 1_555
C34 C33 1_555 1_555
H25 C34 1_555 1_555
N4 C36 1_555 1_555
C35 C34 1_555 1_555
H26 C35 1_555 1_555
C36 C35 1_555 1_555
H27 C36 1_555 1_555
C37 C33 1_555 1_555
H28 C37 1_555 1_555
C38 C40 1_555 1_555
C39 H29 1_555 1_555
H30 C39 1_555 1_555
C40 C39 1_555 1_555
C41 C40 1_555 1_555
H31 C41 1_555 1_555
C42 C41 1_555 1_555
C43 C42 1_555 1_555
H32 C43 1_555 1_555
C44 H33 1_555 1_555
N5 C43 1_555 1_555
C45 C44 1_555 1_555
H34 C45 1_555 1_555
C46 C42 1_555 1_555
H35 C46 1_555 1_555
C47 C39 1_555 1_555
H36 C47 1_555 1_555
H37 C47 1_555 1_555
C48 C38 1_555 1_555
C49 C48 1_555 1_555
H38 C49 1_555 1_555
C50 C49 1_555 1_555
C51 C50 1_555 1_555
H39 C51 1_555 1_555
N6 C53 1_555 1_555
C52 C51 1_555 1_555
H40 C52 1_555 1_555
C53 C52 1_555 1_555
H41 C53 1_555 1_555
C54 C50 1_555 1_555
H42 C54 1_555 1_555
C55 C57 1_555 1_555
C56 H43 1_555 1_555
H44 C56 1_555 1_555
C57 C40 1_555 1_555
C58 C41 1_555 1_555
H45 C58 1_555 1_555
C59 C58 1_555 1_555
C60 C59 1_555 1_555
H46 C60 1_555 1_555
N7 C62 1_555 1_555
C61 C60 1_555 1_555
H47 C61 1_555 1_555
C62 C61 1_555 1_555
H48 C62 1_555 1_555
C63 C59 1_555 1_555
H49 C63 1_555 1_555
C64 C56 1_555 1_555
H50 C64 1_555 1_555
H51 C64 1_555 1_555
C65 C55 1_555 1_555
C66 C65 1_555 1_555
H52 C66 1_555 1_555
C67 C66 1_555 1_555
C68 C67 1_555 1_555
H53 C68 1_555 1_555
N8 C70 1_555 1_555
C69 C68 1_555 1_555
H54 C69 1_555 1_555
C70 C69 1_555 1_555
H55 C70 1_555 1_555
C71 C67 1_555 1_555
H56 C71 1_555 1_555
N1 C12 1_555 1_555
C13 C14 1_555 1_555
C18 C20 1_555 1_555
N2 C19 1_555 1_555
C22 C23 1_555 1_555
C23 C24 1_555 1_555
C27 C29 1_555 1_555
N3 C28 1_555 1_555
C30 C31 1_555 1_555
N4 C37 1_555 1_555
C44 C46 1_555 1_555
N5 C45 1_555 1_555
C47 C48 1_555 1_555
N6 C54 1_555 1_555
C56 C57 1_555 1_555
C57 C58 1_555 1_555
N7 C63 1_555 1_555
C64 C65 1_555 1_555
N8 C71 1_555 1_555

#END
