
#######################################################################
#
#                 Cambridge Crystallographic Data Centre
#                                CCDC 
#
#######################################################################
#
# If this CIF has been generated from an entry in the Cambridge 
# Structural Database, then it will include bibliographic, chemical, 
# crystal, experimental, refinement or atomic coordinate data resulting 
# from the CCDC's data processing and validation procedures.
#
#######################################################################

data_JETFOE
_chemical_formula_moiety         'C25 H28 N4 O1'
_chemical_name_systematic        
3-Cyano-2-(dicyanomethylene)-4-(1-n-hexyl-1,2,3,4-tetrahydroquinolin-6-yl)-5,5-dimethyl-2,5-dihydrofuran
_symmetry_cell_setting           triclinic
_symmetry_space_group_name_H-M   'P -1'
_symmetry_Int_Tables_number      2
_space_group_name_Hall           '-P 1'
loop_
_symmetry_equiv_pos_site_id
_symmetry_equiv_pos_as_xyz
1 x,y,z
2 -x,-y,-z
_cell_length_a                   7.7832(12)
_cell_length_b                   9.7606(15)
_cell_length_c                   14.830(2)
_cell_angle_alpha                78.033(3)
_cell_angle_beta                 83.752(3)
_cell_angle_gamma                85.128(3)
_cell_volume                     1093.33
_exptl_crystal_colour            red
_exptl_crystal_description       irregular
_cell_formula_units_Z            2
loop_
_atom_site_label
_atom_site_type_symbol
_atom_site_fract_x
_atom_site_fract_y
_atom_site_fract_z
N1 N 0.2221(6) -0.7765(4) 0.3691(3)
N2 N 0.2351(6) -0.6167(4) 0.6203(3)
N3 N 0.1830(7) -0.5179(4) 0.1792(3)
N4 N 0.1967(5) 0.1793(5) -0.0486(3)
O1 O 0.2477(4) -0.3252(2) 0.44021(17)
C1 C 0.2361(5) -0.4255(4) 0.3934(3)
C2 C 0.2280(5) -0.3679(4) 0.2972(3)
C3 C 0.2332(4) -0.2227(4) 0.2831(2)
C4 C 0.2401(5) -0.1864(4) 0.3771(2)
C5 C 0.2327(5) -0.5618(4) 0.4428(3)
C6 C 0.2267(6) -0.6796(4) 0.3998(3)
C7 C 0.2343(6) -0.5901(4) 0.5412(3)
C8 C 0.2045(6) -0.4500(4) 0.2313(3)
C9 C 0.0742(5) -0.1107(4) 0.4121(3)
H1 H -0.0265 -0.1536 0.3981
H2 H 0.0713 -0.0114 0.3816
H3 H 0.0714 -0.1184 0.4792
C10 C 0.4061(5) -0.1191(4) 0.3860(3)
H4 H 0.4163 -0.1197 0.4514
H5 H 0.4023 -0.0221 0.3511
H6 H 0.5063 -0.1723 0.3612
C11 C 0.2305(5) -0.1201(4) 0.1989(2)
C12 C 0.2504(5) -0.1588(5) 0.1109(3)
H7 H 0.2692 -0.2556 0.1086
C13 C 0.2436(5) -0.0632(6) 0.0290(3)
C14 C 0.2143(5) 0.0832(5) 0.0306(3)
C15 C 0.2035(5) 0.1233(4) 0.1179(3)
H8 H 0.1903 0.2200 0.1206
C16 C 0.2118(5) 0.0254(4) 0.1980(3)
H9 H 0.2047 0.0562 0.2551
C17 C 0.2656(6) -0.1095(7) -0.0618(3)
H10 H 0.1535 -0.1376 -0.0754
H11 H 0.3496 -0.1921 -0.0583
C18 C 0.3296(8) 0.0072(10) -0.1387(3)
H12 H 0.4490 0.0261 -0.1298
H13 H 0.3323 -0.0220 -0.1989
C19 C 0.2142(8) 0.1377(9) -0.1394(3)
H14 H 0.2625 0.2146 -0.1874
H15 H 0.0984 0.1217 -0.1556
C20 C 0.1533(9) 0.3283(7) -0.0477(5)
H16 H 0.0812 0.3370 0.0103
H17 H 0.0847 0.3701 -0.1002
C21 C 0.3152(13) 0.4088(11) -0.0548(7)
H18 H 0.3126 0.4420 0.0041
H19 H 0.4150 0.3389 -0.0558
C22 C 0.3520(9) 0.5117(7) -0.1183(4)
H20 H 0.4753 0.4894 -0.1376
H21 H 0.3529 0.5889 -0.0845
C23 C 0.2855(7) 0.5814(5) -0.2040(3)
H22 H 0.2933 0.5082 -0.2418
H23 H 0.1603 0.6004 -0.1875
C24 C 0.3347(14) 0.6984(11) -0.2642(6)
H24 H 0.4582 0.6765 -0.2832
H25 H 0.3343 0.7694 -0.2252
C25 C 0.2680(7) 0.7734(5) -0.3460(3)
H26 H 0.1709 0.7253 -0.3592
H27 H 0.3590 0.7786 -0.3975
H28 H 0.2278 0.8685 -0.3382
loop_
_geom_bond_atom_site_label_1
_geom_bond_atom_site_label_2
_geom_bond_site_symmetry_1
_geom_bond_site_symmetry_2
N1 C6 1_555 1_555
N2 C7 1_555 1_555
N3 C8 1_555 1_555
N4 C14 1_555 1_555
O1 C1 1_555 1_555
C1 C2 1_555 1_555
C2 C3 1_555 1_555
C3 C4 1_555 1_555
C4 O1 1_555 1_555
C5 C1 1_555 1_555
C6 C5 1_555 1_555
C7 C5 1_555 1_555
C8 C2 1_555 1_555
C9 C4 1_555 1_555
H1 C9 1_555 1_555
H2 C9 1_555 1_555
H3 C9 1_555 1_555
C10 C4 1_555 1_555
H4 C10 1_555 1_555
H5 C10 1_555 1_555
H6 C10 1_555 1_555
C11 C3 1_555 1_555
C12 C11 1_555 1_555
H7 C12 1_555 1_555
C13 C12 1_555 1_555
C14 C13 1_555 1_555
C15 C14 1_555 1_555
H8 C15 1_555 1_555
C16 C11 1_555 1_555
H9 C16 1_555 1_555
C17 C13 1_555 1_555
H10 C17 1_555 1_555
H11 C17 1_555 1_555
C18 C17 1_555 1_555
H12 C18 1_555 1_555
H13 C18 1_555 1_555
C19 N4 1_555 1_555
H14 C19 1_555 1_555
H15 C19 1_555 1_555
C20 N4 1_555 1_555
H16 C20 1_555 1_555
H17 C20 1_555 1_555
C21 C20 1_555 1_555
H18 C21 1_555 1_555
H19 C21 1_555 1_555
C22 C21 1_555 1_555
H20 C22 1_555 1_555
H21 C22 1_555 1_555
C23 C22 1_555 1_555
H22 C23 1_555 1_555
H23 C23 1_555 1_555
C24 C23 1_555 1_555
H24 C24 1_555 1_555
H25 C24 1_555 1_555
C25 C24 1_555 1_555
H26 C25 1_555 1_555
H27 C25 1_555 1_555
H28 C25 1_555 1_555
C15 C16 1_555 1_555
C18 C19 1_555 1_555

#END
