
#######################################################################
#
#                 Cambridge Crystallographic Data Centre
#                                CCDC 
#
#######################################################################
#
# If this CIF has been generated from an entry in the Cambridge 
# Structural Database, then it will include bibliographic, chemical, 
# crystal, experimental, refinement or atomic coordinate data resulting 
# from the CCDC's data processing and validation procedures.
#
#######################################################################

data_JETGAR
_chemical_formula_moiety         'C22 H20 N4 O1'
_chemical_name_systematic        
(3-Cyano-5,5-dimethyl-4-(2,3,6,7-tetrahydro-1H,5H-pyrido(3,2,1-ij)quinolin-9-yl)furan-2(5H)-ylidene)malononitrile
_symmetry_cell_setting           monoclinic
_symmetry_space_group_name_H-M   'P 21/c'
_symmetry_Int_Tables_number      14
_space_group_name_Hall           '-P 2ybc'
loop_
_symmetry_equiv_pos_site_id
_symmetry_equiv_pos_as_xyz
1 x,y,z
2 -x,1/2+y,1/2-z
3 -x,-y,-z
4 x,1/2-y,1/2+z
_cell_length_a                   11.048(3)
_cell_length_b                   9.683(3)
_cell_length_c                   17.080(5)
_cell_angle_alpha                90
_cell_angle_beta                 98.456(5)
_cell_angle_gamma                90
_cell_volume                     1807.32
_exptl_crystal_colour            red
_exptl_crystal_description       irregular
_cell_formula_units_Z            4
loop_
_atom_site_label
_atom_site_type_symbol
_atom_site_fract_x
_atom_site_fract_y
_atom_site_fract_z
N1 N 0.9330(2) -0.1931(2) 0.59025(15)
N2 N 0.4782(3) 0.2947(3) 0.61227(17)
N3 N 0.2690(3) 0.5359(3) 0.52846(18)
N4 N 0.1933(3) 0.4852(3) 0.27332(18)
O1 O 0.43912(19) 0.2734(2) 0.33304(11)
C1 C 0.9948(3) -0.2983(3) 0.54820(19)
H1 H 0.9512 -0.3874 0.5495
H2 H 1.0794 -0.3112 0.5757
C2 C 0.9987(3) -0.2580(3) 0.46286(19)
H3 H 1.0533 -0.1773 0.4612
H4 H 1.0322 -0.3354 0.4348
C3 C 0.8715(3) -0.2225(3) 0.42181(19)
H5 H 0.8763 -0.1872 0.3680
H6 H 0.8201 -0.3068 0.4167
C4 C 0.8137(3) -0.1147(3) 0.46840(17)
C5 C 0.8495(3) -0.1052(3) 0.55134(18)
C6 C 0.7992(3) 0.0028(3) 0.59398(17)
C7 C 0.8503(3) 0.0241(3) 0.67959(17)
H7 H 0.7894 0.0729 0.7067
H8 H 0.9248 0.0820 0.6837
C8 C 0.8814(3) -0.1143(3) 0.71929(18)
H9 H 0.9178 -0.0996 0.7752
H10 H 0.8059 -0.1696 0.7185
C9 C 0.9712(3) -0.1915(3) 0.67612(18)
H11 H 1.0526 -0.1473 0.6879
H12 H 0.9789 -0.2877 0.6958
C10 C 0.7275(3) -0.0255(3) 0.43171(18)
H13 H 0.7066 -0.0311 0.3758
C11 C 0.6680(3) 0.0748(3) 0.47267(17)
C12 C 0.7101(3) 0.0861(3) 0.55526(17)
H14 H 0.6746 0.1544 0.5847
C13 C 0.5723(3) 0.1605(3) 0.43355(17)
C14 C 0.4942(3) 0.2497(3) 0.46540(16)
C15 C 0.4160(3) 0.3172(3) 0.40324(17)
C16 C 0.3251(3) 0.4140(3) 0.40452(17)
C17 C 0.2537(3) 0.4557(3) 0.3318(2)
C18 C 0.2967(3) 0.4790(3) 0.4749(2)
C19 C 0.4864(3) 0.2739(3) 0.5466(2)
C20 C 0.5410(3) 0.1724(3) 0.34342(17)
C21 C 0.6443(3) 0.2399(3) 0.30687(17)
H15 H 0.6168 0.2576 0.2506
H16 H 0.7154 0.1781 0.3126
H17 H 0.6672 0.3274 0.3339
C22 C 0.4877(3) 0.0449(3) 0.29952(18)
H18 H 0.4260 0.0037 0.3281
H19 H 0.5531 -0.0222 0.2960
H20 H 0.4496 0.0709 0.2461
loop_
_geom_bond_atom_site_label_1
_geom_bond_atom_site_label_2
_geom_bond_site_symmetry_1
_geom_bond_site_symmetry_2
N1 C1 1_555 1_555
N2 C19 1_555 1_555
N3 C18 1_555 1_555
N4 C17 1_555 1_555
O1 C15 1_555 1_555
C1 H1 1_555 1_555
H2 C1 1_555 1_555
C2 C1 1_555 1_555
H3 C2 1_555 1_555
H4 C2 1_555 1_555
C3 C2 1_555 1_555
H5 C3 1_555 1_555
H6 C3 1_555 1_555
C4 C3 1_555 1_555
C5 N1 1_555 1_555
C6 C5 1_555 1_555
C7 C6 1_555 1_555
H7 C7 1_555 1_555
H8 C7 1_555 1_555
C8 C7 1_555 1_555
H9 C8 1_555 1_555
H10 C8 1_555 1_555
C9 N1 1_555 1_555
H11 C9 1_555 1_555
H12 C9 1_555 1_555
C10 C4 1_555 1_555
H13 C10 1_555 1_555
C11 C10 1_555 1_555
C12 C6 1_555 1_555
H14 C12 1_555 1_555
C13 C11 1_555 1_555
C14 C13 1_555 1_555
C15 C14 1_555 1_555
C16 C15 1_555 1_555
C17 C16 1_555 1_555
C18 C16 1_555 1_555
C19 C14 1_555 1_555
C20 O1 1_555 1_555
C21 C20 1_555 1_555
H15 C21 1_555 1_555
H16 C21 1_555 1_555
H17 C21 1_555 1_555
C22 C20 1_555 1_555
H18 C22 1_555 1_555
H19 C22 1_555 1_555
H20 C22 1_555 1_555
C4 C5 1_555 1_555
C8 C9 1_555 1_555
C11 C12 1_555 1_555
C13 C20 1_555 1_555

#END
