
#######################################################################
#
#                 Cambridge Crystallographic Data Centre
#                                CCDC 
#
#######################################################################
#
# If this CIF has been generated from an entry in the Cambridge 
# Structural Database, then it will include bibliographic, chemical, 
# crystal, experimental, refinement or atomic coordinate data resulting 
# from the CCDC's data processing and validation procedures.
#
#######################################################################

data_JETGOF
_chemical_formula_moiety         'C20 H16 O3'
_chemical_name_systematic        
5,22-Dioxahexacyclo(7.6.6.1^3,6^.0^2,8^.0^10,15^.0^16,21^)docosa-10,12,14,16,18,20-hexaen-7-one
_symmetry_cell_setting           orthorhombic
_symmetry_space_group_name_H-M   'P 21 21 21'
_symmetry_Int_Tables_number      19
_space_group_name_Hall           'P 2ac 2ab'
loop_
_symmetry_equiv_pos_site_id
_symmetry_equiv_pos_as_xyz
1 x,y,z
2 1/2+x,1/2-y,-z
3 -x,1/2+y,1/2-z
4 1/2-x,-y,1/2+z
_cell_length_a                   8.530(5)
_cell_length_b                   12.541(5)
_cell_length_c                   13.627(5)
_cell_angle_alpha                90
_cell_angle_beta                 90
_cell_angle_gamma                90
_cell_volume                     1457.74
_exptl_crystal_colour            colorless
_exptl_crystal_description       block
_chemical_melting_point          235-236deg.C
_cell_formula_units_Z            4
loop_
_atom_site_label
_atom_site_type_symbol
_atom_site_fract_x
_atom_site_fract_y
_atom_site_fract_z
C1 C 0.4758(3) 0.30360(17) 0.76144(15)
C2 C 0.6446(3) 0.29486(16) 0.79435(15)
C3 C 0.7392(2) 0.39784(16) 0.79693(13)
C4 C 0.6384(2) 0.50122(15) 0.79321(12)
C5 C 0.4698(2) 0.48012(16) 0.76139(15)
C6 C 0.4587(3) 0.4439(2) 0.65444(17)
C7 C 0.6532(2) 0.56036(13) 0.89412(13)
C8 C 0.8249(2) 0.59266(14) 0.89887(12)
C9 C 0.8813(3) 0.69627(15) 0.90433(14)
C10 C 1.0444(3) 0.71177(17) 0.90701(15)
C11 C 1.1454(3) 0.62569(19) 0.90351(16)
C12 C 1.0870(3) 0.52153(17) 0.89686(16)
C13 C 0.9270(2) 0.50583(14) 0.89502(14)
C14 C 0.8434(2) 0.39912(14) 0.89120(14)
C15 C 0.7312(2) 0.39687(16) 0.97673(13)
C16 C 0.7247(3) 0.31912(17) 1.04931(17)
C17 C 0.6161(4) 0.3291(2) 1.12402(17)
C18 C 0.5129(3) 0.4135(2) 1.12554(16)
C19 C 0.5146(3) 0.4906(2) 1.05093(15)
C20 C 0.6265(2) 0.48255(15) 0.97719(12)
O1 O 0.4730(2) 0.32893(14) 0.66071(12)
O2 O 0.40554(17) 0.38891(11) 0.81232(10)
O3 O 0.6992(2) 0.20966(13) 0.81577(18)
H1 H 0.4182 0.2355 0.7742
H2 H 0.8104 0.3981 0.7387
H3 H 0.6863 0.5487 0.7424
H4 H 0.4032 0.5446 0.7726
H5 H 0.5457 0.4750 0.6145
H6 H 0.3556 0.4647 0.6251
H7 H 0.5817 0.6234 0.8983
H8 H 0.8077 0.7583 0.9063
H9 H 1.0877 0.7857 0.9115
H10 H 1.2612 0.6379 0.9057
H11 H 1.1603 0.4594 0.8935
H12 H 0.9186 0.3379 0.8928
H13 H 0.7977 0.2567 1.0475
H14 H 0.6125 0.2745 1.1775
H15 H 0.4358 0.4199 1.1805
H16 H 0.4368 0.5503 1.0508
loop_
_geom_bond_atom_site_label_1
_geom_bond_atom_site_label_2
_geom_bond_site_symmetry_1
_geom_bond_site_symmetry_2
C1 C2 1_555 1_555
C2 C3 1_555 1_555
C3 C4 1_555 1_555
C4 C5 1_555 1_555
C5 C6 1_555 1_555
C6 O1 1_555 1_555
C7 C4 1_555 1_555
C8 C7 1_555 1_555
C9 C8 1_555 1_555
C10 C9 1_555 1_555
C11 C10 1_555 1_555
C12 C11 1_555 1_555
C13 C8 1_555 1_555
C14 C3 1_555 1_555
C15 C14 1_555 1_555
C16 C15 1_555 1_555
C17 C16 1_555 1_555
C18 C17 1_555 1_555
C19 C18 1_555 1_555
C20 C7 1_555 1_555
O1 C1 1_555 1_555
O2 C1 1_555 1_555
O3 C2 1_555 1_555
H1 C1 1_555 1_555
H2 C3 1_555 1_555
H3 C4 1_555 1_555
H4 C5 1_555 1_555
H5 C6 1_555 1_555
H6 C6 1_555 1_555
H7 C7 1_555 1_555
H8 C9 1_555 1_555
H9 C10 1_555 1_555
H10 C11 1_555 1_555
H11 C12 1_555 1_555
H12 C14 1_555 1_555
H13 C16 1_555 1_555
H14 C17 1_555 1_555
H15 C18 1_555 1_555
H16 C19 1_555 1_555
C5 O2 1_555 1_555
C12 C13 1_555 1_555
C13 C14 1_555 1_555
C15 C20 1_555 1_555
C19 C20 1_555 1_555

#END
