
#######################################################################
#
#                 Cambridge Crystallographic Data Centre
#                                CCDC 
#
#######################################################################
#
# If this CIF has been generated from an entry in the Cambridge 
# Structural Database, then it will include bibliographic, chemical, 
# crystal, experimental, refinement or atomic coordinate data resulting 
# from the CCDC's data processing and validation procedures.
#
#######################################################################

data_JETHIA
_chemical_formula_moiety         'C52 H68 N4 O8,C2 H3 N1'
_chemical_name_systematic        
'25,26,27,28-tetrakis(2-(n-Butylamino)-2-oxoethoxy)calix(4)arene acetonitrile solvate'
_symmetry_cell_setting           triclinic
_symmetry_space_group_name_H-M   'P -1'
_symmetry_Int_Tables_number      2
_space_group_name_Hall           '-P 1'
loop_
_symmetry_equiv_pos_site_id
_symmetry_equiv_pos_as_xyz
1 x,y,z
2 -x,-y,-z
_cell_length_a                   12.9335(4)
_cell_length_b                   16.6625(5)
_cell_length_c                   25.6605(8)
_cell_angle_alpha                108.0800(10)
_cell_angle_beta                 102.9830(10)
_cell_angle_gamma                90.0480(10)
_cell_volume                     5107.64
_exptl_crystal_colour            colorless
_exptl_crystal_description       block
_cell_formula_units_Z            4
loop_
_atom_site_label
_atom_site_type_symbol
_atom_site_fract_x
_atom_site_fract_y
_atom_site_fract_z
C1 C 0.35336(16) 0.59767(12) 0.21742(8)
C2 C 0.34525(19) 0.53323(13) 0.16679(9)
H1 H 0.4082 0.5137 0.1555
C3 C 0.2477(2) 0.49702(14) 0.13261(9)
H2 H 0.2438 0.4540 0.0976
C4 C 0.15600(19) 0.52329(13) 0.14921(9)
H3 H 0.0893 0.4967 0.1259
C5 C 0.15872(17) 0.58789(12) 0.19927(8)
C6 C 0.05747(17) 0.61371(13) 0.21838(9)
H4 H 0.0522 0.6752 0.2251
H5 H -0.0047 0.5835 0.1881
C7 C 0.05457(15) 0.59390(12) 0.27170(9)
C8 C 0.07031(17) 0.65651(12) 0.32390(9)
H6 H 0.0741 0.7144 0.3259
C9 C 0.08060(17) 0.63580(13) 0.37295(9)
H7 H 0.0876 0.6792 0.4081
C10 C 0.08071(16) 0.55163(13) 0.37062(9)
H8 H 0.0912 0.5378 0.4046
C11 C 0.06569(14) 0.48689(12) 0.31921(8)
C12 C 0.07764(15) 0.39609(12) 0.31832(8)
H9 H 0.0660 0.3588 0.2787
H10 H 0.0225 0.3788 0.3348
C13 C 0.18710(15) 0.38420(11) 0.35117(8)
C14 C 0.19487(17) 0.36093(12) 0.39961(8)
H11 H 0.1316 0.3499 0.4100
C15 C 0.29257(17) 0.35343(13) 0.43286(9)
H12 H 0.2961 0.3373 0.4656
C16 C 0.38508(17) 0.36978(13) 0.41791(9)
H13 H 0.4521 0.3646 0.4406
C17 C 0.38152(15) 0.39359(11) 0.37039(8)
C18 C 0.48326(15) 0.41362(12) 0.35489(9)
H14 H 0.5450 0.4007 0.3809
H15 H 0.4822 0.3767 0.3162
C19 C 0.49709(14) 0.50531(12) 0.35769(8)
C20 C 0.51464(16) 0.56997(13) 0.40914(9)
H16 H 0.5228 0.5560 0.4430
C21 C 0.52039(17) 0.65395(14) 0.41190(9)
H17 H 0.5357 0.6971 0.4475
C22 C 0.50389(16) 0.67520(13) 0.36287(9)
H18 H 0.5052 0.7332 0.3651
C23 C 0.48551(15) 0.61319(12) 0.31042(9)
C24 C 0.46017(16) 0.63643(13) 0.25633(9)
H19 H 0.4610 0.6988 0.2662
H20 H 0.5167 0.6176 0.2358
C25 C 0.25863(16) 0.62586(12) 0.23180(8)
O1 O 0.26536(11) 0.69460(8) 0.28053(5)
C26 C 0.48855(14) 0.52870(12) 0.30915(8)
O2 O 0.47969(10) 0.46533(8) 0.25758(5)
C27 C 0.28204(15) 0.39932(11) 0.33672(8)
O3 O 0.28427(10) 0.42754(8) 0.29159(5)
C28 C 0.04512(14) 0.50945(12) 0.27030(8)
O4 O 0.01879(10) 0.44702(8) 0.21768(5)
C29 C 0.25701(19) 0.77234(12) 0.26816(9)
H21 H 0.1835 0.7747 0.2471
H22 H 0.3057 0.7747 0.2438
O5 O 0.27498(14) 0.91900(9) 0.31681(7)
C30 C 0.28450(17) 0.84818(13) 0.32136(9)
N1 N 0.32004(14) 0.83237(11) 0.36970(7)
H23 H 0.3221 0.7794 0.3693
O6 O 0.62857(12) 0.38631(10) 0.15600(6)
C31 C 0.35592(18) 0.89996(14) 0.42370(9)
H24 H 0.3868 0.9491 0.4169
H25 H 0.4129 0.8798 0.4484
O7 O 0.36388(11) 0.26530(9) 0.23629(6)
C32 C 0.26822(18) 0.92860(14) 0.45408(9)
H26 H 0.2129 0.9513 0.4301
H27 H 0.2980 0.9753 0.4894
O8 O -0.02057(12) 0.27658(9) 0.16969(7)
C33 C 0.2165(2) 0.85913(15) 0.46850(10)
H28 H 0.2728 0.8278 0.4850
H29 H 0.1726 0.8188 0.4334
C34 C 0.1466(2) 0.8927(2) 0.50989(11)
H30 H 0.1911 0.9265 0.5465
H31 H 0.1089 0.8451 0.5143
H32 H 0.0948 0.9282 0.4954
C35 C 0.57896(16) 0.45693(13) 0.24113(9)
H33 H 0.6344 0.4463 0.2712
H34 H 0.6011 0.5102 0.2359
C36 C 0.56825(16) 0.38494(13) 0.18699(9)
N2 N 0.49520(14) 0.32264(11) 0.17654(7)
H35 H 0.4606 0.3241 0.2026
C37 C 0.46901(19) 0.25175(14) 0.12421(10)
H36 H 0.4599 0.1988 0.1330
H37 H 0.5287 0.2465 0.1053
C38 C 0.3682(2) 0.26270(15) 0.08441(10)
H38 H 0.3764 0.3170 0.0771
H39 H 0.3083 0.2659 0.1030
C39 C 0.3407(2) 0.19145(19) 0.02830(11)
H40 H 0.3326 0.1370 0.0354
H41 H 0.4002 0.1885 0.0094
C40 C 0.2382(3) 0.2037(3) -0.01099(13)
H42 H 0.1793 0.2080 0.0078
H43 H 0.2221 0.1553 -0.0458
H44 H 0.2474 0.2558 -0.0201
C41 C 0.23981(16) 0.37243(12) 0.23535(8)
H45 H 0.2643 0.3946 0.2082
H46 H 0.1613 0.3725 0.2274
C42 C 0.27033(15) 0.28243(13) 0.22633(8)
N3 N 0.18935(13) 0.22313(10) 0.20596(7)
H47 H 0.1238 0.2386 0.2001
C43 C 0.20646(18) 0.13350(13) 0.19318(10)
H48 H 0.1445 0.1035 0.1976
H49 H 0.2699 0.1264 0.2208
C44 C 0.2223(2) 0.09274(15) 0.13365(10)
H50 H 0.2841 0.1232 0.1294
H51 H 0.2397 0.0335 0.1292
C45 C 0.1269(2) 0.09272(19) 0.08684(12)
H52 H 0.1043 0.1511 0.0937
H53 H 0.1487 0.0757 0.0506
C46 C 0.0336(3) 0.0347(3) 0.08180(15)
H54 H 0.0545 -0.0237 0.0737
H55 H -0.0251 0.0382 0.0511
H56 H 0.0106 0.0516 0.1173
C47 C -0.08898(15) 0.41291(12) 0.20177(8)
H57 H -0.1337 0.4444 0.1793
H58 H -0.1157 0.4192 0.2360
C48 C -0.09668(16) 0.32010(13) 0.16728(8)
N4 N -0.19453(14) 0.28918(10) 0.13626(7)
H59 H -0.2443 0.3253 0.1370
C53 C -0.2207(16) 0.1991(4) 0.1091(3)
H69 H -0.2624 0.1780 0.1308
H70 H -0.1540 0.1700 0.1101
C54 C -0.2828(4) 0.1770(2) 0.04944(16)
H71 H -0.2400 0.1972 0.0278
H72 H -0.3482 0.2078 0.0486
C55 C -0.3142(5) 0.0838(3) 0.02000(19)
H73 H -0.2485 0.0535 0.0191
H74 H -0.3533 0.0629 0.0429
C56 C -0.3804(4) 0.0611(4) -0.0381(2)
H75 H -0.4437 0.0934 -0.0384
H76 H -0.4024 0.0004 -0.0519
H77 H -0.3393 0.0743 -0.0625
C57 C 0.63084(16) 1.10081(12) 0.21049(8)
C58 C 0.60493(18) 1.03410(13) 0.16009(9)
H78 H 0.5326 1.0138 0.1435
C59 C 0.68309(19) 0.99692(13) 0.13382(9)
H79 H 0.6641 0.9523 0.0989
C60 C 0.78885(18) 1.02441(13) 0.15814(9)
H80 H 0.8421 0.9969 0.1405
C61 C 0.81867(16) 1.09191(12) 0.20826(9)
C62 C 0.93497(17) 1.12120(13) 0.23620(10)
H81 H 0.9793 1.0941 0.2097
H82 H 0.9450 1.1833 0.2448
C63 C 0.97151(15) 1.09939(12) 0.29012(9)
C64 C 0.99775(16) 1.16088(13) 0.34277(10)
H83 H 1.0018 1.2190 0.3454
C65 C 1.01808(17) 1.13828(14) 0.39156(10)
H84 H 1.0397 1.1806 0.4274
C66 C 1.00695(16) 1.05417(14) 0.38812(10)
H85 H 1.0167 1.0396 0.4218
C67 C 0.98167(16) 0.99052(13) 0.33610(9)
C68 C 0.96039(17) 0.89915(13) 0.33241(10)
H86 H 1.0256 0.8798 0.3520
H87 H 0.9436 0.8635 0.2923
C69 C 0.86891(17) 0.88705(12) 0.35835(9)
C70 C 0.88843(19) 0.86079(13) 0.40587(9)
H88 H 0.9580 0.8465 0.4198
C71 C 0.8101(2) 0.85488(13) 0.43335(9)
H89 H 0.8262 0.8373 0.4659
C72 C 0.70769(18) 0.87458(12) 0.41346(9)
H90 H 0.6541 0.8714 0.4328
C73 C 0.68330(16) 0.89897(12) 0.36528(8)
C74 C 0.57078(16) 0.91990(12) 0.34281(9)
H91 H 0.5438 0.8824 0.3035
H92 H 0.5239 0.9085 0.3657
C75 C 0.56564(15) 1.01134(12) 0.34415(8)
C76 C 0.58729(16) 1.07718(13) 0.39539(9)
H93 H 0.6002 1.0643 0.4298
C77 C 0.59022(18) 1.16086(13) 0.39681(9)
H94 H 0.6020 1.2049 0.4320
C78 C 0.57616(16) 1.18070(13) 0.34739(9)
H95 H 0.5816 1.2383 0.3490
C79 C 0.55403(15) 1.11723(12) 0.29514(8)
C80 C 0.54614(16) 1.13860(12) 0.24141(9)
H96 H 0.5528 1.2009 0.2506
H97 H 0.4750 1.1175 0.2161
C81 C 0.73758(16) 1.12960(12) 0.23296(8)
O9 O 0.76525(11) 1.19890(8) 0.28233(5)
C82 C 0.97132(15) 1.01447(12) 0.28806(9)
O10 O 0.95279(11) 0.95307(8) 0.23507(6)
C83 C 0.76380(16) 0.90413(12) 0.33778(8)
O11 O 0.73503(11) 0.93231(8) 0.29130(5)
C84 C 0.54422(14) 1.03360(12) 0.29477(8)
O12 O 0.51236(10) 0.96921(8) 0.24307(5)
C85 C 0.76150(18) 1.27693(12) 0.27024(9)
H98 H 0.6869 1.2848 0.2536
H99 H 0.8037 1.2746 0.2421
O13 O 0.80602(12) 1.42241(9) 0.31781(6)
C86 C 0.80450(15) 1.35137(12) 0.32240(8)
N5 N 0.84147(14) 1.33445(11) 0.37052(7)
H100 H 0.8376 1.2816 0.3703
O14 O 0.94643(13) 0.78527(9) 0.18191(8)
C87 C 0.88829(17) 1.40102(14) 0.42367(9)
H101 H 0.9190 1.4487 0.4152
H102 H 0.9470 1.3785 0.4458
O15 O 0.61182(11) 0.76541(9) 0.23370(6)
C88 C 0.80874(18) 1.43395(14) 0.45906(9)
H103 H 0.8437 1.4820 0.4925
H104 H 0.7493 1.4555 0.4367
O16 O 0.27562(12) 0.87460(10) 0.14184(6)
C89 C 0.7647(2) 1.36739(15) 0.47837(10)
H105 H 0.8243 1.3460 0.5008
H106 H 0.7302 1.3193 0.4449
C90 C 0.6844(2) 1.3997(2) 0.51381(11)
H107 H 0.7190 1.4454 0.5481
H108 H 0.6572 1.3533 0.5242
H109 H 0.6252 1.4213 0.4920
C91 C 1.04665(17) 0.91993(13) 0.21947(10)
H110 H 1.1007 0.9189 0.2533
H111 H 1.0767 0.9559 0.2013
C92 C 1.01738(16) 0.83098(13) 0.17873(9)
N6 N 1.07708(15) 0.80526(11) 0.14176(8)
H112 H 1.1252 0.8418 0.1407
C93 C 1.0667(2) 0.71911(15) 0.10267(10)
H113 H 0.9952 0.6932 0.0985
H114 H 1.1196 0.6859 0.1197
C94 C 1.0814(3) 0.7113(2) 0.04556(14)
H115 H 1.1521 0.7385 0.0495
H116 H 1.0269 0.7424 0.0277
C95 C 1.0737(4) 0.6214(3) 0.00757(15)
H117 H 1.1281 0.5901 0.0254
H118 H 1.0029 0.5942 0.0033
C96 C 1.0893(4) 0.6151(3) -0.04893(19)
H119 H 1.0405 0.6507 -0.0652
H120 H 1.0748 0.5562 -0.0735
H121 H 1.1629 0.6344 -0.0455
C101 C 0.73618(17) 0.87484(12) 0.23650(8)
H131 H 0.8093 0.8762 0.2309
H132 H 0.6893 0.8943 0.2073
C102 C 0.69984(16) 0.78454(13) 0.22854(8)
N7 N 0.76988(15) 0.72826(11) 0.21455(9)
H133 H 0.8297 0.7461 0.2093
C103 C 0.7528(4) 0.6387(2) 0.20741(15)
H134 H 0.7123 0.6311 0.2342
H135 H 0.8219 0.6136 0.2144
C104 C 0.6895(4) 0.5959(3) 0.14615(17)
H136 H 0.6227 0.6235 0.1381
H137 H 0.6717 0.5351 0.1393
C105 C 0.7647(6) 0.6070(4) 0.1082(3)
H138 H 0.7327 0.6469 0.0886
H139 H 0.8329 0.6353 0.1338
C106 C 0.7880(11) 0.5397(8) 0.0690(5)
H140 H 0.8157 0.4972 0.0866
H141 H 0.8418 0.5573 0.0525
H142 H 0.7235 0.5155 0.0394
C111 C 0.40016(16) 0.96153(13) 0.22248(9)
H152 H 0.3782 1.0100 0.2091
H153 H 0.3657 0.9634 0.2536
C112 C 0.36326(17) 0.88032(13) 0.17502(9)
N8 N 0.42607(14) 0.81699(11) 0.17312(7)
H154 H 0.4867 0.8260 0.1986
C113 C 0.39991(19) 0.73371(14) 0.13116(10)
H155 H 0.3216 0.7221 0.1197
H156 H 0.4301 0.6907 0.1483
C114 C 0.4413(2) 0.72499(15) 0.07938(9)
H157 H 0.5194 0.7380 0.0908
H158 H 0.4095 0.7667 0.0614
C115 C 0.4159(2) 0.63635(17) 0.03653(11)
H159 H 0.4493 0.5948 0.0543
H160 H 0.3379 0.6228 0.0260
C116 C 0.4544(4) 0.6275(2) -0.01625(12)
H161 H 0.4177 0.6655 -0.0355
H162 H 0.4392 0.5689 -0.0414
H163 H 0.5313 0.6423 -0.0060
N9 N 0.6183(3) 0.85148(17) 0.52703(13)
C117 C 0.6557(2) 0.86070(16) 0.57355(13)
C118 C 0.7014(2) 0.87272(17) 0.63280(12)
H164 H 0.7066 0.9331 0.6543
H165 H 0.7726 0.8518 0.6372
H166 H 0.6560 0.8414 0.6469
N10 N 0.9052(2) 0.66421(17) 0.47963(12)
C119 C 0.8573(2) 0.64757(15) 0.43437(13)
C120 C 0.7962(2) 0.62659(16) 0.37614(12)
H167 H 0.8183 0.6669 0.3591
H168 H 0.7203 0.6297 0.3753
H169 H 0.8092 0.5691 0.3548
C49? C -0.2267(19) 0.2017(5) 0.1015(3)
H60? H -0.2987 0.1872 0.1047
H61? H -0.1775 0.1646 0.1168
C50? C -0.2285(4) 0.1824(3) 0.0405(2)
H62? H -0.1553 0.1926 0.0370
H63? H -0.2734 0.2223 0.0257
C51? C -0.2700(4) 0.0925(3) 0.0039(2)
H64? H -0.2284 0.0525 0.0202
H65? H -0.2575 0.0831 -0.0342
C52? C -0.3878(4) 0.0720(4) -0.0021(3)
H66? H -0.4013 0.0816 0.0354
H67? H -0.4076 0.0126 -0.0249
H68? H -0.4302 0.1086 -0.0205
C97? C 1.0667(2) 0.71911(15) 0.10267(10)
H122? H 1.0029 0.6866 0.1030
H123? H 1.1305 0.6886 0.1116
C98? C 1.0560(9) 0.7350(6) 0.0465(3)
H124? H 1.0012 0.7756 0.0431
H125? H 1.1244 0.7616 0.0465
C99? C 1.0269(14) 0.6575(7) -0.0036(3)
H126? H 0.9639 0.6261 -0.0014
H127? H 1.0865 0.6202 -0.0038
C100? C 1.0026(15) 0.6804(11) -0.0572(4)
H128? H 0.9254 0.6811 -0.0702
H129? H 1.0296 0.6384 -0.0862
H130? H 1.0368 0.7365 -0.0501
C107? C 0.7375(6) 0.6360(3) 0.1908(2)
H143? H 0.7764 0.6092 0.2181
H144? H 0.6610 0.6291 0.1898
C108? C 0.7517(7) 0.5882(5) 0.1365(2)
H145? H 0.7305 0.5282 0.1303
H146? H 0.8289 0.5917 0.1384
C109? C 0.6986(7) 0.6077(5) 0.0870(2)
H147? H 0.7018 0.6701 0.0964
H148? H 0.6227 0.5874 0.0778
C110? C 0.7389(6) 0.5731(5) 0.0369(3)
H149? H 0.8116 0.5975 0.0438
H150? H 0.6932 0.5870 0.0053
H151? H 0.7390 0.5115 0.0277
loop_
_geom_bond_atom_site_label_1
_geom_bond_atom_site_label_2
_geom_bond_site_symmetry_1
_geom_bond_site_symmetry_2
C1 C2 1_555 1_555
C2 H1 1_555 1_555
C3 C2 1_555 1_555
H2 C3 1_555 1_555
C4 C3 1_555 1_555
H3 C4 1_555 1_555
C5 C4 1_555 1_555
C6 C5 1_555 1_555
H4 C6 1_555 1_555
H5 C6 1_555 1_555
C7 C6 1_555 1_555
C8 C7 1_555 1_555
H6 C8 1_555 1_555
C9 C8 1_555 1_555
H7 C9 1_555 1_555
C10 C9 1_555 1_555
H8 C10 1_555 1_555
C11 C10 1_555 1_555
C12 C11 1_555 1_555
H9 C12 1_555 1_555
H10 C12 1_555 1_555
C13 C12 1_555 1_555
C14 C13 1_555 1_555
H11 C14 1_555 1_555
C15 C14 1_555 1_555
H12 C15 1_555 1_555
C16 C15 1_555 1_555
H13 C16 1_555 1_555
C17 C16 1_555 1_555
C18 C17 1_555 1_555
H14 C18 1_555 1_555
H15 C18 1_555 1_555
C19 C18 1_555 1_555
C20 C19 1_555 1_555
H16 C20 1_555 1_555
C21 C20 1_555 1_555
H17 C21 1_555 1_555
C22 C21 1_555 1_555
H18 C22 1_555 1_555
C23 C22 1_555 1_555
C24 C1 1_555 1_555
H19 C24 1_555 1_555
H20 C24 1_555 1_555
C25 C1 1_555 1_555
O1 C25 1_555 1_555
C26 C19 1_555 1_555
O2 C26 1_555 1_555
C27 C13 1_555 1_555
O3 C27 1_555 1_555
C28 C7 1_555 1_555
O4 C28 1_555 1_555
C29 O1 1_555 1_555
H21 C29 1_555 1_555
H22 C29 1_555 1_555
O5 C30 1_555 1_555
C30 C29 1_555 1_555
N1 C30 1_555 1_555
H23 N1 1_555 1_555
O6 C36 1_555 1_555
C31 N1 1_555 1_555
H24 C31 1_555 1_555
H25 C31 1_555 1_555
O7 C42 1_555 1_555
C32 C31 1_555 1_555
H26 C32 1_555 1_555
H27 C32 1_555 1_555
O8 C48 1_555 1_555
C33 C32 1_555 1_555
H28 C33 1_555 1_555
H29 C33 1_555 1_555
C34 C33 1_555 1_555
H30 C34 1_555 1_555
H31 C34 1_555 1_555
H32 C34 1_555 1_555
C35 O2 1_555 1_555
H33 C35 1_555 1_555
H34 C35 1_555 1_555
C36 C35 1_555 1_555
N2 C36 1_555 1_555
H35 N2 1_555 1_555
C37 N2 1_555 1_555
H36 C37 1_555 1_555
H37 C37 1_555 1_555
C38 C37 1_555 1_555
H38 C38 1_555 1_555
H39 C38 1_555 1_555
C39 C38 1_555 1_555
H40 C39 1_555 1_555
H41 C39 1_555 1_555
C40 C39 1_555 1_555
H42 C40 1_555 1_555
H43 C40 1_555 1_555
H44 C40 1_555 1_555
C41 O3 1_555 1_555
H45 C41 1_555 1_555
H46 C41 1_555 1_555
C42 C41 1_555 1_555
N3 C42 1_555 1_555
H47 N3 1_555 1_555
C43 N3 1_555 1_555
H48 C43 1_555 1_555
H49 C43 1_555 1_555
C44 C43 1_555 1_555
H50 C44 1_555 1_555
H51 C44 1_555 1_555
C45 C44 1_555 1_555
H52 C45 1_555 1_555
H53 C45 1_555 1_555
C46 C45 1_555 1_555
H54 C46 1_555 1_555
H55 C46 1_555 1_555
H56 C46 1_555 1_555
C47 O4 1_555 1_555
H57 C47 1_555 1_555
H58 C47 1_555 1_555
C48 C47 1_555 1_555
N4 C48 1_555 1_555
H59 N4 1_555 1_555
C53 N4 1_555 1_555
H69 C53 1_555 1_555
H70 C53 1_555 1_555
C54 C53 1_555 1_555
H71 C54 1_555 1_555
H72 C54 1_555 1_555
C55 C54 1_555 1_555
H73 C55 1_555 1_555
H74 C55 1_555 1_555
C56 C55 1_555 1_555
H75 C56 1_555 1_555
H76 C56 1_555 1_555
H77 C56 1_555 1_555
C57 C58 1_555 1_555
C58 H78 1_555 1_555
C59 C58 1_555 1_555
H79 C59 1_555 1_555
C60 C59 1_555 1_555
H80 C60 1_555 1_555
C61 C60 1_555 1_555
C62 C61 1_555 1_555
H81 C62 1_555 1_555
H82 C62 1_555 1_555
C63 C62 1_555 1_555
C64 C63 1_555 1_555
H83 C64 1_555 1_555
C65 C64 1_555 1_555
H84 C65 1_555 1_555
C66 C65 1_555 1_555
H85 C66 1_555 1_555
C67 C66 1_555 1_555
C68 C67 1_555 1_555
H86 C68 1_555 1_555
H87 C68 1_555 1_555
C69 C68 1_555 1_555
C70 C69 1_555 1_555
H88 C70 1_555 1_555
C71 C70 1_555 1_555
H89 C71 1_555 1_555
C72 C71 1_555 1_555
H90 C72 1_555 1_555
C73 C72 1_555 1_555
C74 C73 1_555 1_555
H91 C74 1_555 1_555
H92 C74 1_555 1_555
C75 C74 1_555 1_555
C76 C75 1_555 1_555
H93 C76 1_555 1_555
C77 C76 1_555 1_555
H94 C77 1_555 1_555
C78 C77 1_555 1_555
H95 C78 1_555 1_555
C79 C78 1_555 1_555
C80 C57 1_555 1_555
H96 C80 1_555 1_555
H97 C80 1_555 1_555
C81 C57 1_555 1_555
O9 C81 1_555 1_555
C82 C63 1_555 1_555
O10 C82 1_555 1_555
C83 C69 1_555 1_555
O11 C83 1_555 1_555
C84 C75 1_555 1_555
O12 C84 1_555 1_555
C85 O9 1_555 1_555
H98 C85 1_555 1_555
H99 C85 1_555 1_555
O13 C86 1_555 1_555
C86 C85 1_555 1_555
N5 C86 1_555 1_555
H100 N5 1_555 1_555
O14 C92 1_555 1_555
C87 N5 1_555 1_555
H101 C87 1_555 1_555
H102 C87 1_555 1_555
O15 C102 1_555 1_555
C88 C87 1_555 1_555
H103 C88 1_555 1_555
H104 C88 1_555 1_555
O16 C112 1_555 1_555
C89 C88 1_555 1_555
H105 C89 1_555 1_555
H106 C89 1_555 1_555
C90 C89 1_555 1_555
H107 C90 1_555 1_555
H108 C90 1_555 1_555
H109 C90 1_555 1_555
C91 O10 1_555 1_555
H110 C91 1_555 1_555
H111 C91 1_555 1_555
C92 C91 1_555 1_555
N6 C92 1_555 1_555
H112 N6 1_555 1_555
C93 N6 1_555 1_555
H113 C93 1_555 1_555
H114 C93 1_555 1_555
C94 C93 1_555 1_555
H115 C94 1_555 1_555
H116 C94 1_555 1_555
C95 C94 1_555 1_555
H117 C95 1_555 1_555
H118 C95 1_555 1_555
C96 C95 1_555 1_555
H119 C96 1_555 1_555
H120 C96 1_555 1_555
H121 C96 1_555 1_555
C101 O11 1_555 1_555
H131 C101 1_555 1_555
H132 C101 1_555 1_555
C102 C101 1_555 1_555
N7 C102 1_555 1_555
H133 N7 1_555 1_555
C103 N7 1_555 1_555
H134 C103 1_555 1_555
H135 C103 1_555 1_555
C104 C103 1_555 1_555
H136 C104 1_555 1_555
H137 C104 1_555 1_555
C105 C104 1_555 1_555
H138 C105 1_555 1_555
H139 C105 1_555 1_555
C106 C105 1_555 1_555
H140 C106 1_555 1_555
H141 C106 1_555 1_555
H142 C106 1_555 1_555
C111 O12 1_555 1_555
H152 C111 1_555 1_555
H153 C111 1_555 1_555
C112 C111 1_555 1_555
N8 C112 1_555 1_555
H154 N8 1_555 1_555
C113 N8 1_555 1_555
H155 C113 1_555 1_555
H156 C113 1_555 1_555
C114 C113 1_555 1_555
H157 C114 1_555 1_555
H158 C114 1_555 1_555
C115 C114 1_555 1_555
H159 C115 1_555 1_555
H160 C115 1_555 1_555
C116 C115 1_555 1_555
H161 C116 1_555 1_555
H162 C116 1_555 1_555
H163 C116 1_555 1_555
N9 C117 1_555 1_555
C117 C118 1_555 1_555
C118 H164 1_555 1_555
H165 C118 1_555 1_555
H166 C118 1_555 1_555
N10 C119 1_555 1_555
C119 C120 1_555 1_555
C120 H167 1_555 1_555
H168 C120 1_555 1_555
H169 C120 1_555 1_555
C5 C25 1_555 1_555
C11 C28 1_555 1_555
C17 C27 1_555 1_555
C23 C24 1_555 1_555
C23 C26 1_555 1_555
C61 C81 1_555 1_555
C67 C82 1_555 1_555
C73 C83 1_555 1_555
C79 C80 1_555 1_555
C79 C84 1_555 1_555

#END
