
#######################################################################
#
#                 Cambridge Crystallographic Data Centre
#                                CCDC 
#
#######################################################################
#
# If this CIF has been generated from an entry in the Cambridge 
# Structural Database, then it will include bibliographic, chemical, 
# crystal, experimental, refinement or atomic coordinate data resulting 
# from the CCDC's data processing and validation procedures.
#
#######################################################################

data_JETHUM
_chemical_formula_moiety         'C72 H104 O8,2(C1 H4 O1)'
_chemical_name_systematic        
'5,11,17,23-Tetra-t-butyl-25,26,27,28-tetrakis(2-oxoheptyloxy)calix(4)arene methanol solvate'
_symmetry_cell_setting           monoclinic
_symmetry_space_group_name_H-M   'C 2/c'
_symmetry_Int_Tables_number      15
_space_group_name_Hall           '-C 2yn'
loop_
_symmetry_equiv_pos_site_id
_symmetry_equiv_pos_as_xyz
1 x,y,z
2 1/2+x,1/2+y,z
3 -x,y,1/2-z
4 1/2-x,1/2+y,1/2-z
5 -x,-y,-z
6 1/2-x,1/2-y,-z
7 x,-y,1/2+z
8 1/2+x,1/2-y,1/2+z
_cell_length_a                   18.110(3)
_cell_length_b                   30.552(6)
_cell_length_c                   27.451(5)
_cell_angle_alpha                90.00
_cell_angle_beta                 95.956(3)
_cell_angle_gamma                90.00
_cell_volume                     15106.6
_cell_formula_units_Z            8
loop_
_atom_site_label
_atom_site_type_symbol
_atom_site_fract_x
_atom_site_fract_y
_atom_site_fract_z
C1 C 0.1485(6) 0.0142(4) 0.2995(4)
O1 O 0.5435(6) 0.1324(3) 0.4199(4)
C2 C 0.1356(7) -0.0114(4) 0.2565(4)
H1 H 0.0858 -0.0179 0.2445
O2 O 0.1776(5) -0.1030(3) 0.5616(3)
C3 C 0.1920(6) -0.0273(4) 0.2312(4)
C4 C 0.1745(7) -0.0555(5) 0.1855(5)
C5 C 0.1217(8) -0.0286(6) 0.1475(5)
H2 H 0.0765 -0.0206 0.1621
H3 H 0.1086 -0.0465 0.1182
H4 H 0.1471 -0.0020 0.1384
C6 C 0.2425(10) -0.0678(8) 0.1609(6)
H5 H 0.2271 -0.0800 0.1284
H6 H 0.2714 -0.0897 0.1808
H7 H 0.2730 -0.0417 0.1575
C7 C 0.1299(13) -0.0961(6) 0.1995(6)
H8 H 0.1567 -0.1107 0.2279
H9 H 0.1240 -0.1164 0.1718
H10 H 0.0809 -0.0868 0.2078
O3 O 0.2908(5) 0.1158(3) 0.3120(3)
C8 C 0.2641(6) -0.0183(4) 0.2509(4)
H12 H 0.3041 -0.0288 0.2343
O4 O 0.0596(5) 0.1407(3) 0.3824(4)
C9 C 0.2800(6) 0.0051(4) 0.2932(4)
C10 C 0.3608(6) 0.0136(5) 0.3153(4)
H13 H 0.3957 0.0040 0.2919
H14 H 0.3684 0.0453 0.3213
C11 C 0.3767(6) -0.0119(4) 0.3638(4)
C12 C 0.3740(6) -0.0570(4) 0.3635(5)
H15 H 0.3648 -0.0719 0.3332
C13 C 0.3846(6) -0.0812(4) 0.4067(5)
C14 C 0.3906(7) -0.1318(5) 0.4059(5)
C15 C 0.3377(11) -0.1521(5) 0.3625(6)
H16 H 0.3330 -0.1837 0.3677
H17 H 0.3585 -0.1469 0.3315
H18 H 0.2886 -0.1384 0.3614
C16 C 0.4710(10) -0.1435(5) 0.4028(10)
H19 H 0.5013 -0.1322 0.4317
H20 H 0.4877 -0.1305 0.3732
H21 H 0.4761 -0.1754 0.4014
C17 C 0.3670(8) -0.1529(5) 0.4526(6)
H22 H 0.3704 -0.1848 0.4500
H23 H 0.3158 -0.1445 0.4566
H24 H 0.3999 -0.1428 0.4810
C18 C 0.3906(5) -0.0585(4) 0.4512(5)
H25 H 0.3935 -0.0744 0.4811
C19 C 0.3923(5) -0.0133(4) 0.4523(4)
C20 C 0.3931(6) 0.0106(4) 0.5020(4)
H26 H 0.4012 -0.0112 0.5287
H27 H 0.4356 0.0312 0.5055
C21 C 0.3213(6) 0.0363(4) 0.5083(4)
C22 C 0.3216(6) 0.0811(4) 0.5082(4)
H28 H 0.3669 0.0961 0.5053
C23 C 0.2561(6) 0.1060(4) 0.5124(4)
C24 C 0.2577(6) 0.1559(4) 0.5142(4)
C25 C 0.262(3) 0.1737(6) 0.4677(9)
H29 H 0.2167 0.1665 0.4465
H30 H 0.3051 0.1615 0.4537
H31 H 0.2671 0.2056 0.4703
C26 C 0.1922(14) 0.1742(6) 0.5307(14)
H32 H 0.1886 0.1654 0.5647
H33 H 0.1486 0.1636 0.5099
H34 H 0.1944 0.2062 0.5288
C27 C 0.3213(14) 0.1714(7) 0.5423(17)
H35 H 0.3115 0.2006 0.5550
H36 H 0.3625 0.1730 0.5219
H37 H 0.3345 0.1514 0.5698
C28 C 0.1903(6) 0.0816(4) 0.5146(3)
H38 H 0.1454 0.0972 0.5167
C29 C 0.1874(6) 0.0361(4) 0.5138(3)
C30 C 0.1141(6) 0.0125(4) 0.5123(4)
H39 H 0.1169 -0.0103 0.5381
H40 H 0.0745 0.0334 0.5186
C31 C 0.0956(5) -0.0085(4) 0.4627(4)
C32 C 0.0959(5) -0.0540(4) 0.4574(4)
H41 H 0.1025 -0.0715 0.4861
C33 C 0.0871(5) -0.0748(4) 0.4122(4)
C34 C 0.0827(6) -0.1244(4) 0.4094(4)
C35 C 0.1486(9) -0.1460(5) 0.4391(7)
H42 H 0.1947 -0.1371 0.4261
H43 H 0.1434 -0.1779 0.4369
H44 H 0.1501 -0.1370 0.4735
C36 C 0.0099(8) -0.1382(4) 0.4278(5)
H45 H 0.0098 -0.1297 0.4622
H46 H 0.0044 -0.1701 0.4248
H47 H -0.0315 -0.1239 0.4081
C37 C 0.0804(9) -0.1411(5) 0.3562(5)
H48 H 0.0371 -0.1287 0.3366
H49 H 0.0771 -0.1731 0.3559
H50 H 0.1257 -0.1320 0.3423
C38 C 0.0824(5) -0.0474(4) 0.3708(4)
H51 H 0.0794 -0.0606 0.3394
C39 C 0.0821(5) -0.0026(4) 0.3736(4)
C40 C 0.0819(5) 0.0260(4) 0.3282(4)
H52 H 0.0849 0.0572 0.3379
H53 H 0.0349 0.0216 0.3068
C41 C 0.0827(5) 0.0167(4) 0.4211(4)
O5 O 0.0776(4) 0.0616(3) 0.4253(3)
C42 C 0.2559(6) 0.0139(3) 0.5128(3)
O6 O 0.2543(4) -0.0317(2) 0.5151(2)
C43 C 0.3888(5) 0.0086(4) 0.4088(4)
O7 O 0.3962(4) 0.0549(3) 0.4093(3)
C44 C 0.2222(6) 0.0207(4) 0.3176(4)
O8 O 0.2421(4) 0.0408(3) 0.3633(2)
C45 C 0.0029(6) 0.0772(4) 0.4151(5)
H54 H -0.0236 0.0742 0.4447
H55 H -0.0236 0.0594 0.3886
C46 C 0.0036(8) 0.1247(4) 0.3996(4)
C47 C -0.0569(6) 0.1467(3) 0.4035(4)
H56 H -0.0653 0.1457 0.4385
H57 H -0.0977 0.1298 0.3856
C48 C -0.0679(9) 0.1916(5) 0.3883(6)
H58 H -0.1157 0.1948 0.3675
H59 H -0.0273 0.2012 0.3692
C49 C -0.0685(13) 0.2231(7) 0.4414(17)
H60 H -0.0918 0.2522 0.4353
H61 H -0.0911 0.2077 0.4680
C50 C -0.002(2) 0.2247(6) 0.4481(16)
H62 H 0.0196 0.2414 0.4222
H63 H 0.0207 0.1952 0.4512
C51 C 0.0049(14) 0.2526(7) 0.5035(9)
H64 H 0.0101 0.2840 0.4975
H65 H 0.0484 0.2421 0.5244
H66 H -0.0400 0.2475 0.5198
C52 C 0.2751(7) -0.0479(4) 0.5637(4)
H67 H 0.2535 -0.0294 0.5882
H68 H 0.3298 -0.0480 0.5711
C53 C 0.2443(8) -0.0944(4) 0.5645(4)
C54 C 0.2993(6) -0.1267(3) 0.5685(4)
H69 H 0.3333 -0.1194 0.5979
H70 H 0.3280 -0.1228 0.5400
C55 C 0.2835(9) -0.1733(4) 0.5714(6)
H71 H 0.3138 -0.1896 0.5495
H72 H 0.2305 -0.1786 0.5603
C56 C 0.3001(11) -0.1893(5) 0.6219(6)
H73 H 0.3516 -0.1812 0.6341
H74 H 0.2664 -0.1749 0.6432
C57 C 0.2917(12) -0.2368(5) 0.6254(7)
H75 H 0.3298 -0.2517 0.6080
H76 H 0.2421 -0.2457 0.6100
C58 C 0.3001(16) -0.2494(9) 0.6774(8)
H77 H 0.3317 -0.2281 0.6962
H78 H 0.3229 -0.2785 0.6809
H79 H 0.2511 -0.2502 0.6896
C59 C 0.4725(6) 0.0686(5) 0.4131(5)
H80 H 0.4985 0.0519 0.3891
H81 H 0.4961 0.0611 0.4462
C60 C 0.4832(8) 0.1153(5) 0.4047(6)
C61 C 0.4211(13) 0.1404(6) 0.3833(10)
H82 H 0.3797 0.1345 0.4032
H83 H 0.4066 0.1276 0.3505
C62 C 0.4229(14) 0.1882(7) 0.3763(9)
H84 H 0.3727 0.2001 0.3789
H85 H 0.4568 0.2012 0.4031
C63 C 0.447(2) 0.2017(12) 0.3291(10)
H86 H 0.4138 0.1877 0.3028
H87 H 0.4975 0.1894 0.3271
C64 C 0.450(3) 0.2488(12) 0.3181(18)
H88 H 0.4985 0.2609 0.3323
H89 H 0.4466 0.2531 0.2822
C65 C 0.389(3) 0.272(2) 0.338(3)
H90 H 0.3440 0.2696 0.3157
H91 H 0.4025 0.3032 0.3428
H92 H 0.3809 0.2594 0.3700
C71 C 0.2223(6) 0.0849(4) 0.3740(4)
H93 H 0.2521 0.0942 0.4046
H94 H 0.1695 0.0854 0.3803
C72 C 0.2335(8) 0.1182(4) 0.3344(4)
C73 C 0.1835(6) 0.1489(4) 0.3272(4)
H95 H 0.1749 0.1598 0.3601
H96 H 0.1372 0.1341 0.3139
C74 C 0.1894(10) 0.1878(5) 0.2970(7)
H97 H 0.1642 0.1822 0.2638
H98 H 0.2424 0.1937 0.2938
C75 C 0.1560(13) 0.2264(7) 0.3181(9)
H99 H 0.1790 0.2305 0.3521
H100 H 0.1024 0.2209 0.3194
C76 C 0.165(3) 0.2671(11) 0.2904(18)
H101 H 0.2181 0.2752 0.2939
H102 H 0.1502 0.2612 0.2552
C77 C 0.122(3) 0.3045(16) 0.305(2)
H103 H 0.0837 0.2942 0.3254
H104 H 0.0983 0.3194 0.2762
H105 H 0.1551 0.3249 0.3245
O10 O 0.2754(10) 0.1055(6) 0.2108(7)
C79 C 0.1959(13) 0.0907(8) 0.1960(9)
O11 O 0.3908(13) 0.0662(7) 0.1759(9)
C80 C 0.444(4) 0.067(2) 0.204(3)
O12 O 0.4254(7) 0.9781(4) 0.1785(5)
C81 C 0.4239(8) 0.9589(5) 0.1287(6)
H11? H 0.3090 0.1408 0.3096
C66? C 0.4380(19) 0.1286(10) 0.3668(12)
C67? C 0.444(2) 0.1714(9) 0.3428(15)
C68? C 0.397(2) 0.2086(12) 0.3549(19)
C69? C 0.407(4) 0.2519(19) 0.332(2)
C70? C 0.437(4) 0.285(3) 0.301(3)
C78? C 0.018(2) 0.1585(13) 0.2260(16)
O9? O 0.0000 0.1239(13) 0.2500
O13? O 0.5000 0.9426(12) 0.2500
C82? C 0.5233(16) 0.9050(11) 0.2467(14)
loop_
_geom_bond_atom_site_label_1
_geom_bond_atom_site_label_2
_geom_bond_site_symmetry_1
_geom_bond_site_symmetry_2
C1 C2 1_555 1_555
O1 C60 1_555 1_555
C2 H1 1_555 1_555
O2 C53 1_555 1_555
C3 C2 1_555 1_555
C4 C3 1_555 1_555
C5 C4 1_555 1_555
H2 C5 1_555 1_555
H3 C5 1_555 1_555
H4 C5 1_555 1_555
C6 C4 1_555 1_555
H5 C6 1_555 1_555
H6 C6 1_555 1_555
H7 C6 1_555 1_555
C7 C4 1_555 1_555
H8 C7 1_555 1_555
H9 C7 1_555 1_555
H10 C7 1_555 1_555
O3 C72 1_555 1_555
C8 C3 1_555 1_555
H12 C8 1_555 1_555
O4 C46 1_555 1_555
C9 C8 1_555 1_555
C10 C9 1_555 1_555
H13 C10 1_555 1_555
H14 C10 1_555 1_555
C11 C10 1_555 1_555
C12 C11 1_555 1_555
H15 C12 1_555 1_555
C13 C12 1_555 1_555
C14 C13 1_555 1_555
C15 C14 1_555 1_555
H16 C15 1_555 1_555
H17 C15 1_555 1_555
H18 C15 1_555 1_555
C16 C14 1_555 1_555
H19 C16 1_555 1_555
H20 C16 1_555 1_555
H21 C16 1_555 1_555
C17 C14 1_555 1_555
H22 C17 1_555 1_555
H23 C17 1_555 1_555
H24 C17 1_555 1_555
C18 C13 1_555 1_555
H25 C18 1_555 1_555
C19 C18 1_555 1_555
C20 C19 1_555 1_555
H26 C20 1_555 1_555
H27 C20 1_555 1_555
C21 C20 1_555 1_555
C22 C21 1_555 1_555
H28 C22 1_555 1_555
C23 C22 1_555 1_555
C24 C23 1_555 1_555
C25 C24 1_555 1_555
H29 C25 1_555 1_555
H30 C25 1_555 1_555
H31 C25 1_555 1_555
C26 C24 1_555 1_555
H32 C26 1_555 1_555
H33 C26 1_555 1_555
H34 C26 1_555 1_555
C27 C24 1_555 1_555
H35 C27 1_555 1_555
H36 C27 1_555 1_555
H37 C27 1_555 1_555
C28 C23 1_555 1_555
H38 C28 1_555 1_555
C29 C28 1_555 1_555
C30 C29 1_555 1_555
H39 C30 1_555 1_555
H40 C30 1_555 1_555
C31 C30 1_555 1_555
C32 C31 1_555 1_555
H41 C32 1_555 1_555
C33 C32 1_555 1_555
C34 C33 1_555 1_555
C35 C34 1_555 1_555
H42 C35 1_555 1_555
H43 C35 1_555 1_555
H44 C35 1_555 1_555
C36 C34 1_555 1_555
H45 C36 1_555 1_555
H46 C36 1_555 1_555
H47 C36 1_555 1_555
C37 C34 1_555 1_555
H48 C37 1_555 1_555
H49 C37 1_555 1_555
H50 C37 1_555 1_555
C38 C33 1_555 1_555
H51 C38 1_555 1_555
C39 C38 1_555 1_555
C40 C1 1_555 1_555
H52 C40 1_555 1_555
H53 C40 1_555 1_555
C41 C31 1_555 1_555
O5 C41 1_555 1_555
C42 C21 1_555 1_555
O6 C42 1_555 1_555
C43 C11 1_555 1_555
O7 C43 1_555 1_555
C44 C1 1_555 1_555
O8 C44 1_555 1_555
C45 O5 1_555 1_555
H54 C45 1_555 1_555
H55 C45 1_555 1_555
C46 C45 1_555 1_555
C47 C46 1_555 1_555
H56 C47 1_555 1_555
H57 C47 1_555 1_555
C48 C47 1_555 1_555
H58 C48 1_555 1_555
H59 C48 1_555 1_555
C49 C48 1_555 1_555
H60 C49 1_555 1_555
H61 C49 1_555 1_555
C50 C49 1_555 1_555
H62 C50 1_555 1_555
H63 C50 1_555 1_555
C51 C50 1_555 1_555
H64 C51 1_555 1_555
H65 C51 1_555 1_555
H66 C51 1_555 1_555
C52 O6 1_555 1_555
H67 C52 1_555 1_555
H68 C52 1_555 1_555
C53 C52 1_555 1_555
C54 C53 1_555 1_555
H69 C54 1_555 1_555
H70 C54 1_555 1_555
C55 C54 1_555 1_555
H71 C55 1_555 1_555
H72 C55 1_555 1_555
C56 C55 1_555 1_555
H73 C56 1_555 1_555
H74 C56 1_555 1_555
C57 C56 1_555 1_555
H75 C57 1_555 1_555
H76 C57 1_555 1_555
C58 C57 1_555 1_555
H77 C58 1_555 1_555
H78 C58 1_555 1_555
H79 C58 1_555 1_555
C59 O7 1_555 1_555
H80 C59 1_555 1_555
H81 C59 1_555 1_555
C60 C59 1_555 1_555
C61 C60 1_555 1_555
H82 C61 1_555 1_555
H83 C61 1_555 1_555
C62 C61 1_555 1_555
H84 C62 1_555 1_555
H85 C62 1_555 1_555
C63 C62 1_555 1_555
H86 C63 1_555 1_555
H87 C63 1_555 1_555
C64 C63 1_555 1_555
H88 C64 1_555 1_555
H89 C64 1_555 1_555
C65 C64 1_555 1_555
H90 C65 1_555 1_555
H91 C65 1_555 1_555
H92 C65 1_555 1_555
C71 O8 1_555 1_555
H93 C71 1_555 1_555
H94 C71 1_555 1_555
C72 C71 1_555 1_555
C73 C72 1_555 1_555
H95 C73 1_555 1_555
H96 C73 1_555 1_555
C74 C73 1_555 1_555
H97 C74 1_555 1_555
H98 C74 1_555 1_555
C75 C74 1_555 1_555
H99 C75 1_555 1_555
H100 C75 1_555 1_555
C76 C75 1_555 1_555
H101 C76 1_555 1_555
H102 C76 1_555 1_555
C77 C76 1_555 1_555
H103 C77 1_555 1_555
H104 C77 1_555 1_555
H105 C77 1_555 1_555
O10 C79 1_555 1_555
O11 C80 1_555 1_555
O12 C81 1_555 1_555
C9 C44 1_555 1_555
C19 C43 1_555 1_555
C29 C42 1_555 1_555
C39 C40 1_555 1_555
C39 C41 1_555 1_555

#END
