
#######################################################################
#
#                 Cambridge Crystallographic Data Centre
#                                CCDC 
#
#######################################################################
#
# If this CIF has been generated from an entry in the Cambridge 
# Structural Database, then it will include bibliographic, chemical, 
# crystal, experimental, refinement or atomic coordinate data resulting 
# from the CCDC's data processing and validation procedures.
#
#######################################################################

data_JETNEE
_chemical_formula_moiety         'C112 H146 S8,C60'
_chemical_name_systematic        
'5,6,11,12,17,18,23,24,29,30,35,36,41,42,47,48-hexadecabutyl-49,50,51,52,53,54,55,56-octathianonacyclo[44.2.1.1^4,7^.1^10,13^.1^16,19^.1^22,25^.1^28,31^.1^34,37^.1^40,43^]hexapentaconta-1(48),2,4,6,10,12,16,18,22,24,28,30,34,36,40,42,46-heptadecaene-8,14,20,26,32,38,44-heptayne C60fullerene'
_symmetry_cell_setting           triclinic
_symmetry_space_group_name_H-M   'P -1'
_symmetry_Int_Tables_number      2
_space_group_name_Hall           '-P 1'
loop_
_symmetry_equiv_pos_site_id
_symmetry_equiv_pos_as_xyz
1 x,y,z
2 -x,-y,-z
_cell_length_a                   17.6920(10)
_cell_length_b                   17.8800(10)
_cell_length_c                   35.511(3)
_cell_angle_alpha                80.932(6)
_cell_angle_beta                 77.179(5)
_cell_angle_gamma                61.787(4)
_cell_volume                     9633.77
_exptl_crystal_colour            black
_exptl_crystal_description       polyhedron
_cell_formula_units_Z            3
loop_
_atom_site_label
_atom_site_type_symbol
_atom_site_fract_x
_atom_site_fract_y
_atom_site_fract_z
S1 S 0.4889(5) 0.6535(5) 0.6216(2)
S2 S 0.4765(5) 0.9711(5) 0.5962(2)
S3 S 0.7170(5) 1.0863(5) 0.5918(2)
S4 S 1.0193(6) 0.9762(5) 0.6431(2)
S5 S 1.2100(5) 0.6891(5) 0.7142(3)
S6 S 1.2088(5) 0.3802(5) 0.7436(2)
S7 S 0.9684(5) 0.2624(5) 0.7516(2)
S8 S 0.6755(5) 0.3674(5) 0.6956(2)
C1 C 0.496(2) 0.496(2) 0.6456(9)
C2 C 0.445(2) 0.582(2) 0.6308(8)
C3 C 0.396(2) 0.732(2) 0.6068(9)
C4 C 0.3966(19) 0.813(2) 0.5960(8)
C5 C 0.3966(18) 0.878(2) 0.5849(9)
C6 C 0.4121(17) 0.9507(17) 0.5743(9)
C7 C 0.4690(18) 1.0574(16) 0.5632(8)
C8 C 0.519(2) 1.0992(18) 0.5669(8)
C9 C 0.561(2) 1.1261(19) 0.5683(9)
C10 C 0.6217(18) 1.1513(19) 0.5732(8)
C11 C 0.7442(19) 1.1669(18) 0.5922(8)
C12 C 0.823(2) 1.1462(19) 0.6053(9)
C13 C 0.887(3) 1.118(2) 0.6186(9)
C14 C 0.966(2) 1.087(2) 0.6334(8)
C15 C 1.097(2) 0.986(2) 0.6617(8)
C16 C 1.162(2) 0.912(2) 0.6767(9)
C17 C 1.206(2) 0.841(2) 0.6884(9)
C18 C 1.252(2) 0.758(2) 0.7050(8)
C19 C 1.302(2) 0.6074(19) 0.7279(8)
C20 C 1.302(2) 0.526(2) 0.7407(9)
C21 C 1.295(2) 0.467(2) 0.7492(9)
C22 C 1.2802(19) 0.395(2) 0.7623(9)
C23 C 1.223(2) 0.2931(18) 0.7759(8)
C24 C 1.172(2) 0.251(2) 0.7752(7)
H1 H 1.2100 0.2006 0.7865
C25 C 1.121(2) 0.224(2) 0.7726(9)
H2 H 1.1048 0.2658 0.7505
C26 C 1.063(2) 0.196(2) 0.7678(8)
C27 C 0.939(2) 0.187(2) 0.7530(9)
C28 C 0.866(3) 0.201(2) 0.7378(10)
C29 C 0.800(2) 0.220(2) 0.7261(10)
C30 C 0.725(2) 0.2586(18) 0.7088(8)
C31 C 0.5979(19) 0.359(2) 0.6783(8)
C32 C 0.536(2) 0.431(2) 0.6609(8)
C33 C 0.361(2) 0.6221(19) 0.6233(8)
C34 C 0.3132(18) 0.5696(17) 0.6259(7)
H3 H 0.3229 0.5322 0.6492
H4 H 0.2514 0.6077 0.6285
C35 C 0.3394(18) 0.5165(17) 0.5919(8)
H5 H 0.4014 0.4791 0.5890
H6 H 0.3288 0.5541 0.5687
C36 C 0.2927(17) 0.4627(16) 0.5946(7)
H7 H 0.2307 0.5001 0.5963
H8 H 0.3122 0.4332 0.5709
C37 C 0.3067(16) 0.3993(15) 0.6279(7)
H9 H 0.2771 0.3664 0.6272
H10 H 0.2842 0.4280 0.6516
H11 H 0.3679 0.3623 0.6267
C38 C 0.3338(17) 0.7122(18) 0.6079(8)
C39 C 0.2400(17) 0.7661(18) 0.6022(8)
H12 H 0.2036 0.7459 0.6209
H13 H 0.2220 0.8243 0.6075
C40 C 0.2248(17) 0.7653(18) 0.5626(8)
H14 H 0.2309 0.7099 0.5591
H15 H 0.2684 0.7749 0.5435
C41 C 0.1355(17) 0.8327(18) 0.5561(9)
H16 H 0.0923 0.8248 0.5762
H17 H 0.1308 0.8881 0.5585
C42 C 0.115(2) 0.832(2) 0.5180(9)
H18 H 0.0577 0.8760 0.5158
H19 H 0.1183 0.7777 0.5156
H20 H 0.1567 0.8411 0.4978
C43 C 0.3861(16) 1.0089(17) 0.5423(8)
C44 C 0.3307(15) 1.0006(15) 0.5178(7)
H21 H 0.3395 1.0273 0.4924
H22 H 0.3523 0.9406 0.5146
C45 C 0.2351(15) 1.0374(15) 0.5323(8)
H23 H 0.2111 1.0983 0.5336
H24 H 0.2247 1.0132 0.5582
C46 C 0.1908(18) 1.0192(18) 0.5062(8)
H25 H 0.2054 1.0396 0.4800
H26 H 0.2131 0.9581 0.5063
C47 C 0.0953(18) 1.058(2) 0.5173(10)
H27 H 0.0712 1.0437 0.4997
H28 H 0.0725 1.1191 0.5163
H29 H 0.0802 1.0381 0.5431
C48 C 0.4197(18) 1.0672(16) 0.5375(7)
C49 C 0.4028(15) 1.1344(14) 0.5045(7)
H30 H 0.4505 1.1492 0.4984
H31 H 0.4023 1.1107 0.4819
C50 C 0.3193(17) 1.2138(14) 0.5126(7)
H32 H 0.3220 1.2559 0.4922
H33 H 0.2736 1.2016 0.5090
C51 C 0.2887(17) 1.2563(15) 0.5493(8)
H34 H 0.3350 1.2664 0.5541
H35 H 0.2806 1.2168 0.5699
C52 C 0.2070(16) 1.3386(14) 0.5528(8)
H36 H 0.1956 1.3596 0.5778
H37 H 0.1593 1.3297 0.5498
H38 H 0.2137 1.3794 0.5330
C53 C 0.6146(17) 1.2378(18) 0.5677(8)
C54 C 0.5411(17) 1.3120(17) 0.5501(7)
H39 H 0.4873 1.3088 0.5611
H40 H 0.5354 1.3643 0.5579
C55 C 0.550(2) 1.3177(19) 0.5069(7)
H41 H 0.5478 1.2690 0.4995
H42 H 0.6079 1.3124 0.4960
C56 C 0.485(2) 1.397(2) 0.4877(11)
H43 H 0.4527 1.4442 0.5045
H44 H 0.5101 1.4151 0.4631
C57 C 0.433(3) 1.355(2) 0.4834(12)
H45 H 0.3841 1.3949 0.4714
H46 H 0.4127 1.3356 0.5085
H47 H 0.4686 1.3076 0.4676
C58 C 0.684(2) 1.2462(17) 0.5787(8)
C59 C 0.6945(18) 1.3258(15) 0.5806(7)
H48 H 0.6371 1.3731 0.5868
H49 H 0.7258 1.3163 0.6015
C60 C 0.7411(19) 1.3498(16) 0.5444(8)
H50 H 0.7104 1.3590 0.5233
H51 H 0.7990 1.3032 0.5383
C61 C 0.749(2) 1.4293(17) 0.5475(8)
H52 H 0.6908 1.4753 0.5543
H53 H 0.7803 1.4195 0.5684
C62 C 0.793(2) 1.456(2) 0.5118(9)
H54 H 0.7971 1.5056 0.5161
H55 H 0.7605 1.4690 0.4913
H56 H 0.8505 1.4108 0.5048
C63 C 1.005(2) 1.1263(17) 0.6454(9)
C64 C 0.9677(18) 1.2228(16) 0.6413(7)
H57 H 0.9094 1.2472 0.6563
H58 H 1.0028 1.2392 0.6524
C65 C 0.964(2) 1.260(2) 0.6006(8)
H59 H 0.9370 1.2341 0.5893
H60 H 0.9226 1.3195 0.6023
C66 C 1.039(2) 1.256(2) 0.5723(9)
H61 H 1.0786 1.1963 0.5677
H62 H 1.0691 1.2780 0.5833
C67 C 1.018(2) 1.303(2) 0.5342(8)
H63 H 1.0715 1.2941 0.5168
H64 H 0.9836 1.3627 0.5380
H65 H 0.9868 1.2828 0.5234
C68 C 1.079(2) 1.071(2) 0.6597(8)
C69 C 1.1382(16) 1.0948(16) 0.6750(7)
H66 H 1.1021 1.1459 0.6891
H67 H 1.1682 1.0496 0.6934
C70 C 1.2050(16) 1.1099(16) 0.6450(7)
H68 H 1.1772 1.1427 0.6231
H69 H 1.2499 1.0552 0.6359
C71 C 1.2484(16) 1.1550(15) 0.6572(8)
H70 H 1.2696 1.1271 0.6812
H71 H 1.2984 1.1494 0.6377
C72 C 1.1901(16) 1.2476(14) 0.6632(8)
H72 H 1.2218 1.2721 0.6709
H73 H 1.1411 1.2538 0.6830
H74 H 1.1700 1.2761 0.6395
C73 C 1.3369(19) 0.7221(19) 0.7124(8)
C74 C 1.3892(17) 0.7691(16) 0.7102(7)
H75 H 1.3859 0.8030 0.6859
H76 H 1.4497 0.7280 0.7101
C75 C 1.3606(17) 0.8263(16) 0.7426(7)
H77 H 1.3663 0.7914 0.7667
H78 H 1.2993 0.8650 0.7434
C76 C 1.4078(17) 0.8788(16) 0.7414(7)
H79 H 1.3874 0.9088 0.7649
H80 H 1.4698 0.8418 0.7397
C77 C 1.3912(19) 0.9410(17) 0.7071(8)
H81 H 1.4226 0.9731 0.7058
H82 H 1.3300 0.9790 0.7095
H83 H 1.4103 0.9111 0.6839
C78 C 1.3649(18) 0.6335(17) 0.7268(8)
C79 C 1.4544(18) 0.5735(17) 0.7365(8)
H84 H 1.4664 0.5160 0.7330
H85 H 1.4968 0.5860 0.7178
C80 C 1.4692(17) 0.5754(18) 0.7761(8)
H86 H 1.4279 0.5624 0.7952
H87 H 1.4592 0.6321 0.7799
C81 C 1.5606(18) 0.5123(19) 0.7819(9)
H88 H 1.5723 0.4570 0.7750
H89 H 1.6011 0.5291 0.7643
C82 C 1.578(2) 0.504(2) 0.8218(9)
H90 H 1.6372 0.4634 0.8229
H91 H 1.5398 0.4848 0.8394
H92 H 1.5672 0.5581 0.8289
C83 C 1.3143(19) 0.337(2) 0.7919(9)
C84 C 1.3736(18) 0.3385(18) 0.8160(8)
H93 H 1.3542 0.3967 0.8217
H94 H 1.3694 0.3062 0.8403
C85 C 1.4663(18) 0.3023(19) 0.7965(9)
H95 H 1.4677 0.3259 0.7700
H96 H 1.4879 0.2415 0.7957
C86 C 1.529(2) 0.316(2) 0.8138(10)
H97 H 1.5834 0.2992 0.7960
H98 H 1.5050 0.3761 0.8177
C87 C 1.544(3) 0.267(2) 0.8507(10)
H99 H 1.5841 0.2776 0.8611
H100 H 1.5689 0.2078 0.8468
H101 H 1.4903 0.2845 0.8684
C88 C 1.2812(19) 0.2772(17) 0.7995(8)
C89 C 1.2973(19) 0.2055(17) 0.8310(7)
H102 H 1.2990 0.2248 0.8547
H103 H 1.2496 0.1909 0.8360
C90 C 1.380(2) 0.129(2) 0.8199(9)
H104 H 1.4240 0.1434 0.8240
H105 H 1.3790 0.0867 0.8405
C91 C 1.421(2) 0.080(2) 0.7853(10)
H106 H 1.4397 0.1145 0.7654
H107 H 1.3761 0.0741 0.7766
C92 C 1.496(2) -0.0054(18) 0.7864(9)
H108 H 1.5149 -0.0271 0.7611
H109 H 1.4787 -0.0428 0.8045
H110 H 1.5426 -0.0020 0.7943
C93 C 1.0709(18) 0.115(2) 0.7741(8)
C94 C 1.1546(17) 0.0435(18) 0.7855(8)
H111 H 1.1569 -0.0095 0.7806
H112 H 1.2026 0.0488 0.7680
C95 C 1.171(2) 0.0346(19) 0.8252(8)
H113 H 1.1226 0.0308 0.8427
H114 H 1.1705 0.0871 0.8298
C96 C 1.252(2) -0.037(2) 0.8369(9)
H115 H 1.2468 -0.0884 0.8374
H116 H 1.2997 -0.0405 0.8160
C97 C 1.281(2) -0.040(2) 0.8728(9)
H117 H 1.3276 -0.0955 0.8773
H118 H 1.2336 -0.0282 0.8939
H119 H 1.3020 0.0017 0.8707
C98 C 1.004(3) 0.106(2) 0.7645(10)
C99 C 1.009(2) 0.0170(17) 0.7687(9)
H120 H 1.0693 -0.0234 0.7603
H121 H 0.9942 0.0033 0.7959
C100 C 0.955(2) 0.0033(19) 0.7476(10)
H122 H 0.9576 0.0314 0.7220
H123 H 0.8949 0.0322 0.7607
C101 C 0.974(3) -0.087(2) 0.7426(10)
H124 H 0.9351 -0.0854 0.7267
H125 H 1.0330 -0.1166 0.7289
C102 C 0.965(3) -0.136(2) 0.7785(10)
H126 H 0.9808 -0.1927 0.7730
H127 H 0.9055 -0.1096 0.7914
H128 H 1.0022 -0.1370 0.7948
C103 C 0.6811(19) 0.2201(15) 0.6987(8)
C104 C 0.7108(16) 0.1258(15) 0.7092(6)
H129 H 0.6820 0.1064 0.6956
H130 H 0.7729 0.0954 0.6999
C105 C 0.6936(17) 0.1028(15) 0.7512(7)
H131 H 0.7242 0.1210 0.7643
H132 H 0.6319 0.1361 0.7604
C106 C 0.7169(18) 0.0127(15) 0.7643(7)
H133 H 0.7780 -0.0213 0.7543
H134 H 0.6841 -0.0050 0.7524
C107 C 0.7025(18) -0.0089(17) 0.8067(6)
H135 H 0.7196 -0.0686 0.8111
H136 H 0.6420 0.0227 0.8172
H137 H 0.7367 0.0055 0.8190
C108 C 0.6115(19) 0.2726(19) 0.6816(7)
C109 C 0.5517(15) 0.2483(15) 0.6680(7)
H138 H 0.5877 0.1983 0.6533
H139 H 0.5201 0.2939 0.6501
C110 C 0.4859(16) 0.2301(16) 0.6976(7)
H140 H 0.4412 0.2833 0.7081
H141 H 0.5147 0.1939 0.7186
C111 C 0.4423(17) 0.1881(16) 0.6829(8)
H142 H 0.3913 0.1925 0.7015
H143 H 0.4233 0.2172 0.6587
C112 C 0.5033(17) 0.0962(15) 0.6766(8)
H144 H 0.4748 0.0712 0.6666
H145 H 0.5202 0.0668 0.7007
H146 H 0.5540 0.0917 0.6583
S9 S 0.2160(8) -0.1546(7) 0.9825(4)
S10 S 0.1214(6) 0.1739(6) 0.9270(3)
S11 S 0.2435(8) 0.4025(6) 0.9147(3)
S12 S 0.5436(8) 0.3887(7) 0.9323(4)
C113 C 0.274(3) -0.311(3) 1.0162(14)
C114 C 0.201(3) -0.247(2) 0.9985(12)
C115 C 0.113(3) -0.107(3) 0.9694(11)
C116 C 0.095(3) -0.018(2) 0.9529(10)
C117 C 0.065(2) 0.052(3) 0.9376(11)
C118 C 0.058(2) 0.137(3) 0.9197(12)
C119 C 0.071(2) 0.266(2) 0.8982(10)
C120 C 0.102(2) 0.324(2) 0.9012(11)
C121 C 0.121(2) 0.376(2) 0.8896(9)
C122 C 0.165(2) 0.428(2) 0.8872(11)
C123 C 0.266(3) 0.485(3) 0.8937(13)
C124 C 0.338(3) 0.488(3) 0.9036(14)
C125 C 0.389(3) 0.498(2) 0.9119(13)
C126 C 0.463(3) 0.492(2) 0.9253(11)
C127 C 0.602(3) 0.424(3) 0.9536(11)
C128 C 0.676(4) 0.366(3) 0.9693(13)
C129 C 0.123(3) -0.231(2) 0.9937(13)
C130 C 0.092(2) -0.299(2) 1.0032(10)
H147 H 0.1265 -0.3409 1.0213
H148 H 0.0323 -0.2724 1.0165
C131 C 0.096(2) -0.344(2) 0.9702(10)
H149 H 0.1560 -0.3808 0.9602
H150 H 0.0711 -0.3026 0.9496
C132 C 0.047(2) -0.398(2) 0.9810(13)
H151 H 0.0662 -0.4367 0.9609
H152 H 0.0636 -0.4314 1.0047
C133 C -0.049(2) -0.349(3) 0.9866(13)
H153 H -0.0739 -0.3875 0.9937
H154 H -0.0662 -0.3171 0.9629
H155 H -0.0687 -0.3106 1.0067
C134 C 0.070(2) -0.148(3) 0.9762(11)
C135 C -0.021(2) -0.114(3) 0.9669(10)
H156 H -0.0481 -0.1492 0.9808
H157 H -0.0572 -0.0562 0.9740
C136 C -0.008(3) -0.120(3) 0.9241(10)
H158 H 0.0123 -0.0802 0.9099
H159 H 0.0320 -0.1769 0.9163
C137 C -0.098(3) -0.096(3) 0.9183(12)
H160 H -0.1160 -0.1391 0.9296
H161 H -0.1400 -0.0418 0.9292
C138 C -0.088(3) -0.089(3) 0.8756(12)
H162 H -0.1429 -0.0713 0.8681
H163 H -0.0471 -0.1438 0.8658
H164 H -0.0662 -0.0487 0.8653
C139 C -0.004(3) 0.182(3) 0.8960(12)
C140 C -0.062(2) 0.162(2) 0.8769(11)
H165 H -0.0591 0.1830 0.8499
H166 H -0.0413 0.1012 0.8780
C141 C -0.153(2) 0.204(3) 0.8976(11)
H167 H -0.1787 0.2643 0.8901
H168 H -0.1529 0.1972 0.9253
C142 C -0.205(3) 0.165(3) 0.8881(12)
H169 H -0.1733 0.1038 0.8902
H170 H -0.2598 0.1828 0.9060
C143 C -0.222(3) 0.195(3) 0.8483(12)
H171 H -0.2516 0.1684 0.8409
H172 H -0.1671 0.1807 0.8310
H173 H -0.2566 0.2557 0.8470
C144 C 0.009(2) 0.258(2) 0.8845(10)
C145 C -0.038(2) 0.332(2) 0.8562(10)
H174 H 0.0032 0.3500 0.8407
H175 H -0.0584 0.3111 0.8387
C146 C -0.114(2) 0.407(2) 0.8746(10)
H176 H -0.0943 0.4232 0.8939
H177 H -0.1569 0.3885 0.8883
C147 C -0.159(3) 0.485(3) 0.8493(12)
H178 H -0.1707 0.5355 0.8610
H179 H -0.1229 0.4822 0.8241
C148 C -0.241(3) 0.487(3) 0.8454(14)
H180 H -0.2734 0.5378 0.8308
H181 H -0.2738 0.4855 0.8706
H182 H -0.2280 0.4382 0.8322
C149 C 0.159(2) 0.500(2) 0.8611(10)
C150 C 0.094(2) 0.534(2) 0.8331(11)
H183 H 0.1267 0.5348 0.8072
H184 H 0.0732 0.4925 0.8340
C151 C 0.016(3) 0.620(2) 0.8375(14)
H185 H 0.0339 0.6599 0.8428
H186 H -0.0052 0.6387 0.8130
C152 C -0.057(3) 0.623(3) 0.8680(15)
H187 H -0.0397 0.6110 0.8932
H188 H -0.0735 0.5801 0.8643
C153 C -0.131(3) 0.709(2) 0.8655(14)
H189 H -0.1775 0.7136 0.8866
H190 H -0.1511 0.7177 0.8414
H191 H -0.1127 0.7506 0.8670
C154 C 0.221(3) 0.529(2) 0.8643(11)
C155 C 0.231(2) 0.6052(19) 0.8412(9)
H192 H 0.2917 0.5889 0.8317
H193 H 0.2016 0.6203 0.8189
C156 C 0.193(2) 0.6812(19) 0.8647(10)
H194 H 0.2085 0.6617 0.8902
H195 H 0.1297 0.7059 0.8680
C157 C 0.219(3) 0.751(2) 0.8491(12)
H196 H 0.1995 0.7916 0.8685
H197 H 0.2813 0.7273 0.8417
C158 C 0.176(3) 0.792(3) 0.8155(11)
H198 H 0.1863 0.8404 0.8059
H199 H 0.1146 0.8104 0.8228
H200 H 0.1994 0.7525 0.7956
C159 C 0.480(2) 0.550(2) 0.9367(10)
C160 C 0.419(2) 0.6451(19) 0.9326(9)
H201 H 0.3601 0.6527 0.9380
H202 H 0.4258 0.6722 0.9525
C161 C 0.431(2) 0.692(2) 0.8949(9)
H203 H 0.3847 0.7494 0.8965
H204 H 0.4215 0.6660 0.8753
C162 C 0.514(2) 0.696(2) 0.8804(9)
H205 H 0.5266 0.7192 0.9000
H206 H 0.5611 0.6392 0.8763
C163 C 0.514(2) 0.749(2) 0.8438(9)
H207 H 0.5684 0.7512 0.8363
H208 H 0.4676 0.8060 0.8476
H209 H 0.5046 0.7255 0.8239
C164 C 0.559(3) 0.518(3) 0.9519(10)
C165 C 0.599(2) 0.555(2) 0.9723(10)
H210 H 0.5583 0.6134 0.9771
H211 H 0.6094 0.5237 0.9972
C166 C 0.683(2) 0.551(2) 0.9507(10)
H212 H 0.6722 0.5935 0.9290
H213 H 0.7208 0.4956 0.9409
C167 C 0.723(3) 0.570(2) 0.9792(11)
H214 H 0.6784 0.6193 0.9931
H215 H 0.7420 0.5223 0.9980
C168 C 0.798(3) 0.587(2) 0.9606(13)
H216 H 0.8214 0.5969 0.9802
H217 H 0.7786 0.6365 0.9430
H218 H 0.8418 0.5390 0.9467
S9A S 0.7840(8) 0.1546(7) 1.0175(4)
S10A S 0.8786(6) -0.1739(6) 1.0730(3)
S11A S 0.7565(8) -0.4025(6) 1.0853(3)
S12A S 0.4564(8) -0.3887(7) 1.0677(4)
C113A C 0.726(3) 0.311(3) 0.9838(14)
C114A C 0.799(3) 0.247(2) 1.0015(12)
C115A C 0.887(3) 0.107(3) 1.0306(11)
C116A C 0.905(3) 0.018(2) 1.0471(10)
C117A C 0.935(2) -0.052(3) 1.0624(11)
C118A C 0.942(2) -0.137(3) 1.0803(12)
C119A C 0.929(2) -0.266(2) 1.1018(10)
C120A C 0.898(2) -0.324(2) 1.0988(11)
C121A C 0.879(2) -0.376(2) 1.1104(9)
C122A C 0.835(2) -0.428(2) 1.1128(11)
C123A C 0.734(3) -0.485(3) 1.1063(13)
C124A C 0.662(3) -0.488(3) 1.0964(14)
C125A C 0.611(3) -0.498(2) 1.0881(13)
C126A C 0.537(3) -0.492(2) 1.0747(11)
C127A C 0.398(3) -0.424(3) 1.0464(11)
C128A C 0.324(4) -0.366(3) 1.0307(13)
C129A C 0.877(3) 0.231(2) 1.0063(13)
C130A C 0.908(2) 0.299(2) 0.9968(10)
H147A H 0.8735 0.3409 0.9787
H148A H 0.9677 0.2724 0.9835
C131A C 0.904(2) 0.344(2) 1.0298(10)
H149A H 0.8440 0.3808 1.0398
H150A H 0.9289 0.3026 1.0504
C132A C 0.953(2) 0.398(2) 1.0190(13)
H151A H 0.9338 0.4367 1.0391
H152A H 0.9364 0.4314 0.9953
C133A C 1.049(2) 0.349(3) 1.0134(13)
H153A H 1.0739 0.3875 1.0063
H154A H 1.0662 0.3171 1.0371
H155A H 1.0687 0.3106 0.9933
C134A C 0.930(2) 0.148(3) 1.0238(11)
C135A C 1.021(2) 0.114(3) 1.0331(10)
H156A H 1.0481 0.1492 1.0192
H157A H 1.0572 0.0562 1.0260
C136A C 1.008(3) 0.120(3) 1.0759(10)
H158A H 0.9877 0.0802 1.0901
H159A H 0.9680 0.1769 1.0837
C137A C 1.098(3) 0.096(3) 1.0817(12)
H160A H 1.1160 0.1391 1.0704
H161A H 1.1400 0.0418 1.0708
C138A C 1.088(3) 0.089(3) 1.1244(12)
H162A H 1.1429 0.0713 1.1319
H163A H 1.0471 0.1438 1.1342
H164A H 1.0662 0.0487 1.1347
C139A C 1.004(3) -0.182(3) 1.1040(12)
C140A C 1.062(2) -0.162(2) 1.1231(11)
H165A H 1.0591 -0.1830 1.1501
H166A H 1.0413 -0.1012 1.1220
C141A C 1.153(2) -0.204(3) 1.1024(11)
H167A H 1.1787 -0.2643 1.1099
H168A H 1.1529 -0.1972 1.0747
C142A C 1.205(3) -0.165(3) 1.1119(12)
H169A H 1.1733 -0.1038 1.1098
H170A H 1.2598 -0.1828 1.0940
C143A C 1.222(3) -0.195(3) 1.1517(12)
H171A H 1.2516 -0.1684 1.1591
H172A H 1.1671 -0.1807 1.1690
H173A H 1.2566 -0.2557 1.1530
C144A C 0.991(2) -0.258(2) 1.1155(10)
C145A C 1.038(2) -0.332(2) 1.1438(10)
H174A H 0.9968 -0.3500 1.1593
H175A H 1.0584 -0.3111 1.1613
C146A C 1.114(2) -0.407(2) 1.1254(10)
H176A H 1.0943 -0.4232 1.1061
H177A H 1.1569 -0.3885 1.1117
C147A C 1.159(3) -0.485(3) 1.1507(12)
H178A H 1.1707 -0.5355 1.1390
H179A H 1.1229 -0.4822 1.1759
C148A C 1.241(3) -0.487(3) 1.1546(14)
H180A H 1.2734 -0.5378 1.1692
H181A H 1.2738 -0.4855 1.1294
H182A H 1.2280 -0.4382 1.1678
C149A C 0.841(2) -0.500(2) 1.1389(10)
C150A C 0.906(2) -0.534(2) 1.1669(11)
H183A H 0.8733 -0.5348 1.1928
H184A H 0.9268 -0.4925 1.1660
C151A C 0.984(3) -0.620(2) 1.1625(14)
H185A H 0.9661 -0.6599 1.1572
H186A H 1.0052 -0.6387 1.1870
C152A C 1.057(3) -0.623(3) 1.1320(15)
H187A H 1.0397 -0.6110 1.1068
H188A H 1.0735 -0.5801 1.1357
C153A C 1.131(3) -0.709(2) 1.1345(14)
H189A H 1.1775 -0.7136 1.1134
H190A H 1.1511 -0.7177 1.1586
H191A H 1.1127 -0.7506 1.1330
C154A C 0.779(3) -0.529(2) 1.1357(11)
C155A C 0.769(2) -0.6052(19) 1.1588(9)
H192A H 0.7083 -0.5889 1.1683
H193A H 0.7984 -0.6203 1.1811
C156A C 0.807(2) -0.6812(19) 1.1353(10)
H194A H 0.7915 -0.6617 1.1098
H195A H 0.8703 -0.7059 1.1320
C157A C 0.781(3) -0.751(2) 1.1509(12)
H196A H 0.8005 -0.7916 1.1315
H197A H 0.7187 -0.7273 1.1583
C158A C 0.824(3) -0.792(3) 1.1845(11)
H198A H 0.8137 -0.8404 1.1941
H199A H 0.8854 -0.8104 1.1772
H200A H 0.8006 -0.7525 1.2044
C159A C 0.520(2) -0.550(2) 1.0633(10)
C160A C 0.581(2) -0.6451(19) 1.0674(9)
H201A H 0.6399 -0.6527 1.0620
H202A H 0.5742 -0.6722 1.0475
C161A C 0.569(2) -0.692(2) 1.1051(9)
H203A H 0.6153 -0.7494 1.1035
H204A H 0.5785 -0.6660 1.1247
C162A C 0.486(2) -0.696(2) 1.1196(9)
H205A H 0.4734 -0.7192 1.1000
H206A H 0.4389 -0.6392 1.1237
C163A C 0.486(2) -0.749(2) 1.1562(9)
H207A H 0.4316 -0.7512 1.1637
H208A H 0.5324 -0.8060 1.1524
H209A H 0.4954 -0.7255 1.1761
C164A C 0.441(3) -0.518(3) 1.0481(10)
C165A C 0.401(2) -0.555(2) 1.0277(10)
H210A H 0.4417 -0.6134 1.0229
H211A H 0.3906 -0.5237 1.0028
C166A C 0.317(2) -0.551(2) 1.0493(10)
H212A H 0.3278 -0.5935 1.0710
H213A H 0.2792 -0.4956 1.0591
C167A C 0.277(3) -0.570(2) 1.0208(11)
H214A H 0.3216 -0.6193 1.0069
H215A H 0.2580 -0.5223 1.0020
C168A C 0.202(3) -0.587(2) 1.0394(13)
H216A H 0.1786 -0.5969 1.0198
H217A H 0.2214 -0.6365 1.0570
H218A H 0.1582 -0.5390 1.0533
C169 C 0.8905(5) 0.7205(5) 0.74257(17)
C170 C 0.9742(5) 0.6927(5) 0.7170(2)
C171 C 0.8601(6) 0.6617(5) 0.75919(13)
C172 C 1.0241(4) 0.6073(5) 0.7091(2)
C173 C 1.0685(3) 0.5838(5) 0.6699(2)
C174 C 0.9667(5) 0.7584(5) 0.6860(2)
C175 C 1.0092(4) 0.7360(5) 0.6485(2)
C176 C 1.0613(3) 0.6467(5) 0.6403(2)
C177 C 0.7123(5) 0.7624(5) 0.74686(17)
C178 C 0.7440(5) 0.8239(4) 0.7295(2)
C179 C 0.7690(5) 0.6831(5) 0.76137(12)
C180 C 0.8311(5) 0.8034(5) 0.7274(2)
C181 C 0.8782(5) 0.8268(4) 0.6924(2)
C182 C 0.7001(4) 0.8687(3) 0.6967(2)
C183 C 0.7452(5) 0.8912(3) 0.6633(2)
C184 C 0.8362(5) 0.8697(3) 0.6611(2)
C185 C 0.7040(4) 0.6137(5) 0.73347(19)
C186 C 0.6448(3) 0.6966(5) 0.7183(2)
C187 C 0.7648(5) 0.6071(5) 0.75455(15)
C188 C 0.6488(4) 0.7693(5) 0.7248(2)
C189 C 0.6412(3) 0.8350(4) 0.6938(2)
C190 C 0.6330(3) 0.6863(5) 0.6804(2)
C191 C 0.6258(3) 0.7491(5) 0.6508(2)
C192 C 0.6300(3) 0.8251(4) 0.6577(2)
C193 C 0.8771(5) 0.4799(4) 0.7209(2)
C194 C 0.8136(5) 0.4868(4) 0.6988(2)
C195 C 0.8532(5) 0.5387(5) 0.74812(16)
C196 C 0.7290(5) 0.5522(5) 0.7050(2)
C197 C 0.6850(4) 0.5970(5) 0.6722(2)
C198 C 0.8581(5) 0.4632(3) 0.6597(2)
C199 C 0.8161(5) 0.5061(4) 0.6283(2)
C200 C 0.7276(5) 0.5745(5) 0.6347(2)
C201 C 0.9923(5) 0.5459(5) 0.7265(2)
C202 C 1.0172(4) 0.4844(4) 0.6980(2)
C203 C 0.9122(5) 0.5724(5) 0.75099(15)
C204 C 0.9609(5) 0.4521(3) 0.6953(2)
C205 C 0.9491(5) 0.4418(3) 0.6575(2)
C206 C 1.0643(3) 0.5078(4) 0.6631(2)
C207 C 1.0531(3) 0.4980(4) 0.6269(2)
C208 C 0.9943(5) 0.4642(3) 0.6240(2)
C209 C 0.8039(6) 0.6124(5) 0.57819(18)
C210 C 0.8632(6) 0.5295(5) 0.5934(2)
C211 C 0.9503(5) 0.5091(4) 0.5913(2)
C212 C 0.8342(6) 0.6713(5) 0.56157(13)
C213 C 0.7020(5) 0.7871(5) 0.5943(2)
C214 C 0.6703(4) 0.7256(5) 0.6116(2)
C215 C 0.7201(5) 0.6402(5) 0.6038(2)
C216 C 0.7821(5) 0.7605(5) 0.56978(16)
C217 C 0.8171(5) 0.8531(4) 0.5999(2)
C218 C 0.7334(5) 0.8809(3) 0.6255(2)
C219 C 0.6771(4) 0.8486(4) 0.6227(2)
C220 C 0.8410(5) 0.7943(5) 0.57265(16)
C221 C 0.9902(5) 0.7193(5) 0.58731(19)
C222 C 0.9653(5) 0.7808(5) 0.6157(2)
C223 C 0.8807(5) 0.8462(4) 0.6219(2)
C224 C 0.9295(5) 0.7259(5) 0.56623(14)
C225 C 0.9820(5) 0.5706(5) 0.57390(16)
C226 C 1.0456(4) 0.5637(5) 0.5959(2)
C227 C 1.0495(4) 0.6364(5) 0.6025(2)
C228 C 0.9253(5) 0.6499(5) 0.55939(12)
C229 C 0.5429(9) 0.0160(9) 1.0899(2)
C230 C 0.6291(8) -0.0409(8) 1.0706(3)
C231 C 0.4793(9) -0.0119(9) 1.10163(17)
C232 C 0.6480(7) -0.1232(7) 1.0640(4)
C233 C 0.6984(6) -0.1591(7) 1.0272(4)
C234 C 0.6595(7) 0.0092(9) 1.0408(4)
C235 C 0.7077(6) -0.0251(9) 1.0056(4)
C236 C 0.7275(5) -0.1111(8) 0.9987(4)
C237 C 0.3684(8) 0.1258(8) 1.0788(3)
C238 C 0.4348(9) 0.1549(7) 1.0665(4)
C239 C 0.3901(8) 0.0443(9) 1.0960(2)
C240 C 0.5201(9) 0.1012(8) 1.0719(3)
C241 C 0.5921(9) 0.0970(8) 1.0416(4)
C242 C 0.4177(9) 0.2068(5) 1.0305(4)
C243 C 0.4866(10) 0.2028(6) 1.0015(4)
C244 C 0.5758(9) 0.1467(7) 1.0072(4)
C245 C 0.2993(6) 0.0254(10) 1.0583(4)
C246 C 0.2766(5) 0.1106(9) 1.0404(4)
C247 C 0.3549(7) -0.0071(9) 1.0855(3)
C248 C 0.3103(6) 0.1597(7) 1.0504(4)
C249 C 0.3408(8) 0.2098(5) 1.0206(5)
C250 C 0.4312(9) -0.1464(8) 1.0568(4)
C251 C 0.3731(9) -0.1124(9) 1.0283(4)
C252 C 0.4222(9) -0.0949(9) 1.0847(3)
C253 C 0.3087(7) -0.0285(10) 1.0291(4)
C254 C 0.5816(8) -0.1523(7) 1.0763(3)
C255 C 0.5909(9) -0.2061(5) 1.0471(4)
C256 C 0.4992(9) -0.0979(8) 1.0947(2)
C257 C 0.5174(10) -0.2033(6) 1.0375(4)
C258 C 0.6630(8) -0.2103(5) 1.0167(5)
C229A C 0.4571(9) -0.0160(9) 0.9101(2)
C230A C 0.3709(8) 0.0409(8) 0.9294(3)
C231A C 0.5207(9) 0.0119(9) 0.89837(17)
C232A C 0.3520(7) 0.1232(7) 0.9360(4)
C233A C 0.3016(6) 0.1591(7) 0.9728(4)
C234A C 0.3405(7) -0.0092(9) 0.9592(4)
C235A C 0.2923(6) 0.0251(9) 0.9944(4)
C236A C 0.2725(5) 0.1111(8) 1.0013(4)
C237A C 0.6316(8) -0.1258(8) 0.9212(3)
C238A C 0.5652(9) -0.1549(7) 0.9335(4)
C239A C 0.6099(8) -0.0443(9) 0.9040(2)
C240A C 0.4799(9) -0.1012(8) 0.9281(3)
C241A C 0.4079(9) -0.0970(8) 0.9584(4)
C242A C 0.5823(9) -0.2068(5) 0.9695(4)
C243A C 0.5134(10) -0.2028(6) 0.9985(4)
C244A C 0.4242(9) -0.1467(7) 0.9928(4)
C245A C 0.7007(6) -0.0254(10) 0.9417(4)
C246A C 0.7234(5) -0.1106(9) 0.9596(4)
C247A C 0.6451(7) 0.0071(9) 0.9145(3)
C248A C 0.6897(6) -0.1597(7) 0.9496(4)
C249A C 0.6592(8) -0.2098(5) 0.9794(5)
C250A C 0.5688(9) 0.1464(8) 0.9432(4)
C251A C 0.6269(9) 0.1124(9) 0.9717(4)
C252A C 0.5778(9) 0.0949(9) 0.9153(3)
C253A C 0.6913(7) 0.0285(10) 0.9709(4)
C254A C 0.4184(8) 0.1523(7) 0.9237(3)
C255A C 0.4091(9) 0.2061(5) 0.9529(4)
C256A C 0.5008(9) 0.0979(8) 0.9053(2)
C257A C 0.4826(10) 0.2033(6) 0.9625(4)
C258A C 0.3370(8) 0.2103(5) 0.9833(5)
H219? H 0.1422 -0.0174 0.9594
H220? H 0.0108 0.0583 0.9352
loop_
_geom_bond_atom_site_label_1
_geom_bond_atom_site_label_2
_geom_bond_site_symmetry_1
_geom_bond_site_symmetry_2
S1 C2 1_555 1_555
S2 C6 1_555 1_555
S3 C10 1_555 1_555
S4 C14 1_555 1_555
S5 C18 1_555 1_555
S6 C22 1_555 1_555
S7 C26 1_555 1_555
S8 C30 1_555 1_555
C1 C2 1_555 1_555
C2 C33 1_555 1_555
C3 S1 1_555 1_555
C4 C3 1_555 1_555
C5 C4 1_555 1_555
C6 C5 1_555 1_555
C7 S2 1_555 1_555
C8 C7 1_555 1_555
C9 C8 1_555 1_555
C10 C9 1_555 1_555
C11 S3 1_555 1_555
C12 C11 1_555 1_555
C13 C12 1_555 1_555
C14 C13 1_555 1_555
C15 S4 1_555 1_555
C16 C15 1_555 1_555
C17 C16 1_555 1_555
C18 C17 1_555 1_555
C19 S5 1_555 1_555
C20 C19 1_555 1_555
C21 C20 1_555 1_555
C22 C21 1_555 1_555
C23 S6 1_555 1_555
C24 C23 1_555 1_555
H1 C24 1_555 1_555
C25 C24 1_555 1_555
H2 C25 1_555 1_555
C26 C25 1_555 1_555
C27 S7 1_555 1_555
C28 C27 1_555 1_555
C29 C28 1_555 1_555
C30 C29 1_555 1_555
C31 S8 1_555 1_555
C32 C1 1_555 1_555
C33 C34 1_555 1_555
C34 H3 1_555 1_555
H4 C34 1_555 1_555
C35 C34 1_555 1_555
H5 C35 1_555 1_555
H6 C35 1_555 1_555
C36 C35 1_555 1_555
H7 C36 1_555 1_555
H8 C36 1_555 1_555
C37 C36 1_555 1_555
H9 C37 1_555 1_555
H10 C37 1_555 1_555
H11 C37 1_555 1_555
C38 C3 1_555 1_555
C39 C38 1_555 1_555
H12 C39 1_555 1_555
H13 C39 1_555 1_555
C40 C39 1_555 1_555
H14 C40 1_555 1_555
H15 C40 1_555 1_555
C41 C40 1_555 1_555
H16 C41 1_555 1_555
H17 C41 1_555 1_555
C42 C41 1_555 1_555
H18 C42 1_555 1_555
H19 C42 1_555 1_555
H20 C42 1_555 1_555
C43 C6 1_555 1_555
C44 C43 1_555 1_555
H21 C44 1_555 1_555
H22 C44 1_555 1_555
C45 C44 1_555 1_555
H23 C45 1_555 1_555
H24 C45 1_555 1_555
C46 C45 1_555 1_555
H25 C46 1_555 1_555
H26 C46 1_555 1_555
C47 C46 1_555 1_555
H27 C47 1_555 1_555
H28 C47 1_555 1_555
H29 C47 1_555 1_555
C48 C7 1_555 1_555
C49 C48 1_555 1_555
H30 C49 1_555 1_555
H31 C49 1_555 1_555
C50 C49 1_555 1_555
H32 C50 1_555 1_555
H33 C50 1_555 1_555
C51 C50 1_555 1_555
H34 C51 1_555 1_555
H35 C51 1_555 1_555
C52 C51 1_555 1_555
H36 C52 1_555 1_555
H37 C52 1_555 1_555
H38 C52 1_555 1_555
C53 C10 1_555 1_555
C54 C53 1_555 1_555
H39 C54 1_555 1_555
H40 C54 1_555 1_555
C55 C54 1_555 1_555
H41 C55 1_555 1_555
H42 C55 1_555 1_555
C56 C55 1_555 1_555
H43 C56 1_555 1_555
H44 C56 1_555 1_555
C57 C56 1_555 1_555
H45 C57 1_555 1_555
H46 C57 1_555 1_555
H47 C57 1_555 1_555
C58 C11 1_555 1_555
C59 C58 1_555 1_555
H48 C59 1_555 1_555
H49 C59 1_555 1_555
C60 C59 1_555 1_555
H50 C60 1_555 1_555
H51 C60 1_555 1_555
C61 C60 1_555 1_555
H52 C61 1_555 1_555
H53 C61 1_555 1_555
C62 C61 1_555 1_555
H54 C62 1_555 1_555
H55 C62 1_555 1_555
H56 C62 1_555 1_555
C63 C14 1_555 1_555
C64 C63 1_555 1_555
H57 C64 1_555 1_555
H58 C64 1_555 1_555
C65 C64 1_555 1_555
H59 C65 1_555 1_555
H60 C65 1_555 1_555
C66 C65 1_555 1_555
H61 C66 1_555 1_555
H62 C66 1_555 1_555
C67 C66 1_555 1_555
H63 C67 1_555 1_555
H64 C67 1_555 1_555
H65 C67 1_555 1_555
C68 C15 1_555 1_555
C69 C68 1_555 1_555
H66 C69 1_555 1_555
H67 C69 1_555 1_555
C70 C69 1_555 1_555
H68 C70 1_555 1_555
H69 C70 1_555 1_555
C71 C70 1_555 1_555
H70 C71 1_555 1_555
H71 C71 1_555 1_555
C72 C71 1_555 1_555
H72 C72 1_555 1_555
H73 C72 1_555 1_555
H74 C72 1_555 1_555
C73 C18 1_555 1_555
C74 C73 1_555 1_555
H75 C74 1_555 1_555
H76 C74 1_555 1_555
C75 C74 1_555 1_555
H77 C75 1_555 1_555
H78 C75 1_555 1_555
C76 C75 1_555 1_555
H79 C76 1_555 1_555
H80 C76 1_555 1_555
C77 C76 1_555 1_555
H81 C77 1_555 1_555
H82 C77 1_555 1_555
H83 C77 1_555 1_555
C78 C19 1_555 1_555
C79 C78 1_555 1_555
H84 C79 1_555 1_555
H85 C79 1_555 1_555
C80 C79 1_555 1_555
H86 C80 1_555 1_555
H87 C80 1_555 1_555
C81 C80 1_555 1_555
H88 C81 1_555 1_555
H89 C81 1_555 1_555
C82 C81 1_555 1_555
H90 C82 1_555 1_555
H91 C82 1_555 1_555
H92 C82 1_555 1_555
C83 C22 1_555 1_555
C84 C83 1_555 1_555
H93 C84 1_555 1_555
H94 C84 1_555 1_555
C85 C84 1_555 1_555
H95 C85 1_555 1_555
H96 C85 1_555 1_555
C86 C85 1_555 1_555
H97 C86 1_555 1_555
H98 C86 1_555 1_555
C87 C86 1_555 1_555
H99 C87 1_555 1_555
H100 C87 1_555 1_555
H101 C87 1_555 1_555
C88 C23 1_555 1_555
C89 C88 1_555 1_555
H102 C89 1_555 1_555
H103 C89 1_555 1_555
C90 C89 1_555 1_555
H104 C90 1_555 1_555
H105 C90 1_555 1_555
C91 C90 1_555 1_555
H106 C91 1_555 1_555
H107 C91 1_555 1_555
C92 C91 1_555 1_555
H108 C92 1_555 1_555
H109 C92 1_555 1_555
H110 C92 1_555 1_555
C93 C26 1_555 1_555
C94 C93 1_555 1_555
H111 C94 1_555 1_555
H112 C94 1_555 1_555
C95 C94 1_555 1_555
H113 C95 1_555 1_555
H114 C95 1_555 1_555
C96 C95 1_555 1_555
H115 C96 1_555 1_555
H116 C96 1_555 1_555
C97 C96 1_555 1_555
H117 C97 1_555 1_555
H118 C97 1_555 1_555
H119 C97 1_555 1_555
C98 C27 1_555 1_555
C99 C98 1_555 1_555
H120 C99 1_555 1_555
H121 C99 1_555 1_555
C100 C99 1_555 1_555
H122 C100 1_555 1_555
H123 C100 1_555 1_555
C101 C100 1_555 1_555
H124 C101 1_555 1_555
H125 C101 1_555 1_555
C102 C101 1_555 1_555
H126 C102 1_555 1_555
H127 C102 1_555 1_555
H128 C102 1_555 1_555
C103 C30 1_555 1_555
C104 C103 1_555 1_555
H129 C104 1_555 1_555
H130 C104 1_555 1_555
C105 C104 1_555 1_555
H131 C105 1_555 1_555
H132 C105 1_555 1_555
C106 C105 1_555 1_555
H133 C106 1_555 1_555
H134 C106 1_555 1_555
C107 C106 1_555 1_555
H135 C107 1_555 1_555
H136 C107 1_555 1_555
H137 C107 1_555 1_555
C108 C31 1_555 1_555
C109 C108 1_555 1_555
H138 C109 1_555 1_555
H139 C109 1_555 1_555
C110 C109 1_555 1_555
H140 C110 1_555 1_555
H141 C110 1_555 1_555
C111 C110 1_555 1_555
H142 C111 1_555 1_555
H143 C111 1_555 1_555
C112 C111 1_555 1_555
H144 C112 1_555 1_555
H145 C112 1_555 1_555
H146 C112 1_555 1_555
S9 C114 1_555 1_555
S10 C118 1_555 1_555
S11 C122 1_555 1_555
S12 C126 1_555 1_555
C113 C114 1_555 1_555
C114 C129 1_555 1_555
C115 S9 1_555 1_555
C116 C115 1_555 1_555
C117 C116 1_555 1_555
C118 C117 1_555 1_555
C119 S10 1_555 1_555
C120 C119 1_555 1_555
C121 C120 1_555 1_555
C122 C121 1_555 1_555
C123 S11 1_555 1_555
C124 C123 1_555 1_555
C125 C124 1_555 1_555
C126 C125 1_555 1_555
C127 S12 1_555 1_555
C128 C127 1_555 1_555
C129 C130 1_555 1_555
C130 H147 1_555 1_555
H148 C130 1_555 1_555
C131 C130 1_555 1_555
H149 C131 1_555 1_555
H150 C131 1_555 1_555
C132 C131 1_555 1_555
H151 C132 1_555 1_555
H152 C132 1_555 1_555
C133 C132 1_555 1_555
H153 C133 1_555 1_555
H154 C133 1_555 1_555
H155 C133 1_555 1_555
C134 C115 1_555 1_555
C135 C134 1_555 1_555
H156 C135 1_555 1_555
H157 C135 1_555 1_555
C136 C135 1_555 1_555
H158 C136 1_555 1_555
H159 C136 1_555 1_555
C137 C136 1_555 1_555
H160 C137 1_555 1_555
H161 C137 1_555 1_555
C138 C137 1_555 1_555
H162 C138 1_555 1_555
H163 C138 1_555 1_555
H164 C138 1_555 1_555
C139 C118 1_555 1_555
C140 C139 1_555 1_555
H165 C140 1_555 1_555
H166 C140 1_555 1_555
C141 C140 1_555 1_555
H167 C141 1_555 1_555
H168 C141 1_555 1_555
C142 C141 1_555 1_555
H169 C142 1_555 1_555
H170 C142 1_555 1_555
C143 C142 1_555 1_555
H171 C143 1_555 1_555
H172 C143 1_555 1_555
H173 C143 1_555 1_555
C144 C119 1_555 1_555
C145 C144 1_555 1_555
H174 C145 1_555 1_555
H175 C145 1_555 1_555
C146 C145 1_555 1_555
H176 C146 1_555 1_555
H177 C146 1_555 1_555
C147 C146 1_555 1_555
H178 C147 1_555 1_555
H179 C147 1_555 1_555
C148 C147 1_555 1_555
H180 C148 1_555 1_555
H181 C148 1_555 1_555
H182 C148 1_555 1_555
C149 C122 1_555 1_555
C150 C149 1_555 1_555
H183 C150 1_555 1_555
H184 C150 1_555 1_555
C151 C150 1_555 1_555
H185 C151 1_555 1_555
H186 C151 1_555 1_555
C152 C151 1_555 1_555
H187 C152 1_555 1_555
H188 C152 1_555 1_555
C153 C152 1_555 1_555
H189 C153 1_555 1_555
H190 C153 1_555 1_555
H191 C153 1_555 1_555
C154 C123 1_555 1_555
C155 C154 1_555 1_555
H192 C155 1_555 1_555
H193 C155 1_555 1_555
C156 C155 1_555 1_555
H194 C156 1_555 1_555
H195 C156 1_555 1_555
C157 C156 1_555 1_555
H196 C157 1_555 1_555
H197 C157 1_555 1_555
C158 C157 1_555 1_555
H198 C158 1_555 1_555
H199 C158 1_555 1_555
H200 C158 1_555 1_555
C159 C126 1_555 1_555
C160 C159 1_555 1_555
H201 C160 1_555 1_555
H202 C160 1_555 1_555
C161 C160 1_555 1_555
H203 C161 1_555 1_555
H204 C161 1_555 1_555
C162 C161 1_555 1_555
H205 C162 1_555 1_555
H206 C162 1_555 1_555
C163 C162 1_555 1_555
H207 C163 1_555 1_555
H208 C163 1_555 1_555
H209 C163 1_555 1_555
C164 C127 1_555 1_555
C165 C164 1_555 1_555
H210 C165 1_555 1_555
H211 C165 1_555 1_555
C166 C165 1_555 1_555
H212 C166 1_555 1_555
H213 C166 1_555 1_555
C167 C166 1_555 1_555
H214 C167 1_555 1_555
H215 C167 1_555 1_555
C168 C167 1_555 1_555
H216 C168 1_555 1_555
H217 C168 1_555 1_555
H218 C168 1_555 1_555
C169 C170 1_555 1_555
C170 C172 1_555 1_555
C171 C169 1_555 1_555
C172 C173 1_555 1_555
C173 C176 1_555 1_555
C174 C170 1_555 1_555
C175 C174 1_555 1_555
C176 C175 1_555 1_555
C177 C178 1_555 1_555
C178 C180 1_555 1_555
C179 C171 1_555 1_555
C180 C169 1_555 1_555
C181 C174 1_555 1_555
C182 C178 1_555 1_555
C183 C182 1_555 1_555
C184 C181 1_555 1_555
C185 C186 1_555 1_555
C186 C188 1_555 1_555
C187 C179 1_555 1_555
C188 C177 1_555 1_555
C189 C182 1_555 1_555
C190 C186 1_555 1_555
C191 C190 1_555 1_555
C192 C189 1_555 1_555
C193 C194 1_555 1_555
C194 C196 1_555 1_555
C195 C187 1_555 1_555
C196 C185 1_555 1_555
C197 C190 1_555 1_555
C198 C194 1_555 1_555
C199 C198 1_555 1_555
C200 C197 1_555 1_555
C201 C172 1_555 1_555
C202 C201 1_555 1_555
C203 C171 1_555 1_555
C204 C193 1_555 1_555
C205 C198 1_555 1_555
C206 C173 1_555 1_555
C207 C206 1_555 1_555
C208 C205 1_555 1_555
C209 C210 1_555 1_555
C210 C199 1_555 1_555
C211 C208 1_555 1_555
C212 C209 1_555 1_555
C213 C214 1_555 1_555
C214 C191 1_555 1_555
C215 C200 1_555 1_555
C216 C212 1_555 1_555
C217 C218 1_555 1_555
C218 C183 1_555 1_555
C219 C192 1_555 1_555
C220 C216 1_555 1_555
C221 C222 1_555 1_555
C222 C175 1_555 1_555
C223 C184 1_555 1_555
C224 C220 1_555 1_555
C225 C211 1_555 1_555
C226 C207 1_555 1_555
C227 C176 1_555 1_555
C228 C212 1_555 1_555
C229 C230 1_555 1_555
C230 C232 1_555 1_555
C231 C229 1_555 1_555
C232 C233 1_555 1_555
C233 C236 1_555 1_555
C234 C230 1_555 1_555
C235 C234 1_555 1_555
C236 C235 1_555 1_555
C237 C238 1_555 1_555
C238 C240 1_555 1_555
C239 C231 1_555 1_555
C240 C229 1_555 1_555
C241 C234 1_555 1_555
C242 C238 1_555 1_555
C243 C242 1_555 1_555
C244 C241 1_555 1_555
C245 C246 1_555 1_555
C246 C248 1_555 1_555
C247 C239 1_555 1_555
C248 C237 1_555 1_555
C249 C242 1_555 1_555
C250 C251 1_555 1_555
C251 C253 1_555 1_555
C252 C247 1_555 1_555
C253 C245 1_555 1_555
C254 C232 1_555 1_555
C255 C254 1_555 1_555
C256 C231 1_555 1_555
C257 C250 1_555 1_555
C258 C233 1_555 1_555
S9A C114A 1_555 1_555
S10A C118A 1_555 1_555
S11A C122A 1_555 1_555
S12A C126A 1_555 1_555
C113A C128 1_555 1_555
C114A C113A 1_555 1_555
C115A S9A 1_555 1_555
C116A C115A 1_555 1_555
C117A C116A 1_555 1_555
C118A C117A 1_555 1_555
C119A S10A 1_555 1_555
C120A C119A 1_555 1_555
C121A C120A 1_555 1_555
C122A C121A 1_555 1_555
C123A S11A 1_555 1_555
C124A C123A 1_555 1_555
C125A C124A 1_555 1_555
C126A C125A 1_555 1_555
C127A S12A 1_555 1_555
C128A C113 1_555 1_555
C129A C114A 1_555 1_555
C130A C129A 1_555 1_555
H147A C130A 1_555 1_555
H148A C130A 1_555 1_555
C131A C130A 1_555 1_555
H149A C131A 1_555 1_555
H150A C131A 1_555 1_555
C132A C131A 1_555 1_555
H151A C132A 1_555 1_555
H152A C132A 1_555 1_555
C133A C132A 1_555 1_555
H153A C133A 1_555 1_555
H154A C133A 1_555 1_555
H155A C133A 1_555 1_555
C134A C115A 1_555 1_555
C135A C134A 1_555 1_555
H156A C135A 1_555 1_555
H157A C135A 1_555 1_555
C136A C135A 1_555 1_555
H158A C136A 1_555 1_555
H159A C136A 1_555 1_555
C137A C136A 1_555 1_555
H160A C137A 1_555 1_555
H161A C137A 1_555 1_555
C138A C137A 1_555 1_555
H162A C138A 1_555 1_555
H163A C138A 1_555 1_555
H164A C138A 1_555 1_555
C139A C118A 1_555 1_555
C140A C139A 1_555 1_555
H165A C140A 1_555 1_555
H166A C140A 1_555 1_555
C141A C140A 1_555 1_555
H167A C141A 1_555 1_555
H168A C141A 1_555 1_555
C142A C141A 1_555 1_555
H169A C142A 1_555 1_555
H170A C142A 1_555 1_555
C143A C142A 1_555 1_555
H171A C143A 1_555 1_555
H172A C143A 1_555 1_555
H173A C143A 1_555 1_555
C144A C119A 1_555 1_555
C145A C144A 1_555 1_555
H174A C145A 1_555 1_555
H175A C145A 1_555 1_555
C146A C145A 1_555 1_555
H176A C146A 1_555 1_555
H177A C146A 1_555 1_555
C147A C146A 1_555 1_555
H178A C147A 1_555 1_555
H179A C147A 1_555 1_555
C148A C147A 1_555 1_555
H180A C148A 1_555 1_555
H181A C148A 1_555 1_555
H182A C148A 1_555 1_555
C149A C122A 1_555 1_555
C150A C149A 1_555 1_555
H183A C150A 1_555 1_555
H184A C150A 1_555 1_555
C151A C150A 1_555 1_555
H185A C151A 1_555 1_555
H186A C151A 1_555 1_555
C152A C151A 1_555 1_555
H187A C152A 1_555 1_555
H188A C152A 1_555 1_555
C153A C152A 1_555 1_555
H189A C153A 1_555 1_555
H190A C153A 1_555 1_555
H191A C153A 1_555 1_555
C154A C123A 1_555 1_555
C155A C154A 1_555 1_555
H192A C155A 1_555 1_555
H193A C155A 1_555 1_555
C156A C155A 1_555 1_555
H194A C156A 1_555 1_555
H195A C156A 1_555 1_555
C157A C156A 1_555 1_555
H196A C157A 1_555 1_555
H197A C157A 1_555 1_555
C158A C157A 1_555 1_555
H198A C158A 1_555 1_555
H199A C158A 1_555 1_555
H200A C158A 1_555 1_555
C159A C126A 1_555 1_555
C160A C159A 1_555 1_555
H201A C160A 1_555 1_555
H202A C160A 1_555 1_555
C161A C160A 1_555 1_555
H203A C161A 1_555 1_555
H204A C161A 1_555 1_555
C162A C161A 1_555 1_555
H205A C162A 1_555 1_555
H206A C162A 1_555 1_555
C163A C162A 1_555 1_555
H207A C163A 1_555 1_555
H208A C163A 1_555 1_555
H209A C163A 1_555 1_555
C164A C127A 1_555 1_555
C165A C164A 1_555 1_555
H210A C165A 1_555 1_555
H211A C165A 1_555 1_555
C166A C165A 1_555 1_555
H212A C166A 1_555 1_555
H213A C166A 1_555 1_555
C167A C166A 1_555 1_555
H214A C167A 1_555 1_555
H215A C167A 1_555 1_555
C168A C167A 1_555 1_555
H216A C168A 1_555 1_555
H217A C168A 1_555 1_555
H218A C168A 1_555 1_555
C229A C230A 1_555 1_555
C230A C232A 1_555 1_555
C231A C229A 1_555 1_555
C232A C233A 1_555 1_555
C233A C236A 1_555 1_555
C234A C230A 1_555 1_555
C235A C253 1_555 1_555
C236A C246 1_555 1_555
C237A C238A 1_555 1_555
C238A C240A 1_555 1_555
C239A C231A 1_555 1_555
C240A C229A 1_555 1_555
C241A C234A 1_555 1_555
C242A C238A 1_555 1_555
C243A C257 1_555 1_555
C244A C251 1_555 1_555
C245A C246A 1_555 1_555
C246A C236 1_555 1_555
C247A C239A 1_555 1_555
C248A C237A 1_555 1_555
C249A C258 1_555 1_555
C250A C251A 1_555 1_555
C251A C244 1_555 1_555
C252A C247A 1_555 1_555
C253A C235 1_555 1_555
C254A C232A 1_555 1_555
C255A C254A 1_555 1_555
C256A C231A 1_555 1_555
C257A C243 1_555 1_555
C258A C249 1_555 1_555
C31 C32 1_555 1_555
C33 C38 1_555 1_555
C43 C48 1_555 1_555
C53 C58 1_555 1_555
C63 C68 1_555 1_555
C73 C78 1_555 1_555
C83 C88 1_555 1_555
C93 C98 1_555 1_555
C103 C108 1_555 1_555
C129 C134 1_555 1_555
C139 C144 1_555 1_555
C149 C154 1_555 1_555
C159 C164 1_555 1_555
C177 C179 1_555 1_555
C180 C181 1_555 1_555
C183 C184 1_555 1_555
C185 C187 1_555 1_555
C188 C189 1_555 1_555
C191 C192 1_555 1_555
C193 C195 1_555 1_555
C195 C203 1_555 1_555
C196 C197 1_555 1_555
C199 C200 1_555 1_555
C201 C203 1_555 1_555
C202 C204 1_555 1_555
C202 C206 1_555 1_555
C204 C205 1_555 1_555
C207 C208 1_555 1_555
C209 C215 1_555 1_555
C210 C211 1_555 1_555
C213 C216 1_555 1_555
C213 C219 1_555 1_555
C214 C215 1_555 1_555
C217 C220 1_555 1_555
C217 C223 1_555 1_555
C218 C219 1_555 1_555
C221 C224 1_555 1_555
C221 C227 1_555 1_555
C222 C223 1_555 1_555
C224 C228 1_555 1_555
C225 C226 1_555 1_555
C225 C228 1_555 1_555
C226 C227 1_555 1_555
C237 C239 1_555 1_555
C240 C241 1_555 1_555
C243 C244 1_555 1_555
C245 C247 1_555 1_555
C248 C249 1_555 1_555
C250 C252 1_555 1_555
C252 C256 1_555 1_555
C254 C256 1_555 1_555
C255 C257 1_555 1_555
C255 C258 1_555 1_555
C127A C128A 1_555 1_555
C129A C134A 1_555 1_555
C139A C144A 1_555 1_555
C149A C154A 1_555 1_555
C159A C164A 1_555 1_555
C233A C258A 1_555 1_555
C234A C235A 1_555 1_555
C235A C236A 1_555 1_555
C237A C239A 1_555 1_555
C240A C241A 1_555 1_555
C241A C244A 1_555 1_555
C242A C243A 1_555 1_555
C242A C249A 1_555 1_555
C243A C244A 1_555 1_555
C245A C247A 1_555 1_555
C245A C253A 1_555 1_555
C246A C248A 1_555 1_555
C248A C249A 1_555 1_555
C250A C252A 1_555 1_555
C250A C257A 1_555 1_555
C251A C253A 1_555 1_555
C252A C256A 1_555 1_555
C254A C256A 1_555 1_555
C255A C257A 1_555 1_555
C255A C258A 1_555 1_555

#END
