
#######################################################################
#
#                 Cambridge Crystallographic Data Centre
#                                CCDC 
#
#######################################################################
#
# If this CIF has been generated from an entry in the Cambridge 
# Structural Database, then it will include bibliographic, chemical, 
# crystal, experimental, refinement or atomic coordinate data resulting 
# from the CCDC's data processing and validation procedures.
#
#######################################################################

data_JETRUW
_chemical_formula_moiety         'C6 H9 N2 O2 1+,N1 O3 1-'
_chemical_name_systematic        
'1,3-dimethylimidazolium-4-carboxylic acid nitrate'
_symmetry_cell_setting           monoclinic
_symmetry_space_group_name_H-M   'P 21/n'
_symmetry_Int_Tables_number      14
_space_group_name_Hall           '-P 2yn'
loop_
_symmetry_equiv_pos_site_id
_symmetry_equiv_pos_as_xyz
1 x,y,z
2 1/2-x,1/2+y,1/2-z
3 -x,-y,-z
4 1/2+x,1/2-y,1/2+z
_cell_length_a                   6.628(2)
_cell_length_b                   11.910(4)
_cell_length_c                   11.538(4)
_cell_angle_alpha                90
_cell_angle_beta                 104.508(7)
_cell_angle_gamma                90
_cell_volume                     881.761
_exptl_crystal_colour            colorless
_exptl_crystal_description       flat
_chemical_melting_point          'about 200deg.C(dec.)'
_cell_formula_units_Z            4
_exptl_crystal_recrystallization_method ethanol/water
loop_
_atom_site_label
_atom_site_type_symbol
_atom_site_fract_x
_atom_site_fract_y
_atom_site_fract_z
N1 N -0.2501(3) 0.29762(18) 0.48033(18)
N2 N -0.2474(3) 0.41223(18) 0.33541(18)
O1 O -0.2725(3) 0.65910(16) 0.35088(17)
O2 O -0.2349(3) 0.63633(18) 0.54748(16)
H1 H -0.235(5) 0.708(4) 0.551(3)
C1 C -0.2455(4) 0.3055(2) 0.3663(2)
H2 H -0.236(4) 0.240(2) 0.317(2)
C2 C -0.2537(4) 0.4766(2) 0.4347(2)
C3 C -0.2547(4) 0.4038(2) 0.5248(2)
H3 H -0.257(4) 0.418(2) 0.605(2)
C4 C -0.2519(6) 0.1921(3) 0.5468(3)
H4 H -0.405(6) 0.174(3) 0.546(3)
H5 H -0.186(5) 0.199(3) 0.628(4)
H6 H -0.200(6) 0.137(3) 0.509(3)
C5 C -0.2277(6) 0.4512(3) 0.2173(2)
H7 H -0.349(5) 0.496(3) 0.185(3)
H8 H -0.102(4) 0.490(2) 0.224(2)
H9 H -0.221(4) 0.386(3) 0.169(3)
C6 C -0.2548(4) 0.6004(2) 0.4379(2)
N3 N -0.2486(3) 0.88650(19) 0.65590(19)
O3 O -0.2078(3) 0.98148(16) 0.69948(18)
O4 O -0.1732(3) 0.85409(17) 0.57080(17)
O5 O -0.3656(3) 0.82288(18) 0.69370(18)
loop_
_geom_bond_atom_site_label_1
_geom_bond_atom_site_label_2
_geom_bond_site_symmetry_1
_geom_bond_site_symmetry_2
N1 C1 1_555 1_555
N2 C1 1_555 1_555
N3 O3 1_555 1_555
O1 C6 1_555 1_555
O2 H1 1_555 1_555
O4 N3 1_555 1_555
O5 N3 1_555 1_555
C1 H2 1_555 1_555
C2 N2 1_555 1_555
C3 N1 1_555 1_555
H3 C3 1_555 1_555
C4 N1 1_555 1_555
H4 C4 1_555 1_555
H5 C4 1_555 1_555
H6 C4 1_555 1_555
C5 N2 1_555 1_555
H7 C5 1_555 1_555
H8 C5 1_555 1_555
H9 C5 1_555 1_555
C6 O2 1_555 1_555
C2 C3 1_555 1_555
C2 C6 1_555 1_555

#END
