
#######################################################################
#
#                 Cambridge Crystallographic Data Centre
#                                CCDC 
#
#######################################################################
#
# If this CIF has been generated from an entry in the Cambridge 
# Structural Database, then it will include bibliographic, chemical, 
# crystal, experimental, refinement or atomic coordinate data resulting 
# from the CCDC's data processing and validation procedures.
#
#######################################################################

data_JEVBEU
_chemical_formula_moiety         'C26 H24 Br1 N1 O4 S1'
_chemical_name_systematic        
'ethyl 2-(5-bromo-1-((4-methylphenyl)sulfonyl)-2,3-dihydro-1H-indol-2-yl)-3-phenylprop-2-enoate'
_symmetry_cell_setting           monoclinic
_symmetry_space_group_name_H-M   'P 21/c'
_symmetry_Int_Tables_number      14
_space_group_name_Hall           '-P 2ybc'
loop_
_symmetry_equiv_pos_site_id
_symmetry_equiv_pos_as_xyz
1 x,y,z
2 -x,1/2+y,1/2-z
3 -x,-y,-z
4 x,1/2-y,1/2+z
_cell_length_a                   14.0516(10)
_cell_length_b                   12.5217(9)
_cell_length_c                   15.0866(11)
_cell_angle_alpha                90
_cell_angle_beta                 117.4870(10)
_cell_angle_gamma                90
_cell_volume                     2354.84
_exptl_crystal_colour            colorless
_exptl_crystal_description       block
_cell_formula_units_Z            4
loop_
_atom_site_label
_atom_site_type_symbol
_atom_site_fract_x
_atom_site_fract_y
_atom_site_fract_z
Br1 Br 0.10639(2) 0.31045(2) 0.51578(2)
S1 S 0.41020(3) 0.74220(3) 0.44981(3)
O1 O 0.48865(9) 0.66177(10) 0.50260(10)
O2 O 0.42121(10) 0.80709(9) 0.37686(9)
O3 O 0.11730(11) 0.67615(10) 0.07087(9)
O4 O 0.13601(10) 0.58222(9) 0.20485(8)
N1 N 0.29375(10) 0.68002(10) 0.38924(9)
C1 C 0.19742(12) 0.75196(12) 0.33689(11)
H1 H 0.215996 0.823603 0.369828
C2 C 0.10938(12) 0.70146(12) 0.35886(12)
H2 H 0.091862 0.749057 0.401682
H3 H 0.043184 0.687516 0.296044
C3 C 0.15824(12) 0.59881(12) 0.41207(11)
C4 C 0.11051(12) 0.51622(13) 0.43844(11)
H4 H 0.037845 0.520752 0.425802
C5 C 0.17223(13) 0.42660(13) 0.48394(11)
C6 C 0.27846(13) 0.41828(13) 0.50361(12)
H5 H 0.318801 0.356417 0.535722
C7 C 0.32617(12) 0.50102(13) 0.47613(11)
H6 H 0.398548 0.496004 0.487965
C8 C 0.26489(12) 0.59079(12) 0.43105(11)
C9 C 0.17036(12) 0.76628(12) 0.22792(11)
C10 C 0.17714(13) 0.86112(14) 0.18961(12)
H7 H 0.161627 0.861632 0.121290
C11 C 0.20609(13) 0.96447(13) 0.24223(12)
C12 C 0.15281(14) 1.00586(14) 0.29328(14)
H8 H 0.095040 0.967149 0.294026
C13 C 0.18366(17) 1.10340(16) 0.34313(16)
H9 H 0.146746 1.131176 0.377295
C14 C 0.26841(18) 1.15973(16) 0.34267(16)
H10 H 0.290617 1.225487 0.377707
C15 C 0.32053(17) 1.12018(17) 0.29124(16)
H11 H 0.378074 1.159304 0.290485
C16 C 0.28957(15) 1.02432(16) 0.24100(14)
H12 H 0.325376 0.998553 0.205080
C17 C 0.13892(13) 0.67265(13) 0.15847(12)
C18 C 0.10572(15) 0.48531(14) 0.14452(13)
H13 H 0.150604 0.476418 0.110187
H14 H 0.029557 0.488927 0.093414
C19 C 0.12288(15) 0.39347(14) 0.21456(14)
H15 H 0.104716 0.326377 0.176853
H16 H 0.076903 0.402493 0.246951
H17 H 0.198193 0.391685 0.265500
C20 C 0.40003(12) 0.82859(12) 0.53722(11)
C21 C 0.39929(14) 0.78604(15) 0.62257(13)
H18 H 0.399408 0.710933 0.631523
C22 C 0.39837(15) 0.85501(17) 0.69376(13)
H19 H 0.397786 0.826641 0.751905
C23 C 0.39829(14) 0.96529(16) 0.68178(13)
C24 C 0.39594(13) 1.00580(14) 0.59463(13)
H20 H 0.393910 1.080885 0.584878
C25 C 0.39651(12) 0.93807(13) 0.52178(12)
H21 H 0.394524 0.966281 0.462498
C26 C 0.40375(18) 1.0387(2) 0.76348(16)
H22 H 0.477802 1.042162 0.816939
H23 H 0.357106 1.011185 0.790468
H24 H 0.379895 1.110322 0.736021
loop_
_geom_bond_atom_site_label_1
_geom_bond_atom_site_label_2
_geom_bond_site_symmetry_1
_geom_bond_site_symmetry_2
Br1 C5 1_555 1_555
S1 O1 1_555 1_555
O2 S1 1_555 1_555
O3 C17 1_555 1_555
O4 C17 1_555 1_555
N1 S1 1_555 1_555
C1 N1 1_555 1_555
H1 C1 1_555 1_555
C2 C1 1_555 1_555
H2 C2 1_555 1_555
H3 C2 1_555 1_555
C3 C2 1_555 1_555
C4 C3 1_555 1_555
H4 C4 1_555 1_555
C5 C4 1_555 1_555
C6 C5 1_555 1_555
H5 C6 1_555 1_555
C7 C6 1_555 1_555
H6 C7 1_555 1_555
C8 N1 1_555 1_555
C9 C1 1_555 1_555
C10 C9 1_555 1_555
H7 C10 1_555 1_555
C11 C10 1_555 1_555
C12 C11 1_555 1_555
H8 C12 1_555 1_555
C13 C12 1_555 1_555
H9 C13 1_555 1_555
C14 C13 1_555 1_555
H10 C14 1_555 1_555
C15 C14 1_555 1_555
H11 C15 1_555 1_555
C16 C11 1_555 1_555
H12 C16 1_555 1_555
C17 C9 1_555 1_555
C18 O4 1_555 1_555
H13 C18 1_555 1_555
H14 C18 1_555 1_555
C19 C18 1_555 1_555
H15 C19 1_555 1_555
H16 C19 1_555 1_555
H17 C19 1_555 1_555
C20 S1 1_555 1_555
C21 C20 1_555 1_555
H18 C21 1_555 1_555
C22 C21 1_555 1_555
H19 C22 1_555 1_555
C23 C22 1_555 1_555
C24 C23 1_555 1_555
H20 C24 1_555 1_555
C25 C20 1_555 1_555
H21 C25 1_555 1_555
C26 C23 1_555 1_555
H22 C26 1_555 1_555
H23 C26 1_555 1_555
H24 C26 1_555 1_555
C3 C8 1_555 1_555
C7 C8 1_555 1_555
C15 C16 1_555 1_555
C24 C25 1_555 1_555

#END
