
#######################################################################
#
#                 Cambridge Crystallographic Data Centre
#                                CCDC 
#
#######################################################################
#
# If this CIF has been generated from an entry in the Cambridge 
# Structural Database, then it will include bibliographic, chemical, 
# crystal, experimental, refinement or atomic coordinate data resulting 
# from the CCDC's data processing and validation procedures.
#
#######################################################################

data_JEVFOI
_chemical_formula_moiety         'C18 H14 Br1 N1 O3'
_chemical_name_systematic        
3'-(3-bromophenyl)-3'-methyl-5'H-spiro[indole-3,2'-oxolane]-2,5'(1H)-dione
_symmetry_cell_setting           monoclinic
_symmetry_space_group_name_H-M   'P 21/c'
_symmetry_Int_Tables_number      14
_space_group_name_Hall           '-P 2ybc'
loop_
_symmetry_equiv_pos_site_id
_symmetry_equiv_pos_as_xyz
1 x,y,z
2 -x,1/2+y,1/2-z
3 -x,-y,-z
4 x,1/2-y,1/2+z
_cell_length_a                   8.351(2)
_cell_length_b                   10.255(3)
_cell_length_c                   18.062(6)
_cell_angle_alpha                90
_cell_angle_beta                 98.302(3)
_cell_angle_gamma                90
_cell_volume                     1530.61
_exptl_crystal_colour            colorless
_exptl_crystal_description       needle
_cell_formula_units_Z            4
loop_
_atom_site_label
_atom_site_type_symbol
_atom_site_fract_x
_atom_site_fract_y
_atom_site_fract_z
Br1 Br 1.21498(3) 0.80428(3) 0.21442(2)
O1 O 0.9704(2) 0.6776(2) 0.49723(12)
O2 O 0.6759(2) 0.82539(19) 0.50843(10)
O3 O 0.7684(2) 1.0180(2) 0.55366(11)
N1 N 0.7814(3) 0.5276(2) 0.44532(13)
H1 H 0.8419 0.4596 0.4464
C1 C 0.6929(3) 0.7444(3) 0.44393(15)
C2 C 0.5522(3) 0.6539(3) 0.42389(15)
C3 C 0.3873(3) 0.6766(3) 0.40702(16)
H2 H 0.3454 0.7601 0.4102
C4 C 0.2860(3) 0.5714(3) 0.38527(17)
H3 H 0.1751 0.5848 0.3733
C5 C 0.3486(4) 0.4472(3) 0.38133(17)
H4 H 0.2791 0.3787 0.3654
C6 C 0.5134(3) 0.4223(3) 0.40076(16)
H5 H 0.5547 0.3382 0.3997
C7 C 0.6130(3) 0.5273(3) 0.42168(16)
C8 C 0.8356(3) 0.6476(3) 0.46606(15)
C9 C 0.7623(3) 0.9376(3) 0.50492(15)
C10 C 0.8397(3) 0.9388(3) 0.43461(15)
H6 H 0.9503 0.9075 0.4440
H7 H 0.8385 1.0256 0.4132
C11 C 0.7312(3) 0.8453(3) 0.38345(15)
C12 C 0.5784(3) 0.9219(3) 0.35089(16)
H8 H 0.5026 0.8640 0.3226
H9 H 0.6074 0.9900 0.3188
H10 H 0.5300 0.9596 0.3910
C13 C 0.8038(3) 0.7815(3) 0.31977(15)
C14 C 0.7093(3) 0.6934(3) 0.27330(15)
H11 H 0.6066 0.6719 0.2836
C15 C 0.7658(3) 0.6377(3) 0.21224(16)
H12 H 0.7016 0.5781 0.1826
C16 C 0.9173(3) 0.6698(3) 0.19497(16)
H13 H 0.9554 0.6336 0.1537
C17 C 1.0102(3) 0.7574(3) 0.24096(15)
C18 C 0.9575(3) 0.8136(3) 0.30324(15)
H14 H 1.0233 0.8716 0.3334
loop_
_geom_bond_atom_site_label_1
_geom_bond_atom_site_label_2
_geom_bond_site_symmetry_1
_geom_bond_site_symmetry_2
Br1 C17 1_555 1_555
O1 C8 1_555 1_555
O2 C1 1_555 1_555
O3 C9 1_555 1_555
N1 H1 1_555 1_555
C1 C2 1_555 1_555
C2 C3 1_555 1_555
C3 H2 1_555 1_555
C4 C3 1_555 1_555
H3 C4 1_555 1_555
C5 C4 1_555 1_555
H4 C5 1_555 1_555
C6 C5 1_555 1_555
H5 C6 1_555 1_555
C7 N1 1_555 1_555
C8 N1 1_555 1_555
C9 O2 1_555 1_555
C10 C9 1_555 1_555
H6 C10 1_555 1_555
H7 C10 1_555 1_555
C11 C1 1_555 1_555
C12 C11 1_555 1_555
H8 C12 1_555 1_555
H9 C12 1_555 1_555
H10 C12 1_555 1_555
C13 C11 1_555 1_555
C14 C13 1_555 1_555
H11 C14 1_555 1_555
C15 C14 1_555 1_555
H12 C15 1_555 1_555
C16 C15 1_555 1_555
H13 C16 1_555 1_555
C17 C16 1_555 1_555
C18 C13 1_555 1_555
H14 C18 1_555 1_555
C1 C8 1_555 1_555
C2 C7 1_555 1_555
C6 C7 1_555 1_555
C10 C11 1_555 1_555
C17 C18 1_555 1_555

#END
