
#######################################################################
#
#                 Cambridge Crystallographic Data Centre
#                                CCDC 
#
#######################################################################
#
# If this CIF has been generated from an entry in the Cambridge 
# Structural Database, then it will include bibliographic, chemical, 
# crystal, experimental, refinement or atomic coordinate data resulting 
# from the CCDC's data processing and validation procedures.
#
#######################################################################

data_JEVFUO
_chemical_formula_moiety         
'Cs1 1+,C38 H45 N5 O4,N3 1-,C1 H1 Cl3,1.5(C2 H6 O1)'
_chemical_name_systematic        
'cesium 1,16,21,21,30,30-hexamethyl-5,12-dioxa-35,36,37,38,39-pentaazaheptacyclo[14.9.9.1^7,10^.1^17,20^.1^22,25^.1^26,29^.1^31,34^]nonatriaconta-7,9,17,19,22,24,26,28,31,33-decaene-6,11-dione azide chloroform ethanol solvate'
_symmetry_cell_setting           triclinic
_symmetry_space_group_name_H-M   'P -1'
_symmetry_Int_Tables_number      2
_space_group_name_Hall           '-P 1'
loop_
_symmetry_equiv_pos_site_id
_symmetry_equiv_pos_as_xyz
1 x,y,z
2 -x,-y,-z
_cell_length_a                   11.4410(12)
_cell_length_b                   14.034(2)
_cell_length_c                   15.1610(18)
_cell_angle_alpha                85.082(7)
_cell_angle_beta                 81.850(7)
_cell_angle_gamma                69.799(7)
_cell_volume                     2259.71
_exptl_crystal_colour            colorless
_exptl_crystal_description       prism
_cell_formula_units_Z            2
loop_
_atom_site_label
_atom_site_type_symbol
_atom_site_fract_x
_atom_site_fract_y
_atom_site_fract_z
N1 N 0.0670(5) 0.3966(4) 0.1752(3)
H1 H 0.1422 0.3954 0.1830
N2 N 0.1533(5) 0.3458(4) 0.3832(3)
H2 H 0.2082 0.3595 0.3419
N3 N 0.3925(4) 0.1276(3) 0.3110(3)
H3 H 0.4034 0.1825 0.2840
N4 N 0.3083(4) 0.1809(3) 0.1003(3)
H4 H 0.3380 0.2241 0.1200
N5 N 0.6695(5) 0.2697(4) 0.1206(4)
H5 H 0.6016 0.3194 0.1404
O1 O 0.6391(4) 0.2742(4) 0.3055(3)
O2 O 0.8307(4) 0.1553(4) 0.3103(3)
O3 O 0.6582(5) 0.2606(4) -0.1153(3)
O4 O 0.5151(4) 0.3537(4) -0.0091(3)
C1 C 0.0390(6) 0.3622(4) 0.1010(4)
C2 C -0.0855(6) 0.3741(5) 0.1154(4)
H6 H -0.1315 0.3558 0.0763
C3 C -0.1343(6) 0.4190(5) 0.1997(4)
H7 H -0.2188 0.4362 0.2264
C4 C -0.0387(5) 0.4329(4) 0.2352(4)
C5 C -0.0340(6) 0.4773(5) 0.3215(4)
C6 C 0.0246(6) 0.3934(5) 0.3886(4)
C7 C -0.0264(6) 0.3508(5) 0.4610(4)
H8 H -0.1133 0.3682 0.4816
C8 C 0.0714(6) 0.2768(5) 0.4999(4)
H9 H 0.0619 0.2353 0.5515
C9 C 0.1827(6) 0.2739(4) 0.4516(4)
C10 C 0.3170(5) 0.2068(5) 0.4607(4)
C11 C 0.3525(5) 0.1190(4) 0.4001(4)
C12 C 0.3453(6) 0.0244(5) 0.4159(4)
H10 H 0.3187 -0.0028 0.4716
C13 C 0.3847(6) -0.0268(4) 0.3338(4)
H11 H 0.3900 -0.0946 0.3255
C14 C 0.4134(5) 0.0379(4) 0.2696(4)
C15 C 0.4600(5) 0.0258(4) 0.1719(4)
C16 C 0.3533(5) 0.0761(4) 0.1165(4)
C17 C 0.2805(5) 0.0383(4) 0.0763(4)
H12 H 0.2876 -0.0313 0.0769
C18 C 0.1929(6) 0.1193(4) 0.0337(4)
H13 H 0.1317 0.1136 0.0000
C19 C 0.2109(5) 0.2074(4) 0.0489(4)
C20 C 0.1405(6) 0.3181(4) 0.0241(4)
C21 C -0.1698(7) 0.5361(6) 0.3620(5)
H14 H -0.2093 0.5914 0.3203
H15 H -0.1678 0.5644 0.4184
H16 H -0.2181 0.4897 0.3729
C22 C 0.0392(7) 0.5514(5) 0.3039(5)
H17 H 0.1249 0.5154 0.2773
H18 H 0.0418 0.5795 0.3603
H19 H -0.0023 0.6067 0.2630
C23 C 0.3245(7) 0.1651(5) 0.5581(4)
H20 H 0.2618 0.1316 0.5751
H21 H 0.3080 0.2212 0.5976
H22 H 0.4085 0.1159 0.5636
C24 C 0.5141(6) -0.0883(4) 0.1510(5)
H23 H 0.5817 -0.1232 0.1876
H24 H 0.5472 -0.0958 0.0878
H25 H 0.4475 -0.1183 0.1645
C25 C 0.5654(5) 0.0702(5) 0.1453(4)
H26 H 0.5336 0.1430 0.1567
H27 H 0.5952 0.0605 0.0818
H28 H 0.6348 0.0356 0.1805
C26 C 0.0774(6) 0.3231(5) -0.0587(4)
H29 H 0.0122 0.2917 -0.0448
H30 H 0.1399 0.2865 -0.1063
H31 H 0.0393 0.3942 -0.0782
C27 C 0.4050(5) 0.2714(5) 0.4372(4)
H32 H 0.3970 0.2986 0.3751
H33 H 0.3741 0.3302 0.4763
C28 C 0.5428(6) 0.2178(5) 0.4455(4)
H34 H 0.5544 0.2044 0.5094
H35 H 0.5710 0.1514 0.4169
C29 C 0.6228(7) 0.2787(6) 0.4031(5)
H36 H 0.5829 0.3503 0.4203
H37 H 0.7059 0.2517 0.4252
C30 C 0.7476(6) 0.2089(5) 0.2680(5)
C31 C 0.7564(6) 0.2078(5) 0.1711(5)
C32 C 0.8486(6) 0.1406(6) 0.1155(5)
H38 H 0.9214 0.0889 0.1329
C33 C 0.8157(7) 0.1619(6) 0.0303(5)
H39 H 0.8616 0.1273 -0.0216
C34 C 0.7047(6) 0.2423(5) 0.0336(5)
C35 C 0.6266(7) 0.2858(6) -0.0386(5)
C36 C 0.4280(7) 0.4017(6) -0.0747(5)
H40 H 0.4754 0.3972 -0.1351
H41 H 0.3858 0.4745 -0.0622
C37 C 0.3311(6) 0.3517(5) -0.0726(4)
H42 H 0.3729 0.2771 -0.0705
H43 H 0.2910 0.3708 -0.1283
C38 C 0.2287(6) 0.3817(5) 0.0082(4)
H44 H 0.2702 0.3754 0.0625
H45 H 0.1771 0.4540 -0.0002
Cs1 Cs 1.09394(4) 0.16218(3) 0.27575(3)
O5 O 0.0973(9) -0.1096(10) 0.1997(6)
C39 C 0.0303(15) -0.1788(12) 0.2187(12)
H46 H 0.0543 -0.2191 0.2743
H47 H 0.0519 -0.2264 0.1696
C40 C -0.1049(14) -0.1227(13) 0.2291(12)
H48 H -0.1249 -0.0721 0.2746
H49 H -0.1506 -0.1701 0.2473
H50 H -0.1296 -0.0884 0.1722
Cl1 Cl 0.5241(3) 0.6338(4) 0.3303(3)
Cl2 Cl 0.2646(3) 0.7460(2) 0.3614(2)
Cl3 Cl 0.3525(4) 0.5361(3) 0.4094(3)
C41 C 0.3725(10) 0.6322(7) 0.3374(7)
H51 H 0.3607 0.6163 0.2769
N6 N 0.3327(5) 0.3371(4) 0.2178(3)
N7 N 0.3878(5) 0.3959(4) 0.2040(3)
N8 N 0.4438(7) 0.4521(5) 0.1906(5)
O6? O 0.0850(18) -0.0526(15) 0.2369(15)
C42? C -0.010(2) -0.092(2) 0.2754(15)
H52? H -0.0860 -0.0353 0.2976
H53? H 0.0189 -0.1384 0.3267
C43? C -0.042(4) -0.146(3) 0.210(2)
H54? H -0.0494 -0.1066 0.1530
H55? H -0.1220 -0.1565 0.2311
H56? H 0.0241 -0.2125 0.2006
O7? O 1.0865(13) -0.0337(10) 0.3682(10)
C44? C 0.998(3) -0.036(2) 0.440(2)
H57? H 0.9197 -0.0271 0.4147
H58? H 1.0263 -0.1053 0.4670
C45? C 0.969(3) 0.026(2) 0.504(3)
H59? H 1.0387 0.0094 0.5399
H60? H 0.8943 0.0205 0.5421
H61? H 0.9503 0.0961 0.4796
loop_
_geom_bond_atom_site_label_1
_geom_bond_atom_site_label_2
_geom_bond_site_symmetry_1
_geom_bond_site_symmetry_2
N1 H1 1_555 1_555
N2 H2 1_555 1_555
N3 H3 1_555 1_555
N4 H4 1_555 1_555
N5 H5 1_555 1_555
O1 C29 1_555 1_555
O2 C30 1_555 1_555
O3 C35 1_555 1_555
O4 C35 1_555 1_555
C1 N1 1_555 1_555
C2 C1 1_555 1_555
H6 C2 1_555 1_555
C3 C2 1_555 1_555
H7 C3 1_555 1_555
C4 N1 1_555 1_555
C5 C4 1_555 1_555
C6 N2 1_555 1_555
C7 C6 1_555 1_555
H8 C7 1_555 1_555
C8 C7 1_555 1_555
H9 C8 1_555 1_555
C9 N2 1_555 1_555
C10 C9 1_555 1_555
C11 N3 1_555 1_555
C12 C11 1_555 1_555
H10 C12 1_555 1_555
C13 C12 1_555 1_555
H11 C13 1_555 1_555
C14 N3 1_555 1_555
C15 C14 1_555 1_555
C16 N4 1_555 1_555
C17 C16 1_555 1_555
H12 C17 1_555 1_555
C18 C17 1_555 1_555
H13 C18 1_555 1_555
C19 N4 1_555 1_555
C20 C1 1_555 1_555
C21 C5 1_555 1_555
H14 C21 1_555 1_555
H15 C21 1_555 1_555
H16 C21 1_555 1_555
C22 C5 1_555 1_555
H17 C22 1_555 1_555
H18 C22 1_555 1_555
H19 C22 1_555 1_555
C23 C10 1_555 1_555
H20 C23 1_555 1_555
H21 C23 1_555 1_555
H22 C23 1_555 1_555
C24 C15 1_555 1_555
H23 C24 1_555 1_555
H24 C24 1_555 1_555
H25 C24 1_555 1_555
C25 C15 1_555 1_555
H26 C25 1_555 1_555
H27 C25 1_555 1_555
H28 C25 1_555 1_555
C26 C20 1_555 1_555
H29 C26 1_555 1_555
H30 C26 1_555 1_555
H31 C26 1_555 1_555
C27 C10 1_555 1_555
H32 C27 1_555 1_555
H33 C27 1_555 1_555
C28 C27 1_555 1_555
H34 C28 1_555 1_555
H35 C28 1_555 1_555
C29 C28 1_555 1_555
H36 C29 1_555 1_555
H37 C29 1_555 1_555
C30 O1 1_555 1_555
C31 N5 1_555 1_555
C32 C31 1_555 1_555
H38 C32 1_555 1_555
C33 C32 1_555 1_555
H39 C33 1_555 1_555
C34 N5 1_555 1_555
C35 C34 1_555 1_555
C36 O4 1_555 1_555
H40 C36 1_555 1_555
H41 C36 1_555 1_555
C37 C36 1_555 1_555
H42 C37 1_555 1_555
H43 C37 1_555 1_555
C38 C20 1_555 1_555
H44 C38 1_555 1_555
H45 C38 1_555 1_555
O5 C39 1_555 1_555
C39 H46 1_555 1_555
H47 C39 1_555 1_555
C40 C39 1_555 1_555
H48 C40 1_555 1_555
H49 C40 1_555 1_555
H50 C40 1_555 1_555
Cl1 C41 1_555 1_555
Cl2 C41 1_555 1_555
Cl3 C41 1_555 1_555
C41 H51 1_555 1_555
N6 N7 1_555 1_555
N7 N8 1_555 1_555
C3 C4 1_555 1_555
C5 C6 1_555 1_555
C8 C9 1_555 1_555
C10 C11 1_555 1_555
C13 C14 1_555 1_555
C15 C16 1_555 1_555
C18 C19 1_555 1_555
C19 C20 1_555 1_555
C30 C31 1_555 1_555
C33 C34 1_555 1_555
C37 C38 1_555 1_555

#END
