
#######################################################################
#
#                 Cambridge Crystallographic Data Centre
#                                CCDC 
#
#######################################################################
#
# If this CIF has been generated from an entry in the Cambridge 
# Structural Database, then it will include bibliographic, chemical, 
# crystal, experimental, refinement or atomic coordinate data resulting 
# from the CCDC's data processing and validation procedures.
#
#######################################################################

data_JEVFEY
_chemical_formula_moiety         'C16 H12 F3 N3'
_chemical_name_systematic        
4-(1-azido-4,4,4-trifluorobut-1-en-1-yl)biphenyl
_symmetry_cell_setting           monoclinic
_symmetry_space_group_name_H-M   'P 21/c'
_symmetry_Int_Tables_number      14
_space_group_name_Hall           '-P 2ybc'
loop_
_symmetry_equiv_pos_site_id
_symmetry_equiv_pos_as_xyz
1 x,y,z
2 -x,1/2+y,1/2-z
3 -x,-y,-z
4 x,1/2-y,1/2+z
_cell_length_a                   8.1147(9)
_cell_length_b                   5.5748(6)
_cell_length_c                   32.002(4)
_cell_angle_alpha                90
_cell_angle_beta                 97.317(7)
_cell_angle_gamma                90
_cell_volume                     1435.91
_exptl_crystal_colour            black
_exptl_crystal_description       block
_cell_formula_units_Z            4
loop_
_atom_site_label
_atom_site_type_symbol
_atom_site_fract_x
_atom_site_fract_y
_atom_site_fract_z
F1 F 0.59874(18) 1.1055(2) -0.03123(4)
F2 F 0.78661(17) 0.9975(3) 0.01783(4)
F3 F 0.84907(18) 1.0775(3) -0.04351(5)
N1 N 0.38601(17) 0.5383(3) -0.06355(4)
N2 N 0.23410(19) 0.5459(3) -0.07291(4)
N3 N 0.0944(2) 0.5423(4) -0.07642(5)
C1 C 0.2606(2) 0.3855(3) -0.19721(5)
H1 H 0.1952 0.2546 -0.2067
C2 C 0.42226(18) 0.5900(3) -0.13956(4)
C3 C 0.21667(17) 0.5547(2) -0.27059(4)
C4 C 0.29204(17) 0.5627(2) -0.22579(4)
C5 C 0.48845(19) 0.6106(3) -0.09445(5)
C6 C 0.3236(2) 0.3985(3) -0.15519(5)
H2 H 0.2997 0.2770 -0.1370
C7 C 0.3941(2) 0.7511(3) -0.20997(5)
H3 H 0.4202 0.8709 -0.2283
C8 C 0.6404(2) 0.6869(3) -0.08039(5)
H4 H 0.7106 0.7232 -0.1003
C9 C 0.4574(2) 0.7652(3) -0.16802(5)
H5 H 0.5248 0.8941 -0.1586
C10 C 0.0353(2) 0.3699(4) -0.32708(6)
H6 H -0.0380 0.2469 -0.3362
C11 C 0.2506(2) 0.7279(3) -0.29934(5)
H7 H 0.3238 0.8515 -0.2905
C12 C 0.0704(2) 0.5430(3) -0.35473(5)
H8 H 0.0216 0.5393 -0.3826
C13 C 0.1783(3) 0.7214(4) -0.34079(6)
H9 H 0.2036 0.8401 -0.3594
C14 C 0.7076(2) 0.7191(3) -0.03504(5)
H10 H 0.6304 0.6497 -0.0177
H11 H 0.8119 0.6330 -0.0293
C15 C 0.7351(2) 0.9727(4) -0.02341(6)
C16 C 0.1077(2) 0.3758(3) -0.28568(5)
H12 H 0.0822 0.2555 -0.2674
loop_
_geom_bond_atom_site_label_1
_geom_bond_atom_site_label_2
_geom_bond_site_symmetry_1
_geom_bond_site_symmetry_2
F1 C15 1_555 1_555
F2 C15 1_555 1_555
F3 C15 1_555 1_555
N1 N2 1_555 1_555
N2 N3 1_555 1_555
C1 H1 1_555 1_555
C2 C5 1_555 1_555
C3 C4 1_555 1_555
C4 C1 1_555 1_555
C5 N1 1_555 1_555
C6 C1 1_555 1_555
H2 C6 1_555 1_555
C7 C4 1_555 1_555
H3 C7 1_555 1_555
C8 C5 1_555 1_555
H4 C8 1_555 1_555
C9 C2 1_555 1_555
H5 C9 1_555 1_555
C10 H6 1_555 1_555
C11 C3 1_555 1_555
H7 C11 1_555 1_555
C12 C10 1_555 1_555
H8 C12 1_555 1_555
C13 C11 1_555 1_555
H9 C13 1_555 1_555
C14 C8 1_555 1_555
H10 C14 1_555 1_555
H11 C14 1_555 1_555
C15 C14 1_555 1_555
C16 C3 1_555 1_555
H12 C16 1_555 1_555
C2 C6 1_555 1_555
C7 C9 1_555 1_555
C10 C16 1_555 1_555
C12 C13 1_555 1_555

#END
