
#######################################################################
#
#                 Cambridge Crystallographic Data Centre
#                                CCDC 
#
#######################################################################
#
# If this CIF has been generated from an entry in the Cambridge 
# Structural Database, then it will include bibliographic, chemical, 
# crystal, experimental, refinement or atomic coordinate data resulting 
# from the CCDC's data processing and validation procedures.
#
#######################################################################

data_JEVFIC
_chemical_formula_moiety         'C13 H14 F3 N3 O3'
_chemical_name_systematic        
5-(3-azido-4,4,4-trifluorobut-1-en-1-yl)-1,2,3-trimethoxybenzene
_symmetry_cell_setting           tetragonal
_symmetry_space_group_name_H-M   'I 41/a'
_symmetry_Int_Tables_number      88
_space_group_name_Hall           '-I 4ad'
loop_
_symmetry_equiv_pos_site_id
_symmetry_equiv_pos_as_xyz
1 x,y,z
2 1/2-x,-y,1/2+z
3 3/4-y,1/4+x,1/4+z
4 3/4+y,3/4-x,3/4+z
5 1/2+x,1/2+y,1/2+z
6 -x,1/2-y,z
7 1/4-y,3/4+x,3/4+z
8 1/4+y,1/4-x,1/4+z
9 -x,-y,-z
10 1/2+x,y,1/2-z
11 1/4+y,3/4-x,3/4-z
12 1/4-y,1/4+x,1/4-z
13 1/2-x,1/2-y,1/2-z
14 x,1/2+y,-z
15 3/4+y,1/4-x,1/4-z
16 3/4-y,3/4+x,3/4-z
_cell_length_a                   22.0462(10)
_cell_length_b                   22.0462(10)
_cell_length_c                   12.8478(12)
_cell_angle_alpha                90
_cell_angle_beta                 90
_cell_angle_gamma                90
_cell_volume                     6244.48
_exptl_crystal_colour            black
_exptl_crystal_description       block
_cell_formula_units_Z            16
loop_
_atom_site_label
_atom_site_type_symbol
_atom_site_fract_x
_atom_site_fract_y
_atom_site_fract_z
O1 O 0.12050(10) 0.56425(9) 0.05962(15)
O2 O 0.15260(11) 0.51389(11) -0.11935(17)
C1 C 0.01251(12) 0.59102(13) -0.2007(2)
O3 O 0.02000(11) 0.62870(12) 0.07798(17)
C2 C 0.10031(13) 0.54693(13) -0.1211(2)
C3 C 0.08396(13) 0.57167(13) -0.0255(2)
F1 F -0.08171(12) 0.62476(12) -0.64039(17)
C4 C 0.06483(13) 0.55644(13) -0.2076(2)
H1 H 0.0760 0.5396 -0.2711
F2 F -0.01571(12) 0.66973(12) -0.5479(2)
C5 C -0.02146(14) 0.58047(14) -0.3854(2)
H2 H 0.0131 0.5582 -0.4020
N1 N -0.09730(14) 0.53367(14) -0.5014(2)
F3 F 0.00216(12) 0.58124(13) -0.60672(18)
C6 C -0.00357(14) 0.61593(14) -0.1059(2)
H3 H -0.0385 0.6393 -0.1009
C7 C -0.06739(14) 0.59114(14) -0.4680(2)
H4 H -0.0983 0.6192 -0.4416
N2 N -0.12516(17) 0.51024(16) -0.4313(3)
C8 C 0.03191(14) 0.60638(14) -0.0182(2)
C9 C -0.04089(18) 0.61639(18) -0.5653(3)
C10 C -0.02736(13) 0.60088(14) -0.2906(2)
H5 H -0.0613 0.6248 -0.2784
C11 C 0.1073(2) 0.5123(2) 0.1194(3)
H6 H 0.1348 0.5100 0.1771
H7 H 0.1117 0.4768 0.0769
H8 H 0.0664 0.5148 0.1448
N3 N -0.1520(2) 0.4845(2) -0.3726(4)
C12 C 0.1750(2) 0.4913(2) -0.2139(3)
H9 H 0.2115 0.4687 -0.2013
H10 H 0.1836 0.5245 -0.2600
H11 H 0.1453 0.4652 -0.2451
C13 C -0.0348(2) 0.6598(3) 0.0937(4)
H12 H -0.0374 0.6726 0.1650
H13 H -0.0682 0.6334 0.0779
H14 H -0.0362 0.6947 0.0490
loop_
_geom_bond_atom_site_label_1
_geom_bond_atom_site_label_2
_geom_bond_site_symmetry_1
_geom_bond_site_symmetry_2
O1 C3 1_555 1_555
O2 C2 1_555 1_555
C1 C4 1_555 1_555
O3 C8 1_555 1_555
C2 C3 1_555 1_555
C3 C8 1_555 1_555
F1 C9 1_555 1_555
C4 C2 1_555 1_555
H1 C4 1_555 1_555
F2 C9 1_555 1_555
C5 H2 1_555 1_555
N1 C7 1_555 1_555
F3 C9 1_555 1_555
C6 C1 1_555 1_555
H3 C6 1_555 1_555
C7 C5 1_555 1_555
H4 C7 1_555 1_555
N2 N1 1_555 1_555
C8 C6 1_555 1_555
C9 C7 1_555 1_555
C10 C1 1_555 1_555
H5 C10 1_555 1_555
C11 O1 1_555 1_555
H6 C11 1_555 1_555
H7 C11 1_555 1_555
H8 C11 1_555 1_555
N3 N2 1_555 1_555
C12 O2 1_555 1_555
H9 C12 1_555 1_555
H10 C12 1_555 1_555
H11 C12 1_555 1_555
C13 O3 1_555 1_555
H12 C13 1_555 1_555
H13 C13 1_555 1_555
H14 C13 1_555 1_555
C5 C10 1_555 1_555

#END
