
#######################################################################
#
#                 Cambridge Crystallographic Data Centre
#                                CCDC 
#
#######################################################################
#
# If this CIF has been generated from an entry in the Cambridge 
# Structural Database, then it will include bibliographic, chemical, 
# crystal, experimental, refinement or atomic coordinate data resulting 
# from the CCDC's data processing and validation procedures.
#
#######################################################################

data_JEVHAW
_chemical_formula_moiety         'C15 H9 F1 N2 O1'
_chemical_name_systematic        2-fluoroindolizino[1,2-b]quinolin-9(11H)-one
_symmetry_cell_setting           triclinic
_symmetry_space_group_name_H-M   'P -1'
_symmetry_Int_Tables_number      2
_space_group_name_Hall           '-P 1'
loop_
_symmetry_equiv_pos_site_id
_symmetry_equiv_pos_as_xyz
1 x,y,z
2 -x,-y,-z
_cell_length_a                   4.81580(10)
_cell_length_b                   8.0560(2)
_cell_length_c                   14.3600(4)
_cell_angle_alpha                100.1500(10)
_cell_angle_beta                 90.8700(10)
_cell_angle_gamma                97.2970(10)
_cell_volume                     543.549
_cell_formula_units_Z            2
loop_
_atom_site_label
_atom_site_type_symbol
_atom_site_fract_x
_atom_site_fract_y
_atom_site_fract_z
F1 F 1.41763(17) 0.96878(11) 0.89820(5)
O1 O -0.13791(18) 0.20679(11) 0.48296(6)
N1 N 0.1063(2) 0.29928(12) 0.62306(7)
C1 C -0.1101(2) 0.19688(15) 0.56795(8)
N2 N 0.4971(2) 0.47990(12) 0.83703(7)
C2 C -0.2875(3) 0.09016(15) 0.61936(9)
H1 H -0.4385 0.0137 0.5866
C3 C -0.2438(3) 0.09631(15) 0.71409(9)
H2 H -0.3663 0.0246 0.7457
C4 C -0.0221(3) 0.20602(15) 0.76638(9)
H3 H 0.0061 0.2095 0.8324
C5 C 0.1499(2) 0.30665(15) 0.71894(8)
C6 C 0.3919(2) 0.43466(14) 0.74964(8)
C7 C 0.4906(2) 0.50173(14) 0.66955(8)
C8 C 0.3096(2) 0.41827(15) 0.58391(8)
H4 H 0.2155 0.5023 0.5569
H5 H 0.4197 0.3573 0.5346
C9 C 0.7177(2) 0.62383(15) 0.68042(8)
H6 H 0.7893 0.6715 0.6283
C10 C 0.8431(2) 0.67707(15) 0.77266(8)
C11 C 0.7250(2) 0.60286(15) 0.84926(8)
C12 C 0.8495(3) 0.65777(16) 0.94149(9)
H7 H 0.7726 0.6101 0.9929
C13 C 1.0797(3) 0.77887(17) 0.95688(9)
H8 H 1.1635 0.8153 1.0186
C14 C 1.1901(3) 0.84847(16) 0.88039(9)
C15 C 1.0810(2) 0.80167(15) 0.79043(9)
H9 H 1.1630 0.8517 0.7405
loop_
_geom_bond_atom_site_label_1
_geom_bond_atom_site_label_2
_geom_bond_site_symmetry_1
_geom_bond_site_symmetry_2
F1 C14 1_555 1_555
O1 C1 1_555 1_555
N1 C1 1_555 1_555
C1 C2 1_555 1_555
N2 C6 1_555 1_555
C2 H1 1_555 1_555
C3 C2 1_555 1_555
H2 C3 1_555 1_555
C4 C3 1_555 1_555
H3 C4 1_555 1_555
C5 N1 1_555 1_555
C6 C5 1_555 1_555
C7 C6 1_555 1_555
C8 N1 1_555 1_555
H4 C8 1_555 1_555
H5 C8 1_555 1_555
C9 C7 1_555 1_555
H6 C9 1_555 1_555
C10 C9 1_555 1_555
C11 N2 1_555 1_555
C12 C11 1_555 1_555
H7 C12 1_555 1_555
C13 C12 1_555 1_555
H8 C13 1_555 1_555
C14 C13 1_555 1_555
C15 C10 1_555 1_555
H9 C15 1_555 1_555
C4 C5 1_555 1_555
C7 C8 1_555 1_555
C10 C11 1_555 1_555
C14 C15 1_555 1_555

#END
