
#######################################################################
#
#                 Cambridge Crystallographic Data Centre
#                                CCDC 
#
#######################################################################
#
# If this CIF has been generated from an entry in the Cambridge 
# Structural Database, then it will include bibliographic, chemical, 
# crystal, experimental, refinement or atomic coordinate data resulting 
# from the CCDC's data processing and validation procedures.
#
#######################################################################

data_JEVKAZ
_chemical_formula_moiety         'C19 H18 O3'
_chemical_name_systematic        
'ethyl 2-(2,3-dihydro-1-benzofuran-2-yl)-3-phenylprop-2-enoate'
_symmetry_cell_setting           triclinic
_symmetry_space_group_name_H-M   'P -1'
_symmetry_Int_Tables_number      2
_space_group_name_Hall           '-P 1'
loop_
_symmetry_equiv_pos_site_id
_symmetry_equiv_pos_as_xyz
1 x,y,z
2 -x,-y,-z
_cell_length_a                   6.776(2)
_cell_length_b                   10.643(3)
_cell_length_c                   11.371(4)
_cell_angle_alpha                90.537(11)
_cell_angle_beta                 106.826(9)
_cell_angle_gamma                94.317(8)
_cell_volume                     782.29
_exptl_crystal_colour            colorless
_exptl_crystal_description       block
_cell_formula_units_Z            2
loop_
_atom_site_label
_atom_site_type_symbol
_atom_site_fract_x
_atom_site_fract_y
_atom_site_fract_z
C1 C 0.0897(4) 0.5207(3) 0.3126(3)
H1 H 0.085063 0.595711 0.362046
C2 C 0.3058(5) 0.5208(3) 0.2964(3)
H2 H 0.299207 0.514279 0.210222
H3 H 0.390951 0.596504 0.333139
C3 C 0.3877(5) 0.4057(3) 0.3630(3)
C4 C 0.5706(5) 0.3526(4) 0.3796(3)
H4 H 0.672416 0.389408 0.347932
C5 C 0.6014(6) 0.2425(4) 0.4448(4)
H5 H 0.725892 0.205856 0.457522
C6 C 0.4517(5) 0.1873(3) 0.4904(4)
H6 H 0.476033 0.113824 0.534136
C7 C 0.2640(5) 0.2391(3) 0.4724(3)
H7 H 0.161100 0.202363 0.503167
C8 C 0.2373(4) 0.3475(3) 0.4068(3)
C9 C -0.0860(5) 0.5179(3) 0.1961(3)
C10 C -0.2044(5) 0.6125(3) 0.1554(3)
H8 H -0.315410 0.593772 0.085517
C11 C -0.1829(5) 0.7432(3) 0.2065(3)
C12 C -0.3630(6) 0.8058(3) 0.1854(4)
H9 H -0.490968 0.764990 0.144068
C13 C -0.3479(7) 0.9300(4) 0.2270(4)
H10 H -0.467642 0.971966 0.213416
C14 C -0.1636(7) 0.9917(4) 0.2868(4)
H11 H -0.157906 1.074367 0.315575
C15 C 0.0163(7) 0.9316(3) 0.3050(4)
H12 H 0.143656 0.974300 0.344261
C16 C 0.0061(6) 0.8076(3) 0.2646(3)
H13 H 0.127132 0.767245 0.276505
C17 C -0.1401(5) 0.4001(3) 0.1178(3)
C18 C -0.0099(6) 0.2139(3) 0.0665(4)
H14 H -0.052486 0.230212 -0.020636
H15 H -0.115149 0.156911 0.084580
C19 C 0.1937(6) 0.1576(4) 0.1015(4)
H16 H 0.293188 0.211251 0.076065
H17 H 0.178571 0.075950 0.061884
H18 H 0.240277 0.149501 0.189040
O1 O 0.0605(3) 0.40834(18) 0.3817(2)
O2 O 0.0183(3) 0.3302(2) 0.1379(2)
O3 O -0.3024(4) 0.3718(3) 0.0436(3)
loop_
_geom_bond_atom_site_label_1
_geom_bond_atom_site_label_2
_geom_bond_site_symmetry_1
_geom_bond_site_symmetry_2
C1 H1 1_555 1_555
C2 C1 1_555 1_555
H2 C2 1_555 1_555
H3 C2 1_555 1_555
C3 C2 1_555 1_555
C4 C3 1_555 1_555
H4 C4 1_555 1_555
C5 C4 1_555 1_555
H5 C5 1_555 1_555
C6 C5 1_555 1_555
H6 C6 1_555 1_555
C7 C6 1_555 1_555
H7 C7 1_555 1_555
C8 C3 1_555 1_555
C9 C1 1_555 1_555
C10 C9 1_555 1_555
H8 C10 1_555 1_555
C11 C10 1_555 1_555
C12 C11 1_555 1_555
H9 C12 1_555 1_555
C13 C12 1_555 1_555
H10 C13 1_555 1_555
C14 C13 1_555 1_555
H11 C14 1_555 1_555
C15 C14 1_555 1_555
H12 C15 1_555 1_555
C16 C11 1_555 1_555
H13 C16 1_555 1_555
C17 C9 1_555 1_555
C18 H14 1_555 1_555
H15 C18 1_555 1_555
C19 C18 1_555 1_555
H16 C19 1_555 1_555
H17 C19 1_555 1_555
H18 C19 1_555 1_555
O1 C1 1_555 1_555
O2 C17 1_555 1_555
O3 C17 1_555 1_555
C7 C8 1_555 1_555
C8 O1 1_555 1_555
C15 C16 1_555 1_555
C18 O2 1_555 1_555

#END
