
#######################################################################
#
#                 Cambridge Crystallographic Data Centre
#                                CCDC 
#
#######################################################################
#
# If this CIF has been generated from an entry in the Cambridge 
# Structural Database, then it will include bibliographic, chemical, 
# crystal, experimental, refinement or atomic coordinate data resulting 
# from the CCDC's data processing and validation procedures.
#
#######################################################################

data_JEVKIF
_chemical_formula_moiety         'C20 H16 N2 O3 S1'
_chemical_name_systematic        2-(2'-Tosylaminophenyl)benzoxazole
_symmetry_cell_setting           triclinic
_symmetry_space_group_name_H-M   'P -1'
_symmetry_Int_Tables_number      2
_space_group_name_Hall           '-P 1'
loop_
_symmetry_equiv_pos_site_id
_symmetry_equiv_pos_as_xyz
1 x,y,z
2 -x,-y,-z
_cell_length_a                   8.339(6)
_cell_length_b                   9.815(7)
_cell_length_c                   11.245(8)
_cell_angle_alpha                74.619(9)
_cell_angle_beta                 87.713(10)
_cell_angle_gamma                80.552(10)
_cell_volume                     875.364
_exptl_crystal_colour            colorless
_exptl_crystal_description       block
_cell_formula_units_Z            2
_exptl_crystal_recrystallization_method dichloromethane/ethanol
loop_
_atom_site_label
_atom_site_type_symbol
_atom_site_fract_x
_atom_site_fract_y
_atom_site_fract_z
S1 S 0.25897(4) 0.34200(4) 0.89031(3)
O1 O 0.28672(13) 0.48378(12) 0.36597(9)
N1 N 0.39634(14) 0.34680(13) 0.54543(10)
N2 N 0.29240(15) 0.43281(14) 0.74997(11)
C1 C 0.10110(16) 0.24668(15) 0.87900(12)
O2 O 0.40546(12) 0.24251(13) 0.92452(10)
O3 O 0.20266(14) 0.43940(13) 0.96230(10)
C2 C -0.05843(17) 0.30109(16) 0.90050(14)
H1 H -0.0825 0.3853 0.9253
C3 C 0.18777(17) 0.55921(15) 0.54538(13)
C4 C 0.29475(17) 0.45932(15) 0.49107(12)
C5 C 0.18262(17) 0.54305(15) 0.67344(14)
C6 C 0.46209(17) 0.28760(15) 0.45056(13)
C7 C 0.13754(18) 0.11975(16) 0.84474(14)
H2 H 0.2449 0.0827 0.8318
C8 C -0.18139(18) 0.22816(17) 0.88455(14)
H3 H -0.2886 0.2646 0.8985
C9 C -0.14820(19) 0.10205(17) 0.84829(13)
C10 C 0.39379(18) 0.37226(17) 0.34075(14)
C11 C 0.0133(2) 0.04869(17) 0.82993(15)
H4 H 0.0380 -0.0368 0.8072
C12 C 0.5741(2) 0.16615(18) 0.45185(15)
H5 H 0.6218 0.1072 0.5248
C13 C 0.0861(2) 0.67343(17) 0.46834(16)
H6 H 0.0908 0.6858 0.3834
C14 C 0.4302(2) 0.3446(2) 0.22816(15)
H7 H 0.3830 0.4040 0.1552
C15 C 0.5403(2) 0.2239(2) 0.23064(16)
H8 H 0.5683 0.1997 0.1571
C16 C 0.0735(2) 0.63982(18) 0.71970(17)
H9 H 0.0686 0.6305 0.8042
C17 C -0.2841(2) 0.0259(2) 0.82822(19)
H10 H -0.3593 0.0212 0.8955
H11 H -0.2397 -0.0693 0.8239
H12 H -0.3396 0.0773 0.7525
C18 C 0.6113(2) 0.1370(2) 0.33967(17)
H13 H 0.6863 0.0565 0.3371
C19 C -0.0205(2) 0.76750(19) 0.51605(19)
H14 H -0.0875 0.8430 0.4640
C20 C -0.0270(2) 0.74892(19) 0.64138(19)
H15 H -0.1008 0.8113 0.6739
H16 H 0.351(2) 0.3817(19) 0.7134(16)
loop_
_geom_bond_atom_site_label_1
_geom_bond_atom_site_label_2
_geom_bond_site_symmetry_1
_geom_bond_site_symmetry_2
S1 N2 1_555 1_555
O1 C4 1_555 1_555
N1 C4 1_555 1_555
N2 C5 1_555 1_555
C1 S1 1_555 1_555
O2 S1 1_555 1_555
O3 S1 1_555 1_555
C2 C1 1_555 1_555
H1 C2 1_555 1_555
C3 C4 1_555 1_555
C5 C3 1_555 1_555
C6 N1 1_555 1_555
C7 C1 1_555 1_555
H2 C7 1_555 1_555
C8 C2 1_555 1_555
H3 C8 1_555 1_555
C9 C8 1_555 1_555
C10 O1 1_555 1_555
C11 C7 1_555 1_555
H4 C11 1_555 1_555
C12 C6 1_555 1_555
H5 C12 1_555 1_555
C13 C3 1_555 1_555
H6 C13 1_555 1_555
C14 C10 1_555 1_555
H7 C14 1_555 1_555
C15 C14 1_555 1_555
H8 C15 1_555 1_555
C16 C5 1_555 1_555
H9 C16 1_555 1_555
C17 C9 1_555 1_555
H10 C17 1_555 1_555
H11 C17 1_555 1_555
H12 C17 1_555 1_555
C18 C12 1_555 1_555
H13 C18 1_555 1_555
C19 C13 1_555 1_555
H14 C19 1_555 1_555
C20 C16 1_555 1_555
H15 C20 1_555 1_555
H16 N2 1_555 1_555
C6 C10 1_555 1_555
C9 C11 1_555 1_555
C15 C18 1_555 1_555
C19 C20 1_555 1_555

#END
