
#######################################################################
#
#                 Cambridge Crystallographic Data Centre
#                                CCDC 
#
#######################################################################
#
# If this CIF has been generated from an entry in the Cambridge 
# Structural Database, then it will include bibliographic, chemical, 
# crystal, experimental, refinement or atomic coordinate data resulting 
# from the CCDC's data processing and validation procedures.
#
#######################################################################

data_JEVMUV
_chemical_name_common            
'C-(propyl-3-ol)calix(4)resorcinarene pentahydrate'
_chemical_formula_moiety         'C40 H48 O12,5(H2 O1)'
_chemical_name_systematic        
'2,8,14,20-tetrakis(3-hydroxypropyl)-4,6,10,12,16,18,22,24-octahydroxycalix(4)arene pentahydrate'
_symmetry_cell_setting           triclinic
_symmetry_space_group_name_H-M   'P -1'
_symmetry_Int_Tables_number      2
_space_group_name_Hall           '-P 1'
loop_
_symmetry_equiv_pos_site_id
_symmetry_equiv_pos_as_xyz
1 x,y,z
2 -x,-y,-z
_cell_length_a                   10.2016(12)
_cell_length_b                   13.2454(15)
_cell_length_c                   16.4358(18)
_cell_angle_alpha                74.967(4)
_cell_angle_beta                 84.266(4)
_cell_angle_gamma                73.954(4)
_cell_volume                     2060.35
_exptl_crystal_colour            colorless
_exptl_crystal_description       Plate
_cell_formula_units_Z            2
loop_
_atom_site_label
_atom_site_type_symbol
_atom_site_fract_x
_atom_site_fract_y
_atom_site_fract_z
O1 O 0.1674(3) 0.9580(2) -0.01628(18)
H1 H 0.2071 0.8993 -0.0290
C1 C 0.4264(4) 0.9355(3) 0.1327(2)
H2 H 0.5176 0.8970 0.1475
O2 O 0.1415(3) 1.1450(2) 0.19458(18)
H3 H 0.1782 1.1414 0.2391
C2 C 0.3695(4) 0.9102(3) 0.0696(2)
O3 O 0.2344(3) 1.1531(2) 0.34730(17)
H4 H 0.1951 1.1836 0.3853
C3 C 0.2339(4) 0.9691(3) 0.0485(2)
O4 O 0.2678(3) 0.8260(2) 0.57017(17)
H5 H 0.2138 0.8697 0.5950
C4 C 0.1611(4) 1.0448(3) 0.0925(2)
H6 H 0.0688 1.0817 0.0795
O5 O 0.1799(3) 0.6732(2) 0.52395(17)
H7 H 0.2228 0.7110 0.5386
C5 C 0.2222(4) 1.0666(3) 0.1550(2)
O6 O 0.1701(3) 0.4870(2) 0.31822(18)
H8 H 0.2130 0.4671 0.2763
C6 C 0.3577(4) 1.0141(3) 0.1759(2)
O7 O 0.2627(3) 0.4398(2) 0.16383(17)
H9 H 0.2045 0.4356 0.1329
C7 C 0.4260(4) 1.0424(3) 0.2424(2)
H10 H 0.3922 1.1223 0.2363
O8 O 0.2593(3) 0.7630(2) -0.05679(17)
H11 H 0.2119 0.7366 -0.0802
C8 C 0.4315(4) 0.8753(3) 0.3624(2)
H12 H 0.4916 0.8347 0.3275
O9 O 0.8732(3) 1.0633(3) 0.3272(2)
H13 H 0.9469 1.0161 0.3405
C9 C 0.3823(4) 0.9866(3) 0.3310(2)
O10 O 0.8950(3) 0.7537(3) 0.5337(2)
H14 H 0.9787 0.7421 0.5209
C10 C 0.2901(4) 1.0449(3) 0.3823(2)
O11 O 0.9007(3) 0.2989(2) 0.14251(18)
H15 H 0.9743 0.2540 0.1598
C11 C 0.2524(4) 0.9938(3) 0.4629(2)
H16 H 0.1911 1.0342 0.4975
O12 O 0.8909(3) 0.5931(2) -0.0527(2)
H17 H 0.9553 0.6146 -0.0813
C12 C 0.3064(4) 0.8820(3) 0.4922(2)
C13 C 0.3967(4) 0.8209(3) 0.4426(2)
C14 C 0.4563(4) 0.6990(3) 0.4742(2)
H18 H 0.4362 0.6798 0.5363
C15 C 0.4470(4) 0.5874(3) 0.3695(2)
H19 H 0.5381 0.5897 0.3524
C16 C 0.3847(4) 0.6376(3) 0.4338(2)
C17 C 0.2504(4) 0.6326(3) 0.4574(2)
C18 C 0.1821(4) 0.5838(3) 0.4177(2)
H20 H 0.0902 0.5834 0.4341
C19 C 0.2465(4) 0.5349(3) 0.3534(2)
C20 C 0.3826(4) 0.5342(3) 0.3291(2)
C21 C 0.4532(4) 0.4804(3) 0.2586(2)
H21 H 0.4252 0.4118 0.2665
C22 C 0.4419(4) 0.6487(3) 0.1390(2)
H22 H 0.5034 0.6663 0.1694
C23 C 0.4007(4) 0.5538(3) 0.1732(2)
C24 C 0.3085(4) 0.5304(3) 0.1278(2)
C25 C 0.2603(4) 0.5995(3) 0.0510(2)
H23 H 0.1970 0.5831 0.0211
C26 C 0.3049(4) 0.6918(3) 0.0186(2)
C27 C 0.3965(4) 0.7190(3) 0.0619(2)
C28 C 0.4467(4) 0.8213(3) 0.0262(2)
H24 H 0.4240 0.8474 -0.0348
C29 C 0.5821(4) 1.0151(3) 0.2310(2)
H25 H 0.6182 0.9356 0.2407
H26 H 0.6060 1.0479 0.1720
C30 C 0.6523(4) 1.0550(4) 0.2903(3)
H27 H 0.6135 1.1338 0.2836
H28 H 0.6358 1.0181 0.3495
C31 C 0.8031(4) 1.0318(4) 0.2704(3)
H29 H 0.8404 0.9533 0.2742
H30 H 0.8191 1.0714 0.2120
C32 C 0.6123(4) 0.6693(3) 0.4613(2)
H31 H 0.6485 0.5898 0.4809
H32 H 0.6355 0.6902 0.4003
C33 C 0.6808(4) 0.7250(3) 0.5086(3)
H33 H 0.6389 0.8040 0.4931
H34 H 0.6661 0.6984 0.5700
C34 C 0.8322(4) 0.7027(3) 0.4876(3)
H35 H 0.8742 0.6236 0.5021
H36 H 0.8473 0.7306 0.4264
C35 C 0.6100(4) 0.4500(3) 0.2619(2)
H37 H 0.6407 0.5170 0.2518
H38 H 0.6378 0.4061 0.3191
C36 C 0.6813(4) 0.3863(3) 0.1973(3)
H39 H 0.6448 0.3227 0.2035
H40 H 0.6623 0.4327 0.1397
C37 C 0.8335(4) 0.3490(4) 0.2093(3)
H41 H 0.8687 0.4116 0.2089
H42 H 0.8533 0.2963 0.2645
C38 C 0.6032(4) 0.7946(3) 0.0311(2)
H43 H 0.6331 0.8621 0.0098
H44 H 0.6295 0.7643 0.0906
C39 C 0.6758(4) 0.7130(3) -0.0209(3)
H45 H 0.6307 0.6533 -0.0092
H46 H 0.6675 0.7493 -0.0817
C40 C 0.8260(4) 0.6667(3) -0.0004(3)
H47 H 0.8712 0.7263 -0.0106
H48 H 0.8349 0.6279 0.0598
O13 O -0.0902(5) 0.8267(3) 0.1359(3)
H49 H 0.0004 0.8193 0.1565
H50 H -0.1606 0.8940 0.1076
H51 H -0.1077 0.4414 0.3838
O14 O -0.1147(3) 0.5164(3) 0.3480(2)
H52 H -0.0168 0.4995 0.3368
O15 O -0.2725(4) 0.7122(4) 0.2399(3)
H53 H -0.2258 0.6526 0.2773
H54 H -0.2026 0.7411 0.2486
H55 H 1.1404 0.8567 0.2972
H56 H 1.1471 0.9056 0.3847
O16 O 1.0801(4) 0.8867(3) 0.3586(3)
O17 O 1.1652(4) 0.7897(3) 0.2236(3)
loop_
_geom_bond_atom_site_label_1
_geom_bond_atom_site_label_2
_geom_bond_site_symmetry_1
_geom_bond_site_symmetry_2
O1 H1 1_555 1_555
C1 H2 1_555 1_555
O2 H3 1_555 1_555
C2 C1 1_555 1_555
O3 H4 1_555 1_555
C3 O1 1_555 1_555
O4 H5 1_555 1_555
C4 C3 1_555 1_555
H6 C4 1_555 1_555
O5 H7 1_555 1_555
C5 O2 1_555 1_555
O6 H8 1_555 1_555
C6 C1 1_555 1_555
O7 H9 1_555 1_555
C7 C6 1_555 1_555
H10 C7 1_555 1_555
O8 H11 1_555 1_555
C8 H12 1_555 1_555
O9 H13 1_555 1_555
C9 C7 1_555 1_555
O10 H14 1_555 1_555
C10 O3 1_555 1_555
O11 H15 1_555 1_555
C11 C10 1_555 1_555
H16 C11 1_555 1_555
O12 H17 1_555 1_555
C12 O4 1_555 1_555
C13 C8 1_555 1_555
C14 C13 1_555 1_555
H18 C14 1_555 1_555
C15 H19 1_555 1_555
C16 C14 1_555 1_555
C17 O5 1_555 1_555
C18 C17 1_555 1_555
H20 C18 1_555 1_555
C19 O6 1_555 1_555
C20 C15 1_555 1_555
C21 C20 1_555 1_555
H21 C21 1_555 1_555
C22 H22 1_555 1_555
C23 C21 1_555 1_555
C24 O7 1_555 1_555
C25 C24 1_555 1_555
H23 C25 1_555 1_555
C26 O8 1_555 1_555
C27 C22 1_555 1_555
C28 C2 1_555 1_555
H24 C28 1_555 1_555
C29 C7 1_555 1_555
H25 C29 1_555 1_555
H26 C29 1_555 1_555
C30 C29 1_555 1_555
H27 C30 1_555 1_555
H28 C30 1_555 1_555
C31 O9 1_555 1_555
H29 C31 1_555 1_555
H30 C31 1_555 1_555
C32 C14 1_555 1_555
H31 C32 1_555 1_555
H32 C32 1_555 1_555
C33 C32 1_555 1_555
H33 C33 1_555 1_555
H34 C33 1_555 1_555
C34 O10 1_555 1_555
H35 C34 1_555 1_555
H36 C34 1_555 1_555
C35 C21 1_555 1_555
H37 C35 1_555 1_555
H38 C35 1_555 1_555
C36 C35 1_555 1_555
H39 C36 1_555 1_555
H40 C36 1_555 1_555
C37 O11 1_555 1_555
H41 C37 1_555 1_555
H42 C37 1_555 1_555
C38 C28 1_555 1_555
H43 C38 1_555 1_555
H44 C38 1_555 1_555
C39 C38 1_555 1_555
H45 C39 1_555 1_555
H46 C39 1_555 1_555
C40 O12 1_555 1_555
H47 C40 1_555 1_555
H48 C40 1_555 1_555
O13 H49 1_555 1_555
H50 O13 1_555 1_555
H51 O14 1_555 1_555
O14 H52 1_555 1_555
O15 H53 1_555 1_555
H54 O15 1_555 1_555
H55 O16 1_555 1_555
H56 O16 1_555 1_555
C2 C3 1_555 1_555
C4 C5 1_555 1_555
C5 C6 1_555 1_555
C8 C9 1_555 1_555
C9 C10 1_555 1_555
C11 C12 1_555 1_555
C12 C13 1_555 1_555
C15 C16 1_555 1_555
C16 C17 1_555 1_555
C18 C19 1_555 1_555
C19 C20 1_555 1_555
C22 C23 1_555 1_555
C23 C24 1_555 1_555
C25 C26 1_555 1_555
C26 C27 1_555 1_555
C27 C28 1_555 1_555
C30 C31 1_555 1_555
C33 C34 1_555 1_555
C36 C37 1_555 1_555
C39 C40 1_555 1_555

#END
