
#######################################################################
#
#                 Cambridge Crystallographic Data Centre
#                                CCDC 
#
#######################################################################
#
# If this CIF has been generated from an entry in the Cambridge 
# Structural Database, then it will include bibliographic, chemical, 
# crystal, experimental, refinement or atomic coordinate data resulting 
# from the CCDC's data processing and validation procedures.
#
#######################################################################

data_JEVMUT
_chemical_formula_moiety         'C20 H15 Cl1 N2 O3'
_chemical_name_systematic        
N'-((1E)-(5-Chloro-2-hydroxyphenyl)(phenyl)methylene)-2-hydroxybenzohydrazide
_symmetry_cell_setting           orthorhombic
_symmetry_space_group_name_H-M   'P b c a'
_symmetry_Int_Tables_number      61
_space_group_name_Hall           '-P 2ac 2ab'
loop_
_symmetry_equiv_pos_site_id
_symmetry_equiv_pos_as_xyz
1 x,y,z
2 1/2-x,-y,1/2+z
3 -x,1/2+y,1/2-z
4 1/2+x,1/2-y,-z
5 -x,-y,-z
6 1/2+x,y,1/2-z
7 x,1/2-y,1/2+z
8 1/2-x,1/2+y,z
_cell_length_a                   15.3237(6)
_cell_length_b                   12.0171(5)
_cell_length_c                   20.0773(8)
_cell_angle_alpha                90
_cell_angle_beta                 90
_cell_angle_gamma                90
_cell_volume                     3697.16
_exptl_crystal_colour            colorless
_exptl_crystal_description       block
_cell_formula_units_Z            8
_exptl_crystal_recrystallization_method DMF
loop_
_atom_site_label
_atom_site_type_symbol
_atom_site_fract_x
_atom_site_fract_y
_atom_site_fract_z
Cl1 Cl 1.09963(5) 0.85633(6) 0.30089(4)
O1 O 0.99237(12) 1.16483(12) 0.09131(8)
H1 H 0.9591 1.1359 0.0644
O2 O 0.84619(9) 1.14393(11) -0.05196(7)
O3 O 0.73116(14) 0.83443(13) -0.05047(9)
H2 H 0.7039 0.7763 -0.0555
N1 N 0.90070(10) 1.00781(13) 0.04214(8)
N2 N 0.84440(10) 0.97365(13) -0.00650(8)
H3 H 0.8267 0.9058 -0.0080
C1 C 1.01537(14) 1.08944(17) 0.13786(10)
C2 C 0.98516(12) 0.97898(15) 0.13790(9)
C3 C 1.01305(13) 0.90851(17) 0.18889(9)
H4 H 0.9939 0.8351 0.1898
C4 C 1.06837(14) 0.94629(19) 0.23773(10)
C5 C 1.09790(15) 1.0544(2) 0.23730(11)
H5 H 1.1353 1.0794 0.2706
C6 C 1.07182(15) 1.12493(19) 0.18764(11)
H6 H 1.0922 1.1978 0.1872
C7 C 0.92515(12) 0.93681(16) 0.08668(9)
C8 C 0.89440(13) 0.81937(16) 0.08701(9)
C9 C 0.81224(15) 0.7930(2) 0.10964(12)
H7 H 0.7767 0.8487 0.1270
C10 C 0.78195(19) 0.6851(3) 0.10696(16)
H8 H 0.7264 0.6682 0.1226
C11 C 0.8329(2) 0.6040(3) 0.08172(15)
H9 H 0.8119 0.5316 0.0791
C12 C 0.9149(2) 0.6275(2) 0.06003(15)
H10 H 0.9502 0.5708 0.0437
C13 C 0.94613(17) 0.73602(19) 0.06226(12)
H11 H 1.0020 0.7521 0.0470
C14 C 0.81715(13) 1.04834(16) -0.05220(9)
C15 C 0.75267(13) 1.00895(15) -0.10192(9)
C16 C 0.71261(14) 0.90519(16) -0.10126(10)
C17 C 0.65505(15) 0.87517(19) -0.15125(12)
H12 H 0.6283 0.8057 -0.1501
C18 C 0.63731(17) 0.9473(2) -0.20245(13)
H13 H 0.5992 0.9265 -0.2362
C19 C 0.67607(17) 1.0507(2) -0.20376(12)
H14 H 0.6639 1.0999 -0.2383
C20 C 0.73247(15) 1.08075(18) -0.15421(11)
H15 H 0.7580 1.1509 -0.1554
loop_
_geom_bond_atom_site_label_1
_geom_bond_atom_site_label_2
_geom_bond_site_symmetry_1
_geom_bond_site_symmetry_2
Cl1 C4 1_555 1_555
O1 H1 1_555 1_555
O2 C14 1_555 1_555
O3 H2 1_555 1_555
N1 N2 1_555 1_555
N2 H3 1_555 1_555
C1 O1 1_555 1_555
C2 C1 1_555 1_555
C3 C2 1_555 1_555
H4 C3 1_555 1_555
C4 C3 1_555 1_555
C5 C4 1_555 1_555
H5 C5 1_555 1_555
C6 C1 1_555 1_555
H6 C6 1_555 1_555
C7 N1 1_555 1_555
C8 C7 1_555 1_555
C9 C8 1_555 1_555
H7 C9 1_555 1_555
C10 C9 1_555 1_555
H8 C10 1_555 1_555
C11 C10 1_555 1_555
H9 C11 1_555 1_555
C12 C11 1_555 1_555
H10 C12 1_555 1_555
C13 C8 1_555 1_555
H11 C13 1_555 1_555
C14 N2 1_555 1_555
C15 C14 1_555 1_555
C16 O3 1_555 1_555
C17 C16 1_555 1_555
H12 C17 1_555 1_555
C18 C17 1_555 1_555
H13 C18 1_555 1_555
C19 C18 1_555 1_555
H14 C19 1_555 1_555
C20 C15 1_555 1_555
H15 C20 1_555 1_555
C2 C7 1_555 1_555
C5 C6 1_555 1_555
C12 C13 1_555 1_555
C15 C16 1_555 1_555
C19 C20 1_555 1_555

#END
