
#######################################################################
#
#                 Cambridge Crystallographic Data Centre
#                                CCDC 
#
#######################################################################
#
# If this CIF has been generated from an entry in the Cambridge 
# Structural Database, then it will include bibliographic, chemical, 
# crystal, experimental, refinement or atomic coordinate data resulting 
# from the CCDC's data processing and validation procedures.
#
#######################################################################

data_JEVVEL
_chemical_formula_moiety         'C23 H26 N2 O2'
_chemical_name_systematic        
2-Benzylimino-7,7-dimethyl-bicyclo(2.2.1)-1-N-(o-hydroxyphenyl)carboxamide
_symmetry_cell_setting           orthorhombic
_symmetry_space_group_name_H-M   'P 21 21 21'
_symmetry_Int_Tables_number      19
_space_group_name_Hall           'P 2ac 2ab'
loop_
_symmetry_equiv_pos_site_id
_symmetry_equiv_pos_as_xyz
1 x,y,z
2 1/2+x,1/2-y,-z
3 -x,1/2+y,1/2-z
4 1/2-x,-y,1/2+z
_cell_length_a                   8.6904(9)
_cell_length_b                   10.9400(16)
_cell_length_c                   20.8583(33)
_cell_angle_alpha                90
_cell_angle_beta                 90
_cell_angle_gamma                90
_cell_volume                     1983.06
_chemical_melting_point          145-147deg.C
_cell_formula_units_Z            4
loop_
_atom_site_label
_atom_site_type_symbol
_atom_site_fract_x
_atom_site_fract_y
_atom_site_fract_z
O1 O -0.2424(2) 0.0215(2) 0.6523(1)
O2 O -0.3921(3) -0.1638(2) 0.6133(1)
N1 N -0.1870(2) 0.0088(2) 0.5468(1)
N2 N 0.0592(2) 0.1323(2) 0.5049(1)
C1 C -0.3225(3) -0.0443(2) 0.5201(1)
C2 C -0.4171(3) -0.1277(2) 0.5517(1)
C3 C -0.5388(3) -0.1795(3) 0.5175(2)
C4 C -0.5668(4) -0.1514(3) 0.4558(2)
C5 C -0.4734(4) -0.0637(3) 0.4243(2)
C6 C -0.3525(4) -0.0160(3) 0.4568(1)
C7 C -0.1538(3) 0.0397(2) 0.6071(1)
C8 C 0.0005(3) 0.0987(2) 0.6188(1)
C9 C -0.0084(3) 0.2229(2) 0.6546(1)
C10 C 0.1552(3) 0.2399(3) 0.6833(1)
C11 C 0.2399(3) 0.125 0.6602(1)
C12 C 0.2680(3) 0.1384(3) 0.5885(1)
C13 C 0.1069(3) 0.1238(2) 0.5617(1)
C14 C 0.1146(3) 0.0249(2) 0.6638(1)
C15 C 0.0564(4) 0.0020(3) 0.7316(1)
C16 C 0.1595(4) -0.0976(3) 0.6346(2)
C17 C 0.1662(3) 0.1585(3) 0.4526(1)
C18 C 0.1047(3) 0.1089(2) 0.3908(1)
C19 C 0.0819(3) 0.1800(3) 0.3381(1)
C20 C 0.0164(3) 0.1333(3) 0.2831(1)
C21 C -0.0269(4) 0.0137(3) 0.2810(1)
C22 C -0.0032(4) -0.0592(3) 0.3330(1)
C23 C 0.0631(4) -0.0120(3) 0.3873(1)
loop_
_geom_bond_atom_site_label_1
_geom_bond_atom_site_label_2
_geom_bond_site_symmetry_1
_geom_bond_site_symmetry_2
O1 C7 1_555 1_555
O2 C2 1_555 1_555
N1 C1 1_555 1_555
N2 C13 1_555 1_555
C1 C2 1_555 1_555
C2 C3 1_555 1_555
C3 C4 1_555 1_555
C4 C5 1_555 1_555
C5 C6 1_555 1_555
C6 C1 1_555 1_555
C7 N1 1_555 1_555
C8 C7 1_555 1_555
C9 C8 1_555 1_555
C10 C9 1_555 1_555
C11 C10 1_555 1_555
C12 C11 1_555 1_555
C13 C8 1_555 1_555
C14 C8 1_555 1_555
C15 C14 1_555 1_555
C16 C14 1_555 1_555
C17 N2 1_555 1_555
C18 C17 1_555 1_555
C19 C18 1_555 1_555
C20 C19 1_555 1_555
C21 C20 1_555 1_555
C22 C21 1_555 1_555
C23 C18 1_555 1_555
C11 C14 1_555 1_555
C12 C13 1_555 1_555
C22 C23 1_555 1_555

#END
