
#######################################################################
#
#                 Cambridge Crystallographic Data Centre
#                                CCDC 
#
#######################################################################
#
# If this CIF has been generated from an entry in the Cambridge 
# Structural Database, then it will include bibliographic, chemical, 
# crystal, experimental, refinement or atomic coordinate data resulting 
# from the CCDC's data processing and validation procedures.
#
#######################################################################

data_JEWCAQ01
_chemical_formula_moiety         'C12 H26 N2 O4 P2 S2'
_chemical_name_systematic        
N,N'-bis(5,5-Dimethyl-2-phospha-2-thio-1,3-dioxan-2-yl)ethylenediamine
_symmetry_cell_setting           monoclinic
_symmetry_space_group_name_H-M   'P 21/c'
_symmetry_Int_Tables_number      14
_space_group_name_Hall           '-P 2ybc'
loop_
_symmetry_equiv_pos_site_id
_symmetry_equiv_pos_as_xyz
1 x,y,z
2 -x,1/2+y,1/2-z
3 -x,-y,-z
4 x,1/2-y,1/2+z
_cell_length_a                   14.557(16)
_cell_length_b                   11.299(12)
_cell_length_c                   12.163(13)
_cell_angle_alpha                90
_cell_angle_beta                 98.707(19)
_cell_angle_gamma                90
_cell_volume                     1977.51
_exptl_crystal_colour            colorless
_exptl_crystal_description       needle
_chemical_melting_point          '291-292 deg.C'
_cell_formula_units_Z            4
_exptl_crystal_recrystallization_method acetone/ethanol/water
loop_
_atom_site_label
_atom_site_type_symbol
_atom_site_fract_x
_atom_site_fract_y
_atom_site_fract_z
P1 P 0.31285(7) 0.59655(7) 0.14455(9)
P2 P -0.07683(7) 0.82785(8) 0.10799(9)
S1 S 0.37374(9) 0.44792(9) 0.18081(11)
S2 S -0.12853(9) 0.98564(9) 0.09249(11)
O1 O 0.36733(19) 0.70881(19) 0.1989(2)
O2 O 0.29795(17) 0.63040(19) 0.0164(2)
O3 O -0.05695(17) 0.77852(19) 0.2307(2)
O4 O -0.14150(19) 0.7297(2) 0.0452(2)
N1 N 0.2109(2) 0.6062(3) 0.1785(3)
H1 H 0.195(3) 0.558(3) 0.219(3)
N2 N 0.0198(2) 0.8149(3) 0.0607(3)
H2 H 0.043(3) 0.874(3) 0.043(3)
C1 C 0.4495(3) 0.7439(3) 0.1521(4)
H3 H 0.4942 0.6796 0.1608
H4 H 0.4780 0.8118 0.1926
C2 C 0.4257(3) 0.7750(3) 0.0300(3)
C3 C 0.3796(3) 0.6681(3) -0.0310(3)
H5 H 0.3612 0.6878 -0.1089
H6 H 0.4238 0.6034 -0.0266
C4 C 0.5164(3) 0.8007(4) -0.0150(4)
H7 H 0.5504 0.8611 0.0293
H8 H 0.5024 0.8271 -0.0907
H9 H 0.5532 0.7299 -0.0119
C5 C 0.3616(3) 0.8822(3) 0.0137(4)
H10 H 0.3040 0.8639 0.0392
H11 H 0.3498 0.9025 -0.0638
H12 H 0.3907 0.9479 0.0554
C6 C 0.1522(3) 0.7140(3) 0.1676(4)
H13 H 0.1911 0.7827 0.1614
H14 H 0.1235 0.7233 0.2340
C7 C 0.0786(3) 0.7080(3) 0.0687(4)
H15 H 0.1071 0.7006 0.0019
H16 H 0.0403 0.6386 0.0740
C8 C -0.2219(3) 0.6931(4) 0.0957(4)
H17 H -0.2567 0.6336 0.0492
H18 H -0.2623 0.7606 0.1001
C9 C -0.1924(3) 0.6434(3) 0.2106(3)
C10 C -0.1367(3) 0.7368(3) 0.2798(3)
H19 H -0.1768 0.8034 0.2890
H20 H -0.1148 0.7046 0.3530
C11 C -0.1350(3) 0.5308(3) 0.2045(4)
H21 H -0.1728 0.4711 0.1638
H22 H -0.1133 0.5028 0.2784
H23 H -0.0827 0.5479 0.1676
C12 C -0.2801(3) 0.6172(4) 0.2633(4)
H24 H -0.3160 0.6883 0.2646
H25 H -0.2622 0.5889 0.3378
H26 H -0.3168 0.5580 0.2202
loop_
_geom_bond_atom_site_label_1
_geom_bond_atom_site_label_2
_geom_bond_site_symmetry_1
_geom_bond_site_symmetry_2
P1 S1 1_555 1_555
P2 S2 1_555 1_555
O1 P1 1_555 1_555
O2 P1 1_555 1_555
O3 P2 1_555 1_555
O4 P2 1_555 1_555
N1 P1 1_555 1_555
H1 N1 1_555 1_555
N2 P2 1_555 1_555
H2 N2 1_555 1_555
C1 O1 1_555 1_555
H3 C1 1_555 1_555
H4 C1 1_555 1_555
C2 C1 1_555 1_555
C3 O2 1_555 1_555
H5 C3 1_555 1_555
H6 C3 1_555 1_555
C4 C2 1_555 1_555
H7 C4 1_555 1_555
H8 C4 1_555 1_555
H9 C4 1_555 1_555
C5 C2 1_555 1_555
H10 C5 1_555 1_555
H11 C5 1_555 1_555
H12 C5 1_555 1_555
C6 N1 1_555 1_555
H13 C6 1_555 1_555
H14 C6 1_555 1_555
C7 N2 1_555 1_555
H15 C7 1_555 1_555
H16 C7 1_555 1_555
C8 O4 1_555 1_555
H17 C8 1_555 1_555
H18 C8 1_555 1_555
C9 C8 1_555 1_555
C10 O3 1_555 1_555
H19 C10 1_555 1_555
H20 C10 1_555 1_555
C11 C9 1_555 1_555
H21 C11 1_555 1_555
H22 C11 1_555 1_555
H23 C11 1_555 1_555
C12 C9 1_555 1_555
H24 C12 1_555 1_555
H25 C12 1_555 1_555
H26 C12 1_555 1_555
C2 C3 1_555 1_555
C6 C7 1_555 1_555
C9 C10 1_555 1_555

#END
