
#######################################################################
#
#                 Cambridge Crystallographic Data Centre
#                                CCDC 
#
#######################################################################
#
# If this CIF has been generated from an entry in the Cambridge 
# Structural Database, then it will include bibliographic, chemical, 
# crystal, experimental, refinement or atomic coordinate data resulting 
# from the CCDC's data processing and validation procedures.
#
#######################################################################

data_JEWFUP
_chemical_formula_moiety         'C30 H22 F3 N3 O2 S1'
_chemical_name_systematic        
1-[(4-methylphenyl)sulfonyl]-2-{[1-(pyridin-2-yl)-1H-indol-2-yl]methyl}-6-(trifluoromethyl)-1H-indole
_symmetry_cell_setting           triclinic
_symmetry_space_group_name_H-M   'P -1'
_symmetry_Int_Tables_number      2
_space_group_name_Hall           '-P 1'
loop_
_symmetry_equiv_pos_site_id
_symmetry_equiv_pos_as_xyz
1 x,y,z
2 -x,-y,-z
_cell_length_a                   9.3686(2)
_cell_length_b                   11.3586(2)
_cell_length_c                   13.2883(4)
_cell_angle_alpha                71.257(1)
_cell_angle_beta                 88.021(1)
_cell_angle_gamma                75.456(2)
_cell_volume                     1294.52
_exptl_crystal_colour            colorless
_exptl_crystal_description       plate
_cell_formula_units_Z            2
loop_
_atom_site_label
_atom_site_type_symbol
_atom_site_fract_x
_atom_site_fract_y
_atom_site_fract_z
S1 S 0.52181(8) 0.33375(7) 0.17960(6)
O1 O 0.4113(2) 0.3616(2) 0.09819(17)
O2 O 0.5067(2) 0.4121(2) 0.24632(18)
C1 C 0.6247(3) 0.2686(3) -0.0339(2)
H1 H 0.5841 0.2008 0.0162
H2 H 0.5408 0.3433 -0.0670
N1 N 0.7602(3) 0.0880(2) -0.10262(18)
C2 C 0.7000(3) 0.2193(3) -0.1188(2)
C3 C 0.7125(3) 0.2865(3) -0.2216(2)
H3 H 0.6792 0.3771 -0.2533
C4 C 0.7845(3) 0.1975(3) -0.2745(2)
C5 C 0.8284(3) 0.2099(3) -0.3787(2)
H4 H 0.8106 0.2922 -0.4316
C6 C 0.8975(4) 0.1011(3) -0.4030(3)
H5 H 0.9281 0.1088 -0.4732
C7 C 0.9235(4) -0.0206(3) -0.3263(3)
H6 H 0.9709 -0.0940 -0.3455
C8 C 0.8818(3) -0.0365(3) -0.2233(2)
H7 H 0.9000 -0.1192 -0.1710
C9 C 0.8118(3) 0.0742(3) -0.1990(2)
N2 N 0.6799(2) 0.3459(2) 0.11813(18)
N3 N 0.7203(3) -0.1135(2) -0.01252(19)
C10 C 0.7696(3) -0.0156(3) -0.0059(2)
C11 C 0.8302(3) -0.0127(3) 0.0872(2)
H8 H 0.8671 0.0578 0.0875
C12 C 0.8353(3) -0.1145(3) 0.1787(2)
H9 H 0.8740 -0.1148 0.2439
C13 C 0.7833(3) -0.2161(3) 0.1743(2)
H10 H 0.7844 -0.2871 0.2366
C14 C 0.7294(3) -0.2125(3) 0.0777(3)
H11 H 0.6970 -0.2842 0.0749
C15 C 0.7249(3) 0.3084(3) 0.0276(2)
C16 C 0.8653(3) 0.3175(3) 0.0097(2)
H12 H 0.9208 0.3004 -0.0475
C17 C 0.9169(3) 0.3569(3) 0.0907(2)
C18 C 1.0514(3) 0.3779(3) 0.1122(2)
H13 H 1.1302 0.3691 0.0660
C19 C 1.0691(3) 0.4113(3) 0.2004(2)
H14 H 1.1607 0.4249 0.2158
C20 C 0.9526(3) 0.4255(3) 0.2679(2)
C21 C 0.8166(3) 0.4077(3) 0.2485(2)
H15 H 0.7376 0.4189 0.2941
C22 C 0.8008(3) 0.3728(3) 0.1593(2)
C23 C 0.9791(4) 0.4534(3) 0.3669(3)
F1 F 1.0647(3) 0.5338(3) 0.35349(17)
F2 F 0.8542(2) 0.5056(2) 0.40650(15)
F3 F 1.0437(2) 0.3465(2) 0.44600(16)
C24 C 0.5530(3) 0.1722(3) 0.2594(2)
C25 C 0.4800(3) 0.0935(3) 0.2333(2)
H16 H 0.4166 0.1253 0.1711
C26 C 0.5006(4) -0.0321(3) 0.2993(3)
H17 H 0.4509 -0.0867 0.2816
C27 C 0.5926(3) -0.0801(3) 0.3908(3)
C28 C 0.6650(4) 0.0007(4) 0.4153(3)
H18 H 0.7286 -0.0310 0.4775
C29 C 0.6459(4) 0.1265(3) 0.3505(3)
H19 H 0.6955 0.1813 0.3680
C30 C 0.6127(4) -0.2175(4) 0.4621(3)
H20 H 0.5229 -0.2451 0.4572
H21 H 0.6320 -0.2234 0.5358
H22 H 0.6964 -0.2730 0.4394
loop_
_geom_bond_atom_site_label_1
_geom_bond_atom_site_label_2
_geom_bond_site_symmetry_1
_geom_bond_site_symmetry_2
S1 O1 1_555 1_555
O2 S1 1_555 1_555
C1 H1 1_555 1_555
H2 C1 1_555 1_555
N1 C2 1_555 1_555
C2 C1 1_555 1_555
C3 C2 1_555 1_555
H3 C3 1_555 1_555
C4 C3 1_555 1_555
C5 C4 1_555 1_555
H4 C5 1_555 1_555
C6 C5 1_555 1_555
H5 C6 1_555 1_555
C7 C6 1_555 1_555
H6 C7 1_555 1_555
C8 C7 1_555 1_555
H7 C8 1_555 1_555
C9 N1 1_555 1_555
N2 S1 1_555 1_555
N3 C10 1_555 1_555
C10 N1 1_555 1_555
C11 C10 1_555 1_555
H8 C11 1_555 1_555
C12 C11 1_555 1_555
H9 C12 1_555 1_555
C13 C12 1_555 1_555
H10 C13 1_555 1_555
C14 N3 1_555 1_555
H11 C14 1_555 1_555
C15 C1 1_555 1_555
C16 C15 1_555 1_555
H12 C16 1_555 1_555
C17 C16 1_555 1_555
C18 C17 1_555 1_555
H13 C18 1_555 1_555
C19 C18 1_555 1_555
H14 C19 1_555 1_555
C20 C19 1_555 1_555
C21 C20 1_555 1_555
H15 C21 1_555 1_555
C22 N2 1_555 1_555
C23 C20 1_555 1_555
F1 C23 1_555 1_555
F2 C23 1_555 1_555
F3 C23 1_555 1_555
C24 S1 1_555 1_555
C25 C24 1_555 1_555
H16 C25 1_555 1_555
C26 C25 1_555 1_555
H17 C26 1_555 1_555
C27 C26 1_555 1_555
C28 C27 1_555 1_555
H18 C28 1_555 1_555
C29 C24 1_555 1_555
H19 C29 1_555 1_555
C30 C27 1_555 1_555
H20 C30 1_555 1_555
H21 C30 1_555 1_555
H22 C30 1_555 1_555
C4 C9 1_555 1_555
C8 C9 1_555 1_555
N2 C15 1_555 1_555
C13 C14 1_555 1_555
C17 C22 1_555 1_555
C21 C22 1_555 1_555
C28 C29 1_555 1_555

#END
