
#######################################################################
#
#                 Cambridge Crystallographic Data Centre
#                                CCDC 
#
#######################################################################
#
# If this CIF has been generated from an entry in the Cambridge 
# Structural Database, then it will include bibliographic, chemical, 
# crystal, experimental, refinement or atomic coordinate data resulting 
# from the CCDC's data processing and validation procedures.
#
#######################################################################

data_JEWGAW
_chemical_formula_moiety         'C58 H46 N6 O4 S2'
_chemical_name_systematic        
4-methyl-N-[2-(4-{1-[(4-methylphenyl)sulfonyl]-1H-indol-2-yl}-3,4-bis[1-(pyridin-2-yl)-1H-indol-2-yl]but-2-en-1-yl)phenyl]benzene-1-sulfonamide
_symmetry_cell_setting           monoclinic
_symmetry_space_group_name_H-M   'P 21/n'
_symmetry_Int_Tables_number      14
_space_group_name_Hall           '-P 2yn'
loop_
_symmetry_equiv_pos_site_id
_symmetry_equiv_pos_as_xyz
1 x,y,z
2 1/2-x,1/2+y,1/2-z
3 -x,-y,-z
4 1/2+x,1/2-y,1/2+z
_cell_length_a                   14.3628(10)
_cell_length_b                   13.3901(11)
_cell_length_c                   28.834(2)
_cell_angle_alpha                90
_cell_angle_beta                 92.864(4)
_cell_angle_gamma                90
_cell_volume                     5538.41
_exptl_crystal_colour            colorless
_exptl_crystal_description       needle
_cell_formula_units_Z            4
loop_
_atom_site_label
_atom_site_type_symbol
_atom_site_fract_x
_atom_site_fract_y
_atom_site_fract_z
N1 N 0.6894(2) 0.5067(2) 0.62339(11)
N2 N 0.5862(2) 0.8222(3) 0.59901(11)
N3 N 0.7265(2) 0.3725(3) 0.57598(12)
N4 N 0.6797(2) 0.7237(3) 0.46400(11)
N5 N 0.9686(2) 0.8172(3) 0.49603(13)
H1 H 0.9047(15) 0.817(4) 0.5000(17)
N6 N 0.7708(2) 0.8609(3) 0.48737(12)
O1 O 0.4177(2) 0.8408(2) 0.60972(11)
O2 O 0.47870(19) 0.6779(2) 0.58489(9)
O3 O 0.9386(2) 0.9217(3) 0.42700(12)
O4 O 1.0992(2) 0.8607(3) 0.44684(12)
S1 S 0.48821(7) 0.76565(8) 0.61329(3)
S2 S 1.00015(8) 0.84367(9) 0.44371(4)
C1 C 0.6812(3) 0.6658(3) 0.57603(13)
H2 H 0.6191 0.6417 0.5633
C2 C 0.7537(3) 0.6480(3) 0.53894(13)
C3 C 0.7059(3) 0.6090(3) 0.62008(13)
C4 C 0.7452(3) 0.6420(4) 0.66145(14)
H3 H 0.7626 0.709 0.6685
C5 C 0.7555(3) 0.5585(3) 0.69221(14)
C6 C 0.7873(4) 0.5464(4) 0.73808(16)
H4 H 0.8107 0.6022 0.7554
C7 C 0.7852(4) 0.4540(4) 0.75849(17)
H5 H 0.8082 0.4458 0.7897
C8 C 0.7493(5) 0.3719(4) 0.73373(18)
H6 H 0.7481 0.3086 0.7486
C9 C 0.7152(4) 0.3803(4) 0.68772(16)
H7 H 0.6894 0.3247 0.6711
C10 C 0.7210(3) 0.4740(3) 0.66757(13)
C11 C 0.6620(3) 0.4398(3) 0.58640(13)
C12 C 0.5747(3) 0.4464(3) 0.56427(14)
H8 H 0.5309 0.4949 0.5733
C13 C 0.5529(3) 0.3797(3) 0.52820(15)
H9 H 0.4938 0.3821 0.5119
C14 C 0.6185(3) 0.3102(3) 0.51663(15)
H10 H 0.6057 0.2645 0.4919
C15 C 0.7027(3) 0.3079(3) 0.54144(15)
H11 H 0.7466 0.2582 0.5339
C16 C 0.6726(3) 0.7749(3) 0.58784(13)
C17 C 0.7406(3) 0.8433(3) 0.59184(14)
H12 H 0.8041 0.8312 0.586
C18 C 0.7042(3) 0.9366(3) 0.60612(14)
C19 C 0.7455(3) 1.0302(3) 0.61353(14)
H13 H 0.8102 1.0399 0.6097
C20 C 0.6894(3) 1.1084(4) 0.62670(16)
H14 H 0.7158 1.1728 0.6317
C21 C 0.5950(4) 1.0935(4) 0.63260(19)
H15 H 0.5585 1.148 0.6423
C22 C 0.5524(3) 1.0018(4) 0.62478(17)
H16 H 0.4876 0.9929 0.6286
C23 C 0.6079(3) 0.9236(3) 0.61121(14)
C24 C 0.5069(3) 0.7277(3) 0.67088(14)
C25 C 0.5070(4) 0.7976(4) 0.70665(16)
H17 H 0.4935 0.8658 0.7003
C26 C 0.5271(4) 0.7655(4) 0.75168(17)
H18 H 0.5296 0.8133 0.776
C27 C 0.5434(3) 0.6667(4) 0.76243(16)
C28 C 0.5419(3) 0.5979(4) 0.72606(14)
H19 H 0.5535 0.5294 0.7326
C29 C 0.5236(3) 0.6283(4) 0.68021(14)
H20 H 0.5227 0.5808 0.6557
C30 C 0.5648(5) 0.6329(5) 0.81116(18)
H21 H 0.6017 0.6841 0.8279
H22 H 0.6002 0.5703 0.8109
H23 H 0.5064 0.622 0.8266
C31 C 0.7179(3) 0.6428(3) 0.49027(14)
C32 C 0.7093(3) 0.5591(3) 0.46361(14)
H24 H 0.7277 0.4939 0.4731
C33 C 0.6682(3) 0.5849(3) 0.41879(14)
C34 C 0.6455(3) 0.5323(4) 0.37789(14)
H25 H 0.6543 0.462 0.3765
C35 C 0.6101(3) 0.5841(4) 0.33961(15)
H26 H 0.5948 0.5489 0.3116
C36 C 0.5964(3) 0.6869(4) 0.34119(16)
H27 H 0.5723 0.7206 0.3142
C37 C 0.6170(3) 0.7412(4) 0.38133(15)
H28 H 0.6079 0.8114 0.3823
C38 C 0.6515(3) 0.6884(3) 0.42020(13)
C39 C 0.6856(3) 0.8266(3) 0.47503(13)
C40 C 0.6073(3) 0.8863(3) 0.47017(14)
H29 H 0.5479 0.8583 0.462
C41 C 0.6174(3) 0.9885(3) 0.47753(15)
H30 H 0.5655 1.0321 0.473
C42 C 0.7040(3) 1.0253(3) 0.49146(15)
H31 H 0.7126 1.0945 0.4975
C43 C 0.7778(3) 0.9600(3) 0.49643(15)
H32 H 0.8369 0.9858 0.5068
C44 C 0.8422(3) 0.6273(3) 0.55065(13)
H33 H 0.8587 0.6251 0.583
C45 C 0.9193(3) 0.6070(3) 0.51843(14)
H34 H 0.901 0.632 0.487
H35 H 0.9297 0.5341 0.5163
C46 C 1.0087(3) 0.6575(3) 0.53572(14)
C47 C 1.0731(3) 0.6056(4) 0.56427(15)
H36 H 1.0614 0.5375 0.5712
C48 C 1.1539(3) 0.6499(4) 0.58299(16)
H37 H 1.1971 0.6122 0.6018
C49 C 1.1708(3) 0.7489(4) 0.57400(17)
H38 H 1.2255 0.7801 0.587
C50 C 1.1080(3) 0.8032(4) 0.54599(16)
H39 H 1.119 0.872 0.5403
C51 C 1.0288(3) 0.7570(3) 0.52617(15)
C52 C 0.9794(3) 0.7387(4) 0.40820(15)
C53 C 0.8913(3) 0.7233(4) 0.38688(17)
H40 H 0.8412 0.767 0.3928
C54 C 0.8782(4) 0.6428(5) 0.35692(18)
H41 H 0.8181 0.6315 0.3426
C55 C 0.9501(4) 0.5787(4) 0.34732(18)
C56 C 1.0361(4) 0.5944(4) 0.36923(19)
H42 H 1.0859 0.5502 0.3633
C57 C 1.0515(3) 0.6732(4) 0.39977(18)
H43 H 1.1112 0.6824 0.4149
C58 C 0.9341(6) 0.4953(6) 0.3128(3)
H44 H 0.9729 0.5061 0.2863
H45 H 0.8683 0.4942 0.3021
H46 H 0.9506 0.4315 0.3276
loop_
_geom_bond_atom_site_label_1
_geom_bond_atom_site_label_2
_geom_bond_site_symmetry_1
_geom_bond_site_symmetry_2
N1 C3 1_555 1_555
N2 S1 1_555 1_555
N3 C11 1_555 1_555
N4 C31 1_555 1_555
N5 H1 1_555 1_555
N6 C39 1_555 1_555
O1 S1 1_555 1_555
O2 S1 1_555 1_555
O3 S2 1_555 1_555
O4 S2 1_555 1_555
S1 C24 1_555 1_555
S2 N5 1_555 1_555
C1 H2 1_555 1_555
C2 C1 1_555 1_555
C3 C1 1_555 1_555
C4 C3 1_555 1_555
H3 C4 1_555 1_555
C5 C4 1_555 1_555
C6 C5 1_555 1_555
H4 C6 1_555 1_555
C7 C6 1_555 1_555
H5 C7 1_555 1_555
C8 C7 1_555 1_555
H6 C8 1_555 1_555
C9 C8 1_555 1_555
H7 C9 1_555 1_555
C10 N1 1_555 1_555
C11 N1 1_555 1_555
C12 C11 1_555 1_555
H8 C12 1_555 1_555
C13 C12 1_555 1_555
H9 C13 1_555 1_555
C14 C13 1_555 1_555
H10 C14 1_555 1_555
C15 N3 1_555 1_555
H11 C15 1_555 1_555
C16 N2 1_555 1_555
C17 C16 1_555 1_555
H12 C17 1_555 1_555
C18 C17 1_555 1_555
C19 C18 1_555 1_555
H13 C19 1_555 1_555
C20 C19 1_555 1_555
H14 C20 1_555 1_555
C21 C20 1_555 1_555
H15 C21 1_555 1_555
C22 C21 1_555 1_555
H16 C22 1_555 1_555
C23 N2 1_555 1_555
C24 C25 1_555 1_555
C25 H17 1_555 1_555
C26 C25 1_555 1_555
H18 C26 1_555 1_555
C27 C26 1_555 1_555
C28 C27 1_555 1_555
H19 C28 1_555 1_555
C29 C24 1_555 1_555
H20 C29 1_555 1_555
C30 C27 1_555 1_555
H21 C30 1_555 1_555
H22 C30 1_555 1_555
H23 C30 1_555 1_555
C31 C2 1_555 1_555
C32 C31 1_555 1_555
H24 C32 1_555 1_555
C33 C32 1_555 1_555
C34 C33 1_555 1_555
H25 C34 1_555 1_555
C35 C34 1_555 1_555
H26 C35 1_555 1_555
C36 C35 1_555 1_555
H27 C36 1_555 1_555
C37 C36 1_555 1_555
H28 C37 1_555 1_555
C38 N4 1_555 1_555
C39 N4 1_555 1_555
C40 C39 1_555 1_555
H29 C40 1_555 1_555
C41 C40 1_555 1_555
H30 C41 1_555 1_555
C42 C41 1_555 1_555
H31 C42 1_555 1_555
C43 N6 1_555 1_555
H32 C43 1_555 1_555
C44 C2 1_555 1_555
H33 C44 1_555 1_555
C45 C44 1_555 1_555
H34 C45 1_555 1_555
H35 C45 1_555 1_555
C46 C45 1_555 1_555
C47 C46 1_555 1_555
H36 C47 1_555 1_555
C48 C47 1_555 1_555
H37 C48 1_555 1_555
C49 C48 1_555 1_555
H38 C49 1_555 1_555
C50 C49 1_555 1_555
H39 C50 1_555 1_555
C51 N5 1_555 1_555
C52 S2 1_555 1_555
C53 C52 1_555 1_555
H40 C53 1_555 1_555
C54 C53 1_555 1_555
H41 C54 1_555 1_555
C55 C54 1_555 1_555
C56 C55 1_555 1_555
H42 C56 1_555 1_555
C57 C52 1_555 1_555
H43 C57 1_555 1_555
C58 C55 1_555 1_555
H44 C58 1_555 1_555
H45 C58 1_555 1_555
H46 C58 1_555 1_555
C1 C16 1_555 1_555
C5 C10 1_555 1_555
C9 C10 1_555 1_555
C14 C15 1_555 1_555
C18 C23 1_555 1_555
C22 C23 1_555 1_555
C28 C29 1_555 1_555
C33 C38 1_555 1_555
C37 C38 1_555 1_555
C42 C43 1_555 1_555
C46 C51 1_555 1_555
C50 C51 1_555 1_555
C56 C57 1_555 1_555

#END
