
#######################################################################
#
#                 Cambridge Crystallographic Data Centre
#                                CCDC 
#
#######################################################################
#
# If this CIF has been generated from an entry in the Cambridge 
# Structural Database, then it will include bibliographic, chemical, 
# crystal, experimental, refinement or atomic coordinate data resulting 
# from the CCDC's data processing and validation procedures.
#
#######################################################################

data_JEWHUR
_chemical_formula_moiety         'C34 H46 N2 O9 S1 Si1'
_chemical_name_systematic        
'methyl 9-methoxy-6-[(4-nitrophenyl)sulfonyl]-4-oxo-7-({[tris(propan-2-yl)silyl]oxy}methyl)-2,3,4,4a,5,6,6a,7-octahydro-1H-indeno[2,1-c]isoindole-5-carboxylate'
_symmetry_cell_setting           monoclinic
_symmetry_space_group_name_H-M   'P 21/n'
_symmetry_Int_Tables_number      14
_space_group_name_Hall           '-P 2yn'
loop_
_symmetry_equiv_pos_site_id
_symmetry_equiv_pos_as_xyz
1 x,y,z
2 1/2-x,1/2+y,1/2-z
3 -x,-y,-z
4 1/2+x,1/2-y,1/2+z
_cell_length_a                   16.5896(6)
_cell_length_b                   11.4382(3)
_cell_length_c                   20.6862(7)
_cell_angle_alpha                90
_cell_angle_beta                 112.519(4)
_cell_angle_gamma                90
_cell_volume                     3626.02
_exptl_crystal_colour            colorless
_exptl_crystal_description       Block
_cell_formula_units_Z            4
loop_
_atom_site_label
_atom_site_type_symbol
_atom_site_fract_x
_atom_site_fract_y
_atom_site_fract_z
S1 S 0.54696(4) 0.70724(5) 0.26528(3)
Si1 Si 0.57744(5) 0.26061(6) 0.42173(3)
O1 O 0.53657(12) 0.29001(13) 0.33746(8)
O2 O 0.65722(10) 0.49281(16) 0.20218(8)
O3 O 0.61890(10) 0.76549(15) 0.25810(10)
O4 O 0.55387(13) 0.65896(15) 0.33061(8)
O5 O 0.42722(12) 0.79421(16) 0.06552(9)
O6 O 0.62220(11) 0.52193(18) 0.08805(9)
N1 N 0.51928(11) 0.60236(15) 0.20758(8)
O7 O 0.59522(16) 0.07280(17) 0.15623(11)
C1 C 0.46624(14) 0.40555(18) 0.23533(10)
H1 H 0.4119 0.3750 0.2370
C2 C 0.44362(13) 0.52461(18) 0.19720(10)
H2 H 0.3990 0.5655 0.2088
C3 C 0.48772(14) 0.32956(18) 0.18434(10)
C4 C 0.45142(14) 0.37735(18) 0.11754(10)
C5 C 0.40881(13) 0.49452(19) 0.11732(10)
C6 C 0.53622(13) 0.61539(19) 0.14289(10)
H3 H 0.5515 0.6970 0.1388
C7 C 0.44821(13) 0.58914(19) 0.08476(10)
H4 H 0.4584 0.5546 0.0452
C8 C 0.45966(14) 0.80865(19) 0.24273(11)
C9 C 0.60938(14) 0.5374(2) 0.14089(11)
C10 C 0.39349(16) 0.6992(2) 0.05956(11)
C11 C 0.53504(17) 0.22778(19) 0.19606(12)
H5 H 0.5598 0.1963 0.2408
C12 C 0.54535(18) 0.1723(2) 0.13955(13)
C13 C 0.46030(16) 0.3194(2) 0.06179(11)
H6 H 0.4346 0.3498 0.0168
N2 N 0.26217(19) 1.0596(3) 0.20517(18)
C14 C 0.53289(17) 0.40571(19) 0.30999(11)
H7 H 0.5897 0.4282 0.3109
H8 H 0.5159 0.4611 0.3380
C15 C 0.46111(16) 0.9085(2) 0.20587(13)
H9 H 0.5061 0.9209 0.1903
C16 C 0.30866(14) 0.4869(2) 0.08211(13)
H10 H 0.2930 0.4469 0.0376
H11 H 0.2872 0.4405 0.1114
C17 C 0.39234(17) 0.7887(2) 0.26564(14)
H12 H 0.3920 0.7211 0.2905
C18 C 0.32944(17) 0.9687(2) 0.21593(15)
C19 C 0.50699(19) 0.2171(2) 0.07287(13)
H13 H 0.5127 0.1781 0.0354
C20 C 0.39511(18) 0.9900(2) 0.19229(14)
H14 H 0.3951 1.0580 0.1676
O8 O 0.2701(2) 1.1515(3) 0.17929(18)
C21 C 0.5656(2) 0.0979(2) 0.42670(13)
H15 H 0.5906 0.0770 0.4764
O9 O 0.20385(19) 1.0379(3) 0.2248(2)
C22 C 0.32618(18) 0.8694(2) 0.25136(16)
H16 H 0.2801 0.8564 0.2656
C23 C 0.26409(16) 0.6055(3) 0.06959(15)
H17 H 0.2015 0.5951 0.0464
H18 H 0.2757 0.6437 0.1141
C24 C 0.5143(2) 0.3427(3) 0.46521(14)
H19 H 0.5339 0.4241 0.4684
C25 C 0.29674(17) 0.6816(3) 0.02496(16)
H20 H 0.2829 0.6450 -0.0203
H21 H 0.2676 0.7568 0.0175
C26 C 0.72872(18) 0.4174(3) 0.20485(16)
H22 H 0.7486 0.3735 0.2477
H23 H 0.7758 0.4642 0.2029
H24 H 0.7091 0.3647 0.1658
C27 C 0.6142(2) 0.0267(3) 0.39091(17)
H25 H 0.6754 0.0445 0.4118
H26 H 0.5924 0.0459 0.3420
H27 H 0.6056 -0.0551 0.3964
C28 C 0.6963(2) 0.3032(3) 0.46146(17)
H28 H 0.7234 0.2551 0.5034
C29 C 0.4161(3) 0.3451(4) 0.4238(2)
H29 H 0.3931 0.2673 0.4204
H30 H 0.4042 0.3749 0.3776
H31 H 0.3890 0.3946 0.4471
C30 C 0.4703(3) 0.0600(3) 0.3989(2)
H32 H 0.4406 0.0909 0.3526
H33 H 0.4431 0.0891 0.4291
H34 H 0.4671 -0.0238 0.3973
C31 C 0.7134(3) 0.4304(4) 0.4848(2)
H35 H 0.6887 0.4461 0.5190
H36 H 0.6870 0.4808 0.4452
H37 H 0.7751 0.4442 0.5050
C32 C 0.5368(3) 0.3019(4) 0.54081(18)
H38 H 0.5990 0.2987 0.5649
H39 H 0.5125 0.2256 0.5406
H40 H 0.5128 0.3559 0.5642
C33 C 0.7444(2) 0.2758(4) 0.4129(3)
H41 H 0.7185 0.3194 0.3703
H42 H 0.7401 0.1937 0.4026
H43 H 0.8047 0.2973 0.4356
C34 C 0.6136(4) 0.0179(4) 0.1027(2)
H44 H 0.6410 -0.0562 0.1191
H45 H 0.6520 0.0663 0.0896
H46 H 0.5603 0.0059 0.0629
loop_
_geom_bond_atom_site_label_1
_geom_bond_atom_site_label_2
_geom_bond_site_symmetry_1
_geom_bond_site_symmetry_2
S1 O3 1_555 1_555
Si1 O1 1_555 1_555
O1 C14 1_555 1_555
O2 C9 1_555 1_555
O4 S1 1_555 1_555
O5 C10 1_555 1_555
O6 C9 1_555 1_555
N1 S1 1_555 1_555
O7 C12 1_555 1_555
C1 H1 1_555 1_555
C2 N1 1_555 1_555
H2 C2 1_555 1_555
C3 C1 1_555 1_555
C4 C3 1_555 1_555
C5 C2 1_555 1_555
C6 N1 1_555 1_555
H3 C6 1_555 1_555
C7 C5 1_555 1_555
H4 C7 1_555 1_555
C8 S1 1_555 1_555
C9 C6 1_555 1_555
C10 C7 1_555 1_555
C11 C3 1_555 1_555
H5 C11 1_555 1_555
C12 C11 1_555 1_555
C13 C4 1_555 1_555
H6 C13 1_555 1_555
N2 C18 1_555 1_555
C14 C1 1_555 1_555
H7 C14 1_555 1_555
H8 C14 1_555 1_555
C15 C8 1_555 1_555
H9 C15 1_555 1_555
C16 C5 1_555 1_555
H10 C16 1_555 1_555
H11 C16 1_555 1_555
C17 C8 1_555 1_555
H12 C17 1_555 1_555
C18 C20 1_555 1_555
C19 C12 1_555 1_555
H13 C19 1_555 1_555
C20 C15 1_555 1_555
H14 C20 1_555 1_555
O8 N2 1_555 1_555
C21 Si1 1_555 1_555
H15 C21 1_555 1_555
O9 N2 1_555 1_555
C22 C17 1_555 1_555
H16 C22 1_555 1_555
C23 C16 1_555 1_555
H17 C23 1_555 1_555
H18 C23 1_555 1_555
C24 Si1 1_555 1_555
H19 C24 1_555 1_555
C25 C10 1_555 1_555
H20 C25 1_555 1_555
H21 C25 1_555 1_555
C26 O2 1_555 1_555
H22 C26 1_555 1_555
H23 C26 1_555 1_555
H24 C26 1_555 1_555
C27 C21 1_555 1_555
H25 C27 1_555 1_555
H26 C27 1_555 1_555
H27 C27 1_555 1_555
C28 Si1 1_555 1_555
H28 C28 1_555 1_555
C29 C24 1_555 1_555
H29 C29 1_555 1_555
H30 C29 1_555 1_555
H31 C29 1_555 1_555
C30 C21 1_555 1_555
H32 C30 1_555 1_555
H33 C30 1_555 1_555
H34 C30 1_555 1_555
C31 C28 1_555 1_555
H35 C31 1_555 1_555
H36 C31 1_555 1_555
H37 C31 1_555 1_555
C32 C24 1_555 1_555
H38 C32 1_555 1_555
H39 C32 1_555 1_555
H40 C32 1_555 1_555
C33 C28 1_555 1_555
H41 C33 1_555 1_555
H42 C33 1_555 1_555
H43 C33 1_555 1_555
C34 O7 1_555 1_555
H44 C34 1_555 1_555
H45 C34 1_555 1_555
H46 C34 1_555 1_555
C1 C2 1_555 1_555
C4 C5 1_555 1_555
C6 C7 1_555 1_555
C13 C19 1_555 1_555
C18 C22 1_555 1_555
C23 C25 1_555 1_555

#END
