
#######################################################################
#
#                 Cambridge Crystallographic Data Centre
#                                CCDC 
#
#######################################################################
#
# If this CIF has been generated from an entry in the Cambridge 
# Structural Database, then it will include bibliographic, chemical, 
# crystal, experimental, refinement or atomic coordinate data resulting 
# from the CCDC's data processing and validation procedures.
#
#######################################################################

data_JEWHIF
_chemical_formula_moiety         'C20 H27 N1 O1,H2 O1'
_chemical_name_systematic        'hetisan-13-ol monohydrate'
_symmetry_cell_setting           monoclinic
_symmetry_space_group_name_H-M   'P 21/c'
_symmetry_Int_Tables_number      14
_space_group_name_Hall           '-P 2ybc'
loop_
_symmetry_equiv_pos_site_id
_symmetry_equiv_pos_as_xyz
1 x,y,z
2 -x,1/2+y,1/2-z
3 -x,-y,-z
4 x,1/2-y,1/2+z
_cell_length_a                   13.3497(4)
_cell_length_b                   7.96866(15)
_cell_length_c                   16.8840(5)
_cell_angle_alpha                90
_cell_angle_beta                 110.502(3)
_cell_angle_gamma                90
_cell_volume                     1682.34
_exptl_crystal_colour            colorless
_exptl_crystal_description       block
_cell_formula_units_Z            4
loop_
_atom_site_label
_atom_site_type_symbol
_atom_site_fract_x
_atom_site_fract_y
_atom_site_fract_z
O1 O 0.09318(9) -0.15170(16) 0.32869(7)
H1 H 0.0698 -0.2478 0.3211
N1 N 0.21301(9) 0.32959(17) 0.37192(8)
C1 C 0.20028(11) 0.1432(2) 0.36491(9)
H2 H 0.1620 0.1063 0.3068
C2 C 0.10084(12) -0.0964(2) 0.41114(9)
H3 H 0.0291 -0.0966 0.4146
C3 C 0.38322(11) 0.2355(2) 0.42429(9)
H4 H 0.4548 0.2229 0.4670
C4 C 0.14565(11) 0.0847(2) 0.42647(9)
H5 H 0.0896 0.1640 0.4267
C5 C 0.30651(11) 0.3438(2) 0.45280(9)
H6 H 0.3318 0.4599 0.4632
C6 C 0.26137(11) 0.3848(2) 0.30895(9)
H7 H 0.2568 0.5058 0.3025
H8 H 0.2241 0.3338 0.2544
C7 C 0.24129(11) 0.0934(2) 0.51111(9)
C8 C 0.32249(11) -0.0130(2) 0.48638(9)
H9 H 0.3942 0.0006 0.5288
C9 C 0.31784(11) 0.0700(2) 0.40191(9)
C10 C 0.28022(12) 0.2744(2) 0.52698(9)
H10 H 0.2253 0.3431 0.5361
H11 H 0.3435 0.2794 0.5777
C11 C 0.38132(11) 0.3274(2) 0.34328(9)
C12 C 0.17291(12) -0.2134(2) 0.47995(10)
H12 H 0.1478 -0.3296 0.4691
C13 C 0.17020(12) -0.1551(2) 0.56409(10)
C14 C 0.28835(12) -0.1991(2) 0.48145(10)
H13 H 0.2935 -0.2496 0.4308
H14 H 0.3361 -0.2593 0.5299
C15 C 0.21625(13) 0.0197(2) 0.58558(10)
H15 H 0.2811 0.0151 0.6350
H16 H 0.1653 0.0911 0.5987
C16 C 0.45558(12) 0.4807(2) 0.36341(10)
H17 H 0.4414 0.5486 0.4053
H18 H 0.4431 0.5454 0.3129
H19 H 0.5287 0.4439 0.3847
C17 C 0.41344(13) 0.2115(2) 0.28376(10)
H20 H 0.4056 0.2719 0.2321
H21 H 0.4883 0.1818 0.3103
C18 C 0.34744(13) 0.0513(2) 0.26143(10)
H22 H 0.3759 -0.0210 0.2282
H23 H 0.2742 0.0789 0.2274
C19 C 0.34900(12) -0.0417(2) 0.34071(10)
H24 H 0.4202 -0.0862 0.3694
H25 H 0.2999 -0.1358 0.3244
C20 C 0.13277(15) -0.2461(3) 0.61350(12)
H26 H 0.1320(18) -0.201(3) 0.6677(11)
H27 H 0.0991(17) -0.357(2) 0.5939(13)
O2 O 0.02720(9) -0.47378(15) 0.31804(8)
H28 H 0.0850(14) -0.533(3) 0.3389(14)
H29 H -0.0105(16) -0.529(3) 0.2727(11)
loop_
_geom_bond_atom_site_label_1
_geom_bond_atom_site_label_2
_geom_bond_site_symmetry_1
_geom_bond_site_symmetry_2
O1 H1 1_555 1_555
N1 C1 1_555 1_555
C1 H2 1_555 1_555
C2 O1 1_555 1_555
H3 C2 1_555 1_555
C3 H4 1_555 1_555
C4 C1 1_555 1_555
H5 C4 1_555 1_555
C5 N1 1_555 1_555
H6 C5 1_555 1_555
C6 N1 1_555 1_555
H7 C6 1_555 1_555
H8 C6 1_555 1_555
C7 C4 1_555 1_555
C8 C7 1_555 1_555
H9 C8 1_555 1_555
C9 C1 1_555 1_555
C10 C5 1_555 1_555
H10 C10 1_555 1_555
H11 C10 1_555 1_555
C11 C3 1_555 1_555
C12 C2 1_555 1_555
H12 C12 1_555 1_555
C13 C12 1_555 1_555
C14 C8 1_555 1_555
H13 C14 1_555 1_555
H14 C14 1_555 1_555
C15 C7 1_555 1_555
H15 C15 1_555 1_555
H16 C15 1_555 1_555
C16 C11 1_555 1_555
H17 C16 1_555 1_555
H18 C16 1_555 1_555
H19 C16 1_555 1_555
C17 C11 1_555 1_555
H20 C17 1_555 1_555
H21 C17 1_555 1_555
C18 C17 1_555 1_555
H22 C18 1_555 1_555
H23 C18 1_555 1_555
C19 C9 1_555 1_555
H24 C19 1_555 1_555
H25 C19 1_555 1_555
C20 C13 1_555 1_555
H26 C20 1_555 1_555
H27 C20 1_555 1_555
O2 H28 1_555 1_555
H29 O2 1_555 1_555
C2 C4 1_555 1_555
C3 C5 1_555 1_555
C3 C9 1_555 1_555
C6 C11 1_555 1_555
C7 C10 1_555 1_555
C8 C9 1_555 1_555
C12 C14 1_555 1_555
C13 C15 1_555 1_555
C18 C19 1_555 1_555

#END
