
#######################################################################
#
#                 Cambridge Crystallographic Data Centre
#                                CCDC 
#
#######################################################################
#
# If this CIF has been generated from an entry in the Cambridge 
# Structural Database, then it will include bibliographic, chemical, 
# crystal, experimental, refinement or atomic coordinate data resulting 
# from the CCDC's data processing and validation procedures.
#
#######################################################################

data_JEWPUZ
_chemical_name_common            
(8-(pyridin-2-yl)naphthalen-1-yl)bis(2,4,6-trimethylphenyl)boron
_chemical_formula_moiety         'C33 H32 B1 N1'
_chemical_name_systematic        
7,7-bis(2,4,6-trimethylphenyl)-7H-8\l^5^,7\l^5^-naphtho[1,8-cd]pyrido[2,1-f][1,2]azaborinine
_symmetry_cell_setting           orthorhombic
_symmetry_space_group_name_H-M   'P 21 21 21'
_symmetry_Int_Tables_number      19
_space_group_name_Hall           'P 2ac 2ab'
loop_
_symmetry_equiv_pos_site_id
_symmetry_equiv_pos_as_xyz
1 x,y,z
2 1/2-x,-y,1/2+z
3 -x,1/2+y,1/2-z
4 1/2+x,1/2-y,-z
_cell_length_a                   7.9289(3)
_cell_length_b                   15.2658(5)
_cell_length_c                   20.9036(9)
_cell_angle_alpha                90
_cell_angle_beta                 90
_cell_angle_gamma                90
_cell_volume                     2530.19
_exptl_crystal_colour            yellow
_exptl_crystal_description       block
_cell_formula_units_Z            4
loop_
_atom_site_label
_atom_site_type_symbol
_atom_site_fract_x
_atom_site_fract_y
_atom_site_fract_z
N1 N 0.7215(3) 0.41033(14) 0.65516(11)
C1 C 0.4539(4) 0.44333(19) 0.58668(14)
C2 C 0.3649(4) 0.4905(2) 0.54204(15)
H1 H 0.3927 0.5498 0.5358
C3 C 0.2340(4) 0.4539(3) 0.50531(17)
H2 H 0.1762 0.4887 0.4754
C4 C 0.1907(4) 0.3681(3) 0.51290(17)
H3 H 0.0994 0.3449 0.4897
C5 C 0.2806(4) 0.3144(2) 0.55472(16)
C6 C 0.2415(5) 0.2248(3) 0.56340(18)
H4 H 0.1504 0.2002 0.5409
C7 C 0.3332(5) 0.1736(2) 0.60363(18)
H5 H 0.2999 0.1154 0.6112
C8 C 0.4769(4) 0.2071(2) 0.63393(15)
H6 H 0.5431 0.1703 0.6598
C9 C 0.5222(4) 0.29413(18) 0.62606(13)
C10 C 0.4187(4) 0.35130(19) 0.59009(13)
C11 C 0.6888(4) 0.32331(17) 0.64786(13)
C12 C 0.8186(4) 0.26325(19) 0.65900(15)
H7 H 0.7974 0.2031 0.6535
C13 C 0.9757(4) 0.2901(2) 0.67767(15)
H8 H 1.0616 0.2489 0.6852
C14 C 1.0061(4) 0.3775(2) 0.68523(15)
H9 H 1.1126 0.3976 0.6984
C15 C 0.8777(4) 0.43519(19) 0.67324(15)
H10 H 0.8996 0.4954 0.6779
C16 C 0.4509(3) 0.50008(17) 0.70432(13)
C17 C 0.4538(4) 0.45215(17) 0.76282(14)
C18 C 0.5951(5) 0.3916(2) 0.78452(16)
H11 H 0.5899 0.3373 0.7605
H12 H 0.5825 0.3792 0.8298
H13 H 0.7031 0.4198 0.7771
C19 C 0.3235(4) 0.46036(18) 0.80746(14)
H14 H 0.3291 0.4265 0.8449
C20 C 0.1872(4) 0.51532(19) 0.79959(15)
C21 C 0.0436(4) 0.5194(2) 0.84694(17)
H15 H -0.0465 0.5552 0.8296
H16 H 0.0833 0.5448 0.8867
H17 H 0.0016 0.4607 0.8549
C22 C 0.1894(4) 0.56723(19) 0.74522(15)
H18 H 0.1024 0.6082 0.7393
C23 C 0.3155(4) 0.56112(17) 0.69902(14)
C24 C 0.2966(4) 0.6276(2) 0.64512(15)
H19 H 0.4031 0.6334 0.6227
H20 H 0.2643 0.6838 0.6628
H21 H 0.2104 0.6078 0.6155
C25 C 0.6917(4) 0.57076(18) 0.61489(14)
C26 C 0.7295(4) 0.64603(17) 0.65233(14)
C27 C 0.6744(5) 0.6575(2) 0.72110(15)
H22 H 0.7282 0.7090 0.7390
H23 H 0.7067 0.6062 0.7457
H24 H 0.5529 0.6645 0.7227
C28 C 0.8271(4) 0.71361(18) 0.62789(16)
H25 H 0.8458 0.7633 0.6534
C29 C 0.8977(4) 0.7108(2) 0.56776(18)
C30 C 1.0079(6) 0.7844(2) 0.5420(2)
H26 H 1.0319 0.7739 0.4972
H27 H 1.1128 0.7863 0.5659
H28 H 0.9493 0.8398 0.5466
C31 C 0.8697(4) 0.6363(2) 0.53205(16)
H29 H 0.9191 0.6318 0.4913
C32 C 0.7708(4) 0.56729(19) 0.55423(14)
C33 C 0.7633(4) 0.4883(2) 0.51020(15)
H30 H 0.6594 0.4899 0.4857
H31 H 0.7668 0.4351 0.5355
H32 H 0.8589 0.4895 0.4812
B1 B 0.5785(4) 0.4867(2) 0.64073(16)
loop_
_geom_bond_atom_site_label_1
_geom_bond_atom_site_label_2
_geom_bond_site_symmetry_1
_geom_bond_site_symmetry_2
N1 C11 1_555 1_555
C1 C2 1_555 1_555
C2 H1 1_555 1_555
C3 C2 1_555 1_555
H2 C3 1_555 1_555
C4 C3 1_555 1_555
H3 C4 1_555 1_555
C5 C4 1_555 1_555
C6 C5 1_555 1_555
H4 C6 1_555 1_555
C7 C6 1_555 1_555
H5 C7 1_555 1_555
C8 C7 1_555 1_555
H6 C8 1_555 1_555
C9 C8 1_555 1_555
C10 C1 1_555 1_555
C11 C9 1_555 1_555
C12 C11 1_555 1_555
H7 C12 1_555 1_555
C13 C12 1_555 1_555
H8 C13 1_555 1_555
C14 C13 1_555 1_555
H9 C14 1_555 1_555
C15 N1 1_555 1_555
H10 C15 1_555 1_555
C16 C17 1_555 1_555
C17 C18 1_555 1_555
C18 H11 1_555 1_555
H12 C18 1_555 1_555
H13 C18 1_555 1_555
C19 C17 1_555 1_555
H14 C19 1_555 1_555
C20 C19 1_555 1_555
C21 C20 1_555 1_555
H15 C21 1_555 1_555
H16 C21 1_555 1_555
H17 C21 1_555 1_555
C22 C20 1_555 1_555
H18 C22 1_555 1_555
C23 C16 1_555 1_555
C24 C23 1_555 1_555
H19 C24 1_555 1_555
H20 C24 1_555 1_555
H21 C24 1_555 1_555
C25 C26 1_555 1_555
C26 C27 1_555 1_555
C27 H22 1_555 1_555
H23 C27 1_555 1_555
H24 C27 1_555 1_555
C28 C26 1_555 1_555
H25 C28 1_555 1_555
C29 C28 1_555 1_555
C30 C29 1_555 1_555
H26 C30 1_555 1_555
H27 C30 1_555 1_555
H28 C30 1_555 1_555
C31 C29 1_555 1_555
H29 C31 1_555 1_555
C32 C25 1_555 1_555
C33 C32 1_555 1_555
H30 C33 1_555 1_555
H31 C33 1_555 1_555
H32 C33 1_555 1_555
B1 N1 1_555 1_555
C1 B1 1_555 1_555
C5 C10 1_555 1_555
C9 C10 1_555 1_555
C14 C15 1_555 1_555
C16 B1 1_555 1_555
C22 C23 1_555 1_555
C25 B1 1_555 1_555
C31 C32 1_555 1_555

#END
