
#######################################################################
#
#                 Cambridge Crystallographic Data Centre
#                                CCDC 
#
#######################################################################
#
# If this CIF has been generated from an entry in the Cambridge 
# Structural Database, then it will include bibliographic, chemical, 
# crystal, experimental, refinement or atomic coordinate data resulting 
# from the CCDC's data processing and validation procedures.
#
#######################################################################

data_JEWQAG
_chemical_name_common            
(8-(4-methylpyridin-2-yl)naphthalen-1-yl)bis(2,4,6-trimethylphenyl)boron
_chemical_formula_moiety         'C34 H34 B1 N1'
_chemical_name_systematic        
11-methyl-7,7-bis(2,4,6-trimethylphenyl)-7H-8\l^5^,7\l^5^-naphtho[1,8-cd]pyrido[2,1-f][1,2]azaborinine
_symmetry_cell_setting           monoclinic
_symmetry_space_group_name_H-M   'P 21/n'
_symmetry_Int_Tables_number      14
_space_group_name_Hall           '-P 2yn'
loop_
_symmetry_equiv_pos_site_id
_symmetry_equiv_pos_as_xyz
1 x,y,z
2 1/2-x,1/2+y,1/2-z
3 -x,-y,-z
4 1/2+x,1/2-y,1/2+z
_cell_length_a                   10.8730(9)
_cell_length_b                   16.0706(12)
_cell_length_c                   15.6253(13)
_cell_angle_alpha                90
_cell_angle_beta                 109.890(3)
_cell_angle_gamma                90
_cell_volume                     2567.43
_exptl_crystal_colour            yellow
_exptl_crystal_description       Block
_cell_formula_units_Z            4
loop_
_atom_site_label
_atom_site_type_symbol
_atom_site_fract_x
_atom_site_fract_y
_atom_site_fract_z
B1 B 0.3003(3) 0.53725(19) 0.7057(2)
N1 N 0.2978(2) 0.45514(14) 0.63992(16)
C1 C 0.2123(3) 0.60357(17) 0.6333(2)
C2 C 0.1269(3) 0.65905(19) 0.6502(2)
H1 H 0.0997 0.6500 0.7012
C3 C 0.0784(3) 0.7291(2) 0.5942(3)
H2 H 0.0172 0.7650 0.6066
C4 C 0.1189(4) 0.7454(2) 0.5222(3)
H3 H 0.0918 0.7950 0.4878
C5 C 0.2015(3) 0.68796(19) 0.4989(2)
C6 C 0.2470(4) 0.7018(2) 0.4260(2)
H4 H 0.2250 0.7521 0.3923
C7 C 0.3220(4) 0.6445(2) 0.4032(2)
H5 H 0.3562 0.6564 0.3562
C8 C 0.3494(3) 0.5678(2) 0.4486(2)
H6 H 0.3967 0.5266 0.4290
C9 C 0.3084(3) 0.55144(18) 0.52127(19)
C10 C 0.2396(3) 0.61470(18) 0.5516(2)
C11 C 0.3125(3) 0.46643(17) 0.55753(19)
C12 C 0.3183(3) 0.39752(18) 0.5053(2)
H7 H 0.3291 0.4059 0.4480
C13 C 0.3088(3) 0.31711(18) 0.5341(2)
C14 C 0.2898(3) 0.30804(19) 0.6165(2)
H8 H 0.2798 0.2541 0.6381
C15 C 0.2853(3) 0.37704(17) 0.6671(2)
H9 H 0.2729 0.3693 0.7239
C16 C 0.3166(4) 0.2431(2) 0.4772(3)
H10 H 0.3253 0.1922 0.5134
H11 H 0.3928 0.2489 0.4576
H12 H 0.2369 0.2400 0.4237
C17 C 0.4580(3) 0.56602(17) 0.73804(19)
C18 C 0.5618(3) 0.50749(18) 0.7667(2)
C19 C 0.6897(3) 0.5288(2) 0.7737(2)
H13 H 0.7557 0.4873 0.7923
C20 C 0.7238(3) 0.6077(2) 0.7548(2)
C21 C 0.6260(3) 0.66698(19) 0.73607(19)
H14 H 0.6471 0.7228 0.7264
C22 C 0.4979(3) 0.64907(17) 0.73059(19)
C23 C 0.4139(3) 0.72492(18) 0.7256(2)
H15 H 0.4695 0.7718 0.7557
H16 H 0.3507 0.7133 0.7562
H17 H 0.3672 0.7389 0.6617
C24 C 0.5451(3) 0.42142(19) 0.8002(2)
H18 H 0.6243 0.4060 0.8505
H19 H 0.5302 0.3814 0.7504
H20 H 0.4700 0.4211 0.8214
C25 C 0.8602(3) 0.6302(2) 0.7599(3)
H21 H 0.9234 0.5972 0.8076
H22 H 0.8754 0.6895 0.7741
H23 H 0.8708 0.6186 0.7012
C26 C 0.2329(3) 0.51008(17) 0.7803(2)
C27 C 0.1094(3) 0.47002(18) 0.7519(2)
C28 C 0.0572(3) 0.43918(18) 0.8155(2)
H24 H -0.0250 0.4117 0.7942
C29 C 0.1199(3) 0.44690(19) 0.9082(2)
C30 C 0.2342(3) 0.49280(19) 0.9363(2)
H25 H 0.2759 0.5028 0.9995
C31 C 0.2906(3) 0.52509(18) 0.8753(2)
C32 C 0.4113(3) 0.5774(2) 0.9165(2)
H26 H 0.4221 0.5898 0.9800
H27 H 0.4024 0.6294 0.8823
H28 H 0.4880 0.5468 0.9139
C33 C 0.0253(3) 0.4577(2) 0.6533(2)
H29 H -0.0661 0.4701 0.6457
H30 H 0.0325 0.3999 0.6355
H31 H 0.0549 0.4952 0.6148
C34 C 0.0673(4) 0.4063(2) 0.9755(3)
H32 H -0.0273 0.4156 0.9566
H33 H 0.1099 0.4306 1.0359
H34 H 0.0850 0.3464 0.9777
loop_
_geom_bond_atom_site_label_1
_geom_bond_atom_site_label_2
_geom_bond_site_symmetry_1
_geom_bond_site_symmetry_2
B1 N1 1_555 1_555
N1 C11 1_555 1_555
C1 B1 1_555 1_555
C2 C1 1_555 1_555
H1 C2 1_555 1_555
C3 C2 1_555 1_555
H2 C3 1_555 1_555
C4 C3 1_555 1_555
H3 C4 1_555 1_555
C5 C4 1_555 1_555
C6 C5 1_555 1_555
H4 C6 1_555 1_555
C7 C6 1_555 1_555
H5 C7 1_555 1_555
C8 C7 1_555 1_555
H6 C8 1_555 1_555
C9 C8 1_555 1_555
C10 C1 1_555 1_555
C11 C9 1_555 1_555
C12 C11 1_555 1_555
H7 C12 1_555 1_555
C13 C12 1_555 1_555
C14 C13 1_555 1_555
H8 C14 1_555 1_555
C15 N1 1_555 1_555
H9 C15 1_555 1_555
C16 C13 1_555 1_555
H10 C16 1_555 1_555
H11 C16 1_555 1_555
H12 C16 1_555 1_555
C17 B1 1_555 1_555
C18 C17 1_555 1_555
C19 C18 1_555 1_555
H13 C19 1_555 1_555
C20 C19 1_555 1_555
C21 C20 1_555 1_555
H14 C21 1_555 1_555
C22 C17 1_555 1_555
C23 C22 1_555 1_555
H15 C23 1_555 1_555
H16 C23 1_555 1_555
H17 C23 1_555 1_555
C24 C18 1_555 1_555
H18 C24 1_555 1_555
H19 C24 1_555 1_555
H20 C24 1_555 1_555
C25 C20 1_555 1_555
H21 C25 1_555 1_555
H22 C25 1_555 1_555
H23 C25 1_555 1_555
C26 B1 1_555 1_555
C27 C26 1_555 1_555
C28 C27 1_555 1_555
H24 C28 1_555 1_555
C29 C28 1_555 1_555
C30 C29 1_555 1_555
H25 C30 1_555 1_555
C31 C26 1_555 1_555
C32 C31 1_555 1_555
H26 C32 1_555 1_555
H27 C32 1_555 1_555
H28 C32 1_555 1_555
C33 C27 1_555 1_555
H29 C33 1_555 1_555
H30 C33 1_555 1_555
H31 C33 1_555 1_555
C34 C29 1_555 1_555
H32 C34 1_555 1_555
H33 C34 1_555 1_555
H34 C34 1_555 1_555
C5 C10 1_555 1_555
C9 C10 1_555 1_555
C14 C15 1_555 1_555
C21 C22 1_555 1_555
C30 C31 1_555 1_555

#END
