
#######################################################################
#
#                 Cambridge Crystallographic Data Centre
#                                CCDC 
#
#######################################################################
#
# If this CIF has been generated from an entry in the Cambridge 
# Structural Database, then it will include bibliographic, chemical, 
# crystal, experimental, refinement or atomic coordinate data resulting 
# from the CCDC's data processing and validation procedures.
#
#######################################################################

data_JEWQOU
_chemical_name_common            
(mesityl)(5-(pyridin-2-yl)-3-[3-(mesityl)prop-2-en-3-yl-1-ylidene]inden-4-yl)boron
_chemical_formula_moiety         'C35 H34 B1 N1'
_chemical_name_systematic        
5,6-bis(2,4,6-trimethylphenyl)-2,6-dihydro-1H-7\l^5^,6\l^5^-cyclopenta[5',6'][1]benzoborepino[1',9':2,3,4][1,2]azaborolo[1,5-a]pyridine
_symmetry_cell_setting           monoclinic
_symmetry_space_group_name_H-M   'P 21/n'
_symmetry_Int_Tables_number      14
_space_group_name_Hall           '-P 2yn'
loop_
_symmetry_equiv_pos_site_id
_symmetry_equiv_pos_as_xyz
1 x,y,z
2 1/2-x,1/2+y,1/2-z
3 -x,-y,-z
4 1/2+x,1/2-y,1/2+z
_cell_length_a                   12.5059(10)
_cell_length_b                   14.1744(12)
_cell_length_c                   15.7497(12)
_cell_angle_alpha                90
_cell_angle_beta                 103.783(3)
_cell_angle_gamma                90
_cell_volume                     2711.46
_exptl_crystal_colour            yellow
_exptl_crystal_description       plate
_cell_formula_units_Z            4
loop_
_atom_site_label
_atom_site_type_symbol
_atom_site_fract_x
_atom_site_fract_y
_atom_site_fract_z
B1 B 0.73236(18) 0.77571(16) 0.60431(14)
N1 N 0.78700(14) 0.68298(11) 0.65957(10)
C1 C 0.72708(15) 0.75572(14) 0.50073(12)
C2 C 0.73323(16) 0.82471(14) 0.44254(12)
H1 H 0.7257 0.8026 0.3845
C3 C 0.74922(16) 0.92643(14) 0.45194(13)
H2 H 0.7163 0.9636 0.4024
C4 C 0.80558(16) 0.97379(14) 0.52302(13)
C5 C 0.86283(16) 0.92703(14) 0.60289(12)
C6 C 0.96018(16) 0.97565(15) 0.64046(13)
C7 C 1.04077(17) 0.93186(17) 0.70444(14)
H3 H 1.1061 0.9649 0.7314
C8 C 1.02531(17) 0.83962(16) 0.72871(13)
H4 H 1.0821 0.8075 0.7692
C9 C 0.92555(16) 0.79451(14) 0.69309(12)
C10 C 0.83924(16) 0.83978(14) 0.63378(12)
C11 C 0.84948(18) 1.07422(15) 0.52785(15)
H5 H 0.7990 1.1183 0.5476
H6 H 0.8589 1.0952 0.4701
C12 C 0.96203(18) 1.06914(16) 0.59539(15)
H7 H 1.0235 1.0718 0.5659
H8 H 0.9699 1.1218 0.6377
C13 C 0.89224(16) 0.69812(15) 0.70663(12)
C14 C 0.94921(19) 0.62704(16) 0.75892(13)
H9 H 1.0234 0.6366 0.7900
C15 C 0.8976(2) 0.54264(16) 0.76543(14)
H10 H 0.9357 0.4937 0.8016
C16 C 0.7896(2) 0.52912(16) 0.71905(15)
H11 H 0.7528 0.4714 0.7238
C17 C 0.73646(19) 0.60043(14) 0.66599(13)
H12 H 0.6629 0.5912 0.6334
C18 C 0.73469(17) 0.65601(14) 0.46989(12)
C19 C 0.83795(17) 0.62036(14) 0.46300(13)
C20 C 0.84608(19) 0.52806(15) 0.43476(14)
H13 H 0.9159 0.5051 0.4304
C21 C 0.7558(2) 0.46871(16) 0.41291(16)
C22 C 0.6552(2) 0.50383(16) 0.42072(14)
H14 H 0.5925 0.4640 0.4063
C23 C 0.64272(17) 0.59545(15) 0.44894(13)
C24 C 0.52994(18) 0.62839(17) 0.45334(15)
H15 H 0.4808 0.5739 0.4495
H16 H 0.5010 0.6715 0.4046
H17 H 0.5345 0.6613 0.5088
C25 C 0.94036(17) 0.68053(16) 0.48469(15)
H18 H 1.0032 0.6437 0.4759
H19 H 0.9544 0.7010 0.5458
H20 H 0.9300 0.7360 0.4464
C26 C 0.7645(3) 0.37015(19) 0.3790(2)
H21 H 0.8275 0.3666 0.3522
H22 H 0.6968 0.3547 0.3353
H23 H 0.7747 0.3252 0.4276
C27 C 0.62120(16) 0.80426(13) 0.63856(12)
C28 C 0.52076(16) 0.83787(14) 0.58387(12)
C29 C 0.42689(16) 0.84938(14) 0.61564(13)
H24 H 0.3610 0.8698 0.5763
C30 C 0.42485(17) 0.83254(15) 0.70135(13)
C31 C 0.52365(17) 0.80727(14) 0.75699(13)
H25 H 0.5260 0.7986 0.8172
C32 C 0.61997(16) 0.79396(14) 0.72871(12)
C33 C 0.72088(18) 0.77316(16) 0.80156(13)
H26 H 0.7096 0.7977 0.8569
H27 H 0.7855 0.8035 0.7884
H28 H 0.7327 0.7048 0.8064
C34 C 0.50703(18) 0.86926(16) 0.48982(13)
H29 H 0.4319 0.8925 0.4669
H30 H 0.5208 0.8157 0.4545
H31 H 0.5596 0.9199 0.4873
C35 C 0.32124(19) 0.84597(19) 0.73288(15)
H32 H 0.2570 0.8396 0.6835
H33 H 0.3215 0.9090 0.7586
H34 H 0.3178 0.7981 0.7771
loop_
_geom_bond_atom_site_label_1
_geom_bond_atom_site_label_2
_geom_bond_site_symmetry_1
_geom_bond_site_symmetry_2
B1 N1 1_555 1_555
N1 C13 1_555 1_555
C1 B1 1_555 1_555
C2 C1 1_555 1_555
H1 C2 1_555 1_555
C3 C2 1_555 1_555
H2 C3 1_555 1_555
C4 C3 1_555 1_555
C5 C4 1_555 1_555
C6 C5 1_555 1_555
C7 C6 1_555 1_555
H3 C7 1_555 1_555
C8 C7 1_555 1_555
H4 C8 1_555 1_555
C9 C8 1_555 1_555
C10 B1 1_555 1_555
C11 C4 1_555 1_555
H5 C11 1_555 1_555
H6 C11 1_555 1_555
C12 C6 1_555 1_555
H7 C12 1_555 1_555
H8 C12 1_555 1_555
C13 C9 1_555 1_555
C14 C13 1_555 1_555
H9 C14 1_555 1_555
C15 C14 1_555 1_555
H10 C15 1_555 1_555
C16 C15 1_555 1_555
H11 C16 1_555 1_555
C17 N1 1_555 1_555
H12 C17 1_555 1_555
C18 C1 1_555 1_555
C19 C18 1_555 1_555
C20 C19 1_555 1_555
H13 C20 1_555 1_555
C21 C20 1_555 1_555
C22 C21 1_555 1_555
H14 C22 1_555 1_555
C23 C18 1_555 1_555
C24 C23 1_555 1_555
H15 C24 1_555 1_555
H16 C24 1_555 1_555
H17 C24 1_555 1_555
C25 C19 1_555 1_555
H18 C25 1_555 1_555
H19 C25 1_555 1_555
H20 C25 1_555 1_555
C26 C21 1_555 1_555
H21 C26 1_555 1_555
H22 C26 1_555 1_555
H23 C26 1_555 1_555
C27 B1 1_555 1_555
C28 C27 1_555 1_555
C29 C28 1_555 1_555
H24 C29 1_555 1_555
C30 C29 1_555 1_555
C31 C30 1_555 1_555
H25 C31 1_555 1_555
C32 C27 1_555 1_555
C33 C32 1_555 1_555
H26 C33 1_555 1_555
H27 C33 1_555 1_555
H28 C33 1_555 1_555
C34 C28 1_555 1_555
H29 C34 1_555 1_555
H30 C34 1_555 1_555
H31 C34 1_555 1_555
C35 C30 1_555 1_555
H32 C35 1_555 1_555
H33 C35 1_555 1_555
H34 C35 1_555 1_555
C5 C10 1_555 1_555
C9 C10 1_555 1_555
C11 C12 1_555 1_555
C16 C17 1_555 1_555
C22 C23 1_555 1_555
C31 C32 1_555 1_555

#END
