
#######################################################################
#
#                 Cambridge Crystallographic Data Centre
#                                CCDC 
#
#######################################################################
#
# If this CIF has been generated from an entry in the Cambridge 
# Structural Database, then it will include bibliographic, chemical, 
# crystal, experimental, refinement or atomic coordinate data resulting 
# from the CCDC's data processing and validation procedures.
#
#######################################################################

data_JEWRUB
_chemical_formula_moiety         'C21 H25 N1 O4'
_chemical_name_systematic        
12-acetyl-3,7-dimethyl-3,4,9,10,14,14a-hexahydro-2H-2,6:5,8-dimethanocyclopenta[f]azacyclotridecine-1,11,15(6H,11aH)-trione
_symmetry_cell_setting           orthorhombic
_symmetry_space_group_name_H-M   'P 21 21 21'
_symmetry_Int_Tables_number      19
_space_group_name_Hall           'P 2ac 2ab'
loop_
_symmetry_equiv_pos_site_id
_symmetry_equiv_pos_as_xyz
1 x,y,z
2 1/2-x,-y,1/2+z
3 -x,1/2+y,1/2-z
4 1/2+x,1/2-y,-z
_cell_length_a                   9.3150(5)
_cell_length_b                   10.2289(6)
_cell_length_c                   18.8011(11)
_cell_angle_alpha                90
_cell_angle_beta                 90
_cell_angle_gamma                90
_cell_volume                     1791.41
_exptl_crystal_colour            colorless
_exptl_crystal_description       block
_cell_formula_units_Z            4
loop_
_atom_site_label
_atom_site_type_symbol
_atom_site_fract_x
_atom_site_fract_y
_atom_site_fract_z
O1 O 0.52882(13) 0.42423(13) 0.54107(6)
C1 C 0.32243(18) 0.23547(17) 0.49136(9)
H1 H 0.2271 0.1931 0.4949
H2 H 0.3815 0.2056 0.5320
N1 N 0.30564(15) 0.37752(14) 0.49438(7)
O2 O 0.89991(14) 0.66116(11) 0.25951(7)
C2 C 0.33841(16) 0.28059(16) 0.35830(8)
H3 H 0.3162 0.2177 0.3191
O3 O 0.39594(13) 0.45228(13) 0.27832(6)
C3 C 0.39515(17) 0.19546(16) 0.42106(8)
H4 H 0.5005 0.2118 0.4259
O4 O 0.81023(14) 0.58999(13) 0.42152(7)
C4 C 0.19423(17) 0.34613(17) 0.37718(8)
H5 H 0.1596 0.3971 0.3358
H6 H 0.1220 0.2779 0.3879
C5 C 0.27990(19) 0.56798(17) 0.42804(8)
C6 C 0.21024(18) 0.43724(17) 0.44178(8)
H7 H 0.1138 0.4515 0.4638
C7 C 0.40196(18) 0.57853(16) 0.46561(8)
C8 C 0.42334(17) 0.45522(16) 0.50557(8)
C9 C 0.43982(16) 0.38228(15) 0.32574(8)
C10 C 0.59534(16) 0.38888(14) 0.35012(8)
H8 H 0.5974 0.3900 0.4033
C11 C 0.68199(17) 0.26760(15) 0.32349(9)
H9 H 0.7109 0.2112 0.3638
H10 H 0.6247 0.2152 0.2895
C12 C 0.81055(17) 0.32601(16) 0.28785(8)
H11 H 0.8861 0.2755 0.2680
C13 C 0.80794(16) 0.45585(15) 0.28691(7)
C14 C 0.67560(16) 0.51212(14) 0.32205(8)
H12 H 0.6152 0.5576 0.2857
C15 C 0.70580(17) 0.60424(15) 0.38398(8)
C16 C 0.5955(2) 0.71069(16) 0.39944(10)
H13 H 0.5271 0.7156 0.3592
H14 H 0.6454 0.7959 0.4027
C17 C 0.5106(2) 0.68739(17) 0.46900(10)
H15 H 0.5797 0.6678 0.5076
H16 H 0.4602 0.7693 0.4818
C18 C 0.3736(2) 0.04990(18) 0.40658(10)
H17 H 0.2715 0.0325 0.3983
H18 H 0.4065 -0.0007 0.4477
H19 H 0.4290 0.0245 0.3645
C19 C 0.91343(17) 0.54277(15) 0.25249(8)
C20 C 1.03050(19) 0.48551(18) 0.20702(9)
H20 H 1.0050 0.4952 0.1567
H21 H 1.0419 0.3925 0.2183
H22 H 1.1208 0.5315 0.2164
C21 C 0.2123(2) 0.66475(19) 0.37912(10)
H23 H 0.2319 0.6398 0.3297
H24 H 0.2522 0.7517 0.3884
H25 H 0.1084 0.6663 0.3871
loop_
_geom_bond_atom_site_label_1
_geom_bond_atom_site_label_2
_geom_bond_site_symmetry_1
_geom_bond_site_symmetry_2
O1 C8 1_555 1_555
C1 H1 1_555 1_555
H2 C1 1_555 1_555
N1 C1 1_555 1_555
O2 C19 1_555 1_555
C2 H3 1_555 1_555
O3 C9 1_555 1_555
C3 C1 1_555 1_555
H4 C3 1_555 1_555
O4 C15 1_555 1_555
C4 C2 1_555 1_555
H5 C4 1_555 1_555
H6 C4 1_555 1_555
C5 C6 1_555 1_555
C6 N1 1_555 1_555
H7 C6 1_555 1_555
C7 C5 1_555 1_555
C8 N1 1_555 1_555
C9 C2 1_555 1_555
C10 C9 1_555 1_555
H8 C10 1_555 1_555
C11 C10 1_555 1_555
H9 C11 1_555 1_555
H10 C11 1_555 1_555
C12 C11 1_555 1_555
H11 C12 1_555 1_555
C13 C12 1_555 1_555
C14 C10 1_555 1_555
H12 C14 1_555 1_555
C15 C14 1_555 1_555
C16 C15 1_555 1_555
H13 C16 1_555 1_555
H14 C16 1_555 1_555
C17 C7 1_555 1_555
H15 C17 1_555 1_555
H16 C17 1_555 1_555
C18 C3 1_555 1_555
H17 C18 1_555 1_555
H18 C18 1_555 1_555
H19 C18 1_555 1_555
C19 C13 1_555 1_555
C20 C19 1_555 1_555
H20 C20 1_555 1_555
H21 C20 1_555 1_555
H22 C20 1_555 1_555
C21 C5 1_555 1_555
H23 C21 1_555 1_555
H24 C21 1_555 1_555
H25 C21 1_555 1_555
C2 C3 1_555 1_555
C4 C6 1_555 1_555
C7 C8 1_555 1_555
C13 C14 1_555 1_555
C16 C17 1_555 1_555

#END
