
#######################################################################
#
#                 Cambridge Crystallographic Data Centre
#                                CCDC 
#
#######################################################################
#
# If this CIF has been generated from an entry in the Cambridge 
# Structural Database, then it will include bibliographic, chemical, 
# crystal, experimental, refinement or atomic coordinate data resulting 
# from the CCDC's data processing and validation procedures.
#
#######################################################################

data_JEWXEP
_chemical_formula_moiety         'C57 H60 N16 O9,2(C1 H1 Cl3),C1 H4 O1'
_chemical_name_systematic        
'2-(3,4,5-Trimethoxyphenyl)pyrimidine-4,6-dicarboxaldehyde bis(methyl(6-(1-methyl-2-(pyridin-2-ylmethylene)hydrazino)-2-(3,4,5-trimethoxyphenyl)pyrimidin-4-yl)hydrazone) chloroform methanol solvate'
_symmetry_cell_setting           triclinic
_symmetry_space_group_name_H-M   'P -1'
_symmetry_Int_Tables_number      2
_space_group_name_Hall           '-P 1'
loop_
_symmetry_equiv_pos_site_id
_symmetry_equiv_pos_as_xyz
1 x,y,z
2 -x,-y,-z
_cell_length_a                   14.0332(3)
_cell_length_b                   15.6497(3)
_cell_length_c                   16.0239(4)
_cell_angle_alpha                87.837(5)
_cell_angle_beta                 74.861(5)
_cell_angle_gamma                75.625(5)
_cell_volume                     3289.23
_exptl_crystal_colour            yellow
_exptl_crystal_description       prism
_chemical_melting_point          'above 250deg.C(dec.)'
_cell_formula_units_Z            2
loop_
_atom_site_label
_atom_site_type_symbol
_atom_site_fract_x
_atom_site_fract_y
_atom_site_fract_z
N1 N 0.1959(3) -0.0208(3) -0.1758(3)
C1 C 0.2303(4) 0.0439(4) -0.1509(3)
C2 C 0.2315(4) 0.1214(3) -0.1953(3)
C3 C 0.1983(4) 0.1318(3) -0.2689(4)
C4 C 0.1634(3) 0.0657(3) -0.2968(3)
C5 C 0.1627(3) -0.0096(3) -0.2482(3)
C6 C 0.1279(4) -0.0834(3) -0.2716(3)
N2 N 0.1043(3) -0.0867(2) -0.3429(2)
N3 N 0.0672(3) -0.1544(2) -0.3598(2)
C7 C 0.0456(4) -0.2197(3) -0.2951(3)
C8 C 0.0549(3) -0.1599(3) -0.4424(3)
N4 N 0.0135(3) -0.2253(2) -0.4569(2)
C9 C 0.0044(3) -0.2309(3) -0.5372(3)
C10 C -0.0446(3) -0.3007(3) -0.5557(3)
C11 C -0.0866(3) -0.3511(3) -0.4883(3)
C12 C -0.1361(3) -0.4120(3) -0.5059(3)
C13 C -0.1455(3) -0.4217(3) -0.5893(3)
C14 C -0.1013(3) -0.3727(3) -0.6564(3)
C15 C -0.0505(3) -0.3123(3) -0.6390(3)
O1 O -0.1808(3) -0.4644(2) -0.4461(2)
C16 C -0.1467(4) -0.4799(3) -0.3694(3)
O2 O -0.1997(2) -0.4788(2) -0.6057(2)
C17 C -0.1374(4) -0.5671(4) -0.6267(4)
O3 O -0.1122(3) -0.3898(2) -0.7359(2)
C18 C -0.0456(5) -0.3629(4) -0.8091(4)
N5 N 0.0336(3) -0.1815(2) -0.6037(2)
C19 C 0.0746(3) -0.1172(3) -0.5868(3)
C20 C 0.0847(3) -0.1012(3) -0.5049(3)
N6 N 0.1099(3) -0.0686(2) -0.6576(2)
C21 C 0.1089(4) -0.0898(3) -0.7443(3)
N7 N 0.1500(3) -0.0025(2) -0.6412(2)
C22 C 0.1766(3) 0.0487(3) -0.7027(3)
C23 C 0.2204(3) 0.1202(3) -0.6852(3)
N8 N 0.2209(3) 0.1830(2) -0.7449(2)
C24 C 0.2619(3) 0.2484(3) -0.7327(3)
C25 C 0.2640(3) 0.3183(3) -0.7989(3)
C26 C 0.1847(4) 0.3428(3) -0.8389(3)
C27 C 0.1832(4) 0.4120(3) -0.8960(3)
C28 C 0.2630(4) 0.4539(3) -0.9158(3)
C29 C 0.3432(4) 0.4264(3) -0.8780(3)
C30 C 0.3426(4) 0.3600(3) -0.8175(3)
O4 O 0.1081(3) 0.4434(3) -0.9371(2)
C31 C 0.0290(5) 0.3990(5) -0.9233(4)
O5 O 0.2632(4) 0.5200(3) -0.9745(3)
C32 C 0.2427(6) 0.6066(4) -0.9391(6)
O6 O 0.4204(3) 0.4689(2) -0.9048(3)
C33 C 0.5090(4) 0.4378(4) -0.8736(5)
N9 N 0.3007(3) 0.2581(2) -0.6672(2)
C34 C 0.2990(3) 0.1943(3) -0.6075(3)
C35 C 0.2594(3) 0.1230(3) -0.6149(3)
C36 C 0.3412(3) 0.2083(3) -0.5355(3)
N10 N 0.3626(3) 0.1443(2) -0.4857(2)
N11 N 0.4011(3) 0.1596(2) -0.4197(2)
C37 C 0.4013(4) 0.2488(3) -0.3961(3)
C38 C 0.4317(3) 0.0870(3) -0.3712(3)
N12 N 0.4703(3) 0.1029(2) -0.3075(2)
C39 C 0.4949(3) 0.0347(3) -0.2577(3)
C40 C 0.5425(3) 0.0529(3) -0.1889(3)
C41 C 0.5858(4) -0.0157(3) -0.1421(3)
C42 C 0.6371(4) 0.0023(3) -0.0832(3)
C43 C 0.6477(3) 0.0867(3) -0.0733(3)
C44 C 0.6001(4) 0.1565(3) -0.1180(3)
C45 C 0.5478(4) 0.1390(3) -0.1755(3)
O7 O 0.6828(3) -0.0593(2) -0.0338(2)
C46 C 0.6607(5) -0.1434(4) -0.0299(3)
O8 O 0.7048(3) 0.1024(3) -0.0201(2)
C47 C 0.6452(5) 0.1427(4) 0.0612(4)
O9 O 0.6120(3) 0.2375(3) -0.1022(3)
C48 C 0.5423(6) 0.3119(4) -0.1242(5)
N13 N 0.4820(3) -0.0456(3) -0.2643(2)
C49 C 0.4440(3) -0.0602(3) -0.3299(3)
C50 C 0.4197(3) 0.0045(3) -0.3885(3)
N14 N 0.4277(3) -0.1435(2) -0.3361(2)
C51 C 0.4380(4) -0.2098(3) -0.2711(3)
N15 N 0.3929(3) -0.1575(3) -0.4053(3)
C52 C 0.3659(4) -0.2285(3) -0.4107(3)
C53 C 0.3337(4) -0.2453(3) -0.4882(3)
C54 C 0.3397(4) -0.1900(3) -0.5586(3)
C55 C 0.3144(4) -0.2141(4) -0.6295(4)
C56 C 0.2801(4) -0.2899(4) -0.6285(4)
C57 C 0.2732(5) -0.3388(4) -0.5550(4)
N16 N 0.3006(4) -0.3191(3) -0.4855(3)
H1 H 0.2550 0.0363 -0.1005
H2 H 0.2549 0.1666 -0.1750
H3 H 0.1993 0.1842 -0.3007
H4 H 0.1404 0.0717 -0.3479
H5 H 0.1226 -0.1303 -0.2327
H6 H 0.0203 -0.2619 -0.3182
H7 H 0.1063 -0.2485 -0.2796
H8 H -0.0040 -0.1912 -0.2453
H9 H -0.0812 -0.3435 -0.4314
H10 H -0.1830 -0.5170 -0.3331
H11 H -0.0759 -0.5077 -0.3841
H12 H -0.1583 -0.4253 -0.3398
H13 H -0.1777 -0.6040 -0.6375
H14 H -0.0835 -0.5666 -0.6768
H15 H -0.1099 -0.5890 -0.5796
H16 H -0.0605 -0.3783 -0.8603
H17 H -0.0546 -0.3009 -0.8058
H18 H 0.0229 -0.3917 -0.8104
H19 H -0.0199 -0.2791 -0.6844
H20 H 0.1101 -0.0535 -0.4928
H21 H 0.0779 -0.1376 -0.7429
H22 H 0.0712 -0.0398 -0.7673
H23 H 0.1768 -0.1059 -0.7797
H24 H 0.1681 0.0406 -0.7585
H25 H 0.1320 0.3124 -0.8274
H26 H -0.0184 0.4266 -0.9549
H27 H 0.0571 0.3391 -0.9423
H28 H -0.0046 0.4016 -0.8634
H29 H 0.2444 0.6477 -0.9843
H30 H 0.1772 0.6206 -0.8994
H31 H 0.2927 0.6095 -0.9099
H32 H 0.5564 0.4723 -0.8965
H33 H 0.4904 0.4427 -0.8123
H34 H 0.5393 0.3778 -0.8914
H35 H 0.3959 0.3436 -0.7893
H36 H 0.2591 0.0779 -0.5734
H37 H 0.3524 0.2642 -0.5260
H38 H 0.4310 0.2465 -0.3489
H39 H 0.4398 0.2738 -0.4442
H40 H 0.3333 0.2840 -0.3800
H41 H 0.5806 -0.0741 -0.1499
H42 H 0.6966 -0.1803 0.0061
H43 H 0.5895 -0.1367 -0.0067
H44 H 0.6810 -0.1694 -0.0864
H45 H 0.6889 0.1516 0.0946
H46 H 0.6027 0.1979 0.0522
H47 H 0.6042 0.1054 0.0911
H48 H 0.5580 0.3644 -0.1104
H49 H 0.5475 0.3093 -0.1844
H50 H 0.4749 0.3118 -0.0926
H51 H 0.5155 0.1859 -0.2057
H52 H 0.3967 -0.0070 -0.4367
H53 H 0.4630 -0.1890 -0.2281
H54 H 0.3735 -0.2211 -0.2450
H55 H 0.4844 -0.2627 -0.2975
H56 H 0.3663 -0.2699 -0.3659
H57 H 0.3607 -0.1370 -0.5573
H58 H 0.3204 -0.1789 -0.6793
H59 H 0.2618 -0.3076 -0.6770
H60 H 0.2473 -0.3896 -0.5535
O10 O 0.4174(5) 0.4100(5) 0.3740(7)
C58 C 0.4398(7) 0.4429(6) 0.4450(8)
C59 C 0.2984(6) 0.4615(6) 0.7638(5)
Cl1 Cl 0.2789(2) 0.3946(3) 0.8533(2)
Cl2 Cl 0.4278(2) 0.4297(1) 0.7068(2)
Cl3 Cl 0.2673(2) 0.5730(2) 0.7953(2)
C60 C 0.9376(5) 0.1375(4) 0.0328(4)
Cl4 Cl 0.9538(1) 0.1486(1) -0.0791(1)
Cl5 Cl 0.8752(1) 0.2408(1) 0.0863(1)
Cl6 Cl 1.0569(1) 0.0977(1) 0.0555(1)
loop_
_geom_bond_atom_site_label_1
_geom_bond_atom_site_label_2
_geom_bond_site_symmetry_1
_geom_bond_site_symmetry_2
N1 C1 1_555 1_555
C1 C2 1_555 1_555
C2 C3 1_555 1_555
C3 C4 1_555 1_555
C4 C5 1_555 1_555
C5 N1 1_555 1_555
C6 C5 1_555 1_555
N2 C6 1_555 1_555
N3 N2 1_555 1_555
C7 N3 1_555 1_555
C8 N3 1_555 1_555
N4 C8 1_555 1_555
C9 N4 1_555 1_555
C10 C9 1_555 1_555
C11 C10 1_555 1_555
C12 C11 1_555 1_555
C13 C12 1_555 1_555
C14 C13 1_555 1_555
C15 C10 1_555 1_555
O1 C12 1_555 1_555
C16 O1 1_555 1_555
O2 C13 1_555 1_555
C17 O2 1_555 1_555
O3 C14 1_555 1_555
C18 O3 1_555 1_555
N5 C9 1_555 1_555
C19 N5 1_555 1_555
C20 C8 1_555 1_555
N6 C19 1_555 1_555
C21 N6 1_555 1_555
N7 N6 1_555 1_555
C22 N7 1_555 1_555
C23 C22 1_555 1_555
N8 C23 1_555 1_555
C24 N8 1_555 1_555
C25 C24 1_555 1_555
C26 C25 1_555 1_555
C27 C26 1_555 1_555
C28 C27 1_555 1_555
C29 C28 1_555 1_555
C30 C25 1_555 1_555
O4 C27 1_555 1_555
C31 O4 1_555 1_555
O5 C28 1_555 1_555
C32 O5 1_555 1_555
O6 C29 1_555 1_555
C33 O6 1_555 1_555
N9 C24 1_555 1_555
C34 N9 1_555 1_555
C35 C23 1_555 1_555
C36 C34 1_555 1_555
N10 C36 1_555 1_555
N11 N10 1_555 1_555
C37 N11 1_555 1_555
C38 N11 1_555 1_555
N12 C38 1_555 1_555
C39 N12 1_555 1_555
C40 C39 1_555 1_555
C41 C40 1_555 1_555
C42 C41 1_555 1_555
C43 C42 1_555 1_555
C44 C43 1_555 1_555
C45 C40 1_555 1_555
O7 C42 1_555 1_555
C46 O7 1_555 1_555
O8 C43 1_555 1_555
C47 O8 1_555 1_555
O9 C44 1_555 1_555
C48 O9 1_555 1_555
N13 C39 1_555 1_555
C49 N13 1_555 1_555
C50 C38 1_555 1_555
N14 C49 1_555 1_555
C51 N14 1_555 1_555
N15 N14 1_555 1_555
C52 N15 1_555 1_555
C53 C52 1_555 1_555
C54 C53 1_555 1_555
C55 C54 1_555 1_555
C56 C55 1_555 1_555
C57 C56 1_555 1_555
N16 C53 1_555 1_555
O10 C58 1_555 1_555
C59 Cl1 1_555 1_555
Cl2 C59 1_555 1_555
Cl3 C59 1_555 1_555
C60 Cl4 1_555 1_555
Cl5 C60 1_555 1_555
Cl6 C60 1_555 1_555
H1 C1 1_555 1_555
H2 C2 1_555 1_555
H3 C3 1_555 1_555
H4 C4 1_555 1_555
H5 C6 1_555 1_555
H6 C7 1_555 1_555
H7 C7 1_555 1_555
H8 C7 1_555 1_555
H9 C11 1_555 1_555
H10 C16 1_555 1_555
H11 C16 1_555 1_555
H12 C16 1_555 1_555
H13 C17 1_555 1_555
H14 C17 1_555 1_555
H15 C17 1_555 1_555
H16 C18 1_555 1_555
H17 C18 1_555 1_555
H18 C18 1_555 1_555
H19 C15 1_555 1_555
H20 C20 1_555 1_555
H21 C21 1_555 1_555
H22 C21 1_555 1_555
H23 C21 1_555 1_555
H24 C22 1_555 1_555
H25 C26 1_555 1_555
H26 C31 1_555 1_555
H27 C31 1_555 1_555
H28 C31 1_555 1_555
H29 C32 1_555 1_555
H30 C32 1_555 1_555
H31 C32 1_555 1_555
H32 C33 1_555 1_555
H33 C33 1_555 1_555
H34 C33 1_555 1_555
H35 C30 1_555 1_555
H36 C35 1_555 1_555
H37 C36 1_555 1_555
H38 C37 1_555 1_555
H39 C37 1_555 1_555
H40 C37 1_555 1_555
H41 C41 1_555 1_555
H42 C46 1_555 1_555
H43 C46 1_555 1_555
H44 C46 1_555 1_555
H45 C47 1_555 1_555
H46 C47 1_555 1_555
H47 C47 1_555 1_555
H48 C48 1_555 1_555
H49 C48 1_555 1_555
H50 C48 1_555 1_555
H51 C45 1_555 1_555
H52 C50 1_555 1_555
H53 C51 1_555 1_555
H54 C51 1_555 1_555
H55 C51 1_555 1_555
H56 C52 1_555 1_555
H57 C54 1_555 1_555
H58 C55 1_555 1_555
H59 C56 1_555 1_555
H60 C57 1_555 1_555
C14 C15 1_555 1_555
C19 C20 1_555 1_555
C29 C30 1_555 1_555
C34 C35 1_555 1_555
C44 C45 1_555 1_555
C49 C50 1_555 1_555
C57 N16 1_555 1_555

#END
