
#######################################################################
#
#                 Cambridge Crystallographic Data Centre
#                                CCDC 
#
#######################################################################
#
# If this CIF has been generated from an entry in the Cambridge 
# Structural Database, then it will include bibliographic, chemical, 
# crystal, experimental, refinement or atomic coordinate data resulting 
# from the CCDC's data processing and validation procedures.
#
#######################################################################

data_JEWXIT
_chemical_formula_moiety         'C18 H17 N5 O1'
_chemical_name_systematic        
6-(1-Methyl-2-(pyridin-2-ylmethylene)hydrazinyl)-2-phenylpyrimidine-4-methanol
_symmetry_cell_setting           orthorhombic
_symmetry_space_group_name_H-M   'P 21 21 21'
_symmetry_Int_Tables_number      19
_space_group_name_Hall           'P 2ac 2ab'
loop_
_symmetry_equiv_pos_site_id
_symmetry_equiv_pos_as_xyz
1 x,y,z
2 1/2-x,-y,1/2+z
3 -x,1/2+y,1/2-z
4 1/2+x,1/2-y,-z
_cell_length_a                   8.3996(2)
_cell_length_b                   13.3132(3)
_cell_length_c                   14.1796(4)
_cell_angle_alpha                90
_cell_angle_beta                 90
_cell_angle_gamma                90
_cell_volume                     1585.64
_exptl_crystal_colour            colorless
_exptl_crystal_description       prism
_cell_formula_units_Z            4
_exptl_crystal_recrystallization_method chloroform
loop_
_atom_site_label
_atom_site_type_symbol
_atom_site_fract_x
_atom_site_fract_y
_atom_site_fract_z
C1 C -0.1958(2) 0.6167(1) 0.8538(1)
N1 N -0.2981(1) 0.6651(1) 0.9103(1)
C2 C -0.4344(2) 0.6193(1) 0.9323(1)
C3 C -0.4754(2) 0.5254(1) 0.8996(1)
C4 C -0.3714(2) 0.4764(1) 0.8414(1)
C5 C -0.2296(2) 0.5220(1) 0.8168(1)
C6 C -0.0469(2) 0.6703(1) 0.8357(1)
N2 N 0.0643(1) 0.6299(1) 0.78657(9)
N3 N 0.2033(1) 0.6812(1) 0.7751(1)
C7 C 0.2339(2) 0.7738(1) 0.8260(1)
C8 C 0.3144(2) 0.6388(1) 0.7142(1)
N4 N 0.4505(1) 0.68955(9) 0.70381(9)
C9 C 0.5609(2) 0.6471(1) 0.6475(1)
C10 C 0.7117(2) 0.7038(1) 0.6334(1)
C11 C 0.7351(2) 0.7988(1) 0.6728(1)
C12 C 0.8732(2) 0.8518(1) 0.6550(1)
C13 C 0.9913(2) 0.8105(1) 0.5988(1)
C14 C 0.9718(2) 0.7154(1) 0.5616(1)
C15 C 0.8329(2) 0.6621(1) 0.5782(1)
N5 N 0.5460(1) 0.5609(1) 0.6008(1)
C16 C 0.4047(2) 0.5136(1) 0.6100(1)
C17 C 0.2842(2) 0.5492(1) 0.6655(1)
C18 C 0.3907(2) 0.4203(1) 0.5513(1)
O1 O 0.2453(1) 0.36979(8) 0.56514(9)
H1 H 0.2603 0.2992 0.5669
H2 H -0.5070 0.6533 0.9726
H3 H -0.5737 0.4953 0.9171
H4 H -0.3965 0.4115 0.8180
H5 H -0.1568 0.4895 0.7756
H6 H -0.0323 0.7358 0.8607
H7 H 0.3359 0.7989 0.8093
H8 H 0.1549 0.8221 0.8102
H9 H 0.2307 0.7612 0.8919
H10 H 0.1853 0.5150 0.6707
H11 H 0.6554 0.8272 0.7122
H12 H 0.8873 0.9168 0.6813
H13 H 1.0855 0.8475 0.5860
H14 H 1.0540 0.6863 0.5245
H15 H 0.8199 0.5970 0.5519
H16 H 0.4753 0.3761 0.5675
H17 H 0.3992 0.4383 0.4867
loop_
_geom_bond_atom_site_label_1
_geom_bond_atom_site_label_2
_geom_bond_site_symmetry_1
_geom_bond_site_symmetry_2
C1 N1 1_555 1_555
N1 C2 1_555 1_555
C2 C3 1_555 1_555
C3 C4 1_555 1_555
C4 C5 1_555 1_555
C5 C1 1_555 1_555
C6 C1 1_555 1_555
N2 C6 1_555 1_555
N3 N2 1_555 1_555
C7 N3 1_555 1_555
C8 N3 1_555 1_555
N4 C8 1_555 1_555
C9 N4 1_555 1_555
C10 C9 1_555 1_555
C11 C10 1_555 1_555
C12 C11 1_555 1_555
C13 C12 1_555 1_555
C14 C13 1_555 1_555
C15 C10 1_555 1_555
N5 C9 1_555 1_555
C16 N5 1_555 1_555
C17 C8 1_555 1_555
C18 C16 1_555 1_555
O1 C18 1_555 1_555
H1 O1 1_555 1_555
H2 C2 1_555 1_555
H3 C3 1_555 1_555
H4 C4 1_555 1_555
H5 C5 1_555 1_555
H6 C6 1_555 1_555
H7 C7 1_555 1_555
H8 C7 1_555 1_555
H9 C7 1_555 1_555
H10 C17 1_555 1_555
H11 C11 1_555 1_555
H12 C12 1_555 1_555
H13 C13 1_555 1_555
H14 C14 1_555 1_555
H15 C15 1_555 1_555
H16 C18 1_555 1_555
H17 C18 1_555 1_555
C14 C15 1_555 1_555
C16 C17 1_555 1_555

#END
