
#######################################################################
#
#                 Cambridge Crystallographic Data Centre
#                                CCDC 
#
#######################################################################
#
# If this CIF has been generated from an entry in the Cambridge 
# Structural Database, then it will include bibliographic, chemical, 
# crystal, experimental, refinement or atomic coordinate data resulting 
# from the CCDC's data processing and validation procedures.
#
#######################################################################

data_JEWZAN
_chemical_formula_moiety         'C6 H21 B11 Si1'
_chemical_name_systematic        
1,2-(Dimethylsilyldimethylene)-1,2-dicarba-closo-tridecaborane
_symmetry_cell_setting           monoclinic
_symmetry_space_group_name_H-M   'P 21/c'
_symmetry_Int_Tables_number      14
_space_group_name_Hall           '-P 2ybc'
loop_
_symmetry_equiv_pos_site_id
_symmetry_equiv_pos_as_xyz
1 x,y,z
2 -x,1/2+y,1/2-z
3 -x,-y,-z
4 x,1/2-y,1/2+z
_cell_length_a                   10.330(7)
_cell_length_b                   10.249(7)
_cell_length_c                   14.120(8)
_cell_angle_alpha                90
_cell_angle_beta                 95.595(14)
_cell_angle_gamma                90
_cell_volume                     1487.79
_exptl_crystal_colour            colorless
_exptl_crystal_description       block
_cell_formula_units_Z            4
_exptl_crystal_recrystallization_method hexane/dichloromethane
loop_
_atom_site_label
_atom_site_type_symbol
_atom_site_fract_x
_atom_site_fract_y
_atom_site_fract_z
Si1 Si 0.25249(7) 0.36875(7) 0.19854(6)
C1 C 0.1704(2) 0.6018(2) 0.12847(18)
C2 C 0.3019(2) 0.6226(2) 0.16937(17)
B1 B 0.1878(3) 0.7656(3) 0.1839(2)
H1 H 0.1361 0.7558 0.2481
B2 B 0.0804(3) 0.7038(3) 0.0697(2)
H2 H -0.0223 0.6741 0.0632
B3 B 0.2087(3) 0.6309(3) 0.0070(2)
H3 H 0.2009 0.5410 -0.0357
B4 B 0.3843(3) 0.6666(3) 0.0678(2)
H4 H 0.4610 0.5968 0.0538
B5 B 0.3764(3) 0.7605(3) 0.1750(2)
H5 H 0.4531 0.7650 0.2347
B6 B 0.1259(4) 0.8722(3) 0.0842(2)
H6 H 0.0479 0.9427 0.0938
B7 B 0.1403(3) 0.7897(3) -0.0232(2)
H7 H 0.0741 0.8066 -0.0878
B8 B 0.3094(3) 0.7573(3) -0.0266(2)
H8 H 0.3498 0.7456 -0.0954
B9 B 0.3993(4) 0.8401(3) 0.0695(2)
H9 H 0.4928 0.8891 0.0629
B10 B 0.2813(4) 0.9007(3) 0.1407(2)
H10 H 0.2971 0.9883 0.1852
B11 B 0.2539(3) 0.9099(3) 0.0153(2)
H11 H 0.2577 1.0018 -0.0245
C3 C 0.3531(3) 0.5168(3) 0.23699(19)
H12 H 0.3417 0.5401 0.3022
H13 H 0.4447 0.5009 0.2317
C4 C 0.1099(2) 0.4790(3) 0.1623(2)
H14 H 0.0525 0.4397 0.1117
H15 H 0.0607 0.4968 0.2160
C5 C 0.3088(3) 0.2830(3) 0.0951(2)
H16 H 0.2531 0.2098 0.0789
H17 H 0.3963 0.2531 0.1107
H18 H 0.3062 0.3417 0.0420
C6 C 0.2246(3) 0.2567(3) 0.2968(2)
H19 H 0.1729 0.1842 0.2723
H20 H 0.1798 0.3021 0.3433
H21 H 0.3066 0.2255 0.3259
loop_
_geom_bond_atom_site_label_1
_geom_bond_atom_site_label_2
_geom_bond_site_symmetry_1
_geom_bond_site_symmetry_2
Si1 C3 1_555 1_555
C1 C2 1_555 1_555
C2 B1 1_555 1_555
B1 C1 1_555 1_555
H1 B1 1_555 1_555
B2 C1 1_555 1_555
H2 B2 1_555 1_555
B3 C1 1_555 1_555
H3 B3 1_555 1_555
B4 C2 1_555 1_555
H4 B4 1_555 1_555
B5 C2 1_555 1_555
H5 B5 1_555 1_555
B6 B1 1_555 1_555
H6 B6 1_555 1_555
B7 B2 1_555 1_555
H7 B7 1_555 1_555
B8 B3 1_555 1_555
H8 B8 1_555 1_555
B9 B4 1_555 1_555
H9 B9 1_555 1_555
B10 B1 1_555 1_555
H10 B10 1_555 1_555
B11 B6 1_555 1_555
H11 B11 1_555 1_555
C3 C2 1_555 1_555
H12 C3 1_555 1_555
H13 C3 1_555 1_555
C4 Si1 1_555 1_555
H14 C4 1_555 1_555
H15 C4 1_555 1_555
C5 Si1 1_555 1_555
H16 C5 1_555 1_555
H17 C5 1_555 1_555
H18 C5 1_555 1_555
C6 Si1 1_555 1_555
H19 C6 1_555 1_555
H20 C6 1_555 1_555
H21 C6 1_555 1_555
C1 C4 1_555 1_555
B1 B2 1_555 1_555
B1 B5 1_555 1_555
B2 B3 1_555 1_555
B2 B6 1_555 1_555
B3 B4 1_555 1_555
B3 B7 1_555 1_555
B4 B5 1_555 1_555
B4 B8 1_555 1_555
B5 B9 1_555 1_555
B5 B10 1_555 1_555
B6 B7 1_555 1_555
B6 B10 1_555 1_555
B7 B8 1_555 1_555
B7 B11 1_555 1_555
B8 B9 1_555 1_555
B8 B11 1_555 1_555
B9 B10 1_555 1_555
B9 B11 1_555 1_555
B10 B11 1_555 1_555

#END
