
#######################################################################
#
#                 Cambridge Crystallographic Data Centre
#                                CCDC 
#
#######################################################################
#
# If this CIF has been generated from an entry in the Cambridge 
# Structural Database, then it will include bibliographic, chemical, 
# crystal, experimental, refinement or atomic coordinate data resulting 
# from the CCDC's data processing and validation procedures.
#
#######################################################################

data_JEXBEW
_chemical_formula_moiety         'C23 H24 N2 O5'
_chemical_name_systematic        
'(2S*,3R*)-4-(benzoyloxy)-2-cyano-2-ethyl-3-methylpent-4-en-1-yl 4-nitrobenzoate'
_symmetry_cell_setting           monoclinic
_symmetry_space_group_name_H-M   'P 21/c'
_symmetry_Int_Tables_number      14
_space_group_name_Hall           '-P 2ybc'
loop_
_symmetry_equiv_pos_site_id
_symmetry_equiv_pos_as_xyz
1 x,y,z
2 -x,1/2+y,1/2-z
3 -x,-y,-z
4 x,1/2-y,1/2+z
_cell_length_a                   23.4903(10)
_cell_length_b                   6.4729(3)
_cell_length_c                   14.3144(7)
_cell_angle_alpha                90
_cell_angle_beta                 103.237(3)
_cell_angle_gamma                90
_cell_volume                     2118.68
_exptl_crystal_colour            colorless
_exptl_crystal_description       needles
_chemical_melting_point          '351.5-353 K'
_cell_formula_units_Z            4
loop_
_atom_site_label
_atom_site_type_symbol
_atom_site_fract_x
_atom_site_fract_y
_atom_site_fract_z
C1 C 0.11593(11) 0.3094(4) -0.02934(19)
C2 C 0.14710(11) 0.3526(4) 0.07848(19)
H1 H 0.1830 0.4287 0.0774
C3 C 0.10549(13) 0.5135(6) -0.0766(2)
C4 C 0.11093(14) 0.4926(5) 0.1287(2)
H2 H 0.0759 0.4218 0.1341
H3 H 0.1008 0.6167 0.0919
H4 H 0.1334 0.5273 0.1916
C5 C 0.13541(13) 0.0544(5) 0.1850(2)
H5 H 0.1505 -0.0653 0.2172
H6 H 0.0988 0.1027 0.1894
C6 C 0.05690(12) 0.1984(5) -0.0407(2)
H7 H 0.0640 0.0627 -0.0116
H8 H 0.0333 0.2750 -0.0051
C7 C 0.30550(13) -0.1110(6) 0.1545(2)
C8 C 0.16587(13) 0.1558(5) 0.1329(2)
C9 C 0.24368(13) -0.0912(5) 0.1618(2)
H9 H 0.2210 -0.2049 0.1282
H10 H 0.2417 -0.0978 0.2287
C10 C 0.02197(13) 0.1723(5) -0.1431(2)
H11 H 0.0192 0.3029 -0.1756
H12 H -0.0166 0.1234 -0.1427
H13 H 0.0412 0.0742 -0.1757
C11 C 0.33752(15) 0.0508(6) 0.1302(2)
H14 H 0.3196 0.1781 0.1144
C12 C 0.33306(18) -0.2987(6) 0.1772(2)
H15 H 0.3121 -0.4105 0.1928
C13 C 0.3916(2) -0.3220(7) 0.1769(3)
H16 H 0.4098 -0.4490 0.1924
C14 C 0.39553(17) 0.0271(7) 0.1291(2)
H17 H 0.4163 0.1370 0.1115
C15 C 0.42264(17) -0.1593(9) 0.1540(3)
H18 H 0.4622 -0.1746 0.1553
C16 C 0.40203(12) 0.5462(6) -0.09543(19)
C17 C 0.30203(12) 0.3235(5) -0.10404(18)
C18 C 0.30518(13) 0.5284(5) -0.07561(19)
H19 H 0.2732 0.5903 -0.0589
C19 C 0.40049(14) 0.3431(6) -0.1224(2)
H20 H 0.4331 0.2810 -0.1371
C20 C 0.24881(13) 0.1956(6) -0.1109(2)
C21 C 0.35005(14) 0.2327(5) -0.1272(2)
H21 H 0.3482 0.0951 -0.1463
C22 C 0.35538(14) 0.6411(5) -0.0718(2)
H22 H 0.3574 0.7793 -0.0536
O1 O 0.21968(9) 0.0995(3) 0.12141(14)
C23 C 0.15457(11) 0.1824(4) -0.08020(19)
H23 H 0.1631 0.0494 -0.0490
H24 H 0.1345 0.1590 -0.1465
O2 O 0.20797(8) 0.2943(3) -0.07622(12)
O3 O 0.49824(10) 0.5775(4) -0.10658(18)
O4 O 0.24224(9) 0.0242(4) -0.14347(19)
O5 O 0.45383(10) 0.8529(5) -0.07994(18)
N1 N 0.45515(12) 0.6674(6) -0.09318(17)
N2 N 0.09650(13) 0.6724(5) -0.1119(2)
loop_
_geom_bond_atom_site_label_1
_geom_bond_atom_site_label_2
_geom_bond_site_symmetry_1
_geom_bond_site_symmetry_2
C1 C2 1_555 1_555
C2 H1 1_555 1_555
C3 C1 1_555 1_555
C4 C2 1_555 1_555
H2 C4 1_555 1_555
H3 C4 1_555 1_555
H4 C4 1_555 1_555
C5 H5 1_555 1_555
H6 C5 1_555 1_555
C6 C1 1_555 1_555
H7 C6 1_555 1_555
H8 C6 1_555 1_555
C7 C9 1_555 1_555
C8 C2 1_555 1_555
C9 H9 1_555 1_555
H10 C9 1_555 1_555
C10 C6 1_555 1_555
H11 C10 1_555 1_555
H12 C10 1_555 1_555
H13 C10 1_555 1_555
C11 C7 1_555 1_555
H14 C11 1_555 1_555
C12 C7 1_555 1_555
H15 C12 1_555 1_555
C13 C12 1_555 1_555
H16 C13 1_555 1_555
C14 C11 1_555 1_555
H17 C14 1_555 1_555
C15 C13 1_555 1_555
H18 C15 1_555 1_555
C16 C19 1_555 1_555
C17 C18 1_555 1_555
C18 H19 1_555 1_555
C19 H20 1_555 1_555
C20 C17 1_555 1_555
C21 C17 1_555 1_555
H21 C21 1_555 1_555
C22 C16 1_555 1_555
H22 C22 1_555 1_555
O1 C8 1_555 1_555
C23 C1 1_555 1_555
H23 C23 1_555 1_555
H24 C23 1_555 1_555
O2 C20 1_555 1_555
O3 N1 1_555 1_555
O4 C20 1_555 1_555
O5 N1 1_555 1_555
N1 C16 1_555 1_555
N2 C3 1_555 1_555
C5 C8 1_555 1_555
C9 O1 1_555 1_555
C14 C15 1_555 1_555
C18 C22 1_555 1_555
C19 C21 1_555 1_555
C23 O2 1_555 1_555

#END
