
#######################################################################
#
#                 Cambridge Crystallographic Data Centre
#                                CCDC 
#
#######################################################################
#
# If this CIF has been generated from an entry in the Cambridge 
# Structural Database, then it will include bibliographic, chemical, 
# crystal, experimental, refinement or atomic coordinate data resulting 
# from the CCDC's data processing and validation procedures.
#
#######################################################################

data_JEXCIB
_chemical_formula_moiety         'C20 H16 O2'
_chemical_name_systematic        7,8-dihydro-6H-chromeno[3,2-d]xanthene
_symmetry_cell_setting           orthorhombic
_symmetry_space_group_name_H-M   'P b c n'
_symmetry_Int_Tables_number      60
_space_group_name_Hall           '-P 2n 2ab'
loop_
_symmetry_equiv_pos_site_id
_symmetry_equiv_pos_as_xyz
1 x,y,z
2 1/2-x,1/2-y,1/2+z
3 -x,y,1/2-z
4 1/2+x,1/2-y,-z
5 -x,-y,-z
6 1/2+x,1/2+y,1/2-z
7 x,-y,1/2+z
8 1/2-x,1/2+y,z
_cell_length_a                   6.4253(2)
_cell_length_b                   14.1914(5)
_cell_length_c                   15.3752(5)
_cell_angle_alpha                90
_cell_angle_beta                 90
_cell_angle_gamma                90
_cell_volume                     1401.97
_exptl_crystal_colour            colorless
_cell_formula_units_Z            4
loop_
_atom_site_label
_atom_site_type_symbol
_atom_site_fract_x
_atom_site_fract_y
_atom_site_fract_z
O1 O 0.06364(14) 0.24781(6) 0.17950(6)
C1 C -0.0938(2) 0.29048(9) 0.13272(8)
C2 C -0.0497(2) 0.37468(10) 0.09109(9)
H1 H 0.0825 0.4037 0.0979
C3 C -0.2009(2) 0.41601(10) 0.03932(9)
H2 H -0.1723 0.4741 0.0111
C4 C -0.3936(2) 0.37360(10) 0.02819(9)
H3 H -0.4954 0.4020 -0.0081
C5 C -0.4367(2) 0.28966(10) 0.07030(9)
H4 H -0.5690 0.2608 0.0631
C6 C -0.2877(2) 0.24707(9) 0.12329(8)
C7 C -0.3193(2) 0.15743(9) 0.16706(8)
H5 H -0.4371 0.1200 0.1530
C8 C -0.1844(2) 0.12726(9) 0.22677(8)
C9 C 0.0000 0.18793(13) 0.2500
C10 C -0.1904(2) 0.03470(10) 0.27331(9)
H6 H -0.3193 0.0006 0.2574
H7 H -0.1929 0.0458 0.3369
C11 C 0.0000 -0.02625(14) 0.2500
H8 H 0.0350 -0.0673 0.3000
H8B H -0.0350 -0.0673 0.2000
O1B O -0.06364(14) 0.24781(6) 0.32050(6)
C1B C 0.0938(2) 0.29048(9) 0.36728(8)
C2B C 0.0497(2) 0.37468(10) 0.40891(9)
H1B H -0.0825 0.4037 0.4021
C3B C 0.2009(2) 0.41601(10) 0.46068(9)
H2B H 0.1723 0.4741 0.4889
C4B C 0.3936(2) 0.37360(10) 0.47181(9)
H3B H 0.4954 0.4020 0.5081
C5B C 0.4367(2) 0.28966(10) 0.42970(9)
H4B H 0.5690 0.2608 0.4369
C6B C 0.2877(2) 0.24707(9) 0.37671(8)
C7B C 0.3193(2) 0.15743(9) 0.33294(8)
H5B H 0.4371 0.1200 0.3470
C8B C 0.1844(2) 0.12726(9) 0.27323(8)
C10B C 0.1904(2) 0.03470(10) 0.22669(9)
H6B H 0.3193 0.0006 0.2426
H7B H 0.1929 0.0458 0.1631
H9? H 0.0350 -0.0673 0.3000
loop_
_geom_bond_atom_site_label_1
_geom_bond_atom_site_label_2
_geom_bond_site_symmetry_1
_geom_bond_site_symmetry_2
O1 C1 1_555 1_555
C1 C2 1_555 1_555
C2 H1 1_555 1_555
C3 C2 1_555 1_555
H2 C3 1_555 1_555
C4 C3 1_555 1_555
H3 C4 1_555 1_555
C5 C4 1_555 1_555
H4 C5 1_555 1_555
C6 C1 1_555 1_555
C7 C6 1_555 1_555
H5 C7 1_555 1_555
C8 C7 1_555 1_555
C9 O1 1_555 1_555
C10 C8 1_555 1_555
H6 C10 1_555 1_555
H7 C10 1_555 1_555
C11 C10 1_555 1_555
H8 C11 1_555 1_555
H8B C11 1_555 1_555
O1B C9 1_555 1_555
C1B O1B 1_555 1_555
C2B C1B 1_555 1_555
H1B C2B 1_555 1_555
C3B C2B 1_555 1_555
H2B C3B 1_555 1_555
C4B C3B 1_555 1_555
H3B C4B 1_555 1_555
C5B C4B 1_555 1_555
H4B C5B 1_555 1_555
C6B C1B 1_555 1_555
C7B C6B 1_555 1_555
H5B C7B 1_555 1_555
C8B C9 1_555 1_555
C10B C11 1_555 1_555
H6B C10B 1_555 1_555
H7B C10B 1_555 1_555
C5 C6 1_555 1_555
C8 C9 1_555 1_555
C5B C6B 1_555 1_555
C7B C8B 1_555 1_555
C8B C10B 1_555 1_555

#END
