
#######################################################################
#
#                 Cambridge Crystallographic Data Centre
#                                CCDC 
#
#######################################################################
#
# If this CIF has been generated from an entry in the Cambridge 
# Structural Database, then it will include bibliographic, chemical, 
# crystal, experimental, refinement or atomic coordinate data resulting 
# from the CCDC's data processing and validation procedures.
#
#######################################################################

data_JEXHOJ10
_chemical_formula_moiety         'C32 H34 B1 P1'
_chemical_name_systematic        (E)-(Diphenylphosphinovinyl)dimesitylborane
_symmetry_cell_setting           orthorhombic
_symmetry_space_group_name_H-M   'P 21 21 21'
_symmetry_Int_Tables_number      19
_space_group_name_Hall           'P 2ac 2ab'
loop_
_symmetry_equiv_pos_site_id
_symmetry_equiv_pos_as_xyz
1 x,y,z
2 1/2+x,1/2-y,-z
3 -x,1/2+y,1/2-z
4 1/2-x,-y,1/2+z
_cell_length_a                   9.733(2)
_cell_length_b                   9.818(4)
_cell_length_c                   27.820(7)
_cell_angle_alpha                90
_cell_angle_beta                 90
_cell_angle_gamma                90
_cell_volume                     2658.44
_exptl_crystal_colour            colorless
_chemical_melting_point          '107.0-109.5 deg.C'
_cell_formula_units_Z            4
loop_
_atom_site_label
_atom_site_type_symbol
_atom_site_fract_x
_atom_site_fract_y
_atom_site_fract_z
P1 P 0.42510(9) 0.91752(9) 0.13988(9)
C1 C 0.6127(3) 0.7130(3) 0.1083(1)
C2 C 0.4887(3) 0.7731(3) 0.1061(1)
C3 C 0.7730(3) 0.4921(3) 0.0897(1)
C4 C 0.8709(4) 0.4483(3) 0.0546(1)
C5 C 0.9795(4) 0.3656(4) 0.0680(1)
C6 C 0.9945(4) 0.3147(4) 0.1144(1)
C7 C 0.8980(4) 0.3557(4) 0.1482(1)
C8 C 0.7905(3) 0.4433(3) 0.1372(1)
C9 C 0.8593(4) 0.4885(4) 0.0028(1)
C10 C 1.1060(5) 0.2154(5) 0.1268(2)
C11 C 0.6934(4) 0.4786(5) 0.1777(1)
C12 C 0.5506(3) 0.5553(3) 0.0322(1)
C13 C 0.4653(4) 0.4409(4) 0.0347(1)
C14 C 0.3748(4) 0.4113(4) -0.0024(1)
C15 C 0.3680(4) 0.4915(4) -0.0434(1)
C16 C 0.4505(4) 0.6048(4) -0.0462(1)
C17 C 0.5411(3) 0.6401(4) -0.0088(1)
C18 C 0.4667(5) 0.3484(4) 0.0787(2)
C19 C 0.2704(5) 0.4563(5) -0.0842(2)
C20 C 0.6296(4) 0.7637(4) -0.0144(1)
C21 C 0.2619(3) 0.8503(3) 0.1636(1)
C22 C 0.1980(4) 0.7322(4) 0.1478(1)
C23 C 0.0678(4) 0.6970(4) 0.1634(1)
C24 C 0.0003(4) 0.7797(5) 0.1965(1)
C25 C 0.0632(4) 0.8954(5) 0.2134(1)
C26 C 0.1918(4) 0.9319(4) 0.1967(1)
C27 C 0.5359(3) 0.9203(3) 0.1934(1)
C28 C 0.6194(3) 1.0338(3) 0.2009(1)
C29 C 0.7048(4) 1.0415(4) 0.2406(1)
C30 C 0.7083(4) 0.9362(4) 0.2732(1)
C31 C 0.6263(4) 0.8217(4) 0.2664(1)
C32 C 0.5401(3) 0.8140(4) 0.2266(1)
B1 B 0.6496(4) 0.5877(4) 0.0762(1)
H1 H 0.6941 0.7367 0.1306
H2 H 0.4236 0.7383 0.0837
H3 H 1.0422 0.3332 0.0495
H4 H 0.9044 0.3214 0.1763
H5 H 0.8313 0.5629 -0.0061
H6 H 0.7846 0.4361 -0.0166
H7 H 0.9377 0.4757 -0.0139
H8 H 1.1794 0.1939 0.1058
H9 H 1.0823 0.1374 0.1231
H10 H 1.1528 0.2343 0.1529
H11 H 0.6123 0.5159 0.1694
H12 H 0.7292 0.5650 0.2014
H13 H 0.6759 0.4024 0.1941
H14 H 0.3205 0.3348 -0.0002
H15 H 0.4533 0.6751 -0.0749
H16 H 0.5163 0.3669 0.1012
H17 H 0.4291 0.2666 0.0721
H18 H 0.3810 0.3454 0.0982
H19 H 0.2636 0.3578 -0.0891
H20 H 0.2962 0.4781 -0.1097
H21 H 0.1898 0.4856 -0.0727
H22 H 0.6635 0.8148 0.0132
H23 H 0.5851 0.8429 -0.0266
H24 H 0.7053 0.7454 -0.0288
H25 H 0.2431 0.6598 0.1238
H26 H 0.0272 0.6114 0.1552
H27 H -0.0813 0.7520 0.2058
H28 H 0.0146 0.9474 0.2373
H29 H 0.2364 1.0174 0.2092
H30 H 0.6170 1.1129 0.1783
H31 H 0.7583 1.1209 0.2450
H32 H 0.7754 0.9323 0.2995
H33 H 0.6262 0.7478 0.2874
H34 H 0.4911 0.7324 0.2192
loop_
_geom_bond_atom_site_label_1
_geom_bond_atom_site_label_2
_geom_bond_site_symmetry_1
_geom_bond_site_symmetry_2
P1 C2 1_555 1_555
C1 C2 1_555 1_555
C2 H2 1_555 1_555
C3 C4 1_555 1_555
C4 C5 1_555 1_555
C5 C6 1_555 1_555
C6 C7 1_555 1_555
C7 C8 1_555 1_555
C8 C3 1_555 1_555
C9 C4 1_555 1_555
C10 C6 1_555 1_555
C11 C8 1_555 1_555
C12 C13 1_555 1_555
C13 C14 1_555 1_555
C14 C15 1_555 1_555
C15 C16 1_555 1_555
C16 C17 1_555 1_555
C17 C12 1_555 1_555
C18 C13 1_555 1_555
C19 C15 1_555 1_555
C20 C17 1_555 1_555
C21 P1 1_555 1_555
C22 C21 1_555 1_555
C23 C22 1_555 1_555
C24 C23 1_555 1_555
C25 C24 1_555 1_555
C26 C21 1_555 1_555
C27 P1 1_555 1_555
C28 C27 1_555 1_555
C29 C28 1_555 1_555
C30 C29 1_555 1_555
C31 C30 1_555 1_555
C32 C27 1_555 1_555
B1 C1 1_555 1_555
H1 C1 1_555 1_555
H3 C5 1_555 1_555
H4 C7 1_555 1_555
H5 C9 1_555 1_555
H6 C9 1_555 1_555
H7 C9 1_555 1_555
H8 C10 1_555 1_555
H9 C10 1_555 1_555
H10 C10 1_555 1_555
H11 C11 1_555 1_555
H12 C11 1_555 1_555
H13 C11 1_555 1_555
H14 C14 1_555 1_555
H15 C16 1_555 1_555
H16 C18 1_555 1_555
H17 C18 1_555 1_555
H18 C18 1_555 1_555
H19 C19 1_555 1_555
H20 C19 1_555 1_555
H21 C19 1_555 1_555
H22 C20 1_555 1_555
H23 C20 1_555 1_555
H24 C20 1_555 1_555
H25 C22 1_555 1_555
H26 C23 1_555 1_555
H27 C24 1_555 1_555
H28 C25 1_555 1_555
H29 C26 1_555 1_555
H30 C28 1_555 1_555
H31 C29 1_555 1_555
H32 C30 1_555 1_555
H33 C31 1_555 1_555
H34 C32 1_555 1_555
C3 B1 1_555 1_555
C12 B1 1_555 1_555
C25 C26 1_555 1_555
C31 C32 1_555 1_555

#END
