
#######################################################################
#
#                 Cambridge Crystallographic Data Centre
#                                CCDC 
#
#######################################################################
#
# If this CIF has been generated from an entry in the Cambridge 
# Structural Database, then it will include bibliographic, chemical, 
# crystal, experimental, refinement or atomic coordinate data resulting 
# from the CCDC's data processing and validation procedures.
#
#######################################################################

data_JEXHAV
_chemical_formula_moiety         'C26 H29 B1'
_chemical_name_systematic        E-Dimesityl(styryl)borane
_symmetry_cell_setting           monoclinic
_symmetry_space_group_name_H-M   'P 21/n'
_symmetry_Int_Tables_number      14
_space_group_name_Hall           '-P 2yn'
loop_
_symmetry_equiv_pos_site_id
_symmetry_equiv_pos_as_xyz
1 x,y,z
2 1/2-x,1/2+y,1/2-z
3 -x,-y,-z
4 1/2+x,1/2-y,1/2+z
_cell_length_a                   9.851(2)
_cell_length_b                   11.679(4)
_cell_length_c                   19.009(4)
_cell_angle_alpha                90
_cell_angle_beta                 104.18(2)
_cell_angle_gamma                90
_cell_volume                     2120.35
_cell_formula_units_Z            4
loop_
_atom_site_label
_atom_site_type_symbol
_atom_site_fract_x
_atom_site_fract_y
_atom_site_fract_z
C1 C 0.0473(2) 0.3544(2) 0.7909(1)
C2 C 0.0044(2) 0.3938(2) 0.8479(1)
C3 C 0.0036(2) 0.3312(2) 0.9152(1)
C4 C 0.0753(3) 0.2284(2) 0.9342(1)
C5 C 0.0693(3) 0.1701(3) 0.9974(1)
C6 C -0.0085(6) 0.2137(3) 1.0420(2)
C7 C -0.0791(4) 0.3151(3) 1.0251(2)
C8 C -0.0738(3) 0.3752(3) 0.9618(1)
C9 C 0.0078(2) 0.3477(2) 0.6456(1)
C10 C 0.0816(2) 0.3774(2) 0.5931(1)
C11 C 0.0667(2) 0.3111(2) 0.5308(1)
C12 C -0.0230(2) 0.2174(2) 0.5163(1)
C13 C -0.0981(2) 0.1902(2) 0.5668(1)
C14 C -0.0834(2) 0.2522(2) 0.6312(1)
C15 C 0.1788(3) 0.4794(2) 0.6020(1)
C16 C -0.0416(4) 0.1495(3) 0.4468(2)
C17 C -0.1744(3) 0.2162(2) 0.6809(1)
C18 C 0.0064(2) 0.5539(2) 0.7187(1)
C19 C -0.1184(7) 0.6062(2) 0.6776(1)
C20 C -0.1387(2) 0.7232(2) 0.6841(1)
C21 C -0.0387(2) 0.7934(2) 0.7281(1)
C22 C 0.0852(2) 0.7431(2) 0.7660(1)
C23 C 0.1091(2) 0.6256(2) 0.7624(1)
C24 C -0.2321(2) 0.5384(2) 0.6274(1)
C25 C -0.0644(3) 0.9197(2) 0.7318(2)
C26 C 0.2496(3) 0.5799(2) 0.8040(2)
B1 B 0.0233(2) 0.4197(2) 0.7177(1)
H1 H 0.087(3) 0.276(2) 0.794(1)
H2 H -0.038(2) 0.471(2) 0.843(1)
H3 H 0.134(3) 0.191(3) 0.903(2)
H4 H 0.125(4) 0.097(4) 1.020(2)
H5 H -0.015(3) 0.173(3) 1.083(2)
H6 H -0.128(4) 0.354(3) 1.050(2)
H7 H -0.122(3) 0.448(3) 0.947(2)
H8 H 0.127(3) 0.333(2) 0.500(1)
H9 H -0.166(2) 0.126(2) 0.557(1)
H10 H 0.228(3) 0.497(3) 0.652(2)
H11 H 0.134(3) 0.549(3) 0.592(2)
H12 H 0.234(3) 0.476(3) 0.570(2)
H13 H 0.041(5) 0.107(4) 0.444(2)
H14 H -0.112(6) 0.091(5) 0.442(3)
H15 H -0.058(4) 0.190(4) 0.396(2)
H16 H -0.239(3) 0.158(2) 0.661(1)
H17 H -0.222(3) 0.277(3) 0.704(2)
H18 H -0.127(3) 0.176(3) 0.720(2)
H19 H -0.223(2) 0.757(2) 0.654(1)
H20 H 0.158(3) 0.788(2) 0.792(1)
H21 H -0.263(3) 0.474(3) 0.648(2)
H22 H -0.202(3) 0.501(3) 0.583(2)
H23 H -0.306(3) 0.584(3) 0.606(2)
H24 H -0.159(3) 0.943(2) 0.727(2)
H25 H 0.010(3) 0.951(3) 0.776(2)
H26 H -0.039(4) 0.969(3) 0.694(2)
H27 H 0.267(3) 0.503(3) 0.802(2)
H28 H 0.283(5) 0.614(4) 0.841(3)
H29 H 0.328(6) 0.612(4) 0.786(3)
loop_
_geom_bond_atom_site_label_1
_geom_bond_atom_site_label_2
_geom_bond_site_symmetry_1
_geom_bond_site_symmetry_2
C1 C2 1_555 1_555
C2 C3 1_555 1_555
C3 C4 1_555 1_555
C4 C5 1_555 1_555
C5 C6 1_555 1_555
C6 C7 1_555 1_555
C7 C8 1_555 1_555
C8 C3 1_555 1_555
C9 C10 1_555 1_555
C10 C11 1_555 1_555
C11 C12 1_555 1_555
C12 C13 1_555 1_555
C13 C14 1_555 1_555
C14 C9 1_555 1_555
C15 C10 1_555 1_555
C16 C12 1_555 1_555
C17 C14 1_555 1_555
C18 C19 1_555 1_555
C19 C20 1_555 1_555
C20 C21 1_555 1_555
C21 C22 1_555 1_555
C22 C23 1_555 1_555
C23 C18 1_555 1_555
C24 C19 1_555 1_555
C25 C21 1_555 1_555
C26 C23 1_555 1_555
B1 C1 1_555 1_555
H1 C1 1_555 1_555
H2 C2 1_555 1_555
H3 C4 1_555 1_555
H4 C5 1_555 1_555
H5 C6 1_555 1_555
H6 C7 1_555 1_555
H7 C8 1_555 1_555
H8 C11 1_555 1_555
H9 C13 1_555 1_555
H10 C15 1_555 1_555
H11 C15 1_555 1_555
H12 C15 1_555 1_555
H13 C16 1_555 1_555
H14 C16 1_555 1_555
H15 C16 1_555 1_555
H16 C17 1_555 1_555
H17 C17 1_555 1_555
H18 C17 1_555 1_555
H19 C20 1_555 1_555
H20 C22 1_555 1_555
H21 C24 1_555 1_555
H22 C24 1_555 1_555
H23 C24 1_555 1_555
H24 C25 1_555 1_555
H25 C25 1_555 1_555
H26 C25 1_555 1_555
H27 C26 1_555 1_555
H28 C26 1_555 1_555
H29 C26 1_555 1_555
C9 B1 1_555 1_555
C18 B1 1_555 1_555

#END
