
#######################################################################
#
#                 Cambridge Crystallographic Data Centre
#                                CCDC 
#
#######################################################################
#
# If this CIF has been generated from an entry in the Cambridge 
# Structural Database, then it will include bibliographic, chemical, 
# crystal, experimental, refinement or atomic coordinate data resulting 
# from the CCDC's data processing and validation procedures.
#
#######################################################################

data_JEXRIN
_chemical_formula_moiety         'C15 H20 O11'
_chemical_name_systematic        
'Methyl 1,2,3,4-tetra-O-acetyl-\a-L-idopyranuronate'
_symmetry_cell_setting           monoclinic
_symmetry_space_group_name_H-M   'P 21'
_symmetry_Int_Tables_number      4
_space_group_name_Hall           'P 2yb'
loop_
_symmetry_equiv_pos_site_id
_symmetry_equiv_pos_as_xyz
1 x,y,z
2 -x,1/2+y,-z
_cell_length_a                   8.389(4)
_cell_length_b                   21.572(9)
_cell_length_c                   11.135(4)
_cell_angle_alpha                90
_cell_angle_beta                 112.51(5)
_cell_angle_gamma                90
_cell_volume                     1861.55
_exptl_crystal_colour            colorless
_cell_formula_units_Z            4
loop_
_atom_site_label
_atom_site_type_symbol
_atom_site_fract_x
_atom_site_fract_y
_atom_site_fract_z
C1 C 0.8215(9) 0.3002(3) 0.6151(7)
C2 C 0.7815(9) 0.3615(4) 0.6645(7)
C3 C 0.6456(9) 0.3565(3) 0.7207(7)
C4 C 0.6642(8) 0.2987(4) 0.8045(7)
C5 C 0.6962(8) 0.2424(3) 0.7379(6)
O1 O 0.8431(5) 0.2516(2) 0.7041(4)
O2 O 0.6774(6) 0.2875(2) 0.4946(5)
C6 C 0.7101(10) 0.2587(4) 0.3992(8)
O3 O 0.8526(9) 0.2421(3) 0.4103(6)
C7 C 0.5516(12) 0.2512(4) 0.2813(9)
O4 O 0.9433(6) 0.3801(3) 0.7616(5)
C8 C 0.9825(12) 0.4412(5) 0.7765(9)
O5 O 0.8811(12) 0.4780(3) 0.7106(8)
C9 C 1.1416(15) 0.4528(5) 0.8840(12)
O6 O 0.4817(6) 0.3523(3) 0.6145(5)
C10 C 0.3451(11) 0.3809(4) 0.6205(9)
O7 O 0.3621(10) 0.4155(4) 0.7119(10)
C11 C 0.1868(11) 0.3691(6) 0.5112(11)
O8 O 0.8083(6) 0.3072(3) 0.9268(5)
C12 C 0.7834(15) 0.3190(7) 1.0304(10)
O9 O 0.6315(14) 0.3413(8) 1.0183(8)
C13 C 0.9474(15) 0.3262(5) 1.1494(9)
C14 C 0.7401(8) 0.1868(3) 0.8264(6)
O10 O 0.5924(6) 0.1652(2) 0.8335(5)
O11 O 0.8792(6) 0.1652(3) 0.8843(5)
C15 C 0.6139(11) 0.1094(5) 0.9086(10)
H1 H 0.920 0.306 0.599
H2 H 0.764 0.379 0.595
H3 H 0.648 0.388 0.770
H4 H 0.562 0.296 0.818
H5 H 0.599 0.231 0.652
H6 H 0.599 0.242 0.227
H7 H 0.506 0.283 0.278
H8 H 0.500 0.215 0.280
H9 H 1.188 0.424 0.920
H10 H 1.142 0.482 0.919
H11 H 1.205 0.458 0.850
H12 H 0.178 0.344 0.461
H13 H 0.091 0.386 0.534
H14 H 0.187 0.400 0.467
H15 H 0.991 0.279 1.167
H16 H 0.915 0.354 1.200
H17 H 1.034 0.362 1.128
H18 H 0.676 0.125 0.997
H19 H 0.683 0.082 0.887
H20 H 0.516 0.104 0.881
C16 C 0.2066(9) 0.1278(3) 0.5765(8)
C17 C 0.0841(10) 0.1384(3) 0.6454(8)
C18 C -0.0135(8) 0.0820(4) 0.6567(7)
C19 C 0.0966(8) 0.0235(3) 0.6936(6)
C20 C 0.2040(9) 0.0184(3) 0.6112(6)
O12 O 0.3072(6) 0.0728(2) 0.6226(5)
O13 O 0.1068(8) 0.1203(3) 0.4419(5)
C21 C 0.1435(17) 0.1581(6) 0.3587(9)
O14 O 0.2500(12) 0.1983(6) 0.3926(9)
C22 C 0.0134(2) 0.1443(6) 0.2255(11)
O15 O 0.1774(6) 0.1589(2) 0.7763(4)
C23 C 0.2229(9) 0.2207(4) 0.7941(9)
O16 O 0.2160(6) 0.2533(3) 0.7068(6)
C24 C 0.2741(11) 0.2372(5) 0.9304(9)
O17 O -0.1491(6) 0.0652(3) 0.5360(6)
C25 C -0.3050(10) 0.0917(4) 0.5068(10)
O18 O -0.3335(8) 0.1294(4) 0.5715(7)
C26 C -0.4273(13) 0.0696(6) 0.3778(11)
O19 O 0.2162(6) 0.0280(2) 0.8253(4)
C27 C 0.1634(12) 0.0090(4) 0.9174(8)
O20 O 0.0229(9) -0.0119(4) 0.8363(7)
C28 C 0.3010(13) 0.0193(6) 1.0501(9)
C29 C 0.3202(9) -0.0371(4) 0.6548(7)
O21 O 0.4855(7) -0.0256(3) 0.6904(7)
O22 O 0.2635(8) -0.0881(3) 0.6493(6)
C30 C 0.5968(14) -0.0811(5) 0.7322(13)
H21 H 0.298 0.155 0.600
H22 H 0.002 0.174 0.599
H23 H -0.064 0.091 0.716
H24 H 0.061 -0.023 0.678
H25 H 0.121 0.015 0.519
H26 H 0.075 0.152 0.177
H27 H -0.084 0.160 0.192
H28 H 0.037 0.107 0.211
H29 H 0.277 0.286 0.945
H30 H 0.386 0.238 0.959
H31 H 0.207 0.228 0.975
H32 H -0.377 0.057 0.327
H33 H -0.507 0.086 0.359
H34 H -0.454 0.035 0.425
H35 H 0.406 0.023 1.050
H36 H 0.264 0.012 1.129
H37 H 0.240 0.050 1.030
H38 H 0.695 -0.060 0.762
H39 H 0.605 -0.087 0.825
H40? H 0.550 -0.011 0.645
loop_
_geom_bond_atom_site_label_1
_geom_bond_atom_site_label_2
_geom_bond_site_symmetry_1
_geom_bond_site_symmetry_2
C1 C2 1_555 1_555
C2 C3 1_555 1_555
C3 C4 1_555 1_555
C4 C5 1_555 1_555
C5 O1 1_555 1_555
O1 C1 1_555 1_555
O2 C1 1_555 1_555
C6 O2 1_555 1_555
O3 C6 1_555 1_555
C7 C6 1_555 1_555
O4 C2 1_555 1_555
C8 O4 1_555 1_555
O5 C8 1_555 1_555
C9 C8 1_555 1_555
O6 C3 1_555 1_555
C10 O6 1_555 1_555
O7 C10 1_555 1_555
C11 C10 1_555 1_555
O8 C4 1_555 1_555
C12 O8 1_555 1_555
O9 C12 1_555 1_555
C13 C12 1_555 1_555
C14 C5 1_555 1_555
O10 C14 1_555 1_555
O11 C14 1_555 1_555
C15 O10 1_555 1_555
H1 C1 1_555 1_555
H2 C2 1_555 1_555
H3 C3 1_555 1_555
H4 C4 1_555 1_555
H5 C5 1_555 1_555
H6 C7 1_555 1_555
H7 C7 1_555 1_555
H8 C7 1_555 1_555
H9 C9 1_555 1_555
H10 C9 1_555 1_555
H11 C9 1_555 1_555
H12 C11 1_555 1_555
H13 C11 1_555 1_555
H14 C11 1_555 1_555
H15 C13 1_555 1_555
H16 C13 1_555 1_555
H17 C13 1_555 1_555
H18 C15 1_555 1_555
H19 C15 1_555 1_555
H20 C15 1_555 1_555
C16 C17 1_555 1_555
C17 C18 1_555 1_555
C18 C19 1_555 1_555
C19 C20 1_555 1_555
C20 O12 1_555 1_555
O12 C16 1_555 1_555
O13 C16 1_555 1_555
C21 O13 1_555 1_555
O14 C21 1_555 1_555
C22 C21 1_555 1_555
O15 C17 1_555 1_555
C23 O15 1_555 1_555
O16 C23 1_555 1_555
C24 C23 1_555 1_555
O17 C18 1_555 1_555
C25 O17 1_555 1_555
O18 C25 1_555 1_555
C26 C25 1_555 1_555
O19 C19 1_555 1_555
C27 O19 1_555 1_555
O20 C27 1_555 1_555
C28 C27 1_555 1_555
C29 C20 1_555 1_555
O21 C29 1_555 1_555
O22 C29 1_555 1_555
C30 O21 1_555 1_555
H21 C16 1_555 1_555
H22 C17 1_555 1_555
H23 C18 1_555 1_555
H24 C19 1_555 1_555
H25 C20 1_555 1_555
H26 C22 1_555 1_555
H27 C22 1_555 1_555
H28 C22 1_555 1_555
H29 C24 1_555 1_555
H30 C24 1_555 1_555
H31 C24 1_555 1_555
H32 C26 1_555 1_555
H33 C26 1_555 1_555
H34 C26 1_555 1_555
H35 C28 1_555 1_555
H36 C28 1_555 1_555
H37 C28 1_555 1_555
H38 C30 1_555 1_555
H39 C30 1_555 1_555

#END
