
#######################################################################
#
#                 Cambridge Crystallographic Data Centre
#                                CCDC 
#
#######################################################################
#
# If this CIF has been generated from an entry in the Cambridge 
# Structural Database, then it will include bibliographic, chemical, 
# crystal, experimental, refinement or atomic coordinate data resulting 
# from the CCDC's data processing and validation procedures.
#
#######################################################################

data_JEYGOK
_chemical_name_common            
'methyl (2,2-dimethyl-7-((2-oxo-1,3-oxazolidin-3-yl)carbonyl)hexahydro[1,3]dioxolo[3,4]pyrrolo[1,2-b]isoxazol-4-yl)acetate'
_chemical_formula_moiety         'C16 H22 N2 O8'
_chemical_name_systematic        
(3aR,4R,7R,8aR,8bS)-4-(2-methoxy-2-oxoethyl)-2,2-dimethyl-7-((2-oxo-1,3-oxazolidin-3-yl)carbonyl)hexahydro[1,3]dioxolo[4',5':3,4]pyrrolo[1,2-b]isoxazole
_symmetry_cell_setting           orthorhombic
_symmetry_space_group_name_H-M   'P 21 21 21'
_symmetry_Int_Tables_number      19
_space_group_name_Hall           'P 2ac 2ab'
loop_
_symmetry_equiv_pos_site_id
_symmetry_equiv_pos_as_xyz
1 x,y,z
2 1/2-x,-y,1/2+z
3 -x,1/2+y,1/2-z
4 1/2+x,1/2-y,-z
_cell_length_a                   8.2234(6)
_cell_length_b                   10.3300(8)
_cell_length_c                   20.682(1)
_cell_angle_alpha                90
_cell_angle_beta                 90
_cell_angle_gamma                90
_cell_volume                     1756.89
_exptl_crystal_colour            colorless
_exptl_crystal_description       parallelepiped
_chemical_melting_point          '177-179 deg.C'
_cell_formula_units_Z            4
loop_
_atom_site_label
_atom_site_type_symbol
_atom_site_fract_x
_atom_site_fract_y
_atom_site_fract_z
O1 O 0.60123(17) 0.8790(2) 0.96713(7)
O2 O 0.35563(19) 0.9385(2) 0.93901(7)
O3 O 0.11900(12) 0.84315(10) 0.79597(5)
O4 O 0.16529(12) 0.69156(10) 0.71988(5)
O5 O 0.36444(13) 0.94511(10) 0.69920(4)
O6 O 0.53770(19) 1.05225(14) 0.60248(6)
O7 O 0.36590(18) 0.82682(14) 0.43400(5)
O8 O 0.2550(2) 0.75604(17) 0.52497(6)
N1 N 0.48161(15) 0.87826(12) 0.74264(6)
N2 N 0.43544(16) 0.92725(14) 0.52445(6)
C1 C 0.5599(4) 0.9107(6) 1.03377(12)
C2 C 0.4854(2) 0.90069(18) 0.92456(8)
C3 C 0.5418(2) 0.86872(18) 0.85738(7)
C4 C 0.40775(16) 0.89057(14) 0.80755(7)
C5 C 0.27317(17) 0.78944(14) 0.81273(7)
C6 C 0.30846(17) 0.68933(14) 0.75937(7)
C7 C 0.03753(17) 0.75028(15) 0.75667(7)
C8 C -0.0764(2) 0.8188(2) 0.71158(10)
C9 C -0.0469(3) 0.6504(2) 0.79835(11)
C10 C 0.45921(18) 0.74128(14) 0.72386(7)
C11 C 0.4499(2) 0.74720(16) 0.65072(7)
C12 C 0.3664(2) 0.87872(15) 0.63911(7)
C13 C 0.4537(2) 0.96044(15) 0.58891(7)
C14 C 0.5188(3) 1.0005(2) 0.47409(9)
C15 C 0.4783(3) 0.9263(2) 0.41439(8)
C16 C 0.3433(2) 0.82981(19) 0.49775(8)
H1 H 0.655(5) 0.882(4) 1.0555(19)
H2 H 0.456(4) 0.867(3) 1.0446(15)
H3 H 0.528(4) 1.020(3) 1.0337(16)
H4 H 0.636(2) 0.9195(17) 0.8466(8)
H5 H 0.575(2) 0.778(2) 0.8571(9)
H6 H 0.3649(18) 0.9781(15) 0.8121(7)
H7 H 0.275(2) 0.7471(17) 0.8563(9)
H8 H 0.329(2) 0.6021(17) 0.7756(8)
H9 H -0.156(3) 0.875(2) 0.7369(11)
H10 H -0.136(3) 0.753(2) 0.6867(11)
H11 H -0.009(3) 0.873(2) 0.6809(11)
H12 H -0.099(3) 0.587(3) 0.7679(12)
H13 H -0.127(3) 0.697(3) 0.8245(13)
H14 H 0.041(3) 0.603(2) 0.8278(10)
H15 H 0.551(2) 0.6962(16) 0.7398(7)
H16 H 0.389(2) 0.678(2) 0.6330(9)
H17 H 0.557(2) 0.7458(17) 0.6309(9)
H18 H 0.259(2) 0.8672(16) 0.6254(8)
H19 H 0.482(3) 1.087(3) 0.4731(12)
H20 H 0.630(3) 1.000(2) 0.4847(10)
H21 H 0.576(3) 0.881(2) 0.3933(11)
H22 H 0.423(3) 0.973(2) 0.3822(12)
loop_
_geom_bond_atom_site_label_1
_geom_bond_atom_site_label_2
_geom_bond_site_symmetry_1
_geom_bond_site_symmetry_2
O1 C1 1_555 1_555
O2 C2 1_555 1_555
O3 C5 1_555 1_555
O4 C6 1_555 1_555
O5 N1 1_555 1_555
O6 C13 1_555 1_555
O7 C15 1_555 1_555
O8 C16 1_555 1_555
N1 C4 1_555 1_555
N2 C13 1_555 1_555
C1 H1 1_555 1_555
C2 O1 1_555 1_555
C3 C2 1_555 1_555
C4 C3 1_555 1_555
C5 C4 1_555 1_555
C6 C5 1_555 1_555
C7 O3 1_555 1_555
C8 C7 1_555 1_555
C9 C7 1_555 1_555
C10 N1 1_555 1_555
C11 C10 1_555 1_555
C12 O5 1_555 1_555
C13 C12 1_555 1_555
C14 N2 1_555 1_555
C15 C14 1_555 1_555
C16 O7 1_555 1_555
H2 C1 1_555 1_555
H3 C1 1_555 1_555
H4 C3 1_555 1_555
H5 C3 1_555 1_555
H6 C4 1_555 1_555
H7 C5 1_555 1_555
H8 C6 1_555 1_555
H9 C8 1_555 1_555
H10 C8 1_555 1_555
H11 C8 1_555 1_555
H12 C9 1_555 1_555
H13 C9 1_555 1_555
H14 C9 1_555 1_555
H15 C10 1_555 1_555
H16 C11 1_555 1_555
H17 C11 1_555 1_555
H18 C12 1_555 1_555
H19 C14 1_555 1_555
H20 C14 1_555 1_555
H21 C15 1_555 1_555
H22 C15 1_555 1_555
O4 C7 1_555 1_555
N2 C16 1_555 1_555
C6 C10 1_555 1_555
C11 C12 1_555 1_555

#END
