
#######################################################################
#
#                 Cambridge Crystallographic Data Centre
#                                CCDC 
#
#######################################################################
#
# If this CIF has been generated from an entry in the Cambridge 
# Structural Database, then it will include bibliographic, chemical, 
# crystal, experimental, refinement or atomic coordinate data resulting 
# from the CCDC's data processing and validation procedures.
#
#######################################################################

data_JEYKEG
_chemical_formula_moiety         'C20 H20 N2 O5'
_chemical_name_systematic        
'methyl \b-ethenyl-\a-methyl-N-(4-nitrobenzene-1-carbonyl)phenylalaninate'
_symmetry_cell_setting           monoclinic
_symmetry_space_group_name_H-M   'P 21'
_symmetry_Int_Tables_number      4
_space_group_name_Hall           'P 2yb'
loop_
_symmetry_equiv_pos_site_id
_symmetry_equiv_pos_as_xyz
1 x,y,z
2 -x,1/2+y,-z
_cell_length_a                   7.3510(4)
_cell_length_b                   6.8049(4)
_cell_length_c                   18.1326(11)
_cell_angle_alpha                90
_cell_angle_beta                 92.015(3)
_cell_angle_gamma                90
_cell_volume                     906.483
_exptl_crystal_colour            colorless
_exptl_crystal_description       block
_cell_formula_units_Z            2
loop_
_atom_site_label
_atom_site_type_symbol
_atom_site_fract_x
_atom_site_fract_y
_atom_site_fract_z
O1 O 0.4773(12) 0.1971(13) 0.2206(5)
C1 C 0.4300(19) 0.640(2) 0.1135(7)
N1 N 0.6314(14) 0.5139(15) 0.3045(5)
H1 H 0.7416 0.5536 0.2942
N2 N 1.1569(16) 0.4087(17) 0.5976(5)
O2 O 0.2144(10) 0.3531(12) 0.2348(4)
C2 C 0.3516(18) 0.817(2) 0.0935(7)
H2 H 0.3777 0.9316 0.1220
O3 O 0.4536(12) 0.3434(17) 0.3824(5)
C3 C 0.2332(18) 0.829(3) 0.0310(7)
H3 H 0.1832 0.9526 0.0160
O4 O 1.1035(15) 0.3836(17) 0.6611(5)
C4 C 0.2646(19) 0.483(2) 0.0110(7)
H4 H 0.2355 0.3698 -0.0176
O5 O 1.3184(13) 0.4173(17) 0.5840(6)
C5 C 0.1905(18) 0.663(3) -0.0081(8)
H5 H 0.1079 0.6716 -0.0495
C6 C 0.7366(15) 0.536(2) 0.1590(6)
H6 H 0.7311 0.3998 0.1478
C7 C 0.5647(15) 0.630(2) 0.1791(7)
H7 H 0.5970 0.7696 0.1908
C8 C 0.3823(18) 0.470(2) 0.0726(7)
H8 H 0.4308 0.3458 0.0871
C9 C 0.8923(16) 0.618(3) 0.1548(8)
H9 H 0.9055 0.7545 0.1654
H10 H 0.9948 0.5433 0.1412
C10 C 0.4805(17) 0.545(2) 0.2526(7)
C11 C 0.3455(17) 0.694(2) 0.2808(7)
H11 H 0.2479 0.7147 0.2434
H12 H 0.4081 0.8186 0.2910
H13 H 0.2933 0.6445 0.3263
C12 C 0.3949(14) 0.3440(17) 0.2353(5)
C13 C 0.1171(19) 0.170(2) 0.2193(9)
H14 H 0.1351 0.1307 0.1681
H15 H -0.0130 0.1891 0.2269
H16 H 0.1641 0.0669 0.2526
C14 C 0.5993(17) 0.421(2) 0.3702(7)
C15 C 0.7486(16) 0.4249(18) 0.4269(6)
C16 C 0.704(2) 0.433(2) 0.5015(8)
H17 H 0.5806 0.4407 0.5146
C17 C 0.8390(15) 0.431(2) 0.5555(7)
H18 H 0.8078 0.4393 0.6058
C18 C 1.0145(16) 0.419(2) 0.5382(7)
C19 C 1.0756(16) 0.4144(19) 0.4656(7)
H19 H 1.2008 0.4113 0.4542
C20 C 0.9322(19) 0.415(2) 0.4107(7)
H20 H 0.9634 0.4090 0.3603
loop_
_geom_bond_atom_site_label_1
_geom_bond_atom_site_label_2
_geom_bond_site_symmetry_1
_geom_bond_site_symmetry_2
O1 C12 1_555 1_555
C1 C2 1_555 1_555
N1 H1 1_555 1_555
N2 O4 1_555 1_555
O2 C12 1_555 1_555
C2 H2 1_555 1_555
O3 C14 1_555 1_555
C3 C2 1_555 1_555
H3 C3 1_555 1_555
C4 H4 1_555 1_555
O5 N2 1_555 1_555
C5 C3 1_555 1_555
H5 C5 1_555 1_555
C6 H6 1_555 1_555
C7 C1 1_555 1_555
H7 C7 1_555 1_555
C8 C1 1_555 1_555
H8 C8 1_555 1_555
C9 C6 1_555 1_555
H9 C9 1_555 1_555
H10 C9 1_555 1_555
C10 N1 1_555 1_555
C11 C10 1_555 1_555
H11 C11 1_555 1_555
H12 C11 1_555 1_555
H13 C11 1_555 1_555
C12 C10 1_555 1_555
C13 O2 1_555 1_555
H14 C13 1_555 1_555
H15 C13 1_555 1_555
H16 C13 1_555 1_555
C14 N1 1_555 1_555
C15 C14 1_555 1_555
C16 C15 1_555 1_555
H17 C16 1_555 1_555
C17 C16 1_555 1_555
H18 C17 1_555 1_555
C18 N2 1_555 1_555
C19 C18 1_555 1_555
H19 C19 1_555 1_555
C20 C15 1_555 1_555
H20 C20 1_555 1_555
C4 C5 1_555 1_555
C4 C8 1_555 1_555
C6 C7 1_555 1_555
C7 C10 1_555 1_555
C17 C18 1_555 1_555
C19 C20 1_555 1_555

#END
