
#######################################################################
#
#                 Cambridge Crystallographic Data Centre
#                                CCDC 
#
#######################################################################
#
# If this CIF has been generated from an entry in the Cambridge 
# Structural Database, then it will include bibliographic, chemical, 
# crystal, experimental, refinement or atomic coordinate data resulting 
# from the CCDC's data processing and validation procedures.
#
#######################################################################

data_JEYLUX
_chemical_formula_moiety         'C17 H13 F2 N1 O3 S2'
_chemical_name_systematic        
'S-(difluoromethyl) 1-[(4-methylphenyl)sulfonyl]-1H-indole-3-carbothioate'
_symmetry_cell_setting           triclinic
_symmetry_space_group_name_H-M   'P -1'
_symmetry_Int_Tables_number      2
_space_group_name_Hall           '-P 1'
loop_
_symmetry_equiv_pos_site_id
_symmetry_equiv_pos_as_xyz
1 x,y,z
2 -x,-y,-z
_cell_length_a                   8.134(3)
_cell_length_b                   9.320(3)
_cell_length_c                   11.876(4)
_cell_angle_alpha                96.425(5)
_cell_angle_beta                 97.679(6)
_cell_angle_gamma                106.469(5)
_cell_volume                     844.934
_cell_formula_units_Z            2
loop_
_atom_site_label
_atom_site_type_symbol
_atom_site_fract_x
_atom_site_fract_y
_atom_site_fract_z
S1 S 0.28910(7) 0.44544(6) 0.86823(5)
S2 S 0.23802(12) 0.19007(8) 1.27329(6)
F1 F 0.2926(3) 0.0143(2) 1.41890(17)
F2 F 0.1184(4) 0.1370(3) 1.45610(18)
N1 N 0.2763(2) 0.28372(19) 0.92060(15)
O1 O 0.42490(19) 0.46833(18) 0.80287(15)
O2 O 0.2971(2) 0.55200(16) 0.96608(14)
O3 O 0.1611(3) -0.0806(2) 1.15157(16)
C1 C -0.3849(4) 0.3471(4) 0.5467(3)
H1 H -0.4625 0.2477 0.5458
H2 H -0.3612 0.3581 0.4706
H3 H -0.4380 0.4218 0.5725
C2 C -0.2166(3) 0.3688(3) 0.6275(2)
C3 C -0.2075(3) 0.3943(3) 0.7452(2)
H4 H -0.3068 0.3975 0.7749
C4 C -0.0546(3) 0.4150(3) 0.8196(2)
H5 H -0.0504 0.4317 0.8988
C5 C 0.0921(3) 0.4107(2) 0.77477(18)
C6 C 0.0859(3) 0.3828(3) 0.6573(2)
H6 H 0.1849 0.3786 0.6276
C7 C -0.0688(3) 0.3614(3) 0.5851(2)
H7 H -0.0739 0.3414 0.5060
C8 C 0.2439(3) 0.2625(2) 1.02874(18)
H8 H 0.2299 0.3357 1.0835
C9 C 0.2351(3) 0.1183(2) 1.04391(18)
C10 C 0.2622(3) 0.0422(2) 0.93855(19)
C11 C 0.2717(4) -0.1028(3) 0.9043(2)
H9 H 0.2555 -0.1746 0.9534
C12 C 0.3057(4) -0.1367(3) 0.7958(3)
H10 H 0.3141 -0.2325 0.7720
C13 C 0.3277(4) -0.0316(3) 0.7213(3)
H11 H 0.3481 -0.0592 0.6480
C14 C 0.3202(3) 0.1131(3) 0.7530(2)
H12 H 0.3358 0.1839 0.7030
C15 C 0.2883(3) 0.1474(2) 0.86246(19)
C16 C 0.2039(3) 0.0524(3) 1.14724(19)
C17 C 0.1631(4) 0.0613(4) 1.3697(2)
H13 H 0.0646 -0.0250 1.3300
loop_
_geom_bond_atom_site_label_1
_geom_bond_atom_site_label_2
_geom_bond_site_symmetry_1
_geom_bond_site_symmetry_2
S1 N1 1_555 1_555
S2 C16 1_555 1_555
F1 C17 1_555 1_555
F2 C17 1_555 1_555
N1 C8 1_555 1_555
O1 S1 1_555 1_555
O2 S1 1_555 1_555
O3 C16 1_555 1_555
C1 H1 1_555 1_555
H2 C1 1_555 1_555
H3 C1 1_555 1_555
C2 C1 1_555 1_555
C3 C2 1_555 1_555
H4 C3 1_555 1_555
C4 C3 1_555 1_555
H5 C4 1_555 1_555
C5 S1 1_555 1_555
C6 C5 1_555 1_555
H6 C6 1_555 1_555
C7 C2 1_555 1_555
H7 C7 1_555 1_555
C8 H8 1_555 1_555
C9 C8 1_555 1_555
C10 C9 1_555 1_555
C11 C10 1_555 1_555
H9 C11 1_555 1_555
C12 C11 1_555 1_555
H10 C12 1_555 1_555
C13 C12 1_555 1_555
H11 C13 1_555 1_555
C14 C13 1_555 1_555
H12 C14 1_555 1_555
C15 N1 1_555 1_555
C16 C9 1_555 1_555
C17 S2 1_555 1_555
H13 C17 1_555 1_555
C4 C5 1_555 1_555
C6 C7 1_555 1_555
C10 C15 1_555 1_555
C14 C15 1_555 1_555

#END
