
#######################################################################
#
#                 Cambridge Crystallographic Data Centre
#                                CCDC 
#
#######################################################################
#
# If this CIF has been generated from an entry in the Cambridge 
# Structural Database, then it will include bibliographic, chemical, 
# crystal, experimental, refinement or atomic coordinate data resulting 
# from the CCDC's data processing and validation procedures.
#
#######################################################################

data_JEYNIN
_chemical_formula_moiety         'C25 H12 Br1 F3 O5'
_chemical_name_systematic        
'4-bromo-2-[4-oxo-2-(trifluoromethyl)-4H-furo[3,2-c][1]benzopyran-3-yl]phenyl benzoate unknown solvate'
_symmetry_cell_setting           rhombohedral
_symmetry_space_group_name_H-M   'R -3'
_symmetry_Int_Tables_number      148
_space_group_name_Hall           '-R 3'
loop_
_symmetry_equiv_pos_site_id
_symmetry_equiv_pos_as_xyz
1 x,y,z
2 -y,x-y,z
3 -x+y,-x,z
4 2/3+x,1/3+y,1/3+z
5 2/3-y,1/3+x-y,1/3+z
6 2/3-x+y,1/3-x,1/3+z
7 1/3+x,2/3+y,2/3+z
8 1/3-y,2/3+x-y,2/3+z
9 1/3-x+y,2/3-x,2/3+z
10 -x,-y,-z
11 y,-x+y,-z
12 x-y,x,-z
13 1/3-x,2/3-y,2/3-z
14 1/3+y,2/3-x+y,2/3-z
15 1/3+x-y,2/3+x,2/3-z
16 2/3-x,1/3-y,1/3-z
17 2/3+y,1/3-x+y,1/3-z
18 2/3+x-y,1/3+x,1/3-z
_cell_length_a                   22.826(2)
_cell_length_b                   22.826(2)
_cell_length_c                   23.9924(16)
_cell_angle_alpha                90
_cell_angle_beta                 90
_cell_angle_gamma                120
_cell_volume                     10825.9
_exptl_crystal_colour            colorless
_exptl_crystal_description       prism
_cell_formula_units_Z            18
loop_
_atom_site_label
_atom_site_type_symbol
_atom_site_fract_x
_atom_site_fract_y
_atom_site_fract_z
C1 C 0.7494(2) 0.8048(2) 0.66675(15)
C2 C 0.7233(2) 0.8475(2) 0.67160(15)
H1 H 0.7303 0.8730 0.7047
C3 C 0.6871(2) 0.85255(19) 0.62797(14)
H2 H 0.6685 0.8815 0.6307
C4 C 0.6780(2) 0.8155(2) 0.58027(15)
C5 C 0.7037(2) 0.77257(19) 0.57445(14)
C6 C 0.7406(2) 0.7680(2) 0.61885(15)
H3 H 0.7596 0.7394 0.6161
C7 C 0.5755(2) 0.7791(2) 0.53159(16)
C8 C 0.5455(2) 0.7922(2) 0.48173(15)
C9 C 0.4758(3) 0.7595(3) 0.47833(19)
H4 H 0.4488 0.7308 0.5077
C10 C 0.4455(3) 0.7691(3) 0.4314(2)
H5 H 0.3976 0.7475 0.4292
C11 C 0.4839(4) 0.8090(3) 0.3889(2)
H6 H 0.4626 0.8143 0.3568
C12 C 0.5526(4) 0.8416(3) 0.39182(18)
H7 H 0.5791 0.8695 0.3619
C13 C 0.5839(3) 0.8338(2) 0.43860(17)
H8 H 0.6319 0.8573 0.4410
C14 C 0.6940(2) 0.7324(2) 0.52370(15)
C15 C 0.7200(2) 0.7531(2) 0.47209(16)
C16 C 0.7648(3) 0.8195(3) 0.4478(2)
C17 C 0.66022(19) 0.6433(2) 0.46493(14)
C18 C 0.62970(19) 0.5769(2) 0.44372(14)
C19 C 0.6349(2) 0.5574(2) 0.38895(15)
H9 H 0.6613 0.5905 0.3618
C20 C 0.6015(2) 0.4903(3) 0.37537(16)
H10 H 0.6039 0.4769 0.3384
C21 C 0.5638(2) 0.4413(2) 0.41514(17)
H11 H 0.5416 0.3948 0.4050
C22 C 0.5584(2) 0.4590(2) 0.46855(17)
H12 H 0.5324 0.4253 0.4955
C23 C 0.59143(19) 0.5268(2) 0.48262(14)
C24 C 0.6148(2) 0.6080(2) 0.55822(15)
C25 C 0.65494(19) 0.6602(2) 0.51857(14)
Br1 Br 0.80077(2) 0.79899(3) 0.726168(18)
F1 F 0.78745(17) 0.86868(16) 0.48570(13)
F2 F 0.7358(2) 0.83744(16) 0.40763(13)
F3 F 0.81826(18) 0.82312(15) 0.42261(13)
O1 O 0.64355(14) 0.82410(13) 0.53491(9)
O2 O 0.54691(16) 0.73604(18) 0.56498(13)
O3 O 0.70088(14) 0.70022(14) 0.43542(10)
O4 O 0.58408(13) 0.54238(13) 0.53681(9)
O5 O 0.60556(14) 0.61430(14) 0.60670(10)
loop_
_geom_bond_atom_site_label_1
_geom_bond_atom_site_label_2
_geom_bond_site_symmetry_1
_geom_bond_site_symmetry_2
C1 C2 1_555 1_555
C2 H1 1_555 1_555
C3 C2 1_555 1_555
H2 C3 1_555 1_555
C4 C3 1_555 1_555
C5 C4 1_555 1_555
C6 C1 1_555 1_555
H3 C6 1_555 1_555
C7 C8 1_555 1_555
C8 C9 1_555 1_555
C9 H4 1_555 1_555
C10 C9 1_555 1_555
H5 C10 1_555 1_555
C11 C10 1_555 1_555
H6 C11 1_555 1_555
C12 C11 1_555 1_555
H7 C12 1_555 1_555
C13 C8 1_555 1_555
H8 C13 1_555 1_555
C14 C5 1_555 1_555
C15 C14 1_555 1_555
C16 C15 1_555 1_555
C17 C18 1_555 1_555
C18 C19 1_555 1_555
C19 H9 1_555 1_555
C20 C19 1_555 1_555
H10 C20 1_555 1_555
C21 C20 1_555 1_555
H11 C21 1_555 1_555
C22 C21 1_555 1_555
H12 C22 1_555 1_555
C23 C18 1_555 1_555
C24 C25 1_555 1_555
C25 C14 1_555 1_555
Br1 C1 1_555 1_555
F1 C16 1_555 1_555
F2 C16 1_555 1_555
F3 C16 1_555 1_555
O1 C4 1_555 1_555
O2 C7 1_555 1_555
O3 C15 1_555 1_555
O4 C23 1_555 1_555
O5 C24 1_555 1_555
C5 C6 1_555 1_555
C7 O1 1_555 1_555
C12 C13 1_555 1_555
C17 C25 1_555 1_555
C17 O3 1_555 1_555
C22 C23 1_555 1_555
C24 O4 1_555 1_555

#END
