
#######################################################################
#
#                 Cambridge Crystallographic Data Centre
#                                CCDC 
#
#######################################################################
#
# If this CIF has been generated from an entry in the Cambridge 
# Structural Database, then it will include bibliographic, chemical, 
# crystal, experimental, refinement or atomic coordinate data resulting 
# from the CCDC's data processing and validation procedures.
#
#######################################################################

data_JEYPOV
_chemical_formula_moiety         'C16 H20 N1 1+,C6 H2 N3 O7 1-'
_chemical_name_systematic        
'2-(3-methyl-4-phenylbutan-2-yl)pyridin-1-ium 2,4,6-trinitrophenolate'
_symmetry_cell_setting           monoclinic
_symmetry_space_group_name_H-M   'P 21/n'
_symmetry_Int_Tables_number      14
_space_group_name_Hall           '-P 2yn'
loop_
_symmetry_equiv_pos_site_id
_symmetry_equiv_pos_as_xyz
1 x,y,z
2 1/2-x,1/2+y,1/2-z
3 -x,-y,-z
4 1/2+x,1/2-y,1/2+z
_cell_length_a                   7.8133(16)
_cell_length_b                   21.152(4)
_cell_length_c                   13.235(3)
_cell_angle_alpha                90
_cell_angle_beta                 101.54(3)
_cell_angle_gamma                90
_cell_volume                     2143.09
_cell_formula_units_Z            4
loop_
_atom_site_label
_atom_site_type_symbol
_atom_site_fract_x
_atom_site_fract_y
_atom_site_fract_z
O1 O 0.93913(15) 0.09831(5) 0.72732(10)
O2 O 1.22037(17) 0.16559(6) 0.70319(12)
O3 O 1.23241(17) 0.26396(6) 0.74047(11)
O4 O 0.83079(17) 0.36441(5) 0.90500(10)
O5 O 0.58023(17) 0.32233(6) 0.91099(11)
O6 O 0.52305(17) 0.09139(6) 0.83718(9)
O7 O 0.58174(16) 0.07558(6) 0.68587(10)
N1 N 1.15704(17) 0.21271(6) 0.73462(10)
N2 N 0.72440(19) 0.32043(6) 0.88690(11)
N3 N 0.60090(17) 0.10448(6) 0.76736(10)
C1 C 0.89037(19) 0.15056(7) 0.75497(11)
C2 C 0.98911(19) 0.20886(7) 0.76639(11)
C3 C 0.93352(19) 0.26337(7) 0.80703(11)
H1 H 1.0050 0.3001 0.8147
C4 C 0.7735(2) 0.26456(7) 0.83661(11)
C5 C 0.6632(2) 0.21219(7) 0.82350(11)
H2 H 0.5520 0.2137 0.8421
C6 C 0.72016(19) 0.15848(7) 0.78296(11)
N4 N 0.32027(17) 0.52809(6) 0.83647(10)
C7 C 0.3047(2) 0.54142(7) 0.93361(12)
H3 H 0.3357 0.5822 0.9615
C8 C 0.2446(2) 0.49666(7) 0.99251(12)
H4 H 0.2294 0.5062 1.0603
C9 C 0.2064(3) 0.43712(8) 0.95074(13)
H5 H 0.1690 0.4046 0.9909
C10 C 0.2227(3) 0.42507(8) 0.85107(14)
H6 H 0.1971 0.3840 0.8230
C11 C 0.2762(2) 0.47200(7) 0.79081(12)
C12 C 0.2806(2) 0.46354(8) 0.67784(12)
H7 H 0.3078 0.5054 0.6497
C13 C 0.0982(2) 0.44308(9) 0.62047(14)
H8 H 0.0778 0.3989 0.6372
H9 H 0.0908 0.4472 0.5460
H10 H 0.0095 0.4700 0.6416
C14 C 0.4252(2) 0.41643(8) 0.66385(12)
H11 H 0.4077 0.3766 0.7013
C15 C 0.6054(2) 0.44306(9) 0.71231(15)
H12 H 0.6958 0.4124 0.7042
H13 H 0.6109 0.4511 0.7858
H14 H 0.6246 0.4827 0.6779
C16 C 0.4168(2) 0.39949(8) 0.54917(12)
H15 H 0.2966 0.3860 0.5177
H16 H 0.4446 0.4375 0.5119
C17 C 0.5428(2) 0.34730(8) 0.53742(11)
C18 C 0.5064(2) 0.28540(8) 0.56237(12)
H17 H 0.4015 0.2764 0.5855
C19 C 0.6217(3) 0.23668(9) 0.55387(12)
H18 H 0.5945 0.1947 0.5706
C20 C 0.7760(3) 0.24883(10) 0.52122(14)
H19 H 0.8543 0.2153 0.5152
C21 C 0.8153(3) 0.30997(10) 0.49752(14)
H20 H 0.9221 0.3188 0.4764
C22 C 0.6990(2) 0.35862(9) 0.50452(13)
H21 H 0.7262 0.4004 0.4866
H22 H 0.375(2) 0.5570(7) 0.8040(13)
loop_
_geom_bond_atom_site_label_1
_geom_bond_atom_site_label_2
_geom_bond_site_symmetry_1
_geom_bond_site_symmetry_2
O1 C1 1_555 1_555
O2 N1 1_555 1_555
O3 N1 1_555 1_555
O4 N2 1_555 1_555
O5 N2 1_555 1_555
O6 N3 1_555 1_555
O7 N3 1_555 1_555
N1 C2 1_555 1_555
N2 C4 1_555 1_555
N3 C6 1_555 1_555
C1 C2 1_555 1_555
C2 C3 1_555 1_555
C3 H1 1_555 1_555
C4 C3 1_555 1_555
C5 C4 1_555 1_555
H2 C5 1_555 1_555
C6 C1 1_555 1_555
N4 C7 1_555 1_555
C7 H3 1_555 1_555
C8 C7 1_555 1_555
H4 C8 1_555 1_555
C9 C8 1_555 1_555
H5 C9 1_555 1_555
C10 C9 1_555 1_555
H6 C10 1_555 1_555
C11 N4 1_555 1_555
C12 C11 1_555 1_555
H7 C12 1_555 1_555
C13 C12 1_555 1_555
H8 C13 1_555 1_555
H9 C13 1_555 1_555
H10 C13 1_555 1_555
C14 C12 1_555 1_555
H11 C14 1_555 1_555
C15 C14 1_555 1_555
H12 C15 1_555 1_555
H13 C15 1_555 1_555
H14 C15 1_555 1_555
C16 C14 1_555 1_555
H15 C16 1_555 1_555
H16 C16 1_555 1_555
C17 C16 1_555 1_555
C18 C17 1_555 1_555
H17 C18 1_555 1_555
C19 C18 1_555 1_555
H18 C19 1_555 1_555
C20 C19 1_555 1_555
H19 C20 1_555 1_555
C21 C20 1_555 1_555
H20 C21 1_555 1_555
C22 C17 1_555 1_555
H21 C22 1_555 1_555
H22 N4 1_555 1_555
C5 C6 1_555 1_555
C10 C11 1_555 1_555
C21 C22 1_555 1_555

#END
