
#######################################################################
#
#                 Cambridge Crystallographic Data Centre
#                                CCDC 
#
#######################################################################
#
# If this CIF has been generated from an entry in the Cambridge 
# Structural Database, then it will include bibliographic, chemical, 
# crystal, experimental, refinement or atomic coordinate data resulting 
# from the CCDC's data processing and validation procedures.
#
#######################################################################

data_JEYPOT
_chemical_formula_moiety         '2(C2 H10 N2 2+),C24 H18 Na2 O8 4-'
_chemical_name_systematic        
'bis(Ethane-1,2-diammonium) bis(\m~2~-catecholato)-bis(hydrogencatecholato)-di-sodium'
_symmetry_cell_setting           triclinic
_symmetry_space_group_name_H-M   'P -1'
_symmetry_Int_Tables_number      2
_space_group_name_Hall           '-P 1'
loop_
_symmetry_equiv_pos_site_id
_symmetry_equiv_pos_as_xyz
1 x,y,z
2 -x,-y,-z
_cell_length_a                   6.091(2)
_cell_length_b                   10.274(3)
_cell_length_c                   12.466(4)
_cell_angle_alpha                89.073(6)
_cell_angle_beta                 89.376(6)
_cell_angle_gamma                78.873(5)
_cell_volume                     765.32
_exptl_crystal_colour            yellow
_cell_formula_units_Z            1
loop_
_atom_site_label
_atom_site_type_symbol
_atom_site_fract_x
_atom_site_fract_y
_atom_site_fract_z
Na1 Na 0.09814(19) 0.57973(11) 0.92122(8)
O1 O 0.0492(4) 0.6627(2) 0.74607(16)
H1 H -0.0327 0.6452 0.6953
O2 O 0.3816(3) 0.68994(18) 0.87710(14)
O3 O 0.2765(3) 0.48496(18) 1.09757(15)
O4 O -0.0960(3) 0.65416(18) 1.08652(15)
C1 C 0.1838(5) 0.7482(3) 0.7145(2)
C2 C 0.1543(6) 0.8217(3) 0.6203(3)
H4 H 0.0371 0.8139 0.5752
C3 C 0.2954(7) 0.9063(4) 0.5921(3)
H5 H 0.2733 0.9563 0.5289
C4 C 0.4680(7) 0.9156(3) 0.6581(3)
H6 H 0.5643 0.9726 0.6397
C5 C 0.5021(5) 0.8418(3) 0.7521(2)
H7 H 0.6236 0.8481 0.7949
C6 C 0.3592(5) 0.7585(3) 0.7839(2)
C7 C 0.2537(5) 0.5873(3) 1.1667(2)
C8 C 0.4134(5) 0.6058(3) 1.2400(2)
H8 H 0.5483 0.5456 1.2441
C9 C 0.3724(6) 0.7144(3) 1.3073(2)
H9 H 0.4803 0.7268 1.3564
C10 C 0.1743(6) 0.8032(3) 1.3019(3)
H10 H 0.1480 0.8756 1.3473
C11 C 0.0131(5) 0.7861(3) 1.2292(2)
H11 H -0.1216 0.8466 1.2262
C12 C 0.0513(5) 0.6788(3) 1.1606(2)
Na1A Na -0.09814(19) 0.42027(11) 1.07878(8)
O1A O -0.0492(4) 0.3373(2) 1.25393(16)
H1A H 0.0327 0.3548 1.3047
O2A O -0.3816(3) 0.31006(18) 1.12290(14)
O3A O -0.2765(3) 0.51504(18) 0.90243(15)
O4A O 0.0960(3) 0.34584(18) 0.91348(15)
C1A C -0.1838(5) 0.2518(3) 1.2855(2)
C2A C -0.1543(6) 0.1783(3) 1.3797(3)
H4A H -0.0371 0.1861 1.4248
C3A C -0.2954(7) 0.0937(4) 1.4079(3)
H5A H -0.2733 0.0437 1.4711
C4A C -0.4680(7) 0.0844(3) 1.3419(3)
H6A H -0.5643 0.0274 1.3603
C5A C -0.5021(5) 0.1582(3) 1.2479(2)
H7A H -0.6236 0.1519 1.2051
C6A C -0.3592(5) 0.2415(3) 1.2161(2)
C7A C -0.2537(5) 0.4127(3) 0.8333(2)
C8A C -0.4134(5) 0.3942(3) 0.7600(2)
H8A H -0.5483 0.4544 0.7559
C9A C -0.3724(6) 0.2856(3) 0.6927(2)
H9A H -0.4803 0.2732 0.6436
C10A C -0.1743(6) 0.1968(3) 0.6981(3)
H10A H -0.1480 0.1244 0.6527
C11A C -0.0131(5) 0.2139(3) 0.7708(2)
H11A H 0.1216 0.1534 0.7738
C12A C -0.0513(5) 0.3212(3) 0.8394(2)
N1 N 0.7858(4) 0.6013(3) 0.5877(2)
H12 H 0.6675 0.6664 0.5760
H13 H 0.7325 0.5367 0.6224
C13 C 0.8958(6) 0.5469(4) 0.4884(3)
H14 H 0.7956 0.5021 0.4495
H15 H 0.9283 0.6188 0.4433
N1A N 1.2142(4) 0.3987(3) 0.4123(2)
H12A H 1.3325 0.3336 0.4240
H13A H 1.2675 0.4633 0.3776
C13A C 1.1042(6) 0.4531(4) 0.5116(3)
H14A H 1.2044 0.4979 0.5505
H15A H 1.0717 0.3812 0.5567
N2 N 0.4547(4) 0.1755(2) 0.94247(19)
H16 H 0.5224 0.2097 0.9956
H17 H 0.5544 0.1631 0.8880
C14 C 0.4007(5) 0.0486(3) 0.9790(2)
H18 H 0.3371 0.0088 0.9197
H19 H 0.2878 0.0656 1.0352
N2A N 0.5453(4) -0.1755(2) 1.05753(19)
H16A H 0.4776 -0.2097 1.0044
H17A H 0.4456 -0.1631 1.1120
C14A C 0.5993(5) -0.0486(3) 1.0210(2)
H18A H 0.6629 -0.0088 1.0803
H19A H 0.7122 -0.0656 0.9648
H2? H 0.3965 0.4279 1.1107
H3? H -0.2175 0.7126 1.0818
loop_
_geom_bond_atom_site_label_1
_geom_bond_atom_site_label_2
_geom_bond_site_symmetry_1
_geom_bond_site_symmetry_2
Na1 O1 1_555 1_555
O1 H1 1_555 1_555
O2 Na1 1_555 1_555
O3 Na1 1_555 1_555
O4 Na1 1_555 1_555
C1 O1 1_555 1_555
C2 C1 1_555 1_555
H4 C2 1_555 1_555
C3 C2 1_555 1_555
H5 C3 1_555 1_555
C4 C3 1_555 1_555
H6 C4 1_555 1_555
C5 C4 1_555 1_555
H7 C5 1_555 1_555
C6 O2 1_555 1_555
C7 O3 1_555 1_555
C8 C7 1_555 1_555
H8 C8 1_555 1_555
C9 C8 1_555 1_555
H9 C9 1_555 1_555
C10 C9 1_555 1_555
H10 C10 1_555 1_555
C11 C10 1_555 1_555
H11 C11 1_555 1_555
C12 O4 1_555 1_555
N1 H12 1_555 1_555
H13 N1 1_555 1_555
C13 N1 1_555 1_555
H14 C13 1_555 1_555
H15 C13 1_555 1_555
N2 H16 1_555 1_555
H17 N2 1_555 1_555
C14 N2 1_555 1_555
H18 C14 1_555 1_555
H19 C14 1_555 1_555
Na1A O3 1_555 1_555
O1A Na1A 1_555 1_555
H1A O1A 1_555 1_555
O2A Na1A 1_555 1_555
O3A Na1 1_555 1_555
O4A Na1 1_555 1_555
C1A O1A 1_555 1_555
C2A C1A 1_555 1_555
H4A C2A 1_555 1_555
C3A C2A 1_555 1_555
H5A C3A 1_555 1_555
C4A C3A 1_555 1_555
H6A C4A 1_555 1_555
C5A C4A 1_555 1_555
H7A C5A 1_555 1_555
C6A O2A 1_555 1_555
C7A O3A 1_555 1_555
C8A C7A 1_555 1_555
H8A C8A 1_555 1_555
C9A C8A 1_555 1_555
H9A C9A 1_555 1_555
C10A C9A 1_555 1_555
H10A C10A 1_555 1_555
C11A C10A 1_555 1_555
H11A C11A 1_555 1_555
C12A O4A 1_555 1_555
N1A H12A 1_555 1_555
H13A N1A 1_555 1_555
C13A C13 1_555 1_555
H14A C13A 1_555 1_555
H15A C13A 1_555 1_555
N2A H16A 1_555 1_555
H17A N2A 1_555 1_555
C14A C14 1_555 1_555
H18A C14A 1_555 1_555
H19A C14A 1_555 1_555
O4 Na1A 1_555 1_555
C1 C6 1_555 1_555
C5 C6 1_555 1_555
C7 C12 1_555 1_555
C11 C12 1_555 1_555
Na1A O3A 1_555 1_555
Na1A O4A 1_555 1_555
C1A C6A 1_555 1_555
C5A C6A 1_555 1_555
C7A C12A 1_555 1_555
C11A C12A 1_555 1_555
N1A C13A 1_555 1_555
N2A C14A 1_555 1_555

#END
