
#######################################################################
#
#                 Cambridge Crystallographic Data Centre
#                                CCDC 
#
#######################################################################
#
# If this CIF has been generated from an entry in the Cambridge 
# Structural Database, then it will include bibliographic, chemical, 
# crystal, experimental, refinement or atomic coordinate data resulting 
# from the CCDC's data processing and validation procedures.
#
#######################################################################

data_JEYPUB
_chemical_formula_moiety         'C37 H31 N1 O4 S1'
_chemical_name_systematic        
1-[(4-methylphenyl)sulfonyl]-8-(naphthalen-2-yl)-4-phenyl-1,5,6,8-tetrahydro-2H-[1]benzofuro[2,3-c][1,5]oxazecine
_symmetry_cell_setting           orthorhombic
_symmetry_space_group_name_H-M   'P 21 21 21'
_symmetry_Int_Tables_number      19
_space_group_name_Hall           'P 2ac 2ab'
loop_
_symmetry_equiv_pos_site_id
_symmetry_equiv_pos_as_xyz
1 x,y,z
2 1/2-x,-y,1/2+z
3 -x,1/2+y,1/2-z
4 1/2+x,1/2-y,-z
_cell_length_a                   10.5915(5)
_cell_length_b                   13.0140(6)
_cell_length_c                   22.8876(10)
_cell_angle_alpha                90
_cell_angle_beta                 90
_cell_angle_gamma                90
_cell_volume                     3154.78
_exptl_crystal_colour            colorless
_exptl_crystal_description       parallelepiped
_cell_formula_units_Z            4
loop_
_atom_site_label
_atom_site_type_symbol
_atom_site_fract_x
_atom_site_fract_y
_atom_site_fract_z
S1 S 0.52726(4) 0.31508(4) 0.37065(2)
N1 N 0.61154(14) 0.31252(12) 0.30984(6)
O1 O 0.58206(11) 0.52096(9) 0.20721(5)
O2 O 0.52018(11) 0.32047(9) 0.14901(5)
O3 O 0.41995(13) 0.37915(14) 0.35944(6)
O4 O 0.50998(17) 0.21012(12) 0.38760(6)
C1 C 0.71859(19) 0.23747(16) 0.30706(8)
H1 H 0.6863 0.1674 0.3150
H2 H 0.7813 0.2545 0.3377
C2 C 0.78190(17) 0.23920(13) 0.24818(8)
H3 H 0.8646 0.2673 0.2466
C3 C 0.73337(16) 0.20521(12) 0.19785(8)
C4 C 0.60213(16) 0.15951(13) 0.19313(8)
H4 H 0.5593 0.1660 0.2314
H5 H 0.6096 0.0853 0.1841
C5 C 0.52042(17) 0.21065(13) 0.14625(8)
H6 H 0.5513 0.1892 0.1073
H7 H 0.4326 0.1857 0.1504
C6 C 0.45903(16) 0.36095(13) 0.19989(7)
H8 H 0.4366 0.3023 0.2261
C7 C 0.55235(15) 0.42721(13) 0.23084(7)
C8 C 0.67713(16) 0.56027(14) 0.24175(8)
C9 C 0.73307(17) 0.65572(14) 0.23416(9)
H9 H 0.7090 0.7009 0.2035
C10 C 0.82663(18) 0.68104(16) 0.27423(9)
H10 H 0.8672 0.7459 0.2713
C11 C 0.86253(18) 0.61346(17) 0.31871(9)
H11 H 0.9281 0.6330 0.3448
C12 C 0.80486(17) 0.51870(16) 0.32576(8)
H12 H 0.8299 0.4733 0.3561
C13 C 0.70816(16) 0.49198(14) 0.28659(8)
C14 C 0.62282(16) 0.40628(14) 0.27865(7)
C15 C 0.33926(16) 0.41780(14) 0.18461(8)
C16 C 0.31461(17) 0.45075(14) 0.12916(9)
H13 H 0.3729 0.4361 0.0987
C17 C 0.20279(19) 0.50674(15) 0.11648(11)
C18 C 0.1777(2) 0.54697(17) 0.06022(13)
H14 H 0.2348 0.5345 0.0290
C19 C 0.0700(3) 0.6045(2) 0.05076(17)
H15 H 0.0545 0.6327 0.0132
C20 C -0.0167(3) 0.6217(3) 0.0959(2)
H16 H -0.0908 0.6607 0.0886
C21 C 0.0045(2) 0.5835(2) 0.14934(19)
H17 H -0.0558 0.5953 0.1793
C22 C 0.11548(19) 0.52547(19) 0.16235(13)
C23 C 0.14254(19) 0.48997(19) 0.21915(12)
H18 H 0.0839 0.5017 0.2498
C24 C 0.25212(18) 0.43897(17) 0.23039(10)
H19 H 0.2706 0.4173 0.2691
C25 C 0.81028(16) 0.21113(13) 0.14355(8)
C26 C 0.81362(19) 0.12954(16) 0.10384(9)
H20 H 0.7631 0.0704 0.1104
C27 C 0.8907(2) 0.13469(19) 0.05470(10)
H21 H 0.8933 0.0785 0.0282
C28 C 0.9636(2) 0.2210(2) 0.04408(9)
H22 H 1.0160 0.2241 0.0104
C29 C 0.95998(19) 0.30274(17) 0.08267(9)
H23 H 1.0099 0.3621 0.0755
C30 C 0.88366(17) 0.29827(14) 0.13182(8)
H24 H 0.8811 0.3551 0.1579
C31 C 0.62084(18) 0.37569(15) 0.42421(8)
C32 C 0.60857(19) 0.48064(16) 0.43398(8)
H25 H 0.5488 0.5199 0.4126
C33 C 0.6848(2) 0.52708(16) 0.47542(8)
H26 H 0.6771 0.5989 0.4820
C34 C 0.7724(2) 0.47097(17) 0.50761(8)
C35 C 0.7839(2) 0.36572(18) 0.49640(9)
H27 H 0.8441 0.3264 0.5175
C36 C 0.7089(2) 0.31793(16) 0.45501(8)
H28 H 0.7175 0.2464 0.4477
C37 C 0.8498(2) 0.5207(2) 0.55495(10)
H29 H 0.8605 0.5939 0.5462
H30 H 0.9328 0.4876 0.5570
H31 H 0.8065 0.5131 0.5925
loop_
_geom_bond_atom_site_label_1
_geom_bond_atom_site_label_2
_geom_bond_site_symmetry_1
_geom_bond_site_symmetry_2
S1 N1 1_555 1_555
N1 C1 1_555 1_555
O1 C7 1_555 1_555
O2 C5 1_555 1_555
O3 S1 1_555 1_555
O4 S1 1_555 1_555
C1 H1 1_555 1_555
H2 C1 1_555 1_555
C2 C1 1_555 1_555
H3 C2 1_555 1_555
C3 C2 1_555 1_555
C4 C3 1_555 1_555
H4 C4 1_555 1_555
H5 C4 1_555 1_555
C5 C4 1_555 1_555
H6 C5 1_555 1_555
H7 C5 1_555 1_555
C6 O2 1_555 1_555
H8 C6 1_555 1_555
C7 C6 1_555 1_555
C8 O1 1_555 1_555
C9 C8 1_555 1_555
H9 C9 1_555 1_555
C10 C9 1_555 1_555
H10 C10 1_555 1_555
C11 C10 1_555 1_555
H11 C11 1_555 1_555
C12 C11 1_555 1_555
H12 C12 1_555 1_555
C13 C8 1_555 1_555
C14 N1 1_555 1_555
C15 C6 1_555 1_555
C16 C15 1_555 1_555
H13 C16 1_555 1_555
C17 C16 1_555 1_555
C18 C17 1_555 1_555
H14 C18 1_555 1_555
C19 C18 1_555 1_555
H15 C19 1_555 1_555
C20 C19 1_555 1_555
H16 C20 1_555 1_555
C21 C20 1_555 1_555
H17 C21 1_555 1_555
C22 C17 1_555 1_555
C23 C22 1_555 1_555
H18 C23 1_555 1_555
C24 C15 1_555 1_555
H19 C24 1_555 1_555
C25 C3 1_555 1_555
C26 C25 1_555 1_555
H20 C26 1_555 1_555
C27 C26 1_555 1_555
H21 C27 1_555 1_555
C28 C27 1_555 1_555
H22 C28 1_555 1_555
C29 C28 1_555 1_555
H23 C29 1_555 1_555
C30 C25 1_555 1_555
H24 C30 1_555 1_555
C31 S1 1_555 1_555
C32 C31 1_555 1_555
H25 C32 1_555 1_555
C33 C32 1_555 1_555
H26 C33 1_555 1_555
C34 C33 1_555 1_555
C35 C34 1_555 1_555
H27 C35 1_555 1_555
C36 C31 1_555 1_555
H28 C36 1_555 1_555
C37 C34 1_555 1_555
H29 C37 1_555 1_555
H30 C37 1_555 1_555
H31 C37 1_555 1_555
C7 C14 1_555 1_555
C12 C13 1_555 1_555
C13 C14 1_555 1_555
C21 C22 1_555 1_555
C23 C24 1_555 1_555
C29 C30 1_555 1_555
C35 C36 1_555 1_555

#END
