
#######################################################################
#
#                 Cambridge Crystallographic Data Centre
#                                CCDC 
#
#######################################################################
#
# If this CIF has been generated from an entry in the Cambridge 
# Structural Database, then it will include bibliographic, chemical, 
# crystal, experimental, refinement or atomic coordinate data resulting 
# from the CCDC's data processing and validation procedures.
#
#######################################################################

data_JEYROV
_chemical_formula_moiety         'C11 H10 Br1 N3 O1'
_chemical_name_systematic        
1-(4-Bromophenyl)-3-(1H-1,2,4-triazol-1-yl)propan-1-one
_symmetry_cell_setting           monoclinic
_symmetry_space_group_name_H-M   'P 21/c'
_symmetry_Int_Tables_number      14
_space_group_name_Hall           '-P 2ybc'
loop_
_symmetry_equiv_pos_site_id
_symmetry_equiv_pos_as_xyz
1 x,y,z
2 -x,1/2+y,1/2-z
3 -x,-y,-z
4 x,1/2-y,1/2+z
_cell_length_a                   9.0287(13)
_cell_length_b                   25.662(4)
_cell_length_c                   10.8103(15)
_cell_angle_alpha                90
_cell_angle_beta                 113.712(2)
_cell_angle_gamma                90
_cell_volume                     2293.24
_exptl_crystal_colour            colorless
_exptl_crystal_description       plate
_cell_formula_units_Z            8
_exptl_crystal_recrystallization_method 'ethyl acetate'
loop_
_atom_site_label
_atom_site_type_symbol
_atom_site_fract_x
_atom_site_fract_y
_atom_site_fract_z
Br1 Br 1.04383(6) 1.041472(18) 0.18632(6)
O1 O 0.8752(4) 0.82227(12) 0.4684(3)
N1 N 0.6809(3) 0.72305(12) 0.3159(3)
N2 N 0.6577(4) 0.70069(14) 0.1956(3)
N3 N 0.8335(4) 0.65338(14) 0.3685(4)
C1 C 0.9825(5) 0.91872(16) 0.4087(4)
H1 H 1.0281 0.9079 0.4983
C2 C 1.0378(5) 0.96363(17) 0.3722(4)
H2 H 1.1185 0.9834 0.4365
C3 C 0.9715(5) 0.97873(15) 0.2389(4)
C4 C 0.8523(6) 0.95002(17) 0.1419(4)
H3 H 0.8102 0.9604 0.0518
C5 C 0.7968(5) 0.90574(16) 0.1807(4)
H4 H 0.7150 0.8864 0.1160
C6 C 0.8601(4) 0.88917(14) 0.3145(4)
C7 C 0.8016(4) 0.84125(15) 0.3580(4)
C8 C 0.6460(4) 0.81683(14) 0.2630(4)
H5 H 0.6583 0.8063 0.1814
H6 H 0.5611 0.8429 0.2378
C9 C 0.5930(4) 0.76987(15) 0.3201(4)
H7 H 0.6100 0.7770 0.4130
H8 H 0.4783 0.7641 0.2689
C10 C 0.7858(4) 0.69431(16) 0.4152(4)
H9 H 0.8208 0.7023 0.5065
C11 C 0.7518(5) 0.65968(17) 0.2342(5)
H10 H 0.7615 0.6362 0.1724
Br2 Br 0.55403(7) 1.01548(2) 0.26776(6)
O2 O 0.0865(3) 0.79905(12) 0.2112(3)
N4 N 0.2351(4) 0.69687(13) 0.3742(3)
N5 N 0.3883(5) 0.67840(15) 0.4392(4)
N6 N 0.2692(5) 0.63953(15) 0.2378(4)
C12 C 0.4020(5) 0.88782(16) 0.4174(4)
H11 H 0.4281 0.8729 0.5020
C13 C 0.4820(5) 0.93174(18) 0.4064(5)
H12 H 0.5622 0.9462 0.4829
C14 C 0.4436(5) 0.95439(16) 0.2822(5)
C15 C 0.3231(5) 0.93338(17) 0.1682(5)
H13 H 0.2961 0.9492 0.0845
C16 C 0.2430(5) 0.88891(16) 0.1788(4)
H14 H 0.1624 0.8748 0.1020
C17 C 0.2819(4) 0.86487(15) 0.3042(4)
C18 C 0.1954(5) 0.81657(16) 0.3116(4)
C19 C 0.2453(5) 0.78898(16) 0.4456(4)
H15 H 0.2163 0.8105 0.5062
H16 H 0.3620 0.7850 0.4850
C20 C 0.1680(5) 0.73591(17) 0.4347(4)
H17 H 0.1824 0.7244 0.5242
H18 H 0.0527 0.7389 0.3807
C21 C 0.1690(5) 0.6729(2) 0.2560(4)
H19 H 0.0641 0.6789 0.1932
C22 C 0.4004(6) 0.64464(17) 0.3530(5)
H20 H 0.4942 0.6255 0.3708
loop_
_geom_bond_atom_site_label_1
_geom_bond_atom_site_label_2
_geom_bond_site_symmetry_1
_geom_bond_site_symmetry_2
Br1 C3 1_555 1_555
Br2 C14 1_555 1_555
O1 C7 1_555 1_555
O2 C18 1_555 1_555
N1 N2 1_555 1_555
N2 C11 1_555 1_555
N3 C10 1_555 1_555
N4 N5 1_555 1_555
N5 C22 1_555 1_555
N6 C21 1_555 1_555
C1 H1 1_555 1_555
C2 C1 1_555 1_555
H2 C2 1_555 1_555
C3 C2 1_555 1_555
C4 C3 1_555 1_555
H3 C4 1_555 1_555
C5 C4 1_555 1_555
H4 C5 1_555 1_555
C6 C1 1_555 1_555
C7 C6 1_555 1_555
C8 C7 1_555 1_555
H5 C8 1_555 1_555
H6 C8 1_555 1_555
C9 N1 1_555 1_555
H7 C9 1_555 1_555
H8 C9 1_555 1_555
C10 N1 1_555 1_555
H9 C10 1_555 1_555
C11 N3 1_555 1_555
H10 C11 1_555 1_555
C12 H11 1_555 1_555
C13 C12 1_555 1_555
H12 C13 1_555 1_555
C14 C13 1_555 1_555
C15 C14 1_555 1_555
H13 C15 1_555 1_555
C16 C15 1_555 1_555
H14 C16 1_555 1_555
C17 C12 1_555 1_555
C18 C17 1_555 1_555
C19 C18 1_555 1_555
H15 C19 1_555 1_555
H16 C19 1_555 1_555
C20 N4 1_555 1_555
H17 C20 1_555 1_555
H18 C20 1_555 1_555
C21 N4 1_555 1_555
H19 C21 1_555 1_555
C22 N6 1_555 1_555
H20 C22 1_555 1_555
C5 C6 1_555 1_555
C8 C9 1_555 1_555
C16 C17 1_555 1_555
C19 C20 1_555 1_555

#END
