
#######################################################################
#
#                 Cambridge Crystallographic Data Centre
#                                CCDC 
#
#######################################################################
#
# If this CIF has been generated from an entry in the Cambridge 
# Structural Database, then it will include bibliographic, chemical, 
# crystal, experimental, refinement or atomic coordinate data resulting 
# from the CCDC's data processing and validation procedures.
#
#######################################################################

data_JEYSEM
_chemical_formula_moiety         'C15 H14 Br2 Cl1 N1 O3 S1'
_chemical_name_systematic        
'Benzyl 6,6-dibromo-2\b-chloromethyl-2\a-methylpenicillanate'
_symmetry_cell_setting           orthorhombic
_symmetry_space_group_name_H-M   'P 21 21 21'
_symmetry_Int_Tables_number      19
_space_group_name_Hall           'P 2ac 2ab'
loop_
_symmetry_equiv_pos_site_id
_symmetry_equiv_pos_as_xyz
1 x,y,z
2 1/2-x,-y,1/2+z
3 -x,1/2+y,1/2-z
4 1/2+x,1/2-y,-z
_cell_length_a                   6.35220(10)
_cell_length_b                   15.6712(2)
_cell_length_c                   17.9940(2)
_cell_angle_alpha                90
_cell_angle_beta                 90
_cell_angle_gamma                90
_cell_volume                     1791.24
_exptl_crystal_colour            colorless
_exptl_crystal_description       prism
_chemical_melting_point          '412-413 K'
_cell_formula_units_Z            4
_exptl_crystal_recrystallization_method hexane/dichloromethane
loop_
_atom_site_label
_atom_site_type_symbol
_atom_site_fract_x
_atom_site_fract_y
_atom_site_fract_z
Br1 Br 0.60805(5) 0.40400(2) 0.628296(17)
Br2 Br 0.99515(5) 0.485181(17) 0.71633(2)
C1 C 0.8656(10) -0.1177(3) 1.0105(3)
H1 H 0.9639 -0.1591 0.9975
C2 C 0.6809(10) -0.1406(3) 1.0404(2)
H2 H 0.6506 -0.1983 1.0458
C3 C 0.5408(8) -0.0840(3) 1.0624(2)
H3 H 0.4167 -0.1017 1.0851
C4 C 0.5803(7) 0.0030(3) 1.05142(19)
H4 H 0.4806 0.0434 1.0654
C5 C 0.7651(5) 0.02819(17) 1.02011(15)
C6 C 0.9097(8) -0.0311(2) 0.9990(2)
H5 H 1.0359 -0.0144 0.9772
C7 C 0.8089(6) 0.12103(17) 1.00641(16)
H6 H 0.7106 0.1563 1.0340
H7 H 0.9508 0.1353 1.0220
C8 C 0.7815(4) 0.21501(15) 0.90397(15)
C9 C 0.7415(4) 0.21846(14) 0.82062(14)
H8 H 0.8086 0.1691 0.7971
C10 C 0.5019(4) 0.21874(13) 0.80057(14)
C11 C 0.3591(5) 0.17379(17) 0.85646(17)
H9 H 0.2153 0.1788 0.8407
H10 H 0.3753 0.1998 0.9044
H11 H 0.3970 0.1146 0.8594
C12 C 0.4693(4) 0.18451(15) 0.72219(15)
H12 H 0.5537 0.2175 0.6877
H13 H 0.3226 0.1913 0.7084
C13 C 0.6937(4) 0.37177(13) 0.78891(15)
H14 H 0.7319 0.4128 0.8277
C14 C 0.7930(4) 0.39435(15) 0.71165(14)
C15 C 0.9000(4) 0.30635(14) 0.71728(15)
Cl1 Cl 0.54073(12) 0.07348(4) 0.71496(5)
N1 N 0.8294(3) 0.29592(12) 0.78919(12)
O1 O 0.7842(4) 0.13503(11) 0.92626(10)
O2 O 0.8066(4) 0.27665(12) 0.94281(11)
O3 O 0.9998(4) 0.26154(12) 0.67690(11)
S1 S 0.42737(10) 0.33321(4) 0.79851(4)
loop_
_geom_bond_atom_site_label_1
_geom_bond_atom_site_label_2
_geom_bond_site_symmetry_1
_geom_bond_site_symmetry_2
Br1 C14 1_555 1_555
Br2 C14 1_555 1_555
C1 H1 1_555 1_555
C2 C1 1_555 1_555
H2 C2 1_555 1_555
C3 C2 1_555 1_555
H3 C3 1_555 1_555
C4 C3 1_555 1_555
H4 C4 1_555 1_555
C5 C4 1_555 1_555
C6 C1 1_555 1_555
H5 C6 1_555 1_555
C7 C5 1_555 1_555
H6 C7 1_555 1_555
H7 C7 1_555 1_555
C8 C9 1_555 1_555
C9 H8 1_555 1_555
C10 C9 1_555 1_555
C11 C10 1_555 1_555
H9 C11 1_555 1_555
H10 C11 1_555 1_555
H11 C11 1_555 1_555
C12 C10 1_555 1_555
H12 C12 1_555 1_555
H13 C12 1_555 1_555
C13 H14 1_555 1_555
C14 C13 1_555 1_555
C15 C14 1_555 1_555
Cl1 C12 1_555 1_555
N1 C9 1_555 1_555
O1 C7 1_555 1_555
O2 C8 1_555 1_555
O3 C15 1_555 1_555
S1 C10 1_555 1_555
C5 C6 1_555 1_555
C8 O1 1_555 1_555
C13 N1 1_555 1_555
C13 S1 1_555 1_555
C15 N1 1_555 1_555

#END
