
#######################################################################
#
#                 Cambridge Crystallographic Data Centre
#                                CCDC 
#
#######################################################################
#
# If this CIF has been generated from an entry in the Cambridge 
# Structural Database, then it will include bibliographic, chemical, 
# crystal, experimental, refinement or atomic coordinate data resulting 
# from the CCDC's data processing and validation procedures.
#
#######################################################################

data_JEYSUC
_chemical_formula_moiety         'C18 H16 Br1 N3 O1'
_chemical_name_systematic        
(E)-4-((2-Bromobenzylidene)amino)-1,5-dimethyl-2-phenyl-1H-pyrazol-3(2H)-one
_symmetry_cell_setting           orthorhombic
_symmetry_space_group_name_H-M   'P 21 21 21'
_symmetry_Int_Tables_number      19
_space_group_name_Hall           'P 2ac 2ab'
loop_
_symmetry_equiv_pos_site_id
_symmetry_equiv_pos_as_xyz
1 x,y,z
2 1/2-x,-y,1/2+z
3 -x,1/2+y,1/2-z
4 1/2+x,1/2-y,-z
_cell_length_a                   6.8306(4)
_cell_length_b                   13.6140(8)
_cell_length_c                   17.9391(10)
_cell_angle_alpha                90
_cell_angle_beta                 90
_cell_angle_gamma                90
_cell_volume                     1668.19
_exptl_crystal_colour            colorless
_exptl_crystal_description       prism
_cell_formula_units_Z            4
_exptl_crystal_recrystallization_method 'dichloromethane/absolute ethanol'
loop_
_atom_site_label
_atom_site_type_symbol
_atom_site_fract_x
_atom_site_fract_y
_atom_site_fract_z
Br1 Br 0.02002(13) 0.15360(6) 0.23073(5)
C1 C 0.1930(7) 0.0555(4) 0.2688(3)
C2 C 0.1436(9) -0.0412(4) 0.2553(3)
H1 H 0.0281 -0.0569 0.2306
C3 C 0.2676(10) -0.1134(4) 0.2789(3)
H2 H 0.2367 -0.1790 0.2704
C4 C 0.4390(9) -0.0892(4) 0.3156(3)
H3 H 0.5242 -0.1382 0.3314
C5 C 0.4818(8) 0.0065(3) 0.3282(3)
H4 H 0.5976 0.0215 0.3530
C6 C 0.3612(7) 0.0835(3) 0.3060(2)
C7 C 0.4081(7) 0.1855(3) 0.3241(3)
H5 H 0.3267 0.2360 0.3081
C8 C 0.5974(7) 0.3018(3) 0.3841(2)
C9 C 0.4719(7) 0.3868(3) 0.3787(2)
C10 C 0.4883(6) 0.5422(3) 0.4522(2)
C11 C 0.3898(7) 0.6111(3) 0.4104(3)
H6 H 0.3895 0.6063 0.3587
C12 C 0.2934(8) 0.6859(3) 0.4440(3)
H7 H 0.2262 0.7316 0.4152
C13 C 0.2940(8) 0.6949(4) 0.5202(3)
H8 H 0.2263 0.7459 0.5431
C14 C 0.3968(8) 0.6270(4) 0.5630(3)
H9 H 0.4023 0.6337 0.6145
C15 C 0.4899(7) 0.5501(3) 0.5285(3)
H10 H 0.5544 0.5030 0.5570
C16 C 0.9154(7) 0.4871(4) 0.4575(3)
H11 H 1.0154 0.4536 0.4852
H12 H 0.8725 0.5437 0.4850
H13 H 0.9670 0.5076 0.4102
C17 C 0.7656(6) 0.3269(3) 0.4218(2)
C18 C 0.9392(8) 0.2653(4) 0.4369(3)
H14 H 1.0528 0.2952 0.4151
H15 H 0.9200 0.2013 0.4157
H16 H 0.9575 0.2594 0.4898
N1 N 0.5614(6) 0.2051(2) 0.36214(18)
N2 N 0.7506(6) 0.4213(3) 0.4456(2)
N3 N 0.5795(5) 0.4612(2) 0.41553(19)
O1 O 0.3066(5) 0.3982(2) 0.35531(19)
loop_
_geom_bond_atom_site_label_1
_geom_bond_atom_site_label_2
_geom_bond_site_symmetry_1
_geom_bond_site_symmetry_2
Br1 C1 1_555 1_555
C1 C2 1_555 1_555
C2 H1 1_555 1_555
C3 C2 1_555 1_555
H2 C3 1_555 1_555
C4 C3 1_555 1_555
H3 C4 1_555 1_555
C5 C4 1_555 1_555
H4 C5 1_555 1_555
C6 C1 1_555 1_555
C7 C6 1_555 1_555
H5 C7 1_555 1_555
C8 C9 1_555 1_555
C9 N3 1_555 1_555
C10 C11 1_555 1_555
C11 H6 1_555 1_555
C12 C11 1_555 1_555
H7 C12 1_555 1_555
C13 C12 1_555 1_555
H8 C13 1_555 1_555
C14 C13 1_555 1_555
H9 C14 1_555 1_555
C15 C10 1_555 1_555
H10 C15 1_555 1_555
C16 H11 1_555 1_555
H12 C16 1_555 1_555
H13 C16 1_555 1_555
C17 C8 1_555 1_555
C18 C17 1_555 1_555
H14 C18 1_555 1_555
H15 C18 1_555 1_555
H16 C18 1_555 1_555
N1 C7 1_555 1_555
N2 C16 1_555 1_555
N3 C10 1_555 1_555
O1 C9 1_555 1_555
C5 C6 1_555 1_555
C8 N1 1_555 1_555
C14 C15 1_555 1_555
C17 N2 1_555 1_555
N2 N3 1_555 1_555

#END
