
#######################################################################
#
#                 Cambridge Crystallographic Data Centre
#                                CCDC 
#
#######################################################################
#
# If this CIF has been generated from an entry in the Cambridge 
# Structural Database, then it will include bibliographic, chemical, 
# crystal, experimental, refinement or atomic coordinate data resulting 
# from the CCDC's data processing and validation procedures.
#
#######################################################################

data_JEYTOZ
_chemical_formula_moiety         'C35 H41 Br1 O5 P1 1+,Cl1 1-'
_chemical_name_systematic        
'[{2-[(benzenecarbonyl)oxy]-5-bromophenyl}(4-hydroxy-2-oxo-2H-1-benzopyran-3-yl)methyl](tributyl)phosphonium chloride'
_symmetry_cell_setting           monoclinic
_symmetry_space_group_name_H-M   'P 21/c'
_symmetry_Int_Tables_number      14
_space_group_name_Hall           '-P 2ybc'
loop_
_symmetry_equiv_pos_site_id
_symmetry_equiv_pos_as_xyz
1 x,y,z
2 -x,1/2+y,1/2-z
3 -x,-y,-z
4 x,1/2-y,1/2+z
_cell_length_a                   10.2940(8)
_cell_length_b                   17.3775(15)
_cell_length_c                   18.7982(15)
_cell_angle_alpha                90
_cell_angle_beta                 93.376(2)
_cell_angle_gamma                90
_cell_volume                     3356.86
_exptl_crystal_colour            colorless
_exptl_crystal_description       prism
_cell_formula_units_Z            4
loop_
_atom_site_label
_atom_site_type_symbol
_atom_site_fract_x
_atom_site_fract_y
_atom_site_fract_z
C1 C 0.0889(4) 0.4242(2) 0.2444(2)
C2 C 0.1712(4) 0.3648(2) 0.2662(2)
H1 H 0.1496 0.3128 0.2550
C3 C 0.2844(4) 0.3826(2) 0.3046(2)
H2 H 0.3422 0.3428 0.3207
C4 C 0.3149(4) 0.4589(2) 0.31988(19)
C5 C 0.2314(3) 0.51877(19) 0.29864(17)
C6 C 0.1168(4) 0.5000(2) 0.2603(2)
H3 H 0.0575 0.5394 0.2449
C7 C 0.5430(5) 0.4619(3) 0.3408(2)
C8 C 0.6477(5) 0.4936(3) 0.3893(3)
C9 C 0.7775(6) 0.4811(4) 0.3749(3)
H4 H 0.7972 0.4493 0.3360
C10 C 0.8720(6) 0.5123(4) 0.4138(5)
H5 H 0.9592 0.5065 0.4007
C11 C 0.8458(7) 0.5544(5) 0.4751(5)
H6 H 0.9150 0.5710 0.5071
C12 C 0.7202(7) 0.5711(4) 0.4879(3)
H7 H 0.7019 0.6041 0.5264
C13 C 0.6218(5) 0.5413(3) 0.4465(3)
H8 H 0.5343 0.5528 0.4562
C14 C 0.2683(4) 0.60154(19) 0.31854(18)
H9 H 0.3411 0.5952 0.3557
C15 C 0.1670(4) 0.64513(19) 0.35708(19)
C16 C 0.0549(4) 0.6780(2) 0.3185(2)
C17 C -0.0224(5) 0.7223(3) 0.4292(2)
C18 C -0.1258(6) 0.7564(4) 0.4617(3)
H10 H -0.2001 0.7743 0.4342
C19 C -0.1180(7) 0.7636(4) 0.5341(4)
H11 H -0.1881 0.7865 0.5571
C20 C -0.0095(6) 0.7381(4) 0.5749(3)
H12 H -0.0059 0.7437 0.6252
C21 C 0.0933(5) 0.7046(3) 0.5421(2)
H13 H 0.1678 0.6874 0.5699
C22 C 0.0872(4) 0.6959(2) 0.4679(2)
C23 C 0.1861(4) 0.6568(2) 0.42892(19)
C24 C 0.3510(5) 0.7539(2) 0.2726(2)
H14 H 0.3833 0.7844 0.2328
H15 H 0.2618 0.7718 0.2807
C25 C 0.4390(5) 0.7694(3) 0.3402(3)
H16 H 0.4230 0.7293 0.3761
H17 H 0.5312 0.7654 0.3283
C26 C 0.4168(6) 0.8470(3) 0.3722(3)
H18 H 0.3286 0.8483 0.3905
H19 H 0.4201 0.8865 0.3344
C27 C 0.5158(7) 0.8672(4) 0.4324(4)
H20 H 0.4959 0.9181 0.4514
H21 H 0.6032 0.8677 0.4144
H22 H 0.5123 0.8287 0.4704
C28 C 0.5141(9) 0.6180(5) 0.2479(5)
H23 H 0.5502 0.6151 0.2978
H24 H 0.5135 0.5653 0.2280
C29 C 0.6030(7) 0.6691(5) 0.2050(4)
H25 H 0.6281 0.7158 0.2326
H26 H 0.5566 0.6852 0.1598
C30 C 0.7320(9) 0.6198(8) 0.1882(6)
H27 H 0.8026 0.6558 0.1772
H28 H 0.7613 0.5904 0.2313
C31 C 0.7086(11) 0.5656(7) 0.1277(7)
H29 H 0.7889 0.5375 0.1197
H30 H 0.6813 0.5946 0.0846
H31 H 0.6401 0.5291 0.1388
C32 C 0.2565(7) 0.6461(5) 0.1607(5)
H32 H 0.1624 0.6519 0.1678
H33 H 0.2824 0.6898 0.1308
C33 C 0.2759(12) 0.5714(6) 0.1191(5)
H34 H 0.2497 0.5264 0.1472
H35 H 0.3684 0.5653 0.1085
C34 C 0.1851(15) 0.5778(9) 0.0455(7)
H36 H 0.0929 0.5863 0.0556
H37 H 0.2143 0.6207 0.0156
C35 C 0.2023(10) 0.4999(6) 0.0081(6)
H38 H 0.1516 0.4997 -0.0377
H39 H 0.1717 0.4584 0.0382
H40 H 0.2945 0.4919 0.0000
Br1 Br -0.06929(5) 0.40040(3) 0.19138(3)
O1 O 0.4253(3) 0.47804(15) 0.36230(14)
O2 O 0.5586(4) 0.4284(2) 0.28536(19)
O3 O 0.0367(3) 0.67855(17) 0.25418(15)
H41 H 0.3181 0.6488 0.5021
O4 O -0.0374(3) 0.71380(17) 0.35616(16)
O5 O 0.2931(3) 0.62901(16) 0.46174(13)
P1 P 0.34427(11) 0.65431(6) 0.24709(5)
Cl1 Cl 0.44636(16) 0.70521(10) 0.57327(8)
C36? C 0.487(2) 0.6159(14) 0.2395(12)
H42? H 0.5343 0.6193 0.2869
H43? H 0.4733 0.5605 0.2294
C37? C 0.5819(18) 0.6462(18) 0.1842(13)
H44? H 0.5763 0.6112 0.1426
H45? H 0.5506 0.6973 0.1675
C38? C 0.7246(13) 0.6538(9) 0.2097(8)
H46? H 0.7717 0.6962 0.1872
H47? H 0.7412 0.6533 0.2621
C39? C 0.7370(15) 0.5776(9) 0.1748(9)
H48? H 0.8270 0.5595 0.1817
H49? H 0.7135 0.5825 0.1237
H50? H 0.6787 0.5407 0.1960
C40? C 0.2886(15) 0.6401(9) 0.1578(9)
H51? H 0.1924 0.6426 0.1563
H52? H 0.3181 0.6849 0.1306
C41? C 0.3227(14) 0.5712(8) 0.1181(6)
H53? H 0.3050 0.5251 0.1469
H54? H 0.4170 0.5721 0.1105
C42? C 0.2462(15) 0.5644(9) 0.0447(7)
H55? H 0.2356 0.6156 0.0220
H56? H 0.2923 0.5301 0.0126
C43? C 0.1444(14) 0.5384(9) 0.0568(8)
H57? H 0.0899 0.5347 0.0124
H58? H 0.1019 0.5719 0.0904
H59? H 0.1565 0.4871 0.0777
Cl2? Cl 0.4061(10) 0.6679(6) 0.5999(6)
loop_
_geom_bond_atom_site_label_1
_geom_bond_atom_site_label_2
_geom_bond_site_symmetry_1
_geom_bond_site_symmetry_2
C1 C2 1_555 1_555
C2 H1 1_555 1_555
C3 C2 1_555 1_555
H2 C3 1_555 1_555
C4 C3 1_555 1_555
C5 C4 1_555 1_555
C6 C1 1_555 1_555
H3 C6 1_555 1_555
C7 C8 1_555 1_555
C8 C9 1_555 1_555
C9 H4 1_555 1_555
C10 C9 1_555 1_555
H5 C10 1_555 1_555
C11 C10 1_555 1_555
H6 C11 1_555 1_555
C12 C11 1_555 1_555
H7 C12 1_555 1_555
C13 C8 1_555 1_555
H8 C13 1_555 1_555
C14 C5 1_555 1_555
H9 C14 1_555 1_555
C15 C14 1_555 1_555
C16 C15 1_555 1_555
C17 C18 1_555 1_555
C18 H10 1_555 1_555
C19 C18 1_555 1_555
H11 C19 1_555 1_555
C20 C19 1_555 1_555
H12 C20 1_555 1_555
C21 C20 1_555 1_555
H13 C21 1_555 1_555
C22 C17 1_555 1_555
C23 C15 1_555 1_555
C24 H14 1_555 1_555
H15 C24 1_555 1_555
C25 C24 1_555 1_555
H16 C25 1_555 1_555
H17 C25 1_555 1_555
C26 C25 1_555 1_555
H18 C26 1_555 1_555
H19 C26 1_555 1_555
C27 C26 1_555 1_555
H20 C27 1_555 1_555
H21 C27 1_555 1_555
H22 C27 1_555 1_555
C28 H23 1_555 1_555
H24 C28 1_555 1_555
C29 C28 1_555 1_555
H25 C29 1_555 1_555
H26 C29 1_555 1_555
C30 C29 1_555 1_555
H27 C30 1_555 1_555
H28 C30 1_555 1_555
C31 C30 1_555 1_555
H29 C31 1_555 1_555
H30 C31 1_555 1_555
H31 C31 1_555 1_555
C32 H32 1_555 1_555
H33 C32 1_555 1_555
C33 C32 1_555 1_555
H34 C33 1_555 1_555
H35 C33 1_555 1_555
C34 C33 1_555 1_555
H36 C34 1_555 1_555
H37 C34 1_555 1_555
C35 C34 1_555 1_555
H38 C35 1_555 1_555
H39 C35 1_555 1_555
H40 C35 1_555 1_555
Br1 C1 1_555 1_555
O1 C4 1_555 1_555
O2 C7 1_555 1_555
O3 C16 1_555 1_555
H41 O5 1_555 1_555
O4 C16 1_555 1_555
O5 C23 1_555 1_555
P1 C14 1_555 1_555
C5 C6 1_555 1_555
C7 O1 1_555 1_555
C12 C13 1_555 1_555
C17 O4 1_555 1_555
C21 C22 1_555 1_555
C22 C23 1_555 1_555
C24 P1 1_555 1_555
C28 P1 1_555 1_555
C32 P1 1_555 1_555

#END
