
#######################################################################
#
#                 Cambridge Crystallographic Data Centre
#                                CCDC 
#
#######################################################################
#
# If this CIF has been generated from an entry in the Cambridge 
# Structural Database, then it will include bibliographic, chemical, 
# crystal, experimental, refinement or atomic coordinate data resulting 
# from the CCDC's data processing and validation procedures.
#
#######################################################################

data_JEYTAL
_chemical_formula_moiety         'C28 H26 Ba1 Cl2 N6 O2'
_chemical_name_systematic        
dichloro-bis(2-phenyl-N'-[(pyridin-2-yl)methylidene]acetohydrazide)-barium
_symmetry_cell_setting           monoclinic
_symmetry_space_group_name_H-M   'P 21/c'
_symmetry_Int_Tables_number      14
_space_group_name_Hall           '-P 2ybc'
loop_
_symmetry_equiv_pos_site_id
_symmetry_equiv_pos_as_xyz
1 x,y,z
2 -x,1/2+y,1/2-z
3 -x,-y,-z
4 x,1/2-y,1/2+z
_cell_length_a                   12.464(3)
_cell_length_b                   13.531(3)
_cell_length_c                   8.8035(18)
_cell_angle_alpha                90
_cell_angle_beta                 95.06(3)
_cell_angle_gamma                90
_cell_volume                     1478.93
_exptl_crystal_colour            yellow
_exptl_crystal_description       block
_cell_formula_units_Z            2
loop_
_atom_site_label
_atom_site_type_symbol
_atom_site_fract_x
_atom_site_fract_y
_atom_site_fract_z
Ba1 Ba 0.0000 0.5000 0.5000
Cl1 Cl -0.18454(6) 0.57740(5) 0.28747(8)
O1 O 0.12144(16) 0.45494(14) 0.2517(2)
N1 N -0.13514(16) 0.32746(15) 0.5615(2)
N2 N 0.02651(15) 0.30335(14) 0.3782(2)
N3 N 0.10813(16) 0.29063(14) 0.2842(2)
H1 H 0.1310 0.2325 0.2643
C1 C -0.2204(2) 0.3363(2) 0.6427(3)
H2 H -0.2411 0.3993 0.6706
C2 C -0.2795(2) 0.2562(2) 0.6873(3)
H3 H -0.3391 0.2656 0.7422
C3 C -0.2486(2) 0.1630(2) 0.6492(3)
H4 H -0.2853 0.1079 0.6805
C4 C -0.1621(2) 0.1524(2) 0.5637(3)
H5 H -0.1403 0.0899 0.5349
C5 C -0.10782(19) 0.23572(17) 0.5211(3)
C6 C -0.01851(19) 0.22636(17) 0.4245(3)
H6 H 0.0051 0.1642 0.3973
C7 C 0.15124(19) 0.37131(19) 0.2244(3)
C8 C 0.2408(2) 0.3489(2) 0.1240(3)
H7 H 0.2417 0.2787 0.1022
H8 H 0.2277 0.3839 0.0281
C9 C 0.3483(2) 0.3795(2) 0.2011(3)
C10 C 0.3985(3) 0.4639(4) 0.1658(5)
H9 H 0.3671 0.5048 0.0894
C11 C 0.4975(6) 0.4905(5) 0.2435(12)
H10 H 0.5325 0.5481 0.2180
C12 C 0.5413(4) 0.4310(7) 0.3558(8)
H11 H 0.6067 0.4486 0.4080
C13 C 0.4921(4) 0.3465(6) 0.3938(6)
H12 H 0.5231 0.3067 0.4719
C14 C 0.3964(3) 0.3200(4) 0.3165(4)
H13 H 0.3630 0.2614 0.3415
Cl1B Cl 0.18454(6) 0.42260(5) 0.71253(8)
O1B O -0.12144(16) 0.54506(14) 0.7483(2)
N1B N 0.13514(16) 0.67254(15) 0.4385(2)
N2B N -0.02651(15) 0.69665(14) 0.6218(2)
N3B N -0.10813(16) 0.70937(14) 0.7158(2)
H1B H -0.1310 0.7675 0.7357
C1B C 0.2204(2) 0.6637(2) 0.3573(3)
H2B H 0.2411 0.6007 0.3294
C2B C 0.2795(2) 0.7438(2) 0.3127(3)
H3B H 0.3391 0.7344 0.2578
C3B C 0.2486(2) 0.8370(2) 0.3508(3)
H4B H 0.2853 0.8921 0.3195
C4B C 0.1621(2) 0.8476(2) 0.4363(3)
H5B H 0.1403 0.9101 0.4651
C5B C 0.10782(19) 0.76428(17) 0.4789(3)
C6B C 0.01851(19) 0.77364(17) 0.5755(3)
H6B H -0.0051 0.8358 0.6027
C7B C -0.15124(19) 0.62869(19) 0.7756(3)
C8B C -0.2408(2) 0.6511(2) 0.8760(3)
H7B H -0.2417 0.7213 0.8978
H8B H -0.2277 0.6161 0.9719
C9B C -0.3483(2) 0.6205(2) 0.7989(3)
C10B C -0.3985(3) 0.5361(4) 0.8342(5)
H9B H -0.3671 0.4952 0.9106
C11B C -0.4975(6) 0.5095(5) 0.7565(12)
H10B H -0.5325 0.4519 0.7820
C12B C -0.5413(4) 0.5690(7) 0.6442(8)
H11B H -0.6067 0.5514 0.5920
C13B C -0.4921(4) 0.6535(6) 0.6062(6)
H12B H -0.5231 0.6933 0.5281
C14B C -0.3964(3) 0.6800(4) 0.6835(4)
H13B H -0.3630 0.7386 0.6585
loop_
_geom_bond_atom_site_label_1
_geom_bond_atom_site_label_2
_geom_bond_site_symmetry_1
_geom_bond_site_symmetry_2
Ba1 Cl1 1_555 1_555
O1 Ba1 1_555 1_555
N1 Ba1 1_555 1_555
N2 Ba1 1_555 1_555
N3 N2 1_555 1_555
H1 N3 1_555 1_555
C1 N1 1_555 1_555
H2 C1 1_555 1_555
C2 C1 1_555 1_555
H3 C2 1_555 1_555
C3 C2 1_555 1_555
H4 C3 1_555 1_555
C4 C3 1_555 1_555
H5 C4 1_555 1_555
C5 N1 1_555 1_555
C6 N2 1_555 1_555
H6 C6 1_555 1_555
C7 O1 1_555 1_555
C8 C7 1_555 1_555
H7 C8 1_555 1_555
H8 C8 1_555 1_555
C9 C8 1_555 1_555
C10 C9 1_555 1_555
H9 C10 1_555 1_555
C11 C10 1_555 1_555
H10 C11 1_555 1_555
C12 C11 1_555 1_555
H11 C12 1_555 1_555
C13 C12 1_555 1_555
H12 C13 1_555 1_555
C14 C9 1_555 1_555
H13 C14 1_555 1_555
Cl1B Ba1 1_555 1_555
O1B Ba1 1_555 1_555
N1B Ba1 1_555 1_555
N2B Ba1 1_555 1_555
N3B N2B 1_555 1_555
H1B N3B 1_555 1_555
C1B N1B 1_555 1_555
H2B C1B 1_555 1_555
C2B C1B 1_555 1_555
H3B C2B 1_555 1_555
C3B C2B 1_555 1_555
H4B C3B 1_555 1_555
C4B C3B 1_555 1_555
H5B C4B 1_555 1_555
C5B N1B 1_555 1_555
C6B N2B 1_555 1_555
H6B C6B 1_555 1_555
C7B O1B 1_555 1_555
C8B C7B 1_555 1_555
H7B C8B 1_555 1_555
H8B C8B 1_555 1_555
C9B C8B 1_555 1_555
C10B C9B 1_555 1_555
H9B C10B 1_555 1_555
C11B C10B 1_555 1_555
H10B C11B 1_555 1_555
C12B C11B 1_555 1_555
H11B C12B 1_555 1_555
C13B C12B 1_555 1_555
H12B C13B 1_555 1_555
C14B C9B 1_555 1_555
H13B C14B 1_555 1_555
N3 C7 1_555 1_555
C4 C5 1_555 1_555
C5 C6 1_555 1_555
C13 C14 1_555 1_555
N3B C7B 1_555 1_555
C4B C5B 1_555 1_555
C5B C6B 1_555 1_555
C13B C14B 1_555 1_555

#END
