
#######################################################################
#
#                 Cambridge Crystallographic Data Centre
#                                CCDC 
#
#######################################################################
#
# If this CIF has been generated from an entry in the Cambridge 
# Structural Database, then it will include bibliographic, chemical, 
# crystal, experimental, refinement or atomic coordinate data resulting 
# from the CCDC's data processing and validation procedures.
#
#######################################################################

data_JEYTEN
_chemical_name_common            
4,4'-[2,4-bis(1,3-benzoxazol-2-yl)cyclobutane-1,3-diyl]bis(N,N-dimethylaniline)
_chemical_formula_moiety         'C34 H32 N4 O2'
_chemical_name_systematic        
c-2,t-4-bis(2-benzoxazol-2-yl)-r-1,t-3-bis(4-(dimethylamino)phenyl)cyclobutane
_symmetry_cell_setting           monoclinic
_symmetry_space_group_name_H-M   'C 2/c'
_symmetry_Int_Tables_number      15
_space_group_name_Hall           '-C 2yn'
loop_
_symmetry_equiv_pos_site_id
_symmetry_equiv_pos_as_xyz
1 x,y,z
2 1/2+x,1/2+y,z
3 -x,y,1/2-z
4 1/2-x,1/2+y,1/2-z
5 -x,-y,-z
6 1/2-x,1/2-y,-z
7 x,-y,1/2+z
8 1/2+x,1/2-y,1/2+z
_cell_length_a                   24.441(5)
_cell_length_b                   6.0694(12)
_cell_length_c                   20.101(4)
_cell_angle_alpha                90
_cell_angle_beta                 108.46(3)
_cell_angle_gamma                90
_cell_volume                     2828.4
_exptl_crystal_colour            colorless
_exptl_crystal_description       platelet
_chemical_melting_point          '548.0 K'
_cell_formula_units_Z            4
_exptl_crystal_recrystallization_method dimethylformamide/ethanol
loop_
_atom_site_label
_atom_site_type_symbol
_atom_site_fract_x
_atom_site_fract_y
_atom_site_fract_z
N1 N 0.12010(11) 0.8052(4) 0.42964(14)
O1 O 0.14612(9) 1.1341(4) 0.47938(11)
N2 N 0.36330(13) 0.8422(5) 0.24634(14)
C1 C 0.08670(12) 1.1275(5) 0.45478(15)
C2 C 0.04860(16) 1.2903(7) 0.4566(2)
H1 H 0.0606 1.4271 0.4768
C3 C -0.00897(17) 1.2375(8) 0.4265(2)
H2 H -0.0367 1.3419 0.4268
C4 C -0.02618(16) 1.0406(8) 0.3967(2)
H3 H -0.0655 1.0124 0.3775
C5 C 0.01267(15) 0.8786(7) 0.3937(2)
H4 H 0.0006 0.7439 0.3720
C6 C 0.07010(13) 0.9273(5) 0.42462(15)
C7 C 0.16147(12) 0.9337(5) 0.46173(14)
C8 C 0.22512(12) 0.8992(5) 0.48027(14)
H5 H 0.2444 1.0338 0.4724
C9 C 0.24309(12) 0.7011(5) 0.44503(14)
H6 H 0.2090 0.6119 0.4217
C10 C 0.27671(11) 0.7423(5) 0.39464(14)
C11 C 0.27387(14) 0.5949(6) 0.34313(17)
H7 H 0.2516 0.4687 0.3399
C12 C 0.30281(14) 0.6255(5) 0.29555(17)
H8 H 0.3000 0.5182 0.2616
C13 C 0.33623(12) 0.8109(5) 0.29618(13)
C14 C 0.34013(13) 0.9618(5) 0.34893(16)
H9 H 0.3627 1.0873 0.3523
C15 C 0.31056(13) 0.9282(6) 0.39711(15)
H10 H 0.3136 1.0330 0.4318
C16 C 0.3976(2) 1.0327(8) 0.2478(2)
H11 H 0.3761 1.1620 0.2517
H12 H 0.4076 1.0401 0.2054
H13 H 0.4321 1.0247 0.2874
C17 C 0.3640(2) 0.6713(8) 0.1978(2)
H14 H 0.3259 0.6117 0.1783
H15 H 0.3899 0.5568 0.2217
H16 H 0.3767 0.7304 0.1609
N1E N 0.37990(11) 0.6948(4) 0.57036(14)
O1E O 0.35388(9) 0.3659(4) 0.52062(11)
N2E N 0.13670(13) 0.6578(5) 0.75366(14)
C1E C 0.41330(12) 0.3725(5) 0.54522(15)
C2E C 0.45140(16) 0.2097(7) 0.5434(2)
H1E H 0.4394 0.0729 0.5232
C3E C 0.50897(17) 0.2625(8) 0.5735(2)
H2E H 0.5367 0.1581 0.5732
C4E C 0.52618(16) 0.4594(8) 0.6033(2)
H3E H 0.5655 0.4876 0.6225
C5E C 0.48733(15) 0.6214(7) 0.6063(2)
H4E H 0.4994 0.7561 0.6280
C6E C 0.42990(13) 0.5727(5) 0.57538(15)
C7E C 0.33853(12) 0.5663(5) 0.53827(14)
C8E C 0.27488(12) 0.6008(5) 0.51973(14)
H5E H 0.2556 0.4662 0.5276
C9E C 0.25691(12) 0.7989(5) 0.55497(14)
H6E H 0.2910 0.8881 0.5783
C10E C 0.22329(11) 0.7577(5) 0.60536(14)
C11E C 0.22613(14) 0.9051(6) 0.65687(17)
H7E H 0.2484 1.0313 0.6601
C12E C 0.19719(14) 0.8745(5) 0.70445(17)
H8E H 0.2000 0.9818 0.7384
C13E C 0.16377(12) 0.6891(5) 0.70382(13)
C14E C 0.15987(13) 0.5382(5) 0.65107(16)
H9E H 0.1373 0.4127 0.6477
C15E C 0.18944(13) 0.5718(6) 0.60289(15)
H10E H 0.1864 0.4670 0.5682
C16E C 0.1024(2) 0.4673(8) 0.7522(2)
H11E H 0.1239 0.3380 0.7483
H12E H 0.0924 0.4599 0.7946
H13E H 0.0679 0.4753 0.7126
C17E C 0.1360(2) 0.8287(8) 0.8022(2)
H14E H 0.1741 0.8883 0.8217
H15E H 0.1101 0.9432 0.7783
H16E H 0.1233 0.7696 0.8391
loop_
_geom_bond_atom_site_label_1
_geom_bond_atom_site_label_2
_geom_bond_site_symmetry_1
_geom_bond_site_symmetry_2
N1 C6 1_555 1_555
O1 C1 1_555 1_555
N2 C13 1_555 1_555
C1 C2 1_555 1_555
C2 H1 1_555 1_555
C3 C2 1_555 1_555
H2 C3 1_555 1_555
C4 C3 1_555 1_555
H3 C4 1_555 1_555
C5 C4 1_555 1_555
H4 C5 1_555 1_555
C6 C1 1_555 1_555
C7 N1 1_555 1_555
C8 C7 1_555 1_555
H5 C8 1_555 1_555
C9 C8 1_555 1_555
H6 C9 1_555 1_555
C10 C9 1_555 1_555
C11 C10 1_555 1_555
H7 C11 1_555 1_555
C12 C11 1_555 1_555
H8 C12 1_555 1_555
C13 C12 1_555 1_555
C14 C13 1_555 1_555
H9 C14 1_555 1_555
C15 C10 1_555 1_555
H10 C15 1_555 1_555
C16 N2 1_555 1_555
H11 C16 1_555 1_555
H12 C16 1_555 1_555
H13 C16 1_555 1_555
C17 N2 1_555 1_555
H14 C17 1_555 1_555
H15 C17 1_555 1_555
H16 C17 1_555 1_555
N1E C6E 1_555 1_555
O1E C1E 1_555 1_555
N2E C13E 1_555 1_555
C1E C2E 1_555 1_555
C2E H1E 1_555 1_555
C3E C2E 1_555 1_555
H2E C3E 1_555 1_555
C4E C3E 1_555 1_555
H3E C4E 1_555 1_555
C5E C4E 1_555 1_555
H4E C5E 1_555 1_555
C6E C1E 1_555 1_555
C7E N1E 1_555 1_555
C8E C9 1_555 1_555
H5E C8E 1_555 1_555
C9E C8 1_555 1_555
H6E C9E 1_555 1_555
C10E C9E 1_555 1_555
C11E C10E 1_555 1_555
H7E C11E 1_555 1_555
C12E C11E 1_555 1_555
H8E C12E 1_555 1_555
C13E C12E 1_555 1_555
C14E C13E 1_555 1_555
H9E C14E 1_555 1_555
C15E C10E 1_555 1_555
H10E C15E 1_555 1_555
C16E N2E 1_555 1_555
H11E C16E 1_555 1_555
H12E C16E 1_555 1_555
H13E C16E 1_555 1_555
C17E N2E 1_555 1_555
H14E C17E 1_555 1_555
H15E C17E 1_555 1_555
H16E C17E 1_555 1_555
O1 C7 1_555 1_555
C5 C6 1_555 1_555
C14 C15 1_555 1_555
O1E C7E 1_555 1_555
C5E C6E 1_555 1_555
C7E C8E 1_555 1_555
C8E C9E 1_555 1_555
C14E C15E 1_555 1_555

#END
