
#######################################################################
#
#                 Cambridge Crystallographic Data Centre
#                                CCDC 
#
#######################################################################
#
# If this CIF has been generated from an entry in the Cambridge 
# Structural Database, then it will include bibliographic, chemical, 
# crystal, experimental, refinement or atomic coordinate data resulting 
# from the CCDC's data processing and validation procedures.
#
#######################################################################

data_JEYVIT
_chemical_formula_moiety         'C18 H11 F4 N1 O1'
_chemical_name_systematic        
1-((5-Fluoro-2-(trifluoromethyl)phenyl)iminomethyl)-2-naphthol
_symmetry_cell_setting           monoclinic
_symmetry_space_group_name_H-M   'P 21/c'
_symmetry_Int_Tables_number      14
_space_group_name_Hall           '-P 2ybc'
loop_
_symmetry_equiv_pos_site_id
_symmetry_equiv_pos_as_xyz
1 x,y,z
2 -x,1/2+y,1/2-z
3 -x,-y,-z
4 x,1/2-y,1/2+z
_cell_length_a                   13.433(3)
_cell_length_b                   13.198(3)
_cell_length_c                   8.275(2)
_cell_angle_alpha                90
_cell_angle_beta                 95.179(5)
_cell_angle_gamma                90
_cell_volume                     1461.08
_exptl_crystal_colour            colorless
_exptl_crystal_description       block
_cell_formula_units_Z            4
_exptl_crystal_recrystallization_method 'dichloromethane/absolute ethanol'
loop_
_atom_site_label
_atom_site_type_symbol
_atom_site_fract_x
_atom_site_fract_y
_atom_site_fract_z
F1 F 0.7857(5) 1.1553(3) 0.6460(5)
F2 F 0.8618(4) 1.2482(3) 0.4943(6)
F3 F 0.7196(4) 1.1967(3) 0.4196(7)
F4 F 0.9570(2) 0.8242(2) 0.2203(4)
O1 O 0.8349(3) 0.6112(3) 0.3508(5)
H1 H 0.8482 0.6718 0.3550
N1 N 0.8113(3) 0.7966(3) 0.4115(5)
C1 C 0.8049(5) 1.1683(4) 0.4967(8)
C2 C 0.8477(4) 1.0764(3) 0.4239(6)
C3 C 0.8084(3) 0.9829(3) 0.4565(6)
H2 H 0.7574 0.9781 0.5250
C4 C 0.8444(3) 0.8957(3) 0.3876(5)
C5 C 0.9209(4) 0.9077(4) 0.2888(6)
C6 C 0.9625(4) 0.9995(5) 0.2565(7)
H3 H 1.0147 1.0040 0.1902
C7 C 0.9249(4) 1.0852(4) 0.3254(7)
H4 H 0.9515 1.1486 0.3055
C8 C 0.7381(3) 0.7716(3) 0.4951(6)
H5 H 0.7030 0.8224 0.5433
C9 C 0.7095(3) 0.6692(3) 0.5155(5)
C10 C 0.7644(4) 0.5921(3) 0.4429(6)
C11 C 0.7421(4) 0.4891(4) 0.4738(7)
H6 H 0.7778 0.4382 0.4268
C12 C 0.6704(4) 0.4638(3) 0.5696(7)
H7 H 0.6585 0.3957 0.5887
C13 C 0.6123(4) 0.5378(4) 0.6426(6)
C14 C 0.5375(4) 0.5104(4) 0.7417(7)
H8 H 0.5269 0.4421 0.7617
C15 C 0.4802(4) 0.5803(5) 0.8094(8)
H9 H 0.4317 0.5600 0.8762
C16 C 0.4945(4) 0.6830(5) 0.7781(7)
H10 H 0.4544 0.7315 0.8217
C17 C 0.5673(4) 0.7120(4) 0.6836(6)
H11 H 0.5765 0.7807 0.6649
C18 C 0.6293(3) 0.6418(3) 0.6133(5)
loop_
_geom_bond_atom_site_label_1
_geom_bond_atom_site_label_2
_geom_bond_site_symmetry_1
_geom_bond_site_symmetry_2
F1 C1 1_555 1_555
F2 C1 1_555 1_555
F3 C1 1_555 1_555
F4 C5 1_555 1_555
O1 H1 1_555 1_555
N1 C4 1_555 1_555
C1 C2 1_555 1_555
C2 C3 1_555 1_555
C3 H2 1_555 1_555
C4 C3 1_555 1_555
C5 C4 1_555 1_555
C6 C5 1_555 1_555
H3 C6 1_555 1_555
C7 C2 1_555 1_555
H4 C7 1_555 1_555
C8 N1 1_555 1_555
H5 C8 1_555 1_555
C9 C8 1_555 1_555
C10 O1 1_555 1_555
C11 C10 1_555 1_555
H6 C11 1_555 1_555
C12 C11 1_555 1_555
H7 C12 1_555 1_555
C13 C12 1_555 1_555
C14 C13 1_555 1_555
H8 C14 1_555 1_555
C15 C14 1_555 1_555
H9 C15 1_555 1_555
C16 C15 1_555 1_555
H10 C16 1_555 1_555
C17 C16 1_555 1_555
H11 C17 1_555 1_555
C18 C9 1_555 1_555
C6 C7 1_555 1_555
C9 C10 1_555 1_555
C13 C18 1_555 1_555
C17 C18 1_555 1_555

#END
