
#######################################################################
#
#                 Cambridge Crystallographic Data Centre
#                                CCDC 
#
#######################################################################
#
# If this CIF has been generated from an entry in the Cambridge 
# Structural Database, then it will include bibliographic, chemical, 
# crystal, experimental, refinement or atomic coordinate data resulting 
# from the CCDC's data processing and validation procedures.
#
#######################################################################

data_JEYYOE
_chemical_formula_moiety         'C22 H17 N3'
_chemical_name_systematic        4'-(4-methylphenyl)-4,2':6',4''-terpyridine
_symmetry_cell_setting           triclinic
_symmetry_space_group_name_H-M   'P -1'
_symmetry_Int_Tables_number      2
_space_group_name_Hall           '-P 1'
loop_
_symmetry_equiv_pos_site_id
_symmetry_equiv_pos_as_xyz
1 x,y,z
2 -x,-y,-z
_cell_length_a                   8.5524(16)
_cell_length_b                   9.5677(18)
_cell_length_c                   11.444(2)
_cell_angle_alpha                89.151(2)
_cell_angle_beta                 69.103(2)
_cell_angle_gamma                73.378(2)
_cell_volume                     834.286
_exptl_crystal_colour            colorless
_exptl_crystal_description       block
_cell_formula_units_Z            2
loop_
_atom_site_label
_atom_site_type_symbol
_atom_site_fract_x
_atom_site_fract_y
_atom_site_fract_z
N1 N -0.2988(2) 0.32389(18) 1.50109(14)
N2 N 0.19180(17) -0.00441(14) 1.13860(12)
N3 N 0.6940(2) -0.46930(17) 1.05344(16)
C1 C -0.2763(2) 0.3960(2) 1.39852(18)
H1 H -0.3420 0.4940 1.4083
C2 C -0.1628(2) 0.33562(19) 1.27921(16)
H2 H -0.1537 0.3922 1.2117
C3 C -0.0621(2) 0.18964(18) 1.26066(15)
C4 C -0.0865(2) 0.11308(19) 1.36589(16)
H3 H -0.0240 0.0145 1.3587
C5 C -0.2037(2) 0.1832(2) 1.48154(16)
H4 H -0.2172 0.1287 1.5505
C6 C 0.0675(2) 0.11771(17) 1.13554(15)
C7 C 0.0618(2) 0.17437(18) 1.02429(15)
H5 H -0.0258 0.2596 1.0262
C8 C 0.1871(2) 0.10359(17) 0.91004(15)
C9 C 0.3116(2) -0.02436(18) 0.91428(15)
H6 H 0.3955 -0.0770 0.8398
C10 C 0.3124(2) -0.07470(17) 1.02860(15)
C11 C 0.7112(3) -0.4070(2) 0.94758(19)
H7 H 0.8097 -0.4518 0.8769
C12 C 0.5946(2) -0.28117(19) 0.93402(17)
H8 H 0.6159 -0.2433 0.8565
C13 C 0.4454(2) -0.21091(17) 1.03606(15)
C14 C 0.4270(2) -0.2740(2) 1.14768(17)
H9 H 0.3308 -0.2307 1.2202
C15 C 0.5511(3) -0.4012(2) 1.15159(19)
H10 H 0.5336 -0.4419 1.2278
C16 C 0.1892(2) 0.16072(18) 0.78815(15)
C17 C 0.0369(2) 0.24612(18) 0.77383(15)
H11 H -0.0685 0.2709 0.8426
C18 C 0.0393(3) 0.29494(19) 0.65912(17)
H12 H -0.0647 0.3516 0.6521
C19 C 0.1930(3) 0.2613(2) 0.55477(16)
C20 C 0.3455(2) 0.1785(2) 0.56959(16)
H13 H 0.4512 0.1556 0.5011
C21 C 0.3437(2) 0.1295(2) 0.68342(16)
H14 H 0.4483 0.0742 0.6904
C22 C 0.1976(3) 0.3127(2) 0.42850(18)
H15 H 0.2769 0.3704 0.4012
H16 H 0.0821 0.3710 0.4356
H17 H 0.2367 0.2292 0.3684
loop_
_geom_bond_atom_site_label_1
_geom_bond_atom_site_label_2
_geom_bond_site_symmetry_1
_geom_bond_site_symmetry_2
N1 C1 1_555 1_555
N2 C6 1_555 1_555
N3 C11 1_555 1_555
C1 H1 1_555 1_555
C2 C1 1_555 1_555
H2 C2 1_555 1_555
C3 C2 1_555 1_555
C4 C3 1_555 1_555
H3 C4 1_555 1_555
C5 N1 1_555 1_555
H4 C5 1_555 1_555
C6 C3 1_555 1_555
C7 C6 1_555 1_555
H5 C7 1_555 1_555
C8 C7 1_555 1_555
C9 C8 1_555 1_555
H6 C9 1_555 1_555
C10 N2 1_555 1_555
C11 H7 1_555 1_555
C12 C11 1_555 1_555
H8 C12 1_555 1_555
C13 C10 1_555 1_555
C14 C13 1_555 1_555
H9 C14 1_555 1_555
C15 N3 1_555 1_555
H10 C15 1_555 1_555
C16 C8 1_555 1_555
C17 C16 1_555 1_555
H11 C17 1_555 1_555
C18 C17 1_555 1_555
H12 C18 1_555 1_555
C19 C18 1_555 1_555
C20 C19 1_555 1_555
H13 C20 1_555 1_555
C21 C16 1_555 1_555
H14 C21 1_555 1_555
C22 C19 1_555 1_555
H15 C22 1_555 1_555
H16 C22 1_555 1_555
H17 C22 1_555 1_555
C4 C5 1_555 1_555
C9 C10 1_555 1_555
C12 C13 1_555 1_555
C14 C15 1_555 1_555
C20 C21 1_555 1_555

#END
