
#######################################################################
#
#                 Cambridge Crystallographic Data Centre
#                                CCDC 
#
#######################################################################
#
# If this CIF has been generated from an entry in the Cambridge 
# Structural Database, then it will include bibliographic, chemical, 
# crystal, experimental, refinement or atomic coordinate data resulting 
# from the CCDC's data processing and validation procedures.
#
#######################################################################

data_JEYZIX
_chemical_name_common            'Quinidine sesquihydrate'
_chemical_formula_moiety         'C20 H24 N2 O2,1.5(H2 O1)'
_chemical_name_systematic        
'(1S,3R,4S,8R,9S)-4-(hydroxy(5-vinyl-1-azabicyclo(2.2.2)oct-2-yl)methyl)-6-methoxyquinoline sesquihydrate'
_symmetry_cell_setting           orthorhombic
_symmetry_space_group_name_H-M   'P 21 21 21'
_symmetry_Int_Tables_number      19
_space_group_name_Hall           'P 2ac 2ab'
loop_
_symmetry_equiv_pos_site_id
_symmetry_equiv_pos_as_xyz
1 x,y,z
2 1/2+x,1/2-y,-z
3 -x,1/2+y,1/2-z
4 1/2-x,-y,1/2+z
_cell_length_a                   12.0742(10)
_cell_length_b                   17.5445(15)
_cell_length_c                   17.6675(16)
_cell_angle_alpha                90
_cell_angle_beta                 90
_cell_angle_gamma                90
_cell_volume                     3742.61
_exptl_crystal_colour            colorless
_exptl_crystal_description       block
_cell_formula_units_Z            8
loop_
_atom_site_label
_atom_site_type_symbol
_atom_site_fract_x
_atom_site_fract_y
_atom_site_fract_z
C1 C 0.3133(2) 0.90446(17) 0.69057(17)
H1 H 0.2948 0.9375 0.6499
C2 C 0.3996(2) 0.85114(16) 0.67905(17)
H2 H 0.4373 0.8492 0.6319
C3 C 0.4287(2) 0.80224(15) 0.73644(16)
C4 C 0.3714(2) 0.80806(15) 0.80687(16)
C5 C 0.2862(2) 0.86372(15) 0.81329(16)
C6 C 0.2288(2) 0.87170(16) 0.88303(17)
H3 H 0.1714 0.9084 0.8874
C7 C 0.2551(3) 0.82734(17) 0.94388(18)
H4 H 0.2171 0.8338 0.9905
C8 C 0.3402(2) 0.77108(16) 0.93716(16)
C9 C 0.3972(2) 0.76172(16) 0.87054(16)
H5 H 0.4538 0.7243 0.8670
C10 C 0.4395(3) 0.66997(17) 0.99760(18)
H6 H 0.4184 0.6343 0.9574
H7 H 0.4425 0.6429 1.0461
H8 H 0.5124 0.6917 0.9863
C11 C 0.5195(2) 0.74264(15) 0.72518(16)
H9 H 0.5657 0.7405 0.7721
C12 C 0.4661(2) 0.66379(15) 0.71280(16)
H10 H 0.4050 0.6592 0.7507
C13 C 0.4126(2) 0.65418(15) 0.63445(16)
H11 H 0.4515 0.6863 0.5968
H12 H 0.3340 0.6700 0.6362
C14 C 0.4214(2) 0.56965(16) 0.61209(17)
H13 H 0.3731 0.5587 0.5674
C15 C 0.3863(3) 0.52067(16) 0.67986(18)
H14 H 0.3817 0.4664 0.6648
H15 H 0.3126 0.5370 0.6984
C16 C 0.4743(3) 0.53113(16) 0.74259(19)
H16 H 0.4369 0.5367 0.7922
H17 H 0.5220 0.4853 0.7449
C17 C 0.6130(2) 0.58427(17) 0.65993(19)
H18 H 0.6729 0.5481 0.6734
H19 H 0.6480 0.6323 0.6429
C18 C 0.5431(2) 0.55022(16) 0.59392(18)
H20 H 0.5517 0.4935 0.5946
C19 C 0.5790(3) 0.57895(19) 0.5178(2)
H21 H 0.5795 0.6326 0.5104
C20 C 0.6097(3) 0.5362(2) 0.4605(2)
H22 H 0.6105 0.4823 0.4654
H23 H 0.6313 0.5593 0.4141
N1 N 0.2567(2) 0.91133(13) 0.75442(14)
N3 N 0.5442(2) 0.59964(13) 0.72793(14)
O1 O 0.35914(18) 0.73010(11) 1.00211(11)
O2 O 0.58971(17) 0.76096(12) 0.66289(12)
H47 H 0.632(3) 0.799(2) 0.6835(19)
C21 C 0.7018(3) 1.12505(16) 0.27480(18)
H24 H 0.7171 1.1618 0.3129
C22 C 0.6136(2) 1.07376(16) 0.28666(18)
H25 H 0.5708 1.0770 0.3317
C23 C 0.5893(2) 1.01922(15) 0.23361(16)
C24 C 0.6567(2) 1.01572(15) 0.16698(17)
C25 C 0.7432(2) 1.07017(16) 0.15967(17)
C26 C 0.8126(3) 1.06797(17) 0.09418(18)
H26 H 0.8708 1.1041 0.0891
C27 C 0.7967(3) 1.01506(17) 0.03915(18)
H27 H 0.8440 1.0140 -0.0038
C28 C 0.7089(3) 0.96090(17) 0.04590(17)
C29 C 0.6405(2) 0.96107(16) 0.10787(17)
H28 H 0.5822 0.9249 0.1116
C30 C 0.6149(3) 0.85639(18) -0.0115(2)
H29 H 0.6237 0.8254 0.0342
H30 H 0.6196 0.8236 -0.0563
H31 H 0.5425 0.8817 -0.0105
C31 C 0.4956(2) 0.96273(15) 0.24632(18)
H32 H 0.4561 0.9544 0.1973
C32 C 0.5464(2) 0.88563(15) 0.27278(16)
H33 H 0.6182 0.8795 0.2453
C33 C 0.5729(2) 0.88168(16) 0.35828(16)
H34 H 0.5234 0.9163 0.3868
H35 H 0.6505 0.8973 0.3675
C34 C 0.5551(2) 0.79824(16) 0.38432(18)
H36 H 0.5865 0.7902 0.4361
C35 C 0.6105(3) 0.74444(17) 0.32684(18)
H37 H 0.6890 0.7590 0.3195
H38 H 0.6079 0.6913 0.3455
C36 C 0.5468(2) 0.75133(15) 0.25187(18)
H39 H 0.6003 0.7540 0.2095
H40 H 0.5006 0.7053 0.2446
C37 C 0.3850(2) 0.80971(17) 0.30706(16)
H41 H 0.3298 0.7732 0.2870
H42 H 0.3473 0.8591 0.3152
C38 C 0.4297(3) 0.78004(17) 0.38329(17)
H43 H 0.4210 0.7234 0.3839
C39 C 0.3665(3) 0.81176(19) 0.44905(19)
H44 H 0.3755 0.8644 0.4600
C40 C 0.2990(3) 0.7722(2) 0.49307(19)
H45 H 0.2878 0.7194 0.4840
H46 H 0.2618 0.7966 0.5338
N2 N 0.7645(2) 1.12477(13) 0.21345(15)
N4 N 0.47507(19) 0.81985(12) 0.25053(14)
O3 O 0.70048(18) 0.91247(12) -0.01442(12)
O4 O 0.41797(18) 0.98959(11) 0.30112(13)
H48 H 0.374(3) 1.018(2) 0.281(2)
O5 O 0.3701(2) 0.84591(13) 0.11638(13)
H49 H 0.404(3) 0.830(2) 0.1591(18)
H50 H 0.378(4) 0.8066(18) 0.087(2)
O6 O 0.1419(2) 0.87830(17) 0.12935(14)
H51 H 0.117(4) 0.887(2) 0.1757(17)
H52 H 0.215(2) 0.869(2) 0.130(2)
O7 O 0.0922(3) 0.98855(19) 0.0197(2)
H53 H 0.106(5) 0.951(2) 0.061(2)
H54 H 0.161(3) 1.003(3) 0.000(3)
loop_
_geom_bond_atom_site_label_1
_geom_bond_atom_site_label_2
_geom_bond_site_symmetry_1
_geom_bond_site_symmetry_2
C1 H1 1_555 1_555
C2 C1 1_555 1_555
H2 C2 1_555 1_555
C3 C2 1_555 1_555
C4 C3 1_555 1_555
C5 C4 1_555 1_555
C6 C5 1_555 1_555
H3 C6 1_555 1_555
C7 C6 1_555 1_555
H4 C7 1_555 1_555
C8 C7 1_555 1_555
C9 C4 1_555 1_555
H5 C9 1_555 1_555
C10 H6 1_555 1_555
H7 C10 1_555 1_555
H8 C10 1_555 1_555
C11 C3 1_555 1_555
H9 C11 1_555 1_555
C12 C11 1_555 1_555
H10 C12 1_555 1_555
C13 C12 1_555 1_555
H11 C13 1_555 1_555
H12 C13 1_555 1_555
C14 C13 1_555 1_555
H13 C14 1_555 1_555
C15 C14 1_555 1_555
H14 C15 1_555 1_555
H15 C15 1_555 1_555
C16 C15 1_555 1_555
H16 C16 1_555 1_555
H17 C16 1_555 1_555
C17 H18 1_555 1_555
H19 C17 1_555 1_555
C18 C14 1_555 1_555
H20 C18 1_555 1_555
C19 C18 1_555 1_555
H21 C19 1_555 1_555
C20 C19 1_555 1_555
H22 C20 1_555 1_555
H23 C20 1_555 1_555
C21 H24 1_555 1_555
C22 C21 1_555 1_555
H25 C22 1_555 1_555
C23 C22 1_555 1_555
C24 C23 1_555 1_555
C25 C24 1_555 1_555
C26 C25 1_555 1_555
H26 C26 1_555 1_555
C27 C26 1_555 1_555
H27 C27 1_555 1_555
C28 C27 1_555 1_555
C29 C24 1_555 1_555
H28 C29 1_555 1_555
C30 H29 1_555 1_555
H30 C30 1_555 1_555
H31 C30 1_555 1_555
C31 C23 1_555 1_555
H32 C31 1_555 1_555
C32 C31 1_555 1_555
H33 C32 1_555 1_555
C33 C32 1_555 1_555
H34 C33 1_555 1_555
H35 C33 1_555 1_555
C34 C33 1_555 1_555
H36 C34 1_555 1_555
C35 C34 1_555 1_555
H37 C35 1_555 1_555
H38 C35 1_555 1_555
C36 C35 1_555 1_555
H39 C36 1_555 1_555
H40 C36 1_555 1_555
C37 H41 1_555 1_555
H42 C37 1_555 1_555
C38 C34 1_555 1_555
H43 C38 1_555 1_555
C39 C38 1_555 1_555
H44 C39 1_555 1_555
C40 C39 1_555 1_555
H45 C40 1_555 1_555
H46 C40 1_555 1_555
N1 C1 1_555 1_555
N2 C21 1_555 1_555
N3 C12 1_555 1_555
N4 C32 1_555 1_555
O1 C8 1_555 1_555
O2 C11 1_555 1_555
H47 O2 1_555 1_555
O3 C28 1_555 1_555
O4 C31 1_555 1_555
H48 O4 1_555 1_555
O5 H49 1_555 1_555
H50 O5 1_555 1_555
O6 H51 1_555 1_555
H52 O6 1_555 1_555
O7 H53 1_555 1_555
H54 O7 1_555 1_555
C5 N1 1_555 1_555
C8 C9 1_555 1_555
C10 O1 1_555 1_555
C16 N3 1_555 1_555
C17 C18 1_555 1_555
C17 N3 1_555 1_555
C25 N2 1_555 1_555
C28 C29 1_555 1_555
C30 O3 1_555 1_555
C36 N4 1_555 1_555
C37 C38 1_555 1_555
C37 N4 1_555 1_555

#END
