
#######################################################################
#
#                 Cambridge Crystallographic Data Centre
#                                CCDC 
#
#######################################################################
#
# If this CIF has been generated from an entry in the Cambridge 
# Structural Database, then it will include bibliographic, chemical, 
# crystal, experimental, refinement or atomic coordinate data resulting 
# from the CCDC's data processing and validation procedures.
#
#######################################################################

data_JEZCOJ
_chemical_formula_moiety         'C63 H93 N3 P3'
_chemical_name_systematic        
'3,5,6-tris{1-[2,6-diisopropylphenyl]-3,3,5,5-tetramethylpyrrolidin-2-ylidene}-1,2,4-triphosphabicyclo[2.1.1]hexan-2-yl radical'
_symmetry_cell_setting           monoclinic
_symmetry_space_group_name_H-M   'C c'
_symmetry_Int_Tables_number      9
_space_group_name_Hall           'C -2yc'
loop_
_symmetry_equiv_pos_site_id
_symmetry_equiv_pos_as_xyz
1 x,y,z
2 x,-y,1/2+z
3 1/2+x,1/2+y,z
4 1/2+x,1/2-y,1/2+z
_cell_length_a                   23.6849(5)
_cell_length_b                   14.0359(2)
_cell_length_c                   18.3663(5)
_cell_angle_alpha                90
_cell_angle_beta                 107.353(2)
_cell_angle_gamma                90
_cell_volume                     5827.77
_exptl_crystal_colour            green
_exptl_crystal_description       block
_cell_formula_units_Z            4
loop_
_atom_site_label
_atom_site_type_symbol
_atom_site_fract_x
_atom_site_fract_y
_atom_site_fract_z
P1 P 0.19741(5) 0.31129(7) 0.37952(6)
P2 P 0.22444(5) 0.28575(8) 0.24845(6)
P3 P 0.21886(6) 0.44259(8) 0.25841(8)
N1 N 0.35705(16) 0.1991(3) 0.3568(3)
N2 N 0.06443(16) 0.1858(3) 0.2731(2)
C1 C 0.2291(2) 0.6425(3) 0.3184(3)
C2 C 0.1297(2) 0.6804(3) 0.2181(3)
H1 H 0.1146 0.6516 0.2572
C3 C 0.0142(2) 0.3146(4) 0.3187(3)
C4 C 0.20351(19) 0.4383(3) 0.3511(3)
C5 C 0.1963(2) 0.6771(3) 0.2457(3)
C6 C 0.26252(19) 0.2705(3) 0.3517(3)
C7 C 0.2915(2) 0.6408(3) 0.3390(3)
C8 C 0.0941(2) 0.1887(4) 0.1601(3)
C9 C 0.0598(2) 0.1849(4) 0.4056(3)
C10 C 0.3515(2) 0.1980(4) 0.2205(3)
C11 C 0.3415(2) 0.2266(4) 0.4778(3)
C12 C 0.15812(19) 0.2652(3) 0.2821(3)
C13 C 0.3088(2) 0.0671(3) 0.2750(3)
C14 C 0.1799(2) 0.6784(3) 0.4224(3)
C15 C 0.31568(19) 0.2353(3) 0.3908(3)
C16 C 0.3194(2) 0.6727(4) 0.2866(4)
H2 H 0.3605 0.6717 0.3000
C17 C 0.1099(2) 0.2167(3) 0.2456(3)
C18 C 0.3989(2) 0.1700(4) 0.4873(3)
H3 H 0.4300 0.1931 0.5311
H4 H 0.3925 0.1029 0.4948
C19 C -0.0384(2) 0.1194(4) 0.2224(4)
H5 H -0.0396 0.1054 0.2731
H6 H -0.0617 0.0734 0.1874
H7 H -0.0540 0.1820 0.2080
C20 C 0.2913(2) 0.0244(4) 0.2025(4)
H8 H 0.2709 -0.0331 0.1959
C21 C 0.4160(2) 0.1845(3) 0.4144(3)
C22 C 0.2271(3) 0.7086(4) 0.1962(3)
H9 H 0.2060 0.7322 0.1486
C23 C 0.04757(19) 0.2290(3) 0.3341(3)
C24 C 0.4477(2) 0.0985(4) 0.3957(4)
H10 H 0.4237 0.0428 0.3932
H11 H 0.4848 0.0901 0.4346
H12 H 0.4548 0.1080 0.3474
N3 N 0.19973(16) 0.6105(2) 0.3717(2)
C25 C 0.3544(2) 0.3234(4) 0.5167(4)
H13 H 0.3886 0.3508 0.5071
H14 H 0.3616 0.3158 0.5706
H15 H 0.3210 0.3647 0.4968
C26 C -0.0056(2) 0.3525(4) 0.3772(3)
H16 H -0.0277 0.4084 0.3681
C27 C 0.3338(3) 0.1515(5) 0.1508(4)
H17 H 0.3424 0.1785 0.1091
C28 C 0.19686(19) 0.5154(3) 0.3929(3)
C29 C 0.0381(2) 0.2264(4) 0.4612(3)
H18 H 0.0453 0.1966 0.5083
C30 C -0.0005(2) 0.3658(4) 0.2437(3)
H19 H 0.0084 0.3226 0.2066
C31 C 0.2879(3) 0.7056(4) 0.2160(4)
H20 H 0.3074 0.7257 0.1817
C32 C 0.1073(3) 0.7833(4) 0.2056(4)
H21 H 0.1223 0.8186 0.2522
H22 H 0.0648 0.7836 0.1904
H23 H 0.1207 0.8123 0.1664
C33 C 0.4553(2) 0.2724(4) 0.4189(4)
H24 H 0.4684 0.2752 0.3742
H25 H 0.4890 0.2682 0.4635
H26 H 0.4331 0.3288 0.4217
C34 C 0.3304(2) 0.6048(4) 0.4149(4)
H27 H 0.3048 0.5855 0.4455
C35 C 0.1890(3) 0.6192(4) 0.4932(3)
H28 H 0.1601 0.6360 0.5189
H29 H 0.2282 0.6301 0.5280
C36 C 0.0933(3) 0.2775(5) 0.1121(3)
H30 H 0.0690 0.3253 0.1250
H31 H 0.0777 0.2618 0.0590
H32 H 0.1329 0.3014 0.1221
C37 C 0.33908(19) 0.1542(3) 0.2833(3)
C38 C 0.0316(2) 0.1472(4) 0.1438(3)
H33 H 0.0022 0.1951 0.1209
H34 H 0.0265 0.0936 0.1090
C39 C 0.2267(2) 0.4580(4) 0.5322(3)
H35 H 0.2235 0.3913 0.5201
H36 H 0.2184 0.4682 0.5797
H37 H 0.2660 0.4796 0.5365
C40 C 0.1206(2) 0.4730(4) 0.4589(3)
H38 H 0.0926 0.5029 0.4162
H39 H 0.1095 0.4846 0.5042
H40 H 0.1210 0.4056 0.4501
C41 C 0.2999(2) 0.1723(5) 0.5134(4)
H41 H 0.2663 0.2113 0.5116
H42 H 0.3206 0.1570 0.5655
H43 H 0.2869 0.1146 0.4853
C42 C 0.0064(2) 0.3100(4) 0.4480(3)
H44 H -0.0068 0.3374 0.4861
C43 C 0.1819(2) 0.5139(3) 0.4686(3)
C44 C 0.3827(2) 0.2926(4) 0.2257(4)
H45 H 0.3880 0.3180 0.2770
C45 C 0.2948(2) 0.0171(4) 0.3407(4)
H46 H 0.3140 0.0530 0.3873
C46 C 0.1044(3) 0.6251(4) 0.1436(4)
H47 H 0.1159 0.6557 0.1035
H48 H 0.0620 0.6237 0.1307
H49 H 0.1194 0.5611 0.1500
C47 C 0.0254(2) 0.1151(3) 0.2202(3)
C48 C 0.2145(3) 0.7703(4) 0.4363(4)
H50 H 0.2555 0.7567 0.4609
H51 H 0.1997 0.8111 0.4683
H52 H 0.2105 0.8014 0.3884
C49 C 0.3737(3) 0.6820(5) 0.4600(4)
H53 H 0.4002 0.7003 0.4319
H54 H 0.3960 0.6569 0.5087
H55 H 0.3517 0.7367 0.4674
C50 C 0.0483(3) 0.0128(4) 0.2393(4)
H56 H 0.0902 0.0113 0.2476
H57 H 0.0292 -0.0286 0.1976
H58 H 0.0397 -0.0082 0.2846
C51 C 0.0367(3) 0.4552(4) 0.2476(4)
H59 H 0.0260 0.5015 0.2796
H60 H 0.0296 0.4809 0.1972
H61 H 0.0778 0.4395 0.2684
C52 C 0.1477(3) 0.1026(5) 0.4948(4)
H62 H 0.1731 0.1515 0.4857
H63 H 0.1690 0.0434 0.5050
H64 H 0.1348 0.1197 0.5379
C53 C 0.1369(3) 0.1147(5) 0.1428(4)
H65 H 0.1769 0.1363 0.1639
H66 H 0.1282 0.1073 0.0886
H67 H 0.1321 0.0546 0.1653
C54 C 0.3662(3) 0.5186(5) 0.4052(6)
H68 H 0.3400 0.4664 0.3851
H69 H 0.3930 0.5010 0.4537
H70 H 0.3883 0.5339 0.3705
C55 C 0.3035(3) 0.0653(5) 0.1420(4)
H71 H 0.2915 0.0357 0.0945
C56 C 0.1135(3) 0.7044(4) 0.3900(4)
H72 H 0.1076 0.7436 0.3456
H73 H 0.1011 0.7385 0.4280
H74 H 0.0906 0.6471 0.3766
C57 C 0.0939(2) 0.0915(4) 0.4245(3)
H75 H 0.1079 0.0742 0.3811
C58 C 0.3182(3) -0.0844(4) 0.3523(5)
H76 H 0.2985 -0.1222 0.3085
H77 H 0.3110 -0.1110 0.3968
H78 H 0.3600 -0.0841 0.3589
C59 C 0.2280(2) 0.0164(4) 0.3304(5)
H79 H 0.2127 0.0800 0.3207
H80 H 0.2210 -0.0076 0.3759
H81 H 0.2085 -0.0239 0.2881
C60 C 0.4448(3) 0.2796(6) 0.2160(5)
H82 H 0.4658 0.2310 0.2502
H83 H 0.4662 0.3386 0.2273
H84 H 0.4410 0.2612 0.1644
C61 C -0.0667(2) 0.3929(5) 0.2129(4)
H85 H -0.0906 0.3383 0.2150
H86 H -0.0754 0.4142 0.1610
H87 H -0.0752 0.4432 0.2435
C62 C 0.3480(3) 0.3657(5) 0.1691(4)
H88 H 0.3491 0.3495 0.1188
H89 H 0.3652 0.4276 0.1826
H90 H 0.3077 0.3664 0.1700
C63 C 0.0537(3) 0.0106(5) 0.4371(4)
H91 H 0.0419 0.0240 0.4817
H92 H 0.0750 -0.0486 0.4439
H93 H 0.0193 0.0061 0.3935
loop_
_geom_bond_atom_site_label_1
_geom_bond_atom_site_label_2
_geom_bond_site_symmetry_1
_geom_bond_site_symmetry_2
P1 C4 1_555 1_555
P2 P3 1_555 1_555
P3 C4 1_555 1_555
N1 C15 1_555 1_555
N2 C17 1_555 1_555
C1 C5 1_555 1_555
C2 H1 1_555 1_555
C3 C23 1_555 1_555
C4 C28 1_555 1_555
C5 C2 1_555 1_555
C6 P1 1_555 1_555
C7 C1 1_555 1_555
C8 C17 1_555 1_555
C9 C23 1_555 1_555
C10 C27 1_555 1_555
C11 C15 1_555 1_555
C12 P1 1_555 1_555
C13 C20 1_555 1_555
C14 N3 1_555 1_555
C15 C6 1_555 1_555
C16 C7 1_555 1_555
H2 C16 1_555 1_555
C17 C12 1_555 1_555
C18 C11 1_555 1_555
H3 C18 1_555 1_555
H4 C18 1_555 1_555
C19 H5 1_555 1_555
H6 C19 1_555 1_555
H7 C19 1_555 1_555
C20 H8 1_555 1_555
C21 N1 1_555 1_555
C22 C5 1_555 1_555
H9 C22 1_555 1_555
C23 N2 1_555 1_555
C24 C21 1_555 1_555
H10 C24 1_555 1_555
H11 C24 1_555 1_555
H12 C24 1_555 1_555
N3 C1 1_555 1_555
C25 C11 1_555 1_555
H13 C25 1_555 1_555
H14 C25 1_555 1_555
H15 C25 1_555 1_555
C26 C3 1_555 1_555
H16 C26 1_555 1_555
C27 H17 1_555 1_555
C28 N3 1_555 1_555
C29 C9 1_555 1_555
H18 C29 1_555 1_555
C30 C3 1_555 1_555
H19 C30 1_555 1_555
C31 C16 1_555 1_555
H20 C31 1_555 1_555
C32 C2 1_555 1_555
H21 C32 1_555 1_555
H22 C32 1_555 1_555
H23 C32 1_555 1_555
C33 C21 1_555 1_555
H24 C33 1_555 1_555
H25 C33 1_555 1_555
H26 C33 1_555 1_555
C34 C7 1_555 1_555
H27 C34 1_555 1_555
C35 C14 1_555 1_555
H28 C35 1_555 1_555
H29 C35 1_555 1_555
C36 C8 1_555 1_555
H30 C36 1_555 1_555
H31 C36 1_555 1_555
H32 C36 1_555 1_555
C37 N1 1_555 1_555
C38 C8 1_555 1_555
H33 C38 1_555 1_555
H34 C38 1_555 1_555
C39 H35 1_555 1_555
H36 C39 1_555 1_555
H37 C39 1_555 1_555
C40 H38 1_555 1_555
H39 C40 1_555 1_555
H40 C40 1_555 1_555
C41 C11 1_555 1_555
H41 C41 1_555 1_555
H42 C41 1_555 1_555
H43 C41 1_555 1_555
C42 C26 1_555 1_555
H44 C42 1_555 1_555
C43 C28 1_555 1_555
C44 C10 1_555 1_555
H45 C44 1_555 1_555
C45 C13 1_555 1_555
H46 C45 1_555 1_555
C46 C2 1_555 1_555
H47 C46 1_555 1_555
H48 C46 1_555 1_555
H49 C46 1_555 1_555
C47 N2 1_555 1_555
C48 C14 1_555 1_555
H50 C48 1_555 1_555
H51 C48 1_555 1_555
H52 C48 1_555 1_555
C49 C34 1_555 1_555
H53 C49 1_555 1_555
H54 C49 1_555 1_555
H55 C49 1_555 1_555
C50 C47 1_555 1_555
H56 C50 1_555 1_555
H57 C50 1_555 1_555
H58 C50 1_555 1_555
C51 C30 1_555 1_555
H59 C51 1_555 1_555
H60 C51 1_555 1_555
H61 C51 1_555 1_555
C52 H62 1_555 1_555
H63 C52 1_555 1_555
H64 C52 1_555 1_555
C53 C8 1_555 1_555
H65 C53 1_555 1_555
H66 C53 1_555 1_555
H67 C53 1_555 1_555
C54 C34 1_555 1_555
H68 C54 1_555 1_555
H69 C54 1_555 1_555
H70 C54 1_555 1_555
C55 C20 1_555 1_555
H71 C55 1_555 1_555
C56 C14 1_555 1_555
H72 C56 1_555 1_555
H73 C56 1_555 1_555
H74 C56 1_555 1_555
C57 C9 1_555 1_555
H75 C57 1_555 1_555
C58 C45 1_555 1_555
H76 C58 1_555 1_555
H77 C58 1_555 1_555
H78 C58 1_555 1_555
C59 C45 1_555 1_555
H79 C59 1_555 1_555
H80 C59 1_555 1_555
H81 C59 1_555 1_555
C60 C44 1_555 1_555
H82 C60 1_555 1_555
H83 C60 1_555 1_555
H84 C60 1_555 1_555
C61 C30 1_555 1_555
H85 C61 1_555 1_555
H86 C61 1_555 1_555
H87 C61 1_555 1_555
C62 C44 1_555 1_555
H88 C62 1_555 1_555
H89 C62 1_555 1_555
H90 C62 1_555 1_555
C63 C57 1_555 1_555
H91 C63 1_555 1_555
H92 C63 1_555 1_555
H93 C63 1_555 1_555
P2 C6 1_555 1_555
P2 C12 1_555 1_555
C10 C37 1_555 1_555
C13 C37 1_555 1_555
C18 C21 1_555 1_555
C19 C47 1_555 1_555
C22 C31 1_555 1_555
C27 C55 1_555 1_555
C29 C42 1_555 1_555
C35 C43 1_555 1_555
C38 C47 1_555 1_555
C39 C43 1_555 1_555
C40 C43 1_555 1_555
C52 C57 1_555 1_555

#END
