
#######################################################################
#
#                 Cambridge Crystallographic Data Centre
#                                CCDC 
#
#######################################################################
#
# If this CIF has been generated from an entry in the Cambridge 
# Structural Database, then it will include bibliographic, chemical, 
# crystal, experimental, refinement or atomic coordinate data resulting 
# from the CCDC's data processing and validation procedures.
#
#######################################################################

data_JEZDEA
_chemical_formula_moiety         'C56 H78 N2 P2'
_chemical_name_systematic        
2,2'-(diphosphane-1,2-diylidenedimethanediylidene)bis{1-[2,6-bis(propan-2-yl)phenyl]-5,5-dimethylspiro[pyrrolidine-3,2'-tricyclo[3.3.1.1^3,7^]decane]}
_symmetry_cell_setting           triclinic
_symmetry_space_group_name_H-M   'P -1'
_symmetry_Int_Tables_number      2
_space_group_name_Hall           '-P 1'
loop_
_symmetry_equiv_pos_site_id
_symmetry_equiv_pos_as_xyz
1 x,y,z
2 -x,-y,-z
_cell_length_a                   8.2390(5)
_cell_length_b                   11.7115(6)
_cell_length_c                   13.3024(8)
_cell_angle_alpha                73.781(5)
_cell_angle_beta                 89.272(5)
_cell_angle_gamma                77.806(5)
_cell_volume                     1203.2
_exptl_crystal_colour            'light blue'
_exptl_crystal_description       block
_cell_formula_units_Z            1
loop_
_atom_site_label
_atom_site_type_symbol
_atom_site_fract_x
_atom_site_fract_y
_atom_site_fract_z
P1 P 0.55849(5) 0.49351(4) 0.07795(3)
N1 N 0.29170(17) 0.31012(12) 0.27052(10)
C1 C 0.28841(19) 0.43149(13) 0.21716(11)
C2 C 0.4438(2) 0.21942(13) 0.29358(12)
C3 C 0.1292(2) 0.29345(14) 0.31384(13)
C4 C 0.13271(19) 0.51390(14) 0.24654(12)
C5 C 0.4050(2) 0.46344(13) 0.15254(12)
C6 C 0.0625(2) 0.41853(15) 0.33118(13)
H1 H 0.0976 0.4182 0.4006
H2 H -0.0580 0.4382 0.3253
C7 C 0.4910(2) 0.14099(14) 0.23058(13)
C8 C 0.1783(2) 0.61118(15) 0.29419(12)
H3 H 0.2603 0.5706 0.3528
C9 C 0.5467(2) 0.21142(15) 0.38025(13)
C10 C 0.5098(2) 0.30081(16) 0.44558(13)
H4 H 0.3961 0.3487 0.4264
C11 C 0.0777(2) 0.68022(15) 0.07138(13)
H5 H 0.1768 0.6402 0.0444
H6 H -0.0028 0.7214 0.0132
C12 C 0.2487(2) 0.70738(15) 0.21315(14)
H7 H 0.3499 0.6685 0.1873
H8 H 0.2759 0.7658 0.2459
C13 C 0.1212(2) 0.77361(15) 0.12143(14)
H9 H 0.1684 0.8334 0.0692
C14 C 0.6389(2) 0.05218(15) 0.25836(14)
H10 H 0.6707 -0.0010 0.2177
C15 C 0.0053(2) 0.58480(15) 0.15236(13)
H11 H -0.0245 0.5271 0.1186
C16 C 0.6923(2) 0.12107(16) 0.40417(14)
H12 H 0.7601 0.1141 0.4619
C17 C 0.7380(2) 0.04167(16) 0.34400(15)
H13 H 0.8351 -0.0184 0.3614
C18 C 0.0197(2) 0.67707(16) 0.33478(14)
H14 H -0.0269 0.6182 0.3869
H15 H 0.0475 0.7350 0.3679
C19 C -0.1086(2) 0.74380(16) 0.24433(15)
H16 H -0.2090 0.7846 0.2711
C20 C 0.1497(2) 0.18984(16) 0.41584(14)
H17 H 0.2037 0.1148 0.4025
H18 H 0.0424 0.1829 0.4426
H19 H 0.2160 0.2069 0.4665
C21 C 0.0164(2) 0.26866(16) 0.23526(15)
H20 H 0.0128 0.3286 0.1688
H21 H -0.0937 0.2728 0.2605
H22 H 0.0596 0.1890 0.2273
C22 C -0.1526(2) 0.65242(16) 0.19208(16)
H23 H -0.2324 0.6950 0.1337
H24 H -0.2031 0.5941 0.2421
C23 C 0.3901(2) 0.14733(15) 0.13420(14)
H25 H 0.2992 0.2196 0.1206
C24 C -0.0359(2) 0.83879(16) 0.16291(15)
H26 H -0.0083 0.8977 0.1949
H27 H -0.1171 0.8818 0.1055
C25 C 0.6282(2) 0.38858(17) 0.41891(15)
H28 H 0.7404 0.3439 0.4383
H29 H 0.6000 0.4483 0.4568
H30 H 0.6184 0.4286 0.3450
C26 C 0.5203(3) 0.2372(2) 0.56335(15)
H31 H 0.4517 0.1782 0.5778
H32 H 0.4823 0.2964 0.6006
H33 H 0.6335 0.1970 0.5855
C27 C 0.4965(3) 0.15933(18) 0.03812(15)
H34 H 0.5433 0.2300 0.0276
H35 H 0.4286 0.1675 -0.0226
H36 H 0.5844 0.0881 0.0492
C28 C 0.3142(3) 0.03492(19) 0.15211(18)
H37 H 0.4014 -0.0362 0.1596
H38 H 0.2409 0.0448 0.0933
H39 H 0.2529 0.0256 0.2147
P1A P 0.44151(5) 0.50649(4) -0.07795(3)
N1A N 0.70830(17) 0.68988(12) -0.27052(10)
C1A C 0.71159(19) 0.56851(13) -0.21716(11)
C2A C 0.5562(2) 0.78058(13) -0.29358(12)
C3A C 0.8708(2) 0.70655(14) -0.31384(13)
C4A C 0.86729(19) 0.48610(14) -0.24654(12)
C5A C 0.5950(2) 0.53656(13) -0.15254(12)
C6A C 0.9375(2) 0.58147(15) -0.33118(13)
H1A H 0.9024 0.5818 -0.4006
H2A H 1.0580 0.5618 -0.3253
C7A C 0.5090(2) 0.85901(14) -0.23058(13)
C8A C 0.8217(2) 0.38882(15) -0.29419(12)
H3A H 0.7397 0.4294 -0.3528
C9A C 0.4533(2) 0.78858(15) -0.38025(13)
C10A C 0.4902(2) 0.69919(16) -0.44558(13)
H4A H 0.6039 0.6513 -0.4264
C11A C 0.9223(2) 0.31978(15) -0.07138(13)
H5A H 0.8232 0.3598 -0.0444
H6A H 1.0028 0.2786 -0.0132
C12A C 0.7513(2) 0.29262(15) -0.21315(14)
H7A H 0.6501 0.3315 -0.1873
H8A H 0.7241 0.2342 -0.2459
C13A C 0.8788(2) 0.22639(15) -0.12143(14)
H9A H 0.8316 0.1666 -0.0692
C14A C 0.3611(2) 0.94782(15) -0.25836(14)
H10A H 0.3293 1.0010 -0.2177
C15A C 0.9947(2) 0.41520(15) -0.15236(13)
H11A H 1.0245 0.4729 -0.1186
C16A C 0.3077(2) 0.87893(16) -0.40417(14)
H12A H 0.2399 0.8859 -0.4619
C17A C 0.2620(2) 0.95833(16) -0.34400(15)
H13A H 0.1649 1.0184 -0.3614
C18A C 0.9803(2) 0.32293(16) -0.33478(14)
H14A H 1.0269 0.3818 -0.3869
H15A H 0.9525 0.2650 -0.3679
C19A C 1.1086(2) 0.25620(16) -0.24433(15)
H16A H 1.2090 0.2154 -0.2711
C20A C 0.8503(2) 0.81016(16) -0.41584(14)
H17A H 0.7963 0.8852 -0.4025
H18A H 0.9576 0.8171 -0.4426
H19A H 0.7840 0.7931 -0.4665
C21A C 0.9836(2) 0.73134(16) -0.23526(15)
H20A H 0.9872 0.6714 -0.1688
H21A H 1.0937 0.7272 -0.2605
H22A H 0.9404 0.8110 -0.2273
C22A C 1.1526(2) 0.34758(16) -0.19208(16)
H23A H 1.2324 0.3050 -0.1337
H24A H 1.2031 0.4059 -0.2421
C23A C 0.6099(2) 0.85267(15) -0.13420(14)
H25A H 0.7008 0.7804 -0.1206
C24A C 1.0359(2) 0.16121(16) -0.16291(15)
H26A H 1.0083 0.1023 -0.1949
H27A H 1.1171 0.1182 -0.1055
C25A C 0.3718(2) 0.61142(17) -0.41891(15)
H28A H 0.2596 0.6561 -0.4383
H29A H 0.4000 0.5517 -0.4568
H30A H 0.3816 0.5714 -0.3450
C26A C 0.4797(3) 0.7628(2) -0.56335(15)
H31A H 0.5483 0.8218 -0.5778
H32A H 0.5177 0.7036 -0.6006
H33A H 0.3665 0.8030 -0.5855
C27A C 0.5035(3) 0.84067(18) -0.03812(15)
H34A H 0.4567 0.7700 -0.0276
H35A H 0.5714 0.8325 0.0226
H36A H 0.4156 0.9119 -0.0492
C28A C 0.6858(3) 0.96508(19) -0.15211(18)
H37A H 0.5986 1.0362 -0.1596
H38A H 0.7591 0.9552 -0.0933
H39A H 0.7471 0.9744 -0.2147
loop_
_geom_bond_atom_site_label_1
_geom_bond_atom_site_label_2
_geom_bond_site_symmetry_1
_geom_bond_site_symmetry_2
P1 C5 1_555 1_555
N1 C1 1_555 1_555
C1 C4 1_555 1_555
C2 N1 1_555 1_555
C3 N1 1_555 1_555
C4 C6 1_555 1_555
C5 C1 1_555 1_555
C6 C3 1_555 1_555
H1 C6 1_555 1_555
H2 C6 1_555 1_555
C7 C2 1_555 1_555
C8 C4 1_555 1_555
H3 C8 1_555 1_555
C9 C2 1_555 1_555
C10 C9 1_555 1_555
H4 C10 1_555 1_555
C11 H5 1_555 1_555
H6 C11 1_555 1_555
C12 C8 1_555 1_555
H7 C12 1_555 1_555
H8 C12 1_555 1_555
C13 C11 1_555 1_555
H9 C13 1_555 1_555
C14 C7 1_555 1_555
H10 C14 1_555 1_555
C15 C4 1_555 1_555
H11 C15 1_555 1_555
C16 C9 1_555 1_555
H12 C16 1_555 1_555
C17 C14 1_555 1_555
H13 C17 1_555 1_555
C18 C8 1_555 1_555
H14 C18 1_555 1_555
H15 C18 1_555 1_555
C19 C18 1_555 1_555
H16 C19 1_555 1_555
C20 C3 1_555 1_555
H17 C20 1_555 1_555
H18 C20 1_555 1_555
H19 C20 1_555 1_555
C21 C3 1_555 1_555
H20 C21 1_555 1_555
H21 C21 1_555 1_555
H22 C21 1_555 1_555
C22 C15 1_555 1_555
H23 C22 1_555 1_555
H24 C22 1_555 1_555
C23 C7 1_555 1_555
H25 C23 1_555 1_555
C24 C13 1_555 1_555
H26 C24 1_555 1_555
H27 C24 1_555 1_555
C25 C10 1_555 1_555
H28 C25 1_555 1_555
H29 C25 1_555 1_555
H30 C25 1_555 1_555
C26 C10 1_555 1_555
H31 C26 1_555 1_555
H32 C26 1_555 1_555
H33 C26 1_555 1_555
C27 C23 1_555 1_555
H34 C27 1_555 1_555
H35 C27 1_555 1_555
H36 C27 1_555 1_555
C28 C23 1_555 1_555
H37 C28 1_555 1_555
H38 C28 1_555 1_555
H39 C28 1_555 1_555
P1A P1 1_555 1_555
N1A C1A 1_555 1_555
C1A C4A 1_555 1_555
C2A N1A 1_555 1_555
C3A N1A 1_555 1_555
C4A C6A 1_555 1_555
C5A P1A 1_555 1_555
C6A C3A 1_555 1_555
H1A C6A 1_555 1_555
H2A C6A 1_555 1_555
C7A C2A 1_555 1_555
C8A C4A 1_555 1_555
H3A C8A 1_555 1_555
C9A C2A 1_555 1_555
C10A C9A 1_555 1_555
H4A C10A 1_555 1_555
C11A H5A 1_555 1_555
H6A C11A 1_555 1_555
C12A C8A 1_555 1_555
H7A C12A 1_555 1_555
H8A C12A 1_555 1_555
C13A C11A 1_555 1_555
H9A C13A 1_555 1_555
C14A C7A 1_555 1_555
H10A C14A 1_555 1_555
C15A C4A 1_555 1_555
H11A C15A 1_555 1_555
C16A C9A 1_555 1_555
H12A C16A 1_555 1_555
C17A C14A 1_555 1_555
H13A C17A 1_555 1_555
C18A C8A 1_555 1_555
H14A C18A 1_555 1_555
H15A C18A 1_555 1_555
C19A C18A 1_555 1_555
H16A C19A 1_555 1_555
C20A C3A 1_555 1_555
H17A C20A 1_555 1_555
H18A C20A 1_555 1_555
H19A C20A 1_555 1_555
C21A C3A 1_555 1_555
H20A C21A 1_555 1_555
H21A C21A 1_555 1_555
H22A C21A 1_555 1_555
C22A C15A 1_555 1_555
H23A C22A 1_555 1_555
H24A C22A 1_555 1_555
C23A C7A 1_555 1_555
H25A C23A 1_555 1_555
C24A C13A 1_555 1_555
H26A C24A 1_555 1_555
H27A C24A 1_555 1_555
C25A C10A 1_555 1_555
H28A C25A 1_555 1_555
H29A C25A 1_555 1_555
H30A C25A 1_555 1_555
C26A C10A 1_555 1_555
H31A C26A 1_555 1_555
H32A C26A 1_555 1_555
H33A C26A 1_555 1_555
C27A C23A 1_555 1_555
H34A C27A 1_555 1_555
H35A C27A 1_555 1_555
H36A C27A 1_555 1_555
C28A C23A 1_555 1_555
H37A C28A 1_555 1_555
H38A C28A 1_555 1_555
H39A C28A 1_555 1_555
C11 C15 1_555 1_555
C12 C13 1_555 1_555
C16 C17 1_555 1_555
C19 C22 1_555 1_555
C19 C24 1_555 1_555
C1A C5A 1_555 1_555
C11A C15A 1_555 1_555
C12A C13A 1_555 1_555
C16A C17A 1_555 1_555
C19A C22A 1_555 1_555
C19A C24A 1_555 1_555

#END
