
#######################################################################
#
#                 Cambridge Crystallographic Data Centre
#                                CCDC 
#
#######################################################################
#
# If this CIF has been generated from an entry in the Cambridge 
# Structural Database, then it will include bibliographic, chemical, 
# crystal, experimental, refinement or atomic coordinate data resulting 
# from the CCDC's data processing and validation procedures.
#
#######################################################################

data_JEZDUQ
_chemical_formula_moiety         'C69 H105 N3 P3 1+,C6 H5 F1,F6 P1 1-'
_chemical_name_systematic        
'5-(3,5-bis{1-[2,6-diisopropylphenyl]-3,3-diethyl-5,5-dimethylpyrrolidin-2-ylidene}-2,4,6-triphosphatricyclo[2.2.0.0^2,6^]hexan-1-yl)-1-[2,6-diisopropylphenyl]-4,4-diethyl-2,2-dimethyl-3,4-dihydro-2H-pyrrol-1-ium hexafluorophosphate fluorobenzene solvate'
_symmetry_cell_setting           monoclinic
_symmetry_space_group_name_H-M   'P 21/n'
_symmetry_Int_Tables_number      14
_space_group_name_Hall           '-P 2yn'
loop_
_symmetry_equiv_pos_site_id
_symmetry_equiv_pos_as_xyz
1 x,y,z
2 1/2-x,1/2+y,1/2-z
3 -x,-y,-z
4 1/2+x,1/2-y,1/2+z
_cell_length_a                   19.2812(2)
_cell_length_b                   18.20800(10)
_cell_length_c                   20.5449(2)
_cell_angle_alpha                90
_cell_angle_beta                 94.0900(10)
_cell_angle_gamma                90
_cell_volume                     7194.37
_exptl_crystal_colour            red
_exptl_crystal_description       block
_cell_formula_units_Z            4
loop_
_atom_site_label
_atom_site_type_symbol
_atom_site_fract_x
_atom_site_fract_y
_atom_site_fract_z
P1 P 0.31374(2) 0.26301(2) 0.48828(2)
P2 P 0.22843(2) 0.37999(2) 0.51416(2)
P3 P 0.17241(2) 0.27959(2) 0.47472(2)
N1 N 0.20740(6) 0.39370(7) 0.33976(6)
N2 N 0.16549(6) 0.10687(7) 0.53462(6)
N3 N 0.35296(6) 0.42598(7) 0.62979(6)
C1 C 0.22689(7) 0.14086(8) 0.52498(7)
C2 C 0.35991(7) 0.36695(8) 0.58838(6)
C3 C 0.25073(7) 0.32688(7) 0.43864(7)
C4 C 0.23491(7) 0.21129(8) 0.50331(7)
C5 C 0.30797(7) 0.33650(7) 0.54879(6)
C6 C 0.09835(8) 0.13843(8) 0.51627(7)
C7 C 0.24930(7) 0.34593(7) 0.37109(7)
C8 C 0.06312(8) 0.18185(8) 0.56036(8)
C9 C 0.17401(8) 0.45745(8) 0.36706(7)
C10 C 0.29195(8) 0.43914(8) 0.66526(7)
C11 C 0.21593(8) 0.52073(8) 0.37516(7)
C12 C 0.29376(8) 0.52130(9) 0.36648(7)
H1 H 0.3052 0.4763 0.3414
C13 C 0.25093(8) 0.50275(9) 0.65367(7)
C14 C 0.33763(9) 0.07773(8) 0.48999(8)
H2 H 0.3640 0.1240 0.4861
H3 H 0.3715 0.0389 0.5038
C15 C 0.27622(8) 0.38928(8) 0.71508(7)
C16 C 0.06784(9) 0.12396(10) 0.45301(8)
C17 C 0.29897(7) 0.31071(8) 0.32457(7)
C18 C 0.28692(8) 0.08751(8) 0.54394(7)
C19 C 0.47078(8) 0.39370(9) 0.64363(8)
H4 H 0.4768 0.3665 0.6854
H5 H 0.5170 0.4108 0.6318
C20 C 0.24942(9) 0.01472(8) 0.55650(8)
H6 H 0.2522 -0.0187 0.5188
H7 H 0.2714 -0.0098 0.5958
C21 C 0.33525(8) 0.51827(9) 0.43299(8)
H8 H 0.3256 0.5624 0.4581
H9 H 0.3851 0.5158 0.4264
H10 H 0.3216 0.4746 0.4569
C22 C 0.37471(7) 0.32778(9) 0.35255(7)
H11 H 0.3736 0.3726 0.3798
H12 H 0.3907 0.2868 0.3815
C23 C 0.46548(8) 0.35940(9) 0.52201(7)
H13 H 0.4320 0.3389 0.4880
H14 H 0.4666 0.4133 0.5156
C24 C 0.43747(7) 0.34374(8) 0.58979(7)
C25 C 0.17370(9) 0.03272(8) 0.56658(9)
C26 C 0.20749(8) 0.38385(9) 0.26582(7)
C27 C 0.31862(9) 0.32091(9) 0.73244(8)
H15 H 0.3606 0.3217 0.7066
C28 C 0.44612(8) 0.26168(8) 0.60815(8)
H16 H 0.4090 0.2485 0.6369
H17 H 0.4383 0.2323 0.5677
C29 C 0.09406(9) 0.20453(9) 0.62760(8)
H18 H 0.1415 0.1824 0.6348
C30 C 0.21845(9) 0.40275(10) 0.75028(8)
H19 H 0.2069 0.3689 0.7830
C31 C 0.42213(8) 0.45928(9) 0.65044(7)
C32 C 0.32552(8) 0.11636(8) 0.60709(8)
H20 H 0.3368 0.1688 0.6008
H21 H 0.2936 0.1136 0.6427
C33 C 0.19417(9) 0.51375(10) 0.69144(9)
H22 H 0.1664 0.5565 0.6843
C34 C 0.27940(8) 0.35147(9) 0.26015(7)
H23 H 0.3134 0.3909 0.2533
H24 H 0.2789 0.3170 0.2229
C35 C 0.10275(8) 0.45880(9) 0.37713(8)
C36 C 0.28643(8) 0.22721(9) 0.31998(8)
H25 H 0.2906 0.2065 0.3646
H26 H 0.2381 0.2187 0.3019
C37 C -0.00371(9) 0.20662(9) 0.54091(10)
H27 H -0.0286 0.2343 0.5707
C38 C 0.18472(9) 0.58585(9) 0.39276(9)
H28 H 0.2120 0.6291 0.3985
C39 C 0.26527(9) 0.56125(9) 0.60381(8)
H29 H 0.3023 0.5425 0.5764
C40 C 0.31680(9) 0.58869(10) 0.32836(9)
H30 H 0.2873 0.5934 0.2877
H31 H 0.3654 0.5826 0.3182
H32 H 0.3124 0.6330 0.3549
C41 C 0.43980(9) 0.52282(9) 0.60527(8)
H33 H 0.4274 0.5090 0.5598
H34 H 0.4897 0.5333 0.6109
H35 H 0.4135 0.5666 0.6163
C42 C 0.42514(10) 0.48749(10) 0.72047(8)
H36 H 0.3909 0.5268 0.7239
H37 H 0.4718 0.5066 0.7327
H38 H 0.4147 0.4472 0.7499
C43 C 0.07451(9) 0.52605(10) 0.39510(10)
H39 H 0.0265 0.5286 0.4027
C44 C 0.19722(11) 0.45584(11) 0.22896(8)
H40 H 0.1516 0.4763 0.2368
H41 H 0.1998 0.4470 0.1821
H42 H 0.2336 0.4906 0.2442
C45 C 0.17744(10) 0.46438(11) 0.73853(9)
H43 H 0.1380 0.4725 0.7628
C46 C 0.14930(9) 0.33043(11) 0.24340(8)
H44 H 0.1520 0.2867 0.2712
H45 H 0.1545 0.3161 0.1980
H46 H 0.1041 0.3543 0.2466
C47 C 0.53719(10) 0.32897(10) 0.51110(10)
H47 H 0.5510 0.3447 0.4683
H48 H 0.5359 0.2752 0.5128
H49 H 0.5709 0.3474 0.5452
C48 C -0.03449(10) 0.19202(11) 0.47982(11)
H50 H -0.0801 0.2092 0.4677
C49 C 0.00178(10) 0.15209(11) 0.43636(10)
H51 H -0.0190 0.1435 0.3937
C50 C 0.27707(11) 0.25150(9) 0.71369(9)
H52 H 0.2366 0.2484 0.7398
H53 H 0.3066 0.2082 0.7220
H54 H 0.2614 0.2535 0.6673
C51 C 0.10073(11) 0.28833(10) 0.63319(9)
H55 H 0.1311 0.3064 0.6004
H56 H 0.1207 0.3013 0.6769
H57 H 0.0547 0.3108 0.6258
C52 C 0.30420(11) 0.05778(10) 0.42293(9)
H58 H 0.3397 0.0576 0.3911
H59 H 0.2683 0.0940 0.4098
H60 H 0.2831 0.0089 0.4247
C53 C 0.42810(9) 0.33915(12) 0.30202(9)
H61 H 0.4229 0.3004 0.2689
H62 H 0.4751 0.3372 0.3236
H63 H 0.4206 0.3872 0.2811
C54 C 0.20100(11) 0.57934(11) 0.55857(10)
H64 H 0.1838 0.5345 0.5365
H65 H 0.2134 0.6154 0.5259
H66 H 0.1646 0.5997 0.5843
C55 C 0.05412(8) 0.39346(10) 0.37034(10)
H67 H 0.0819 0.3489 0.3608
C56 C 0.34354(11) 0.31770(11) 0.80508(9)
H68 H 0.3704 0.3620 0.8169
H69 H 0.3729 0.2743 0.8132
H70 H 0.3032 0.3148 0.8314
C57 C 0.33550(10) 0.18545(10) 0.27844(9)
H71 H 0.3336 0.2068 0.2346
H72 H 0.3214 0.1338 0.2756
H73 H 0.3831 0.1889 0.2984
C58 C 0.11437(10) 0.58862(10) 0.40212(10)
H74 H 0.0936 0.6337 0.4134
C59 C 0.51606(10) 0.23835(11) 0.64225(11)
H75 H 0.5539 0.2543 0.6162
H76 H 0.5173 0.1848 0.6468
H77 H 0.5216 0.2610 0.6856
C60 C 0.39245(10) 0.07589(11) 0.62905(10)
H78 H 0.4277 0.0855 0.5981
H79 H 0.3833 0.0230 0.6307
H80 H 0.4093 0.0932 0.6725
C61 C 0.16013(11) 0.03677(10) 0.63924(10)
H81 H 0.1883 0.0762 0.6601
H82 H 0.1727 -0.0101 0.6603
H83 H 0.1108 0.0469 0.6437
C62 C 0.29165(12) 0.63247(10) 0.63717(10)
H84 H 0.2548 0.6537 0.6617
H85 H 0.3048 0.6675 0.6040
H86 H 0.3322 0.6216 0.6671
C63 C 0.12502(10) -0.02445(10) 0.53459(12)
H87 H 0.0768 -0.0084 0.5371
H88 H 0.1320 -0.0715 0.5573
H89 H 0.1349 -0.0303 0.4888
C64 C 0.10471(11) 0.08147(13) 0.40185(9)
H90 H 0.1496 0.0624 0.4227
C65 C -0.00191(10) 0.40494(13) 0.31384(13)
H91 H -0.0313 0.4468 0.3238
H92 H -0.0306 0.3606 0.3084
H93 H 0.0206 0.4147 0.2734
C66 C 0.04911(12) 0.17708(11) 0.68153(10)
H94 H 0.0051 0.2041 0.6792
H95 H 0.0739 0.1851 0.7243
H96 H 0.0398 0.1245 0.6755
C67 C 0.01825(11) 0.38020(12) 0.43384(13)
H97 H 0.0535 0.3764 0.4705
H98 H -0.0086 0.3345 0.4301
H99 H -0.0130 0.4213 0.4414
C68 C 0.06169(13) 0.01560(16) 0.37457(12)
H100 H 0.0487 -0.0154 0.4107
H101 H 0.0894 -0.0131 0.3456
H102 H 0.0196 0.0335 0.3501
C69 C 0.12128(15) 0.13348(19) 0.34622(10)
H103 H 0.0779 0.1495 0.3228
H104 H 0.1500 0.1077 0.3160
H105 H 0.1465 0.1764 0.3643
P4 P 0.24892(3) 0.79798(3) 0.44669(2)
F1 F 0.29213(8) 0.73161(7) 0.47934(6)
F2 F 0.25489(9) 0.75989(7) 0.37703(6)
F3 F 0.17932(8) 0.75272(8) 0.45479(9)
F4 F 0.24229(10) 0.83468(8) 0.51577(7)
F5 F 0.20651(12) 0.86367(8) 0.41270(9)
F6 F 0.31892(11) 0.84158(10) 0.43773(10)
C70 C 0.02847(10) 0.36506(12) 0.80807(7)
H106 H 0.0184 0.3602 0.7623
C71 C 0.07764(10) 0.31962(10) 0.84028(10)
H107 H 0.1011 0.2837 0.8166
C72 C 0.09244(10) 0.32677(11) 0.90719(10)
H108 H 0.1260 0.2957 0.9292
C73 C 0.05807(12) 0.37937(12) 0.94189(7)
H109 H 0.0682 0.3843 0.9876
C74 C 0.00890(11) 0.42482(10) 0.90968(11)
H110 H -0.0146 0.4608 0.9334
C75 C -0.00590(8) 0.41767(11) 0.84277(11)
F7 F -0.0452(3) 0.4613(4) 0.8127(4)
H111? H -0.0395 0.4487 0.8208
F8? F -0.0109(4) 0.4740(4) 0.9467(5)
F9? F 0.1116(5) 0.2743(5) 0.8156(5)
loop_
_geom_bond_atom_site_label_1
_geom_bond_atom_site_label_2
_geom_bond_site_symmetry_1
_geom_bond_site_symmetry_2
P1 C3 1_555 1_555
P2 P3 1_555 1_555
P3 C3 1_555 1_555
N1 C7 1_555 1_555
N2 C1 1_555 1_555
N3 C2 1_555 1_555
C1 C4 1_555 1_555
C2 C5 1_555 1_555
C3 P2 1_555 1_555
C4 P1 1_555 1_555
C5 P1 1_555 1_555
C6 N2 1_555 1_555
C7 C3 1_555 1_555
C8 C6 1_555 1_555
C9 N1 1_555 1_555
C10 N3 1_555 1_555
C11 C9 1_555 1_555
C12 C11 1_555 1_555
H1 C12 1_555 1_555
C13 C10 1_555 1_555
C14 H2 1_555 1_555
H3 C14 1_555 1_555
C15 C10 1_555 1_555
C16 C6 1_555 1_555
C17 C7 1_555 1_555
C18 C1 1_555 1_555
C19 H4 1_555 1_555
H5 C19 1_555 1_555
C20 C18 1_555 1_555
H6 C20 1_555 1_555
H7 C20 1_555 1_555
C21 C12 1_555 1_555
H8 C21 1_555 1_555
H9 C21 1_555 1_555
H10 C21 1_555 1_555
C22 C17 1_555 1_555
H11 C22 1_555 1_555
H12 C22 1_555 1_555
C23 H13 1_555 1_555
H14 C23 1_555 1_555
C24 C2 1_555 1_555
C25 N2 1_555 1_555
C26 N1 1_555 1_555
C27 C15 1_555 1_555
H15 C27 1_555 1_555
C28 C24 1_555 1_555
H16 C28 1_555 1_555
H17 C28 1_555 1_555
C29 C8 1_555 1_555
H18 C29 1_555 1_555
C30 C15 1_555 1_555
H19 C30 1_555 1_555
C31 N3 1_555 1_555
C32 C18 1_555 1_555
H20 C32 1_555 1_555
H21 C32 1_555 1_555
C33 C13 1_555 1_555
H22 C33 1_555 1_555
C34 C17 1_555 1_555
H23 C34 1_555 1_555
H24 C34 1_555 1_555
C35 C9 1_555 1_555
C36 C17 1_555 1_555
H25 C36 1_555 1_555
H26 C36 1_555 1_555
C37 C8 1_555 1_555
H27 C37 1_555 1_555
C38 C11 1_555 1_555
H28 C38 1_555 1_555
C39 C13 1_555 1_555
H29 C39 1_555 1_555
C40 C12 1_555 1_555
H30 C40 1_555 1_555
H31 C40 1_555 1_555
H32 C40 1_555 1_555
C41 C31 1_555 1_555
H33 C41 1_555 1_555
H34 C41 1_555 1_555
H35 C41 1_555 1_555
C42 C31 1_555 1_555
H36 C42 1_555 1_555
H37 C42 1_555 1_555
H38 C42 1_555 1_555
C43 C35 1_555 1_555
H39 C43 1_555 1_555
C44 C26 1_555 1_555
H40 C44 1_555 1_555
H41 C44 1_555 1_555
H42 C44 1_555 1_555
C45 C30 1_555 1_555
H43 C45 1_555 1_555
C46 C26 1_555 1_555
H44 C46 1_555 1_555
H45 C46 1_555 1_555
H46 C46 1_555 1_555
C47 C23 1_555 1_555
H47 C47 1_555 1_555
H48 C47 1_555 1_555
H49 C47 1_555 1_555
C48 C37 1_555 1_555
H50 C48 1_555 1_555
C49 C16 1_555 1_555
H51 C49 1_555 1_555
C50 C27 1_555 1_555
H52 C50 1_555 1_555
H53 C50 1_555 1_555
H54 C50 1_555 1_555
C51 C29 1_555 1_555
H55 C51 1_555 1_555
H56 C51 1_555 1_555
H57 C51 1_555 1_555
C52 C14 1_555 1_555
H58 C52 1_555 1_555
H59 C52 1_555 1_555
H60 C52 1_555 1_555
C53 C22 1_555 1_555
H61 C53 1_555 1_555
H62 C53 1_555 1_555
H63 C53 1_555 1_555
C54 C39 1_555 1_555
H64 C54 1_555 1_555
H65 C54 1_555 1_555
H66 C54 1_555 1_555
C55 C35 1_555 1_555
H67 C55 1_555 1_555
C56 C27 1_555 1_555
H68 C56 1_555 1_555
H69 C56 1_555 1_555
H70 C56 1_555 1_555
C57 C36 1_555 1_555
H71 C57 1_555 1_555
H72 C57 1_555 1_555
H73 C57 1_555 1_555
C58 C38 1_555 1_555
H74 C58 1_555 1_555
C59 C28 1_555 1_555
H75 C59 1_555 1_555
H76 C59 1_555 1_555
H77 C59 1_555 1_555
C60 C32 1_555 1_555
H78 C60 1_555 1_555
H79 C60 1_555 1_555
H80 C60 1_555 1_555
C61 C25 1_555 1_555
H81 C61 1_555 1_555
H82 C61 1_555 1_555
H83 C61 1_555 1_555
C62 C39 1_555 1_555
H84 C62 1_555 1_555
H85 C62 1_555 1_555
H86 C62 1_555 1_555
C63 C25 1_555 1_555
H87 C63 1_555 1_555
H88 C63 1_555 1_555
H89 C63 1_555 1_555
C64 C16 1_555 1_555
H90 C64 1_555 1_555
C65 C55 1_555 1_555
H91 C65 1_555 1_555
H92 C65 1_555 1_555
H93 C65 1_555 1_555
C66 C29 1_555 1_555
H94 C66 1_555 1_555
H95 C66 1_555 1_555
H96 C66 1_555 1_555
C67 C55 1_555 1_555
H97 C67 1_555 1_555
H98 C67 1_555 1_555
H99 C67 1_555 1_555
C68 C64 1_555 1_555
H100 C68 1_555 1_555
H101 C68 1_555 1_555
H102 C68 1_555 1_555
C69 C64 1_555 1_555
H103 C69 1_555 1_555
H104 C69 1_555 1_555
H105 C69 1_555 1_555
P4 F1 1_555 1_555
F2 P4 1_555 1_555
F3 P4 1_555 1_555
F4 P4 1_555 1_555
F5 P4 1_555 1_555
F6 P4 1_555 1_555
C70 H106 1_555 1_555
C71 C70 1_555 1_555
H107 C71 1_555 1_555
C72 C71 1_555 1_555
H108 C72 1_555 1_555
C73 C72 1_555 1_555
H109 C73 1_555 1_555
C74 C73 1_555 1_555
H110 C74 1_555 1_555
C75 C70 1_555 1_555
F7 C75 1_555 1_555
P2 C5 1_555 1_555
P3 C4 1_555 1_555
C14 C18 1_555 1_555
C19 C24 1_555 1_555
C19 C31 1_555 1_555
C20 C25 1_555 1_555
C23 C24 1_555 1_555
C26 C34 1_555 1_555
C33 C45 1_555 1_555
C43 C58 1_555 1_555
C48 C49 1_555 1_555
C74 C75 1_555 1_555

#END
