
#######################################################################
#
#                 Cambridge Crystallographic Data Centre
#                                CCDC 
#
#######################################################################
#
# If this CIF has been generated from an entry in the Cambridge 
# Structural Database, then it will include bibliographic, chemical, 
# crystal, experimental, refinement or atomic coordinate data resulting 
# from the CCDC's data processing and validation procedures.
#
#######################################################################

data_JEZHOL
_chemical_name_common            
'39,40,41-Trioxa-1,14-diazapentacyclo(12.12.12.1$6,9!.1$19,22!.1$31,34!) nonatriaconta-4,6,8,10,17,19,21,23,29,31,33,35-dodecaene monohydrate'
_chemical_formula_moiety         'C30 H36 N8 O3,H2 O1'
_chemical_name_systematic        
'Hexaiminodiaminotrifurano(12.12.12)cryptand monohydrate'
_symmetry_cell_setting           orthorhombic
_symmetry_space_group_name_H-M   'P n a 21'
_symmetry_Int_Tables_number      33
_space_group_name_Hall           'P 2c -2n'
loop_
_symmetry_equiv_pos_site_id
_symmetry_equiv_pos_as_xyz
1 x,y,z
2 1/2-x,1/2+y,1/2+z
3 1/2+x,1/2-y,z
4 -x,-y,1/2+z
_cell_length_a                   26.040(8)
_cell_length_b                   9.036(2)
_cell_length_c                   12.888(4)
_cell_angle_alpha                90
_cell_angle_beta                 90
_cell_angle_gamma                90
_cell_volume                     3032.51
_exptl_crystal_colour            colorless
_cell_formula_units_Z            4
loop_
_atom_site_label
_atom_site_type_symbol
_atom_site_fract_x
_atom_site_fract_y
_atom_site_fract_z
N1 N 0.5735(1) 0.1909(3) 0.4332
C1 C 0.5689(1) 0.0949(4) 0.3426(3)
C2 C 0.5141(1) 0.0434(4) 0.3249(3)
N2 N 0.4821(1) 0.1659(4) 0.2881(3)
C3 C 0.4410(1) 0.1907(4) 0.3354(3)
C4 C 0.4070(1) 0.3093(4) 0.3019(3)
C5 C 0.4096(2) 0.4139(4) 0.2256(3)
C6 C 0.3644(1) 0.4982(4) 0.2304(3)
C7 C 0.3361(1) 0.4411(4) 0.3098(3)
O1 O 0.3617(1) 0.3254(3) 0.3550(2)
C8 C 0.2852(1) 0.4726(4) 0.3483(3)
N3 N 0.2564(1) 0.5680(3) 0.3066(3)
C9 C 0.2054(1) 0.5889(4) 0.3495(4)
C10 C 0.1991(2) 0.7466(4) 0.3895(4)
C11 C 0.5782(2) 0.1053(4) 0.5287(3)
C12 C 0.5553(2) 0.1886(4) 0.6209(3)
N4 N 0.4992(1) 0.1862(4) 0.6152(3)
C13 C 0.4764(2) 0.3088(4) 0.6060(3)
C14 C 0.4205(2) 0.3146(4) 0.6034(3)
C15 C 0.3836(2) 0.2091(4) 0.6031(3)
C16 C 0.3356(2) 0.2838(4) 0.6095(3)
C17 C 0.3467(2) 0.4305(4) 0.6138(3)
O2 O 0.3988(1) 0.4519(3) 0.6088(2)
C18 C 0.3154(2) 0.5621(4) 0.6294(3)
N5 N 0.2677(1) 0.5516(3) 0.6466(3)
C19 C 0.2390(2) 0.6872(4) 0.6648(4)
C20 C 0.2030(2) 0.7185(5) 0.5760(4)
C21 C 0.6154(2) 0.2982(4) 0.4213(3)
C22 C 0.5983(2) 0.4317(5) 0.3601(4)
N6 N 0.5657(1) 0.5292(4) 0.4218(3)
C23 C 0.5222(2) 0.5618(5) 0.3851(3)
C24 C 0.4875(2) 0.6598(4) 0.4393(3)
C25 C 0.4891(2) 0.7354(4) 0.5316(4)
C26 C 0.4427(2) 0.8122(5) 0.5407(4)
C27 C 0.4145(2) 0.7819(4) 0.4543(3)
O3 O 0.4413(1) 0.6880(3) 0.3915(2)
C28 C 0.3652(2) 0.8345(4) 0.4180(3)
N7 N 0.3368(1) 0.9137(4) 0.4737(3)
C29 C 0.2897(2) 0.9703(4) 0.4277(4)
C30 C 0.2431(2) 0.9296(4) 0.4933(4)
N8 N 0.2297(1) 0.7727(3) 0.4830(3)
H1 H 0.5802 0.1485 0.2824
H2 H 0.5904 0.0097 0.3525
H3 H 0.5003 0.0066 0.3890
H4 H 0.5140 -0.0342 0.2741
H5 H 0.4319 0.1311 0.3942
H6 H 0.4373 0.4273 0.1774
H7 H 0.3553 0.5799 0.1865
H8 H 0.2728 0.4192 0.4076
H9 H 0.1803 0.5705 0.2964
H10 H 0.2003 0.5207 0.4057
H11 H 0.1635 0.7635 0.4054
H12 H 0.2099 0.8144 0.3364
H13 H 0.5605 0.0129 0.5205
H14 H 0.6139 0.0867 0.5420
H15 H 0.5670 0.2893 0.6198
H16 H 0.5662 0.1422 0.6842
H17 H 0.4959 0.3986 0.6007
H18 H 0.3889 0.1040 0.5993
H19 H 0.3021 0.2394 0.6105
H20 H 0.3312 0.6581 0.6265
H21 H 0.2194 0.6769 0.7275
H22 H 0.2626 0.7681 0.6719
H23 H 0.1787 0.7921 0.5977
H24 H 0.1852 0.6289 0.5587
H25 H 0.6265 0.3297 0.4888
H26 H 0.6434 0.2515 0.3857
H27 H 0.5793 0.3989 0.3005
H28 H 0.6280 0.4858 0.3380
H29 H 0.5119 0.5205 0.3197
H30 H 0.5169 0.7357 0.5805
H31 H 0.4326 0.8746 0.5974
H32 H 0.3539 0.8081 0.3495
H33 H 0.2919 1.0761 0.4226
H34 H 0.2857 0.9287 0.3596
H35 H 0.2144 0.9884 0.4713
H36 H 0.2506 0.9503 0.5647
O4 O 0.2972(1) 0.7837(4) 0.1496(3)
H37 H 0.2785 0.7254 0.1953
H38 H 0.2793 0.8757 0.1540
loop_
_geom_bond_atom_site_label_1
_geom_bond_atom_site_label_2
_geom_bond_site_symmetry_1
_geom_bond_site_symmetry_2
N1 C1 1_555 1_555
C1 C2 1_555 1_555
C2 N2 1_555 1_555
N2 C3 1_555 1_555
C3 C4 1_555 1_555
C4 C5 1_555 1_555
C5 C6 1_555 1_555
C6 C7 1_555 1_555
C7 O1 1_555 1_555
O1 C4 1_555 1_555
C8 C7 1_555 1_555
N3 C8 1_555 1_555
C9 N3 1_555 1_555
C10 C9 1_555 1_555
C11 N1 1_555 1_555
C12 C11 1_555 1_555
N4 C12 1_555 1_555
C13 N4 1_555 1_555
C14 C13 1_555 1_555
C15 C14 1_555 1_555
C16 C15 1_555 1_555
C17 C16 1_555 1_555
O2 C14 1_555 1_555
C18 C17 1_555 1_555
N5 C18 1_555 1_555
C19 N5 1_555 1_555
C20 C19 1_555 1_555
C21 N1 1_555 1_555
C22 C21 1_555 1_555
N6 C22 1_555 1_555
C23 N6 1_555 1_555
C24 C23 1_555 1_555
C25 C24 1_555 1_555
C26 C25 1_555 1_555
C27 C26 1_555 1_555
O3 C24 1_555 1_555
C28 C27 1_555 1_555
N7 C28 1_555 1_555
C29 N7 1_555 1_555
C30 C29 1_555 1_555
N8 C10 1_555 1_555
O4 H37 1_555 1_555
H1 C1 1_555 1_555
H2 C1 1_555 1_555
H3 C2 1_555 1_555
H4 C2 1_555 1_555
H5 C3 1_555 1_555
H6 C5 1_555 1_555
H7 C6 1_555 1_555
H8 C8 1_555 1_555
H9 C9 1_555 1_555
H10 C9 1_555 1_555
H11 C10 1_555 1_555
H12 C10 1_555 1_555
H13 C11 1_555 1_555
H14 C11 1_555 1_555
H15 C12 1_555 1_555
H16 C12 1_555 1_555
H17 C13 1_555 1_555
H18 C15 1_555 1_555
H19 C16 1_555 1_555
H20 C18 1_555 1_555
H21 C19 1_555 1_555
H22 C19 1_555 1_555
H23 C20 1_555 1_555
H24 C20 1_555 1_555
H25 C21 1_555 1_555
H26 C21 1_555 1_555
H27 C22 1_555 1_555
H28 C22 1_555 1_555
H29 C23 1_555 1_555
H30 C25 1_555 1_555
H31 C26 1_555 1_555
H32 C28 1_555 1_555
H33 C29 1_555 1_555
H34 C29 1_555 1_555
H35 C30 1_555 1_555
H36 C30 1_555 1_555
H38 O4 1_555 1_555
C17 O2 1_555 1_555
C20 N8 1_555 1_555
C27 O3 1_555 1_555
C30 N8 1_555 1_555

#END
