
#######################################################################
#
#                 Cambridge Crystallographic Data Centre
#                                CCDC 
#
#######################################################################
#
# If this CIF has been generated from an entry in the Cambridge 
# Structural Database, then it will include bibliographic, chemical, 
# crystal, experimental, refinement or atomic coordinate data resulting 
# from the CCDC's data processing and validation procedures.
#
#######################################################################

data_JEZNOU
_chemical_formula_moiety         'C26 H26 F2 N2 S2'
_chemical_name_systematic        
9,10-difluoro-2,5-dipentylbisthieno[3,2-a:2',3'-c]phenazine
_symmetry_cell_setting           monoclinic
_symmetry_space_group_name_H-M   'P 21/c'
_symmetry_Int_Tables_number      14
_space_group_name_Hall           '-P 2ybc'
loop_
_symmetry_equiv_pos_site_id
_symmetry_equiv_pos_as_xyz
1 x,y,z
2 -x,1/2+y,1/2-z
3 -x,-y,-z
4 x,1/2-y,1/2+z
_cell_length_a                   18.3461(6)
_cell_length_b                   5.07610(10)
_cell_length_c                   25.1208(8)
_cell_angle_alpha                90
_cell_angle_beta                 99.4330(10)
_cell_angle_gamma                90
_cell_volume                     2307.78
_exptl_crystal_colour            yellow
_exptl_crystal_description       needle
_cell_formula_units_Z            4
loop_
_atom_site_label
_atom_site_type_symbol
_atom_site_fract_x
_atom_site_fract_y
_atom_site_fract_z
S1 S 0.33826(3) 0.15444(10) -0.00055(2)
S2 S 0.52567(3) 0.23512(10) 0.05403(2)
F1 F 0.23311(8) 1.5653(3) 0.23432(6)
F2 F 0.37475(9) 1.6237(3) 0.27645(6)
N1 N 0.44237(9) 0.9374(3) 0.16698(6)
N2 N 0.29070(9) 0.8696(3) 0.12334(6)
C1 C 0.32207(10) 0.5264(4) 0.06592(7)
C2 C 0.47435(10) 0.5954(4) 0.10937(7)
C3 C 0.34315(11) 0.7243(4) 0.10681(8)
C4 C 0.28213(13) 1.4028(4) 0.21655(9)
C5 C 0.38939(11) 1.0872(4) 0.18322(7)
C6 C 0.31313(11) 1.0527(4) 0.16118(7)
C7 C 0.37606(11) 0.3752(4) 0.04826(8)
C8 C 0.45202(10) 0.4090(4) 0.06992(8)
C9 C 0.24969(11) 0.4577(4) 0.03985(8)
H1 H 0.2071 0.5400 0.0471
C10 C 0.25949(12) 1.2181(4) 0.17892(9)
H2 H 0.2096 1.1993 0.1648
C11 C 0.41062(13) 1.2824(4) 0.22318(8)
H3 H 0.4600 1.3055 0.2383
C12 C 0.35707(13) 1.4342(4) 0.23873(8)
C13 C 0.55250(10) 0.5950(4) 0.12634(8)
H4 H 0.5768 0.7094 0.1523
C14 C 0.79743(12) 0.3997(4) 0.15589(9)
H5 H 0.7974 0.2145 0.1654
H6 H 0.8147 0.4131 0.1215
C15 C 0.71894(11) 0.4998(4) 0.14882(9)
H7 H 0.7178 0.6826 0.1374
H8 H 0.7014 0.4918 0.1832
C16 C 0.24904(12) 0.2600(4) 0.00327(9)
C17 C 0.58772(11) 0.4107(4) 0.10073(8)
C18 C 0.18561(12) 0.1274(4) -0.03181(10)
H9 H 0.1820 -0.0522 -0.0193
H10 H 0.1961 0.1194 -0.0684
C19 C 0.41979(11) 0.7595(3) 0.12857(8)
C20 C 0.66782(11) 0.3388(4) 0.10728(8)
H11 H 0.6840 0.3581 0.0726
H12 H 0.6730 0.1544 0.1174
C21 C -0.02412(16) 0.2564(7) -0.07478(14)
H13 H -0.0198 0.4407 -0.0840
H14 H -0.0391 0.2486 -0.0395
C22 C 0.05051(13) 0.1286(5) -0.07130(11)
H15 H 0.0640 0.1269 -0.1070
H16 H 0.0467 -0.0531 -0.0601
C23 C 0.11180(12) 0.2609(4) -0.03286(10)
H17 H 0.1157 0.4434 -0.0436
H18 H 0.0993 0.2592 0.0032
C24 C 0.92724(16) 0.4200(7) 0.20639(17)
H19 H 0.9241 0.2392 0.2170
H20 H 0.9587 0.5149 0.2342
H21 H 0.9474 0.4290 0.1735
C25 C 0.85140(14) 0.5403(5) 0.19771(12)
H22 H 0.8326 0.5391 0.2316
H23 H 0.8550 0.7225 0.1868
C26 C -0.08357(17) 0.1316(9) -0.11558(17)
H24 H -0.0691 0.1367 -0.1506
H25 H -0.1290 0.2267 -0.1165
H26 H -0.0905 -0.0481 -0.1056
loop_
_geom_bond_atom_site_label_1
_geom_bond_atom_site_label_2
_geom_bond_site_symmetry_1
_geom_bond_site_symmetry_2
S1 C7 1_555 1_555
S2 C8 1_555 1_555
F1 C4 1_555 1_555
F2 C12 1_555 1_555
N1 C5 1_555 1_555
N2 C3 1_555 1_555
C1 C3 1_555 1_555
C2 C8 1_555 1_555
C3 C19 1_555 1_555
C4 C10 1_555 1_555
C5 C6 1_555 1_555
C6 N2 1_555 1_555
C7 C1 1_555 1_555
C8 C7 1_555 1_555
C9 C1 1_555 1_555
H1 C9 1_555 1_555
C10 C6 1_555 1_555
H2 C10 1_555 1_555
C11 C5 1_555 1_555
H3 C11 1_555 1_555
C12 C4 1_555 1_555
C13 C2 1_555 1_555
H4 C13 1_555 1_555
C14 H5 1_555 1_555
H6 C14 1_555 1_555
C15 C14 1_555 1_555
H7 C15 1_555 1_555
H8 C15 1_555 1_555
C16 S1 1_555 1_555
C17 S2 1_555 1_555
C18 C16 1_555 1_555
H9 C18 1_555 1_555
H10 C18 1_555 1_555
C19 N1 1_555 1_555
C20 C15 1_555 1_555
H11 C20 1_555 1_555
H12 C20 1_555 1_555
C21 H13 1_555 1_555
H14 C21 1_555 1_555
C22 C21 1_555 1_555
H15 C22 1_555 1_555
H16 C22 1_555 1_555
C23 C18 1_555 1_555
H17 C23 1_555 1_555
H18 C23 1_555 1_555
C24 H19 1_555 1_555
H20 C24 1_555 1_555
H21 C24 1_555 1_555
C25 C14 1_555 1_555
H22 C25 1_555 1_555
H23 C25 1_555 1_555
C26 C21 1_555 1_555
H24 C26 1_555 1_555
H25 C26 1_555 1_555
H26 C26 1_555 1_555
C2 C19 1_555 1_555
C9 C16 1_555 1_555
C11 C12 1_555 1_555
C13 C17 1_555 1_555
C17 C20 1_555 1_555
C22 C23 1_555 1_555
C24 C25 1_555 1_555

#END
