
#######################################################################
#
#                 Cambridge Crystallographic Data Centre
#                                CCDC 
#
#######################################################################
#
# If this CIF has been generated from an entry in the Cambridge 
# Structural Database, then it will include bibliographic, chemical, 
# crystal, experimental, refinement or atomic coordinate data resulting 
# from the CCDC's data processing and validation procedures.
#
#######################################################################

data_JEZNOU01
_chemical_formula_moiety         'C26 H26 F2 N2 S2'
_chemical_name_systematic        
9,10-difluoro-2,5-dipentylbisthieno[3,2-a:2',3'-c]phenazine
_symmetry_cell_setting           triclinic
_symmetry_space_group_name_H-M   'P -1'
_symmetry_Int_Tables_number      2
_space_group_name_Hall           '-P 1'
loop_
_symmetry_equiv_pos_site_id
_symmetry_equiv_pos_as_xyz
1 x,y,z
2 -x,-y,-z
_cell_length_a                   4.9884(2)
_cell_length_b                   20.5374(10)
_cell_length_c                   23.8286(11)
_cell_angle_alpha                109.0160(10)
_cell_angle_beta                 90.3880(10)
_cell_angle_gamma                91.8700(10)
_cell_volume                     2306.37
_exptl_crystal_colour            yellow
_exptl_crystal_description       needle
_cell_formula_units_Z            4
loop_
_atom_site_label
_atom_site_type_symbol
_atom_site_fract_x
_atom_site_fract_y
_atom_site_fract_z
F1 F 1.0643(4) 0.46339(10) 0.43459(9)
S1 S 0.25716(14) 0.07522(3) 0.52425(3)
N1 N 0.2958(5) 0.25513(11) 0.37699(10)
C1 C -1.0205(10) 0.0122(3) 0.11619(19)
H1 H -1.0789 0.0365 0.0903
H2 H -1.1725 0.0006 0.1361
H3 H -0.9364 -0.0293 0.0933
S2 S -0.17374(14) 0.05052(3) 0.40261(3)
N2 N 0.6342(5) 0.27768(11) 0.47825(10)
F2 F 0.7555(5) 0.44131(10) 0.33939(9)
C2 C -0.8219(9) 0.0573(2) 0.16172(17)
H4 H -0.6624 0.0654 0.1415
H5 H -0.8999 0.1016 0.1808
C3 C -0.7416(7) 0.02705(18) 0.20861(14)
H6 H -0.6644 -0.0173 0.1896
H7 H -0.9009 0.0193 0.2290
C4 C -0.5411(6) 0.07237(16) 0.25397(13)
H8 H -0.3792 0.0791 0.2339
H9 H -0.6159 0.1172 0.2725
C5 C -0.4706(6) 0.04139(15) 0.30129(13)
H10 H -0.6318 0.0375 0.3227
H11 H -0.4096 -0.0048 0.2821
C6 C -0.2596(6) 0.08119(13) 0.34503(11)
C7 C -0.1111(6) 0.13876(13) 0.34790(11)
H12 H -0.1300 0.1625 0.3210
C8 C 0.0768(5) 0.15918(13) 0.39636(11)
C9 C 0.2744(5) 0.21570(13) 0.41126(11)
C10 C 0.0642(5) 0.11570(13) 0.42998(11)
C11 C 0.4861(6) 0.30595(13) 0.39240(12)
C12 C 0.5211(7) 0.34941(15) 0.35703(13)
H13 H 0.4125 0.3430 0.3236
C13 C 0.7127(7) 0.39984(15) 0.37240(14)
C14 C 0.8516(7) 0.37245(15) 0.45820(13)
H14 H 0.9620 0.3810 0.4916
C15 C 0.8757(7) 0.41181(14) 0.42315(14)
C16 C 0.4486(5) 0.22658(12) 0.46249(11)
C17 C 0.6555(6) 0.31768(13) 0.44360(12)
C18 C 0.4255(5) 0.18028(12) 0.49664(11)
C19 C 0.2384(5) 0.12625(13) 0.47988(11)
C20 C 0.5847(6) 0.18005(13) 0.54687(11)
H15 H 0.7199 0.2129 0.5640
C21 C 0.5183(6) 0.12709(14) 0.56681(11)
C22 C 0.6317(6) 0.10784(15) 0.61746(12)
H16 H 0.7274 0.0656 0.6013
H17 H 0.4839 0.0982 0.6402
C23 C 0.8189(6) 0.16131(15) 0.65919(12)
H18 H 0.7283 0.2045 0.6744
H19 H 0.9745 0.1690 0.6377
C24 C 0.9094(7) 0.13855(16) 0.71073(13)
H20 H 0.7515 0.1297 0.7310
H21 H 0.9996 0.0954 0.6948
C25 C 1.0929(9) 0.18875(18) 0.75540(15)
H22 H 1.0059 0.2324 0.7708
H23 H 1.2548 0.1964 0.7358
C26 C 1.1688(10) 0.1645(2) 0.80669(17)
H24 H 1.0099 0.1582 0.8271
H25 H 1.2872 0.1984 0.8336
H26 H 1.2575 0.1216 0.7919
S3 S 0.53774(17) 0.48236(4) 0.08057(3)
N3 N 1.0664(5) 0.54698(11) 0.26825(10)
F3 F 1.6078(4) 0.58196(11) 0.43921(8)
S4 S 0.9533(2) 0.60405(5) 0.04393(4)
N4 N 1.3755(5) 0.65130(12) 0.24215(11)
F4 F 1.8814(4) 0.68397(11) 0.41823(9)
C27 C 1.6206(16) 0.8960(4) -0.0248(3)
H27 H 1.7042 0.8645 -0.0585
H28 H 1.7441 0.9337 -0.0056
H29 H 1.4633 0.9133 -0.0376
C28 C 1.5415(18) 0.8585(4) 0.0190(3)
H30 H 1.7033 0.8450 0.0345
H31 H 1.4506 0.8902 0.0520
C29 C 1.3815(15) 0.8022(4) -0.0049(3)
H32 H 1.4796 0.7687 -0.0354
H33 H 1.2289 0.8148 -0.0240
C30 C 1.2776(15) 0.7679(3) 0.0394(3)
H34 H 1.3499 0.7945 0.0783
H35 H 1.0844 0.7719 0.0410
C31 C 1.3303(12) 0.7017(3) 0.0300(2)
H36 H 1.5238 0.6988 0.0315
H37 H 1.2722 0.6761 -0.0103
C32 C 1.2153(9) 0.66473(19) 0.06930(17)
C33 C 1.2917(8) 0.67025(16) 0.12522(15)
H38 H 1.4285 0.7004 0.1461
C34 C 1.1424(7) 0.62535(14) 0.14902(13)
C35 C 1.1849(6) 0.61444(13) 0.20522(12)
C36 C 1.4198(6) 0.63537(13) 0.29184(13)
C37 C 1.6268(7) 0.67105(15) 0.33196(15)
H39 H 1.7246 0.7070 0.3252
C38 C 1.6817(7) 0.65267(16) 0.38002(14)
C39 C 1.5339(7) 0.59876(16) 0.39134(13)
C40 C 1.3298(7) 0.56474(15) 0.35580(13)
H40 H 1.2318 0.5302 0.3647
C41 C 1.2652(6) 0.58199(13) 0.30460(12)
C42 C 1.0220(6) 0.56242(13) 0.21887(12)
C43 C 0.8174(6) 0.52484(14) 0.17778(12)
C44 C 0.7841(6) 0.53576(15) 0.12373(12)
C45 C 0.9481(6) 0.58634(15) 0.10961(13)
C46 C 0.4726(6) 0.44465(15) 0.13512(13)
C47 C 0.6333(6) 0.47250(14) 0.18330(12)
H41 H 0.6252 0.4590 0.2169
C48 C 0.2588(6) 0.38821(16) 0.12339(13)
H42 H 0.3152 0.3487 0.0911
H43 H 0.0955 0.4040 0.1105
C49 C 0.1974(6) 0.36564(15) 0.17663(14)
H44 H 0.1288 0.4042 0.2081
H45 H 0.3619 0.3523 0.1911
C50 C -0.0066(7) 0.30563(16) 0.16178(15)
H46 H -0.1649 0.3180 0.1442
H47 H 0.0685 0.2663 0.1322
C51 C -0.0899(8) 0.2846(2) 0.21388(18)
H48 H -0.1647 0.3239 0.2435
H49 H 0.0681 0.2720 0.2314
C52 C -0.2937(9) 0.2249(2) 0.1988(3)
H50 H -0.4482 0.2360 0.1799
H51 H -0.3466 0.2164 0.2345
H52 H -0.2157 0.1845 0.1723
loop_
_geom_bond_atom_site_label_1
_geom_bond_atom_site_label_2
_geom_bond_site_symmetry_1
_geom_bond_site_symmetry_2
F1 C15 1_555 1_555
S1 C19 1_555 1_555
N1 C9 1_555 1_555
C1 H1 1_555 1_555
H2 C1 1_555 1_555
H3 C1 1_555 1_555
S2 C6 1_555 1_555
N2 C16 1_555 1_555
F2 C13 1_555 1_555
C2 C1 1_555 1_555
H4 C2 1_555 1_555
H5 C2 1_555 1_555
C3 C2 1_555 1_555
H6 C3 1_555 1_555
H7 C3 1_555 1_555
C4 C3 1_555 1_555
H8 C4 1_555 1_555
H9 C4 1_555 1_555
C5 C4 1_555 1_555
H10 C5 1_555 1_555
H11 C5 1_555 1_555
C6 C5 1_555 1_555
C7 C6 1_555 1_555
H12 C7 1_555 1_555
C8 C7 1_555 1_555
C9 C8 1_555 1_555
C10 S2 1_555 1_555
C11 N1 1_555 1_555
C12 C11 1_555 1_555
H13 C12 1_555 1_555
C13 C12 1_555 1_555
C14 H14 1_555 1_555
C15 C13 1_555 1_555
C16 C9 1_555 1_555
C17 N2 1_555 1_555
C18 C16 1_555 1_555
C19 C10 1_555 1_555
C20 C18 1_555 1_555
H15 C20 1_555 1_555
C21 S1 1_555 1_555
C22 C21 1_555 1_555
H16 C22 1_555 1_555
H17 C22 1_555 1_555
C23 C22 1_555 1_555
H18 C23 1_555 1_555
H19 C23 1_555 1_555
C24 C23 1_555 1_555
H20 C24 1_555 1_555
H21 C24 1_555 1_555
C25 C24 1_555 1_555
H22 C25 1_555 1_555
H23 C25 1_555 1_555
C26 C25 1_555 1_555
H24 C26 1_555 1_555
H25 C26 1_555 1_555
H26 C26 1_555 1_555
S3 C44 1_555 1_555
N3 C41 1_555 1_555
F3 C39 1_555 1_555
S4 C32 1_555 1_555
N4 C35 1_555 1_555
F4 C38 1_555 1_555
C27 H27 1_555 1_555
H28 C27 1_555 1_555
H29 C27 1_555 1_555
C28 C27 1_555 1_555
H30 C28 1_555 1_555
H31 C28 1_555 1_555
C29 C28 1_555 1_555
H32 C29 1_555 1_555
H33 C29 1_555 1_555
C30 C29 1_555 1_555
H34 C30 1_555 1_555
H35 C30 1_555 1_555
C31 C30 1_555 1_555
H36 C31 1_555 1_555
H37 C31 1_555 1_555
C32 C31 1_555 1_555
C33 C32 1_555 1_555
H38 C33 1_555 1_555
C34 C33 1_555 1_555
C35 C34 1_555 1_555
C36 N4 1_555 1_555
C37 C36 1_555 1_555
H39 C37 1_555 1_555
C38 C37 1_555 1_555
C39 C38 1_555 1_555
C40 C39 1_555 1_555
H40 C40 1_555 1_555
C41 C36 1_555 1_555
C42 N3 1_555 1_555
C43 C42 1_555 1_555
C44 C43 1_555 1_555
C45 S4 1_555 1_555
C46 S3 1_555 1_555
C47 C43 1_555 1_555
H41 C47 1_555 1_555
C48 C46 1_555 1_555
H42 C48 1_555 1_555
H43 C48 1_555 1_555
C49 C48 1_555 1_555
H44 C49 1_555 1_555
H45 C49 1_555 1_555
C50 C49 1_555 1_555
H46 C50 1_555 1_555
H47 C50 1_555 1_555
C51 C50 1_555 1_555
H48 C51 1_555 1_555
H49 C51 1_555 1_555
C52 C51 1_555 1_555
H50 C52 1_555 1_555
H51 C52 1_555 1_555
H52 C52 1_555 1_555
C8 C10 1_555 1_555
C11 C17 1_555 1_555
C14 C15 1_555 1_555
C14 C17 1_555 1_555
C18 C19 1_555 1_555
C20 C21 1_555 1_555
C34 C45 1_555 1_555
C35 C42 1_555 1_555
C40 C41 1_555 1_555
C44 C45 1_555 1_555
C46 C47 1_555 1_555

#END
