
#######################################################################
#
#                 Cambridge Crystallographic Data Centre
#                                CCDC 
#
#######################################################################
#
# If this CIF has been generated from an entry in the Cambridge 
# Structural Database, then it will include bibliographic, chemical, 
# crystal, experimental, refinement or atomic coordinate data resulting 
# from the CCDC's data processing and validation procedures.
#
#######################################################################

data_JEZXAN
_chemical_formula_moiety         'C16 H21 N5 P2 S2'
_chemical_name_systematic        
1-(Benzo-1,3,2-diazaphospholyl-2-thione)-2-diethylamino-benzo-1,3,2-diazaphosphole-2-thione
_symmetry_cell_setting           monoclinic
_symmetry_space_group_name_H-M   'P 21/c'
_symmetry_Int_Tables_number      14
_space_group_name_Hall           '-P 2ybc'
loop_
_symmetry_equiv_pos_site_id
_symmetry_equiv_pos_as_xyz
1 x,y,z
2 -x,1/2+y,1/2-z
3 -x,-y,-z
4 x,1/2-y,1/2+z
_cell_length_a                   21.384(9)
_cell_length_b                   9.341(4)
_cell_length_c                   22.293(8)
_cell_angle_alpha                90
_cell_angle_beta                 118.06(3)
_cell_angle_gamma                90
_cell_volume                     3929.56
_exptl_crystal_colour            colorless
_chemical_melting_point          245-248deg.C
_cell_formula_units_Z            8
loop_
_atom_site_label
_atom_site_type_symbol
_atom_site_fract_x
_atom_site_fract_y
_atom_site_fract_z
P1 P -0.0383(1) -0.0571(1) 0.8738(1)
P2 P -0.0009(1) 0.1945(1) 0.8102(1)
S1 S 0.0630(1) -0.0607(1) 0.9308(1)
S2 S 0.0733(1) 0.1110(1) 0.7943(1)
N1 N -0.0790(2) -0.2005(3) 0.8294(2)
N2 N -0.0890(2) -0.0532(3) 0.9114(2)
N3 N -0.0602(1) 0.0806(3) 0.8186(1)
N4 N -0.0656(2) 0.2684(4) 0.7420(2)
N5 N 0.0300(2) 0.3070(3) 0.8727(1)
C1 C -0.1303(2) -0.2554(4) 0.8453(2)
C2 C -0.1357(2) -0.1703(4) 0.8937(2)
C3 C -0.1838(2) -0.2009(4) 0.9170(2)
C4 C -0.2253(2) -0.3224(5) 0.8914(2)
C5 C -0.2200(2) -0.4076(5) 0.8436(2)
C6 C -0.1723(2) -0.3754(4) 0.8191(2)
C7 C -0.1324(2) 0.1150(4) 0.7694(2)
C8 C -0.1332(2) 0.2233(4) 0.7266(2)
C9 C -0.1966(2) 0.2753(5) 0.6748(2)
C10 C -0.2589(2) 0.2152(6) 0.6676(2)
C11 C -0.2581(2) 0.1091(5) 0.7101(2)
C12 C -0.1951(2) 0.0570(4) 0.7613(2)
C13 C -0.0188(2) 0.3903(4) 0.8880(2)
C14 C 0.1058(2) 0.3428(4) 0.9130(2)
C15 C -0.0253(3) 0.3376(5) 0.9487(3)
C16 C 0.1281(2) 0.4647(5) 0.8823(2)
H1 H -0.0696(18) -0.2366(37) 0.8003(17)
H2 H -0.0788(18) -0.0124(39) 0.9436(17)
H3 H -0.0575(18) 0.3381(38) 0.7284(17)
H4 H -0.1885 -0.1355 0.9493
H5 H -0.2586 -0.3468 0.9074
H6 H -0.2496 -0.4908 0.8272
H7 H -0.1680 -0.4344 0.7860
H8 H -0.1972 0.3500 0.6450
H9 H -0.3036 0.2490 0.6325
H10 H -0.3022 0.0713 0.7046
H11 H -0.1945 -0.0197 0.7902
H12 H -0.0649 0.3879 0.8490
H13 H -0.0033 0.4882 0.8955
H14 H 0.1335 0.2598 0.9158
H15 H 0.1158 0.3691 0.9583
H16 H -0.0581 0.3969 0.9556
H17 H -0.0420 0.2406 0.9412
H18 H 0.0203 0.3419 0.9882
H19 H 0.1776 0.4859 0.9091
H20 H 0.1185 0.4377 0.8373
H21 H 0.1007 0.5479 0.8801
P3 P 0.5496(1) -0.0294(1) 0.4122(1)
P4 P 0.5058(1) 0.2307(1) 0.3190(1)
S3 S 0.4490(1) -0.0440(1) 0.3789(1)
S4 S 0.4280(1) 0.1527(1) 0.2372(1)
N6 N 0.5936(2) -0.1628(3) 0.4006(2)
N7 N 0.6004(2) -0.0354(3) 0.4960(2)
N8 N 0.5681(1) 0.1174(3) 0.3794(1)
N9 N 0.5680(2) 0.3059(4) 0.3051(2)
N10 N 0.4788(1) 0.3394(3) 0.3587(1)
C17 C 0.6409(2) -0.2305(4) 0.4612(2)
C18 C 0.6446(2) -0.1570(4) 0.5166(2)
C19 C 0.6883(2) -0.2043(4) 0.5817(2)
C20 C 0.7274(2) -0.3274(5) 0.5897(2)
C21 C 0.7238(2) -0.4006(5) 0.5345(2)
C22 C 0.6801(2) -0.3531(4) 0.4688(2)
C23 C 0.6393(2) 0.1624(4) 0.3960(2)
C24 C 0.6370(2) 0.2712(4) 0.3520(2)
C25 C 0.6986(2) 0.3333(4) 0.3585(2)
C26 C 0.7626(2) 0.2864(5) 0.4100(2)
C27 C 0.7650(2) 0.1813(5) 0.4544(2)
C28 C 0.7033(2) 0.1180(4) 0.4481(2)
C29 C 0.4058(2) 0.3868(5) 0.3348(2)
C30 C 0.5317(2) 0.4115(5) 0.4209(2)
C31 C 0.3903(3) 0.5295(5) 0.2994(3)
C32 C 0.5385(3) 0.3460(5) 0.4856(2)
H22 H 0.5827(17) -0.1954(35) 0.3644(16)
H23 H 0.5867(17) -0.0046(35) 0.5182(15)
H24 H 0.5593(21) 0.3714(43) 0.2842(20)
H25 H 0.6926 -0.1518 0.6205
H26 H 0.7572 -0.3637 0.6345
H27 H 0.7521 -0.4850 0.5419
H28 H 0.6770 -0.4033 0.4299
H29 H 0.6965 0.4071 0.3277
H30 H 0.8059 0.3277 0.4151
H31 H 0.8098 0.1505 0.4904
H32 H 0.7048 0.0451 0.4791
H33 H 0.3961 0.3933 0.3726
H34 H 0.3742 0.3172 0.3036
H35 H 0.5192 0.5106 0.4194
H36 H 0.5770 0.4066 0.4219
H37 H 0.3420 0.5575 0.2841
H38 H 0.4214 0.5996 0.3308
H39 H 0.3993 0.5228 0.2612
H40 H 0.5736 0.3957 0.5247
H41 H 0.4934 0.3523 0.4852
H42 H 0.5518 0.2473 0.4877
loop_
_geom_bond_atom_site_label_1
_geom_bond_atom_site_label_2
_geom_bond_site_symmetry_1
_geom_bond_site_symmetry_2
P1 S1 1_555 1_555
P2 S2 1_555 1_555
N1 P1 1_555 1_555
N2 P1 1_555 1_555
N3 P1 1_555 1_555
N4 P2 1_555 1_555
N5 P2 1_555 1_555
C1 N1 1_555 1_555
C2 N2 1_555 1_555
C3 C2 1_555 1_555
C4 C3 1_555 1_555
C5 C4 1_555 1_555
C6 C1 1_555 1_555
C7 N3 1_555 1_555
C8 N4 1_555 1_555
C9 C8 1_555 1_555
C10 C9 1_555 1_555
C11 C10 1_555 1_555
C12 C7 1_555 1_555
C13 N5 1_555 1_555
C14 N5 1_555 1_555
C15 C13 1_555 1_555
C16 C14 1_555 1_555
P3 S3 1_555 1_555
P4 S4 1_555 1_555
N6 P3 1_555 1_555
N7 P3 1_555 1_555
N8 P3 1_555 1_555
N9 P4 1_555 1_555
N10 P4 1_555 1_555
C17 N6 1_555 1_555
C18 N7 1_555 1_555
C19 C18 1_555 1_555
C20 C19 1_555 1_555
C21 C20 1_555 1_555
C22 C17 1_555 1_555
C23 N8 1_555 1_555
C24 N9 1_555 1_555
C25 C24 1_555 1_555
C26 C25 1_555 1_555
C27 C26 1_555 1_555
C28 C23 1_555 1_555
C29 N10 1_555 1_555
C30 N10 1_555 1_555
C31 C29 1_555 1_555
C32 C30 1_555 1_555
H1 N1 1_555 1_555
H2 N2 1_555 1_555
H3 N4 1_555 1_555
H4 C3 1_555 1_555
H5 C4 1_555 1_555
H6 C5 1_555 1_555
H7 C6 1_555 1_555
H8 C9 1_555 1_555
H9 C10 1_555 1_555
H10 C11 1_555 1_555
H11 C12 1_555 1_555
H12 C13 1_555 1_555
H13 C13 1_555 1_555
H14 C14 1_555 1_555
H15 C14 1_555 1_555
H16 C15 1_555 1_555
H17 C15 1_555 1_555
H18 C15 1_555 1_555
H19 C16 1_555 1_555
H20 C16 1_555 1_555
H21 C16 1_555 1_555
H22 N6 1_555 1_555
H23 N7 1_555 1_555
H24 N9 1_555 1_555
H25 C19 1_555 1_555
H26 C20 1_555 1_555
H27 C21 1_555 1_555
H28 C22 1_555 1_555
H29 C25 1_555 1_555
H30 C26 1_555 1_555
H31 C27 1_555 1_555
H32 C28 1_555 1_555
H33 C29 1_555 1_555
H34 C29 1_555 1_555
H35 C30 1_555 1_555
H36 C30 1_555 1_555
H37 C31 1_555 1_555
H38 C31 1_555 1_555
H39 C31 1_555 1_555
H40 C32 1_555 1_555
H41 C32 1_555 1_555
H42 C32 1_555 1_555
P2 N3 1_555 1_555
C1 C2 1_555 1_555
C5 C6 1_555 1_555
C7 C8 1_555 1_555
C11 C12 1_555 1_555
P4 N8 1_555 1_555
C17 C18 1_555 1_555
C21 C22 1_555 1_555
C23 C24 1_555 1_555
C27 C28 1_555 1_555

#END
