
#######################################################################
#
#                 Cambridge Crystallographic Data Centre
#                                CCDC 
#
#######################################################################
#
# If this CIF has been generated from an entry in the Cambridge 
# Structural Database, then it will include bibliographic, chemical, 
# crystal, experimental, refinement or atomic coordinate data resulting 
# from the CCDC's data processing and validation procedures.
#
#######################################################################

data_JEZYOF
_chemical_formula_moiety         'C48 H50 B2'
_chemical_name_systematic        
(biphenylene-1,8-diyl)bis[bis(2,4,6-trimethylphenyl)borane]
_symmetry_cell_setting           monoclinic
_symmetry_space_group_name_H-M   'P 21/c'
_symmetry_Int_Tables_number      14
_space_group_name_Hall           '-P 2ybc'
loop_
_symmetry_equiv_pos_site_id
_symmetry_equiv_pos_as_xyz
1 x,y,z
2 -x,1/2+y,1/2-z
3 -x,-y,-z
4 x,1/2-y,1/2+z
_cell_length_a                   10.801(7)
_cell_length_b                   20.599(12)
_cell_length_c                   17.848(11)
_cell_angle_alpha                90
_cell_angle_beta                 106.428(8)
_cell_angle_gamma                90
_cell_volume                     3808.89
_exptl_crystal_colour            yellow
_exptl_crystal_description       block
_cell_formula_units_Z            4
loop_
_atom_site_label
_atom_site_type_symbol
_atom_site_fract_x
_atom_site_fract_y
_atom_site_fract_z
C1 C 0.3904(2) 0.26797(12) 0.26702(15)
C2 C 0.3156(3) 0.30743(13) 0.20460(16)
H1 H 0.2609 0.2863 0.1619
C3 C 0.3182(3) 0.37439(13) 0.20281(17)
H2 H 0.2645 0.3962 0.1603
C4 C 0.4002(3) 0.41008(13) 0.26376(16)
H3 H 0.4023 0.4552 0.2641
C5 C 0.4766(2) 0.37348(13) 0.32255(15)
C6 C 0.4747(2) 0.30461(12) 0.32460(15)
C7 C 0.5791(2) 0.30710(13) 0.40368(15)
C8 C 0.6621(2) 0.27399(13) 0.46507(15)
C9 C 0.7349(3) 0.31640(13) 0.52528(16)
H4 H 0.7884 0.2975 0.5702
C10 C 0.7309(3) 0.38339(13) 0.52110(16)
H5 H 0.7826 0.4076 0.5620
C11 C 0.6501(3) 0.41539(13) 0.45623(16)
H6 H 0.6480 0.4604 0.4517
C12 C 0.5746(2) 0.37599(13) 0.40000(16)
C13 C 0.3208(2) 0.16506(12) 0.17469(15)
C14 C 0.1934(3) 0.14840(13) 0.13231(16)
C15 C 0.1688(3) 0.12188(14) 0.05805(16)
H7 H 0.0842 0.1117 0.0307
C16 C 0.2668(3) 0.11009(13) 0.02340(16)
C17 C 0.3918(3) 0.12766(14) 0.06473(16)
H8 H 0.4586 0.1208 0.0422
C18 C 0.4198(3) 0.15528(13) 0.13880(15)
C19 C 0.0814(3) 0.15884(15) 0.16628(18)
H9 H 0.0899 0.1302 0.2099
H10 H 0.0019 0.1499 0.1271
H11 H 0.0815 0.2030 0.1834
C20 C 0.2388(3) 0.07952(15) -0.05657(17)
H12 H 0.2092 0.1123 -0.0958
H13 H 0.1734 0.0469 -0.0621
H14 H 0.3161 0.0600 -0.0626
C21 C 0.5577(3) 0.17131(15) 0.18184(17)
H15 H 0.5668 0.2174 0.1889
H16 H 0.6136 0.1563 0.1521
H17 H 0.5806 0.1504 0.2319
C22 C 0.3114(2) 0.15314(12) 0.32379(15)
C23 C 0.2471(2) 0.18153(13) 0.37501(16)
C24 C 0.1853(2) 0.14263(13) 0.41696(16)
H18 H 0.1421 0.1624 0.4491
C25 C 0.1855(2) 0.07546(13) 0.41266(15)
C26 C 0.2536(2) 0.04704(13) 0.36573(15)
H19 H 0.2582 0.0020 0.3637
C27 C 0.3153(2) 0.08407(13) 0.32161(15)
C28 C 0.2359(3) 0.25422(13) 0.38517(18)
H20 H 0.1809 0.2626 0.4180
H21 H 0.1998 0.2740 0.3351
H22 H 0.3200 0.2721 0.4089
C29 C 0.1129(3) 0.03487(14) 0.45618(17)
H23 H 0.1166 -0.0099 0.4421
H24 H 0.0245 0.0487 0.4428
H25 H 0.1512 0.0399 0.5114
C30 C 0.3856(3) 0.04647(13) 0.27332(16)
H26 H 0.4058 0.0038 0.2949
H27 H 0.4640 0.0687 0.2739
H28 H 0.3317 0.0431 0.2205
C31 C 0.7387(2) 0.17275(12) 0.56103(15)
C32 C 0.8684(2) 0.15767(13) 0.60010(16)
C33 C 0.9003(3) 0.13317(13) 0.67570(16)
H29 H 0.9864 0.1245 0.7013
C34 C 0.8072(3) 0.12133(13) 0.71404(16)
C35 C 0.6806(3) 0.13758(13) 0.67608(16)
H30 H 0.6174 0.1311 0.7015
C36 C 0.6450(3) 0.16342(13) 0.60083(16)
C37 C 0.9751(3) 0.16945(14) 0.56217(17)
H31 H 0.9579 0.1452 0.5144
H32 H 1.0560 0.1558 0.5969
H33 H 0.9791 0.2149 0.5511
C38 C 0.8446(3) 0.09013(14) 0.79380(16)
H34 H 0.8676 0.0456 0.7892
H35 H 0.7730 0.0921 0.8157
H36 H 0.9169 0.1128 0.8273
C39 C 0.5051(3) 0.17803(15) 0.56180(17)
H37 H 0.4980 0.2044 0.5164
H38 H 0.4690 0.2008 0.5976
H39 H 0.4589 0.1381 0.5465
C40 C 0.7306(2) 0.15838(13) 0.40839(15)
C41 C 0.8059(2) 0.18291(13) 0.36118(15)
C42 C 0.8509(2) 0.14140(13) 0.31299(15)
H40 H 0.9020 0.1583 0.2836
C43 C 0.8220(2) 0.07568(13) 0.30743(15)
C44 C 0.7451(2) 0.05211(13) 0.35141(15)
H41 H 0.7223 0.0084 0.3471
C45 C 0.7006(2) 0.09112(13) 0.40188(15)
C46 C 0.8446(3) 0.25343(13) 0.36120(17)
H42 H 0.7703 0.2790 0.3358
H43 H 0.9088 0.2580 0.3338
H44 H 0.8793 0.2681 0.4141
C47 C 0.8739(3) 0.03174(15) 0.25568(17)
H45 H 0.8493 0.0484 0.2033
H46 H 0.8391 -0.0111 0.2560
H47 H 0.9663 0.0300 0.2748
C48 C 0.6177(3) 0.05974(13) 0.44720(16)
H48 H 0.6629 0.0601 0.5019
H49 H 0.5992 0.0157 0.4299
H50 H 0.5384 0.0834 0.4386
B1 B 0.3505(3) 0.19400(15) 0.25989(18)
B2 B 0.7023(3) 0.20056(15) 0.47473(19)
loop_
_geom_bond_atom_site_label_1
_geom_bond_atom_site_label_2
_geom_bond_site_symmetry_1
_geom_bond_site_symmetry_2
C1 C2 1_555 1_555
C2 H1 1_555 1_555
C3 C2 1_555 1_555
H2 C3 1_555 1_555
C4 C3 1_555 1_555
H3 C4 1_555 1_555
C5 C4 1_555 1_555
C6 C1 1_555 1_555
C7 C6 1_555 1_555
C8 C7 1_555 1_555
C9 C8 1_555 1_555
H4 C9 1_555 1_555
C10 C9 1_555 1_555
H5 C10 1_555 1_555
C11 C10 1_555 1_555
H6 C11 1_555 1_555
C12 C5 1_555 1_555
C13 C14 1_555 1_555
C14 C15 1_555 1_555
C15 H7 1_555 1_555
C16 C15 1_555 1_555
C17 C16 1_555 1_555
H8 C17 1_555 1_555
C18 C13 1_555 1_555
C19 C14 1_555 1_555
H9 C19 1_555 1_555
H10 C19 1_555 1_555
H11 C19 1_555 1_555
C20 C16 1_555 1_555
H12 C20 1_555 1_555
H13 C20 1_555 1_555
H14 C20 1_555 1_555
C21 C18 1_555 1_555
H15 C21 1_555 1_555
H16 C21 1_555 1_555
H17 C21 1_555 1_555
C22 C23 1_555 1_555
C23 C24 1_555 1_555
C24 H18 1_555 1_555
C25 C24 1_555 1_555
C26 C25 1_555 1_555
H19 C26 1_555 1_555
C27 C22 1_555 1_555
C28 C23 1_555 1_555
H20 C28 1_555 1_555
H21 C28 1_555 1_555
H22 C28 1_555 1_555
C29 C25 1_555 1_555
H23 C29 1_555 1_555
H24 C29 1_555 1_555
H25 C29 1_555 1_555
C30 C27 1_555 1_555
H26 C30 1_555 1_555
H27 C30 1_555 1_555
H28 C30 1_555 1_555
C31 C32 1_555 1_555
C32 C33 1_555 1_555
C33 H29 1_555 1_555
C34 C33 1_555 1_555
C35 C34 1_555 1_555
H30 C35 1_555 1_555
C36 C31 1_555 1_555
C37 C32 1_555 1_555
H31 C37 1_555 1_555
H32 C37 1_555 1_555
H33 C37 1_555 1_555
C38 C34 1_555 1_555
H34 C38 1_555 1_555
H35 C38 1_555 1_555
H36 C38 1_555 1_555
C39 C36 1_555 1_555
H37 C39 1_555 1_555
H38 C39 1_555 1_555
H39 C39 1_555 1_555
C40 C41 1_555 1_555
C41 C42 1_555 1_555
C42 H40 1_555 1_555
C43 C42 1_555 1_555
C44 C43 1_555 1_555
H41 C44 1_555 1_555
C45 C40 1_555 1_555
C46 C41 1_555 1_555
H42 C46 1_555 1_555
H43 C46 1_555 1_555
H44 C46 1_555 1_555
C47 C43 1_555 1_555
H45 C47 1_555 1_555
H46 C47 1_555 1_555
H47 C47 1_555 1_555
C48 C45 1_555 1_555
H48 C48 1_555 1_555
H49 C48 1_555 1_555
H50 C48 1_555 1_555
B1 C1 1_555 1_555
B2 C8 1_555 1_555
C5 C6 1_555 1_555
C7 C12 1_555 1_555
C11 C12 1_555 1_555
C13 B1 1_555 1_555
C17 C18 1_555 1_555
C22 B1 1_555 1_555
C26 C27 1_555 1_555
C31 B2 1_555 1_555
C35 C36 1_555 1_555
C40 B2 1_555 1_555
C44 C45 1_555 1_555

#END
