
#######################################################################
#
#                 Cambridge Crystallographic Data Centre
#                                CCDC 
#
#######################################################################
#
# If this CIF has been generated from an entry in the Cambridge 
# Structural Database, then it will include bibliographic, chemical, 
# crystal, experimental, refinement or atomic coordinate data resulting 
# from the CCDC's data processing and validation procedures.
#
#######################################################################

data_JEZZAS
_chemical_formula_moiety         'C39 H40 B2 F1 O1 1-,C6 H18 N3 S1 1+'
_chemical_name_systematic        
'tris(dimethylamino)sulfanium fluoro{8-[hydroxy(2,4,6-trimethylphenyl)boranyl]biphenylen-1-yl}bis(2,4,6-trimethylphenyl)borate'
_symmetry_cell_setting           monoclinic
_symmetry_space_group_name_H-M   'P 21/n'
_symmetry_Int_Tables_number      14
_space_group_name_Hall           '-P 2yn'
loop_
_symmetry_equiv_pos_site_id
_symmetry_equiv_pos_as_xyz
1 x,y,z
2 1/2-x,1/2+y,1/2-z
3 -x,-y,-z
4 1/2+x,1/2-y,1/2+z
_cell_length_a                   17.180(3)
_cell_length_b                   14.284(3)
_cell_length_c                   17.949(4)
_cell_angle_alpha                90
_cell_angle_beta                 111.819(2)
_cell_angle_gamma                90
_cell_volume                     4089.13
_exptl_crystal_colour            yellow
_exptl_crystal_description       plate
_cell_formula_units_Z            4
loop_
_atom_site_label
_atom_site_type_symbol
_atom_site_fract_x
_atom_site_fract_y
_atom_site_fract_z
S1 S 0.46268(3) 0.63741(4) 0.17950(3)
N1 N 0.53557(12) 0.71264(12) 0.23614(10)
N2 N 0.50623(12) 0.54111(12) 0.22167(10)
N3 N 0.38346(12) 0.67120(15) 0.20002(11)
C1 C 0.62043(15) 0.69518(18) 0.23643(14)
H1 H 0.6364 0.6301 0.2518
H2 H 0.6606 0.7372 0.2750
H3 H 0.6207 0.7067 0.1827
C2 C 0.51037(19) 0.81119(16) 0.21453(15)
H4 H 0.5054 0.8228 0.1591
H5 H 0.5528 0.8531 0.2508
H6 H 0.4562 0.8229 0.2193
C3 C 0.46865(14) 0.45678(15) 0.17574(13)
H7 H 0.4234 0.4344 0.1920
H8 H 0.5115 0.4080 0.1862
H9 H 0.4459 0.4716 0.1183
C4 C 0.54157(17) 0.52689(17) 0.30910(13)
H10 H 0.5597 0.5872 0.3360
H11 H 0.5898 0.4845 0.3231
H12 H 0.4988 0.4995 0.3265
C5 C 0.38582(18) 0.6810(2) 0.28249(15)
H13 H 0.3647 0.6235 0.2981
H14 H 0.3506 0.7339 0.2850
H15 H 0.4437 0.6920 0.3192
C6 C 0.30095(15) 0.6590(2) 0.13708(15)
H16 H 0.3071 0.6495 0.0855
H17 H 0.2669 0.7149 0.1341
H18 H 0.2734 0.6043 0.1493
F1 F 0.20630(6) 1.16446(7) 0.00746(6)
O1 O 0.15379(8) 0.99468(10) -0.02389(8)
C7 C 0.34306(11) 1.15942(12) 0.11699(10)
C8 C 0.31951(11) 1.09636(12) 0.16336(10)
C9 C 0.25931(11) 1.35894(12) -0.00820(10)
C10 C 0.17837(11) 1.34787(13) 0.00602(11)
H19 H 0.1377 1.3135 -0.0388
H20 H 0.1558 1.4098 0.0101
H21 H 0.1892 1.3132 0.0560
C11 C 0.31485(10) 1.28357(12) -0.00216(10)
C12 C 0.35684(11) 1.09263(13) 0.24840(11)
C13 C 0.20833(11) 0.94211(13) 0.12405(11)
C14 C 0.14132(11) 0.68356(13) -0.06898(11)
H22 H 0.1727 0.6461 -0.0915
C15 C 0.40939(11) 1.21861(12) 0.16587(11)
H23 H 0.4295 1.2646 0.1393
C16 C 0.36136(13) 1.56510(14) -0.07192(13)
H24 H 0.3763 1.6073 -0.0256
H25 H 0.3104 1.5879 -0.1145
H26 H 0.4073 1.5632 -0.0918
C17 C 0.40244(11) 1.39597(13) -0.03872(11)
H27 H 0.4521 1.4080 -0.0487
C18 C 0.30396(12) 1.01064(13) 0.25036(11)
C19 C 0.27582(11) 1.44818(12) -0.02976(11)
H28 H 0.2374 1.4972 -0.0327
C20 C 0.34616(11) 1.46825(13) -0.04708(11)
C21 C 0.27628(13) 1.05571(15) -0.18418(12)
H29 H 0.2442 1.0669 -0.2393
C22 C 0.06596(11) 0.64948(12) -0.06821(11)
C23 C 0.36659(11) 1.02328(12) -0.02358(11)
C24 C 0.28658(13) 0.94684(15) 0.29853(12)
H30 H 0.3129 0.9488 0.3554
C25 C 0.26523(11) 1.01068(13) 0.16517(11)
C26 C 0.31101(11) 1.10022(12) -0.04365(10)
C27 C 0.38857(11) 1.30601(12) -0.01602(10)
C28 C 0.41704(12) 0.99492(13) 0.06194(12)
H31 H 0.4471 1.0495 0.0921
H32 H 0.4575 0.9464 0.0623
H33 H 0.3793 0.9704 0.0869
C29 C 0.02081(11) 0.70617(13) -0.03632(11)
H34 H -0.0310 0.6842 -0.0354
C30 C 0.12664(11) 0.82773(12) -0.00460(11)
B1 B 0.29671(12) 1.17513(14) 0.02004(12)
C31 C 0.42043(12) 1.15011(13) 0.29350(11)
H35 H 0.4448 1.1468 0.3504
C32 C 0.37683(12) 0.96761(13) -0.08308(13)
H36 H 0.4154 0.9170 -0.0673
C33 C 0.44676(12) 1.21459(13) 0.24863(11)
H37 H 0.4913 1.2564 0.2758
C34 C 0.33329(13) 0.98295(15) -0.16391(13)
C35 C 0.17224(11) 0.77094(12) -0.03777(11)
C36 C 0.19832(13) 1.18894(15) -0.15842(12)
H38 H 0.2256 1.2504 -0.1490
H39 H 0.1589 1.1855 -0.1307
H40 H 0.1679 1.1800 -0.2161
B2 B 0.16314(12) 0.92792(15) 0.03039(13)
C37 C 0.19157(12) 0.87561(14) 0.17622(12)
H41 H 0.1532 0.8265 0.1521
C38 C 0.45643(12) 1.23453(13) -0.00698(13)
H42 H 0.4680 1.1992 0.0428
H43 H 0.5076 1.2666 -0.0051
H44 H 0.4377 1.1915 -0.0528
C39 C 0.04939(11) 0.79484(13) -0.00550(11)
C40 C 0.25413(12) 0.80593(14) -0.04057(13)
H45 H 0.2777 0.7583 -0.0654
H46 H 0.2936 0.8185 0.0141
H47 H 0.2442 0.8637 -0.0722
C41 C 0.26401(12) 1.11332(13) -0.12681(11)
C42 C 0.22726(13) 0.87803(15) 0.25867(12)
H48 H 0.2116 0.8325 0.2891
C43 C 0.03254(13) 0.55479(13) -0.10256(13)
H49 H -0.0211 0.5626 -0.1475
H50 H 0.0243 0.5162 -0.0609
H51 H 0.0727 0.5241 -0.1216
C44 C -0.00548(13) 0.85510(15) 0.02387(14)
H52 H -0.0600 0.8642 -0.0196
H53 H 0.0215 0.9160 0.0411
H54 H -0.0136 0.8242 0.0692
C45 C 0.34713(18) 0.9226(2) -0.22705(16)
H55 H 0.3012 0.9324 -0.2788
H56 H 0.3487 0.8566 -0.2117
H57 H 0.4004 0.9396 -0.2316
H58 H 0.1732(15) 1.0450(18) -0.0085(14)
loop_
_geom_bond_atom_site_label_1
_geom_bond_atom_site_label_2
_geom_bond_site_symmetry_1
_geom_bond_site_symmetry_2
S1 N1 1_555 1_555
N1 C1 1_555 1_555
N2 S1 1_555 1_555
N3 S1 1_555 1_555
C1 H1 1_555 1_555
H2 C1 1_555 1_555
H3 C1 1_555 1_555
C2 N1 1_555 1_555
H4 C2 1_555 1_555
H5 C2 1_555 1_555
H6 C2 1_555 1_555
C3 N2 1_555 1_555
H7 C3 1_555 1_555
H8 C3 1_555 1_555
H9 C3 1_555 1_555
C4 N2 1_555 1_555
H10 C4 1_555 1_555
H11 C4 1_555 1_555
H12 C4 1_555 1_555
C5 N3 1_555 1_555
H13 C5 1_555 1_555
H14 C5 1_555 1_555
H15 C5 1_555 1_555
C6 N3 1_555 1_555
H16 C6 1_555 1_555
H17 C6 1_555 1_555
H18 C6 1_555 1_555
F1 B1 1_555 1_555
O1 B2 1_555 1_555
C7 C8 1_555 1_555
C8 C12 1_555 1_555
C9 C10 1_555 1_555
C10 H19 1_555 1_555
H20 C10 1_555 1_555
H21 C10 1_555 1_555
C11 C9 1_555 1_555
C12 C18 1_555 1_555
C13 C25 1_555 1_555
C14 H22 1_555 1_555
C15 C7 1_555 1_555
H23 C15 1_555 1_555
C16 H24 1_555 1_555
H25 C16 1_555 1_555
H26 C16 1_555 1_555
C17 H27 1_555 1_555
C18 C24 1_555 1_555
C19 C9 1_555 1_555
H28 C19 1_555 1_555
C20 C16 1_555 1_555
C21 H29 1_555 1_555
C22 C14 1_555 1_555
C23 C26 1_555 1_555
C24 H30 1_555 1_555
C25 C8 1_555 1_555
C26 B1 1_555 1_555
C27 C11 1_555 1_555
C28 C23 1_555 1_555
H31 C28 1_555 1_555
H32 C28 1_555 1_555
H33 C28 1_555 1_555
C29 C22 1_555 1_555
H34 C29 1_555 1_555
C30 C35 1_555 1_555
B1 C7 1_555 1_555
C31 C12 1_555 1_555
H35 C31 1_555 1_555
C32 C23 1_555 1_555
H36 C32 1_555 1_555
C33 C15 1_555 1_555
H37 C33 1_555 1_555
C34 C21 1_555 1_555
C35 C14 1_555 1_555
C36 H38 1_555 1_555
H39 C36 1_555 1_555
H40 C36 1_555 1_555
B2 C13 1_555 1_555
C37 C13 1_555 1_555
H41 C37 1_555 1_555
C38 C27 1_555 1_555
H42 C38 1_555 1_555
H43 C38 1_555 1_555
H44 C38 1_555 1_555
C39 C29 1_555 1_555
C40 C35 1_555 1_555
H45 C40 1_555 1_555
H46 C40 1_555 1_555
H47 C40 1_555 1_555
C41 C21 1_555 1_555
C42 C24 1_555 1_555
H48 C42 1_555 1_555
C43 C22 1_555 1_555
H49 C43 1_555 1_555
H50 C43 1_555 1_555
H51 C43 1_555 1_555
C44 C39 1_555 1_555
H52 C44 1_555 1_555
H53 C44 1_555 1_555
H54 C44 1_555 1_555
C45 C34 1_555 1_555
H55 C45 1_555 1_555
H56 C45 1_555 1_555
H57 C45 1_555 1_555
H58 O1 1_555 1_555
C11 B1 1_555 1_555
C17 C20 1_555 1_555
C17 C27 1_555 1_555
C18 C25 1_555 1_555
C19 C20 1_555 1_555
C26 C41 1_555 1_555
C30 B2 1_555 1_555
C30 C39 1_555 1_555
C31 C33 1_555 1_555
C32 C34 1_555 1_555
C36 C41 1_555 1_555
C37 C42 1_555 1_555

#END
