
#######################################################################
#
#                 Cambridge Crystallographic Data Centre
#                                CCDC 
#
#######################################################################
#
# If this CIF has been generated from an entry in the Cambridge 
# Structural Database, then it will include bibliographic, chemical, 
# crystal, experimental, refinement or atomic coordinate data resulting 
# from the CCDC's data processing and validation procedures.
#
#######################################################################

data_JIBKAJ
_chemical_formula_moiety         'C24 H21 N1 O5'
_chemical_name_systematic        
'methyl 2-hydroxy-3-methoxy-6-phenyl-6,7-dihydro-12H-6,12-methanodibenzo[d,g][1,3]oxazocine-12-carboxylate'
_symmetry_cell_setting           orthorhombic
_symmetry_space_group_name_H-M   'P 21 21 21'
_symmetry_Int_Tables_number      19
_space_group_name_Hall           'P 2ac 2ab'
loop_
_symmetry_equiv_pos_site_id
_symmetry_equiv_pos_as_xyz
1 x,y,z
2 1/2-x,-y,1/2+z
3 1/2+x,1/2-y,-z
4 -x,1/2+y,1/2-z
_cell_length_a                   8.6146(17)
_cell_length_b                   11.467(2)
_cell_length_c                   40.885(8)
_cell_angle_alpha                90
_cell_angle_beta                 90
_cell_angle_gamma                90
_cell_volume                     4038.77
_exptl_crystal_colour            colorless
_exptl_crystal_description       block
_cell_formula_units_Z            8
loop_
_atom_site_label
_atom_site_type_symbol
_atom_site_fract_x
_atom_site_fract_y
_atom_site_fract_z
O1 O -0.1020(5) 0.2302(3) 0.05304(8)
O2 O -0.0878(5) 0.3599(3) 0.01358(9)
O3 O -0.0292(4) 0.6121(3) 0.10842(7)
O4 O 0.2006(4) 0.8607(3) 0.02728(8)
O5 O 0.2536(4) 0.6794(3) -0.01110(7)
H1 H 0.2765 0.7485 -0.0130
N1 N 0.1342(4) 0.4621(3) 0.12885(8)
H2 H 0.1766 0.4898 0.1462
C1 C -0.0605(6) 0.3327(5) 0.04105(12)
C2 C 0.0182(5) 0.4061(4) 0.06731(10)
C3 C -0.0907(5) 0.4131(4) 0.09681(10)
H3 H -0.1920 0.4406 0.0899
H4 H -0.1033 0.3363 0.1064
C4 C -0.0229(5) 0.4960(4) 0.12185(11)
C5 C 0.0337(5) 0.6235(4) 0.07728(10)
C6 C 0.0777(6) 0.7359(4) 0.06860(11)
H5 H 0.0599 0.7976 0.0829
C7 C 0.1472(6) 0.7558(4) 0.03904(12)
C8 C 0.1867(8) 0.9598(5) 0.04765(13)
H6 H 0.2245 1.0273 0.0363
H7 H 0.2466 0.9482 0.0672
H8 H 0.0797 0.9713 0.0533
C9 C 0.1748(5) 0.6625(4) 0.01801(10)
C10 C 0.1282(5) 0.5533(4) 0.02625(10)
H9 H 0.1449 0.4921 0.0117
C11 C 0.0550(5) 0.5309(4) 0.05642(11)
C12 C 0.2221(5) 0.3880(4) 0.10961(11)
C13 C 0.1702(5) 0.3517(4) 0.07913(10)
C14 C 0.2612(6) 0.2770(4) 0.06072(12)
H10 H 0.2259 0.2524 0.0404
C15 C 0.4041(7) 0.2377(4) 0.07197(14)
H11 H 0.4631 0.1867 0.0594
C16 C 0.4574(6) 0.2754(5) 0.10198(14)
H12 H 0.5537 0.2507 0.1096
C17 C 0.3684(5) 0.3496(4) 0.12078(12)
H13 H 0.4051 0.3745 0.1410
C18 C -0.1197(5) 0.4990(4) 0.15291(10)
C19 C -0.0962(6) 0.4146(5) 0.17669(11)
H14 H -0.0198 0.3582 0.1739
C20 C -0.1870(7) 0.4150(5) 0.20449(12)
H15 H -0.1712 0.3581 0.2204
C21 C -0.2990(7) 0.4966(6) 0.20913(13)
H16 H -0.3574 0.4972 0.2283
C22 C -0.3248(6) 0.5783(6) 0.18522(14)
H17 H -0.4028 0.6335 0.1880
C23 C -0.2365(5) 0.5791(5) 0.15732(12)
H18 H -0.2559 0.6344 0.1412
C24 C -0.1819(7) 0.1512(5) 0.03136(12)
H19 H -0.1184 0.1363 0.0125
H20 H -0.2783 0.1855 0.0246
H21 H -0.2020 0.0792 0.0426
O6 O 0.5417(5) 1.0543(4) 0.17341(10)
O7 O 0.3559(6) 1.0845(5) 0.20610(12)
O8 O 0.3024(3) 0.6713(3) 0.16255(7)
O9 O 0.5775(4) 0.6828(3) 0.06098(8)
O10 O 0.6123(5) 0.9161(3) 0.06632(8)
H22 H 0.6303 0.8733 0.0507
N2 N 0.0658(4) 0.7738(3) 0.17327(9)
H23 H -0.0136 0.7286 0.1745
C25 C 0.4148(8) 1.0272(6) 0.18417(14)
C26 C 0.3253(6) 0.9240(4) 0.17046(10)
C27 C 0.2999(5) 0.8382(4) 0.19873(10)
H24 H 0.3994 0.8127 0.2072
H25 H 0.2438 0.8766 0.2163
C28 C 0.2088(5) 0.7343(4) 0.18686(10)
C29 C 0.3809(5) 0.7391(4) 0.13942(10)
C30 C 0.4369(5) 0.6769(4) 0.11276(10)
H26 H 0.4211 0.5968 0.1114
C31 C 0.5155(5) 0.7342(4) 0.08856(11)
C32 C 0.5386(6) 0.5649(5) 0.05404(12)
H27 H 0.5888 0.5411 0.0342
H28 H 0.4282 0.5580 0.0516
H29 H 0.5725 0.5161 0.0717
C33 C 0.5377(6) 0.8541(5) 0.09027(11)
C34 C 0.4819(5) 0.9129(5) 0.11670(10)
H30 H 0.4964 0.9932 0.1178
C35 C 0.4035(5) 0.8573(4) 0.14238(10)
C36 C 0.0475(6) 0.8826(4) 0.15797(11)
C37 C 0.1675(6) 0.9618(4) 0.15737(11)
C38 C 0.1460(7) 1.0676(5) 0.14170(13)
H31 H 0.2257 1.1223 0.1415
C39 C 0.0079(8) 1.0922(5) 0.12646(15)
H32 H -0.0037 1.1625 0.1154
C40 C -0.1124(7) 1.0151(6) 0.12733(14)
H33 H -0.2062 1.0335 0.1173
C41 C -0.0945(6) 0.9084(5) 0.14332(11)
H34 H -0.1760 0.8553 0.1442
C42 C 0.1786(6) 0.6450(5) 0.21389(10)
C43 C 0.2680(6) 0.5459(5) 0.21744(12)
H35 H 0.3464 0.5304 0.2024
C44 C 0.2425(8) 0.4686(5) 0.24320(14)
H36 H 0.3035 0.4021 0.2452
C45 C 0.1286(9) 0.4902(7) 0.26557(15)
H37 H 0.1120 0.4383 0.2827
C46 C 0.0392(8) 0.5875(6) 0.26281(13)
H38 H -0.0370 0.6031 0.2783
C47 C 0.0621(6) 0.6638(5) 0.23668(12)
H39 H -0.0021 0.7286 0.2345
C48 C 0.6137(11) 1.1606(8) 0.1869(2)
H40 H 0.7194 1.1659 0.1796
H41 H 0.6114 1.1574 0.2104
H42 H 0.5572 1.2278 0.1796
C49? C 0.450(2) 1.1786(13) 0.2184(4)
H43? H 0.4953 1.2201 0.2005
H44? H 0.5301 1.1477 0.2322
H45? H 0.3857 1.2308 0.2309
loop_
_geom_bond_atom_site_label_1
_geom_bond_atom_site_label_2
_geom_bond_site_symmetry_1
_geom_bond_site_symmetry_2
O1 C1 1_555 1_555
O2 C1 1_555 1_555
O3 C4 1_555 1_555
O4 C7 1_555 1_555
O5 H1 1_555 1_555
N1 H2 1_555 1_555
C1 C2 1_555 1_555
C2 C3 1_555 1_555
C3 H3 1_555 1_555
H4 C3 1_555 1_555
C4 N1 1_555 1_555
C5 O3 1_555 1_555
C6 C5 1_555 1_555
H5 C6 1_555 1_555
C7 C6 1_555 1_555
C8 O4 1_555 1_555
H6 C8 1_555 1_555
H7 C8 1_555 1_555
H8 C8 1_555 1_555
C9 O5 1_555 1_555
C10 C9 1_555 1_555
H9 C10 1_555 1_555
C11 C2 1_555 1_555
C12 N1 1_555 1_555
C13 C2 1_555 1_555
C14 C13 1_555 1_555
H10 C14 1_555 1_555
C15 C14 1_555 1_555
H11 C15 1_555 1_555
C16 C15 1_555 1_555
H12 C16 1_555 1_555
C17 C12 1_555 1_555
H13 C17 1_555 1_555
C18 C4 1_555 1_555
C19 C18 1_555 1_555
H14 C19 1_555 1_555
C20 C19 1_555 1_555
H15 C20 1_555 1_555
C21 C20 1_555 1_555
H16 C21 1_555 1_555
C22 C21 1_555 1_555
H17 C22 1_555 1_555
C23 C18 1_555 1_555
H18 C23 1_555 1_555
C24 O1 1_555 1_555
H19 C24 1_555 1_555
H20 C24 1_555 1_555
H21 C24 1_555 1_555
O6 C25 1_555 1_555
O7 C25 1_555 1_555
O8 C28 1_555 1_555
O9 C31 1_555 1_555
O10 H22 1_555 1_555
N2 H23 1_555 1_555
C25 C26 1_555 1_555
C26 C27 1_555 1_555
C27 H24 1_555 1_555
H25 C27 1_555 1_555
C28 N2 1_555 1_555
C29 O8 1_555 1_555
C30 C29 1_555 1_555
H26 C30 1_555 1_555
C31 C30 1_555 1_555
C32 O9 1_555 1_555
H27 C32 1_555 1_555
H28 C32 1_555 1_555
H29 C32 1_555 1_555
C33 O10 1_555 1_555
C34 C33 1_555 1_555
H30 C34 1_555 1_555
C35 C26 1_555 1_555
C36 N2 1_555 1_555
C37 C26 1_555 1_555
C38 C37 1_555 1_555
H31 C38 1_555 1_555
C39 C38 1_555 1_555
H32 C39 1_555 1_555
C40 C39 1_555 1_555
H33 C40 1_555 1_555
C41 C36 1_555 1_555
H34 C41 1_555 1_555
C42 C28 1_555 1_555
C43 C42 1_555 1_555
H35 C43 1_555 1_555
C44 C43 1_555 1_555
H36 C44 1_555 1_555
C45 C44 1_555 1_555
H37 C45 1_555 1_555
C46 C45 1_555 1_555
H38 C46 1_555 1_555
C47 C42 1_555 1_555
H39 C47 1_555 1_555
C48 O6 1_555 1_555
H40 C48 1_555 1_555
H41 C48 1_555 1_555
H42 C48 1_555 1_555
C3 C4 1_555 1_555
C5 C11 1_555 1_555
C7 C9 1_555 1_555
C10 C11 1_555 1_555
C12 C13 1_555 1_555
C16 C17 1_555 1_555
C22 C23 1_555 1_555
C27 C28 1_555 1_555
C29 C35 1_555 1_555
C31 C33 1_555 1_555
C34 C35 1_555 1_555
C36 C37 1_555 1_555
C40 C41 1_555 1_555
C46 C47 1_555 1_555

#END
