
#######################################################################
#
#                 Cambridge Crystallographic Data Centre
#                                CCDC 
#
#######################################################################
#
# If this CIF has been generated from an entry in the Cambridge 
# Structural Database, then it will include bibliographic, chemical, 
# crystal, experimental, refinement or atomic coordinate data resulting 
# from the CCDC's data processing and validation procedures.
#
#######################################################################

data_JIBKUD
_chemical_formula_moiety         'C22 H34 O4 S4'
_chemical_name_systematic        
7,10,21,24-tetraoxa-4,13,18,27-tetrathiatricyclo[14.12.1.1^2,15^]triaconta-1(29),2(30),15-triene
_symmetry_cell_setting           monoclinic
_symmetry_space_group_name_H-M   'C 2/c'
_symmetry_Int_Tables_number      15
_space_group_name_Hall           '-C 2yn'
loop_
_symmetry_equiv_pos_site_id
_symmetry_equiv_pos_as_xyz
1 x,y,z
2 -x,y,1/2-z
3 1/2+x,1/2+y,z
4 1/2-x,1/2+y,1/2-z
5 -x,-y,-z
6 x,-y,1/2+z
7 1/2-x,1/2-y,-z
8 1/2+x,1/2-y,1/2+z
_cell_length_a                   15.9768(3)
_cell_length_b                   8.9342(2)
_cell_length_c                   16.3106(3)
_cell_angle_alpha                90
_cell_angle_beta                 93.4650(10)
_cell_angle_gamma                90
_cell_volume                     2323.92
_exptl_crystal_colour            colorless
_exptl_crystal_description       block
_cell_formula_units_Z            4
loop_
_atom_site_label
_atom_site_type_symbol
_atom_site_fract_x
_atom_site_fract_y
_atom_site_fract_z
S1 S 0.01539(3) 0.91301(5) 0.10342(3)
S2 S 0.16835(3) 0.23151(6) 0.25533(3)
O1 O 0.13424(9) 0.64939(16) 0.03162(8)
O2 O 0.21647(8) 0.37191(16) 0.07976(8)
C1 C 0.03408(11) 0.42056(19) 0.22529(10)
C2 C 0.06714(11) 0.5575(2) 0.20233(11)
H1 H 0.114208 0.557305 0.169424
C3 C 0.03463(11) 0.6937(2) 0.22520(10)
C4 C 0.07345(12) 0.8335(2) 0.19301(11)
H2 H 0.131256 0.810506 0.178254
H3 H 0.077185 0.909475 0.237283
C5 C -0.00336(12) 0.7549(2) 0.03552(11)
H4 H -0.016818 0.667135 0.069384
H5 H -0.053643 0.776959 -0.000930
C6 C 0.06671(13) 0.7113(2) -0.01759(12)
H6 H 0.046017 0.637067 -0.059065
H7 H 0.086253 0.800589 -0.046914
C7 C 0.19233(13) 0.5734(2) -0.01550(12)
H8 H 0.221169 0.645820 -0.050048
H9 H 0.162521 0.499935 -0.052136
C8 C 0.25542(12) 0.4942(2) 0.04093(13)
H10 H 0.302075 0.457010 0.009242
H11 H 0.278822 0.564897 0.083093
C9 C 0.27608(13) 0.2924(3) 0.13122(14)
H12 H 0.303743 0.362020 0.171542
H13 H 0.319698 0.249571 0.097528
C10 C 0.23382(13) 0.1677(2) 0.17622(13)
H14 H 0.277571 0.100711 0.201341
H15 H 0.199148 0.108112 0.135841
C11 C 0.07308(12) 0.2803(2) 0.19448(11)
H16 H 0.086417 0.294535 0.136505
H17 H 0.032419 0.196953 0.196517
S1A S -0.01539(3) 0.91301(5) 0.39658(3)
S2A S -0.16835(3) 0.23151(6) 0.24467(3)
O1A O -0.13424(9) 0.64939(16) 0.46838(8)
O2A O -0.21647(8) 0.37191(16) 0.42024(8)
C1A C -0.03408(11) 0.42056(19) 0.27471(10)
C2A C -0.06714(11) 0.5575(2) 0.29767(11)
H1A H -0.114208 0.557305 0.330576
C3A C -0.03463(11) 0.6937(2) 0.27480(10)
C4A C -0.07345(12) 0.8335(2) 0.30699(11)
H2A H -0.131256 0.810506 0.321746
H3A H -0.077185 0.909475 0.262717
C5A C 0.00336(12) 0.7549(2) 0.46448(11)
H4A H 0.016818 0.667135 0.430616
H5A H 0.053643 0.776959 0.500930
C6A C -0.06671(13) 0.7113(2) 0.51759(12)
H6A H -0.046017 0.637067 0.559065
H7A H -0.086253 0.800589 0.546914
C7A C -0.19233(13) 0.5734(2) 0.51550(12)
H8A H -0.221169 0.645820 0.550048
H9A H -0.162521 0.499935 0.552136
C8A C -0.25542(12) 0.4942(2) 0.45907(13)
H10A H -0.302075 0.457010 0.490758
H11A H -0.278822 0.564897 0.416907
C9A C -0.27608(13) 0.2924(3) 0.36878(14)
H12A H -0.303743 0.362020 0.328458
H13A H -0.319698 0.249571 0.402472
C10A C -0.23382(13) 0.1677(2) 0.32378(13)
H14A H -0.277571 0.100711 0.298659
H15A H -0.199148 0.108112 0.364159
C11A C -0.07308(12) 0.2803(2) 0.30552(11)
H16A H -0.086417 0.294535 0.363495
H17A H -0.032419 0.196953 0.303483
loop_
_geom_bond_atom_site_label_1
_geom_bond_atom_site_label_2
_geom_bond_site_symmetry_1
_geom_bond_site_symmetry_2
S1 C4 1_555 1_555
S2 C10 1_555 1_555
O1 C6 1_555 1_555
O2 C8 1_555 1_555
C1 C2 1_555 1_555
C2 H1 1_555 1_555
C3 C2 1_555 1_555
C4 C3 1_555 1_555
H2 C4 1_555 1_555
H3 C4 1_555 1_555
C5 S1 1_555 1_555
H4 C5 1_555 1_555
H5 C5 1_555 1_555
C6 C5 1_555 1_555
H6 C6 1_555 1_555
H7 C6 1_555 1_555
C7 O1 1_555 1_555
H8 C7 1_555 1_555
H9 C7 1_555 1_555
C8 C7 1_555 1_555
H10 C8 1_555 1_555
H11 C8 1_555 1_555
C9 O2 1_555 1_555
H12 C9 1_555 1_555
H13 C9 1_555 1_555
C10 C9 1_555 1_555
H14 C10 1_555 1_555
H15 C10 1_555 1_555
C11 S2 1_555 1_555
H16 C11 1_555 1_555
H17 C11 1_555 1_555
S1A C4A 1_555 1_555
S2A C10A 1_555 1_555
O1A C6A 1_555 1_555
O2A C8A 1_555 1_555
C1A C1 1_555 1_555
C2A C1A 1_555 1_555
H1A C2A 1_555 1_555
C3A C3 1_555 1_555
C4A C3A 1_555 1_555
H2A C4A 1_555 1_555
H3A C4A 1_555 1_555
C5A S1A 1_555 1_555
H4A C5A 1_555 1_555
H5A C5A 1_555 1_555
C6A C5A 1_555 1_555
H6A C6A 1_555 1_555
H7A C6A 1_555 1_555
C7A O1A 1_555 1_555
H8A C7A 1_555 1_555
H9A C7A 1_555 1_555
C8A C7A 1_555 1_555
H10A C8A 1_555 1_555
H11A C8A 1_555 1_555
C9A O2A 1_555 1_555
H12A C9A 1_555 1_555
H13A C9A 1_555 1_555
C10A C9A 1_555 1_555
H14A C10A 1_555 1_555
H15A C10A 1_555 1_555
C11A S2A 1_555 1_555
H16A C11A 1_555 1_555
H17A C11A 1_555 1_555
C1 C11 1_555 1_555
C1A C11A 1_555 1_555
C2A C3A 1_555 1_555

#END
