
#######################################################################
#
#                 Cambridge Crystallographic Data Centre
#                                CCDC 
#
#######################################################################
#
# If this CIF has been generated from an entry in the Cambridge 
# Structural Database, then it will include bibliographic, chemical, 
# crystal, experimental, refinement or atomic coordinate data resulting 
# from the CCDC's data processing and validation procedures.
#
#######################################################################

data_JIBLIS
_chemical_formula_moiety         'C32 H30 O2'
_chemical_name_systematic        
1,1,4,4-tetrakis(4-methylphenyl)but-2-yne-1,4-diol
_symmetry_cell_setting           orthorhombic
_symmetry_space_group_name_H-M   'P 21 21 21'
_symmetry_Int_Tables_number      19
_space_group_name_Hall           'P 2ac 2ab'
loop_
_symmetry_equiv_pos_site_id
_symmetry_equiv_pos_as_xyz
1 x,y,z
2 1/2-x,-y,1/2+z
3 -x,1/2+y,1/2-z
4 1/2+x,1/2-y,-z
_cell_length_a                   10.0746(7)
_cell_length_b                   14.9228(11)
_cell_length_c                   16.4599(13)
_cell_angle_alpha                90
_cell_angle_beta                 90
_cell_angle_gamma                90
_cell_volume                     2474.6
_exptl_crystal_colour            'light yellow'
_exptl_crystal_description       block
_cell_formula_units_Z            4
_exptl_crystal_recrystallization_method methanedithione
loop_
_atom_site_label
_atom_site_type_symbol
_atom_site_fract_x
_atom_site_fract_y
_atom_site_fract_z
O1 O 0.16755(15) 0.43680(12) 0.45271(11)
H1 H 0.142(3) 0.3848(15) 0.4688(17)
O2 O 0.52700(15) 0.22452(11) 0.51601(11)
H2 H 0.461(2) 0.2167(19) 0.5515(15)
C1 C -0.0250(3) 0.4992(2) 0.82725(17)
H3 H -0.1197 0.4863 0.8201
H4 H -0.0143 0.5604 0.8480
H5 H 0.0133 0.4566 0.8660
C2 C 0.0446(2) 0.49076(17) 0.74725(16)
C3 C -0.0214(2) 0.46409(17) 0.67785(17)
H6 H -0.1128 0.4489 0.6812
C4 C 0.0427(2) 0.45895(16) 0.60323(16)
H7 H -0.0053 0.4404 0.5565
C5 C 0.1757(2) 0.48058(16) 0.59634(16)
C6 C 0.2439(2) 0.50670(18) 0.66651(17)
H8 H 0.3356 0.5211 0.6633
C7 C 0.1794(2) 0.51181(18) 0.74026(17)
H9 H 0.2274 0.5300 0.7871
C8 C 0.2472(2) 0.47729(16) 0.51412(15)
C9 C 0.2756(2) 0.57263(16) 0.48455(16)
C10 C 0.1859(2) 0.61497(18) 0.43346(17)
H10 H 0.1089 0.5838 0.4159
C11 C 0.2071(3) 0.70205(18) 0.40765(19)
H11 H 0.1450 0.7293 0.3719
C12 C 0.3173(3) 0.75039(18) 0.43296(19)
C13 C 0.4069(3) 0.70741(18) 0.48443(18)
H12 H 0.4831 0.7389 0.5028
C14 C 0.3870(2) 0.61966(18) 0.50936(17)
H13 H 0.4503 0.5916 0.5437
C15 C 0.3387(3) 0.8458(2) 0.4063(2)
H14 H 0.2607 0.8817 0.4206
H15 H 0.3521 0.8475 0.3474
H16 H 0.4172 0.8702 0.4337
C16 C 0.3720(2) 0.42457(16) 0.52315(16)
C17 C 0.4666(2) 0.37717(16) 0.52973(15)
C18 C 0.5782(2) 0.31297(16) 0.53350(16)
C19 C 0.6763(2) 0.33496(16) 0.46577(16)
C20 C 0.6922(2) 0.27974(17) 0.39857(16)
H17 H 0.6415 0.2263 0.3940
C21 C 0.7824(2) 0.30255(18) 0.33781(17)
H18 H 0.7928 0.2638 0.2924
C22 C 0.8573(2) 0.38053(18) 0.34197(17)
C23 C 0.8396(2) 0.43581(18) 0.40919(17)
H19 H 0.8892 0.4898 0.4133
C24 C 0.7505(2) 0.41337(16) 0.47063(16)
H20 H 0.7403 0.4519 0.5161
C25 C 0.9561(3) 0.4043(2) 0.27725(18)
H21 H 0.9997 0.3497 0.2577
H22 H 1.0229 0.4451 0.2998
H23 H 0.9103 0.4336 0.2319
C26 C 0.6439(2) 0.31070(17) 0.61738(16)
C27 C 0.5845(2) 0.34597(19) 0.68585(17)
H24 H 0.5041 0.3788 0.6809
C28 C 0.6417(3) 0.3338(2) 0.76196(17)
H25 H 0.5998 0.3588 0.8084
C29 C 0.7591(3) 0.28565(19) 0.77137(17)
C30 C 0.8179(2) 0.25038(18) 0.70196(17)
H26 H 0.8981 0.2173 0.7069
C31 C 0.7624(2) 0.26238(17) 0.62620(17)
H27 H 0.8047 0.2378 0.5797
C32 C 0.8212(3) 0.2715(2) 0.85334(18)
H28 H 0.7761 0.3092 0.8936
H29 H 0.9154 0.2878 0.8510
H30 H 0.8126 0.2084 0.8689
loop_
_geom_bond_atom_site_label_1
_geom_bond_atom_site_label_2
_geom_bond_site_symmetry_1
_geom_bond_site_symmetry_2
O1 H1 1_555 1_555
O2 H2 1_555 1_555
C1 H3 1_555 1_555
H4 C1 1_555 1_555
H5 C1 1_555 1_555
C2 C1 1_555 1_555
C3 C2 1_555 1_555
H6 C3 1_555 1_555
C4 C3 1_555 1_555
H7 C4 1_555 1_555
C5 C4 1_555 1_555
C6 C5 1_555 1_555
H8 C6 1_555 1_555
C7 C2 1_555 1_555
H9 C7 1_555 1_555
C8 O1 1_555 1_555
C9 C8 1_555 1_555
C10 C9 1_555 1_555
H10 C10 1_555 1_555
C11 C10 1_555 1_555
H11 C11 1_555 1_555
C12 C11 1_555 1_555
C13 C12 1_555 1_555
H12 C13 1_555 1_555
C14 C9 1_555 1_555
H13 C14 1_555 1_555
C15 C12 1_555 1_555
H14 C15 1_555 1_555
H15 C15 1_555 1_555
H16 C15 1_555 1_555
C16 C8 1_555 1_555
C17 C16 1_555 1_555
C18 O2 1_555 1_555
C19 C18 1_555 1_555
C20 C19 1_555 1_555
H17 C20 1_555 1_555
C21 C20 1_555 1_555
H18 C21 1_555 1_555
C22 C21 1_555 1_555
C23 C22 1_555 1_555
H19 C23 1_555 1_555
C24 C19 1_555 1_555
H20 C24 1_555 1_555
C25 C22 1_555 1_555
H21 C25 1_555 1_555
H22 C25 1_555 1_555
H23 C25 1_555 1_555
C26 C18 1_555 1_555
C27 C26 1_555 1_555
H24 C27 1_555 1_555
C28 C27 1_555 1_555
H25 C28 1_555 1_555
C29 C28 1_555 1_555
C30 C29 1_555 1_555
H26 C30 1_555 1_555
C31 C26 1_555 1_555
H27 C31 1_555 1_555
C32 C29 1_555 1_555
H28 C32 1_555 1_555
H29 C32 1_555 1_555
H30 C32 1_555 1_555
C5 C8 1_555 1_555
C6 C7 1_555 1_555
C13 C14 1_555 1_555
C17 C18 1_555 1_555
C23 C24 1_555 1_555
C30 C31 1_555 1_555

#END
