
#######################################################################
#
#                 Cambridge Crystallographic Data Centre
#                                CCDC 
#
#######################################################################
#
# If this CIF has been generated from an entry in the Cambridge 
# Structural Database, then it will include bibliographic, chemical, 
# crystal, experimental, refinement or atomic coordinate data resulting 
# from the CCDC's data processing and validation procedures.
#
#######################################################################

data_JIBLOY
_chemical_formula_moiety         'C32 H30 O6,0.5(C1 S2)'
_chemical_name_systematic        
'1,1,4,4-tetrakis(4-methoxyphenyl)but-2-yne-1,4-diol methanedithione solvate'
_symmetry_cell_setting           triclinic
_symmetry_space_group_name_H-M   'P -1'
_symmetry_Int_Tables_number      2
_space_group_name_Hall           '-P 1'
loop_
_symmetry_equiv_pos_site_id
_symmetry_equiv_pos_as_xyz
1 x,y,z
2 -x,-y,-z
_cell_length_a                   6.1786(2)
_cell_length_b                   11.1362(4)
_cell_length_c                   20.7829(8)
_cell_angle_alpha                99.548(3)
_cell_angle_beta                 90.311(3)
_cell_angle_gamma                93.136(3)
_cell_volume                     1407.92
_exptl_crystal_colour            colorless
_exptl_crystal_description       needle
_cell_formula_units_Z            2
_exptl_crystal_recrystallization_method methanedithione
loop_
_atom_site_label
_atom_site_type_symbol
_atom_site_fract_x
_atom_site_fract_y
_atom_site_fract_z
O1 O 0.3127(3) 0.13794(13) 0.39367(7)
O2 O 0.8788(2) 0.67302(12) 0.76433(7)
O3 O 0.8335(2) 0.10801(12) 0.65054(7)
H1 H 0.791(4) 0.0315(15) 0.6324(10)
O4 O 0.0746(2) 0.58306(13) 0.92687(8)
O5 O 0.5202(2) -0.19476(13) 0.96324(7)
O6 O 0.0068(2) 0.04024(12) 0.76478(7)
H2 H -0.047(4) 0.0752(19) 0.7324(9)
C1 C 0.4276(5) 0.1937(2) 0.34514(11)
H3 H 0.3392 0.1835 0.3051
H4 H 0.5650 0.1547 0.3358
H5 H 0.4569 0.2808 0.3615
C2 C 0.4031(4) 0.15466(17) 0.45553(9)
C3 C 0.6101(4) 0.20405(18) 0.47192(10)
H6 H 0.7006 0.2314 0.4399
C4 C 0.6838(4) 0.21320(18) 0.53578(10)
H7 H 0.8257 0.2475 0.5473
C5 C 0.5542(3) 0.17312(16) 0.58331(9)
C6 C 0.3451(3) 0.12538(17) 0.56601(10)
H8 H 0.2538 0.0986 0.5981
C7 C 0.2690(4) 0.11662(18) 0.50261(10)
H9 H 0.1256 0.0847 0.4913
C8 C 0.6479(3) 0.18146(17) 0.65225(9)
C9 C 0.7232(3) 0.31278(17) 0.68035(9)
C10 C 0.9371(3) 0.34936(18) 0.69527(10)
H10 H 1.0455 0.2918 0.6865
C11 C 0.9968(4) 0.46931(18) 0.72296(10)
H11 H 1.1450 0.4932 0.7327
C12 C 0.8402(3) 0.55342(17) 0.73623(10)
C13 C 0.6255(4) 0.51812(19) 0.72056(11)
H12 H 0.5174 0.5760 0.7288
C14 C 0.5681(4) 0.39948(18) 0.69308(11)
H13 H 0.4201 0.3763 0.6826
C15 C 1.0994(4) 0.7164(2) 0.77658(12)
H14 H 1.1804 0.7016 0.7359
H15 H 1.1637 0.6734 0.8088
H16 H 1.1054 0.8041 0.7935
C16 C 0.4849(3) 0.14108(17) 0.69758(9)
C17 C 0.3581(3) 0.11843(17) 0.73793(9)
C18 C 0.2035(3) 0.10431(17) 0.79077(9)
C19 C 0.2941(3) 0.02765(16) 0.83830(9)
C20 C 0.1727(3) 0.00954(17) 0.89252(10)
H17 H 0.0400 0.0483 0.9003
C21 C 0.2418(3) -0.06398(17) 0.93545(10)
H18 H 0.1572 -0.0753 0.9722
C22 C 0.4358(3) -0.12096(17) 0.92419(9)
C23 C 0.5589(4) -0.10306(18) 0.87026(10)
H19 H 0.6917 -0.1418 0.8624
C24 C 0.4883(3) -0.02913(17) 0.82813(10)
H20 H 0.5739 -0.0170 0.7917
C25 C 0.4040(4) -0.21155(19) 1.02076(10)
H21 H 0.2605 -0.2506 1.0084
H22 H 0.3877 -0.1321 1.0482
H23 H 0.4843 -0.2634 1.0451
C26 C 0.1605(3) 0.23332(17) 0.82665(9)
C27 C -0.0446(3) 0.26345(18) 0.84781(9)
H24 H -0.1623 0.2042 0.8393
C28 C -0.0810(3) 0.38009(18) 0.88160(10)
H25 H -0.2226 0.4001 0.8957
C29 C 0.0909(4) 0.46602(17) 0.89426(10)
C30 C 0.2972(3) 0.43695(18) 0.87325(10)
H26 H 0.4150 0.4961 0.8819
C31 C 0.3308(3) 0.32179(18) 0.83970(10)
H27 H 0.4723 0.3025 0.8253
C32 C -0.1384(4) 0.6241(2) 0.94013(12)
H28 H -0.2220 0.6148 0.8992
H29 H -0.1282 0.7102 0.9605
H30 H -0.2109 0.5756 0.9698
C33 C 1.0000 0.5000 0.5000
S1 S 0.7566(5) 0.55152(18) 0.46047(18)
S1A S 1.2434(5) 0.44848(18) 0.53953(18)
S2? S 0.8298(8) 0.5631(4) 0.5175(5)
S3? S 0.8977(15) 0.5604(7) 0.5646(4)
S4? S 1.095(3) 0.5073(13) 0.5621(8)
loop_
_geom_bond_atom_site_label_1
_geom_bond_atom_site_label_2
_geom_bond_site_symmetry_1
_geom_bond_site_symmetry_2
O1 C1 1_555 1_555
O2 C12 1_555 1_555
O3 H1 1_555 1_555
O4 C29 1_555 1_555
O5 C22 1_555 1_555
O6 H2 1_555 1_555
C1 H3 1_555 1_555
H4 C1 1_555 1_555
H5 C1 1_555 1_555
C2 O1 1_555 1_555
C3 C2 1_555 1_555
H6 C3 1_555 1_555
C4 C3 1_555 1_555
H7 C4 1_555 1_555
C5 C4 1_555 1_555
C6 C5 1_555 1_555
H8 C6 1_555 1_555
C7 C2 1_555 1_555
H9 C7 1_555 1_555
C8 O3 1_555 1_555
C9 C8 1_555 1_555
C10 C9 1_555 1_555
H10 C10 1_555 1_555
C11 C10 1_555 1_555
H11 C11 1_555 1_555
C12 C11 1_555 1_555
C13 C12 1_555 1_555
H12 C13 1_555 1_555
C14 C9 1_555 1_555
H13 C14 1_555 1_555
C15 O2 1_555 1_555
H14 C15 1_555 1_555
H15 C15 1_555 1_555
H16 C15 1_555 1_555
C16 C8 1_555 1_555
C17 C16 1_555 1_555
C18 O6 1_555 1_555
C19 C18 1_555 1_555
C20 C19 1_555 1_555
H17 C20 1_555 1_555
C21 C20 1_555 1_555
H18 C21 1_555 1_555
C22 C21 1_555 1_555
C23 C22 1_555 1_555
H19 C23 1_555 1_555
C24 C19 1_555 1_555
H20 C24 1_555 1_555
C25 O5 1_555 1_555
H21 C25 1_555 1_555
H22 C25 1_555 1_555
H23 C25 1_555 1_555
C26 C18 1_555 1_555
C27 C26 1_555 1_555
H24 C27 1_555 1_555
C28 C27 1_555 1_555
H25 C28 1_555 1_555
C29 C28 1_555 1_555
C30 C29 1_555 1_555
H26 C30 1_555 1_555
C31 C26 1_555 1_555
H27 C31 1_555 1_555
C32 O4 1_555 1_555
H28 C32 1_555 1_555
H29 C32 1_555 1_555
H30 C32 1_555 1_555
C33 S1 1_555 1_555
S1A C33 1_555 1_555
C5 C8 1_555 1_555
C6 C7 1_555 1_555
C13 C14 1_555 1_555
C17 C18 1_555 1_555
C23 C24 1_555 1_555
C30 C31 1_555 1_555

#END
