
#######################################################################
#
#                 Cambridge Crystallographic Data Centre
#                                CCDC 
#
#######################################################################
#
# If this CIF has been generated from an entry in the Cambridge 
# Structural Database, then it will include bibliographic, chemical, 
# crystal, experimental, refinement or atomic coordinate data resulting 
# from the CCDC's data processing and validation procedures.
#
#######################################################################

data_JIBMEP
_chemical_formula_moiety         'C28 H18 Cl4 O2'
_chemical_name_systematic        
1,1,4,4-tetrakis(4-chlorophenyl)but-2-yne-1,4-diol
_symmetry_cell_setting           monoclinic
_symmetry_space_group_name_H-M   'P 21/n'
_symmetry_Int_Tables_number      14
_space_group_name_Hall           '-P 2yn'
loop_
_symmetry_equiv_pos_site_id
_symmetry_equiv_pos_as_xyz
1 x,y,z
2 1/2-x,1/2+y,1/2-z
3 -x,-y,-z
4 1/2+x,1/2-y,1/2+z
_cell_length_a                   13.0953(4)
_cell_length_b                   24.0785(8)
_cell_length_c                   15.5215(5)
_cell_angle_alpha                90
_cell_angle_beta                 95.3690(10)
_cell_angle_gamma                90
_cell_volume                     4872.69
_exptl_crystal_colour            'light yellow'
_exptl_crystal_description       block
_cell_formula_units_Z            8
_exptl_crystal_recrystallization_method 1,2-dichlorobenzene
loop_
_atom_site_label
_atom_site_type_symbol
_atom_site_fract_x
_atom_site_fract_y
_atom_site_fract_z
Cl1 Cl 0.04623(4) 0.46576(2) 0.13278(3)
Cl2 Cl 0.30012(5) 0.42044(3) 1.00417(3)
Cl3 Cl -0.03429(4) 0.16357(2) 0.63780(4)
Cl4 Cl 0.58965(4) 0.20265(2) 0.36608(4)
O1 O 0.05907(9) 0.43388(5) 0.60131(8)
H1 H 0.0831(15) 0.4678(7) 0.5963(14)
O2 O 0.41125(9) 0.45403(5) 0.45781(8)
H2 H 0.4523(14) 0.4462(9) 0.5028(11)
C1 C 0.14003(13) 0.39576(7) 0.62842(12)
C2 C 0.22036(14) 0.39827(7) 0.56731(12)
C3 C 0.28003(13) 0.39977(7) 0.51378(12)
C4 C 0.34465(13) 0.40667(7) 0.44072(12)
C5 C 0.27218(13) 0.42148(8) 0.36042(11)
C6 C 0.27015(14) 0.39176(8) 0.28338(12)
H3 H 0.3165 0.3618 0.2787
C7 C 0.20068(15) 0.40554(9) 0.21311(13)
H4 H 0.1995 0.3851 0.1607
C8 C 0.13362(14) 0.44915(8) 0.22043(13)
C9 C 0.13411(14) 0.47962(8) 0.29642(13)
H5 H 0.0878 0.5097 0.3006
C10 C 0.20325(13) 0.46544(8) 0.36597(12)
H6 H 0.2039 0.4859 0.4183
C11 C 0.40754(13) 0.35482(8) 0.42579(11)
C12 C 0.37525(14) 0.30215(8) 0.44830(12)
H7 H 0.3148 0.2983 0.4772
C13 C 0.43003(15) 0.25518(8) 0.42914(13)
H8 H 0.4077 0.2193 0.4447
C14 C 0.51776(15) 0.26146(8) 0.38690(13)
C15 C 0.55133(14) 0.31297(9) 0.36310(12)
H9 H 0.6113 0.3164 0.3335
C16 C 0.49612(13) 0.35977(8) 0.38308(12)
H10 H 0.5190 0.3955 0.3675
C17 C 0.18349(13) 0.40726(7) 0.72226(12)
C18 C 0.12261(14) 0.43060(8) 0.78119(12)
H11 H 0.0556 0.4433 0.7621
C19 C 0.15874(16) 0.43556(9) 0.86785(13)
H12 H 0.1170 0.4518 0.9079
C20 C 0.25592(16) 0.41667(8) 0.89516(12)
C21 C 0.31835(15) 0.39388(8) 0.83775(13)
H13 H 0.3855 0.3815 0.8570
C22 C 0.28133(14) 0.38942(8) 0.75129(13)
H14 H 0.3239 0.3738 0.7112
C23 C 0.09455(13) 0.33690(7) 0.62723(11)
C24 C 0.15878(14) 0.29082(8) 0.62646(13)
H15 H 0.2302 0.2961 0.6230
C25 C 0.12023(15) 0.23741(8) 0.63063(13)
H16 H 0.1644 0.2061 0.6300
C26 C 0.01557(15) 0.23050(8) 0.63576(13)
C27 C -0.04902(15) 0.27546(8) 0.63667(13)
H17 H -0.1204 0.2701 0.6402
C28 C -0.00926(14) 0.32893(8) 0.63245(12)
H18 H -0.0537 0.3601 0.6331
Cl5 Cl 0.44387(4) 0.52238(2) 0.87930(3)
Cl6 Cl 0.16249(5) 0.57202(3) 0.00703(4)
Cl7 Cl 0.54884(5) 0.82760(2) 0.34928(4)
Cl8 Cl -0.07509(4) 0.80534(2) 0.59951(4)
O3 O 0.43692(9) 0.56244(5) 0.39708(8)
H19 H 0.4150(15) 0.5289(7) 0.4050(14)
O4 O 0.08763(9) 0.54496(5) 0.54897(8)
H20 H 0.0473(14) 0.5551(9) 0.5044(12)
C29 C 0.35549(13) 0.60139(7) 0.37371(11)
C30 C 0.27975(13) 0.59918(7) 0.43891(12)
C31 C 0.22311(13) 0.59677(7) 0.49466(12)
C32 C 0.15812(13) 0.59026(7) 0.56804(12)
C33 C 0.22801(13) 0.57256(7) 0.64816(11)
C34 C 0.30309(13) 0.53242(8) 0.64024(12)
H21 H 0.3093 0.5159 0.5854
C35 C 0.36888(14) 0.51619(8) 0.71093(13)
H22 H 0.4199 0.4888 0.7049
C36 C 0.35906(14) 0.54055(8) 0.79051(12)
C37 C 0.28461(16) 0.57998(9) 0.80069(13)
H23 H 0.2782 0.5961 0.8558
C38 C 0.21907(15) 0.59590(9) 0.72914(12)
H24 H 0.1677 0.6230 0.7357
C39 C 0.10021(13) 0.64458(8) 0.58136(11)
C40 C -0.00247(14) 0.64393(8) 0.59670(12)
H25 H -0.0365 0.6095 0.6022
C41 C -0.05595(14) 0.69341(9) 0.60408(13)
H26 H -0.1263 0.6927 0.6144
C42 C -0.00648(15) 0.74328(8) 0.59642(13)
C43 C 0.09736(16) 0.74510(8) 0.58471(13)
H27 H 0.1318 0.7797 0.5816
C44 C 0.14989(14) 0.69548(8) 0.57759(12)
H28 H 0.2210 0.6963 0.5700
C45 C 0.30445(13) 0.58989(7) 0.28193(11)
C46 C 0.34774(15) 0.55439(9) 0.22522(13)
H29 H 0.4074 0.5337 0.2444
C47 C 0.30416(16) 0.54883(10) 0.14014(13)
H30 H 0.3345 0.5250 0.1010
C48 C 0.21663(15) 0.57831(9) 0.11346(13)
C49 C 0.17169(15) 0.61336(9) 0.16917(13)
H31 H 0.1108 0.6330 0.1503
C50 C 0.21668(14) 0.61946(8) 0.25289(13)
H32 H 0.1871 0.6443 0.2912
C51 C 0.40465(13) 0.65912(8) 0.37150(11)
C52 C 0.48941(14) 0.66579(8) 0.32507(12)
H33 H 0.5172 0.6344 0.2985
C53 C 0.53420(14) 0.71738(8) 0.31685(13)
H34 H 0.5928 0.7216 0.2857
C54 C 0.49156(15) 0.76271(8) 0.35505(13)
C55 C 0.40578(16) 0.75768(8) 0.39947(13)
H35 H 0.3765 0.7894 0.4240
C56 C 0.36271(15) 0.70532(8) 0.40789(12)
H36 H 0.3040 0.7013 0.4389
loop_
_geom_bond_atom_site_label_1
_geom_bond_atom_site_label_2
_geom_bond_site_symmetry_1
_geom_bond_site_symmetry_2
Cl1 C8 1_555 1_555
Cl2 C20 1_555 1_555
Cl3 C26 1_555 1_555
Cl4 C14 1_555 1_555
O1 H1 1_555 1_555
O2 H2 1_555 1_555
C1 O1 1_555 1_555
C2 C1 1_555 1_555
C3 C2 1_555 1_555
C4 O2 1_555 1_555
C5 C4 1_555 1_555
C6 C5 1_555 1_555
H3 C6 1_555 1_555
C7 C6 1_555 1_555
H4 C7 1_555 1_555
C8 C7 1_555 1_555
C9 C8 1_555 1_555
H5 C9 1_555 1_555
C10 C5 1_555 1_555
H6 C10 1_555 1_555
C11 C4 1_555 1_555
C12 C11 1_555 1_555
H7 C12 1_555 1_555
C13 C12 1_555 1_555
H8 C13 1_555 1_555
C14 C13 1_555 1_555
C15 C14 1_555 1_555
H9 C15 1_555 1_555
C16 C11 1_555 1_555
H10 C16 1_555 1_555
C17 C1 1_555 1_555
C18 C17 1_555 1_555
H11 C18 1_555 1_555
C19 C18 1_555 1_555
H12 C19 1_555 1_555
C20 C19 1_555 1_555
C21 C20 1_555 1_555
H13 C21 1_555 1_555
C22 C17 1_555 1_555
H14 C22 1_555 1_555
C23 C1 1_555 1_555
C24 C23 1_555 1_555
H15 C24 1_555 1_555
C25 C24 1_555 1_555
H16 C25 1_555 1_555
C26 C25 1_555 1_555
C27 C26 1_555 1_555
H17 C27 1_555 1_555
C28 C23 1_555 1_555
H18 C28 1_555 1_555
Cl5 C36 1_555 1_555
Cl6 C48 1_555 1_555
Cl7 C54 1_555 1_555
Cl8 C42 1_555 1_555
O3 H19 1_555 1_555
O4 H20 1_555 1_555
C29 O3 1_555 1_555
C30 C29 1_555 1_555
C31 C30 1_555 1_555
C32 O4 1_555 1_555
C33 C32 1_555 1_555
C34 C33 1_555 1_555
H21 C34 1_555 1_555
C35 C34 1_555 1_555
H22 C35 1_555 1_555
C36 C35 1_555 1_555
C37 C36 1_555 1_555
H23 C37 1_555 1_555
C38 C33 1_555 1_555
H24 C38 1_555 1_555
C39 C32 1_555 1_555
C40 C39 1_555 1_555
H25 C40 1_555 1_555
C41 C40 1_555 1_555
H26 C41 1_555 1_555
C42 C41 1_555 1_555
C43 C42 1_555 1_555
H27 C43 1_555 1_555
C44 C39 1_555 1_555
H28 C44 1_555 1_555
C45 C29 1_555 1_555
C46 C45 1_555 1_555
H29 C46 1_555 1_555
C47 C46 1_555 1_555
H30 C47 1_555 1_555
C48 C47 1_555 1_555
C49 C48 1_555 1_555
H31 C49 1_555 1_555
C50 C45 1_555 1_555
H32 C50 1_555 1_555
C51 C29 1_555 1_555
C52 C51 1_555 1_555
H33 C52 1_555 1_555
C53 C52 1_555 1_555
H34 C53 1_555 1_555
C54 C53 1_555 1_555
C55 C54 1_555 1_555
H35 C55 1_555 1_555
C56 C51 1_555 1_555
H36 C56 1_555 1_555
C3 C4 1_555 1_555
C9 C10 1_555 1_555
C15 C16 1_555 1_555
C21 C22 1_555 1_555
C27 C28 1_555 1_555
C31 C32 1_555 1_555
C37 C38 1_555 1_555
C43 C44 1_555 1_555
C49 C50 1_555 1_555
C55 C56 1_555 1_555

#END
