
#######################################################################
#
#                 Cambridge Crystallographic Data Centre
#                                CCDC 
#
#######################################################################
#
# If this CIF has been generated from an entry in the Cambridge 
# Structural Database, then it will include bibliographic, chemical, 
# crystal, experimental, refinement or atomic coordinate data resulting 
# from the CCDC's data processing and validation procedures.
#
#######################################################################

data_JIBMIT
_chemical_formula_moiety         'C58 H34 N4,2(C6 H4 Cl2)'
_chemical_name_systematic        
'6,12-bis(biphenyl-4-yl)-3,9-diphenyltetracene-5,5,11,11-tetracarbonitrile 1,2-dichlorobenzene solvate'
_symmetry_cell_setting           triclinic
_symmetry_space_group_name_H-M   'P -1'
_symmetry_Int_Tables_number      2
_space_group_name_Hall           '-P 1'
loop_
_symmetry_equiv_pos_site_id
_symmetry_equiv_pos_as_xyz
1 x,y,z
2 -x,-y,-z
_cell_length_a                   6.2988(2)
_cell_length_b                   14.2356(3)
_cell_length_c                   15.1734(2)
_cell_angle_alpha                77.708(2)
_cell_angle_beta                 89.988(2)
_cell_angle_gamma                77.999(2)
_cell_volume                     1298.93
_exptl_crystal_colour            yellow
_exptl_crystal_description       needle
_cell_formula_units_Z            1
_exptl_crystal_recrystallization_method 1,2-dichlorobenzene
loop_
_atom_site_label
_atom_site_type_symbol
_atom_site_fract_x
_atom_site_fract_y
_atom_site_fract_z
N1 N -0.1054(6) 0.1757(2) 0.2655(2)
N2 N 0.5556(5) 0.0235(2) 0.3655(2)
C1 C -0.0542(5) 0.0073(2) 0.54134(18)
C2 C -0.0604(5) 0.0883(2) 0.57672(18)
C3 C -0.1552(5) 0.0986(2) 0.66537(18)
C4 C -0.3675(5) 0.1518(2) 0.67099(19)
H1 H -0.4573 0.1796 0.6176
C5 C -0.4464(5) 0.1640(2) 0.75391(19)
H2 H -0.5908 0.1995 0.7568
C6 C -0.3179(5) 0.1253(2) 0.83319(18)
C7 C -0.1047(5) 0.0741(2) 0.82670(19)
H3 H -0.0136 0.0477 0.8799
C8 C -0.0249(5) 0.0614(2) 0.74403(19)
H4 H 0.1204 0.0270 0.7411
C9 C -0.6024(5) 0.1196(2) 0.9492(2)
H5 H -0.6989 0.1078 0.9067
C10 C -0.6658(6) 0.1217(2) 1.0365(2)
H6 H -0.8052 0.1107 1.0534
C11 C -0.5287(6) 0.1396(2) 1.0989(2)
H7 H -0.5721 0.1394 1.1589
C12 C -0.3273(6) 0.1580(2) 1.0735(2)
H8 H -0.2335 0.1723 1.1155
C13 C -0.2636(5) 0.1554(2) 0.9866(2)
H9 H -0.1255 0.1682 0.9695
C14 C -0.3974(5) 0.1347(2) 0.92383(19)
C15 C 0.0487(5) 0.1669(2) 0.53402(18)
C16 C 0.0503(5) 0.2489(2) 0.57211(19)
H10 H -0.0269 0.2557 0.6250
C17 C 0.1643(5) 0.3198(2) 0.53272(19)
H11 H 0.1640 0.3743 0.5597
C18 C 0.2785(5) 0.3134(2) 0.45506(18)
C19 C 0.2737(5) 0.2327(2) 0.41724(19)
H12 H 0.3497 0.2263 0.3640
C20 C 0.1604(5) 0.1616(2) 0.45572(18)
C21 C 0.4040(5) 0.3876(2) 0.41349(18)
C22 C 0.3249(5) 0.4876(2) 0.4106(2)
H13 H 0.1914 0.5085 0.4369
C23 C 0.4414(6) 0.5564(2) 0.3693(2)
H14 H 0.3865 0.6243 0.3671
C24 C 0.6373(6) 0.5267(2) 0.3311(2)
H15 H 0.7155 0.5742 0.3024
C25 C 0.7184(5) 0.4278(2) 0.3348(2)
H16 H 0.8535 0.4071 0.3094
C26 C 0.6024(5) 0.3588(2) 0.37556(19)
H17 H 0.6588 0.2910 0.3777
C27 C 0.1520(5) 0.0783(2) 0.40607(18)
C28 C 0.0106(6) 0.1294(2) 0.3238(2)
C29 C 0.3753(5) 0.0436(2) 0.3808(2)
N1A N 0.1054(6) -0.1757(2) 0.7345(2)
N2A N -0.5556(5) -0.0235(2) 0.6345(2)
C1A C 0.0542(5) -0.0073(2) 0.45866(18)
C2A C 0.0604(5) -0.0883(2) 0.42328(18)
C3A C 0.1552(5) -0.0986(2) 0.33463(18)
C4A C 0.3675(5) -0.1518(2) 0.32901(19)
H1A H 0.4573 -0.1796 0.3824
C5A C 0.4464(5) -0.1640(2) 0.24609(19)
H2A H 0.5908 -0.1995 0.2432
C6A C 0.3179(5) -0.1253(2) 0.16681(18)
C7A C 0.1047(5) -0.0741(2) 0.17330(19)
H3A H 0.0136 -0.0477 0.1201
C8A C 0.0249(5) -0.0614(2) 0.25597(19)
H4A H -0.1204 -0.0270 0.2589
C9A C 0.6024(5) -0.1196(2) 0.0508(2)
H5A H 0.6989 -0.1078 0.0933
C10A C 0.6658(6) -0.1217(2) -0.0365(2)
H6A H 0.8052 -0.1107 -0.0534
C11A C 0.5287(6) -0.1396(2) -0.0989(2)
H7A H 0.5721 -0.1394 -0.1589
C12A C 0.3273(6) -0.1580(2) -0.0735(2)
H8A H 0.2335 -0.1723 -0.1155
C13A C 0.2636(5) -0.1554(2) 0.0134(2)
H9A H 0.1255 -0.1682 0.0305
C14A C 0.3974(5) -0.1347(2) 0.07617(19)
C15A C -0.0487(5) -0.1669(2) 0.46598(18)
C16A C -0.0503(5) -0.2489(2) 0.42789(19)
H10A H 0.0269 -0.2557 0.3750
C17A C -0.1643(5) -0.3198(2) 0.46728(19)
H11A H -0.1640 -0.3743 0.4403
C18A C -0.2785(5) -0.3134(2) 0.54494(18)
C19A C -0.2737(5) -0.2327(2) 0.58276(19)
H12A H -0.3497 -0.2263 0.6360
C20A C -0.1604(5) -0.1616(2) 0.54428(18)
C21A C -0.4040(5) -0.3876(2) 0.58651(18)
C22A C -0.3249(5) -0.4876(2) 0.5894(2)
H13A H -0.1914 -0.5085 0.5631
C23A C -0.4414(6) -0.5564(2) 0.6307(2)
H14A H -0.3865 -0.6243 0.6329
C24A C -0.6373(6) -0.5267(2) 0.6689(2)
H15A H -0.7155 -0.5742 0.6976
C25A C -0.7184(5) -0.4278(2) 0.6652(2)
H16A H -0.8535 -0.4071 0.6906
C26A C -0.6024(5) -0.3588(2) 0.62444(19)
H17A H -0.6588 -0.2910 0.6223
C27A C -0.1520(5) -0.0783(2) 0.59393(18)
C28A C -0.0106(6) -0.1294(2) 0.6762(2)
C29A C -0.3753(5) -0.0436(2) 0.6192(2)
Cl1 Cl -0.02074(14) 0.33840(6) 0.82274(5)
Cl2 Cl 0.39124(14) 0.37827(6) 0.91677(5)
C30 C -0.0228(5) 0.4519(2) 0.8482(2)
C31 C -0.2102(5) 0.5252(2) 0.8267(2)
H18 H -0.3334 0.5135 0.7981
C32 C -0.2142(6) 0.6158(2) 0.8475(2)
H19 H -0.3412 0.6666 0.8327
C33 C -0.0363(6) 0.6333(2) 0.8893(2)
H20 H -0.0420 0.6955 0.9038
C34 C 0.1507(6) 0.5603(2) 0.9102(2)
H21 H 0.2738 0.5726 0.9383
C35 C 0.1581(5) 0.4689(2) 0.8900(2)
loop_
_geom_bond_atom_site_label_1
_geom_bond_atom_site_label_2
_geom_bond_site_symmetry_1
_geom_bond_site_symmetry_2
N1 C28 1_555 1_555
N2 C29 1_555 1_555
C1 C2 1_555 1_555
C2 C3 1_555 1_555
C3 C4 1_555 1_555
C4 H1 1_555 1_555
C5 C4 1_555 1_555
H2 C5 1_555 1_555
C6 C5 1_555 1_555
C7 C6 1_555 1_555
H3 C7 1_555 1_555
C8 C3 1_555 1_555
H4 C8 1_555 1_555
C9 H5 1_555 1_555
C10 C9 1_555 1_555
H6 C10 1_555 1_555
C11 C10 1_555 1_555
H7 C11 1_555 1_555
C12 C11 1_555 1_555
H8 C12 1_555 1_555
C13 C12 1_555 1_555
H9 C13 1_555 1_555
C14 C6 1_555 1_555
C15 C2 1_555 1_555
C16 C15 1_555 1_555
H10 C16 1_555 1_555
C17 C16 1_555 1_555
H11 C17 1_555 1_555
C18 C17 1_555 1_555
C19 C18 1_555 1_555
H12 C19 1_555 1_555
C20 C15 1_555 1_555
C21 C18 1_555 1_555
C22 C21 1_555 1_555
H13 C22 1_555 1_555
C23 C22 1_555 1_555
H14 C23 1_555 1_555
C24 C23 1_555 1_555
H15 C24 1_555 1_555
C25 C24 1_555 1_555
H16 C25 1_555 1_555
C26 C21 1_555 1_555
H17 C26 1_555 1_555
C27 C20 1_555 1_555
C28 C27 1_555 1_555
C29 C27 1_555 1_555
Cl1 C30 1_555 1_555
Cl2 C35 1_555 1_555
C30 C31 1_555 1_555
C31 H18 1_555 1_555
C32 C31 1_555 1_555
H19 C32 1_555 1_555
C33 C32 1_555 1_555
H20 C33 1_555 1_555
C34 C33 1_555 1_555
H21 C34 1_555 1_555
C35 C30 1_555 1_555
N1A C28A 1_555 1_555
N2A C29A 1_555 1_555
C1A C1 1_555 1_555
C2A C1A 1_555 1_555
C3A C2A 1_555 1_555
C4A C3A 1_555 1_555
H1A C4A 1_555 1_555
C5A C4A 1_555 1_555
H2A C5A 1_555 1_555
C6A C5A 1_555 1_555
C7A C6A 1_555 1_555
H3A C7A 1_555 1_555
C8A C3A 1_555 1_555
H4A C8A 1_555 1_555
C9A H5A 1_555 1_555
C10A C9A 1_555 1_555
H6A C10A 1_555 1_555
C11A C10A 1_555 1_555
H7A C11A 1_555 1_555
C12A C11A 1_555 1_555
H8A C12A 1_555 1_555
C13A C12A 1_555 1_555
H9A C13A 1_555 1_555
C14A C6A 1_555 1_555
C15A C2A 1_555 1_555
C16A C15A 1_555 1_555
H10A C16A 1_555 1_555
C17A C16A 1_555 1_555
H11A C17A 1_555 1_555
C18A C17A 1_555 1_555
C19A C18A 1_555 1_555
H12A C19A 1_555 1_555
C20A C15A 1_555 1_555
C21A C18A 1_555 1_555
C22A C21A 1_555 1_555
H13A C22A 1_555 1_555
C23A C22A 1_555 1_555
H14A C23A 1_555 1_555
C24A C23A 1_555 1_555
H15A C24A 1_555 1_555
C25A C24A 1_555 1_555
H16A C25A 1_555 1_555
C26A C21A 1_555 1_555
H17A C26A 1_555 1_555
C27A C1 1_555 1_555
C28A C27A 1_555 1_555
C29A C27A 1_555 1_555
C7 C8 1_555 1_555
C9 C14 1_555 1_555
C13 C14 1_555 1_555
C19 C20 1_555 1_555
C25 C26 1_555 1_555
C27 C1A 1_555 1_555
C34 C35 1_555 1_555
C7A C8A 1_555 1_555
C9A C14A 1_555 1_555
C13A C14A 1_555 1_555
C19A C20A 1_555 1_555
C20A C27A 1_555 1_555
C25A C26A 1_555 1_555

#END
