
#######################################################################
#
#                 Cambridge Crystallographic Data Centre
#                                CCDC 
#
#######################################################################
#
# If this CIF has been generated from an entry in the Cambridge 
# Structural Database, then it will include bibliographic, chemical, 
# crystal, experimental, refinement or atomic coordinate data resulting 
# from the CCDC's data processing and validation procedures.
#
#######################################################################

data_JIBMOZ
_chemical_formula_moiety         'C36 H26 N2 S4'
_chemical_name_systematic        
3,9-bis(methylsulfanyl)-6,12-bis(4-(methylsulfanyl)phenyl)tetracene-5,11-dicarbonitrile
_symmetry_cell_setting           monoclinic
_symmetry_space_group_name_H-M   'C 2/c'
_symmetry_Int_Tables_number      15
_space_group_name_Hall           '-C 2yn'
loop_
_symmetry_equiv_pos_site_id
_symmetry_equiv_pos_as_xyz
1 x,y,z
2 -x,y,1/2-z
3 1/2+x,1/2+y,z
4 1/2-x,1/2+y,1/2-z
5 -x,-y,-z
6 x,-y,1/2+z
7 1/2-x,1/2-y,-z
8 1/2+x,1/2-y,1/2+z
_cell_length_a                   23.842(3)
_cell_length_b                   5.3569(8)
_cell_length_c                   23.732(4)
_cell_angle_alpha                90
_cell_angle_beta                 104.620(8)
_cell_angle_gamma                90
_cell_volume                     2932.89
_exptl_crystal_colour            'dark red'
_exptl_crystal_description       needle
_cell_formula_units_Z            4
_exptl_crystal_recrystallization_method dichloromethane
loop_
_atom_site_label
_atom_site_type_symbol
_atom_site_fract_x
_atom_site_fract_y
_atom_site_fract_z
S1 S 0.38392(3) 0.28995(13) 0.75926(3)
S2 S 0.48046(5) 0.1087(2) 0.38408(8)
N1 N 0.36768(10) 0.1349(4) 0.52831(10)
C1 C 0.27082(10) 0.6653(4) 0.49296(10)
C2 C 0.30414(10) 0.5527(4) 0.59700(10)
C3 C 0.30519(10) 0.5177(4) 0.53867(10)
C4 C 0.23670(10) 0.7739(4) 0.38967(10)
C5 C 0.34003(11) 0.3108(5) 0.52868(10)
C6 C 0.27582(10) 0.6480(4) 0.43444(10)
C7 C 0.32617(10) 0.5182(4) 0.42114(10)
C8 C 0.3186(2) 0.3029(9) 0.3870(3)
H1 H 0.2806 0.2388 0.3715
C9 C 0.26199(11) 0.7487(5) 0.67047(11)
H2 H 0.2345 0.8577 0.6804
C10 C 0.34087(11) 0.4127(4) 0.64297(11)
H3 H 0.3670 0.2943 0.6340
C11 C 0.3816(2) 0.6159(11) 0.4420(4)
H4 H 0.3871 0.7637 0.4648
C12 C 0.29871(11) 0.6195(5) 0.71319(11)
H5 H 0.2977 0.6439 0.7526
C13 C 0.33932(11) 0.4456(5) 0.69977(11)
C14 C 0.3657(2) 0.1817(9) 0.3755(3)
H6 H 0.3602 0.0330 0.3529
C15 C 0.42118(18) 0.2773(9) 0.3969(3)
C16 C 0.4289(2) 0.4978(11) 0.4294(3)
H7 H 0.4666 0.5671 0.4430
C17 C 0.41878(12) 0.0609(6) 0.72434(13)
H8 H 0.3893 -0.0347 0.6964
H9 H 0.4416 -0.0524 0.7537
H10 H 0.4444 0.1449 0.7039
C18 C 0.53643(12) 0.3366(6) 0.39333(19)
H11 H 0.5240 0.4715 0.3650
H12 H 0.5716 0.2588 0.3872
H13 H 0.5445 0.4048 0.4329
S1F S 0.11608(3) 1.21005(13) 0.24074(3)
S2F S 0.01954(5) 1.3913(2) 0.61592(8)
N1F N 0.13232(10) 1.3651(4) 0.47169(10)
C1F C 0.22918(10) 0.8347(4) 0.50704(10)
C2F C 0.19586(10) 0.9473(4) 0.40300(10)
C3F C 0.19481(10) 0.9823(4) 0.46133(10)
C4F C 0.26330(10) 0.7261(4) 0.61033(10)
C5F C 0.15997(11) 1.1892(5) 0.47132(10)
C6F C 0.22418(10) 0.8520(4) 0.56556(10)
C7F C 0.17383(10) 0.9818(4) 0.57886(10)
C8F C 0.1814(2) 1.1971(9) 0.6130(3)
H1F H 0.2194 1.2612 0.6285
C9F C 0.23801(11) 0.7513(5) 0.32953(11)
H2F H 0.2655 0.6423 0.3196
C10F C 0.15913(11) 1.0873(4) 0.35703(11)
H3F H 0.1330 1.2057 0.3660
C11F C 0.1184(2) 0.8841(11) 0.5580(4)
H4F H 0.1129 0.7363 0.5352
C12F C 0.20129(11) 0.8805(5) 0.28681(11)
H5F H 0.2023 0.8561 0.2474
C13F C 0.16068(11) 1.0544(5) 0.30023(11)
C14F C 0.1343(2) 1.3183(9) 0.6245(3)
H6F H 0.1398 1.4670 0.6471
C15F C 0.07882(18) 1.2227(9) 0.6031(3)
C16F C 0.0711(2) 1.0022(11) 0.5706(3)
H7F H 0.0334 0.9329 0.5570
C17F C 0.08122(12) 1.4391(6) 0.27566(13)
H8F H 0.1107 1.5347 0.3036
H9F H 0.0584 1.5524 0.2463
H10F H 0.0556 1.3551 0.2961
C18F C -0.03643(12) 1.1634(6) 0.60667(19)
H11F H -0.0240 1.0285 0.6350
H12F H -0.0716 1.2412 0.6128
H13F H -0.0445 1.0952 0.5671
S3? S 0.4855(4) 0.240(4) 0.3657(5)
C19? C 0.4777(6) -0.069(3) 0.3547(6)
H14? H 0.4836 -0.0032 0.3181
H15? H 0.4365 -0.1075 0.3497
H16? H 0.5006 -0.2215 0.3654
C20? C 0.3244(12) 0.308(5) 0.3863(16)
H17? H 0.2892 0.2181 0.3731
C21? C 0.3740(14) 0.229(7) 0.3707(19)
H18? H 0.3726 0.0853 0.3469
C22? C 0.4254(10) 0.360(6) 0.3901(15)
C23? C 0.4276(10) 0.569(7) 0.425(2)
H19? H 0.4630 0.6573 0.4385
C24? C 0.3778(10) 0.650(6) 0.4396(19)
H20? H 0.3791 0.7968 0.4625
S4? S 0.4998(3) 0.1571(14) 0.4106(3)
C25? C 0.5432(9) 0.277(8) 0.4294(10)
H21? H 0.5798 0.2273 0.4210
H22? H 0.5359 0.1728 0.4607
H23? H 0.5455 0.4527 0.4416
C26? C 0.3284(9) 0.296(3) 0.3895(10)
H24? H 0.2932 0.2131 0.3720
C27? C 0.3804(10) 0.194(4) 0.3829(12)
H25? H 0.3800 0.0455 0.3609
C28? C 0.4323(8) 0.310(5) 0.4086(11)
C29? C 0.4330(8) 0.530(6) 0.4397(15)
H26? H 0.4687 0.6087 0.4577
C30? C 0.3805(7) 0.634(5) 0.4445(15)
H27? H 0.3813 0.7892 0.4642
loop_
_geom_bond_atom_site_label_1
_geom_bond_atom_site_label_2
_geom_bond_site_symmetry_1
_geom_bond_site_symmetry_2
S1 C13 1_555 1_555
S2 C15 1_555 1_555
N1 C5 1_555 1_555
C1 C3 1_555 1_555
C2 C3 1_555 1_555
C3 C5 1_555 1_555
C4 C6 1_555 1_555
C6 C1 1_555 1_555
C7 C6 1_555 1_555
C8 C7 1_555 1_555
H1 C8 1_555 1_555
C9 H2 1_555 1_555
C10 C2 1_555 1_555
H3 C10 1_555 1_555
C11 C7 1_555 1_555
H4 C11 1_555 1_555
C12 C9 1_555 1_555
H5 C12 1_555 1_555
C13 C10 1_555 1_555
C14 C8 1_555 1_555
H6 C14 1_555 1_555
C15 C14 1_555 1_555
C16 C11 1_555 1_555
H7 C16 1_555 1_555
C17 S1 1_555 1_555
H8 C17 1_555 1_555
H9 C17 1_555 1_555
H10 C17 1_555 1_555
C18 S2 1_555 1_555
H11 C18 1_555 1_555
H12 C18 1_555 1_555
H13 C18 1_555 1_555
S1F C13F 1_555 1_555
S2F C15F 1_555 1_555
N1F C5F 1_555 1_555
C1F C1 1_555 1_555
C2F C4 1_555 1_555
C3F C1F 1_555 1_555
C4F C2 1_555 1_555
C5F C3F 1_555 1_555
C6F C1F 1_555 1_555
C7F C6F 1_555 1_555
C8F C7F 1_555 1_555
H1F C8F 1_555 1_555
C9F C4 1_555 1_555
H2F C9F 1_555 1_555
C10F C2F 1_555 1_555
H3F C10F 1_555 1_555
C11F C7F 1_555 1_555
H4F C11F 1_555 1_555
C12F C9F 1_555 1_555
H5F C12F 1_555 1_555
C13F C10F 1_555 1_555
C14F C8F 1_555 1_555
H6F C14F 1_555 1_555
C15F C14F 1_555 1_555
C16F C11F 1_555 1_555
H7F C16F 1_555 1_555
C17F S1F 1_555 1_555
H8F C17F 1_555 1_555
H9F C17F 1_555 1_555
H10F C17F 1_555 1_555
C18F S2F 1_555 1_555
H11F C18F 1_555 1_555
H12F C18F 1_555 1_555
H13F C18F 1_555 1_555
C9 C4F 1_555 1_555
C12 C13 1_555 1_555
C15 C16 1_555 1_555
C2F C3F 1_555 1_555
C4F C6F 1_555 1_555
C12F C13F 1_555 1_555
C15F C16F 1_555 1_555

#END
