
#######################################################################
#
#                 Cambridge Crystallographic Data Centre
#                                CCDC 
#
#######################################################################
#
# If this CIF has been generated from an entry in the Cambridge 
# Structural Database, then it will include bibliographic, chemical, 
# crystal, experimental, refinement or atomic coordinate data resulting 
# from the CCDC's data processing and validation procedures.
#
#######################################################################

data_JIBNUG
_chemical_formula_moiety         'C30 H45 N3 O1 Si1 1+,C1 F3 O3 S1 1-'
_chemical_name_systematic        
'1,3-bis[2,6-di(propan-2-yl)phenyl]-2-{[(trimethylsilyl)oxidaniumylidene]amino}-2,3-dihydro-1H-imidazol-2-yl radical trifluoromethanesulfonate'
_symmetry_cell_setting           monoclinic
_symmetry_space_group_name_H-M   'P 21/c'
_symmetry_Int_Tables_number      14
_space_group_name_Hall           '-P 2ybc'
loop_
_symmetry_equiv_pos_site_id
_symmetry_equiv_pos_as_xyz
1 x,y,z
2 -x,1/2+y,1/2-z
3 -x,-y,-z
4 x,1/2-y,1/2+z
_cell_length_a                   16.493(3)
_cell_length_b                   11.719(2)
_cell_length_c                   18.110(4)
_cell_angle_alpha                90
_cell_angle_beta                 101.63(3)
_cell_angle_gamma                90
_cell_volume                     3428.47
_exptl_crystal_colour            'dark brown'
_exptl_crystal_description       block
_cell_formula_units_Z            4
loop_
_atom_site_label
_atom_site_type_symbol
_atom_site_fract_x
_atom_site_fract_y
_atom_site_fract_z
S1 S 0.20030(5) 0.31767(7) 0.29838(4)
F1 F 0.15275(11) 0.38375(15) 0.42190(10)
F2 F 0.06835(12) 0.26939(19) 0.35241(11)
F3 F 0.18164(14) 0.20599(17) 0.41965(11)
O1 O 0.28487(13) 0.3342(2) 0.33485(13)
O2 O 0.18312(15) 0.21520(19) 0.25447(13)
O3 O 0.15993(14) 0.42007(18) 0.26382(12)
C1 C 0.14834(19) 0.2922(3) 0.37677(18)
Si1 Si 0.18815(5) 0.89863(7) 0.62182(5)
N1 N 0.32961(13) 0.59030(19) 0.50895(12)
N2 N 0.23259(13) 0.6817(2) 0.43052(12)
N3 N 0.26502(14) 0.7348(2) 0.56551(13)
O4 O 0.20366(12) 0.81335(17) 0.54764(11)
C2 C 0.27234(16) 0.6760(2) 0.50414(15)
C3 C 0.26376(17) 0.5987(2) 0.39083(16)
H1 H 0.2464 0.5833 0.3397
C4 C 0.32414(17) 0.5430(2) 0.43904(16)
H2 H 0.3562 0.4833 0.4269
C5 C 0.1368(2) 0.8102(3) 0.68253(18)
H3 H 0.0856 0.7814 0.6537
H4 H 0.1258 0.8555 0.7236
H5 H 0.1721 0.7474 0.7020
C6 C 0.29193(19) 0.9467(3) 0.67053(18)
H6 H 0.3234 0.8823 0.6932
H7 H 0.2864 1.0009 0.7089
H8 H 0.3199 0.9818 0.6348
C7 C 0.1230(2) 1.0108(3) 0.56931(19)
H9 H 0.1479 1.0377 0.5290
H10 H 0.1180 1.0730 0.6026
H11 H 0.0691 0.9805 0.5489
C8 C 0.17414(17) 0.7689(2) 0.39452(15)
C9 C 0.09087(17) 0.7491(3) 0.38621(16)
C10 C 0.05485(17) 0.6448(3) 0.41860(16)
H12 H 0.1011 0.5992 0.4459
C11 C 0.00240(19) 0.6815(3) 0.47474(17)
H13 H 0.0358 0.7251 0.5145
H14 H -0.0186 0.6151 0.4956
H15 H -0.0430 0.7275 0.4495
C12 C 0.30200(19) 0.8856(3) 0.37981(18)
H16 H 0.3296 0.8134 0.3967
C13 C 0.1530(2) 0.9461(3) 0.33036(17)
H17 H 0.1727 1.0128 0.3124
C14 C 0.20892(19) 0.8656(3) 0.36700(17)
C15 C 0.0695(2) 0.9286(3) 0.32031(18)
H18 H 0.0332 0.9832 0.2951
C16 C 0.03833(19) 0.8314(3) 0.34688(16)
H19 H -0.0186 0.8205 0.3384
C17 C 0.00614(19) 0.5709(3) 0.35597(17)
H20 H -0.0382 0.6148 0.3268
H21 H -0.0163 0.5063 0.3776
H22 H 0.0422 0.5449 0.3239
C18 C 0.3291(2) 0.9738(3) 0.4423(2)
H23 H 0.3052 1.0466 0.4261
H24 H 0.3884 0.9800 0.4530
H25 H 0.3107 0.9502 0.4870
C19 C 0.3309(2) 0.9226(4) 0.3084(2)
H26 H 0.3154 0.8658 0.2700
H27 H 0.3900 0.9312 0.3193
H28 H 0.3055 0.9941 0.2912
C20 C 0.38863(16) 0.5587(3) 0.57684(15)
C21 C 0.37338(17) 0.4566(3) 0.61272(16)
C22 C 0.43331(19) 0.4266(3) 0.67552(17)
H29 H 0.4260 0.3606 0.7020
C23 C 0.45767(17) 0.6277(3) 0.59980(16)
C24 C 0.47097(18) 0.7384(3) 0.55962(17)
H30 H 0.4174 0.7610 0.5291
C25 C 0.29572(18) 0.3876(3) 0.58622(18)
H31 H 0.2846 0.3874 0.5310
C26 C 0.50246(19) 0.4915(3) 0.69915(18)
H32 H 0.5414 0.4685 0.7411
C27 C 0.22180(19) 0.4417(3) 0.61019(19)
H33 H 0.2296 0.4400 0.6642
H34 H 0.1726 0.4000 0.5886
H35 H 0.2163 0.5194 0.5930
C28 C 0.51574(19) 0.5910(3) 0.66192(17)
H36 H 0.5636 0.6333 0.6786
C29 C 0.3037(2) 0.2622(3) 0.6124(2)
H37 H 0.3506 0.2280 0.5970
H38 H 0.2544 0.2214 0.5900
H39 H 0.3112 0.2592 0.6663
C30 C 0.5303(2) 0.7224(3) 0.5065(2)
H40 H 0.5846 0.7057 0.5352
H41 H 0.5322 0.7911 0.4780
H42 H 0.5117 0.6603 0.4727
C31 C 0.4997(2) 0.8341(3) 0.6148(2)
H43 H 0.4648 0.8377 0.6512
H44 H 0.4969 0.9052 0.5881
H45 H 0.5558 0.8202 0.6402
loop_
_geom_bond_atom_site_label_1
_geom_bond_atom_site_label_2
_geom_bond_site_symmetry_1
_geom_bond_site_symmetry_2
S1 O1 1_555 1_555
F1 C1 1_555 1_555
F2 C1 1_555 1_555
F3 C1 1_555 1_555
O2 S1 1_555 1_555
O3 S1 1_555 1_555
C1 S1 1_555 1_555
Si1 O4 1_555 1_555
N1 C2 1_555 1_555
N2 C2 1_555 1_555
N3 O4 1_555 1_555
C2 N3 1_555 1_555
C3 N2 1_555 1_555
H1 C3 1_555 1_555
C4 N1 1_555 1_555
H2 C4 1_555 1_555
C5 Si1 1_555 1_555
H3 C5 1_555 1_555
H4 C5 1_555 1_555
H5 C5 1_555 1_555
C6 Si1 1_555 1_555
H6 C6 1_555 1_555
H7 C6 1_555 1_555
H8 C6 1_555 1_555
C7 Si1 1_555 1_555
H9 C7 1_555 1_555
H10 C7 1_555 1_555
H11 C7 1_555 1_555
C8 N2 1_555 1_555
C9 C8 1_555 1_555
C10 C9 1_555 1_555
H12 C10 1_555 1_555
C11 C10 1_555 1_555
H13 C11 1_555 1_555
H14 C11 1_555 1_555
H15 C11 1_555 1_555
C12 H16 1_555 1_555
C13 H17 1_555 1_555
C14 C8 1_555 1_555
C15 C13 1_555 1_555
H18 C15 1_555 1_555
C16 C9 1_555 1_555
H19 C16 1_555 1_555
C17 C10 1_555 1_555
H20 C17 1_555 1_555
H21 C17 1_555 1_555
H22 C17 1_555 1_555
C18 C12 1_555 1_555
H23 C18 1_555 1_555
H24 C18 1_555 1_555
H25 C18 1_555 1_555
C19 C12 1_555 1_555
H26 C19 1_555 1_555
H27 C19 1_555 1_555
H28 C19 1_555 1_555
C20 N1 1_555 1_555
C21 C20 1_555 1_555
C22 C21 1_555 1_555
H29 C22 1_555 1_555
C23 C20 1_555 1_555
C24 C23 1_555 1_555
H30 C24 1_555 1_555
C25 C21 1_555 1_555
H31 C25 1_555 1_555
C26 C22 1_555 1_555
H32 C26 1_555 1_555
C27 C25 1_555 1_555
H33 C27 1_555 1_555
H34 C27 1_555 1_555
H35 C27 1_555 1_555
C28 C23 1_555 1_555
H36 C28 1_555 1_555
C29 C25 1_555 1_555
H37 C29 1_555 1_555
H38 C29 1_555 1_555
H39 C29 1_555 1_555
C30 C24 1_555 1_555
H40 C30 1_555 1_555
H41 C30 1_555 1_555
H42 C30 1_555 1_555
C31 C24 1_555 1_555
H43 C31 1_555 1_555
H44 C31 1_555 1_555
H45 C31 1_555 1_555
C3 C4 1_555 1_555
C12 C14 1_555 1_555
C13 C14 1_555 1_555
C15 C16 1_555 1_555
C26 C28 1_555 1_555

#END
