
#######################################################################
#
#                 Cambridge Crystallographic Data Centre
#                                CCDC 
#
#######################################################################
#
# If this CIF has been generated from an entry in the Cambridge 
# Structural Database, then it will include bibliographic, chemical, 
# crystal, experimental, refinement or atomic coordinate data resulting 
# from the CCDC's data processing and validation procedures.
#
#######################################################################

data_JIBPES
_chemical_formula_moiety         'C30 H43 N3 O1 1+,C1 F3 O3 S1 1-'
_chemical_name_systematic        
'1,3-bis[2,6-di(propan-2-yl)phenyl]-2-{[(propan-2-yl)oxidaniumylidene]amino}-2,3-dihydro-1H-imidazol-2-yl radical trifluoromethanesulfonate'
_symmetry_cell_setting           triclinic
_symmetry_space_group_name_H-M   'P -1'
_symmetry_Int_Tables_number      2
_space_group_name_Hall           '-P 1'
loop_
_symmetry_equiv_pos_site_id
_symmetry_equiv_pos_as_xyz
1 x,y,z
2 -x,-y,-z
_cell_length_a                   9.1690(18)
_cell_length_b                   12.234(2)
_cell_length_c                   15.271(3)
_cell_angle_alpha                88.26(3)
_cell_angle_beta                 75.09(3)
_cell_angle_gamma                78.96(3)
_cell_volume                     1624.37
_exptl_crystal_colour            'dark red'
_exptl_crystal_description       block
_cell_formula_units_Z            2
loop_
_atom_site_label
_atom_site_type_symbol
_atom_site_fract_x
_atom_site_fract_y
_atom_site_fract_z
S1 S -0.05826(4) 0.73252(3) 0.72599(2)
F1 F -0.10549(13) 0.68931(10) 0.56851(7)
F2 F -0.04477(14) 0.84995(10) 0.57811(7)
F3 F -0.27237(13) 0.82348(11) 0.64523(8)
O1 O 0.10655(14) 0.69859(11) 0.69012(8)
O2 O -0.10640(16) 0.83264(10) 0.78106(8)
O3 O -0.13691(16) 0.64241(11) 0.75998(8)
C1 C -0.12334(18) 0.77571(14) 0.62453(10)
O4 O 0.34447(12) 0.09466(9) 0.78839(7)
N1 N 0.14533(13) 0.29453(10) 0.77549(7)
N2 N 0.34616(13) 0.36379(10) 0.70387(7)
N3 N 0.40962(14) 0.18091(10) 0.75051(8)
C2 C 0.09391(15) 0.40206(12) 0.75279(8)
H1 H -0.01016(15) 0.43981(12) 0.76587(8)
C3 C 0.30196(15) 0.27100(11) 0.74582(8)
C4 C 0.57483(16) 0.42858(11) 0.71767(8)
C5 C 0.50386(15) 0.37629(11) 0.66434(8)
C6 C 0.21925(16) 0.44485(12) 0.70807(9)
H2 H 0.21830(16) 0.51757(12) 0.68429(9)
C7 C 0.04859(15) 0.22426(11) 0.83145(8)
C8 C 0.02666(16) 0.23242(12) 0.92525(9)
C9 C 0.72105(16) 0.36105(12) 0.53691(9)
H3 H 0.77317(16) 0.33694(12) 0.47648(9)
C10 C 0.72103(16) 0.44965(12) 0.67595(9)
H4 H 0.77178(16) 0.48729(12) 0.70911(9)
C11 C -0.01435(16) 0.15265(12) 0.78852(9)
C12 C 0.57314(15) 0.34043(11) 0.57438(8)
C13 C 0.79312(16) 0.41635(12) 0.58674(9)
H5 H 0.89251(16) 0.43145(12) 0.55949(9)
C14 C 0.49522(16) 0.28057(12) 0.51883(8)
H6 H 0.38421(16) 0.28864(12) 0.55180(8)
C15 C 0.09240(17) 0.31373(13) 0.97023(9)
H7 H 0.12421(17) 0.37074(13) 0.92464(9)
C16 C -0.0585(2) 0.15930(14) 0.97810(10)
H8 H -0.0765(2) 0.16176(14) 1.04218(10)
C17 C -0.09643(19) 0.08036(13) 0.84436(11)
H9 H -0.13878(19) 0.02851(13) 0.81819(11)
C18 C 0.00491(17) 0.15021(13) 0.68649(9)
H10 H 0.02615(17) 0.22413(13) 0.66257(9)
C19 C -0.1169(2) 0.08344(14) 0.93794(11)
H11 H -0.1715(2) 0.03283(14) 0.97468(11)
C20 C 0.50003(17) 0.46240(13) 0.81636(9)
H12 H 0.40100(17) 0.43465(13) 0.83491(9)
C21 C 0.46396(19) -0.00316(14) 0.78978(11)
H13 H 0.54847(19) -0.00722(14) 0.73284(11)
C22 C -0.0283(2) 0.37475(14) 1.05135(10)
H14 H -0.1177(7) 0.4135(10) 1.0313(2)
H15 H -0.0604(12) 0.3207(2) 1.0976(4)
H16 H 0.0159(5) 0.4290(8) 1.0770(6)
C23 C 0.50470(19) 0.33144(14) 0.42539(10)
H17 H 0.4655(15) 0.4119(2) 0.43226(11)
H18 H 0.6120(3) 0.3176(10) 0.3896(3)
H19 H 0.4427(13) 0.2974(8) 0.3944(4)
C24 C 0.23573(19) 0.25505(16) 0.99945(11)
H20 H 0.2089(4) 0.1958(8) 1.0417(8)
H21 H 0.3156(6) 0.2227(11) 0.94598(16)
H22 H 0.2741(10) 0.3092(3) 1.0293(9)
C25 C -0.14192(19) 0.13197(15) 0.66296(11)
H23 H -0.1579(9) 0.0561(4) 0.6787(9)
H24 H -0.2302(3) 0.1857(8) 0.6972(7)
H25 H -0.1314(7) 0.1424(12) 0.5979(2)
C26 C 0.1410(2) 0.06051(17) 0.63916(11)
H26 H 0.2358(3) 0.0759(7) 0.6503(9)
H27 H 0.1245(8) -0.0126(2) 0.6630(7)
H28 H 0.1499(11) 0.0608(9) 0.57381(16)
C27 C 0.5661(2) 0.15636(13) 0.50994(11)
H29 H 0.6745(5) 0.14642(15) 0.4765(8)
H30 H 0.5582(15) 0.1250(3) 0.57043(11)
H31 H 0.5109(11) 0.1180(2) 0.4772(8)
C28 C 0.4632(2) 0.58890(14) 0.82863(10)
H32 H 0.5585(3) 0.61829(17) 0.8098(9)
H33 H 0.3936(13) 0.62110(17) 0.7915(7)
H34 H 0.4137(14) 0.60854(14) 0.89254(19)
C29 C 0.6021(3) 0.40820(19) 0.87703(11)
H35 H 0.6306(16) 0.3278(3) 0.8644(8)
H36 H 0.6952(9) 0.4403(10) 0.8648(8)
H37 H 0.5458(7) 0.4218(12) 0.94078(11)
C30 C 0.5276(2) 0.00391(17) 0.87068(13)
H38 H 0.5720(17) 0.0712(7) 0.8671(6)
H39 H 0.4448(4) 0.0070(14) 0.92638(14)
H40 H 0.6075(13) -0.0619(7) 0.8711(6)
C31 C 0.3845(3) -0.10183(15) 0.79266(13)
H41 H 0.3004(12) -0.0968(7) 0.8479(6)
H42 H 0.3431(16) -0.1012(8) 0.7395(6)
H43 H 0.4587(5) -0.17116(16) 0.7924(11)
loop_
_geom_bond_atom_site_label_1
_geom_bond_atom_site_label_2
_geom_bond_site_symmetry_1
_geom_bond_site_symmetry_2
S1 O1 1_555 1_555
F1 C1 1_555 1_555
F2 C1 1_555 1_555
F3 C1 1_555 1_555
O2 S1 1_555 1_555
O3 S1 1_555 1_555
C1 S1 1_555 1_555
O4 N3 1_555 1_555
N1 C2 1_555 1_555
N2 C3 1_555 1_555
N3 C3 1_555 1_555
C2 H1 1_555 1_555
C3 N1 1_555 1_555
C4 C5 1_555 1_555
C5 N2 1_555 1_555
C6 N2 1_555 1_555
H2 C6 1_555 1_555
C7 N1 1_555 1_555
C8 C7 1_555 1_555
C9 H3 1_555 1_555
C10 C4 1_555 1_555
H4 C10 1_555 1_555
C11 C7 1_555 1_555
C12 C5 1_555 1_555
C13 C9 1_555 1_555
H5 C13 1_555 1_555
C14 C12 1_555 1_555
H6 C14 1_555 1_555
C15 C8 1_555 1_555
H7 C15 1_555 1_555
C16 C8 1_555 1_555
H8 C16 1_555 1_555
C17 C11 1_555 1_555
H9 C17 1_555 1_555
C18 C11 1_555 1_555
H10 C18 1_555 1_555
C19 C16 1_555 1_555
H11 C19 1_555 1_555
C20 C4 1_555 1_555
H12 C20 1_555 1_555
C21 O4 1_555 1_555
H13 C21 1_555 1_555
C22 C15 1_555 1_555
H14 C22 1_555 1_555
H15 C22 1_555 1_555
H16 C22 1_555 1_555
C23 C14 1_555 1_555
H17 C23 1_555 1_555
H18 C23 1_555 1_555
H19 C23 1_555 1_555
C24 C15 1_555 1_555
H20 C24 1_555 1_555
H21 C24 1_555 1_555
H22 C24 1_555 1_555
C25 C18 1_555 1_555
H23 C25 1_555 1_555
H24 C25 1_555 1_555
H25 C25 1_555 1_555
C26 C18 1_555 1_555
H26 C26 1_555 1_555
H27 C26 1_555 1_555
H28 C26 1_555 1_555
C27 C14 1_555 1_555
H29 C27 1_555 1_555
H30 C27 1_555 1_555
H31 C27 1_555 1_555
C28 C20 1_555 1_555
H32 C28 1_555 1_555
H33 C28 1_555 1_555
H34 C28 1_555 1_555
C29 C20 1_555 1_555
H35 C29 1_555 1_555
H36 C29 1_555 1_555
H37 C29 1_555 1_555
C30 C21 1_555 1_555
H38 C30 1_555 1_555
H39 C30 1_555 1_555
H40 C30 1_555 1_555
C31 C21 1_555 1_555
H41 C31 1_555 1_555
H42 C31 1_555 1_555
H43 C31 1_555 1_555
C2 C6 1_555 1_555
C9 C12 1_555 1_555
C10 C13 1_555 1_555
C17 C19 1_555 1_555

#END
