
#######################################################################
#
#                 Cambridge Crystallographic Data Centre
#                                CCDC 
#
#######################################################################
#
# If this CIF has been generated from an entry in the Cambridge 
# Structural Database, then it will include bibliographic, chemical, 
# crystal, experimental, refinement or atomic coordinate data resulting 
# from the CCDC's data processing and validation procedures.
#
#######################################################################

data_JIBPAL
_chemical_formula_moiety         'C15 H25 O6 P1'
_chemical_name_systematic        
trans-Dimethyl-(4-ethoxycarbonyl-5-hydroxy-3-isopropylidene-5-methylcyclohexen-2-yl)phosphonate
_symmetry_cell_setting           monoclinic
_symmetry_space_group_name_H-M   'C c'
_symmetry_Int_Tables_number      9
_space_group_name_Hall           'C -2yc'
loop_
_symmetry_equiv_pos_site_id
_symmetry_equiv_pos_as_xyz
1 x,y,z
2 1/2+x,1/2+y,z
3 x,-y,1/2+z
4 1/2+x,1/2-y,1/2+z
_cell_length_a                   14.2942(6)
_cell_length_b                   9.6205(5)
_cell_length_c                   13.4402(7)
_cell_angle_alpha                90
_cell_angle_beta                 107.655(4)
_cell_angle_gamma                90
_cell_volume                     1761.21
_chemical_melting_point          110-111deg.C
_cell_formula_units_Z            4
loop_
_atom_site_label
_atom_site_type_symbol
_atom_site_fract_x
_atom_site_fract_y
_atom_site_fract_z
P1 P 0.9869(1) 0.2205(1) 0.3437(1)
O1 O 1.0019(3) 0.0701(4) 0.3073(3)
O2 O 0.8715(3) 0.2368(3) 0.3001(3)
O3 O 1.0266(3) 0.2257(5) 0.4544(3)
O4 O 1.0905(3) 0.7438(3) 0.1679(3)
O5 O 0.9906(3) 0.6519(4) 0.3495(3)
O6 O 1.1401(3) 0.7346(3) 0.4328(3)
C1 C 1.0353(3) 0.3502(4) 0.2762(3)
C2 C 0.9734(3) 0.4055(5) 0.1887(3)
C3 C 0.9901(4) 0.5356(6) 0.1366(4)
C4 C 1.0933(4) 0.5961(4) 0.1814(3)
C5 C 1.1334(3) 0.5730(4) 0.3005(3)
C6 C 1.1326(3) 0.4184(4) 0.3255(3)
C7 C 0.9638(5) 0.0216(8) 0.2082(5)
C8 C 0.8254(5) 0.3552(6) 0.3328(6)
C9 C 1.1648(4) 0.5335(5) 0.1301(4)
C10 C 1.0781(3) 0.6547(5) 0.3614(4)
C11 C 1.0984(4) 0.8191(5) 0.4986(4)
C12 C 1.1830(6) 0.8874(7) 0.5778(5)
C13 C 1.2153(4) 0.3528(5) 0.3784(4)
C14 C 1.3098(4) 0.4286(8) 0.4322(6)
C15 C 1.2253(5) 0.1981(7) 0.3930(6)
H1 H 0.895(4) 0.364(5) 0.159(4)
H2 H 0.957(1) 0.608(7) 0.158(4)
H3 H 0.978(4) 0.507(6) 0.055(4)
H4 H 1.206(3) 0.607(4) 0.330(3)
H5 H 0.899(3) -0.024(5) 0.204(3)
H6 H 0.995(5) -0.058(6) 0.200(5)
H7 H 0.822(5) 0.332(7) 0.398(5)
H8 H 0.755(5) 0.367(8) 0.284(5)
H9 H 0.865(3) 0.435(5) 0.328(3)
H10 H 1.145(4) 0.560(5) 0.049(3)
H11 H 1.163(5) 0.433(6) 0.139(5)
H12 H 1.231(4) 0.584(5) 0.166(4)
H13 H 1.076(3) 0.754(4) 0.537(3)
H14 H 1.051(4) 0.895(5) 0.456(4)
H15 H 1.163(3) 0.961(5) 0.611(3)
H16 H 1.229(5) 0.931(6) 0.545(5)
H17 H 1.219(4) 0.815(6) 0.626(5)
H18 H 1.341(3) 0.377(4) 0.501(3)
H19 H 1.345(5) 0.428(7) 0.374(5)
H20 H 1.172(5) 0.133(6) 0.348(5)
H21 H 1.282(4) 0.169(7) 0.373(5)
H22 H 1.225(4) 0.189(6) 0.469(5)
H23 H 1.071(4) 0.756(5) 0.096(4)
loop_
_geom_bond_atom_site_label_1
_geom_bond_atom_site_label_2
_geom_bond_site_symmetry_1
_geom_bond_site_symmetry_2
P1 O1 1_555 1_555
O1 C7 1_555 1_555
O2 P1 1_555 1_555
O3 P1 1_555 1_555
O4 C4 1_555 1_555
O5 C10 1_555 1_555
O6 C10 1_555 1_555
C1 P1 1_555 1_555
C2 C1 1_555 1_555
C3 C2 1_555 1_555
C4 C3 1_555 1_555
C5 C4 1_555 1_555
C6 C1 1_555 1_555
C7 H5 1_555 1_555
C8 O2 1_555 1_555
C9 C4 1_555 1_555
C10 C5 1_555 1_555
C11 O6 1_555 1_555
C12 C11 1_555 1_555
C13 C6 1_555 1_555
C14 C13 1_555 1_555
C15 C13 1_555 1_555
H1 C2 1_555 1_555
H2 C3 1_555 1_555
H3 C3 1_555 1_555
H4 C5 1_555 1_555
H6 C7 1_555 1_555
H7 C8 1_555 1_555
H8 C8 1_555 1_555
H9 C8 1_555 1_555
H10 C9 1_555 1_555
H11 C9 1_555 1_555
H12 C9 1_555 1_555
H13 C11 1_555 1_555
H14 C11 1_555 1_555
H15 C12 1_555 1_555
H16 C12 1_555 1_555
H17 C12 1_555 1_555
H18 C14 1_555 1_555
H19 C14 1_555 1_555
H20 C15 1_555 1_555
H21 C15 1_555 1_555
H22 C15 1_555 1_555
H23 O4 1_555 1_555
C5 C6 1_555 1_555

#END
