
#######################################################################
#
#                 Cambridge Crystallographic Data Centre
#                                CCDC 
#
#######################################################################
#
# If this CIF has been generated from an entry in the Cambridge 
# Structural Database, then it will include bibliographic, chemical, 
# crystal, experimental, refinement or atomic coordinate data resulting 
# from the CCDC's data processing and validation procedures.
#
#######################################################################

data_JIBPAO
_chemical_formula_moiety         'C36 H57 N3 O1 Si1 1+,C1 F3 O3 S1 1-'
_chemical_name_systematic        
'1,3-bis[2,6-di(propan-2-yl)phenyl]-2-[{[tri(propan-2-yl)silyl]oxidaniumylidene}amino]-2,3-dihydro-1H-imidazol-2-yl radical trifluoromethanesulfonate'
_symmetry_cell_setting           orthorhombic
_symmetry_space_group_name_H-M   'P 21 21 21'
_symmetry_Int_Tables_number      19
_space_group_name_Hall           'P 2ac 2ab'
loop_
_symmetry_equiv_pos_site_id
_symmetry_equiv_pos_as_xyz
1 x,y,z
2 1/2-x,-y,1/2+z
3 -x,1/2+y,1/2-z
4 1/2+x,1/2-y,-z
_cell_length_a                   10.439(2)
_cell_length_b                   17.083(3)
_cell_length_c                   22.269(5)
_cell_angle_alpha                90
_cell_angle_beta                 90
_cell_angle_gamma                90
_cell_volume                     3971.22
_exptl_crystal_colour            'dark brown'
_exptl_crystal_description       block
_cell_formula_units_Z            4
loop_
_atom_site_label
_atom_site_type_symbol
_atom_site_fract_x
_atom_site_fract_y
_atom_site_fract_z
S1 S -0.66772(10) -0.50640(6) -0.41538(4)
F1 F -0.8930(3) -0.4668(2) -0.45770(17)
F2 F -0.8618(3) -0.59106(18) -0.45362(14)
F3 F -0.7704(4) -0.5228(2) -0.52216(12)
O1 O -0.7238(3) -0.5091(2) -0.35657(13)
O2 O -0.6198(3) -0.43116(17) -0.43417(14)
O3 O -0.5850(3) -0.57059(19) -0.43013(17)
C1 C -0.8049(5) -0.5228(3) -0.4643(2)
Si1 Si -0.15564(11) -0.50598(7) -0.76683(5)
N1 N -0.2643(3) -0.4810(2) -0.66612(15)
N2 N -0.3520(3) -0.45058(18) -0.57301(14)
N3 N -0.3480(3) -0.57670(18) -0.59147(14)
O4 O -0.2330(3) -0.54179(17) -0.70288(12)
C2 C -0.3167(3) -0.5048(2) -0.61474(15)
C3 C -0.4065(4) -0.4874(2) -0.52522(16)
H1 H -0.4396 -0.4634 -0.4911
C4 C -0.4036(4) -0.5652(3) -0.53643(19)
H2 H -0.4341 -0.6043 -0.5111
C5 C -0.2502(4) -0.2432(2) -0.58446(18)
H3 H -0.1816 -0.2110 -0.5744
C6 C -0.2460(4) -0.3220(2) -0.56928(17)
C7 C -0.1343(4) -0.3567(3) -0.53439(19)
H4 H -0.1207 -0.4101 -0.5492
C8 C -0.3529(4) -0.3669(2) -0.58511(17)
C9 C -0.5772(4) -0.3875(3) -0.62930(19)
H5 H -0.5566 -0.4419 -0.6191
C10 C -0.3539(4) -0.2118(2) -0.61403(19)
H6 H -0.3537 -0.1590 -0.6243
C11 C -0.4581(4) -0.2577(3) -0.6286(2)
H7 H -0.5277 -0.2354 -0.6483
C12 C -0.4605(4) -0.3374(2) -0.61422(18)
C13 C -0.0094(4) -0.3117(3) -0.5429(2)
H8 H -0.0185 -0.2599 -0.5267
H9 H 0.0103 -0.3084 -0.5849
H10 H 0.0587 -0.3384 -0.5224
C14 C -0.1672(5) -0.3621(3) -0.46715(19)
H11 H -0.2417 -0.3943 -0.4619
H12 H -0.1840 -0.3106 -0.4518
H13 H -0.0963 -0.3847 -0.4458
C15 C -0.6074(5) -0.3844(3) -0.6961(2)
H14 H -0.5314 -0.3961 -0.7187
H15 H -0.6374 -0.3330 -0.7064
H16 H -0.6726 -0.4222 -0.7054
C16 C -0.6916(4) -0.3629(3) -0.5915(2)
H17 H -0.7149 -0.3101 -0.6013
H18 H -0.6696 -0.3661 -0.5497
H19 H -0.7626 -0.3971 -0.5996
C17 C -0.3386(4) -0.6535(2) -0.61925(17)
C18 C -0.5521(4) -0.6253(3) -0.6716(2)
H20 H -0.5231 -0.5709 -0.6679
C19 C -0.1267(4) -0.6751(3) -0.5625(2)
H21 H -0.1356 -0.6188 -0.5552
C20 C -0.2339(4) -0.7008(2) -0.60477(19)
C21 C -0.4391(4) -0.6777(3) -0.65687(18)
C22 C -0.2329(5) -0.7762(2) -0.62887(19)
H22 H -0.1643 -0.8093 -0.6208
C23 C -0.4330(4) -0.7536(3) -0.6791(2)
H23 H -0.4977 -0.7719 -0.7042
C24 C -0.3317(5) -0.8023(3) -0.66431(19)
H24 H -0.3306 -0.8534 -0.6786
C25 C -0.6015(5) -0.6363(3) -0.7358(2)
H25 H -0.6410 -0.6869 -0.7394
H26 H -0.5311 -0.6327 -0.7634
H27 H -0.6632 -0.5964 -0.7448
C26 C -0.1385(6) -0.7172(3) -0.5031(2)
H28 H -0.1337 -0.7727 -0.5096
H29 H -0.2191 -0.7044 -0.4849
H30 H -0.0700 -0.7012 -0.4771
C27 C -0.6613(5) -0.6370(4) -0.6273(2)
H31 H -0.6290 -0.6329 -0.5870
H32 H -0.6983 -0.6879 -0.6331
H33 H -0.7254 -0.5976 -0.6337
C28 C 0.0045(5) -0.6899(4) -0.5896(3)
H34 H 0.0118 -0.6622 -0.6269
H35 H 0.0152 -0.7450 -0.5967
H36 H 0.0695 -0.6720 -0.5624
C29 C -0.1110(4) -0.5984(3) -0.8071(2)
H37 H -0.1035 -0.5846 -0.8496
C30 C 0.0189(5) -0.6341(3) -0.7889(2)
H38 H 0.0148 -0.6516 -0.7479
H39 H 0.0848 -0.5953 -0.7928
H40 H 0.0380 -0.6777 -0.8145
C31 C -0.2154(5) -0.6611(3) -0.8032(2)
H41 H -0.2956 -0.6394 -0.8163
H42 H -0.2233 -0.6788 -0.7625
H43 H -0.1930 -0.7045 -0.8285
C32 C -0.0120(5) -0.4494(3) -0.7401(3)
H44 H 0.0531 -0.4537 -0.7716
C33 C -0.2745(6) -0.4448(3) -0.8080(2)
H45 H -0.2918 -0.3994 -0.7824
C34 C 0.0454(5) -0.4855(5) -0.6837(3)
H46 H 0.0624 -0.5400 -0.6907
H47 H -0.0138 -0.4801 -0.6510
H48 H 0.1239 -0.4591 -0.6740
C35 C -0.4041(6) -0.4829(4) -0.8204(3)
H49 H -0.4399 -0.5017 -0.7834
H50 H -0.3929 -0.5260 -0.8476
H51 H -0.4609 -0.4451 -0.8379
C36 C -0.0368(8) -0.3604(4) -0.7305(4)
H52 H -0.0977 -0.3533 -0.6987
H53 H -0.0701 -0.3380 -0.7669
H54 H 0.0421 -0.3349 -0.7201
C37 C -0.2140(9) -0.4120(5) -0.8669(3)
H55 H -0.2013 -0.4540 -0.8949
H56 H -0.1330 -0.3881 -0.8578
H57 H -0.2703 -0.3737 -0.8841
loop_
_geom_bond_atom_site_label_1
_geom_bond_atom_site_label_2
_geom_bond_site_symmetry_1
_geom_bond_site_symmetry_2
S1 O1 1_555 1_555
F1 C1 1_555 1_555
F2 C1 1_555 1_555
F3 C1 1_555 1_555
O2 S1 1_555 1_555
O3 S1 1_555 1_555
C1 S1 1_555 1_555
Si1 O4 1_555 1_555
N1 O4 1_555 1_555
N2 C2 1_555 1_555
N3 C2 1_555 1_555
C2 N1 1_555 1_555
C3 N2 1_555 1_555
H1 C3 1_555 1_555
C4 N3 1_555 1_555
H2 C4 1_555 1_555
C5 H3 1_555 1_555
C6 C5 1_555 1_555
C7 C6 1_555 1_555
H4 C7 1_555 1_555
C8 N2 1_555 1_555
C9 H5 1_555 1_555
C10 C5 1_555 1_555
H6 C10 1_555 1_555
C11 C10 1_555 1_555
H7 C11 1_555 1_555
C12 C8 1_555 1_555
C13 C7 1_555 1_555
H8 C13 1_555 1_555
H9 C13 1_555 1_555
H10 C13 1_555 1_555
C14 C7 1_555 1_555
H11 C14 1_555 1_555
H12 C14 1_555 1_555
H13 C14 1_555 1_555
C15 C9 1_555 1_555
H14 C15 1_555 1_555
H15 C15 1_555 1_555
H16 C15 1_555 1_555
C16 C9 1_555 1_555
H17 C16 1_555 1_555
H18 C16 1_555 1_555
H19 C16 1_555 1_555
C17 N3 1_555 1_555
C18 H20 1_555 1_555
C19 H21 1_555 1_555
C20 C17 1_555 1_555
C21 C17 1_555 1_555
C22 C20 1_555 1_555
H22 C22 1_555 1_555
C23 C21 1_555 1_555
H23 C23 1_555 1_555
C24 C22 1_555 1_555
H24 C24 1_555 1_555
C25 C18 1_555 1_555
H25 C25 1_555 1_555
H26 C25 1_555 1_555
H27 C25 1_555 1_555
C26 C19 1_555 1_555
H28 C26 1_555 1_555
H29 C26 1_555 1_555
H30 C26 1_555 1_555
C27 C18 1_555 1_555
H31 C27 1_555 1_555
H32 C27 1_555 1_555
H33 C27 1_555 1_555
C28 C19 1_555 1_555
H34 C28 1_555 1_555
H35 C28 1_555 1_555
H36 C28 1_555 1_555
C29 Si1 1_555 1_555
H37 C29 1_555 1_555
C30 C29 1_555 1_555
H38 C30 1_555 1_555
H39 C30 1_555 1_555
H40 C30 1_555 1_555
C31 C29 1_555 1_555
H41 C31 1_555 1_555
H42 C31 1_555 1_555
H43 C31 1_555 1_555
C32 Si1 1_555 1_555
H44 C32 1_555 1_555
C33 Si1 1_555 1_555
H45 C33 1_555 1_555
C34 C32 1_555 1_555
H46 C34 1_555 1_555
H47 C34 1_555 1_555
H48 C34 1_555 1_555
C35 C33 1_555 1_555
H49 C35 1_555 1_555
H50 C35 1_555 1_555
H51 C35 1_555 1_555
C36 C32 1_555 1_555
H52 C36 1_555 1_555
H53 C36 1_555 1_555
H54 C36 1_555 1_555
C37 C33 1_555 1_555
H55 C37 1_555 1_555
H56 C37 1_555 1_555
H57 C37 1_555 1_555
C3 C4 1_555 1_555
C6 C8 1_555 1_555
C9 C12 1_555 1_555
C11 C12 1_555 1_555
C18 C21 1_555 1_555
C19 C20 1_555 1_555
C23 C24 1_555 1_555

#END
