
#######################################################################
#
#                 Cambridge Crystallographic Data Centre
#                                CCDC 
#
#######################################################################
#
# If this CIF has been generated from an entry in the Cambridge 
# Structural Database, then it will include bibliographic, chemical, 
# crystal, experimental, refinement or atomic coordinate data resulting 
# from the CCDC's data processing and validation procedures.
#
#######################################################################

data_JIBWAV
_chemical_formula_moiety         'C19 H15 N3 O1 S1'
_chemical_name_systematic        
7-(4-methoxyphenyl)-N-phenyl-2,1,3-benzothiadiazol-4-amine
_symmetry_cell_setting           monoclinic
_symmetry_space_group_name_H-M   'P 21'
_symmetry_Int_Tables_number      4
_space_group_name_Hall           'P 2yb'
loop_
_symmetry_equiv_pos_site_id
_symmetry_equiv_pos_as_xyz
1 x,y,z
2 -x,1/2+y,-z
_cell_length_a                   14.3135(14)
_cell_length_b                   14.6015(13)
_cell_length_c                   15.5923(11)
_cell_angle_alpha                90
_cell_angle_beta                 101.462(7)
_cell_angle_gamma                90
_cell_volume                     3193.78
_exptl_crystal_colour            orange
_exptl_crystal_description       block
_cell_formula_units_Z            8
loop_
_atom_site_label
_atom_site_type_symbol
_atom_site_fract_x
_atom_site_fract_y
_atom_site_fract_z
S1 S 0.73148(11) 0.33617(15) 0.29285(9)
O1 O 0.3147(3) 0.2842(3) -0.1226(2)
N1 N 0.6973(4) 0.3211(4) 0.3844(3)
N2 N 0.6327(3) 0.3181(4) 0.2245(3)
N3 N 0.5912(4) 0.2806(4) 0.5130(3)
H1 H 0.652474 0.279899 0.522985
C1 C 0.6042(4) 0.3006(4) 0.3637(4)
C2 C 0.5664(4) 0.2979(4) 0.2721(4)
C3 C 0.4681(4) 0.2780(4) 0.2395(3)
C4 C 0.4160(4) 0.2595(5) 0.3024(4)
H2 H 0.351871 0.245219 0.283746
C5 C 0.4527(5) 0.2604(4) 0.3929(4)
H3 H 0.412452 0.246897 0.431298
C6 C 0.5468(4) 0.2808(4) 0.4261(3)
C7 C 0.4258(4) 0.2795(4) 0.1450(3)
C8 C 0.4744(4) 0.2445(4) 0.0830(3)
H4 H 0.534490 0.218936 0.101792
C9 C 0.4361(4) 0.2468(4) -0.0048(3)
H5 H 0.469896 0.222623 -0.044749
C10 C 0.3469(4) 0.2852(4) -0.0340(4)
C11 C 0.2976(4) 0.3198(5) 0.0248(4)
H6 H 0.237713 0.345734 0.005749
C12 C 0.3371(4) 0.3160(4) 0.1132(4)
H7 H 0.302224 0.339006 0.152792
C13 C 0.2293(5) 0.3321(6) -0.1577(4)
H8 H 0.221257 0.335026 -0.220296
H9 H 0.232832 0.393074 -0.134249
H10 H 0.176025 0.300645 -0.142431
C14 C 0.5495(4) 0.2814(4) 0.5880(3)
C15 C 0.4626(5) 0.3239(5) 0.5884(4)
H11 H 0.427994 0.350625 0.537758
C16 C 0.4283(5) 0.3258(6) 0.6658(4)
H12 H 0.370527 0.354568 0.666906
C17 C 0.4782(6) 0.2861(6) 0.7400(5)
H13 H 0.453410 0.286084 0.790781
C18 C 0.5657(6) 0.2459(6) 0.7400(4)
H14 H 0.600661 0.220439 0.791165
C19 C 0.6009(5) 0.2436(5) 0.6637(4)
H15 H 0.659554 0.216368 0.663482
S2 S 0.96272(11) 0.00895(13) 0.31711(9)
O2 O 0.5512(3) 0.0630(4) -0.1050(2)
N4 N 0.9261(4) 0.0235(4) 0.4075(3)
N5 N 0.8655(3) 0.0250(4) 0.2473(3)
N6 N 0.8140(4) 0.0608(4) 0.5330(3)
H16 H 0.874752 0.068518 0.543798
C20 C 0.8323(4) 0.0431(4) 0.3849(4)
C21 C 0.7966(4) 0.0434(4) 0.2932(4)
C22 C 0.6974(4) 0.0591(4) 0.2583(4)
C23 C 0.6426(5) 0.0732(4) 0.3189(4)
H17 H 0.577674 0.082782 0.298869
C24 C 0.6773(5) 0.0742(5) 0.4098(4)
H18 H 0.635007 0.085207 0.446771
C25 C 0.7719(5) 0.0596(5) 0.4457(4)
C26 C 0.6589(4) 0.0562(4) 0.1629(3)
C27 C 0.7050(4) 0.0999(4) 0.1040(4)
H19 H 0.761758 0.130842 0.124980
C28 C 0.6692(4) 0.0986(4) 0.0165(4)
H20 H 0.702726 0.126432 -0.021726
C29 C 0.5823(5) 0.0557(5) -0.0162(4)
C30 C 0.5352(4) 0.0118(5) 0.0407(4)
H21 H 0.477730 -0.017745 0.019635
C31 C 0.5734(4) 0.0118(5) 0.1290(4)
H22 H 0.541393 -0.018630 0.166959
C32 C 0.4644(5) 0.0190(7) -0.1433(4)
H23 H 0.454658 0.023632 -0.205894
H24 H 0.412408 0.047918 -0.123343
H25 H 0.467438 -0.044431 -0.126661
C33 C 0.7731(5) 0.0515(4) 0.6068(4)
C34 C 0.6861(5) 0.0069(5) 0.6057(4)
H26 H 0.650452 -0.015175 0.553375
C35 C 0.6537(5) -0.0038(5) 0.6821(4)
H27 H 0.595762 -0.033055 0.681001
C36 C 0.7050(6) 0.0275(5) 0.7599(4)
H28 H 0.682160 0.019574 0.811206
C37 C 0.7914(6) 0.0712(5) 0.7617(4)
H29 H 0.827330 0.092136 0.814381
C38 C 0.8238(5) 0.0835(5) 0.6851(4)
H30 H 0.881021 0.114107 0.686404
S3 S 0.69526(11) 0.34290(13) 0.03442(10)
O3 O 1.1075(3) 0.2742(4) 0.4572(3)
N7 N 0.7332(4) 0.3362(4) -0.0557(3)
N8 N 0.7925(3) 0.3276(4) 0.1047(3)
N9 N 0.8483(4) 0.3210(4) -0.1806(3)
H31 H 0.788359 0.332932 -0.189495
C39 C 0.8273(4) 0.3206(4) -0.0329(3)
C40 C 0.8625(4) 0.3147(4) 0.0592(4)
C41 C 0.9612(4) 0.2998(4) 0.0947(3)
C42 C 1.0170(4) 0.2900(5) 0.0338(4)
H32 H 1.081582 0.278472 0.053850
C43 C 0.9836(5) 0.2962(5) -0.0583(4)
H33 H 1.026888 0.289703 -0.095129
C44 C 0.8902(4) 0.3113(4) -0.0941(3)
C45 C 1.0007(4) 0.2959(4) 0.1891(3)
C46 C 0.9508(4) 0.2539(4) 0.2465(3)
H34 H 0.891084 0.228758 0.224751
C47 C 0.9882(5) 0.2490(4) 0.3352(4)
H35 H 0.953574 0.220881 0.372427
C48 C 1.0764(5) 0.2857(4) 0.3685(4)
C49 C 1.1270(4) 0.3291(4) 0.3134(4)
H36 H 1.185929 0.355625 0.335746
C50 C 1.0893(4) 0.3327(5) 0.2249(4)
H37 H 1.124282 0.360792 0.187948
C51 C 1.1969(5) 0.3093(6) 0.4979(4)
H38 H 1.245888 0.281246 0.472796
H39 H 1.208018 0.296238 0.559433
H40 H 1.197832 0.374367 0.489226
C52 C 0.8852(4) 0.3150(4) -0.2578(4)
C53 C 0.9687(4) 0.2702(5) -0.2639(4)
H41 H 1.006091 0.243953 -0.214408
C54 C 0.9963(5) 0.2645(5) -0.3437(4)
H42 H 1.052230 0.233849 -0.347695
C55 C 0.9424(6) 0.3035(6) -0.4171(4)
H43 H 0.961864 0.299694 -0.470421
C56 C 0.8593(5) 0.3485(5) -0.4113(4)
H44 H 0.821716 0.374236 -0.460922
C57 C 0.8322(4) 0.3550(5) -0.3318(3)
H45 H 0.777076 0.387102 -0.327852
S4 S 0.92816(12) 0.02730(15) 0.05866(10)
O4 O 1.3440(3) 0.0734(4) 0.4804(3)
N10 N 0.9661(4) 0.0337(4) -0.0321(3)
N11 N 1.0267(3) 0.0384(4) 0.1288(3)
N12 N 1.0788(4) 0.0451(4) -0.1586(3)
H46 H 1.018344 0.035779 -0.167635
C58 C 1.0602(4) 0.0462(4) -0.0089(4)
C59 C 1.0962(4) 0.0483(4) 0.0826(3)
C60 C 1.1963(4) 0.0612(4) 0.1169(3)
C61 C 1.2512(5) 0.0712(5) 0.0557(4)
H47 H 1.316004 0.081495 0.075290
C62 C 1.2164(5) 0.0669(5) -0.0363(4)
H48 H 1.259282 0.073311 -0.073570
C63 C 1.1223(5) 0.0536(5) -0.0717(4)
C64 C 1.2368(4) 0.0617(4) 0.2121(4)
C65 C 1.1872(5) 0.1011(4) 0.2714(4)
H49 H 1.127734 0.127377 0.250909
C66 C 1.2249(5) 0.1016(5) 0.3597(4)
H50 H 1.189912 0.126690 0.398172
C67 C 1.3133(5) 0.0658(5) 0.3918(4)
C68 C 1.3643(4) 0.0258(5) 0.3342(4)
H51 H 1.424223 0.000590 0.355090
C69 C 1.3250(4) 0.0238(5) 0.2452(3)
H52 H 1.358906 -0.003740 0.207013
C70 C 1.4341(5) 0.0386(6) 0.5182(4)
H53 H 1.435683 -0.026027 0.507267
H54 H 1.446389 0.049286 0.580225
H55 H 1.481946 0.068689 0.493142
C71 C 1.1170(4) 0.0492(4) -0.2342(3)
C72 C 1.1977(5) 0.1003(5) -0.2409(4)
H56 H 1.230830 0.132647 -0.192944
C73 C 1.2274(5) 0.1021(6) -0.3196(4)
H57 H 1.282555 0.134021 -0.323610
C74 C 1.1778(6) 0.0580(6) -0.3921(4)
H58 H 1.197973 0.061307 -0.445192
C75 C 1.0980(5) 0.0089(5) -0.3852(3)
H59 H 1.063569 -0.021000 -0.434014
C76 C 1.0688(4) 0.0035(5) -0.3076(3)
H60 H 1.015573 -0.031579 -0.303714
loop_
_geom_bond_atom_site_label_1
_geom_bond_atom_site_label_2
_geom_bond_site_symmetry_1
_geom_bond_site_symmetry_2
S1 N1 1_555 1_555
O1 C10 1_555 1_555
N1 C1 1_555 1_555
N2 S1 1_555 1_555
N3 H1 1_555 1_555
C1 C2 1_555 1_555
C2 N2 1_555 1_555
C3 C2 1_555 1_555
C4 C3 1_555 1_555
H2 C4 1_555 1_555
C5 C4 1_555 1_555
H3 C5 1_555 1_555
C6 N3 1_555 1_555
C7 C3 1_555 1_555
C8 C7 1_555 1_555
H4 C8 1_555 1_555
C9 C8 1_555 1_555
H5 C9 1_555 1_555
C10 C9 1_555 1_555
C11 C10 1_555 1_555
H6 C11 1_555 1_555
C12 C7 1_555 1_555
H7 C12 1_555 1_555
C13 O1 1_555 1_555
H8 C13 1_555 1_555
H9 C13 1_555 1_555
H10 C13 1_555 1_555
C14 N3 1_555 1_555
C15 C14 1_555 1_555
H11 C15 1_555 1_555
C16 C15 1_555 1_555
H12 C16 1_555 1_555
C17 C16 1_555 1_555
H13 C17 1_555 1_555
C18 C17 1_555 1_555
H14 C18 1_555 1_555
C19 C14 1_555 1_555
H15 C19 1_555 1_555
S2 N4 1_555 1_555
O2 C29 1_555 1_555
N4 C20 1_555 1_555
N5 S2 1_555 1_555
N6 H16 1_555 1_555
C20 C21 1_555 1_555
C21 N5 1_555 1_555
C22 C21 1_555 1_555
C23 C22 1_555 1_555
H17 C23 1_555 1_555
C24 C23 1_555 1_555
H18 C24 1_555 1_555
C25 N6 1_555 1_555
C26 C22 1_555 1_555
C27 C26 1_555 1_555
H19 C27 1_555 1_555
C28 C27 1_555 1_555
H20 C28 1_555 1_555
C29 C28 1_555 1_555
C30 C29 1_555 1_555
H21 C30 1_555 1_555
C31 C26 1_555 1_555
H22 C31 1_555 1_555
C32 O2 1_555 1_555
H23 C32 1_555 1_555
H24 C32 1_555 1_555
H25 C32 1_555 1_555
C33 N6 1_555 1_555
C34 C33 1_555 1_555
H26 C34 1_555 1_555
C35 C34 1_555 1_555
H27 C35 1_555 1_555
C36 C35 1_555 1_555
H28 C36 1_555 1_555
C37 C36 1_555 1_555
H29 C37 1_555 1_555
C38 C33 1_555 1_555
H30 C38 1_555 1_555
S3 N7 1_555 1_555
O3 C48 1_555 1_555
N7 C39 1_555 1_555
N8 S3 1_555 1_555
N9 H31 1_555 1_555
C39 C40 1_555 1_555
C40 N8 1_555 1_555
C41 C40 1_555 1_555
C42 C41 1_555 1_555
H32 C42 1_555 1_555
C43 C42 1_555 1_555
H33 C43 1_555 1_555
C44 N9 1_555 1_555
C45 C41 1_555 1_555
C46 C45 1_555 1_555
H34 C46 1_555 1_555
C47 C46 1_555 1_555
H35 C47 1_555 1_555
C48 C47 1_555 1_555
C49 C48 1_555 1_555
H36 C49 1_555 1_555
C50 C45 1_555 1_555
H37 C50 1_555 1_555
C51 O3 1_555 1_555
H38 C51 1_555 1_555
H39 C51 1_555 1_555
H40 C51 1_555 1_555
C52 N9 1_555 1_555
C53 C52 1_555 1_555
H41 C53 1_555 1_555
C54 C53 1_555 1_555
H42 C54 1_555 1_555
C55 C54 1_555 1_555
H43 C55 1_555 1_555
C56 C55 1_555 1_555
H44 C56 1_555 1_555
C57 C52 1_555 1_555
H45 C57 1_555 1_555
S4 N10 1_555 1_555
O4 C67 1_555 1_555
N10 C58 1_555 1_555
N11 S4 1_555 1_555
N12 H46 1_555 1_555
C58 C59 1_555 1_555
C59 N11 1_555 1_555
C60 C59 1_555 1_555
C61 C60 1_555 1_555
H47 C61 1_555 1_555
C62 C61 1_555 1_555
H48 C62 1_555 1_555
C63 N12 1_555 1_555
C64 C60 1_555 1_555
C65 C64 1_555 1_555
H49 C65 1_555 1_555
C66 C65 1_555 1_555
H50 C66 1_555 1_555
C67 C66 1_555 1_555
C68 C67 1_555 1_555
H51 C68 1_555 1_555
C69 C64 1_555 1_555
H52 C69 1_555 1_555
C70 O4 1_555 1_555
H53 C70 1_555 1_555
H54 C70 1_555 1_555
H55 C70 1_555 1_555
C71 N12 1_555 1_555
C72 C71 1_555 1_555
H56 C72 1_555 1_555
C73 C72 1_555 1_555
H57 C73 1_555 1_555
C74 C73 1_555 1_555
H58 C74 1_555 1_555
C75 C74 1_555 1_555
H59 C75 1_555 1_555
C76 C71 1_555 1_555
H60 C76 1_555 1_555
C1 C6 1_555 1_555
C5 C6 1_555 1_555
C11 C12 1_555 1_555
C18 C19 1_555 1_555
C20 C25 1_555 1_555
C24 C25 1_555 1_555
C30 C31 1_555 1_555
C37 C38 1_555 1_555
C39 C44 1_555 1_555
C43 C44 1_555 1_555
C49 C50 1_555 1_555
C56 C57 1_555 1_555
C58 C63 1_555 1_555
C62 C63 1_555 1_555
C68 C69 1_555 1_555
C75 C76 1_555 1_555

#END
