
#######################################################################
#
#                 Cambridge Crystallographic Data Centre
#                                CCDC 
#
#######################################################################
#
# If this CIF has been generated from an entry in the Cambridge 
# Structural Database, then it will include bibliographic, chemical, 
# crystal, experimental, refinement or atomic coordinate data resulting 
# from the CCDC's data processing and validation procedures.
#
#######################################################################

data_JIBYAX
_chemical_formula_moiety         'C32 H42 N2 O7'
_chemical_name_systematic        
't-butyl 2-(4-{(acetyloxy)[1-(t-butoxycarbonyl)-2-oxopyrrolidin-3-yl]methyl}hepta-1,6-dien-3-yl)-1H-indole-1-carboxylate'
_symmetry_cell_setting           orthorhombic
_symmetry_space_group_name_H-M   'P 21 21 21'
_symmetry_Int_Tables_number      19
_space_group_name_Hall           'P 2ac 2ab'
loop_
_symmetry_equiv_pos_site_id
_symmetry_equiv_pos_as_xyz
1 x,y,z
2 1/2+x,1/2-y,-z
3 -x,1/2+y,1/2-z
4 1/2-x,-y,1/2+z
_cell_length_a                   8.7613(10)
_cell_length_b                   9.3961(11)
_cell_length_c                   36.651(4)
_cell_angle_alpha                90
_cell_angle_beta                 90
_cell_angle_gamma                90
_cell_volume                     3017.19
_cell_formula_units_Z            4
loop_
_atom_site_label
_atom_site_type_symbol
_atom_site_fract_x
_atom_site_fract_y
_atom_site_fract_z
O1 O 0.93764(16) -0.10822(14) 0.83533(3)
O2 O 0.53380(17) 0.54109(14) 0.82681(4)
O3 O 0.4439(2) 0.33161(17) 0.80403(4)
O4 O 0.50722(17) 0.11048(15) 0.85422(4)
O5 O 0.37543(14) 0.09963(14) 0.93501(3)
O6 O 0.35880(17) 0.11768(18) 0.99632(4)
O7 O 0.90995(16) 0.04151(14) 0.88334(3)
N1 N 0.89021(18) -0.20076(16) 0.89070(4)
N2 N 0.52574(19) 0.35470(17) 0.86361(4)
C1 C 0.9812(3) -0.0747(2) 0.77288(5)
H1 H 1.0552 -0.1499 0.7744
H2 H 1.0081 -0.0112 0.7534
H3 H 0.8822 -0.1146 0.7683
C2 C 0.9782(2) 0.0070(2) 0.80881(5)
C3 C 0.9131(2) -0.07610(19) 0.87015(5)
C4 C 0.8453(2) -0.2000(2) 0.92815(5)
C5 C 0.7591(2) -0.07813(19) 0.94530(5)
H4 H 0.8163 0.0095 0.9405
C6 C 0.5961(2) -0.06139(19) 0.92773(5)
H5 H 0.6057 -0.0703 0.9012
C7 C 0.5414(2) 0.09071(19) 0.93681(5)
H6 H 0.5725 0.1124 0.9619
C8 C 0.6040(2) 0.20759(19) 0.91201(5)
H7 H 0.7144 0.1931 0.9099
C9 C 0.5378(2) 0.21102(19) 0.87335(5)
C10 C 0.4957(2) 0.4032(2) 0.82818(5)
C11 C 0.5209(2) 0.6238(2) 0.79256(5)
C12 C 0.3564(3) 0.6306(3) 0.78060(7)
H8 H 0.3233 0.5376 0.7731
H9 H 0.3468 0.6955 0.7605
H10 H 0.2944 0.6629 0.8005
C13 C 0.6246(3) 0.5605(3) 0.76387(7)
H11 H 0.7276 0.5593 0.7728
H12 H 0.6195 0.6170 0.7421
H13 H 0.5925 0.4651 0.7585
C14 C 0.2986(2) 0.1065(2) 0.96680(5)
C15 C 0.1305(2) 0.0968(3) 0.96101(6)
H14 H 0.0948 0.0053 0.9689
H15 H 0.1080 0.1088 0.9356
H16 H 0.0803 0.1700 0.9748
C16 C 1.1353(2) 0.0647(2) 0.81832(5)
H17 H 1.1345 0.1007 0.8428
H18 H 1.1613 0.1401 0.8018
H19 H 1.2094 -0.0102 0.8164
C17 C 0.8555(3) 0.1221(2) 0.80824(6)
H20 H 0.7566 0.0784 0.8070
H21 H 0.8701 0.1821 0.7873
H22 H 0.8625 0.1783 0.8300
C18 C 0.9514(2) -0.33809(19) 0.88266(5)
C19 C 0.9474(2) -0.4169(2) 0.91518(5)
C20 C 1.0014(2) -0.5572(2) 0.91590(6)
H23 H 0.9975 -0.6106 0.9372
C21 C 1.0610(3) -0.6145(2) 0.88405(6)
H24 H 1.0996 -0.7067 0.8841
C22 C 1.0633(3) -0.5346(2) 0.85193(6)
H25 H 1.1029 -0.5754 0.8308
C23 C 1.0086(2) -0.3961(2) 0.85047(5)
H26 H 1.0100 -0.3441 0.8289
C24 C 0.8793(2) -0.3289(2) 0.94271(5)
H27 H 0.8613 -0.3560 0.9667
C25 C 0.7480(2) -0.0963(2) 0.98619(5)
H28 H 0.7186 -0.1845 0.9953
C26 C 0.7780(2) 0.0069(2) 1.00961(5)
H29 H 0.8076 0.0960 1.0012
H30 H 0.7695 -0.0097 1.0345
C27 C 0.4884(2) -0.1787(2) 0.94161(5)
H31 H 0.5486 -0.2641 0.9454
H32 H 0.4497 -0.1495 0.9653
C28 C 0.3537(2) -0.2177(2) 0.91805(6)
H33 H 0.2890 -0.2877 0.9272
C29 C 0.3172(2) -0.1645(2) 0.88620(6)
H34 H 0.3777 -0.0942 0.8757
H35 H 0.2307 -0.1970 0.8741
C30 C 0.5783(2) 0.3589(2) 0.92632(5)
H36 H 0.4804 0.3665 0.9385
H37 H 0.6582 0.3860 0.9432
C31 C 0.5824(3) 0.4517(2) 0.89226(5)
H38 H 0.5164 0.5340 0.8949
H39 H 0.6854 0.4836 0.8870
C32 C 0.5780(3) 0.7695(2) 0.80426(6)
H40 H 0.5086 0.8095 0.8217
H41 H 0.5841 0.8307 0.7833
H42 H 0.6772 0.7602 0.8151
loop_
_geom_bond_atom_site_label_1
_geom_bond_atom_site_label_2
_geom_bond_site_symmetry_1
_geom_bond_site_symmetry_2
O1 C2 1_555 1_555
O2 C10 1_555 1_555
O3 C10 1_555 1_555
O4 C9 1_555 1_555
O5 C7 1_555 1_555
O6 C14 1_555 1_555
O7 C3 1_555 1_555
N1 C3 1_555 1_555
N2 C9 1_555 1_555
C1 H1 1_555 1_555
H2 C1 1_555 1_555
H3 C1 1_555 1_555
C2 C1 1_555 1_555
C3 O1 1_555 1_555
C4 N1 1_555 1_555
C5 C4 1_555 1_555
H4 C5 1_555 1_555
C6 C5 1_555 1_555
H5 C6 1_555 1_555
C7 C6 1_555 1_555
H6 C7 1_555 1_555
C8 C7 1_555 1_555
H7 C8 1_555 1_555
C9 C8 1_555 1_555
C10 N2 1_555 1_555
C11 O2 1_555 1_555
C12 C11 1_555 1_555
H8 C12 1_555 1_555
H9 C12 1_555 1_555
H10 C12 1_555 1_555
C13 C11 1_555 1_555
H11 C13 1_555 1_555
H12 C13 1_555 1_555
H13 C13 1_555 1_555
C14 O5 1_555 1_555
C15 C14 1_555 1_555
H14 C15 1_555 1_555
H15 C15 1_555 1_555
H16 C15 1_555 1_555
C16 C2 1_555 1_555
H17 C16 1_555 1_555
H18 C16 1_555 1_555
H19 C16 1_555 1_555
C17 C2 1_555 1_555
H20 C17 1_555 1_555
H21 C17 1_555 1_555
H22 C17 1_555 1_555
C18 N1 1_555 1_555
C19 C18 1_555 1_555
C20 C19 1_555 1_555
H23 C20 1_555 1_555
C21 C20 1_555 1_555
H24 C21 1_555 1_555
C22 C21 1_555 1_555
H25 C22 1_555 1_555
C23 C18 1_555 1_555
H26 C23 1_555 1_555
C24 C4 1_555 1_555
H27 C24 1_555 1_555
C25 C5 1_555 1_555
H28 C25 1_555 1_555
C26 C25 1_555 1_555
H29 C26 1_555 1_555
H30 C26 1_555 1_555
C27 C6 1_555 1_555
H31 C27 1_555 1_555
H32 C27 1_555 1_555
C28 C27 1_555 1_555
H33 C28 1_555 1_555
C29 C28 1_555 1_555
H34 C29 1_555 1_555
H35 C29 1_555 1_555
C30 C8 1_555 1_555
H36 C30 1_555 1_555
H37 C30 1_555 1_555
C31 N2 1_555 1_555
H38 C31 1_555 1_555
H39 C31 1_555 1_555
C32 C11 1_555 1_555
H40 C32 1_555 1_555
H41 C32 1_555 1_555
H42 C32 1_555 1_555
C19 C24 1_555 1_555
C22 C23 1_555 1_555
C30 C31 1_555 1_555

#END
