
#######################################################################
#
#                 Cambridge Crystallographic Data Centre
#                                CCDC 
#
#######################################################################
#
# If this CIF has been generated from an entry in the Cambridge 
# Structural Database, then it will include bibliographic, chemical, 
# crystal, experimental, refinement or atomic coordinate data resulting 
# from the CCDC's data processing and validation procedures.
#
#######################################################################

data_JICKEO
_chemical_formula_moiety         'C25 H23 N1 O1'
_chemical_name_systematic        
2-((2,6-dimethylphenyl)amino)-4,5-diphenylcyclopent-2-en-1-one
_symmetry_cell_setting           orthorhombic
_symmetry_space_group_name_H-M   'P b c n'
_symmetry_Int_Tables_number      60
_space_group_name_Hall           '-P 2n 2ab'
loop_
_symmetry_equiv_pos_site_id
_symmetry_equiv_pos_as_xyz
1 x,y,z
2 1/2-x,1/2-y,1/2+z
3 -x,y,1/2-z
4 1/2+x,1/2-y,-z
5 -x,-y,-z
6 1/2+x,1/2+y,1/2-z
7 x,-y,1/2+z
8 1/2-x,1/2+y,z
_cell_length_a                   20.2762(6)
_cell_length_b                   9.7720(3)
_cell_length_c                   19.3531(6)
_cell_angle_alpha                90
_cell_angle_beta                 90
_cell_angle_gamma                90
_cell_volume                     3834.6
_exptl_crystal_colour            colorless
_exptl_crystal_description       block
_cell_formula_units_Z            8
loop_
_atom_site_label
_atom_site_type_symbol
_atom_site_fract_x
_atom_site_fract_y
_atom_site_fract_z
O1 O 0.42060(5) 0.38446(12) 0.78932(5)
N1 N 0.43239(6) 0.38552(13) 0.64109(6)
H1 H 0.463717 0.425236 0.663344
C1 C 0.31416(7) 0.18693(15) 0.83455(7)
C2 C 0.37904(7) 0.33579(15) 0.67600(7)
C3 C 0.20568(7) 0.27677(14) 0.69941(7)
C4 C 0.37680(7) 0.34213(14) 0.75217(7)
C5 C 0.32327(7) 0.27807(15) 0.65253(7)
H2 H 0.314183 0.266802 0.605771
C6 C 0.27690(7) 0.23337(15) 0.70869(7)
H3 H 0.277946 0.133178 0.710627
C7 C 0.18745(7) 0.38092(15) 0.65469(7)
H4 H 0.219642 0.426365 0.629294
C8 C 0.30955(7) 0.28854(14) 0.77600(7)
H5 H 0.283549 0.366820 0.792118
C9 C 0.43637(7) 0.37183(15) 0.56771(7)
C10 C 0.15649(7) 0.20957(16) 0.73660(8)
H6 H 0.167828 0.139213 0.766701
C11 C 0.12162(8) 0.41837(16) 0.64731(8)
H7 H 0.110068 0.488467 0.617153
C12 C 0.34491(8) 0.06101(16) 0.82510(8)
H8 H 0.362218 0.038796 0.782036
C13 C 0.40022(8) 0.46164(16) 0.52606(8)
C14 C 0.07344(7) 0.35145(17) 0.68477(8)
H9 H 0.029447 0.376812 0.680170
C15 C 0.47622(7) 0.26945(16) 0.53938(8)
C16 C 0.09090(7) 0.24651(18) 0.72916(8)
H10 H 0.058504 0.200648 0.754083
C17 C 0.28848(8) 0.21660(18) 0.89910(8)
H11 H 0.267525 0.299979 0.906494
C18 C 0.35007(10) -0.03166(17) 0.87895(9)
H12 H 0.370783 -0.115415 0.871877
C19 C 0.40565(10) 0.44839(19) 0.45468(8)
H13 H 0.381961 0.506802 0.425981
C20 C 0.35835(9) 0.57309(18) 0.55651(9)
H14 H 0.317570 0.534877 0.572740
H15 H 0.349358 0.640849 0.521855
H16 H 0.381336 0.614793 0.594423
C21 C 0.48022(9) 0.26064(19) 0.46784(9)
H17 H 0.506591 0.193620 0.447816
C22 C 0.32463(10) -0.00008(19) 0.94291(9)
H18 H 0.328398 -0.061997 0.979189
C23 C 0.51521(9) 0.1740(2) 0.58413(11)
H19 H 0.554571 0.219097 0.599642
H20 H 0.526887 0.093980 0.558058
H21 H 0.489148 0.147659 0.623354
C24 C 0.44571(10) 0.3497(2) 0.42610(9)
H22 H 0.449508 0.343080 0.378332
C25 C 0.29363(10) 0.1234(2) 0.95290(9)
H23 H 0.276014 0.144530 0.995963
loop_
_geom_bond_atom_site_label_1
_geom_bond_atom_site_label_2
_geom_bond_site_symmetry_1
_geom_bond_site_symmetry_2
O1 C4 1_555 1_555
N1 H1 1_555 1_555
C1 C8 1_555 1_555
C2 N1 1_555 1_555
C3 C6 1_555 1_555
C4 C2 1_555 1_555
C5 C2 1_555 1_555
H2 C5 1_555 1_555
C6 C5 1_555 1_555
H3 C6 1_555 1_555
C7 C3 1_555 1_555
H4 C7 1_555 1_555
C8 C4 1_555 1_555
H5 C8 1_555 1_555
C9 N1 1_555 1_555
C10 C3 1_555 1_555
H6 C10 1_555 1_555
C11 C7 1_555 1_555
H7 C11 1_555 1_555
C12 C1 1_555 1_555
H8 C12 1_555 1_555
C13 C9 1_555 1_555
C14 C11 1_555 1_555
H9 C14 1_555 1_555
C15 C9 1_555 1_555
C16 C10 1_555 1_555
H10 C16 1_555 1_555
C17 C1 1_555 1_555
H11 C17 1_555 1_555
C18 C12 1_555 1_555
H12 C18 1_555 1_555
C19 C13 1_555 1_555
H13 C19 1_555 1_555
C20 C13 1_555 1_555
H14 C20 1_555 1_555
H15 C20 1_555 1_555
H16 C20 1_555 1_555
C21 C15 1_555 1_555
H17 C21 1_555 1_555
C22 C18 1_555 1_555
H18 C22 1_555 1_555
C23 C15 1_555 1_555
H19 C23 1_555 1_555
H20 C23 1_555 1_555
H21 C23 1_555 1_555
C24 C19 1_555 1_555
H22 C24 1_555 1_555
C25 C17 1_555 1_555
H23 C25 1_555 1_555
C6 C8 1_555 1_555
C14 C16 1_555 1_555
C21 C24 1_555 1_555
C22 C25 1_555 1_555

#END
