
#######################################################################
#
#                 Cambridge Crystallographic Data Centre
#                                CCDC 
#
#######################################################################
#
# If this CIF has been generated from an entry in the Cambridge 
# Structural Database, then it will include bibliographic, chemical, 
# crystal, experimental, refinement or atomic coordinate data resulting 
# from the CCDC's data processing and validation procedures.
#
#######################################################################

data_JICKAK
_chemical_formula_moiety         'C26 H25 N1'
_chemical_name_systematic        
N-(2,6-dimethylphenyl)-2-methyl-3,4-diphenylcyclopent-2-en-1-imine
_symmetry_cell_setting           monoclinic
_symmetry_space_group_name_H-M   'P 21/n'
_symmetry_Int_Tables_number      14
_space_group_name_Hall           '-P 2yn'
loop_
_symmetry_equiv_pos_site_id
_symmetry_equiv_pos_as_xyz
1 x,y,z
2 1/2-x,1/2+y,1/2-z
3 -x,-y,-z
4 1/2+x,1/2-y,1/2+z
_cell_length_a                   10.6753(7)
_cell_length_b                   9.9829(5)
_cell_length_c                   19.3851(13)
_cell_angle_alpha                90
_cell_angle_beta                 103.310(7)
_cell_angle_gamma                90
_cell_volume                     2010.39
_exptl_crystal_colour            colorless
_exptl_crystal_description       plate
_cell_formula_units_Z            4
loop_
_atom_site_label
_atom_site_type_symbol
_atom_site_fract_x
_atom_site_fract_y
_atom_site_fract_z
N1 N 0.78788(14) 0.64455(14) 0.22519(7)
C1 C 0.74085(17) 0.67567(17) 0.15174(9)
C2 C 0.46497(19) 0.81582(17) 0.32572(9)
C3 C 0.60491(18) 0.84435(17) 0.32738(9)
H1 H 0.6218 0.9394 0.3383
C4 C 0.6370(2) 0.81410(19) 0.25525(10)
C5 C 0.77503(17) 0.68440(17) 0.34683(9)
C6 C 0.62535(18) 0.61991(19) 0.11402(10)
C7 C 0.73709(17) 0.70634(16) 0.26997(9)
C8 C 0.7112(2) 0.77619(18) 0.45650(10)
C9 C 0.81721(18) 0.75433(18) 0.11824(10)
C10 C 0.70261(19) 0.76170(17) 0.37963(9)
C11 C 0.37142(19) 0.90431(19) 0.29051(10)
H2 H 0.3968 0.9815 0.2706
C12 C 0.8843(2) 0.59278(19) 0.37786(10)
H3 H 0.8512 0.5057 0.3849
H4 H 0.9309 0.6279 0.4225
H5 H 0.9409 0.5859 0.3460
C13 C 0.6761(2) 0.8960(2) 0.48335(10)
H6 H 0.6453 0.9658 0.4523
C14 C 0.54710(19) 0.5269(2) 0.14840(11)
H7 H 0.5986 0.4510 0.1677
H8 H 0.4730 0.4970 0.1137
H9 H 0.5197 0.5732 0.1857
C15 C 0.5851(2) 0.6509(2) 0.04228(11)
H10 H 0.5061 0.6193 0.0167
C16 C 0.7755(2) 0.7780(2) 0.04590(11)
H11 H 0.8263 0.8284 0.0226
C17 C 0.4245(2) 0.7026(2) 0.35527(12)
H12 H 0.4846 0.6414 0.3793
C18 C 0.6598(2) 0.7274(2) 0.00840(11)
H13 H 0.6322 0.7450 -0.0398
C19 C 0.2419(2) 0.8808(2) 0.28429(11)
H14 H 0.1811 0.9410 0.2598
C20 C 0.6857(2) 0.9140(2) 0.55514(11)
H15 H 0.6616 0.9951 0.5719
C21 C 0.9408(2) 0.8125(2) 0.15948(12)
H16 H 0.9228 0.8809 0.1906
H17 H 0.9873 0.8508 0.1274
H18 H 0.9916 0.7433 0.1869
C22 C 0.7561(3) 0.6734(2) 0.50466(11)
H19 H 0.7791 0.5915 0.4883
C23 C 0.7310(3) 0.8116(2) 0.60167(12)
H20 H 0.7374 0.8232 0.6500
C24 C 0.2034(2) 0.7687(3) 0.31426(12)
H21 H 0.1163 0.7530 0.3109
C25 C 0.7668(3) 0.6923(2) 0.57665(12)
H22 H 0.7985 0.6236 0.6083
C26 C 0.2931(3) 0.6798(3) 0.34919(13)
H23 H 0.2665 0.6033 0.3692
H24 H 0.561(2) 0.784(2) 0.2210(12)
H25 H 0.672(2) 0.894(2) 0.2371(12)
loop_
_geom_bond_atom_site_label_1
_geom_bond_atom_site_label_2
_geom_bond_site_symmetry_1
_geom_bond_site_symmetry_2
N1 C1 1_555 1_555
C1 C6 1_555 1_555
C2 C3 1_555 1_555
C3 H1 1_555 1_555
C4 C3 1_555 1_555
C5 C7 1_555 1_555
C6 C14 1_555 1_555
C7 N1 1_555 1_555
C8 C10 1_555 1_555
C9 C1 1_555 1_555
C10 C3 1_555 1_555
C11 C2 1_555 1_555
H2 C11 1_555 1_555
C12 C5 1_555 1_555
H3 C12 1_555 1_555
H4 C12 1_555 1_555
H5 C12 1_555 1_555
C13 C8 1_555 1_555
H6 C13 1_555 1_555
C14 H7 1_555 1_555
H8 C14 1_555 1_555
H9 C14 1_555 1_555
C15 C6 1_555 1_555
H10 C15 1_555 1_555
C16 C9 1_555 1_555
H11 C16 1_555 1_555
C17 C2 1_555 1_555
H12 C17 1_555 1_555
C18 C15 1_555 1_555
H13 C18 1_555 1_555
C19 C11 1_555 1_555
H14 C19 1_555 1_555
C20 C13 1_555 1_555
H15 C20 1_555 1_555
C21 C9 1_555 1_555
H16 C21 1_555 1_555
H17 C21 1_555 1_555
H18 C21 1_555 1_555
C22 C8 1_555 1_555
H19 C22 1_555 1_555
C23 C20 1_555 1_555
H20 C23 1_555 1_555
C24 C19 1_555 1_555
H21 C24 1_555 1_555
C25 C22 1_555 1_555
H22 C25 1_555 1_555
C26 C17 1_555 1_555
H23 C26 1_555 1_555
H24 C4 1_555 1_555
H25 C4 1_555 1_555
C4 C7 1_555 1_555
C5 C10 1_555 1_555
C16 C18 1_555 1_555
C23 C25 1_555 1_555
C24 C26 1_555 1_555

#END
