
#######################################################################
#
#                 Cambridge Crystallographic Data Centre
#                                CCDC 
#
#######################################################################
#
# If this CIF has been generated from an entry in the Cambridge 
# Structural Database, then it will include bibliographic, chemical, 
# crystal, experimental, refinement or atomic coordinate data resulting 
# from the CCDC's data processing and validation procedures.
#
#######################################################################

data_JICKIS
_chemical_formula_moiety         'C20 H18 N1 O4 1+,2(C15 H10 O4),C15 H9 O4 1-'
_chemical_name_systematic        
'9,10-dimethoxy-5,6-dihydro-2H-[1,3]dioxolo[4,5-g]isoquinolino[3,2-a]isoquinolin-7-ium bis(5,7-dihydroxy-2-phenyl-4H-1-benzopyran-4-one) 5-hydroxy-4-oxo-2-phenyl-4H-1-benzopyran-7-olate'
_symmetry_cell_setting           monoclinic
_symmetry_space_group_name_H-M   'P 21/c'
_symmetry_Int_Tables_number      14
_space_group_name_Hall           '-P 2ybc'
loop_
_symmetry_equiv_pos_site_id
_symmetry_equiv_pos_as_xyz
1 x,y,z
2 -x,1/2+y,1/2-z
3 -x,-y,-z
4 x,1/2-y,1/2+z
_cell_length_a                   21.6054(6)
_cell_length_b                   11.4755(2)
_cell_length_c                   21.9743(6)
_cell_angle_alpha                90
_cell_angle_beta                 113.248(3)
_cell_angle_gamma                90
_cell_volume                     5005.79
_exptl_crystal_colour            yellow
_exptl_crystal_description       prism
_cell_formula_units_Z            4
loop_
_atom_site_label
_atom_site_type_symbol
_atom_site_fract_x
_atom_site_fract_y
_atom_site_fract_z
O1 O 0.67160(6) -0.05975(11) 0.59128(6)
O2 O 0.84410(6) 0.05821(12) 0.73899(6)
O3 O 0.88803(6) 0.11856(11) 0.65084(6)
O4 O 0.75101(6) 0.03181(10) 0.42641(6)
C1 C 0.68029(9) -0.06735(15) 0.65605(8)
C2 C 0.73684(9) -0.03052(15) 0.70599(8)
H1 H 0.740801 -0.038762 0.750397
C3 C 0.79137(9) 0.02109(15) 0.69332(8)
C4 C 0.83001(8) 0.07722(14) 0.60399(8)
C5 C 0.81955(8) 0.08105(14) 0.53805(8)
H2 H 0.852444 0.115464 0.525057
C6 C 0.75993(8) 0.03387(14) 0.48949(8)
C7 C 0.71008(8) -0.01207(15) 0.50883(8)
H3 H 0.669238 -0.042019 0.476757
C8 C 0.72157(8) -0.01284(14) 0.57508(8)
C9 C 0.78100(8) 0.02916(14) 0.62460(8)
C10 C 0.62013(10) -0.11593(16) 0.66279(9)
C11 C 0.62518(12) -0.16878(17) 0.72163(11)
H4 H 0.667960 -0.177874 0.757013
C12 C 0.56728(13) -0.20824(19) 0.72838(13)
H5 H 0.570564 -0.244373 0.768441
C13 C 0.55698(10) -0.10393(18) 0.61076(11)
H6 H 0.553328 -0.069158 0.570248
C14 C 0.49956(12) -0.1430(2) 0.61843(13)
H7 H 0.456558 -0.133898 0.583374
C15 C 0.50502(13) -0.1949(2) 0.67690(15)
H8 H 0.465681 -0.221781 0.681861
H9 H 0.8845(15) 0.103(3) 0.6926(16)
O5 O 0.84368(6) 0.58645(10) 0.38669(6)
O6 O 0.67951(6) 0.66254(11) 0.42733(6)
O7 O 0.65690(6) 0.43779(12) 0.42956(6)
O8 O 0.81130(6) 0.18480(11) 0.38993(6)
C16 C 0.83095(8) 0.69800(15) 0.39939(8)
C17 C 0.77582(8) 0.72691(15) 0.41107(8)
H10 H 0.767030 0.806518 0.416462
C18 C 0.73020(8) 0.63837(15) 0.41542(8)
C19 C 0.71252(8) 0.42218(15) 0.41621(8)
C20 C 0.73304(8) 0.31053(15) 0.41141(8)
H11 H 0.709204 0.245956 0.418530
C21 C 0.78988(8) 0.29219(15) 0.39580(8)
C22 C 0.82526(8) 0.38640(15) 0.38550(8)
H12 H 0.862455 0.374595 0.373434
C23 C 0.80487(8) 0.49708(15) 0.39328(7)
C24 C 0.74844(8) 0.51956(15) 0.40802(8)
C25 C 0.88554(8) 0.77670(15) 0.40150(8)
C26 C 0.88444(9) 0.89454(16) 0.41754(8)
H13 H 0.846645 0.925528 0.423873
C27 C 0.93841(9) 0.96604(16) 0.42417(8)
H14 H 0.937618 1.045891 0.435242
C28 C 0.94100(9) 0.73293(16) 0.39109(8)
H15 H 0.941897 0.653328 0.379594
C29 C 0.99476(9) 0.80529(17) 0.39748(9)
H16 H 1.032167 0.775271 0.390054
C30 C 0.99383(9) 0.92114(17) 0.41467(9)
H17 H 1.031062 0.970119 0.419985
H18 H 0.7882(15) 0.124(3) 0.4047(15)
H19 H 0.6499(13) 0.519(3) 0.4288(13)
O9 O 0.73543(6) -0.11372(10) 0.20093(5)
O10 O 0.56301(6) -0.08118(12) 0.03414(6)
O11 O 0.50287(6) 0.00734(12) 0.10766(6)
O12 O 0.62957(7) 0.03647(13) 0.33629(6)
C31 C 0.73230(9) -0.15318(14) 0.14111(8)
C32 C 0.67625(9) -0.14259(14) 0.08516(8)
H20 H 0.676821 -0.169605 0.044524
C33 C 0.61519(9) -0.09106(14) 0.08546(8)
C34 C 0.56227(9) -0.00846(15) 0.15951(8)
C35 C 0.56702(9) 0.02105(16) 0.22202(9)
H21 H 0.528751 0.050587 0.228046
C36 C 0.62818(9) 0.00750(16) 0.27657(8)
C37 C 0.68536(9) -0.03535(15) 0.26867(8)
H22 H 0.727319 -0.042478 0.305410
C38 C 0.67867(8) -0.06677(14) 0.20582(8)
C39 C 0.61870(8) -0.05421(14) 0.14965(8)
C40 C 0.79587(8) -0.20904(14) 0.14680(8)
C41 C 0.80805(9) -0.23146(15) 0.08992(9)
H23 H 0.776364 -0.207094 0.047830
C42 C 0.86616(9) -0.28907(16) 0.09477(9)
H24 H 0.873950 -0.304561 0.055913
C43 C 0.84354(9) -0.24481(15) 0.20844(8)
H25 H 0.835973 -0.229957 0.247477
C44 C 0.90166(9) -0.30171(16) 0.21273(9)
H26 H 0.933877 -0.325425 0.254706
C45 C 0.91297(9) -0.32420(17) 0.15590(10)
H27 H 0.952745 -0.363629 0.158939
H28 H 0.5122(16) -0.022(3) 0.0722(16)
H29 H 0.6754(17) 0.035(3) 0.3707(17)
O13 O 1.01223(6) 0.60211(12) 0.62438(6)
O14 O 0.93423(6) 0.51937(14) 0.52900(6)
O15 O 0.63871(8) 0.20442(19) 0.73765(8)
O16 O 0.51232(7) 0.19316(17) 0.63323(8)
N1 N 0.80068(7) 0.32458(13) 0.70774(7)
C46 C 0.98479(9) 0.60865(19) 0.55351(9)
H30 H 1.020643 0.595971 0.536821
H31 H 0.964540 0.686319 0.538595
C47 C 0.91734(8) 0.49274(16) 0.58188(8)
C48 C 0.86470(8) 0.42730(16) 0.58177(8)
H32 H 0.833649 0.392060 0.542459
C49 C 0.96476(8) 0.54201(16) 0.63902(8)
C50 C 0.96137(8) 0.52752(16) 0.69939(8)
H33 H 0.994460 0.559629 0.738579
C51 C 0.90689(8) 0.46318(15) 0.70080(8)
C52 C 0.85865(8) 0.41451(14) 0.64329(8)
C53 C 0.89699(9) 0.45045(16) 0.76447(8)
H34 H 0.940992 0.456818 0.802489
H35 H 0.867522 0.513774 0.768111
C54 C 0.86557(8) 0.33447(16) 0.76636(8)
H36 H 0.896289 0.270875 0.765767
H37 H 0.857522 0.327609 0.807552
C55 C 0.79835(8) 0.35951(14) 0.64618(8)
C56 C 0.73830(8) 0.34689(15) 0.59295(8)
H38 H 0.735576 0.369309 0.550355
C57 C 0.74744(9) 0.28143(16) 0.71613(9)
H39 H 0.751851 0.258956 0.759260
C58 C 0.68522(8) 0.26834(15) 0.66312(9)
C59 C 0.68037(8) 0.30181(14) 0.59912(8)
C60 C 0.61736(9) 0.29323(16) 0.54550(9)
H40 H 0.612967 0.313261 0.502035
C61 C 0.56243(9) 0.25573(17) 0.55656(9)
H41 H 0.520021 0.251279 0.520205
C62 C 0.56670(9) 0.22353(17) 0.62006(10)
C63 C 0.62823(9) 0.22775(18) 0.67387(10)
C64 C 0.60107(14) 0.1256(2) 0.75497(11)
H42 H 0.557993 0.161174 0.749667
H43 H 0.625480 0.102405 0.801255
H44 H 0.592740 0.056866 0.726392
C65 C 0.44771(9) 0.1968(2) 0.58090(10)
H45 H 0.439330 0.275065 0.561545
H46 H 0.413417 0.177724 0.598092
H47 H 0.445685 0.139981 0.546852
loop_
_geom_bond_atom_site_label_1
_geom_bond_atom_site_label_2
_geom_bond_site_symmetry_1
_geom_bond_site_symmetry_2
O1 C1 1_555 1_555
O2 C3 1_555 1_555
O3 C4 1_555 1_555
O4 C6 1_555 1_555
C1 C2 1_555 1_555
C2 H1 1_555 1_555
C3 C2 1_555 1_555
C4 C5 1_555 1_555
C5 H2 1_555 1_555
C6 C5 1_555 1_555
C7 C6 1_555 1_555
H3 C7 1_555 1_555
C8 O1 1_555 1_555
C9 C3 1_555 1_555
C10 C1 1_555 1_555
C11 C10 1_555 1_555
H4 C11 1_555 1_555
C12 C11 1_555 1_555
H5 C12 1_555 1_555
C13 C10 1_555 1_555
H6 C13 1_555 1_555
C14 C13 1_555 1_555
H7 C14 1_555 1_555
C15 C12 1_555 1_555
H8 C15 1_555 1_555
H9 O3 1_555 1_555
O5 C16 1_555 1_555
O6 C18 1_555 1_555
O7 C19 1_555 1_555
O8 C21 1_555 1_555
C16 C17 1_555 1_555
C17 H10 1_555 1_555
C18 C17 1_555 1_555
C19 C20 1_555 1_555
C20 H11 1_555 1_555
C21 C20 1_555 1_555
C22 C21 1_555 1_555
H12 C22 1_555 1_555
C23 O5 1_555 1_555
C24 C18 1_555 1_555
C25 C16 1_555 1_555
C26 C25 1_555 1_555
H13 C26 1_555 1_555
C27 C26 1_555 1_555
H14 C27 1_555 1_555
C28 C25 1_555 1_555
H15 C28 1_555 1_555
C29 C28 1_555 1_555
H16 C29 1_555 1_555
C30 C27 1_555 1_555
H17 C30 1_555 1_555
H18 O8 1_555 1_555
H19 O7 1_555 1_555
O9 C31 1_555 1_555
O10 C33 1_555 1_555
O11 C34 1_555 1_555
O12 C36 1_555 1_555
C31 C32 1_555 1_555
C32 H20 1_555 1_555
C33 C32 1_555 1_555
C34 C35 1_555 1_555
C35 H21 1_555 1_555
C36 C35 1_555 1_555
C37 C36 1_555 1_555
H22 C37 1_555 1_555
C38 O9 1_555 1_555
C39 C33 1_555 1_555
C40 C31 1_555 1_555
C41 C40 1_555 1_555
H23 C41 1_555 1_555
C42 C41 1_555 1_555
H24 C42 1_555 1_555
C43 C40 1_555 1_555
H25 C43 1_555 1_555
C44 C43 1_555 1_555
H26 C44 1_555 1_555
C45 C42 1_555 1_555
H27 C45 1_555 1_555
H28 O11 1_555 1_555
H29 O12 1_555 1_555
O13 C46 1_555 1_555
O14 C46 1_555 1_555
O15 C63 1_555 1_555
O16 C62 1_555 1_555
N1 C54 1_555 1_555
C46 H30 1_555 1_555
H31 C46 1_555 1_555
C47 O14 1_555 1_555
C48 C47 1_555 1_555
H32 C48 1_555 1_555
C49 O13 1_555 1_555
C50 C49 1_555 1_555
H33 C50 1_555 1_555
C51 C50 1_555 1_555
C52 C48 1_555 1_555
C53 C51 1_555 1_555
H34 C53 1_555 1_555
H35 C53 1_555 1_555
C54 C53 1_555 1_555
H36 C54 1_555 1_555
H37 C54 1_555 1_555
C55 N1 1_555 1_555
C56 C55 1_555 1_555
H38 C56 1_555 1_555
C57 N1 1_555 1_555
H39 C57 1_555 1_555
C58 C57 1_555 1_555
C59 C56 1_555 1_555
C60 C59 1_555 1_555
H40 C60 1_555 1_555
C61 C60 1_555 1_555
H41 C61 1_555 1_555
C62 C61 1_555 1_555
C63 C58 1_555 1_555
C64 O15 1_555 1_555
H42 C64 1_555 1_555
H43 C64 1_555 1_555
H44 C64 1_555 1_555
C65 O16 1_555 1_555
H45 C65 1_555 1_555
H46 C65 1_555 1_555
H47 C65 1_555 1_555
C4 C9 1_555 1_555
C7 C8 1_555 1_555
C8 C9 1_555 1_555
C14 C15 1_555 1_555
C19 C24 1_555 1_555
C22 C23 1_555 1_555
C23 C24 1_555 1_555
C29 C30 1_555 1_555
C34 C39 1_555 1_555
C37 C38 1_555 1_555
C38 C39 1_555 1_555
C44 C45 1_555 1_555
C47 C49 1_555 1_555
C51 C52 1_555 1_555
C52 C55 1_555 1_555
C58 C59 1_555 1_555
C62 C63 1_555 1_555

#END
