
#######################################################################
#
#                 Cambridge Crystallographic Data Centre
#                                CCDC 
#
#######################################################################
#
# If this CIF has been generated from an entry in the Cambridge 
# Structural Database, then it will include bibliographic, chemical, 
# crystal, experimental, refinement or atomic coordinate data resulting 
# from the CCDC's data processing and validation procedures.
#
#######################################################################

data_JICLAL
_chemical_formula_moiety         'C14 H12 Cl2 O3 S1'
_chemical_name_systematic        
2,4-dichloro-1-((2,4-dimethoxyphenyl)sulfinyl)benzene
_symmetry_cell_setting           monoclinic
_symmetry_space_group_name_H-M   'P 21/n'
_symmetry_Int_Tables_number      14
_space_group_name_Hall           '-P 2yn'
loop_
_symmetry_equiv_pos_site_id
_symmetry_equiv_pos_as_xyz
1 x,y,z
2 1/2-x,1/2+y,1/2-z
3 -x,-y,-z
4 1/2+x,1/2-y,1/2+z
_cell_length_a                   9.5585(5)
_cell_length_b                   8.3600(4)
_cell_length_c                   18.1141(8)
_cell_angle_alpha                90
_cell_angle_beta                 92.438(2)
_cell_angle_gamma                90
_cell_volume                     1446.17
_exptl_crystal_colour            colorless
_exptl_crystal_description       block
_cell_formula_units_Z            4
loop_
_atom_site_label
_atom_site_type_symbol
_atom_site_fract_x
_atom_site_fract_y
_atom_site_fract_z
C1 C 0.84036(18) 0.5100(2) 0.06334(10)
C2 C 0.9231(2) 0.3788(3) 0.08015(11)
H1 H 0.9878 0.3834 0.1199
C3 C 0.9111(2) 0.2406(3) 0.03854(12)
H2 H 0.9657 0.1517 0.0508
C4 C 0.8172(2) 0.2360(2) -0.02131(11)
C5 C 0.7335(2) 0.3663(3) -0.03989(10)
H3 H 0.6701 0.3621 -0.0803
C6 C 0.74617(19) 0.5021(2) 0.00275(10)
C7 C 0.70533(19) 0.6837(2) 0.16382(10)
C8 C 0.62214(19) 0.8206(2) 0.16553(10)
C9 C 0.50182(19) 0.8208(2) 0.20621(10)
H4 H 0.4450 0.9110 0.2070
C10 C 0.46750(19) 0.6852(2) 0.24544(10)
C11 C 0.5508(2) 0.5485(2) 0.24489(11)
H5 H 0.5273 0.4584 0.2718
C12 C 0.6686(2) 0.5494(2) 0.20372(11)
H6 H 0.7245 0.4585 0.2026
C13 C 0.5887(3) 1.0937(3) 0.13085(16)
H7 H 0.4960 1.0776 0.1096
H8 H 0.6347 1.1760 0.1040
H9 H 0.5831 1.1252 0.1816
C14 C 0.2532(2) 0.8024(3) 0.28246(13)
H10 H 0.2964 0.9011 0.2981
H11 H 0.1767 0.7787 0.3134
H12 H 0.2188 0.8123 0.2321
Cl1 Cl 0.64117(7) 0.66584(7) -0.01904(3)
Cl2 Cl 0.80347(7) 0.06434(7) -0.07450(4)
O1 O 0.98027(15) 0.6506(2) 0.17249(9)
O2 O 0.66618(15) 0.94882(17) 0.12679(9)
O3 O 0.35380(15) 0.67631(18) 0.28806(8)
S1 S 0.86582(5) 0.69017(6) 0.11679(3)
loop_
_geom_bond_atom_site_label_1
_geom_bond_atom_site_label_2
_geom_bond_site_symmetry_1
_geom_bond_site_symmetry_2
C1 C2 1_555 1_555
C2 H1 1_555 1_555
C3 C2 1_555 1_555
H2 C3 1_555 1_555
C4 C3 1_555 1_555
C5 C4 1_555 1_555
H3 C5 1_555 1_555
C6 C1 1_555 1_555
C7 C8 1_555 1_555
C8 C9 1_555 1_555
C9 H4 1_555 1_555
C10 C9 1_555 1_555
C11 C10 1_555 1_555
H5 C11 1_555 1_555
C12 C7 1_555 1_555
H6 C12 1_555 1_555
C13 H7 1_555 1_555
H8 C13 1_555 1_555
H9 C13 1_555 1_555
C14 H10 1_555 1_555
H11 C14 1_555 1_555
H12 C14 1_555 1_555
Cl1 C6 1_555 1_555
Cl2 C4 1_555 1_555
O1 S1 1_555 1_555
O2 C8 1_555 1_555
O3 C10 1_555 1_555
S1 C1 1_555 1_555
C5 C6 1_555 1_555
C7 S1 1_555 1_555
C11 C12 1_555 1_555
C13 O2 1_555 1_555
C14 O3 1_555 1_555

#END
