
#######################################################################
#
#                 Cambridge Crystallographic Data Centre
#                                CCDC 
#
#######################################################################
#
# If this CIF has been generated from an entry in the Cambridge 
# Structural Database, then it will include bibliographic, chemical, 
# crystal, experimental, refinement or atomic coordinate data resulting 
# from the CCDC's data processing and validation procedures.
#
#######################################################################

data_JICMIU
_chemical_formula_moiety         'C22 H22 O4 S2'
_chemical_name_systematic        
1,2-dimethoxy-4-((4-methylphenyl)sulfanyl)-5-((4-methylphenyl)sulfonyl)benzene
_symmetry_cell_setting           triclinic
_symmetry_space_group_name_H-M   'P -1'
_symmetry_Int_Tables_number      2
_space_group_name_Hall           '-P 1'
loop_
_symmetry_equiv_pos_site_id
_symmetry_equiv_pos_as_xyz
1 x,y,z
2 -x,-y,-z
_cell_length_a                   8.622(8)
_cell_length_b                   10.919(10)
_cell_length_c                   11.353(11)
_cell_angle_alpha                87.503(17)
_cell_angle_beta                 83.435(18)
_cell_angle_gamma                74.034(16)
_cell_volume                     1020.76
_exptl_crystal_colour            colorless
_exptl_crystal_description       block
_cell_formula_units_Z            2
loop_
_atom_site_label
_atom_site_type_symbol
_atom_site_fract_x
_atom_site_fract_y
_atom_site_fract_z
C1 C 0.4949(4) 0.1304(3) 0.7416(3)
C2 C 0.3998(4) 0.0907(3) 0.6683(3)
H1 H 0.3350 0.1504 0.6208
C3 C 0.4000(4) -0.0337(3) 0.6647(3)
C4 C 0.4978(4) -0.1218(3) 0.7369(3)
C5 C 0.5916(4) -0.0834(3) 0.8084(3)
H2 H 0.6552 -0.1436 0.8561
C6 C 0.5957(4) 0.0425(3) 0.8124(3)
C7 C 0.2144(5) -0.0002(4) 0.5198(4)
H3 H 0.1320 0.0630 0.5650
H4 H 0.1643 -0.0480 0.4746
H5 H 0.2803 0.0409 0.4671
C8 C 0.5752(5) -0.3358(3) 0.8107(4)
H6 H 0.6892 -0.3428 0.7964
H7 H 0.5570 -0.4171 0.7988
H8 H 0.5367 -0.3092 0.8907
C9 C 0.6427(5) 0.3171(3) 0.6456(3)
C10 C 0.6253(5) 0.3406(3) 0.5269(3)
H9 H 0.5262 0.3477 0.4984
C11 C 0.7561(7) 0.3533(4) 0.4514(4)
H10 H 0.7439 0.3700 0.3715
C12 C 0.9044(6) 0.3421(4) 0.4904(4)
C13 C 0.9183(5) 0.3215(4) 0.6112(4)
H11 H 1.0164 0.3164 0.6403
C14 C 0.7883(5) 0.3087(3) 0.6874(3)
H12 H 0.7989 0.2942 0.7678
C15 C 1.0485(7) 0.3518(5) 0.4050(5)
H13 H 1.0820 0.2789 0.3545
H14 H 1.1363 0.3549 0.4488
H15 H 1.0188 0.4279 0.3576
C16 C 0.8578(4) -0.0597(3) 0.9332(3)
C17 C 0.8342(5) -0.1323(4) 1.0323(3)
H16 H 0.7451 -0.1017 1.0877
C18 C 0.9397(5) -0.2488(4) 1.0507(3)
H17 H 0.9201 -0.2969 1.1175
C19 C 1.0743(5) -0.2955(4) 0.9716(4)
C20 C 1.0999(5) -0.2199(5) 0.8739(4)
H18 H 1.1914 -0.2487 0.8200
C21 C 0.9946(5) -0.1047(4) 0.8552(3)
H19 H 1.0150 -0.0558 0.7891
C22 C 1.1919(6) -0.4225(4) 0.9929(5)
H20 H 1.2207 -0.4694 0.9203
H21 H 1.1423 -0.4696 1.0519
H22 H 1.2876 -0.4097 1.0200
O1 O 0.4955(3) 0.3303(2) 0.8583(2)
O2 O 0.3297(3) 0.3590(2) 0.6899(3)
O3 O 0.3122(3) -0.0830(2) 0.5974(2)
O4 O 0.4903(3) -0.2443(2) 0.7305(2)
S1 S 0.47674(12) 0.29570(8) 0.74172(9)
S2 S 0.71678(14) 0.08836(9) 0.90884(9)
loop_
_geom_bond_atom_site_label_1
_geom_bond_atom_site_label_2
_geom_bond_site_symmetry_1
_geom_bond_site_symmetry_2
C1 C2 1_555 1_555
C2 H1 1_555 1_555
C3 C2 1_555 1_555
C4 C3 1_555 1_555
C5 C4 1_555 1_555
H2 C5 1_555 1_555
C6 C1 1_555 1_555
C7 H3 1_555 1_555
H4 C7 1_555 1_555
H5 C7 1_555 1_555
C8 H6 1_555 1_555
H7 C8 1_555 1_555
H8 C8 1_555 1_555
C9 C10 1_555 1_555
C10 H9 1_555 1_555
C11 C10 1_555 1_555
H10 C11 1_555 1_555
C12 C11 1_555 1_555
C13 C12 1_555 1_555
H11 C13 1_555 1_555
C14 C9 1_555 1_555
H12 C14 1_555 1_555
C15 C12 1_555 1_555
H13 C15 1_555 1_555
H14 C15 1_555 1_555
H15 C15 1_555 1_555
C16 C17 1_555 1_555
C17 H16 1_555 1_555
C18 C17 1_555 1_555
H17 C18 1_555 1_555
C19 C18 1_555 1_555
C20 C19 1_555 1_555
H18 C20 1_555 1_555
C21 C16 1_555 1_555
H19 C21 1_555 1_555
C22 C19 1_555 1_555
H20 C22 1_555 1_555
H21 C22 1_555 1_555
H22 C22 1_555 1_555
O1 S1 1_555 1_555
O2 S1 1_555 1_555
O3 C3 1_555 1_555
O4 C4 1_555 1_555
S1 C1 1_555 1_555
S2 C6 1_555 1_555
C5 C6 1_555 1_555
C7 O3 1_555 1_555
C8 O4 1_555 1_555
C9 S1 1_555 1_555
C13 C14 1_555 1_555
C16 S2 1_555 1_555
C20 C21 1_555 1_555

#END
