
#######################################################################
#
#                 Cambridge Crystallographic Data Centre
#                                CCDC 
#
#######################################################################
#
# If this CIF has been generated from an entry in the Cambridge 
# Structural Database, then it will include bibliographic, chemical, 
# crystal, experimental, refinement or atomic coordinate data resulting 
# from the CCDC's data processing and validation procedures.
#
#######################################################################

data_JICQIY
_chemical_formula_moiety         'C20 H20 Cl1 N1 O4 S1'
_chemical_name_systematic        
4-chloro-1-((4-methoxyphenyl)sulfonyl)-3-phenylhexahydrocyclopenta[b]pyrrol-2(1H)-one
_symmetry_cell_setting           triclinic
_symmetry_space_group_name_H-M   'P -1'
_symmetry_Int_Tables_number      2
_space_group_name_Hall           '-P 1'
loop_
_symmetry_equiv_pos_site_id
_symmetry_equiv_pos_as_xyz
1 x,y,z
2 -x,-y,-z
_cell_length_a                   10.3867(10)
_cell_length_b                   10.4759(11)
_cell_length_c                   10.6240(11)
_cell_angle_alpha                84.693(2)
_cell_angle_beta                 61.007(2)
_cell_angle_gamma                72.676(2)
_cell_volume                     963.396
_exptl_crystal_colour            colorless
_exptl_crystal_description       prism
_cell_formula_units_Z            2
loop_
_atom_site_label
_atom_site_type_symbol
_atom_site_fract_x
_atom_site_fract_y
_atom_site_fract_z
C1 C 0.6307(2) 0.2094(2) 0.9235(2)
C2 C 0.6534(2) 0.0848(2) 0.8700(2)
H1 H 0.6618 0.0087 0.9247
C3 C 0.6639(3) 0.0708(2) 0.7367(2)
H2 H 0.6788 -0.0146 0.6997
C4 C 0.6525(2) 0.1827(2) 0.6579(2)
C5 C 0.6973(4) 0.0521(3) 0.4607(3)
H3 H 0.7029 0.0636 0.3657
H4 H 0.6155 0.0111 0.5225
H5 H 0.7959 -0.0061 0.4499
C6 C 0.6255(2) 0.3090(2) 0.7141(2)
H6 H 0.6146 0.3856 0.6607
C7 C 0.6145(2) 0.3227(2) 0.8468(2)
H7 H 0.5961 0.4084 0.8855
C8 C 0.8311(2) 0.35446(19) 1.0744(2)
H8 H 0.7935 0.4354 1.0301
C9 C 0.7651(3) 0.3814(3) 1.2373(2)
H9 H 0.6892 0.4711 1.2701
H10 H 0.7139 0.3133 1.2921
C10 C 0.9018(3) 0.3737(2) 1.2594(2)
H11 H 0.9200 0.4624 1.2514
H12 H 0.8857 0.3403 1.3546
C11 C 1.0342(2) 0.2755(2) 1.1381(2)
H13 H 1.0275 0.1824 1.1628
C12 C 1.0085(2) 0.31268(19) 1.0079(2)
H14 H 1.0483 0.3903 0.9622
C13 C 1.0732(2) 0.19853(19) 0.8934(2)
H15 H 1.1600 0.1280 0.8979
C14 C 0.9388(2) 0.14279(18) 0.9373(2)
C15 C 1.1262(2) 0.24661(18) 0.7420(2)
C16 C 1.2752(2) 0.2559(2) 0.6613(2)
H16 H 1.3435 0.2297 0.7005
C17 C 1.3254(2) 0.3029(2) 0.5245(2)
H17 H 1.4275 0.3092 0.4710
C18 C 1.2279(3) 0.3406(2) 0.4654(2)
H18 H 1.2629 0.3719 0.3710
C19 C 1.0802(3) 0.3324(3) 0.5444(2)
H19 H 1.0123 0.3592 0.5047
C20 C 1.0291(2) 0.2855(2) 0.6817(2)
H20 H 0.9267 0.2799 0.7350
N1 N 0.80594(17) 0.23429(16) 1.03726(17)
O1 O 0.53079(15) 0.35341(15) 1.15702(16)
O2 O 0.61135(17) 0.10604(16) 1.16172(16)
O3 O 0.6644(2) 0.18011(16) 0.52511(17)
O4 O 0.94215(15) 0.04000(13) 0.89073(15)
S1 S 0.62958(5) 0.22473(5) 1.08629(5)
Cl1 Cl 1.21957(6) 0.28466(6) 1.10064(7)
loop_
_geom_bond_atom_site_label_1
_geom_bond_atom_site_label_2
_geom_bond_site_symmetry_1
_geom_bond_site_symmetry_2
C1 C2 1_555 1_555
C2 H1 1_555 1_555
C3 C2 1_555 1_555
H2 C3 1_555 1_555
C4 C3 1_555 1_555
C5 H3 1_555 1_555
H4 C5 1_555 1_555
H5 C5 1_555 1_555
C6 C4 1_555 1_555
H6 C6 1_555 1_555
C7 C1 1_555 1_555
H7 C7 1_555 1_555
C8 H8 1_555 1_555
C9 C8 1_555 1_555
H9 C9 1_555 1_555
H10 C9 1_555 1_555
C10 C9 1_555 1_555
H11 C10 1_555 1_555
H12 C10 1_555 1_555
C11 C10 1_555 1_555
H13 C11 1_555 1_555
C12 C8 1_555 1_555
H14 C12 1_555 1_555
C13 C12 1_555 1_555
H15 C13 1_555 1_555
C14 C13 1_555 1_555
C15 C13 1_555 1_555
C16 C15 1_555 1_555
H16 C16 1_555 1_555
C17 C16 1_555 1_555
H17 C17 1_555 1_555
C18 C17 1_555 1_555
H18 C18 1_555 1_555
C19 C18 1_555 1_555
H19 C19 1_555 1_555
C20 C15 1_555 1_555
H20 C20 1_555 1_555
N1 C8 1_555 1_555
O1 S1 1_555 1_555
O2 S1 1_555 1_555
O3 C4 1_555 1_555
O4 C14 1_555 1_555
S1 C1 1_555 1_555
Cl1 C11 1_555 1_555
C5 O3 1_555 1_555
C6 C7 1_555 1_555
C11 C12 1_555 1_555
C14 N1 1_555 1_555
C19 C20 1_555 1_555
N1 S1 1_555 1_555

#END
