
#######################################################################
#
#                 Cambridge Crystallographic Data Centre
#                                CCDC 
#
#######################################################################
#
# If this CIF has been generated from an entry in the Cambridge 
# Structural Database, then it will include bibliographic, chemical, 
# crystal, experimental, refinement or atomic coordinate data resulting 
# from the CCDC's data processing and validation procedures.
#
#######################################################################

data_JICSUM
_chemical_formula_moiety         'C10 H18 B1 N4 1+,C4 H6 B1 N6 1-'
_chemical_name_systematic        
'bis(2,3-dimethyl-1H-imidazol-3-ium-1-yl)borate bis(1,2,4-triazol-1-yl)borate'
_symmetry_cell_setting           monoclinic
_symmetry_space_group_name_H-M   'P 21/c'
_symmetry_Int_Tables_number      14
_space_group_name_Hall           '-P 2ybc'
loop_
_symmetry_equiv_pos_site_id
_symmetry_equiv_pos_as_xyz
1 x,y,z
2 -x,1/2+y,1/2-z
3 -x,-y,-z
4 x,1/2-y,1/2+z
_cell_length_a                   11.914(2)
_cell_length_b                   10.392(2)
_cell_length_c                   14.799(3)
_cell_angle_alpha                90
_cell_angle_beta                 95.87(3)
_cell_angle_gamma                90
_cell_volume                     1822.66
_exptl_crystal_colour            colorless
_exptl_crystal_description       plate
_cell_formula_units_Z            4
loop_
_atom_site_label
_atom_site_type_symbol
_atom_site_fract_x
_atom_site_fract_y
_atom_site_fract_z
N1 N 0.77723(10) 0.56802(11) 0.65022(8)
N2 N 0.82572(10) 0.68522(12) 0.67060(8)
N3 N 0.66033(12) 0.67185(13) 0.73213(10)
N4 N 0.76587(10) 0.45973(11) 0.49524(8)
N5 N 0.65620(10) 0.42035(12) 0.47876(9)
N6 N 0.72374(11) 0.47386(12) 0.34634(8)
C1 C 0.68049(14) 0.56454(16) 0.68787(12)
H1 H 0.6310 0.4927 0.6835
C2 C 0.75320(13) 0.74161(15) 0.71959(10)
H2 H 0.7655 0.8254 0.7443
C3 C 0.80250(13) 0.49031(14) 0.41578(10)
H3 H 0.8766 0.5205 0.4095
C4 C 0.63590(13) 0.43122(14) 0.38965(10)
H4 H 0.5647 0.4106 0.3581
B1 B 0.82904(14) 0.46266(16) 0.59217(11)
H5 H 0.9174 0.4902 0.5874
H6 H 0.8216 0.3694 0.6263
N7 N 0.63150(10) 0.50973(11) 0.94177(7)
N8 N 0.48293(9) 0.60119(11) 0.87094(7)
N9 N 0.84516(10) 0.54087(12) 0.95333(8)
N10 N 0.97688(10) 0.56492(13) 0.86270(8)
C5 C 0.60911(13) 0.74739(14) 0.96896(10)
H7 H 0.6534 0.7345 1.0278
H8 H 0.5414 0.7976 0.9776
H9 H 0.6547 0.7938 0.9281
C6 C 0.57564(11) 0.62093(13) 0.92886(8)
C7 C 0.40390(12) 0.70089(15) 0.83643(10)
H10 H 0.3794 0.7500 0.8874
H11 H 0.3382 0.6609 0.8022
H12 H 0.4409 0.7587 0.7964
C8 C 0.47985(12) 0.47346(14) 0.84518(9)
H13 H 0.4240 0.4330 0.8043
C9 C 0.57159(12) 0.41750(13) 0.88932(9)
H14 H 0.5918 0.3294 0.8852
C10 C 0.87360(15) 0.35506(16) 0.84851(11)
H15 H 0.8288 0.3059 0.8885
H16 H 0.9450 0.3104 0.8431
H17 H 0.8315 0.3630 0.7883
C11 C 0.89695(12) 0.48510(14) 0.88729(9)
C12 C 1.05216(14) 0.5419(2) 0.79217(11)
H18 H 1.0715 0.4503 0.7910
H19 H 1.1212 0.5928 0.8053
H20 H 1.0142 0.5672 0.7330
C13 C 0.97628(13) 0.67524(15) 0.91441(11)
H21 H 1.0240 0.7480 0.9111
C14 C 0.89490(12) 0.66011(14) 0.97058(10)
H22 H 0.8751 0.7207 1.0144
B2 B 0.74486(13) 0.48581(16) 1.00286(11)
H23 H 0.7411 0.5436 1.0648
H24 H 0.7554 0.3814 1.0124
loop_
_geom_bond_atom_site_label_1
_geom_bond_atom_site_label_2
_geom_bond_site_symmetry_1
_geom_bond_site_symmetry_2
N1 N2 1_555 1_555
N2 C2 1_555 1_555
N3 C1 1_555 1_555
N4 N5 1_555 1_555
N5 C4 1_555 1_555
N6 C3 1_555 1_555
C1 N1 1_555 1_555
H1 C1 1_555 1_555
C2 N3 1_555 1_555
H2 C2 1_555 1_555
C3 N4 1_555 1_555
H3 C3 1_555 1_555
C4 N6 1_555 1_555
H4 C4 1_555 1_555
B1 N1 1_555 1_555
H5 B1 1_555 1_555
H6 B1 1_555 1_555
N7 C6 1_555 1_555
N8 C6 1_555 1_555
N9 C11 1_555 1_555
N10 C11 1_555 1_555
C5 H7 1_555 1_555
H8 C5 1_555 1_555
H9 C5 1_555 1_555
C6 C5 1_555 1_555
C7 N8 1_555 1_555
H10 C7 1_555 1_555
H11 C7 1_555 1_555
H12 C7 1_555 1_555
C8 N8 1_555 1_555
H13 C8 1_555 1_555
C9 N7 1_555 1_555
H14 C9 1_555 1_555
C10 H15 1_555 1_555
H16 C10 1_555 1_555
H17 C10 1_555 1_555
C11 C10 1_555 1_555
C12 N10 1_555 1_555
H18 C12 1_555 1_555
H19 C12 1_555 1_555
H20 C12 1_555 1_555
C13 N10 1_555 1_555
H21 C13 1_555 1_555
C14 N9 1_555 1_555
H22 C14 1_555 1_555
B2 N7 1_555 1_555
H23 B2 1_555 1_555
H24 B2 1_555 1_555
N4 B1 1_555 1_555
N9 B2 1_555 1_555
C8 C9 1_555 1_555
C13 C14 1_555 1_555

#END
