
#######################################################################
#
#                 Cambridge Crystallographic Data Centre
#                                CCDC 
#
#######################################################################
#
# If this CIF has been generated from an entry in the Cambridge 
# Structural Database, then it will include bibliographic, chemical, 
# crystal, experimental, refinement or atomic coordinate data resulting 
# from the CCDC's data processing and validation procedures.
#
#######################################################################

data_JICXOI
_chemical_formula_moiety         'C20 F36 O6'
_chemical_name_systematic        Perfluoro-cis-syn-cis-dicyclohexyl-18-crown-6
_symmetry_cell_setting           monoclinic
_symmetry_space_group_name_H-M   'C 2/c'
_symmetry_Int_Tables_number      15
_space_group_name_Hall           '-C 2yn'
loop_
_symmetry_equiv_pos_site_id
_symmetry_equiv_pos_as_xyz
1 x,y,z
2 1/2+x,1/2+y,z
3 -x,y,1/2-z
4 1/2-x,1/2+y,1/2-z
5 -x,-y,-z
6 1/2-x,1/2-y,-z
7 x,-y,1/2+z
8 1/2+x,1/2-y,1/2+z
_cell_length_a                   27.051(2)
_cell_length_b                   10.0876(10)
_cell_length_c                   23.526(3)
_cell_angle_alpha                90
_cell_angle_beta                 100.920(8)
_cell_angle_gamma                90
_cell_volume                     6303.52
_chemical_melting_point          54-55deg.C
_cell_formula_units_Z            8
loop_
_atom_site_label
_atom_site_type_symbol
_atom_site_fract_x
_atom_site_fract_y
_atom_site_fract_z
C1 C 0.15461(11) 0.9789(3) 0.41440(13)
F1 F 0.19528(7) 1.0502(2) 0.40791(8)
C2 C 0.14521(13) 1.0016(4) 0.47654(13)
F2 F 0.14521(8) 1.1326(2) 0.48650(8)
F3 F 0.18343(7) 0.9474(2) 0.51429(8)
C3 C 0.09524(13) 0.9433(4) 0.48647(14)
F4 F 0.08754(8) 0.9825(2) 0.53869(8)
F5 F 0.09865(8) 0.8104(2) 0.48673(8)
C4 C 0.05039(13) 0.9839(4) 0.44007(14)
F6 F 0.00972(8) 0.9131(2) 0.44630(9)
F7 F 0.04023(8) 1.1120(2) 0.44703(8)
C5 C 0.05938(12) 0.9635(3) 0.37757(13)
F8 F 0.02033(7) 1.0187(2) 0.34132(8)
F9 F 0.05880(6) 0.8326(2) 0.36670(7)
C6 C 0.10905(11) 1.0230(3) 0.36750(12)
F10 F 0.10516(7) 1.1572(2) 0.37111(7)
O1 O 0.12329(7) 0.9884(2) 0.31531(8)
C7 C 0.09306(12) 1.0043(3) 0.26154(12)
F11 F 0.06744(8) 1.1173(2) 0.25738(8)
F12 F 0.06040(7) 0.9049(2) 0.25014(7)
C8 C 0.12762(13) 1.0057(3) 0.21689(13)
F13 F 0.15931(9) 1.1080(2) 0.22657(9)
F14 F 0.09894(8) 1.0220(2) 0.16462(7)
O2 O 0.15282(8) 0.8869(2) 0.22058(8)
C9 C 0.19283(11) 0.8685(3) 0.19247(13)
F15 F 0.23415(7) 0.9284(2) 0.22091(8)
F16 F 0.18309(7) 0.9182(2) 0.13879(7)
C10 C 0.20250(11) 0.7200(3) 0.19073(12)
F17 F 0.24113(6) 0.6983(2) 0.16384(8)
F18 F 0.21562(6) 0.6728(2) 0.24437(7)
O3 O 0.15922(7) 0.6644(2) 0.16111(8)
C11 C 0.15275(11) 0.5285(3) 0.15178(12)
F19 F 0.19377(6) 0.4576(2) 0.17503(8)
C12 C 0.14212(13) 0.5063(4) 0.08543(14)
F20 F 0.14209(8) 0.3752(2) 0.07517(9)
F21 F 0.17962(7) 0.5611(2) 0.06338(8)
C13 C 0.09178(13) 0.5643(4) 0.05490(14)
F22 F 0.08319(8) 0.5260(2) -0.00069(8)
F23 F 0.09487(7) 0.6974(2) 0.05657(8)
C14 C 0.04769(13) 0.5223(4) 0.08315(14)
F24 F 0.00666(7) 0.5932(2) 0.06003(8)
F25 F 0.03750(8) 0.3942(2) 0.07162(8)
C15 C 0.05766(12) 0.5426(3) 0.14965(13)
F26 F 0.01944(7) 0.4858(2) 0.16977(8)
F27 F 0.05710(6) 0.6734(2) 0.16038(7)
C16 C 0.10832(11) 0.4833(3) 0.18032(12)
F28 F 0.10435(7) 0.3499(2) 0.17485(8)
O4 O 0.12358(7) 0.5181(2) 0.23845(8)
C17 C 0.09455(13) 0.5021(3) 0.28017(1)
F29 F 0.06896(8) 0.3881(2) 0.27388(8)
F30 F 0.06162(7) 0.6007(2) 0.27818(7)
C18 C 0.12996(13) 0.5017(4) 0.33889(13)
F31 F 0.16232(9) 0.3996(2) 0.34221(9)
F32 F 0.10254(9) 0.4842(2) 0.37990(8)
O5 O 0.15496(8) 0.6207(2) 0.34584(8)
C19 C 0.19565(12) 0.6404(4) 0.38990(13)
F33 F 0.18787(8) 0.5894(2) 0.43994(8)
F34 F 0.23660(7) 0.5823(2) 0.37756(9)
C20 C 0.20485(11) 0.7890(3) 0.39619(12)
F35 F 0.24391(7) 0.8117(2) 0.43894(8)
F36 F 0.21616(6) 0.8373(2) 0.34747(7)
O6 O 0.16146(7) 0.8431(2) 0.40795(8)
loop_
_geom_bond_atom_site_label_1
_geom_bond_atom_site_label_2
_geom_bond_site_symmetry_1
_geom_bond_site_symmetry_2
C1 F1 1_555 1_555
C2 C1 1_555 1_555
F2 C2 1_555 1_555
F3 C2 1_555 1_555
C3 C2 1_555 1_555
F4 C3 1_555 1_555
F5 C3 1_555 1_555
C4 C3 1_555 1_555
F6 C4 1_555 1_555
F7 C4 1_555 1_555
C5 C4 1_555 1_555
F8 C5 1_555 1_555
F9 C5 1_555 1_555
C6 C1 1_555 1_555
F10 C6 1_555 1_555
O1 C6 1_555 1_555
C7 O1 1_555 1_555
F11 C7 1_555 1_555
F12 C7 1_555 1_555
C8 C7 1_555 1_555
F13 C8 1_555 1_555
F14 C8 1_555 1_555
O2 C8 1_555 1_555
C9 O2 1_555 1_555
F15 C9 1_555 1_555
F16 C9 1_555 1_555
C10 C9 1_555 1_555
F17 C10 1_555 1_555
F18 C10 1_555 1_555
O3 C10 1_555 1_555
C11 O3 1_555 1_555
F19 C11 1_555 1_555
C12 C11 1_555 1_555
F20 C12 1_555 1_555
F21 C12 1_555 1_555
C13 C12 1_555 1_555
F22 C13 1_555 1_555
F23 C13 1_555 1_555
C14 C13 1_555 1_555
F24 C14 1_555 1_555
F25 C14 1_555 1_555
C15 C14 1_555 1_555
F26 C15 1_555 1_555
F27 C15 1_555 1_555
C16 C11 1_555 1_555
F28 C16 1_555 1_555
O4 C16 1_555 1_555
C17 O4 1_555 1_555
F29 C17 1_555 1_555
F30 C17 1_555 1_555
C18 C17 1_555 1_555
F31 C18 1_555 1_555
F32 C18 1_555 1_555
O5 C18 1_555 1_555
C19 O5 1_555 1_555
F33 C19 1_555 1_555
F34 C19 1_555 1_555
C20 C19 1_555 1_555
F35 C20 1_555 1_555
F36 C20 1_555 1_555
O6 C1 1_555 1_555
C5 C6 1_555 1_555
C15 C16 1_555 1_555
C20 O6 1_555 1_555

#END
