
#######################################################################
#
#                 Cambridge Crystallographic Data Centre
#                                CCDC 
#
#######################################################################
#
# If this CIF has been generated from an entry in the Cambridge 
# Structural Database, then it will include bibliographic, chemical, 
# crystal, experimental, refinement or atomic coordinate data resulting 
# from the CCDC's data processing and validation procedures.
#
#######################################################################

data_JIDGAE
_chemical_formula_moiety         'C11 H14 O3'
_chemical_name_systematic        
'3-Oxabicyclo(5.3.1)undeca-1(10),7(8)-(ZZ)-diene-10-carboxylic acid'
_symmetry_cell_setting           monoclinic
_symmetry_space_group_name_H-M   'P 21/a'
_symmetry_Int_Tables_number      14
_space_group_name_Hall           '-P 2yab'
loop_
_symmetry_equiv_pos_site_id
_symmetry_equiv_pos_as_xyz
1 x,y,z
2 1/2-x,1/2+y,-z
3 -x,-y,-z
4 1/2+x,1/2-y,z
_cell_length_a                   18.015(4)
_cell_length_b                   12.722(3)
_cell_length_c                   8.682(1)
_cell_angle_alpha                90
_cell_angle_beta                 92.34(1)
_cell_angle_gamma                90
_cell_volume                     1988.14
_cell_formula_units_Z            8
loop_
_atom_site_label
_atom_site_type_symbol
_atom_site_fract_x
_atom_site_fract_y
_atom_site_fract_z
C1 C 0.3740(1) 0.1756(2) 0.6556(2)
C2 C 0.3694(2) 0.0773(2) 0.5582(3)
C3 C 0.4452(2) 0.1620(2) 0.3644(3)
C4 C 0.4296(2) 0.2662(2) 0.2852(3)
C5 C 0.4222(2) 0.3660(2) 0.3840(3)
C6 C 0.4071(1) 0.3427(2) 0.5490(3)
C7 C 0.4506(1) 0.3620(2) 0.6712(3)
C8 C 0.4353(2) 0.3066(2) 0.8202(3)
C9 C 0.4171(1) 0.1927(2) 0.7832(2)
C10 C 0.3417(1) 0.2730(2) 0.5806(3)
C11 C 0.4536(1) 0.1090(2) 0.8747(2)
O1 O 0.3765(1) 0.1075(1) 0.3999(2)
O2 O 0.4334(1) 0.0148(1) 0.8552(2)
O3 O 0.5043(1) 0.1350(1) 0.9750(2)
H1 H 0.3220 0.0414 0.5642
H2 H 0.4111 0.0295 0.5856
H3 H 0.4738 0.1682 0.4608
H4 H 0.4667 0.1102 0.2957
H5 H 0.4617 -0.0547 0.9351
H6 H 0.3842 0.2579 0.2131
H7 H 0.4721 0.2779 0.2150
H8 H 0.4667 0.4078 0.3813
H9 H 0.3856 0.4172 0.3354
H10 H 0.4951 0.3988 0.6672
H11 H 0.4755 0.3095 0.8896
H12 H 0.3930 0.3364 0.8696
H13 H 0.3116 0.2570 0.4911
H14 H 0.3109 0.3052 0.6504
C12 C 0.7182(1) 0.2259(2) 0.9683(3)
C13 C 0.7284(2) 0.1342(2) 1.0787(3)
C14 C 0.6488(2) 0.2171(2) 1.2643(3)
C15 C 0.6585(2) 0.3305(2) 1.3246(3)
C16 C 0.6505(2) 0.4219(2) 1.2092(3)
C17 C 0.6729(1) 0.3934(2) 1.0501(3)
C18 C 0.6317(2) 0.4030(2) 0.9213(3)
C19 C 0.6556(2) 0.3420(2) 0.7831(3)
C20 C 0.6779(1) 0.2313(2) 0.8360(3)
C21 C 0.7436(1) 0.3306(2) 1.0340(4)
C22 C 0.6458(1) 0.1426(2) 0.7472(3)
O4 O 0.7196(1) 0.1706(1) 1.2325(2)
O5 O 0.5983(1) 0.1520(2) 0.6467(2)
O6 O 0.6731(1) 0.0489(2) 0.7873(2)
H15 H 0.6943 0.0787 1.0579
H16 H 0.7809 0.1031 1.0773
H17 H 0.6146 0.2116 1.1609
H18 H 0.6286 0.1678 1.3582
H19 H 0.6512 -0.0059 0.7312
H20 H 0.7054 0.3391 1.3789
H21 H 0.6171 0.3418 1.4039
H22 H 0.5951 0.4456 1.1972
H23 H 0.6803 0.4813 1.2478
H24 H 0.5852 0.4376 0.9211
H25 H 0.6961 0.3769 0.7302
H26 H 0.6168 0.3368 0.7019
H27 H 0.7704 0.3204 1.1299
H28 H 0.7732 0.3664 0.9567
loop_
_geom_bond_atom_site_label_1
_geom_bond_atom_site_label_2
_geom_bond_site_symmetry_1
_geom_bond_site_symmetry_2
C1 C2 1_555 1_555
C2 O1 1_555 1_555
C3 C4 1_555 1_555
C4 C5 1_555 1_555
C5 C6 1_555 1_555
C6 C7 1_555 1_555
C7 C8 1_555 1_555
C8 C9 1_555 1_555
C9 C1 1_555 1_555
C10 C1 1_555 1_555
C11 C9 1_555 1_555
C12 C13 1_555 1_555
C13 O4 1_555 1_555
C14 C15 1_555 1_555
C15 C16 1_555 1_555
C16 C17 1_555 1_555
C17 C18 1_555 1_555
C18 C19 1_555 1_555
C19 C20 1_555 1_555
C20 C12 1_555 1_555
C21 C12 1_555 1_555
C22 C20 1_555 1_555
O1 C3 1_555 1_555
O2 C11 1_555 1_555
O3 C11 1_555 1_555
O4 C14 1_555 1_555
O5 C22 1_555 1_555
O6 C22 1_555 1_555
H1 C2 1_555 1_555
H2 C2 1_555 1_555
H3 C3 1_555 1_555
H4 C3 1_555 1_555
H5 O2 1_555 1_555
H6 C4 1_555 1_555
H7 C4 1_555 1_555
H8 C5 1_555 1_555
H9 C5 1_555 1_555
H10 C7 1_555 1_555
H11 C8 1_555 1_555
H12 C8 1_555 1_555
H13 C10 1_555 1_555
H14 C10 1_555 1_555
H15 C13 1_555 1_555
H16 C13 1_555 1_555
H17 C14 1_555 1_555
H18 C14 1_555 1_555
H19 O6 1_555 1_555
H20 C15 1_555 1_555
H21 C15 1_555 1_555
H22 C16 1_555 1_555
H23 C16 1_555 1_555
H24 C18 1_555 1_555
H25 C19 1_555 1_555
H26 C19 1_555 1_555
H27 C21 1_555 1_555
H28 C21 1_555 1_555
C6 C10 1_555 1_555
C17 C21 1_555 1_555

#END
