
#######################################################################
#
#                 Cambridge Crystallographic Data Centre
#                                CCDC 
#
#######################################################################
#
# If this CIF has been generated from an entry in the Cambridge 
# Structural Database, then it will include bibliographic, chemical, 
# crystal, experimental, refinement or atomic coordinate data resulting 
# from the CCDC's data processing and validation procedures.
#
#######################################################################

data_JIDPUK
_chemical_formula_moiety         'C15 H15 N2 O2 1+,I1 1-'
_chemical_name_systematic        
'1-ethyl-2-(2-(4-nitrophenyl)vinyl)pyridinium iodide'
_symmetry_cell_setting           triclinic
_symmetry_space_group_name_H-M   'P -1'
_symmetry_Int_Tables_number      2
_space_group_name_Hall           '-P 1'
loop_
_symmetry_equiv_pos_site_id
_symmetry_equiv_pos_as_xyz
1 x,y,z
2 -x,-y,-z
_cell_length_a                   7.5150(5)
_cell_length_b                   9.8080(6)
_cell_length_c                   10.1132(5)
_cell_angle_alpha                82.6741(17)
_cell_angle_beta                 75.9289(18)
_cell_angle_gamma                86.569(2)
_cell_volume                     716.824
_exptl_crystal_colour            brown
_exptl_crystal_description       platelet
_cell_formula_units_Z            2
loop_
_atom_site_label
_atom_site_type_symbol
_atom_site_fract_x
_atom_site_fract_y
_atom_site_fract_z
I1 I 0.33064(2) 0.794421(15) 0.246199(15)
O1 O 0.2089(3) 0.2666(3) 0.6096(2)
O2 O 0.2737(4) 0.0628(3) 0.5498(3)
N1 N 0.2912(4) 0.1873(3) 0.5300(3)
N2 N 0.8688(3) 0.7728(3) -0.1547(2)
C1 C 0.4159(4) 0.2456(3) 0.4021(3)
C2 C 0.4887(4) 0.1643(3) 0.2996(3)
C3 C 0.5963(4) 0.2267(3) 0.1768(3)
C4 C 0.6315(4) 0.3663(3) 0.1583(3)
C5 C 0.5602(4) 0.4448(3) 0.2677(3)
C6 C 0.4495(4) 0.3847(3) 0.3887(3)
C7 C 0.7392(4) 0.4303(3) 0.0258(3)
C8 C 0.7409(4) 0.5662(3) -0.0111(3)
C9 C 0.8499(4) 0.6326(3) -0.1405(3)
C10 C 0.9345(4) 0.5618(3) -0.2514(3)
C11 C 1.0396(4) 0.6307(3) -0.3701(3)
C12 C 1.0598(4) 0.7715(3) -0.3799(3)
C13 C 0.9721(4) 0.8403(3) -0.2710(3)
C14 C 0.7809(4) 0.8570(3) -0.0422(3)
C15 C 0.8836(4) 0.8440(3) 0.0707(3)
H1 H 0.4664 0.0687 0.3120
H2 H 0.6465 0.1726 0.1042
H3 H 0.5881 0.5393 0.2584
H4 H 0.3973 0.4381 0.4615
H5 H 0.8133 0.3602 -0.0344
H6 H 0.6756 0.6163 0.0436
H7 H 0.9200 0.4655 -0.2455
H8 H 1.0978 0.5815 -0.4448
H9 H 1.1330 0.8194 -0.4605
H10 H 0.9839 0.9369 -0.2771
H11 H 0.6534 0.8275 -0.0026
H12 H 0.7758 0.9548 -0.0808
H13 H 0.8216 0.9014 0.1418
H14 H 1.0095 0.8744 0.0323
H15 H 0.8862 0.7478 0.1110
loop_
_geom_bond_atom_site_label_1
_geom_bond_atom_site_label_2
_geom_bond_site_symmetry_1
_geom_bond_site_symmetry_2
O1 N1 1_555 1_555
O2 N1 1_555 1_555
N1 C1 1_555 1_555
N2 C9 1_555 1_555
C1 C2 1_555 1_555
C2 C3 1_555 1_555
C3 C4 1_555 1_555
C4 C5 1_555 1_555
C5 C6 1_555 1_555
C6 C1 1_555 1_555
C7 C4 1_555 1_555
C8 C7 1_555 1_555
C9 C8 1_555 1_555
C10 C9 1_555 1_555
C11 C10 1_555 1_555
C12 C11 1_555 1_555
C13 N2 1_555 1_555
C14 N2 1_555 1_555
C15 C14 1_555 1_555
H1 C2 1_555 1_555
H2 C3 1_555 1_555
H3 C5 1_555 1_555
H4 C6 1_555 1_555
H5 C7 1_555 1_555
H6 C8 1_555 1_555
H7 C10 1_555 1_555
H8 C11 1_555 1_555
H9 C12 1_555 1_555
H10 C13 1_555 1_555
H11 C14 1_555 1_555
H12 C14 1_555 1_555
H13 C15 1_555 1_555
H14 C15 1_555 1_555
H15 C15 1_555 1_555
C12 C13 1_555 1_555

#END
