
#######################################################################
#
#                 Cambridge Crystallographic Data Centre
#                                CCDC 
#
#######################################################################
#
# If this CIF has been generated from an entry in the Cambridge 
# Structural Database, then it will include bibliographic, chemical, 
# crystal, experimental, refinement or atomic coordinate data resulting 
# from the CCDC's data processing and validation procedures.
#
#######################################################################

data_JIDZAA
_chemical_name_common            
'(2,2,2-cryptand)-potassium 1,1,1,3,3,3-hexamethyldisilazan-2-ide'
_chemical_formula_moiety         'C18 H36 K1 N2 O6 1+,C6 H18 N1 Si2 1-'
_chemical_name_systematic        
'(4,7,13,16,21,24-hexaoxa-1,10-diazabicyclo[8.8.8]hexacosane)-potassium 1,1,1,3,3,3-hexamethyldisilazan-2-ide'
_symmetry_cell_setting           monoclinic
_symmetry_space_group_name_H-M   'P 21/n'
_symmetry_Int_Tables_number      14
_space_group_name_Hall           '-P 2yn'
loop_
_symmetry_equiv_pos_site_id
_symmetry_equiv_pos_as_xyz
1 x,y,z
2 1/2-x,1/2+y,1/2-z
3 -x,-y,-z
4 1/2+x,1/2-y,1/2+z
_cell_length_a                   13.4630(10)
_cell_length_b                   17.3435(14)
_cell_length_c                   14.9609(10)
_cell_angle_alpha                90
_cell_angle_beta                 105.239(3)
_cell_angle_gamma                90
_cell_volume                     3370.47
_exptl_crystal_colour            'pale brown'
_exptl_crystal_description       Shard
_cell_formula_units_Z            4
loop_
_atom_site_label
_atom_site_type_symbol
_atom_site_fract_x
_atom_site_fract_y
_atom_site_fract_z
K1 K 0.61926(4) 0.73378(3) 0.27718(3)
O1 O 0.62103(13) 0.59203(9) 0.36658(10)
O2 O 0.75296(13) 0.61256(9) 0.25035(10)
O3 O 0.41468(12) 0.77914(9) 0.23270(10)
O4 O 0.68499(13) 0.81358(9) 0.44783(11)
O5 O 0.77991(13) 0.84493(10) 0.30216(11)
O6 O 0.51672(14) 0.77407(10) 0.09002(11)
N1 N 0.50297(15) 0.71686(11) 0.42084(12)
N2 N 0.74254(17) 0.75008(12) 0.13285(14)
C1 C 0.7609(2) 0.60887(15) 0.15735(16)
H1 H 0.6917 0.6022 0.1144
H2 H 0.8039 0.5643 0.1500
C2 C 0.8084(2) 0.68192(15) 0.13538(17)
H3 H 0.8745 0.6902 0.1825
H4 H 0.8236 0.6763 0.0745
C3 C 0.7112(2) 0.54712(15) 0.37570(16)
H5 H 0.7018 0.4956 0.4006
H6 H 0.7705 0.5725 0.4192
C4 C 0.40419(18) 0.75710(15) 0.38724(16)
H7 H 0.4159 0.8130 0.3990
H8 H 0.3571 0.7394 0.4239
C5 C 0.7315(2) 0.53912(14) 0.28251(16)
H9 H 0.7908 0.5043 0.2868
H10 H 0.6706 0.5164 0.2383
C6 C 0.35178(19) 0.74578(15) 0.28622(17)
H11 H 0.3420 0.6901 0.2722
H12 H 0.2833 0.7709 0.2706
C7 C 0.48597(19) 0.63410(14) 0.43140(17)
H13 H 0.4347 0.6154 0.3753
H14 H 0.4566 0.6266 0.4849
C8 C 0.5822(2) 0.58617(15) 0.44587(17)
H15 H 0.6346 0.6046 0.5013
H16 H 0.5664 0.5316 0.4561
C9 C 0.6103(2) 0.82633(16) 0.49914(17)
H17 H 0.5578 0.8636 0.4660
H18 H 0.6443 0.8478 0.5609
C10 C 0.5603(2) 0.75053(15) 0.50942(16)
H19 H 0.6141 0.7137 0.5414
H20 H 0.5126 0.7581 0.5490
C11 C 0.6695(2) 0.75584(17) 0.04061(18)
H21 H 0.6436 0.7036 0.0202
H22 H 0.7068 0.7752 -0.0038
C12 C 0.7377(2) 0.88297(15) 0.44034(18)
H23 H 0.7661 0.9056 0.5026
H24 H 0.6895 0.9206 0.4021
C13 C 0.8060(2) 0.81971(16) 0.1534(2)
H25 H 0.7623 0.8652 0.1306
H26 H 0.8598 0.8174 0.1193
C14 C 0.3615(2) 0.77914(17) 0.13692(17)
H27 H 0.2950 0.8064 0.1275
H28 H 0.3473 0.7255 0.1147
C15 C 0.5791(2) 0.80780(19) 0.03702(19)
H29 H 0.6036 0.8591 0.0625
H30 H 0.5384 0.8146 -0.0280
C16 C 0.8230(2) 0.86608(17) 0.39666(18)
H31 H 0.8671 0.9122 0.4000
H32 H 0.8660 0.8235 0.4301
C17 C 0.8572(2) 0.83029(17) 0.2552(2)
H33 H 0.8962 0.7832 0.2804
H34 H 0.9060 0.8741 0.2641
C18 C 0.4262(2) 0.81835(18) 0.08404(19)
H35 H 0.3870 0.8239 0.0184
H36 H 0.4452 0.8705 0.1098
Si1 Si 0.32662(6) 0.49963(4) 0.19345(4)
Si2 Si 0.15386(5) 0.56631(4) 0.26630(5)
N3 N 0.25396(16) 0.56668(12) 0.22187(13)
C19 C 0.0993(2) 0.66585(16) 0.27285(17)
H37 H 0.0403 0.6624 0.2996
H38 H 0.1523 0.6989 0.3119
H39 H 0.0769 0.6879 0.2105
C20 C 0.4393(2) 0.54232(17) 0.15792(17)
H40 H 0.4807 0.5008 0.1416
H41 H 0.4140 0.5761 0.1043
H42 H 0.4819 0.5723 0.2095
C21 C 0.2590(2) 0.43548(16) 0.09423(18)
H43 H 0.3077 0.3975 0.0821
H44 H 0.2019 0.4087 0.1103
H45 H 0.2321 0.4669 0.0387
C22 C 0.1832(2) 0.53071(17) 0.39034(18)
H46 H 0.1202 0.5322 0.4116
H47 H 0.2088 0.4776 0.3935
H48 H 0.2355 0.5639 0.4300
C23 C 0.0405(2) 0.50622(19) 0.2022(2)
H49 H -0.0146 0.5098 0.2338
H50 H 0.0152 0.5254 0.1387
H51 H 0.0619 0.4523 0.2009
C24 C 0.3857(2) 0.42879(17) 0.28903(18)
H52 H 0.4275 0.3912 0.2661
H53 H 0.4294 0.4567 0.3419
H54 H 0.3309 0.4019 0.3085
loop_
_geom_bond_atom_site_label_1
_geom_bond_atom_site_label_2
_geom_bond_site_symmetry_1
_geom_bond_site_symmetry_2
K1 O1 1_555 1_555
O1 C3 1_555 1_555
O2 K1 1_555 1_555
O3 K1 1_555 1_555
O4 K1 1_555 1_555
O5 K1 1_555 1_555
O6 K1 1_555 1_555
N1 K1 1_555 1_555
N2 K1 1_555 1_555
C1 O2 1_555 1_555
H1 C1 1_555 1_555
H2 C1 1_555 1_555
C2 N2 1_555 1_555
H3 C2 1_555 1_555
H4 C2 1_555 1_555
C3 H5 1_555 1_555
H6 C3 1_555 1_555
C4 N1 1_555 1_555
H7 C4 1_555 1_555
H8 C4 1_555 1_555
C5 O2 1_555 1_555
H9 C5 1_555 1_555
H10 C5 1_555 1_555
C6 O3 1_555 1_555
H11 C6 1_555 1_555
H12 C6 1_555 1_555
C7 N1 1_555 1_555
H13 C7 1_555 1_555
H14 C7 1_555 1_555
C8 O1 1_555 1_555
H15 C8 1_555 1_555
H16 C8 1_555 1_555
C9 O4 1_555 1_555
H17 C9 1_555 1_555
H18 C9 1_555 1_555
C10 N1 1_555 1_555
H19 C10 1_555 1_555
H20 C10 1_555 1_555
C11 N2 1_555 1_555
H21 C11 1_555 1_555
H22 C11 1_555 1_555
C12 O4 1_555 1_555
H23 C12 1_555 1_555
H24 C12 1_555 1_555
C13 N2 1_555 1_555
H25 C13 1_555 1_555
H26 C13 1_555 1_555
C14 O3 1_555 1_555
H27 C14 1_555 1_555
H28 C14 1_555 1_555
C15 O6 1_555 1_555
H29 C15 1_555 1_555
H30 C15 1_555 1_555
C16 O5 1_555 1_555
H31 C16 1_555 1_555
H32 C16 1_555 1_555
C17 O5 1_555 1_555
H33 C17 1_555 1_555
H34 C17 1_555 1_555
C18 O6 1_555 1_555
H35 C18 1_555 1_555
H36 C18 1_555 1_555
Si1 N3 1_555 1_555
Si2 N3 1_555 1_555
C19 Si2 1_555 1_555
H37 C19 1_555 1_555
H38 C19 1_555 1_555
H39 C19 1_555 1_555
C20 Si1 1_555 1_555
H40 C20 1_555 1_555
H41 C20 1_555 1_555
H42 C20 1_555 1_555
C21 Si1 1_555 1_555
H43 C21 1_555 1_555
H44 C21 1_555 1_555
H45 C21 1_555 1_555
C22 Si2 1_555 1_555
H46 C22 1_555 1_555
H47 C22 1_555 1_555
H48 C22 1_555 1_555
C23 Si2 1_555 1_555
H49 C23 1_555 1_555
H50 C23 1_555 1_555
H51 C23 1_555 1_555
C24 Si1 1_555 1_555
H52 C24 1_555 1_555
H53 C24 1_555 1_555
H54 C24 1_555 1_555
C1 C2 1_555 1_555
C3 C5 1_555 1_555
C4 C6 1_555 1_555
C7 C8 1_555 1_555
C9 C10 1_555 1_555
C11 C15 1_555 1_555
C12 C16 1_555 1_555
C13 C17 1_555 1_555
C14 C18 1_555 1_555

#END
