
#######################################################################
#
#                 Cambridge Crystallographic Data Centre
#                                CCDC 
#
#######################################################################
#
# If this CIF has been generated from an entry in the Cambridge 
# Structural Database, then it will include bibliographic, chemical, 
# crystal, experimental, refinement or atomic coordinate data resulting 
# from the CCDC's data processing and validation procedures.
#
#######################################################################

data_JIFBUY
_chemical_formula_moiety         'C24 H23 N5 O1,0.5(C6 H10 O4)'
_chemical_name_systematic        
'N-[4-(1-cyanocyclopentyl)phenyl]-2-{[(pyridin-4-yl)methyl]amino}pyridine-3-carboxamide hexanedioic acid  solvate'
_symmetry_cell_setting           triclinic
_symmetry_space_group_name_H-M   'P -1'
_symmetry_Int_Tables_number      2
_space_group_name_Hall           '-P 1'
loop_
_symmetry_equiv_pos_site_id
_symmetry_equiv_pos_as_xyz
1 x,y,z
2 -x,-y,-z
_cell_length_a                   7.2695(3)
_cell_length_b                   8.9956(4)
_cell_length_c                   18.8041(7)
_cell_angle_alpha                101.793(2)
_cell_angle_beta                 97.802(2)
_cell_angle_gamma                100.984(2)
_cell_volume                     1161.97
_exptl_crystal_colour            'light colorless'
_exptl_crystal_description       prism
_cell_formula_units_Z            2
loop_
_atom_site_label
_atom_site_type_symbol
_atom_site_fract_x
_atom_site_fract_y
_atom_site_fract_z
O1 O 0.92144(16) 0.68942(10) 0.57289(5)
N1 N 0.88135(14) 0.31694(11) 0.67855(5)
N2 N 1.01739(14) 0.57174(11) 0.68697(5)
H1 H 1.0504 0.6506 0.6668
N3 N 0.73158(15) 0.53475(12) 0.46834(6)
N4 N 0.64275(16) 0.63070(12) 0.89451(6)
N5 N 0.5463(2) 1.18304(14) 0.33510(8)
C1 C 0.81630(16) 0.41969(13) 0.57031(6)
C2 C 0.79021(17) 0.68176(13) 0.79302(7)
H2 H 0.7905 0.7280 0.7519
C3 C 0.71773(16) 0.64215(13) 0.42359(6)
C4 C 0.92742(16) 0.59938(12) 0.80959(6)
C5 C 0.82878(17) 0.55917(13) 0.53810(6)
C6 C 0.58808(17) 0.67656(13) 0.30465(6)
H3 H 0.5116 0.6336 0.2570
C7 C 0.78466(17) 0.89344(13) 0.39550(7)
H4 H 0.8453 1.0010 0.4103
C8 C 0.90413(16) 0.43564(13) 0.64485(6)
C9 C 1.08391(17) 0.58763(13) 0.76460(6)
H5 H 1.1881 0.6821 0.7834
H6 H 1.1366 0.4966 0.7711
C10 C 0.80491(17) 0.80056(13) 0.44523(6)
H7 H 0.8774 0.8443 0.4935
C11 C 0.67831(16) 0.83389(13) 0.32461(6)
C12 C 0.60822(17) 0.58206(13) 0.35321(6)
H8 H 0.5465 0.4747 0.3384
C13 C 0.66532(18) 0.94062(13) 0.27115(7)
C14 C 0.78323(17) 0.17763(14) 0.63891(7)
H9 H 0.7681 0.0938 0.6628
C15 C 0.91584(19) 0.53083(14) 0.86916(7)
H10 H 1.0056 0.4723 0.8821
C16 C 0.65330(18) 0.69590(14) 0.83681(7)
H11 H 0.5624 0.7546 0.8254
C17 C 0.70226(18) 0.14733(14) 0.56545(7)
H12 H 0.6381 0.0448 0.5388
C18 C 0.71734(18) 0.27070(14) 0.53170(7)
H13 H 0.6593 0.2536 0.4814
C19 C 0.59724(19) 1.07657(14) 0.30703(7)
C20 C 0.86186(19) 0.99370(14) 0.24968(7)
H14 H 0.8644 1.0841 0.2270
H15 H 0.9658 1.0216 0.2932
C21 C 0.8787(2) 0.84978(16) 0.19389(8)
H16 H 0.9301 0.7764 0.2194
H17 H 0.9634 0.8795 0.1597
C22 C 0.7721(2) 0.54847(15) 0.90952(7)
H18 H 0.7652 0.4999 0.9497
C23 C 0.5423(2) 0.86060(15) 0.19443(7)
H19 H 0.4278 0.7857 0.1988
H20 H 0.5013 0.9386 0.1693
C24 C 0.6736(2) 0.77572(17) 0.15181(8)
H21 H 0.6600 0.7892 0.1005
H22 H 0.6412 0.6629 0.1501
H23 H 0.677(2) 0.442(2) 0.4475(9)
O2 O 0.38156(14) 0.69673(11) 0.97570(5)
O3 O 0.36358(15) 0.87543(11) 0.91013(5)
C25 C 0.31889(18) 0.81633(14) 0.95943(7)
C26 C 0.07312(18) 0.97735(15) 0.97716(7)
H24 H 0.0071 0.9232 0.9262
H25 H 0.1624 1.0731 0.9745
C27 C 0.18580(18) 0.87250(15) 1.00837(7)
H26 H 0.2610 0.9301 1.0575
H27 H 0.0960 0.7811 1.0152
H28 H 0.478(3) 0.671(2) 0.9467(12)
O2A O -0.38156(14) 1.30327(11) 1.02430(5)
O3A O -0.36358(15) 1.12457(11) 1.08987(5)
C25A C -0.31889(18) 1.18367(14) 1.04057(7)
C26A C -0.07312(18) 1.02265(15) 1.02284(7)
H24A H -0.0071 1.0768 1.0738
H25A H -0.1624 0.9269 1.0255
C27A C -0.18580(18) 1.12750(15) 0.99163(7)
H26A H -0.2610 1.0699 0.9425
H27A H -0.0960 1.2189 0.9848
H28A H -0.478(3) 1.329(2) 1.0533(12)
loop_
_geom_bond_atom_site_label_1
_geom_bond_atom_site_label_2
_geom_bond_site_symmetry_1
_geom_bond_site_symmetry_2
O1 C5 1_555 1_555
N1 C8 1_555 1_555
N2 H1 1_555 1_555
N3 C3 1_555 1_555
N4 C16 1_555 1_555
N5 C19 1_555 1_555
C1 C5 1_555 1_555
C2 H2 1_555 1_555
C3 C10 1_555 1_555
C4 C2 1_555 1_555
C5 N3 1_555 1_555
C6 H3 1_555 1_555
C7 H4 1_555 1_555
C8 N2 1_555 1_555
C9 N2 1_555 1_555
H5 C9 1_555 1_555
H6 C9 1_555 1_555
C10 C7 1_555 1_555
H7 C10 1_555 1_555
C11 C6 1_555 1_555
C12 C3 1_555 1_555
H8 C12 1_555 1_555
C13 C11 1_555 1_555
C14 N1 1_555 1_555
H9 C14 1_555 1_555
C15 C4 1_555 1_555
H10 C15 1_555 1_555
C16 C2 1_555 1_555
H11 C16 1_555 1_555
C17 C14 1_555 1_555
H12 C17 1_555 1_555
C18 C1 1_555 1_555
H13 C18 1_555 1_555
C19 C13 1_555 1_555
C20 C13 1_555 1_555
H14 C20 1_555 1_555
H15 C20 1_555 1_555
C21 C20 1_555 1_555
H16 C21 1_555 1_555
H17 C21 1_555 1_555
C22 N4 1_555 1_555
H18 C22 1_555 1_555
C23 C13 1_555 1_555
H19 C23 1_555 1_555
H20 C23 1_555 1_555
C24 C21 1_555 1_555
H21 C24 1_555 1_555
H22 C24 1_555 1_555
H23 N3 1_555 1_555
O2 C25 1_555 1_555
O3 C25 1_555 1_555
C25 C27 1_555 1_555
C26 H24 1_555 1_555
H25 C26 1_555 1_555
C27 C26 1_555 1_555
H26 C27 1_555 1_555
H27 C27 1_555 1_555
H28 O2 1_555 1_555
O2A C25A 1_555 1_555
O3A C25A 1_555 1_555
C25A C27A 1_555 1_555
C26A C26 1_555 1_555
H24A C26A 1_555 1_555
H25A C26A 1_555 1_555
C27A C26A 1_555 1_555
H26A C27A 1_555 1_555
H27A C27A 1_555 1_555
H28A O2A 1_555 1_555
C1 C8 1_555 1_555
C4 C9 1_555 1_555
C6 C12 1_555 1_555
C7 C11 1_555 1_555
C15 C22 1_555 1_555
C17 C18 1_555 1_555
C23 C24 1_555 1_555

#END
