
#######################################################################
#
#                 Cambridge Crystallographic Data Centre
#                                CCDC 
#
#######################################################################
#
# If this CIF has been generated from an entry in the Cambridge 
# Structural Database, then it will include bibliographic, chemical, 
# crystal, experimental, refinement or atomic coordinate data resulting 
# from the CCDC's data processing and validation procedures.
#
#######################################################################

data_JIFCAF
_chemical_formula_moiety         'C24 H23 N5 O1,0.5(C10 H18 O4)'
_chemical_name_systematic        
'N-[4-(1-cyanocyclopentyl)phenyl]-2-{[(pyridin-4-yl)methyl]amino}pyridine-3-carboxamide decanedioic acid solvate'
_symmetry_cell_setting           triclinic
_symmetry_space_group_name_H-M   'P -1'
_symmetry_Int_Tables_number      2
_space_group_name_Hall           '-P 1'
loop_
_symmetry_equiv_pos_site_id
_symmetry_equiv_pos_as_xyz
1 x,y,z
2 -x,-y,-z
_cell_length_a                   8.8777(2)
_cell_length_b                   9.0347(2)
_cell_length_c                   18.6242(4)
_cell_angle_alpha                88.0740(10)
_cell_angle_beta                 82.2220(10)
_cell_angle_gamma                61.1970(10)
_cell_volume                     1296.09
_exptl_crystal_colour            'light colorless'
_exptl_crystal_description       trapezoid
_cell_formula_units_Z            2
loop_
_atom_site_label
_atom_site_type_symbol
_atom_site_fract_x
_atom_site_fract_y
_atom_site_fract_z
O1 O 0.93113(12) 0.51050(12) 0.21649(5)
N1 N 1.09480(13) 0.45246(13) 0.10620(6)
H1 H 1.1226 0.3974 0.0642
N2 N 0.76287(14) 0.16177(14) 0.16793(6)
N3 N 0.80472(15) 0.29804(15) 0.25882(6)
H2 H 0.8322 0.3728 0.2730
N4 N 0.18855(15) 0.42286(16) 0.36705(7)
N5 N 1.71363(16) 0.74195(16) 0.04254(7)
C1 C 1.17763(15) 0.54845(15) 0.11729(6)
C2 C 0.90197(14) 0.33323(15) 0.13367(7)
C3 C 1.43634(15) 0.57651(15) 0.09596(6)
H3 H 1.5548 0.5315 0.0759
C4 C 0.97446(15) 0.43958(15) 0.15637(7)
C5 C 1.35099(15) 0.73398(15) 0.13203(6)
C6 C 0.54729(17) 0.29077(16) 0.32999(7)
C7 C 0.82187(15) 0.26531(15) 0.18681(7)
C8 C 1.35135(15) 0.48424(15) 0.08887(7)
H4 H 1.4122 0.3765 0.0645
C9 C 1.59919(16) 0.77759(16) 0.08739(7)
C10 C 0.91002(15) 0.29371(15) 0.06146(7)
H5 H 0.9604 0.3382 0.0247
C11 C 0.84577(16) 0.19038(16) 0.04208(7)
H6 H 0.8493 0.1644 -0.0073
C12 C 1.44728(15) 0.83091(15) 0.14414(7)
C13 C 1.09028(15) 0.70612(16) 0.15327(7)
H7 H 0.9713 0.7519 0.1725
C14 C 0.77635(16) 0.12655(16) 0.09763(7)
H8 H 0.7355 0.0526 0.0848
C15 C 1.17710(16) 0.79621(15) 0.16096(7)
H9 H 1.1170 0.9026 0.1865
C16 C 1.50990(17) 0.79976(16) 0.21983(7)
H10 H 1.4219 0.7950 0.2572
H11 H 1.6203 0.6928 0.2192
C17 C 0.47902(18) 0.21947(17) 0.38334(7)
H12 H 0.5539 0.1236 0.4079
C18 C 0.43092(18) 0.42855(17) 0.29559(7)
H13 H 0.4718 0.4808 0.2587
C19 C 0.74265(17) 0.21423(18) 0.31340(7)
H14 H 0.7886 0.2148 0.3589
H15 H 0.7914 0.0948 0.2972
C20 C 0.30139(18) 0.28958(19) 0.40009(8)
H16 H 0.2569 0.2405 0.4371
C21 C 0.25447(19) 0.48984(18) 0.31538(8)
H17 H 0.1765 0.5842 0.2910
C22 C 1.34030(17) 1.02838(16) 0.14269(8)
H18 H 1.3758 1.0693 0.0970
H19 H 1.2147 1.0655 0.1465
C23 C 1.5347(2) 0.9499(2) 0.23419(8)
H20 H 1.6444 0.9369 0.2069
H21 H 1.5351 0.9650 0.2865
C24 C 1.3785(3) 1.0970(2) 0.20737(10)
H22 H 1.4046 1.1894 0.1927
H23 H 1.2776 1.1413 0.2460
O2 O -0.14280(13) 0.49212(13) 0.38906(6)
H24 H -0.0460 0.4894 0.3833
O3 O -0.24460(14) 0.77118(14) 0.40173(7)
C25 C -0.26790(18) 0.65035(18) 0.40305(7)
C26 C -0.59656(17) 0.83389(18) 0.43427(8)
H25 H -0.6127 0.8919 0.3876
H26 H -0.5732 0.8997 0.4684
C27 C -0.76282(18) 0.82917(19) 0.46471(8)
H27 H -0.7912 0.7722 0.4284
H28 H -0.7419 0.7609 0.5086
C28 C -0.44194(18) 0.65775(19) 0.42228(9)
H29 H -0.4392 0.5945 0.4670
H30 H -0.4595 0.5990 0.3829
C29 C -0.91766(17) 1.00318(19) 0.48415(8)
H31 H -0.9402 1.0708 0.4401
H32 H -0.8887 1.0612 0.5198
O2A O -1.85720(13) 1.50788(13) 0.61094(6)
H24A H -1.9540 1.5106 0.6167
O3A O -1.75540(14) 1.22882(14) 0.59827(7)
C25A C -1.73210(18) 1.34965(18) 0.59695(7)
C26A C -1.40344(17) 1.16611(18) 0.56573(8)
H25A H -1.3873 1.1081 0.6124
H26A H -1.4268 1.1003 0.5316
C27A C -1.23718(18) 1.17083(19) 0.53529(8)
H27A H -1.2088 1.2278 0.5716
H28A H -1.2581 1.2391 0.4914
C28A C -1.55806(18) 1.34225(19) 0.57772(9)
H29A H -1.5608 1.4055 0.5330
H30A H -1.5405 1.4010 0.6171
C29A C -1.08234(17) 0.99682(19) 0.51585(8)
H31A H -1.0598 0.9292 0.5599
H32A H -1.1113 0.9388 0.4802
loop_
_geom_bond_atom_site_label_1
_geom_bond_atom_site_label_2
_geom_bond_site_symmetry_1
_geom_bond_site_symmetry_2
O1 C4 1_555 1_555
N1 H1 1_555 1_555
N2 C7 1_555 1_555
N3 H2 1_555 1_555
N4 C20 1_555 1_555
N5 C9 1_555 1_555
C1 N1 1_555 1_555
C2 C4 1_555 1_555
C3 H3 1_555 1_555
C4 N1 1_555 1_555
C5 C3 1_555 1_555
C6 C17 1_555 1_555
C7 N3 1_555 1_555
C8 C1 1_555 1_555
H4 C8 1_555 1_555
C9 C12 1_555 1_555
C10 C2 1_555 1_555
H5 C10 1_555 1_555
C11 C10 1_555 1_555
H6 C11 1_555 1_555
C12 C5 1_555 1_555
C13 C1 1_555 1_555
H7 C13 1_555 1_555
C14 N2 1_555 1_555
H8 C14 1_555 1_555
C15 C5 1_555 1_555
H9 C15 1_555 1_555
C16 C12 1_555 1_555
H10 C16 1_555 1_555
H11 C16 1_555 1_555
C17 H12 1_555 1_555
C18 C6 1_555 1_555
H13 C18 1_555 1_555
C19 N3 1_555 1_555
H14 C19 1_555 1_555
H15 C19 1_555 1_555
C20 C17 1_555 1_555
H16 C20 1_555 1_555
C21 N4 1_555 1_555
H17 C21 1_555 1_555
C22 C12 1_555 1_555
H18 C22 1_555 1_555
H19 C22 1_555 1_555
C23 C16 1_555 1_555
H20 C23 1_555 1_555
H21 C23 1_555 1_555
C24 C22 1_555 1_555
H22 C24 1_555 1_555
H23 C24 1_555 1_555
O2 H24 1_555 1_555
O3 C25 1_555 1_555
C25 O2 1_555 1_555
C26 H25 1_555 1_555
H26 C26 1_555 1_555
C27 C26 1_555 1_555
H27 C27 1_555 1_555
H28 C27 1_555 1_555
C28 C25 1_555 1_555
H29 C28 1_555 1_555
H30 C28 1_555 1_555
C29 C27 1_555 1_555
H31 C29 1_555 1_555
H32 C29 1_555 1_555
O2A H24A 1_555 1_555
O3A C25A 1_555 1_555
C25A O2A 1_555 1_555
C26A H25A 1_555 1_555
H26A C26A 1_555 1_555
C27A C26A 1_555 1_555
H27A C27A 1_555 1_555
H28A C27A 1_555 1_555
C28A C25A 1_555 1_555
H29A C28A 1_555 1_555
H30A C28A 1_555 1_555
C29A C29 1_555 1_555
H31A C29A 1_555 1_555
H32A C29A 1_555 1_555
C2 C7 1_555 1_555
C3 C8 1_555 1_555
C6 C19 1_555 1_555
C11 C14 1_555 1_555
C13 C15 1_555 1_555
C18 C21 1_555 1_555
C23 C24 1_555 1_555
C26 C28 1_555 1_555
C26A C28A 1_555 1_555
C27A C29A 1_555 1_555

#END
