
#######################################################################
#
#                 Cambridge Crystallographic Data Centre
#                                CCDC 
#
#######################################################################
#
# If this CIF has been generated from an entry in the Cambridge 
# Structural Database, then it will include bibliographic, chemical, 
# crystal, experimental, refinement or atomic coordinate data resulting 
# from the CCDC's data processing and validation procedures.
#
#######################################################################

data_JIFCEJ
_chemical_formula_moiety         'C24 H23 N5 O1,C8 H8 O3'
_chemical_name_systematic        
'N-[4-(1-cyanocyclopentyl)phenyl]-2-{[(pyridin-4-yl)methyl]amino}pyridine-3-carboxamide hydroxy(phenyl)acetic acid solvate'
_symmetry_cell_setting           monoclinic
_symmetry_space_group_name_H-M   'P 21/n'
_symmetry_Int_Tables_number      14
_space_group_name_Hall           '-P 2yn'
loop_
_symmetry_equiv_pos_site_id
_symmetry_equiv_pos_as_xyz
1 x,y,z
2 1/2-x,1/2+y,1/2-z
3 -x,-y,-z
4 1/2+x,1/2-y,1/2+z
_cell_length_a                   8.6434(19)
_cell_length_b                   37.502(9)
_cell_length_c                   9.602(2)
_cell_angle_alpha                90
_cell_angle_beta                 114.867(14)
_cell_angle_gamma                90
_cell_volume                     2823.87
_exptl_crystal_colour            'light colorless'
_exptl_crystal_description       plate
_cell_formula_units_Z            4
loop_
_atom_site_label
_atom_site_type_symbol
_atom_site_fract_x
_atom_site_fract_y
_atom_site_fract_z
N1 N 0.1587(3) 0.87486(8) 0.2658(3)
H1 H 0.2532 0.8677 0.3376
N2 N 0.5679(3) 0.94595(7) 0.4401(3)
H2 H 0.5399 0.9656 0.3896
C1 C 0.9791(5) 0.91889(9) 0.7544(4)
H3 H 1.0188 0.9061 0.8459
N3 N -0.3499(4) 0.81867(9) 0.3305(3)
C2 C -0.1370(4) 0.85947(9) 0.3326(4)
H4 H -0.0780 0.8806 0.3706
N4 N -0.0208(4) 0.92010(9) 0.1388(3)
C3 C 0.0625(5) 0.98126(10) 0.1893(4)
H5 H 0.0326 1.0052 0.1713
C4 C 0.8584(4) 0.95490(9) 0.4813(4)
H6 H 0.8190 0.9666 0.3872
C5 C 1.0311(4) 0.95200(9) 0.5703(4)
H7 H 1.1064 0.9624 0.5361
C6 C 1.4952(6) 0.91305(15) 1.0619(5)
H8 H 1.5934 0.9280 1.1180
H9 H 1.4786 0.8973 1.1345
O1 O 0.4664(3) 0.89398(6) 0.4887(3)
C7 C -0.1876(4) 0.80736(9) 0.1853(4)
H10 H -0.1662 0.7924 0.1181
C8 C -0.0985(4) 0.83870(9) 0.2340(4)
C9 C 0.0356(4) 0.84821(9) 0.1769(4)
H11 H 0.0967 0.8267 0.1750
H12 H -0.0220 0.8567 0.0720
C10 C 0.7435(4) 0.94050(8) 0.5314(4)
C11 C 0.8057(5) 0.92197(9) 0.6687(4)
H13 H 0.7305 0.9116 0.7031
C12 C 1.0957(4) 0.93418(8) 0.7086(4)
C13 C 1.2863(4) 0.93109(9) 0.8093(4)
C14 C -0.2638(5) 0.84885(10) 0.3753(4)
H14 H -0.2903 0.8638 0.4393
C15 C -0.0518(5) 0.95485(12) 0.1147(4)
H15 H -0.1589 0.9617 0.0421
C16 C 1.3788(4) 0.95849(10) 0.7626(4)
N5 N 1.4508(4) 0.98046(10) 0.7314(4)
C17 C -0.3088(5) 0.79834(10) 0.2368(4)
H16 H -0.3656 0.7767 0.2045
C18 C 0.1332(5) 0.91013(10) 0.2423(4)
C19 C 0.2647(4) 0.93530(10) 0.3202(4)
C20 C 0.4384(5) 0.92323(10) 0.4236(4)
C21 C 1.3604(4) 0.89432(9) 0.7991(4)
H17 H 1.2821 0.8754 0.7950
H18 H 1.3837 0.8928 0.7089
C22 C 1.5257(5) 0.89181(11) 0.9463(5)
H19 H 1.5505 0.8672 0.9793
H20 H 1.6208 0.9015 0.9299
C23 C 0.2236(5) 0.97104(10) 0.2919(4)
H21 H 0.3052 0.9883 0.3425
C24 C 1.3413(5) 0.93571(11) 0.9843(4)
H22 H 1.3678 0.9605 1.0137
H23 H 1.2507 0.9281 1.0120
O2 O -0.2536(3) 0.76996(7) 0.7938(3)
H24 H -0.1997 0.7516 0.8289
O3 O -0.3922(3) 0.73574(8) 0.5901(3)
O4 O -0.5796(3) 0.79298(7) 0.4308(3)
H25 H -0.5221 0.8033 0.3938
C25 C -0.3771(5) 0.76335(12) 0.6564(5)
C26 C -0.4961(4) 0.79493(10) 0.5938(4)
H26 H -0.4291 0.8170 0.6231
C27 C -0.6279(4) 0.79545(9) 0.6609(4)
C28 C -0.7986(5) 0.79405(10) 0.5665(4)
H27 H -0.8352 0.7923 0.4607
C29 C -0.9180(5) 0.79528(11) 0.6300(5)
H28 H -1.0337 0.7942 0.5653
C30 C -0.8680(6) 0.79802(10) 0.7850(5)
H29 H -0.9478 0.7992 0.8263
C31 C -0.6980(6) 0.79891(11) 0.8769(5)
H30 H -0.6611 0.8003 0.9827
C32 C -0.5792(5) 0.79786(10) 0.8163(5)
H31 H -0.4637 0.7988 0.8819
loop_
_geom_bond_atom_site_label_1
_geom_bond_atom_site_label_2
_geom_bond_site_symmetry_1
_geom_bond_site_symmetry_2
N1 H1 1_555 1_555
N2 H2 1_555 1_555
C1 H3 1_555 1_555
N3 C14 1_555 1_555
C2 H4 1_555 1_555
N4 C15 1_555 1_555
C3 H5 1_555 1_555
C4 H6 1_555 1_555
C5 C4 1_555 1_555
H7 C5 1_555 1_555
C6 H8 1_555 1_555
H9 C6 1_555 1_555
O1 C20 1_555 1_555
C7 H10 1_555 1_555
C8 C2 1_555 1_555
C9 N1 1_555 1_555
H11 C9 1_555 1_555
H12 C9 1_555 1_555
C10 N2 1_555 1_555
C11 C1 1_555 1_555
H13 C11 1_555 1_555
C12 C1 1_555 1_555
C13 C12 1_555 1_555
C14 C2 1_555 1_555
H14 C14 1_555 1_555
C15 C3 1_555 1_555
H15 C15 1_555 1_555
C16 C13 1_555 1_555
N5 C16 1_555 1_555
C17 N3 1_555 1_555
H16 C17 1_555 1_555
C18 N1 1_555 1_555
C19 C18 1_555 1_555
C20 N2 1_555 1_555
C21 C13 1_555 1_555
H17 C21 1_555 1_555
H18 C21 1_555 1_555
C22 C6 1_555 1_555
H19 C22 1_555 1_555
H20 C22 1_555 1_555
C23 C3 1_555 1_555
H21 C23 1_555 1_555
C24 C6 1_555 1_555
H22 C24 1_555 1_555
H23 C24 1_555 1_555
O2 H24 1_555 1_555
O3 C25 1_555 1_555
O4 H25 1_555 1_555
C25 O2 1_555 1_555
C26 O4 1_555 1_555
H26 C26 1_555 1_555
C27 C26 1_555 1_555
C28 C27 1_555 1_555
H27 C28 1_555 1_555
C29 C28 1_555 1_555
H28 C29 1_555 1_555
C30 C29 1_555 1_555
H29 C30 1_555 1_555
C31 C30 1_555 1_555
H30 C31 1_555 1_555
C32 C27 1_555 1_555
H31 C32 1_555 1_555
N4 C18 1_555 1_555
C4 C10 1_555 1_555
C5 C12 1_555 1_555
C7 C8 1_555 1_555
C7 C17 1_555 1_555
C8 C9 1_555 1_555
C10 C11 1_555 1_555
C13 C24 1_555 1_555
C19 C20 1_555 1_555
C19 C23 1_555 1_555
C21 C22 1_555 1_555
C25 C26 1_555 1_555
C31 C32 1_555 1_555

#END
