
#######################################################################
#
#                 Cambridge Crystallographic Data Centre
#                                CCDC 
#
#######################################################################
#
# If this CIF has been generated from an entry in the Cambridge 
# Structural Database, then it will include bibliographic, chemical, 
# crystal, experimental, refinement or atomic coordinate data resulting 
# from the CCDC's data processing and validation procedures.
#
#######################################################################

data_JIFHOY
_chemical_formula_moiety         'C16 H17 N1 O3 S1'
_chemical_name_systematic        
5-methoxy-6-(methylsulfonyl)-6,7-dihydro-5H-dibenzo[c,e]azepine
_symmetry_cell_setting           orthorhombic
_symmetry_space_group_name_H-M   'P n a 21'
_symmetry_Int_Tables_number      33
_space_group_name_Hall           'P 2c -2n'
loop_
_symmetry_equiv_pos_site_id
_symmetry_equiv_pos_as_xyz
1 x,y,z
2 -x,-y,1/2+z
3 1/2+x,1/2-y,z
4 1/2-x,1/2+y,1/2+z
_cell_length_a                   16.520(6)
_cell_length_b                   9.122(4)
_cell_length_c                   19.724(8)
_cell_angle_alpha                90
_cell_angle_beta                 90
_cell_angle_gamma                90
_cell_volume                     2972.32
_exptl_crystal_colour            white
_exptl_crystal_description       Prism
_cell_formula_units_Z            8
loop_
_atom_site_label
_atom_site_type_symbol
_atom_site_fract_x
_atom_site_fract_y
_atom_site_fract_z
S1 S 0.30303(4) 0.51646(7) 0.20132(4)
O1 O 0.34302(11) 0.4312(2) 0.15005(12)
O2 O 0.17104(11) 0.7487(2) 0.24719(9)
N1 N 0.25150(12) 0.6434(2) 0.16173(11)
C1 C 0.23222(14) 0.7781(2) 0.19808(13)
H1 H 0.280999 0.810871 0.221954
C2 C 0.13582(14) 0.8897(2) 0.10977(13)
C3 C 0.08194(14) 0.7608(3) 0.11155(12)
C4 C 0.20489(13) 0.6018(3) 0.10044(13)
H2 H 0.216661 0.500394 0.089501
H3 H 0.223073 0.661562 0.062706
O3 O 0.35044(13) 0.5896(2) 0.25147(12)
C5 C 0.11447(14) 0.6194(3) 0.10788(12)
C6 C -0.00240(16) 0.7773(3) 0.11329(15)
H4 H -0.024709 0.870691 0.115869
C7 C 0.06335(17) 0.4993(3) 0.10670(15)
H5 H 0.084997 0.405231 0.105009
C8 C 0.20701(13) 0.8976(2) 0.14884(13)
C9 C 0.11735(17) 1.0062(3) 0.06708(14)
H6 H 0.070200 1.002802 0.041368
C10 C -0.05272(16) 0.6567(3) 0.11125(17)
H7 H -0.108569 0.669428 0.112062
C11 C 0.16751(19) 1.1274(3) 0.06194(17)
H8 H 0.154308 1.203484 0.032590
C12 C -0.02072(18) 0.5183(3) 0.10802(16)
H9 H -0.054788 0.437219 0.106709
C13 C 0.23706(18) 1.1349(3) 0.10041(17)
H10 H 0.270968 1.215886 0.096879
C14 C 0.25652(17) 1.0211(3) 0.14459(16)
H11 H 0.302724 1.027449 0.171358
C15 C 0.2331(2) 0.4019(3) 0.24143(18)
H12 H 0.201089 0.352489 0.207882
H13 H 0.261396 0.330911 0.268433
H14 H 0.198471 0.459502 0.270033
C16 C 0.1788(2) 0.8415(4) 0.30441(19)
H15 H 0.136878 0.819208 0.336501
H16 H 0.230715 0.826317 0.325114
H17 H 0.174052 0.941931 0.290390
S2 S 0.41894(4) 1.04671(7) 0.32937(4)
O4 O 0.55177(11) 1.2775(2) 0.28974(10)
C17 C 0.58382(15) 1.4136(3) 0.42837(13)
O5 O 0.37717(12) 0.9567(2) 0.37740(14)
N2 N 0.46605(12) 1.1744(2) 0.37214(11)
O6 O 0.37381(13) 1.1201(2) 0.27753(13)
C18 C 0.51398(14) 1.4259(3) 0.38789(13)
C19 C 0.60077(15) 1.1418(3) 0.42873(13)
C20 C 0.50992(14) 1.1294(3) 0.43437(13)
H18 H 0.496008 1.028594 0.444786
H19 H 0.491721 1.189804 0.471861
C21 C 0.63601(15) 1.2814(3) 0.42648(12)
C22 C 0.46869(17) 1.5534(3) 0.39062(14)
H20 H 0.423542 1.563290 0.362827
C23 C 0.48937(14) 1.3086(2) 0.33782(13)
H21 H 0.442142 1.344614 0.312775
C24 C 0.64977(17) 1.0188(3) 0.42823(15)
H22 H 0.626522 0.926001 0.429909
C25 C 0.4897(2) 1.6672(3) 0.43443(17)
H23 H 0.458512 1.752009 0.435972
C26 C 0.60341(18) 1.5276(3) 0.47212(15)
H24 H 0.648729 1.519328 0.499834
C27 C 0.5564(2) 1.6536(3) 0.47514(17)
H25 H 0.570195 1.728793 0.504821
C28 C 0.71982(16) 1.2935(3) 0.42364(15)
H26 H 0.743533 1.385862 0.421813
C29 C 0.76866(17) 1.1694(4) 0.42348(17)
H27 H 0.824693 1.178883 0.422198
C30 C 0.7338(2) 1.0328(4) 0.42523(18)
H28 H 0.766209 0.949550 0.424411
C31 C 0.4920(2) 0.9364(4) 0.29028(18)
H29 H 0.521362 0.993356 0.257570
H30 H 0.528790 0.899626 0.323897
H31 H 0.465902 0.855724 0.267944
C32 C 0.5442(3) 1.3653(4) 0.23053(19)
H32 H 0.586924 1.341552 0.199430
H33 H 0.492826 1.346550 0.209467
H34 H 0.547685 1.466942 0.242719
loop_
_geom_bond_atom_site_label_1
_geom_bond_atom_site_label_2
_geom_bond_site_symmetry_1
_geom_bond_site_symmetry_2
S1 O1 1_555 1_555
O2 C1 1_555 1_555
N1 S1 1_555 1_555
C1 N1 1_555 1_555
H1 C1 1_555 1_555
C2 C3 1_555 1_555
C3 C5 1_555 1_555
C4 N1 1_555 1_555
H2 C4 1_555 1_555
H3 C4 1_555 1_555
O3 S1 1_555 1_555
C5 C4 1_555 1_555
C6 C3 1_555 1_555
H4 C6 1_555 1_555
C7 C5 1_555 1_555
H5 C7 1_555 1_555
C8 C1 1_555 1_555
C9 C2 1_555 1_555
H6 C9 1_555 1_555
C10 C6 1_555 1_555
H7 C10 1_555 1_555
C11 C9 1_555 1_555
H8 C11 1_555 1_555
C12 C7 1_555 1_555
H9 C12 1_555 1_555
C13 C11 1_555 1_555
H10 C13 1_555 1_555
C14 C8 1_555 1_555
H11 C14 1_555 1_555
C15 S1 1_555 1_555
H12 C15 1_555 1_555
H13 C15 1_555 1_555
H14 C15 1_555 1_555
C16 O2 1_555 1_555
H15 C16 1_555 1_555
H16 C16 1_555 1_555
H17 C16 1_555 1_555
S2 O5 1_555 1_555
O4 C23 1_555 1_555
C17 C18 1_555 1_555
N2 S2 1_555 1_555
O6 S2 1_555 1_555
C18 C22 1_555 1_555
C19 C20 1_555 1_555
C20 N2 1_555 1_555
H18 C20 1_555 1_555
H19 C20 1_555 1_555
C21 C17 1_555 1_555
C22 H20 1_555 1_555
C23 N2 1_555 1_555
H21 C23 1_555 1_555
C24 C19 1_555 1_555
H22 C24 1_555 1_555
C25 C22 1_555 1_555
H23 C25 1_555 1_555
C26 C17 1_555 1_555
H24 C26 1_555 1_555
C27 C25 1_555 1_555
H25 C27 1_555 1_555
C28 C21 1_555 1_555
H26 C28 1_555 1_555
C29 C28 1_555 1_555
H27 C29 1_555 1_555
C30 C24 1_555 1_555
H28 C30 1_555 1_555
C31 S2 1_555 1_555
H29 C31 1_555 1_555
H30 C31 1_555 1_555
H31 C31 1_555 1_555
C32 O4 1_555 1_555
H32 C32 1_555 1_555
H33 C32 1_555 1_555
H34 C32 1_555 1_555
C2 C8 1_555 1_555
C10 C12 1_555 1_555
C13 C14 1_555 1_555
C18 C23 1_555 1_555
C19 C21 1_555 1_555
C26 C27 1_555 1_555
C29 C30 1_555 1_555

#END
