
#######################################################################
#
#                 Cambridge Crystallographic Data Centre
#                                CCDC 
#
#######################################################################
#
# If this CIF has been generated from an entry in the Cambridge 
# Structural Database, then it will include bibliographic, chemical, 
# crystal, experimental, refinement or atomic coordinate data resulting 
# from the CCDC's data processing and validation procedures.
#
#######################################################################

data_JIFHEO
_chemical_compound_source        'marine-derived fungus Eurotium sp. SCSIO F452'
_chemical_name_common            'variecolortin A methanol solvate'
_chemical_formula_moiety         'C36 H33 N3 O9,C1 H4 O1'
_chemical_name_systematic        
"methyl 9'-hydroxy-3-methoxy-11'-methyl-3'-{[2-(2-methylbut-3-en-2-yl)-1H-indol-3-yl]methylidene}-1',2,4',5-tetraoxo-1',2',3',4'-tetrahydro-7'H-spiro[cyclohex-3-ene-1,6'-[12]oxa[2,5]diaza[7,12a]methanopyrazino[2,1-b][1,3]benzoxazepine]-8'-carboxylate methanol solvate"
_symmetry_cell_setting           monoclinic
_symmetry_space_group_name_H-M   'P 21/n'
_symmetry_Int_Tables_number      14
_space_group_name_Hall           '-P 2yn'
loop_
_symmetry_equiv_pos_site_id
_symmetry_equiv_pos_as_xyz
1 x,y,z
2 1/2-x,1/2+y,1/2-z
3 -x,-y,-z
4 1/2+x,1/2-y,1/2+z
_cell_length_a                   11.3309(10)
_cell_length_b                   14.8496(9)
_cell_length_c                   20.4622(11)
_cell_angle_alpha                90
_cell_angle_beta                 105.553(7)
_cell_angle_gamma                90
_cell_volume                     3316.88
_exptl_crystal_colour            yellow
_exptl_crystal_description       block
_cell_formula_units_Z            4
_exptl_crystal_recrystallization_method methanol
loop_
_atom_site_label
_atom_site_type_symbol
_atom_site_fract_x
_atom_site_fract_y
_atom_site_fract_z
O1 O 0.3366(2) 0.69551(16) 0.10468(10)
O2 O 0.4269(2) 0.82059(17) 0.34951(10)
O3 O 0.6802(2) 0.59927(15) 0.35693(10)
O4 O 0.8805(2) 0.69528(17) 0.45205(10)
O5 O 0.6348(2) 0.90979(16) 0.28546(11)
O6 O 0.5601(2) 0.96737(16) 0.15837(11)
O7 O 0.6402(3) 0.67966(19) 0.10234(11)
N1 N 0.7037(3) 0.74835(19) 0.46916(12)
H1 H 0.7404 0.7605 0.5107
N2 N 0.5899(3) 0.74434(19) 0.33307(12)
N3 N 0.6133(3) 0.7333(2) 0.67490(13)
O8 O 0.5228(3) 0.4173(2) 0.11456(14)
H2 H 0.5081 0.4497 0.0809
O9 O 0.5404(3) 0.5616(2) 0.04952(13)
C1 C 0.5241(3) 0.7801(2) 0.37278(15)
C2 C 0.5773(3) 0.7668(2) 0.44677(15)
C3 C 0.5088(3) 0.7736(2) 0.49089(15)
H3 H 0.4302 0.7974 0.4760
C4 C 0.7726(3) 0.7171(2) 0.30625(14)
H4 H 0.8393 0.6754 0.3080
H5 H 0.8039 0.7782 0.3117
C5 C 0.7707(3) 0.7137(2) 0.43116(15)
C6 C 0.6417(3) 0.6523(2) 0.65123(15)
C7 C 0.5536(3) 0.7449(2) 0.56158(15)
C8 C 0.4003(3) 0.7471(2) 0.14682(15)
C9 C 0.6068(3) 0.6563(2) 0.57961(15)
C10 C 0.6682(3) 0.7058(2) 0.24117(15)
H6 H 0.6890 0.7306 0.2013
C11 C 0.5590(3) 0.7896(2) 0.62199(14)
C12 C 0.7041(3) 0.6941(2) 0.35748(15)
C13 C 0.6459(3) 0.5591(2) 0.29260(16)
C14 C 0.5195(3) 0.8868(2) 0.17146(15)
C15 C 0.5750(3) 0.8582(2) 0.24364(15)
C16 C 0.4411(3) 0.8331(2) 0.12665(15)
H7 H 0.4125 0.8517 0.0818
C17 C 0.6378(3) 0.6057(2) 0.23360(15)
C18 C 0.5607(3) 0.7588(2) 0.25909(14)
C19 C 0.4327(3) 0.7250(2) 0.22167(14)
H8 H 0.4292 0.6603 0.2273
H9 H 0.3727 0.7522 0.2416
C20 C 0.5238(3) 0.8840(2) 0.63715(15)
C21 C 0.6209(3) 0.5803(2) 0.54267(16)
H10 H 0.5989 0.5817 0.4955
C22 C 0.6193(4) 0.4669(3) 0.29384(18)
C23 C 0.6906(4) 0.5741(3) 0.68623(17)
H11 H 0.7136 0.5723 0.7334
C24 C 0.5971(4) 0.5598(3) 0.16989(17)
C25 C 0.5887(4) 0.5996(3) 0.10273(16)
C26 C 0.6680(4) 0.5029(3) 0.57712(17)
H12 H 0.6766 0.4515 0.5528
C27 C 0.7034(4) 0.5003(3) 0.64843(18)
H13 H 0.7361 0.4475 0.6704
C28 C 0.5757(4) 0.4243(3) 0.2320(2)
H14 H 0.5527 0.3641 0.2313
C29 C 0.5160(4) 0.9998(3) 0.09028(17)
H15 H 0.5383 0.9582 0.0597
H16 H 0.5517 1.0576 0.0866
H17 H 0.4285 1.0054 0.0789
C30 C 0.6384(4) 0.4199(3) 0.3610(2)
H18 H 0.7229 0.4246 0.3861
H19 H 0.6165 0.3576 0.3535
H20 H 0.5880 0.4476 0.3863
C31 C 0.4571(4) 0.9329(3) 0.57276(18)
H21 H 0.4936 0.9290 0.5372
C32 C 0.5652(4) 0.4686(3) 0.17129(19)
C33 C 0.3571(4) 0.9792(3) 0.5601(2)
H22 H 0.3156 0.9860 0.5933
H23 H 0.3266 1.0057 0.5178
C34 C 0.4491(4) 0.8792(3) 0.68900(19)
H24 H 0.3740 0.8474 0.6698
H25 H 0.4309 0.9391 0.7011
H26 H 0.4954 0.8482 0.7288
C35 C 0.6422(4) 0.9383(3) 0.6665(2)
H27 H 0.6922 0.9076 0.7055
H28 H 0.6216 0.9971 0.6797
H29 H 0.6865 0.9441 0.6328
C36 C 0.6386(4) 0.7150(3) 0.03578(17)
H30 H 0.5555 0.7254 0.0101
H31 H 0.6761 0.6723 0.0123
H32 H 0.6833 0.7707 0.0410
H33 H 0.618(4) 0.743(3) 0.715(2)
O10 O 0.1953(3) 0.7400(2) 0.31881(13)
H34 H 0.2042 0.7941 0.3138
C37 C 0.1458(5) 0.7263(4) 0.3730(2)
H35 H 0.0814 0.6825 0.3607
H36 H 0.1134 0.7820 0.3845
H37 H 0.2085 0.7049 0.4113
loop_
_geom_bond_atom_site_label_1
_geom_bond_atom_site_label_2
_geom_bond_site_symmetry_1
_geom_bond_site_symmetry_2
O1 C8 1_555 1_555
O2 C1 1_555 1_555
O3 C12 1_555 1_555
O4 C5 1_555 1_555
O5 C15 1_555 1_555
O6 C14 1_555 1_555
O7 C25 1_555 1_555
N1 H1 1_555 1_555
N2 C1 1_555 1_555
N3 C6 1_555 1_555
O8 H2 1_555 1_555
O9 C25 1_555 1_555
C1 C2 1_555 1_555
C2 N1 1_555 1_555
C3 C2 1_555 1_555
H3 C3 1_555 1_555
C4 H4 1_555 1_555
H5 C4 1_555 1_555
C5 N1 1_555 1_555
C6 C9 1_555 1_555
C7 C3 1_555 1_555
C8 C16 1_555 1_555
C9 C7 1_555 1_555
C10 C4 1_555 1_555
H6 C10 1_555 1_555
C11 N3 1_555 1_555
C12 N2 1_555 1_555
C13 O3 1_555 1_555
C14 C15 1_555 1_555
C15 C18 1_555 1_555
C16 C14 1_555 1_555
H7 C16 1_555 1_555
C17 C10 1_555 1_555
C18 N2 1_555 1_555
C19 C8 1_555 1_555
H8 C19 1_555 1_555
H9 C19 1_555 1_555
C20 C11 1_555 1_555
C21 C9 1_555 1_555
H10 C21 1_555 1_555
C22 C13 1_555 1_555
C23 C6 1_555 1_555
H11 C23 1_555 1_555
C24 C17 1_555 1_555
C25 C24 1_555 1_555
C26 C21 1_555 1_555
H12 C26 1_555 1_555
C27 C23 1_555 1_555
H13 C27 1_555 1_555
C28 C22 1_555 1_555
H14 C28 1_555 1_555
C29 O6 1_555 1_555
H15 C29 1_555 1_555
H16 C29 1_555 1_555
H17 C29 1_555 1_555
C30 C22 1_555 1_555
H18 C30 1_555 1_555
H19 C30 1_555 1_555
H20 C30 1_555 1_555
C31 C20 1_555 1_555
H21 C31 1_555 1_555
C32 O8 1_555 1_555
C33 C31 1_555 1_555
H22 C33 1_555 1_555
H23 C33 1_555 1_555
C34 C20 1_555 1_555
H24 C34 1_555 1_555
H25 C34 1_555 1_555
H26 C34 1_555 1_555
C35 C20 1_555 1_555
H27 C35 1_555 1_555
H28 C35 1_555 1_555
H29 C35 1_555 1_555
C36 O7 1_555 1_555
H30 C36 1_555 1_555
H31 C36 1_555 1_555
H32 C36 1_555 1_555
H33 N3 1_555 1_555
O10 H34 1_555 1_555
C37 O10 1_555 1_555
H35 C37 1_555 1_555
H36 C37 1_555 1_555
H37 C37 1_555 1_555
C4 C12 1_555 1_555
C5 C12 1_555 1_555
C7 C11 1_555 1_555
C10 C18 1_555 1_555
C13 C17 1_555 1_555
C18 C19 1_555 1_555
C24 C32 1_555 1_555
C26 C27 1_555 1_555
C28 C32 1_555 1_555

#END
