
#######################################################################
#
#                 Cambridge Crystallographic Data Centre
#                                CCDC 
#
#######################################################################
#
# If this CIF has been generated from an entry in the Cambridge 
# Structural Database, then it will include bibliographic, chemical, 
# crystal, experimental, refinement or atomic coordinate data resulting 
# from the CCDC's data processing and validation procedures.
#
#######################################################################

data_JIFHIS
_chemical_formula_moiety         'C15 H15 N1 O3 S1,H2 O1'
_chemical_name_systematic        
'6-(methylsulfonyl)-6,7-dihydro-5H-dibenzo[c,e]azepin-5-ol monohydrate'
_symmetry_cell_setting           monoclinic
_symmetry_space_group_name_H-M   'C 2/c'
_symmetry_Int_Tables_number      15
_space_group_name_Hall           '-C 2yn'
loop_
_symmetry_equiv_pos_site_id
_symmetry_equiv_pos_as_xyz
1 x,y,z
2 -x,y,1/2-z
3 1/2+x,1/2+y,z
4 1/2-x,1/2+y,1/2-z
5 -x,-y,-z
6 x,-y,1/2+z
7 1/2-x,1/2-y,-z
8 1/2+x,1/2-y,1/2+z
_cell_length_a                   18.342(15)
_cell_length_b                   7.713(6)
_cell_length_c                   21.199(19)
_cell_angle_alpha                90
_cell_angle_beta                 102.126(14)
_cell_angle_gamma                90
_cell_volume                     2932.15
_exptl_crystal_colour            white
_exptl_crystal_description       Prism
_cell_formula_units_Z            8
loop_
_atom_site_label
_atom_site_type_symbol
_atom_site_fract_x
_atom_site_fract_y
_atom_site_fract_z
S1 S -0.00526(3) 0.56387(9) 0.38746(3)
C1 C 0.15317(11) 0.2561(3) 0.43670(10)
C2 C 0.12866(14) 0.1216(3) 0.47104(11)
H1 H 0.095178 0.145194 0.497345
C3 C 0.15352(16) -0.0464(4) 0.46650(13)
H2 H 0.136992 -0.134987 0.489778
C4 C 0.20319(15) -0.0823(4) 0.42707(13)
H3 H 0.219925 -0.195054 0.423770
C5 C 0.22774(13) 0.0495(3) 0.39276(11)
H4 H 0.260933 0.024336 0.366355
C6 C 0.20371(11) 0.2198(3) 0.39694(10)
C7 C 0.23131(11) 0.3612(3) 0.36065(10)
C8 C 0.30692(12) 0.3679(3) 0.35774(12)
H5 H 0.339201 0.283895 0.379278
C9 C 0.33466(13) 0.4954(4) 0.32385(12)
H6 H 0.384927 0.496048 0.322199
C10 C 0.28775(14) 0.6221(4) 0.29240(12)
H7 H 0.306406 0.709551 0.270056
C11 C 0.21221(13) 0.6186(3) 0.29419(11)
H8 H 0.180533 0.703522 0.272581
C12 C 0.18374(11) 0.4896(3) 0.32790(10)
C13 C 0.12912(12) 0.4401(3) 0.44435(10)
H9 H 0.102546 0.444485 0.479348
H10 H 0.173210 0.512078 0.456437
C14 C 0.09943(11) 0.4859(3) 0.32224(10)
H11 H 0.078250 0.582702 0.294386
C15 C -0.05400(15) 0.3691(4) 0.38974(15)
H12 H -0.051599 0.301063 0.352311
H13 H -0.105155 0.394099 0.390228
H14 H -0.031933 0.305567 0.427923
O1 O 0.06854(9) 0.3313(2) 0.29213(8)
H15 H 0.079(3) 0.235(4) 0.307(2)
O2 O -0.03569(10) 0.6497(3) 0.32765(9)
O3 O -0.00491(10) 0.6538(2) 0.44676(9)
N1 N 0.08074(9) 0.5138(3) 0.38558(8)
O4 O 0.04469(19) -0.0105(4) 0.30856(17)
H17 H 0.050675 -0.110830 0.320764
H18 H 0.011055 0.002466 0.267954
H16? H 0.0264(16) 0.347(6) 0.270(2)
H19? H 0.083103 0.042372 0.305083
loop_
_geom_bond_atom_site_label_1
_geom_bond_atom_site_label_2
_geom_bond_site_symmetry_1
_geom_bond_site_symmetry_2
S1 C15 1_555 1_555
C1 C2 1_555 1_555
C2 H1 1_555 1_555
C3 C2 1_555 1_555
H2 C3 1_555 1_555
C4 C3 1_555 1_555
H3 C4 1_555 1_555
C5 C4 1_555 1_555
H4 C5 1_555 1_555
C6 C1 1_555 1_555
C7 C6 1_555 1_555
C8 C7 1_555 1_555
H5 C8 1_555 1_555
C9 C8 1_555 1_555
H6 C9 1_555 1_555
C10 C9 1_555 1_555
H7 C10 1_555 1_555
C11 C10 1_555 1_555
H8 C11 1_555 1_555
C12 C7 1_555 1_555
C13 C1 1_555 1_555
H9 C13 1_555 1_555
H10 C13 1_555 1_555
C14 C12 1_555 1_555
H11 C14 1_555 1_555
C15 H12 1_555 1_555
H13 C15 1_555 1_555
H14 C15 1_555 1_555
O1 C14 1_555 1_555
H15 O1 1_555 1_555
O2 S1 1_555 1_555
O3 S1 1_555 1_555
N1 S1 1_555 1_555
O4 H17 1_555 1_555
H18 O4 1_555 1_555
C5 C6 1_555 1_555
C11 C12 1_555 1_555
C13 N1 1_555 1_555
C14 N1 1_555 1_555

#END
