
#######################################################################
#
#                 Cambridge Crystallographic Data Centre
#                                CCDC 
#
#######################################################################
#
# If this CIF has been generated from an entry in the Cambridge 
# Structural Database, then it will include bibliographic, chemical, 
# crystal, experimental, refinement or atomic coordinate data resulting 
# from the CCDC's data processing and validation procedures.
#
#######################################################################

data_JIFJOA
_chemical_formula_moiety         'C14 H11 Cl3 N2 O2 S1'
_chemical_name_systematic        
'2,2,2-trichloroethyl (1-naphthylcarbamothioyl)carbamate'
_symmetry_cell_setting           triclinic
_symmetry_space_group_name_H-M   'P -1'
_symmetry_Int_Tables_number      2
_space_group_name_Hall           '-P 1'
loop_
_symmetry_equiv_pos_site_id
_symmetry_equiv_pos_as_xyz
1 x,y,z
2 -x,-y,-z
_cell_length_a                   8.115(5)
_cell_length_b                   8.899(5)
_cell_length_c                   12.238(5)
_cell_angle_alpha                75.345(5)
_cell_angle_beta                 87.734(5)
_cell_angle_gamma                64.477(5)
_cell_volume                     769.134
_exptl_crystal_colour            colorless
_exptl_crystal_description       plate
_cell_formula_units_Z            2
loop_
_atom_site_label
_atom_site_type_symbol
_atom_site_fract_x
_atom_site_fract_y
_atom_site_fract_z
Cl1 Cl 1.08389(3) 0.18251(3) 0.98423(2)
Cl2 Cl 1.01220(4) 0.05091(3) 1.21236(2)
Cl3 Cl 1.07157(4) 0.35880(3) 1.15480(2)
S1 S 0.42872(4) 0.04082(3) 0.81818(2)
O1 O 0.64914(10) 0.42054(9) 0.86088(6)
O2 O 0.68465(10) 0.26519(9) 1.04402(5)
N1 N 0.51388(11) 0.30100(11) 0.72213(6)
H1 H 0.5523 0.3762 0.7307
N2 N 0.55752(10) 0.20239(10) 0.91760(6)
H2 H 0.5418 0.1353 0.9794
C1 C 0.46784(13) 0.30538(12) 0.60950(7)
C2 C 0.57419(14) 0.17338(13) 0.56327(8)
H3 H 0.6764 0.0766 0.6070
C3 C 0.53228(15) 0.18067(14) 0.45062(8)
H4 H 0.6065 0.0888 0.4187
C4 C 0.38482(15) 0.31988(14) 0.38722(8)
H5 H 0.3580 0.3241 0.3113
C5 C 0.27194(13) 0.45765(13) 0.43367(7)
C6 C 0.11379(14) 0.60019(14) 0.37162(8)
H6 H 0.0841 0.6058 0.2959
C7 C 0.00362(15) 0.72944(15) 0.41904(9)
H7 H -0.1026 0.8227 0.3766
C8 C 0.04708(15) 0.72480(15) 0.53061(9)
H8 H -0.0289 0.8158 0.5627
C9 C 0.19865(14) 0.58931(13) 0.59286(8)
H9 H 0.2269 0.5875 0.6679
C10 C 0.31333(13) 0.45239(12) 0.54693(7)
C11 C 0.50240(12) 0.19008(11) 0.81530(7)
C12 C 0.63322(11) 0.30668(11) 0.93297(7)
C13 C 0.77250(12) 0.35649(12) 1.07763(7)
H10 H 0.7178 0.3952 1.1451
H11 H 0.7539 0.4599 1.0157
C14 C 0.97657(13) 0.24046(11) 1.10523(7)
loop_
_geom_bond_atom_site_label_1
_geom_bond_atom_site_label_2
_geom_bond_site_symmetry_1
_geom_bond_site_symmetry_2
Cl1 C14 1_555 1_555
Cl2 C14 1_555 1_555
Cl3 C14 1_555 1_555
S1 C11 1_555 1_555
O1 C12 1_555 1_555
O2 C12 1_555 1_555
N1 H1 1_555 1_555
N2 H2 1_555 1_555
C1 N1 1_555 1_555
C2 C1 1_555 1_555
H3 C2 1_555 1_555
C3 C2 1_555 1_555
H4 C3 1_555 1_555
C4 C3 1_555 1_555
H5 C4 1_555 1_555
C5 C4 1_555 1_555
C6 C5 1_555 1_555
H6 C6 1_555 1_555
C7 C6 1_555 1_555
H7 C7 1_555 1_555
C8 C7 1_555 1_555
H8 C8 1_555 1_555
C9 C8 1_555 1_555
H9 C9 1_555 1_555
C10 C1 1_555 1_555
C11 N1 1_555 1_555
C12 N2 1_555 1_555
C13 O2 1_555 1_555
H10 C13 1_555 1_555
H11 C13 1_555 1_555
C14 C13 1_555 1_555
N2 C11 1_555 1_555
C5 C10 1_555 1_555
C9 C10 1_555 1_555

#END
