
#######################################################################
#
#                 Cambridge Crystallographic Data Centre
#                                CCDC 
#
#######################################################################
#
# If this CIF has been generated from an entry in the Cambridge 
# Structural Database, then it will include bibliographic, chemical, 
# crystal, experimental, refinement or atomic coordinate data resulting 
# from the CCDC's data processing and validation procedures.
#
#######################################################################

data_JIFRUO
_chemical_formula_moiety         'C13 H10 Br1 N1 O3,C2 H6 O1 S1'
_chemical_name_systematic        
'9-bromo-3,3-dimethylfuro[3,4-c]isoquinoline-1,5(3H,4H)-dione dimethyl sulfoxide solvate'
_symmetry_cell_setting           monoclinic
_symmetry_space_group_name_H-M   'P 21/c'
_symmetry_Int_Tables_number      14
_space_group_name_Hall           '-P 2ybc'
loop_
_symmetry_equiv_pos_site_id
_symmetry_equiv_pos_as_xyz
1 x,y,z
2 -x,1/2+y,1/2-z
3 -x,-y,-z
4 x,1/2-y,1/2+z
_cell_length_a                   16.3507(3)
_cell_length_b                   11.6900(2)
_cell_length_c                   8.5598(2)
_cell_angle_alpha                90
_cell_angle_beta                 96.993(2)
_cell_angle_gamma                90
_cell_volume                     1623.95
_exptl_crystal_colour            colorless
_exptl_crystal_description       block
_cell_formula_units_Z            4
loop_
_atom_site_label
_atom_site_type_symbol
_atom_site_fract_x
_atom_site_fract_y
_atom_site_fract_z
Br1 Br 0.64653(3) 0.95430(4) 0.19239(6)
O1 O 0.86633(15) 0.7607(2) 0.4902(3)
O2 O 0.77413(18) 0.9012(2) 0.4727(3)
N1 N 0.75641(17) 0.5124(2) 0.3324(3)
H1 H 0.7893 0.4548 0.3448
O3 O 0.64958(18) 0.3982(3) 0.2456(4)
C1 C 0.78494(18) 0.6178(3) 0.3739(4)
C2 C 0.65832(18) 0.7112(3) 0.2646(4)
C3 C 0.86910(19) 0.6385(3) 0.4596(4)
C4 C 0.74086(18) 0.7157(3) 0.3492(4)
C5 C 0.7899(2) 0.8050(3) 0.4375(4)
C6 C 0.9367(2) 0.6152(3) 0.3576(5)
H2 H 0.9278 0.6612 0.2641
H3 H 0.9359 0.5357 0.3290
H4 H 0.9891 0.6338 0.4149
C7 C 0.6257(2) 0.5997(3) 0.2358(4)
C8 C 0.6756(2) 0.4954(3) 0.2707(4)
C9 C 0.8825(2) 0.5761(3) 0.6165(4)
H5 H 0.9341 0.5995 0.6733
H6 H 0.8835 0.4951 0.5983
H7 H 0.8385 0.5942 0.6770
C10 C 0.6079(2) 0.8017(3) 0.2010(5)
C11 C 0.5455(2) 0.5835(4) 0.1622(6)
H8 H 0.5249 0.5097 0.1468
C12 C 0.5286(3) 0.7839(4) 0.1299(7)
H9 H 0.4963 0.8460 0.0935
C13 C 0.4970(3) 0.6750(5) 0.1123(7)
H10 H 0.4430 0.6636 0.0668
S1 S 0.84447(7) 0.20129(8) 0.36699(12)
O4 O 0.8683(2) 0.3251(2) 0.3869(4)
C14 C 0.9133(3) 0.1226(4) 0.5010(6)
H11 H 0.9684 0.1321 0.4754
H12 H 0.8986 0.0430 0.4947
H13 H 0.9102 0.1498 0.6060
C15 C 0.7543(3) 0.1844(4) 0.4608(7)
H14 H 0.7651 0.2097 0.5680
H15 H 0.7386 0.1052 0.4585
H16 H 0.7105 0.2291 0.4066
loop_
_geom_bond_atom_site_label_1
_geom_bond_atom_site_label_2
_geom_bond_site_symmetry_1
_geom_bond_site_symmetry_2
Br1 C10 1_555 1_555
O1 C3 1_555 1_555
O2 C5 1_555 1_555
N1 H1 1_555 1_555
O3 C8 1_555 1_555
C1 N1 1_555 1_555
C2 C4 1_555 1_555
C3 C1 1_555 1_555
C4 C1 1_555 1_555
C5 O1 1_555 1_555
C6 C3 1_555 1_555
H2 C6 1_555 1_555
H3 C6 1_555 1_555
H4 C6 1_555 1_555
C7 C2 1_555 1_555
C8 N1 1_555 1_555
C9 C3 1_555 1_555
H5 C9 1_555 1_555
H6 C9 1_555 1_555
H7 C9 1_555 1_555
C10 C2 1_555 1_555
C11 C7 1_555 1_555
H8 C11 1_555 1_555
C12 C10 1_555 1_555
H9 C12 1_555 1_555
C13 C11 1_555 1_555
H10 C13 1_555 1_555
S1 O4 1_555 1_555
C14 S1 1_555 1_555
H11 C14 1_555 1_555
H12 C14 1_555 1_555
H13 C14 1_555 1_555
C15 S1 1_555 1_555
H14 C15 1_555 1_555
H15 C15 1_555 1_555
H16 C15 1_555 1_555
C4 C5 1_555 1_555
C7 C8 1_555 1_555
C12 C13 1_555 1_555

#END
