
#######################################################################
#
#                 Cambridge Crystallographic Data Centre
#                                CCDC 
#
#######################################################################
#
# If this CIF has been generated from an entry in the Cambridge 
# Structural Database, then it will include bibliographic, chemical, 
# crystal, experimental, refinement or atomic coordinate data resulting 
# from the CCDC's data processing and validation procedures.
#
#######################################################################

data_JIFSOJ
_chemical_formula_moiety         'C12 H17 Br1 O3'
_chemical_name_systematic        
2-(2-bromoprop-2-en-1-yl)-7a-hydroxy-4a-methylhexahydrocyclopenta[b]pyran-5(2H)-one
_symmetry_cell_setting           triclinic
_symmetry_space_group_name_H-M   'P -1'
_symmetry_Int_Tables_number      2
_space_group_name_Hall           '-P 1'
loop_
_symmetry_equiv_pos_site_id
_symmetry_equiv_pos_as_xyz
1 x,y,z
2 -x,-y,-z
_cell_length_a                   6.7116(3)
_cell_length_b                   9.9719(5)
_cell_length_c                   10.1506(4)
_cell_angle_alpha                97.526(2)
_cell_angle_beta                 105.4230(10)
_cell_angle_gamma                101.7250(10)
_cell_volume                     628.784
_exptl_crystal_colour            colorless
_exptl_crystal_description       prismatic
_cell_formula_units_Z            2
loop_
_atom_site_label
_atom_site_type_symbol
_atom_site_fract_x
_atom_site_fract_y
_atom_site_fract_z
Br1 Br 1.14788(4) 0.68898(3) 0.74971(2)
O1 O 0.1407(2) 0.78935(19) 0.20652(18)
O2 O 0.7612(2) 0.82264(13) 0.37406(13)
O3 O 0.7565(2) 0.61859(15) 0.23210(16)
H1 H 0.8794 0.6532 0.2284
C1 C 0.3152(3) 0.7805(2) 0.1997(2)
C2 C 0.4579(3) 0.8817(2) 0.1443(2)
H2 H 0.5139 0.9736 0.2086
H3 H 0.3791 0.8948 0.0515
C3 C 0.6385(3) 0.8135(2) 0.1347(2)
H4 H 0.7743 0.8847 0.1537
H5 H 0.6051 0.7546 0.0414
C4 C 0.6515(3) 0.72475(19) 0.24717(19)
C5 C 0.4182(3) 0.6632(2) 0.24033(19)
C6 C 0.3906(3) 0.6245(2) 0.3769(2)
H6 H 0.2396 0.6139 0.3742
H7 H 0.4251 0.5335 0.3853
C7 C 0.5324(3) 0.7337(2) 0.5043(2)
H8 H 0.4804 0.8198 0.5068
H9 H 0.5276 0.6980 0.5902
C8 C 0.7589(3) 0.7660(2) 0.49711(19)
H10 H 0.8078 0.6778 0.4907
C9 C 0.9186(4) 0.8750(2) 0.6188(2)
H11 H 1.0506 0.9081 0.5938
H12 H 0.8581 0.9560 0.6350
C10 C 0.9738(3) 0.8196(2) 0.7504(2)
C11 C 0.9137(4) 0.8486(2) 0.8612(2)
H13 H 0.8249 0.9114 0.8635
H14 H 0.9589 0.8069 0.9392
C12 C 0.3097(3) 0.5363(2) 0.1203(2)
H15 H 0.1592 0.5041 0.1150
H16 H 0.3811 0.4609 0.1372
H17 H 0.3197 0.5630 0.0323
loop_
_geom_bond_atom_site_label_1
_geom_bond_atom_site_label_2
_geom_bond_site_symmetry_1
_geom_bond_site_symmetry_2
Br1 C10 1_555 1_555
O1 C1 1_555 1_555
O2 C4 1_555 1_555
O3 H1 1_555 1_555
C1 C2 1_555 1_555
C2 H2 1_555 1_555
H3 C2 1_555 1_555
C3 C2 1_555 1_555
H4 C3 1_555 1_555
H5 C3 1_555 1_555
C4 O3 1_555 1_555
C5 C1 1_555 1_555
C6 C5 1_555 1_555
H6 C6 1_555 1_555
H7 C6 1_555 1_555
C7 C6 1_555 1_555
H8 C7 1_555 1_555
H9 C7 1_555 1_555
C8 O2 1_555 1_555
H10 C8 1_555 1_555
C9 C8 1_555 1_555
H11 C9 1_555 1_555
H12 C9 1_555 1_555
C10 C9 1_555 1_555
C11 C10 1_555 1_555
H13 C11 1_555 1_555
H14 C11 1_555 1_555
C12 C5 1_555 1_555
H15 C12 1_555 1_555
H16 C12 1_555 1_555
H17 C12 1_555 1_555
C3 C4 1_555 1_555
C4 C5 1_555 1_555
C7 C8 1_555 1_555

#END
