
#######################################################################
#
#                 Cambridge Crystallographic Data Centre
#                                CCDC 
#
#######################################################################
#
# If this CIF has been generated from an entry in the Cambridge 
# Structural Database, then it will include bibliographic, chemical, 
# crystal, experimental, refinement or atomic coordinate data resulting 
# from the CCDC's data processing and validation procedures.
#
#######################################################################

data_JIFVIG
_chemical_formula_moiety         'C24 H22 N2 O2 S1'
_chemical_name_systematic        
N,4-dimethyl-N-(4-methyl-3-phenylquinolin-2-yl)benzene-1-sulfonamide
_symmetry_cell_setting           monoclinic
_symmetry_space_group_name_H-M   'P 21/n'
_symmetry_Int_Tables_number      14
_space_group_name_Hall           '-P 2yn'
loop_
_symmetry_equiv_pos_site_id
_symmetry_equiv_pos_as_xyz
1 x,y,z
2 1/2-x,1/2+y,1/2-z
3 -x,-y,-z
4 1/2+x,1/2-y,1/2+z
_cell_length_a                   14.5358(9)
_cell_length_b                   8.1613(5)
_cell_length_c                   17.3852(10)
_cell_angle_alpha                90
_cell_angle_beta                 103.1377(18)
_cell_angle_gamma                90
_cell_volume                     2008.44
_exptl_crystal_colour            colorless
_exptl_crystal_description       brick
_cell_formula_units_Z            4
loop_
_atom_site_label
_atom_site_type_symbol
_atom_site_fract_x
_atom_site_fract_y
_atom_site_fract_z
S1 S 0.57258(4) 0.67134(8) 0.23008(3)
O1 O 0.64708(12) 0.6928(2) 0.18931(9)
O2 O 0.47588(11) 0.6845(2) 0.18819(9)
C1 C 0.67476(17) 0.4473(3) 0.32249(15)
H1 H 0.684699 0.328551 0.322827
H2 H 0.673605 0.484323 0.375897
H3 H 0.726277 0.502397 0.304899
N1 N 0.58467(13) 0.4873(2) 0.26850(11)
C2 C 0.50213(16) 0.4064(3) 0.28301(13)
N2 N 0.48198(13) 0.4343(2) 0.35168(11)
C3 C 0.45237(17) 0.2995(3) 0.22369(13)
C4 C 0.37310(17) 0.2213(3) 0.23724(14)
C5 C 0.3168(2) 0.1036(4) 0.17820(16)
H4 H 0.251375 0.142170 0.161954
H5 H 0.317769 -0.005136 0.202305
H6 H 0.344474 0.097101 0.131900
C6 C 0.40459(16) 0.3552(3) 0.36629(14)
C7 C 0.38242(17) 0.3802(3) 0.44075(14)
H7 H 0.421137 0.449609 0.478608
C8 C 0.30591(18) 0.3053(3) 0.45838(15)
H8 H 0.291977 0.322019 0.508608
C9 C 0.24787(18) 0.2040(3) 0.40291(16)
H9 H 0.194147 0.153949 0.415503
C10 C 0.26752(17) 0.1763(3) 0.33081(15)
H10 H 0.227425 0.106827 0.293909
C11 C 0.34739(16) 0.2502(3) 0.31036(14)
C12 C 0.48760(17) 0.2674(3) 0.15069(14)
C13 C 0.4446(2) 0.3372(4) 0.07934(15)
H11 H 0.393927 0.411896 0.076909
C14 C 0.4744(3) 0.2998(4) 0.01122(17)
H12 H 0.443530 0.348202 -0.037540
C15 C 0.5479(2) 0.1937(4) 0.01359(17)
H13 H 0.568999 0.169402 -0.032988
C16 C 0.59052(19) 0.1230(4) 0.08421(16)
H14 H 0.640941 0.047868 0.086328
C17 C 0.56099(18) 0.1599(4) 0.15240(15)
H15 H 0.591660 0.110473 0.200944
C18 C 0.59381(16) 0.8146(3) 0.30833(13)
C19 C 0.68448(18) 0.8764(3) 0.33611(14)
H16 H 0.735108 0.839266 0.314385
C20 C 0.7001(2) 0.9920(3) 0.39546(15)
H17 H 0.762186 1.033453 0.414597
C21 C 0.6273(2) 1.0493(3) 0.42796(15)
C22 C 0.53746(19) 0.9861(3) 0.39913(15)
H18 H 0.486680 1.023900 0.420487
C23 C 0.52017(18) 0.8690(3) 0.33985(14)
H19 H 0.458287 0.826562 0.321062
C24 C 0.6459(2) 1.1753(4) 0.49305(17)
H20 H 0.589100 1.241748 0.490147
H21 H 0.698243 1.246180 0.486972
H22 H 0.662596 1.119857 0.544341
loop_
_geom_bond_atom_site_label_1
_geom_bond_atom_site_label_2
_geom_bond_site_symmetry_1
_geom_bond_site_symmetry_2
S1 O1 1_555 1_555
O2 S1 1_555 1_555
C1 H1 1_555 1_555
H2 C1 1_555 1_555
H3 C1 1_555 1_555
N1 S1 1_555 1_555
C2 N1 1_555 1_555
N2 C2 1_555 1_555
C3 C2 1_555 1_555
C4 C3 1_555 1_555
C5 C4 1_555 1_555
H4 C5 1_555 1_555
H5 C5 1_555 1_555
H6 C5 1_555 1_555
C6 N2 1_555 1_555
C7 C6 1_555 1_555
H7 C7 1_555 1_555
C8 C7 1_555 1_555
H8 C8 1_555 1_555
C9 C8 1_555 1_555
H9 C9 1_555 1_555
C10 C9 1_555 1_555
H10 C10 1_555 1_555
C11 C4 1_555 1_555
C12 C3 1_555 1_555
C13 C12 1_555 1_555
H11 C13 1_555 1_555
C14 C13 1_555 1_555
H12 C14 1_555 1_555
C15 C14 1_555 1_555
H13 C15 1_555 1_555
C16 C15 1_555 1_555
H14 C16 1_555 1_555
C17 C12 1_555 1_555
H15 C17 1_555 1_555
C18 S1 1_555 1_555
C19 C18 1_555 1_555
H16 C19 1_555 1_555
C20 C19 1_555 1_555
H17 C20 1_555 1_555
C21 C20 1_555 1_555
C22 C21 1_555 1_555
H18 C22 1_555 1_555
C23 C18 1_555 1_555
H19 C23 1_555 1_555
C24 C21 1_555 1_555
H20 C24 1_555 1_555
H21 C24 1_555 1_555
H22 C24 1_555 1_555
C1 N1 1_555 1_555
C6 C11 1_555 1_555
C10 C11 1_555 1_555
C16 C17 1_555 1_555
C22 C23 1_555 1_555

#END
