
#######################################################################
#
#                 Cambridge Crystallographic Data Centre
#                                CCDC 
#
#######################################################################
#
# If this CIF has been generated from an entry in the Cambridge 
# Structural Database, then it will include bibliographic, chemical, 
# crystal, experimental, refinement or atomic coordinate data resulting 
# from the CCDC's data processing and validation procedures.
#
#######################################################################

data_JIFVAY
_chemical_formula_moiety         'C18 H16 F8 N4'
_chemical_name_systematic        
N^1^,N^2^-dimethyl-N^1^,N^2^-bis(2,3,5,6-tetrafluoropyridin-4-yl)cyclohexane-1,2-diamine
_symmetry_cell_setting           monoclinic
_symmetry_space_group_name_H-M   'C 2/c'
_symmetry_Int_Tables_number      15
_space_group_name_Hall           '-C 2yn'
loop_
_symmetry_equiv_pos_site_id
_symmetry_equiv_pos_as_xyz
1 x,y,z
2 -x,y,1/2-z
3 1/2+x,1/2+y,z
4 1/2-x,1/2+y,1/2-z
5 -x,-y,-z
6 x,-y,1/2+z
7 1/2-x,1/2-y,-z
8 1/2+x,1/2-y,1/2+z
_cell_length_a                   15.090(3)
_cell_length_b                   15.860(3)
_cell_length_c                   7.4809(14)
_cell_angle_alpha                90
_cell_angle_beta                 99.210(4)
_cell_angle_gamma                90
_cell_volume                     1767.3
_exptl_crystal_colour            colorless
_exptl_crystal_description       prism
_cell_formula_units_Z            4
loop_
_atom_site_label
_atom_site_type_symbol
_atom_site_fract_x
_atom_site_fract_y
_atom_site_fract_z
C1 C 0.23357(8) 0.13254(8) 0.30997(16)
C2 C 0.28821(8) 0.19170(7) 0.24749(15)
C3 C 0.36289(8) 0.16628(7) 0.16909(15)
C4 C 0.37058(8) 0.07824(8) 0.15468(16)
C5 C 0.31024(9) 0.02576(8) 0.22065(17)
C6 C 0.44872(7) 0.29970(7) 0.21577(14)
H1 H 0.417783 0.299684 0.324416
C7 C 0.42056(8) 0.38018(7) 0.10764(16)
H2 H 0.448020 0.380512 -0.004013
H3 H 0.354520 0.380606 0.071529
C8 C 0.44953(8) 0.45904(7) 0.21824(17)
H4 H 0.432467 0.509745 0.143420
H5 H 0.418102 0.461320 0.324596
C9 C 0.46620(9) 0.20250(8) -0.04304(17)
H6 H 0.521153 0.170676 -0.000128
H7 H 0.481520 0.254766 -0.100975
H8 H 0.426229 0.168436 -0.130855
F1 F 0.16260(5) 0.15978(6) 0.38180(11)
F2 F 0.26626(5) 0.27391(5) 0.25429(10)
F3 F 0.43845(5) 0.04359(5) 0.08404(11)
F4 F 0.32178(6) -0.05788(5) 0.20826(12)
N1 N 0.24326(8) 0.05059(7) 0.29945(14)
N2 N 0.42087(7) 0.22289(6) 0.11072(14)
C1A C 0.76643(8) 0.13254(8) 0.19003(16)
C2A C 0.71179(8) 0.19170(7) 0.25251(15)
C3A C 0.63711(8) 0.16628(7) 0.33091(15)
C4A C 0.62942(8) 0.07824(8) 0.34532(16)
C5A C 0.68976(9) 0.02576(8) 0.27935(17)
C6A C 0.55128(7) 0.29970(7) 0.28423(14)
H1A H 0.582217 0.299684 0.175584
C7A C 0.57944(8) 0.38018(7) 0.39236(16)
H2A H 0.551980 0.380512 0.504013
H3A H 0.645480 0.380606 0.428471
C8A C 0.55047(8) 0.45904(7) 0.28176(17)
H4A H 0.567533 0.509745 0.356580
H5A H 0.581898 0.461320 0.175404
C9A C 0.53380(9) 0.20250(8) 0.54304(17)
H6A H 0.478847 0.170676 0.500128
H7A H 0.518480 0.254766 0.600975
H8A H 0.573771 0.168436 0.630855
F1A F 0.83740(5) 0.15978(6) 0.11820(11)
F2A F 0.73374(5) 0.27391(5) 0.24571(10)
F3A F 0.56155(5) 0.04359(5) 0.41596(11)
F4A F 0.67822(6) -0.05788(5) 0.29174(12)
N1A N 0.75674(8) 0.05059(7) 0.20055(14)
N2A N 0.57913(7) 0.22289(6) 0.38928(14)
loop_
_geom_bond_atom_site_label_1
_geom_bond_atom_site_label_2
_geom_bond_site_symmetry_1
_geom_bond_site_symmetry_2
C1 C2 1_555 1_555
C2 C3 1_555 1_555
C3 C4 1_555 1_555
C4 C5 1_555 1_555
C5 F4 1_555 1_555
C6 H1 1_555 1_555
C7 C6 1_555 1_555
H2 C7 1_555 1_555
H3 C7 1_555 1_555
C8 C7 1_555 1_555
H4 C8 1_555 1_555
H5 C8 1_555 1_555
C9 H6 1_555 1_555
H7 C9 1_555 1_555
H8 C9 1_555 1_555
F1 C1 1_555 1_555
F2 C2 1_555 1_555
F3 C4 1_555 1_555
N1 C1 1_555 1_555
N2 C3 1_555 1_555
C1A C2A 1_555 1_555
C2A C3A 1_555 1_555
C3A C4A 1_555 1_555
C4A C5A 1_555 1_555
C5A F4A 1_555 1_555
C6A C6 1_555 1_555
H1A C6A 1_555 1_555
C7A C6A 1_555 1_555
H2A C7A 1_555 1_555
H3A C7A 1_555 1_555
C8A C8 1_555 1_555
H4A C8A 1_555 1_555
H5A C8A 1_555 1_555
C9A H6A 1_555 1_555
H7A C9A 1_555 1_555
H8A C9A 1_555 1_555
F1A C1A 1_555 1_555
F2A C2A 1_555 1_555
F3A C4A 1_555 1_555
N1A C1A 1_555 1_555
N2A C3A 1_555 1_555
C5 N1 1_555 1_555
C6 N2 1_555 1_555
C9 N2 1_555 1_555
C5A N1A 1_555 1_555
C6A N2A 1_555 1_555
C7A C8A 1_555 1_555
C9A N2A 1_555 1_555

#END
