
#######################################################################
#
#                 Cambridge Crystallographic Data Centre
#                                CCDC 
#
#######################################################################
#
# If this CIF has been generated from an entry in the Cambridge 
# Structural Database, then it will include bibliographic, chemical, 
# crystal, experimental, refinement or atomic coordinate data resulting 
# from the CCDC's data processing and validation procedures.
#
#######################################################################

data_JIGHIT
_chemical_formula_moiety         'C39 H62 N1 O2 P1 S1'
_chemical_name_systematic        
N-{(3,5-di-t-butyl-4-methoxyphenyl)[2-(dicyclohexylphosphanyl)phenyl]methyl}-N,2-dimethylpropane-2-sulfinamide
_symmetry_cell_setting           orthorhombic
_symmetry_space_group_name_H-M   'P 21 21 21'
_symmetry_Int_Tables_number      19
_space_group_name_Hall           'P 2ac 2ab'
loop_
_symmetry_equiv_pos_site_id
_symmetry_equiv_pos_as_xyz
1 x,y,z
2 1/2-x,-y,1/2+z
3 -x,1/2+y,1/2-z
4 1/2+x,1/2-y,-z
_cell_length_a                   9.4448(2)
_cell_length_b                   19.6768(3)
_cell_length_c                   21.2450(3)
_cell_angle_alpha                90
_cell_angle_beta                 90
_cell_angle_gamma                90
_cell_volume                     3948.24
_exptl_crystal_colour            'light colorless'
_exptl_crystal_description       block
_cell_formula_units_Z            4
loop_
_atom_site_label
_atom_site_type_symbol
_atom_site_fract_x
_atom_site_fract_y
_atom_site_fract_z
S1 S 0.64340(15) 0.58318(6) 0.20215(5)
P1 P 0.55463(14) 0.38723(5) 0.33617(5)
O1 O 0.6471(7) 0.6579(2) 0.1998(2)
O2 O 0.1253(4) 0.6340(2) 0.45575(18)
N1 N 0.4754(4) 0.55685(18) 0.20480(17)
C1 C 0.4245(5) 0.3836(2) 0.2713(2)
C2 C 0.3650(6) 0.3217(2) 0.2513(2)
H1 H 0.393000 0.281532 0.270674
C3 C 0.2665(6) 0.3192(3) 0.2037(3)
H2 H 0.226385 0.277889 0.192202
C4 C 0.2273(7) 0.3776(3) 0.1734(2)
H3 H 0.160726 0.376090 0.141158
C5 C 0.2875(6) 0.4386(3) 0.1909(2)
H4 H 0.262015 0.477992 0.169407
C6 C 0.3846(5) 0.4429(2) 0.23944(19)
C7 C 0.3554(5) 0.5465(2) 0.31012(19)
C8 C 0.2127(5) 0.5348(2) 0.3163(2)
H5 H 0.168906 0.505172 0.288298
C9 C 0.1311(5) 0.5655(2) 0.3630(2)
C10 C 0.2025(5) 0.6082(2) 0.4059(2)
C11 C 0.3445(5) 0.6263(2) 0.3975(2)
C12 C 0.4187(5) 0.5930(2) 0.3502(2)
H6 H 0.514594 0.602241 0.345322
C13 C 0.6717(6) 0.3133(2) 0.3180(2)
H7 H 0.614915 0.271671 0.315674
C14 C 0.7836(7) 0.3062(3) 0.3701(3)
H8 H 0.830961 0.349477 0.375868
H9 H 0.736967 0.294613 0.409348
C15 C 0.8932(7) 0.2521(3) 0.3548(3)
H10 H 0.964898 0.251501 0.387521
H11 H 0.847839 0.207851 0.354149
C16 C 0.9620(7) 0.2650(4) 0.2926(4)
H12 H 1.026935 0.228232 0.283101
H13 H 1.016399 0.306799 0.294830
C17 C 0.8544(8) 0.2708(4) 0.2406(4)
H14 H 0.806453 0.227522 0.235548
H15 H 0.902470 0.281092 0.201344
C18 C 0.7455(7) 0.3259(3) 0.2542(3)
H16 H 0.675184 0.326506 0.220886
H17 H 0.791893 0.369862 0.254891
C19 C 0.4558(6) 0.3586(2) 0.4068(2)
H18 H 0.527760 0.349099 0.438853
C20 C 0.3652(9) 0.4179(3) 0.4335(3)
H19 H 0.424443 0.457745 0.438961
H20 H 0.290946 0.429220 0.403742
C21 C 0.2989(10) 0.3984(3) 0.4967(3)
H21 H 0.373672 0.392849 0.527562
H22 H 0.238492 0.435284 0.510750
C22 C 0.2166(8) 0.3368(4) 0.4940(4)
H23 H 0.133027 0.344512 0.468433
H24 H 0.185385 0.324970 0.536107
C23 C 0.3001(11) 0.2777(4) 0.4666(4)
H25 H 0.374967 0.265182 0.495632
H26 H 0.237981 0.238824 0.461772
C24 C 0.3648(11) 0.2953(3) 0.4032(3)
H27 H 0.422128 0.257466 0.388727
H28 H 0.289703 0.302396 0.372719
C25 C -0.0309(6) 0.5548(3) 0.3621(3)
C26 C -0.1005(8) 0.6221(5) 0.3495(5)
H29 H -0.090476 0.650863 0.385794
H30 H -0.199174 0.615197 0.340864
H31 H -0.056225 0.643368 0.313926
C27 C -0.0750(8) 0.5071(4) 0.3086(4)
H32 H -0.058833 0.529051 0.268895
H33 H -0.173682 0.496277 0.312675
H34 H -0.020110 0.466121 0.310746
C28 C -0.0858(9) 0.5218(5) 0.4229(4)
H35 H -0.025802 0.484329 0.434024
H36 H -0.180657 0.505775 0.416386
H37 H -0.085229 0.554747 0.456234
C29 C 0.4263(10) 0.6806(4) 0.4360(4)
C30 C 0.3364(10) 0.7311(5) 0.4699(5)
H38 H 0.283525 0.757323 0.439901
H39 H 0.395737 0.760831 0.494177
H40 H 0.272254 0.707708 0.497418
C31 C 0.5317(9) 0.7170(4) 0.3956(4)
H41 H 0.609654 0.687294 0.386498
H42 H 0.565683 0.756525 0.417343
H43 H 0.487262 0.730598 0.356904
C32 C 0.5238(10) 0.6398(5) 0.4845(4)
H44 H 0.588395 0.611362 0.461676
H45 H 0.465285 0.612187 0.511163
H46 H 0.576191 0.671445 0.509830
C33 C 0.1412(8) 0.5976(4) 0.5131(3)
H47 H 0.104883 0.552326 0.507977
H48 H 0.089891 0.620293 0.545895
H49 H 0.239730 0.595410 0.524065
C34 C 0.4455(5) 0.51231(19) 0.25953(19)
H50 H 0.537242 0.502768 0.279142
C35 C 0.3656(7) 0.6052(3) 0.1839(3)
H51 H 0.409506 0.642272 0.161954
H52 H 0.315373 0.622242 0.219830
H53 H 0.300647 0.582445 0.156242
C36 C 0.7032(7) 0.5544(3) 0.1233(3)
C37 C 0.6913(10) 0.4772(4) 0.1239(4)
H54 H 0.745355 0.459262 0.158408
H55 H 0.727191 0.459212 0.085061
H56 H 0.593787 0.464376 0.128705
C38 C 0.8519(10) 0.5811(6) 0.1180(4)
H57 H 0.849674 0.629762 0.115070
H58 H 0.895754 0.562682 0.080931
H59 H 0.905091 0.567857 0.154449
C39 C 0.6107(9) 0.5861(4) 0.0718(3)
H60 H 0.514627 0.571128 0.076950
H61 H 0.644912 0.572177 0.031241
H62 H 0.614619 0.634683 0.074968
loop_
_geom_bond_atom_site_label_1
_geom_bond_atom_site_label_2
_geom_bond_site_symmetry_1
_geom_bond_site_symmetry_2
S1 O1 1_555 1_555
P1 C1 1_555 1_555
O2 C10 1_555 1_555
N1 S1 1_555 1_555
C1 C2 1_555 1_555
C2 H1 1_555 1_555
C3 C2 1_555 1_555
H2 C3 1_555 1_555
C4 C3 1_555 1_555
H3 C4 1_555 1_555
C5 C4 1_555 1_555
H4 C5 1_555 1_555
C6 C1 1_555 1_555
C7 C8 1_555 1_555
C8 H5 1_555 1_555
C9 C8 1_555 1_555
C10 C9 1_555 1_555
C11 C10 1_555 1_555
C12 C7 1_555 1_555
H6 C12 1_555 1_555
C13 P1 1_555 1_555
H7 C13 1_555 1_555
C14 C13 1_555 1_555
H8 C14 1_555 1_555
H9 C14 1_555 1_555
C15 C14 1_555 1_555
H10 C15 1_555 1_555
H11 C15 1_555 1_555
C16 C15 1_555 1_555
H12 C16 1_555 1_555
H13 C16 1_555 1_555
C17 C16 1_555 1_555
H14 C17 1_555 1_555
H15 C17 1_555 1_555
C18 C13 1_555 1_555
H16 C18 1_555 1_555
H17 C18 1_555 1_555
C19 P1 1_555 1_555
H18 C19 1_555 1_555
C20 C19 1_555 1_555
H19 C20 1_555 1_555
H20 C20 1_555 1_555
C21 C20 1_555 1_555
H21 C21 1_555 1_555
H22 C21 1_555 1_555
C22 C21 1_555 1_555
H23 C22 1_555 1_555
H24 C22 1_555 1_555
C23 C22 1_555 1_555
H25 C23 1_555 1_555
H26 C23 1_555 1_555
C24 C19 1_555 1_555
H27 C24 1_555 1_555
H28 C24 1_555 1_555
C25 C9 1_555 1_555
C26 C25 1_555 1_555
H29 C26 1_555 1_555
H30 C26 1_555 1_555
H31 C26 1_555 1_555
C27 C25 1_555 1_555
H32 C27 1_555 1_555
H33 C27 1_555 1_555
H34 C27 1_555 1_555
C28 C25 1_555 1_555
H35 C28 1_555 1_555
H36 C28 1_555 1_555
H37 C28 1_555 1_555
C29 C11 1_555 1_555
C30 C29 1_555 1_555
H38 C30 1_555 1_555
H39 C30 1_555 1_555
H40 C30 1_555 1_555
C31 C29 1_555 1_555
H41 C31 1_555 1_555
H42 C31 1_555 1_555
H43 C31 1_555 1_555
C32 C29 1_555 1_555
H44 C32 1_555 1_555
H45 C32 1_555 1_555
H46 C32 1_555 1_555
C33 O2 1_555 1_555
H47 C33 1_555 1_555
H48 C33 1_555 1_555
H49 C33 1_555 1_555
C34 N1 1_555 1_555
H50 C34 1_555 1_555
C35 N1 1_555 1_555
H51 C35 1_555 1_555
H52 C35 1_555 1_555
H53 C35 1_555 1_555
C36 S1 1_555 1_555
C37 C36 1_555 1_555
H54 C37 1_555 1_555
H55 C37 1_555 1_555
H56 C37 1_555 1_555
C38 C36 1_555 1_555
H57 C38 1_555 1_555
H58 C38 1_555 1_555
H59 C38 1_555 1_555
C39 C36 1_555 1_555
H60 C39 1_555 1_555
H61 C39 1_555 1_555
H62 C39 1_555 1_555
C5 C6 1_555 1_555
C6 C34 1_555 1_555
C7 C34 1_555 1_555
C11 C12 1_555 1_555
C17 C18 1_555 1_555
C23 C24 1_555 1_555

#END
