
#######################################################################
#
#                 Cambridge Crystallographic Data Centre
#                                CCDC 
#
#######################################################################
#
# If this CIF has been generated from an entry in the Cambridge 
# Structural Database, then it will include bibliographic, chemical, 
# crystal, experimental, refinement or atomic coordinate data resulting 
# from the CCDC's data processing and validation procedures.
#
#######################################################################

data_JIHLAQ
_chemical_formula_moiety         'C38 H29 N3 P2'
_chemical_name_systematic        
5-(diphenylphosphino)-1-[2-(diphenylphosphino)phenyl]-4-phenyl-1H-1,2,3-triazole
_symmetry_cell_setting           monoclinic
_symmetry_space_group_name_H-M   'P 21/n'
_symmetry_Int_Tables_number      14
_space_group_name_Hall           '-P 2yn'
loop_
_symmetry_equiv_pos_site_id
_symmetry_equiv_pos_as_xyz
1 x,y,z
2 1/2-x,1/2+y,1/2-z
3 -x,-y,-z
4 1/2+x,1/2-y,1/2+z
_cell_length_a                   15.5170(11)
_cell_length_b                   11.9307(7)
_cell_length_c                   18.3226(15)
_cell_angle_alpha                90
_cell_angle_beta                 111.801(9)
_cell_angle_gamma                90
_cell_volume                     3149.44
_exptl_crystal_colour            colorless
_exptl_crystal_description       prism
_cell_formula_units_Z            4
loop_
_atom_site_label
_atom_site_type_symbol
_atom_site_fract_x
_atom_site_fract_y
_atom_site_fract_z
P1 P 0.53464(5) 0.23432(6) 0.77369(4)
P2 P 0.47157(5) 0.52125(6) 0.67283(4)
N1 N 0.63251(15) 0.45762(17) 0.79004(13)
N2 N 0.64894(17) 0.53199(19) 0.90054(14)
N3 N 0.68729(17) 0.4607(2) 0.86718(14)
C1 C 0.55786(17) 0.5276(2) 0.77312(16)
C2 C 0.57017(18) 0.5757(2) 0.84545(16)
C3 C 0.36880(18) 0.5841(2) 0.68218(17)
C4 C 0.60194(17) 0.1387(2) 0.85280(16)
C5 C 0.51277(17) 0.6310(2) 0.62420(16)
C6 C 0.45754(18) 0.1410(2) 0.69781(17)
C7 C 0.57477(17) 0.7166(2) 0.66311(17)
H1 H 0.5989 0.7197 0.7189
C8 C 0.65132(18) 0.1990(2) 0.68531(17)
H2 H 0.6300 0.1237 0.6787
C9 C 0.47472(19) 0.0281(2) 0.68799(18)
H3 H 0.5302 -0.0060 0.7225
C10 C 0.5572(2) 0.0563(2) 0.87931(17)
H4 H 0.4927 0.0438 0.8520
C11 C 0.65552(18) 0.3808(2) 0.73896(16)
C12 C 0.62154(17) 0.2719(2) 0.73015(16)
C13 C 0.37564(18) 0.1882(2) 0.64582(17)
H5 H 0.3628 0.2650 0.6511
C14 C 0.4115(2) -0.0344(2) 0.62835(19)
H6 H 0.4242 -0.1109 0.6221
C15 C 0.32433(18) 0.6774(2) 0.63867(19)
H7 H 0.3499 0.7133 0.6050
C16 C 0.7118(2) 0.2343(3) 0.64986(18)
H8 H 0.7316 0.1831 0.6196
C17 C 0.3292(2) 0.5319(2) 0.73059(18)
H9 H 0.3573 0.4670 0.7597
C18 C 0.5140(2) 0.6554(3) 0.87022(19)
C19 C 0.4792(2) 0.6273(3) 0.54195(18)
H10 H 0.4376 0.5695 0.5146
C20 C 0.3123(2) 0.1244(3) 0.58620(18)
H11 H 0.2567 0.1576 0.5513
C21 C 0.3303(2) 0.0134(3) 0.57782(18)
H12 H 0.2870 -0.0303 0.5374
C22 C 0.7431(2) 0.3439(3) 0.65864(19)
H13 H 0.7840 0.3682 0.6340
C23 C 0.69641(18) 0.1564(2) 0.89461(17)
H14 H 0.7281 0.2125 0.8775
C24 C 0.71472(19) 0.4183(2) 0.70328(18)
H15 H 0.7356 0.4938 0.7093
C25 C 0.7449(2) 0.0931(2) 0.96105(18)
H16 H 0.8091 0.1064 0.9893
C26 C 0.6990(2) 0.0105(2) 0.98587(18)
H17 H 0.7319 -0.0334 1.0309
C27 C 0.6053(2) -0.0080(2) 0.94502(18)
H18 H 0.5739 -0.0646 0.9619
C28 C 0.2488(2) 0.5749(3) 0.7360(2)
H19 H 0.2228 0.5400 0.7697
C29 C 0.6011(2) 0.7967(3) 0.6206(2)
H20 H 0.6429 0.8547 0.6473
C30 C 0.2430(2) 0.7183(3) 0.6440(2)
H21 H 0.2129 0.7815 0.6136
C31 C 0.5663(2) 0.7922(3) 0.5391(2)
H22 H 0.5839 0.8476 0.5100
C32 C 0.4674(2) 0.7442(2) 0.8223(2)
H23 H 0.4756 0.7581 0.7742
C33 C 0.2061(2) 0.6678(3) 0.6930(2)
H24 H 0.1512 0.6968 0.6974
C34 C 0.5065(2) 0.7076(3) 0.5003(2)
H25 H 0.4838 0.7042 0.4445
C35 C 0.5058(3) 0.6409(4) 0.9424(2)
H26 H 0.5391 0.5828 0.9768
C36 C 0.4088(2) 0.8127(3) 0.8447(3)
H27 H 0.3753 0.8714 0.8111
C37 C 0.4484(4) 0.7119(6) 0.9642(3)
H28 H 0.4432 0.7022 1.0139
C38 C 0.3998(4) 0.7948(5) 0.9159(5)
H29 H 0.3593 0.8408 0.9311
loop_
_geom_bond_atom_site_label_1
_geom_bond_atom_site_label_2
_geom_bond_site_symmetry_1
_geom_bond_site_symmetry_2
P1 C4 1_555 1_555
P2 C1 1_555 1_555
N1 N3 1_555 1_555
N2 N3 1_555 1_555
C1 N1 1_555 1_555
C2 N2 1_555 1_555
C3 P2 1_555 1_555
C4 C10 1_555 1_555
C5 P2 1_555 1_555
C6 P1 1_555 1_555
C7 C5 1_555 1_555
H1 C7 1_555 1_555
C8 H2 1_555 1_555
C9 C6 1_555 1_555
H3 C9 1_555 1_555
C10 H4 1_555 1_555
C11 N1 1_555 1_555
C12 P1 1_555 1_555
C13 C6 1_555 1_555
H5 C13 1_555 1_555
C14 C9 1_555 1_555
H6 C14 1_555 1_555
C15 C3 1_555 1_555
H7 C15 1_555 1_555
C16 C8 1_555 1_555
H8 C16 1_555 1_555
C17 C3 1_555 1_555
H9 C17 1_555 1_555
C18 C2 1_555 1_555
C19 C5 1_555 1_555
H10 C19 1_555 1_555
C20 C13 1_555 1_555
H11 C20 1_555 1_555
C21 C14 1_555 1_555
H12 C21 1_555 1_555
C22 C16 1_555 1_555
H13 C22 1_555 1_555
C23 C4 1_555 1_555
H14 C23 1_555 1_555
C24 C11 1_555 1_555
H15 C24 1_555 1_555
C25 C23 1_555 1_555
H16 C25 1_555 1_555
C26 C25 1_555 1_555
H17 C26 1_555 1_555
C27 C10 1_555 1_555
H18 C27 1_555 1_555
C28 C17 1_555 1_555
H19 C28 1_555 1_555
C29 C7 1_555 1_555
H20 C29 1_555 1_555
C30 C15 1_555 1_555
H21 C30 1_555 1_555
C31 C29 1_555 1_555
H22 C31 1_555 1_555
C32 C18 1_555 1_555
H23 C32 1_555 1_555
C33 C28 1_555 1_555
H24 C33 1_555 1_555
C34 C19 1_555 1_555
H25 C34 1_555 1_555
C35 C18 1_555 1_555
H26 C35 1_555 1_555
C36 C32 1_555 1_555
H27 C36 1_555 1_555
C37 C35 1_555 1_555
H28 C37 1_555 1_555
C38 C36 1_555 1_555
H29 C38 1_555 1_555
C1 C2 1_555 1_555
C8 C12 1_555 1_555
C11 C12 1_555 1_555
C20 C21 1_555 1_555
C22 C24 1_555 1_555
C26 C27 1_555 1_555
C30 C33 1_555 1_555
C31 C34 1_555 1_555
C37 C38 1_555 1_555

#END
