
#######################################################################
#
#                 Cambridge Crystallographic Data Centre
#                                CCDC 
#
#######################################################################
#
# If this CIF has been generated from an entry in the Cambridge 
# Structural Database, then it will include bibliographic, chemical, 
# crystal, experimental, refinement or atomic coordinate data resulting 
# from the CCDC's data processing and validation procedures.
#
#######################################################################

data_JIHNAS
_chemical_formula_moiety         'C12 H8 N2,C6 H6 Cl2 N2 O2 S1,H2 O1'
_chemical_name_systematic        
'4-amino-3,5-dichlorobenzenesulfonamide 1,10-phenanthroline monohydrate'
_symmetry_cell_setting           orthorhombic
_symmetry_space_group_name_H-M   'P 21 21 21'
_symmetry_Int_Tables_number      19
_space_group_name_Hall           'P 2ac 2ab'
loop_
_symmetry_equiv_pos_site_id
_symmetry_equiv_pos_as_xyz
1 x,y,z
2 1/2-x,-y,1/2+z
3 -x,1/2+y,1/2-z
4 1/2+x,1/2-y,-z
_cell_length_a                   7.4187(18)
_cell_length_b                   14.602(4)
_cell_length_c                   17.849(4)
_cell_angle_alpha                90
_cell_angle_beta                 90
_cell_angle_gamma                90
_cell_volume                     1933.54
_exptl_crystal_colour            yellow
_exptl_crystal_description       block
_cell_formula_units_Z            4
loop_
_atom_site_label
_atom_site_type_symbol
_atom_site_fract_x
_atom_site_fract_y
_atom_site_fract_z
C1 C 0.3908(6) 0.0340(3) 0.9556(3)
C2 C 0.4242(7) -0.0498(3) 0.9229(3)
H1 H 0.4619 -0.0994 0.9516
C3 C 0.4005(7) -0.0584(3) 0.8469(3)
C4 C 0.3383(6) 0.0119(3) 0.8011(3)
C5 C 0.3108(6) 0.0954(3) 0.8371(3)
C6 C 0.3348(6) 0.1078(3) 0.9125(3)
H2 H 0.3139 0.1646 0.9344
Cl1 Cl 0.4510(2) -0.16242(9) 0.80430(9)
Cl2 Cl 0.2458(2) 0.18797(10) 0.78285(8)
N1 N 0.3150(6) 0.0017(3) 0.7264(2)
H3 H 0.2831 0.0504 0.6985
H4 H 0.3323 -0.0532 0.7046
N2 N 0.6102(5) 0.1094(3) 1.0608(2)
H5 H 0.6710 0.1277 1.0198
H6 H 0.6508 0.1245 1.1067
O1 O 0.2840(5) 0.1047(3) 1.08162(19)
O2 O 0.4628(6) -0.0381(3) 1.08395(19)
S1 S 0.43052(19) 0.05033(9) 1.05182(6)
C7 C 0.9718(9) 0.9289(5) 1.0576(3)
H7 H 0.9704 0.9499 1.1068
C8 C 1.0340(9) 0.8401(5) 1.0440(4)
H8 H 1.0741 0.8037 1.0834
C9 C 1.0352(9) 0.8079(5) 0.9735(4)
H9 H 1.0756 0.7487 0.9639
C10 C 0.9768(7) 0.8623(4) 0.9151(3)
C11 C 0.9754(7) 0.8338(4) 0.8394(4)
H10 H 1.0124 0.7747 0.8278
C12 C 0.9225(8) 0.8892(4) 0.7839(3)
H11 H 0.9226 0.8680 0.7348
C13 C 0.8663(6) 0.9799(4) 0.7994(3)
C14 C 0.8082(7) 1.0396(5) 0.7429(3)
H12 H 0.8036 1.0199 0.6934
C15 C 0.7592(8) 1.1253(5) 0.7606(3)
H13 H 0.7203 1.1657 0.7238
C16 C 0.7677(8) 1.1524(4) 0.8347(4)
H14 H 0.7327 1.2120 0.8461
C17 C 0.8679(6) 1.0125(4) 0.8730(3)
C18 C 0.9232(7) 0.9522(4) 0.9325(3)
N3 N 0.9153(6) 0.9841(3) 1.0047(2)
N4 N 0.8219(6) 1.0999(3) 0.8903(3)
O3 O 0.9959(5) 0.2107(2) 0.0041(2)
H15 H 0.9185 0.1845 -0.0241
H16 H 1.0349 0.1715 0.0352
loop_
_geom_bond_atom_site_label_1
_geom_bond_atom_site_label_2
_geom_bond_site_symmetry_1
_geom_bond_site_symmetry_2
C1 C2 1_555 1_555
C2 H1 1_555 1_555
C3 C2 1_555 1_555
C4 C3 1_555 1_555
C5 C4 1_555 1_555
C6 C1 1_555 1_555
H2 C6 1_555 1_555
Cl1 C3 1_555 1_555
Cl2 C5 1_555 1_555
N1 C4 1_555 1_555
H3 N1 1_555 1_555
H4 N1 1_555 1_555
N2 H5 1_555 1_555
H6 N2 1_555 1_555
O1 S1 1_555 1_555
O2 S1 1_555 1_555
S1 C1 1_555 1_555
C7 H7 1_555 1_555
C8 C7 1_555 1_555
H8 C8 1_555 1_555
C9 C8 1_555 1_555
H9 C9 1_555 1_555
C10 C9 1_555 1_555
C11 C10 1_555 1_555
H10 C11 1_555 1_555
C12 C11 1_555 1_555
H11 C12 1_555 1_555
C13 C12 1_555 1_555
C14 C13 1_555 1_555
H12 C14 1_555 1_555
C15 C14 1_555 1_555
H13 C15 1_555 1_555
C16 C15 1_555 1_555
H14 C16 1_555 1_555
C17 C13 1_555 1_555
C18 C10 1_555 1_555
N3 C7 1_555 1_555
N4 C16 1_555 1_555
O3 H15 1_555 1_555
H16 O3 1_555 1_555
C5 C6 1_555 1_555
N2 S1 1_555 1_555
C17 C18 1_555 1_555
C17 N4 1_555 1_555
C18 N3 1_555 1_555

#END
