
#######################################################################
#
#                 Cambridge Crystallographic Data Centre
#                                CCDC 
#
#######################################################################
#
# If this CIF has been generated from an entry in the Cambridge 
# Structural Database, then it will include bibliographic, chemical, 
# crystal, experimental, refinement or atomic coordinate data resulting 
# from the CCDC's data processing and validation procedures.
#
#######################################################################

data_JIJFEN
_chemical_formula_moiety         'C12 H14 N2 O4 S1'
_chemical_name_systematic        3-(p-Tosylamido)-2,6-piperidinedione
_symmetry_cell_setting           triclinic
_symmetry_space_group_name_H-M   'P -1'
_symmetry_Int_Tables_number      2
_space_group_name_Hall           '-P 1'
loop_
_symmetry_equiv_pos_site_id
_symmetry_equiv_pos_as_xyz
1 x,y,z
2 -x,-y,-z
_cell_length_a                   7.229(2)
_cell_length_b                   8.7922(9)
_cell_length_c                   11.242(1)
_cell_angle_alpha                70.339(8)
_cell_angle_beta                 71.15(2)
_cell_angle_gamma                87.88(2)
_cell_volume                     634.718
_cell_formula_units_Z            2
loop_
_atom_site_label
_atom_site_type_symbol
_atom_site_fract_x
_atom_site_fract_y
_atom_site_fract_z
S1 S 0.6476(1) 0.28345(9) 0.39276(7)
O1 O 0.6645(3) 0.3775(3) 0.4712(2)
O2 O 0.7798(3) 0.1606(3) 0.3775(2)
O3 O -0.1665(4) 0.1108(3) 0.9263(2)
O4 O 0.4541(3) 0.0473(3) 0.7055(2)
N1 N 0.4251(4) 0.1995(3) 0.4534(2)
N2 N 0.1413(4) 0.0812(3) 0.8114(2)
C1 C 0.7262(5) 0.7524(5) -0.1585(3)
C2 C 0.6686(4) 0.4180(4) 0.2314(3)
C3 C 0.5902(5) 0.5665(4) 0.2186(3)
C4 C 0.6086(5) 0.6734(4) 0.0920(3)
C5 C 0.7012(4) 0.6334(4) -0.0207(3)
C6 C 0.7721(5) 0.4825(4) -0.0046(3)
C7 C 0.7569(5) 0.3735(4) 0.1209(3)
C8 C 0.2809(4) 0.2227(4) 0.5689(3)
C9 C 0.0737(4) 0.2064(4) 0.5675(3)
C10 C -0.0701(5) 0.2348(5) 0.6892(3)
C11 C -0.0399(5) 0.1385(4) 0.8186(3)
C12 C 0.3038(4) 0.1083(3) 0.6983(3)
loop_
_geom_bond_atom_site_label_1
_geom_bond_atom_site_label_2
_geom_bond_site_symmetry_1
_geom_bond_site_symmetry_2
S1 O1 1_555 1_555
O2 S1 1_555 1_555
O3 C11 1_555 1_555
O4 C12 1_555 1_555
N1 S1 1_555 1_555
N2 C11 1_555 1_555
C1 C5 1_555 1_555
C2 S1 1_555 1_555
C3 C2 1_555 1_555
C4 C3 1_555 1_555
C5 C4 1_555 1_555
C6 C5 1_555 1_555
C7 C2 1_555 1_555
C8 N1 1_555 1_555
C9 C8 1_555 1_555
C10 C9 1_555 1_555
C11 C10 1_555 1_555
C12 N2 1_555 1_555
C6 C7 1_555 1_555
C8 C12 1_555 1_555

#END
