
#######################################################################
#
#                 Cambridge Crystallographic Data Centre
#                                CCDC 
#
#######################################################################
#
# If this CIF has been generated from an entry in the Cambridge 
# Structural Database, then it will include bibliographic, chemical, 
# crystal, experimental, refinement or atomic coordinate data resulting 
# from the CCDC's data processing and validation procedures.
#
#######################################################################

data_JIJHOC
_chemical_formula_moiety         'C26 H18 Cl1 N3 O7 S1,H2 O1'
_chemical_name_systematic        
"1-acetyl-5'-chloro-9'-[(4-nitrophenyl)sulfonyl]-4',9'-dihydro-2'H-spiro[indole-3,3'-pyrano[2,3-b]indol]-2(1H)-one monohydrate"
_symmetry_cell_setting           triclinic
_symmetry_space_group_name_H-M   'P -1'
_symmetry_Int_Tables_number      2
_space_group_name_Hall           '-P 1'
loop_
_symmetry_equiv_pos_site_id
_symmetry_equiv_pos_as_xyz
1 x,y,z
2 -x,-y,-z
_cell_length_a                   5.6165(18)
_cell_length_b                   13.983(2)
_cell_length_c                   16.7686(17)
_cell_angle_alpha                65.52(3)
_cell_angle_beta                 88.60(3)
_cell_angle_gamma                86.77(3)
_cell_volume                     1196.64
_exptl_crystal_colour            yellow
_exptl_crystal_description       needle-like
_cell_formula_units_Z            2
loop_
_atom_site_label
_atom_site_type_symbol
_atom_site_fract_x
_atom_site_fract_y
_atom_site_fract_z
S1 S 0.6026(3) 0.12505(15) 0.12453(11)
Cl1 Cl -0.2538(3) -0.00938(13) 0.41259(10)
C1 C 0.0210(13) 0.2452(6) -0.0710(4)
C2 C 0.1256(13) 0.3142(5) -0.0478(4)
H1 H 0.0747 0.3849 -0.0714
C3 C 0.3119(12) 0.2770(6) 0.0123(4)
H2 H 0.3896 0.3217 0.0302
C4 C 0.3767(11) 0.1715(6) 0.0442(4)
C5 C 0.2753(12) 0.1041(5) 0.0161(4)
H3 H 0.3307 0.0341 0.0360
C6 C 0.0891(13) 0.1428(6) -0.0424(4)
H4 H 0.0123 0.0991 -0.0617
C7 C 0.3004(12) 0.0113(6) 0.2567(4)
C8 C 0.3301(12) -0.0859(6) 0.2551(4)
H5 H 0.4538 -0.1032 0.2248
C9 C 0.1613(14) -0.1562(5) 0.3022(4)
H6 H 0.1706 -0.2228 0.3023
C10 C -0.0183(12) -0.1325(5) 0.3485(4)
H7 H -0.1284 -0.1823 0.3787
C11 C -0.0362(10) -0.0346(5) 0.3504(4)
C12 C 0.1228(11) 0.0398(5) 0.3007(4)
C13 C 0.1458(10) 0.1481(5) 0.2860(3)
C14 C 0.3336(11) 0.1796(5) 0.2351(4)
C15 C 0.2593(10) 0.3543(4) 0.2076(3)
H8 H 0.1444 0.3710 0.1609
H9 H 0.3415 0.4178 0.1968
C16 C 0.1262(9) 0.3205(4) 0.2952(4)
C17 C -0.0023(9) 0.2195(4) 0.3146(3)
H10 H -0.0337 0.1844 0.3770
H11 H -0.1540 0.2368 0.2841
C18 C -0.0459(12) 0.4127(5) 0.2849(4)
C19 C 0.2844(10) 0.3139(5) 0.3687(4)
C20 C 0.2259(10) 0.3929(5) 0.3936(4)
C21 C 0.3432(12) 0.4066(5) 0.4592(4)
H12 H 0.3009 0.4612 0.4757
C22 C 0.5268(12) 0.3341(5) 0.4986(4)
H13 H 0.6138 0.3410 0.5422
C23 C 0.5861(11) 0.2532(5) 0.4764(4)
H14 H 0.7100 0.2053 0.5056
C24 C 0.4640(10) 0.2410(4) 0.4105(4)
H15 H 0.5029 0.1852 0.3953
C25 C -0.0635(13) 0.5530(5) 0.3422(4)
N1 N -0.1885(12) 0.2841(6) -0.1304(4)
N2 N 0.4481(8) 0.0993(4) 0.2167(3)
N3 N 0.0254(8) 0.4555(4) 0.3418(3)
O1 O -0.3102(10) 0.2196(4) -0.1388(3)
O2 O -0.2319(9) 0.3789(5) -0.1648(3)
O3 O 0.6962(7) 0.0264(3) 0.1298(2)
O4 O 0.7573(7) 0.2076(3) 0.1144(2)
O5 O 0.4291(6) 0.2751(3) 0.2053(2)
O6 O -0.2097(7) 0.4428(3) 0.2350(3)
C26 C -0.2882(10) 0.6015(4) 0.2949(4)
H16 H -0.3268 0.6664 0.3002
H17 H -0.4145 0.5543 0.3197
H18 H -0.2691 0.6152 0.2342
O7 O 0.0434(9) 0.5885(4) 0.3833(3)
O8 O 0.7344(19) 0.4571(5) 0.0378(4)
H19 H 0.72(2) 0.3881(19) 0.062(5)
H20 H 0.74(2) 0.470(7) 0.084(4)
loop_
_geom_bond_atom_site_label_1
_geom_bond_atom_site_label_2
_geom_bond_site_symmetry_1
_geom_bond_site_symmetry_2
S1 C4 1_555 1_555
Cl1 C11 1_555 1_555
C1 C2 1_555 1_555
C2 H1 1_555 1_555
C3 C2 1_555 1_555
H2 C3 1_555 1_555
C4 C3 1_555 1_555
C5 C4 1_555 1_555
H3 C5 1_555 1_555
C6 C1 1_555 1_555
H4 C6 1_555 1_555
C7 C8 1_555 1_555
C8 H5 1_555 1_555
C9 C8 1_555 1_555
H6 C9 1_555 1_555
C10 C9 1_555 1_555
H7 C10 1_555 1_555
C11 C10 1_555 1_555
C12 C7 1_555 1_555
C13 C12 1_555 1_555
C14 C13 1_555 1_555
C15 H8 1_555 1_555
H9 C15 1_555 1_555
C16 C15 1_555 1_555
C17 C13 1_555 1_555
H10 C17 1_555 1_555
H11 C17 1_555 1_555
C18 C16 1_555 1_555
C19 C16 1_555 1_555
C20 C19 1_555 1_555
C21 C20 1_555 1_555
H12 C21 1_555 1_555
C22 C21 1_555 1_555
H13 C22 1_555 1_555
C23 C22 1_555 1_555
H14 C23 1_555 1_555
C24 C19 1_555 1_555
H15 C24 1_555 1_555
C25 N3 1_555 1_555
N1 C1 1_555 1_555
N2 S1 1_555 1_555
N3 C18 1_555 1_555
O1 N1 1_555 1_555
O2 N1 1_555 1_555
O3 S1 1_555 1_555
O4 S1 1_555 1_555
O5 C14 1_555 1_555
O6 C18 1_555 1_555
C26 C25 1_555 1_555
H16 C26 1_555 1_555
H17 C26 1_555 1_555
H18 C26 1_555 1_555
O7 C25 1_555 1_555
O8 H19 1_555 1_555
H20 O8 1_555 1_555
C5 C6 1_555 1_555
C7 N2 1_555 1_555
C11 C12 1_555 1_555
C14 N2 1_555 1_555
C15 O5 1_555 1_555
C16 C17 1_555 1_555
C20 N3 1_555 1_555
C23 C24 1_555 1_555

#END
