
#######################################################################
#
#                 Cambridge Crystallographic Data Centre
#                                CCDC 
#
#######################################################################
#
# If this CIF has been generated from an entry in the Cambridge 
# Structural Database, then it will include bibliographic, chemical, 
# crystal, experimental, refinement or atomic coordinate data resulting 
# from the CCDC's data processing and validation procedures.
#
#######################################################################

data_JIJHUI
_chemical_formula_moiety         'C20 H20 N2 O2'
_chemical_name_systematic        
N-hydroxy-1-[(4-methoxy-1H-indol-3-yl)methyl]-3,4-dihydronaphthalen-2(1H)-imine
_symmetry_cell_setting           monoclinic
_symmetry_space_group_name_H-M   'P 21/c'
_symmetry_Int_Tables_number      14
_space_group_name_Hall           '-P 2ybc'
loop_
_symmetry_equiv_pos_site_id
_symmetry_equiv_pos_as_xyz
1 x,y,z
2 -x,1/2+y,1/2-z
3 -x,-y,-z
4 x,1/2-y,1/2+z
_cell_length_a                   12.761(2)
_cell_length_b                   5.4290(10)
_cell_length_c                   27.3250(10)
_cell_angle_alpha                90
_cell_angle_beta                 117.22(3)
_cell_angle_gamma                90
_cell_volume                     1683.42
_exptl_crystal_colour            yellow
_exptl_crystal_description       block
_cell_formula_units_Z            4
loop_
_atom_site_label
_atom_site_type_symbol
_atom_site_fract_x
_atom_site_fract_y
_atom_site_fract_z
O1 O 0.3520(2) 0.0497(5) -0.03916(9)
H1 H 0.3959 -0.0136 -0.0501
O2 O 0.6121(2) -0.0718(5) 0.20917(9)
N1 N 0.3969(2) 0.0072(5) 0.01792(10)
N2 N 0.6870(3) 0.5010(6) 0.10781(11)
H2 H 0.7182 0.5940 0.0925
C1 C 0.3314(3) 0.1011(6) 0.03610(13)
C2 C 0.2240(3) 0.2429(8) 0.00188(14)
H3 H 0.1733 0.1434 -0.0296
H4 H 0.2460 0.3883 -0.0119
C3 C 0.1552(3) 0.3224(8) 0.03192(15)
H5 H 0.1857 0.4792 0.0498
H6 H 0.0734 0.3466 0.0053
C4 C 0.1613(3) 0.1400(7) 0.07411(15)
C5 C 0.2652(3) 0.0143(6) 0.10508(13)
C6 C 0.3694(3) 0.0669(6) 0.09605(12)
H7 H 0.4228 -0.0747 0.1090
C7 C 0.2715(3) -0.1489(7) 0.14448(14)
H8 H 0.3417 -0.2320 0.1655
C8 C 0.1746(4) -0.1913(8) 0.15327(16)
H9 H 0.1798 -0.3037 0.1800
C9 C 0.0710(4) -0.0685(10) 0.12283(19)
H10 H 0.0057 -0.0966 0.1287
C10 C 0.0652(3) 0.0951(9) 0.08395(18)
H11 H -0.0049 0.1792 0.0634
C11 C 0.4359(3) 0.2956(7) 0.12847(13)
H12 H 0.3863 0.4391 0.1131
H13 H 0.4497 0.2785 0.1663
C12 C 0.5500(3) 0.3385(6) 0.12825(13)
C13 C 0.5715(3) 0.5102(7) 0.09824(13)
H14 H 0.5156 0.6200 0.0743
C14 C 0.7442(3) 0.3206(7) 0.14544(14)
C15 C 0.6604(3) 0.2134(6) 0.15844(12)
C16 C 0.6969(3) 0.0217(7) 0.19695(13)
C17 C 0.8119(3) -0.0568(7) 0.21884(14)
H15 H 0.8370 -0.1869 0.2437
C18 C 0.8911(3) 0.0564(9) 0.20415(16)
H16 H 0.9686 0.0004 0.2200
C19 C 0.8602(3) 0.2450(8) 0.16771(16)
H17 H 0.9141 0.3193 0.1582
C20 C 0.6426(3) -0.2724(7) 0.24625(14)
H18 H 0.5753 -0.3200 0.2509
H19 H 0.7055 -0.2244 0.2812
H20 H 0.6676 -0.4088 0.2318
loop_
_geom_bond_atom_site_label_1
_geom_bond_atom_site_label_2
_geom_bond_site_symmetry_1
_geom_bond_site_symmetry_2
O1 H1 1_555 1_555
O2 C16 1_555 1_555
N1 O1 1_555 1_555
N2 H2 1_555 1_555
C1 N1 1_555 1_555
C2 C1 1_555 1_555
H3 C2 1_555 1_555
H4 C2 1_555 1_555
C3 C2 1_555 1_555
H5 C3 1_555 1_555
H6 C3 1_555 1_555
C4 C3 1_555 1_555
C5 C4 1_555 1_555
C6 C1 1_555 1_555
H7 C6 1_555 1_555
C7 C5 1_555 1_555
H8 C7 1_555 1_555
C8 C7 1_555 1_555
H9 C8 1_555 1_555
C9 C8 1_555 1_555
H10 C9 1_555 1_555
C10 C4 1_555 1_555
H11 C10 1_555 1_555
C11 C6 1_555 1_555
H12 C11 1_555 1_555
H13 C11 1_555 1_555
C12 C11 1_555 1_555
C13 N2 1_555 1_555
H14 C13 1_555 1_555
C14 N2 1_555 1_555
C15 C12 1_555 1_555
C16 C15 1_555 1_555
C17 C16 1_555 1_555
H15 C17 1_555 1_555
C18 C17 1_555 1_555
H16 C18 1_555 1_555
C19 C14 1_555 1_555
H17 C19 1_555 1_555
C20 O2 1_555 1_555
H18 C20 1_555 1_555
H19 C20 1_555 1_555
H20 C20 1_555 1_555
C5 C6 1_555 1_555
C9 C10 1_555 1_555
C12 C13 1_555 1_555
C14 C15 1_555 1_555
C18 C19 1_555 1_555

#END
