
#######################################################################
#
#                 Cambridge Crystallographic Data Centre
#                                CCDC 
#
#######################################################################
#
# If this CIF has been generated from an entry in the Cambridge 
# Structural Database, then it will include bibliographic, chemical, 
# crystal, experimental, refinement or atomic coordinate data resulting 
# from the CCDC's data processing and validation procedures.
#
#######################################################################

data_JIJSED
_chemical_formula_moiety         'C22 H20 F6 N2'
_chemical_name_systematic        
10-(trifluoromethyl)-1-[4-(trifluoromethyl)phenyl]-2,3,3a,3b,4,5,6,11b-octahydro-1H-dipyrrolo[1,2-a:3',2'-c]quinoline
_symmetry_cell_setting           monoclinic
_symmetry_space_group_name_H-M   'P 21/c'
_symmetry_Int_Tables_number      14
_space_group_name_Hall           '-P 2ybc'
loop_
_symmetry_equiv_pos_site_id
_symmetry_equiv_pos_as_xyz
1 x,y,z
2 -x,1/2+y,1/2-z
3 -x,-y,-z
4 x,1/2-y,1/2+z
_cell_length_a                   9.6136(7)
_cell_length_b                   15.5641(12)
_cell_length_c                   13.7093(11)
_cell_angle_alpha                90
_cell_angle_beta                 104.355(2)
_cell_angle_gamma                90
_cell_volume                     1987.24
_exptl_crystal_colour            'whiteish colorless'
_exptl_crystal_description       rhombohedral
_cell_formula_units_Z            4
loop_
_atom_site_label
_atom_site_type_symbol
_atom_site_fract_x
_atom_site_fract_y
_atom_site_fract_z
F1 F -0.7034(6) 0.7027(4) -0.3266(4)
F2 F -0.5891(9) 0.5922(3) -0.2763(10)
F3 F -0.6591(8) 0.3083(5) -0.6601(5)
F4 F -0.5082(8) 0.2811(7) -0.5225(5)
F5 F -0.6639(9) 0.1909(4) -0.5931(5)
F6 F -0.5828(11) 0.7009(9) -0.1814(5)
N1 N -1.0439(2) 0.40818(12) -0.36713(14)
N2 N -1.1414(2) 0.52297(13) -0.12515(16)
C1 C -0.8454(2) 0.53693(14) -0.24708(16)
H1 H -0.8030 0.5045 -0.2888
C2 C -0.9621(2) 0.50379(13) -0.21859(15)
C3 C -1.0242(2) 0.41644(14) -0.25827(17)
H2 H -0.9628 0.3700 -0.2232
C4 C -1.0270(2) 0.55342(14) -0.15552(17)
C5 C -0.8090(3) 0.34812(14) -0.36189(17)
H3 H -0.7820 0.3523 -0.2921
C6 C -0.9820(3) 0.36452(15) -0.51950(18)
H4 H -1.0730 0.3801 -0.5568
C7 C -0.9471(2) 0.37409(13) -0.41406(16)
C8 C -0.8544(3) 0.66646(15) -0.15576(18)
H5 H -0.8183 0.7207 -0.1349
C9 C -0.9717(3) 0.63617(15) -0.12713(18)
H6 H -1.0158 0.6707 -0.0883
C10 C -0.7890(2) 0.61715(14) -0.21558(17)
C11 C -0.8848(3) 0.33274(16) -0.56824(18)
H7 H -0.9114 0.3268 -0.6379
C12 C -0.7130(3) 0.31656(15) -0.41226(18)
H8 H -0.6222 0.2996 -0.3758
C13 C -0.7484(3) 0.30939(15) -0.51617(18)
C14 C -1.1913(3) 0.42860(17) -0.42134(19)
H9 H -1.2373 0.3793 -0.4593
H10 H -1.1933 0.4763 -0.4672
C15 C -1.1927(3) 0.43537(16) -0.1448(2)
H11 H -1.1346 0.3979 -0.0929
C16 C -1.1773(3) 0.40566(16) -0.2463(2)
H12 H -1.2019 0.3445 -0.2533
C17 C -1.2202(3) 0.57075(18) -0.0651(2)
H13 H -1.2681 0.6201 -0.1019
H14 H -1.1566 0.5903 -0.0026
C18 C -1.2654(3) 0.45242(18) -0.3395(2)
H15 H -1.3643 0.4330 -0.3565
H16 H -1.2634 0.5141 -0.3288
C19 C -0.6631(3) 0.64939(18) -0.2479(2)
C20 C -0.6439(4) 0.2761(2) -0.5698(2)
C21 C -1.3287(3) 0.5065(2) -0.0450(2)
H17 H -1.2941 0.4799 0.0205
H18 H -1.4200 0.5342 -0.0477
C22 C -1.3434(3) 0.4408(2) -0.1285(3)
H19 H -1.4119 0.4598 -0.1892
H20 H -1.3739 0.3857 -0.1082
F7? F -0.5392(9) 0.6405(17) -0.1774(11)
F8? F -0.597(3) 0.2020(13) -0.540(2)
F9? F -0.6242(19) 0.6001(11) -0.3171(12)
F10? F -0.530(2) 0.3305(18) -0.546(2)
F11? F -0.660(2) 0.7235(8) -0.280(3)
F12? F -0.675(2) 0.2861(15) -0.6639(9)
loop_
_geom_bond_atom_site_label_1
_geom_bond_atom_site_label_2
_geom_bond_site_symmetry_1
_geom_bond_site_symmetry_2
F1 C19 1_555 1_555
F2 C19 1_555 1_555
F3 C20 1_555 1_555
F4 C20 1_555 1_555
F5 C20 1_555 1_555
F6 C19 1_555 1_555
N1 C3 1_555 1_555
N2 C4 1_555 1_555
C1 H1 1_555 1_555
C2 C1 1_555 1_555
C3 C2 1_555 1_555
H2 C3 1_555 1_555
C4 C2 1_555 1_555
C5 H3 1_555 1_555
C6 H4 1_555 1_555
C7 N1 1_555 1_555
C8 H5 1_555 1_555
C9 C4 1_555 1_555
H6 C9 1_555 1_555
C10 C1 1_555 1_555
C11 C6 1_555 1_555
H7 C11 1_555 1_555
C12 C5 1_555 1_555
H8 C12 1_555 1_555
C13 C11 1_555 1_555
C14 N1 1_555 1_555
H9 C14 1_555 1_555
H10 C14 1_555 1_555
C15 N2 1_555 1_555
H11 C15 1_555 1_555
C16 C3 1_555 1_555
H12 C16 1_555 1_555
C17 N2 1_555 1_555
H13 C17 1_555 1_555
H14 C17 1_555 1_555
C18 C14 1_555 1_555
H15 C18 1_555 1_555
H16 C18 1_555 1_555
C19 C10 1_555 1_555
C20 C13 1_555 1_555
C21 C17 1_555 1_555
H17 C21 1_555 1_555
H18 C21 1_555 1_555
C22 C15 1_555 1_555
H19 C22 1_555 1_555
H20 C22 1_555 1_555
C5 C7 1_555 1_555
C6 C7 1_555 1_555
C8 C9 1_555 1_555
C8 C10 1_555 1_555
C12 C13 1_555 1_555
C15 C16 1_555 1_555
C16 C18 1_555 1_555
C21 C22 1_555 1_555

#END
