
#######################################################################
#
#                 Cambridge Crystallographic Data Centre
#                                CCDC 
#
#######################################################################
#
# If this CIF has been generated from an entry in the Cambridge 
# Structural Database, then it will include bibliographic, chemical, 
# crystal, experimental, refinement or atomic coordinate data resulting 
# from the CCDC's data processing and validation procedures.
#
#######################################################################

data_JIJWOR
_chemical_formula_moiety         'C29 H24 N2 O2'
_chemical_name_systematic        
N-[5-methylidene-2-(naphthalen-2-yl)-3-nitrocyclopentyl]-1,1-diphenylmethanimine
_symmetry_cell_setting           monoclinic
_symmetry_space_group_name_H-M   'P 21'
_symmetry_Int_Tables_number      4
_space_group_name_Hall           'P 2yb'
loop_
_symmetry_equiv_pos_site_id
_symmetry_equiv_pos_as_xyz
1 x,y,z
2 -x,1/2+y,-z
_cell_length_a                   10.5498(12)
_cell_length_b                   7.8114(9)
_cell_length_c                   14.3561(16)
_cell_angle_alpha                90
_cell_angle_beta                 100.407(5)
_cell_angle_gamma                90
_cell_volume                     1163.61
_exptl_crystal_colour            colorless
_exptl_crystal_description       block
_cell_formula_units_Z            2
loop_
_atom_site_label
_atom_site_type_symbol
_atom_site_fract_x
_atom_site_fract_y
_atom_site_fract_z
O1 O -0.09867(17) 0.3412(3) 0.42136(15)
O2 O 0.0204(2) 0.4860(3) 0.53165(14)
N1 N 0.31152(16) 0.2985(2) 0.30667(12)
N2 N 0.0065(2) 0.3916(3) 0.46305(14)
C1 C 0.0688(2) 0.4807(3) 0.21408(15)
H1 H 0.0942 0.3645 0.2109
C2 C -0.00469(19) 0.5565(3) 0.13638(14)
H2 H -0.0282 0.4920 0.0798
C3 C -0.04625(19) 0.7287(3) 0.13860(14)
C4 C -0.1223(2) 0.8093(3) 0.05950(15)
H3 H -0.1458 0.7480 0.0018
C5 C -0.1624(2) 0.9760(3) 0.06556(16)
H4 H -0.2131 1.0291 0.0119
C6 C -0.1286(2) 1.0686(3) 0.15100(17)
H5 H -0.1573 1.1833 0.1547
C7 C -0.0547(2) 0.9937(3) 0.22837(16)
H6 H -0.0328 1.0567 0.2856
C8 C -0.01038(19) 0.8228(3) 0.22409(14)
C9 C 0.06766(19) 0.7424(3) 0.30276(14)
H7 H 0.0934 0.8061 0.3594
C10 C 0.10719(19) 0.5749(3) 0.29951(14)
C11 C 0.18570(19) 0.4957(3) 0.38682(14)
H8 H 0.1965 0.5848 0.4376
C12 C 0.1242(2) 0.3374(3) 0.42564(15)
H9 H 0.1001 0.2511 0.3740
C13 C 0.2305(2) 0.2648(3) 0.50231(16)
H10 H 0.2201 0.3048 0.5659
H11 H 0.2296 0.1381 0.5015
C14 C 0.3541(2) 0.3332(3) 0.47669(15)
C15 C 0.3224(2) 0.4249(3) 0.38229(14)
H12 H 0.3855 0.5176 0.3757
C16 C 0.4695(3) 0.3282(4) 0.52966(18)
H13 H 0.4813 0.2779 0.5909
H14 H 0.5411 0.3750 0.5068
C17 C 0.38318(19) 0.3072(3) 0.24379(14)
C18 C 0.36343(19) 0.1760(3) 0.16643(14)
C19 C 0.27045(19) 0.0473(3) 0.16577(14)
H15 H 0.2232 0.0404 0.2160
C20 C 0.2473(2) -0.0697(3) 0.09226(15)
H16 H 0.1835 -0.1556 0.0919
C21 C 0.3173(2) -0.0620(3) 0.01865(15)
H17 H 0.3015 -0.1430 -0.0315
C22 C 0.4094(2) 0.0635(3) 0.01865(15)
H18 H 0.4572 0.0689 -0.0314
C23 C 0.4323(2) 0.1821(3) 0.09230(14)
H19 H 0.4958 0.2683 0.0920
C24 C 0.48209(19) 0.4438(3) 0.23940(14)
C25 C 0.6132(2) 0.4087(3) 0.26279(15)
H20 H 0.6418 0.2966 0.2816
C26 C 0.7030(2) 0.5390(3) 0.25849(16)
H21 H 0.7925 0.5148 0.2741
C27 C 0.6619(2) 0.7023(3) 0.23169(15)
H22 H 0.7234 0.7902 0.2288
C28 C 0.5316(2) 0.7387(3) 0.20902(15)
H23 H 0.5037 0.8515 0.1910
C29 C 0.4413(2) 0.6098(3) 0.21272(14)
H24 H 0.3519 0.6347 0.1971
loop_
_geom_bond_atom_site_label_1
_geom_bond_atom_site_label_2
_geom_bond_site_symmetry_1
_geom_bond_site_symmetry_2
O1 N2 1_555 1_555
O2 N2 1_555 1_555
N1 C15 1_555 1_555
N2 C12 1_555 1_555
C1 H1 1_555 1_555
C2 C1 1_555 1_555
H2 C2 1_555 1_555
C3 C2 1_555 1_555
C4 C3 1_555 1_555
H3 C4 1_555 1_555
C5 C4 1_555 1_555
H4 C5 1_555 1_555
C6 C5 1_555 1_555
H5 C6 1_555 1_555
C7 C6 1_555 1_555
H6 C7 1_555 1_555
C8 C3 1_555 1_555
C9 C8 1_555 1_555
H7 C9 1_555 1_555
C10 C1 1_555 1_555
C11 C10 1_555 1_555
H8 C11 1_555 1_555
C12 C11 1_555 1_555
H9 C12 1_555 1_555
C13 C12 1_555 1_555
H10 C13 1_555 1_555
H11 C13 1_555 1_555
C14 C13 1_555 1_555
C15 C11 1_555 1_555
H12 C15 1_555 1_555
C16 C14 1_555 1_555
H13 C16 1_555 1_555
H14 C16 1_555 1_555
C17 N1 1_555 1_555
C18 C17 1_555 1_555
C19 C18 1_555 1_555
H15 C19 1_555 1_555
C20 C19 1_555 1_555
H16 C20 1_555 1_555
C21 C20 1_555 1_555
H17 C21 1_555 1_555
C22 C21 1_555 1_555
H18 C22 1_555 1_555
C23 C18 1_555 1_555
H19 C23 1_555 1_555
C24 C17 1_555 1_555
C25 C24 1_555 1_555
H20 C25 1_555 1_555
C26 C25 1_555 1_555
H21 C26 1_555 1_555
C27 C26 1_555 1_555
H22 C27 1_555 1_555
C28 C27 1_555 1_555
H23 C28 1_555 1_555
C29 C24 1_555 1_555
H24 C29 1_555 1_555
C7 C8 1_555 1_555
C9 C10 1_555 1_555
C14 C15 1_555 1_555
C22 C23 1_555 1_555
C28 C29 1_555 1_555

#END
