
#######################################################################
#
#                 Cambridge Crystallographic Data Centre
#                                CCDC 
#
#######################################################################
#
# If this CIF has been generated from an entry in the Cambridge 
# Structural Database, then it will include bibliographic, chemical, 
# crystal, experimental, refinement or atomic coordinate data resulting 
# from the CCDC's data processing and validation procedures.
#
#######################################################################

data_JIJYAF
_chemical_formula_moiety         'C24 H20 Cl1 N1 O2'
_chemical_name_systematic        
2-(2-acetyl-6-chloro-2-phenyl-2,3-dihydro-1H-indol-3-yl)-1-phenylethan-1-one
_symmetry_cell_setting           triclinic
_symmetry_space_group_name_H-M   'P 1'
_symmetry_Int_Tables_number      1
_space_group_name_Hall           'P 1'
loop_
_symmetry_equiv_pos_site_id
_symmetry_equiv_pos_as_xyz
1 x,y,z
_cell_length_a                   5.7795(3)
_cell_length_b                   9.1897(5)
_cell_length_c                   18.5208(9)
_cell_angle_alpha                88.216(4)
_cell_angle_beta                 83.253(4)
_cell_angle_gamma                84.131(4)
_cell_volume                     971.56
_exptl_crystal_colour            colorless
_cell_formula_units_Z            2
loop_
_atom_site_label
_atom_site_type_symbol
_atom_site_fract_x
_atom_site_fract_y
_atom_site_fract_z
Cl1 Cl 0.5704(2) 0.61854(12) 0.45207(8)
O1 O 1.2543(5) 1.2161(4) 0.37992(17)
N1 N 0.7363(5) 1.1063(3) 0.31741(16)
H1 H 0.6290 1.1564 0.3450
O2 O 1.4714(6) 0.8745(4) 0.18531(17)
C1 C 0.7919(6) 0.9627(4) 0.34103(18)
C2 C 1.0243(6) 0.9155(3) 0.31625(17)
C3 C 0.7377(6) 1.4053(4) 0.2631(2)
H2 H 0.6036 1.3767 0.2903
C4 C 1.1160(6) 0.7761(4) 0.33255(19)
H3 H 1.2701 0.7440 0.3157
C5 C 0.9443(6) 1.3128(4) 0.25946(18)
C6 C 1.0496(6) 1.2103(4) 0.37625(18)
C7 C 0.9594(5) 1.1698(4) 0.30342(17)
C8 C 0.6481(6) 0.8731(4) 0.3834(2)
H4 H 0.4942 0.9047 0.4006
C9 C 1.1008(6) 1.0141(4) 0.18999(18)
H5 H 0.9532 0.9747 0.1865
H6 H 1.0986 1.1072 0.1638
C10 C 1.2808(6) 0.8510(4) 0.08140(19)
C11 C 1.1249(5) 1.0390(3) 0.27013(17)
H7 H 1.2881 1.0472 0.2777
C12 C 0.9739(7) 0.6819(4) 0.3752(2)
H8 H 1.0324 0.5874 0.3874
C13 C 1.2998(6) 0.9097(4) 0.15486(19)
C14 C 0.7284(8) 1.5390(4) 0.2270(2)
H9 H 0.5888 1.5996 0.2298
C15 C 0.7483(7) 0.7339(4) 0.3982(2)
C16 C 1.1442(6) 1.3594(4) 0.2197(2)
H10 H 1.2856 1.3006 0.2180
C17 C 0.8702(7) 1.2470(5) 0.4400(2)
H11 H 0.8064 1.1593 0.4590
H12 H 0.7469 1.3148 0.4247
H13 H 0.9424 1.2903 0.4770
C18 C 1.1334(8) 1.4929(5) 0.1826(2)
H14 H 1.2663 1.5217 0.1548
C19 C 0.9274(9) 1.5828(4) 0.1866(2)
H15 H 0.9216 1.6729 0.1623
C20 C 1.4602(8) 0.7522(5) 0.0520(2)
H16 H 1.5864 0.7242 0.0779
C21 C 1.0898(8) 0.8908(5) 0.0436(2)
H17 H 0.9676 0.9566 0.0635
C22 C 1.0827(10) 0.8317(7) -0.0239(3)
H18 H 0.9546 0.8578 -0.0492
C23 C 1.4544(11) 0.6942(7) -0.0158(3)
H19 H 1.5766 0.6287 -0.0359
C24 C 1.2624(12) 0.7354(8) -0.0535(3)
H20 H 1.2565 0.6973 -0.0991
Cl2 Cl 0.3527(2) -0.58542(13) 0.78308(8)
O3 O -0.2729(5) -0.0464(4) 0.59299(16)
N2 N 0.2426(5) -0.0557(4) 0.67693(16)
H21 H 0.3835 -0.0341 0.6648
O4 O -0.4741(6) 0.0460(5) 0.84910(19)
C25 C -0.0563(6) -0.1521(4) 0.74833(18)
C26 C 0.1762(6) -0.1790(4) 0.71625(18)
C27 C 0.0575(6) 0.1879(4) 0.63656(18)
C28 C -0.0692(6) -0.0378(4) 0.59460(19)
C29 C -0.1050(7) 0.1043(4) 0.79243(19)
H22 H 0.0436 0.0723 0.8102
H23 H -0.0979 0.2038 0.7738
C30 C -0.1409(6) 0.0055(4) 0.73038(18)
H24 H -0.3048 0.0149 0.7205
C31 C -0.0332(8) -0.3946(5) 0.8004(2)
H25 H -0.1009 -0.4688 0.8281
C32 C -0.2690(7) 0.1750(4) 0.9243(2)
C33 C 0.0273(6) 0.0308(4) 0.65998(18)
C34 C -0.1607(7) -0.2587(4) 0.79058(19)
H26 H -0.3140 -0.2408 0.8123
C35 C -0.2981(6) 0.1026(4) 0.85485(19)
C36 C 0.3062(7) -0.3122(5) 0.7260(2)
H27 H 0.4604 -0.3308 0.7051
C37 C 0.1934(8) -0.4155(5) 0.7685(2)
C38 C -0.1354(7) 0.2928(5) 0.6428(2)
H28 H -0.2803 0.2671 0.6636
C39 C 0.2692(7) 0.2282(5) 0.6041(2)
H29 H 0.3998 0.1596 0.5997
C40 C -0.0788(8) 0.2521(5) 0.9318(2)
H30 H 0.0387 0.2590 0.8933
C41 C 0.1069(7) -0.0882(5) 0.5317(2)
H31 H 0.2077 -0.1700 0.5471
H32 H 0.1988 -0.0098 0.5152
H33 H 0.0266 -0.1170 0.4928
C42 C -0.2336(12) 0.3072(7) 1.0545(3)
H34 H -0.2216 0.3514 1.0983
C43 C 0.0991(10) 0.4728(5) 0.5853(3)
H35 H 0.1131 0.5680 0.5681
C44 C -0.1128(9) 0.4341(5) 0.6183(3)
H36 H -0.2414 0.5041 0.6241
C45 C -0.0656(11) 0.3183(7) 0.9967(3)
H37 H 0.0601 0.3717 1.0012
C46 C 0.2897(9) 0.3694(6) 0.5779(3)
H38 H 0.4327 0.3946 0.5553
C47 C -0.4213(11) 0.2295(8) 1.0471(3)
H39 H -0.5371 0.2214 1.0860
C48 C -0.4374(9) 0.1638(6) 0.9823(3)
H40 H -0.5640 0.1113 0.9778
loop_
_geom_bond_atom_site_label_1
_geom_bond_atom_site_label_2
_geom_bond_site_symmetry_1
_geom_bond_site_symmetry_2
Cl1 C15 1_555 1_555
O1 C6 1_555 1_555
N1 H1 1_555 1_555
O2 C13 1_555 1_555
C1 N1 1_555 1_555
C2 C1 1_555 1_555
C3 H2 1_555 1_555
C4 C2 1_555 1_555
H3 C4 1_555 1_555
C5 C3 1_555 1_555
C6 C7 1_555 1_555
C7 N1 1_555 1_555
C8 C1 1_555 1_555
H4 C8 1_555 1_555
C9 H5 1_555 1_555
H6 C9 1_555 1_555
C10 C13 1_555 1_555
C11 C2 1_555 1_555
H7 C11 1_555 1_555
C12 C4 1_555 1_555
H8 C12 1_555 1_555
C13 C9 1_555 1_555
C14 C3 1_555 1_555
H9 C14 1_555 1_555
C15 C8 1_555 1_555
C16 C5 1_555 1_555
H10 C16 1_555 1_555
C17 C6 1_555 1_555
H11 C17 1_555 1_555
H12 C17 1_555 1_555
H13 C17 1_555 1_555
C18 C16 1_555 1_555
H14 C18 1_555 1_555
C19 C14 1_555 1_555
H15 C19 1_555 1_555
C20 C10 1_555 1_555
H16 C20 1_555 1_555
C21 C10 1_555 1_555
H17 C21 1_555 1_555
C22 C21 1_555 1_555
H18 C22 1_555 1_555
C23 C20 1_555 1_555
H19 C23 1_555 1_555
C24 C22 1_555 1_555
H20 C24 1_555 1_555
Cl2 C37 1_555 1_555
O3 C28 1_555 1_555
N2 H21 1_555 1_555
O4 C35 1_555 1_555
C25 C26 1_555 1_555
C26 N2 1_555 1_555
C27 C33 1_555 1_555
C28 C33 1_555 1_555
C29 H22 1_555 1_555
H23 C29 1_555 1_555
C30 C25 1_555 1_555
H24 C30 1_555 1_555
C31 H25 1_555 1_555
C32 C35 1_555 1_555
C33 N2 1_555 1_555
C34 C25 1_555 1_555
H26 C34 1_555 1_555
C35 C29 1_555 1_555
C36 C26 1_555 1_555
H27 C36 1_555 1_555
C37 C31 1_555 1_555
C38 C27 1_555 1_555
H28 C38 1_555 1_555
C39 C27 1_555 1_555
H29 C39 1_555 1_555
C40 C32 1_555 1_555
H30 C40 1_555 1_555
C41 C28 1_555 1_555
H31 C41 1_555 1_555
H32 C41 1_555 1_555
H33 C41 1_555 1_555
C42 H34 1_555 1_555
C43 H35 1_555 1_555
C44 C38 1_555 1_555
H36 C44 1_555 1_555
C45 C40 1_555 1_555
H37 C45 1_555 1_555
C46 C39 1_555 1_555
H38 C46 1_555 1_555
C47 C42 1_555 1_555
H39 C47 1_555 1_555
C48 C32 1_555 1_555
H40 C48 1_555 1_555
C5 C7 1_555 1_555
C7 C11 1_555 1_555
C9 C11 1_555 1_555
C12 C15 1_555 1_555
C18 C19 1_555 1_555
C23 C24 1_555 1_555
C29 C30 1_555 1_555
C30 C33 1_555 1_555
C31 C34 1_555 1_555
C36 C37 1_555 1_555
C42 C45 1_555 1_555
C43 C44 1_555 1_555
C43 C46 1_555 1_555
C47 C48 1_555 1_555

#END
