
#######################################################################
#
#                 Cambridge Crystallographic Data Centre
#                                CCDC 
#
#######################################################################
#
# If this CIF has been generated from an entry in the Cambridge 
# Structural Database, then it will include bibliographic, chemical, 
# crystal, experimental, refinement or atomic coordinate data resulting 
# from the CCDC's data processing and validation procedures.
#
#######################################################################

data_JIKCEO
_chemical_formula_moiety         'C31 H35 N1 O3'
_chemical_name_systematic        
13-methyl-18-methylidene-20-phenyl-1,2,3,4,4a,5,9,10,11,11a,17,17a-dodecahydro-7H-8,11a,8-(epoxymethanetriyloxymethano)cyclopenta[2,3]indolo[2,1-e][2,6]benzoxazonine
_symmetry_cell_setting           triclinic
_symmetry_space_group_name_H-M   'P -1'
_symmetry_Int_Tables_number      2
_space_group_name_Hall           '-P 1'
loop_
_symmetry_equiv_pos_site_id
_symmetry_equiv_pos_as_xyz
1 x,y,z
2 -x,-y,-z
_cell_length_a                   6.9453(4)
_cell_length_b                   12.2190(6)
_cell_length_c                   15.2657(10)
_cell_angle_alpha                93.944(5)
_cell_angle_beta                 101.727(5)
_cell_angle_gamma                96.389(5)
_cell_volume                     1255.03
_cell_formula_units_Z            2
loop_
_atom_site_label
_atom_site_type_symbol
_atom_site_fract_x
_atom_site_fract_y
_atom_site_fract_z
O1 O -0.4934(2) -0.72672(10) -0.28405(9)
O2 O -0.5872(2) -0.91023(11) -0.31314(10)
O3 O -0.7280(2) -0.57313(11) -0.43898(10)
N1 N -0.8434(2) -0.61875(13) -0.27136(11)
C1 C -0.7623(3) -0.79748(15) -0.22603(13)
C2 C -0.7467(3) -0.71434(15) -0.14713(14)
C3 C -0.6938(3) -0.72579(17) -0.05636(14)
H1 H -0.6531 -0.7919 -0.0374
C4 C -0.7005(3) -0.63972(18) 0.00724(15)
C5 C -0.7719(4) -0.54492(18) -0.02441(16)
H2 H -0.7813 -0.4874 0.0171
C6 C -0.8295(3) -0.53244(17) -0.11485(15)
H3 H -0.8810 -0.4688 -0.1335
C7 C -0.8096(3) -0.61646(15) -0.17794(14)
C8 C -0.8388(3) -0.73354(15) -0.31008(14)
C9 C -0.6625(3) -0.74122(16) -0.36063(14)
C10 C -0.6575(3) -0.86232(17) -0.39088(16)
C11 C -0.5554(3) -0.82042(15) -0.24187(14)
C12 C -0.9171(3) -0.89954(17) -0.23002(16)
H4 H -0.8520 -0.9649 -0.2185
H5 H -0.9964 -0.8885 -0.1855
C13 C -1.0468(4) -0.91279(18) -0.32421(17)
H6 H -1.1814 -0.9430 -0.3231
H7 H -0.9952 -0.9620 -0.3638
C14 C -1.0418(3) -0.79647(17) -0.35624(15)
H8 H -1.1475 -0.7596 -0.3395
H9 H -1.0579 -0.8004 -0.4210
C15 C -0.6359(4) -0.6508(2) 0.10625(17)
H10 H -0.5140 -0.6827 0.1171
H11 H -0.7363 -0.6977 0.1257
H12 H -0.6164 -0.5791 0.1390
C16 C -0.9817(3) -0.54644(16) -0.31522(15)
H13 H -1.0966 -0.5502 -0.2880
H14 H -1.0268 -0.5731 -0.3782
C17 C -0.8869(3) -0.42507(16) -0.30756(15)
H15 H -0.7942 -0.4111 -0.2491
C18 C -1.0434(4) -0.34633(19) -0.30649(19)
H16 H -1.1173 -0.3646 -0.2608
H17 H -1.1357 -0.3557 -0.3642
C19 C -0.9475(5) -0.2254(2) -0.2871(2)
H18 H -1.0504 -0.1773 -0.2909
H19 H -0.8673 -0.2140 -0.2265
C20 C -0.8188(5) -0.1956(2) -0.3531(2)
H20 H -0.7493 -0.1215 -0.3353
H21 H -0.9024 -0.1954 -0.4123
C21 C -0.6683(4) -0.27614(19) -0.35783(19)
H22 H -0.5735 -0.2690 -0.3009
H23 H -0.5963 -0.2574 -0.4041
C22 C -0.7678(4) -0.39633(17) -0.37870(16)
H24 H -0.8614 -0.4015 -0.4367
C23 C -0.6191(4) -0.47622(18) -0.38707(17)
H25 H -0.5185 -0.4440 -0.4168
H26 H -0.5547 -0.4939 -0.3281
C24 C -0.6297(4) -0.6680(2) -0.43378(18)
H27 H -0.488(4) -0.6490(17) -0.4285(15)
H28 H -0.682(4) -0.711(2) -0.494(2)
C25 C -0.6992(4) -0.9180(2) -0.47036(17)
H29 H -0.6817 -0.9923 -0.4758
H30 H -0.7463 -0.8832 -0.5213
C26 C -0.4082(3) -0.84463(17) -0.16220(15)
C27 C -0.4078(4) -0.9519(2) -0.13768(19)
H31 H -0.4875 -1.0103 -0.1748
C28 C -0.2878(4) -0.9714(3) -0.0575(2)
H32 H -0.2864 -1.0433 -0.0411
C29 C -0.1708(4) -0.8856(3) -0.0019(2)
H33 H -0.0929 -0.8992 0.0524
C30 C -0.1691(4) -0.7800(2) -0.02657(18)
H34 H -0.0887 -0.7219 0.0106
C31 C -0.2869(3) -0.7595(2) -0.10681(16)
H35 H -0.2842 -0.6877 -0.1236
loop_
_geom_bond_atom_site_label_1
_geom_bond_atom_site_label_2
_geom_bond_site_symmetry_1
_geom_bond_site_symmetry_2
O1 C9 1_555 1_555
O2 C10 1_555 1_555
O3 C23 1_555 1_555
N1 C7 1_555 1_555
C1 C2 1_555 1_555
C2 C3 1_555 1_555
C3 H1 1_555 1_555
C4 C3 1_555 1_555
C5 C4 1_555 1_555
H2 C5 1_555 1_555
C6 C5 1_555 1_555
H3 C6 1_555 1_555
C7 C2 1_555 1_555
C8 N1 1_555 1_555
C9 C8 1_555 1_555
C10 C9 1_555 1_555
C11 O1 1_555 1_555
C12 C1 1_555 1_555
H4 C12 1_555 1_555
H5 C12 1_555 1_555
C13 C12 1_555 1_555
H6 C13 1_555 1_555
H7 C13 1_555 1_555
C14 C8 1_555 1_555
H8 C14 1_555 1_555
H9 C14 1_555 1_555
C15 C4 1_555 1_555
H10 C15 1_555 1_555
H11 C15 1_555 1_555
H12 C15 1_555 1_555
C16 N1 1_555 1_555
H13 C16 1_555 1_555
H14 C16 1_555 1_555
C17 C16 1_555 1_555
H15 C17 1_555 1_555
C18 C17 1_555 1_555
H16 C18 1_555 1_555
H17 C18 1_555 1_555
C19 C18 1_555 1_555
H18 C19 1_555 1_555
H19 C19 1_555 1_555
C20 C19 1_555 1_555
H20 C20 1_555 1_555
H21 C20 1_555 1_555
C21 C20 1_555 1_555
H22 C21 1_555 1_555
H23 C21 1_555 1_555
C22 C17 1_555 1_555
H24 C22 1_555 1_555
C23 C22 1_555 1_555
H25 C23 1_555 1_555
H26 C23 1_555 1_555
C24 O3 1_555 1_555
H27 C24 1_555 1_555
H28 C24 1_555 1_555
C25 C10 1_555 1_555
H29 C25 1_555 1_555
H30 C25 1_555 1_555
C26 C11 1_555 1_555
C27 C26 1_555 1_555
H31 C27 1_555 1_555
C28 C27 1_555 1_555
H32 C28 1_555 1_555
C29 C28 1_555 1_555
H33 C29 1_555 1_555
C30 C29 1_555 1_555
H34 C30 1_555 1_555
C31 C26 1_555 1_555
H35 C31 1_555 1_555
O2 C11 1_555 1_555
C1 C8 1_555 1_555
C1 C11 1_555 1_555
C6 C7 1_555 1_555
C9 C24 1_555 1_555
C13 C14 1_555 1_555
C21 C22 1_555 1_555
C30 C31 1_555 1_555

#END
