
#######################################################################
#
#                 Cambridge Crystallographic Data Centre
#                                CCDC 
#
#######################################################################
#
# If this CIF has been generated from an entry in the Cambridge 
# Structural Database, then it will include bibliographic, chemical, 
# crystal, experimental, refinement or atomic coordinate data resulting 
# from the CCDC's data processing and validation procedures.
#
#######################################################################

data_JIKFOB
_chemical_formula_moiety         'C27 H29 F2 N1 O2'
_chemical_name_systematic        
{4-[1-fluoro-2-(4-fluoro[1,1'-biphenyl]-3-yl)ethenyl]bicyclo[2.2.2]octan-1-yl}(morpholin-4-yl)methanone
_symmetry_cell_setting           monoclinic
_symmetry_space_group_name_H-M   'P 21/c'
_symmetry_Int_Tables_number      14
_space_group_name_Hall           '-P 2ybc'
loop_
_symmetry_equiv_pos_site_id
_symmetry_equiv_pos_as_xyz
1 x,y,z
2 -x,1/2+y,1/2-z
3 -x,-y,-z
4 x,1/2-y,1/2+z
_cell_length_a                   9.9532(14)
_cell_length_b                   18.506(3)
_cell_length_c                   12.2066(17)
_cell_angle_alpha                90
_cell_angle_beta                 92.508(3)
_cell_angle_gamma                90
_cell_volume                     2246.23
_exptl_crystal_colour            colorless
_exptl_crystal_description       block
_cell_formula_units_Z            4
loop_
_atom_site_label
_atom_site_type_symbol
_atom_site_fract_x
_atom_site_fract_y
_atom_site_fract_z
F1 F 0.47687(10) 0.34257(6) 0.30121(7)
F2 F 0.87076(9) 0.45016(6) 0.48442(7)
O1 O 0.13638(13) 0.29565(9) 0.79777(9)
O2 O -0.27109(12) 0.23101(9) 0.61304(10)
N1 N 0.00672(13) 0.23983(9) 0.67059(10)
C1 C 0.64686(18) 0.42704(10) -0.01642(14)
H1 H 0.611276 0.389417 0.023675
C2 C 0.6142(2) 0.43249(12) -0.12769(15)
H2 H 0.556935 0.398757 -0.161581
C3 C 0.6664(2) 0.48781(12) -0.18800(15)
H3 H 0.645474 0.491211 -0.262818
C4 C 0.7492(2) 0.53767(12) -0.13759(16)
H4 H 0.784274 0.575133 -0.178321
C5 C 0.78130(18) 0.53290(10) -0.02620(14)
H5 H 0.836648 0.567661 0.007321
C6 C 0.73169(15) 0.47672(8) 0.03605(12)
C7 C 0.76831(14) 0.47005(8) 0.15494(12)
C8 C 0.89649(15) 0.48984(9) 0.19687(13)
H6 H 0.959342 0.507844 0.149739
C9 C 0.93052(15) 0.48296(9) 0.30705(13)
H7 H 1.015644 0.496102 0.334555
C10 C 0.83651(14) 0.45635(8) 0.37541(12)
C11 C 0.70773(13) 0.43542(8) 0.33977(12)
C12 C 0.67661(14) 0.44307(8) 0.22769(12)
H8 H 0.591458 0.429658 0.200581
C13 C 0.61297(14) 0.40987(8) 0.42029(12)
H9 H 0.630583 0.425022 0.492130
C14 C 0.50613(14) 0.36825(8) 0.40419(11)
C15 C 0.40506(13) 0.34366(8) 0.48337(11)
C16 C 0.43762(15) 0.37138(9) 0.59957(12)
H10 H 0.439258 0.423787 0.599275
H11 H 0.525891 0.354351 0.624557
C17 C 0.33231(16) 0.34487(10) 0.67796(12)
H12 H 0.291939 0.386108 0.712914
H13 H 0.375841 0.315384 0.734819
C18 C 0.22160(13) 0.30036(8) 0.61734(11)
C19 C 0.15936(14) 0.34924(8) 0.52673(12)
H14 H 0.087286 0.323539 0.487416
H15 H 0.121289 0.391886 0.559613
C20 C 0.26493(15) 0.37199(10) 0.44659(13)
H16 H 0.267370 0.424293 0.441944
H17 H 0.240443 0.353253 0.374229
C21 C 0.39864(16) 0.26079(8) 0.48790(13)
H18 H 0.377841 0.242019 0.414925
H19 H 0.485711 0.241953 0.512650
C22 C 0.29163(16) 0.23525(8) 0.56564(13)
H20 H 0.333462 0.205569 0.623070
H21 H 0.225387 0.205980 0.525408
C23 C 0.11806(15) 0.27823(9) 0.70140(12)
C24 C -0.09344(17) 0.22521(13) 0.75252(13)
H22 H -0.063388 0.245513 0.822640
H23 H -0.103696 0.173452 0.761539
C25 C -0.22543(19) 0.25788(13) 0.71627(16)
H24 H -0.291571 0.247230 0.770045
H25 H -0.215925 0.309960 0.712046
C26 C -0.17518(17) 0.24398(13) 0.53225(14)
H26 H -0.165811 0.295659 0.521769
H27 H -0.207509 0.223138 0.463101
C27 C -0.04007(16) 0.21228(10) 0.56409(13)
H28 H -0.046788 0.160029 0.567038
H29 H 0.023944 0.224784 0.509493
loop_
_geom_bond_atom_site_label_1
_geom_bond_atom_site_label_2
_geom_bond_site_symmetry_1
_geom_bond_site_symmetry_2
F1 C14 1_555 1_555
F2 C10 1_555 1_555
O1 C23 1_555 1_555
O2 C25 1_555 1_555
N1 C23 1_555 1_555
C1 H1 1_555 1_555
C2 C1 1_555 1_555
H2 C2 1_555 1_555
C3 C2 1_555 1_555
H3 C3 1_555 1_555
C4 C3 1_555 1_555
H4 C4 1_555 1_555
C5 C4 1_555 1_555
H5 C5 1_555 1_555
C6 C1 1_555 1_555
C7 C6 1_555 1_555
C8 C7 1_555 1_555
H6 C8 1_555 1_555
C9 C8 1_555 1_555
H7 C9 1_555 1_555
C10 C9 1_555 1_555
C11 C10 1_555 1_555
C12 C7 1_555 1_555
H8 C12 1_555 1_555
C13 C11 1_555 1_555
H9 C13 1_555 1_555
C14 C13 1_555 1_555
C15 C14 1_555 1_555
C16 C15 1_555 1_555
H10 C16 1_555 1_555
H11 C16 1_555 1_555
C17 C16 1_555 1_555
H12 C17 1_555 1_555
H13 C17 1_555 1_555
C18 C17 1_555 1_555
C19 C18 1_555 1_555
H14 C19 1_555 1_555
H15 C19 1_555 1_555
C20 C15 1_555 1_555
H16 C20 1_555 1_555
H17 C20 1_555 1_555
C21 C15 1_555 1_555
H18 C21 1_555 1_555
H19 C21 1_555 1_555
C22 C18 1_555 1_555
H20 C22 1_555 1_555
H21 C22 1_555 1_555
C23 C18 1_555 1_555
C24 N1 1_555 1_555
H22 C24 1_555 1_555
H23 C24 1_555 1_555
C25 C24 1_555 1_555
H24 C25 1_555 1_555
H25 C25 1_555 1_555
C26 O2 1_555 1_555
H26 C26 1_555 1_555
H27 C26 1_555 1_555
C27 N1 1_555 1_555
H28 C27 1_555 1_555
H29 C27 1_555 1_555
C5 C6 1_555 1_555
C11 C12 1_555 1_555
C19 C20 1_555 1_555
C21 C22 1_555 1_555
C26 C27 1_555 1_555

#END
