
#######################################################################
#
#                 Cambridge Crystallographic Data Centre
#                                CCDC 
#
#######################################################################
#
# If this CIF has been generated from an entry in the Cambridge 
# Structural Database, then it will include bibliographic, chemical, 
# crystal, experimental, refinement or atomic coordinate data resulting 
# from the CCDC's data processing and validation procedures.
#
#######################################################################

data_JIKQUS
_chemical_formula_moiety         'C11 H12 O1 S1'
_chemical_name_systematic        2-benzylidene-1\l^4^-thiolan-1-one
_symmetry_cell_setting           orthorhombic
_symmetry_space_group_name_H-M   'P c a 21'
_symmetry_Int_Tables_number      29
_space_group_name_Hall           'P 2c -2ac'
loop_
_symmetry_equiv_pos_site_id
_symmetry_equiv_pos_as_xyz
1 x,y,z
2 -x,-y,1/2+z
3 1/2-x,y,1/2+z
4 1/2+x,-y,z
_cell_length_a                   11.9877(10)
_cell_length_b                   9.2673(8)
_cell_length_c                   8.6008(7)
_cell_angle_alpha                90
_cell_angle_beta                 90
_cell_angle_gamma                90
_cell_volume                     955.494
_exptl_crystal_colour            colorless
_exptl_crystal_description       block
_cell_formula_units_Z            4
loop_
_atom_site_label
_atom_site_type_symbol
_atom_site_fract_x
_atom_site_fract_y
_atom_site_fract_z
S1 S 0.01076(6) 1.04361(9) -0.40712(16)
O1 O 0.0053(2) 1.1120(3) -0.2475(4)
C1 C 0.2406(3) 1.3453(4) -0.6919(4)
H1 H 0.3049 1.3007 -0.7285
C2 C 0.1770(3) 1.2778(4) -0.5770(4)
C3 C 0.0838(3) 1.3513(4) -0.5177(4)
H2 H 0.0418 1.3100 -0.4384
C4 C 0.2136(3) 1.1331(4) -0.5260(4)
H3 H 0.2882 1.1119 -0.5453
C5 C 0.0542(3) 1.4849(4) -0.5768(5)
H4 H -0.0082 1.5321 -0.5376
C6 C 0.1169(4) 1.5494(4) -0.6941(5)
H5 H 0.0970 1.6395 -0.7329
C7 C 0.2094(4) 1.4773(4) -0.7521(5)
H6 H 0.2507 1.5183 -0.8322
C8 C 0.2015(3) 0.8816(4) -0.4109(6)
H7 H 0.2714 0.8925 -0.3553
H8 H 0.2147 0.8235 -0.5028
C9 C 0.0029(3) 0.8528(5) -0.3776(5)
H9 H -0.0578 0.8290 -0.3076
H10 H -0.0090 0.8033 -0.4756
C10 C 0.1559(3) 1.0280(4) -0.4563(4)
C11 C 0.1146(3) 0.8097(4) -0.3069(4)
H11 H 0.1236 0.7056 -0.3075
H12 H 0.1208 0.8441 -0.2007
loop_
_geom_bond_atom_site_label_1
_geom_bond_atom_site_label_2
_geom_bond_site_symmetry_1
_geom_bond_site_symmetry_2
S1 O1 1_555 1_555
C1 H1 1_555 1_555
C2 C1 1_555 1_555
C3 C2 1_555 1_555
H2 C3 1_555 1_555
C4 C2 1_555 1_555
H3 C4 1_555 1_555
C5 C3 1_555 1_555
H4 C5 1_555 1_555
C6 C5 1_555 1_555
H5 C6 1_555 1_555
C7 C1 1_555 1_555
H6 C7 1_555 1_555
C8 H7 1_555 1_555
H8 C8 1_555 1_555
C9 S1 1_555 1_555
H9 C9 1_555 1_555
H10 C9 1_555 1_555
C10 S1 1_555 1_555
C11 C8 1_555 1_555
H11 C11 1_555 1_555
H12 C11 1_555 1_555
C4 C10 1_555 1_555
C6 C7 1_555 1_555
C8 C10 1_555 1_555
C9 C11 1_555 1_555

#END
