
#######################################################################
#
#                 Cambridge Crystallographic Data Centre
#                                CCDC 
#
#######################################################################
#
# If this CIF has been generated from an entry in the Cambridge 
# Structural Database, then it will include bibliographic, chemical, 
# crystal, experimental, refinement or atomic coordinate data resulting 
# from the CCDC's data processing and validation procedures.
#
#######################################################################

data_JIKSII
_chemical_compound_source        'Cecropia telenitida roots'
_chemical_formula_moiety         'C33 H50 O6,C1 H4 O1'
_chemical_name_systematic        'Spergulagenic acid A methanol solvate'
_symmetry_cell_setting           monoclinic
_symmetry_space_group_name_H-M   'P 21'
_symmetry_Int_Tables_number      4
_space_group_name_Hall           'P 2yb'
loop_
_symmetry_equiv_pos_site_id
_symmetry_equiv_pos_as_xyz
1 x,y,z
2 -x,1/2+y,-z
_cell_length_a                   11.8468(4)
_cell_length_b                   7.5459(2)
_cell_length_c                   18.8117(6)
_cell_angle_alpha                90
_cell_angle_beta                 105.476(2)
_cell_angle_gamma                90
_cell_volume                     1620.69
_exptl_crystal_colour            colorless
_exptl_crystal_description       needle
_cell_formula_units_Z            2
_exptl_crystal_recrystallization_method 'Vapour deposition'
loop_
_atom_site_label
_atom_site_type_symbol
_atom_site_fract_x
_atom_site_fract_y
_atom_site_fract_z
C1 C 0.2399(3) 0.0223(5) 0.15089(18)
H1 H 0.2139 -0.0823 0.1221
H2 H 0.3236 0.0307 0.1620
H3 H 0.2051 0.1249 0.1234
O1 O 0.1433(2) -0.1007(3) 0.23658(11)
O2 O 0.24686(16) 0.1495(2) 0.26431(9)
C2 C 0.2038(2) 0.0124(3) 0.22135(13)
C3 C 0.22069(19) 0.1636(3) 0.33583(12)
H4 H 0.1395 0.1264 0.3300
O3 O 0.29689(19) 0.0444(3) 0.93698(10)
C4 C 0.23138(19) 0.3616(3) 0.35648(12)
O4 O 0.2971(3) 0.2615(4) 1.01460(11)
O5 O 0.44823(17) 0.5519(3) 0.84252(14)
C5 C 0.21900(17) 0.3755(3) 0.43699(11)
H5 H 0.1395 0.3336 0.4338
C6 C 0.22166(19) 0.5664(3) 0.46506(12)
H6 H 0.3012 0.6111 0.4765
H7 H 0.1734 0.6406 0.4267
C7 C 0.17661(19) 0.5757(3) 0.53403(11)
H8 H 0.0945 0.5425 0.5208
H9 H 0.1821 0.6972 0.5514
C8 C 0.24403(17) 0.4549(3) 0.59751(11)
C9 C 0.17549(17) 0.4388(3) 0.65929(11)
C10 C 0.1536(2) 0.6258(3) 0.68635(12)
H10 H 0.2196 0.7009 0.6852
H11 H 0.0846 0.6753 0.6522
C11 C 0.1366(2) 0.6311(3) 0.76369(12)
H12 H 0.0640 0.5712 0.7635
H13 H 0.1298 0.7535 0.7778
C12 C 0.2379(2) 0.5429(3) 0.82073(12)
C13 C 0.2214(2) 0.5655(4) 0.89942(13)
H14 H 0.2947 0.5374 0.9353
H15 H 0.2034 0.6886 0.9064
C14 C 0.1254(3) 0.4501(4) 0.91425(15)
H16 H 0.0504 0.4878 0.8826
H17 H 0.1232 0.4662 0.9650
C15 C 0.1435(2) 0.2543(4) 0.90066(13)
C16 C 0.1500(2) 0.2320(3) 0.82029(12)
H18 H 0.1647 0.1084 0.8119
H19 H 0.0747 0.2633 0.7873
C17 C 0.24535(19) 0.3456(3) 0.80135(11)
H20 H 0.3205 0.3020 0.8320
C18 C 0.24783(18) 0.3201(3) 0.72116(11)
C19 C 0.3081(2) 0.1866(3) 0.70416(12)
H21 H 0.3475 0.1140 0.7428
C20 C 0.3194(2) 0.1406(3) 0.62871(13)
H22 H 0.2899 0.0214 0.6166
H23 H 0.4019 0.1401 0.6301
C21 C 0.25460(17) 0.2663(3) 0.56682(11)
H24 H 0.1741 0.2213 0.5515
C22 C 0.30010(17) 0.2542(3) 0.49587(11)
C23 C 0.28250(19) 0.0618(3) 0.46707(12)
H25 H 0.3372 -0.0149 0.5010
H26 H 0.2039 0.0236 0.4660
C24 C 0.3004(2) 0.0411(3) 0.39028(12)
H27 H 0.3813 0.0673 0.3921
H28 H 0.2846 -0.0805 0.3740
C25 C 0.1270(2) 0.4579(4) 0.30403(14)
H29 H 0.1213 0.4235 0.2541
H30 H 0.1386 0.5836 0.3090
H31 H 0.0560 0.4264 0.3164
C26 C 0.3441(2) 0.4432(4) 0.34512(15)
H32 H 0.4093 0.3673 0.3666
H33 H 0.3568 0.5574 0.3684
H34 H 0.3366 0.4560 0.2933
C27 C 0.36574(19) 0.5389(3) 0.63167(13)
H35 H 0.4182 0.4502 0.6585
H36 H 0.3583 0.6327 0.6646
H37 H 0.3962 0.5858 0.5931
C28 C 0.05419(18) 0.3488(3) 0.63069(13)
H38 H 0.0122 0.4033 0.5852
H39 H 0.0105 0.3624 0.6666
H40 H 0.0647 0.2250 0.6226
C29 C 0.3558(2) 0.6289(3) 0.82471(12)
O6 O 0.3499(2) 0.8010(3) 0.81191(13)
C30 C 0.0418(3) 0.1420(5) 0.91280(18)
H41 H -0.0299 0.1770 0.8781
H42 H 0.0352 0.1599 0.9621
H43 H 0.0565 0.0190 0.9058
C31 C 0.2545(3) 0.1907(4) 0.95660(13)
C32 C 0.4005(3) -0.0279(6) 0.98826(18)
H44 H 0.4219 -0.1370 0.9690
H45 H 0.3844 -0.0498 1.0349
H46 H 0.4638 0.0552 0.9948
C33 C 0.43119(18) 0.3006(3) 0.51047(13)
H47 H 0.4619 0.2470 0.4732
H48 H 0.4731 0.2567 0.5581
H49 H 0.4401 0.4269 0.5091
H50 H 0.435(4) 0.837(7) 0.824(3)
O7 O 0.5697(3) 0.9261(4) 0.85341(19)
C34 C 0.6191(6) 1.0889(7) 0.8575(3)
H51 H 0.7016 1.0769 0.8627
H52 H 0.6069 1.1512 0.8993
H53 H 0.5839 1.1539 0.8133
H54 H 0.628(10) 0.845(15) 0.884(6)
loop_
_geom_bond_atom_site_label_1
_geom_bond_atom_site_label_2
_geom_bond_site_symmetry_1
_geom_bond_site_symmetry_2
C1 H1 1_555 1_555
H2 C1 1_555 1_555
H3 C1 1_555 1_555
O1 C2 1_555 1_555
O2 C2 1_555 1_555
C2 C1 1_555 1_555
C3 O2 1_555 1_555
H4 C3 1_555 1_555
O3 C31 1_555 1_555
C4 C3 1_555 1_555
O4 C31 1_555 1_555
O5 C29 1_555 1_555
C5 C4 1_555 1_555
H5 C5 1_555 1_555
C6 C5 1_555 1_555
H6 C6 1_555 1_555
H7 C6 1_555 1_555
C7 C6 1_555 1_555
H8 C7 1_555 1_555
H9 C7 1_555 1_555
C8 C7 1_555 1_555
C9 C8 1_555 1_555
C10 C9 1_555 1_555
H10 C10 1_555 1_555
H11 C10 1_555 1_555
C11 C10 1_555 1_555
H12 C11 1_555 1_555
H13 C11 1_555 1_555
C12 C11 1_555 1_555
C13 C12 1_555 1_555
H14 C13 1_555 1_555
H15 C13 1_555 1_555
C14 C13 1_555 1_555
H16 C14 1_555 1_555
H17 C14 1_555 1_555
C15 C14 1_555 1_555
C16 C15 1_555 1_555
H18 C16 1_555 1_555
H19 C16 1_555 1_555
C17 C12 1_555 1_555
H20 C17 1_555 1_555
C18 C9 1_555 1_555
C19 C18 1_555 1_555
H21 C19 1_555 1_555
C20 C19 1_555 1_555
H22 C20 1_555 1_555
H23 C20 1_555 1_555
C21 C8 1_555 1_555
H24 C21 1_555 1_555
C22 C5 1_555 1_555
C23 C22 1_555 1_555
H25 C23 1_555 1_555
H26 C23 1_555 1_555
C24 C3 1_555 1_555
H27 C24 1_555 1_555
H28 C24 1_555 1_555
C25 C4 1_555 1_555
H29 C25 1_555 1_555
H30 C25 1_555 1_555
H31 C25 1_555 1_555
C26 C4 1_555 1_555
H32 C26 1_555 1_555
H33 C26 1_555 1_555
H34 C26 1_555 1_555
C27 C8 1_555 1_555
H35 C27 1_555 1_555
H36 C27 1_555 1_555
H37 C27 1_555 1_555
C28 C9 1_555 1_555
H38 C28 1_555 1_555
H39 C28 1_555 1_555
H40 C28 1_555 1_555
C29 C12 1_555 1_555
O6 C29 1_555 1_555
C30 C15 1_555 1_555
H41 C30 1_555 1_555
H42 C30 1_555 1_555
H43 C30 1_555 1_555
C31 C15 1_555 1_555
C32 O3 1_555 1_555
H44 C32 1_555 1_555
H45 C32 1_555 1_555
H46 C32 1_555 1_555
C33 C22 1_555 1_555
H47 C33 1_555 1_555
H48 C33 1_555 1_555
H49 C33 1_555 1_555
H50 O6 1_555 1_555
O7 C34 1_555 1_555
C34 H51 1_555 1_555
H52 C34 1_555 1_555
H53 C34 1_555 1_555
H54 O7 1_555 1_555
C16 C17 1_555 1_555
C17 C18 1_555 1_555
C20 C21 1_555 1_555
C21 C22 1_555 1_555
C23 C24 1_555 1_555

#END
