
#######################################################################
#
#                 Cambridge Crystallographic Data Centre
#                                CCDC 
#
#######################################################################
#
# If this CIF has been generated from an entry in the Cambridge 
# Structural Database, then it will include bibliographic, chemical, 
# crystal, experimental, refinement or atomic coordinate data resulting 
# from the CCDC's data processing and validation procedures.
#
#######################################################################

data_JIKTAB
_chemical_formula_moiety         'C22 H25 N3 O5 S2,C1 H2 Cl2'
_chemical_name_systematic        
'2-[2-(morpholin-4-yl)ethyl]-6-[(thiomorpholin-4-yl)sulfonyl]-1H-benzo[de]isoquinoline-1,3(2H)-dione dichloromethane solvate'
_symmetry_cell_setting           triclinic
_symmetry_space_group_name_H-M   'P -1'
_symmetry_Int_Tables_number      2
_space_group_name_Hall           '-P 1'
loop_
_symmetry_equiv_pos_site_id
_symmetry_equiv_pos_as_xyz
1 x,y,z
2 -x,-y,-z
_cell_length_a                   9.0264(16)
_cell_length_b                   9.0426(16)
_cell_length_c                   17.336(3)
_cell_angle_alpha                76.843(3)
_cell_angle_beta                 80.437(3)
_cell_angle_gamma                65.448(3)
_cell_volume                     1249.18
_exptl_crystal_colour            colorless
_exptl_crystal_description       block
_cell_formula_units_Z            2
loop_
_atom_site_label
_atom_site_type_symbol
_atom_site_fract_x
_atom_site_fract_y
_atom_site_fract_z
C1 C 0.7700(6) -0.0489(6) 1.3142(3)
H1 H 0.8755 -0.1402 1.3209
H2 H 0.7025 -0.0842 1.2909
C2 C 0.7936(5) 0.0959(6) 1.2581(3)
H3 H 0.8675 0.1260 1.2797
H4 H 0.8443 0.0623 1.2076
C3 C 0.5519(7) 0.3083(6) 1.3157(3)
H5 H 0.4546 0.4057 1.3010
H6 H 0.6208 0.3415 1.3394
C4 C 0.5031(7) 0.1823(7) 1.3765(3)
H7 H 0.4320 0.1515 1.3531
H8 H 0.4419 0.2327 1.4219
C5 C 0.6597(5) 0.2954(5) 1.0862(2)
C6 C 0.7406(5) 0.1715(5) 1.0441(2)
H9 H 0.7294 0.0712 1.0611
C7 C 0.8414(5) 0.1928(5) 0.9748(2)
H10 H 0.8947 0.1079 0.9456
C8 C 0.8601(5) 0.3388(5) 0.9507(2)
C9 C 0.7765(4) 0.4704(4) 0.9927(2)
C10 C 0.6729(4) 0.4514(5) 1.0624(2)
C11 C 0.5926(5) 0.5875(5) 1.1019(2)
H11 H 0.5252 0.5781 1.1479
C12 C 0.6120(6) 0.7342(6) 1.0737(3)
H12 H 0.5574 0.8224 1.1007
C13 C 0.7122(5) 0.7513(5) 1.0054(3)
H13 H 0.7236 0.8512 0.9867
C14 C 0.7942(5) 0.6227(5) 0.9652(2)
C15 C 0.8999(5) 0.6446(5) 0.8919(2)
C16 C 0.9697(5) 0.3582(5) 0.8782(2)
C17 C 1.0827(5) 0.5326(6) 0.7799(2)
H14 H 1.1696 0.4274 0.7723
H15 H 1.1324 0.6069 0.7841
C18 C 0.9803(6) 0.6036(7) 0.7089(3)
H16 H 0.9294 0.5300 0.7052
H17 H 0.8943 0.7095 0.7162
C19 C 1.1718(10) 0.4685(8) 0.6082(4)
H18 H 1.0970 0.4236 0.5988
H19 H 1.2419 0.3902 0.6485
C20 C 1.2732(13) 0.4947(12) 0.5329(5)
H20 H 1.3493 0.5371 0.5432
H21 H 1.3365 0.3893 0.5160
C21 C 1.0922(10) 0.7580(12) 0.4983(4)
H22 H 1.0270 0.8372 0.4564
H23 H 1.1690 0.7994 0.5087
C22 C 0.9815(8) 0.7419(10) 0.5730(3)
H24 H 0.9230 0.8485 0.5893
H25 H 0.9021 0.7039 0.5626
N1 N 0.6398(4) 0.2419(4) 1.24425(19)
N2 N 0.9817(4) 0.5093(4) 0.85373(18)
N3 N 1.0800(4) 0.6249(5) 0.6355(2)
O1 O 0.5346(4) 0.0957(4) 1.17150(17)
O2 O 0.3848(3) 0.3893(4) 1.17748(18)
O3 O 1.0471(4) 0.2451(4) 0.84254(19)
O4 O 0.9150(5) 0.7743(4) 0.8661(2)
O5 O 1.1800(9) 0.6033(10) 0.4724(3)
S1 S 0.6763(2) -0.0005(2) 1.40995(7)
S2 S 0.53730(12) 0.25219(13) 1.17299(5)
C23 C 0.2889(17) 0.9048(12) 0.2661(7)
H26 H 0.1945 1.0043 0.2749
H27 H 0.3563 0.9371 0.2215
Cl1 Cl 0.3974(5) 0.8380(5) 0.34749(19)
Cl2 Cl 0.2239(3) 0.7853(3) 0.23883(15)
loop_
_geom_bond_atom_site_label_1
_geom_bond_atom_site_label_2
_geom_bond_site_symmetry_1
_geom_bond_site_symmetry_2
C1 H1 1_555 1_555
H2 C1 1_555 1_555
C2 C1 1_555 1_555
H3 C2 1_555 1_555
H4 C2 1_555 1_555
C3 H5 1_555 1_555
H6 C3 1_555 1_555
C4 C3 1_555 1_555
H7 C4 1_555 1_555
H8 C4 1_555 1_555
C5 C6 1_555 1_555
C6 H9 1_555 1_555
C7 C6 1_555 1_555
H10 C7 1_555 1_555
C8 C7 1_555 1_555
C9 C8 1_555 1_555
C10 C5 1_555 1_555
C11 C10 1_555 1_555
H11 C11 1_555 1_555
C12 C11 1_555 1_555
H12 C12 1_555 1_555
C13 C12 1_555 1_555
H13 C13 1_555 1_555
C14 C9 1_555 1_555
C15 C14 1_555 1_555
C16 C8 1_555 1_555
C17 H14 1_555 1_555
H15 C17 1_555 1_555
C18 C17 1_555 1_555
H16 C18 1_555 1_555
H17 C18 1_555 1_555
C19 H18 1_555 1_555
H19 C19 1_555 1_555
C20 C19 1_555 1_555
H20 C20 1_555 1_555
H21 C20 1_555 1_555
C21 H22 1_555 1_555
H23 C21 1_555 1_555
C22 C21 1_555 1_555
H24 C22 1_555 1_555
H25 C22 1_555 1_555
N1 C2 1_555 1_555
N2 C15 1_555 1_555
N3 C18 1_555 1_555
O1 S2 1_555 1_555
O2 S2 1_555 1_555
O3 C16 1_555 1_555
O4 C15 1_555 1_555
O5 C20 1_555 1_555
S1 C1 1_555 1_555
S2 C5 1_555 1_555
C23 H26 1_555 1_555
H27 C23 1_555 1_555
Cl1 C23 1_555 1_555
Cl2 C23 1_555 1_555
C3 N1 1_555 1_555
C4 S1 1_555 1_555
C9 C10 1_555 1_555
C13 C14 1_555 1_555
C16 N2 1_555 1_555
C17 N2 1_555 1_555
C19 N3 1_555 1_555
C21 O5 1_555 1_555
C22 N3 1_555 1_555
N1 S2 1_555 1_555

#END
