
#######################################################################
#
#                 Cambridge Crystallographic Data Centre
#                                CCDC 
#
#######################################################################
#
# If this CIF has been generated from an entry in the Cambridge 
# Structural Database, then it will include bibliographic, chemical, 
# crystal, experimental, refinement or atomic coordinate data resulting 
# from the CCDC's data processing and validation procedures.
#
#######################################################################

data_JILCAL
_chemical_formula_moiety         'C20 H44 K4 O3'
_chemical_name_systematic        
tris(\m-2-methylbutan-2-olato)-(\m-2,2-dimethylpropyl)-tetra-potassium
_symmetry_cell_setting           monoclinic
_symmetry_space_group_name_H-M   'P 21/c'
_symmetry_Int_Tables_number      14
_space_group_name_Hall           '-P 2ybc'
loop_
_symmetry_equiv_pos_site_id
_symmetry_equiv_pos_as_xyz
1 x,y,z
2 -x,1/2+y,1/2-z
3 -x,-y,-z
4 x,1/2-y,1/2+z
_cell_length_a                   14.961(2)
_cell_length_b                   11.1239(15)
_cell_length_c                   17.497(3)
_cell_angle_alpha                90
_cell_angle_beta                 102.548(4)
_cell_angle_gamma                90
_cell_volume                     2842.38
_exptl_crystal_colour            colorless
_exptl_crystal_description       block
_cell_formula_units_Z            4
_chemical_properties_physical    
Air-sensitive,Moisture-sensitive,Heat-sensitive,Light-sensitive
_exptl_crystal_recrystallization_method n-hexane
loop_
_atom_site_label
_atom_site_type_symbol
_atom_site_fract_x
_atom_site_fract_y
_atom_site_fract_z
K1 K 0.37020(6) 0.86075(9) 0.57485(6)
K2 K 0.28249(6) 1.13555(9) 0.64715(5)
K3 K 0.13355(5) 0.95659(8) 0.49444(5)
K4 K 0.20547(6) 0.83979(8) 0.70293(5)
C1 C 0.0816(3) 1.0568(4) 0.6372(2)
H1 H 0.052(3) 1.108(3) 0.585(2)
H2 H 0.049(3) 0.971(4) 0.626(3)
C2 C 0.0546(11) 1.1076(11) 0.7108(7)
C3 C 0.0933(11) 1.2350(11) 0.7243(8)
H3 H 0.068(4) 1.277(3) 0.770(4)
H4 H 0.073(4) 1.286(4) 0.672(3)
H5 H 0.166(5) 1.2310(12) 0.741(4)
C4 C 0.0907(10) 1.0295(12) 0.7839(9)
H6 H 0.069(3) 1.062(3) 0.828(3)
H7 H 0.158(4) 1.030(4) 0.796(2)
H8 H 0.069(4) 0.947(5) 0.7737(15)
C5 C -0.0508(9) 1.1172(17) 0.7025(13)
H9 H -0.0636(13) 1.149(6) 0.750(4)
H10 H -0.078(2) 1.039(6) 0.693(4)
H11 H -0.076(2) 1.170(6) 0.660(4)
O1 O 0.20927(17) 0.7640(2) 0.56508(16)
C6 C 0.1829(3) 0.6484(3) 0.5385(2)
C7 C 0.2000(5) 0.5581(5) 0.6061(3)
H12 H 0.2643 0.5554 0.6295
H13 H 0.1797 0.4798 0.5866
H14 H 0.1668 0.5824 0.6447
C8 C 0.2377(4) 0.6097(5) 0.4779(3)
H15 H 0.2289 0.6673 0.4361
H16 H 0.2169 0.5322 0.4573
H17 H 0.3016 0.6054 0.5025
C9 C 0.0818(3) 0.6447(4) 0.4950(3)
H18 H 0.0743 0.6952 0.4488
H19 H 0.0665 0.5631 0.4774
C10 C 0.0157(4) 0.6855(5) 0.5431(3)
H20 H -0.0450 0.6881 0.5109
H21 H 0.0327 0.7641 0.5638
H22 H 0.0171 0.6302 0.5855
O2 O 0.3623(2) 0.9437(3) 0.71635(19)
C11 C 0.4311(10) 0.9303(15) 0.7837(8)
C12 C 0.5256(12) 0.933(2) 0.7614(14)
H23 H 0.5395 0.8544 0.7442
H24 H 0.5718 0.9560 0.8061
H25 H 0.5243 0.9898 0.7199
C13 C 0.4110(11) 0.8112(13) 0.8218(9)
H26 H 0.4020 0.7484 0.7833
H27 H 0.3566 0.8200 0.8421
H28 H 0.4617 0.7912 0.8637
C14 C 0.4228(9) 1.0330(14) 0.8399(8)
H29 H 0.4240 1.1087 0.8126
H30 H 0.3639 1.0270 0.8542
C15 C 0.4970(15) 1.035(2) 0.9137(11)
H31 H 0.5132 1.1170 0.9278
H32 H 0.5498 0.9930 0.9049
H33 H 0.4750 0.9970 0.9553
O3 O 0.29491(17) 1.0557(2) 0.50999(15)
C16 C 0.3153(4) 1.1319(4) 0.4534(3)
C17 C 0.2790(4) 1.2613(5) 0.4626(4)
H34 H 0.209(3) 1.2583(8) 0.458(3)
H35 H 0.294(3) 1.316(2) 0.419(2)
H36 H 0.311(3) 1.295(2) 0.517(2)
C18 C 0.4195(3) 1.1432(4) 0.4622(3)
H37 H 0.4447(8) 1.066(2) 0.453(2)
H38 H 0.4469(9) 1.171(3) 0.5146(16)
H39 H 0.4324(5) 1.200(3) 0.4243(17)
C19 C 0.2736(3) 1.0846(5) 0.3701(3)
H40 H 0.2075 1.0918 0.3609
H41 H 0.2942 1.1358 0.3325
C20 C 0.2969(4) 0.9576(6) 0.3553(3)
H42 H 0.265(3) 0.9331(15) 0.295(2)
H43 H 0.272(3) 0.898(2) 0.396(2)
H44 H 0.371(3) 0.9484(11) 0.364(2)
C21? C 0.0621(14) 1.1326(17) 0.7059(9)
C22? C 0.0997(17) 1.2606(17) 0.7039(12)
H45? H 0.075(5) 1.306(5) 0.732(5)
H46? H 0.088(6) 1.286(5) 0.657(5)
H47? H 0.157(6) 1.260(2) 0.722(5)
C23? C 0.1107(13) 1.0683(16) 0.7812(10)
H48? H 0.095(4) 1.115(6) 0.833(4)
H49? H 0.186(5) 1.070(6) 0.786(2)
H50? H 0.087(4) 0.974(6) 0.780(2)
C24? C -0.0408(13) 1.144(2) 0.710(2)
H51? H -0.0455(14) 1.180(10) 0.760(6)
H52? H -0.069(3) 1.063(8) 0.705(6)
H53? H -0.073(4) 1.195(10) 0.666(6)
C25? C 0.330(2) 1.130(3) 0.4605(19)
C26? C 0.365(3) 1.068(4) 0.393(2)
H54? H 0.3141 1.0310 0.3574
H55? H 0.4091 1.0075 0.4139
H56? H 0.3924 1.1267 0.3651
C27? C 0.412(3) 1.205(4) 0.506(2)
H57? H 0.4350 1.1686 0.5559
H58? H 0.3916 1.2851 0.5128
H59? H 0.4591 1.2067 0.4765
C28? C 0.251(3) 1.218(5) 0.426(3)
H60? H 0.2762 1.2987 0.4297
H61? H 0.2294 1.1993 0.3713
C29? C 0.172(3) 1.216(6) 0.465(4)
H62? H 0.1162 1.2150 0.4257
H63? H 0.1736 1.2869 0.4968
H64? H 0.1753 1.1460 0.4972
C30? C 0.444(2) 0.917(5) 0.766(3)
C31? C 0.492(6) 0.793(6) 0.766(6)
H65? H 0.4906 0.7689 0.7131
H66? H 0.4602 0.7342 0.7905
H67? H 0.5541 0.7992 0.7946
C32? C 0.418(7) 0.932(9) 0.846(5)
H68? H 0.4102 1.0164 0.8557
H69? H 0.4656 0.8999 0.8863
H70? H 0.3616 0.8907 0.8455
C33? C 0.509(5) 1.022(7) 0.756(4)
H71? H 0.5151 1.0750 0.8011
H72? H 0.5689 0.9892 0.7561
C34? C 0.477(7) 1.093(8) 0.683(5)
H73? H 0.5283 1.1176 0.6628
H74? H 0.4443 1.1631 0.6949
H75? H 0.4364 1.0448 0.6452
C35? C 0.4381(13) 0.951(2) 0.7880(10)
C36? C 0.4775(19) 1.0828(18) 0.7951(16)
H76? H 0.4299 1.1381 0.8003
H77? H 0.4995 1.1022 0.7490
H78? H 0.5269 1.0885 0.8402
C37? C 0.5277(18) 0.872(2) 0.8025(18)
H79? H 0.5119 0.7887 0.8062
H80? H 0.5680 0.8964 0.8504
H81? H 0.5578 0.8823 0.7598
C38? C 0.3979(15) 0.918(2) 0.8607(12)
H82? H 0.3409 0.9609 0.8574
H83? H 0.3843 0.8324 0.8593
C39? C 0.4615(19) 0.947(3) 0.9370(12)
H84? H 0.4361 0.9179 0.9793
H85? H 0.4695 1.0325 0.9415
H86? H 0.5197 0.9094 0.9390
C40? C 0.4287(12) 0.9475(19) 0.7864(10)
C41? C 0.4517(18) 1.0749(17) 0.8216(14)
H87? H 0.4639 1.1279 0.7817
H88? H 0.5048 1.0705 0.8637
H89? H 0.4008 1.1049 0.8410
C42? C 0.4043(16) 0.8627(19) 0.8489(12)
H90? H 0.3664 0.9047 0.8778
H91? H 0.4595 0.8368 0.8840
H92? H 0.3719 0.7940 0.8236
C43? C 0.5131(12) 0.896(3) 0.7591(12)
H93? H 0.4984 0.8174 0.7357
H94? H 0.5292 0.9486 0.7200
C44? C 0.5919(12) 0.886(2) 0.8275(12)
H95? H 0.6282 0.8170 0.8209
H96? H 0.5694 0.8769 0.8746
H97? H 0.6288 0.9570 0.8310
loop_
_geom_bond_atom_site_label_1
_geom_bond_atom_site_label_2
_geom_bond_site_symmetry_1
_geom_bond_site_symmetry_2
K1 O1 1_555 1_555
K2 C1 1_555 1_555
K3 C1 1_555 1_555
K4 C1 1_555 1_555
C1 H1 1_555 1_555
H2 C1 1_555 1_555
C2 C1 1_555 1_555
C3 C2 1_555 1_555
H3 C3 1_555 1_555
H4 C3 1_555 1_555
H5 C3 1_555 1_555
C4 C2 1_555 1_555
H6 C4 1_555 1_555
H7 C4 1_555 1_555
H8 C4 1_555 1_555
C5 C2 1_555 1_555
H9 C5 1_555 1_555
H10 C5 1_555 1_555
H11 C5 1_555 1_555
O1 K3 1_555 1_555
C6 O1 1_555 1_555
C7 C6 1_555 1_555
H12 C7 1_555 1_555
H13 C7 1_555 1_555
H14 C7 1_555 1_555
C8 C6 1_555 1_555
H15 C8 1_555 1_555
H16 C8 1_555 1_555
H17 C8 1_555 1_555
C9 C6 1_555 1_555
H18 C9 1_555 1_555
H19 C9 1_555 1_555
C10 C9 1_555 1_555
H20 C10 1_555 1_555
H21 C10 1_555 1_555
H22 C10 1_555 1_555
O2 K1 1_555 1_555
C11 O2 1_555 1_555
C12 C11 1_555 1_555
H23 C12 1_555 1_555
H24 C12 1_555 1_555
H25 C12 1_555 1_555
C13 C11 1_555 1_555
H26 C13 1_555 1_555
H27 C13 1_555 1_555
H28 C13 1_555 1_555
C14 C11 1_555 1_555
H29 C14 1_555 1_555
H30 C14 1_555 1_555
C15 C14 1_555 1_555
H31 C15 1_555 1_555
H32 C15 1_555 1_555
H33 C15 1_555 1_555
O3 K1 1_555 1_555
C16 O3 1_555 1_555
C17 C16 1_555 1_555
H34 C17 1_555 1_555
H35 C17 1_555 1_555
H36 C17 1_555 1_555
C18 C16 1_555 1_555
H37 C18 1_555 1_555
H38 C18 1_555 1_555
H39 C18 1_555 1_555
C19 C16 1_555 1_555
H40 C19 1_555 1_555
H41 C19 1_555 1_555
C20 C19 1_555 1_555
H42 C20 1_555 1_555
H43 C20 1_555 1_555
H44 C20 1_555 1_555
K2 O2 1_555 1_555
K2 O3 1_555 1_555
K3 O3 1_555 1_555
K4 O1 1_555 1_555
K4 O2 1_555 1_555

#END
