
#######################################################################
#
#                 Cambridge Crystallographic Data Centre
#                                CCDC 
#
#######################################################################
#
# If this CIF has been generated from an entry in the Cambridge 
# Structural Database, then it will include bibliographic, chemical, 
# crystal, experimental, refinement or atomic coordinate data resulting 
# from the CCDC's data processing and validation procedures.
#
#######################################################################

data_JILFOZ
_chemical_formula_moiety         'C16 H32 B4 N12'
_chemical_name_systematic        
Cyclo-tetrakis(dimethyl(1,2,3-triazole-1,3-diyl)borane)
_symmetry_cell_setting           monoclinic
_symmetry_space_group_name_H-M   'C 2/c'
_symmetry_Int_Tables_number      15
_space_group_name_Hall           '-C 2yn'
loop_
_symmetry_equiv_pos_site_id
_symmetry_equiv_pos_as_xyz
1 x,y,z
2 1/2+x,1/2+y,z
3 -x,y,1/2-z
4 1/2-x,1/2+y,1/2-z
5 -x,-y,-z
6 1/2-x,1/2-y,-z
7 x,-y,1/2+z
8 1/2+x,1/2-y,1/2+z
_cell_length_a                   16.541(2)
_cell_length_b                   12.819(5)
_cell_length_c                   12.615(1)
_cell_angle_alpha                90
_cell_angle_beta                 105.34(1)
_cell_angle_gamma                90
_cell_volume                     2579.58
_exptl_crystal_colour            colorless
_cell_formula_units_Z            4
loop_
_atom_site_label
_atom_site_type_symbol
_atom_site_fract_x
_atom_site_fract_y
_atom_site_fract_z
N1 N 0.45614(6) 0.34288(7) 0.15301(9)
N2 N 0.39700(6) 0.40737(8) 0.16599(9)
N3 N 0.37074(6) 0.46046(8) 0.07321(8)
N4 N 0.33660(5) 0.63070(7) 0.14946(8)
N5 N 0.40689(6) 0.67966(8) 0.14794(8)
N6 N 0.42143(6) 0.74891(8) 0.22903(8)
C1 C 0.46714(10) 0.35537(12) 0.05186(12)
C2 C 0.41327(9) 0.43016(12) 0.00146(12)
C3 C 0.30636(8) 0.66945(11) 0.23009(11)
C4 C 0.36021(8) 0.74444(11) 0.28067(11)
C5 C 0.42953(10) 0.19821(13) 0.28520(18)
C6 C 0.21946(9) 0.48932(14) 0.09082(16)
C7 C 0.27604(12) 0.59570(15) -0.05951(14)
C8 C 0.50622(11) 0.89322(13) 0.35905(15)
B1 B 0.50000 0.26524(16) 0.25000
B2 B 0.29706(8) 0.54393(12) 0.05967(12)
B3 B 0.50000 0.82663(15) 0.25000
H1 H 0.5065(9) 0.3181(11) 0.0303(12)
H2 H 0.4022(10) 0.4610(12) -0.0697(13)
H3 H 0.2562(9) 0.6419(11) 0.2436(11)
H4 H 0.3598(8) 0.7879(11) 0.3396(10)
H5 H 0.3847(11) 0.2410(15) 0.3056(13)
H6 H 0.4040(11) 0.1533(15) 0.2286(14)
H7 H 0.4525(10) 0.1514(14) 0.3489(15)
H8 H 0.1997(11) 0.4339(14) 0.0408(14)
H9 H 0.2322(10) 0.4562(13) 0.1656(14)
H10 H 0.1713(12) 0.5376(15) 0.0874(14)
H11 H 0.3227(11) 0.6275(13) -0.0814(13)
H12 H 0.2519(13) 0.5466(16) -0.1138(16)
H13 H 0.2349(13) 0.6536(17) -0.0638(15)
H14 H 0.4603(11) 0.9397(14) 0.3475(14)
H15 H 0.5549(12) 0.9372(14) 0.3738(14)
H16 H 0.5518(10) 0.8505(14) 0.4315(14)
N1B N 0.54386(6) 0.34288(7) 0.34699(9)
C5B C 0.57047(10) 0.19821(13) 0.21480(18)
N6B N 0.57857(6) 0.74891(8) 0.27097(8)
C8B C 0.49378(11) 0.89322(13) 0.14095(15)
N2B N 0.60300(6) 0.40737(8) 0.33401(9)
C1B C 0.53286(10) 0.35537(12) 0.44814(12)
H5B H 0.6153(11) 0.2410(15) 0.1944(13)
H6B H 0.5960(11) 0.1533(15) 0.2714(14)
H7B H 0.5475(10) 0.1514(14) 0.1511(15)
N5B N 0.59311(6) 0.67966(8) 0.35206(8)
C4B C 0.63979(8) 0.74444(11) 0.21933(11)
H14B H 0.5397(11) 0.9397(14) 0.1525(14)
H15B H 0.4451(12) 0.9372(14) 0.1262(14)
H16B H 0.4482(10) 0.8505(14) 0.0685(14)
N3B N 0.62926(6) 0.46046(8) 0.42679(8)
C2B C 0.58673(9) 0.43016(12) 0.49854(12)
H1B H 0.4935(9) 0.3181(11) 0.4697(12)
N4B N 0.66340(5) 0.63070(7) 0.35054(8)
C3B C 0.69364(8) 0.66945(11) 0.26991(11)
H4B H 0.6402(8) 0.7879(11) 0.1604(10)
B2B B 0.70294(8) 0.54393(12) 0.44033(12)
H2B H 0.5978(10) 0.4610(12) 0.5697(13)
H3B H 0.7438(9) 0.6419(11) 0.2564(11)
C6B C 0.78054(9) 0.48932(14) 0.40918(16)
C7B C 0.72396(12) 0.59570(15) 0.55951(14)
H8B H 0.8003(11) 0.4339(14) 0.4592(14)
H9B H 0.7678(10) 0.4562(13) 0.3344(14)
H10B H 0.8287(12) 0.5376(15) 0.4126(14)
H11B H 0.6773(11) 0.6275(13) 0.5814(13)
H12B H 0.7481(13) 0.5466(16) 0.6138(16)
H13B H 0.7651(13) 0.6536(17) 0.5638(15)
loop_
_geom_bond_atom_site_label_1
_geom_bond_atom_site_label_2
_geom_bond_site_symmetry_1
_geom_bond_site_symmetry_2
N1 N2 1_555 1_555
N2 N3 1_555 1_555
N3 C2 1_555 1_555
N4 N5 1_555 1_555
N5 N6 1_555 1_555
N6 C4 1_555 1_555
C1 N1 1_555 1_555
C2 C1 1_555 1_555
C3 N4 1_555 1_555
C4 C3 1_555 1_555
C5 B1 1_555 1_555
C6 B2 1_555 1_555
C7 B2 1_555 1_555
C8 B3 1_555 1_555
B1 N1 1_555 1_555
B2 N3 1_555 1_555
B3 N6 1_555 1_555
H1 C1 1_555 1_555
H2 C2 1_555 1_555
H3 C3 1_555 1_555
H4 C4 1_555 1_555
H5 C5 1_555 1_555
H6 C5 1_555 1_555
H7 C5 1_555 1_555
H8 C6 1_555 1_555
H9 C6 1_555 1_555
H10 C6 1_555 1_555
H11 C7 1_555 1_555
H12 C7 1_555 1_555
H13 C7 1_555 1_555
H14 C8 1_555 1_555
H15 C8 1_555 1_555
H16 C8 1_555 1_555
N1B B1 1_555 1_555
C5B B1 1_555 1_555
N6B B3 1_555 1_555
C8B B3 1_555 1_555
N2B N1B 1_555 1_555
C1B N1B 1_555 1_555
H5B C5B 1_555 1_555
H6B C5B 1_555 1_555
H7B C5B 1_555 1_555
N5B N6B 1_555 1_555
C4B N6B 1_555 1_555
H14B C8B 1_555 1_555
H15B C8B 1_555 1_555
H16B C8B 1_555 1_555
N3B N2B 1_555 1_555
C2B C1B 1_555 1_555
H1B C1B 1_555 1_555
N4B N5B 1_555 1_555
C3B C4B 1_555 1_555
H4B C4B 1_555 1_555
B2B N3B 1_555 1_555
H2B C2B 1_555 1_555
H3B C3B 1_555 1_555
C6B B2B 1_555 1_555
C7B B2B 1_555 1_555
H8B C6B 1_555 1_555
H9B C6B 1_555 1_555
H10B C6B 1_555 1_555
H11B C7B 1_555 1_555
H12B C7B 1_555 1_555
H13B C7B 1_555 1_555
N4 B2 1_555 1_555
N3B C2B 1_555 1_555
N4B C3B 1_555 1_555
N4B B2B 1_555 1_555

#END
