
#######################################################################
#
#                 Cambridge Crystallographic Data Centre
#                                CCDC 
#
#######################################################################
#
# If this CIF has been generated from an entry in the Cambridge 
# Structural Database, then it will include bibliographic, chemical, 
# crystal, experimental, refinement or atomic coordinate data resulting 
# from the CCDC's data processing and validation procedures.
#
#######################################################################

data_JILPAY
_chemical_formula_moiety         'C18 H20 N2 O1'
_chemical_name_systematic        
N-methyl-1-phenyl-1,3,4,5-tetrahydro-2H-2-benzazepine-2-carboxamide
_symmetry_cell_setting           orthorhombic
_symmetry_space_group_name_H-M   'P b c a'
_symmetry_Int_Tables_number      61
_space_group_name_Hall           '-P 2ac 2ab'
loop_
_symmetry_equiv_pos_site_id
_symmetry_equiv_pos_as_xyz
1 x,y,z
2 1/2-x,-y,1/2+z
3 1/2+x,1/2-y,-z
4 -x,1/2+y,1/2-z
5 -x,-y,-z
6 1/2+x,y,1/2-z
7 1/2-x,1/2+y,z
8 x,1/2-y,1/2+z
_cell_length_a                   8.3785(2)
_cell_length_b                   16.8762(4)
_cell_length_c                   20.7555(6)
_cell_angle_alpha                90
_cell_angle_beta                 90
_cell_angle_gamma                90
_cell_volume                     2934.77
_exptl_crystal_colour            colorless
_chemical_melting_point          '474 K'
_cell_formula_units_Z            8
_exptl_crystal_recrystallization_method dichloromethane/pentane
loop_
_atom_site_label
_atom_site_type_symbol
_atom_site_fract_x
_atom_site_fract_y
_atom_site_fract_z
C1 C 0.23450(11) 0.24722(6) 0.28283(5)
C2 C 0.22815(13) 0.14306(6) 0.20274(5)
H1 H 0.1888 0.1352 0.1598
H2 H 0.1903 0.1012 0.2301
H3 H 0.3427 0.1428 0.2023
C3 C 0.21859(12) 0.33596(6) 0.37418(4)
H4 H 0.2862 0.2919 0.3883
C4 C 0.32232(12) 0.40919(6) 0.38057(4)
C5 C 0.47178(12) 0.40042(6) 0.40945(5)
H5 H 0.5069 0.3500 0.4208
C6 C 0.56930(13) 0.46544(7) 0.42162(5)
H6 H 0.6686 0.4585 0.4408
C7 C 0.51714(13) 0.54048(7) 0.40487(5)
H7 H 0.5801 0.5845 0.4138
C8 C 0.36988(13) 0.54976(6) 0.37467(5)
H8 H 0.3368 0.6002 0.3626
C9 C 0.27098(12) 0.48517(6) 0.36206(5)
C10 C 0.11305(12) 0.49803(6) 0.32838(5)
H9 H 0.1017 0.5539 0.3185
H10 H 0.0274 0.4836 0.3575
C11 C 0.09512(13) 0.45026(6) 0.26585(5)
H11 H 0.0143 0.4754 0.2394
H12 H 0.1952 0.4526 0.2424
C12 C 0.04982(12) 0.36346(6) 0.27514(5)
H13 H -0.0479 0.3608 0.3001
H14 H 0.0284 0.3402 0.2333
C13 C 0.07489(12) 0.33485(6) 0.41971(5)
C14 C -0.04526(13) 0.27847(6) 0.41095(5)
H15 H -0.0409 0.2446 0.3756
C15 C -0.17126(14) 0.27219(6) 0.45426(6)
H16 H -0.2506 0.2345 0.4477
C16 C -0.17877(14) 0.32203(7) 0.50727(6)
H17 H -0.2630 0.3180 0.5362
C17 C -0.05975(14) 0.37801(7) 0.51684(5)
H18 H -0.0641 0.4114 0.5524
C18 C 0.06628(13) 0.38440(6) 0.47334(5)
H19 H 0.1455 0.4221 0.4802
N1 N 0.17237(10) 0.31617(5) 0.30760(4)
N2 N 0.17150(11) 0.21886(5) 0.22718(4)
H20 H 0.0723(18) 0.2308(8) 0.2163(7)
O1 O 0.34767(9) 0.21270(4) 0.30976(4)
loop_
_geom_bond_atom_site_label_1
_geom_bond_atom_site_label_2
_geom_bond_site_symmetry_1
_geom_bond_site_symmetry_2
C1 N1 1_555 1_555
C2 H1 1_555 1_555
H2 C2 1_555 1_555
H3 C2 1_555 1_555
C3 H4 1_555 1_555
C4 C3 1_555 1_555
C5 C4 1_555 1_555
H5 C5 1_555 1_555
C6 C5 1_555 1_555
H6 C6 1_555 1_555
C7 C6 1_555 1_555
H7 C7 1_555 1_555
C8 C7 1_555 1_555
H8 C8 1_555 1_555
C9 C4 1_555 1_555
C10 C9 1_555 1_555
H9 C10 1_555 1_555
H10 C10 1_555 1_555
C11 C10 1_555 1_555
H11 C11 1_555 1_555
H12 C11 1_555 1_555
C12 C11 1_555 1_555
H13 C12 1_555 1_555
H14 C12 1_555 1_555
C13 C3 1_555 1_555
C14 C13 1_555 1_555
H15 C14 1_555 1_555
C15 C14 1_555 1_555
H16 C15 1_555 1_555
C16 C15 1_555 1_555
H17 C16 1_555 1_555
C17 C16 1_555 1_555
H18 C17 1_555 1_555
C18 C13 1_555 1_555
H19 C18 1_555 1_555
N1 C3 1_555 1_555
N2 C1 1_555 1_555
H20 N2 1_555 1_555
O1 C1 1_555 1_555
C2 N2 1_555 1_555
C8 C9 1_555 1_555
C12 N1 1_555 1_555
C17 C18 1_555 1_555

#END
