
#######################################################################
#
#                 Cambridge Crystallographic Data Centre
#                                CCDC 
#
#######################################################################
#
# If this CIF has been generated from an entry in the Cambridge 
# Structural Database, then it will include bibliographic, chemical, 
# crystal, experimental, refinement or atomic coordinate data resulting 
# from the CCDC's data processing and validation procedures.
#
#######################################################################

data_JILQIH
_chemical_formula_moiety         'C20 H23 N1 O3 S1'
_chemical_name_systematic        
4-[(4-methylphenyl)sulfonyl]-2-phenyl-5-(prop-1-en-2-yl)morpholine
_symmetry_cell_setting           monoclinic
_symmetry_space_group_name_H-M   'C 2/c'
_symmetry_Int_Tables_number      15
_space_group_name_Hall           '-C 2yn'
loop_
_symmetry_equiv_pos_site_id
_symmetry_equiv_pos_as_xyz
1 x,y,z
2 -x,y,1/2-z
3 1/2+x,1/2+y,z
4 1/2-x,1/2+y,1/2-z
5 -x,-y,-z
6 x,-y,1/2+z
7 1/2-x,1/2-y,-z
8 1/2+x,1/2-y,1/2+z
_cell_length_a                   27.193(3)
_cell_length_b                   8.6013(7)
_cell_length_c                   16.5250(17)
_cell_angle_alpha                90
_cell_angle_beta                 101.302(11)
_cell_angle_gamma                90
_cell_volume                     3790.16
_exptl_crystal_colour            colorless
_exptl_crystal_description       plate
_cell_formula_units_Z            8
loop_
_atom_site_label
_atom_site_type_symbol
_atom_site_fract_x
_atom_site_fract_y
_atom_site_fract_z
S1 S 0.33114(3) 0.49689(8) 0.24637(4)
O1 O 0.39284(7) 0.1049(2) 0.38104(11)
O2 O 0.35909(9) 0.6384(2) 0.25897(13)
O3 O 0.30124(9) 0.4618(3) 0.16745(12)
N1 N 0.37118(9) 0.3561(2) 0.26872(13)
C1 C 0.42737(16) 0.3446(4) 0.5569(2)
H1 H 0.396116 0.389742 0.555294
C2 C 0.4634(2) 0.3569(4) 0.6276(3)
H2 H 0.456374 0.410909 0.672775
C3 C 0.50932(19) 0.2904(4) 0.6321(3)
H3 H 0.533650 0.298568 0.680017
C4 C 0.51903(14) 0.2129(5) 0.5663(3)
H4 H 0.550269 0.167012 0.568812
C5 C 0.48251(14) 0.2007(5) 0.4941(2)
H5 H 0.489679 0.146540 0.449149
C6 C 0.43636(12) 0.2676(3) 0.48893(18)
C7 C 0.39720(11) 0.2605(3) 0.41130(17)
H6 H 0.364946 0.292322 0.423991
C8 C 0.40945(11) 0.3663(3) 0.34497(17)
H7 H 0.411634 0.472676 0.364768
H8 H 0.441841 0.337708 0.333199
C9 C 0.35955(12) 0.1942(3) 0.23906(17)
H9 H 0.327197 0.197028 0.200530
C10 C 0.35297(12) 0.0925(3) 0.31133(17)
H10 H 0.321834 0.120687 0.327879
H11 H 0.350132 -0.014979 0.293298
C11 C 0.29188(11) 0.4946(3) 0.31878(17)
C12 C 0.30360(12) 0.5814(3) 0.39059(19)
H12 H 0.330846 0.648860 0.398664
C13 C 0.27489(12) 0.5673(4) 0.44964(19)
H13 H 0.283503 0.624689 0.498058
C14 C 0.23359(12) 0.4709(3) 0.43968(19)
C15 C 0.22179(12) 0.3865(3) 0.3671(2)
H14 H 0.193959 0.321364 0.358738
C16 C 0.25040(12) 0.3969(3) 0.30699(19)
H15 H 0.241954 0.338855 0.258796
C17 C 0.20294(14) 0.4548(5) 0.5056(2)
H16 H 0.168484 0.437126 0.480382
H17 H 0.205575 0.548337 0.537803
H18 H 0.215186 0.368529 0.540670
C18 C 0.39811(13) 0.1423(4) 0.1912(2)
C19 C 0.4260(2) 0.0197(6) 0.2099(3)
H19 H 0.447502 -0.011868 0.175727
H20 H 0.424380 -0.036351 0.257418
C20 C 0.39983(18) 0.2349(5) 0.1152(3)
H21 H 0.366315 0.260849 0.088076
H22 H 0.415674 0.174648 0.078647
H23 H 0.418607 0.328552 0.130191
loop_
_geom_bond_atom_site_label_1
_geom_bond_atom_site_label_2
_geom_bond_site_symmetry_1
_geom_bond_site_symmetry_2
S1 O2 1_555 1_555
O1 C7 1_555 1_555
O3 S1 1_555 1_555
N1 S1 1_555 1_555
C1 H1 1_555 1_555
C2 C1 1_555 1_555
H2 C2 1_555 1_555
C3 C2 1_555 1_555
H3 C3 1_555 1_555
C4 C3 1_555 1_555
H4 C4 1_555 1_555
C5 C4 1_555 1_555
H5 C5 1_555 1_555
C6 C1 1_555 1_555
C7 C6 1_555 1_555
H6 C7 1_555 1_555
C8 N1 1_555 1_555
H7 C8 1_555 1_555
H8 C8 1_555 1_555
C9 N1 1_555 1_555
H9 C9 1_555 1_555
C10 O1 1_555 1_555
H10 C10 1_555 1_555
H11 C10 1_555 1_555
C11 S1 1_555 1_555
C12 C11 1_555 1_555
H12 C12 1_555 1_555
C13 C12 1_555 1_555
H13 C13 1_555 1_555
C14 C13 1_555 1_555
C15 C14 1_555 1_555
H14 C15 1_555 1_555
C16 C11 1_555 1_555
H15 C16 1_555 1_555
C17 C14 1_555 1_555
H16 C17 1_555 1_555
H17 C17 1_555 1_555
H18 C17 1_555 1_555
C18 C9 1_555 1_555
C19 C18 1_555 1_555
H19 C19 1_555 1_555
H20 C19 1_555 1_555
C20 C18 1_555 1_555
H21 C20 1_555 1_555
H22 C20 1_555 1_555
H23 C20 1_555 1_555
C5 C6 1_555 1_555
C7 C8 1_555 1_555
C9 C10 1_555 1_555
C15 C16 1_555 1_555

#END
