
#######################################################################
#
#                 Cambridge Crystallographic Data Centre
#                                CCDC 
#
#######################################################################
#
# If this CIF has been generated from an entry in the Cambridge 
# Structural Database, then it will include bibliographic, chemical, 
# crystal, experimental, refinement or atomic coordinate data resulting 
# from the CCDC's data processing and validation procedures.
#
#######################################################################

data_JILQAZ
_chemical_formula_moiety         'C18 H25 N1 O3 S1'
_chemical_name_systematic        
4-[(4-methylphenyl)sulfonyl]-3-(prop-1-en-2-yl)octahydro-2H-1,4-benzoxazine
_symmetry_cell_setting           monoclinic
_symmetry_space_group_name_H-M   'P 21/c'
_symmetry_Int_Tables_number      14
_space_group_name_Hall           '-P 2ybc'
loop_
_symmetry_equiv_pos_site_id
_symmetry_equiv_pos_as_xyz
1 x,y,z
2 -x,1/2+y,1/2-z
3 -x,-y,-z
4 x,1/2-y,1/2+z
_cell_length_a                   11.6879(8)
_cell_length_b                   18.2014(11)
_cell_length_c                   8.4879(4)
_cell_angle_alpha                90
_cell_angle_beta                 102.767(5)
_cell_angle_gamma                90
_cell_volume                     1761.04
_exptl_crystal_colour            colorless
_exptl_crystal_description       block
_cell_formula_units_Z            4
loop_
_atom_site_label
_atom_site_type_symbol
_atom_site_fract_x
_atom_site_fract_y
_atom_site_fract_z
S1 S 0.40683(5) 0.13764(3) 0.54370(6)
O1 O 0.30403(14) 0.01747(9) 0.92039(18)
O2 O 0.34440(14) 0.20227(8) 0.47897(17)
O3 O 0.44653(14) 0.08780(9) 0.43625(17)
N1 N 0.32432(15) 0.09141(9) 0.63818(19)
C1 C 0.2593(2) 0.12571(15) 1.0533(3)
H1 H 0.2851 0.1758 1.0783
H2 H 0.2826 0.0969 1.1512
C2 C 0.1269(2) 0.12467(17) 0.9997(3)
H3 H 0.0996 0.0743 0.9841
H4 H 0.0926 0.1465 1.0827
C3 C 0.0881(2) 0.16699(16) 0.8435(3)
H5 H 0.1129 0.2178 0.8602
H6 H 0.0032 0.1661 0.8103
C4 C 0.14086(19) 0.13334(13) 0.7113(3)
H7 H 0.1178 0.1623 0.6135
H8 H 0.1104 0.0840 0.6882
C5 C 0.27424(18) 0.13038(11) 0.7613(2)
H9 H 0.3030 0.1811 0.7669
C6 C 0.3195(2) 0.09566(12) 0.9272(2)
H10 H 0.4036 0.1061 0.9615
C7 C 0.3691(2) -0.01499(13) 0.8157(3)
H11 H 0.3630 -0.0680 0.8212
H12 H 0.4512 -0.0019 0.8518
C8 C 0.32567(19) 0.00973(11) 0.6418(3)
H13 H 0.3841 -0.0063 0.5822
C9 C 0.2083(2) -0.02127(13) 0.5536(3)
C10 C 0.1501(3) -0.07091(15) 0.6180(4)
H14 H 0.0799 -0.0898 0.5582
H15 H 0.1793 -0.0870 0.7232
C11 C 0.1645(2) 0.00611(17) 0.3849(3)
H16 H 0.1478 0.0577 0.3873
H17 H 0.0943 -0.0199 0.3353
H18 H 0.2233 -0.0019 0.3237
C12 C 0.53065(18) 0.16685(12) 0.6906(2)
C13 C 0.5418(2) 0.23905(13) 0.7411(3)
H19 H 0.4845 0.2732 0.6970
C14 C 0.6383(2) 0.26031(14) 0.8572(3)
H20 H 0.6453 0.3090 0.8911
C15 C 0.72517(19) 0.21054(14) 0.9243(3)
C16 C 0.7121(2) 0.13818(13) 0.8722(3)
H21 H 0.7694 0.1039 0.9161
C17 C 0.6157(2) 0.11593(13) 0.7566(3)
H22 H 0.6081 0.0671 0.7233
C18 C 0.8313(2) 0.23507(16) 1.0491(3)
H23 H 0.8918 0.2504 0.9961
H24 H 0.8595 0.1950 1.1207
H25 H 0.8101 0.2754 1.1098
loop_
_geom_bond_atom_site_label_1
_geom_bond_atom_site_label_2
_geom_bond_site_symmetry_1
_geom_bond_site_symmetry_2
S1 O2 1_555 1_555
O1 C6 1_555 1_555
O3 S1 1_555 1_555
N1 S1 1_555 1_555
C1 H1 1_555 1_555
H2 C1 1_555 1_555
C2 C1 1_555 1_555
H3 C2 1_555 1_555
H4 C2 1_555 1_555
C3 C2 1_555 1_555
H5 C3 1_555 1_555
H6 C3 1_555 1_555
C4 C3 1_555 1_555
H7 C4 1_555 1_555
H8 C4 1_555 1_555
C5 N1 1_555 1_555
H9 C5 1_555 1_555
C6 C1 1_555 1_555
H10 C6 1_555 1_555
C7 O1 1_555 1_555
H11 C7 1_555 1_555
H12 C7 1_555 1_555
C8 N1 1_555 1_555
H13 C8 1_555 1_555
C9 C8 1_555 1_555
C10 C9 1_555 1_555
H14 C10 1_555 1_555
H15 C10 1_555 1_555
C11 C9 1_555 1_555
H16 C11 1_555 1_555
H17 C11 1_555 1_555
H18 C11 1_555 1_555
C12 S1 1_555 1_555
C13 C12 1_555 1_555
H19 C13 1_555 1_555
C14 C13 1_555 1_555
H20 C14 1_555 1_555
C15 C14 1_555 1_555
C16 C15 1_555 1_555
H21 C16 1_555 1_555
C17 C12 1_555 1_555
H22 C17 1_555 1_555
C18 C15 1_555 1_555
H23 C18 1_555 1_555
H24 C18 1_555 1_555
H25 C18 1_555 1_555
C4 C5 1_555 1_555
C5 C6 1_555 1_555
C7 C8 1_555 1_555
C16 C17 1_555 1_555

#END
