
#######################################################################
#
#                 Cambridge Crystallographic Data Centre
#                                CCDC 
#
#######################################################################
#
# If this CIF has been generated from an entry in the Cambridge 
# Structural Database, then it will include bibliographic, chemical, 
# crystal, experimental, refinement or atomic coordinate data resulting 
# from the CCDC's data processing and validation procedures.
#
#######################################################################

data_JILVEI
_chemical_formula_moiety         'C22 H18 Br1 N1 O2,0.5(C2 H6 O1 S1)'
_chemical_name_systematic        
'3-(5-bromo-2-hydroxyphenyl)-3-(3,5-dimethylphenyl)-1,3-dihydro-2H-indol-2-one dimethyl sulfoxide solvate'
_symmetry_cell_setting           triclinic
_symmetry_space_group_name_H-M   'P 1'
_symmetry_Int_Tables_number      1
_space_group_name_Hall           'P 1'
loop_
_symmetry_equiv_pos_site_id
_symmetry_equiv_pos_as_xyz
1 x,y,z
_cell_length_a                   9.3675(10)
_cell_length_b                   9.6363(8)
_cell_length_c                   13.5455(13)
_cell_angle_alpha                89.509(8)
_cell_angle_beta                 71.958(9)
_cell_angle_gamma                66.416(9)
_cell_volume                     1056.12
_exptl_crystal_colour            colorless
_exptl_crystal_description       plate
_cell_formula_units_Z            2
loop_
_atom_site_label
_atom_site_type_symbol
_atom_site_fract_x
_atom_site_fract_y
_atom_site_fract_z
Br1 Br 0.71620(13) 0.68961(9) 0.32645(8)
O1 O 1.1198(5) -0.0853(5) 0.1542(4)
C1 C 0.7525(7) 0.1238(6) 0.3683(5)
C2 C 0.9808(8) -0.0159(6) 0.2169(5)
N1 N 0.8429(6) -0.0136(5) 0.2081(4)
H1 H 0.8385 -0.0555 0.1540
C3 C 0.6418(8) 0.1974(7) 0.4650(6)
H2 H 0.6741 0.2334 0.5140
C4 C 0.9367(7) 0.0814(6) 0.3217(5)
C5 C 0.9770(8) 0.2194(7) 0.2906(5)
C6 C 1.1056(10) -0.0131(10) 0.5494(6)
C7 C 1.0270(7) -0.0096(7) 0.3940(5)
C8 C 0.8900(12) 0.4914(8) 0.2898(6)
C9 C 0.8531(9) 0.3673(7) 0.3161(5)
H3 H 0.7443 0.3831 0.3512
O2 O 1.2728(6) 0.0615(6) 0.2127(5)
H4 H 1.2418 -0.0044 0.2037
C10 C 1.0341(9) 0.0667(8) 0.4779(5)
H5 H 0.9905 0.1728 0.4865
C11 C 0.4771(9) 0.2164(9) 0.4874(7)
H6 H 0.3984 0.2671 0.5518
C12 C 0.7034(8) 0.0661(7) 0.2982(5)
C13 C 0.5416(9) 0.0849(8) 0.3193(7)
H7 H 0.5092 0.0477 0.2709
C14 C 0.4328(9) 0.1611(9) 0.4151(8)
H8 H 0.3232 0.1760 0.4319
C15 C 1.1759(11) 0.3255(10) 0.2147(7)
H9 H 1.2843 0.3118 0.1807
C16 C 1.1402(9) 0.2020(8) 0.2398(6)
C17 C 1.1768(10) -0.1708(9) 0.5311(6)
H10 H 1.2273 -0.2255 0.5769
C18 C 1.1755(9) -0.2494(8) 0.4480(6)
C19 C 1.0499(14) 0.4692(11) 0.2403(8)
H11 H 1.0737 0.5531 0.2236
C20 C 1.2549(13) -0.4236(9) 0.4284(7)
H12 H 1.3637 -0.4585 0.3775
H13 H 1.1887 -0.4585 0.4028
H14 H 1.2624 -0.4635 0.4927
C21 C 1.0962(8) -0.1677(7) 0.3810(5)
H15 H 1.0894 -0.2203 0.3266
C22 C 1.1058(16) 0.0729(12) 0.6413(9)
H16 H 1.2157 0.0636 0.6304
H17 H 1.0693 0.0314 0.7040
H18 H 1.0326 0.1788 0.6482
Br2 Br 2.04117(11) -0.50936(11) -0.30344(8)
N2 N 1.2986(6) -0.3512(6) 0.0067(4)
H19 H 1.2261 -0.2649 0.0426
C23 C 1.4227(8) -0.4569(8) 0.0405(5)
O3 O 1.2042(6) -0.3343(6) -0.1309(4)
C24 C 1.5228(7) -0.5791(7) -0.0383(5)
O4 O 1.3942(7) -0.4632(7) -0.3272(4)
H20 H 1.3200 -0.4297 -0.2705
C25 C 1.4624(7) -0.5495(7) -0.1325(5)
C26 C 1.3063(8) -0.3999(8) -0.0869(5)
C27 C 1.6719(10) -0.6985(10) 0.0750(6)
H21 H 1.7553 -0.7813 0.0882
C28 C 1.7303(8) -0.5210(7) -0.2249(5)
H22 H 1.7577 -0.5411 -0.1643
C29 C 1.5791(8) -0.5144(6) -0.2266(5)
C30 C 1.4325(8) -0.6857(7) -0.1622(5)
C31 C 1.5382(9) -0.4751(7) -0.3170(6)
C32 C 1.8005(11) -0.4660(9) -0.4024(6)
H23 H 1.8746 -0.4517 -0.4611
C33 C 1.4470(9) -0.4513(10) 0.1341(6)
H24 H 1.3804 -0.3673 0.1855
C34 C 1.5522(9) -0.8023(7) -0.2371(6)
H25 H 1.6495 -0.7945 -0.2753
C35 C 1.5311(12) -0.9329(8) -0.2574(7)
C36 C 1.8380(8) -0.4984(8) -0.3105(6)
C37 C 1.3884(13) -0.9442(10) -0.1991(8)
H26 H 1.3742 -1.0317 -0.2116
C38 C 1.5747(10) -0.5753(11) 0.1499(6)
H27 H 1.5945 -0.5745 0.2130
C39 C 1.6516(11) -0.4559(9) -0.4035(6)
H28 H 1.6253 -0.4355 -0.4644
C40 C 1.6678(15) -1.0629(10) -0.3403(9)
H29 H 1.6358 -1.0647 -0.4009
H30 H 1.6863 -1.1583 -0.3126
H31 H 1.7677 -1.0478 -0.3596
C41 C 1.2653(11) -0.8279(10) -0.1221(7)
C42 C 1.2890(9) -0.6992(9) -0.1040(6)
H32 H 1.2077 -0.6205 -0.0521
C43 C 1.6482(8) -0.7021(8) -0.0213(6)
H33 H 1.7155 -0.7858 -0.0728
C44 C 1.1066(13) -0.8394(15) -0.0586(10)
H34 H 1.0161 -0.7669 -0.0769
H35 H 1.0869 -0.8178 0.0147
H36 H 1.1165 -0.9407 -0.0734
O5 O 0.8727(8) -0.1396(8) 0.0114(5)
S1 S 0.753(2) -0.193(2) -0.006(2)
C45 C 0.8268(15) -0.3721(14) 0.0086(11)
H37 H 0.9028 -0.4318 -0.0573
H38 H 0.7381 -0.4036 0.0332
H39 H 0.8833 -0.3871 0.0587
C46 C 0.629(3) -0.124(3) -0.026(2)
H40 H 0.5950 -0.0208 -0.0315
H41 H 0.5663 -0.1745 -0.0350
loop_
_geom_bond_atom_site_label_1
_geom_bond_atom_site_label_2
_geom_bond_site_symmetry_1
_geom_bond_site_symmetry_2
Br1 C8 1_555 1_555
O1 C2 1_555 1_555
C1 C3 1_555 1_555
C2 N1 1_555 1_555
N1 H1 1_555 1_555
C3 H2 1_555 1_555
C4 C1 1_555 1_555
C5 C4 1_555 1_555
C6 C10 1_555 1_555
C7 C4 1_555 1_555
C8 C9 1_555 1_555
C9 C5 1_555 1_555
H3 C9 1_555 1_555
O2 H4 1_555 1_555
C10 C7 1_555 1_555
H5 C10 1_555 1_555
C11 C3 1_555 1_555
H6 C11 1_555 1_555
C12 C1 1_555 1_555
C13 C12 1_555 1_555
H7 C13 1_555 1_555
C14 C11 1_555 1_555
H8 C14 1_555 1_555
C15 H9 1_555 1_555
C16 C5 1_555 1_555
C17 C6 1_555 1_555
H10 C17 1_555 1_555
C18 C17 1_555 1_555
C19 C8 1_555 1_555
H11 C19 1_555 1_555
C20 C18 1_555 1_555
H12 C20 1_555 1_555
H13 C20 1_555 1_555
H14 C20 1_555 1_555
C21 C7 1_555 1_555
H15 C21 1_555 1_555
C22 C6 1_555 1_555
H16 C22 1_555 1_555
H17 C22 1_555 1_555
H18 C22 1_555 1_555
Br2 C36 1_555 1_555
N2 H19 1_555 1_555
C23 N2 1_555 1_555
O3 C26 1_555 1_555
C24 C23 1_555 1_555
O4 H20 1_555 1_555
C25 C24 1_555 1_555
C26 N2 1_555 1_555
C27 H21 1_555 1_555
C28 H22 1_555 1_555
C29 C25 1_555 1_555
C30 C25 1_555 1_555
C31 O4 1_555 1_555
C32 H23 1_555 1_555
C33 C23 1_555 1_555
H24 C33 1_555 1_555
C34 C30 1_555 1_555
H25 C34 1_555 1_555
C35 C34 1_555 1_555
C36 C28 1_555 1_555
C37 C35 1_555 1_555
H26 C37 1_555 1_555
C38 C27 1_555 1_555
H27 C38 1_555 1_555
C39 C31 1_555 1_555
H28 C39 1_555 1_555
C40 C35 1_555 1_555
H29 C40 1_555 1_555
H30 C40 1_555 1_555
H31 C40 1_555 1_555
C41 C37 1_555 1_555
C42 C30 1_555 1_555
H32 C42 1_555 1_555
C43 C24 1_555 1_555
H33 C43 1_555 1_555
C44 C41 1_555 1_555
H34 C44 1_555 1_555
H35 C44 1_555 1_555
H36 C44 1_555 1_555
O5 S1 1_555 1_555
S1 C45 1_555 1_555
C45 H37 1_555 1_555
H38 C45 1_555 1_555
H39 C45 1_555 1_555
C46 S1 1_555 1_555
H40 C46 1_555 1_555
H41 C46 1_555 1_555
C2 C4 1_555 1_555
N1 C12 1_555 1_555
O2 C16 1_555 1_555
C13 C14 1_555 1_555
C15 C16 1_555 1_555
C15 C19 1_555 1_555
C18 C21 1_555 1_555
C25 C26 1_555 1_555
C27 C43 1_555 1_555
C28 C29 1_555 1_555
C29 C31 1_555 1_555
C32 C36 1_555 1_555
C32 C39 1_555 1_555
C33 C38 1_555 1_555
C41 C42 1_555 1_555

#END
