
#######################################################################
#
#                 Cambridge Crystallographic Data Centre
#                                CCDC 
#
#######################################################################
#
# If this CIF has been generated from an entry in the Cambridge 
# Structural Database, then it will include bibliographic, chemical, 
# crystal, experimental, refinement or atomic coordinate data resulting 
# from the CCDC's data processing and validation procedures.
#
#######################################################################

data_JILYUZ
_chemical_compound_source        'stems of Ervatamia flabelliformis'
_chemical_name_common            
rel-(4R,4aR,13aS)-4-Ethyl-3,4,4a,5,7,13a-hexahydro-2-methyl-1H-pyrido(3',4':5,6)cyclo-octa(1,2-b)indole-1,6(2H)-dione
_chemical_formula_moiety         'C20 H22 N2 O2'
_chemical_name_systematic        'Flabelliformide A'
_symmetry_cell_setting           monoclinic
_symmetry_space_group_name_H-M   'P 21'
_symmetry_Int_Tables_number      4
_space_group_name_Hall           'P 2yb'
loop_
_symmetry_equiv_pos_site_id
_symmetry_equiv_pos_as_xyz
1 x,y,z
2 -x,1/2+y,-z
_cell_length_a                   8.222(2)
_cell_length_b                   8.964(3)
_cell_length_c                   23.961(7)
_cell_angle_alpha                90
_cell_angle_beta                 97.005(4)
_cell_angle_gamma                90
_cell_volume                     1752.79
_exptl_crystal_colour            colorless
_exptl_crystal_description       needle
_chemical_melting_point          '264-265 deg.C'
_cell_formula_units_Z            4
_exptl_crystal_recrystallization_method methanol
loop_
_atom_site_label
_atom_site_type_symbol
_atom_site_fract_x
_atom_site_fract_y
_atom_site_fract_z
O1 O 0.12335(16) 0.39278(18) 1.02312(6)
O2 O 0.84846(18) 0.1924(2) 1.08108(6)
N1 N 0.2236(2) 0.3760(2) 1.11448(8)
N2 N 0.8258(2) 0.2819(2) 0.97173(8)
H1 H 0.9138(17) 0.309(3) 0.9922(7)
C1 C 0.4990(3) 0.2607(3) 1.14230(8)
H2 H 0.5607 0.3442 1.1289
C2 C 0.3423(3) 0.3221(3) 1.16033(9)
H3 H 0.2910 0.2446 1.1804
H4 H 0.3699 0.4036 1.1864
C3 C 0.2265(3) 0.3438(3) 1.06018(9)
C4 C 0.3670(2) 0.2496(2) 1.04415(7)
H5 H 0.4499 0.3197 1.0339
C5 C 0.3129(3) 0.1601(2) 0.99224(9)
H6 H 0.2080 0.1195 0.9883
C6 C 0.4063(3) 0.1353(3) 0.95160(9)
H7 H 0.3615 0.0767 0.9216
C7 C 0.5720(3) 0.1910(2) 0.94955(9)
C8 C 0.6314(3) 0.2483(3) 0.90020(9)
C9 C 0.5632(3) 0.2605(3) 0.84352(9)
H8 H 0.4587 0.2242 0.8315
C10 C 0.6550(4) 0.3272(4) 0.80663(10)
H9 H 0.6129 0.3337 0.7689
C11 C 0.8095(4) 0.3855(3) 0.82395(12)
H10 H 0.8670 0.4316 0.7976
C12 C 0.8792(3) 0.3770(3) 0.87843(11)
H11 H 0.9826 0.4162 0.8899
C13 C 0.7884(3) 0.3073(3) 0.91591(9)
C14 C 0.6983(3) 0.2107(2) 0.99254(9)
C15 C 0.7227(3) 0.1594(3) 1.05080(9)
C16 C 0.5939(3) 0.0660(3) 1.07291(8)
H12 H 0.6450 0.0072 1.1042
H13 H 0.5497 -0.0028 1.0437
C17 C 0.4515(3) 0.1550(3) 1.09258(8)
H14 H 0.3711 0.0836 1.1037
C18 C 0.6037(3) 0.1905(3) 1.19280(10)
H15 H 0.5362 0.1220 1.2113
H16 H 0.6911 0.1332 1.1793
C19 C 0.6767(3) 0.3010(4) 1.23456(9)
H17 H 0.5914 0.3607 1.2472
H18 H 0.7512 0.3640 1.2175
H19 H 0.7349 0.2497 1.2661
C20 C 0.0854(3) 0.4603(3) 1.13157(9)
H20 H 0.0194 0.3958 1.1515
H21 H 0.0202 0.4991 1.0988
H22 H 0.1259 0.5413 1.1555
O3 O 0.60827(16) 0.28617(18) 0.52064(6)
O4 O 1.33552(19) 0.0866(2) 0.58143(6)
N3 N 0.7040(2) 0.2722(2) 0.61266(7)
N4 N 1.3120(2) 0.1673(2) 0.47187(8)
H23 H 1.3987(18) 0.198(3) 0.4914(8)
C21 C 0.9803(3) 0.1631(3) 0.64157(8)
H24 H 1.0401 0.2468 0.6274
C22 C 0.8223(3) 0.2233(3) 0.65909(9)
H25 H 0.7723 0.1464 0.6798
H26 H 0.8480 0.3068 0.6844
C23 C 0.7102(2) 0.2391(3) 0.55862(9)
C24 C 0.8523(2) 0.1438(2) 0.54360(7)
H27 H 0.9344 0.2136 0.5326
C25 C 0.7996(3) 0.0501(3) 0.49262(8)
H28 H 0.6941 0.0110 0.4887
C26 C 0.8927(3) 0.0193(3) 0.45290(9)
H29 H 0.8487 -0.0437 0.4241
C27 C 1.0582(3) 0.0750(2) 0.44995(9)
C28 C 1.1178(3) 0.1293(3) 0.40005(9)
C29 C 1.0495(3) 0.1375(3) 0.34345(9)
H30 H 0.9453 0.1003 0.3319
C30 C 1.1407(4) 0.2017(3) 0.30596(10)
H31 H 1.0984 0.2052 0.2682
C31 C 1.2953(4) 0.2624(4) 0.32258(12)
H32 H 1.3519 0.3076 0.2958
C32 C 1.3655(3) 0.2570(3) 0.37713(11)
H33 H 1.4689 0.2968 0.3881
C33 C 1.2752(3) 0.1890(3) 0.41559(10)
C34 C 1.1848(3) 0.0990(2) 0.49289(9)
C35 C 1.2094(3) 0.0526(3) 0.55206(9)
C36 C 1.0799(3) -0.0372(3) 0.57542(8)
H34 H 1.1304 -0.0925 0.6078
H35 H 1.0360 -0.1091 0.5473
C37 C 0.9371(2) 0.0548(3) 0.59331(8)
H36 H 0.8566 -0.0158 0.6050
C38 C 1.0876(3) 0.0971(3) 0.69256(9)
H37 H 1.0269 0.0183 0.7086
H38 H 1.1841 0.0525 0.6799
C39 C 1.1416(4) 0.2105(4) 0.73820(10)
H39 H 1.0484 0.2423 0.7557
H40 H 1.1895 0.2951 0.7218
H41 H 1.2210 0.1659 0.7659
C40 C 0.5652(3) 0.3557(3) 0.62832(9)
H42 H 0.4971 0.2909 0.6474
H43 H 0.5028 0.3952 0.5951
H44 H 0.6039 0.4362 0.6528
loop_
_geom_bond_atom_site_label_1
_geom_bond_atom_site_label_2
_geom_bond_site_symmetry_1
_geom_bond_site_symmetry_2
O1 C3 1_555 1_555
O2 C15 1_555 1_555
N1 C2 1_555 1_555
N2 H1 1_555 1_555
C1 H2 1_555 1_555
C2 C1 1_555 1_555
H3 C2 1_555 1_555
H4 C2 1_555 1_555
C3 N1 1_555 1_555
C4 C3 1_555 1_555
H5 C4 1_555 1_555
C5 C4 1_555 1_555
H6 C5 1_555 1_555
C6 C5 1_555 1_555
H7 C6 1_555 1_555
C7 C6 1_555 1_555
C8 C7 1_555 1_555
C9 C8 1_555 1_555
H8 C9 1_555 1_555
C10 C9 1_555 1_555
H9 C10 1_555 1_555
C11 C10 1_555 1_555
H10 C11 1_555 1_555
C12 C11 1_555 1_555
H11 C12 1_555 1_555
C13 N2 1_555 1_555
C14 N2 1_555 1_555
C15 C14 1_555 1_555
C16 C15 1_555 1_555
H12 C16 1_555 1_555
H13 C16 1_555 1_555
C17 C1 1_555 1_555
H14 C17 1_555 1_555
C18 C1 1_555 1_555
H15 C18 1_555 1_555
H16 C18 1_555 1_555
C19 C18 1_555 1_555
H17 C19 1_555 1_555
H18 C19 1_555 1_555
H19 C19 1_555 1_555
C20 N1 1_555 1_555
H20 C20 1_555 1_555
H21 C20 1_555 1_555
H22 C20 1_555 1_555
O3 C23 1_555 1_555
O4 C35 1_555 1_555
N3 C22 1_555 1_555
N4 H23 1_555 1_555
C21 H24 1_555 1_555
C22 C21 1_555 1_555
H25 C22 1_555 1_555
H26 C22 1_555 1_555
C23 N3 1_555 1_555
C24 C23 1_555 1_555
H27 C24 1_555 1_555
C25 C24 1_555 1_555
H28 C25 1_555 1_555
C26 C25 1_555 1_555
H29 C26 1_555 1_555
C27 C26 1_555 1_555
C28 C27 1_555 1_555
C29 C28 1_555 1_555
H30 C29 1_555 1_555
C30 C29 1_555 1_555
H31 C30 1_555 1_555
C31 C30 1_555 1_555
H32 C31 1_555 1_555
C32 C31 1_555 1_555
H33 C32 1_555 1_555
C33 N4 1_555 1_555
C34 N4 1_555 1_555
C35 C34 1_555 1_555
C36 C35 1_555 1_555
H34 C36 1_555 1_555
H35 C36 1_555 1_555
C37 C21 1_555 1_555
H36 C37 1_555 1_555
C38 C21 1_555 1_555
H37 C38 1_555 1_555
H38 C38 1_555 1_555
C39 C38 1_555 1_555
H39 C39 1_555 1_555
H40 C39 1_555 1_555
H41 C39 1_555 1_555
C40 N3 1_555 1_555
H42 C40 1_555 1_555
H43 C40 1_555 1_555
H44 C40 1_555 1_555
C4 C17 1_555 1_555
C7 C14 1_555 1_555
C8 C13 1_555 1_555
C12 C13 1_555 1_555
C16 C17 1_555 1_555
C24 C37 1_555 1_555
C27 C34 1_555 1_555
C28 C33 1_555 1_555
C32 C33 1_555 1_555
C36 C37 1_555 1_555

#END
