
#######################################################################
#
#                 Cambridge Crystallographic Data Centre
#                                CCDC 
#
#######################################################################
#
# If this CIF has been generated from an entry in the Cambridge 
# Structural Database, then it will include bibliographic, chemical, 
# crystal, experimental, refinement or atomic coordinate data resulting 
# from the CCDC's data processing and validation procedures.
#
#######################################################################

data_JIMFUJ
_chemical_formula_moiety         'C30 H32 Si2'
_chemical_name_systematic        
(1,2-diphenylethene-1,2-diyl)bis[dimethyl(phenyl)silane]
_symmetry_cell_setting           monoclinic
_symmetry_space_group_name_H-M   'P 21/c'
_symmetry_Int_Tables_number      14
_space_group_name_Hall           '-P 2ybc'
loop_
_symmetry_equiv_pos_site_id
_symmetry_equiv_pos_as_xyz
1 x,y,z
2 -x,1/2+y,1/2-z
3 -x,-y,-z
4 x,1/2-y,1/2+z
_cell_length_a                   17.4511(3)
_cell_length_b                   6.7877(1)
_cell_length_c                   22.0327(4)
_cell_angle_alpha                90
_cell_angle_beta                 100.287(2)
_cell_angle_gamma                90
_cell_volume                     2567.88
_exptl_crystal_colour            colorless
_exptl_crystal_description       block
_cell_formula_units_Z            4
loop_
_atom_site_label
_atom_site_type_symbol
_atom_site_fract_x
_atom_site_fract_y
_atom_site_fract_z
Si1 Si 0.32711(3) 0.49104(9) 0.28331(3)
Si2 Si 0.31957(3) 0.52734(9) 0.45696(3)
C1 C 0.16951(12) 0.6593(3) 0.40448(9)
C2 C 0.24353(11) 0.5903(3) 0.38584(10)
C3 C 0.23980(13) 0.2539(4) 0.52351(10)
C4 C 0.17271(11) 0.6121(3) 0.27884(9)
C5 C 0.26131(12) 0.4506(3) 0.51713(10)
C6 C 0.14943(13) 0.8048(3) 0.26208(10)
C7 C 0.24592(11) 0.5712(3) 0.32471(10)
C8 C 0.42565(12) 0.5808(4) 0.32157(10)
C9 C 0.12793(13) 0.4550(4) 0.25082(11)
C10 C 0.11024(14) 0.5258(4) 0.41048(11)
C11 C 0.08247(13) 0.8385(4) 0.21845(11)
C12 C 0.15936(12) 0.8579(3) 0.41862(10)
C13 C 0.09217(14) 0.9197(4) 0.43920(10)
C14 C 0.23656(13) 0.5887(4) 0.55667(10)
C15 C 0.17131(14) 0.3376(4) 0.60541(11)
C16 C 0.04295(13) 0.5879(4) 0.43056(11)
C17 C 0.03414(13) 0.7850(4) 0.44521(10)
C18 C 0.06117(14) 0.4899(4) 0.20668(12)
C19 C 0.30886(13) 0.6100(4) 0.20566(10)
C20 C 0.19499(14) 0.1975(4) 0.56725(11)
C21 C 0.19189(15) 0.5344(4) 0.60023(12)
C22 C 0.43487(14) 0.7727(4) 0.34271(12)
C23 C 0.03877(13) 0.6813(4) 0.19073(10)
C24 C 0.37833(15) 0.7469(4) 0.48826(12)
C25 C 0.32395(16) 0.2172(4) 0.27367(12)
C26 C 0.49282(14) 0.4632(4) 0.32403(13)
C27 C 0.38453(15) 0.3159(4) 0.44563(12)
C28 C 0.57353(15) 0.7322(5) 0.37034(12)
C29 C 0.56634(15) 0.5393(5) 0.34912(14)
C30 C 0.50844(16) 0.8507(5) 0.36692(13)
loop_
_geom_bond_atom_site_label_1
_geom_bond_atom_site_label_2
_geom_bond_site_symmetry_1
_geom_bond_site_symmetry_2
Si1 C7 1_555 1_555
Si2 C2 1_555 1_555
C1 C2 1_555 1_555
C2 C7 1_555 1_555
C3 C5 1_555 1_555
C4 C6 1_555 1_555
C5 Si2 1_555 1_555
C6 C11 1_555 1_555
C7 C4 1_555 1_555
C8 Si1 1_555 1_555
C9 C4 1_555 1_555
C10 C1 1_555 1_555
C11 C23 1_555 1_555
C12 C1 1_555 1_555
C13 C12 1_555 1_555
C14 C5 1_555 1_555
C15 C20 1_555 1_555
C16 C10 1_555 1_555
C17 C13 1_555 1_555
C18 C9 1_555 1_555
C19 Si1 1_555 1_555
C20 C3 1_555 1_555
C21 C14 1_555 1_555
C22 C8 1_555 1_555
C23 C18 1_555 1_555
C24 Si2 1_555 1_555
C25 Si1 1_555 1_555
C26 C8 1_555 1_555
C27 Si2 1_555 1_555
C28 C29 1_555 1_555
C29 C26 1_555 1_555
C30 C22 1_555 1_555
C15 C21 1_555 1_555
C16 C17 1_555 1_555
C28 C30 1_555 1_555

#END
