
#######################################################################
#
#                 Cambridge Crystallographic Data Centre
#                                CCDC 
#
#######################################################################
#
# If this CIF has been generated from an entry in the Cambridge 
# Structural Database, then it will include bibliographic, chemical, 
# crystal, experimental, refinement or atomic coordinate data resulting 
# from the CCDC's data processing and validation procedures.
#
#######################################################################

data_JIMJIB
_chemical_formula_moiety         'C19 H13 N1'
_chemical_name_systematic        1-phenylbenzo[f]quinoline
_symmetry_cell_setting           orthorhombic
_symmetry_space_group_name_H-M   'P 21 21 21'
_symmetry_Int_Tables_number      19
_space_group_name_Hall           'P 2ac 2ab'
loop_
_symmetry_equiv_pos_site_id
_symmetry_equiv_pos_as_xyz
1 x,y,z
2 1/2-x,-y,1/2+z
3 -x,1/2+y,1/2-z
4 1/2+x,1/2-y,-z
_cell_length_a                   5.6362(2)
_cell_length_b                   10.0108(3)
_cell_length_c                   23.2599(8)
_cell_angle_alpha                90
_cell_angle_beta                 90
_cell_angle_gamma                90
_cell_volume                     1312.39
_exptl_crystal_colour            colorless
_exptl_crystal_description       block
_cell_formula_units_Z            4
loop_
_atom_site_label
_atom_site_type_symbol
_atom_site_fract_x
_atom_site_fract_y
_atom_site_fract_z
N1 N 0.3080(3) 0.81268(15) 0.69327(7)
C1 C 0.2306(3) 0.54421(17) 0.66211(7)
C2 C 0.1995(3) 0.39639(17) 0.65685(7)
C3 C 0.0916(4) 0.60779(19) 0.70249(8)
H1 H -0.029106 0.561334 0.721020
C4 C 0.4043(3) 0.62000(17) 0.63230(7)
C5 C -0.0047(4) 0.34149(18) 0.63344(7)
H2 H -0.122682 0.397140 0.619053
C6 C 0.4923(4) 0.45559(19) 0.55200(8)
H3 H 0.359906 0.405180 0.561954
C7 C 0.5454(3) 0.57310(18) 0.58365(7)
C8 C 0.4443(4) 0.75212(18) 0.65253(8)
C9 C 0.3728(3) 0.31228(19) 0.67988(8)
H4 H 0.509323 0.348373 0.696085
C10 C 0.7422(4) 0.65048(19) 0.56498(8)
C11 C 0.7876(4) 0.77817(18) 0.59088(8)
H5 H 0.919725 0.827166 0.579534
C12 C 0.3411(4) 0.17420(19) 0.67857(8)
H6 H 0.455737 0.118291 0.694326
C13 C 0.6414(4) 0.82794(18) 0.63138(9)
H7 H 0.668865 0.913127 0.645877
C14 C -0.0339(4) 0.20347(19) 0.63138(8)
H8 H -0.169763 0.167215 0.614895
C15 C 0.1324(4) 0.7423(2) 0.71557(8)
H9 H 0.030584 0.784361 0.741308
C16 C 0.1389(4) 0.12005(18) 0.65381(8)
H10 H 0.119429 0.027869 0.652283
C17 C 0.8848(4) 0.6048(2) 0.51943(8)
H11 H 1.016589 0.654462 0.508389
C18 C 0.6321(4) 0.4149(2) 0.50704(8)
H12 H 0.593163 0.337628 0.486952
C19 C 0.8332(4) 0.4885(2) 0.49102(8)
H13 H 0.930562 0.458686 0.461399
loop_
_geom_bond_atom_site_label_1
_geom_bond_atom_site_label_2
_geom_bond_site_symmetry_1
_geom_bond_site_symmetry_2
N1 C8 1_555 1_555
C1 C2 1_555 1_555
C2 C5 1_555 1_555
C3 C1 1_555 1_555
H1 C3 1_555 1_555
C4 C1 1_555 1_555
C5 H2 1_555 1_555
C6 H3 1_555 1_555
C7 C4 1_555 1_555
C8 C4 1_555 1_555
C9 C2 1_555 1_555
H4 C9 1_555 1_555
C10 C7 1_555 1_555
C11 C10 1_555 1_555
H5 C11 1_555 1_555
C12 C9 1_555 1_555
H6 C12 1_555 1_555
C13 C8 1_555 1_555
H7 C13 1_555 1_555
C14 C5 1_555 1_555
H8 C14 1_555 1_555
C15 N1 1_555 1_555
H9 C15 1_555 1_555
C16 C12 1_555 1_555
H10 C16 1_555 1_555
C17 C10 1_555 1_555
H11 C17 1_555 1_555
C18 C6 1_555 1_555
H12 C18 1_555 1_555
C19 C17 1_555 1_555
H13 C19 1_555 1_555
C3 C15 1_555 1_555
C6 C7 1_555 1_555
C11 C13 1_555 1_555
C14 C16 1_555 1_555
C18 C19 1_555 1_555

#END
