
#######################################################################
#
#                 Cambridge Crystallographic Data Centre
#                                CCDC 
#
#######################################################################
#
# If this CIF has been generated from an entry in the Cambridge 
# Structural Database, then it will include bibliographic, chemical, 
# crystal, experimental, refinement or atomic coordinate data resulting 
# from the CCDC's data processing and validation procedures.
#
#######################################################################

data_JIMJAT
_chemical_formula_moiety         'C8 H10 N2 O2,2(H2 O1)'
_chemical_name_systematic        
'2-methyl-2,6-diazabicyclo[5.2.0]non-1(7)-ene-8,9-dione dihydrate'
_symmetry_cell_setting           orthorhombic
_symmetry_space_group_name_H-M   'P b c n'
_symmetry_Int_Tables_number      60
_space_group_name_Hall           '-P 2n 2ab'
loop_
_symmetry_equiv_pos_site_id
_symmetry_equiv_pos_as_xyz
1 x,y,z
2 1/2-x,1/2-y,1/2+z
3 -x,y,1/2-z
4 1/2+x,1/2-y,-z
5 -x,-y,-z
6 1/2+x,1/2+y,1/2-z
7 x,-y,1/2+z
8 1/2-x,1/2+y,z
_cell_length_a                   31.9377(10)
_cell_length_b                   8.3100(3)
_cell_length_c                   7.4876(4)
_cell_angle_alpha                90
_cell_angle_beta                 90
_cell_angle_gamma                90
_cell_volume                     1987.23
_exptl_crystal_colour            colorless
_exptl_crystal_description       block
_cell_formula_units_Z            8
loop_
_atom_site_label
_atom_site_type_symbol
_atom_site_fract_x
_atom_site_fract_y
_atom_site_fract_z
O1 O 0.53681(3) 0.30235(13) 0.07418(18)
O2 O 0.62822(4) 0.27612(14) 0.26246(19)
N1 N 0.54195(4) 0.69272(15) 0.0894(2)
H1 H 0.5205 0.6763 0.0222
N2 N 0.63411(4) 0.67067(17) 0.2769(2)
C1 C 0.56296(5) 0.39849(18) 0.1312(2)
C2 C 0.56632(5) 0.57378(18) 0.1398(2)
C3 C 0.60488(5) 0.38709(19) 0.2167(2)
C4 C 0.60658(5) 0.56368(19) 0.2209(2)
C5 C 0.67439(5) 0.6188(2) 0.3503(3)
H2 H 0.6736 0.5051 0.3732
H3 H 0.6798 0.6753 0.4597
H4 H 0.6962 0.6418 0.2660
C6 C 0.59950(13) 0.8991(4) 0.1443(6)
H5 H 0.6025 1.0152 0.1412
H6 H 0.6102 0.8577 0.0320
C7 C 0.5531(2) 0.8600(8) 0.1545(7)
H7 H 0.5439 0.8710 0.2774
H8 H 0.5378 0.9382 0.0838
C8 C 0.6271(3) 0.8344(9) 0.2944(8)
H9 H 0.6538 0.8905 0.2932
H10 H 0.6138 0.8553 0.4084
O3 O 0.71158(4) 0.18565(15) 0.28963(19)
H18 H 0.7266 0.2565 0.2388
H19 H 0.6861 0.2146 0.2868
O4 O 0.73865(5) 0.09433(19) 0.6231(2)
H20 H 0.7290 0.1117 0.5190
H21 H 0.7288 0.0063 0.6629
H11? H 0.5165 0.6683 0.0626
C9? C 0.58125(13) 0.9054(4) 0.2316(6)
H12? H 0.5809 1.0217 0.2434
H13? H 0.5687 0.8613 0.3390
C10? C 0.5534(2) 0.8606(8) 0.0744(7)
H14? H 0.5285 0.9270 0.0745
H15? H 0.5683 0.8787 -0.0367
C11? C 0.6260(3) 0.8520(9) 0.2249(8)
H16? H 0.6422 0.9197 0.3047
H17? H 0.6365 0.8695 0.1049
loop_
_geom_bond_atom_site_label_1
_geom_bond_atom_site_label_2
_geom_bond_site_symmetry_1
_geom_bond_site_symmetry_2
O1 C1 1_555 1_555
O2 C3 1_555 1_555
N1 H1 1_555 1_555
N2 C4 1_555 1_555
C1 C2 1_555 1_555
C2 N1 1_555 1_555
C3 C1 1_555 1_555
C4 C2 1_555 1_555
C5 N2 1_555 1_555
H2 C5 1_555 1_555
H3 C5 1_555 1_555
H4 C5 1_555 1_555
C6 H5 1_555 1_555
H6 C6 1_555 1_555
C7 N1 1_555 1_555
H7 C7 1_555 1_555
H8 C7 1_555 1_555
C8 N2 1_555 1_555
H9 C8 1_555 1_555
H10 C8 1_555 1_555
O3 H18 1_555 1_555
H19 O3 1_555 1_555
O4 H20 1_555 1_555
H21 O4 1_555 1_555
C3 C4 1_555 1_555
C6 C7 1_555 1_555
C6 C8 1_555 1_555

#END
