
#######################################################################
#
#                 Cambridge Crystallographic Data Centre
#                                CCDC 
#
#######################################################################
#
# If this CIF has been generated from an entry in the Cambridge 
# Structural Database, then it will include bibliographic, chemical, 
# crystal, experimental, refinement or atomic coordinate data resulting 
# from the CCDC's data processing and validation procedures.
#
#######################################################################

data_JIMMUO
_chemical_formula_moiety         'C13 H14 Cl1 N3'
_chemical_name_systematic        
2-Amino-4-chloro-5-(4'-methylbenzyl)-6-methylpyrimidine
_symmetry_cell_setting           monoclinic
_symmetry_space_group_name_H-M   'P 21/c'
_symmetry_Int_Tables_number      14
_space_group_name_Hall           '-P 2ybc'
loop_
_symmetry_equiv_pos_site_id
_symmetry_equiv_pos_as_xyz
1 x,y,z
2 -x,1/2+y,1/2-z
3 -x,-y,-z
4 x,1/2-y,1/2+z
_cell_length_a                   14.892(7)
_cell_length_b                   6.129(3)
_cell_length_c                   14.889(7)
_cell_angle_alpha                90
_cell_angle_beta                 109.795(8)
_cell_angle_gamma                90
_cell_volume                     1278.66
_exptl_crystal_colour            colorless
_exptl_crystal_description       rectangle
_chemical_melting_point          212-213deg.C
_cell_formula_units_Z            4
_exptl_crystal_recrystallization_method 'ethyl acetate/petroleum ether'
loop_
_atom_site_label
_atom_site_type_symbol
_atom_site_fract_x
_atom_site_fract_y
_atom_site_fract_z
Cl1 Cl 0.8002(5) 0.1324(10) 0.1900(3)
N1 N 0.9904(2) -0.4741(6) 0.3640(2)
N2 N 0.9015(2) -0.1766(5) 0.2895(2)
N3 N 0.92342(17) -0.2642(4) 0.45207(17)
C2 C 0.9373(2) -0.2997(6) 0.3682(2)
C3 C 0.8489(2) -0.0060(6) 0.2978(2)
C4 C 0.8319(2) 0.0519(5) 0.3804(2)
C5 C 0.8717(2) -0.0910(5) 0.4562(2)
C6 C 0.8443(18) -0.053(6) 0.5461(11)
H4 H 0.8989 -0.0786 0.6021
H5 H 0.7939 -0.1505 0.5456
H6 H 0.8233 0.0954 0.5466
C7 C 0.7744(3) 0.2508(6) 0.3889(3)
H7 H 0.8077 0.3219 0.4492
H8 H 0.7733 0.3521 0.3385
C8 C 0.6726(2) 0.2087(5) 0.3835(2)
C9 C 0.6225(3) 0.3702(6) 0.4101(3)
H9 H 0.6520 0.5033 0.4317
C10 C 0.5289(3) 0.3377(8) 0.4053(3)
H10 H 0.4968 0.4496 0.4239
C11 C 0.4819(3) 0.1423(7) 0.3734(3)
C12 C 0.5316(3) -0.0155(6) 0.3454(3)
H11 H 0.5018 -0.1477 0.3228
C13 C 0.6255(3) 0.0163(6) 0.3499(3)
H12 H 0.6570 -0.0943 0.3297
C14 C 0.3802(3) 0.1075(9) 0.3700(4)
H13 H 0.3402 0.0799 0.3054
H14 H 0.3582 0.2357 0.3932
H15 H 0.3778 -0.0151 0.4092
H16 H 1.004(2) -0.511(5) 0.3123(13)
H17 H 1.017(2) -0.561(5) 0.4147(14)
C1? C 0.802(2) 0.140(4) 0.2089(13)
H1? H 0.8227 0.0767 0.1602
H2? H 0.7339 0.1274 0.1907
H3? H 0.8199 0.2908 0.2168
Cl2? Cl 0.8595(4) -0.0636(14) 0.5654(2)
loop_
_geom_bond_atom_site_label_1
_geom_bond_atom_site_label_2
_geom_bond_site_symmetry_1
_geom_bond_site_symmetry_2
Cl1 C3 1_555 1_555
N1 C2 1_555 1_555
N2 C2 1_555 1_555
N3 C2 1_555 1_555
C3 N2 1_555 1_555
C4 C3 1_555 1_555
C5 N3 1_555 1_555
C6 C5 1_555 1_555
H4 C6 1_555 1_555
H5 C6 1_555 1_555
H6 C6 1_555 1_555
C7 C4 1_555 1_555
H7 C7 1_555 1_555
H8 C7 1_555 1_555
C8 C7 1_555 1_555
C9 C8 1_555 1_555
H9 C9 1_555 1_555
C10 C9 1_555 1_555
H10 C10 1_555 1_555
C11 C10 1_555 1_555
C12 C11 1_555 1_555
H11 C12 1_555 1_555
C13 C8 1_555 1_555
H12 C13 1_555 1_555
C14 C11 1_555 1_555
H13 C14 1_555 1_555
H14 C14 1_555 1_555
H15 C14 1_555 1_555
H16 N1 1_555 1_555
H17 N1 1_555 1_555
C4 C5 1_555 1_555
C12 C13 1_555 1_555

#END
