
#######################################################################
#
#                 Cambridge Crystallographic Data Centre
#                                CCDC 
#
#######################################################################
#
# If this CIF has been generated from an entry in the Cambridge 
# Structural Database, then it will include bibliographic, chemical, 
# crystal, experimental, refinement or atomic coordinate data resulting 
# from the CCDC's data processing and validation procedures.
#
#######################################################################

data_JIMSUT
_chemical_formula_moiety         'C18 H32 N2 O5 S1 Si1'
_chemical_name_systematic        
'N-((3-Methyl-2-trimethylsiloxyisoxolidin-5-yl)-carbonyl) (2R)-bornane-10,2-sultam'
_symmetry_cell_setting           orthorhombic
_symmetry_space_group_name_H-M   'P 21 21 21'
_symmetry_Int_Tables_number      19
_space_group_name_Hall           'P 2ac 2ab'
loop_
_symmetry_equiv_pos_site_id
_symmetry_equiv_pos_as_xyz
1 x,y,z
2 1/2+x,1/2-y,-z
3 -x,1/2+y,1/2-z
4 1/2-x,-y,1/2+z
_cell_length_a                   7.627(1)
_cell_length_b                   11.436(2)
_cell_length_c                   25.783(2)
_cell_angle_alpha                90
_cell_angle_beta                 90
_cell_angle_gamma                90
_cell_volume                     2248.85
_exptl_crystal_colour            colorless
_cell_formula_units_Z            4
loop_
_atom_site_label
_atom_site_type_symbol
_atom_site_fract_x
_atom_site_fract_y
_atom_site_fract_z
S1 S 0.1371(4) 0.1050(3) 0.9398(1)
Si1 Si -0.0526(5) -0.2123(3) 0.7577(1)
O1 O 0.206(1) 0.022(1) 0.9041(3)
O2 O 0.120(1) 0.2208(8) 0.9220(3)
O3 O -0.349(1) 0.0693(8) 0.9540(3)
O4 O -0.154(1) -0.0903(5) 0.8723(2)
O5 O -0.154(1) -0.0959(6) 0.7842(2)
N1 N -0.058(1) 0.0577(7) 0.9625(3)
N2 N -0.247(1) -0.1350(7) 0.8295(3)
C1 C 0.243(1) 0.104(1) 1.0017(4)
C2 C 0.121(1) 0.0515(8) 1.0398(4)
C3 C -0.067(1) 0.0675(8) 1.0197(3)
C4 C -0.170(1) -0.029(1) 1.0466(4)
C5 C -0.032(2) -0.074(1) 1.0859(4)
C6 C 0.007(2) 0.024(1) 1.1253(4)
C7 C 0.117(2) 0.110(1) 1.0932(4)
C8 C 0.134(2) -0.0764(8) 1.0536(4)
C9 C 0.301(2) -0.109(1) 1.0843(5)
C10 C 0.122(2) -0.162(1) 1.0067(5)
C11 C -0.211(2) 0.0604(9) 0.9323(4)
C12 C -0.188(1) 0.0361(9) 0.8756(4)
C13 C -0.353(2) 0.0571(9) 0.8441(4)
C14 C -0.410(1) -0.0654(9) 0.8316(4)
C15 C -0.515(2) -0.083(1) 0.7817(5)
C16 C 0.098(2) -0.282(1) 0.8050(5)
C17 C 0.063(2) -0.146(1) 0.7028(4)
C18 C -0.216(2) -0.320(1) 0.7333(6)
loop_
_geom_bond_atom_site_label_1
_geom_bond_atom_site_label_2
_geom_bond_site_symmetry_1
_geom_bond_site_symmetry_2
S1 O1 1_555 1_555
Si1 O5 1_555 1_555
O2 S1 1_555 1_555
O3 C11 1_555 1_555
O4 N2 1_555 1_555
O5 N2 1_555 1_555
N1 S1 1_555 1_555
N2 C14 1_555 1_555
C1 S1 1_555 1_555
C2 C1 1_555 1_555
C3 N1 1_555 1_555
C4 C3 1_555 1_555
C5 C4 1_555 1_555
C6 C5 1_555 1_555
C7 C2 1_555 1_555
C8 C2 1_555 1_555
C9 C8 1_555 1_555
C10 C8 1_555 1_555
C11 N1 1_555 1_555
C12 O4 1_555 1_555
C13 C12 1_555 1_555
C14 C13 1_555 1_555
C15 C14 1_555 1_555
C16 Si1 1_555 1_555
C17 Si1 1_555 1_555
C18 Si1 1_555 1_555
C2 C3 1_555 1_555
C5 C8 1_555 1_555
C6 C7 1_555 1_555
C11 C12 1_555 1_555

#END
