
#######################################################################
#
#                 Cambridge Crystallographic Data Centre
#                                CCDC 
#
#######################################################################
#
# If this CIF has been generated from an entry in the Cambridge 
# Structural Database, then it will include bibliographic, chemical, 
# crystal, experimental, refinement or atomic coordinate data resulting 
# from the CCDC's data processing and validation procedures.
#
#######################################################################

data_JIMTOP
_chemical_formula_moiety         'C16 H10 F8 N4 O4'
_chemical_name_systematic        
N,N-Dimethyl-N,N-bis(2,3,5,6-tetrafluoro-4-nitrophenyl)ethane-1,2-diamine
_symmetry_cell_setting           monoclinic
_symmetry_space_group_name_H-M   'P 21/c'
_symmetry_Int_Tables_number      14
_space_group_name_Hall           '-P 2ybc'
loop_
_symmetry_equiv_pos_site_id
_symmetry_equiv_pos_as_xyz
1 x,y,z
2 -x,1/2+y,1/2-z
3 -x,-y,-z
4 x,1/2-y,1/2+z
_cell_length_a                   8.9004(2)
_cell_length_b                   5.6928(1)
_cell_length_c                   17.4069(4)
_cell_angle_alpha                90
_cell_angle_beta                 102.21(1)
_cell_angle_gamma                90
_cell_volume                     862.025
_exptl_crystal_colour            yellow
_exptl_crystal_description       plate
_chemical_melting_point          '73-74 deg.C'
_cell_formula_units_Z            2
loop_
_atom_site_label
_atom_site_type_symbol
_atom_site_fract_x
_atom_site_fract_y
_atom_site_fract_z
O1 O 0.6049(3) -0.4551(4) 0.17192(13)
O2 O 0.7375(3) -0.1567(4) 0.1514(2)
N1 N 0.0757(2) 0.3105(4) 0.08883(11)
N2 N 0.6173(2) -0.2470(4) 0.15292(13)
F1 F 0.33170(17) 0.4200(3) 0.02986(9)
F2 F 0.58258(17) 0.1673(3) 0.05792(9)
F3 F 0.35051(18) -0.3545(2) 0.21218(9)
F4 F 0.10016(16) -0.1082(2) 0.18074(8)
C1 C 0.0055(3) 0.3679(4) 0.00714(15)
C2 C -0.0257(3) 0.3276(5) 0.14501(17)
C3 C 0.2045(2) 0.1705(4) 0.10455(12)
C4 C 0.3338(3) 0.2256(4) 0.07417(13)
C5 C 0.4669(3) 0.0961(4) 0.08983(14)
C6 C 0.4784(3) -0.1035(4) 0.13684(13)
C7 C 0.3517(3) -0.1639(4) 0.16764(12)
C8 C 0.2201(2) -0.0306(4) 0.15189(12)
H1 H 0.063(3) 0.297(5) -0.0268(15)
H2 H -0.093(3) 0.300(5) -0.0048(15)
H3 H 0.038(4) 0.319(6) 0.1964(19)
H4 H -0.074(3) 0.487(6) 0.1370(17)
H5 H -0.102(4) 0.202(6) 0.1337(17)
O1B O -0.6049(3) 1.4551(4) -0.17192(13)
O2B O -0.7375(3) 1.1567(4) -0.1514(2)
N1B N -0.0757(2) 0.6895(4) -0.08883(11)
N2B N -0.6173(2) 1.2470(4) -0.15292(13)
F1B F -0.33170(17) 0.5800(3) -0.02986(9)
F2B F -0.58258(17) 0.8327(3) -0.05792(9)
F3B F -0.35051(18) 1.3545(2) -0.21218(9)
F4B F -0.10016(16) 1.1082(2) -0.18074(8)
C1B C -0.0055(3) 0.6321(4) -0.00714(15)
C2B C 0.0257(3) 0.6724(5) -0.14501(17)
C3B C -0.2045(2) 0.8295(4) -0.10455(12)
C4B C -0.3338(3) 0.7744(4) -0.07417(13)
C5B C -0.4669(3) 0.9039(4) -0.08983(14)
C6B C -0.4784(3) 1.1035(4) -0.13684(13)
C7B C -0.3517(3) 1.1639(4) -0.16764(12)
C8B C -0.2201(2) 1.0306(4) -0.15189(12)
H1B H -0.063(3) 0.703(5) 0.0268(15)
H2B H 0.093(3) 0.700(5) 0.0048(15)
H3B H -0.038(4) 0.681(6) -0.1964(19)
H4B H 0.074(3) 0.513(6) -0.1370(17)
H5B H 0.102(4) 0.798(6) -0.1337(17)
O3? O 0.6732(17) -0.337(3) 0.2139(6)
O4? O 0.6917(18) -0.195(3) 0.1028(8)
loop_
_geom_bond_atom_site_label_1
_geom_bond_atom_site_label_2
_geom_bond_site_symmetry_1
_geom_bond_site_symmetry_2
O1 N2 1_555 1_555
O2 N2 1_555 1_555
N1 C1 1_555 1_555
N2 C6 1_555 1_555
F1 C4 1_555 1_555
F2 C5 1_555 1_555
F3 C7 1_555 1_555
F4 C8 1_555 1_555
C1 H1 1_555 1_555
C2 N1 1_555 1_555
C3 N1 1_555 1_555
C4 C3 1_555 1_555
C5 C4 1_555 1_555
C6 C5 1_555 1_555
C7 C6 1_555 1_555
C8 C3 1_555 1_555
H2 C1 1_555 1_555
H3 C2 1_555 1_555
H4 C2 1_555 1_555
H5 C2 1_555 1_555
O1B N2B 1_555 1_555
O2B N2B 1_555 1_555
N1B C1B 1_555 1_555
N2B C6B 1_555 1_555
F1B C4B 1_555 1_555
F2B C5B 1_555 1_555
F3B C7B 1_555 1_555
F4B C8B 1_555 1_555
C1B C1 1_555 1_555
C2B N1B 1_555 1_555
C3B N1B 1_555 1_555
C4B C3B 1_555 1_555
C5B C4B 1_555 1_555
C6B C5B 1_555 1_555
C7B C6B 1_555 1_555
C8B C3B 1_555 1_555
H1B C1B 1_555 1_555
H2B C1B 1_555 1_555
H3B C2B 1_555 1_555
H4B C2B 1_555 1_555
H5B C2B 1_555 1_555
C7 C8 1_555 1_555
C7B C8B 1_555 1_555

#END
