
#######################################################################
#
#                 Cambridge Crystallographic Data Centre
#                                CCDC 
#
#######################################################################
#
# If this CIF has been generated from an entry in the Cambridge 
# Structural Database, then it will include bibliographic, chemical, 
# crystal, experimental, refinement or atomic coordinate data resulting 
# from the CCDC's data processing and validation procedures.
#
#######################################################################

data_JIMTEH
_chemical_formula_moiety         'C28 H28 N4 O4'
_chemical_name_systematic        
'[5-(1-methyl-1H-indol-3-yl)-3-(3,4,5-trimethoxyphenyl)-4,5-dihydro-1H-pyrazol-1-yl](6-methylpyridin-3-yl)methanone'
_symmetry_cell_setting           monoclinic
_symmetry_space_group_name_H-M   'P 21/n'
_symmetry_Int_Tables_number      14
_space_group_name_Hall           '-P 2yn'
loop_
_symmetry_equiv_pos_site_id
_symmetry_equiv_pos_as_xyz
1 x,y,z
2 1/2-x,1/2+y,1/2-z
3 -x,-y,-z
4 1/2+x,1/2-y,1/2+z
_cell_length_a                   12.0043(7)
_cell_length_b                   9.7511(6)
_cell_length_c                   21.1635(12)
_cell_angle_alpha                90
_cell_angle_beta                 91.548(2)
_cell_angle_gamma                90
_cell_volume                     2476.39
_exptl_crystal_colour            orange
_exptl_crystal_description       block
_cell_formula_units_Z            4
loop_
_atom_site_label
_atom_site_type_symbol
_atom_site_fract_x
_atom_site_fract_y
_atom_site_fract_z
O1 O 0.74715(11) 1.05863(15) 1.09867(6)
N1 N 0.89613(13) 0.75932(16) 0.84478(7)
O2 O 0.94231(12) 0.61776(15) 0.69467(6)
N2 N 0.88756(13) 0.72584(16) 0.78075(7)
O3 O 0.61143(12) 1.13042(16) 1.00251(6)
O4 O 0.91899(12) 0.89069(17) 1.08262(6)
C1 C 0.81406(15) 0.83798(19) 0.85756(8)
C2 C 0.79824(15) 0.89446(19) 0.92086(8)
C3 C 0.95740(16) 0.63909(18) 0.75128(8)
C4 C 0.71055(15) 0.9843(2) 0.92975(8)
H1 H 0.6627 1.0069 0.8960
C5 C 0.69421(15) 1.0407(2) 0.98915(9)
C6 C 0.76569(15) 1.0065(2) 1.03960(8)
C7 C 1.05170(15) 0.57097(18) 0.78604(8)
C8 C 0.73778(16) 0.8692(2) 0.80197(8)
H2 H 0.7338 0.9671 0.7941
H3 H 0.6633 0.8345 0.8087
N3 N 1.13747(16) 0.46021(19) 0.87643(8)
C9 C 0.87028(16) 0.8604(2) 0.97108(9)
H4 H 0.9291 0.8003 0.9649
C10 C 0.85407(15) 0.9163(2) 1.03024(8)
C11 C 1.05355(18) 0.5299(2) 0.84864(9)
H5 H 0.9927 0.5522 0.8729
C12 C 0.82440(17) 0.8859(2) 0.69462(9)
C13 C 1.22957(18) 0.4644(2) 0.77884(10)
H6 H 1.2916 0.4415 0.7556
C14 C 0.79218(15) 0.7946(2) 0.74737(8)
H7 H 0.7407 0.7245 0.7308
C15 C 1.14300(18) 0.5345(2) 0.75071(10)
H8 H 1.1452 0.5578 0.7081
C16 C 1.22491(17) 0.4277(2) 0.84160(10)
C17 C 0.90038(18) 0.9980(2) 0.69736(11)
C18 C 1.01391(18) 0.8065(3) 1.07557(11)
H9 H 0.9911 0.7184 1.0595
H10 H 1.0514 0.7951 1.1159
H11 H 1.0635 0.8487 1.0466
C19 C 0.9038(2) 1.0569(3) 0.63727(12)
C20 C 0.53031(18) 1.1582(3) 0.95352(10)
H12 H 0.5657 1.2020 0.9187
H13 H 0.4738 1.2175 0.9695
H14 H 0.4969 1.0737 0.9394
C21 C 0.7833(2) 0.8818(3) 0.63431(11)
H15 H 0.7306 0.8190 0.6193
C22 C 1.0366(3) 1.2215(4) 0.6732(2)
H16 H 1.0829 1.2961 0.6660
C23 C 0.9730(3) 1.1684(3) 0.62311(18)
H17 H 0.9761 1.2045 0.5825
C24 C 0.8104(2) 1.1770(3) 1.11324(12)
H18 H 0.8883 1.1555 1.1118
H19 H 0.7932 1.2084 1.1549
H20 H 0.7927 1.2476 1.0830
C25 C 0.96753(18) 1.0563(3) 0.74463(14)
H21 H 0.9684 1.0195 0.7852
N4 N 0.8296(3) 0.9823(3) 0.59881(10)
C26 C 0.8043(5) 1.0089(4) 0.53266(14)
H22 H 0.8005 1.1061 0.5257
H23 H 0.7339 0.9680 0.5210
H24 H 0.8616 0.9702 0.5074
C27 C 1.3176(2) 0.3492(3) 0.87383(13)
H25 H 1.3630 0.4109 0.8988
H26 H 1.3624 0.3061 0.8426
H27 H 1.2869 0.2805 0.9007
C28 C 1.0330(2) 1.1685(3) 0.7316(2)
H28 H 1.0756 1.2083 0.7640
loop_
_geom_bond_atom_site_label_1
_geom_bond_atom_site_label_2
_geom_bond_site_symmetry_1
_geom_bond_site_symmetry_2
O1 C6 1_555 1_555
N1 N2 1_555 1_555
O2 C3 1_555 1_555
N2 C3 1_555 1_555
O3 C5 1_555 1_555
O4 C10 1_555 1_555
C1 N1 1_555 1_555
C2 C1 1_555 1_555
C3 C7 1_555 1_555
C4 C2 1_555 1_555
H1 C4 1_555 1_555
C5 C4 1_555 1_555
C6 C5 1_555 1_555
C7 C11 1_555 1_555
C8 C1 1_555 1_555
H2 C8 1_555 1_555
H3 C8 1_555 1_555
N3 C11 1_555 1_555
C9 C2 1_555 1_555
H4 C9 1_555 1_555
C10 C6 1_555 1_555
C11 H5 1_555 1_555
C12 C14 1_555 1_555
C13 H6 1_555 1_555
C14 N2 1_555 1_555
H7 C14 1_555 1_555
C15 C7 1_555 1_555
H8 C15 1_555 1_555
C16 N3 1_555 1_555
C17 C12 1_555 1_555
C18 O4 1_555 1_555
H9 C18 1_555 1_555
H10 C18 1_555 1_555
H11 C18 1_555 1_555
C19 C17 1_555 1_555
C20 O3 1_555 1_555
H12 C20 1_555 1_555
H13 C20 1_555 1_555
H14 C20 1_555 1_555
C21 C12 1_555 1_555
H15 C21 1_555 1_555
C22 H16 1_555 1_555
C23 C19 1_555 1_555
H17 C23 1_555 1_555
C24 O1 1_555 1_555
H18 C24 1_555 1_555
H19 C24 1_555 1_555
H20 C24 1_555 1_555
C25 C17 1_555 1_555
H21 C25 1_555 1_555
N4 C19 1_555 1_555
C26 N4 1_555 1_555
H22 C26 1_555 1_555
H23 C26 1_555 1_555
H24 C26 1_555 1_555
C27 C16 1_555 1_555
H25 C27 1_555 1_555
H26 C27 1_555 1_555
H27 C27 1_555 1_555
C28 C22 1_555 1_555
H28 C28 1_555 1_555
C8 C14 1_555 1_555
C9 C10 1_555 1_555
C13 C15 1_555 1_555
C13 C16 1_555 1_555
C21 N4 1_555 1_555
C22 C23 1_555 1_555
C25 C28 1_555 1_555

#END
