
#######################################################################
#
#                 Cambridge Crystallographic Data Centre
#                                CCDC 
#
#######################################################################
#
# If this CIF has been generated from an entry in the Cambridge 
# Structural Database, then it will include bibliographic, chemical, 
# crystal, experimental, refinement or atomic coordinate data resulting 
# from the CCDC's data processing and validation procedures.
#
#######################################################################

data_JINFEU
_chemical_formula_moiety         'C38 H30 B1 F10 O1 P1'
_chemical_name_systematic        
1,1-dimesityl-3,3-bis(pentafluorophenyl)-5-phenyl-2,1,3-oxaphosphoniaboratolane
_symmetry_cell_setting           triclinic
_symmetry_space_group_name_H-M   'P -1'
_symmetry_Int_Tables_number      2
_space_group_name_Hall           '-P 1'
loop_
_symmetry_equiv_pos_site_id
_symmetry_equiv_pos_as_xyz
1 x,y,z
2 -x,-y,-z
_cell_length_a                   8.7905(17)
_cell_length_b                   12.014(2)
_cell_length_c                   16.205(3)
_cell_angle_alpha                84.360(3)
_cell_angle_beta                 85.808(3)
_cell_angle_gamma                88.853(3)
_cell_volume                     1698.41
_exptl_crystal_colour            colorless
_exptl_crystal_description       prism
_cell_formula_units_Z            2
loop_
_atom_site_label
_atom_site_type_symbol
_atom_site_fract_x
_atom_site_fract_y
_atom_site_fract_z
B1 B 0.1510(4) 0.4365(3) 0.2608(2)
C1 C 0.1345(4) 0.3669(3) 0.1817(2)
H1 H 0.0284 0.3500 0.1765
H2 H 0.1740 0.4093 0.1309
C2 C 0.2296(4) 0.2569(3) 0.1986(2)
H3 H 0.1696 0.2084 0.2405
C3 C 0.2628(4) 0.1917(3) 0.1241(2)
C4 C 0.3446(5) 0.2340(3) 0.0526(2)
H4 H 0.3842 0.3056 0.0500
C5 C 0.3697(6) 0.1739(4) -0.0152(3)
H5 H 0.4280 0.2031 -0.0622
C6 C 0.3057(9) 0.0683(4) -0.0117(3)
H6 H 0.3208 0.0266 -0.0571
C7 C 0.2223(9) 0.0260(4) 0.0568(3)
H7 H 0.1791 -0.0443 0.0583
C8 C 0.2006(6) 0.0872(3) 0.1250(3)
H8 H 0.1432 0.0572 0.1721
C9 C 0.5631(4) 0.3165(3) 0.18098(19)
C10 C 0.5986(4) 0.4140(3) 0.1283(2)
C11 C 0.7172(5) 0.4070(4) 0.0682(2)
H9 H 0.7410 0.4707 0.0325
C12 C 0.8024(4) 0.3110(4) 0.0580(2)
C13 C 0.7669(4) 0.2169(4) 0.1113(2)
H10 H 0.8238 0.1516 0.1058
C14 C 0.6487(4) 0.2170(3) 0.1730(2)
C15 C 0.6179(5) 0.1091(3) 0.2253(3)
H11 H 0.6935 0.0543 0.2107
H12 H 0.5186 0.0832 0.2160
H13 H 0.6218 0.1206 0.2829
C16 C 0.9302(5) 0.3092(5) -0.0107(3)
H14 H 0.8900 0.2874 -0.0601
H15 H 1.0080 0.2567 0.0068
H16 H 0.9732 0.3824 -0.0220
C17 C 0.5190(5) 0.5261(3) 0.1313(3)
H17 H 0.5742 0.5811 0.0945
H18 H 0.5150 0.5474 0.1870
H19 H 0.4172 0.5211 0.1143
C18 C 0.4203(4) 0.2452(3) 0.35581(19)
C19 C 0.5030(4) 0.3132(3) 0.4031(2)
C20 C 0.5044(4) 0.2838(3) 0.4879(2)
H20 H 0.5582 0.3280 0.5194
C21 C 0.4299(5) 0.1923(4) 0.5274(2)
C22 C 0.3555(5) 0.1247(3) 0.4802(2)
H21 H 0.3075 0.0611 0.5065
C23 C 0.3490(4) 0.1478(3) 0.3944(2)
C24 C 0.2630(5) 0.0645(3) 0.3527(3)
H22 H 0.1574 0.0865 0.3525
H23 H 0.2717 -0.0082 0.3824
H24 H 0.3050 0.0621 0.2965
C25 C 0.4247(8) 0.1673(5) 0.6223(3)
H25 H 0.4559 0.2322 0.6465
H26 H 0.4923 0.1058 0.6365
H27 H 0.3225 0.1484 0.6433
C26 C 0.5917(5) 0.4160(3) 0.3680(3)
H28 H 0.5228 0.4785 0.3602
H29 H 0.6433 0.4025 0.3156
H30 H 0.6653 0.4321 0.4060
C27 C 0.0725(4) 0.3780(3) 0.3512(2)
C28 C -0.0296(4) 0.2903(3) 0.3615(2)
C29 C -0.0759(5) 0.2352(3) 0.4368(3)
C30 C -0.0188(6) 0.2669(4) 0.5076(3)
C31 C 0.0790(5) 0.3560(4) 0.5016(2)
C32 C 0.1214(4) 0.4076(3) 0.4247(2)
C33 C 0.1010(4) 0.5687(3) 0.24764(19)
C34 C -0.0482(4) 0.5946(3) 0.2292(2)
C35 C -0.1069(4) 0.7012(3) 0.2184(2)
C36 C -0.0144(5) 0.7897(3) 0.2240(2)
C37 C 0.1360(5) 0.7697(3) 0.2415(2)
C38 C 0.1881(4) 0.6609(3) 0.2544(2)
F1 F -0.0896(3) 0.25292(19) 0.29477(15)
F2 F -0.1709(3) 0.1488(2) 0.44101(19)
F3 F -0.0615(4) 0.2120(3) 0.58109(17)
F4 F 0.1314(4) 0.3880(2) 0.57077(14)
F5 F 0.2177(3) 0.49463(17) 0.42364(13)
F6 F -0.1453(2) 0.51086(18) 0.22261(15)
F7 F -0.2531(3) 0.7202(2) 0.20151(18)
F8 F -0.0662(4) 0.89611(19) 0.21244(19)
F9 F 0.2274(3) 0.85509(18) 0.24932(19)
F10 F 0.3334(3) 0.64957(17) 0.27548(17)
O1 O 0.3285(2) 0.42800(17) 0.26581(13)
P1 P 0.39085(9) 0.30947(7) 0.25111(5)
loop_
_geom_bond_atom_site_label_1
_geom_bond_atom_site_label_2
_geom_bond_site_symmetry_1
_geom_bond_site_symmetry_2
B1 C1 1_555 1_555
C1 H1 1_555 1_555
H2 C1 1_555 1_555
C2 C1 1_555 1_555
H3 C2 1_555 1_555
C3 C2 1_555 1_555
C4 C3 1_555 1_555
H4 C4 1_555 1_555
C5 C4 1_555 1_555
H5 C5 1_555 1_555
C6 C5 1_555 1_555
H6 C6 1_555 1_555
C7 C6 1_555 1_555
H7 C7 1_555 1_555
C8 C3 1_555 1_555
H8 C8 1_555 1_555
C9 C10 1_555 1_555
C10 C11 1_555 1_555
C11 H9 1_555 1_555
C12 C11 1_555 1_555
C13 C12 1_555 1_555
H10 C13 1_555 1_555
C14 C9 1_555 1_555
C15 C14 1_555 1_555
H11 C15 1_555 1_555
H12 C15 1_555 1_555
H13 C15 1_555 1_555
C16 C12 1_555 1_555
H14 C16 1_555 1_555
H15 C16 1_555 1_555
H16 C16 1_555 1_555
C17 C10 1_555 1_555
H17 C17 1_555 1_555
H18 C17 1_555 1_555
H19 C17 1_555 1_555
C18 C19 1_555 1_555
C19 C20 1_555 1_555
C20 H20 1_555 1_555
C21 C20 1_555 1_555
C22 C21 1_555 1_555
H21 C22 1_555 1_555
C23 C18 1_555 1_555
C24 C23 1_555 1_555
H22 C24 1_555 1_555
H23 C24 1_555 1_555
H24 C24 1_555 1_555
C25 C21 1_555 1_555
H25 C25 1_555 1_555
H26 C25 1_555 1_555
H27 C25 1_555 1_555
C26 C19 1_555 1_555
H28 C26 1_555 1_555
H29 C26 1_555 1_555
H30 C26 1_555 1_555
C27 B1 1_555 1_555
C28 C27 1_555 1_555
C29 C28 1_555 1_555
C30 C29 1_555 1_555
C31 C30 1_555 1_555
C32 C27 1_555 1_555
C33 B1 1_555 1_555
C34 C33 1_555 1_555
C35 C34 1_555 1_555
C36 C35 1_555 1_555
C37 C36 1_555 1_555
C38 C33 1_555 1_555
F1 C28 1_555 1_555
F2 C29 1_555 1_555
F3 C30 1_555 1_555
F4 C31 1_555 1_555
F5 C32 1_555 1_555
F6 C34 1_555 1_555
F7 C35 1_555 1_555
F8 C36 1_555 1_555
F9 C37 1_555 1_555
F10 C38 1_555 1_555
O1 B1 1_555 1_555
P1 C2 1_555 1_555
C7 C8 1_555 1_555
C9 P1 1_555 1_555
C13 C14 1_555 1_555
C18 P1 1_555 1_555
C22 C23 1_555 1_555
C31 C32 1_555 1_555
C37 C38 1_555 1_555
O1 P1 1_555 1_555

#END
