
#######################################################################
#
#                 Cambridge Crystallographic Data Centre
#                                CCDC 
#
#######################################################################
#
# If this CIF has been generated from an entry in the Cambridge 
# Structural Database, then it will include bibliographic, chemical, 
# crystal, experimental, refinement or atomic coordinate data resulting 
# from the CCDC's data processing and validation procedures.
#
#######################################################################

data_JINGAR
_chemical_formula_moiety         'C35 H30 B1 F10 O1 P1'
_chemical_name_systematic        
1,1-dimesityl-3,3-bis(pentafluorophenyl)-5-(propen-2-yl)-2,1,3-oxaphosphoniaboratolane
_symmetry_cell_setting           monoclinic
_symmetry_space_group_name_H-M   'P 21/c'
_symmetry_Int_Tables_number      14
_space_group_name_Hall           '-P 2ybc'
loop_
_symmetry_equiv_pos_site_id
_symmetry_equiv_pos_as_xyz
1 x,y,z
2 -x,1/2+y,1/2-z
3 -x,-y,-z
4 x,1/2-y,1/2+z
_cell_length_a                   12.078(5)
_cell_length_b                   8.875(4)
_cell_length_c                   29.647(12)
_cell_angle_alpha                90
_cell_angle_beta                 90.449(5)
_cell_angle_gamma                90
_cell_volume                     3177.83
_exptl_crystal_colour            colorless
_exptl_crystal_description       prism
_cell_formula_units_Z            4
loop_
_atom_site_label
_atom_site_type_symbol
_atom_site_fract_x
_atom_site_fract_y
_atom_site_fract_z
B1 B 0.39642(19) 0.3784(3) 0.13120(8)
C1 C 0.31106(16) 0.4069(3) 0.17205(7)
H1 H 0.3434 0.3751 0.2005
H2 H 0.2920 0.5129 0.1741
C2 C 0.20725(16) 0.3116(2) 0.16053(7)
H3 H 0.1690 0.3648 0.1360
C3 C 0.12428(18) 0.2978(3) 0.19827(8)
C4 C 0.1565(2) 0.2213(3) 0.24123(8)
H4 H 0.1083 0.2537 0.2649
H5 H 0.2316 0.2469 0.2489
H6 H 0.1504 0.1142 0.2375
C5 C 0.0285(2) 0.3681(3) 0.19414(10)
H7 H -0.0203 0.3707 0.2183
H8 H 0.0097 0.4152 0.1671
C6 C 0.4578(2) 0.0436(3) 0.20835(9)
H9 H 0.5021 0.0022 0.2323
H10 H 0.4427 0.1478 0.2145
H11 H 0.4969 0.0353 0.1804
C7 C 0.2285(2) -0.3682(3) 0.27188(8)
H12 H 0.2208 -0.3244 0.3013
H13 H 0.2927 -0.4321 0.2715
H14 H 0.1639 -0.4267 0.2648
C8 C 0.07262(19) -0.0842(3) 0.14180(9)
H15 H 0.0153 -0.1546 0.1494
H16 H 0.0955 -0.1008 0.1113
H17 H 0.0449 0.0167 0.1448
C9 C 0.26639(17) -0.0160(2) 0.17259(7)
C10 C 0.35003(18) -0.0420(3) 0.20491(7)
C11 C 0.33462(19) -0.1548(3) 0.23654(8)
H18 H 0.3895 -0.1705 0.2582
C12 C 0.2415(2) -0.2448(3) 0.23741(7)
C13 C 0.16120(19) -0.2186(3) 0.20517(7)
H19 H 0.0984 -0.2793 0.2049
C14 C 0.16968(17) -0.1057(3) 0.17308(7)
C15 C 0.4013(2) -0.0743(3) 0.07523(9)
H20 H 0.4280 -0.1503 0.0550
H21 H 0.3774 -0.1207 0.1027
H22 H 0.4597 -0.0040 0.0818
C16 C 0.2005(3) 0.0507(5) -0.06740(10)
H23 H 0.1276 0.0791 -0.0773
H24 H 0.2153 -0.0510 -0.0765
H25 H 0.2540 0.1170 -0.0806
C17 C 0.0460(2) 0.2508(3) 0.07494(9)
H26 H 0.0628 0.3564 0.0732
H27 H 0.0380 0.2222 0.1060
H28 H -0.0218 0.2309 0.0589
C18 C 0.22832(17) 0.0977(3) 0.07731(7)
C19 C 0.30507(19) 0.0078(3) 0.05349(8)
C20 C 0.2920(2) -0.0067(3) 0.00720(8)
H29 H 0.3424 -0.0654 -0.0085
C21 C 0.2078(2) 0.0619(3) -0.01635(9)
C22 C 0.1310(2) 0.1412(3) 0.00758(8)
H30 H 0.0712 0.1832 -0.0079
C23 C 0.13806(18) 0.1620(3) 0.05424(8)
C24 C 0.35353(17) 0.4431(2) 0.08176(7)
C25 C 0.27008(19) 0.5460(3) 0.07439(8)
C26 C 0.2285(2) 0.5838(3) 0.03275(9)
C27 C 0.2727(2) 0.5204(4) -0.00443(9)
C28 C 0.39748(18) 0.3856(3) 0.04209(8)
C29 C 0.52338(16) 0.4324(3) 0.14002(6)
C30 C 0.54350(18) 0.5807(3) 0.15145(7)
C31 C 0.6467(2) 0.6429(3) 0.15619(8)
C32 C 0.73744(19) 0.5541(3) 0.14942(8)
C33 C 0.72384(18) 0.4068(3) 0.13837(7)
C34 C 0.61835(17) 0.3484(3) 0.13387(7)
C35 C 0.3587(2) 0.4206(3) -0.00024(8)
F1 F 0.22048(12) 0.61608(17) 0.10963(5)
F2 F 0.14299(14) 0.6806(2) 0.02908(6)
F3 F 0.23105(17) 0.5531(3) -0.04528(5)
F4 F 0.40343(14) 0.3583(2) -0.03701(5)
F5 F 0.48274(11) 0.28802(17) 0.04417(4)
F6 F 0.45668(11) 0.67424(16) 0.15749(5)
F7 F 0.65952(13) 0.78941(19) 0.16678(6)
F8 F 0.83997(11) 0.6140(2) 0.15227(6)
F9 F 0.81233(10) 0.31944(17) 0.13053(5)
F10 F 0.61297(10) 0.20156(16) 0.12225(5)
O1 O 0.39075(11) 0.20334(16) 0.12877(5)
P1 P 0.27119(4) 0.14380(6) 0.13466(2)
loop_
_geom_bond_atom_site_label_1
_geom_bond_atom_site_label_2
_geom_bond_site_symmetry_1
_geom_bond_site_symmetry_2
B1 C1 1_555 1_555
C1 H1 1_555 1_555
H2 C1 1_555 1_555
C2 C1 1_555 1_555
H3 C2 1_555 1_555
C3 C2 1_555 1_555
C4 C3 1_555 1_555
H4 C4 1_555 1_555
H5 C4 1_555 1_555
H6 C4 1_555 1_555
C5 C3 1_555 1_555
H7 C5 1_555 1_555
H8 C5 1_555 1_555
C6 H9 1_555 1_555
H10 C6 1_555 1_555
H11 C6 1_555 1_555
C7 H12 1_555 1_555
H13 C7 1_555 1_555
H14 C7 1_555 1_555
C8 H15 1_555 1_555
H16 C8 1_555 1_555
H17 C8 1_555 1_555
C9 C10 1_555 1_555
C10 C6 1_555 1_555
C11 C10 1_555 1_555
H18 C11 1_555 1_555
C12 C7 1_555 1_555
C13 C12 1_555 1_555
H19 C13 1_555 1_555
C14 C8 1_555 1_555
C15 H20 1_555 1_555
H21 C15 1_555 1_555
H22 C15 1_555 1_555
C16 H23 1_555 1_555
H24 C16 1_555 1_555
H25 C16 1_555 1_555
C17 H26 1_555 1_555
H27 C17 1_555 1_555
H28 C17 1_555 1_555
C18 C19 1_555 1_555
C19 C15 1_555 1_555
C20 C19 1_555 1_555
H29 C20 1_555 1_555
C21 C16 1_555 1_555
C22 C21 1_555 1_555
H30 C22 1_555 1_555
C23 C17 1_555 1_555
C24 B1 1_555 1_555
C25 C24 1_555 1_555
C26 C25 1_555 1_555
C27 C26 1_555 1_555
C28 C24 1_555 1_555
C29 B1 1_555 1_555
C30 C29 1_555 1_555
C31 C30 1_555 1_555
C32 C31 1_555 1_555
C33 C32 1_555 1_555
C34 C29 1_555 1_555
C35 C27 1_555 1_555
F1 C25 1_555 1_555
F2 C26 1_555 1_555
F3 C27 1_555 1_555
F4 C35 1_555 1_555
F5 C28 1_555 1_555
F6 C30 1_555 1_555
F7 C31 1_555 1_555
F8 C32 1_555 1_555
F9 C33 1_555 1_555
F10 C34 1_555 1_555
O1 B1 1_555 1_555
P1 C2 1_555 1_555
C9 C14 1_555 1_555
C9 P1 1_555 1_555
C11 C12 1_555 1_555
C13 C14 1_555 1_555
C18 C23 1_555 1_555
C18 P1 1_555 1_555
C20 C21 1_555 1_555
C22 C23 1_555 1_555
C28 C35 1_555 1_555
C33 C34 1_555 1_555
O1 P1 1_555 1_555

#END
