
#######################################################################
#
#                 Cambridge Crystallographic Data Centre
#                                CCDC 
#
#######################################################################
#
# If this CIF has been generated from an entry in the Cambridge 
# Structural Database, then it will include bibliographic, chemical, 
# crystal, experimental, refinement or atomic coordinate data resulting 
# from the CCDC's data processing and validation procedures.
#
#######################################################################

data_JINGIZ
_chemical_formula_moiety         'C30 H24 B1 F10 O1 P1'
_chemical_name_systematic        
(dimesityl(hydrido)phosphonio-oxy)(hydrido)bis(pentafluorophenyl)borate
_symmetry_cell_setting           monoclinic
_symmetry_space_group_name_H-M   'P 21/n'
_symmetry_Int_Tables_number      14
_space_group_name_Hall           '-P 2yn'
loop_
_symmetry_equiv_pos_site_id
_symmetry_equiv_pos_as_xyz
1 x,y,z
2 1/2-x,1/2+y,1/2-z
3 -x,-y,-z
4 1/2+x,1/2-y,1/2+z
_cell_length_a                   9.7242(3)
_cell_length_b                   22.4308(7)
_cell_length_c                   13.8977(4)
_cell_angle_alpha                90
_cell_angle_beta                 108.5000(10)
_cell_angle_gamma                90
_cell_volume                     2874.74
_exptl_crystal_colour            colorless
_exptl_crystal_description       sheet
_cell_formula_units_Z            4
loop_
_atom_site_label
_atom_site_type_symbol
_atom_site_fract_x
_atom_site_fract_y
_atom_site_fract_z
P1 P 0.46277(5) 0.40609(2) 0.56579(4)
H1 H 0.417(2) 0.4551(8) 0.5919(15)
B1 B 0.6033(2) 0.38143(11) 0.75829(17)
H2 H 0.521(2) 0.4127(10) 0.7688(17)
F1 F 0.36445(13) 0.33938(6) 0.83015(10)
F2 F 0.29223(15) 0.22641(7) 0.84678(12)
F3 F 0.45135(17) 0.13628(6) 0.80668(13)
F4 F 0.68239(17) 0.16154(6) 0.74296(14)
F5 F 0.75447(13) 0.27515(6) 0.72225(10)
F6 F 0.64284(15) 0.40357(7) 0.96476(10)
F7 F 0.8887(2) 0.42949(10) 1.11263(11)
F8 F 1.14339(18) 0.43693(9) 1.07121(13)
F9 F 1.14606(15) 0.41941(9) 0.87890(13)
F10 F 0.90374(14) 0.39392(8) 0.73105(10)
O1 O 0.60621(14) 0.38959(6) 0.64771(10)
C1 C 0.4907(2) 0.41957(9) 0.44591(15)
C2 C 0.6198(2) 0.40649(9) 0.42420(16)
C3 C 0.6262(2) 0.42034(9) 0.32817(16)
H3 H 0.7129 0.4117 0.3132
C4 C 0.5118(2) 0.44620(9) 0.25325(16)
C5 C 0.3871(2) 0.45926(9) 0.27653(16)
H4 H 0.3083 0.4775 0.2263
C6 C 0.3729(2) 0.44659(8) 0.37078(16)
C7 C 0.7538(2) 0.37868(11) 0.49786(17)
H5 H 0.8305 0.3763 0.4662
H6 H 0.7306 0.3385 0.5158
H7 H 0.7870 0.4032 0.5593
C8 C 0.5235(3) 0.45974(12) 0.14985(18)
H8 H 0.5150 0.5028 0.1378
H9 H 0.4455 0.4392 0.0979
H10 H 0.6175 0.4459 0.1467
C9 C 0.2320(2) 0.46240(10) 0.38794(17)
H11 H 0.1645 0.4787 0.3253
H12 H 0.2499 0.4922 0.4421
H13 H 0.1898 0.4266 0.4076
C10 C 0.3227(2) 0.35282(9) 0.55995(15)
C11 C 0.2098(2) 0.36728(9) 0.59994(16)
C12 C 0.1155(2) 0.32226(10) 0.60697(17)
H14 H 0.0392 0.3317 0.6333
C13 C 0.1280(2) 0.26410(10) 0.57719(17)
C14 C 0.2377(2) 0.25134(10) 0.53616(17)
H15 H 0.2459 0.2119 0.5138
C15 C 0.3352(2) 0.29403(9) 0.52674(15)
C16 C 0.1868(2) 0.42850(10) 0.63751(19)
H16 H 0.1013 0.4279 0.6603
H17 H 0.1720 0.4575 0.5824
H18 H 0.2722 0.4399 0.6942
C17 C 0.0266(3) 0.21621(12) 0.5903(2)
H19 H 0.0165 0.1853 0.5386
H20 H -0.0686 0.2337 0.5827
H21 H 0.0660 0.1985 0.6579
C18 C 0.4525(2) 0.27576(10) 0.48285(19)
H22 H 0.4440 0.2330 0.4673
H23 H 0.5478 0.2840 0.5322
H24 H 0.4417 0.2984 0.4206
C19 C 0.5619(2) 0.31267(9) 0.77351(15)
C20 C 0.4459(2) 0.29694(10) 0.80616(16)
C21 C 0.4070(2) 0.23882(11) 0.81648(17)
C22 C 0.4864(3) 0.19328(10) 0.79515(19)
C23 C 0.6036(3) 0.20596(10) 0.76355(19)
C24 C 0.6383(2) 0.26486(10) 0.75335(17)
C25 C 0.7594(2) 0.39799(9) 0.83992(16)
C26 C 0.7658(2) 0.40759(10) 0.94024(17)
C27 C 0.8911(3) 0.42051(12) 1.01744(18)
C28 C 1.0196(3) 0.42435(13) 0.99699(19)
C29 C 1.0210(2) 0.41556(12) 0.89969(19)
C30 C 0.8927(2) 0.40249(10) 0.82453(17)
loop_
_geom_bond_atom_site_label_1
_geom_bond_atom_site_label_2
_geom_bond_site_symmetry_1
_geom_bond_site_symmetry_2
P1 H1 1_555 1_555
B1 H2 1_555 1_555
F1 C20 1_555 1_555
F2 C21 1_555 1_555
F3 C22 1_555 1_555
F4 C23 1_555 1_555
F5 C24 1_555 1_555
F6 C26 1_555 1_555
F7 C27 1_555 1_555
F8 C28 1_555 1_555
F9 C29 1_555 1_555
F10 C30 1_555 1_555
O1 P1 1_555 1_555
C1 P1 1_555 1_555
C2 C1 1_555 1_555
C3 C2 1_555 1_555
H3 C3 1_555 1_555
C4 C3 1_555 1_555
C5 C4 1_555 1_555
H4 C5 1_555 1_555
C6 C1 1_555 1_555
C7 C2 1_555 1_555
H5 C7 1_555 1_555
H6 C7 1_555 1_555
H7 C7 1_555 1_555
C8 C4 1_555 1_555
H8 C8 1_555 1_555
H9 C8 1_555 1_555
H10 C8 1_555 1_555
C9 C6 1_555 1_555
H11 C9 1_555 1_555
H12 C9 1_555 1_555
H13 C9 1_555 1_555
C10 P1 1_555 1_555
C11 C10 1_555 1_555
C12 C11 1_555 1_555
H14 C12 1_555 1_555
C13 C12 1_555 1_555
C14 C13 1_555 1_555
H15 C14 1_555 1_555
C15 C10 1_555 1_555
C16 C11 1_555 1_555
H16 C16 1_555 1_555
H17 C16 1_555 1_555
H18 C16 1_555 1_555
C17 C13 1_555 1_555
H19 C17 1_555 1_555
H20 C17 1_555 1_555
H21 C17 1_555 1_555
C18 C15 1_555 1_555
H22 C18 1_555 1_555
H23 C18 1_555 1_555
H24 C18 1_555 1_555
C19 B1 1_555 1_555
C20 C19 1_555 1_555
C21 C20 1_555 1_555
C22 C21 1_555 1_555
C23 C22 1_555 1_555
C24 C19 1_555 1_555
C25 B1 1_555 1_555
C26 C25 1_555 1_555
C27 C26 1_555 1_555
C28 C27 1_555 1_555
C29 C28 1_555 1_555
C30 C25 1_555 1_555
B1 O1 1_555 1_555
C5 C6 1_555 1_555
C14 C15 1_555 1_555
C23 C24 1_555 1_555
C29 C30 1_555 1_555

#END
