
#######################################################################
#
#                 Cambridge Crystallographic Data Centre
#                                CCDC 
#
#######################################################################
#
# If this CIF has been generated from an entry in the Cambridge 
# Structural Database, then it will include bibliographic, chemical, 
# crystal, experimental, refinement or atomic coordinate data resulting 
# from the CCDC's data processing and validation procedures.
#
#######################################################################

data_JINGOF
_chemical_formula_moiety         'C30 H22 B1 F10 O1 P1'
_chemical_name_systematic        
1,4,5,6,7-pentafluoro-1-(pentafluorophenyl)-3,3-dimesityl-3-phosphonio-1-borata-2-benzofuran
_symmetry_cell_setting           monoclinic
_symmetry_space_group_name_H-M   'P 21/c'
_symmetry_Int_Tables_number      14
_space_group_name_Hall           '-P 2ybc'
loop_
_symmetry_equiv_pos_site_id
_symmetry_equiv_pos_as_xyz
1 x,y,z
2 -x,1/2+y,1/2-z
3 -x,-y,-z
4 x,1/2-y,1/2+z
_cell_length_a                   10.5258(5)
_cell_length_b                   20.8548(10)
_cell_length_c                   13.0770(6)
_cell_angle_alpha                90
_cell_angle_beta                 109.292(2)
_cell_angle_gamma                90
_cell_volume                     2709.39
_exptl_crystal_colour            colorless
_exptl_crystal_description       block
_cell_formula_units_Z            4
loop_
_atom_site_label
_atom_site_type_symbol
_atom_site_fract_x
_atom_site_fract_y
_atom_site_fract_z
P1 P 0.58703(7) 0.63776(4) 0.76861(7)
B1 B 0.3523(4) 0.61813(18) 0.7964(3)
O1 O 0.5049(2) 0.63164(10) 0.84696(18)
F1 F 0.32250(19) 0.56216(9) 0.84211(17)
F2 F 0.10879(19) 0.57350(11) 0.60279(19)
F3 F 0.1332(2) 0.53414(11) 0.41507(19)
F4 F 0.3708(2) 0.54503(11) 0.37782(17)
F5 F 0.58770(19) 0.59417(10) 0.53095(16)
F6 F 0.2224(2) 0.62772(11) 0.96740(19)
F7 F 0.0800(2) 0.72595(14) 0.9991(2)
F8 F 0.0511(2) 0.83380(11) 0.8789(2)
F9 F 0.1706(3) 0.84191(11) 0.7241(3)
F10 F 0.3081(2) 0.74252(11) 0.6867(2)
C1 C 0.3377(3) 0.60513(15) 0.6701(3)
C2 C 0.2286(3) 0.58048(15) 0.5879(3)
C3 C 0.2397(3) 0.56014(16) 0.4909(3)
C4 C 0.3594(4) 0.56518(17) 0.4713(3)
C5 C 0.4708(3) 0.59035(15) 0.5510(3)
C6 C 0.4595(3) 0.61072(15) 0.6480(3)
C7 C 0.2685(3) 0.67871(15) 0.8212(3)
C8 C 0.2097(3) 0.67848(17) 0.9019(3)
C9 C 0.1370(3) 0.7296(2) 0.9217(3)
C10 C 0.1221(4) 0.78458(18) 0.8610(4)
C11 C 0.1811(4) 0.78786(17) 0.7829(4)
C12 C 0.2522(4) 0.73541(17) 0.7652(3)
C13 C 0.7306(3) 0.58490(14) 0.7991(3)
C14 C 0.8439(3) 0.60141(15) 0.7692(3)
C15 C 0.9511(3) 0.55861(16) 0.7931(3)
H1 H 1.0276 0.5695 0.7735
C16 C 0.9501(3) 0.50038(16) 0.8448(3)
C17 C 0.8379(3) 0.48482(16) 0.8712(3)
H2 H 0.8363 0.4448 0.9056
C18 C 0.7261(3) 0.52521(15) 0.8497(3)
C19 C 0.8568(4) 0.66123(17) 0.7084(3)
H3 H 0.8744 0.6981 0.7576
H4 H 0.7729 0.6683 0.6483
H5 H 0.9313 0.6561 0.6799
C20 C 1.0666(4) 0.45486(18) 0.8664(3)
H6 H 1.0708 0.4276 0.9285
H7 H 1.1504 0.4793 0.8825
H8 H 1.0546 0.4280 0.8024
C21 C 0.6083(4) 0.50110(19) 0.8791(4)
H9 H 0.5992 0.5265 0.9393
H10 H 0.6228 0.4560 0.9007
H11 H 0.5261 0.5051 0.8163
C22 C 0.6367(3) 0.72051(15) 0.7743(3)
C23 C 0.7181(3) 0.74213(15) 0.8789(3)
C24 C 0.7498(4) 0.80647(17) 0.8932(3)
H12 H 0.8044 0.8207 0.9629
C25 C 0.7056(4) 0.85134(17) 0.8105(3)
C26 C 0.6289(4) 0.82905(16) 0.7083(3)
H13 H 0.5987 0.8590 0.6506
C27 C 0.5945(3) 0.76454(16) 0.6873(3)
C28 C 0.7751(3) 0.69810(17) 0.9752(3)
H14 H 0.8462 0.6715 0.9642
H15 H 0.7034 0.6705 0.9827
H16 H 0.8126 0.7238 1.0410
C29 C 0.7383(5) 0.92115(18) 0.8314(4)
H17 H 0.6797 0.9399 0.8682
H18 H 0.7241 0.9433 0.7624
H19 H 0.8325 0.9258 0.8774
C30 C 0.5169(4) 0.74666(18) 0.5723(3)
H20 H 0.5025 0.7850 0.5264
H21 H 0.4297 0.7285 0.5688
H22 H 0.5679 0.7149 0.5466
loop_
_geom_bond_atom_site_label_1
_geom_bond_atom_site_label_2
_geom_bond_site_symmetry_1
_geom_bond_site_symmetry_2
P1 O1 1_555 1_555
B1 O1 1_555 1_555
F1 B1 1_555 1_555
F2 C2 1_555 1_555
F3 C3 1_555 1_555
F4 C4 1_555 1_555
F5 C5 1_555 1_555
F6 C8 1_555 1_555
F7 C9 1_555 1_555
F8 C10 1_555 1_555
F9 C11 1_555 1_555
F10 C12 1_555 1_555
C1 B1 1_555 1_555
C2 C1 1_555 1_555
C3 C2 1_555 1_555
C4 C3 1_555 1_555
C5 C4 1_555 1_555
C6 P1 1_555 1_555
C7 B1 1_555 1_555
C8 C7 1_555 1_555
C9 C8 1_555 1_555
C10 C9 1_555 1_555
C11 C10 1_555 1_555
C12 C7 1_555 1_555
C13 P1 1_555 1_555
C14 C13 1_555 1_555
C15 C14 1_555 1_555
H1 C15 1_555 1_555
C16 C15 1_555 1_555
C17 C16 1_555 1_555
H2 C17 1_555 1_555
C18 C13 1_555 1_555
C19 C14 1_555 1_555
H3 C19 1_555 1_555
H4 C19 1_555 1_555
H5 C19 1_555 1_555
C20 C16 1_555 1_555
H6 C20 1_555 1_555
H7 C20 1_555 1_555
H8 C20 1_555 1_555
C21 C18 1_555 1_555
H9 C21 1_555 1_555
H10 C21 1_555 1_555
H11 C21 1_555 1_555
C22 P1 1_555 1_555
C23 C22 1_555 1_555
C24 C23 1_555 1_555
H12 C24 1_555 1_555
C25 C24 1_555 1_555
C26 C25 1_555 1_555
H13 C26 1_555 1_555
C27 C22 1_555 1_555
C28 C23 1_555 1_555
H14 C28 1_555 1_555
H15 C28 1_555 1_555
H16 C28 1_555 1_555
C29 C25 1_555 1_555
H17 C29 1_555 1_555
H18 C29 1_555 1_555
H19 C29 1_555 1_555
C30 C27 1_555 1_555
H20 C30 1_555 1_555
H21 C30 1_555 1_555
H22 C30 1_555 1_555
C1 C6 1_555 1_555
C5 C6 1_555 1_555
C11 C12 1_555 1_555
C17 C18 1_555 1_555
C26 C27 1_555 1_555

#END
