
#######################################################################
#
#                 Cambridge Crystallographic Data Centre
#                                CCDC 
#
#######################################################################
#
# If this CIF has been generated from an entry in the Cambridge 
# Structural Database, then it will include bibliographic, chemical, 
# crystal, experimental, refinement or atomic coordinate data resulting 
# from the CCDC's data processing and validation procedures.
#
#######################################################################

data_JINGEV
_chemical_formula_moiety         'C35 H27 B1 F10 N1 O1 P1'
_chemical_name_systematic        
'[bis(2,4,6-trimethylphenyl)phosphinito][bis(pentafluorophenyl)](pyridinium)borate'
_symmetry_cell_setting           monoclinic
_symmetry_space_group_name_H-M   'P 21/c'
_symmetry_Int_Tables_number      14
_space_group_name_Hall           '-P 2ybc'
loop_
_symmetry_equiv_pos_site_id
_symmetry_equiv_pos_as_xyz
1 x,y,z
2 -x,1/2+y,1/2-z
3 -x,-y,-z
4 x,1/2-y,1/2+z
_cell_length_a                   18.51(2)
_cell_length_b                   9.944(11)
_cell_length_c                   17.597(19)
_cell_angle_alpha                90
_cell_angle_beta                 95.165(14)
_cell_angle_gamma                90
_cell_volume                     3225.81
_exptl_crystal_colour            colorless
_exptl_crystal_description       prism
_cell_formula_units_Z            4
loop_
_atom_site_label
_atom_site_type_symbol
_atom_site_fract_x
_atom_site_fract_y
_atom_site_fract_z
B1 B 0.32046(13) 0.0007(3) 0.21917(14)
C1 C 0.18302(15) 0.2466(3) 0.28585(13)
H1 H 0.1658 0.2900 0.3295
H2 H 0.2348 0.2551 0.2879
H3 H 0.1701 0.1531 0.2859
C2 C 0.01170(17) 0.5971(3) 0.17461(19)
H4 H -0.0237 0.6014 0.1313
H5 H 0.0365 0.6817 0.1806
H6 H -0.0121 0.5781 0.2197
C3 C 0.14674(15) 0.3233(3) -0.00406(13)
H7 H 0.1199 0.2456 -0.0225
H8 H 0.1976 0.3074 -0.0064
H9 H 0.1321 0.3997 -0.0351
C4 C 0.08223(13) -0.0028(3) 0.13622(15)
H10 H 0.0406 -0.0602 0.1366
H11 H 0.0673 0.0895 0.1385
H12 H 0.1158 -0.0228 0.1795
C5 C 0.08082(16) -0.2500(3) -0.11088(19)
H13 H 0.0988 -0.3383 -0.0976
H14 H 0.0918 -0.2284 -0.1618
H15 H 0.0293 -0.2478 -0.1083
C6 C 0.28851(14) 0.0571(3) -0.03677(15)
H16 H 0.3025 0.0139 -0.0820
H17 H 0.3247 0.0409 0.0048
H18 H 0.2840 0.1522 -0.0456
C7 C 0.16513(11) 0.2752(2) 0.13972(12)
C8 C 0.14892(12) 0.3122(2) 0.21372(13)
C9 C 0.09995(13) 0.4147(3) 0.22288(14)
H19 H 0.0893 0.4364 0.2721
C10 C 0.06593(13) 0.4867(3) 0.16246(15)
C11 C 0.08350(13) 0.4525(2) 0.09063(14)
H20 H 0.0619 0.4999 0.0490
C12 C 0.13192(12) 0.3506(2) 0.07758(13)
C13 C 0.18438(11) 0.0360(2) 0.05001(12)
C14 C 0.11827(11) -0.0259(2) 0.06422(13)
C15 C 0.08595(13) -0.1151(3) 0.01057(15)
H21 H 0.0419 -0.1540 0.0197
C16 C 0.11643(14) -0.1485(3) -0.05566(15)
C17 C 0.18123(14) -0.0892(3) -0.06810(14)
H22 H 0.2025 -0.1103 -0.1125
C18 C 0.21636(12) 0.0010(3) -0.01708(13)
C19 C 0.35833(14) -0.2472(3) 0.24633(15)
H23 H 0.3977 -0.2116 0.2763
C20 C 0.35102(16) -0.3838(3) 0.24141(16)
H24 H 0.3848 -0.4398 0.2679
C21 C 0.29369(15) -0.4373(3) 0.19734(15)
H25 H 0.2878 -0.5299 0.1931
C22 C 0.24531(13) -0.3517(3) 0.15967(15)
H26 H 0.2056 -0.3858 0.1295
C23 C 0.25526(12) -0.2156(2) 0.16629(13)
H27 H 0.2222 -0.1583 0.1398
C24 C 0.38903(11) 0.0517(2) 0.17428(12)
C25 C 0.43452(13) -0.0258(2) 0.13313(13)
C26 C 0.49394(13) 0.0254(3) 0.10162(14)
C27 C 0.50894(12) 0.1597(3) 0.10626(13)
C28 C 0.46477(13) 0.2417(2) 0.14451(13)
C29 C 0.40701(12) 0.1864(2) 0.17674(12)
C30 C 0.33438(12) 0.0191(2) 0.31323(12)
C31 C 0.39452(12) 0.0737(2) 0.35533(13)
C32 C 0.40245(14) 0.0776(3) 0.43378(14)
C33 C 0.35095(16) 0.0236(3) 0.47428(14)
C34 C 0.29014(15) -0.0334(3) 0.43633(14)
C35 C 0.28341(12) -0.0335(2) 0.35813(13)
F1 F 0.22267(7) -0.09167(16) 0.32440(8)
F2 F 0.23919(9) -0.09073(18) 0.47525(8)
F3 F 0.35791(11) 0.0251(2) 0.55080(8)
F4 F 0.46182(9) 0.13298(18) 0.47022(9)
F5 F 0.45045(7) 0.12487(14) 0.32135(7)
F6 F 0.36756(7) 0.27151(13) 0.21638(8)
F7 F 0.47980(8) 0.37314(15) 0.15192(9)
F8 F 0.56647(8) 0.21147(19) 0.07546(9)
F9 F 0.53772(8) -0.05674(18) 0.06581(9)
F10 F 0.42330(8) -0.15862(15) 0.12201(9)
N1 N 0.31091(9) -0.16287(18) 0.20950(10)
O1 O 0.25186(7) 0.06128(15) 0.19097(8)
P1 P 0.23557(3) 0.15476(6) 0.11519(3)
loop_
_geom_bond_atom_site_label_1
_geom_bond_atom_site_label_2
_geom_bond_site_symmetry_1
_geom_bond_site_symmetry_2
B1 C24 1_555 1_555
C1 H1 1_555 1_555
H2 C1 1_555 1_555
H3 C1 1_555 1_555
C2 H4 1_555 1_555
H5 C2 1_555 1_555
H6 C2 1_555 1_555
C3 H7 1_555 1_555
H8 C3 1_555 1_555
H9 C3 1_555 1_555
C4 H10 1_555 1_555
H11 C4 1_555 1_555
H12 C4 1_555 1_555
C5 H13 1_555 1_555
H14 C5 1_555 1_555
H15 C5 1_555 1_555
C6 H16 1_555 1_555
H17 C6 1_555 1_555
H18 C6 1_555 1_555
C7 C8 1_555 1_555
C8 C1 1_555 1_555
C9 C8 1_555 1_555
H19 C9 1_555 1_555
C10 C2 1_555 1_555
C11 C10 1_555 1_555
H20 C11 1_555 1_555
C12 C3 1_555 1_555
C13 C14 1_555 1_555
C14 C4 1_555 1_555
C15 C14 1_555 1_555
H21 C15 1_555 1_555
C16 C5 1_555 1_555
C17 C16 1_555 1_555
H22 C17 1_555 1_555
C18 C6 1_555 1_555
C19 H23 1_555 1_555
C20 C19 1_555 1_555
H24 C20 1_555 1_555
C21 C20 1_555 1_555
H25 C21 1_555 1_555
C22 C21 1_555 1_555
H26 C22 1_555 1_555
C23 C22 1_555 1_555
H27 C23 1_555 1_555
C24 C25 1_555 1_555
C25 C26 1_555 1_555
C26 C27 1_555 1_555
C27 C28 1_555 1_555
C28 C29 1_555 1_555
C29 C24 1_555 1_555
C30 B1 1_555 1_555
C31 C30 1_555 1_555
C32 C31 1_555 1_555
C33 C32 1_555 1_555
C34 C33 1_555 1_555
C35 C30 1_555 1_555
F1 C35 1_555 1_555
F2 C34 1_555 1_555
F3 C33 1_555 1_555
F4 C32 1_555 1_555
F5 C31 1_555 1_555
F6 C29 1_555 1_555
F7 C28 1_555 1_555
F8 C27 1_555 1_555
F9 C26 1_555 1_555
F10 C25 1_555 1_555
N1 B1 1_555 1_555
O1 B1 1_555 1_555
P1 C7 1_555 1_555
C7 C12 1_555 1_555
C9 C10 1_555 1_555
C11 C12 1_555 1_555
C13 C18 1_555 1_555
C13 P1 1_555 1_555
C15 C16 1_555 1_555
C17 C18 1_555 1_555
C19 N1 1_555 1_555
C23 N1 1_555 1_555
C34 C35 1_555 1_555
O1 P1 1_555 1_555

#END
