
#######################################################################
#
#                 Cambridge Crystallographic Data Centre
#                                CCDC 
#
#######################################################################
#
# If this CIF has been generated from an entry in the Cambridge 
# Structural Database, then it will include bibliographic, chemical, 
# crystal, experimental, refinement or atomic coordinate data resulting 
# from the CCDC's data processing and validation procedures.
#
#######################################################################

data_JINJUO
_chemical_formula_moiety         'C10 H7 Br1 I1 N1'
_chemical_name_systematic        1-(4-bromophenyl)-3-iodo-1H-pyrrole
_symmetry_cell_setting           orthorhombic
_symmetry_space_group_name_H-M   'P b c a'
_symmetry_Int_Tables_number      61
_space_group_name_Hall           '-P 2ac 2ab'
loop_
_symmetry_equiv_pos_site_id
_symmetry_equiv_pos_as_xyz
1 x,y,z
2 1/2-x,-y,1/2+z
3 -x,1/2+y,1/2-z
4 1/2+x,1/2-y,-z
5 -x,-y,-z
6 1/2+x,y,1/2-z
7 x,1/2-y,1/2+z
8 1/2-x,1/2+y,z
_cell_length_a                   10.5281(10)
_cell_length_b                   7.7940(9)
_cell_length_c                   25.907(2)
_cell_angle_alpha                90
_cell_angle_beta                 90
_cell_angle_gamma                90
_cell_volume                     2125.83
_exptl_crystal_colour            'light yellow'
_exptl_crystal_description       plate
_cell_formula_units_Z            8
loop_
_atom_site_label
_atom_site_type_symbol
_atom_site_fract_x
_atom_site_fract_y
_atom_site_fract_z
Br1 Br 0.7937(3) 0.5378(3) 0.52205(8)
C1 C 0.6756(13) 0.706(2) 0.3579(6)
C2 C 0.5828(14) 0.676(2) 0.3946(6)
H1 H 0.4972 0.6904 0.3867
C3 C 0.6213(14) 0.624(2) 0.4437(6)
H2 H 0.5612 0.6009 0.4690
C4 C 0.7440(16) 0.608(2) 0.4541(6)
C5 C 0.8335(14) 0.638(2) 0.4184(6)
H3 H 0.9186 0.6233 0.4269
C6 C 0.8015(14) 0.691(2) 0.3692(7)
H4 H 0.8635 0.7141 0.3446
C7 C 0.7001(13) 0.7200(18) 0.2605(7)
H5 H 0.7730 0.6537 0.2567
C8 C 0.6350(13) 0.7956(16) 0.2222(5)
C9 C 0.5332(11) 0.8854(18) 0.2426(6)
H6 H 0.4736 0.9491 0.2244
C10 C 0.5374(11) 0.8619(17) 0.2951(6)
H7 H 0.4804 0.9087 0.3186
I1 I 0.67871(9) 0.77601(16) 0.14443(4)
N1 N 0.6385(12) 0.7588(14) 0.3076(5)
loop_
_geom_bond_atom_site_label_1
_geom_bond_atom_site_label_2
_geom_bond_site_symmetry_1
_geom_bond_site_symmetry_2
Br1 C4 1_555 1_555
C1 C2 1_555 1_555
C2 H1 1_555 1_555
C3 C2 1_555 1_555
H2 C3 1_555 1_555
C4 C3 1_555 1_555
C5 C4 1_555 1_555
H3 C5 1_555 1_555
C6 C1 1_555 1_555
H4 C6 1_555 1_555
C7 H5 1_555 1_555
C8 C7 1_555 1_555
C9 C8 1_555 1_555
H6 C9 1_555 1_555
C10 C9 1_555 1_555
H7 C10 1_555 1_555
I1 C8 1_555 1_555
N1 C1 1_555 1_555
C5 C6 1_555 1_555
C7 N1 1_555 1_555
C10 N1 1_555 1_555

#END
