
#######################################################################
#
#                 Cambridge Crystallographic Data Centre
#                                CCDC 
#
#######################################################################
#
# If this CIF has been generated from an entry in the Cambridge 
# Structural Database, then it will include bibliographic, chemical, 
# crystal, experimental, refinement or atomic coordinate data resulting 
# from the CCDC's data processing and validation procedures.
#
#######################################################################

data_JINLUQ
_chemical_formula_moiety         'C22 H16 N2 O5 S1'
_chemical_name_systematic        
(E)-2-[(4-methylphenyl)sulfonyl]-3-[(4-nitrophenyl)methylidene]-2,3-dihydro-1H-isoindol-1-one
_symmetry_cell_setting           monoclinic
_symmetry_space_group_name_H-M   'P 21/c'
_symmetry_Int_Tables_number      14
_space_group_name_Hall           '-P 2ybc'
loop_
_symmetry_equiv_pos_site_id
_symmetry_equiv_pos_as_xyz
1 x,y,z
2 -x,1/2+y,1/2-z
3 -x,-y,-z
4 x,1/2-y,1/2+z
_cell_length_a                   12.8890(6)
_cell_length_b                   11.3016(5)
_cell_length_c                   14.4754(7)
_cell_angle_alpha                90
_cell_angle_beta                 109.589(2)
_cell_angle_gamma                90
_cell_volume                     1986.54
_exptl_crystal_colour            yellow
_exptl_crystal_description       Block
_cell_formula_units_Z            4
_exptl_crystal_recrystallization_method 'Re-crystallisation from solvent'
loop_
_atom_site_label
_atom_site_type_symbol
_atom_site_fract_x
_atom_site_fract_y
_atom_site_fract_z
S1 S 0.74302(5) -0.08763(5) 0.23067(4)
O1 O 0.59278(15) 0.08755(16) 0.27388(12)
O2 O 0.75745(17) 0.02301(18) -0.41497(12)
O3 O 0.81363(19) 0.19673(18) -0.35881(14)
O4 O 0.79036(16) -0.15932(15) 0.17412(13)
O5 O 0.68496(16) -0.14273(15) 0.28664(12)
N1 N 0.65316(16) 0.00475(16) 0.15229(13)
N2 N 0.77817(17) 0.0979(2) -0.35105(14)
C1 C 0.59893(19) 0.0915(2) 0.19270(17)
C2 C 0.55898(18) 0.1813(2) 0.11703(16)
C3 C 0.4973(2) 0.2805(2) 0.1208(2)
H1 H 0.4787 0.2985 0.1774
C4 C 0.4639(2) 0.3520(3) 0.0386(2)
H2 H 0.4217 0.4211 0.0382
C5 C 0.4917(2) 0.3232(3) -0.0435(2)
H3 H 0.4675 0.3733 -0.0993
C6 C 0.5531(2) 0.2245(2) -0.04677(18)
H4 H 0.5696 0.2054 -0.1043
C7 C 0.59039(18) 0.1533(2) 0.03668(16)
C8 C 0.65440(19) 0.04291(19) 0.05725(15)
C9 C 0.6988(2) -0.0208(2) 0.00200(16)
H5 H 0.7212 -0.0987 0.0245
C10 C 0.71752(19) 0.01451(19) -0.08916(16)
C11 C 0.7536(2) 0.1270(2) -0.10374(16)
H6 H 0.7643 0.1855 -0.0542
C12 C 0.7740(2) 0.1548(2) -0.18844(16)
H7 H 0.7976 0.2320 -0.1982
C13 C 0.75937(18) 0.0683(2) -0.25908(15)
C14 C 0.7285(2) -0.0459(2) -0.24533(16)
H8 H 0.7218 -0.1051 -0.2935
C15 C 0.7078(2) -0.0715(2) -0.16042(17)
H9 H 0.6865 -0.1495 -0.1501
C16 C 0.84385(19) 0.00631(19) 0.30546(17)
C17 C 0.8394(2) 0.0397(2) 0.39605(16)
H10 H 0.7820 0.0116 0.4178
C18 C 0.9196(2) 0.1145(2) 0.45452(18)
H11 H 0.9181 0.1359 0.5175
C19 C 1.0022(2) 0.1587(2) 0.42267(19)
C20 C 1.0044(2) 0.1251(3) 0.3316(2)
H12 H 1.0607 0.1552 0.3093
C21 C 0.9269(2) 0.0491(2) 0.27223(19)
H13 H 0.9299 0.0262 0.2100
C22 C 1.0869(3) 0.2415(3) 0.4867(2)
H14 H 1.1605 0.2151 0.4900
H15 H 1.0819 0.2421 0.5527
H16 H 1.0738 0.3215 0.4590
loop_
_geom_bond_atom_site_label_1
_geom_bond_atom_site_label_2
_geom_bond_site_symmetry_1
_geom_bond_site_symmetry_2
S1 O4 1_555 1_555
O1 C1 1_555 1_555
O2 N2 1_555 1_555
O3 N2 1_555 1_555
O5 S1 1_555 1_555
N1 S1 1_555 1_555
N2 C13 1_555 1_555
C1 N1 1_555 1_555
C2 C1 1_555 1_555
C3 C2 1_555 1_555
H1 C3 1_555 1_555
C4 C3 1_555 1_555
H2 C4 1_555 1_555
C5 C4 1_555 1_555
H3 C5 1_555 1_555
C6 C5 1_555 1_555
H4 C6 1_555 1_555
C7 C2 1_555 1_555
C8 N1 1_555 1_555
C9 C8 1_555 1_555
H5 C9 1_555 1_555
C10 C9 1_555 1_555
C11 C10 1_555 1_555
H6 C11 1_555 1_555
C12 C11 1_555 1_555
H7 C12 1_555 1_555
C13 C12 1_555 1_555
C14 C13 1_555 1_555
H8 C14 1_555 1_555
C15 C10 1_555 1_555
H9 C15 1_555 1_555
C16 S1 1_555 1_555
C17 C16 1_555 1_555
H10 C17 1_555 1_555
C18 C17 1_555 1_555
H11 C18 1_555 1_555
C19 C18 1_555 1_555
C20 C19 1_555 1_555
H12 C20 1_555 1_555
C21 C16 1_555 1_555
H13 C21 1_555 1_555
C22 C19 1_555 1_555
H14 C22 1_555 1_555
H15 C22 1_555 1_555
H16 C22 1_555 1_555
C6 C7 1_555 1_555
C7 C8 1_555 1_555
C14 C15 1_555 1_555
C20 C21 1_555 1_555

#END
