
#######################################################################
#
#                 Cambridge Crystallographic Data Centre
#                                CCDC 
#
#######################################################################
#
# If this CIF has been generated from an entry in the Cambridge 
# Structural Database, then it will include bibliographic, chemical, 
# crystal, experimental, refinement or atomic coordinate data resulting 
# from the CCDC's data processing and validation procedures.
#
#######################################################################

data_JINLAU
_chemical_formula_moiety         
'C74 H75 N3 Na1 O6 P2 3+,3(F6 P1 1-),0.5(C1 H4 O1),0.5(H2 O1)'
_chemical_name_systematic        
"(((2)-(1,11(1,4)-Dibenzena-3,6,9,13,16,19-hexaoxacycloicosaphane)-(5,5'-bis(triphenylphosphoniomethyl)-2,2'-bipyridine) rotaxane)-N,N',O,O',O'')-acetonitrile-sodium tris(hexafluorophosphate) methanol solvate hemihydrate"
_symmetry_cell_setting           triclinic
_symmetry_space_group_name_H-M   'P -1'
_symmetry_Int_Tables_number      2
_space_group_name_Hall           '-P 1'
loop_
_symmetry_equiv_pos_site_id
_symmetry_equiv_pos_as_xyz
1 x,y,z
2 -x,-y,-z
_cell_length_a                   10.2597(2)
_cell_length_b                   14.8941(2)
_cell_length_c                   26.3207(4)
_cell_angle_alpha                86.374(1)
_cell_angle_beta                 82.008(1)
_cell_angle_gamma                77.480(1)
_cell_volume                     3885.98
_exptl_crystal_colour            colorless
_exptl_crystal_description       plate
_cell_formula_units_Z            2
loop_
_atom_site_label
_atom_site_type_symbol
_atom_site_fract_x
_atom_site_fract_y
_atom_site_fract_z
Na1 Na 0.5427(3) 0.98315(16) -0.16960(9)
P1 P 0.84415(18) 0.55743(11) -0.16168(6)
P2 P 0.31303(16) 1.22971(10) -0.37787(6)
O1 O 0.3163(5) 1.0849(3) -0.16024(18)
O2 O 0.3274(5) 0.7806(4) -0.3430(2)
O3 O 0.5629(5) 0.7415(3) -0.42035(19)
O4 O 0.8026(5) 0.7330(4) -0.38492(18)
O5 O 0.7830(5) 1.0208(4) -0.1941(2)
O6 O 0.5487(6) 1.1278(3) -0.1387(2)
N1 N 0.5812(5) 0.8350(3) -0.20827(18)
N2 N 0.5253(5) 0.9985(3) -0.25912(18)
N3 N 0.5024(8) 0.9232(5) -0.0822(3)
C1 C 0.1951(9) 1.0502(7) -0.1533(3)
H1 H 0.1178 1.1005 -0.1595
H2 H 0.1788 1.0262 -0.1175
C2 C 0.2080(7) 0.9751(6) -0.1898(3)
C3 C 0.2365(8) 0.8833(7) -0.1739(3)
H3 H 0.2436 0.8683 -0.1386
C4 C 0.2546(8) 0.8137(6) -0.2071(3)
H4 H 0.2764 0.7516 -0.1948
C5 C 0.2416(6) 0.8328(5) -0.2587(3)
C6 C 0.2109(7) 0.9245(5) -0.2753(3)
H5 H 0.2002 0.9391 -0.3103
C7 C 0.1955(7) 0.9945(6) -0.2417(3)
H6 H 0.1762 1.0566 -0.2540
C8 C 0.2616(7) 0.7565(5) -0.2950(3)
H7 H 0.3162 0.6999 -0.2806
H8 H 0.1732 0.7437 -0.2995
C9 C 0.3496(9) 0.7086(6) -0.3781(4)
H9 H 0.2624 0.6973 -0.3853
H10 H 0.4008 0.6511 -0.3633
C10 C 0.4271(9) 0.7365(7) -0.4264(3)
H11 H 0.4301 0.6918 -0.4531
H12 H 0.3795 0.7975 -0.4386
C11 C 0.6539(8) 0.6566(5) -0.4165(3)
H13 H 0.6441 0.6155 -0.4432
H14 H 0.6344 0.6265 -0.3825
C12 C 0.7928(8) 0.6722(6) -0.4233(3)
H15 H 0.8577 0.6131 -0.4198
H16 H 0.8140 0.6997 -0.4578
C13 C 0.9258(8) 0.7614(7) -0.3906(3)
H17 H 0.9468 0.7853 -0.4260
H18 H 0.9994 0.7090 -0.3834
C14 C 0.9117(7) 0.8362(6) -0.3527(3)
C15 C 0.9000(6) 0.8156(6) -0.3009(3)
H19 H 0.9092 0.7532 -0.2891
C16 C 0.8751(7) 0.8844(5) -0.2655(3)
H20 H 0.8683 0.8683 -0.2298
C17 C 0.8600(6) 0.9759(5) -0.2812(3)
C18 C 0.8736(7) 0.9976(6) -0.3335(3)
H21 H 0.8645 1.0600 -0.3452
C19 C 0.9004(8) 0.9288(7) -0.3684(3)
H22 H 0.9115 0.9445 -0.4040
C20 C 0.8321(8) 1.0515(5) -0.2440(3)
H23 H 0.9158 1.0735 -0.2424
H24 H 0.7646 1.1037 -0.2560
C21 C 0.7847(10) 1.0819(7) -0.1548(4)
H25 H 0.8692 1.1050 -0.1613
H26 H 0.7836 1.0477 -0.1213
C22 C 0.6664(10) 1.1626(6) -0.1521(4)
H27 H 0.6741 1.2057 -0.1261
H28 H 0.6639 1.1961 -0.1858
C23 C 0.4285(10) 1.1976(5) -0.1400(3)
H29 H 0.4250 1.2258 -0.1750
H30 H 0.4269 1.2464 -0.1160
C24 C 0.3131(9) 1.1540(6) -0.1250(3)
H31 H 0.3168 1.1261 -0.0899
H32 H 0.2282 1.2007 -0.1249
C25 C 0.6078(6) 0.7540(4) -0.1818(2)
H33 H 0.6123 0.7554 -0.1460
C26 C 0.6289(6) 0.6690(4) -0.2033(2)
C27 C 0.6139(6) 0.6691(4) -0.2549(2)
H34 H 0.6224 0.6126 -0.2711
C28 C 0.5868(6) 0.7511(4) -0.2825(2)
H35 H 0.5773 0.7511 -0.3179
C29 C 0.5735(5) 0.8330(4) -0.2588(2)
C30 C 0.5489(5) 0.9234(4) -0.2873(2)
C31 C 0.5533(6) 0.9297(4) -0.3401(2)
H36 H 0.5721 0.8758 -0.3596
C32 C 0.5297(6) 1.0163(4) -0.3643(2)
H37 H 0.5322 1.0218 -0.4006
C33 C 0.5026(6) 1.0945(4) -0.3358(2)
C34 C 0.5023(6) 1.0813(4) -0.2829(2)
H38 H 0.4846 1.1342 -0.2626
C35 C 0.6680(7) 0.5810(4) -0.1718(2)
H39 H 0.6507 0.5289 -0.1895
H40 H 0.6110 0.5858 -0.1380
C36 C 0.4790(6) 1.1910(4) -0.3597(2)
H41 H 0.5460 1.1927 -0.3905
H42 H 0.4937 1.2340 -0.3350
C37 C 0.9526(7) 0.5418(4) -0.2216(2)
C38 C 1.0859(8) 0.5504(5) -0.2242(3)
H43 H 1.1178 0.5678 -0.1948
C39 C 1.1716(9) 0.5335(5) -0.2694(4)
H44 H 1.2632 0.5376 -0.2708
C40 C 1.1257(10) 0.5111(5) -0.3119(3)
H45 H 1.1847 0.5018 -0.3432
C41 C 0.9934(9) 0.5016(5) -0.3102(3)
H46 H 0.9621 0.4857 -0.3400
C42 C 0.9072(8) 0.5157(4) -0.2645(3)
H47 H 0.8173 0.5075 -0.2626
C43 C 0.8845(9) 0.4557(5) -0.1216(3)
C44 C 1.0079(9) 0.4380(6) -0.1025(3)
H48 H 1.0655 0.4805 -0.1101
C45 C 1.0474(12) 0.3610(8) -0.0729(4)
H49 H 1.1305 0.3510 -0.0592
C46 C 0.9697(15) 0.3005(7) -0.0635(4)
H50 H 1.0004 0.2455 -0.0444
C47 C 0.8440(15) 0.3144(7) -0.0807(4)
H51 H 0.7885 0.2707 -0.0726
C48 C 0.8010(13) 0.3957(6) -0.1106(3)
H52 H 0.7156 0.4079 -0.1227
C49 C 0.8679(7) 0.6529(4) -0.1287(3)
C50 C 0.8157(8) 0.6596(5) -0.0770(3)
H53 H 0.7815 0.6103 -0.0593
C51 C 0.8141(10) 0.7382(6) -0.0518(3)
H54 H 0.7778 0.7434 -0.0166
C52 C 0.8644(9) 0.8085(6) -0.0772(4)
H55 H 0.8615 0.8628 -0.0596
C53 C 0.9190(8) 0.8021(5) -0.1278(4)
H56 H 0.9563 0.8508 -0.1447
C54 C 0.9196(7) 0.7246(5) -0.1541(3)
H57 H 0.9553 0.7204 -0.1894
C55 C 0.2834(6) 1.1484(4) -0.4201(2)
C56 C 0.3276(7) 1.1582(5) -0.4721(3)
H58 H 0.3665 1.2089 -0.4848
C57 C 0.3144(10) 1.0938(6) -0.5047(3)
H59 H 0.3442 1.0998 -0.5403
C58 C 0.2581(9) 1.0202(6) -0.4862(4)
H60 H 0.2485 0.9762 -0.5092
C59 C 0.2166(8) 1.0101(5) -0.4357(3)
H61 H 0.1791 0.9587 -0.4233
C60 C 0.2281(7) 1.0740(4) -0.4018(3)
H62 H 0.1984 1.0669 -0.3662
C61 C 0.3044(7) 1.3398(4) -0.4109(2)
C62 C 0.1884(8) 1.3804(5) -0.4318(3)
H63 H 0.1158 1.3496 -0.4299
C63 C 0.1798(10) 1.4681(5) -0.4558(3)
H64 H 0.1006 1.4977 -0.4701
C64 C 0.2864(12) 1.5106(5) -0.4586(3)
H65 H 0.2805 1.5700 -0.4749
C65 C 0.3981(11) 1.4702(5) -0.4390(3)
H66 H 0.4710 1.5008 -0.4418
C66 C 0.4101(8) 1.3848(5) -0.4147(3)
H67 H 0.4903 1.3569 -0.4007
C67 C 0.1880(6) 1.2435(4) -0.3225(2)
C68 C 0.2178(7) 1.2693(4) -0.2765(2)
H68 H 0.3069 1.2742 -0.2729
C69 C 0.1154(8) 1.2878(5) -0.2356(3)
H69 H 0.1353 1.3048 -0.2038
C70 C -0.0121(8) 1.2820(5) -0.2404(3)
H70 H -0.0801 1.2941 -0.2119
C71 C -0.0445(7) 1.2588(5) -0.2865(3)
H71 H -0.1347 1.2564 -0.2898
C72 C 0.0549(6) 1.2392(4) -0.3277(3)
H72 H 0.0336 1.2228 -0.3594
C73 C 0.4660(9) 0.9027(5) -0.0418(3)
C74 C 0.4185(11) 0.8760(7) 0.0100(3)
H73 H 0.3241 0.9069 0.0187
H74 H 0.4731 0.8939 0.0338
H75 H 0.4261 0.8092 0.0126
P3 P 0.0000 0.0000 0.0000
F1 F 0.1206(6) 0.0502(4) -0.01536(19)
F2 F 0.0604(7) -0.0344(6) 0.0502(2)
F3 F -0.0844(7) 0.0829(5) 0.0314(3)
F1A F -0.1206(6) -0.0502(4) 0.01536(19)
F2A F -0.0604(7) 0.0344(6) -0.0502(2)
F3A F 0.0844(7) -0.0829(5) -0.0314(3)
P4 P 0.1707(2) -0.22868(18) 0.45674(8)
F4 F 0.0614(9) -0.2811(8) 0.4616(4)
F5 F 0.2777(8) -0.1713(6) 0.4512(3)
F6 F 0.1564(7) -0.2238(7) 0.5145(2)
F7 F 0.2890(8) -0.3076(7) 0.4559(3)
F8 F 0.1946(8) -0.2314(7) 0.3975(3)
F9 F 0.0588(11) -0.1508(8) 0.4555(4)
P5 P -0.5539(6) 0.6085(4) 0.2600(2)
F10 F -0.4692(12) 0.5929(8) 0.3055(4)
F11 F -0.6459(6) 0.6188(4) 0.2198(3)
F12 F -0.5990(7) 0.7045(4) 0.2762(3)
F13 F -0.4322(7) 0.6258(6) 0.2278(3)
F14 F -0.4924(11) 0.5068(6) 0.2481(5)
F15 F -0.6408(11) 0.5644(6) 0.2963(4)
O7 O 1.238(2) 0.6435(15) -0.0896(10)
H76 H 1.1545 0.6618 -0.0838
C75 C 1.294(3) 0.6919(17) -0.0676(12)
H77 H 1.2677 0.6860 -0.0304
H78 H 1.2657 0.7562 -0.0791
H79 H 1.3915 0.6721 -0.0755
O8 O -0.785(2) 0.5547(10) 0.3844(8)
H80 H -0.7272 0.5300 0.3828
H81 H -0.7832 0.6037 0.3978
P6? P 1.5365(15) 0.5915(10) 0.0238(5)
F16? F 1.425(2) 0.5383(15) 0.0145(8)
F17? F 1.6311(18) 0.6416(13) 0.0355(6)
F18? F 1.519(2) 0.5422(14) 0.0759(6)
F19? F 1.649(2) 0.5211(14) 0.0010(8)
F20? F 1.532(2) 0.6352(14) -0.0302(6)
F21? F 1.431(2) 0.6671(12) 0.0433(7)
loop_
_geom_bond_atom_site_label_1
_geom_bond_atom_site_label_2
_geom_bond_site_symmetry_1
_geom_bond_site_symmetry_2
Na1 O1 1_555 1_555
P1 C35 1_555 1_555
P2 C36 1_555 1_555
O1 C1 1_555 1_555
O2 C8 1_555 1_555
O3 C10 1_555 1_555
O4 C12 1_555 1_555
O5 Na1 1_555 1_555
O6 Na1 1_555 1_555
N1 Na1 1_555 1_555
N2 Na1 1_555 1_555
N3 Na1 1_555 1_555
C1 H1 1_555 1_555
H2 C1 1_555 1_555
C2 C1 1_555 1_555
C3 C2 1_555 1_555
H3 C3 1_555 1_555
C4 C3 1_555 1_555
H4 C4 1_555 1_555
C5 C4 1_555 1_555
C6 C5 1_555 1_555
H5 C6 1_555 1_555
C7 C2 1_555 1_555
H6 C7 1_555 1_555
C8 C5 1_555 1_555
H7 C8 1_555 1_555
H8 C8 1_555 1_555
C9 O2 1_555 1_555
H9 C9 1_555 1_555
H10 C9 1_555 1_555
C10 C9 1_555 1_555
H11 C10 1_555 1_555
H12 C10 1_555 1_555
C11 O3 1_555 1_555
H13 C11 1_555 1_555
H14 C11 1_555 1_555
C12 C11 1_555 1_555
H15 C12 1_555 1_555
H16 C12 1_555 1_555
C13 O4 1_555 1_555
H17 C13 1_555 1_555
H18 C13 1_555 1_555
C14 C13 1_555 1_555
C15 C14 1_555 1_555
H19 C15 1_555 1_555
C16 C15 1_555 1_555
H20 C16 1_555 1_555
C17 C16 1_555 1_555
C18 C17 1_555 1_555
H21 C18 1_555 1_555
C19 C14 1_555 1_555
H22 C19 1_555 1_555
C20 O5 1_555 1_555
H23 C20 1_555 1_555
H24 C20 1_555 1_555
C21 O5 1_555 1_555
H25 C21 1_555 1_555
H26 C21 1_555 1_555
C22 O6 1_555 1_555
H27 C22 1_555 1_555
H28 C22 1_555 1_555
C23 O6 1_555 1_555
H29 C23 1_555 1_555
H30 C23 1_555 1_555
C24 O1 1_555 1_555
H31 C24 1_555 1_555
H32 C24 1_555 1_555
C25 N1 1_555 1_555
H33 C25 1_555 1_555
C26 C25 1_555 1_555
C27 C26 1_555 1_555
H34 C27 1_555 1_555
C28 C27 1_555 1_555
H35 C28 1_555 1_555
C29 N1 1_555 1_555
C30 N2 1_555 1_555
C31 C30 1_555 1_555
H36 C31 1_555 1_555
C32 C31 1_555 1_555
H37 C32 1_555 1_555
C33 C32 1_555 1_555
C34 N2 1_555 1_555
H38 C34 1_555 1_555
C35 C26 1_555 1_555
H39 C35 1_555 1_555
H40 C35 1_555 1_555
C36 C33 1_555 1_555
H41 C36 1_555 1_555
H42 C36 1_555 1_555
C37 P1 1_555 1_555
C38 C37 1_555 1_555
H43 C38 1_555 1_555
C39 C38 1_555 1_555
H44 C39 1_555 1_555
C40 C39 1_555 1_555
H45 C40 1_555 1_555
C41 C40 1_555 1_555
H46 C41 1_555 1_555
C42 C37 1_555 1_555
H47 C42 1_555 1_555
C43 P1 1_555 1_555
C44 C43 1_555 1_555
H48 C44 1_555 1_555
C45 C44 1_555 1_555
H49 C45 1_555 1_555
C46 C45 1_555 1_555
H50 C46 1_555 1_555
C47 C46 1_555 1_555
H51 C47 1_555 1_555
C48 C43 1_555 1_555
H52 C48 1_555 1_555
C49 P1 1_555 1_555
C50 C49 1_555 1_555
H53 C50 1_555 1_555
C51 C50 1_555 1_555
H54 C51 1_555 1_555
C52 C51 1_555 1_555
H55 C52 1_555 1_555
C53 C52 1_555 1_555
H56 C53 1_555 1_555
C54 C49 1_555 1_555
H57 C54 1_555 1_555
C55 P2 1_555 1_555
C56 C55 1_555 1_555
H58 C56 1_555 1_555
C57 C56 1_555 1_555
H59 C57 1_555 1_555
C58 C57 1_555 1_555
H60 C58 1_555 1_555
C59 C58 1_555 1_555
H61 C59 1_555 1_555
C60 C55 1_555 1_555
H62 C60 1_555 1_555
C61 P2 1_555 1_555
C62 C61 1_555 1_555
H63 C62 1_555 1_555
C63 C62 1_555 1_555
H64 C63 1_555 1_555
C64 C63 1_555 1_555
H65 C64 1_555 1_555
C65 C64 1_555 1_555
H66 C65 1_555 1_555
C66 C61 1_555 1_555
H67 C66 1_555 1_555
C67 P2 1_555 1_555
C68 C67 1_555 1_555
H68 C68 1_555 1_555
C69 C68 1_555 1_555
H69 C69 1_555 1_555
C70 C69 1_555 1_555
H70 C70 1_555 1_555
C71 C70 1_555 1_555
H71 C71 1_555 1_555
C72 C67 1_555 1_555
H72 C72 1_555 1_555
C73 N3 1_555 1_555
C74 C73 1_555 1_555
H73 C74 1_555 1_555
H74 C74 1_555 1_555
H75 C74 1_555 1_555
P3 F1 1_555 1_555
F2 P3 1_555 1_555
F3 P3 1_555 1_555
P4 F4 1_555 1_555
F5 P4 1_555 1_555
F6 P4 1_555 1_555
F7 P4 1_555 1_555
F8 P4 1_555 1_555
F9 P4 1_555 1_555
P5 F10 1_555 1_555
F11 P5 1_555 1_555
F12 P5 1_555 1_555
F13 P5 1_555 1_555
F14 P5 1_555 1_555
F15 P5 1_555 1_555
O7 H76 1_555 1_555
C75 O7 1_555 1_555
H77 C75 1_555 1_555
H78 C75 1_555 1_555
H79 C75 1_555 1_555
O8 H80 1_555 1_555
H81 O8 1_555 1_555
F1A P3 1_555 1_555
F2A P3 1_555 1_555
F3A P3 1_555 1_555
C6 C7 1_555 1_555
C17 C20 1_555 1_555
C18 C19 1_555 1_555
C21 C22 1_555 1_555
C23 C24 1_555 1_555
C28 C29 1_555 1_555
C29 C30 1_555 1_555
C33 C34 1_555 1_555
C41 C42 1_555 1_555
C47 C48 1_555 1_555
C53 C54 1_555 1_555
C59 C60 1_555 1_555
C65 C66 1_555 1_555
C71 C72 1_555 1_555

#END
