
#######################################################################
#
#                 Cambridge Crystallographic Data Centre
#                                CCDC 
#
#######################################################################
#
# If this CIF has been generated from an entry in the Cambridge 
# Structural Database, then it will include bibliographic, chemical, 
# crystal, experimental, refinement or atomic coordinate data resulting 
# from the CCDC's data processing and validation procedures.
#
#######################################################################

data_JINVAG
_chemical_formula_moiety         'C9 H7 N5 O1'
_chemical_name_systematic        5-methyltetrazolo[1,5-a]quinoxalin-4(5H)-one
_symmetry_cell_setting           orthorhombic
_symmetry_space_group_name_H-M   'P b c a'
_symmetry_Int_Tables_number      61
_space_group_name_Hall           '-P 2ac 2ab'
loop_
_symmetry_equiv_pos_site_id
_symmetry_equiv_pos_as_xyz
1 x,y,z
2 1/2-x,-y,1/2+z
3 -x,1/2+y,1/2-z
4 1/2+x,1/2-y,-z
5 -x,-y,-z
6 1/2+x,y,1/2-z
7 x,1/2-y,1/2+z
8 1/2-x,1/2+y,z
_cell_length_a                   9.1624(18)
_cell_length_b                   13.213(3)
_cell_length_c                   14.386(3)
_cell_angle_alpha                90
_cell_angle_beta                 90
_cell_angle_gamma                90
_cell_volume                     1741.61
_exptl_crystal_description       block
_cell_formula_units_Z            8
loop_
_atom_site_label
_atom_site_type_symbol
_atom_site_fract_x
_atom_site_fract_y
_atom_site_fract_z
O1 O -0.03866(19) 0.59319(14) 0.63018(14)
N1 N 0.2080(2) 0.60481(15) 0.60702(13)
N2 N 0.1612(2) 0.63720(14) 0.42202(14)
N3 N 0.1113(3) 0.65272(16) 0.33482(14)
N4 N -0.0302(2) 0.64847(18) 0.34126(16)
N5 N -0.0749(2) 0.63083(17) 0.42976(17)
C1 C 0.3281(3) 0.61846(16) 0.54665(18)
C2 C 0.4711(3) 0.6153(2) 0.5790(2)
H1 H 0.4896 0.6049 0.6432
C3 C 0.5865(3) 0.62726(18) 0.5180(2)
H2 H 0.6837 0.6241 0.5408
C4 C 0.5620(3) 0.6437(2) 0.4242(2)
H3 H 0.6425 0.6519 0.3832
C5 C 0.4217(3) 0.64836(18) 0.39001(19)
H4 H 0.4043 0.6601 0.3258
C6 C 0.3066(3) 0.63550(17) 0.45136(17)
C7 C 0.0467(3) 0.62450(18) 0.47866(18)
C8 C 0.0654(3) 0.60587(19) 0.57864(18)
C9 C 0.2350(3) 0.5861(3) 0.70607(18)
H5 H 0.1424 0.5709 0.7372
H6 H 0.2789 0.6464 0.7342
H7 H 0.3016 0.5286 0.7129
loop_
_geom_bond_atom_site_label_1
_geom_bond_atom_site_label_2
_geom_bond_site_symmetry_1
_geom_bond_site_symmetry_2
O1 C8 1_555 1_555
N1 C1 1_555 1_555
N2 N3 1_555 1_555
N3 N4 1_555 1_555
N4 N5 1_555 1_555
N5 C7 1_555 1_555
C1 C2 1_555 1_555
C2 H1 1_555 1_555
C3 C2 1_555 1_555
H2 C3 1_555 1_555
C4 C3 1_555 1_555
H3 C4 1_555 1_555
C5 C4 1_555 1_555
H4 C5 1_555 1_555
C6 N2 1_555 1_555
C7 N2 1_555 1_555
C8 N1 1_555 1_555
C9 N1 1_555 1_555
H5 C9 1_555 1_555
H6 C9 1_555 1_555
H7 C9 1_555 1_555
C1 C6 1_555 1_555
C5 C6 1_555 1_555
C7 C8 1_555 1_555

#END
