
#######################################################################
#
#                 Cambridge Crystallographic Data Centre
#                                CCDC 
#
#######################################################################
#
# If this CIF has been generated from an entry in the Cambridge 
# Structural Database, then it will include bibliographic, chemical, 
# crystal, experimental, refinement or atomic coordinate data resulting 
# from the CCDC's data processing and validation procedures.
#
#######################################################################

data_JINZIS
_chemical_formula_moiety         'C21 H16 O3 S1'
_chemical_name_systematic        
(E)-1,3-diphenyl-3-(phenylsulfonyl)prop-2-en-1-one
_symmetry_cell_setting           monoclinic
_symmetry_space_group_name_H-M   'P 21/n'
_symmetry_Int_Tables_number      14
_space_group_name_Hall           '-P 2yn'
loop_
_symmetry_equiv_pos_site_id
_symmetry_equiv_pos_as_xyz
1 x,y,z
2 1/2-x,1/2+y,1/2-z
3 -x,-y,-z
4 1/2+x,1/2-y,1/2+z
_cell_length_a                   12.2922(5)
_cell_length_b                   8.7198(2)
_cell_length_c                   16.6389(6)
_cell_angle_alpha                90
_cell_angle_beta                 106.399(4)
_cell_angle_gamma                90
_cell_volume                     1710.9
_exptl_crystal_colour            yellow
_exptl_crystal_description       block
_cell_formula_units_Z            4
_exptl_crystal_recrystallization_method 
'Re-crystallisation from solvent: dichloromethane/ethyl acetate'
loop_
_atom_site_label
_atom_site_type_symbol
_atom_site_fract_x
_atom_site_fract_y
_atom_site_fract_z
S1 S 0.57908(6) 0.63705(6) 0.27575(4)
O1 O 0.5038(2) 0.3270(3) 0.03972(14)
O2 O 0.47035(18) 0.6846(2) 0.28521(13)
O3 O 0.65297(18) 0.7506(2) 0.25729(12)
C1 C 0.7935(3) 0.4418(3) 0.06308(18)
H1 H 0.8061 0.5041 0.1102
C2 C 0.8807(3) 0.4134(4) 0.0279(2)
H2 H 0.9521 0.4551 0.0521
C3 C 0.8627(3) 0.3234(4) -0.0431(2)
H3 H 0.9214 0.3064 -0.0671
C4 C 0.7574(3) 0.2589(3) -0.07831(19)
H4 H 0.7452 0.1983 -0.1260
C5 C 0.6700(3) 0.2842(3) -0.04265(18)
H5 H 0.5996 0.2390 -0.0659
C6 C 0.6869(3) 0.3776(3) 0.02828(17)
C7 C 0.5917(3) 0.3980(3) 0.06569(17)
C8 C 0.6054(2) 0.5098(3) 0.13626(17)
H6 H 0.6515 0.5951 0.1382
C9 C 0.5541(2) 0.4919(3) 0.19634(16)
C10 C 0.4859(3) 0.3594(3) 0.20981(17)
C11 C 0.3696(3) 0.3724(3) 0.19927(19)
H7 H 0.3332 0.4658 0.1837
C12 C 0.3087(3) 0.2461(4) 0.21201(19)
H8 H 0.2313 0.2550 0.2053
C13 C 0.3620(3) 0.1065(4) 0.2347(2)
H9 H 0.3202 0.0217 0.2425
C14 C 0.4777(3) 0.0931(3) 0.2457(2)
H10 H 0.5139 -0.0005 0.2609
C15 C 0.5387(3) 0.2193(3) 0.23403(18)
H11 H 0.6166 0.2107 0.2425
C16 C 0.6524(2) 0.5312(3) 0.36502(16)
C17 C 0.5950(3) 0.4714(3) 0.41824(18)
H12 H 0.5183 0.4920 0.4097
C18 C 0.6537(3) 0.3802(4) 0.4846(2)
H13 H 0.6166 0.3393 0.5213
C19 C 0.7681(3) 0.3499(3) 0.4964(2)
H14 H 0.8071 0.2883 0.5408
C20 C 0.8242(3) 0.4103(4) 0.4428(2)
H15 H 0.9009 0.3896 0.4511
C21 C 0.7666(3) 0.5019(3) 0.37649(19)
H16 H 0.8040 0.5432 0.3401
loop_
_geom_bond_atom_site_label_1
_geom_bond_atom_site_label_2
_geom_bond_site_symmetry_1
_geom_bond_site_symmetry_2
S1 O2 1_555 1_555
O1 C7 1_555 1_555
O3 S1 1_555 1_555
C1 H1 1_555 1_555
C2 C1 1_555 1_555
H2 C2 1_555 1_555
C3 C2 1_555 1_555
H3 C3 1_555 1_555
C4 C3 1_555 1_555
H4 C4 1_555 1_555
C5 C4 1_555 1_555
H5 C5 1_555 1_555
C6 C1 1_555 1_555
C7 C6 1_555 1_555
C8 C7 1_555 1_555
H6 C8 1_555 1_555
C9 S1 1_555 1_555
C10 C9 1_555 1_555
C11 C10 1_555 1_555
H7 C11 1_555 1_555
C12 C11 1_555 1_555
H8 C12 1_555 1_555
C13 C12 1_555 1_555
H9 C13 1_555 1_555
C14 C13 1_555 1_555
H10 C14 1_555 1_555
C15 C10 1_555 1_555
H11 C15 1_555 1_555
C16 S1 1_555 1_555
C17 C16 1_555 1_555
H12 C17 1_555 1_555
C18 C17 1_555 1_555
H13 C18 1_555 1_555
C19 C18 1_555 1_555
H14 C19 1_555 1_555
C20 C19 1_555 1_555
H15 C20 1_555 1_555
C21 C16 1_555 1_555
H16 C21 1_555 1_555
C5 C6 1_555 1_555
C8 C9 1_555 1_555
C14 C15 1_555 1_555
C20 C21 1_555 1_555

#END
