
#######################################################################
#
#                 Cambridge Crystallographic Data Centre
#                                CCDC 
#
#######################################################################
#
# If this CIF has been generated from an entry in the Cambridge 
# Structural Database, then it will include bibliographic, chemical, 
# crystal, experimental, refinement or atomic coordinate data resulting 
# from the CCDC's data processing and validation procedures.
#
#######################################################################

data_JIPGUN
_chemical_formula_moiety         'C20 H15 F1 N4 O2'
_chemical_name_systematic        
N-[4-cyano-1-(4-fluorophenyl)-1H-pyrazol-5-yl]-3-(4-methoxyphenyl)prop-2-enamide
_symmetry_cell_setting           orthorhombic
_symmetry_space_group_name_H-M   'P b c n'
_symmetry_Int_Tables_number      60
_space_group_name_Hall           '-P 2n 2ab'
loop_
_symmetry_equiv_pos_site_id
_symmetry_equiv_pos_as_xyz
1 x,y,z
2 1/2-x,1/2-y,1/2+z
3 -x,y,1/2-z
4 1/2+x,1/2-y,-z
5 -x,-y,-z
6 1/2+x,1/2+y,1/2-z
7 x,-y,1/2+z
8 1/2-x,1/2+y,z
_cell_length_a                   19.392(7)
_cell_length_b                   9.952(4)
_cell_length_c                   18.419(7)
_cell_angle_alpha                90
_cell_angle_beta                 90
_cell_angle_gamma                90
_cell_volume                     3554.67
_exptl_crystal_colour            yellow
_exptl_crystal_description       block
_cell_formula_units_Z            8
loop_
_atom_site_label
_atom_site_type_symbol
_atom_site_fract_x
_atom_site_fract_y
_atom_site_fract_z
N1 N 0.27631(5) 0.11189(10) 0.15911(5)
N2 N 0.34950(5) 0.11646(10) 0.05138(5)
O1 O 0.25498(5) -0.10871(9) 0.17879(5)
F1 F 0.18234(6) 0.32138(10) -0.16514(5)
O2 O -0.08794(6) 0.08226(11) 0.44599(7)
C1 C 0.13627(7) -0.03308(13) 0.26286(7)
H1 H 0.1461 -0.1236 0.2559
C2 C 0.23792(6) 0.00934(12) 0.18804(6)
C3 C 0.33866(6) 0.08951(11) 0.12309(6)
N3 N 0.41556(6) 0.08349(13) 0.03132(6)
C4 C 0.07734(7) -0.00317(13) 0.30909(7)
C5 C 0.41095(7) -0.00312(15) 0.22338(8)
C6 C 0.31863(8) 0.13859(14) -0.07555(7)
H2 H 0.3564 0.0851 -0.0871
C7 C 0.17785(6) 0.05361(13) 0.22935(7)
H3 H 0.1683 0.1450 0.2324
C8 C 0.04095(8) -0.10772(14) 0.34213(8)
H4 H 0.0542 -0.1960 0.3330
C9 C 0.05520(8) 0.12784(14) 0.32381(8)
H5 H 0.0781 0.1998 0.3024
C10 C 0.39942(7) 0.03756(13) 0.14980(7)
C11 C 0.30365(7) 0.16777(12) -0.00348(6)
C12 C 0.44484(7) 0.03591(14) 0.09051(7)
H6 H 0.4901 0.0050 0.0927
C13 C 0.20502(8) 0.29594(15) -0.04067(8)
H7 H 0.1662 0.3471 -0.0297
C14 C 0.27707(9) 0.18943(15) -0.13000(8)
H8 H 0.2864 0.1704 -0.1784
C15 C 0.24689(7) 0.24624(15) 0.01403(7)
H9 H 0.2370 0.2654 0.0623
C16 C 0.00056(8) 0.15262(15) 0.36901(9)
H10 H -0.0131 0.2407 0.3778
C17 C -0.01425(7) -0.08377(14) 0.38801(9)
H11 H -0.0375 -0.1552 0.4094
C18 C 0.22203(8) 0.26805(15) -0.11146(7)
C19 C -0.03460(7) 0.04681(14) 0.40186(8)
N4 N 0.41958(7) -0.03466(16) 0.28223(7)
C20 C -0.12582(9) -0.02304(17) 0.47968(10)
H12 H -0.0952 -0.0768 0.5085
H13 H -0.1468 -0.0781 0.4430
H14 H -0.1610 0.0147 0.5102
H15 H 0.2654(8) 0.1957(17) 0.1689(8)
loop_
_geom_bond_atom_site_label_1
_geom_bond_atom_site_label_2
_geom_bond_site_symmetry_1
_geom_bond_site_symmetry_2
N1 C2 1_555 1_555
N2 C3 1_555 1_555
O1 C2 1_555 1_555
F1 C18 1_555 1_555
O2 C19 1_555 1_555
C1 H1 1_555 1_555
C2 C7 1_555 1_555
C3 N1 1_555 1_555
N3 N2 1_555 1_555
C4 C1 1_555 1_555
C5 C10 1_555 1_555
C6 H2 1_555 1_555
C7 C1 1_555 1_555
H3 C7 1_555 1_555
C8 C4 1_555 1_555
H4 C8 1_555 1_555
C9 C4 1_555 1_555
H5 C9 1_555 1_555
C10 C3 1_555 1_555
C11 N2 1_555 1_555
C12 N3 1_555 1_555
H6 C12 1_555 1_555
C13 H7 1_555 1_555
C14 C6 1_555 1_555
H8 C14 1_555 1_555
C15 C11 1_555 1_555
H9 C15 1_555 1_555
C16 C9 1_555 1_555
H10 C16 1_555 1_555
C17 C8 1_555 1_555
H11 C17 1_555 1_555
C18 C13 1_555 1_555
C19 C16 1_555 1_555
N4 C5 1_555 1_555
C20 O2 1_555 1_555
H12 C20 1_555 1_555
H13 C20 1_555 1_555
H14 C20 1_555 1_555
H15 N1 1_555 1_555
C6 C11 1_555 1_555
C10 C12 1_555 1_555
C13 C15 1_555 1_555
C14 C18 1_555 1_555
C17 C19 1_555 1_555

#END
